drugbank_target|P61158 Actin-related protein 3 (DB08235; DB08236)
 OpenBabel12092120503D

  0  0  0     0  0            999 V3000
M  V30 BEGIN CTAB
M  V30 COUNTS 6636 6719 0 0 0
M  V30 BEGIN ATOM
M  V30 1 H -0.908 1.98254 -0.117106 0
M  V30 2 N 0 1.576 0 0
M  V30 3 C 0.933 2.03868 1.02534 0
M  V30 4 C 1.911 0.928543 1.3348 0
M  V30 5 O 3.095 1.19667 1.45644 0
M  V30 6 C 0.222 2.43627 2.35294 0
M  V30 7 C -0.732 3.65373 2.2001 0
M  V30 8 S 0.101 5.13292 1.52614 0
M  V30 9 C 1.257 5.56322 2.86805 0
M  V30 10 H 1.49 2.90518 0.631377 0
M  V30 11 H -0.977 1.52953 0.210867 0
M  V30 12 H 0.981 2.67203 3.11629 0
M  V30 13 H -0.358 1.57376 2.7183 0
M  V30 14 H -1.165 3.90944 3.18086 0
M  V30 15 H -1.563 3.418 1.51819 0
M  V30 16 H 0.729 5.58782 3.83104 0
M  V30 17 H 1.672 6.56266 2.65933 0
M  V30 18 H 2.08 4.83886 2.90714 0
M  V30 19 N 1.4781 -0.272755 1.55222 0
M  V30 20 C 2.4411 -1.32041 1.87344 0
M  V30 21 C 3.4411 -1.42342 0.74803 0
M  V30 22 O 4.6311 -1.41488 1.0162 0
M  V30 23 C 1.7631 -2.70173 2.07893 0
M  V30 24 H 2.9561 -1.04789 2.80997 0
M  V30 25 H 0.5091 -0.51083 1.47717 0
M  V30 26 H 1.2441 -3.02605 1.16622 0
M  V30 27 H 1.0291 -2.64082 2.89833 0
M  V30 28 H 2.5191 -3.45869 2.34017 0
M  V30 29 N 2.9562 -1.48159 -0.537278 0
M  V30 30 C 4.2042 -1.55497 -1.29094 0
M  V30 31 C 4.5252 -0.227454 -1.93669 0
M  V30 32 O 3.7952 0.750386 -1.80959 0
M  V30 33 H 2.3752 -0.572832 -0.47945 0
M  V30 34 H 5.0372 -1.84579 -0.625818 0
M  V30 35 H 4.1332 -2.33216 -2.07405 0
M  V30 36 N 4.4343 0.785586 -1.36625 0
M  V30 37 C 5.8503 1.08419 -1.17122 0
M  V30 38 C 6.0503 2.015 0.00208491 0
M  V30 39 O 5.1063 2.43551 0.666278 0
M  V30 40 C 6.4193 1.69498 -2.48377 0
M  V30 41 C 7.9673 1.81821 -2.54775 0
M  V30 42 C 8.4423 2.46315 -3.86126 0
M  V30 43 N 9.9333 2.53779 -3.87492 0
M  V30 44 C 10.6683 3.045 -4.85868 0
M  V30 45 N 10.1643 3.55499 -5.94637 0
M  V30 46 N 11.9573 3.03247 -4.73284 0
M  V30 47 H 4.1083 0.167264 -2.1174 0
M  V30 48 H 6.3713 0.13682 -0.938075 0
M  V30 49 H 6.0773 1.08571 -3.34522 0
M  V30 50 H 5.9513 2.6896 -2.64462 0
M  V30 51 H 8.3383 2.41884 -1.69045 0
M  V30 52 H 8.4193 0.811532 -2.42586 0
M  V30 53 H 8.0633 1.86895 -4.72263 0
M  V30 54 H 7.9933 3.47561 -3.95612 0
M  V30 55 H 10.4843 2.17672 -3.08913 0
M  V30 56 H 10.7973 3.92562 -6.65669 0
M  V30 57 H 9.1423 3.5364 -5.98301 0
M  V30 58 H 12.3333 2.62696 -3.87438 0
M  V30 59 H 12.5063 3.42467 -5.50109 0
M  V30 60 N 5.9124 1.20967 1.01018 0
M  V30 61 C 6.8424 0.988272 2.11555 0
M  V30 62 C 7.8234 -0.0849778 1.69888 0
M  V30 63 O 9.0084 0.0738202 1.9406 0
M  V30 64 C 6.1384 0.546528 3.42973 0
M  V30 65 C 5.0924 1.56375 3.9841 0
M  V30 66 C 4.4184 0.97842 5.25672 0
M  V30 67 C 5.7184 2.94922 4.31066 0
M  V30 68 H 7.4124 1.91276 2.30334 0
M  V30 69 H 4.9584 0.921073 1.1069 0
M  V30 70 H 6.9114 0.378839 4.19694 0
M  V30 71 H 5.6354 -0.413598 3.23971 0
M  V30 72 H 4.2944 1.71891 3.23804 0
M  V30 73 H 3.9424 0.0101688 5.02999 0
M  V30 74 H 3.6424 1.65784 5.63728 0
M  V30 75 H 5.1664 0.821939 6.05043 0
M  V30 76 H 6.5804 2.8288 4.9865 0
M  V30 77 H 4.9774 3.5983 4.80253 0
M  V30 78 H 6.0474 3.4616 3.39561 0
M  V30 79 N 7.3905 -1.2043 1.01659 0
M  V30 80 C 8.8015 -1.71517 0.737482 0
M  V30 81 C 9.1525 -1.81547 -0.743973 0
M  V30 82 O 8.2775 -1.47803 -1.58061 0
M  V30 83 C 8.8725 -3.11515 1.33206 0
M  V30 84 C 7.4315 -3.59912 1.10183 0
M  V30 85 C 6.5785 -2.37116 1.43776 0
M  V30 86 H 9.5295 -1.05444 1.18606 0
M  V30 87 H 9.5505 -3.73575 0.722636 0
M  V30 88 H 9.0625 -3.04182 2.41028 0
M  V30 89 H 7.1635 -3.72577 0.0412756 0
M  V30 90 H 7.2765 -4.44731 1.78188 0
M  V30 91 H 5.6405 -2.39857 0.856778 0
M  V30 92 H 6.4235 -2.32424 2.52654 0
M  V30 93 N 8.8686 -0.792821 -1.36206 0
M  V30 94 C 9.8316 -0.199459 -2.2833 0
M  V30 95 C 10.8316 0.605189 -1.48977 0
M  V30 96 O 12.0216 0.425685 -1.68919 0
M  V30 97 C 9.1536 0.723523 -3.33134 0
M  V30 98 H 10.3466 -1.01181 -2.82316 0
M  V30 99 H 7.8996 -0.562485 -1.45828 0
M  V30 100 H 8.6346 1.56008 -2.84309 0
M  V30 101 H 8.4196 0.148436 -3.91819 0
M  V30 102 H 9.9096 1.13344 -4.01924 0
M  V30 103 N 10.3467 1.47872 -0.545128 0
M  V30 104 C 11.5867 2.04391 -0.0187854 0
M  V30 105 C 11.9507 1.41162 1.30144 0
M  V30 106 O 13.1517 1.88656 1.91474 0
M  V30 107 C 11.4227 3.57299 0.0850867 0
M  V30 108 S 12.9817 4.35221 0.559302 0
M  V30 109 H 9.7997 0.710737 -0.0193301 0
M  V30 110 H 12.4017 1.81395 -0.729125 0
M  V30 111 H 11.1057 4.00847 -0.880351 0
M  V30 112 H 10.6367 3.84773 0.819348 0
M  V30 113 H 12.6517 4.61571 1.82118 0
M  V30 114 N 11.8248 0.280983 1.55075 0
M  V30 115 C 13.0708 -0.33461 2.00021 0
M  V30 116 C 13.4038 -1.55063 1.16915 0
M  V30 117 O 12.6788 -1.93006 0.240646 0
M  V30 118 C 12.9618 -0.711007 3.53011 0
M  V30 119 C 12.8148 0.512766 4.46868 0
M  V30 120 C 14.1338 -1.54522 4.12081 0
M  V30 121 H 11.2528 -0.120147 0.727141 0
M  V30 122 H 13.8948 0.389097 1.85973 0
M  V30 123 H 12.0448 -1.32761 3.65112 0
M  V30 124 H 13.7168 1.15131 4.46702 0
M  V30 125 H 11.9598 1.14975 4.18286 0
M  V30 126 H 12.6308 0.205556 5.51617 0
M  V30 127 H 15.1068 -1.02442 4.03293 0
M  V30 128 H 13.9828 -1.77739 5.19327 0
M  V30 129 H 14.2438 -2.52813 3.62682 0
M  V30 130 N 13.3029 -1.57598 0.00835791 0
M  V30 131 C 14.5489 -1.91211 -0.675732 0
M  V30 132 C 14.8819 -0.883139 -1.72958 0
M  V30 133 O 14.1569 0.097016 -1.94258 0
M  V30 134 C 14.4399 -3.35379 -1.31123 0
M  V30 135 C 14.2929 -4.48999 -0.268356 0
M  V30 136 C 15.6119 -3.7912 -2.23508 0
M  V30 137 H 12.7309 -0.695374 -0.244179 0
M  V30 138 H 15.3729 -1.89901 0.0613655 0
M  V30 139 H 13.5229 -3.36626 -1.93946 0
M  V30 140 H 15.1949 -4.59887 0.360844 0
M  V30 141 H 13.4379 -4.31873 0.408482 0
M  V30 142 H 14.1089 -5.46851 -0.752218 0
M  V30 143 H 16.5849 -3.79477 -1.70693 0
M  V30 144 H 15.4609 -4.80729 -2.64936 0
M  V30 145 H 15.7219 -3.13455 -3.11766 0
M  V30 146 N 14.781 0.264519 -1.55364 0
M  V30 147 C 16.058 1.01677 -1.67096 0
M  V30 148 C 16.438 2.03996 -0.543015 0
M  V30 149 O 15.786 2.23907 0.45585 0
M  V30 150 C 15.996 1.66596 -3.0667 0
M  V30 151 C 17.344 2.17442 -3.64697 0
M  V30 152 O 18.368 1.76568 -3.09358 0
M  V30 153 O 17.227 2.92439 -4.61673 0
M  V30 154 H 14.321 0.472161 -0.678965 0
M  V30 155 H 16.867 0.259703 -1.67701 0
M  V30 156 H 15.639 0.924962 -3.80211 0
M  V30 157 H 15.262 2.48968 -3.10001 0
M  V30 158 N 16.2591 1.48442 0.529413 0
M  V30 159 C 17.4991 1.58086 1.29569 0
M  V30 160 C 17.8631 0.249302 1.90375 0
M  V30 161 O 19.0641 0.220738 2.67892 0
M  V30 162 C 17.3351 2.68793 2.35552 0
M  V30 163 S 18.8941 2.98207 3.21898 0
M  V30 164 H 15.7121 0.557922 0.440732 0
M  V30 165 H 18.3141 1.85966 0.603059 0
M  V30 166 H 17.0181 3.64102 1.89363 0
M  V30 167 H 16.5491 2.42817 3.09522 0
M  V30 168 H 18.5641 2.37548 4.35644 0
M  V30 169 N 17.7372 -0.778329 1.37039 0
M  V30 170 C 18.9852 -1.53361 1.31623 0
M  V30 171 C 19.3062 -1.94739 -0.100831 0
M  V30 172 O 18.5762 -1.65797 -1.04347 0
M  V30 173 H 17.1562 -0.568794 0.484234 0
M  V30 174 H 19.8182 -0.926742 1.71457 0
M  V30 175 H 18.9142 -2.43606 1.95096 0
M  V30 176 N 19.2153 -1.21501 -1.00376 0
M  V30 177 C 20.4433 -1.059 -1.77744 0
M  V30 178 C 20.8583 0.391125 -1.84704 0
M  V30 179 O 20.2153 1.27133 -1.30933 0
M  V30 180 C 20.2663 -1.65111 -3.21591 0
M  V30 181 O 19.9873 -3.0445 -3.15027 0
M  V30 182 C 21.4883 -1.54637 -4.15454 0
M  V30 183 H 18.7083 -0.371825 -0.558558 0
M  V30 184 H 21.2523 -1.60865 -1.26264 0
M  V30 185 H 19.4073 -1.14235 -3.70175 0
M  V30 186 H 19.8213 -3.3278 -4.0541 0
M  V30 187 H 21.2953 -2.00808 -5.14179 0
M  V30 188 H 21.7723 -0.501022 -4.36333 0
M  V30 189 H 22.3783 -2.04767 -3.72761 0
M  V30 190 N 20.6934 1.19889 -1.02296 0
M  V30 191 C 21.9414 1.89046 -0.714558 0
M  V30 192 C 22.2624 1.79636 0.758681 0
M  V30 193 O 21.5324 1.20292 1.54618 0
M  V30 194 H 20.1124 0.699802 -0.261317 0
M  V30 195 H 22.7744 1.45574 -1.29592 0
M  V30 196 H 21.8704 2.95524 -1.0036 0
M  V30 197 N 22.1715 0.800033 1.35784 0
M  V30 198 C 23.4015 0.389041 2.02904 0
M  V30 199 C 23.8095 -1.0027 1.60445 0
M  V30 200 O 23.1525 -1.65633 0.794453 0
M  V30 201 C 23.2145 0.385495 3.57427 0
M  V30 202 C 22.8785 1.72662 4.23127 0
M  V30 203 C 23.8755 2.68385 4.4527 0
M  V30 204 C 21.5605 2.00883 4.60381 0
M  V30 205 C 23.5545 3.90517 5.03761 0
M  V30 206 C 21.2415 3.2328 5.18588 0
M  V30 207 C 22.2395 4.17915 5.40218 0
M  V30 208 O 21.9275 5.38153 5.97199 0
M  V30 209 H 21.6595 0.157032 0.657508 0
M  V30 210 H 24.2135 1.08311 1.74522 0
M  V30 211 H 22.4435 -0.365128 3.84972 0
M  V30 212 H 24.1325 -0.00228296 4.059 0
M  V30 213 H 24.8985 2.47872 4.16874 0
M  V30 214 H 20.7775 1.28037 4.42863 0
M  V30 215 H 24.3215 4.64395 5.2056 0
M  V30 216 H 20.2185 3.43667 5.4641 0
M  V30 217 H 20.9865 5.3936 6.15656 0
M  V30 218 N 23.6496 -1.47581 0.552962 0
M  V30 219 C 24.8776 -2.06875 0.0320556 0
M  V30 220 C 25.2926 -1.40625 -1.25976 0
M  V30 221 O 24.6496 -0.501349 -1.75479 0
M  V30 222 C 24.7006 -3.61092 -0.17167 0
M  V30 223 O 24.4216 -4.24858 1.06899 0
M  V30 224 C 25.9226 -4.37242 -0.730344 0
M  V30 225 H 23.1426 -0.669561 0.043915 0
M  V30 226 H 25.6866 -1.89646 0.765163 0
M  V30 227 H 23.8416 -3.7785 -0.854894 0
M  V30 228 H 24.2556 -5.17334 0.864059 0
M  V30 229 H 25.7296 -5.45842 -0.822203 0
M  V30 230 H 26.2066 -4.03235 -1.74064 0
M  V30 231 H 26.8126 -4.25219 -0.0829543 0
M  V30 232 N 25.1277 -0.289203 -1.54924 0
M  V30 233 C 26.0747 0.592115 -2.23075 0
M  V30 234 C 27.0447 1.13881 -1.20915 0
M  V30 235 O 28.2297 1.18551 -1.495 0
M  V30 236 C 25.3697 1.76376 -2.96623 0
M  V30 237 C 24.4827 1.24959 -4.13533 0
M  V30 238 C 23.6177 2.38416 -4.74691 0
M  V30 239 C 22.6567 1.84072 -5.83767 0
M  V30 240 N 21.7937 2.91057 -6.38929 0
M  V30 241 H 26.6337 0.00432038 -2.98 0
M  V30 242 H 24.1707 -0.00963529 -1.47097 0
M  V30 243 H 26.1287 2.45268 -3.3749 0
M  V30 244 H 24.7587 2.32337 -2.24097 0
M  V30 245 H 23.8107 0.453307 -3.77689 0
M  V30 246 H 25.1227 0.811662 -4.92152 0
M  V30 247 H 24.2767 3.15276 -5.18349 0
M  V30 248 H 23.0157 2.8553 -3.95378 0
M  V30 249 H 22.0207 1.05697 -5.39545 0
M  V30 250 H 23.2457 1.37877 -6.64956 0
M  V30 251 H 21.1917 3.37526 -5.62505 0
M  V30 252 H 21.1087 2.51724 -7.12861 0
M  V30 253 H 22.3767 3.6785 -6.87246 0
M  V30 254 N 26.6058 1.57591 -0.0167156 0
M  V30 255 C 27.5358 2.12496 0.967858 0
M  V30 256 C 28.5168 1.03807 1.34752 0
M  V30 257 O 29.7018 1.31577 1.42833 0
M  V30 258 C 26.8318 2.64194 2.25431 0
M  V30 259 C 25.7858 3.77559 2.01576 0
M  V30 260 C 25.1118 4.15636 3.36379 0
M  V30 261 C 26.4118 5.04151 1.36489 0
M  V30 262 H 28.1058 2.95013 0.510643 0
M  V30 263 H 25.6518 1.41915 0.244181 0
M  V30 264 H 27.6048 3.01236 2.94678 0
M  V30 265 H 26.3288 1.78821 2.73296 0
M  V30 266 H 24.9878 3.40937 1.34751 0
M  V30 267 H 24.6358 3.27263 3.81979 0
M  V30 268 H 24.3358 4.92022 3.21229 0
M  V30 269 H 25.8598 4.5525 4.06915 0
M  V30 270 H 27.2738 5.38857 1.95718 0
M  V30 271 H 25.6708 5.85453 1.31776 0
M  V30 272 H 26.7408 4.83733 0.336219 0
M  V30 273 N 28.0839 -0.256276 1.55502 0
M  V30 274 C 29.3319 -0.983672 1.76545 0
M  V30 275 C 29.6529 -1.86206 0.578982 0
M  V30 276 O 28.9229 -1.91656 -0.405577 0
M  V30 277 H 27.5029 -0.366191 0.651086 0
M  V30 278 H 30.1649 -0.276479 1.92929 0
M  V30 279 H 29.2609 -1.61087 2.67315 0
M  V30 280 N 29.562 -1.4872 -0.521534 0
M  V30 281 C 30.792 -1.6061 -1.29954 0
M  V30 282 C 31.2 -0.268728 -1.87282 0
M  V30 283 O 30.543 0.753221 -1.67548 0
M  V30 284 C 30.605 -2.60013 -2.48261 0
M  V30 285 C 30.269 -4.04874 -2.11957 0
M  V30 286 C 31.266 -4.92304 -1.67132 0
M  V30 287 C 28.951 -4.5047 -2.22221 0
M  V30 288 C 30.945 -6.2336 -1.33047 0
M  V30 289 C 28.632 -5.81544 -1.87748 0
M  V30 290 C 29.63 -6.67812 -1.43234 0
M  V30 291 O 29.318 -7.96446 -1.09217 0
M  V30 292 H 29.05 -0.544116 -0.401141 0
M  V30 293 H 31.604 -1.95339 -0.634958 0
M  V30 294 H 29.834 -2.20422 -3.17728 0
M  V30 295 H 31.523 -2.61648 -3.10315 0
M  V30 296 H 32.289 -4.58312 -1.58665 0
M  V30 297 H 28.168 -3.83504 -2.55823 0
M  V30 298 H 31.712 -6.90649 -0.982299 0
M  V30 299 H 27.609 -6.15069 -1.95858 0
M  V30 300 H 28.377 -8.09275 -1.22542 0
M  V30 301 N 31.0401 0.771051 -1.3745 0
M  V30 302 C 32.0031 1.86598 -1.33093 0
M  V30 303 C 33.0031 1.59076 -0.234845 0
M  V30 304 O 34.1931 1.67145 -0.490732 0
M  V30 305 C 31.3251 3.23747 -1.06773 0
M  V30 306 H 32.5181 1.91873 -2.30488 0
M  V30 307 H 30.0711 0.970876 -1.2249 0
M  V30 308 H 30.8061 3.24148 -0.099129 0
M  V30 309 H 30.5911 3.45115 -1.86112 0
M  V30 310 H 32.0811 4.03824 -1.06377 0
M  V30 311 N 32.5182 1.22032 0.997298 0
M  V30 312 C 33.7662 1.04016 1.73278 0
M  V30 313 C 34.0872 -0.426255 1.90284 0
M  V30 314 O 33.3572 -1.30694 1.45931 0
M  V30 315 H 31.9372 0.381897 0.642 0
M  V30 316 H 34.5992 1.5347 1.20137 0
M  V30 317 H 33.6952 1.51441 2.72896 0
M  V30 318 N 33.9963 -1.19345 1.0293 0
M  V30 319 C 34.9443 -2.24621 0.604001 0
M  V30 320 C 35.9383 -1.65452 -0.363587 0
M  V30 321 O 37.1443 -1.78497 -0.23212 0
M  V30 322 H 33.5193 -0.730858 0.177061 0
M  V30 323 H 35.4903 -2.5781 1.50255 0
M  V30 324 C 34.2393 -3.47688 -0.0289127 0
M  V30 325 H 33.5623 -3.93505 0.706651 0
M  V30 326 H 35.0023 -4.23011 -0.289432 0
M  V30 327 C 33.4613 -3.11817 -1.2756 0
M  V30 328 O 33.9913 -3.2451 -2.36762 0
M  V30 329 N 32.1973 -2.66246 -1.16453 0
M  V30 330 H 31.7443 -2.56118 -0.275914 0
M  V30 331 H 31.7023 -2.42617 -1.99961 0
M  V30 332 N 35.4744 -0.807222 -1.35358 0
M  V30 333 C 36.7024 -0.400377 -2.02989 0
M  V30 334 C 37.1174 0.988859 -1.60832 0
M  V30 335 O 36.4744 1.63729 -0.806175 0
M  V30 336 C 36.5254 -0.474867 -3.58368 0
M  V30 337 O 36.2464 -1.80933 -3.98992 0
M  V30 338 C 37.7474 -0.0609112 -4.43258 0
M  V30 339 H 34.9674 -0.162587 -0.651004 0
M  V30 340 H 37.5114 -1.09102 -1.72965 0
M  V30 341 H 35.6664 0.167534 -3.87038 0
M  V30 342 H 36.0804 -1.77256 -4.9364 0
M  V30 343 H 37.5544 -0.164145 -5.51756 0
M  V30 344 H 38.0314 0.993831 -4.27808 0
M  V30 345 H 38.6374 -0.676492 -4.19885 0
M  V30 346 N 36.9525 1.47285 -0.560781 0
M  V30 347 C 37.8625 2.33846 0.187954 0
M  V30 348 C 38.8785 1.48412 0.908293 0
M  V30 349 O 40.0545 1.81332 0.876388 0
M  V30 350 C 37.1195 3.25178 1.2025 0
M  V30 351 C 36.1805 4.26504 0.489208 0
M  V30 352 C 35.4135 5.13472 1.45542 0
M  V30 353 O 35.6365 5.02959 2.6905 0
M  V30 354 O 34.5705 5.93902 0.977963 0
M  V30 355 H 38.3965 2.99177 -0.522177 0
M  V30 356 H 35.9815 1.45903 -0.321364 0
M  V30 357 H 37.8635 3.81584 1.78805 0
M  V30 358 H 36.5385 2.6247 1.89449 0
M  V30 359 H 35.4455 3.73847 -0.137627 0
M  V30 360 H 36.7785 4.91935 -0.161399 0
M  V30 361 N 38.4306 0.297415 1.54768 0
M  V30 362 C 39.8416 -0.195947 1.85669 0
M  V30 363 C 40.1926 -1.53707 1.21937 0
M  V30 364 O 39.3176 -2.10164 0.515754 0
M  V30 365 C 39.9126 -0.362318 3.36857 0
M  V30 366 C 38.4716 -0.799901 3.67802 0
M  V30 367 C 37.6186 0.0938578 2.77141 0
M  V30 368 H 40.5696 0.518538 1.4999 0
M  V30 369 H 40.5906 -1.19745 3.61167 0
M  V30 370 H 40.1026 0.613921 3.83214 0
M  V30 371 H 38.2036 -1.78682 3.26961 0
M  V30 372 H 38.3166 -0.621773 4.75048 0
M  V30 373 H 36.6806 -0.426254 2.51108 0
M  V30 374 H 37.4636 1.06639 3.26318 0
M  V30 375 N 39.9087 -1.5758 0.0250728 0
M  V30 376 C 40.8407 -2.06869 -0.986796 0
M  V30 377 C 41.8537 -0.991332 -1.29137 0
M  V30 378 O 43.0427 -1.26761 -1.25674 0
M  V30 379 C 40.1427 -2.47486 -2.31525 0
M  V30 380 C 39.3157 -3.78253 -2.19643 0
M  V30 381 C 38.3747 -4.05464 -3.35388 0
M  V30 382 O 37.4007 -4.75774 -3.12454 0
M  V30 383 N 38.6027 -3.55321 -4.59051 0
M  V30 384 H 41.3677 -2.94302 -0.566276 0
M  V30 385 H 38.9287 -1.6109 -0.161776 0
M  V30 386 H 40.9207 -2.62785 -3.07776 0
M  V30 387 H 39.4907 -1.65441 -2.65232 0
M  V30 388 H 38.7107 -3.7279 -1.28144 0
M  V30 389 H 39.9987 -4.63936 -2.08903 0
M  V30 390 H 39.3967 -2.98431 -4.80578 0
M  V30 391 H 37.9537 -3.75905 -5.32483 0
M  V30 392 N 41.3868 0.248026 -1.55636 0
M  V30 393 C 42.6338 0.976224 -1.77415 0
M  V30 394 C 42.9618 1.85361 -0.589193 0
M  V30 395 O 42.2168 1.90973 0.427529 0
M  V30 396 C 42.5158 1.86819 -3.04686 0
M  V30 397 C 42.1818 1.14625 -4.36087 0
M  V30 398 C 40.8438 0.946723 -4.71795 0
M  V30 399 C 43.1958 0.634463 -5.17324 0
M  V30 400 C 40.5238 0.223091 -5.86276 0
M  V30 401 C 42.8758 -0.0756959 -6.32555 0
M  V30 402 C 41.5398 -0.286711 -6.66884 0
M  V30 403 H 40.8098 0.357226 -0.649208 0
M  V30 404 H 43.4568 0.246415 -1.89908 0
M  V30 405 H 41.7618 2.66502 -2.872 0
M  V30 406 H 43.4588 2.43329 -3.18735 0
M  V30 407 H 40.0488 1.3117 -4.08035 0
M  V30 408 H 44.2328 0.77616 -4.90193 0
M  V30 409 H 39.4888 0.0491185 -6.1138 0
M  V30 410 H 43.6628 -0.479899 -6.94745 0
M  V30 411 H 41.2898 -0.849389 -7.5544 0
M  V30 412 N 42.8649 1.48995 0.513639 0
M  V30 413 C 44.1139 1.57093 1.2651 0
M  V30 414 C 44.4269 0.257091 1.93903 0
M  V30 415 O 45.6329 0.216478 2.70636 0
M  V30 416 C 44.0889 2.77118 2.29638 0
M  V30 417 C 43.6969 4.15209 1.68241 0
M  V30 418 C 45.4409 2.94538 3.05692 0
M  V30 419 C 43.3479 5.26474 2.69406 0
M  V30 420 H 42.2779 0.584876 0.475854 0
M  V30 421 H 44.9289 1.7536 0.540487 0
M  V30 422 H 43.3109 2.52319 3.05207 0
M  V30 423 H 44.4849 4.50094 0.987505 0
M  V30 424 H 42.7999 4.03042 1.04623 0
M  V30 425 H 45.3969 3.74832 3.8132 0
M  V30 426 H 45.7399 2.04614 3.62545 0
M  V30 427 H 46.2729 3.19316 2.37238 0
M  V30 428 H 43.0119 6.18417 2.17351 0
M  V30 429 H 42.5319 4.96058 3.37175 0
M  V30 430 H 44.2109 5.55277 3.32078 0
M  V30 431 N 44.343 -0.763751 1.37857 0
M  V30 432 C 45.592 -1.51789 1.32827 0
M  V30 433 C 45.905 -1.95426 -0.0823719 0
M  V30 434 O 47.111 -2.70298 -0.255172 0
M  V30 435 C 45.567 -2.74133 2.33193 0
M  V30 436 C 45.175 -2.37562 3.79827 0
M  V30 437 C 46.919 -3.52054 2.37188 0
M  V30 438 C 44.826 -3.56456 4.71904 0
M  V30 439 H 43.756 -0.569896 0.493695 0
M  V30 440 H 46.407 -0.835822 1.63359 0
M  V30 441 H 44.789 -3.4427 1.9569 0
M  V30 442 H 45.963 -1.75157 4.26212 0
M  V30 443 H 44.278 -1.72798 3.78853 0
M  V30 444 H 46.875 -4.40437 3.03182 0
M  V30 445 H 47.218 -3.92486 1.38782 0
M  V30 446 H 47.751 -2.88921 2.7344 0
M  V30 447 H 44.49 -3.21099 5.71468 0
M  V30 448 H 44.01 -4.17938 4.30218 0
M  V30 449 H 45.689 -4.23168 4.89426 0
M  V30 450 N 45.8211 -1.22559 -0.990812 0
M  V30 451 C 47.2321 -1.04791 -1.54518 0
M  V30 452 C 47.5831 0.387998 -1.92325 0
M  V30 453 O 46.7081 1.27328 -1.74976 0
M  V30 454 C 47.3031 -1.896 -2.80779 0
M  V30 455 C 45.8621 -1.76124 -3.32652 0
M  V30 456 C 45.0091 -1.8594 -2.05722 0
M  V30 457 H 47.9601 -1.36374 -0.811662 0
M  V30 458 H 47.9811 -1.41464 -3.53225 0
M  V30 459 H 47.4931 -2.94101 -2.53231 0
M  V30 460 H 45.5941 -0.743643 -3.65104 0
M  V30 461 H 45.7071 -2.58913 -4.03114 0
M  V30 462 H 44.0711 -1.29403 -2.19379 0
M  V30 463 H 44.8541 -2.91976 -1.80568 0
M  V30 464 N 47.2992 1.18797 -1.03562 0
M  V30 465 C 48.5242 1.9314 -0.755764 0
M  V30 466 C 48.9492 1.7537 0.68022 0
M  V30 467 O 48.3072 1.06046 1.47051 0
M  V30 468 C 48.3552 3.42747 -1.12058 0
M  V30 469 O 47.4592 4.11683 -0.243124 0
M  V30 470 H 46.8002 0.602724 -0.278604 0
M  V30 471 H 49.3302 1.50678 -1.3841 0
M  V30 472 H 49.3402 3.93437 -1.08035 0
M  V30 473 H 48.0152 3.55002 -2.16672 0
M  V30 474 H 46.5922 3.71323 -0.342539 0
M  V30 475 N 48.7773 0.814389 1.34928 0
M  V30 476 C 50.0173 0.404165 2.00364 0
M  V30 477 C 50.3813 -1.01166 1.63185 0
M  V30 478 O 51.5823 -1.52431 2.21401 0
M  V30 479 C 49.8533 0.590718 3.52484 0
M  V30 480 S 51.4123 0.272075 4.37956 0
M  V30 481 H 48.2303 0.15311 0.694319 0
M  V30 482 H 50.8323 1.05834 1.64376 0
M  V30 483 H 49.5363 1.62099 3.77031 0
M  V30 484 H 49.0673 -0.0785013 3.93322 0
M  V30 485 H 51.0823 -0.917405 4.87645 0
M  V30 486 N 50.2554 -1.46986 0.568584 0
M  V30 487 C 51.5044 -2.01646 0.0465894 0
M  V30 488 C 51.8174 -1.44721 -1.31587 0
M  V30 489 O 53.0234 -1.91113 -1.92842 0
M  V30 490 C 51.4794 -3.59885 0.032752 0
M  V30 491 C 51.0874 -4.25804 1.39266 0
M  V30 492 C 52.8314 -4.22255 -0.436038 0
M  V30 493 C 50.7384 -5.76081 1.33732 0
M  V30 494 H 49.6684 -0.753876 0.013647 0
M  V30 495 H 52.3194 -1.68864 0.718131 0
M  V30 496 H 50.7014 -3.8968 -0.704669 0
M  V30 497 H 51.8754 -4.07637 2.1487 0
M  V30 498 H 50.1904 -3.7547 1.80032 0
M  V30 499 H 52.7874 -5.32394 -0.49602 0
M  V30 500 H 53.1304 -3.90212 -1.45053 0
M  V30 501 H 53.6634 -3.97033 0.246877 0
M  V30 502 H 50.4024 -6.12761 2.32817 0
M  V30 503 H 49.9224 -5.96553 0.623267 0
M  V30 504 H 51.6014 -6.38518 1.0442 0
M  V30 505 N 51.7335 -0.305618 -1.54608 0
M  V30 506 C 52.6965 0.555591 -2.22364 0
M  V30 507 C 53.6965 1.05768 -1.21119 0
M  V30 508 O 54.8865 0.952972 -1.45822 0
M  V30 509 C 52.0185 1.76974 -2.91364 0
M  V30 510 H 53.2115 -0.0364572 -2.99878 0
M  V30 511 H 50.7645 -0.0565007 -1.56198 0
M  V30 512 H 51.4995 2.40151 -2.17941 0
M  V30 513 H 51.2845 1.41732 -3.65588 0
M  V30 514 H 52.7745 2.38148 -3.43038 0
M  V30 515 N 53.2116 1.57565 -0.0334293 0
M  V30 516 C 54.4606 1.91155 0.643639 0
M  V30 517 C 54.7736 0.91192 1.73042 0
M  V30 518 O 55.9796 1.13923 2.46442 0
M  V30 519 C 54.4356 3.39443 1.1961 0
M  V30 520 C 54.0436 4.47774 0.142381 0
M  V30 521 C 55.7876 3.82094 1.84944 0
M  V30 522 C 53.6946 5.87162 0.706727 0
M  V30 523 H 52.6246 0.713368 0.244176 0
M  V30 524 H 55.2756 1.8323 -0.0994323 0
M  V30 525 H 53.6576 3.42313 1.99092 0
M  V30 526 H 54.8316 4.56469 -0.630296 0
M  V30 527 H 53.1466 4.14352 -0.412446 0
M  V30 528 H 55.7436 4.83591 2.2813 0
M  V30 529 H 56.0866 3.17386 2.69392 0
M  V30 530 H 56.6196 3.81665 1.12145 0
M  V30 531 H 53.3586 6.55424 -0.0997178 0
M  V30 532 H 52.8786 5.82064 1.44779 0
M  V30 533 H 54.5576 6.35866 1.19514 0
M  V30 534 N 54.6897 -0.239769 1.55765 0
M  V30 535 C 55.6367 -1.29696 1.90913 0
M  V30 536 C 56.6067 -1.47478 0.764164 0
M  V30 537 O 57.7917 -1.61345 1.01845 0
M  V30 538 C 54.9317 -2.64598 2.21544 0
M  V30 539 C 54.0447 -2.54765 3.48882 0
M  V30 540 C 53.1797 -3.82069 3.69049 0
M  V30 541 C 52.2187 -3.66883 4.89963 0
M  V30 542 N 51.3557 -4.86094 5.06614 0
M  V30 543 H 56.1957 -0.990224 2.81067 0
M  V30 544 H 53.7327 -0.477684 1.39128 0
M  V30 545 H 55.6907 -3.43132 2.3731 0
M  V30 546 H 54.3207 -2.93405 1.34585 0
M  V30 547 H 53.3727 -1.67763 3.41409 0
M  V30 548 H 54.6847 -2.39457 4.37563 0
M  V30 549 H 53.8387 -4.69046 3.84812 0
M  V30 550 H 52.5777 -4.00282 2.78614 0
M  V30 551 H 51.5827 -2.78289 4.74168 0
M  V30 552 H 52.8077 -3.50157 5.81865 0
M  V30 553 H 50.7537 -5.04655 4.19117 0
M  V30 554 H 50.6707 -4.73443 5.89396 0
M  V30 555 H 51.9387 -5.74549 5.26795 0
M  V30 556 N 56.1678 -1.49265 -0.50573 0
M  V30 557 C 57.0778 -1.68312 -1.63427 0
M  V30 558 C 58.0938 -0.565682 -1.64548 0
M  V30 559 O 59.2698 -0.839801 -1.83055 0
M  V30 560 C 56.3348 -1.74107 -2.99813 0
M  V30 561 C 55.3958 -2.97653 -3.09356 0
M  V30 562 C 54.6288 -3.03163 -4.39236 0
M  V30 563 O 54.8518 -2.16396 -5.27758 0
M  V30 564 O 53.7858 -3.9558 -4.53652 0
M  V30 565 H 57.6118 -2.63907 -1.50289 0
M  V30 566 H 55.1968 -1.32951 -0.681502 0
M  V30 567 H 57.0788 -1.803 -3.80881 0
M  V30 568 H 55.7538 -0.816901 -3.13223 0
M  V30 569 H 54.6608 -2.96981 -2.27493 0
M  V30 570 H 55.9938 -3.89535 -3.00871 0
M  V30 571 N 57.6459 0.756429 -1.3826 0
M  V30 572 C 58.8709 1.55077 -1.37717 0
M  V30 573 C 59.2959 1.88073 0.03164 0
M  V30 574 O 58.6539 1.50364 1.01293 0
M  V30 575 C 58.7019 2.8283 -2.23695 0
M  V30 576 O 57.8059 3.77862 -1.6521 0
M  V30 577 H 57.1469 0.469152 -0.469885 0
M  V30 578 H 59.6769 0.935019 -1.81985 0
M  V30 579 H 59.6869 3.31783 -2.37453 0
M  V30 580 H 58.3619 2.58144 -3.2609 0
M  V30 581 H 56.9389 3.36555 -1.60578 0
M  V30 582 N 59.124 1.23083 0.984299 0
M  V30 583 C 60.087 1.00979 2.05757 0
M  V30 584 C 61.087 -0.0269573 1.60777 0
M  V30 585 O 62.277 0.212403 1.729 0
M  V30 586 C 59.409 0.527072 3.36801 0
M  V30 587 H 60.602 1.9622 2.26799 0
M  V30 588 H 58.155 1.05072 1.15714 0
M  V30 589 H 58.89 -0.429294 3.21446 0
M  V30 590 H 58.675 1.27515 3.70786 0
M  V30 591 H 60.165 0.392942 4.15747 0
M  V30 592 N 60.6021 -1.18246 1.0419 0
M  V30 593 C 61.5491 -2.2192 0.634037 0
M  V30 594 C 62.5191 -1.62179 -0.358765 0
M  V30 595 O 63.7041 -1.89122 -0.252466 0
M  V30 596 C 60.8441 -3.451 0.00445535 0
M  V30 597 C 59.9571 -4.19174 1.04487 0
M  V30 598 C 59.0921 -5.29813 0.383676 0
M  V30 599 C 58.1311 -5.9566 1.4091 0
M  V30 600 N 57.2681 -6.97834 0.772784 0
M  V30 601 H 62.1081 -2.56164 1.52263 0
M  V30 602 H 59.6451 -1.25843 0.761701 0
M  V30 603 H 61.6031 -4.15485 -0.377919 0
M  V30 604 H 60.2331 -3.11472 -0.847652 0
M  V30 605 H 59.2851 -3.47604 1.54518 0
M  V30 606 H 60.5971 -4.64267 1.82368 0
M  V30 607 H 59.7511 -6.06677 -0.0528366 0
M  V30 608 H 58.4901 -4.85825 -0.427208 0
M  V30 609 H 57.4951 -5.17535 1.85574 0
M  V30 610 H 58.7201 -6.4173 2.22171 0
M  V30 611 H 56.6661 -6.55998 -0.0177708 0
M  V30 612 H 56.5831 -7.41186 1.48928 0
M  V30 613 H 57.8511 -7.78665 0.36071 0
M  V30 614 N 62.0802 -0.821533 -1.34494 0
M  V30 615 C 63.3262 -0.409552 -1.98622 0
M  V30 616 C 63.6592 1.0244 -1.64984 0
M  V30 617 O 62.9342 1.71325 -0.920758 0
M  V30 618 C 63.2172 -0.610458 -3.54888 0
M  V30 619 C 63.0702 -2.09043 -3.98273 0
M  V30 620 C 64.3892 -0.0455379 -4.40076 0
M  V30 621 H 61.5082 -0.15028 -0.721516 0
M  V30 622 H 64.1502 -1.03384 -1.59411 0
M  V30 623 H 62.3002 -0.079044 -3.8842 0
M  V30 624 H 63.9722 -2.68537 -3.75081 0
M  V30 625 H 62.2152 -2.58139 -3.48635 0
M  V30 626 H 62.8862 -2.18182 -5.07051 0
M  V30 627 H 65.3622 -0.499557 -4.1309 0
M  V30 628 H 64.2382 -0.215922 -5.48475 0
M  V30 629 H 64.4992 1.04939 -4.29465 0
M  V30 630 N 63.5583 1.46682 -0.576371 0
M  V30 631 C 64.8063 2.02013 -0.0594163 0
M  V30 632 C 65.1273 1.45101 1.30271 0
M  V30 633 O 64.3973 0.633317 1.8538 0
M  V30 634 H 62.9773 0.746759 -0.0189745 0
M  V30 635 H 65.6393 1.79862 -0.750717 0
M  V30 636 H 64.7353 3.12097 0.014345 0
M  V30 637 N 65.0364 0.313813 1.54444 0
M  V30 638 C 66.3134 -0.345447 1.92525 0
M  V30 639 C 66.6934 -1.70667 1.24242 0
M  V30 640 O 66.0414 -2.25273 0.382654 0
M  V30 641 C 66.2514 -0.44737 3.46121 0
M  V30 642 C 67.5994 -0.712238 4.18584 0
M  V30 643 O 68.6234 -0.530678 3.52225 0
M  V30 644 O 67.4824 -1.06183 5.36085 0
M  V30 645 H 64.5764 -0.195407 0.803583 0
M  V30 646 H 67.1224 0.362813 1.65776 0
M  V30 647 H 65.8944 0.509043 3.87975 0
M  V30 648 H 65.5174 -1.20359 3.78945 0
M  V30 649 N 66.5145 -1.57545 0.0417849 0
M  V30 650 C 67.4465 -2.07904 -0.964799 0
M  V30 651 C 68.4595 -1.00497 -1.28079 0
M  V30 652 O 69.6485 -1.28087 -1.24322 0
M  V30 653 C 66.7485 -2.49928 -2.28887 0
M  V30 654 C 65.9215 -3.80562 -2.15619 0
M  V30 655 C 64.9805 -4.08999 -3.31069 0
M  V30 656 O 64.0065 -4.79061 -3.0739 0
M  V30 657 N 65.2085 -3.6017 -4.55256 0
M  V30 658 H 67.9735 -2.94886 -0.535029 0
M  V30 659 H 65.5345 -1.61252 -0.144681 0
M  V30 660 H 67.5265 -2.66034 -3.04972 0
M  V30 661 H 66.0965 -1.68245 -2.63463 0
M  V30 662 H 65.3165 -3.74129 -1.24183 0
M  V30 663 H 66.6045 -4.66126 -2.03971 0
M  V30 664 H 66.0025 -3.03512 -4.77386 0
M  V30 665 H 64.5595 -3.81532 -5.28466 0
M  V30 666 N 67.9926 0.231505 -1.5589 0
M  V30 667 C 68.9556 1.27028 -1.90779 0
M  V30 668 C 69.9556 1.40308 -0.785507 0
M  V30 669 O 71.1456 1.38744 -1.05336 0
M  V30 670 C 68.2776 2.64566 -2.14983 0
M  V30 671 H 69.4706 0.973017 -2.83677 0
M  V30 672 H 67.0236 0.471486 -1.49019 0
M  V30 673 H 67.7586 2.99406 -1.24604 0
M  V30 674 H 67.5436 2.56305 -2.96732 0
M  V30 675 H 69.0336 3.39543 -2.43105 0
M  V30 676 N 69.4707 1.49531 0.497807 0
M  V30 677 C 70.4027 1.62559 1.61578 0
M  V30 678 C 71.4157 0.508134 1.54667 0
M  V30 679 O 72.6047 0.780309 1.60541 0
M  V30 680 C 69.7047 1.56925 3.00379 0
M  V30 681 C 68.8777 2.84257 3.3244 0
M  V30 682 C 67.9367 2.71632 4.50669 0
M  V30 683 O 66.9627 3.4557 4.52294 0
M  V30 684 N 68.1647 1.83391 5.5077 0
M  V30 685 H 70.9297 2.58981 1.50828 0
M  V30 686 H 68.4907 1.4666 0.685743 0
M  V30 687 H 70.4827 1.46129 3.77397 0
M  V30 688 H 69.0527 0.683483 3.05037 0
M  V30 689 H 68.2727 3.09381 2.44289 0
M  V30 690 H 69.5607 3.68666 3.5066 0
M  V30 691 H 68.9587 1.22583 5.52259 0
M  V30 692 H 67.5157 1.78515 6.26878 0
M  V30 693 N 70.9488 -0.749086 1.3866 0
M  V30 694 C 72.3648 -1.05276 1.19955 0
M  V30 695 C 72.5648 -2.01435 0.05134 0
M  V30 696 O 71.6208 -2.45232 -0.60147 0
M  V30 697 C 72.9338 -1.62853 2.52783 0
M  V30 698 C 74.4818 -1.75002 2.59506 0
M  V30 699 C 74.9568 -2.35991 3.92521 0
M  V30 700 N 76.4478 -2.43416 3.94085 0
M  V30 701 C 77.1828 -2.91511 4.9377 0
M  V30 702 N 76.6788 -3.39608 6.03853 0
M  V30 703 N 78.4718 -2.90592 4.81157 0
M  V30 704 H 70.6228 -0.111066 2.12109 0
M  V30 705 H 72.8858 -0.111901 0.941373 0
M  V30 706 H 72.5918 -0.99664 3.37283 0
M  V30 707 H 72.4658 -2.61854 2.715 0
M  V30 708 H 74.8528 -2.37317 1.75398 0
M  V30 709 H 74.9338 -0.74693 2.44652 0
M  V30 710 H 74.5778 -1.74308 4.77053 0
M  V30 711 H 74.5078 -3.3695 4.04688 0
M  V30 712 H 76.9988 -2.09405 3.14576 0
M  V30 713 H 77.3118 -3.74775 6.75843 0
M  V30 714 H 75.6568 -3.37653 6.07466 0
M  V30 715 H 78.8478 -2.52332 3.94267 0
M  V30 716 H 79.0208 -3.27762 5.58996 0
M  V30 717 N 72.4269 -1.23603 -0.977757 0
M  V30 718 C 73.8429 -0.999251 -1.24447 0
M  V30 719 C 74.0429 0.298053 -1.99283 0
M  V30 720 O 73.0989 1.01681 -2.31122 0
M  V30 721 C 74.4119 -2.20784 -2.04144 0
M  V30 722 C 75.9599 -2.25303 -2.17273 0
M  V30 723 C 76.4349 -3.45755 -3.00362 0
M  V30 724 N 77.9259 -3.4601 -3.07947 0
M  V30 725 C 78.6609 -4.35868 -3.72568 0
M  V30 726 N 78.1569 -5.35966 -4.38991 0
M  V30 727 N 79.9499 -4.23605 -3.6948 0
M  V30 728 H 72.1009 -2.06986 -0.476483 0
M  V30 729 H 74.3639 -0.907801 -0.273134 0
M  V30 730 H 74.0699 -3.14945 -1.56533 0
M  V30 731 H 73.9439 -2.22085 -3.04891 0
M  V30 732 H 76.3309 -1.3168 -2.64092 0
M  V30 733 H 76.4119 -2.28033 -1.15907 0
M  V30 734 H 76.0559 -4.39687 -2.5424 0
M  V30 735 H 75.9859 -3.40266 -4.01904 0
M  V30 736 H 78.4769 -2.73588 -2.60688 0
M  V30 737 H 78.7899 -6.00783 -4.86086 0
M  V30 738 H 77.1349 -5.39863 -4.37691 0
M  V30 739 H 80.3259 -3.44647 -3.16759 0
M  V30 740 H 80.4989 -4.93836 -4.1956 0
M  V30 741 N 73.905 1.17692 -1.04816 0
M  V30 742 C 75.151 1.88137 -0.75711 0
M  V30 743 C 75.484 1.80604 0.713841 0
M  V30 744 O 74.759 1.21146 1.52164 0
M  V30 745 C 75.042 3.38318 -1.2334 0
M  V30 746 C 74.895 3.54622 -2.76701 0
M  V30 747 C 76.214 4.32214 -0.829415 0
M  V30 748 H 73.333 0.683163 -0.27651 0
M  V30 749 H 75.975 1.38424 -1.30149 0
M  V30 750 H 74.125 3.80787 -0.770286 0
M  V30 751 H 75.797 3.21194 -3.31107 0
M  V30 752 H 74.04 2.97026 -3.16161 0
M  V30 753 H 74.711 4.60028 -3.05088 0
M  V30 754 H 77.187 3.97565 -1.22805 0
M  V30 755 H 76.063 5.35838 -1.19033 0
M  V30 756 H 76.324 4.41294 0.266891 0
M  V30 757 N 75.3831 0.828654 1.34056 0
M  V30 758 C 76.3161 0.199763 2.27324 0
M  V30 759 C 77.2941 -0.647168 1.49166 0
M  V30 760 O 78.4781 -0.609661 1.78369 0
M  V30 761 C 75.6051 -0.720455 3.30949 0
M  V30 762 C 74.6511 0.0496888 4.26471 0
M  V30 763 S 75.4841 1.40072 5.16856 0
M  V30 764 C 76.6401 0.485527 6.24014 0
M  V30 765 H 76.8731 0.990478 2.80316 0
M  V30 766 H 74.4061 0.624857 1.41191 0
M  V30 767 H 76.3641 -1.24581 3.91139 0
M  V30 768 H 75.0251 -1.48474 2.76793 0
M  V30 769 H 74.2181 -0.650104 4.9979 0
M  V30 770 H 73.8201 0.505779 3.70564 0
M  V30 771 H 76.1121 -0.320672 6.76741 0
M  V30 772 H 77.0551 1.18856 6.98054 0
M  V30 773 H 77.4631 0.0714109 5.64455 0
M  V30 774 N 76.8612 -1.46375 0.584142 0
M  V30 775 C 77.8082 -2.30323 -0.148286 0
M  V30 776 C 78.7782 -1.40703 -0.882713 0
M  V30 777 O 79.9632 -1.69651 -0.873099 0
M  V30 778 C 77.1032 -3.25196 -1.15507 0
M  V30 779 C 76.2162 -4.29915 -0.423943 0
M  V30 780 C 75.3512 -5.11914 -1.41838 0
M  V30 781 C 74.3902 -6.08381 -0.673736 0
M  V30 782 N 73.5272 -6.83242 -1.6163 0
M  V30 783 H 78.3672 -2.92427 0.573644 0
M  V30 784 H 75.9042 -1.44118 0.294703 0
M  V30 785 H 77.8622 -3.78646 -1.75166 0
M  V30 786 H 76.4922 -2.64898 -1.8447 0
M  V30 787 H 75.5442 -3.7931 0.287714 0
M  V30 788 H 76.8562 -4.98549 0.158128 0
M  V30 789 H 76.0102 -5.69648 -2.08773 0
M  V30 790 H 74.7492 -4.43243 -2.03438 0
M  V30 791 H 73.7542 -5.49799 0.00938483 0
M  V30 792 H 74.9792 -6.79071 -0.0631082 0
M  V30 793 H 72.9252 -6.1728 -2.22038 0
M  V30 794 H 72.8422 -7.48144 -1.08707 0
M  V30 795 H 74.1102 -7.45534 -2.27596 0
M  V30 796 N 78.3393 -0.321999 -1.54275 0
M  V30 797 C 79.5873 0.280489 -2.00144 0
M  V30 798 C 79.9083 1.52777 -1.21178 0
M  V30 799 O 79.1783 1.9338 -0.313187 0
M  V30 800 H 77.7583 0.106632 -0.73935 0
M  V30 801 H 80.4203 -0.438184 -1.8991 0
M  V30 802 H 79.5163 0.537972 -3.07428 0
M  V30 803 N 79.8174 1.5752 -0.0501392 0
M  V30 804 C 81.0634 1.92936 0.624798 0
M  V30 805 C 81.3964 0.928685 1.70555 0
M  V30 806 O 80.6714 -0.0454779 1.94447 0
M  V30 807 C 80.9544 3.38737 1.22185 0
M  V30 808 C 80.8074 4.49552 0.149218 0
M  V30 809 C 82.1264 3.84913 2.13378 0
M  V30 810 H 79.2454 0.701604 0.225657 0
M  V30 811 H 81.8874 1.89671 -0.111693 0
M  V30 812 H 80.0374 3.4165 1.84953 0
M  V30 813 H 81.7094 4.58768 -0.482648 0
M  V30 814 H 79.9524 4.30638 -0.522841 0
M  V30 815 H 80.6234 5.48653 0.606966 0
M  V30 816 H 83.0994 3.8387 1.60572 0
M  V30 817 H 81.9754 4.87584 2.52097 0
M  V30 818 H 82.2364 3.21611 3.03346 0
M  V30 819 N 81.2955 -0.223234 1.56011 0
M  V30 820 C 82.5725 -0.972108 1.69733 0
M  V30 821 C 82.9525 -2.02485 0.59691 0
M  V30 822 O 82.3005 -2.25037 -0.396324 0
M  V30 823 C 82.5105 -1.58407 3.10979 0
M  V30 824 C 83.8585 -2.07696 3.70334 0
M  V30 825 O 84.8825 -1.68304 3.1393 0
M  V30 826 O 83.7415 -2.80096 4.69264 0
M  V30 827 H 80.8355 -0.453993 0.691245 0
M  V30 828 H 83.3815 -0.215149 1.68331 0
M  V30 829 H 82.1535 -0.823831 3.82529 0
M  V30 830 H 81.7765 -2.40661 3.16493 0
M  V30 831 N 82.7736 -1.49793 -0.48987 0
M  V30 832 C 84.0506 -1.50348 -1.25119 0
M  V30 833 C 84.4306 -0.237466 -2.0976 0
M  V30 834 O 83.7786 0.77981 -2.14782 0
M  V30 835 C 83.9886 -2.78872 -2.09837 0
M  V30 836 C 85.3366 -3.288 -2.68655 0
M  V30 837 O 86.3606 -2.80065 -2.20096 0
M  V30 838 O 85.2196 -4.13707 -3.57083 0
M  V30 839 H 82.3136 -0.602242 -0.566775 0
M  V30 840 H 84.8596 -1.62067 -0.503229 0
M  V30 841 H 83.6316 -3.62499 -1.47343 0
M  V30 842 H 83.2546 -2.70066 -2.91805 0
M  V30 843 N 84.2517 0.741722 -1.39055 0
M  V30 844 C 85.1817 1.869 -1.39966 0
M  V30 845 C 86.1627 1.6804 -0.26392 0
M  V30 846 O 87.3477 1.88458 -0.468755 0
M  V30 847 C 84.4777 3.24572 -1.23574 0
M  V30 848 C 83.4317 3.58056 -2.34477 0
M  V30 849 C 82.7577 4.94593 -2.0318 0
M  V30 850 C 84.0577 3.61716 -3.76774 0
M  V30 851 H 85.7517 1.86395 -2.34302 0
M  V30 852 H 83.2977 0.895361 -1.1278 0
M  V30 853 H 85.2507 4.031 -1.22834 0
M  V30 854 H 83.9747 3.25587 -0.257045 0
M  V30 855 H 82.6337 2.81854 -2.34423 0
M  V30 856 H 82.2817 4.92181 -1.03765 0
M  V30 857 H 81.9817 5.17964 -2.77465 0
M  V30 858 H 83.5057 5.75486 -2.04079 0
M  V30 859 H 84.9197 4.30335 -3.78794 0
M  V30 860 H 83.3167 3.96603 -4.50362 0
M  V30 861 H 84.3867 2.61672 -4.08235 0
M  V30 862 N 85.7298 1.2412 0.971189 0
M  V30 863 C 87.0068 0.986867 1.6888 0
M  V30 864 C 87.3868 -0.491857 2.0529 0
M  V30 865 O 86.7348 -1.46531 1.75331 0
M  V30 866 C 86.9448 1.9063 2.92338 0
M  V30 867 C 88.2928 2.17515 3.64654 0
M  V30 868 O 89.3168 1.88254 3.02388 0
M  V30 869 O 88.1758 2.6719 4.7673 0
M  V30 870 H 85.2698 0.372944 0.738134 0
M  V30 871 H 87.8158 1.35203 1.02559 0
M  V30 872 H 86.5878 2.90552 2.62097 0
M  V30 873 H 86.2108 1.54408 3.66393 0
M  V30 874 N 87.2079 -1.17134 1.05439 0
M  V30 875 C 88.4549 -1.87456 0.765942 0
M  V30 876 C 88.7829 -1.81189 -0.707153 0
M  V30 877 O 88.0379 -1.21633 -1.5331 0
M  V30 878 C 88.3369 -3.36833 1.19491 0
M  V30 879 C 88.0029 -3.63301 2.67063 0
M  V30 880 C 86.6649 -3.70234 3.07376 0
M  V30 881 C 89.0169 -3.74575 3.62413 0
M  V30 882 C 86.3449 -3.85933 4.41896 0
M  V30 883 C 88.6969 -3.91793 4.9667 0
M  V30 884 C 87.3609 -3.96966 5.36633 0
M  V30 885 H 86.6309 -0.685948 0.280278 0
M  V30 886 H 89.2779 -1.38556 1.32192 0
M  V30 887 H 87.5829 -3.87807 0.557969 0
M  V30 888 H 89.2799 -3.89611 0.948893 0
M  V30 889 H 85.8699 -3.58532 2.34846 0
M  V30 890 H 90.0539 -3.68537 3.32406 0
M  V30 891 H 85.3099 -3.88187 4.72357 0
M  V30 892 H 89.4839 -3.99458 5.70444 0
M  V30 893 H 87.1109 -4.08883 6.40874 0
M  V30 894 N 88.686 -0.835752 -1.33615 0
M  V30 895 C 89.933 -0.429959 -1.97883 0
M  V30 896 C 90.261 1.01006 -1.66217 0
M  V30 897 O 89.516 1.72047 -0.93265 0
M  V30 898 C 89.815 -0.593925 -3.52431 0
M  V30 899 C 89.481 -2.00158 -4.04039 0
M  V30 900 C 88.143 -2.38662 -4.17844 0
M  V30 901 C 90.495 -2.92117 -4.31644 0
M  V30 902 C 87.823 -3.68435 -4.56588 0
M  V30 903 C 90.175 -4.21368 -4.71838 0
M  V30 904 C 88.839 -4.59833 -4.83849 0
M  V30 905 H 88.109 -0.157333 -0.724104 0
M  V30 906 H 90.756 -1.06217 -1.59343 0
M  V30 907 H 89.061 0.121619 -3.91611 0
M  V30 908 H 90.758 -0.260282 -4.00154 0
M  V30 909 H 87.348 -1.69252 -3.93766 0
M  V30 910 H 91.532 -2.63608 -4.20505 0
M  V30 911 H 86.788 -3.98046 -4.64079 0
M  V30 912 H 90.962 -4.92703 -4.92155 0
M  V30 913 H 88.589 -5.60438 -5.13627 0
M  V30 914 N 90.1641 1.46063 -0.591896 0
M  V30 915 C 91.4131 2.01547 -0.0786637 0
M  V30 916 C 91.7261 1.46796 1.29268 0
M  V30 917 O 92.9321 1.94157 1.89777 0
M  V30 918 C 91.3881 3.59787 -0.0900024 0
M  V30 919 C 90.9961 4.23534 -1.46023 0
M  V30 920 C 92.7401 4.22895 0.368806 0
M  V30 921 C 90.6471 5.73881 -1.4288 0
M  V30 922 H 89.5771 0.753564 -0.0256388 0
M  V30 923 H 92.2281 1.677 -0.744905 0
M  V30 924 H 90.6101 3.90752 0.642586 0
M  V30 925 H 91.7841 4.04167 -2.21328 0
M  V30 926 H 90.0991 3.72558 -1.85982 0
M  V30 927 H 92.6961 5.33116 0.411258 0
M  V30 928 H 93.0391 3.9247 1.38827 0
M  V30 929 H 93.5721 3.9659 -0.31001 0
M  V30 930 H 90.3111 6.0898 -2.42536 0
M  V30 931 H 89.8311 5.95486 -0.718095 0
M  V30 932 H 91.5101 6.36776 -1.14565 0
M  V30 933 N 91.6422 0.330177 1.54103 0
M  V30 934 C 92.8902 -0.269871 2.0029 0
M  V30 935 C 93.2112 -1.52133 1.21986 0
M  V30 936 O 92.4812 -1.93212 0.323438 0
M  V30 937 H 91.0612 -0.10271 0.739905 0
M  V30 938 H 93.7232 0.448249 1.89675 0
M  V30 939 H 92.8192 -0.52166 3.07709 0
M  V30 940 N 93.1203 -1.57491 0.0584922 0
M  V30 941 C 94.3973 -1.84346 -0.653918 0
M  V30 942 C 94.7773 -0.948355 -1.88599 0
M  V30 943 O 94.1253 -0.0112403 -2.28497 0
M  V30 944 C 94.3353 -3.34239 -1.00425 0
M  V30 945 C 95.6833 -4.01431 -1.38342 0
M  V30 946 O 96.7073 -3.38907 -1.09637 0
M  V30 947 O 95.5663 -5.11683 -1.91943 0
M  V30 948 H 92.6603 -0.761112 -0.323478 0
M  V30 949 H 95.2063 -1.6947 0.0884125 0
M  V30 950 H 93.9783 -3.91089 -0.128625 0
M  V30 951 H 93.6013 -3.54329 -1.80378 0
M  V30 952 N 94.5984 0.214957 -1.56127 0
M  V30 953 C 95.5084 1.28727 -1.96129 0
M  V30 954 C 96.5244 1.50916 -0.866044 0
M  V30 955 O 97.7004 1.63918 -1.17016 0
M  V30 956 C 94.7654 2.61569 -2.27558 0
M  V30 957 C 93.8264 2.47625 -3.50685 0
M  V30 958 C 93.0594 3.74132 -3.80606 0
M  V30 959 O 93.2824 4.77438 -3.12104 0
M  V30 960 O 92.2164 3.70849 -4.74083 0
M  V30 961 H 96.0424 0.977855 -2.87527 0
M  V30 962 H 93.6274 0.418358 -1.43423 0
M  V30 963 H 95.5094 3.40012 -2.48938 0
M  V30 964 H 94.1844 2.92178 -1.39332 0
M  V30 965 H 93.0914 1.67361 -3.34576 0
M  V30 966 H 94.4244 2.21954 -4.39315 0
M  V30 967 N 96.0765 1.50051 0.48192 0
M  V30 968 C 97.0395 1.67584 1.5636 0
M  V30 969 C 98.0395 0.546894 1.51214 0
M  V30 970 O 99.2295 0.813725 1.54026 0
M  V30 971 C 96.3615 1.691 2.96003 0
M  V30 972 H 97.5545 2.64078 1.42136 0
M  V30 973 H 95.1075 1.39369 0.707533 0
M  V30 974 H 95.8425 0.742589 3.15684 0
M  V30 975 H 95.6275 2.51105 3.01146 0
M  V30 976 H 97.1175 1.84656 3.74556 0
M  V30 977 N 97.5546 -0.734337 1.39446 0
M  V30 978 C 98.8036 -1.48937 1.36017 0
M  V30 979 C 99.1166 -1.95557 -0.0409005 0
M  V30 980 O 100.323 -2.70779 -0.19778 0
M  V30 981 C 98.7786 -2.69125 2.38955 0
M  V30 982 C 98.3866 -2.29452 3.8478 0
M  V30 983 C 100.131 -3.46944 2.44603 0
M  V30 984 C 98.0376 -3.46366 4.79358 0
M  V30 985 H 96.9676 -0.559296 0.505672 0
M  V30 986 H 99.6186 -0.800983 1.65095 0
M  V30 987 H 98.0006 -3.40041 2.02948 0
M  V30 988 H 99.1746 -1.66077 4.29831 0
M  V30 989 H 97.4896 -1.64723 3.82433 0
M  V30 990 H 100.087 -4.33907 3.12456 0
M  V30 991 H 100.43 -3.89454 1.47076 0
M  V30 992 H 100.963 -2.83056 2.79507 0
M  V30 993 H 97.7016 -3.08905 5.78151 0
M  V30 994 H 97.2216 -4.08719 4.38986 0
M  V30 995 H 98.9006 -4.12691 4.98292 0
M  V30 996 N 99.0327 -1.24633 -0.964593 0
M  V30 997 C 99.9427 -1.05859 -2.09359 0
M  V30 998 C 100.959 0.00148855 -1.74 0
M  V30 999 O 102.135 -0.197346 -2.00431 0
M  V30 1000 C 99.1997 -0.668879 -3.40187 0
M  V30 1001 C 98.2607 -1.80578 -3.89474 0
M  V30 1002 C 97.4937 -1.43457 -5.14058 0
M  V30 1003 O 97.7167 -0.325775 -5.69469 0
M  V30 1004 O 96.6507 -2.2613 -5.57807 0
M  V30 1005 H 100.477 -2.00516 -2.28094 0
M  V30 1006 H 98.0617 -1.03481 -1.0776 0
M  V30 1007 H 99.9437 -0.463211 -4.18846 0
M  V30 1008 H 98.6187 0.248536 -3.22744 0
M  V30 1009 H 97.5257 -2.06623 -3.11862 0
M  V30 1010 H 98.8587 -2.70208 -4.11398 0
M  V30 1011 N 100.511 1.16574 -1.06058 0
M  V30 1012 C 101.458 2.20883 -0.669263 0
M  V30 1013 C 102.428 1.62729 0.332918 0
M  V30 1014 O 103.613 1.895 0.222346 0
M  V30 1015 C 100.753 3.45049 -0.0593572 0
M  V30 1016 C 99.8658 4.17458 -1.11143 0
M  V30 1017 C 99.0008 5.29135 -0.467916 0
M  V30 1018 C 98.0398 5.93343 -1.50369 0
M  V30 1019 N 97.1768 6.96516 -0.883706 0
M  V30 1020 H 102.017 2.53709 -1.5632 0
M  V30 1021 H 99.5538 1.24616 -0.781625 0
M  V30 1022 H 101.512 4.16033 0.311771 0
M  V30 1023 H 100.142 3.12781 0.797992 0
M  V30 1024 H 99.1938 3.45101 -1.60029 0
M  V30 1025 H 100.506 4.61307 -1.89731 0
M  V30 1026 H 99.6598 6.06684 -0.0436871 0
M  V30 1027 H 98.3988 4.86443 0.349864 0
M  V30 1028 H 97.4038 5.14517 -1.93784 0
M  V30 1029 H 98.6288 6.38114 -2.32352 0
M  V30 1030 H 96.5748 6.55943 -0.086595 0
M  V30 1031 H 96.4918 7.38723 -1.607 0
M  V30 1032 H 97.7598 7.77993 -0.484543 0
M  V30 1033 N 101.989 0.842826 1.3317 0
M  V30 1034 C 103.4 0.496651 1.79973 0
M  V30 1035 C 103.751 -0.984641 1.69703 0
M  V30 1036 O 102.876 -1.76743 1.24863 0
M  V30 1037 C 103.471 0.894727 3.26772 0
M  V30 1038 C 102.03 0.600629 3.71577 0
M  V30 1039 C 101.177 1.10091 2.5451 0
M  V30 1040 H 104.128 1.03116 1.20635 0
M  V30 1041 H 104.149 0.206347 3.7994 0
M  V30 1042 H 103.661 1.97287 3.34215 0
M  V30 1043 H 101.762 -0.467284 3.69658 0
M  V30 1044 H 101.875 1.15863 4.64879 0
M  V30 1045 H 100.239 0.52162 2.49301 0
M  V30 1046 H 101.022 2.18591 2.64713 0
M  V30 1047 N 103.467 -1.45747 0.599634 0
M  V30 1048 C 104.695 -2.06668 0.0978551 0
M  V30 1049 C 105.11 -1.44562 -1.21439 0
M  V30 1050 O 104.467 -0.556923 -1.73795 0
M  V30 1051 C 104.518 -3.61456 -0.0567044 0
M  V30 1052 O 104.239 -4.21242 1.20361 0
M  V30 1053 C 105.74 -4.39345 -0.590869 0
M  V30 1054 H 102.96 -0.667825 0.0651943 0
M  V30 1055 H 105.504 -1.87115 0.82511 0
M  V30 1056 H 103.659 -3.80378 -0.734251 0
M  V30 1057 H 104.073 -5.14323 1.02821 0
M  V30 1058 H 105.547 -5.48182 -0.648131 0
M  V30 1059 H 106.024 -4.08568 -1.61147 0
M  V30 1060 H 106.63 -4.25268 0.0523679 0
M  V30 1061 N 104.945 -0.338344 -1.53925 0
M  V30 1062 C 106.175 0.260919 -2.04946 0
M  V30 1063 C 106.583 1.45174 -1.2133 0
M  V30 1064 O 105.926 1.82122 -0.240262 0
M  V30 1065 C 105.988 0.744596 -3.51704 0
M  V30 1066 C 105.652 -0.325883 -4.55837 0
M  V30 1067 C 106.649 -1.16687 -5.06636 0
M  V30 1068 C 104.334 -0.478317 -5.00017 0
M  V30 1069 C 106.328 -2.14588 -6.00192 0
M  V30 1070 C 104.015 -1.46073 -5.93385 0
M  V30 1071 C 105.013 -2.29297 -6.4336 0
M  V30 1072 O 104.701 -3.25867 -7.34892 0
M  V30 1073 H 104.433 0.0551207 -0.673749 0
M  V30 1074 H 106.987 -0.486984 -1.99544 0
M  V30 1075 H 105.217 1.54366 -3.54553 0
M  V30 1076 H 106.906 1.26383 -3.85723 0
M  V30 1077 H 107.672 -1.06016 -4.73271 0
M  V30 1078 H 103.551 0.159613 -4.60724 0
M  V30 1079 H 107.095 -2.79585 -6.39123 0
M  V30 1080 H 102.992 -1.56802 -6.26166 0
M  V30 1081 H 103.76 -3.21278 -7.5281 0
M  V30 1082 N 106.423 1.57458 -0.0668435 0
M  V30 1083 C 107.386 2.11323 0.887422 0
M  V30 1084 C 108.386 1.03618 1.22964 0
M  V30 1085 O 109.576 1.29626 1.16373 0
M  V30 1086 C 106.708 2.61048 2.19242 0
M  V30 1087 H 107.901 2.96942 0.420194 0
M  V30 1088 H 105.454 1.55239 0.181793 0
M  V30 1089 H 106.189 1.78868 2.70512 0
M  V30 1090 H 105.974 3.39769 1.95702 0
M  V30 1091 H 107.464 3.02814 2.87565 0
M  V30 1092 N 107.901 -0.206675 1.56239 0
M  V30 1093 C 109.129 -0.945345 1.8404 0
M  V30 1094 C 109.544 -1.77336 0.647885 0
M  V30 1095 O 108.901 -1.78425 -0.383511 0
M  V30 1096 C 108.952 -1.8509 3.10522 0
M  V30 1097 O 108.673 -1.05634 4.25174 0
M  V30 1098 C 110.174 -2.70222 3.51418 0
M  V30 1099 H 107.394 -0.276372 0.61144 0
M  V30 1100 H 109.938 -0.217417 2.03341 0
M  V30 1101 H 108.093 -2.53259 2.93153 0
M  V30 1102 H 108.507 -1.67238 4.97124 0
M  V30 1103 H 109.981 -3.29438 4.42916 0
M  V30 1104 H 110.458 -3.43358 2.73864 0
M  V30 1105 H 111.064 -2.07443 3.71278 0
M  V30 1106 N 109.379 -1.50304 -0.473955 0
M  V30 1107 C 110.326 -1.68959 -1.57231 0
M  V30 1108 C 111.296 -0.530899 -1.57387 0
M  V30 1109 O 112.481 -0.761133 -1.74961 0
M  V30 1110 C 109.621 -1.7871 -2.95223 0
M  V30 1111 C 108.734 -3.06061 -3.04878 0
M  V30 1112 C 107.869 -3.06626 -4.33767 0
M  V30 1113 C 106.908 -4.28443 -4.37154 0
M  V30 1114 N 106.045 -4.26763 -5.5751 0
M  V30 1115 H 110.885 -2.6273 -1.40631 0
M  V30 1116 H 108.422 -1.30241 -0.683789 0
M  V30 1117 H 110.38 -1.82344 -3.75242 0
M  V30 1118 H 109.01 -0.883806 -3.10465 0
M  V30 1119 H 108.062 -3.11911 -2.17751 0
M  V30 1120 H 109.374 -3.96039 -3.0324 0
M  V30 1121 H 108.528 -3.08973 -5.22131 0
M  V30 1122 H 107.267 -2.14473 -4.3801 0
M  V30 1123 H 106.272 -4.2631 -3.47188 0
M  V30 1124 H 107.497 -5.2182 -4.34605 0
M  V30 1125 H 105.443 -3.37462 -5.62544 0
M  V30 1126 H 105.36 -5.10507 -5.57601 0
M  V30 1127 H 106.628 -4.33253 -6.48006 0
M  V30 1128 N 110.857 0.726932 -1.39834 0
M  V30 1129 C 112.103 1.48771 -1.38704 0
M  V30 1130 C 112.458 1.92394 0.0146387 0
M  V30 1131 O 111.751 1.64474 0.982797 0
M  V30 1132 C 111.945 2.73495 -2.30077 0
M  V30 1133 C 111.774 2.42068 -3.78989 0
M  V30 1134 C 110.544 2.33966 -4.4787 0
M  V30 1135 C 112.742 2.0708 -4.70768 0
M  V30 1136 N 110.724 1.95095 -5.82075 0
M  V30 1137 C 112.095 1.78719 -5.93683 0
M  V30 1138 C 114.15 1.93618 -4.58712 0
M  V30 1139 C 112.853 1.3825 -7.05889 0
M  V30 1140 C 114.879 1.54553 -5.70848 0
M  V30 1141 C 114.241 1.27082 -6.92842 0
M  V30 1142 H 110.34 0.542919 -0.562817 0
M  V30 1143 H 112.924 0.84408 -1.75452 0
M  V30 1144 H 111.095 3.35625 -1.95474 0
M  V30 1145 H 112.827 3.39755 -2.19883 0
M  V30 1146 H 109.582 2.51331 -4.0141 0
M  V30 1147 H 110.006 1.7823 -6.53118 0
M  V30 1148 H 114.648 2.13522 -3.64922 0
M  V30 1149 H 112.366 1.17088 -7.99572 0
M  V30 1150 H 115.952 1.44731 -5.6351 0
M  V30 1151 H 114.832 0.973069 -7.78139 0
M  V30 1152 N 112.336 1.25143 0.95797 0
M  V30 1153 C 113.747 1.08851 1.51685 0
M  V30 1154 C 114.098 -0.33687 1.93286 0
M  V30 1155 O 113.223 -1.22644 1.7829 0
M  V30 1156 C 113.818 1.96978 2.75654 0
M  V30 1157 C 112.377 1.84881 3.27866 0
M  V30 1158 C 111.524 1.91329 2.0072 0
M  V30 1159 H 114.475 1.38478 0.77522 0
M  V30 1160 H 114.496 1.5078 3.4935 0
M  V30 1161 H 114.008 3.00712 2.45345 0
M  V30 1162 H 112.109 0.840182 3.63004 0
M  V30 1163 H 112.222 2.6951 3.96107 0
M  V30 1164 H 110.586 1.35174 2.15871 0
M  V30 1165 H 111.369 2.96661 1.72764 0
M  V30 1166 N 113.814 -1.1601 1.06675 0
M  V30 1167 C 115.063 -1.85973 0.780818 0
M  V30 1168 C 115.376 -1.82819 -0.695444 0
M  V30 1169 O 116.582 -2.484 -1.09589 0
M  V30 1170 C 115.038 -3.33757 1.34665 0
M  V30 1171 C 114.646 -3.45374 2.85343 0
M  V30 1172 C 116.39 -4.0895 1.13843 0
M  V30 1173 C 114.297 -4.87266 3.35151 0
M  V30 1174 H 113.227 -0.696661 0.288407 0
M  V30 1175 H 115.878 -1.30903 1.28595 0
M  V30 1176 H 114.26 -3.88456 0.769274 0
M  V30 1177 H 115.434 -3.00816 3.49065 0
M  V30 1178 H 113.749 -2.83619 3.04876 0
M  V30 1179 H 116.346 -5.13654 1.4854 0
M  V30 1180 H 116.689 -4.16229 0.0770282 0
M  V30 1181 H 117.222 -3.605 1.68179 0
M  V30 1182 H 113.961 -4.85168 4.40786 0
M  V30 1183 H 113.481 -5.32433 2.76179 0
M  V30 1184 H 115.16 -5.56097 3.30704 0
M  V30 1185 N 115.292 -0.849877 -1.32721 0
M  V30 1186 C 116.708 -0.539102 -1.50219 0
M  V30 1187 C 116.908 0.931271 -1.78689 0
M  V30 1188 O 115.964 1.71455 -1.85363 0
M  V30 1189 C 117.277 -1.42196 -2.64954 0
M  V30 1190 C 118.825 -1.42189 -2.78839 0
M  V30 1191 C 119.3 -2.28985 -3.96648 0
M  V30 1192 N 120.791 -2.26754 -4.03902 0
M  V30 1193 C 121.526 -2.90644 -4.94281 0
M  V30 1194 N 121.022 -3.63629 -5.897 0
M  V30 1195 N 122.815 -2.80057 -4.87365 0
M  V30 1196 H 114.966 -1.80156 -1.12506 0
M  V30 1197 H 117.229 -0.769217 -0.554085 0
M  V30 1198 H 116.935 -2.46733 -2.50631 0
M  V30 1199 H 116.809 -1.10591 -3.60624 0
M  V30 1200 H 119.196 -0.38419 -2.92588 0
M  V30 1201 H 119.277 -1.77807 -1.83898 0
M  V30 1202 H 118.921 -3.32819 -3.83658 0
M  V30 1203 H 118.851 -1.90702 -4.90857 0
M  V30 1204 H 121.342 -1.73688 -3.3562 0
M  V30 1205 H 121.655 -4.09558 -6.55349 0
M  V30 1206 H 120 -3.67737 -5.89741 0
M  V30 1207 H 123.191 -2.22593 -4.11789 0
M  V30 1208 H 123.364 -3.30132 -5.57599 0
M  V30 1209 N 116.77 1.45427 -0.607355 0
M  V30 1210 C 117.72 2.27612 0.133038 0
M  V30 1211 C 118.704 1.37307 0.838785 0
M  V30 1212 O 119.896 1.61299 0.728813 0
M  V30 1213 C 117.025 3.24173 1.12991 0
M  V30 1214 C 116.111 4.21965 0.425011 0
M  V30 1215 N 116.502 5.02982 -0.533217 0
M  V30 1216 C 114.8 4.40899 0.672593 0
M  V30 1217 C 115.501 5.73931 -0.947518 0
M  V30 1218 N 114.477 5.42819 -0.291321 0
M  V30 1219 H 118.279 2.87649 -0.602935 0
M  V30 1220 H 115.793 1.56576 -0.431006 0
M  V30 1221 H 117.79 3.81783 1.67473 0
M  V30 1222 H 116.45 2.65696 1.86644 0
M  V30 1223 H 117.461 5.09843 -0.90995 0
M  V30 1224 H 114.138 3.93547 1.39382 0
M  V30 1225 H 115.528 6.49037 -1.73782 0
M  V30 1226 N 118.248 0.346503 1.53744 0
M  V30 1227 C 119.496 -0.248612 2.00565 0
M  V30 1228 C 119.817 -1.5083 1.23593 0
M  V30 1229 O 119.087 -1.92858 0.343912 0
M  V30 1230 H 117.667 -0.0948564 0.740953 0
M  V30 1231 H 120.329 0.468341 1.89189 0
M  V30 1232 H 119.425 -0.488994 3.08245 0
M  V30 1233 N 119.726 -1.57421 0.075193 0
M  V30 1234 C 120.975 -1.92794 -0.592731 0
M  V30 1235 C 121.288 -0.957478 -1.70563 0
M  V30 1236 O 122.494 -1.20417 -2.43335 0
M  V30 1237 C 120.95 -3.42495 -1.10569 0
M  V30 1238 C 120.558 -4.47994 -0.0236121 0
M  V30 1239 C 122.302 -3.86864 -1.74748 0
M  V30 1240 C 120.209 -5.88829 -0.550803 0
M  V30 1241 H 119.139 -0.719591 -0.225177 0
M  V30 1242 H 121.79 -1.82902 0.147978 0
M  V30 1243 H 120.172 -3.47471 -1.89947 0
M  V30 1244 H 121.346 -4.54637 0.751099 0
M  V30 1245 H 119.661 -4.13113 0.522159 0
M  V30 1246 H 122.258 -4.8947 -2.15229 0
M  V30 1247 H 122.601 -3.24417 -2.60882 0
M  V30 1248 H 123.134 -3.84504 -1.01986 0
M  V30 1249 H 119.873 -6.54929 0.273457 0
M  V30 1250 H 119.393 -5.85698 -1.29296 0
M  V30 1251 H 121.072 -6.38811 -1.02613 0
M  V30 1252 N 121.204 0.198386 -1.56346 0
M  V30 1253 C 122.45 0.920648 -1.80698 0
M  V30 1254 C 122.783 1.83045 -0.648697 0
M  V30 1255 O 122.058 1.91308 0.350925 0
M  V30 1256 C 122.341 1.73971 -3.15287 0
M  V30 1257 C 122.194 0.85485 -4.41602 0
M  V30 1258 C 123.513 2.71296 -3.46535 0
M  V30 1259 H 120.632 0.333261 -0.657348 0
M  V30 1260 H 123.274 0.188198 -1.89066 0
M  V30 1261 H 121.424 2.36416 -3.08285 0
M  V30 1262 H 123.096 0.245362 -4.60647 0
M  V30 1263 H 121.339 0.161398 -4.335 0
M  V30 1264 H 122.01 1.46286 -5.32264 0
M  V30 1265 H 124.486 2.18983 -3.53816 0
M  V30 1266 H 123.362 3.2569 -4.41834 0
M  V30 1267 H 123.623 3.5018 -2.69864 0
M  V30 1268 N 122.682 1.50554 0.465978 0
M  V30 1269 C 123.592 1.72585 1.58907 0
M  V30 1270 C 124.608 0.60911 1.6299 0
M  V30 1271 O 125.784 0.88804 1.80765 0
M  V30 1272 C 122.849 1.81995 2.95091 0
M  V30 1273 C 121.91 3.05751 3.01355 0
M  V30 1274 C 121.143 3.14702 4.31043 0
M  V30 1275 O 121.366 2.30313 5.21835 0
M  V30 1276 O 120.3 4.07468 4.43005 0
M  V30 1277 H 124.126 2.67799 1.43239 0
M  V30 1278 H 121.711 1.34711 0.646013 0
M  V30 1279 H 123.593 1.90335 3.75966 0
M  V30 1280 H 122.268 0.899659 3.10947 0
M  V30 1281 H 121.175 3.02908 2.19539 0
M  V30 1282 H 122.508 3.97375 2.90437 0
M  V30 1283 N 124.16 -0.719506 1.40217 0
M  V30 1284 C 125.437 -1.47221 1.28784 0
M  V30 1285 C 125.817 -2.10883 -0.0956067 0
M  V30 1286 O 125.165 -1.99833 -1.10811 0
M  V30 1287 C 125.375 -2.5111 2.42373 0
M  V30 1288 C 126.723 -3.17053 2.82423 0
M  V30 1289 O 127.747 -2.61429 2.41937 0
M  V30 1290 O 126.606 -4.17742 3.52355 0
M  V30 1291 H 123.7 -0.654491 0.50554 0
M  V30 1292 H 126.246 -0.752014 1.52128 0
M  V30 1293 H 125.018 -2.02556 3.34793 0
M  V30 1294 H 124.641 -3.3067 2.20778 0
M  V30 1295 N 125.638 -1.25649 -0.95132 0
M  V30 1296 C 126.884 -1.11766 -1.69941 0
M  V30 1297 C 127.239 0.33735 -1.89419 0
M  V30 1298 O 126.532 1.24491 -1.45645 0
M  V30 1299 C 126.726 -1.80909 -3.08231 0
M  V30 1300 C 126.555 -3.32984 -3.02245 0
M  V30 1301 C 125.325 -4.02247 -3.05819 0
M  V30 1302 C 127.523 -4.29332 -2.83157 0
M  V30 1303 N 125.505 -5.41072 -2.90024 0
M  V30 1304 C 126.876 -5.55265 -2.75828 0
M  V30 1305 C 128.931 -4.19707 -2.67863 0
M  V30 1306 C 127.634 -6.72671 -2.54767 0
M  V30 1307 C 129.66 -5.36809 -2.48173 0
M  V30 1308 C 129.022 -6.61683 -2.41567 0
M  V30 1309 H 125.121 -0.463708 -0.629682 0
M  V30 1310 H 127.705 -1.58796 -1.12659 0
M  V30 1311 H 125.876 -1.36369 -3.63673 0
M  V30 1312 H 127.608 -1.59739 -3.71841 0
M  V30 1313 H 124.363 -3.53531 -3.15139 0
M  V30 1314 H 124.787 -6.13938 -2.85323 0
M  V30 1315 H 129.429 -3.23907 -2.71743 0
M  V30 1316 H 127.147 -7.68577 -2.49629 0
M  V30 1317 H 130.733 -5.31224 -2.37259 0
M  V30 1318 H 129.613 -7.50768 -2.26531 0
M  V30 1319 N 127.117 1.15442 -1.07289 0
M  V30 1320 C 128.394 1.82306 -0.708792 0
M  V30 1321 C 128.774 1.94991 0.808807 0
M  V30 1322 O 128.122 1.50085 1.72298 0
M  V30 1323 C 128.332 3.18695 -1.42247 0
M  V30 1324 C 129.68 3.94341 -1.57417 0
M  V30 1325 O 130.704 3.28247 -1.38319 0
M  V30 1326 O 129.563 5.12839 -1.88834 0
M  V30 1327 H 126.657 0.787628 -0.252132 0
M  V30 1328 H 129.203 1.22559 -1.17377 0
M  V30 1329 H 127.975 3.04557 -2.45684 0
M  V30 1330 H 127.598 3.86128 -0.948223 0
M  V30 1331 N 128.595 0.856903 1.32268 0
M  V30 1332 C 129.525 0.31858 2.31316 0
M  V30 1333 C 130.506 -0.583487 1.59779 0
M  V30 1334 O 131.691 -0.503259 1.87566 0
M  V30 1335 C 128.821 -0.491979 3.43798 0
M  V30 1336 C 127.775 0.315849 4.26833 0
M  V30 1337 C 127.101 -0.619586 5.31098 0
M  V30 1338 C 128.401 1.54282 4.98993 0
M  V30 1339 H 130.095 1.14621 2.76591 0
M  V30 1340 H 127.641 0.552613 1.32974 0
M  V30 1341 H 129.594 -0.879012 4.1213 0
M  V30 1342 H 128.318 -1.35299 2.97257 0
M  V30 1343 H 126.977 0.684664 3.6015 0
M  V30 1344 H 126.625 -1.47751 4.8081 0
M  V30 1345 H 126.325 -0.0830621 5.87541 0
M  V30 1346 H 127.849 -1.00375 6.02293 0
M  V30 1347 H 129.263 1.22796 5.59995 0
M  V30 1348 H 127.66 2.01745 5.65172 0
M  V30 1349 H 128.73 2.30285 4.26728 0
M  V30 1350 N 130.073 -1.45103 0.615059 0
M  V30 1351 C 131.006 -2.27717 -0.148408 0
M  V30 1352 C 131.984 -1.37584 -0.866572 0
M  V30 1353 O 133.168 -1.67017 -0.87393 0
M  V30 1354 C 130.295 -3.16136 -1.21557 0
M  V30 1355 C 129.341 -4.22263 -0.599712 0
M  V30 1356 S 130.174 -5.3215 0.598081 0
M  V30 1357 C 131.33 -6.24137 -0.469484 0
M  V30 1358 H 131.563 -2.92121 0.552483 0
M  V30 1359 H 129.096 -1.49054 0.402778 0
M  V30 1360 H 131.054 -3.67633 -1.82638 0
M  V30 1361 H 129.715 -2.50982 -1.88857 0
M  V30 1362 H 128.908 -4.84081 -1.4029 0
M  V30 1363 H 128.51 -3.73945 -0.063876 0
M  V30 1364 H 130.802 -6.63984 -1.34652 0
M  V30 1365 H 131.745 -7.0801 0.112725 0
M  V30 1366 H 132.153 -5.58971 -0.788168 0
M  V30 1367 N 131.551 -0.354651 -1.53558 0
M  V30 1368 C 132.461 0.50515 -2.29097 0
M  V30 1369 C 133.477 1.10223 -1.34636 0
M  V30 1370 O 134.653 1.11553 -1.67684 0
M  V30 1371 C 131.718 1.63479 -3.05738 0
M  V30 1372 C 130.779 1.06636 -4.15845 0
M  V30 1373 C 130.012 2.14217 -4.88822 0
M  V30 1374 O 130.235 3.35137 -4.61562 0
M  V30 1375 O 129.169 1.77887 -5.75013 0
M  V30 1376 H 132.995 -0.109237 -3.03503 0
M  V30 1377 H 130.58 -0.119357 -1.48922 0
M  V30 1378 H 132.462 2.2918 -3.5363 0
M  V30 1379 H 131.137 2.23478 -2.34178 0
M  V30 1380 H 130.044 0.373565 -3.7223 0
M  V30 1381 H 131.377 0.511081 -4.89539 0
M  V30 1382 N 133.029 1.57378 -0.0835403 0
M  V30 1383 C 134.445 1.57246 0.273109 0
M  V30 1384 C 134.645 1.09385 1.69225 0
M  V30 1385 O 133.701 0.765051 2.40631 0
M  V30 1386 C 135.014 3.00614 0.0720628 0
M  V30 1387 C 136.562 3.12684 0.1407 0
M  V30 1388 C 137.037 4.57989 -0.0322094 0
M  V30 1389 N 138.528 4.63194 0.0230085 0
M  V30 1390 C 139.263 5.73335 -0.0861941 0
M  V30 1391 N 138.759 6.9235 -0.24958 0
M  V30 1392 N 140.552 5.62093 -0.0282886 0
M  V30 1393 H 132.703 1.86801 -1.0109 0
M  V30 1394 H 134.966 0.861687 -0.395222 0
M  V30 1395 H 134.672 3.39786 -0.907662 0
M  V30 1396 H 134.546 3.68193 0.81936 0
M  V30 1397 H 136.933 2.73391 1.11092 0
M  V30 1398 H 137.014 2.47719 -0.637896 0
M  V30 1399 H 136.658 4.97973 -0.999247 0
M  V30 1400 H 136.588 5.21 0.765937 0
M  V30 1401 H 139.079 3.77613 0.14722 0
M  V30 1402 H 139.392 7.72117 -0.324733 0
M  V30 1403 H 137.737 6.94415 -0.285097 0
M  V30 1404 H 140.928 4.67997 0.0981408 0
M  V30 1405 H 141.101 6.47895 -0.116845 0
M  V30 1406 N 134.507 -0.190092 1.56449 0
M  V30 1407 C 135.754 -0.909705 1.80916 0
M  V30 1408 C 136.082 -1.83047 0.657583 0
M  V30 1409 O 135.337 -1.92428 -0.356356 0
M  V30 1410 C 135.636 -1.75382 3.1141 0
M  V30 1411 C 135.302 -0.983606 4.40041 0
M  V30 1412 C 133.964 -0.770967 4.74984 0
M  V30 1413 C 136.316 -0.442024 5.19322 0
M  V30 1414 C 133.644 -0.0053448 5.867 0
M  V30 1415 C 135.996 0.310412 6.31838 0
M  V30 1416 C 134.66 0.534023 6.6536 0
M  V30 1417 H 133.93 -0.332885 0.662019 0
M  V30 1418 H 136.577 -0.175762 1.90692 0
M  V30 1419 H 134.882 -2.55659 2.96893 0
M  V30 1420 H 136.579 -2.31331 3.27547 0
M  V30 1421 H 133.169 -1.15936 4.12622 0
M  V30 1422 H 137.353 -0.593693 4.92736 0
M  V30 1423 H 132.609 0.177825 6.11141 0
M  V30 1424 H 136.783 0.737419 6.92485 0
M  V30 1425 H 134.41 1.12918 7.51767 0
M  V30 1426 N 135.985 -1.50799 -0.457987 0
M  V30 1427 C 136.918 -1.65273 -1.57353 0
M  V30 1428 C 137.896 -0.500578 -1.54703 0
M  V30 1429 O 139.08 -0.721781 -1.74134 0
M  V30 1430 C 136.207 -1.64737 -2.95938 0
M  V30 1431 C 135.253 -2.8567 -3.16693 0
M  V30 1432 S 136.086 -4.46791 -2.95191 0
M  V30 1433 C 137.242 -4.48968 -4.36095 0
M  V30 1434 H 137.475 -2.59633 -1.44838 0
M  V30 1435 H 135.008 -1.40225 -0.64625 0
M  V30 1436 H 136.966 -1.65112 -3.7583 0
M  V30 1437 H 135.627 -0.715899 -3.05833 0
M  V30 1438 H 134.82 -2.81637 -4.17967 0
M  V30 1439 H 134.422 -2.8293 -2.44594 0
M  V30 1440 H 136.714 -4.23337 -5.28954 0
M  V30 1441 H 137.657 -5.50664 -4.45168 0
M  V30 1442 H 138.065 -3.78522 -4.18786 0
M  V30 1443 N 137.463 0.71206 -1.40597 0
M  V30 1444 C 138.373 1.8562 -1.43466 0
M  V30 1445 C 139.389 1.70902 -0.326902 0
M  V30 1446 O 140.565 1.93105 -0.572043 0
M  V30 1447 C 137.63 3.21451 -1.29884 0
M  V30 1448 C 136.691 3.48398 -2.50833 0
M  V30 1449 C 135.924 4.77749 -2.3789 0
M  V30 1450 O 136.147 5.53089 -1.39459 0
M  V30 1451 O 135.081 5.05111 -3.27333 0
M  V30 1452 H 138.907 1.86155 -2.39958 0
M  V30 1453 H 136.492 0.86295 -1.21957 0
M  V30 1454 H 138.374 4.02579 -1.24531 0
M  V30 1455 H 137.049 3.21636 -0.364997 0
M  V30 1456 H 135.956 2.67265 -2.61763 0
M  V30 1457 H 137.289 3.53014 -3.4299 0
M  V30 1458 N 138.941 1.26152 0.944643 0
M  V30 1459 C 139.873 1.03199 2.04652 0
M  V30 1460 C 140.886 -0.00642356 1.62799 0
M  V30 1461 O 142.075 0.233263 1.76969 0
M  V30 1462 C 139.175 0.540111 3.34568 0
M  V30 1463 C 138.348 1.64697 4.05208 0
M  V30 1464 C 137.407 1.15374 5.13396 0
M  V30 1465 O 136.433 1.85013 5.38293 0
M  V30 1466 N 137.635 0.00031529 5.805 0
M  V30 1467 H 140.4 1.9808 2.2491 0
M  V30 1468 H 137.961 1.17491 1.11389 0
M  V30 1469 H 139.953 0.194401 4.04233 0
M  V30 1470 H 138.523 -0.315021 3.11009 0
M  V30 1471 H 137.743 2.16379 3.29506 0
M  V30 1472 H 139.031 2.3903 4.49157 0
M  V30 1473 H 138.429 -0.581336 5.62705 0
M  V30 1474 H 136.986 -0.286346 6.51171 0
M  V30 1475 N 140.419 -1.14872 1.07899 0
M  V30 1476 C 141.665 -1.86064 0.806725 0
M  V30 1477 C 141.998 -1.82434 -0.665706 0
M  V30 1478 O 141.273 -1.25138 -1.48899 0
M  V30 1479 C 141.556 -3.34929 1.32267 0
M  V30 1480 C 141.409 -3.47161 2.86006 0
M  V30 1481 C 142.728 -4.29863 0.943717 0
M  V30 1482 H 139.847 -0.675591 0.294526 0
M  V30 1483 H 142.489 -1.34925 1.33773 0
M  V30 1484 H 140.639 -3.78611 0.870974 0
M  V30 1485 H 142.311 -3.12302 3.39507 0
M  V30 1486 H 140.554 -2.88539 3.23925 0
M  V30 1487 H 141.225 -4.51777 3.17177 0
M  V30 1488 H 143.701 -3.9417 1.33302 0
M  V30 1489 H 142.577 -5.32494 1.33198 0
M  V30 1490 H 142.838 -4.41846 -0.149796 0
M  V30 1491 N 141.898 -0.863906 -1.31812 0
M  V30 1492 C 143.147 -0.46801 -1.96195 0
M  V30 1493 C 143.46 0.983474 -1.69077 0
M  V30 1494 O 144.666 1.48523 -2.27273 0
M  V30 1495 C 143.122 -0.785995 -3.51212 0
M  V30 1496 C 142.73 -2.25383 -3.87178 0
M  V30 1497 C 144.474 -0.458274 -4.22019 0
M  V30 1498 C 142.381 -2.51455 -5.3528 0
M  V30 1499 H 141.311 -0.171283 -0.734287 0
M  V30 1500 H 143.962 -1.05597 -1.50072 0
M  V30 1501 H 142.344 -0.127359 -3.95795 0
M  V30 1502 H 143.518 -2.95502 -3.53575 0
M  V30 1503 H 141.833 -2.54698 -3.2942 0
M  V30 1504 H 144.43 -0.630369 -5.30971 0
M  V30 1505 H 144.773 0.600834 -4.11941 0
M  V30 1506 H 145.306 -1.07319 -3.8305 0
M  V30 1507 H 142.045 -3.56025 -5.50387 0
M  V30 1508 H 141.565 -1.85923 -5.70257 0
M  V30 1509 H 143.244 -2.35874 -6.02472 0
M  V30 1510 N 143.376 1.44774 -0.622745 0
M  V30 1511 C 144.623 2.02121 -0.1239 0
M  V30 1512 C 144.951 1.48915 1.25118 0
M  V30 1513 O 144.206 0.660045 1.84233 0
M  V30 1514 C 144.505 3.57364 -0.0508323 0
M  V30 1515 C 144.171 4.29787 -1.36358 0
M  V30 1516 C 142.833 4.4929 -1.72314 0
M  V30 1517 C 145.185 4.71062 -2.23048 0
M  V30 1518 C 142.513 5.07325 -2.94682 0
M  V30 1519 C 144.865 5.30452 -3.44679 0
M  V30 1520 C 143.529 5.48175 -3.80868 0
M  V30 1521 H 142.799 0.739612 -0.0453381 0
M  V30 1522 H 145.446 1.73648 -0.807389 0
M  V30 1523 H 143.751 3.85202 0.715991 0
M  V30 1524 H 145.448 3.99456 0.351533 0
M  V30 1525 H 142.038 4.14932 -1.07375 0
M  V30 1526 H 146.222 4.55715 -1.96565 0
M  V30 1527 H 141.478 5.19235 -3.22809 0
M  V30 1528 H 145.652 5.61385 -4.12092 0
M  V30 1529 H 143.279 5.92912 -4.75773 0
M  V30 1530 N 144.854 0.36279 1.53368 0
M  V30 1531 C 145.801 -0.485008 2.25646 0
M  V30 1532 C 146.771 -1.07982 1.2621 0
M  V30 1533 O 147.956 -1.11284 1.54986 0
M  V30 1534 C 145.096 -1.62023 3.04701 0
M  V30 1535 C 144.209 -1.05086 4.19024 0
M  V30 1536 C 143.344 -2.15496 4.85525 0
M  V30 1537 C 142.383 -1.5601 5.91884 0
M  V30 1538 N 141.52 -2.60241 6.52088 0
M  V30 1539 H 146.36 0.137864 2.97681 0
M  V30 1540 H 143.897 0.0798061 1.46883 0
M  V30 1541 H 145.855 -2.28887 3.48807 0
M  V30 1542 H 144.485 -2.2138 2.34927 0
M  V30 1543 H 143.537 -0.27259 3.79422 0
M  V30 1544 H 144.849 -0.575926 4.95464 0
M  V30 1545 H 144.003 -2.90186 5.32801 0
M  V30 1546 H 142.742 -2.66341 4.08551 0
M  V30 1547 H 141.747 -0.798338 5.43973 0
M  V30 1548 H 142.972 -1.05994 6.70777 0
M  V30 1549 H 140.918 -3.10304 5.77968 0
M  V30 1550 H 140.835 -2.17426 7.24059 0
M  V30 1551 H 142.103 -3.34641 7.04014 0
M  V30 1552 N 146.332 -1.57332 0.0918853 0
M  V30 1553 C 147.562 -1.98286 -0.580205 0
M  V30 1554 C 147.97 -0.969713 -1.6246 0
M  V30 1555 O 147.313 0.0493501 -1.83634 0
M  V30 1556 C 147.375 -3.35603 -1.28882 0
M  V30 1557 C 147.039 -4.55285 -0.395559 0
M  V30 1558 C 148.036 -5.18687 0.355002 0
M  V30 1559 C 145.721 -5.01314 -0.314556 0
M  V30 1560 C 147.715 -6.26484 1.17458 0
M  V30 1561 C 145.402 -6.08979 0.508677 0
M  V30 1562 C 146.4 -6.71429 1.2519 0
M  V30 1563 O 146.088 -7.77018 2.06151 0
M  V30 1564 H 145.82 -0.656678 -0.160466 0
M  V30 1565 H 148.374 -2.04721 0.16688 0
M  V30 1566 H 146.604 -3.25842 -2.08241 0
M  V30 1567 H 148.293 -3.61026 -1.85512 0
M  V30 1568 H 149.059 -4.84058 0.302134 0
M  V30 1569 H 144.938 -4.5247 -0.882697 0
M  V30 1570 H 148.482 -6.75159 1.75518 0
M  V30 1571 H 144.379 -6.4304 0.563037 0
M  V30 1572 H 145.147 -7.93991 1.98799 0
M  V30 1573 N 147.81 0.181792 -1.56548 0
M  V30 1574 C 148.74 1.22765 -1.98623 0
M  V30 1575 C 149.721 1.46747 -0.860189 0
M  V30 1576 O 150.906 1.58259 -1.12551 0
M  V30 1577 C 148.036 2.56894 -2.33715 0
M  V30 1578 C 146.99 2.475 -3.49182 0
M  V30 1579 C 146.316 3.86023 -3.69986 0
M  V30 1580 C 147.616 1.98866 -4.82959 0
M  V30 1581 H 149.31 0.877942 -2.86239 0
M  V30 1582 H 146.856 0.42088 -1.37712 0
M  V30 1583 H 148.809 3.30253 -2.61746 0
M  V30 1584 H 147.533 2.93632 -1.42997 0
M  V30 1585 H 146.192 1.76596 -3.21262 0
M  V30 1586 H 145.84 4.20136 -2.76576 0
M  V30 1587 H 145.54 3.80609 -4.47672 0
M  V30 1588 H 147.064 4.60984 -4.00407 0
M  V30 1589 H 148.478 2.61992 -5.09934 0
M  V30 1590 H 146.875 2.04424 -5.64208 0
M  V30 1591 H 147.945 0.942465 -4.75653 0
M  V30 1592 N 149.288 1.51039 0.449983 0
M  V30 1593 C 150.704 1.38934 0.785462 0
M  V30 1594 C 150.904 0.461817 1.96136 0
M  V30 1595 O 149.96 -0.0877389 2.52348 0
M  V30 1596 C 151.273 2.80724 1.0777 0
M  V30 1597 C 152.821 2.89787 1.1829 0
M  V30 1598 C 153.296 4.32457 1.50815 0
M  V30 1599 N 154.787 4.35505 1.57764 0
M  V30 1600 C 155.522 5.42914 1.84477 0
M  V30 1601 N 155.018 6.60502 2.09068 0
M  V30 1602 N 156.811 5.3038 1.86155 0
M  V30 1603 H 148.962 2.09904 -0.324647 0
M  V30 1604 H 151.225 0.944378 -0.0827957 0
M  V30 1605 H 150.931 3.50531 0.286498 0
M  V30 1606 H 150.805 3.19273 2.00859 0
M  V30 1607 H 153.192 2.20186 1.96474 0
M  V30 1608 H 153.273 2.54752 0.231314 0
M  V30 1609 H 152.917 5.02603 0.731622 0
M  V30 1610 H 152.847 4.64995 2.47158 0
M  V30 1611 H 155.338 3.50724 1.40715 0
M  V30 1612 H 155.651 7.38158 2.28785 0
M  V30 1613 H 153.996 6.63639 2.06416 0
M  V30 1614 H 157.187 4.37505 1.66454 0
M  V30 1615 H 157.36 6.1417 2.06637 0
M  V30 1616 N 150.766 -0.704594 1.40972 0
M  V30 1617 C 151.729 -1.80035 1.41845 0
M  V30 1618 C 152.729 -1.57774 0.310474 0
M  V30 1619 O 153.919 -1.64613 0.56992 0
M  V30 1620 C 151.051 -3.18284 1.22098 0
M  V30 1621 H 152.244 -1.80658 2.3938 0
M  V30 1622 H 149.797 -0.911329 1.26982 0
M  V30 1623 H 150.532 -3.23306 0.253672 0
M  V30 1624 H 150.317 -3.35843 2.02366 0
M  V30 1625 H 151.807 -3.98289 1.25522 0
M  V30 1626 N 152.244 -1.26651 -0.937939 0
M  V30 1627 C 153.154 -1.10276 -2.07066 0
M  V30 1628 C 154.17 -0.0354197 -1.73964 0
M  V30 1629 O 155.346 -0.239816 -1.99967 0
M  V30 1630 C 152.411 -0.740887 -3.38691 0
M  V30 1631 C 151.472 -1.88799 -3.85556 0
M  V30 1632 C 150.705 -1.54329 -5.10899 0
M  V30 1633 O 150.928 -0.446494 -5.6865 0
M  V30 1634 O 149.862 -2.37911 -5.52885 0
M  V30 1635 H 153.688 -2.05309 -2.23789 0
M  V30 1636 H 151.273 -1.05743 -1.0554 0
M  V30 1637 H 153.155 -0.55195 -4.1777 0
M  V30 1638 H 151.83 0.180022 -3.23199 0
M  V30 1639 H 150.737 -2.13191 -3.07409 0
M  V30 1640 H 152.07 -2.78874 -4.05574 0
M  V30 1641 N 153.722 1.14298 -1.08507 0
M  V30 1642 C 155.133 1.66926 -0.836227 0
M  V30 1643 C 155.484 1.85576 0.63686 0
M  V30 1644 O 154.609 1.56767 1.49175 0
M  V30 1645 C 155.204 3.03219 -1.51142 0
M  V30 1646 C 153.763 3.52876 -1.30979 0
M  V30 1647 C 152.91 2.2833 -1.57356 0
M  V30 1648 H 155.861 0.983491 -1.24552 0
M  V30 1649 H 155.882 3.68726 -0.939211 0
M  V30 1650 H 155.394 2.89612 -2.58353 0
M  V30 1651 H 153.495 3.71703 -0.258429 0
M  V30 1652 H 153.608 4.33586 -2.03814 0
M  V30 1653 H 151.972 2.34454 -0.995164 0
M  V30 1654 H 152.755 2.17298 -2.65775 0
M  V30 1655 N 155.201 0.870884 1.31352 0
M  V30 1656 C 156.111 0.330783 2.32256 0
M  V30 1657 C 157.127 -0.559767 1.6475 0
M  V30 1658 O 158.303 -0.456263 1.96164 0
M  V30 1659 C 155.368 -0.458137 3.4366 0
M  V30 1660 C 154.429 0.460482 4.26823 0
M  V30 1661 C 153.662 -0.290881 5.32907 0
M  V30 1662 O 153.885 -1.51885 5.49806 0
M  V30 1663 O 152.819 0.351732 6.00871 0
M  V30 1664 H 156.645 1.16718 2.80376 0
M  V30 1665 H 154.23 0.634285 1.35267 0
M  V30 1666 H 156.112 -0.905343 4.1156 0
M  V30 1667 H 154.787 -1.27106 2.97701 0
M  V30 1668 H 153.694 0.956207 3.61673 0
M  V30 1669 H 155.027 1.23903 4.7635 0
M  V30 1670 N 156.679 -1.44442 0.630414 0
M  V30 1671 C 157.956 -1.9549 0.0655657 0
M  V30 1672 C 158.336 -1.5724 -1.40851 0
M  V30 1673 O 157.684 -0.846116 -2.12257 0
M  V30 1674 C 157.894 -3.47812 0.287691 0
M  V30 1675 C 159.242 -4.24216 0.180513 0
M  V30 1676 O 160.266 -3.55526 0.219019 0
M  V30 1677 O 159.125 -5.46434 0.0848493 0
M  V30 1678 H 156.219 -0.826688 -0.0227177 0
M  V30 1679 H 158.765 -1.54496 0.702068 0
M  V30 1680 H 157.537 -3.687 1.31056 0
M  V30 1681 H 157.16 -3.95751 -0.382984 0
M  V30 1682 N 158.157 -0.370918 -1.53173 0
M  V30 1683 C 159.107 0.489588 -2.22681 0
M  V30 1684 C 160.091 1.04442 -1.22395 0
M  V30 1685 O 161.283 0.973578 -1.47819 0
M  V30 1686 C 158.412 1.626 -3.02351 0
M  V30 1687 C 157.498 1.08379 -4.10018 0
M  V30 1688 N 157.889 0.265004 -5.05105 0
M  V30 1689 C 156.187 1.35809 -4.2482 0
M  V30 1690 C 156.888 -0.0324755 -5.81691 0
M  V30 1691 N 155.864 0.566581 -5.40639 0
M  V30 1692 H 159.666 -0.142729 -2.93553 0
M  V30 1693 H 157.18 -0.179221 -1.61408 0
M  V30 1694 H 159.177 2.2547 -3.50669 0
M  V30 1695 H 157.837 2.26132 -2.33011 0
M  V30 1696 H 158.848 -0.0962352 -5.17811 0
M  V30 1697 H 155.525 1.9958 -3.66707 0
M  V30 1698 H 156.915 -0.69473 -6.68299 0
M  V30 1699 N 159.635 1.57281 -0.100228 0
M  V30 1700 C 160.865 1.98591 0.569681 0
M  V30 1701 C 161.273 0.978315 1.61943 0
M  V30 1702 O 160.616 -0.0396108 1.83657 0
M  V30 1703 C 160.678 3.36282 1.271 0
M  V30 1704 C 160.342 4.55488 0.371409 0
M  V30 1705 C 161.339 5.18491 -0.382504 0
M  V30 1706 C 159.024 5.01474 0.287965 0
M  V30 1707 C 161.018 6.25852 -1.20779 0
M  V30 1708 C 158.705 6.08701 -0.540965 0
M  V30 1709 C 159.703 6.70755 -1.28749 0
M  V30 1710 O 159.391 7.75914 -2.10269 0
M  V30 1711 H 159.123 0.65752 0.156982 0
M  V30 1712 H 161.677 2.0463 -0.177734 0
M  V30 1713 H 159.907 3.26941 2.0651 0
M  V30 1714 H 161.596 3.62005 1.83595 0
M  V30 1715 H 162.362 4.83891 -0.3278 0
M  V30 1716 H 158.241 4.52932 0.858689 0
M  V30 1717 H 161.785 6.74218 -1.79096 0
M  V30 1718 H 157.682 6.42732 -0.597131 0
M  V30 1719 H 158.45 7.92925 -2.03007 0
M  V30 1720 N 161.113 -0.173488 1.56642 0
M  V30 1721 C 162.36 -0.890465 1.81871 0
M  V30 1722 C 162.688 -1.82339 0.67696 0
M  V30 1723 O 161.943 -1.92795 -0.335926 0
M  V30 1724 C 162.242 -1.72069 3.13252 0
M  V30 1725 C 161.908 -0.936878 4.41059 0
M  V30 1726 C 160.57 -0.720545 4.75775 0
M  V30 1727 C 162.922 -0.386919 5.19762 0
M  V30 1728 C 160.25 0.0568829 5.86672 0
M  V30 1729 C 162.602 0.37741 6.31473 0
M  V30 1730 C 161.266 0.604563 6.64757 0
M  V30 1731 H 160.536 -0.325844 0.665512 0
M  V30 1732 H 163.183 -0.155527 1.90867 0
M  V30 1733 H 161.488 -2.52496 2.99588 0
M  V30 1734 H 163.185 -2.27844 3.29982 0
M  V30 1735 H 159.775 -1.11553 4.13828 0
M  V30 1736 H 163.959 -0.541398 4.93338 0
M  V30 1737 H 159.215 0.242635 6.10918 0
M  V30 1738 H 163.389 0.810825 6.91664 0
M  V30 1739 H 161.016 1.20885 7.50527 0
M  V30 1740 N 162.591 -1.51276 -0.441967 0
M  V30 1741 C 163.521 -1.752 -1.54361 0
M  V30 1742 C 164.502 -0.601682 -1.59103 0
M  V30 1743 O 165.687 -0.843913 -1.74905 0
M  V30 1744 C 162.817 -1.87282 -2.92477 0
M  V30 1745 C 161.771 -3.02687 -3.02596 0
M  V30 1746 C 161.097 -2.99947 -4.42647 0
M  V30 1747 C 162.397 -4.4273 -2.77106 0
M  V30 1748 H 164.091 -2.67442 -1.34592 0
M  V30 1749 H 161.637 -1.28694 -0.646048 0
M  V30 1750 H 163.59 -2.02602 -3.695 0
M  V30 1751 H 162.314 -0.916844 -3.13467 0
M  V30 1752 H 160.973 -2.87065 -2.28012 0
M  V30 1753 H 160.621 -2.02136 -4.60597 0
M  V30 1754 H 160.321 -3.77439 -4.50348 0
M  V30 1755 H 161.845 -3.17354 -5.2165 0
M  V30 1756 H 163.259 -4.58727 -3.43864 0
M  V30 1757 H 161.656 -5.21893 -2.96222 0
M  V30 1758 H 162.726 -4.53087 -1.72744 0
M  V30 1759 N 164.069 0.697108 -1.41344 0
M  V30 1760 C 164.999 1.82353 -1.45841 0
M  V30 1761 C 165.98 1.67115 -0.317247 0
M  V30 1762 O 167.165 1.86871 -0.528474 0
M  V30 1763 C 164.295 3.20476 -1.33838 0
M  V30 1764 C 163.249 3.50415 -2.4575 0
M  V30 1765 C 162.575 4.87878 -2.18813 0
M  V30 1766 C 163.875 3.49546 -3.88091 0
M  V30 1767 H 165.569 1.78846 -2.40113 0
M  V30 1768 H 163.115 0.859028 -1.15571 0
M  V30 1769 H 165.068 3.98988 -1.35596 0
M  V30 1770 H 163.792 3.24604 -0.360498 0
M  V30 1771 H 162.451 2.74253 -2.43271 0
M  V30 1772 H 162.099 4.8863 -1.19371 0
M  V30 1773 H 161.799 5.08875 -2.93803 0
M  V30 1774 H 163.323 5.68702 -2.22284 0
M  V30 1775 H 164.737 4.18066 -3.92293 0
M  V30 1776 H 163.134 3.82075 -4.62751 0
M  V30 1777 H 164.204 2.48552 -4.16353 0
M  V30 1778 N 165.547 1.27147 0.931209 0
M  V30 1779 C 166.775 1.16082 1.71267 0
M  V30 1780 C 167.19 -0.282772 1.8667 0
M  V30 1781 O 166.547 -1.19283 1.38122 0
M  V30 1782 C 166.598 1.8358 3.11417 0
M  V30 1783 O 166.319 3.22299 2.96741 0
M  V30 1784 C 167.82 1.78597 4.05732 0
M  V30 1785 H 165.04 0.403758 0.535929 0
M  V30 1786 H 167.584 1.67953 1.16671 0
M  V30 1787 H 165.739 1.35623 3.62885 0
M  V30 1788 H 166.153 3.55851 3.85319 0
M  V30 1789 H 167.627 2.30444 5.01597 0
M  V30 1790 H 168.104 0.754564 4.3267 0
M  V30 1791 H 168.71 2.26152 3.60188 0
M  V30 1792 N 167.025 -1.13721 1.09112 0
M  V30 1793 C 167.935 -2.22638 0.73957 0
M  V30 1794 C 168.951 -1.72091 -0.257068 0
M  V30 1795 O 170.127 -2.01155 -0.0992154 0
M  V30 1796 C 167.192 -3.46322 0.16191 0
M  V30 1797 C 166.253 -4.11775 1.21408 0
M  V30 1798 C 165.486 -5.29555 0.663891 0
M  V30 1799 O 165.709 -5.68077 -0.514274 0
M  V30 1800 O 164.643 -5.84973 1.41738 0
M  V30 1801 H 168.469 -2.55074 1.64836 0
M  V30 1802 H 166.054 -1.21791 0.865289 0
M  V30 1803 H 167.936 -4.21107 -0.157073 0
M  V30 1804 H 166.611 -3.15593 -0.719932 0
M  V30 1805 H 165.518 -3.3883 1.58571 0
M  V30 1806 H 166.851 -4.46627 2.06845 0
M  V30 1807 N 168.503 -0.877838 -1.30888 0
M  V30 1808 C 169.914 -0.544193 -1.78593 0
M  V30 1809 C 170.265 0.939301 -1.72254 0
M  V30 1810 O 169.39 1.7337 -1.29505 0
M  V30 1811 C 169.985 -0.98105 -3.24285 0
M  V30 1812 C 168.544 -0.698935 -3.69854 0
M  V30 1813 C 167.691 -1.168 -2.51502 0
M  V30 1814 H 170.642 -1.06278 -1.17859 0
M  V30 1815 H 170.663 -0.307009 -3.79259 0
M  V30 1816 H 170.175 -2.06079 -3.28866 0
M  V30 1817 H 168.276 0.369112 -3.70767 0
M  V30 1818 H 168.389 -1.28148 -4.61644 0
M  V30 1819 H 166.753 -0.587535 -2.47831 0
M  V30 1820 H 167.536 -2.25533 -2.58824 0
M  V30 1821 N 169.982 1.44106 -0.638065 0
M  V30 1822 C 171.393 1.85316 -0.226894 0
M  V30 1823 C 171.744 1.53399 1.22324 0
M  V30 1824 O 170.869 0.975463 1.93167 0
M  V30 1825 C 171.464 3.3637 -0.405013 0
M  V30 1826 C 170.023 3.76369 -0.0482902 0
M  V30 1827 C 169.17 2.67921 -0.715108 0
M  V30 1828 H 172.121 1.34474 -0.842764 0
M  V30 1829 H 172.142 3.7885 0.354 0
M  V30 1830 H 171.654 3.59569 -1.46053 0
M  V30 1831 H 169.755 3.58784 1.00522 0
M  V30 1832 H 169.868 4.76856 -0.463187 0
M  V30 1833 H 168.232 2.54259 -0.149753 0
M  V30 1834 H 169.015 2.93951 -1.77335 0
M  V30 1835 N 171.46 0.379036 1.52974 0
M  V30 1836 C 172.39 -0.452706 2.29069 0
M  V30 1837 C 173.371 -1.07237 1.32039 0
M  V30 1838 O 174.556 -1.08708 1.60923 0
M  V30 1839 C 171.686 -1.5856 3.08992 0
M  V30 1840 C 170.64 -1.0925 4.13822 0
M  V30 1841 C 169.966 -2.31668 4.81907 0
M  V30 1842 C 171.266 -0.167702 5.22031 0
M  V30 1843 H 172.96 0.182181 2.98845 0
M  V30 1844 H 170.506 0.0890592 1.43724 0
M  V30 1845 H 172.459 -2.1742 3.6098 0
M  V30 1846 H 171.183 -2.24792 2.36931 0
M  V30 1847 H 169.842 -0.526494 3.628 0
M  V30 1848 H 169.49 -2.96386 4.06404 0
M  V30 1849 H 169.19 -1.9934 5.52754 0
M  V30 1850 H 170.714 -2.91189 5.36695 0
M  V30 1851 H 172.128 -0.664186 5.6944 0
M  V30 1852 H 170.525 0.0653265 6.00064 0
M  V30 1853 H 171.595 0.786347 4.78482 0
M  V30 1854 N 172.938 -1.57226 0.108567 0
M  V30 1855 C 173.886 -2.16002 -0.862885 0
M  V30 1856 C 174.88 -1.10644 -1.28274 0
M  V30 1857 O 176.086 -1.28966 -1.2557 0
M  V30 1858 H 172.461 -0.691148 -0.296342 0
M  V30 1859 H 174.432 -2.96427 -0.342575 0
M  V30 1860 C 173.181 -2.76576 -2.10716 0
M  V30 1861 H 172.504 -3.5734 -1.793 0
M  V30 1862 H 173.944 -3.21253 -2.76717 0
M  V30 1863 C 172.403 -1.73137 -2.89007 0
M  V30 1864 O 172.933 -1.17842 -3.84026 0
M  V30 1865 N 171.139 -1.43317 -2.52801 0
M  V30 1866 H 170.686 -1.88473 -1.75601 0
M  V30 1867 H 170.644 -0.743485 -3.05483 0
M  V30 1868 N 174.416 0.165178 -1.56732 0
M  V30 1869 C 175.644 0.896218 -1.86482 0
M  V30 1870 C 176.059 1.75555 -0.694675 0
M  V30 1871 O 175.416 1.79379 0.33607 0
M  V30 1872 C 175.467 1.76792 -3.1532 0
M  V30 1873 O 175.188 0.943239 -4.27825 0
M  V30 1874 C 176.689 2.6081 -3.58459 0
M  V30 1875 H 173.909 0.260064 -0.618553 0
M  V30 1876 H 176.453 0.163428 -2.03846 0
M  V30 1877 H 174.608 2.45398 -2.99764 0
M  V30 1878 H 175.022 1.53998 -5.01383 0
M  V30 1879 H 176.496 3.17579 -4.51495 0
M  V30 1880 H 176.973 3.35977 -2.82872 0
M  V30 1881 H 177.579 1.97526 -3.76648 0
M  V30 1882 N 175.894 1.51508 0.433938 0
M  V30 1883 C 177.305 1.56784 1.01369 0
M  V30 1884 C 177.656 0.393349 1.92217 0
M  V30 1885 O 176.781 -0.489441 2.10792 0
M  V30 1886 C 177.376 2.84144 1.8452 0
M  V30 1887 C 175.935 2.9198 2.37539 0
M  V30 1888 C 175.082 2.51482 1.16843 0
M  V30 1889 H 178.033 1.57236 0.215081 0
M  V30 1890 H 178.054 2.68098 2.70007 0
M  V30 1891 H 177.566 3.69607 1.18373 0
M  V30 1892 H 175.667 2.10955 3.0713 0
M  V30 1893 H 175.78 3.95704 2.70103 0
M  V30 1894 H 174.144 2.04758 1.51481 0
M  V30 1895 H 174.927 3.39293 0.523015 0
M  V30 1896 N 177.372 -0.689602 1.41712 0
M  V30 1897 C 178.282 -1.83314 1.46401 0
M  V30 1898 C 179.298 -1.7036 0.35405 0
M  V30 1899 O 180.474 -1.92171 0.602692 0
M  V30 1900 C 177.539 -3.19344 1.34982 0
M  V30 1901 C 176.6 -3.44363 2.56344 0
M  V30 1902 C 175.833 -4.73904 2.45461 0
M  V30 1903 O 176.056 -5.508 1.48241 0
M  V30 1904 O 174.99 -4.99839 3.35328 0
M  V30 1905 H 178.816 -1.82314 2.42889 0
M  V30 1906 H 176.401 -0.843438 1.23315 0
M  V30 1907 H 178.283 -4.00547 1.3092 0
M  V30 1908 H 176.958 -3.21014 0.41612 0
M  V30 1909 H 175.865 -2.63067 2.65982 0
M  V30 1910 H 177.198 -3.47512 3.48563 0
M  V30 1911 N 178.85 -1.27639 -0.924453 0
M  V30 1912 C 179.798 -1.10485 -2.04685 0
M  V30 1913 C 180.792 -0.0270421 -1.69378 0
M  V30 1914 O 181.998 -0.185008 -1.79047 0
M  V30 1915 H 178.373 -0.340546 -0.670472 0
M  V30 1916 H 180.344 -2.05566 -2.16298 0
M  V30 1917 C 179.093 -0.772229 -3.39016 0
M  V30 1918 H 178.416 -1.59351 -3.66671 0
M  V30 1919 H 179.856 -0.692097 -4.18313 0
M  V30 1920 C 178.315 0.523554 -3.32807 0
M  V30 1921 O 178.845 1.55702 -3.70297 0
M  V30 1922 N 177.051 0.520363 -2.85903 0
M  V30 1923 H 176.598 -0.32107 -2.55591 0
M  V30 1924 H 176.556 1.38742 -2.82131 0
M  V30 1925 N 180.328 1.1314 -1.09713 0
M  V30 1926 C 181.744 1.36477 -0.827423 0
M  V30 1927 C 181.944 1.93654 0.556817 0
M  V30 1928 O 181 2.15791 1.31112 0
M  V30 1929 C 182.313 2.31334 -1.92106 0
M  V30 1930 C 183.861 2.44943 -1.94864 0
M  V30 1931 C 184.336 3.4311 -3.0338 0
M  V30 1932 N 185.827 3.50662 -3.02639 0
M  V30 1933 C 186.562 4.2651 -3.83246 0
M  V30 1934 N 186.058 5.05485 -4.73768 0
M  V30 1935 N 187.851 4.2184 -3.71493 0
M  V30 1936 H 180.002 0.743807 -1.9895 0
M  V30 1937 H 182.265 0.389823 -0.864143 0
M  V30 1938 H 181.971 1.96483 -2.91698 0
M  V30 1939 H 181.845 3.31381 -1.80184 0
M  V30 1940 H 184.232 2.79079 -0.959099 0
M  V30 1941 H 184.313 1.4481 -2.10864 0
M  V30 1942 H 183.957 3.09704 -4.02549 0
M  V30 1943 H 183.887 4.43055 -2.84622 0
M  V30 1944 H 186.378 2.94315 -2.37039 0
M  V30 1945 H 186.691 5.60675 -5.3185 0
M  V30 1946 H 185.036 5.04708 -4.77802 0
M  V30 1947 H 188.227 3.5922 -3.00131 0
M  V30 1948 H 188.4 4.80697 -4.3455 0
M  V30 1949 N 181.806 0.884767 1.30421 0
M  V30 1950 C 182.716 0.355398 2.31892 0
M  V30 1951 C 183.732 -0.542261 1.65335 0
M  V30 1952 O 184.908 -0.435432 1.96637 0
M  V30 1953 C 181.973 -0.421661 3.44126 0
M  V30 1954 C 181.034 0.505727 4.26311 0
M  V30 1955 C 180.267 -0.234343 5.33185 0
M  V30 1956 O 180.49 -1.46045 5.51386 0
M  V30 1957 O 179.424 0.415443 6.00465 0
M  V30 1958 H 183.25 1.19685 2.79122 0
M  V30 1959 H 180.835 0.648596 1.34587 0
M  V30 1960 H 182.717 -0.861641 4.12497 0
M  V30 1961 H 181.392 -1.23942 2.99032 0
M  V30 1962 H 180.299 0.994513 3.60639 0
M  V30 1963 H 181.632 1.28948 4.75009 0
M  V30 1964 N 183.284 -1.43765 0.645699 0
M  V30 1965 C 184.514 -2.05953 0.163318 0
M  V30 1966 C 184.922 -1.48432 -1.17322 0
M  V30 1967 O 184.265 -0.607295 -1.73371 0
M  V30 1968 C 184.327 -3.59499 -0.0103065 0
M  V30 1969 C 183.991 -4.39563 1.25035 0
M  V30 1970 C 184.988 -4.72108 2.17739 0
M  V30 1971 C 182.673 -4.79697 1.48983 0
M  V30 1972 C 184.667 -5.43688 3.3269 0
M  V30 1973 C 182.354 -5.51023 2.64229 0
M  V30 1974 C 183.352 -5.8294 3.55908 0
M  V30 1975 O 183.04 -6.5281 4.69142 0
M  V30 1976 H 182.772 -0.670798 0.0836986 0
M  V30 1977 H 185.326 -1.85384 0.884407 0
M  V30 1978 H 183.556 -3.78613 -0.78669 0
M  V30 1979 H 185.245 -4.03408 -0.449087 0
M  V30 1980 H 186.011 -4.41627 2.00476 0
M  V30 1981 H 181.89 -4.54266 0.785078 0
M  V30 1982 H 185.434 -5.68517 4.04269 0
M  V30 1983 H 181.331 -5.8092 2.81429 0
M  V30 1984 H 182.099 -6.71288 4.6831 0
M  V30 1985 N 184.763 -0.387143 -1.52771 0
M  V30 1986 C 185.991 0.195869 -2.05971 0
M  V30 1987 C 186.406 1.40691 -1.25903 0
M  V30 1988 O 185.763 1.79931 -0.305134 0
M  V30 1989 C 185.814 0.56812 -3.57008 0
M  V30 1990 O 185.535 -0.594803 -4.34043 0
M  V30 1991 C 187.036 1.20723 -4.26545 0
M  V30 1992 H 184.256 0.0300578 -0.670326 0
M  V30 1993 H 186.8 -0.551749 -1.96916 0
M  V30 1994 H 184.955 1.26564 -3.66143 0
M  V30 1995 H 185.369 -0.289322 -5.23701 0
M  V30 1996 H 186.843 1.41807 -5.33474 0
M  V30 1997 H 187.32 2.17395 -3.81623 0
M  V30 1998 H 187.926 0.550535 -4.21722 0
M  V30 1999 N 186.241 1.57166 -0.116904 0
M  V30 2000 C 187.204 2.14039 0.819742 0
M  V30 2001 C 188.204 1.07477 1.19605 0
M  V30 2002 O 189.394 1.33263 1.1219 0
M  V30 2003 C 186.526 2.67891 2.10826 0
M  V30 2004 H 187.719 2.98128 0.325511 0
M  V30 2005 H 185.272 1.55739 0.132312 0
M  V30 2006 H 186.007 1.87384 2.64685 0
M  V30 2007 H 185.792 3.45823 1.84793 0
M  V30 2008 H 187.282 3.11809 2.77785 0
M  V30 2009 N 187.719 -0.156864 1.56817 0
M  V30 2010 C 188.629 -1.2136 2.00771 0
M  V30 2011 C 189.645 -1.47598 0.921459 0
M  V30 2012 O 190.821 -1.59462 1.2302 0
M  V30 2013 C 187.886 -2.52943 2.37109 0
M  V30 2014 C 186.947 -2.34439 3.59634 0
M  V30 2015 C 186.18 -3.59748 3.94229 0
M  V30 2016 O 186.403 -4.65526 3.29609 0
M  V30 2017 O 185.337 -3.52998 4.8752 0
M  V30 2018 H 189.163 -0.870468 2.90958 0
M  V30 2019 H 186.748 -0.36484 1.44877 0
M  V30 2020 H 188.63 -3.30538 2.61386 0
M  V30 2021 H 187.305 -2.86806 1.5008 0
M  V30 2022 H 186.212 -1.54828 3.40557 0
M  V30 2023 H 187.545 -2.05496 4.4725 0
M  V30 2024 N 189.197 -1.51736 -0.425897 0
M  V30 2025 C 190.446 -1.64201 -1.17136 0
M  V30 2026 C 190.759 -0.369705 -1.92074 0
M  V30 2027 O 191.965 -0.373898 -2.68913 0
M  V30 2028 C 190.421 -2.90035 -2.13091 0
M  V30 2029 C 190.029 -4.24312 -1.43747 0
M  V30 2030 C 191.773 -3.1186 -2.87999 0
M  V30 2031 C 189.68 -5.41285 -2.38253 0
M  V30 2032 H 188.61 -0.611624 -0.440944 0
M  V30 2033 H 191.261 -1.78212 -0.437328 0
M  V30 2034 H 189.643 -2.69684 -2.89977 0
M  V30 2035 H 190.817 -4.55086 -0.723408 0
M  V30 2036 H 189.132 -4.08456 -0.809465 0
M  V30 2037 H 191.729 -3.96427 -3.58817 0
M  V30 2038 H 192.072 -2.25403 -3.49999 0
M  V30 2039 H 192.605 -3.32605 -2.18217 0
M  V30 2040 H 189.344 -6.30037 -1.80925 0
M  V30 2041 H 188.864 -5.14872 -3.0768 0
M  V30 2042 H 190.543 -5.73694 -2.99139 0
M  V30 2043 N 190.675 0.682077 -1.42076 0
M  V30 2044 C 191.608 1.80666 -1.3941 0
M  V30 2045 C 192.586 1.60518 -0.25939 0
M  V30 2046 O 193.77 1.83088 -0.448456 0
M  V30 2047 C 190.897 3.17556 -1.17796 0
M  V30 2048 C 189.943 3.56468 -2.34164 0
M  V30 2049 S 190.776 3.59729 -3.96681 0
M  V30 2050 C 191.932 4.99323 -3.77395 0
M  V30 2051 H 192.165 1.82652 -2.34575 0
M  V30 2052 H 189.698 0.852062 -1.2876 0
M  V30 2053 H 191.656 3.96575 -1.06012 0
M  V30 2054 H 190.317 3.13164 -0.242279 0
M  V30 2055 H 189.51 4.5595 -2.1477 0
M  V30 2056 H 189.112 2.84792 -2.42425 0
M  V30 2057 H 191.404 5.87202 -3.37935 0
M  V30 2058 H 192.347 5.23763 -4.76527 0
M  V30 2059 H 192.755 4.71498 -3.10403 0
M  V30 2060 N 192.153 1.28127 0.917671 0
M  V30 2061 C 193.4 1.15052 1.66641 0
M  V30 2062 C 193.728 -0.301677 1.92146 0
M  V30 2063 O 192.983 -1.23622 1.51711 0
M  V30 2064 C 193.282 1.89018 3.03327 0
M  V30 2065 C 192.948 3.38832 2.97496 0
M  V30 2066 C 191.61 3.79693 2.95613 0
M  V30 2067 C 193.962 4.34378 2.88036 0
M  V30 2068 C 191.29 5.14447 2.82066 0
M  V30 2069 C 193.642 5.69201 2.7603 0
M  V30 2070 C 192.306 6.09343 2.72502 0
M  V30 2071 H 191.576 0.421006 0.609783 0
M  V30 2072 H 194.223 1.58855 1.06945 0
M  V30 2073 H 192.528 1.37752 3.66785 0
M  V30 2074 H 194.225 1.76321 3.60156 0
M  V30 2075 H 190.815 3.06342 2.99754 0
M  V30 2076 H 194.999 4.03775 2.88581 0
M  V30 2077 H 190.255 5.44681 2.77728 0
M  V30 2078 H 194.429 6.42901 2.67678 0
M  V30 2079 H 192.056 7.13712 2.61762 0
M  V30 2080 N 193.631 -1.12557 1.10312 0
M  V30 2081 C 194.541 -2.21841 0.763142 0
M  V30 2082 C 195.557 -1.72354 -0.238801 0
M  V30 2083 O 196.733 -2.01249 -0.0778746 0
M  V30 2084 C 193.798 -3.46131 0.198632 0
M  V30 2085 C 192.859 -4.10464 1.25769 0
M  V30 2086 C 192.092 -5.28821 0.72002 0
M  V30 2087 O 192.315 -5.6859 -0.453993 0
M  V30 2088 O 191.249 -5.83437 1.47935 0
M  V30 2089 H 195.075 -2.53312 1.67532 0
M  V30 2090 H 192.66 -1.20867 0.878157 0
M  V30 2091 H 194.542 -4.2125 -0.112401 0
M  V30 2092 H 193.217 -3.16338 -0.686419 0
M  V30 2093 H 192.124 -3.3713 1.62156 0
M  V30 2094 H 193.457 -4.44408 2.11571 0
M  V30 2095 N 195.109 -0.891671 -1.2995 0
M  V30 2096 C 196.334 -0.527932 -2.00568 0
M  V30 2097 C 196.759 0.877969 -1.66353 0
M  V30 2098 O 196.117 1.58301 -0.883762 0
M  V30 2099 C 196.165 -0.717745 -3.53385 0
M  V30 2100 O 195.269 0.233376 -4.11739 0
M  V30 2101 H 194.61 -0.20722 -0.630837 0
M  V30 2102 H 197.14 -1.20105 -1.65638 0
M  V30 2103 H 197.15 -0.619307 -4.03272 0
M  V30 2104 H 195.825 -1.74276 -3.77625 0
M  V30 2105 H 194.402 0.0880706 -3.72796 0
M  V30 2106 N 196.587 1.43421 -0.653314 0
M  V30 2107 C 197.834 2.01812 -0.166745 0
M  V30 2108 C 198.162 1.51535 1.21931 0
M  V30 2109 O 197.417 0.698975 1.82792 0
M  V30 2110 C 197.716 3.57176 -0.126623 0
M  V30 2111 C 197.382 4.26798 -1.45444 0
M  V30 2112 C 196.044 4.45534 -1.81805 0
M  V30 2113 C 198.396 4.66225 -2.32989 0
M  V30 2114 C 195.724 5.00961 -3.05377 0
M  V30 2115 C 198.076 5.23021 -3.55853 0
M  V30 2116 C 196.74 5.39973 -3.9241 0
M  V30 2117 H 196.01 0.738484 -0.0610162 0
M  V30 2118 H 198.657 1.71896 -0.84404 0
M  V30 2119 H 196.962 3.86634 0.634123 0
M  V30 2120 H 198.659 4.00112 0.266723 0
M  V30 2121 H 195.249 4.12561 -1.16153 0
M  V30 2122 H 199.433 4.51443 -2.06187 0
M  V30 2123 H 194.689 5.12271 -3.3375 0
M  V30 2124 H 198.863 5.52518 -4.23907 0
M  V30 2125 H 196.49 5.82687 -4.88242 0
M  V30 2126 N 198.065 0.39524 1.52563 0
M  V30 2127 C 199.013 -0.451859 2.28169 0
M  V30 2128 C 200.007 -1.05792 1.32304 0
M  V30 2129 O 201.213 -0.997718 1.49818 0
M  V30 2130 H 197.588 -0.164481 0.733792 0
M  V30 2131 H 199.559 0.207199 2.9768 0
M  V30 2132 C 198.308 -1.56385 3.10546 0
M  V30 2133 H 197.631 -1.10682 3.84174 0
M  V30 2134 H 199.071 -2.13067 3.66577 0
M  V30 2135 C 197.53 -2.52328 2.23231 0
M  V30 2136 O 198.06 -3.5588 1.86312 0
M  V30 2137 N 196.266 -2.22209 1.87274 0
M  V30 2138 H 195.813 -1.38033 2.17496 0
M  V30 2139 H 195.771 -2.86652 1.29143 0
M  V30 2140 N 199.544 -1.57102 0.125237 0
M  V30 2141 C 200.79 -1.95697 -0.532035 0
M  V30 2142 C 201.123 -1.009 -1.6593 0
M  V30 2143 O 200.398 -0.047347 -1.94442 0
M  V30 2144 C 200.681 -3.44181 -1.05884 0
M  V30 2145 C 200.534 -4.49752 0.0654392 0
M  V30 2146 C 201.853 -3.94655 -1.9477 0
M  V30 2147 H 198.972 -0.711571 -0.191925 0
M  V30 2148 H 201.614 -1.88923 0.20206 0
M  V30 2149 H 199.764 -3.50085 -1.68442 0
M  V30 2150 H 201.436 -4.55943 0.700982 0
M  V30 2151 H 199.679 -4.27653 0.727709 0
M  V30 2152 H 200.35 -5.50924 -0.344505 0
M  V30 2153 H 202.826 -3.91094 -1.42074 0
M  V30 2154 H 201.702 -4.99057 -2.28546 0
M  V30 2155 H 201.963 -3.35718 -2.87656 0
M  V30 2156 N 201.022 0.148545 -1.56898 0
M  V30 2157 C 202.433 0.708766 -1.72723 0
M  V30 2158 C 202.784 1.81734 -0.739395 0
M  V30 2159 O 201.909 2.16194 0.0943169 0
M  V30 2160 C 202.504 1.29245 -3.13179 0
M  V30 2161 C 201.063 1.79925 -3.30611 0
M  V30 2162 C 200.21 0.687111 -2.68652 0
M  V30 2163 H 203.161 -0.0771063 -1.58513 0
M  V30 2164 H 203.182 2.16224 -3.13093 0
M  V30 2165 H 202.694 0.485382 -3.85053 0
M  V30 2166 H 200.795 2.63203 -2.63732 0
M  V30 2167 H 200.908 1.92903 -4.38549 0
M  V30 2168 H 199.272 1.11335 -2.29078 0
M  V30 2169 H 200.055 -0.108483 -3.43129 0
M  V30 2170 N 202.5 1.5196 0.417844 0
M  V30 2171 C 203.748 1.65263 1.16329 0
M  V30 2172 C 204.069 0.380634 1.91249 0
M  V30 2173 O 203.339 -0.604214 1.86349 0
M  V30 2174 H 201.919 0.60912 0.432414 0
M  V30 2175 H 204.581 1.88969 0.477162 0
M  V30 2176 H 203.677 2.4896 1.88217 0
M  V30 2177 N 203.978 -0.674533 1.42435 0
M  V30 2178 C 204.908 -1.80009 1.48724 0
M  V30 2179 C 205.889 -1.6659 0.343793 0
M  V30 2180 O 207.074 -1.86007 0.558137 0
M  V30 2181 C 204.204 -3.18306 1.38919 0
M  V30 2182 C 203.158 -3.46461 2.51294 0
M  V30 2183 C 202.484 -4.84335 2.26547 0
M  V30 2184 C 203.784 -3.43328 3.93603 0
M  V30 2185 H 205.478 -1.75004 2.42928 0
M  V30 2186 H 203.024 -0.840533 1.16923 0
M  V30 2187 H 204.977 -3.9678 1.41927 0
M  V30 2188 H 203.701 -3.2399 0.412094 0
M  V30 2189 H 202.36 -2.70348 2.47604 0
M  V30 2190 H 202.008 -4.86669 1.2713 0
M  V30 2191 H 201.708 -5.04136 3.01861 0
M  V30 2192 H 203.232 -5.65094 2.31304 0
M  V30 2193 H 204.646 -4.11772 3.98894 0
M  V30 2194 H 203.043 -3.74664 4.68771 0
M  V30 2195 H 204.113 -2.41897 4.20255 0
M  V30 2196 N 205.456 -1.28612 -0.910864 0
M  V30 2197 C 206.686 -1.1862 -1.69153 0
M  V30 2198 C 207.094 0.257324 -1.87442 0
M  V30 2199 O 206.437 1.18543 -1.40332 0
M  V30 2200 C 206.499 -1.81606 -3.10257 0
M  V30 2201 C 206.163 -3.30864 -3.15243 0
M  V30 2202 C 207.16 -4.27256 -2.96223 0
M  V30 2203 C 204.845 -3.71871 -3.37664 0
M  V30 2204 C 206.839 -5.62631 -2.99541 0
M  V30 2205 C 204.526 -5.07371 -3.40614 0
M  V30 2206 C 205.524 -6.02561 -3.21573 0
M  V30 2207 O 205.212 -7.35589 -3.2429 0
M  V30 2208 H 204.944 -0.412633 -0.535453 0
M  V30 2209 H 207.498 -1.70306 -1.14827 0
M  V30 2210 H 205.728 -1.24418 -3.66138 0
M  V30 2211 H 207.417 -1.66092 -3.70362 0
M  V30 2212 H 208.183 -3.9691 -2.78725 0
M  V30 2213 H 204.062 -2.98241 -3.5153 0
M  V30 2214 H 207.606 -6.36907 -2.84597 0
M  V30 2215 H 203.503 -5.37366 -3.57642 0
M  V30 2216 H 204.271 -7.44252 -3.40633 0
M  V30 2217 N 206.934 1.1197 -1.10907 0
M  V30 2218 C 208.183 1.82947 -0.849302 0
M  V30 2219 C 208.496 1.85275 0.627112 0
M  V30 2220 O 209.702 2.52296 1.00295 0
M  V30 2221 C 208.158 3.28529 -1.46959 0
M  V30 2222 C 207.766 3.34546 -2.97965 0
M  V30 2223 C 209.51 4.04443 -1.28942 0
M  V30 2224 C 207.417 4.74491 -3.53004 0
M  V30 2225 H 206.347 0.685477 -0.314065 0
M  V30 2226 H 208.998 1.2604 -1.33365 0
M  V30 2227 H 207.38 3.85333 -0.912917 0
M  V30 2228 H 208.554 2.87654 -3.59989 0
M  V30 2229 H 206.869 2.72108 -3.15192 0
M  V30 2230 H 209.466 5.07787 -1.67502 0
M  V30 2231 H 209.809 4.15656 -0.231456 0
M  V30 2232 H 210.342 3.5401 -1.81443 0
M  V30 2233 H 207.081 4.68474 -4.58489 0
M  V30 2234 H 206.601 5.21816 -2.9575 0
M  V30 2235 H 208.28 5.4344 -3.51115 0
M  V30 2236 N 208.412 0.89855 1.29475 0
M  V30 2237 C 209.375 0.380272 2.26023 0
M  V30 2238 C 210.375 -0.484891 1.53315 0
M  V30 2239 O 211.565 -0.290108 1.71767 0
M  V30 2240 C 208.697 -0.45651 3.3783 0
M  V30 2241 H 209.89 1.23295 2.73383 0
M  V30 2242 H 207.443 0.676589 1.40897 0
M  V30 2243 H 208.178 -1.32922 2.95808 0
M  V30 2244 H 207.963 0.163393 3.91759 0
M  V30 2245 H 209.453 -0.810466 4.0966 0
M  V30 2246 N 209.89 -1.43072 0.660911 0
M  V30 2247 C 211.136 -2.0202 0.177708 0
M  V30 2248 C 211.469 -1.52066 -1.20787 0
M  V30 2249 O 210.744 -0.716987 -1.80802 0
M  V30 2250 C 211.027 -3.59561 0.197019 0
M  V30 2251 C 210.88 -4.19727 1.61706 0
M  V30 2252 C 212.199 -4.37664 -0.462396 0
M  V30 2253 H 209.318 -0.734034 0.0660494 0
M  V30 2254 H 211.96 -1.70272 0.843058 0
M  V30 2255 H 210.11 -3.86739 -0.369527 0
M  V30 2256 H 211.782 -4.03553 2.23479 0
M  V30 2257 H 210.025 -3.76084 2.16201 0
M  V30 2258 H 210.696 -5.28834 1.58237 0
M  V30 2259 H 213.172 -4.16095 0.0197215 0
M  V30 2260 H 212.048 -5.47305 -0.418188 0
M  V30 2261 H 212.309 -4.14493 -1.53778 0
M  V30 2262 N 211.368 -0.403325 -1.52352 0
M  V30 2263 C 212.3 0.4603 -2.2453 0
M  V30 2264 C 213.313 1.01505 -1.27282 0
M  V30 2265 O 214.502 0.914982 -1.53266 0
M  V30 2266 C 211.602 1.65208 -2.95905 0
M  V30 2267 C 210.775 1.22224 -4.19976 0
M  V30 2268 C 209.834 2.28028 -4.74226 0
M  V30 2269 O 208.86 1.88857 -5.36956 0
M  V30 2270 N 210.062 3.6012 -4.55295 0
M  V30 2271 H 212.827 -0.158156 -2.99282 0
M  V30 2272 H 210.388 -0.230402 -1.60252 0
M  V30 2273 H 212.38 2.35541 -3.29093 0
M  V30 2274 H 210.95 2.17658 -2.24374 0
M  V30 2275 H 210.17 0.34725 -3.92668 0
M  V30 2276 H 211.458 0.911924 -5.00561 0
M  V30 2277 H 210.856 3.94698 -4.05253 0
M  V30 2278 H 209.413 4.26447 -4.92936 0
M  V30 2279 N 212.846 1.57033 -0.133567 0
M  V30 2280 C 213.809 2.14897 0.796995 0
M  V30 2281 C 214.809 1.0874 1.18458 0
M  V30 2282 O 215.999 1.34446 1.1077 0
M  V30 2283 C 213.131 2.70112 2.07973 0
M  V30 2284 H 214.324 2.98457 0.293873 0
M  V30 2285 H 211.877 1.55871 0.115787 0
M  V30 2286 H 212.612 1.9018 2.62682 0
M  V30 2287 H 212.397 3.47764 1.81115 0
M  V30 2288 H 213.887 3.14738 2.74462 0
M  V30 2289 N 214.325 -0.140222 1.56975 0
M  V30 2290 C 215.571 -0.852949 1.83991 0
M  V30 2291 C 215.904 -1.80512 0.716187 0
M  V30 2292 O 215.179 -1.92479 -0.279681 0
M  V30 2293 C 215.462 -1.6215 3.21527 0
M  V30 2294 C 215.315 -0.690363 4.4447 0
M  V30 2295 C 216.634 -2.58247 3.56366 0
M  V30 2296 H 213.753 -0.308634 0.669264 0
M  V30 2297 H 216.395 -0.117898 1.89634 0
M  V30 2298 H 214.545 -2.24812 3.16847 0
M  V30 2299 H 216.217 -0.0742264 4.6124 0
M  V30 2300 H 214.46 -0.000396433 4.338 0
M  V30 2301 H 215.131 -1.2643 5.37326 0
M  V30 2302 H 217.607 -2.05701 3.61699 0
M  V30 2303 H 216.483 -3.09067 4.53617 0
M  V30 2304 H 216.744 -3.39923 2.82674 0
M  V30 2305 N 215.803 -1.52179 -0.40978 0
M  V30 2306 C 216.733 -1.78435 -1.5061 0
M  V30 2307 C 217.714 -0.635295 -1.57791 0
M  V30 2308 O 218.899 -0.880823 -1.73076 0
M  V30 2309 C 216.029 -1.93444 -2.88439 0
M  V30 2310 C 214.983 -3.09038 -2.96108 0
M  V30 2311 C 214.309 -3.09268 -4.36185 0
M  V30 2312 C 215.609 -4.48508 -2.67652 0
M  V30 2313 H 217.303 -2.70237 -1.28889 0
M  V30 2314 H 214.849 -1.30036 -0.618605 0
M  V30 2315 H 216.802 -2.10394 -3.65119 0
M  V30 2316 H 215.526 -0.983129 -3.11452 0
M  V30 2317 H 214.185 -2.91837 -2.21872 0
M  V30 2318 H 213.833 -2.11861 -4.56206 0
M  V30 2319 H 213.533 -3.86907 -4.42241 0
M  V30 2320 H 215.057 -3.28348 -5.14801 0
M  V30 2321 H 216.471 -4.65918 -3.34056 0
M  V30 2322 H 214.868 -5.28059 -2.85085 0
M  V30 2323 H 215.938 -4.56649 -1.63095 0
M  V30 2324 N 217.281 0.66697 -1.42791 0
M  V30 2325 C 218.244 1.76211 -1.46568 0
M  V30 2326 C 219.244 1.56896 -0.352196 0
M  V30 2327 O 220.434 1.63044 -0.613364 0
M  V30 2328 C 217.566 3.14935 -1.30494 0
M  V30 2329 H 218.759 1.74247 -2.44086 0
M  V30 2330 H 216.312 0.877342 -1.29354 0
M  V30 2331 H 217.047 3.2252 -0.339301 0
M  V30 2332 H 216.832 3.30359 -2.11199 0
M  V30 2333 H 218.322 3.94821 -1.36038 0
M  V30 2334 N 218.759 1.29093 0.90403 0
M  V30 2335 C 219.689 1.16401 2.02418 0
M  V30 2336 C 220.67 0.0593085 1.69997 0
M  V30 2337 O 221.855 0.238021 1.92736 0
M  V30 2338 C 218.985 0.835233 3.37107 0
M  V30 2339 C 217.939 1.89578 3.83724 0
M  V30 2340 C 217.265 1.42041 5.15489 0
M  V30 2341 C 218.565 3.30394 4.04521 0
M  V30 2342 H 220.259 2.10109 2.13295 0
M  V30 2343 H 217.805 1.01157 1.02486 0
M  V30 2344 H 219.758 0.733169 4.14973 0
M  V30 2345 H 218.482 -0.137543 3.2631 0
M  V30 2346 H 217.141 1.98715 3.08071 0
M  V30 2347 H 216.789 0.436426 5.01103 0
M  V30 2348 H 216.489 2.12964 5.4765 0
M  V30 2349 H 218.013 1.33176 5.959 0
M  V30 2350 H 219.427 3.24123 4.72882 0
M  V30 2351 H 217.824 3.99237 4.48029 0
M  V30 2352 H 218.894 3.73692 3.09002 0
M  V30 2353 N 220.237 -1.11381 1.11499 0
M  V30 2354 C 221.2 -2.15622 0.777153 0
M  V30 2355 C 222.2 -1.59504 -0.203779 0
M  V30 2356 O 223.39 -1.74188 0.020782 0
M  V30 2357 C 220.522 -3.40556 0.153116 0
M  V30 2358 H 221.715 -2.47021 1.70061 0
M  V30 2359 H 219.268 -1.26577 0.916952 0
M  V30 2360 H 220.003 -3.14767 -0.780536 0
M  V30 2361 H 219.788 -3.8257 0.859238 0
M  V30 2362 H 221.278 -4.17546 -0.0671044 0
M  V30 2363 N 221.715 -0.905404 -1.28997 0
M  V30 2364 C 222.678 -0.392253 -2.25819 0
M  V30 2365 C 223.678 0.476753 -1.5357 0
M  V30 2366 O 224.868 0.280994 -1.71919 0
M  V30 2367 C 222 0.438588 -3.38067 0
M  V30 2368 H 223.193 -1.24743 -2.72725 0
M  V30 2369 H 220.746 -0.684051 -1.40536 0
M  V30 2370 H 221.481 1.31352 -2.96508 0
M  V30 2371 H 221.266 -0.184167 -3.91667 0
M  V30 2372 H 222.756 0.78873 -4.10084 0
M  V30 2373 N 223.193 1.4272 -0.668489 0
M  V30 2374 C 224.418 2.06484 -0.194758 0
M  V30 2375 C 224.843 1.49862 1.13679 0
M  V30 2376 O 224.201 0.614582 1.70565 0
M  V30 2377 C 224.249 3.60353 -0.133546 0
M  V30 2378 O 223.353 4.02464 0.899806 0
M  V30 2379 H 222.694 0.656137 -0.10188 0
M  V30 2380 H 225.224 1.82964 -0.915722 0
M  V30 2381 H 225.234 4.07976 0.0447041 0
M  V30 2382 H 223.909 4.00938 -1.1055 0
M  V30 2383 H 222.486 3.66402 0.693109 0
M  V30 2384 N 224.671 0.411399 1.52136 0
M  V30 2385 C 225.917 -0.156262 2.02799 0
M  V30 2386 C 226.272 -1.42613 1.29149 0
M  V30 2387 O 225.565 -1.87592 0.389839 0
M  V30 2388 C 225.759 -0.455872 3.54481 0
M  V30 2389 C 225.588 0.783404 4.42824 0
M  V30 2390 C 224.358 1.30928 4.88043 0
M  V30 2391 C 226.556 1.66217 4.86699 0
M  V30 2392 N 224.538 2.5038 5.6052 0
M  V30 2393 C 225.909 2.70292 5.5798 0
M  V30 2394 C 227.964 1.67966 4.68713 0
M  V30 2395 C 226.667 3.7603 6.13184 0
M  V30 2396 C 228.693 2.72624 5.24815 0
M  V30 2397 C 228.055 3.7542 5.9602 0
M  V30 2398 H 224.154 -0.0186886 0.781777 0
M  V30 2399 H 226.738 0.566255 1.86284 0
M  V30 2400 H 224.909 -1.14743 3.71064 0
M  V30 2401 H 226.641 -1.01261 3.91827 0
M  V30 2402 H 223.396 0.866977 4.65597 0
M  V30 2403 H 223.82 3.10881 6.014 0
M  V30 2404 H 228.462 0.898312 4.13147 0
M  V30 2405 H 226.18 4.55019 6.6782 0
M  V30 2406 H 229.766 2.74887 5.12765 0
M  V30 2407 H 228.646 4.55073 6.38654 0
M  V30 2408 N 226.149 -1.5696 0.141893 0
M  V30 2409 C 227.377 -2.00322 -0.517579 0
M  V30 2410 C 227.792 -1.02193 -1.58752 0
M  V30 2411 O 227.149 -0.0181619 -1.82491 0
M  V30 2412 C 227.2 -3.43618 -1.12289 0
M  V30 2413 O 226.921 -4.37995 -0.0956929 0
M  V30 2414 C 228.422 -4.02231 -1.86347 0
M  V30 2415 H 225.642 -0.657243 -0.135177 0
M  V30 2416 H 228.186 -2.03146 0.234973 0
M  V30 2417 H 226.341 -3.41662 -1.82609 0
M  V30 2418 H 226.755 -5.21729 -0.538469 0
M  V30 2419 H 228.229 -5.04509 -2.23997 0
M  V30 2420 H 228.706 -3.42655 -2.74744 0
M  V30 2421 H 229.312 -4.07802 -1.20737 0
M  V30 2422 N 227.627 0.131896 -1.57047 0
M  V30 2423 C 228.852 0.860418 -1.8871 0
M  V30 2424 C 229.277 1.73251 -0.73251 0
M  V30 2425 O 228.635 1.785 0.317429 0
M  V30 2426 C 228.683 1.68047 -3.19049 0
M  V30 2427 O 227.787 2.7862 -3.04047 0
M  V30 2428 H 227.128 0.238743 -0.619595 0
M  V30 2429 H 229.658 0.118169 -2.04258 0
M  V30 2430 H 229.668 2.07238 -3.51449 0
M  V30 2431 H 228.343 1.04018 -4.02682 0
M  V30 2432 H 226.92 2.42726 -2.83088 0
M  V30 2433 N 229.106 1.52395 0.401703 0
M  V30 2434 C 230.522 1.41363 0.740864 0
M  V30 2435 C 230.722 0.523982 1.94568 0
M  V30 2436 O 229.778 -0.00741204 2.52499 0
M  V30 2437 C 231.091 2.84011 0.987847 0
M  V30 2438 C 232.639 2.93404 1.09011 0
M  V30 2439 C 233.114 4.37036 1.3698 0
M  V30 2440 N 234.605 4.40304 1.43829 0
M  V30 2441 C 235.34 5.48508 1.67112 0
M  V30 2442 N 234.836 6.66819 1.87949 0
M  V30 2443 N 236.629 5.36034 1.69187 0
M  V30 2444 H 228.78 2.08765 -0.391262 0
M  V30 2445 H 231.043 0.941265 -0.112798 0
M  V30 2446 H 230.749 3.51265 0.174835 0
M  V30 2447 H 230.623 3.25502 1.906 0
M  V30 2448 H 233.01 2.26325 1.8937 0
M  V30 2449 H 233.091 2.55359 0.15015 0
M  V30 2450 H 232.735 5.04676 0.571353 0
M  V30 2451 H 232.665 4.72623 2.3224 0
M  V30 2452 H 235.156 3.55024 1.29486 0
M  V30 2453 H 235.469 7.45063 2.05185 0
M  V30 2454 H 233.814 6.6987 1.85199 0
M  V30 2455 H 237.005 4.42579 1.52451 0
M  V30 2456 H 237.178 6.20434 1.86993 0
M  V30 2457 N 230.584 -0.659388 1.43143 0
M  V30 2458 C 231.516 -1.7849 1.43784 0
M  V30 2459 C 232.529 -1.5932 0.334787 0
M  V30 2460 O 233.718 -1.68155 0.598842 0
M  V30 2461 C 230.818 -3.15828 1.22906 0
M  V30 2462 C 229.991 -3.61711 2.45934 0
M  V30 2463 C 229.05 -4.77831 2.20371 0
M  V30 2464 O 228.076 -4.87586 2.93681 0
M  V30 2465 N 229.278 -5.67611 1.21647 0
M  V30 2466 H 232.043 -1.7842 2.40803 0
M  V30 2467 H 229.604 -0.84302 1.3822 0
M  V30 2468 H 231.596 -3.91189 1.03697 0
M  V30 2469 H 230.166 -3.10707 0.343542 0
M  V30 2470 H 229.386 -2.76861 2.80609 0
M  V30 2471 H 230.674 -3.89112 3.27825 0
M  V30 2472 H 230.072 -5.62397 0.610449 0
M  V30 2473 H 228.629 -6.42719 1.08423 0
M  V30 2474 N 232.062 -1.29571 -0.897171 0
M  V30 2475 C 233.308 -1.17863 -1.65034 0
M  V30 2476 C 233.641 0.268729 -1.92332 0
M  V30 2477 O 232.916 1.19378 -1.53555 0
M  V30 2478 C 233.199 -1.995 -2.99786 0
M  V30 2479 C 233.052 -3.5239 -2.79538 0
M  V30 2480 C 234.371 -1.82335 -4.00552 0
M  V30 2481 H 231.49 -0.429528 -0.598895 0
M  V30 2482 H 234.132 -1.59072 -1.03905 0
M  V30 2483 H 232.282 -1.64485 -3.51962 0
M  V30 2484 H 233.954 -3.97401 -2.34244 0
M  V30 2485 H 232.197 -3.77187 -2.14273 0
M  V30 2486 H 232.868 -4.04787 -3.75302 0
M  V30 2487 H 235.344 -2.12924 -3.57495 0
M  V30 2488 H 234.22 -2.41801 -4.92771 0
M  V30 2489 H 234.481 -0.779209 -4.35179 0
M  V30 2490 N 233.54 1.10788 -1.12088 0
M  V30 2491 C 234.788 1.8231 -0.872205 0
M  V30 2492 C 235.109 1.85419 0.603709 0
M  V30 2493 O 234.379 1.32963 1.43867 0
M  V30 2494 H 232.959 0.675137 -0.319686 0
M  V30 2495 H 235.621 1.34068 -1.41463 0
M  V30 2496 H 234.717 2.85955 -1.25045 0
M  V30 2497 N 235.018 0.912232 1.28515 0
M  V30 2498 C 235.928 0.404506 2.31086 0
M  V30 2499 C 236.944 -0.50707 1.66448 0
M  V30 2500 O 238.12 -0.393624 1.97516 0
M  V30 2501 C 235.185 -0.348572 3.44943 0
M  V30 2502 C 234.246 0.59604 4.25142 0
M  V30 2503 C 233.479 -0.121194 5.33562 0
M  V30 2504 O 233.702 -1.34317 5.5436 0
M  V30 2505 O 232.636 0.542716 5.99448 0
M  V30 2506 H 236.462 1.25579 2.76521 0
M  V30 2507 H 234.047 0.676998 1.33181 0
M  V30 2508 H 235.929 -0.77395 4.14232 0
M  V30 2509 H 234.604 -1.17571 3.01594 0
M  V30 2510 H 233.511 1.07079 3.58448 0
M  V30 2511 H 234.844 1.38995 4.72167 0
M  V30 2512 N 236.496 -1.42363 0.676048 0
M  V30 2513 C 237.912 -1.55811 0.345718 0
M  V30 2514 C 238.112 -1.65544 -1.14879 0
M  V30 2515 O 237.168 -1.62306 -1.93424 0
M  V30 2516 C 238.481 -2.80746 1.07713 0
M  V30 2517 C 240.029 -2.9452 1.05958 0
M  V30 2518 C 240.504 -4.22318 1.77233 0
M  V30 2519 N 241.995 -4.29233 1.74108 0
M  V30 2520 C 242.73 -5.26935 2.26113 0
M  V30 2521 N 242.226 -6.30783 2.86505 0
M  V30 2522 N 244.019 -5.18741 2.1648 0
M  V30 2523 H 236.17 -1.34289 1.6456 0
M  V30 2524 H 238.433 -0.646506 0.69335 0
M  V30 2525 H 238.139 -2.79696 2.13221 0
M  V30 2526 H 238.013 -3.71676 0.64316 0
M  V30 2527 H 240.4 -2.95097 0.0128255 0
M  V30 2528 H 240.481 -2.04817 1.53244 0
M  V30 2529 H 240.125 -4.22502 2.81877 0
M  V30 2530 H 240.055 -5.10958 1.27396 0
M  V30 2531 H 242.546 -3.54814 1.30059 0
M  V30 2532 H 242.859 -7.01691 3.23805 0
M  V30 2533 H 241.204 -6.31341 2.90575 0
M  V30 2534 H 244.395 -4.36533 1.68987 0
M  V30 2535 H 244.568 -5.94721 2.57316 0
M  V30 2536 N 237.974 -0.419461 -1.51915 0
M  V30 2537 C 239.202 0.152136 -2.0634 0
M  V30 2538 C 239.617 1.37988 -1.28859 0
M  V30 2539 O 238.974 1.79243 -0.343232 0
M  V30 2540 C 239.025 0.492266 -3.58133 0
M  V30 2541 O 238.746 -0.686736 -4.32684 0
M  V30 2542 C 240.247 1.11648 -4.2901 0
M  V30 2543 H 237.467 0.0158325 -0.670813 0
M  V30 2544 H 240.011 -0.593394 -1.95702 0
M  V30 2545 H 238.166 1.18769 -3.68745 0
M  V30 2546 H 238.58 -0.400341 -5.2297 0
M  V30 2547 H 240.054 1.3046 -5.36362 0
M  V30 2548 H 240.531 2.09251 -3.86148 0
M  V30 2549 H 241.137 0.460958 -4.22795 0
M  V30 2550 N 239.452 1.56882 -0.150215 0
M  V30 2551 C 240.382 2.19935 0.784284 0
M  V30 2552 C 241.363 1.14854 1.25469 0
M  V30 2553 O 242.548 1.43209 1.31168 0
M  V30 2554 C 239.678 2.82349 2.02229 0
M  V30 2555 C 238.632 3.93285 1.68853 0
M  V30 2556 C 237.958 4.42649 2.99944 0
M  V30 2557 C 239.258 5.13904 0.932714 0
M  V30 2558 H 240.952 2.9828 0.258781 0
M  V30 2559 H 238.498 1.43473 0.123029 0
M  V30 2560 H 240.451 3.25126 2.68088 0
M  V30 2561 H 239.175 2.0134 2.57157 0
M  V30 2562 H 237.834 3.5113 1.05371 0
M  V30 2563 H 237.482 3.58458 3.52869 0
M  V30 2564 H 237.182 5.17476 2.78374 0
M  V30 2565 H 238.706 4.88099 3.66868 0
M  V30 2566 H 240.12 5.53506 1.49345 0
M  V30 2567 H 238.517 5.94515 0.81684 0
M  V30 2568 H 239.587 4.84842 -0.0749568 0
M  V30 2569 N 240.93 -0.123565 1.57115 0
M  V30 2570 C 242.158 -0.846461 1.88793 0
M  V30 2571 C 242.573 -1.73652 0.740976 0
M  V30 2572 O 241.93 -1.80207 -0.288393 0
M  V30 2573 C 241.981 -1.6837 3.19897 0
M  V30 2574 O 241.702 -0.829477 4.30176 0
M  V30 2575 C 243.203 -2.51214 3.65248 0
M  V30 2576 H 240.423 -0.243573 0.625231 0
M  V30 2577 H 242.967 -0.109324 2.04208 0
M  V30 2578 H 241.122 -2.37364 3.06165 0
M  V30 2579 H 241.536 -1.40651 5.0529 0
M  V30 2580 H 243.01 -3.05497 4.59756 0
M  V30 2581 H 243.487 -3.28359 2.9168 0
M  V30 2582 H 244.093 -1.8747 3.81752 0
M  V30 2583 N 242.408 -1.52605 -0.393616 0
M  V30 2584 C 243.656 -1.67093 -1.13685 0
M  V30 2585 C 243.977 -0.411011 -1.90619 0
M  V30 2586 O 243.247 0.574491 -1.87287 0
M  V30 2587 H 241.827 -0.615923 -0.422668 0
M  V30 2588 H 244.489 -1.89704 -0.447039 0
M  V30 2589 H 243.585 -2.51922 -1.84232 0
M  V30 2590 N 243.887 0.651787 -1.4349 0
M  V30 2591 C 245.115 1.43937 -1.48626 0
M  V30 2592 C 245.53 1.8851 -0.104587 0
M  V30 2593 O 244.887 1.5958 0.885464 0
M  V30 2594 C 244.938 2.6734 -2.43334 0
M  V30 2595 O 244.659 2.24631 -3.76128 0
M  V30 2596 C 246.16 3.60683 -2.57726 0
M  V30 2597 H 243.38 0.44213 -0.504739 0
M  V30 2598 H 245.924 0.798944 -1.88248 0
M  V30 2599 H 244.079 3.2752 -2.06904 0
M  V30 2600 H 244.493 3.04485 -4.2707 0
M  V30 2601 H 245.967 4.43933 -3.28067 0
M  V30 2602 H 246.444 4.08126 -1.62265 0
M  V30 2603 H 247.05 3.06384 -2.94973 0
M  V30 2604 N 245.365 1.30045 0.890287 0
M  V30 2605 C 246.611 1.18737 1.64406 0
M  V30 2606 C 246.944 -0.258525 1.92472 0
M  V30 2607 O 246.219 -1.18562 1.54186 0
M  V30 2608 C 246.502 2.01087 2.98724 0
M  V30 2609 C 246.355 3.53867 2.77665 0
M  V30 2610 C 247.674 1.84457 3.9958 0
M  V30 2611 H 244.793 0.432698 0.596608 0
M  V30 2612 H 247.435 1.5962 1.0306 0
M  V30 2613 H 245.585 1.66349 3.51084 0
M  V30 2614 H 247.257 3.98637 2.32133 0
M  V30 2615 H 245.5 3.78318 2.12269 0
M  V30 2616 H 246.171 4.06772 3.7315 0
M  V30 2617 H 248.647 2.14817 3.56361 0
M  V30 2618 H 247.523 2.44411 4.91482 0
M  V30 2619 H 247.784 0.802276 4.3476 0
M  V30 2620 N 246.843 -1.10192 1.12674 0
M  V30 2621 C 248.092 -1.81573 0.8783 0
M  V30 2622 C 248.405 -1.86249 -0.597557 0
M  V30 2623 O 249.611 -2.5386 -0.962681 0
M  V30 2624 C 248.067 -3.26149 1.52167 0
M  V30 2625 C 247.675 -3.29763 3.03249 0
M  V30 2626 C 249.419 -4.0234 1.3536 0
M  V30 2627 C 247.326 -4.68815 3.60508 0
M  V30 2628 H 246.256 -0.680394 0.324931 0
M  V30 2629 H 248.907 -1.23902 1.35353 0
M  V30 2630 H 247.289 -3.83832 0.974104 0
M  V30 2631 H 248.463 -2.8189 3.6452 0
M  V30 2632 H 246.778 -2.67059 3.19481 0
M  V30 2633 H 249.375 -5.05058 1.75559 0
M  V30 2634 H 249.718 -4.15235 0.297554 0
M  V30 2635 H 250.251 -3.51079 1.87052 0
M  V30 2636 H 246.99 -4.61121 4.65884 0
M  V30 2637 H 246.51 -5.17045 3.04014 0
M  V30 2638 H 248.189 -5.37785 3.59717 0
M  V30 2639 N 248.321 -0.919034 -1.28029 0
M  V30 2640 C 249.598 -0.473668 -1.89778 0
M  V30 2641 C 249.978 1.04783 -1.83259 0
M  V30 2642 O 249.326 1.8982 -1.27202 0
M  V30 2643 C 249.536 -1.00998 -3.34066 0
M  V30 2644 C 250.884 -1.06525 -4.1102 0
M  V30 2645 O 251.908 -0.958996 -3.43048 0
M  V30 2646 O 250.767 -1.22776 -5.3253 0
M  V30 2647 H 247.861 -0.15098 -0.813101 0
M  V30 2648 H 250.407 -1.01016 -1.36359 0
M  V30 2649 H 249.179 -2.05392 -3.33061 0
M  V30 2650 H 248.802 -0.454626 -3.94992 0
M  V30 2651 N 249.799 1.42003 -0.683588 0
M  V30 2652 C 251.024 2.06265 -0.216647 0
M  V30 2653 C 251.449 1.51059 1.12083 0
M  V30 2654 O 250.807 0.632638 1.69904 0
M  V30 2655 C 250.855 3.60191 -0.171759 0
M  V30 2656 O 249.959 4.03396 0.857069 0
M  V30 2657 H 249.3 0.65502 -0.108834 0
M  V30 2658 H 251.83 1.81982 -0.935077 0
M  V30 2659 H 251.84 4.08 0.0014303 0
M  V30 2660 H 250.515 3.99743 -1.14796 0
M  V30 2661 H 249.092 3.67117 0.654208 0
M  V30 2662 N 251.277 0.427512 1.51691 0
M  V30 2663 C 252.525 -0.141948 2.01601 0
M  V30 2664 C 252.846 -1.44067 1.31414 0
M  V30 2665 O 252.116 -1.90763 0.445658 0
M  V30 2666 H 250.696 -0.0554468 0.744939 0
M  V30 2667 H 253.358 0.567968 1.86441 0
M  V30 2668 H 252.454 -0.324913 3.10404 0
M  V30 2669 N 252.755 -1.56801 0.158532 0
M  V30 2670 C 254.032 -1.88131 -0.535357 0
M  V30 2671 C 254.412 -1.06638 -1.82186 0
M  V30 2672 O 253.76 -0.156533 -2.27963 0
M  V30 2673 C 253.97 -3.39949 -0.789653 0
M  V30 2674 C 255.318 -4.09416 -1.12533 0
M  V30 2675 O 256.342 -3.45194 -0.878622 0
M  V30 2676 O 255.201 -5.22855 -1.59014 0
M  V30 2677 H 252.295 -0.780143 -0.27442 0
M  V30 2678 H 254.841 -1.68564 0.19601 0
M  V30 2679 H 253.613 -3.91115 0.120353 0
M  V30 2680 H 253.236 -3.65084 -1.57479 0
M  V30 2681 N 254.233 0.115231 -1.57178 0
M  V30 2682 C 255.481 0.820727 -1.84685 0
M  V30 2683 C 255.802 1.80237 -0.744279 0
M  V30 2684 O 255.072 1.94529 0.231375 0
M  V30 2685 H 253.652 0.306084 -0.681411 0
M  V30 2686 H 256.314 0.101656 -1.94635 0
M  V30 2687 H 255.41 1.36366 -2.80733 0
M  V30 2688 N 255.711 1.52812 0.385517 0
M  V30 2689 C 256.957 1.68275 1.13188 0
M  V30 2690 C 257.29 0.423179 1.89533 0
M  V30 2691 O 256.565 -0.579113 1.85679 0
M  V30 2692 C 256.848 2.92001 2.1073 0
M  V30 2693 C 256.701 4.28067 1.38125 0
M  V30 2694 C 258.02 3.11283 3.11113 0
M  V30 2695 H 255.139 0.612352 0.410115 0
M  V30 2696 H 257.781 1.85415 0.414869 0
M  V30 2697 H 255.931 2.77519 2.71874 0
M  V30 2698 H 257.603 4.54324 0.799187 0
M  V30 2699 H 255.846 4.28388 0.683092 0
M  V30 2700 H 256.517 5.10733 2.09417 0
M  V30 2701 H 258.993 3.2482 2.6006 0
M  V30 2702 H 257.869 3.99325 3.76605 0
M  V30 2703 H 258.13 2.25656 3.80173 0
M  V30 2704 N 257.189 -0.644168 1.43834 0
M  V30 2705 C 258.417 -1.43147 1.49387 0
M  V30 2706 C 258.832 -1.88452 0.114583 0
M  V30 2707 O 258.189 -1.60047 -0.876989 0
M  V30 2708 C 258.24 -2.66046 2.44748 0
M  V30 2709 O 257.961 -2.22633 3.77314 0
M  V30 2710 C 259.462 -3.59311 2.59635 0
M  V30 2711 H 256.682 -0.439447 0.507077 0
M  V30 2712 H 259.226 -0.78895 1.88669 0
M  V30 2713 H 257.381 -3.26418 2.08638 0
M  V30 2714 H 257.795 -3.02216 4.28679 0
M  V30 2715 H 259.269 -4.42187 3.30416 0
M  V30 2716 H 259.746 -4.07259 1.64427 0
M  V30 2717 H 260.352 -3.04816 2.96593 0
M  V30 2718 N 258.668 -1.30515 -0.883378 0
M  V30 2719 C 259.618 -1.13641 -1.9766 0
M  V30 2720 C 260.602 -0.0511314 -1.60819 0
M  V30 2721 O 261.794 -0.274623 -1.74857 0
M  V30 2722 C 258.923 -0.831976 -3.33066 0
M  V30 2723 C 258.009 -1.95759 -3.76217 0
M  V30 2724 N 258.4 -3.20313 -3.9145 0
M  V30 2725 C 256.698 -1.85431 -4.05625 0
M  V30 2726 C 257.399 -3.93856 -4.2808 0
M  V30 2727 N 256.375 -3.21919 -4.38029 0
M  V30 2728 H 260.177 -2.08106 -2.07531 0
M  V30 2729 H 257.691 -1.21877 -1.0733 0
M  V30 2730 H 259.688 -0.692102 -4.11115 0
M  V30 2731 H 258.348 0.104588 -3.24532 0
M  V30 2732 H 259.359 -3.55583 -3.76538 0
M  V30 2733 H 256.036 -0.991531 -4.05555 0
M  V30 2734 H 257.426 -5.01125 -4.47575 0
M  V30 2735 N 260.146 1.09593 -1.13257 0
M  V30 2736 C 261.392 1.82003 -0.89458 0
M  V30 2737 C 261.725 1.85402 0.577906 0
M  V30 2738 O 261 1.32099 1.42759 0
M  V30 2739 C 261.283 3.28237 -1.48096 0
M  V30 2740 C 261.136 3.3312 -3.02244 0
M  V30 2741 C 262.455 4.24871 -1.14774 0
M  V30 2742 H 259.574 0.66077 -0.326424 0
M  V30 2743 H 262.216 1.28389 -1.40058 0
M  V30 2744 H 260.366 3.74024 -1.05062 0
M  V30 2745 H 262.038 2.95748 -3.54021 0
M  V30 2746 H 260.281 2.72756 -3.37323 0
M  V30 2747 H 260.952 4.3613 -3.38371 0
M  V30 2748 H 263.428 3.87361 -1.51957 0
M  V30 2749 H 262.304 5.25532 -1.58452 0
M  V30 2750 H 262.565 4.42058 -0.0611849 0
M  V30 2751 N 261.624 0.925811 1.2754 0
M  V30 2752 C 262.873 0.561084 1.93739 0
M  V30 2753 C 263.186 -0.901685 1.73577 0
M  V30 2754 O 264.392 -1.37511 2.34101 0
M  V30 2755 C 262.848 0.952668 3.47062 0
M  V30 2756 C 262.456 2.43599 3.75983 0
M  V30 2757 C 264.2 0.659103 4.19352 0
M  V30 2758 C 262.107 2.76707 5.22673 0
M  V30 2759 H 261.037 0.206122 0.725279 0
M  V30 2760 H 263.688 1.12637 1.44863 0
M  V30 2761 H 262.07 0.316053 3.94737 0
M  V30 2762 H 263.244 3.12035 3.39073 0
M  V30 2763 H 261.559 2.70125 3.16893 0
M  V30 2764 H 264.156 0.882985 5.27359 0
M  V30 2765 H 264.499 -0.403607 4.14339 0
M  V30 2766 H 265.032 1.25473 3.77494 0
M  V30 2767 H 261.771 3.8188 5.32774 0
M  V30 2768 H 261.291 2.12919 5.60737 0
M  V30 2769 H 262.97 2.6435 5.90532 0
M  V30 2770 N 263.102 -1.41638 0.69111 0
M  V30 2771 C 264.513 -1.84346 0.295517 0
M  V30 2772 C 264.864 -1.57833 -1.16547 0
M  V30 2773 O 263.989 -1.04648 -1.89414 0
M  V30 2774 C 264.584 -3.34636 0.529575 0
M  V30 2775 C 263.143 -3.7593 0.187944 0
M  V30 2776 C 262.29 -2.65082 0.814052 0
M  V30 2777 H 265.241 -1.31253 0.892092 0
M  V30 2778 H 265.262 -3.79903 -0.213148 0
M  V30 2779 H 264.774 -3.53901 1.59297 0
M  V30 2780 H 262.875 -3.62268 -0.871367 0
M  V30 2781 H 262.988 -4.74808 0.63985 0
M  V30 2782 H 261.352 -2.53528 0.244017 0
M  V30 2783 H 262.135 -2.87167 1.88123 0
M  V30 2784 N 264.58 -0.43555 -1.51462 0
M  V30 2785 C 265.826 0.131709 -2.02372 0
M  V30 2786 C 266.159 1.42516 -1.3192 0
M  V30 2787 O 265.434 1.89606 -0.433573 0
M  V30 2788 C 265.717 0.352301 -3.58373 0
M  V30 2789 C 265.57 -0.959676 -4.39443 0
M  V30 2790 C 266.889 1.12286 -4.25535 0
M  V30 2791 H 264.008 0.0463936 -0.735538 0
M  V30 2792 H 266.65 -0.574197 -1.81116 0
M  V30 2793 H 264.8 0.9536 -3.76615 0
M  V30 2794 H 266.472 -1.59482 -4.32855 0
M  V30 2795 H 264.715 -1.56468 -4.04599 0
M  V30 2796 H 265.386 -0.759394 -5.46752 0
M  V30 2797 H 267.862 0.613545 -4.11552 0
M  V30 2798 H 266.738 1.24598 -5.34571 0
M  V30 2799 H 266.999 2.15048 -3.86273 0
M  V30 2800 N 266.058 1.56714 -0.166846 0
M  V30 2801 C 267.021 2.16539 0.751232 0
M  V30 2802 C 268.021 1.11228 1.16125 0
M  V30 2803 O 269.211 1.36765 1.07894 0
M  V30 2804 C 266.343 2.74462 2.02196 0
M  V30 2805 H 267.536 2.99013 0.230499 0
M  V30 2806 H 265.089 1.56081 0.0826982 0
M  V30 2807 H 265.824 1.95709 2.58589 0
M  V30 2808 H 265.609 3.51527 1.73698 0
M  V30 2809 H 267.099 3.20489 2.67725 0
M  V30 2810 N 267.536 -0.106894 1.57237 0
M  V30 2811 C 268.446 -1.14911 2.0453 0
M  V30 2812 C 269.462 -1.44592 0.96795 0
M  V30 2813 O 270.638 -1.55468 1.2803 0
M  V30 2814 C 267.703 -2.45272 2.45036 0
M  V30 2815 C 266.764 -2.22879 3.66911 0
M  V30 2816 C 265.997 -3.47024 4.05475 0
M  V30 2817 O 266.22 -4.54804 3.44252 0
M  V30 2818 O 265.154 -3.3731 4.98504 0
M  V30 2819 H 268.98 -0.777461 2.9358 0
M  V30 2820 H 266.565 -0.318563 1.45964 0
M  V30 2821 H 268.447 -3.22055 2.71769 0
M  V30 2822 H 267.122 -2.81886 1.59129 0
M  V30 2823 H 266.029 -1.43915 3.45311 0
M  V30 2824 H 267.362 -1.91163 4.53561 0
M  V30 2825 N 269.014 -1.53014 -0.377408 0
M  V30 2826 C 270.262 -1.6829 -1.11906 0
M  V30 2827 C 270.583 -0.431206 -1.90173 0
M  V30 2828 O 269.853 0.554595 -1.87886 0
M  V30 2829 H 268.433 -0.620371 -0.416112 0
M  V30 2830 H 271.095 -1.90167 -0.426893 0
M  V30 2831 H 270.191 -2.53862 -1.8155 0
M  V30 2832 N 270.492 0.636531 -1.44174 0
M  V30 2833 C 271.722 1.42146 -1.49927 0
M  V30 2834 C 272.13 1.88812 -0.121063 0
M  V30 2835 O 271.473 1.61126 0.882267 0
M  V30 2836 C 271.535 2.67883 -2.39748 0
M  V30 2837 C 271.199 2.43048 -3.8701 0
M  V30 2838 C 272.196 2.05216 -4.77684 0
M  V30 2839 C 269.881 2.56856 -4.3166 0
M  V30 2840 C 271.875 1.81512 -6.11009 0
M  V30 2841 C 269.562 2.32766 -5.65034 0
M  V30 2842 C 270.56 1.95152 -6.54526 0
M  V30 2843 O 270.248 1.71326 -7.85431 0
M  V30 2844 H 269.98 0.442567 -0.51099 0
M  V30 2845 H 272.534 0.786158 -1.8976 0
M  V30 2846 H 270.764 3.34032 -1.94832 0
M  V30 2847 H 272.453 3.29874 -2.36513 0
M  V30 2848 H 273.219 1.94111 -4.44462 0
M  V30 2849 H 269.098 2.85104 -3.62266 0
M  V30 2850 H 272.642 1.52077 -6.80822 0
M  V30 2851 H 268.539 2.43479 -5.97819 0
M  V30 2852 H 269.307 1.85616 -7.97176 0
M  V30 2853 N 271.97 1.30982 0.876444 0
M  V30 2854 C 273.216 1.20474 1.63138 0
M  V30 2855 C 273.549 -0.238096 1.92735 0
M  V30 2856 O 272.824 -1.1692 1.55435 0
M  V30 2857 C 273.107 2.04244 2.96574 0
M  V30 2858 C 272.96 3.56793 2.73896 0
M  V30 2859 C 274.279 1.88684 3.97601 0
M  V30 2860 H 271.398 0.439001 0.591985 0
M  V30 2861 H 274.04 1.60704 1.01361 0
M  V30 2862 H 272.19 1.70063 3.493 0
M  V30 2863 H 273.862 4.01077 2.27892 0
M  V30 2864 H 272.105 3.80548 2.08245 0
M  V30 2865 H 272.776 4.10706 3.68815 0
M  V30 2866 H 275.252 2.18584 3.54062 0
M  V30 2867 H 274.128 2.4961 4.88862 0
M  V30 2868 H 274.389 0.848343 4.33884 0
M  V30 2869 N 273.449 -1.08991 1.13837 0
M  V30 2870 C 274.698 -1.80631 0.897509 0
M  V30 2871 C 275.011 -1.86872 -0.57777 0
M  V30 2872 O 276.217 -2.54866 -0.935701 0
M  V30 2873 C 274.673 -3.24517 1.55618 0
M  V30 2874 C 274.281 -3.26529 3.0673 0
M  V30 2875 C 276.025 -4.00882 1.3962 0
M  V30 2876 C 273.932 -4.64965 3.65461 0
M  V30 2877 H 272.862 -0.67691 0.332129 0
M  V30 2878 H 275.513 -1.2246 1.3666 0
M  V30 2879 H 273.895 -3.82778 1.01476 0
M  V30 2880 H 275.069 -2.78008 3.67489 0
M  V30 2881 H 273.384 -2.63656 3.22296 0
M  V30 2882 H 275.981 -5.03167 1.80906 0
M  V30 2883 H 276.324 -4.14896 0.341578 0
M  V30 2884 H 276.857 -3.49075 1.90766 0
M  V30 2885 H 273.596 -4.56153 4.70749 0
M  V30 2886 H 273.116 -5.13792 3.09481 0
M  V30 2887 H 274.795 -5.3394 3.654 0
M  V30 2888 N 274.927 -0.932562 -1.27047 0
M  V30 2889 C 276.175 -0.574422 -1.93765 0
M  V30 2890 C 276.496 0.887993 -1.73608 0
M  V30 2891 O 275.766 1.62999 -1.08665 0
M  V30 2892 H 274.346 -0.209451 -0.717035 0
M  V30 2893 H 277.008 -1.18601 -1.5466 0
M  V30 2894 H 276.104 -0.784841 -3.02071 0
M  V30 2895 N 276.405 1.4127 -0.698611 0
M  V30 2896 C 277.63 2.06024 -0.238512 0
M  V30 2897 C 278.055 1.5224 1.10475 0
M  V30 2898 O 277.413 0.650623 1.69223 0
M  V30 2899 C 277.461 3.59988 -0.209952 0
M  V30 2900 O 276.565 4.04282 0.814235 0
M  V30 2901 H 275.906 0.653829 -0.115775 0
M  V30 2902 H 278.436 1.8098 -0.954326 0
M  V30 2903 H 278.446 4.07979 -0.0418436 0
M  V30 2904 H 277.121 3.98503 -1.1903 0
M  V30 2905 H 275.698 3.6779 0.615234 0
M  V30 2906 N 277.883 0.443576 1.51229 0
M  V30 2907 C 279.123 -0.119889 2.04048 0
M  V30 2908 C 279.487 -1.39418 1.32009 0
M  V30 2909 O 280.688 -2.03829 1.75235 0
M  V30 2910 C 278.959 -0.327233 3.55899 0
M  V30 2911 S 280.518 -0.853208 4.30425 0
M  V30 2912 H 277.336 -0.028921 0.710412 0
M  V30 2913 H 279.938 0.604413 1.85922 0
M  V30 2914 H 278.642 0.606445 4.05895 0
M  V30 2915 H 278.173 -1.07844 3.7833 0
M  V30 2916 H 280.188 -2.13005 4.48155 0
M  V30 2917 N 279.361 -1.56624 0.175154 0
M  V30 2918 C 280.61 -1.96173 -0.468921 0
M  V30 2919 C 280.923 -1.06401 -1.64128 0
M  V30 2920 O 282.129 -1.35648 -2.35185 0
M  V30 2921 C 280.585 -3.48833 -0.885633 0
M  V30 2922 C 280.193 -4.47237 0.261343 0
M  V30 2923 C 281.937 -3.97194 -1.49791 0
M  V30 2924 C 279.844 -5.9114 -0.175214 0
M  V30 2925 H 278.774 -0.732455 -0.178958 0
M  V30 2926 H 281.425 -1.81591 0.263997 0
M  V30 2927 H 279.807 -3.58848 -1.67464 0
M  V30 2928 H 280.981 -4.4894 1.03871 0
M  V30 2929 H 279.296 -4.08956 0.783827 0
M  V30 2930 H 281.893 -5.02167 -1.83665 0
M  V30 2931 H 282.236 -3.40351 -2.39722 0
M  V30 2932 H 282.769 -3.90212 -0.773267 0
M  V30 2933 H 279.508 -6.51865 0.689414 0
M  V30 2934 H 279.028 -5.92735 -0.91786 0
M  V30 2935 H 280.707 -6.44044 -0.617792 0
M  V30 2936 N 280.839 0.0985539 -1.57292 0
M  V30 2937 C 281.786 1.11981 -2.01814 0
M  V30 2938 C 282.756 1.39999 -0.89384 0
M  V30 2939 O 283.941 1.5152 -1.15958 0
M  V30 2940 C 281.081 2.43577 -2.44467 0
M  V30 2941 C 280.194 2.2232 -3.70402 0
M  V30 2942 C 279.329 3.4729 -4.01949 0
M  V30 2943 C 278.368 3.2128 -5.21005 0
M  V30 2944 N 277.505 4.38507 -5.48321 0
M  V30 2945 H 282.345 0.733149 -2.88841 0
M  V30 2946 H 279.882 0.350482 -1.42864 0
M  V30 2947 H 281.84 3.20373 -2.6724 0
M  V30 2948 H 280.47 2.80097 -1.60455 0
M  V30 2949 H 279.522 1.36343 -3.55126 0
M  V30 2950 H 280.834 1.99089 -4.57345 0
M  V30 2951 H 279.988 4.32495 -4.25479 0
M  V30 2952 H 278.727 3.73572 -3.13521 0
M  V30 2953 H 277.732 2.34468 -4.97298 0
M  V30 2954 H 278.957 2.96348 -6.11028 0
M  V30 2955 H 276.903 4.64871 -4.62851 0
M  V30 2956 H 276.82 4.18455 -6.29628 0
M  V30 2957 H 278.088 5.24787 -5.76385 0
M  V30 2958 N 282.317 1.53212 0.369288 0
M  V30 2959 C 283.267 1.75769 1.45222 0
M  V30 2960 C 284.251 0.612136 1.48801 0
M  V30 2961 O 285.443 0.870674 1.54105 0
M  V30 2962 C 282.572 1.94769 2.82701 0
M  V30 2963 C 281.658 3.15315 2.83615 0
M  V30 2964 N 282.049 4.37295 2.54178 0
M  V30 2965 C 280.347 3.15962 3.14776 0
M  V30 2966 C 281.048 5.19015 2.62675 0
M  V30 2967 N 280.024 4.55142 2.97232 0
M  V30 2968 H 283.826 2.67691 1.2132 0
M  V30 2969 H 281.34 1.51787 0.577438 0
M  V30 2970 H 283.337 2.09056 3.60696 0
M  V30 2971 H 281.997 1.04073 3.07569 0
M  V30 2972 H 283.008 4.65091 2.27839 0
M  V30 2973 H 279.685 2.35144 3.44983 0
M  V30 2974 H 281.075 6.26305 2.43294 0
M  V30 2975 N 283.795 -0.628877 1.44509 0
M  V30 2976 C 285.044 -1.38437 1.4669 0
M  V30 2977 C 285.357 -1.95322 0.104272 0
M  V30 2978 O 286.563 -2.715 0.00362163 0
M  V30 2979 C 285.019 -2.50659 2.5826 0
M  V30 2980 C 284.627 -2.00277 4.0074 0
M  V30 2981 C 286.371 -3.27844 2.69664 0
M  V30 2982 C 284.278 -3.09854 5.0373 0
M  V30 2983 H 283.208 -0.520245 0.545766 0
M  V30 2984 H 285.859 -0.676313 1.70582 0
M  V30 2985 H 284.241 -3.2405 2.27612 0
M  V30 2986 H 285.415 -1.33736 4.40966 0
M  V30 2987 H 283.73 -1.35901 3.93599 0
M  V30 2988 H 286.327 -4.09534 3.43781 0
M  V30 2989 H 286.67 -3.77471 1.75559 0
M  V30 2990 H 287.203 -2.61543 2.99733 0
M  V30 2991 H 283.942 -2.65168 5.99472 0
M  V30 2992 H 283.462 -3.7503 4.68095 0
M  V30 2993 H 285.141 -3.74592 5.27532 0
M  V30 2994 N 285.273 -1.31445 -0.869486 0
M  V30 2995 C 286.684 -1.19042 -1.43826 0
M  V30 2996 C 287.035 0.202919 -1.95148 0
M  V30 2997 O 286.16 1.10071 -1.86315 0
M  V30 2998 C 286.755 -2.15499 -2.6143 0
M  V30 2999 C 285.314 -2.07028 -3.14351 0
M  V30 3000 C 284.461 -2.04701 -1.87063 0
M  V30 3001 H 287.412 -1.43489 -0.677984 0
M  V30 3002 H 287.433 -1.74488 -3.38134 0
M  V30 3003 H 286.945 -3.16899 -2.24046 0
M  V30 3004 H 285.046 -1.08825 -3.56354 0
M  V30 3005 H 285.159 -2.96157 -3.766 0
M  V30 3006 H 283.523 -1.49724 -2.06046 0
M  V30 3007 H 284.306 -3.07857 -1.51917 0
M  V30 3008 N 286.751 1.08385 -1.14413 0
M  V30 3009 C 288 1.80153 -0.907076 0
M  V30 3010 C 288.313 1.87176 0.567851 0
M  V30 3011 O 289.519 2.55359 0.922172 0
M  V30 3012 C 287.975 3.23687 -1.57336 0
M  V30 3013 C 287.583 3.24897 -3.08457 0
M  V30 3014 C 289.327 4.00136 -1.41744 0
M  V30 3015 C 287.234 4.6302 -3.67921 0
M  V30 3016 H 286.164 0.675139 -0.335714 0
M  V30 3017 H 288.815 1.21733 -1.37307 0
M  V30 3018 H 287.197 3.82234 -1.03505 0
M  V30 3019 H 288.371 2.76055 -3.68958 0
M  V30 3020 H 286.686 2.61943 -3.2369 0
M  V30 3021 H 289.283 5.02201 -1.83572 0
M  V30 3022 H 289.626 4.14709 -0.363576 0
M  V30 3023 H 290.159 3.48058 -1.92614 0
M  V30 3024 H 286.898 4.5365 -4.73161 0
M  V30 3025 H 286.418 5.12143 -3.12201 0
M  V30 3026 H 288.097 5.31994 -3.68227 0
M  V30 3027 N 288.23 0.939286 1.26551 0
M  V30 3028 C 289.193 0.451987 2.24699 0
M  V30 3029 C 290.193 -0.435869 1.5478 0
M  V30 3030 O 291.383 -0.235314 1.72603 0
M  V30 3031 C 288.515 -0.348801 3.39111 0
M  V30 3032 H 289.708 1.3193 2.69322 0
M  V30 3033 H 287.261 0.721072 1.38673 0
M  V30 3034 H 287.996 -1.23444 2.99887 0
M  V30 3035 H 287.781 0.287945 3.91041 0
M  V30 3036 H 289.271 -0.679726 4.12031 0
M  V30 3037 N 289.708 -1.40897 0.706093 0
M  V30 3038 C 290.956 -2.00657 0.241054 0
M  V30 3039 C 291.277 -1.56241 -1.16678 0
M  V30 3040 O 290.547 -0.79765 -1.78926 0
M  V30 3041 H 289.127 -0.742018 0.0861308 0
M  V30 3042 H 291.789 -1.72372 0.909604 0
M  V30 3043 H 290.885 -3.10958 0.266705 0
M  V30 3044 N 291.186 -0.45159 -1.50991 0
M  V30 3045 C 292.602 -0.104647 -1.59257 0
M  V30 3046 C 292.802 1.38728 -1.4614 0
M  V30 3047 O 291.858 2.15866 -1.30989 0
M  V30 3048 C 293.171 -0.637468 -2.93865 0
M  V30 3049 C 294.719 -0.599166 -3.07212 0
M  V30 3050 C 295.194 -1.1092 -4.44366 0
M  V30 3051 N 296.685 -1.06778 -4.50725 0
M  V30 3052 C 297.42 -1.43314 -5.55201 0
M  V30 3053 N 296.916 -1.87204 -6.67028 0
M  V30 3054 N 298.709 -1.3504 -5.45638 0
M  V30 3055 H 290.86 -1.42214 -1.57762 0
M  V30 3056 H 293.123 -0.586921 -0.744465 0
M  V30 3057 H 292.829 -1.68187 -3.08879 0
M  V30 3058 H 292.703 -0.0702139 -3.77135 0
M  V30 3059 H 295.09 0.436277 -2.91857 0
M  V30 3060 H 295.171 -1.20299 -2.25747 0
M  V30 3061 H 294.815 -2.14318 -4.60467 0
M  V30 3062 H 294.745 -0.481773 -5.24392 0
M  V30 3063 H 297.236 -0.745643 -3.70471 0
M  V30 3064 H 297.549 -2.13282 -7.42786 0
M  V30 3065 H 295.894 -1.91142 -6.68199 0
M  V30 3066 H 299.085 -1.00607 -4.57161 0
M  V30 3067 H 299.258 -1.63841 -6.26945 0
M  V30 3068 N 292.664 1.56529 -0.183458 0
M  V30 3069 C 293.941 1.88959 0.50536 0
M  V30 3070 C 294.321 1.09523 1.80466 0
M  V30 3071 O 293.669 0.19278 2.27685 0
M  V30 3072 C 293.879 3.41162 0.73547 0
M  V30 3073 C 295.227 4.11155 1.06005 0
M  V30 3074 O 296.251 3.46548 0.823594 0
M  V30 3075 O 295.11 5.25318 1.50675 0
M  V30 3076 H 292.204 0.78441 0.261973 0
M  V30 3077 H 294.75 1.68231 -0.222802 0
M  V30 3078 H 293.522 3.90874 -0.182561 0
M  V30 3079 H 293.145 3.67543 1.51651 0
M  V30 3080 N 294.142 -0.090211 1.57342 0
M  V30 3081 C 295.391 -0.791531 1.8552 0
M  V30 3082 C 295.704 -1.79659 0.773441 0
M  V30 3083 O 296.91 -2.54616 0.942497 0
M  V30 3084 C 295.366 -1.45856 3.2902 0
M  V30 3085 C 294.974 -0.493017 4.45279 0
M  V30 3086 C 296.718 -2.14332 3.66418 0
M  V30 3087 C 294.625 -1.16491 5.79814 0
M  V30 3088 H 293.555 -0.299356 0.692027 0
M  V30 3089 H 296.206 -0.0445343 1.83446 0
M  V30 3090 H 294.588 -2.25318 3.2565 0
M  V30 3091 H 295.762 0.270464 4.60006 0
M  V30 3092 H 294.077 0.0863061 4.16311 0
M  V30 3093 H 296.674 -2.65344 4.64216 0
M  V30 3094 H 297.017 -2.93447 2.95287 0
M  V30 3095 H 297.55 -1.41724 3.71698 0
M  V30 3096 H 294.289 -0.41447 6.54188 0
M  V30 3097 H 293.809 -1.8997 5.68921 0
M  V30 3098 H 295.488 -1.69001 6.24538 0
M  V30 3099 N 295.62 -1.53406 -0.361157 0
M  V30 3100 C 296.848 -1.73717 -1.12383 0
M  V30 3101 C 297.263 -0.468161 -1.82904 0
M  V30 3102 O 296.62 0.559198 -1.73722 0
M  V30 3103 C 296.671 -2.90558 -2.15078 0
M  V30 3104 O 296.392 -4.12549 -1.47428 0
M  V30 3105 C 297.893 -3.22777 -3.03858 0
M  V30 3106 H 295.113 -0.580896 -0.335858 0
M  V30 3107 H 297.657 -2.00167 -0.418728 0
M  V30 3108 H 295.812 -2.66489 -2.8118 0
M  V30 3109 H 296.226 -4.78009 -2.15887 0
M  V30 3110 H 297.7 -4.07927 -3.71887 0
M  V30 3111 H 298.177 -2.38329 -3.68912 0
M  V30 3112 H 298.783 -3.48787 -2.43367 0
M  V30 3113 N 297.098 0.621204 -1.44841 0
M  V30 3114 C 298.328 1.40548 -1.51426 0
M  V30 3115 C 298.736 1.88673 -0.141083 0
M  V30 3116 O 298.079 1.62053 0.865128 0
M  V30 3117 C 298.141 2.65325 -2.42576 0
M  V30 3118 C 297.805 2.3893 -3.89566 0
M  V30 3119 C 298.802 2.00138 -4.79834 0
M  V30 3120 C 296.487 2.52263 -4.3436 0
M  V30 3121 C 298.481 1.75021 -6.129 0
M  V30 3122 C 296.168 2.2676 -5.67471 0
M  V30 3123 C 297.166 1.88199 -6.56559 0
M  V30 3124 O 296.854 1.62986 -7.87204 0
M  V30 3125 H 296.586 0.437122 -0.515655 0
M  V30 3126 H 299.14 0.765987 -1.90583 0
M  V30 3127 H 297.37 3.31947 -1.98364 0
M  V30 3128 H 299.059 3.27347 -2.39998 0
M  V30 3129 H 299.825 1.89386 -4.46495 0
M  V30 3130 H 295.704 2.81246 -3.65269 0
M  V30 3131 H 299.248 1.44848 -6.82396 0
M  V30 3132 H 295.145 2.37125 -6.00368 0
M  V30 3133 H 295.913 1.7715 -7.991 0
M  V30 3134 N 298.576 1.31904 0.862503 0
M  V30 3135 C 299.823 1.22017 1.61611 0
M  V30 3136 C 300.151 -0.21991 1.93253 0
M  V30 3137 O 299.406 -1.17076 1.56817 0
M  V30 3138 C 299.705 2.01713 2.95037 0
M  V30 3139 C 299.371 3.51145 2.82857 0
M  V30 3140 C 298.033 3.91889 2.79243 0
M  V30 3141 C 300.385 4.46204 2.69353 0
M  V30 3142 C 297.713 5.25947 2.59993 0
M  V30 3143 C 300.065 5.80397 2.5164 0
M  V30 3144 C 298.729 6.20352 2.46413 0
M  V30 3145 H 297.999 0.44649 0.591378 0
M  V30 3146 H 300.646 1.63248 1.00111 0
M  V30 3147 H 298.951 1.53185 3.60613 0
M  V30 3148 H 300.648 1.91437 3.52353 0
M  V30 3149 H 297.238 3.1878 2.86491 0
M  V30 3150 H 301.422 4.15652 2.71196 0
M  V30 3151 H 296.678 5.5597 2.54376 0
M  V30 3152 H 300.852 6.53676 2.40169 0
M  V30 3153 H 298.479 7.24172 2.31256 0
M  V30 3154 N 300.054 -1.07777 1.14986 0
M  V30 3155 C 301.303 -1.79669 0.916617 0
M  V30 3156 C 301.616 -1.87474 -0.557917 0
M  V30 3157 O 302.822 -2.55845 -0.908617 0
M  V30 3158 C 301.278 -3.22848 1.59051 0
M  V30 3159 C 300.886 -3.23257 3.10176 0
M  V30 3160 C 302.63 -3.99379 1.43864 0
M  V30 3161 C 300.537 -4.61063 3.70372 0
M  V30 3162 H 299.467 -0.673349 0.33929 0
M  V30 3163 H 302.118 -1.21003 1.37951 0
M  V30 3164 H 300.5 -3.8168 1.0553 0
M  V30 3165 H 301.674 -2.74095 3.70417 0
M  V30 3166 H 299.989 -2.60222 3.25074 0
M  V30 3167 H 302.586 -5.0122 1.86232 0
M  V30 3168 H 302.929 -4.14511 0.385564 0
M  V30 3169 H 303.462 -3.47032 1.94457 0
M  V30 3170 H 300.201 -4.51135 4.7556 0
M  V30 3171 H 299.721 -5.1048 3.14913 0
M  V30 3172 H 301.4 -5.30034 3.71043 0
M  V30 3173 N 301.532 -0.945985 -1.26051 0
M  V30 3174 C 302.464 -0.416662 -2.25381 0
M  V30 3175 C 303.477 0.462712 -1.56086 0
M  V30 3176 O 304.666 0.272383 -1.7641 0
M  V30 3177 C 301.766 0.419812 -3.3629 0
M  V30 3178 C 300.939 -0.444531 -4.35135 0
M  V30 3179 C 299.998 0.332305 -5.2515 0
M  V30 3180 O 299.024 -0.266324 -5.68577 0
M  V30 3181 N 300.226 1.62763 -5.57215 0
M  V30 3182 H 302.991 -1.27059 -2.71433 0
M  V30 3183 H 300.552 -0.815392 -1.39868 0
M  V30 3184 H 302.544 0.947013 -3.93464 0
M  V30 3185 H 301.114 1.17456 -2.89694 0
M  V30 3186 H 300.334 -1.15291 -3.76964 0
M  V30 3187 H 301.622 -1.03478 -4.98166 0
M  V30 3188 H 301.02 2.13603 -5.23823 0
M  V30 3189 H 299.577 2.10097 -6.17011 0
M  V30 3190 N 303.011 1.40521 -0.713556 0
M  V30 3191 C 303.943 2.29191 -0.0203126 0
M  V30 3192 C 304.956 1.45723 0.725864 0
M  V30 3193 O 306.145 1.69033 0.573581 0
M  V30 3194 C 303.245 3.2395 0.995486 0
M  V30 3195 C 302.418 4.36262 0.315256 0
M  V30 3196 C 301.477 5.11474 1.23616 0
M  V30 3197 O 300.503 5.64606 0.721719 0
M  V30 3198 N 301.705 5.20638 2.56743 0
M  V30 3199 H 304.47 2.89327 -0.781652 0
M  V30 3200 H 302.031 1.51869 -0.561022 0
M  V30 3201 H 304.023 3.71137 1.61368 0
M  V30 3202 H 302.593 2.64995 1.6582 0
M  V30 3203 H 301.813 3.91228 -0.483106 0
M  V30 3204 H 303.101 5.08558 -0.157004 0
M  V30 3205 H 302.499 4.7895 3.01037 0
M  V30 3206 H 301.056 5.71339 3.13712 0
M  V30 3207 N 304.489 0.459591 1.5075 0
M  V30 3208 C 305.419 -0.330644 2.31147 0
M  V30 3209 C 306.4 -1.00087 1.37538 0
M  V30 3210 O 307.585 -1.00025 1.66459 0
M  V30 3211 C 304.715 -1.41958 3.16962 0
M  V30 3212 C 303.669 -0.871608 4.19031 0
M  V30 3213 C 302.995 -2.05797 4.9351 0
M  V30 3214 C 304.295 0.109251 5.22186 0
M  V30 3215 H 305.989 0.340336 2.97459 0
M  V30 3216 H 303.535 0.165119 1.4305 0
M  V30 3217 H 305.488 -1.9798 3.71997 0
M  V30 3218 H 304.212 -2.11917 2.48513 0
M  V30 3219 H 302.871 -0.333442 3.6508 0
M  V30 3220 H 302.519 -2.74427 4.21544 0
M  V30 3221 H 302.219 -1.6976 5.62544 0
M  V30 3222 H 303.743 -2.62331 5.51375 0
M  V30 3223 H 305.157 -0.361405 5.7216 0
M  V30 3224 H 303.554 0.383316 5.98875 0
M  V30 3225 H 304.624 1.03887 4.73641 0
M  V30 3226 N 305.967 -1.56429 0.191757 0
M  V30 3227 C 306.897 -2.21937 -0.725696 0
M  V30 3228 C 307.878 -1.1814 -1.2238 0
M  V30 3229 O 309.063 -1.46636 -1.27325 0
M  V30 3230 C 306.193 -2.87611 -1.94672 0
M  V30 3231 C 305.147 -3.97623 -1.58366 0
M  V30 3232 C 304.473 -4.50446 -2.88102 0
M  V30 3233 C 305.773 -5.16197 -0.796133 0
M  V30 3234 H 307.467 -2.98861 -0.179606 0
M  V30 3235 H 305.013 -1.43749 -0.0849464 0
M  V30 3236 H 306.966 -3.3212 -2.59373 0
M  V30 3237 H 305.69 -2.08087 -2.51728 0
M  V30 3238 H 304.349 -3.53801 -0.960247 0
M  V30 3239 H 303.997 -3.67688 -3.43241 0
M  V30 3240 H 303.697 -5.24675 -2.64556 0
M  V30 3241 H 305.221 -4.97654 -3.53798 0
M  V30 3242 H 306.635 -5.57271 -1.34618 0
M  V30 3243 H 305.032 -5.96471 -0.658928 0
M  V30 3244 H 306.102 -4.84473 0.203478 0
M  V30 3245 N 307.445 0.0818655 -1.57387 0
M  V30 3246 C 308.861 0.436412 -1.53517 0
M  V30 3247 C 309.061 1.79758 -0.910459 0
M  V30 3248 O 308.117 2.47324 -0.508636 0
M  V30 3249 C 309.43 0.386734 -2.98203 0
M  V30 3250 C 310.978 0.467644 -3.09487 0
M  V30 3251 C 311.453 0.447978 -4.55804 0
M  V30 3252 N 312.944 0.508348 -4.60402 0
M  V30 3253 C 313.679 0.515184 -5.71081 0
M  V30 3254 N 313.175 0.477435 -6.91153 0
M  V30 3255 N 314.968 0.560988 -5.59294 0
M  V30 3256 H 307.119 -0.809546 -1.96367 0
M  V30 3257 H 309.382 -0.302733 -0.898363 0
M  V30 3258 H 309.088 -0.546539 -3.47427 0
M  V30 3259 H 308.962 1.20075 -3.57578 0
M  V30 3260 H 311.349 1.39134 -2.60242 0
M  V30 3261 H 311.43 -0.374753 -2.5304 0
M  V30 3262 H 311.074 -0.471826 -5.05704 0
M  V30 3263 H 311.004 1.30777 -5.10103 0
M  V30 3264 H 313.495 0.54218 -3.7399 0
M  V30 3265 H 313.808 0.486299 -7.71268 0
M  V30 3266 H 312.153 0.444278 -6.93579 0
M  V30 3267 H 315.344 0.5881 -4.64391 0
M  V30 3268 H 315.517 0.562846 -6.45551 0
M  V30 3269 N 308.923 1.53595 0.353017 0
M  V30 3270 C 310.2 1.61002 1.11075 0
M  V30 3271 C 310.58 0.425356 2.0677 0
M  V30 3272 O 309.928 -0.583267 2.2093 0
M  V30 3273 C 310.138 2.96631 1.83877 0
M  V30 3274 C 311.486 3.51653 2.37961 0
M  V30 3275 O 312.51 2.98743 1.93987 0
M  V30 3276 O 311.369 4.44177 3.18386 0
M  V30 3277 H 308.463 0.650825 0.510251 0
M  V30 3278 H 311.009 1.6594 0.35527 0
M  V30 3279 H 309.781 3.74293 1.14108 0
M  V30 3280 H 309.404 2.95242 2.66304 0
M  V30 3281 N 310.401 -0.613514 1.45168 0
M  V30 3282 C 311.817 -0.933629 1.29443 0
M  V30 3283 C 312.017 -2.00028 0.243101 0
M  V30 3284 O 311.073 -2.49848 -0.364992 0
M  V30 3285 C 312.386 -1.38018 2.67155 0
M  V30 3286 C 313.934 -1.49471 2.75004 0
M  V30 3287 C 314.409 -1.97503 4.13227 0
M  V30 3288 N 315.9 -2.04746 4.15491 0
M  V30 3289 C 316.635 -2.43121 5.19307 0
M  V30 3290 N 316.131 -2.80506 6.33473 0
M  V30 3291 N 317.924 -2.43408 5.06664 0
M  V30 3292 H 310.075 0.0916097 2.12202 0
M  V30 3293 H 312.338 -0.0216655 0.947752 0
M  V30 3294 H 312.044 -0.670625 3.45247 0
M  V30 3295 H 311.918 -2.34784 2.95222 0
M  V30 3296 H 314.305 -2.19519 1.9722 0
M  V30 3297 H 314.386 -0.510342 2.50657 0
M  V30 3298 H 314.03 -1.28045 4.91495 0
M  V30 3299 H 313.96 -2.96843 4.34962 0
M  V30 3300 H 316.451 -1.78468 3.33103 0
M  V30 3301 H 316.764 -3.08652 7.08487 0
M  V30 3302 H 315.109 -2.78216 6.36884 0
M  V30 3303 H 318.3 -2.13604 4.16523 0
M  V30 3304 H 318.473 -2.72989 5.87691 0
M  V30 3305 N 311.879 -1.3236 -0.855495 0
M  V30 3306 C 312.789 -1.23221 -1.99634 0
M  V30 3307 C 313.805 -0.145983 -1.73387 0
M  V30 3308 O 314.981 -0.366502 -1.98037 0
M  V30 3309 C 312.046 -0.954782 -3.33294 0
M  V30 3310 C 311.107 -2.12937 -3.72769 0
M  V30 3311 C 310.34 -1.86508 -5.00051 0
M  V30 3312 O 310.563 -0.807231 -5.64659 0
M  V30 3313 O 309.497 -2.72591 -5.36636 0
M  V30 3314 H 313.323 -2.19126 -2.1028 0
M  V30 3315 H 310.908 -1.12241 -0.986018 0
M  V30 3316 H 312.79 -0.816519 -4.13414 0
M  V30 3317 H 311.465 -0.0258854 -3.2369 0
M  V30 3318 H 310.372 -2.3231 -2.93228 0
M  V30 3319 H 311.705 -3.04102 -3.87018 0
M  V30 3320 N 313.357 1.07166 -1.15556 0
M  V30 3321 C 314.603 1.80065 -0.932984 0
M  V30 3322 C 314.936 1.86586 0.53845 0
M  V30 3323 O 314.211 1.35098 1.39924 0
M  V30 3324 C 314.494 3.25022 -1.55025 0
M  V30 3325 C 314.347 3.26634 -3.09242 0
M  V30 3326 C 315.666 4.22341 -1.2376 0
M  V30 3327 H 312.785 0.653697 -0.340366 0
M  V30 3328 H 315.427 1.25389 -1.4275 0
M  V30 3329 H 313.577 3.71712 -1.12972 0
M  V30 3330 H 315.249 2.88173 -3.60214 0
M  V30 3331 H 313.492 2.65539 -3.43033 0
M  V30 3332 H 314.163 4.28854 -3.47546 0
M  V30 3333 H 316.639 3.8405 -1.60139 0
M  V30 3334 H 315.515 5.22053 -1.69564 0
M  V30 3335 H 315.776 4.41828 -0.154938 0
M  V30 3336 N 314.835 0.952656 1.25548 0
M  V30 3337 C 316.083 0.605176 1.92826 0
M  V30 3338 C 316.404 -0.860261 1.74999 0
M  V30 3339 O 315.674 -1.6125 1.11244 0
M  V30 3340 H 314.254 0.220832 0.713612 0
M  V30 3341 H 316.916 1.21047 1.52754 0
M  V30 3342 H 316.012 0.832798 3.00784 0
M  V30 3343 N 316.313 -1.40141 0.720998 0
M  V30 3344 C 317.562 -2.0002 0.259804 0
M  V30 3345 C 317.875 -1.57839 -1.15526 0
M  V30 3346 O 319.081 -2.10455 -1.71525 0
M  V30 3347 C 317.537 -3.57516 0.413566 0
M  V30 3348 C 317.145 -4.08667 1.83562 0
M  V30 3349 C 318.889 -4.24498 0.0134387 0
M  V30 3350 C 316.796 -5.58686 1.93968 0
M  V30 3351 H 315.726 -0.748195 0.0933806 0
M  V30 3352 H 318.377 -1.60313 0.892866 0
M  V30 3353 H 316.759 -3.9495 -0.288169 0
M  V30 3354 H 317.933 -3.82598 2.56817 0
M  V30 3355 H 316.248 -3.543 2.1877 0
M  V30 3356 H 318.845 -5.34654 0.0703954 0
M  V30 3357 H 319.188 -4.03375 -1.02927 0
M  V30 3358 H 319.721 -3.92188 0.665815 0
M  V30 3359 H 316.46 -5.8467 2.96379 0
M  V30 3360 H 315.98 -5.86602 1.25131 0
M  V30 3361 H 317.659 -6.23875 1.71431 0
M  V30 3362 N 317.792 -0.46758 -1.50504 0
M  V30 3363 C 319.203 -0.0116166 -1.86696 0
M  V30 3364 C 319.554 1.39202 -1.38265 0
M  V30 3365 O 318.679 2.0313 -0.746132 0
M  V30 3366 C 319.274 -0.0143044 -3.38797 0
M  V30 3367 C 317.833 0.386175 -3.74414 0
M  V30 3368 C 316.98 -0.401287 -2.74381 0
M  V30 3369 H 319.931 -0.682022 -1.43297 0
M  V30 3370 H 319.952 0.788641 -3.72237 0
M  V30 3371 H 319.464 -1.03602 -3.74016 0
M  V30 3372 H 317.565 1.41237 -3.44794 0
M  V30 3373 H 317.678 0.0899596 -4.79016 0
M  V30 3374 H 316.042 0.144536 -2.5429 0
M  V30 3375 H 316.825 -1.42244 -3.12444 0
M  V30 3376 N 319.27 1.56325 -0.20005 0
M  V30 3377 C 320.681 1.8408 0.31167 0
M  V30 3378 C 321.032 1.12087 1.61031 0
M  V30 3379 O 320.157 0.38332 2.12978 0
M  V30 3380 C 320.752 3.33932 0.57226 0
M  V30 3381 C 319.311 3.6208 1.02834 0
M  V30 3382 C 318.458 2.77186 0.079634 0
M  V30 3383 H 321.409 1.52939 -0.423729 0
M  V30 3384 H 321.43 3.52971 1.42096 0
M  V30 3385 H 320.942 3.86303 -0.37308 0
M  V30 3386 H 319.043 3.15147 1.98778 0
M  V30 3387 H 319.156 4.7023 0.917624 0
M  V30 3388 H 317.52 2.47951 0.582448 0
M  V30 3389 H 318.303 3.32347 -0.860238 0
M  V30 3390 N 320.748 -0.0735177 1.57428 0
M  V30 3391 C 321.658 -1.10547 2.06922 0
M  V30 3392 C 322.674 -1.42506 0.998402 0
M  V30 3393 O 323.85 -1.52717 1.31299 0
M  V30 3394 C 320.915 -2.40019 2.50184 0
M  V30 3395 C 319.976 -2.15046 3.71556 0
M  V30 3396 C 319.209 -3.38345 4.12745 0
M  V30 3397 O 319.432 -4.47399 3.53822 0
M  V30 3398 O 318.366 -3.2666 5.05546 0
M  V30 3399 H 322.192 -0.715013 2.95163 0
M  V30 3400 H 319.777 -0.287531 1.46607 0
M  V30 3401 H 321.659 -3.16218 2.78539 0
M  V30 3402 H 320.334 -2.78447 1.65072 0
M  V30 3403 H 319.241 -1.36558 3.48285 0
M  V30 3404 H 320.574 -1.81499 4.57514 0
M  V30 3405 N 322.226 -1.5378 -0.344866 0
M  V30 3406 C 323.158 -1.77988 -1.44406 0
M  V30 3407 C 324.171 -0.661138 -1.48771 0
M  V30 3408 O 325.36 -0.937842 -1.51877 0
M  V30 3409 C 322.46 -1.86345 -2.8307 0
M  V30 3410 C 321.633 -3.16256 -3.0216 0
M  V30 3411 C 320.692 -3.15588 -4.21059 0
M  V30 3412 O 319.718 -3.89314 -4.15239 0
M  V30 3413 N 320.92 -2.37864 -5.29529 0
M  V30 3414 H 323.685 -2.72839 -1.24012 0
M  V30 3415 H 321.246 -1.52814 -0.534737 0
M  V30 3416 H 323.238 -1.83351 -3.60783 0
M  V30 3417 H 321.808 -0.986858 -2.96614 0
M  V30 3418 H 321.028 -3.32385 -2.11929 0
M  V30 3419 H 322.316 -4.0207 -3.11797 0
M  V30 3420 H 321.714 -1.77514 -5.37127 0
M  V30 3421 H 320.271 -2.40668 -6.05741 0
M  V30 3422 N 323.704 0.605807 -1.45491 0
M  V30 3423 C 324.929 1.39625 -1.53361 0
M  V30 3424 C 325.354 1.87351 -0.167645 0
M  V30 3425 O 324.712 1.60243 0.848051 0
M  V30 3426 C 324.76 2.57559 -2.5238 0
M  V30 3427 O 323.864 3.58248 -2.04285 0
M  V30 3428 H 323.205 0.416771 -0.516912 0
M  V30 3429 H 325.735 0.737103 -1.90861 0
M  V30 3430 H 325.745 3.0478 -2.71244 0
M  V30 3431 H 324.42 2.22171 -3.51586 0
M  V30 3432 H 322.997 3.17664 -1.95305 0
M  V30 3433 N 325.182 1.32811 0.848464 0
M  V30 3434 C 326.112 1.24882 1.97299 0
M  V30 3435 C 327.093 0.131357 1.69592 0
M  V30 3436 O 328.278 0.319553 1.91553 0
M  V30 3437 C 325.408 0.97746 3.33261 0
M  V30 3438 C 324.362 2.05682 3.75338 0
M  V30 3439 C 323.688 1.63777 5.09 0
M  V30 3440 C 324.988 3.47254 3.90144 0
M  V30 3441 H 326.682 2.18966 2.04191 0
M  V30 3442 H 324.228 1.05413 0.981029 0
M  V30 3443 H 326.181 0.908513 4.1149 0
M  V30 3444 H 324.905 0.000980011 3.266 0
M  V30 3445 H 323.564 2.11603 2.99366 0
M  V30 3446 H 323.212 0.648569 4.98801 0
M  V30 3447 H 322.912 2.36 5.38124 0
M  V30 3448 H 324.436 1.5833 5.89715 0
M  V30 3449 H 325.85 3.43888 4.58709 0
M  V30 3450 H 324.247 4.1788 4.30693 0
M  V30 3451 H 325.317 3.86462 2.92874 0
M  V30 3452 N 326.66 -1.06551 1.16123 0
M  V30 3453 C 327.57 -2.17484 0.879662 0
M  V30 3454 C 328.586 -1.73377 -0.147104 0
M  V30 3455 O 329.762 -2.01379 0.0289128 0
M  V30 3456 C 326.827 -3.44591 0.381829 0
M  V30 3457 C 325.888 -4.0322 1.4735 0
M  V30 3458 C 325.121 -5.24261 0.999324 0
M  V30 3459 O 325.344 -5.70198 -0.151957 0
M  V30 3460 O 324.278 -5.74775 1.78653 0
M  V30 3461 H 328.104 -2.44075 1.80724 0
M  V30 3462 H 325.689 -1.16042 0.940992 0
M  V30 3463 H 327.571 -4.21254 0.111053 0
M  V30 3464 H 326.246 -3.19532 -0.51777 0
M  V30 3465 H 325.153 -3.2806 1.79798 0
M  V30 3466 H 326.486 -4.32568 2.34831 0
M  V30 3467 N 328.138 -0.959301 -1.25041 0
M  V30 3468 C 329.366 -0.633949 -1.96948 0
M  V30 3469 C 329.781 0.794916 -1.7125 0
M  V30 3470 O 329.138 1.53231 -0.991287 0
M  V30 3471 C 329.189 -0.888805 -3.50403 0
M  V30 3472 O 328.91 -2.26149 -3.75218 0
M  V30 3473 C 330.411 -0.576482 -4.39536 0
M  V30 3474 H 327.631 -0.237263 -0.627652 0
M  V30 3475 H 330.175 -1.28495 -1.59089 0
M  V30 3476 H 328.33 -0.284145 -3.86357 0
M  V30 3477 H 328.744 -2.33514 -4.6965 0
M  V30 3478 H 330.218 -0.805314 -5.46094 0
M  V30 3479 H 330.695 0.489075 -4.36468 0
M  V30 3480 H 331.301 -1.16067 -4.09156 0
M  V30 3481 N 329.616 1.39756 -0.72842 0
M  V30 3482 C 330.579 2.29012 -0.0927297 0
M  V30 3483 C 331.579 1.45992 0.674025 0
M  V30 3484 O 332.769 1.66749 0.50402 0
M  V30 3485 C 329.901 3.29396 0.878137 0
M  V30 3486 H 331.094 2.86729 -0.879011 0
M  V30 3487 H 328.647 1.48293 -0.493847 0
M  V30 3488 H 329.382 2.76722 1.69101 0
M  V30 3489 H 329.167 3.907 0.331051 0
M  V30 3490 H 330.657 3.96199 1.3197 0
M  V30 3491 N 331.094 0.475555 1.50254 0
M  V30 3492 C 332.041 -0.316293 2.28622 0
M  V30 3493 C 333.011 -0.983227 1.33873 0
M  V30 3494 O 334.196 -0.994805 1.62814 0
M  V30 3495 C 331.336 -1.38975 3.1588 0
M  V30 3496 C 330.449 -0.737146 4.25664 0
M  V30 3497 C 329.584 -1.78887 5.00173 0
M  V30 3498 C 328.623 -1.11676 6.01826 0
M  V30 3499 N 327.76 -2.11154 6.69596 0
M  V30 3500 H 332.6 0.358297 2.95838 0
M  V30 3501 H 330.137 0.188541 1.45887 0
M  V30 3502 H 332.095 -2.02383 3.64825 0
M  V30 3503 H 330.725 -2.03344 2.50701 0
M  V30 3504 H 329.777 0.0096065 3.80399 0
M  V30 3505 H 331.089 -0.206816 4.98371 0
M  V30 3506 H 330.243 -2.49865 5.52859 0
M  V30 3507 H 328.982 -2.35302 4.27182 0
M  V30 3508 H 327.987 -0.392633 5.48396 0
M  V30 3509 H 329.212 -0.55945 6.76792 0
M  V30 3510 H 327.158 -2.66577 5.99394 0
M  V30 3511 H 327.075 -1.63118 7.38193 0
M  V30 3512 H 328.343 -2.81497 7.26897 0
M  V30 3513 N 332.573 -1.56217 0.208337 0
M  V30 3514 C 333.536 -2.18455 -0.693557 0
M  V30 3515 C 334.536 -1.14268 -1.13135 0
M  V30 3516 O 335.726 -1.39577 -1.0423 0
M  V30 3517 C 332.858 -2.79727 -1.94848 0
M  V30 3518 H 334.051 -2.99519 -0.15114 0
M  V30 3519 H 331.604 -1.56245 -0.041287 0
M  V30 3520 H 332.339 -2.02497 -2.53309 0
M  V30 3521 H 332.124 -3.56009 -1.64316 0
M  V30 3522 H 333.614 -3.27475 -2.59133 0
M  V30 3523 N 334.051 0.0651679 -1.57465 0
M  V30 3524 C 335.297 0.764193 -1.87851 0
M  V30 3525 C 335.63 1.76889 -0.801495 0
M  V30 3526 O 334.905 1.93594 0.187528 0
M  V30 3527 C 335.188 1.46625 -3.28897 0
M  V30 3528 C 335.041 0.477515 -4.47258 0
M  V30 3529 C 336.36 2.4095 -3.68281 0
M  V30 3530 H 333.479 0.276351 -0.683227 0
M  V30 3531 H 336.121 0.0272868 -1.8998 0
M  V30 3532 H 334.271 2.09438 -3.27212 0
M  V30 3533 H 335.943 -0.145922 -4.61069 0
M  V30 3534 H 334.186 -0.206576 -4.33308 0
M  V30 3535 H 334.857 1.0065 -5.42746 0
M  V30 3536 H 337.333 1.88209 -3.71102 0
M  V30 3537 H 336.209 2.87072 -4.67847 0
M  V30 3538 H 336.47 3.26049 -2.98571 0
M  V30 3539 N 335.529 1.53961 0.336706 0
M  V30 3540 C 336.476 1.82428 1.41381 0
M  V30 3541 C 337.446 0.670444 1.51968 0
M  V30 3542 O 338.631 0.915565 1.67398 0
M  V30 3543 C 335.771 2.04564 2.77934 0
M  V30 3544 C 334.884 3.32267 2.76084 0
M  V30 3545 C 334.019 3.44434 4.04399 0
M  V30 3546 C 333.058 4.66061 3.96804 0
M  V30 3547 N 332.195 4.75224 5.16823 0
M  V30 3548 H 337.035 2.74324 1.16405 0
M  V30 3549 H 334.572 1.35869 0.563752 0
M  V30 3550 H 336.53 2.15388 3.57301 0
M  V30 3551 H 335.16 1.15974 3.01247 0
M  V30 3552 H 334.212 3.3025 1.88784 0
M  V30 3553 H 335.524 4.21733 2.66351 0
M  V30 3554 H 334.678 3.54728 4.92192 0
M  V30 3555 H 333.417 2.53037 4.16921 0
M  V30 3556 H 332.422 4.55838 3.07396 0
M  V30 3557 H 333.647 5.58829 3.85858 0
M  V30 3558 H 331.593 3.86739 5.29876 0
M  V30 3559 H 331.51 5.58636 5.09374 0
M  V30 3560 H 332.778 4.89835 6.06367 0
M  V30 3561 N 337.007 -0.598083 1.45811 0
M  V30 3562 C 337.917 -1.73632 1.57763 0
M  V30 3563 C 338.933 -1.67763 0.461676 0
M  V30 3564 O 340.109 -1.87949 0.723685 0
M  V30 3565 C 337.174 -3.10114 1.55018 0
M  V30 3566 C 336.235 -3.27364 2.77726 0
M  V30 3567 C 335.468 -4.57334 2.75102 0
M  V30 3568 O 335.691 -5.40258 1.8297 0
M  V30 3569 O 334.625 -4.77502 3.66437 0
M  V30 3570 H 338.451 -1.66498 2.53992 0
M  V30 3571 H 336.036 -0.763308 1.28429 0
M  V30 3572 H 337.918 -3.9141 1.56129 0
M  V30 3573 H 336.593 -3.17718 0.619431 0
M  V30 3574 H 335.5 -2.45619 2.82174 0
M  V30 3575 H 336.833 -3.24641 3.69958 0
M  V30 3576 N 338.485 -1.33259 -0.841409 0
M  V30 3577 C 339.901 -1.12538 -1.13169 0
M  V30 3578 C 340.101 0.0854037 -2.01319 0
M  V30 3579 O 339.157 0.766417 -2.40587 0
M  V30 3580 C 340.47 -2.41156 -1.79623 0
M  V30 3581 C 342.018 -2.47038 -1.922 0
M  V30 3582 C 342.493 -3.7561 -2.6207 0
M  V30 3583 N 343.984 -3.76667 -2.69585 0
M  V30 3584 C 344.719 -4.72861 -3.2433 0
M  V30 3585 N 344.215 -5.79428 -3.79783 0
M  V30 3586 N 346.008 -4.6034 -3.22558 0
M  V30 3587 H 338.159 -2.10868 -0.254676 0
M  V30 3588 H 340.422 -0.931615 -0.175493 0
M  V30 3589 H 340.128 -3.29747 -1.22311 0
M  V30 3590 H 340.002 -2.53114 -2.79666 0
M  V30 3591 H 342.389 -1.58898 -2.48667 0
M  V30 3592 H 342.47 -2.39022 -0.911148 0
M  V30 3593 H 342.114 -4.64131 -2.06263 0
M  V30 3594 H 342.044 -3.80902 -3.63622 0
M  V30 3595 H 344.535 -2.99648 -2.30259 0
M  V30 3596 H 344.848 -6.48867 -4.19752 0
M  V30 3597 H 343.193 -5.83166 -3.78078 0
M  V30 3598 H 346.384 -3.76244 -2.78492 0
M  V30 3599 H 346.557 -5.35478 -3.64921 0
M  V30 3600 N 339.963 1.05934 -1.16686 0
M  V30 3601 C 341.193 1.82226 -0.973515 0
M  V30 3602 C 341.601 1.8297 0.481532 0
M  V30 3603 O 340.944 1.25009 1.34604 0
M  V30 3604 C 341.006 3.29897 -1.42858 0
M  V30 3605 C 340.67 3.52849 -2.90425 0
M  V30 3606 C 341.667 3.45595 -3.88407 0
M  V30 3607 C 339.352 3.80053 -3.28428 0
M  V30 3608 C 341.346 3.65217 -5.22394 0
M  V30 3609 C 339.033 3.99325 -4.62583 0
M  V30 3610 C 340.031 3.91905 -5.59374 0
M  V30 3611 O 339.719 4.10647 -6.91104 0
M  V30 3612 H 339.451 0.581314 -0.345036 0
M  V30 3613 H 342.005 1.3453 -1.55212 0
M  V30 3614 H 340.235 3.78472 -0.793477 0
M  V30 3615 H 341.924 3.87692 -1.20207 0
M  V30 3616 H 342.69 3.24564 -3.60393 0
M  V30 3617 H 338.569 3.84936 -2.53664 0
M  V30 3618 H 342.113 3.59341 -5.9793 0
M  V30 3619 H 338.01 4.19846 -4.90306 0
M  V30 3620 H 338.778 4.27915 -6.97733 0
M  V30 3621 N 341.441 0.965919 1.2453 0
M  V30 3622 C 342.666 0.643971 1.97149 0
M  V30 3623 C 343.091 -0.779487 1.71189 0
M  V30 3624 O 342.449 -1.5288 0.974553 0
M  V30 3625 C 342.497 0.922557 3.48599 0
M  V30 3626 O 341.601 0.00707672 4.12399 0
M  V30 3627 H 340.942 0.243647 0.617683 0
M  V30 3628 H 343.472 1.29558 1.58353 0
M  V30 3629 H 343.482 0.853373 3.98976 0
M  V30 3630 H 342.157 1.95996 3.66822 0
M  V30 3631 H 340.734 0.12943 3.72675 0
M  V30 3632 N 342.919 -1.39368 0.735821 0
M  V30 3633 C 344.149 -2.04498 0.293967 0
M  V30 3634 C 344.557 -1.55593 -1.07645 0
M  V30 3635 O 343.9 -0.716324 -1.69158 0
M  V30 3636 C 343.962 -3.58836 0.218342 0
M  V30 3637 C 343.626 -4.30721 1.52736 0
M  V30 3638 C 344.623 -4.57305 2.47322 0
M  V30 3639 C 342.308 -4.69251 1.79189 0
M  V30 3640 C 344.302 -5.21429 3.66593 0
M  V30 3641 C 341.989 -5.33104 2.98737 0
M  V30 3642 C 342.987 -5.59125 3.9226 0
M  V30 3643 O 342.675 -6.21653 5.09708 0
M  V30 3644 H 342.407 -0.664118 0.126189 0
M  V30 3645 H 344.961 -1.79385 1.00051 0
M  V30 3646 H 343.191 -3.8285 -0.544314 0
M  V30 3647 H 344.88 -4.05447 -0.191626 0
M  V30 3648 H 345.646 -4.27983 2.28156 0
M  V30 3649 H 341.525 -4.48354 1.07239 0
M  V30 3650 H 345.069 -5.41656 4.39607 0
M  V30 3651 H 340.966 -5.61846 3.17803 0
M  V30 3652 H 341.734 -6.40146 5.10054 0
M  V30 3653 N 344.397 -0.483516 -1.5 0
M  V30 3654 C 345.643 0.0672592 -2.02688 0
M  V30 3655 C 345.976 1.38247 -1.36387 0
M  V30 3656 O 345.251 1.88131 -0.493675 0
M  V30 3657 C 345.534 0.238109 -3.59312 0
M  V30 3658 C 345.387 -1.099 -4.36168 0
M  V30 3659 C 346.706 0.986916 -4.28892 0
M  V30 3660 H 343.825 0.0229696 -0.736642 0
M  V30 3661 H 346.467 -0.631527 -1.79197 0
M  V30 3662 H 344.617 0.8333 -3.79458 0
M  V30 3663 H 346.289 -1.73172 -4.27562 0
M  V30 3664 H 344.532 -1.69261 -3.99416 0
M  V30 3665 H 345.203 -0.932954 -5.44059 0
M  V30 3666 H 347.679 0.482302 -4.13295 0
M  V30 3667 H 346.555 1.07527 -5.38265 0
M  V30 3668 H 346.816 2.0265 -3.92919 0
M  V30 3669 N 345.875 1.56104 -0.216619 0
M  V30 3670 C 347.115 2.00074 0.418322 0
M  V30 3671 C 347.479 1.10098 1.57297 0
M  V30 3672 O 348.68 1.43393 2.27359 0
M  V30 3673 C 346.951 3.47231 0.846477 0
M  V30 3674 S 348.51 4.13223 1.47622 0
M  V30 3675 H 345.328 0.698457 0.132962 0
M  V30 3676 H 347.93 1.92784 -0.324748 0
M  V30 3677 H 346.634 4.104 -0.0036319 0
M  V30 3678 H 346.165 3.58384 1.62248 0
M  V30 3679 H 348.18 4.12005 2.76526 0
M  V30 3680 N 347.353 -0.0568162 1.57498 0
M  V30 3681 C 348.764 -0.606858 1.76562 0
M  V30 3682 C 349.115 -1.77114 0.844094 0
M  V30 3683 O 348.24 -2.16376 0.0318911 0
M  V30 3684 C 348.835 -1.10766 3.20182 0
M  V30 3685 C 347.394 -1.60344 3.40539 0
M  V30 3686 C 346.541 -0.529311 2.72201 0
M  V30 3687 H 349.492 0.169393 1.57793 0
M  V30 3688 H 349.513 -1.97602 3.25167 0
M  V30 3689 H 349.025 -0.26006 3.87228 0
M  V30 3690 H 347.126 -2.47379 2.78629 0
M  V30 3691 H 347.239 -1.67006 4.4905 0
M  V30 3692 H 345.603 -0.977893 2.35179 0
M  V30 3693 H 346.386 0.308352 3.41912 0
M  V30 3694 N 348.832 -1.54138 -0.328536 0
M  V30 3695 C 350.109 -1.62749 -1.08499 0
M  V30 3696 C 350.489 -0.458198 -2.06067 0
M  V30 3697 O 349.837 0.548046 -2.2183 0
M  V30 3698 C 350.047 -2.99519 -1.79135 0
M  V30 3699 C 351.395 -3.55394 -2.32337 0
M  V30 3700 O 352.419 -3.01792 -1.89209 0
M  V30 3701 O 351.278 -4.49186 -3.11279 0
M  V30 3702 H 348.372 -0.65886 -0.499832 0
M  V30 3703 H 350.918 -1.66484 -0.328826 0
M  V30 3704 H 349.69 -3.76061 -1.08139 0
M  V30 3705 H 349.313 -2.99441 -2.61574 0
M  V30 3706 N 350.31 0.590341 -1.46126 0
M  V30 3707 C 351.24 1.71032 -1.58966 0
M  V30 3708 C 352.221 1.64302 -0.440335 0
M  V30 3709 O 353.406 1.82436 -0.665634 0
M  V30 3710 C 350.536 3.09665 -1.57241 0
M  V30 3711 C 349.49 3.31221 -2.71066 0
M  V30 3712 C 348.816 4.70303 -2.54399 0
M  V30 3713 C 350.116 3.19796 -4.1295 0
M  V30 3714 H 351.81 1.60543 -2.52718 0
M  V30 3715 H 349.356 0.770933 -1.21625 0
M  V30 3716 H 351.309 3.87831 -1.64819 0
M  V30 3717 H 350.033 3.21036 -0.600289 0
M  V30 3718 H 348.692 2.55452 -2.62944 0
M  V30 3719 H 348.34 4.78429 -1.55288 0
M  V30 3720 H 348.04 4.85679 -3.30741 0
M  V30 3721 H 349.564 5.50647 -2.63857 0
M  V30 3722 H 350.978 3.87815 -4.22223 0
M  V30 3723 H 349.375 3.46696 -4.89818 0
M  V30 3724 H 350.445 2.16983 -4.33643 0
M  V30 3725 N 351.788 1.33704 0.83433 0
M  V30 3726 C 353.034 1.25603 1.59222 0
M  V30 3727 C 353.367 -0.176659 1.93395 0
M  V30 3728 O 352.642 -1.11915 1.59076 0
M  V30 3729 C 352.925 2.13576 2.89926 0
M  V30 3730 C 352.778 3.65326 2.62406 0
M  V30 3731 C 354.097 2.01238 3.91397 0
M  V30 3732 H 351.216 0.457613 0.577719 0
M  V30 3733 H 353.858 1.63848 0.961972 0
M  V30 3734 H 352.008 1.8109 3.43713 0
M  V30 3735 H 353.68 4.08124 2.15017 0
M  V30 3736 H 351.923 3.8698 1.96033 0
M  V30 3737 H 352.594 4.22232 3.55562 0
M  V30 3738 H 355.07 2.29738 3.46929 0
M  V30 3739 H 353.946 2.65036 4.80673 0
M  V30 3740 H 354.207 0.985951 4.30966 0
M  V30 3741 N 353.266 -1.05314 1.17247 0
M  V30 3742 C 354.213 -2.13031 0.888058 0
M  V30 3743 C 355.183 -1.65253 -0.167537 0
M  V30 3744 O 356.368 -1.90775 -0.0305974 0
M  V30 3745 C 353.508 -3.42702 0.406147 0
M  V30 3746 C 352.621 -4.04161 1.52572 0
M  V30 3747 C 351.756 -5.21744 0.997808 0
M  V30 3748 C 350.795 -5.75207 2.09291 0
M  V30 3749 N 349.932 -6.84094 1.57986 0
M  V30 3750 H 354.772 -2.36698 1.81048 0
M  V30 3751 H 352.309 -1.16121 0.903013 0
M  V30 3752 H 354.267 -4.17059 0.108305 0
M  V30 3753 H 352.897 -3.19222 -0.479313 0
M  V30 3754 H 351.949 -3.27253 1.93931 0
M  V30 3755 H 353.261 -4.39881 2.35172 0
M  V30 3756 H 352.415 -6.03168 0.653739 0
M  V30 3757 H 351.154 -4.87495 0.141232 0
M  V30 3758 H 350.159 -4.92414 2.44557 0
M  V30 3759 H 351.384 -6.11505 2.95362 0
M  V30 3760 H 349.33 -6.51745 0.74598 0
M  V30 3761 H 349.247 -7.18811 2.34195 0
M  V30 3762 H 350.515 -7.69172 1.26468 0
M  V30 3763 N 354.744 -0.972509 -1.24016 0
M  V30 3764 C 355.654 -0.5143 -2.28893 0
M  V30 3765 C 356.67 0.427078 -1.68677 0
M  V30 3766 O 357.846 0.298939 -1.99169 0
M  V30 3767 C 354.911 0.183598 -3.46214 0
M  V30 3768 C 353.972 -0.798202 -4.21814 0
M  V30 3769 C 353.205 -0.133514 -5.33533 0
M  V30 3770 O 353.428 1.07714 -5.60137 0
M  V30 3771 O 352.362 -0.828103 -5.96176 0
M  V30 3772 H 356.188 -1.38629 -2.70214 0
M  V30 3773 H 353.773 -0.739769 -1.29799 0
M  V30 3774 H 355.655 0.575433 -4.17453 0
M  V30 3775 H 354.33 1.03048 -3.0686 0
M  V30 3776 H 353.237 -1.24059 -3.52931 0
M  V30 3777 H 354.57 -1.61364 -4.64997 0
M  V30 3778 N 356.222 1.38976 -0.743202 0
M  V30 3779 C 357.469 2.00343 -0.294752 0
M  V30 3780 C 357.797 1.58983 1.12047 0
M  V30 3781 O 357.052 0.813809 1.77977 0
M  V30 3782 C 357.351 3.55647 -0.353517 0
M  V30 3783 C 357.017 4.16685 -1.72292 0
M  V30 3784 C 355.679 4.3307 -2.09771 0
M  V30 3785 C 358.031 4.50464 -2.62168 0
M  V30 3786 C 355.359 4.80526 -3.36618 0
M  V30 3787 C 357.711 4.99332 -3.88395 0
M  V30 3788 C 356.375 5.13924 -4.25956 0
M  V30 3789 H 355.645 0.733108 -0.107857 0
M  V30 3790 H 358.292 1.6618 -0.951651 0
M  V30 3791 H 356.597 3.89884 0.386954 0
M  V30 3792 H 358.294 4.00998 0.0117269 0
M  V30 3793 H 354.884 4.04339 -1.42155 0
M  V30 3794 H 359.068 4.37416 -2.3448 0
M  V30 3795 H 354.324 4.90008 -3.65653 0
M  V30 3796 H 358.498 5.2444 -4.58187 0
M  V30 3797 H 356.125 5.50457 -5.2431 0
M  V30 3798 N 357.7 0.491464 1.49741 0
M  V30 3799 C 358.648 -0.305837 2.30581 0
M  V30 3800 C 359.642 -0.971642 1.38764 0
M  V30 3801 O 360.848 -0.90042 1.5586 0
M  V30 3802 H 357.223 -0.117482 0.742767 0
M  V30 3803 H 359.194 0.396093 2.95759 0
M  V30 3804 C 357.943 -1.36319 3.19863 0
M  V30 3805 H 357.266 -0.860258 3.90435 0
M  V30 3806 H 358.706 -1.89323 3.79385 0
M  V30 3807 C 357.165 -2.37621 2.38826 0
M  V30 3808 O 357.695 -3.43311 2.08567 0
M  V30 3809 N 355.901 -2.09849 2.01026 0
M  V30 3810 H 355.448 -1.23922 2.25834 0
M  V30 3811 H 355.406 -2.77859 1.47112 0
M  V30 3812 N 359.178 -1.55987 0.224894 0
M  V30 3813 C 360.125 -2.20436 -0.68385 0
M  V30 3814 C 361.095 -1.16102 -1.18783 0
M  V30 3815 O 362.28 -1.4447 -1.24632 0
M  V30 3816 C 359.42 -2.89076 -1.88491 0
M  V30 3817 C 358.533 -4.08012 -1.41951 0
M  V30 3818 C 357.668 -4.64426 -2.5784 0
M  V30 3819 C 356.707 -5.75656 -2.08053 0
M  V30 3820 N 355.844 -6.26347 -3.17227 0
M  V30 3821 H 360.684 -2.97727 -0.12754 0
M  V30 3822 H 358.221 -1.47011 -0.0511978 0
M  V30 3823 H 360.179 -3.27059 -2.59014 0
M  V30 3824 H 358.809 -2.14298 -2.41405 0
M  V30 3825 H 357.861 -3.75492 -0.609095 0
M  V30 3826 H 359.173 -4.88375 -1.01447 0
M  V30 3827 H 358.327 -5.04869 -3.3644 0
M  V30 3828 H 357.066 -3.83233 -3.01635 0
M  V30 3829 H 356.071 -5.34712 -1.27916 0
M  V30 3830 H 357.296 -6.58686 -1.65255 0
M  V30 3831 H 355.242 -5.48067 -3.60497 0
M  V30 3832 H 355.159 -7.01843 -2.80986 0
M  V30 3833 H 356.427 -6.71447 -3.95953 0
M  V30 3834 N 360.656 0.0484629 -1.57525 0
M  V30 3835 C 361.886 0.754326 -1.92337 0
M  V30 3836 C 362.294 1.70443 -0.82132 0
M  V30 3837 O 361.637 1.82466 0.21254 0
M  V30 3838 C 361.699 1.58231 -3.22805 0
M  V30 3839 C 361.363 0.799074 -4.4996 0
M  V30 3840 C 362.36 0.1079 -5.19788 0
M  V30 3841 C 360.045 0.759345 -4.96527 0
M  V30 3842 C 362.039 -0.612516 -6.3445 0
M  V30 3843 C 359.726 0.0351713 -6.1109 0
M  V30 3844 C 360.724 -0.649537 -6.79904 0
M  V30 3845 O 360.412 -1.36199 -7.92278 0
M  V30 3846 H 360.144 0.218257 -0.639797 0
M  V30 3847 H 362.698 0.0159295 -2.05394 0
M  V30 3848 H 360.928 2.36406 -3.06021 0
M  V30 3849 H 362.617 2.16898 -3.43089 0
M  V30 3850 H 363.383 0.129748 -4.84826 0
M  V30 3851 H 359.262 1.28177 -4.42822 0
M  V30 3852 H 362.806 -1.14751 -6.88097 0
M  V30 3853 H 358.703 0.0113314 -6.45499 0
M  V30 3854 H 359.471 -1.27366 -8.0853 0
M  V30 3855 N 362.134 1.5431 0.320358 0
M  V30 3856 C 363.411 1.63322 1.07635 0
M  V30 3857 C 363.791 0.46912 2.05821 0
M  V30 3858 O 363.139 -0.536274 2.22118 0
M  V30 3859 C 363.349 3.00465 1.77544 0
M  V30 3860 C 364.697 3.56621 2.30449 0
M  V30 3861 O 365.721 3.02791 1.87606 0
M  V30 3862 O 364.58 4.5083 3.08892 0
M  V30 3863 H 361.674 0.661502 0.496331 0
M  V30 3864 H 364.22 1.66656 0.319992 0
M  V30 3865 H 362.992 3.76629 1.06143 0
M  V30 3866 H 362.615 3.00824 2.59982 0
M  V30 3867 N 363.613 -0.582584 1.46437 0
M  V30 3868 C 364.841 -1.36682 1.55324 0
M  V30 3869 C 365.256 -1.87796 0.194409 0
M  V30 3870 O 364.613 -1.63623 -0.808318 0
M  V30 3871 C 364.664 -2.55426 2.55812 0
M  V30 3872 O 364.385 -2.0643 3.86417 0
M  V30 3873 C 365.886 -3.47976 2.74641 0
M  V30 3874 H 363.106 -0.417545 0.525259 0
M  V30 3875 H 365.65 -0.708219 1.91845 0
M  V30 3876 H 363.805 -3.17275 2.22295 0
M  V30 3877 H 364.219 -2.83762 4.41111 0
M  V30 3878 H 365.693 -4.27775 3.48874 0
M  V30 3879 H 366.17 -3.99919 1.81553 0
M  V30 3880 H 366.776 -2.91962 3.09255 0
M  V30 3881 N 365.091 -1.34144 -0.827227 0
M  V30 3882 C 366.368 -1.16844 -1.56865 0
M  V30 3883 C 366.748 0.260654 -2.09485 0
M  V30 3884 O 366.096 1.26138 -1.9053 0
M  V30 3885 C 366.306 -2.21939 -2.6934 0
M  V30 3886 C 367.654 -2.56695 -3.3822 0
M  V30 3887 O 368.678 -2.20695 -2.79593 0
M  V30 3888 O 367.537 -3.18518 -4.44082 0
M  V30 3889 H 364.631 -0.452669 -0.692112 0
M  V30 3890 H 367.177 -1.45763 -0.868973 0
M  V30 3891 H 365.949 -3.17882 -2.28182 0
M  V30 3892 H 365.572 -1.94172 -3.46962 0
M  V30 3893 N 366.569 1.04691 -1.17803 0
M  V30 3894 C 367.817 1.7743 -0.967617 0
M  V30 3895 C 368.138 1.88359 0.504574 0
M  V30 3896 O 367.408 1.40402 1.36617 0
M  V30 3897 H 365.988 0.657242 -0.355024 0
M  V30 3898 H 368.65 1.2638 -1.48371 0
M  V30 3899 H 367.746 2.78924 -1.40027 0
M  V30 3900 N 368.047 0.979072 1.23499 0
M  V30 3901 C 369.272 0.664845 1.96455 0
M  V30 3902 C 369.697 -0.761287 1.72006 0
M  V30 3903 O 369.055 -1.51837 0.990713 0
M  V30 3904 C 369.103 0.959479 3.47601 0
M  V30 3905 O 368.207 0.0508168 4.12369 0
M  V30 3906 H 367.548 0.250185 0.615064 0
M  V30 3907 H 370.078 1.31231 1.5697 0
M  V30 3908 H 370.088 0.895642 3.98048 0
M  V30 3909 H 368.763 1.99876 3.64723 0
M  V30 3910 H 367.34 0.16895 3.72517 0
M  V30 3911 N 369.525 -1.3858 0.750561 0
M  V30 3912 C 370.472 -2.30483 0.120835 0
M  V30 3913 C 371.442 -1.50022 -0.712923 0
M  V30 3914 O 372.627 -1.78662 -0.669676 0
M  V30 3915 C 369.767 -3.36431 -0.768666 0
M  V30 3916 C 368.88 -4.31927 0.0793922 0
M  V30 3917 C 368.015 -5.24944 -0.81283 0
M  V30 3918 C 367.054 -6.12088 0.0390447 0
M  V30 3919 N 366.191 -6.97412 -0.809969 0
M  V30 3920 H 371.031 -2.83761 0.91015 0
M  V30 3921 H 368.568 -1.39707 0.460463 0
M  V30 3922 H 370.526 -3.96462 -1.29898 0
M  V30 3923 H 369.156 -2.8457 -1.5238 0
M  V30 3924 H 368.208 -3.73382 0.727303 0
M  V30 3925 H 369.52 -4.93319 0.737401 0
M  V30 3926 H 368.674 -5.90078 -1.41042 0
M  V30 3927 H 367.413 -4.63911 -1.50458 0
M  V30 3928 H 366.418 -5.45952 0.649328 0
M  V30 3929 H 367.643 -6.75189 0.727809 0
M  V30 3930 H 365.589 -6.38931 -1.48672 0
M  V30 3931 H 365.506 -7.55712 -0.208789 0
M  V30 3932 H 366.774 -7.66959 -1.39263 0
M  V30 3933 N 371.003 -0.499398 -1.49478 0
M  V30 3934 C 372.249 0.0377587 -2.03365 0
M  V30 3935 C 372.604 1.3484 -1.37244 0
M  V30 3936 O 371.897 1.85 -0.498547 0
M  V30 3937 C 372.091 0.248424 -3.56536 0
M  V30 3938 C 371.92 -1.04025 -4.37503 0
M  V30 3939 C 370.69 -1.59159 -4.79579 0
M  V30 3940 C 372.888 -1.9431 -4.76181 0
M  V30 3941 N 370.87 -2.82634 -5.44969 0
M  V30 3942 C 372.241 -3.02364 -5.41272 0
M  V30 3943 C 374.296 -1.95008 -4.58123 0
M  V30 3944 C 372.999 -4.1114 -5.90217 0
M  V30 3945 C 375.025 -3.02758 -5.08027 0
M  V30 3946 C 374.387 -4.09531 -5.73118 0
M  V30 3947 H 370.486 -0.026923 -0.781536 0
M  V30 3948 H 373.07 -0.673901 -1.82665 0
M  V30 3949 H 371.241 0.929139 -3.77123 0
M  V30 3950 H 372.973 0.782445 -3.97064 0
M  V30 3951 H 369.728 -1.13696 -4.5975 0
M  V30 3952 H 370.152 -3.45416 -5.82252 0
M  V30 3953 H 374.794 -1.13766 -4.07207 0
M  V30 3954 H 372.512 -4.93181 -6.40155 0
M  V30 3955 H 376.098 -3.04315 -4.95866 0
M  V30 3956 H 374.978 -4.91534 -6.11035 0
M  V30 3957 N 372.481 1.55866 -0.233164 0
M  V30 3958 C 373.73 1.97779 0.39579 0
M  V30 3959 C 374.043 1.12419 1.60066 0
M  V30 3960 O 375.249 1.44283 2.29988 0
M  V30 3961 C 373.705 3.5188 0.755556 0
M  V30 3962 C 373.313 4.45959 -0.427152 0
M  V30 3963 C 375.057 4.02479 1.34946 0
M  V30 3964 C 372.964 5.91383 -0.0443043 0
M  V30 3965 H 371.894 0.738592 0.15165 0
M  V30 3966 H 374.545 1.80486 -0.331212 0
M  V30 3967 H 372.927 3.64816 1.5403 0
M  V30 3968 H 374.101 4.44776 -1.20462 0
M  V30 3969 H 372.416 4.05765 -0.935068 0
M  V30 3970 H 375.013 5.08637 1.649 0
M  V30 3971 H 375.356 3.49014 2.26925 0
M  V30 3972 H 375.889 3.92813 0.62791 0
M  V30 3973 H 372.628 6.48857 -0.930874 0
M  V30 3974 H 372.148 5.95734 0.697238 0
M  V30 3975 H 373.827 6.45893 0.378334 0
M  V30 3976 N 373.959 -0.0401083 1.57549 0
M  V30 3977 C 374.906 -1.04413 2.05831 0
M  V30 3978 C 375.876 -1.36585 0.945184 0
M  V30 3979 O 377.061 -1.47112 1.21502 0
M  V30 3980 C 374.201 -2.34336 2.53339 0
M  V30 3981 C 373.314 -2.08419 3.78398 0
M  V30 3982 C 372.449 -3.32133 4.14561 0
M  V30 3983 C 371.488 -3.01721 5.3257 0
M  V30 3984 N 370.625 -4.17855 5.64218 0
M  V30 3985 H 375.465 -0.625442 2.91363 0
M  V30 3986 H 373.002 -0.297218 1.44066 0
M  V30 3987 H 374.96 -3.10234 2.78946 0
M  V30 3988 H 373.59 -2.73948 1.7074 0
M  V30 3989 H 372.642 -1.23069 3.59942 0
M  V30 3990 H 373.954 -1.81978 4.64419 0
M  V30 3991 H 373.108 -4.16406 4.41238 0
M  V30 3992 H 371.847 -3.61678 3.2717 0
M  V30 3993 H 370.852 -2.15849 5.05657 0
M  V30 3994 H 372.077 -2.73466 6.21605 0
M  V30 3995 H 370.023 -4.47372 4.79786 0
M  V30 3996 H 369.94 -3.94798 6.44725 0
M  V30 3997 H 371.208 -5.03033 5.95465 0
M  V30 3998 N 375.437 -1.54477 -0.31217 0
M  V30 3999 C 376.369 -1.81011 -1.40598 0
M  V30 4000 C 377.382 -0.692546 -1.47335 0
M  V30 4001 O 378.571 -0.969847 -1.49854 0
M  V30 4002 C 375.671 -1.92307 -2.79054 0
M  V30 4003 C 374.844 -3.22594 -2.95384 0
M  V30 4004 C 373.903 -3.24448 -4.1427 0
M  V30 4005 O 372.929 -3.98035 -4.06887 0
M  V30 4006 N 374.131 -2.49042 -5.24365 0
M  V30 4007 H 376.896 -2.75408 -1.18196 0
M  V30 4008 H 374.457 -1.53914 -0.502202 0
M  V30 4009 H 376.449 -1.90962 -3.56813 0
M  V30 4010 H 375.019 -1.04955 -2.94454 0
M  V30 4011 H 374.239 -3.36806 -2.04831 0
M  V30 4012 H 375.527 -4.08593 -3.03198 0
M  V30 4013 H 374.925 -1.88867 -5.33241 0
M  V30 4014 H 373.482 -2.53463 -6.005 0
M  V30 4015 N 376.915 0.57481 -1.46744 0
M  V30 4016 C 378.145 1.35659 -1.55821 0
M  V30 4017 C 378.553 1.88129 -0.201036 0
M  V30 4018 O 377.896 1.64723 0.813134 0
M  V30 4019 C 377.958 2.57473 -2.50894 0
M  V30 4020 C 377.622 2.26415 -3.9697 0
M  V30 4021 C 378.619 1.84771 -4.85958 0
M  V30 4022 C 376.304 2.38316 -4.42166 0
M  V30 4023 C 378.298 1.55434 -6.18158 0
M  V30 4024 C 375.985 2.08591 -5.74398 0
M  V30 4025 C 376.983 1.67216 -6.62214 0
M  V30 4026 O 376.671 1.37859 -7.91991 0
M  V30 4027 H 376.403 0.420496 -0.529301 0
M  V30 4028 H 378.957 0.704967 -1.92923 0
M  V30 4029 H 377.187 3.25468 -2.08824 0
M  V30 4030 H 378.876 3.19546 -2.50291 0
M  V30 4031 H 379.642 1.75085 -4.52295 0
M  V30 4032 H 375.521 2.69483 -3.74032 0
M  V30 4033 H 379.065 1.23065 -6.86659 0
M  V30 4034 H 374.962 2.17905 -6.07608 0
M  V30 4035 H 375.73 1.51638 -8.04331 0
M  V30 4036 N 378.394 1.34581 0.820102 0
M  V30 4037 C 379.622 1.3018 1.60813 0
M  V30 4038 C 380.037 -0.123551 1.88395 0
M  V30 4039 O 379.394 -1.07148 1.47735 0
M  V30 4040 C 379.445 2.09312 2.94739 0
M  V30 4041 O 379.166 3.46288 2.68358 0
M  V30 4042 C 380.667 2.1234 3.89136 0
M  V30 4043 H 377.887 0.447726 0.499782 0
M  V30 4044 H 380.431 1.77237 1.02017 0
M  V30 4045 H 378.586 1.65889 3.50085 0
M  V30 4046 H 379 3.87227 3.53774 0
M  V30 4047 H 380.474 2.72126 4.80262 0
M  V30 4048 H 380.951 1.11854 4.24718 0
M  V30 4049 H 381.557 2.55864 3.39726 0
M  V30 4050 N 379.872 -1.04064 1.18357 0
M  V30 4051 C 381.12 -1.76915 0.977013 0
M  V30 4052 C 381.441 -1.88624 -0.494577 0
M  V30 4053 O 380.711 -1.41125 -1.3587 0
M  V30 4054 H 379.291 -0.65535 0.358504 0
M  V30 4055 H 381.953 -1.25592 1.49039 0
M  V30 4056 H 381.049 -2.78178 1.41504 0
M  V30 4057 N 381.35 -0.985608 -1.22978 0
M  V30 4058 C 382.599 -0.652881 -1.90841 0
M  V30 4059 C 382.912 0.817842 -1.77681 0
M  V30 4060 O 384.118 1.26185 -2.40395 0
M  V30 4061 C 382.574 -1.11717 -3.42122 0
M  V30 4062 C 382.182 -2.6126 -3.63933 0
M  V30 4063 C 383.926 -0.85843 -4.1573 0
M  V30 4064 C 381.833 -3.0133 -5.08876 0
M  V30 4065 H 380.763 -0.240491 -0.714619 0
M  V30 4066 H 383.414 -1.1942 -1.39324 0
M  V30 4067 H 381.796 -0.504027 -3.92779 0
M  V30 4068 H 382.97 -3.27858 -3.23799 0
M  V30 4069 H 381.285 -2.84937 -3.03644 0
M  V30 4070 H 383.882 -1.13359 -5.22546 0
M  V30 4071 H 384.225 0.205461 -4.15793 0
M  V30 4072 H 384.758 -1.43341 -3.71077 0
M  V30 4073 H 381.497 -4.06864 -5.13947 0
M  V30 4074 H 381.017 -2.3943 -5.49939 0
M  V30 4075 H 382.696 -2.92224 -5.77247 0
M  V30 4076 N 382.828 1.3818 -0.7579 0
M  V30 4077 C 383.776 2.32277 -0.122482 0
M  V30 4078 C 384.77 1.54238 0.700505 0
M  V30 4079 O 385.976 1.69737 0.599119 0
M  V30 4080 H 382.351 0.751712 -0.0208143 0
M  V30 4081 H 384.322 2.83469 -0.932099 0
M  V30 4082 C 383.071 3.39447 0.753076 0
M  V30 4083 H 382.394 3.99591 0.129184 0
M  V30 4084 H 383.834 4.07684 1.16489 0
M  V30 4085 C 382.293 2.78375 1.8976 0
M  V30 4086 O 382.823 2.68025 2.99208 0
M  V30 4087 N 381.029 2.36121 1.69397 0
M  V30 4088 H 380.576 2.4474 0.803762 0
M  V30 4089 H 380.534 1.95602 2.46145 0
M  V30 4090 N 384.306 0.507319 1.49211 0
M  V30 4091 C 385.269 -0.256763 2.27757 0
M  V30 4092 C 386.269 -0.888287 1.34038 0
M  V30 4093 O 387.459 -0.751841 1.5714 0
M  V30 4094 C 384.591 -1.36905 3.12202 0
M  V30 4095 H 385.784 0.432557 2.96764 0
M  V30 4096 H 383.337 0.262488 1.5408 0
M  V30 4097 H 384.072 -2.09233 2.47775 0
M  V30 4098 H 383.857 -0.921599 3.81115 0
M  V30 4099 H 385.347 -1.9071 3.7151 0
M  V30 4100 N 385.784 -1.5574 0.241426 0
M  V30 4101 C 387.033 -1.97986 -0.385295 0
M  V30 4102 C 387.346 -1.13267 -1.59468 0
M  V30 4103 O 388.552 -1.45501 -2.2922 0
M  V30 4104 C 387.008 -3.52275 -0.736884 0
M  V30 4105 C 386.616 -4.45726 0.450796 0
M  V30 4106 C 388.36 -4.03189 -1.3281 0
M  V30 4107 C 386.267 -5.91352 0.0756662 0
M  V30 4108 H 385.197 -0.739386 -0.147731 0
M  V30 4109 H 387.848 -1.80308 0.340779 0
M  V30 4110 H 386.23 -3.65628 -1.52094 0
M  V30 4111 H 387.404 -4.44131 1.22819 0
M  V30 4112 H 385.719 -4.05264 0.956573 0
M  V30 4113 H 388.316 -5.09505 -1.62201 0
M  V30 4114 H 388.659 -3.50212 -2.25071 0
M  V30 4115 H 389.192 -3.93141 -0.607069 0
M  V30 4116 H 385.931 -6.48354 0.965272 0
M  V30 4117 H 385.451 -5.96095 -0.665635 0
M  V30 4118 H 387.13 -6.46084 -0.344075 0
M  V30 4119 N 387.262 0.0317525 -1.57568 0
M  V30 4120 C 388.487 0.738664 -1.938 0
M  V30 4121 C 388.912 1.68242 -0.841208 0
M  V30 4122 O 388.27 1.80157 0.203267 0
M  V30 4123 C 388.318 1.47417 -3.29091 0
M  V30 4124 O 387.422 2.5872 -3.2115 0
M  V30 4125 H 386.763 0.198856 -0.633524 0
M  V30 4126 H 389.293 -0.0119713 -2.04596 0
M  V30 4127 H 389.303 1.84468 -3.63917 0
M  V30 4128 H 387.978 0.781988 -4.08482 0
M  V30 4129 H 386.555 2.24231 -2.97951 0
M  V30 4130 N 388.74 1.54641 0.303973 0
M  V30 4131 C 389.687 1.85386 1.37479 0
M  V30 4132 C 390.657 0.702528 1.50512 0
M  V30 4133 O 391.842 0.950867 1.65418 0
M  V30 4134 C 388.982 2.10413 2.73533 0
M  V30 4135 C 388.095 3.38049 2.68974 0
M  V30 4136 C 387.23 3.52934 3.97002 0
M  V30 4137 C 386.269 4.74373 3.86829 0
M  V30 4138 N 385.406 4.8608 5.06627 0
M  V30 4139 H 390.246 2.76732 1.1056 0
M  V30 4140 H 387.783 1.37034 0.534805 0
M  V30 4141 H 389.741 2.22919 3.52652 0
M  V30 4142 H 388.371 1.22338 2.98719 0
M  V30 4143 H 387.423 3.3418 1.81736 0
M  V30 4144 H 388.735 4.27288 2.57346 0
M  V30 4145 H 387.889 3.65088 4.84557 0
M  V30 4146 H 386.628 2.61824 4.1146 0
M  V30 4147 H 385.633 4.62255 2.97658 0
M  V30 4148 H 386.858 5.66888 3.73918 0
M  V30 4149 H 384.804 3.97891 5.21554 0
M  V30 4150 H 384.721 5.69315 4.9741 0
M  V30 4151 H 385.989 5.02587 5.95841 0
M  V30 4152 N 390.218 -0.567019 1.47046 0
M  V30 4153 C 391.165 -1.67489 1.58796 0
M  V30 4154 C 392.135 -1.60399 0.43144 0
M  V30 4155 O 393.32 -1.79378 0.650233 0
M  V30 4156 C 390.46 -3.05821 1.59899 0
M  V30 4157 C 389.573 -3.2342 2.86397 0
M  V30 4158 C 388.708 -4.52093 2.789 0
M  V30 4159 C 387.747 -4.6309 4.00267 0
M  V30 4160 N 386.884 -5.83106 3.91064 0
M  V30 4161 H 391.724 -1.56785 2.53422 0
M  V30 4162 H 389.261 -0.763896 1.2571 0
M  V30 4163 H 391.219 -3.8591 1.58522 0
M  V30 4164 H 389.849 -3.15384 0.687929 0
M  V30 4165 H 388.901 -2.3683 2.97684 0
M  V30 4166 H 390.213 -3.27412 3.76301 0
M  V30 4167 H 389.367 -5.4043 2.75718 0
M  V30 4168 H 388.106 -4.50565 1.86662 0
M  V30 4169 H 387.111 -3.73168 4.03765 0
M  V30 4170 H 388.336 -4.66386 4.93621 0
M  V30 4171 H 386.282 -5.82546 3.01623 0
M  V30 4172 H 386.199 -5.88434 4.74638 0
M  V30 4173 H 387.467 -6.73831 3.91882 0
M  V30 4174 N 391.696 -1.35014 -0.812953 0
M  V30 4175 C 392.606 -1.2951 -1.95613 0
M  V30 4176 C 393.622 -0.20107 -1.72834 0
M  V30 4177 O 394.798 -0.42932 -1.96771 0
M  V30 4178 C 391.863 -1.06033 -3.30088 0
M  V30 4179 C 390.924 -2.24688 -3.65805 0
M  V30 4180 C 390.157 -2.02322 -4.93864 0
M  V30 4181 O 390.38 -0.986464 -5.61805 0
M  V30 4182 O 389.314 -2.89525 -5.27692 0
M  V30 4183 H 393.14 -2.25705 -2.03202 0
M  V30 4184 H 390.725 -1.15321 -0.949811 0
M  V30 4185 H 392.607 -0.94763 -4.10607 0
M  V30 4186 H 391.282 -0.128852 -3.23443 0
M  V30 4187 H 390.189 -2.41521 -2.85689 0
M  V30 4188 H 391.522 -3.16261 -3.77147 0
M  V30 4189 N 393.175 1.03435 -1.18907 0
M  V30 4190 C 394.422 1.76743 -0.988334 0
M  V30 4191 C 394.75 1.88447 0.481441 0
M  V30 4192 O 394.005 1.39383 1.37371 0
M  V30 4193 C 394.304 3.19792 -1.59586 0
M  V30 4194 C 393.97 3.28108 -3.09283 0
M  V30 4195 C 392.632 3.30084 -3.5014 0
M  V30 4196 C 394.984 3.27696 -4.05296 0
M  V30 4197 C 392.312 3.29299 -4.85571 0
M  V30 4198 C 394.664 3.28451 -5.4065 0
M  V30 4199 C 393.328 3.28723 -5.80946 0
M  V30 4200 H 392.598 0.64675 -0.361657 0
M  V30 4201 H 395.245 1.21442 -1.48068 0
M  V30 4202 H 393.55 3.78136 -1.02568 0
M  V30 4203 H 395.247 3.75171 -1.41589 0
M  V30 4204 H 391.837 3.27294 -2.76725 0
M  V30 4205 H 396.021 3.25354 -3.74778 0
M  V30 4206 H 391.277 3.2783 -5.16079 0
M  V30 4207 H 395.451 3.27082 -6.14809 0
M  V30 4208 H 393.078 3.27868 -6.85862 0
M  V30 4209 N 394.653 0.992116 1.22453 0
M  V30 4210 C 395.878 0.685644 1.95739 0
M  V30 4211 C 396.303 -0.743 1.72804 0
M  V30 4212 O 395.661 -1.50778 1.00676 0
M  V30 4213 C 395.709 0.996293 3.46564 0
M  V30 4214 O 394.813 0.0945512 4.12292 0
M  V30 4215 H 394.154 0.256694 0.612376 0
M  V30 4216 H 396.684 1.32888 1.5557 0
M  V30 4217 H 396.694 0.93781 3.97076 0
M  V30 4218 H 395.369 2.03733 3.62582 0
M  V30 4219 H 393.946 0.208451 3.72317 0
M  V30 4220 N 396.131 -1.37776 0.765217 0
M  V30 4221 C 397.38 -1.99092 0.323307 0
M  V30 4222 C 397.693 -1.61434 -1.10446 0
M  V30 4223 O 398.899 -2.15805 -1.64743 0
M  V30 4224 C 397.355 -3.56019 0.527098 0
M  V30 4225 C 396.963 -4.0262 1.96471 0
M  V30 4226 C 398.707 -4.2424 0.148483 0
M  V30 4227 C 396.614 -5.52233 2.11644 0
M  V30 4228 H 395.544 -0.744846 0.117137 0
M  V30 4229 H 398.195 -1.57391 0.943417 0
M  V30 4230 H 396.577 -3.95667 -0.162372 0
M  V30 4231 H 397.751 -3.74234 2.68859 0
M  V30 4232 H 396.066 -3.47161 2.29931 0
M  V30 4233 H 398.663 -5.34159 0.240456 0
M  V30 4234 H 399.006 -4.06446 -0.900422 0
M  V30 4235 H 399.539 -3.89872 0.79025 0
M  V30 4236 H 396.278 -5.74945 3.1483 0
M  V30 4237 H 395.798 -5.82324 1.4373 0
M  V30 4238 H 397.477 -6.18106 1.91193 0
M  V30 4239 N 397.609 -0.515225 -1.4894 0
M  V30 4240 C 398.886 0.0879088 -1.95402 0
M  V30 4241 C 399.266 1.52745 -1.45712 0
M  V30 4242 O 398.614 2.18238 -0.677093 0
M  V30 4243 C 398.824 -0.0141055 -3.48997 0
M  V30 4244 C 400.172 0.152646 -4.24326 0
M  V30 4245 O 401.196 0.0604025 -3.56149 0
M  V30 4246 O 400.055 0.34384 -5.45417 0
M  V30 4247 H 397.149 0.0874636 -0.822362 0
M  V30 4248 H 399.695 -0.578775 -1.59525 0
M  V30 4249 H 398.467 -1.01745 -3.77841 0
M  V30 4250 H 398.09 0.692091 -3.9153 0
M  V30 4251 N 399.087 1.5561 -0.249682 0
M  V30 4252 C 400.333 1.99306 0.374841 0
M  V30 4253 C 400.666 1.13767 1.57387 0
M  V30 4254 O 399.941 0.201711 1.93451 0
M  V30 4255 C 400.224 3.51507 0.781986 0
M  V30 4256 C 400.077 4.4781 -0.422629 0
M  V30 4257 C 401.396 4.08884 1.62793 0
M  V30 4258 H 398.515 0.724572 0.134773 0
M  V30 4259 H 401.157 1.86719 -0.351549 0
M  V30 4260 H 399.307 3.62363 1.4009 0
M  V30 4261 H 400.979 4.48931 -1.06108 0
M  V30 4262 H 399.222 4.20518 -1.06524 0
M  V30 4263 H 399.893 5.51919 -0.0943766 0
M  V30 4264 H 402.369 4.01147 1.10547 0
M  V30 4265 H 401.245 5.1564 1.88166 0
M  V30 4266 H 401.506 3.57515 2.60068 0
M  V30 4267 N 400.565 -0.0233959 1.57583 0
M  V30 4268 C 401.813 -0.711654 1.89156 0
M  V30 4269 C 402.134 -1.75591 0.848096 0
M  V30 4270 O 401.404 -1.95547 -0.117566 0
M  V30 4271 H 399.984 -0.265835 0.698098 0
M  V30 4272 H 402.646 0.0119948 1.94896 0
M  V30 4273 H 401.742 -1.19766 2.88206 0
M  V30 4274 N 402.043 -1.548 -0.295768 0
M  V30 4275 C 403.273 -1.78069 -1.04762 0
M  V30 4276 C 403.681 -0.542847 -1.81245 0
M  V30 4277 O 403.024 0.497051 -1.76848 0
M  V30 4278 C 403.086 -2.93881 -2.07061 0
M  V30 4279 C 402.75 -4.31777 -1.49725 0
M  V30 4280 C 403.747 -5.11613 -0.924581 0
M  V30 4281 C 401.432 -4.78389 -1.5313 0
M  V30 4282 C 403.426 -6.36184 -0.393594 0
M  V30 4283 C 401.113 -6.02921 -0.996447 0
M  V30 4284 C 402.111 -6.81654 -0.428569 0
M  V30 4285 O 401.799 -8.0384 0.0981593 0
M  V30 4286 H 401.531 -0.597475 -0.316226 0
M  V30 4287 H 404.085 -2.02584 -0.338973 0
M  V30 4288 H 402.315 -2.65003 -2.81621 0
M  V30 4289 H 404.004 -3.04679 -2.6819 0
M  V30 4290 H 404.77 -4.76743 -0.891136 0
M  V30 4291 H 400.649 -4.17132 -1.9627 0
M  V30 4292 H 404.193 -6.97582 0.0503014 0
M  V30 4293 H 400.09 -6.37277 -1.02706 0
M  V30 4294 H 400.858 -8.18499 -0.0146455 0
M  V30 4295 N 403.521 0.559213 -1.47345 0
M  V30 4296 C 404.431 1.69388 -1.62311 0
M  V30 4297 C 405.447 1.6648 -0.505993 0
M  V30 4298 O 406.623 1.85964 -0.773262 0
M  V30 4299 C 403.688 3.05894 -1.63185 0
M  V30 4300 C 402.749 3.19885 -2.86307 0
M  V30 4301 C 401.982 4.49879 -2.87131 0
M  V30 4302 O 402.205 5.35217 -1.97229 0
M  V30 4303 O 401.139 4.67618 -3.78968 0
M  V30 4304 H 404.965 1.59706 -2.58317 0
M  V30 4305 H 402.55 0.728989 -1.30407 0
M  V30 4306 H 404.432 3.87133 -1.66451 0
M  V30 4307 H 403.107 3.15964 -0.70345 0
M  V30 4308 H 402.014 2.38052 -2.88587 0
M  V30 4309 H 403.347 3.14718 -3.78435 0
M  V30 4310 N 404.999 1.35443 0.805782 0
M  V30 4311 C 406.415 1.15499 1.10146 0
M  V30 4312 C 406.615 -0.0319975 2.01475 0
M  V30 4313 O 405.671 -0.70236 2.42535 0
M  V30 4314 C 406.984 2.45833 1.73166 0
M  V30 4315 C 408.532 2.52047 1.85583 0
M  V30 4316 C 409.007 3.82427 2.52019 0
M  V30 4317 N 410.498 3.83682 2.59504 0
M  V30 4318 C 411.233 4.81294 3.11679 0
M  V30 4319 N 410.729 5.89294 3.64287 0
M  V30 4320 N 412.522 4.6873 3.1024 0
M  V30 4321 H 404.673 2.11469 0.198678 0
M  V30 4322 H 406.936 0.93594 0.150731 0
M  V30 4323 H 406.642 3.32874 1.13526 0
M  V30 4324 H 406.516 2.6044 2.72857 0
M  V30 4325 H 408.903 1.65435 2.44367 0
M  V30 4326 H 408.984 2.41354 0.847455 0
M  V30 4327 H 408.628 4.69437 1.93885 0
M  V30 4328 H 408.558 3.90409 3.53395 0
M  V30 4329 H 411.049 3.05648 2.22234 0
M  V30 4330 H 411.362 6.59768 4.02401 0
M  V30 4331 H 409.707 5.92985 3.62483 0
M  V30 4332 H 412.898 3.83496 2.68419 0
M  V30 4333 H 413.071 5.44965 3.50596 0
M  V30 4334 N 406.477 -1.02803 1.19454 0
M  V30 4335 C 407.724 -1.76217 0.997693 0
M  V30 4336 C 408.052 -1.887 -0.47144 0
M  V30 4337 O 407.307 -1.4011 -1.3663 0
M  V30 4338 C 407.606 -3.18941 1.6128 0
M  V30 4339 C 407.272 -3.26463 3.11019 0
M  V30 4340 C 405.934 -3.28223 3.51885 0
M  V30 4341 C 408.286 -3.25542 4.07028 0
M  V30 4342 C 405.614 -3.26719 4.8731 0
M  V30 4343 C 407.966 -3.25579 5.42385 0
M  V30 4344 C 406.63 -3.25637 5.82681 0
M  V30 4345 H 405.9 -0.644823 0.365082 0
M  V30 4346 H 408.547 -1.20655 1.4871 0
M  V30 4347 H 406.852 -3.77587 1.04572 0
M  V30 4348 H 408.549 -3.74415 1.43577 0
M  V30 4349 H 405.139 -3.25822 2.78457 0
M  V30 4350 H 409.323 -3.23362 3.76498 0
M  V30 4351 H 404.579 -3.25089 5.1781 0
M  V30 4352 H 408.753 -3.23817 6.16535 0
M  V30 4353 H 406.38 -3.24226 6.87591 0
M  V30 4354 N 407.956 -0.998596 -1.21925 0
M  V30 4355 C 408.886 -0.573688 -2.26343 0
M  V30 4356 C 409.867 0.402296 -1.65274 0
M  V30 4357 O 411.052 0.291683 -1.91997 0
M  V30 4358 C 408.182 0.106839 -3.47136 0
M  V30 4359 C 407.136 -0.788269 -4.20678 0
M  V30 4360 C 406.462 0.0254927 -5.34694 0
M  V30 4361 C 407.762 -2.08784 -4.78755 0
M  V30 4362 H 409.456 -1.44651 -2.62138 0
M  V30 4363 H 407.002 -0.696975 -1.26009 0
M  V30 4364 H 408.955 0.415531 -4.19346 0
M  V30 4365 H 407.679 1.01424 -3.10452 0
M  V30 4366 H 406.338 -1.08069 -3.50309 0
M  V30 4367 H 405.986 0.933989 -4.94253 0
M  V30 4368 H 405.686 -0.570437 -5.84825 0
M  V30 4369 H 407.21 0.328147 -6.09718 0
M  V30 4370 H 408.624 -1.84272 -5.42878 0
M  V30 4371 H 407.021 -2.63307 -5.39249 0
M  V30 4372 H 408.091 -2.76284 -3.98491 0
M  V30 4373 N 409.434 1.37368 -0.772513 0
M  V30 4374 C 410.682 1.99279 -0.336516 0
M  V30 4375 C 411.003 1.6163 1.09091 0
M  V30 4376 O 410.273 0.882109 1.74916 0
M  V30 4377 H 408.853 0.737063 -0.121435 0
M  V30 4378 H 411.515 1.67836 -0.990809 0
M  V30 4379 H 410.611 3.09332 -0.414763 0
M  V30 4380 N 410.912 0.523116 1.48665 0
M  V30 4381 C 412.323 0.0808997 1.86525 0
M  V30 4382 C 412.674 -1.33975 1.43336 0
M  V30 4383 O 411.799 -2.00221 0.821009 0
M  V30 4384 C 412.394 0.140037 3.3851 0
M  V30 4385 C 410.953 -0.246948 3.75589 0
M  V30 4386 C 410.1 0.502845 2.72703 0
M  V30 4387 H 413.051 0.734736 1.40667 0
M  V30 4388 H 413.072 -0.649945 3.74908 0
M  V30 4389 H 412.584 1.17412 3.69914 0
M  V30 4390 H 410.685 -1.28343 3.49798 0
M  V30 4391 H 410.798 0.0878859 4.79019 0
M  V30 4392 H 409.162 -0.0500581 2.54651 0
M  V30 4393 H 409.945 1.53743 3.0695 0
M  V30 4394 N 412.39 -1.55475 0.257931 0
M  V30 4395 C 413.3 -2.2549 -0.647425 0
M  V30 4396 C 414.316 -1.2748 -1.18427 0
M  V30 4397 O 415.492 -1.6038 -1.2182 0
M  V30 4398 C 412.557 -2.94916 -1.82278 0
M  V30 4399 C 411.618 -4.08363 -1.32432 0
M  V30 4400 C 410.851 -4.74469 -2.44366 0
M  V30 4401 O 411.074 -4.39701 -3.63344 0
M  V30 4402 O 410.008 -5.62763 -2.13497 0
M  V30 4403 H 413.834 -3.03593 -0.0807707 0
M  V30 4404 H 411.419 -1.49377 0.0259962 0
M  V30 4405 H 413.301 -3.38606 -2.50846 0
M  V30 4406 H 411.976 -2.19744 -2.37685 0
M  V30 4407 H 410.883 -3.69166 -0.605605 0
M  V30 4408 H 412.216 -4.85385 -0.816211 0
M  V30 4409 N 413.868 0.0150385 -1.57593 0
M  V30 4410 C 415.117 0.702115 -1.89085 0
M  V30 4411 C 415.43 1.75764 -0.858277 0
M  V30 4412 O 416.636 2.49829 -1.0629 0
M  V30 4413 C 415.092 1.29992 -3.35604 0
M  V30 4414 C 414.7 0.280007 -4.47124 0
M  V30 4415 C 416.444 1.96606 -3.76227 0
M  V30 4416 C 414.351 0.886949 -5.84711 0
M  V30 4417 H 413.281 0.265997 -0.705522 0
M  V30 4418 H 415.932 -0.0430408 -1.8345 0
M  V30 4419 H 414.314 2.09525 -3.36029 0
M  V30 4420 H 415.488 -0.489631 -4.58191 0
M  V30 4421 H 413.803 -0.284835 -4.15425 0
M  V30 4422 H 416.4 2.42893 -4.76347 0
M  V30 4423 H 416.743 2.79024 -3.08952 0
M  V30 4424 H 417.276 1.23828 -3.78036 0
M  V30 4425 H 414.015 0.101876 -6.55421 0
M  V30 4426 H 413.535 1.6261 -5.77337 0
M  V30 4427 H 415.214 1.39011 -6.3189 0
M  V30 4428 N 415.346 1.54954 0.287554 0
M  V30 4429 C 416.593 1.74873 1.02106 0
M  V30 4430 C 416.921 0.541829 1.86801 0
M  V30 4431 O 416.176 -0.475992 1.89823 0
M  V30 4432 C 416.475 2.99833 1.94512 0
M  V30 4433 C 416.141 4.33029 1.25686 0
M  V30 4434 C 414.803 4.69233 1.06649 0
M  V30 4435 C 417.155 5.15542 0.765913 0
M  V30 4436 C 414.483 5.85518 0.372222 0
M  V30 4437 C 416.835 6.32542 0.0853101 0
M  V30 4438 C 415.499 6.67398 -0.1169 0
M  V30 4439 H 414.769 0.639906 0.373632 0
M  V30 4440 H 417.416 1.89219 0.294665 0
M  V30 4441 H 415.721 2.80325 2.73725 0
M  V30 4442 H 417.418 3.1244 2.51361 0
M  V30 4443 H 414.008 4.04564 1.41512 0
M  V30 4444 H 418.192 4.88059 0.90066 0
M  V30 4445 H 413.448 6.11057 0.204695 0
M  V30 4446 H 417.622 6.95741 -0.302936 0
M  V30 4447 H 415.249 7.57357 -0.656859 0
M  V30 4448 N 416.824 -0.551391 1.4764 0
M  V30 4449 C 418.071 -1.3083 1.54563 0
M  V30 4450 C 418.399 -1.93359 0.210361 0
M  V30 4451 O 417.654 -1.78721 -0.797332 0
M  V30 4452 C 417.953 -2.43469 2.61644 0
M  V30 4453 C 417.619 -1.98732 4.04742 0
M  V30 4454 C 416.281 -1.86248 4.43695 0
M  V30 4455 C 418.633 -1.64659 4.94507 0
M  V30 4456 C 415.961 -1.37995 5.70241 0
M  V30 4457 C 418.313 -1.17875 6.21521 0
M  V30 4458 C 416.977 -1.03992 6.5935 0
M  V30 4459 H 416.247 -0.478741 0.565587 0
M  V30 4460 H 418.894 -0.617697 1.81264 0
M  V30 4461 H 417.199 -3.18109 2.28722 0
M  V30 4462 H 418.896 -3.01642 2.64222 0
M  V30 4463 H 415.486 -2.09393 3.73968 0
M  V30 4464 H 419.67 -1.73174 4.65107 0
M  V30 4465 H 414.926 -1.25915 5.98294 0
M  V30 4466 H 419.1 -0.905739 6.90485 0
M  V30 4467 H 416.727 -0.663794 7.57296 0
M  V30 4468 N 418.302 -1.35869 -0.798587 0
M  V30 4469 C 419.252 -1.25982 -1.90033 0
M  V30 4470 C 420.236 -0.153303 -1.60168 0
M  V30 4471 O 421.428 -0.38527 -1.72756 0
M  V30 4472 C 418.557 -1.04211 -3.27101 0
M  V30 4473 C 417.643 -2.19289 -3.63006 0
M  V30 4474 N 418.034 -3.44559 -3.70287 0
M  V30 4475 C 416.332 -2.10852 -3.93011 0
M  V30 4476 C 417.033 -4.20283 -4.02166 0
M  V30 4477 N 416.009 -3.49124 -4.16669 0
M  V30 4478 H 419.811 -2.20883 -1.93876 0
M  V30 4479 H 417.325 -1.28457 -0.993614 0
M  V30 4480 H 419.322 -0.952155 -4.05881 0
M  V30 4481 H 417.982 -0.102013 -3.2454 0
M  V30 4482 H 418.993 -3.7881 -3.53162 0
M  V30 4483 H 415.67 -1.24744 -3.98428 0
M  V30 4484 H 417.06 -5.28575 -4.14799 0
M  V30 4485 N 419.78 1.02168 -1.19998 0
M  V30 4486 C 421.191 1.57135 -1.00825 0
M  V30 4487 C 421.542 1.91276 0.436818 0
M  V30 4488 O 420.667 1.71679 1.3174 0
M  V30 4489 C 421.262 2.85514 -1.82393 0
M  V30 4490 C 419.821 3.37027 -1.67601 0
M  V30 4491 C 418.968 2.10388 -1.80644 0
M  V30 4492 H 421.919 0.846106 -1.34264 0
M  V30 4493 H 421.94 3.56711 -1.32429 0
M  V30 4494 H 421.452 2.60634 -2.87561 0
M  V30 4495 H 419.553 3.66878 -0.650485 0
M  V30 4496 H 419.666 4.09572 -2.4857 0
M  V30 4497 H 418.03 2.22601 -1.23778 0
M  V30 4498 H 418.813 1.8794 -2.87286 0
M  V30 4499 N 421.258 1.00505 1.21394 0
M  V30 4500 C 422.168 0.574806 2.27449 0
M  V30 4501 C 423.184 -0.382206 1.6975 0
M  V30 4502 O 424.36 -0.246027 1.99892 0
M  V30 4503 C 421.425 -0.0917414 3.46579 0
M  V30 4504 C 420.486 0.909758 4.1955 0
M  V30 4505 C 419.719 0.274924 5.32991 0
M  V30 4506 O 419.942 -0.928254 5.62796 0
M  V30 4507 O 418.876 0.985877 5.93771 0
M  V30 4508 H 422.702 1.45744 2.66444 0
M  V30 4509 H 420.287 0.773923 1.27792 0
M  V30 4510 H 422.169 -0.464551 4.18832 0
M  V30 4511 H 420.844 -0.948755 3.09484 0
M  V30 4512 H 419.751 1.33372 3.49518 0
M  V30 4513 H 421.084 1.73636 4.60555 0
M  V30 4514 N 422.737 -1.36956 0.779787 0
M  V30 4515 C 423.984 -1.99491 0.347766 0
M  V30 4516 C 424.312 -1.61898 -1.07793 0
M  V30 4517 O 423.567 -0.86071 -1.75756 0
M  V30 4518 C 423.866 -3.54585 0.447686 0
M  V30 4519 C 423.532 -4.1197 1.83279 0
M  V30 4520 C 422.194 -4.27356 2.2118 0
M  V30 4521 C 424.546 -4.43354 2.74019 0
M  V30 4522 C 421.874 -4.71432 3.4924 0
M  V30 4523 C 424.226 -4.88858 4.01497 0
M  V30 4524 C 422.89 -5.0245 4.39432 0
M  V30 4525 H 422.16 -0.729991 0.127257 0
M  V30 4526 H 424.807 -1.63599 0.995376 0
M  V30 4527 H 423.112 -3.90773 -0.283447 0
M  V30 4528 H 424.809 -4.00888 0.0945948 0
M  V30 4529 H 421.399 -4.00428 1.52825 0
M  V30 4530 H 425.583 -4.31045 2.45995 0
M  V30 4531 H 420.839 -4.80141 3.78516 0
M  V30 4532 H 425.013 -5.12108 4.71931 0
M  V30 4533 H 422.64 -5.36362 5.38721 0
M  V30 4534 N 424.215 -0.530993 -1.48385 0
M  V30 4535 C 425.178 0.220497 -2.28137 0
M  V30 4536 C 426.178 0.866851 -1.35434 0
M  V30 4537 O 427.368 0.726746 -1.58316 0
M  V30 4538 C 424.5 1.31921 -3.1434 0
M  V30 4539 H 425.693 -0.479714 -2.96038 0
M  V30 4540 H 423.246 -0.286968 -1.53643 0
M  V30 4541 H 423.981 2.05264 -2.51072 0
M  V30 4542 H 423.766 0.86085 -3.82533 0
M  V30 4543 H 425.256 1.84776 -3.74497 0
M  V30 4544 N 425.693 1.55336 -0.266172 0
M  V30 4545 C 426.641 2.23587 0.641228 0
M  V30 4546 C 427.635 1.22986 1.16494 0
M  V30 4547 O 428.841 1.40943 1.1196 0
M  V30 4548 H 425.216 0.717452 0.225315 0
M  V30 4549 H 427.187 2.9837 0.0426561 0
M  V30 4550 C 425.936 2.96369 1.81826 0
M  V30 4551 H 425.259 3.73563 1.42445 0
M  V30 4552 H 426.699 3.47459 2.42998 0
M  V30 4553 C 425.158 2.0133 2.70125 0
M  V30 4554 O 425.688 1.55875 3.70224 0
M  V30 4555 N 423.894 1.6802 2.37102 0
M  V30 4556 H 423.441 2.05181 1.55751 0
M  V30 4557 H 423.399 1.047 2.96454 0
M  V30 4558 N 427.171 -0.0066808 1.57599 0
M  V30 4559 C 428.582 -0.550379 1.78403 0
M  V30 4560 C 428.933 -1.74339 0.900014 0
M  V30 4561 O 428.058 -2.16166 0.100713 0
M  V30 4562 C 428.653 -1.00523 3.23544 0
M  V30 4563 C 427.212 -1.49428 3.45468 0
M  V30 4564 C 426.359 -0.442444 2.73748 0
M  V30 4565 H 429.31 0.219508 1.57175 0
M  V30 4566 H 429.331 -1.87157 3.31289 0
M  V30 4567 H 428.843 -0.136735 3.87859 0
M  V30 4568 H 426.944 -2.3839 2.86358 0
M  V30 4569 H 427.057 -1.52635 4.54136 0
M  V30 4570 H 425.421 -0.902578 2.38171 0
M  V30 4571 H 426.204 0.416973 3.40758 0
M  V30 4572 N 428.649 -1.55105 -0.279332 0
M  V30 4573 C 429.926 -1.66119 -1.03267 0
M  V30 4574 C 430.306 -0.523525 -2.04505 0
M  V30 4575 O 429.654 0.477194 -2.23462 0
M  V30 4576 C 429.864 -3.05067 -1.69515 0
M  V30 4577 C 431.212 -3.62606 -2.20912 0
M  V30 4578 O 432.236 -3.07659 -1.79512 0
M  V30 4579 O 431.095 -4.58861 -2.96831 0
M  V30 4580 H 428.189 -0.674429 -0.478618 0
M  V30 4581 H 430.735 -1.67446 -0.275694 0
M  V30 4582 H 429.507 -3.79311 -0.9612 0
M  V30 4583 H 429.13 -3.07611 -2.51915 0
M  V30 4584 N 430.127 0.543554 -1.4793 0
M  V30 4585 C 431.374 1.30008 -1.55255 0
M  V30 4586 C 431.702 1.93245 -0.220612 0
M  V30 4587 O 430.957 1.79141 0.787843 0
M  V30 4588 C 431.256 2.42078 -2.62932 0
M  V30 4589 C 430.922 1.96583 -4.0579 0
M  V30 4590 C 429.584 1.83893 -4.44676 0
M  V30 4591 C 431.936 1.62034 -4.95373 0
M  V30 4592 C 429.264 1.34969 -5.70964 0
M  V30 4593 C 431.616 1.14577 -6.22137 0
M  V30 4594 C 430.28 1.00493 -6.59892 0
M  V30 4595 H 429.55 0.475735 -0.568117 0
M  V30 4596 H 432.197 0.608075 -1.81589 0
M  V30 4597 H 430.502 3.16892 -2.30406 0
M  V30 4598 H 432.199 3.00236 -2.65818 0
M  V30 4599 H 428.789 2.07407 -3.75074 0
M  V30 4600 H 432.973 1.70705 -4.66019 0
M  V30 4601 H 428.229 1.2274 -5.98953 0
M  V30 4602 H 432.403 0.869109 -6.90955 0
M  V30 4603 H 430.03 0.623624 -7.57638 0
M  V30 4604 N 431.605 1.3629 0.791371 0
M  V30 4605 C 432.833 1.33562 1.58016 0
M  V30 4606 C 433.248 -0.0835616 1.88615 0
M  V30 4607 O 432.605 -1.0399 1.49974 0
M  V30 4608 C 432.656 2.15517 2.90232 0
M  V30 4609 O 432.377 3.51902 2.60953 0
M  V30 4610 C 433.878 2.20546 3.84544 0
M  V30 4611 H 431.098 0.458226 0.490173 0
M  V30 4612 H 433.642 1.79361 0.982345 0
M  V30 4613 H 431.797 1.73278 3.46487 0
M  V30 4614 H 432.211 3.94644 3.4548 0
M  V30 4615 H 433.685 2.82252 4.74382 0
M  V30 4616 H 434.162 1.20838 4.2225 0
M  V30 4617 H 434.768 2.63013 3.34222 0
M  V30 4618 N 433.083 -1.0153 1.20538 0
M  V30 4619 C 434.015 -2.10224 0.913155 0
M  V30 4620 C 435.028 -1.62495 -0.0995998 0
M  V30 4621 O 436.217 -1.78014 0.131582 0
M  V30 4622 C 433.317 -3.37111 0.347717 0
M  V30 4623 C 432.49 -4.13971 1.41233 0
M  V30 4624 C 431.549 -5.19158 0.857976 0
M  V30 4625 O 430.575 -5.48 1.53897 0
M  V30 4626 N 431.777 -5.7955 -0.331966 0
M  V30 4627 H 434.542 -2.35879 1.84881 0
M  V30 4628 H 432.103 -1.17931 1.10923 0
M  V30 4629 H 434.095 -4.04683 -0.0373026 0
M  V30 4630 H 432.665 -3.08696 -0.492527 0
M  V30 4631 H 431.885 -3.41351 1.97163 0
M  V30 4632 H 433.173 -4.62103 2.12928 0
M  V30 4633 H 432.571 -5.58455 -0.902478 0
M  V30 4634 H 431.128 -6.48464 -0.65861 0
M  V30 4635 N 434.561 -1.01147 -1.20859 0
M  V30 4636 C 435.972 -0.730205 -1.71828 0
M  V30 4637 C 436.323 0.751662 -1.8123 0
M  V30 4638 O 435.448 1.58686 -1.47132 0
M  V30 4639 C 436.043 -1.31885 -3.12077 0
M  V30 4640 C 434.602 -1.08656 -3.60376 0
M  V30 4641 C 433.749 -1.42769 -2.37723 0
M  V30 4642 H 436.7 -1.18158 -1.05945 0
M  V30 4643 H 436.721 -0.706793 -3.73878 0
M  V30 4644 H 436.233 -2.39737 -3.05201 0
M  V30 4645 H 434.334 -0.0254814 -3.72591 0
M  V30 4646 H 434.447 -1.76301 -4.45483 0
M  V30 4647 H 432.811 -0.846603 -2.40218 0
M  V30 4648 H 433.594 -2.51666 -2.33493 0
M  V30 4649 N 436.039 1.36541 -0.78704 0
M  V30 4650 C 437.288 1.98552 -0.35494 0
M  V30 4651 C 437.601 1.63171 1.07864 0
M  V30 4652 O 438.807 2.18399 1.61289 0
M  V30 4653 C 437.263 3.55136 -0.583671 0
M  V30 4654 C 436.871 3.99444 -2.02851 0
M  V30 4655 C 438.615 4.2395 -0.215957 0
M  V30 4656 C 436.522 5.48796 -2.20403 0
M  V30 4657 H 435.452 0.742888 -0.128972 0
M  V30 4658 H 438.103 1.5587 -0.968337 0
M  V30 4659 H 436.485 3.95875 0.0994046 0
M  V30 4660 H 437.659 3.6991 -2.74779 0
M  V30 4661 H 435.974 3.43459 -2.35425 0
M  V30 4662 H 438.571 5.33709 -0.325405 0
M  V30 4663 H 438.914 4.07827 0.835646 0
M  V30 4664 H 439.447 3.88565 -0.852175 0
M  V30 4665 H 436.186 5.69864 -3.23937 0
M  V30 4666 H 435.706 5.79964 -1.52977 0
M  V30 4667 H 437.385 6.14986 -2.01002 0
M  V30 4668 N 437.518 0.538854 1.48102 0
M  V30 4669 C 438.743 0.0102694 2.07397 0
M  V30 4670 C 439.168 -1.26562 1.39153 0
M  V30 4671 O 438.526 -1.75357 0.460387 0
M  V30 4672 C 438.574 -0.187602 3.60112 0
M  V30 4673 O 437.678 -1.25432 3.92862 0
M  V30 4674 H 437.019 0.0430975 0.6626 0
M  V30 4675 H 439.549 0.749301 1.90385 0
M  V30 4676 H 439.559 -0.407517 4.0596 0
M  V30 4677 H 438.234 0.744386 4.09184 0
M  V30 4678 H 436.811 -1.01636 3.58782 0
M  V30 4679 N 438.996 -1.55193 0.274407 0
M  V30 4680 C 439.906 -2.26164 -0.623473 0
M  V30 4681 C 440.922 -1.28729 -1.17068 0
M  V30 4682 O 442.098 -1.61663 -1.20112 0
M  V30 4683 C 439.163 -2.96833 -1.7914 0
M  V30 4684 C 438.224 -4.09745 -1.28093 0
M  V30 4685 C 437.457 -4.77034 -2.3932 0
M  V30 4686 O 437.68 -4.4353 -3.5866 0
M  V30 4687 O 436.614 -5.64996 -2.07516 0
M  V30 4688 H 440.44 -3.03661 -0.0485661 0
M  V30 4689 H 438.025 -1.49341 0.0418382 0
M  V30 4690 H 439.907 -3.41248 -2.4724 0
M  V30 4691 H 438.582 -2.22253 -2.35341 0
M  V30 4692 H 437.489 -3.69787 -0.566416 0
M  V30 4693 H 438.822 -4.86224 -0.764683 0
M  V30 4694 N 440.474 -0.00167713 -1.576 0
M  V30 4695 C 441.72 0.683832 -1.90923 0
M  V30 4696 C 442.053 1.7333 -0.875799 0
M  V30 4697 O 441.328 1.94215 0.10525 0
M  V30 4698 C 441.611 1.32543 -3.3482 0
M  V30 4699 C 441.464 0.287387 -4.48881 0
M  V30 4700 C 442.783 2.25114 -3.78169 0
M  V30 4701 H 439.902 0.247125 -0.694333 0
M  V30 4702 H 442.544 -0.0533149 -1.89925 0
M  V30 4703 H 440.694 1.95372 -3.35801 0
M  V30 4704 H 442.366 -0.341346 -4.60035 0
M  V30 4705 H 440.609 -0.39017 -4.32042 0
M  V30 4706 H 441.28 0.775393 -5.46527 0
M  V30 4707 H 443.756 1.723 -3.7875 0
M  V30 4708 H 442.632 2.66971 -4.79602 0
M  V30 4709 H 442.893 3.13092 -3.12131 0
M  V30 4710 N 441.952 1.55251 0.271103 0
M  V30 4711 C 443.198 1.76207 1.00394 0
M  V30 4712 C 443.531 0.562604 1.85872 0
M  V30 4713 O 442.806 -0.439785 1.89463 0
M  V30 4714 C 443.089 3.06828 1.8849 0
M  V30 4715 C 442.942 4.37134 1.05992 0
M  V30 4716 C 444.261 3.33503 2.87165 0
M  V30 4717 H 441.38 0.641086 0.363562 0
M  V30 4718 H 444.022 1.87982 0.276189 0
M  V30 4719 H 442.172 2.96921 2.5054 0
M  V30 4720 H 443.844 4.59001 0.459978 0
M  V30 4721 H 442.087 4.32275 0.363443 0
M  V30 4722 H 442.758 5.2486 1.70955 0
M  V30 4723 H 445.234 3.43215 2.3525 0
M  V30 4724 H 444.11 4.2616 3.45946 0
M  V30 4725 H 444.371 2.53235 3.62387 0
M  V30 4726 N 443.43 -0.535701 1.48216 0
M  V30 4727 C 444.707 -1.29683 1.46429 0
M  V30 4728 C 445.087 -2.10391 0.172852 0
M  V30 4729 O 444.435 -2.12282 -0.845488 0
M  V30 4730 C 444.645 -2.18313 2.72287 0
M  V30 4731 C 445.993 -2.78639 3.20383 0
M  V30 4732 O 447.017 -2.28604 2.73164 0
M  V30 4733 O 445.876 -3.69636 4.02531 0
M  V30 4734 H 442.97 -0.585026 0.584529 0
M  V30 4735 H 445.516 -0.552827 1.60443 0
M  V30 4736 H 444.288 -1.58421 3.57797 0
M  V30 4737 H 443.911 -2.99971 2.60966 0
M  V30 4738 N 444.908 -1.36708 -0.784132 0
M  V30 4739 C 445.818 -1.3363 -1.92822 0
M  V30 4740 C 446.834 -0.237686 -1.72369 0
M  V30 4741 O 448.01 -0.470962 -1.95816 0
M  V30 4742 C 445.075 -1.13011 -3.27764 0
M  V30 4743 C 444.136 -2.32397 -3.60957 0
M  V30 4744 C 443.369 -2.12752 -4.89461 0
M  V30 4745 O 443.592 -1.10541 -5.59586 0
M  V30 4746 O 442.526 -3.00653 -5.21432 0
M  V30 4747 H 446.352 -2.29964 -1.98369 0
M  V30 4748 H 443.937 -1.1731 -0.925136 0
M  V30 4749 H 445.819 -1.03451 -4.08504 0
M  V30 4750 H 444.494 -0.19743 -3.23097 0
M  V30 4751 H 443.401 -2.47527 -2.80502 0
M  V30 4752 H 444.734 -3.2419 -3.70354 0
M  V30 4753 N 446.386 1.0089 -1.21074 0
M  V30 4754 C 447.632 1.74866 -1.02712 0
M  V30 4755 C 447.965 1.89178 0.438787 0
M  V30 4756 O 447.24 1.42325 1.32567 0
M  V30 4757 C 447.523 3.16347 -1.72036 0
M  V30 4758 C 447.376 3.09782 -3.26121 0
M  V30 4759 C 448.695 4.15187 -1.45973 0
M  V30 4760 H 445.814 0.634736 -0.374539 0
M  V30 4761 H 448.456 1.17646 -1.49196 0
M  V30 4762 H 446.606 3.65201 -1.32517 0
M  V30 4763 H 448.278 2.68673 -3.74983 0
M  V30 4764 H 446.521 2.46982 -3.56626 0
M  V30 4765 H 447.192 4.09829 -3.6979 0
M  V30 4766 H 449.668 3.75022 -1.80272 0
M  V30 4767 H 448.544 5.12331 -1.96999 0
M  V30 4768 H 448.805 4.40386 -0.388924 0
M  V30 4769 N 447.864 1.01787 1.20321 0
M  V30 4770 C 449.113 0.703249 1.89043 0
M  V30 4771 C 449.426 -0.770445 1.79787 0
M  V30 4772 O 450.632 -1.19767 2.43656 0
M  V30 4773 C 449.088 1.20749 3.3904 0
M  V30 4774 C 448.696 2.70817 3.56878 0
M  V30 4775 C 450.44 0.968352 4.13308 0
M  V30 4776 C 448.347 3.14716 5.00708 0
M  V30 4777 H 447.277 0.259354 0.707991 0
M  V30 4778 H 449.928 1.23072 1.36108 0
M  V30 4779 H 448.31 0.607989 3.91305 0
M  V30 4780 H 449.484 3.36327 3.14993 0
M  V30 4781 H 447.799 2.92888 2.95983 0
M  V30 4782 H 450.396 1.27173 5.19356 0
M  V30 4783 H 450.739 -0.095149 4.16191 0
M  V30 4784 H 451.272 1.53129 3.67146 0
M  V30 4785 H 448.011 4.20347 5.02979 0
M  V30 4786 H 447.531 2.53927 5.43398 0
M  V30 4787 H 449.21 3.07426 5.69296 0
M  V30 4788 N 449.342 -1.36122 0.79427 0
M  V30 4789 C 450.274 -2.28683 0.153903 0
M  V30 4790 C 451.287 -1.49707 -0.639669 0
M  V30 4791 O 452.476 -1.7209 -0.474054 0
M  V30 4792 C 449.576 -3.29202 -0.804921 0
M  V30 4793 C 448.749 -4.37358 -0.060366 0
M  V30 4794 C 447.808 -5.17811 -0.935849 0
M  V30 4795 O 446.834 -5.67853 -0.391309 0
M  V30 4796 N 448.036 -5.34721 -2.25951 0
M  V30 4797 H 450.801 -2.84278 0.949008 0
M  V30 4798 H 448.362 -1.4834 0.648611 0
M  V30 4799 H 450.354 -3.79914 -1.39455 0
M  V30 4800 H 448.924 -2.74212 -1.50088 0
M  V30 4801 H 448.144 -3.87746 0.710382 0
M  V30 4802 H 449.432 -5.06777 0.45324 0
M  V30 4803 H 448.83 -4.95687 -2.72601 0
M  V30 4804 H 447.387 -5.88657 -2.79867 0
M  V30 4805 N 450.82 -0.546701 -1.47814 0
M  V30 4806 C 451.768 0.220048 -2.31557 0
M  V30 4807 C 452.762 0.919472 -1.42275 0
M  V30 4808 O 453.968 0.841953 -1.59095 0
M  V30 4809 H 450.343 0.0898334 -0.746615 0
M  V30 4810 H 452.314 -0.505589 -2.94086 0
M  V30 4811 C 451.063 1.24353 -3.24702 0
M  V30 4812 H 450.386 0.714758 -3.93359 0
M  V30 4813 H 451.826 1.75112 -3.8615 0
M  V30 4814 C 450.285 2.28593 -2.47481 0
M  V30 4815 O 450.815 3.35334 -2.21165 0
M  V30 4816 N 449.021 2.02244 -2.08676 0
M  V30 4817 H 448.568 1.15455 -2.30278 0
M  V30 4818 H 448.526 2.72207 -1.57323 0
M  V30 4819 N 452.299 1.55045 -0.282633 0
M  V30 4820 C 453.539 2.01668 0.333088 0
M  V30 4821 C 453.903 1.1667 1.52486 0
M  V30 4822 O 455.104 1.52907 2.21072 0
M  V30 4823 C 453.375 3.50509 0.698442 0
M  V30 4824 S 454.934 4.19112 1.29963 0
M  V30 4825 H 451.752 0.703468 0.103219 0
M  V30 4826 H 454.354 1.91233 -0.406222 0
M  V30 4827 H 453.058 4.10015 -0.177693 0
M  V30 4828 H 452.589 3.64943 1.46902 0
M  V30 4829 H 454.604 4.23362 2.58803 0
M  V30 4830 N 453.777 0.010035 1.57597 0
M  V30 4831 C 455.188 -0.531426 1.78977 0
M  V30 4832 C 455.539 -1.73375 0.918454 0
M  V30 4833 O 454.664 -2.16047 0.123635 0
M  V30 4834 C 455.259 -0.97086 3.24592 0
M  V30 4835 C 453.818 -1.45756 3.47033 0
M  V30 4836 C 452.965 -0.413384 2.74201 0
M  V30 4837 H 455.916 0.236166 1.56933 0
M  V30 4838 H 455.937 -1.83633 3.33255 0
M  V30 4839 H 455.449 -0.0955893 3.87982 0
M  V30 4840 H 453.55 -2.35339 2.88871 0
M  V30 4841 H 453.663 -1.4781 4.55729 0
M  V30 4842 H 452.027 -0.877266 2.39115 0
M  V30 4843 H 452.81 0.453092 3.40297 0
M  V30 4844 N 455.255 -1.55392 -0.262866 0
M  V30 4845 C 456.504 -1.75679 -0.990943 0
M  V30 4846 C 456.817 -0.57097 -1.87081 0
M  V30 4847 O 458.023 -0.656486 -2.63444 0
M  V30 4848 C 456.479 -3.10964 -1.81188 0
M  V30 4849 C 456.087 -4.37146 -0.980188 0
M  V30 4850 C 457.831 -3.40597 -2.53365 0
M  V30 4851 C 455.738 -5.63466 -1.7961 0
M  V30 4852 H 454.668 -0.654868 -0.373716 0
M  V30 4853 H 457.319 -1.81841 -0.246203 0
M  V30 4854 H 455.701 -2.98867 -2.59797 0
M  V30 4855 H 456.875 -4.60187 -0.237558 0
M  V30 4856 H 455.19 -4.14731 -0.372497 0
M  V30 4857 H 457.787 -4.32186 -3.14833 0
M  V30 4858 H 458.13 -2.6119 -3.24169 0
M  V30 4859 H 458.663 -3.53838 -1.81779 0
M  V30 4860 H 455.402 -6.4565 -1.13209 0
M  V30 4861 H 454.922 -5.44552 -2.51443 0
M  V30 4862 H 456.601 -6.02139 -2.36723 0
M  V30 4863 N 456.733 0.527833 -1.48498 0
M  V30 4864 C 458.01 1.28905 -1.47115 0
M  V30 4865 C 458.39 2.10297 -0.184007 0
M  V30 4866 O 457.738 2.12728 0.834218 0
M  V30 4867 C 457.948 2.16866 -2.73441 0
M  V30 4868 C 459.296 2.76936 -3.21857 0
M  V30 4869 O 460.32 2.27152 -2.74373 0
M  V30 4870 O 459.179 3.67496 -4.04486 0
M  V30 4871 H 456.273 0.581918 -0.587623 0
M  V30 4872 H 458.819 0.544311 -1.60734 0
M  V30 4873 H 457.591 1.56521 -3.58632 0
M  V30 4874 H 457.214 2.98583 -2.62553 0
M  V30 4875 N 458.211 1.37122 0.776871 0
M  V30 4876 C 459.457 1.32243 1.53752 0
M  V30 4877 C 459.79 -0.0944745 1.9397 0
M  V30 4878 O 459.065 -1.05068 1.6368 0
M  V30 4879 C 459.348 2.25681 2.80607 0
M  V30 4880 C 459.201 3.76127 2.46676 0
M  V30 4881 C 460.52 2.17657 3.82509 0
M  V30 4882 H 457.639 0.481704 0.557791 0
M  V30 4883 H 460.281 1.6778 0.891612 0
M  V30 4884 H 458.431 1.95505 3.35723 0
M  V30 4885 H 460.103 4.16877 1.97513 0
M  V30 4886 H 458.346 3.94946 1.79443 0
M  V30 4887 H 459.017 4.36933 3.37333 0
M  V30 4888 H 461.493 2.44245 3.36873 0
M  V30 4889 H 460.369 2.85185 4.69 0
M  V30 4890 H 460.63 1.16785 4.26396 0
M  V30 4891 N 459.689 -1.00246 1.21608 0
M  V30 4892 C 461.105 -1.26435 0.973975 0
M  V30 4893 C 461.305 -1.98642 -0.338143 0
M  V30 4894 O 460.361 -2.29026 -1.06317 0
M  V30 4895 C 461.674 -2.08551 2.16626 0
M  V30 4896 C 463.222 -2.21769 2.20879 0
M  V30 4897 C 463.697 -3.07267 3.39633 0
M  V30 4898 N 465.188 -3.14855 3.39736 0
M  V30 4899 C 465.923 -3.81274 4.28273 0
M  V30 4900 N 465.419 -4.497 5.27012 0
M  V30 4901 N 467.212 -3.7794 4.16074 0
M  V30 4902 H 459.363 -0.518089 2.05984 0
M  V30 4903 H 461.626 -0.291368 0.902113 0
M  V30 4904 H 461.332 -1.62847 3.11727 0
M  V30 4905 H 461.206 -3.09303 2.15897 0
M  V30 4906 H 463.593 -2.66691 1.26332 0
M  V30 4907 H 463.674 -1.20478 2.25652 0
M  V30 4908 H 463.318 -2.63047 4.34475 0
M  V30 4909 H 463.248 -4.08678 3.321 0
M  V30 4910 H 465.739 -2.66147 2.6828 0
M  V30 4911 H 466.052 -4.98092 5.90867 0
M  V30 4912 H 464.397 -4.48479 5.30935 0
M  V30 4913 H 467.588 -3.23638 3.38195 0
M  V30 4914 H 467.761 -4.29424 4.85282 0
M  V30 4915 N 461.167 -1.02423 -1.1978 0
M  V30 4916 C 462.583 -0.740459 -1.41384 0
M  V30 4917 C 462.783 0.676827 -1.89793 0
M  V30 4918 O 461.839 1.4435 -2.0717 0
M  V30 4919 C 463.152 -1.77264 -2.42895 0
M  V30 4920 C 464.7 -1.79165 -2.56649 0
M  V30 4921 C 465.175 -2.8133 -3.6141 0
M  V30 4922 N 466.666 -2.80118 -3.68901 0
M  V30 4923 C 467.401 -3.55824 -4.49641 0
M  V30 4924 N 466.897 -4.41231 -5.34123 0
M  V30 4925 N 468.69 -3.44387 -4.44246 0
M  V30 4926 H 460.841 -1.9391 -0.866764 0
M  V30 4927 H 463.104 -0.838074 -0.443098 0
M  V30 4928 H 462.81 -2.7884 -2.14339 0
M  V30 4929 H 462.684 -1.59108 -3.42001 0
M  V30 4930 H 465.071 -0.782702 -2.84531 0
M  V30 4931 H 465.152 -2.01396 -1.57713 0
M  V30 4932 H 464.796 -3.82394 -3.34271 0
M  V30 4933 H 464.726 -2.56359 -4.59986 0
M  V30 4934 H 467.217 -2.1817 -3.08562 0
M  V30 4935 H 467.53 -4.95747 -5.92836 0
M  V30 4936 H 465.875 -4.45306 -5.33599 0
M  V30 4937 H 469.066 -2.7708 -3.77285 0
M  V30 4938 H 469.239 -4.0364 -5.06931 0
M  V30 4939 N 462.645 1.35699 -0.801477 0
M  V30 4940 C 464.056 1.81415 -0.441073 0
M  V30 4941 C 464.407 1.66595 1.03636 0
M  V30 4942 O 463.532 1.19369 1.80499 0
M  V30 4943 C 464.127 3.29369 -0.793819 0
M  V30 4944 C 462.686 3.73248 -0.486083 0
M  V30 4945 C 461.833 2.57775 -1.02213 0
M  V30 4946 H 464.784 1.23749 -0.993572 0
M  V30 4947 H 464.805 3.80395 -0.0894158 0
M  V30 4948 H 464.317 3.40123 -1.86917 0
M  V30 4949 H 462.418 3.68046 0.580735 0
M  V30 4950 H 462.531 4.68222 -1.01513 0
M  V30 4951 H 460.895 2.50788 -0.444712 0
M  V30 4952 H 461.678 2.71309 -2.10348 0
M  V30 4953 N 464.123 0.554532 1.47522 0
M  V30 4954 C 465.053 -0.182974 2.32782 0
M  V30 4955 C 466.034 -0.911377 1.43624 0
M  V30 4956 O 467.219 -0.892366 1.72483 0
M  V30 4957 C 464.349 -1.21513 3.25349 0
M  V30 4958 C 463.303 -0.603355 4.23726 0
M  V30 4959 C 462.629 -1.73995 5.05598 0
M  V30 4960 C 463.929 0.441121 5.20434 0
M  V30 4961 H 465.623 0.52882 2.94693 0
M  V30 4962 H 463.169 0.255759 1.41711 0
M  V30 4963 H 465.122 -1.73922 3.83835 0
M  V30 4964 H 463.846 -1.95683 2.61487 0
M  V30 4965 H 462.505 -0.10059 3.66462 0
M  V30 4966 H 462.153 -2.47063 4.38143 0
M  V30 4967 H 461.853 -1.3364 5.72201 0
M  V30 4968 H 463.377 -2.26735 5.66942 0
M  V30 4969 H 464.791 0.00319931 5.733 0
M  V30 4970 H 463.188 0.763402 5.95224 0
M  V30 4971 H 464.258 1.33799 4.66075 0
M  V30 4972 N 465.601 -1.54893 0.290851 0
M  V30 4973 C 466.831 -2.04047 -0.323818 0
M  V30 4974 C 467.239 -1.16809 -1.48837 0
M  V30 4975 O 466.582 -0.184145 -1.82775 0
M  V30 4976 C 466.644 -3.49248 -0.852395 0
M  V30 4977 C 466.308 -4.56623 0.185557 0
M  V30 4978 C 467.305 -5.09985 1.01053 0
M  V30 4979 C 464.99 -5.01252 0.324332 0
M  V30 4980 C 466.984 -6.06507 1.96031 0
M  V30 4981 C 464.671 -5.97596 1.27757 0
M  V30 4982 C 465.669 -6.50107 2.09405 0
M  V30 4983 O 465.357 -7.44565 3.03114 0
M  V30 4984 H 465.089 -0.671735 -0.0758129 0
M  V30 4985 H 467.643 -2.00947 0.425393 0
M  V30 4986 H 465.873 -3.49639 -1.65195 0
M  V30 4987 H 467.562 -3.81654 -1.38185 0
M  V30 4988 H 468.328 -4.76307 0.914129 0
M  V30 4989 H 464.207 -4.60015 -0.301213 0
M  V30 4990 H 467.751 -6.47418 2.598 0
M  V30 4991 H 463.648 -6.30691 1.37473 0
M  V30 4992 H 464.416 -7.62334 2.97976 0
M  V30 4993 N 467.08 -0.0183926 -1.57589 0
M  V30 4994 C 468.027 0.967022 -2.09565 0
M  V30 4995 C 468.997 1.32983 -0.995225 0
M  V30 4996 O 470.182 1.42501 -1.26878 0
M  V30 4997 C 467.322 2.24772 -2.61861 0
M  V30 4998 C 466.435 1.94232 -3.85873 0
M  V30 4999 C 465.57 3.16518 -4.26603 0
M  V30 5000 C 464.609 2.81748 -5.43401 0
M  V30 5001 N 463.746 3.96626 -5.79338 0
M  V30 5002 H 468.586 0.516874 -2.93483 0
M  V30 5003 H 466.123 0.243544 -1.4507 0
M  V30 5004 H 468.081 2.99667 -2.90268 0
M  V30 5005 H 466.711 2.67423 -1.8079 0
M  V30 5006 H 465.763 1.09625 -3.64262 0
M  V30 5007 H 467.075 1.64616 -4.70853 0
M  V30 5008 H 466.229 3.99743 -4.56389 0
M  V30 5009 H 464.968 3.49286 -3.40368 0
M  V30 5010 H 463.973 1.96933 -5.1332 0
M  V30 5011 H 465.198 2.50207 -6.31327 0
M  V30 5012 H 463.144 4.29257 -4.96059 0
M  V30 5013 H 463.061 3.70598 -6.58933 0
M  V30 5014 H 464.329 4.80586 -6.13724 0
M  V30 5015 N 468.558 1.5553 0.254621 0
M  V30 5016 C 469.506 1.9048 1.33492 0
M  V30 5017 C 470.5 0.78304 1.50216 0
M  V30 5018 O 471.706 0.967582 1.51782 0
M  V30 5019 H 468.081 0.604846 0.44684 0
M  V30 5020 H 470.052 2.80688 1.01275 0
M  V30 5021 C 468.801 2.20928 2.68489 0
M  V30 5022 H 468.124 3.06742 2.56417 0
M  V30 5023 H 469.564 2.49291 3.42972 0
M  V30 5024 C 468.023 1.023 3.20993 0
M  V30 5025 O 468.553 0.267027 4.00811 0
M  V30 5026 N 466.759 0.815714 2.78917 0
M  V30 5027 H 466.306 1.43217 2.14119 0
M  V30 5028 H 466.264 0.0236532 3.14391 0
M  V30 5029 N 470.036 -0.519951 1.48776 0
M  V30 5030 C 471.285 -1.27175 1.56555 0
M  V30 5031 C 471.598 -1.9401 0.248869 0
M  V30 5032 O 472.804 -2.70725 0.205004 0
M  V30 5033 C 471.26 -2.30811 2.76142 0
M  V30 5034 C 470.868 -1.7 4.14493 0
M  V30 5035 C 472.612 -3.06937 2.9324 0
M  V30 5036 C 470.519 -2.71635 5.25327 0
M  V30 5037 H 469.449 -0.478329 0.582853 0
M  V30 5038 H 472.1 -0.547916 1.75129 0
M  V30 5039 H 470.482 -3.06274 2.51023 0
M  V30 5040 H 471.656 -1.00658 4.49672 0
M  V30 5041 H 469.971 -1.06331 4.02595 0
M  V30 5042 H 472.568 -3.82905 3.73213 0
M  V30 5043 H 472.911 -3.63409 2.03075 0
M  V30 5044 H 473.444 -2.38589 3.18308 0
M  V30 5045 H 470.183 -2.1997 6.1749 0
M  V30 5046 H 469.703 -3.39275 4.94624 0
M  V30 5047 H 471.382 -3.34429 5.53865 0
M  V30 5048 N 471.514 -1.37532 -0.769588 0
M  V30 5049 C 472.76 -1.33057 -1.53048 0
M  V30 5050 C 473.093 0.0841865 -1.94017 0
M  V30 5051 O 472.368 1.04198 -1.64235 0
M  V30 5052 C 472.651 -2.27166 -2.79406 0
M  V30 5053 C 472.504 -3.77429 -2.44677 0
M  V30 5054 C 473.823 -2.19683 -3.81349 0
M  V30 5055 H 470.942 -0.484655 -0.555228 0
M  V30 5056 H 473.584 -1.68251 -0.882702 0
M  V30 5057 H 471.734 -1.97283 -3.34682 0
M  V30 5058 H 473.406 -4.17918 -1.953 0
M  V30 5059 H 471.649 -3.95892 -1.77346 0
M  V30 5060 H 472.32 -4.38716 -3.35011 0
M  V30 5061 H 474.796 -2.46029 -3.35573 0
M  V30 5062 H 473.672 -2.87668 -4.67481 0
M  V30 5063 H 473.933 -1.19045 -4.25771 0
M  V30 5064 N 472.992 0.995999 -1.22138 0
M  V30 5065 C 473.922 2.10387 -1.01289 0
M  V30 5066 C 474.903 1.69975 0.0651454 0
M  V30 5067 O 476.088 1.9396 -0.0964628 0
M  V30 5068 C 473.218 3.42312 -0.586517 0
M  V30 5069 C 472.172 3.96558 -1.61014 0
M  V30 5070 C 471.498 5.24494 -1.0397 0
M  V30 5071 C 472.798 4.27595 -2.99933 0
M  V30 5072 H 474.492 2.28086 -1.93951 0
M  V30 5073 H 472.038 1.09607 -0.933928 0
M  V30 5074 H 473.991 4.19223 -0.427793 0
M  V30 5075 H 472.715 3.24431 0.375761 0
M  V30 5076 H 471.374 3.21776 -1.75658 0
M  V30 5077 H 471.022 5.02953 -0.0688703 0
M  V30 5078 H 470.722 5.61755 -1.72352 0
M  V30 5079 H 472.246 6.04042 -0.892494 0
M  V30 5080 H 473.66 4.95315 -2.8868 0
M  V30 5081 H 472.057 4.76021 -3.6541 0
M  V30 5082 H 473.127 3.35498 -3.50099 0
M  V30 5083 N 474.47 1.03057 1.19235 0
M  V30 5084 C 475.695 0.74757 1.93458 0
M  V30 5085 C 476.12 -0.687648 1.7508 0
M  V30 5086 O 475.478 -1.47499 1.05422 0
M  V30 5087 C 475.526 1.10604 3.43219 0
M  V30 5088 O 474.63 0.225671 4.11782 0
M  V30 5089 H 473.971 0.276047 0.603899 0
M  V30 5090 H 476.501 1.3777 1.51263 0
M  V30 5091 H 476.511 1.06366 3.93891 0
M  V30 5092 H 475.186 2.15165 3.55917 0
M  V30 5093 H 473.763 0.326795 3.71465 0
M  V30 5094 N 475.948 -1.35272 0.808662 0
M  V30 5095 C 477.196 -1.98316 0.389233 0
M  V30 5096 C 477.517 -1.64465 -1.04767 0
M  V30 5097 O 476.787 -0.928175 -1.72516 0
M  V30 5098 H 475.367 -0.733585 0.140935 0
M  V30 5099 H 478.029 -1.6515 1.03496 0
M  V30 5100 H 477.125 -3.08123 0.496631 0
M  V30 5101 N 477.426 -0.562348 -1.47226 0
M  V30 5102 C 478.674 -0.0401371 -2.0206 0
M  V30 5103 C 478.995 1.3165 -1.43852 0
M  V30 5104 O 478.265 1.85976 -0.615599 0
M  V30 5105 H 476.845 -0.0118479 -0.746906 0
M  V30 5106 H 479.507 -0.73352 -1.8057 0
M  V30 5107 H 478.603 0.0441254 -3.12069 0
M  V30 5108 N 478.904 1.54736 -0.299062 0
M  V30 5109 C 480.129 2.04975 0.316254 0
M  V30 5110 C 480.554 1.17501 1.46885 0
M  V30 5111 O 479.912 0.178678 1.80417 0
M  V30 5112 C 479.96 3.52672 0.751997 0
M  V30 5113 O 479.064 3.68226 1.85697 0
M  V30 5114 H 478.405 0.661126 0.0617175 0
M  V30 5115 H 480.935 1.99805 -0.440341 0
M  V30 5116 H 480.945 3.94488 1.04133 0
M  V30 5117 H 479.62 4.158 -0.0911482 0
M  V30 5118 H 478.197 3.38316 1.56834 0
M  V30 5119 N 480.382 0.0267497 1.57577 0
M  V30 5120 C 481.61 -0.662661 1.96001 0
M  V30 5121 C 482.025 -1.65799 0.903117 0
M  V30 5122 O 481.382 -1.82135 -0.115317 0
M  V30 5123 C 481.433 -1.37112 3.34488 0
M  V30 5124 O 481.154 -0.415683 4.36123 0
M  V30 5125 C 482.655 -2.15257 3.8753 0
M  V30 5126 H 479.875 -0.18287 0.6456 0
M  V30 5127 H 482.419 0.0858116 2.0432 0
M  V30 5128 H 480.574 -2.07101 3.27395 0
M  V30 5129 H 480.988 -0.918496 5.16395 0
M  V30 5130 H 482.462 -2.60285 4.86781 0
M  V30 5131 H 482.939 -2.99063 3.21649 0
M  V30 5132 H 483.545 -1.50231 3.97883 0
M  V30 5133 N 481.861 -1.55662 -0.24637 0
M  V30 5134 C 482.794 -1.85332 -1.33143 0
M  V30 5135 C 483.772 -0.708464 -1.46354 0
M  V30 5136 O 484.956 -0.954274 -1.6256 0
M  V30 5137 C 482.083 -2.0385 -2.70487 0
M  V30 5138 C 481.129 -3.26488 -2.74423 0
M  V30 5139 S 481.962 -4.83124 -2.30979 0
M  V30 5140 C 483.118 -5.04647 -3.70246 0
M  V30 5141 H 483.351 -2.77077 -1.07777 0
M  V30 5142 H 480.884 -1.47776 -0.44738 0
M  V30 5143 H 482.842 -2.15202 -3.49569 0
M  V30 5144 H 481.503 -1.12947 -2.9309 0
M  V30 5145 H 480.696 -3.36413 -3.7529 0
M  V30 5146 H 480.298 -3.13864 -2.03385 0
M  V30 5147 H 482.59 -4.92023 -4.65746 0
M  V30 5148 H 483.533 -6.06625 -3.65255 0
M  V30 5149 H 483.941 -4.32491 -3.62784 0
M  V30 5150 N 483.339 0.512053 -1.4905 0
M  V30 5151 C 484.586 1.26686 -1.57978 0
M  V30 5152 C 484.914 1.92733 -0.261553 0
M  V30 5153 O 484.169 1.80772 0.749667 0
M  V30 5154 C 484.468 2.36446 -2.68008 0
M  V30 5155 C 484.134 1.87932 -4.09869 0
M  V30 5156 C 482.796 1.74419 -4.48477 0
M  V30 5157 C 485.148 1.5149 -4.98698 0
M  V30 5158 C 482.476 1.22827 -5.73699 0
M  V30 5159 C 484.828 1.01355 -6.24428 0
M  V30 5160 C 483.492 0.864735 -6.61875 0
M  V30 5161 H 482.762 0.463577 -0.578081 0
M  V30 5162 H 485.409 0.569421 -1.82838 0
M  V30 5163 H 483.714 3.11933 -2.37076 0
M  V30 5164 H 485.411 2.9453 -2.72127 0
M  V30 5165 H 482.001 1.99405 -3.79389 0
M  V30 5166 H 486.185 1.60782 -4.69535 0
M  V30 5167 H 481.441 1.10008 -6.01422 0
M  V30 5168 H 485.615 0.722351 -6.92644 0
M  V30 5169 H 483.242 0.462777 -7.5879 0
M  V30 5170 N 484.817 1.37938 0.762283 0
M  V30 5171 C 486.233 1.18945 1.06415 0
M  V30 5172 C 486.433 0.0321163 2.01474 0
M  V30 5173 O 485.489 -0.624844 2.44647 0
M  V30 5174 C 486.802 2.51218 1.65258 0
M  V30 5175 C 488.35 2.57824 1.7747 0
M  V30 5176 C 488.825 3.90251 2.39725 0
M  V30 5177 N 490.316 3.91744 2.47166 0
M  V30 5178 C 491.051 4.90966 2.96209 0
M  V30 5179 N 490.547 6.00585 3.45354 0
M  V30 5180 N 492.34 4.78363 2.9517 0
M  V30 5181 H 484.491 2.11994 0.131301 0
M  V30 5182 H 486.754 0.940262 0.120879 0
M  V30 5183 H 486.46 3.36317 1.02878 0
M  V30 5184 H 486.334 2.68989 2.64433 0
M  V30 5185 H 488.721 1.73126 2.3898 0
M  V30 5186 H 488.802 2.43928 0.770241 0
M  V30 5187 H 488.446 4.75368 1.78852 0
M  V30 5188 H 488.376 4.01454 3.40796 0
M  V30 5189 H 490.867 3.12563 2.12397 0
M  V30 5190 H 491.18 6.72236 3.81207 0
M  V30 5191 H 489.525 6.04217 3.43434 0
M  V30 5192 H 492.716 3.91841 2.56082 0
M  V30 5193 H 492.889 5.55843 3.33081 0
M  V30 5194 N 486.295 -0.989507 1.22664 0
M  V30 5195 C 487.572 -1.70326 0.961688 0
M  V30 5196 C 487.952 -2.04537 -0.522279 0
M  V30 5197 O 487.3 -1.73136 -1.49118 0
M  V30 5198 C 487.51 -2.95135 1.86269 0
M  V30 5199 C 488.858 -3.67842 2.12078 0
M  V30 5200 O 489.882 -3.0515 1.83745 0
M  V30 5201 O 488.741 -4.80644 2.60083 0
M  V30 5202 H 485.835 -0.743589 0.361946 0
M  V30 5203 H 488.381 -1.04555 1.33665 0
M  V30 5204 H 487.153 -2.66382 2.8663 0
M  V30 5205 H 486.776 -3.68645 1.48952 0
M  V30 5206 N 487.773 -1.03688 -1.18687 0
M  V30 5207 C 489.02 -0.73803 -1.88572 0
M  V30 5208 C 489.348 0.733973 -1.8012 0
M  V30 5209 O 488.603 1.55098 -1.19344 0
M  V30 5210 C 488.902 -1.14477 -3.3857 0
M  V30 5211 C 488.568 -2.61641 -3.67226 0
M  V30 5212 C 487.23 -3.01846 -3.74757 0
M  V30 5213 C 489.582 -3.56812 -3.79914 0
M  V30 5214 C 486.91 -4.36118 -3.92451 0
M  V30 5215 C 489.262 -4.90799 -3.99123 0
M  V30 5216 C 487.926 -5.3068 -4.04888 0
M  V30 5217 H 487.196 -0.270064 -0.690034 0
M  V30 5218 H 489.843 -1.3012 -1.40503 0
M  V30 5219 H 488.148 -0.500337 -3.88592 0
M  V30 5220 H 489.845 -0.89095 -3.90977 0
M  V30 5221 H 486.435 -2.29498 -3.61979 0
M  V30 5222 H 490.619 -3.26899 -3.73431 0
M  V30 5223 H 485.875 -4.66542 -3.95157 0
M  V30 5224 H 490.049 -5.64451 -4.07882 0
M  V30 5225 H 487.676 -6.34733 -4.18351 0
M  V30 5226 N 489.251 1.34841 -0.815825 0
M  V30 5227 C 490.499 1.98107 -0.399744 0
M  V30 5228 C 490.82 1.65019 1.03894 0
M  V30 5229 O 490.09 0.937311 1.72021 0
M  V30 5230 H 488.67 0.732827 -0.144823 0
M  V30 5231 H 491.332 1.64599 -1.0437 0
M  V30 5232 H 490.428 3.07856 -0.512965 0
M  V30 5233 N 490.729 0.570148 1.46925 0
M  V30 5234 C 492.145 0.23087 1.57921 0
M  V30 5235 C 492.345 -1.26676 1.56702 0
M  V30 5236 O 491.401 -2.04774 1.47729 0
M  V30 5237 C 492.714 0.868973 2.8787 0
M  V30 5238 C 494.262 0.841397 3.01479 0
M  V30 5239 C 494.737 1.45881 4.34146 0
M  V30 5240 N 496.228 1.42258 4.40814 0
M  V30 5241 C 496.963 1.8698 5.42057 0
M  V30 5242 N 496.459 2.39618 6.50042 0
M  V30 5243 N 498.252 1.77972 5.33181 0
M  V30 5244 H 490.403 1.54301 1.45962 0
M  V30 5245 H 492.666 0.644224 0.69547 0
M  V30 5246 H 492.372 1.922 2.94537 0
M  V30 5247 H 492.246 0.369682 3.75384 0
M  V30 5248 H 494.633 -0.202973 2.94401 0
M  V30 5249 H 494.714 1.37858 2.15474 0
M  V30 5250 H 494.358 2.50231 4.4198 0
M  V30 5251 H 494.288 0.896958 5.18905 0
M  V30 5252 H 496.779 1.03768 3.63374 0
M  V30 5253 H 497.092 2.71633 7.23488 0
M  V30 5254 H 495.437 2.43636 6.50897 0
M  V30 5255 H 498.628 1.36617 4.4772 0
M  V30 5256 H 498.801 2.13143 6.11943 0
M  V30 5257 N 492.207 -1.54576 0.307264 0
M  V30 5258 C 493.623 -1.59534 -0.0459251 0
M  V30 5259 C 493.823 -1.32414 -1.51884 0
M  V30 5260 O 492.879 -1.1006 -2.27251 0
M  V30 5261 C 494.192 -2.98566 0.357649 0
M  V30 5262 C 495.74 -3.11491 0.306937 0
M  V30 5263 C 496.215 -4.52842 0.685427 0
M  V30 5264 N 497.706 -4.58782 0.638203 0
M  V30 5265 C 498.441 -5.66238 0.903458 0
M  V30 5266 N 497.937 -6.81703 1.23501 0
M  V30 5267 N 499.73 -5.55937 0.830102 0
M  V30 5268 H 491.881 -1.70464 1.26712 0
M  V30 5269 H 494.144 -0.79647 0.514139 0
M  V30 5270 H 493.85 -3.23356 1.38325 0
M  V30 5271 H 493.724 -3.76117 -0.285565 0
M  V30 5272 H 496.111 -2.86446 -0.709424 0
M  V30 5273 H 496.192 -2.36081 0.984861 0
M  V30 5274 H 495.836 -4.78618 1.69963 0
M  V30 5275 H 495.766 -5.26598 -0.0146346 0
M  V30 5276 H 498.257 -3.75849 0.393138 0
M  V30 5277 H 498.57 -7.59582 1.42322 0
M  V30 5278 H 496.915 -6.8324 1.27311 0
M  V30 5279 H 500.106 -4.64608 0.570693 0
M  V30 5280 H 500.279 -6.39597 1.04019 0
M  V30 5281 N 493.685 -0.035106 -1.57561 0
M  V30 5282 C 494.615 0.942993 -2.13612 0
M  V30 5283 C 495.596 1.33531 -1.05373 0
M  V30 5284 O 496.781 1.41287 -1.33235 0
M  V30 5285 C 493.911 2.22332 -2.66807 0
M  V30 5286 C 492.865 1.97156 -3.79886 0
M  V30 5287 C 492.191 3.31506 -4.19533 0
M  V30 5288 C 493.491 1.30596 -5.05709 0
M  V30 5289 H 495.185 0.476179 -2.95589 0
M  V30 5290 H 492.731 0.227602 -1.4219 0
M  V30 5291 H 494.684 2.91142 -3.04654 0
M  V30 5292 H 493.408 2.7119 -1.81999 0
M  V30 5293 H 492.067 1.30763 -3.42486 0
M  V30 5294 H 491.715 3.78134 -3.31698 0
M  V30 5295 H 491.415 3.15465 -4.95738 0
M  V30 5296 H 492.939 4.01574 -4.59968 0
M  V30 5297 H 494.353 1.89416 -5.41105 0
M  V30 5298 H 492.75 1.24934 -5.86951 0
M  V30 5299 H 493.82 0.279742 -4.84092 0
M  V30 5300 N 495.163 1.55791 0.238111 0
M  V30 5301 C 496.095 1.87513 1.31802 0
M  V30 5302 C 497.108 0.762053 1.43863 0
M  V30 5303 O 498.297 1.04024 1.45056 0
M  V30 5304 C 495.397 2.05402 2.69561 0
M  V30 5305 C 494.57 3.3632 2.79656 0
M  V30 5306 C 493.629 3.43844 3.98319 0
M  V30 5307 O 492.655 4.16994 3.87433 0
M  V30 5308 N 493.857 2.73777 5.11885 0
M  V30 5309 H 496.622 2.80734 1.04922 0
M  V30 5310 H 494.183 1.56135 0.428196 0
M  V30 5311 H 496.175 2.07769 3.47296 0
M  V30 5312 H 494.745 1.18884 2.89111 0
M  V30 5313 H 493.965 3.46195 1.88528 0
M  V30 5314 H 495.253 4.22594 2.83358 0
M  V30 5315 H 494.651 2.14094 5.23622 0
M  V30 5316 H 493.208 2.81825 5.87723 0
M  V30 5317 N 496.642 -0.504142 1.49319 0
M  V30 5318 C 498.058 -0.835039 1.36012 0
M  V30 5319 C 498.258 -1.97674 0.390808 0
M  V30 5320 O 497.314 -2.51867 -0.178655 0
M  V30 5321 C 498.627 -1.17821 2.76656 0
M  V30 5322 C 500.175 -1.2866 2.85334 0
M  V30 5323 C 500.65 -1.66307 4.26739 0
M  V30 5324 N 502.141 -1.73362 4.29534 0
M  V30 5325 C 502.876 -2.0393 5.35911 0
M  V30 5326 N 502.372 -2.32744 6.52535 0
M  V30 5327 N 504.165 -2.05155 5.23324 0
M  V30 5328 H 496.316 0.248764 2.10938 0
M  V30 5329 H 498.579 0.0486962 0.946748 0
M  V30 5330 H 498.285 -0.412682 3.4927 0
M  V30 5331 H 498.159 -2.12239 3.11825 0
M  V30 5332 H 500.546 -2.04285 2.1296 0
M  V30 5333 H 500.627 -0.323004 2.53752 0
M  V30 5334 H 500.271 -0.91234 4.99639 0
M  V30 5335 H 500.201 -2.63761 4.55782 0
M  V30 5336 H 502.692 -1.53268 3.45424 0
M  V30 5337 H 503.005 -2.55248 7.2943 0
M  V30 5338 H 501.35 -2.30207 6.55767 0
M  V30 5339 H 504.541 -1.82119 4.3122 0
M  V30 5340 H 504.714 -2.28644 6.06322 0
M  V30 5341 N 498.12 -1.38341 -0.754957 0
M  V30 5342 C 499.397 -1.24995 -1.50451 0
M  V30 5343 C 499.777 0.149244 -2.10572 0
M  V30 5344 O 499.125 1.15861 -1.96948 0
M  V30 5345 C 499.335 -2.35904 -2.57197 0
M  V30 5346 C 500.683 -2.74262 -3.24138 0
M  V30 5347 O 501.707 -2.35205 -2.67501 0
M  V30 5348 O 500.566 -3.4161 -4.26574 0
M  V30 5349 H 497.66 -0.48872 -0.667144 0
M  V30 5350 H 500.206 -1.50165 -0.790486 0
M  V30 5351 H 498.978 -3.2953 -2.11011 0
M  V30 5352 H 498.601 -2.12291 -3.36182 0
M  V30 5353 N 499.598 0.982988 -1.23187 0
M  V30 5354 C 500.528 2.09301 -1.03515 0
M  V30 5355 C 501.509 1.70035 0.0471136 0
M  V30 5356 O 502.694 1.93847 -0.117029 0
M  V30 5357 C 499.824 3.4167 -0.622791 0
M  V30 5358 C 498.778 3.94828 -1.65211 0
M  V30 5359 C 498.104 5.23362 -1.09527 0
M  V30 5360 C 499.404 4.2439 -3.04451 0
M  V30 5361 H 501.098 2.26016 -1.96359 0
M  V30 5362 H 498.644 1.08611 -0.945501 0
M  V30 5363 H 500.597 4.18746 -0.472233 0
M  V30 5364 H 499.321 3.24811 0.341329 0
M  V30 5365 H 497.98 3.19895 -1.79061 0
M  V30 5366 H 497.628 5.02852 -0.122211 0
M  V30 5367 H 497.328 5.59895 -1.783 0
M  V30 5368 H 498.852 6.03062 -0.956511 0
M  V30 5369 H 500.266 4.92225 -2.93917 0
M  V30 5370 H 498.663 4.72118 -3.70438 0
M  V30 5371 H 499.733 3.31765 -3.53638 0
M  V30 5372 N 501.076 1.04316 1.18135 0
M  V30 5373 C 502.023 0.636398 2.21853 0
M  V30 5374 C 502.993 -0.357039 1.62217 0
M  V30 5375 O 504.178 -0.250453 1.89149 0
M  V30 5376 C 501.318 0.00812779 3.45099 0
M  V30 5377 C 500.431 1.04933 4.19062 0
M  V30 5378 C 499.566 0.389313 5.29771 0
M  V30 5379 C 498.605 1.41544 5.9551 0
M  V30 5380 N 497.742 0.78021 6.97751 0
M  V30 5381 H 502.582 1.52536 2.56002 0
M  V30 5382 H 500.119 0.76304 1.25762 0
M  V30 5383 H 502.077 -0.373497 4.15525 0
M  V30 5384 H 500.707 -0.844336 3.11562 0
M  V30 5385 H 499.759 1.54888 3.47439 0
M  V30 5386 H 501.071 1.82862 4.64072 0
M  V30 5387 H 500.225 -0.0463805 6.06682 0
M  V30 5388 H 498.964 -0.422038 4.8587 0
M  V30 5389 H 497.969 1.86124 5.17337 0
M  V30 5390 H 499.194 2.22854 6.41493 0
M  V30 5391 H 497.14 -0.0107899 6.55999 0
M  V30 5392 H 497.057 1.49716 7.41027 0
M  V30 5393 H 498.325 0.368996 7.78626 0
M  V30 5394 N 502.554 -1.34406 0.822964 0
M  V30 5395 C 503.97 -1.51275 0.508727 0
M  V30 5396 C 504.17 -1.76776 -0.967083 0
M  V30 5397 O 503.226 -1.81871 -1.75155 0
M  V30 5398 C 504.539 -2.67765 1.36829 0
M  V30 5399 C 506.087 -2.81647 1.36542 0
M  V30 5400 C 506.562 -4.01181 2.20947 0
M  V30 5401 N 508.053 -4.08388 2.18571 0
M  V30 5402 C 508.788 -5.00036 2.80627 0
M  V30 5403 N 508.284 -5.96906 3.51674 0
M  V30 5404 N 510.077 -4.92908 2.70181 0
M  V30 5405 H 502.228 -1.16113 1.77852 0
M  V30 5406 H 504.491 -0.56947 0.757897 0
M  V30 5407 H 504.197 -2.55551 2.41633 0
M  V30 5408 H 504.071 -3.62779 1.03303 0
M  V30 5409 H 506.458 -2.93303 0.325163 0
M  V30 5410 H 506.539 -1.87443 1.74066 0
M  V30 5411 H 506.183 -3.90286 3.25022 0
M  V30 5412 H 506.113 -4.94599 1.80774 0
M  V30 5413 H 508.604 -3.39051 1.66891 0
M  V30 5414 H 508.917 -6.63468 3.96271 0
M  V30 5415 H 507.262 -5.9703 3.5578 0
M  V30 5416 H 510.453 -4.1619 2.14251 0
M  V30 5417 H 510.626 -5.64137 3.18831 0
M  V30 5418 N 504.032 -0.577932 -1.46621 0
M  V30 5419 C 505.26 -0.0671642 -2.06791 0
M  V30 5420 C 505.675 1.23571 -1.42743 0
M  V30 5421 O 505.032 1.74602 -0.531062 0
M  V30 5422 C 505.083 0.110357 -3.61332 0
M  V30 5423 O 504.804 -1.14095 -4.22982 0
M  V30 5424 C 506.305 0.656025 -4.38419 0
M  V30 5425 H 503.525 -0.0552732 -0.66872 0
M  V30 5426 H 506.069 -0.797242 -1.8832 0
M  V30 5427 H 504.224 0.790637 -3.79246 0
M  V30 5428 H 504.638 -0.951742 -5.15793 0
M  V30 5429 H 506.112 0.729438 -5.47159 0
M  V30 5430 H 506.589 1.67195 -4.06131 0
M  V30 5431 H 507.195 0.0107692 -4.25299 0
M  V30 5432 N 505.51 1.54411 -0.315457 0
M  V30 5433 C 506.756 2.00716 0.289972 0
M  V30 5434 C 507.089 1.2034 1.5242 0
M  V30 5435 O 506.364 0.283579 1.92422 0
M  V30 5436 C 506.647 3.54507 0.632196 0
M  V30 5437 C 506.5 4.45615 -0.61218 0
M  V30 5438 C 507.819 4.15421 1.45305 0
M  V30 5439 H 504.938 0.729637 0.10392 0
M  V30 5440 H 507.58 1.8506 -0.430427 0
M  V30 5441 H 505.73 3.67979 1.24595 0
M  V30 5442 H 507.402 4.44026 -1.25053 0
M  V30 5443 H 505.645 4.15621 -1.24264 0
M  V30 5444 H 506.316 5.51022 -0.328379 0
M  V30 5445 H 508.792 4.05474 0.934331 0
M  V30 5446 H 507.668 5.23157 1.66127 0
M  V30 5447 H 507.929 3.68223 2.44671 0
M  V30 5448 N 506.988 0.0434614 1.5754 0
M  V30 5449 C 508.265 -0.671479 1.83713 0
M  V30 5450 C 508.645 -1.89495 0.930315 0
M  V30 5451 O 507.993 -2.28498 -0.0105639 0
M  V30 5452 C 508.203 -1.0361 3.33266 0
M  V30 5453 C 509.551 -1.42167 4.00092 0
M  V30 5454 O 510.575 -1.12866 3.37846 0
M  V30 5455 O 509.434 -1.96817 5.09829 0
M  V30 5456 H 506.528 -0.330726 0.75799 0
M  V30 5457 H 509.074 0.0722373 1.69546 0
M  V30 5458 H 507.846 -0.165938 3.90948 0
M  V30 5459 H 507.469 -1.83751 3.52592 0
M  V30 5460 N 508.466 -1.55915 -0.229846 0
M  V30 5461 C 509.429 -1.90914 -1.26824 0
M  V30 5462 C 510.429 -0.786999 -1.40225 0
M  V30 5463 O 511.619 -1.05484 -1.38632 0
M  V30 5464 C 508.751 -2.15264 -2.64337 0
M  V30 5465 H 509.944 -2.8378 -0.969998 0
M  V30 5466 H 507.497 -1.49069 -0.4699 0
M  V30 5467 H 508.232 -1.24923 -2.99274 0
M  V30 5468 H 508.017 -2.97005 -2.55989 0
M  V30 5469 H 509.507 -2.43467 -3.39284 0
M  V30 5470 N 509.944 0.496216 -1.49584 0
M  V30 5471 C 511.36 0.827814 -1.36453 0
M  V30 5472 C 511.56 1.97464 -0.401285 0
M  V30 5473 O 510.616 2.51958 0.165296 0
M  V30 5474 C 511.929 1.16352 -2.77277 0
M  V30 5475 C 513.477 1.27145 -2.86013 0
M  V30 5476 C 513.952 1.64042 -4.27615 0
M  V30 5477 N 515.443 1.71082 -4.30448 0
M  V30 5478 C 516.178 2.01085 -5.36984 0
M  V30 5479 N 515.674 2.2928 -6.5376 0
M  V30 5480 N 517.467 2.02376 -5.24405 0
M  V30 5481 H 509.618 -0.259947 -2.10803 0
M  V30 5482 H 511.881 -0.0537163 -0.946477 0
M  V30 5483 H 511.587 0.394153 -3.49484 0
M  V30 5484 H 511.461 2.10582 -3.12946 0
M  V30 5485 H 513.848 2.03152 -2.1404 0
M  V30 5486 H 513.929 0.309542 -2.5392 0
M  V30 5487 H 513.573 0.88583 -5.00115 0
M  V30 5488 H 513.503 2.6134 -4.57175 0
M  V30 5489 H 515.994 1.51434 -3.46232 0
M  V30 5490 H 516.307 2.51376 -7.30774 0
M  V30 5491 H 514.652 2.26726 -6.56978 0
M  V30 5492 H 517.843 1.79829 -4.32179 0
M  V30 5493 H 518.016 2.25425 -6.07526 0
M  V30 5494 N 511.423 1.38739 0.74761 0
M  V30 5495 C 512.353 1.39173 1.87492 0
M  V30 5496 C 513.334 0.256794 1.6815 0
M  V30 5497 O 514.519 0.460762 1.88655 0
M  V30 5498 C 511.649 1.22197 3.25093 0
M  V30 5499 C 510.603 2.32957 3.59047 0
M  V30 5500 C 509.929 2.01082 4.95449 0
M  V30 5501 C 511.229 3.75237 3.6331 0
M  V30 5502 H 512.923 2.3351 1.87386 0
M  V30 5503 H 510.469 1.12399 0.900134 0
M  V30 5504 H 512.422 1.21124 4.03617 0
M  V30 5505 H 511.146 0.243241 3.25693 0
M  V30 5506 H 509.805 2.33226 2.82845 0
M  V30 5507 H 509.453 1.01678 4.92616 0
M  V30 5508 H 509.153 2.75267 5.19136 0
M  V30 5509 H 510.677 2.01638 5.76346 0
M  V30 5510 H 512.091 3.76966 4.31937 0
M  V30 5511 H 510.488 4.48677 3.98509 0
M  V30 5512 H 511.558 4.07122 2.634 0
M  V30 5513 N 512.901 -0.976442 1.23707 0
M  V30 5514 C 513.848 -2.06952 1.02174 0
M  V30 5515 C 514.818 -1.65984 -0.0621034 0
M  V30 5516 O 516.003 -1.90584 0.0907906 0
M  V30 5517 C 513.143 -3.39425 0.62327 0
M  V30 5518 C 512.256 -3.9364 1.77966 0
M  V30 5519 C 511.391 -5.14343 1.3276 0
M  V30 5520 C 510.43 -5.60733 2.45449 0
M  V30 5521 N 509.567 -6.72662 2.01172 0
M  V30 5522 H 514.407 -2.24704 1.95734 0
M  V30 5523 H 511.944 -1.10143 0.975034 0
M  V30 5524 H 513.902 -4.15526 0.37332 0
M  V30 5525 H 512.532 -3.21624 -0.275329 0
M  V30 5526 H 511.584 -3.14258 2.14351 0
M  V30 5527 H 512.896 -4.24035 2.62671 0
M  V30 5528 H 512.05 -5.97789 1.03601 0
M  V30 5529 H 510.789 -4.8561 0.450975 0
M  V30 5530 H 509.794 -4.75865 2.75378 0
M  V30 5531 H 511.019 -5.91483 3.33654 0
M  V30 5532 H 508.965 -6.45681 1.15895 0
M  V30 5533 H 508.882 -7.02462 2.79434 0
M  V30 5534 H 510.15 -7.59572 1.75129 0
M  V30 5535 N 514.379 -1.04941 -1.1758 0
M  V30 5536 C 515.309 -0.669172 -2.23706 0
M  V30 5537 C 516.29 0.331835 -1.66832 0
M  V30 5538 O 517.475 0.209988 -1.93061 0
M  V30 5539 C 514.605 -0.0404889 -3.47276 0
M  V30 5540 C 513.559 -0.965983 -4.16957 0
M  V30 5541 C 512.885 -0.201312 -5.34321 0
M  V30 5542 C 514.185 -2.28902 -4.69469 0
M  V30 5543 H 515.879 -1.55639 -2.55767 0
M  V30 5544 H 513.425 -0.749793 -1.22939 0
M  V30 5545 H 515.378 0.237298 -4.20731 0
M  V30 5546 H 514.102 0.881658 -3.14475 0
M  V30 5547 H 512.761 -1.22829 -3.45411 0
M  V30 5548 H 512.409 0.723519 -4.97769 0
M  V30 5549 H 512.109 -0.817968 -5.81879 0
M  V30 5550 H 513.633 0.0692499 -6.10561 0
M  V30 5551 H 515.047 -2.07132 -5.34574 0
M  V30 5552 H 513.444 -2.85942 -5.27596 0
M  V30 5553 H 514.514 -2.92937 -3.86414 0
M  V30 5554 N 515.857 1.33968 -0.830081 0
M  V30 5555 C 517.082 2.02813 -0.433796 0
M  V30 5556 C 517.507 1.62076 0.954614 0
M  V30 5557 O 516.865 0.808955 1.62252 0
M  V30 5558 C 516.913 3.56348 -0.552115 0
M  V30 5559 O 516.017 4.10202 0.425191 0
M  V30 5560 H 515.358 0.639817 -0.177567 0
M  V30 5561 H 517.888 1.7106 -1.12248 0
M  V30 5562 H 517.898 4.05722 -0.430513 0
M  V30 5563 H 516.573 3.85344 -1.56471 0
M  V30 5564 H 515.15 3.71979 0.261878 0
M  V30 5565 N 517.335 0.585699 1.46312 0
M  V30 5566 C 518.245 -0.148236 2.34131 0
M  V30 5567 C 519.261 -0.882972 1.49932 0
M  V30 5568 O 520.437 -0.845484 1.82794 0
M  V30 5569 C 517.502 -1.14714 3.27172 0
M  V30 5570 C 516.563 -0.416746 4.27272 0
M  V30 5571 C 515.796 -1.36806 5.15868 0
M  V30 5572 O 516.019 -2.60475 5.07454 0
M  V30 5573 O 514.953 -0.877018 5.95476 0
M  V30 5574 H 518.779 0.572882 2.98248 0
M  V30 5575 H 516.364 0.346082 1.45336 0
M  V30 5576 H 518.246 -1.72303 3.84564 0
M  V30 5577 H 516.921 -1.84967 2.65648 0
M  V30 5578 H 515.828 0.201061 3.73559 0
M  V30 5579 H 517.161 0.244872 4.9159 0
M  V30 5580 N 518.813 -1.54241 0.323641 0
M  V30 5581 C 519.723 -2.28033 -0.551205 0
M  V30 5582 C 520.739 -1.32388 -1.12913 0
M  V30 5583 O 521.915 -1.65403 -1.14908 0
M  V30 5584 C 518.98 -3.02382 -1.69606 0
M  V30 5585 C 518.041 -4.13612 -1.14993 0
M  V30 5586 C 517.274 -4.84407 -2.24022 0
M  V30 5587 O 517.497 -4.54716 -3.44368 0
M  V30 5588 O 516.431 -5.71312 -1.89436 0
M  V30 5589 H 520.257 -3.03662 0.048066 0
M  V30 5590 H 517.842 -1.49133 0.0893289 0
M  V30 5591 H 519.724 -3.48941 -2.36259 0
M  V30 5592 H 518.399 -2.29628 -2.28151 0
M  V30 5593 H 517.306 -3.71402 -0.448484 0
M  V30 5594 H 518.639 -4.8841 -0.609608 0
M  V30 5595 N 520.291 -0.0518155 -1.57515 0
M  V30 5596 C 521.221 0.920283 -2.146 0
M  V30 5597 C 522.202 1.32406 -1.06783 0
M  V30 5598 O 523.387 1.39866 -1.34726 0
M  V30 5599 C 520.517 2.1949 -2.6915 0
M  V30 5600 C 519.471 1.93116 -3.81956 0
M  V30 5601 C 518.797 3.27037 -4.23026 0
M  V30 5602 C 520.097 1.25225 -5.07066 0
M  V30 5603 H 521.791 0.444801 -2.96077 0
M  V30 5604 H 519.337 0.212508 -1.42423 0
M  V30 5605 H 521.29 2.87894 -3.07725 0
M  V30 5606 H 520.014 2.69244 -1.84865 0
M  V30 5607 H 518.673 1.27123 -3.43854 0
M  V30 5608 H 518.321 3.74595 -3.3569 0
M  V30 5609 H 518.021 3.10189 -4.99056 0
M  V30 5610 H 519.545 3.96673 -4.64202 0
M  V30 5611 H 520.959 1.83666 -5.43083 0
M  V30 5612 H 519.356 1.18702 -5.88243 0
M  V30 5613 H 520.426 0.228382 -4.84362 0
M  V30 5614 N 521.769 1.56035 0.221574 0
M  V30 5615 C 522.994 1.83476 0.967026 0
M  V30 5616 C 523.419 0.632139 1.7716 0
M  V30 5617 O 522.777 -0.419082 1.7639 0
M  V30 5618 C 522.825 3.08907 1.86034 0
M  V30 5619 O 521.929 2.876 2.95567 0
M  V30 5620 H 521.27 0.604913 0.273817 0
M  V30 5621 H 523.8 2.03247 0.234893 0
M  V30 5622 H 523.81 3.3901 2.27016 0
M  V30 5623 H 522.485 3.96068 1.26898 0
M  V30 5624 H 521.062 2.6873 2.58532 0
M  V30 5625 N 523.247 -0.488276 1.49845 0
M  V30 5626 C 524.495 -1.23911 1.59657 0
M  V30 5627 C 524.816 -1.92816 0.291005 0
M  V30 5628 O 524.086 -1.83328 -0.690485 0
M  V30 5629 H 522.666 -0.460357 0.588286 0
M  V30 5630 H 525.328 -0.564794 1.86537 0
M  V30 5631 H 524.424 -1.99625 2.39909 0
M  V30 5632 N 524.725 -1.39134 -0.740242 0
M  V30 5633 C 525.973 -1.35803 -1.49673 0
M  V30 5634 C 526.294 0.0470897 -1.94943 0
M  V30 5635 O 525.564 0.997347 -1.68611 0
M  V30 5636 H 524.144 -0.499736 -0.555224 0
M  V30 5637 H 526.806 -1.73947 -0.879107 0
M  V30 5638 H 525.902 -2.0174 -2.38133 0
M  V30 5639 N 526.204 0.969867 -1.24223 0
M  V30 5640 C 527.62 1.23809 -1.00716 0
M  V30 5641 C 527.82 1.99469 0.285358 0
M  V30 5642 O 526.876 2.31764 1.00207 0
M  V30 5643 C 528.189 2.02734 -2.2208 0
M  V30 5644 C 529.737 2.15834 -2.26681 0
M  V30 5645 C 530.212 2.98154 -3.47661 0
M  V30 5646 N 531.703 3.05737 -3.47964 0
M  V30 5647 C 532.438 3.69785 -4.38231 0
M  V30 5648 N 531.934 4.35569 -5.3875 0
M  V30 5649 N 533.727 3.66775 -4.25949 0
M  V30 5650 H 525.878 0.463294 -2.07286 0
M  V30 5651 H 528.141 0.267348 -0.909521 0
M  V30 5652 H 527.847 1.54524 -3.15935 0
M  V30 5653 H 527.721 3.0347 -2.24021 0
M  V30 5654 H 530.108 2.63248 -1.33359 0
M  V30 5655 H 530.189 1.14453 -2.28767 0
M  V30 5656 H 529.833 2.51435 -4.41297 0
M  V30 5657 H 529.763 3.99729 -3.42818 0
M  V30 5658 H 532.254 2.58941 -2.75242 0
M  V30 5659 H 532.567 4.82251 -6.03866 0
M  V30 5660 H 530.912 4.34244 -5.42639 0
M  V30 5661 H 534.103 3.14558 -3.46657 0
M  V30 5662 H 534.276 4.16407 -4.96497 0
M  V30 5663 N 527.682 1.05563 1.17022 0
M  V30 5664 C 528.612 0.681026 2.23348 0
M  V30 5665 C 529.593 -0.322983 1.67005 0
M  V30 5666 O 530.778 -0.199746 1.9317 0
M  V30 5667 C 527.908 0.0589053 3.4725 0
M  V30 5668 C 526.862 0.988082 4.16438 0
M  V30 5669 C 526.188 0.229646 5.34207 0
M  V30 5670 C 527.488 2.31388 4.68249 0
M  V30 5671 H 529.182 1.56993 2.54938 0
M  V30 5672 H 526.728 0.756302 1.2254 0
M  V30 5673 H 528.681 -0.214982 4.20851 0
M  V30 5674 H 527.405 -0.864968 3.14938 0
M  V30 5675 H 526.064 1.24659 3.44754 0
M  V30 5676 H 525.712 -0.697111 4.98146 0
M  V30 5677 H 525.412 0.848815 5.81437 0
M  V30 5678 H 526.936 -0.0368694 6.10589 0
M  V30 5679 H 528.35 2.09964 5.33468 0
M  V30 5680 H 526.747 2.88736 5.26072 0
M  V30 5681 H 527.817 2.94982 3.84855 0
M  V30 5682 N 529.16 -1.33526 0.837174 0
M  V30 5683 C 530.107 -2.29248 0.267169 0
M  V30 5684 C 531.077 -1.54252 -0.616071 0
M  V30 5685 O 532.262 -1.82559 -0.554699 0
M  V30 5686 C 529.402 -3.40638 -0.553152 0
M  V30 5687 C 528.515 -4.30548 0.353921 0
M  V30 5688 C 527.65 -5.29051 -0.477339 0
M  V30 5689 C 526.689 -6.106 0.42823 0
M  V30 5690 N 525.826 -7.01152 -0.364801 0
M  V30 5691 H 530.666 -2.77398 1.08877 0
M  V30 5692 H 528.203 -1.36496 0.54838 0
M  V30 5693 H 530.161 -4.03921 -1.04422 0
M  V30 5694 H 528.791 -2.93685 -1.33973 0
M  V30 5695 H 527.843 -3.68001 0.963289 0
M  V30 5696 H 529.155 -4.87631 1.04964 0
M  V30 5697 H 528.309 -5.97853 -1.0323 0
M  V30 5698 H 527.048 -4.72541 -1.2065 0
M  V30 5699 H 526.053 -5.40718 0.995219 0
M  V30 5700 H 527.278 -6.69193 1.15573 0
M  V30 5701 H 525.224 -6.47092 -1.07738 0
M  V30 5702 H 525.141 -7.5551 0.272238 0
M  V30 5703 H 526.409 -7.74263 -0.902054 0
M  V30 5704 N 530.638 -0.59345 -1.46 0
M  V30 5705 C 532.049 -0.169801 -1.85926 0
M  V30 5706 C 532.4 1.26984 -1.49565 0
M  V30 5707 O 531.525 1.96076 -0.915602 0
M  V30 5708 C 532.12 -0.301385 -3.37457 0
M  V30 5709 C 530.679 0.0674684 -3.7634 0
M  V30 5710 C 529.826 -0.632383 -2.69993 0
M  V30 5711 H 532.777 -0.801014 -1.37002 0
M  V30 5712 H 532.798 0.470331 -3.77582 0
M  V30 5713 H 532.31 -1.34927 -3.63891 0
M  V30 5714 H 530.411 1.11507 -3.55523 0
M  V30 5715 H 530.524 -0.316332 -4.78055 0
M  V30 5716 H 528.888 -0.0714961 -2.546 0
M  V30 5717 H 529.671 -1.68212 -2.99265 0
M  V30 5718 N 532.116 1.54067 -0.331816 0
M  V30 5719 C 533.063 2.24623 0.530372 0
M  V30 5720 C 534.033 1.24009 1.10503 0
M  V30 5721 O 535.218 1.52712 1.14384 0
M  V30 5722 C 532.358 3.01374 1.68129 0
M  V30 5723 C 531.471 4.16821 1.13507 0
M  V30 5724 C 530.606 4.81085 2.25234 0
M  V30 5725 C 529.645 5.88621 1.67903 0
M  V30 5726 N 528.782 6.46713 2.73326 0
M  V30 5727 H 533.622 2.97898 -0.0778607 0
M  V30 5728 H 531.159 1.47014 -0.0501965 0
M  V30 5729 H 533.117 3.44125 2.35868 0
M  V30 5730 H 531.747 2.30419 2.26069 0
M  V30 5731 H 530.799 3.78796 0.348979 0
M  V30 5732 H 532.111 4.94203 0.675633 0
M  V30 5733 H 531.265 5.26846 3.00862 0
M  V30 5734 H 530.004 4.03102 2.74518 0
M  V30 5735 H 529.009 5.42254 0.907773 0
M  V30 5736 H 530.234 6.68506 1.19487 0
M  V30 5737 H 528.18 5.71599 3.21886 0
M  V30 5738 H 528.097 7.19532 2.3197 0
M  V30 5739 H 529.365 6.97129 3.48758 0
M  V30 5740 N 533.594 0.0601682 1.57485 0
M  V30 5741 C 535.005 -0.474217 1.80577 0
M  V30 5742 C 535.356 -1.70365 0.973147 0
M  V30 5743 O 534.481 -2.15544 0.192306 0
M  V30 5744 C 535.076 -0.867102 3.27516 0
M  V30 5745 C 533.635 -1.34642 3.51495 0
M  V30 5746 C 532.782 -0.32594 2.75378 0
M  V30 5747 H 535.733 0.285973 1.56102 0
M  V30 5748 H 535.754 -1.72938 3.38929 0
M  V30 5749 H 535.266 0.0278927 3.8809 0
M  V30 5750 H 533.367 -2.2603 2.96212 0
M  V30 5751 H 533.48 -1.33237 4.60201 0
M  V30 5752 H 531.844 -0.800749 2.41785 0
M  V30 5753 H 532.627 0.561125 3.38683 0
M  V30 5754 N 535.072 -1.5615 -0.213296 0
M  V30 5755 C 536.321 -1.78743 -0.93455 0
M  V30 5756 C 536.634 -0.630199 -1.8517 0
M  V30 5757 O 537.84 -0.739966 -2.61222 0
M  V30 5758 C 536.296 -3.16571 -1.71203 0
M  V30 5759 C 535.904 -4.40043 -0.840617 0
M  V30 5760 C 537.648 -3.48485 -2.42401 0
M  V30 5761 C 535.555 -5.68895 -1.61592 0
M  V30 5762 H 534.485 -0.666426 -0.352692 0
M  V30 5763 H 537.136 -1.82532 -0.188227 0
M  V30 5764 H 535.518 -3.06981 -2.50157 0
M  V30 5765 H 536.692 -4.6071 -0.0910326 0
M  V30 5766 H 535.007 -4.15706 -0.240365 0
M  V30 5767 H 537.604 -4.41983 -3.00924 0
M  V30 5768 H 537.947 -2.71371 -3.15695 0
M  V30 5769 H 538.48 -3.59442 -1.7043 0
M  V30 5770 H 535.219 -6.48925 -0.926106 0
M  V30 5771 H 534.739 -5.52275 -2.33991 0
M  V30 5772 H 536.418 -6.09365 -2.17447 0
M  V30 5773 N 536.55 0.480323 -1.50102 0
M  V30 5774 C 537.827 1.24159 -1.51142 0
M  V30 5775 C 538.207 2.09605 -0.250818 0
M  V30 5776 O 537.555 2.15274 0.766118 0
M  V30 5777 C 537.765 2.08057 -2.80202 0
M  V30 5778 C 539.113 2.66556 -3.30504 0
M  V30 5779 O 540.137 2.18308 -2.81461 0
M  V30 5780 O 538.996 3.54442 -4.15973 0
M  V30 5781 H 536.09 0.562928 -0.605839 0
M  V30 5782 H 538.636 0.492899 -1.62384 0
M  V30 5783 H 537.408 1.45032 -3.6343 0
M  V30 5784 H 537.031 2.90079 -2.71919 0
M  V30 5785 N 538.028 1.39524 0.732853 0
M  V30 5786 C 539.274 1.37068 1.49467 0
M  V30 5787 C 539.607 -0.0327166 1.94172 0
M  V30 5788 O 538.882 -0.998071 1.66939 0
M  V30 5789 C 539.165 2.34494 2.73285 0
M  V30 5790 C 539.018 3.83784 2.34585 0
M  V30 5791 C 540.337 2.29717 3.75391 0
M  V30 5792 H 537.456 0.499206 0.542183 0
M  V30 5793 H 540.098 1.70532 0.837783 0
M  V30 5794 H 538.248 2.06087 3.29333 0
M  V30 5795 H 539.92 4.22949 1.84151 0
M  V30 5796 H 538.163 4.00455 1.66787 0
M  V30 5797 H 538.834 4.47444 3.23262 0
M  V30 5798 H 541.31 2.54839 3.28932 0
M  V30 5799 H 540.186 2.99962 4.59689 0
M  V30 5800 H 540.447 1.30291 4.22465 0
M  V30 5801 N 539.506 -0.963266 1.24736 0
M  V30 5802 C 540.438 -2.06162 1.0015 0
M  V30 5803 C 541.451 -1.62771 -0.0305905 0
M  V30 5804 O 542.64 -1.77296 0.206966 0
M  V30 5805 C 539.74 -3.35333 0.490385 0
M  V30 5806 C 538.913 -4.07609 1.58663 0
M  V30 5807 C 537.972 -5.15052 1.0774 0
M  V30 5808 O 536.998 -5.4098 1.77002 0
M  V30 5809 N 538.2 -5.80436 -0.0858605 0
M  V30 5810 H 540.965 -2.27825 1.94719 0
M  V30 5811 H 538.526 -1.13121 1.15825 0
M  V30 5812 H 540.518 -4.04477 0.134371 0
M  V30 5813 H 539.088 -3.10507 -0.361155 0
M  V30 5814 H 538.308 -3.32681 2.11463 0
M  V30 5815 H 539.596 -4.52656 2.32336 0
M  V30 5816 H 538.994 -5.6178 -0.664806 0
M  V30 5817 H 537.551 -6.50674 -0.382981 0
M  V30 5818 N 540.985 -1.06182 -1.16461 0
M  V30 5819 C 542.231 -0.779015 -1.87241 0
M  V30 5820 C 542.564 0.692715 -1.81425 0
M  V30 5821 O 541.839 1.5074 -1.22913 0
M  V30 5822 C 542.122 -1.2728 -3.36856 0
M  V30 5823 C 541.975 -2.80821 -3.51368 0
M  V30 5824 C 543.294 -0.879799 -4.31216 0
M  V30 5825 H 540.413 -0.284464 -0.679889 0
M  V30 5826 H 543.055 -1.31755 -1.36896 0
M  V30 5827 H 541.205 -0.814673 -3.79862 0
M  V30 5828 H 542.877 -3.34833 -3.17308 0
M  V30 5829 H 541.12 -3.19606 -2.93316 0
M  V30 5830 H 541.791 -3.10435 -4.56436 0
M  V30 5831 H 544.267 -1.27436 -3.96105 0
M  V30 5832 H 543.143 -1.25278 -5.34412 0
M  V30 5833 H 543.404 0.215372 -4.41575 0
M  V30 5834 N 542.463 1.3308 -0.844243 0
M  V30 5835 C 543.712 1.96868 -0.438833 0
M  V30 5836 C 544.025 1.67599 1.00846 0
M  V30 5837 O 545.231 2.25043 1.51881 0
M  V30 5838 C 543.687 3.5234 -0.73377 0
M  V30 5839 C 543.295 3.90481 -2.1961 0
M  V30 5840 C 545.039 4.22653 -0.395574 0
M  V30 5841 C 542.946 5.38954 -2.43481 0
M  V30 5842 H 541.876 0.736749 -0.160364 0
M  V30 5843 H 544.527 1.51623 -1.03358 0
M  V30 5844 H 542.909 3.95941 -0.068589 0
M  V30 5845 H 544.083 3.57922 -2.90221 0
M  V30 5846 H 542.398 3.33165 -2.4978 0
M  V30 5847 H 544.995 5.31848 -0.551477 0
M  V30 5848 H 545.338 4.11004 0.661921 0
M  V30 5849 H 545.871 3.84601 -1.01621 0
M  V30 5850 H 542.61 5.55612 -3.47816 0
M  V30 5851 H 542.13 5.72954 -1.77437 0
M  V30 5852 H 543.809 6.05907 -2.26905 0
M  V30 5853 N 543.941 0.601185 1.45683 0
M  V30 5854 C 545.169 0.100054 2.06658 0
M  V30 5855 C 545.584 -1.21285 1.44691 0
M  V30 5856 O 544.941 -1.73735 0.558772 0
M  V30 5857 C 544.992 -0.0528579 3.61461 0
M  V30 5858 O 544.713 1.20809 4.21114 0
M  V30 5859 C 546.214 -0.586193 4.39407 0
M  V30 5860 H 543.434 0.065905 0.667756 0
M  V30 5861 H 545.978 0.827101 1.87028 0
M  V30 5862 H 544.133 -0.730203 3.80456 0
M  V30 5863 H 544.547 1.03368 5.14213 0
M  V30 5864 H 546.021 -0.642297 5.4825 0
M  V30 5865 H 546.498 -1.60713 4.0874 0
M  V30 5866 H 547.104 0.0568935 4.25262 0
M  V30 5867 N 545.419 -1.53889 0.339982 0
M  V30 5868 C 546.369 -2.2165 -0.534354 0
M  V30 5869 C 547.353 -1.20266 -1.06887 0
M  V30 5870 O 548.545 -1.45827 -1.00316 0
M  V30 5871 C 545.674 -2.99014 -1.68659 0
M  V30 5872 C 544.76 -4.07751 -1.16618 0
M  V30 5873 N 545.151 -5.04469 -0.366717 0
M  V30 5874 C 543.449 -4.21998 -1.4434 0
M  V30 5875 C 544.15 -5.81638 -0.0847275 0
M  V30 5876 N 543.126 -5.39388 -0.675391 0
M  V30 5877 H 546.928 -2.93781 0.0835562 0
M  V30 5878 H 544.442 -1.61736 0.146665 0
M  V30 5879 H 546.439 -3.46056 -2.32489 0
M  V30 5880 H 545.099 -2.28408 -2.30781 0
M  V30 5881 H 546.11 -5.17899 -0.00811038 0
M  V30 5882 H 542.787 -3.62612 -2.06928 0
M  V30 5883 H 544.177 -6.69563 0.559943 0
M  V30 5884 N 546.897 -0.0685191 -1.57451 0
M  V30 5885 C 547.847 0.909895 -2.09057 0
M  V30 5886 C 548.831 1.26088 -0.999528 0
M  V30 5887 O 550.023 1.24041 -1.26265 0
M  V30 5888 C 547.152 2.17863 -2.65312 0
M  V30 5889 C 546.238 1.85427 -3.81415 0
M  V30 5890 N 546.629 1.23426 -4.9051 0
M  V30 5891 C 544.927 2.15196 -3.90649 0
M  V30 5892 C 545.628 1.09008 -5.71395 0
M  V30 5893 N 544.604 1.59871 -5.1956 0
M  V30 5894 H 548.406 0.426145 -2.90794 0
M  V30 5895 H 545.92 0.135462 -1.61834 0
M  V30 5896 H 547.917 2.88872 -3.00597 0
M  V30 5897 H 546.577 2.66829 -1.85021 0
M  V30 5898 H 547.588 0.904305 -5.09944 0
M  V30 5899 H 544.265 2.66562 -3.21327 0
M  V30 5900 H 545.655 0.607305 -6.6915 0
M  V30 5901 N 548.375 1.56261 0.205012 0
M  V30 5902 C 549.308 1.88797 1.28183 0
M  V30 5903 C 550.286 0.747018 1.44424 0
M  V30 5904 O 551.47 0.997039 1.59973 0
M  V30 5905 C 548.597 2.10949 2.64987 0
M  V30 5906 C 547.643 3.33649 2.6567 0
M  V30 5907 S 548.476 4.89078 2.18088 0
M  V30 5908 C 549.632 5.14286 3.56736 0
M  V30 5909 H 549.865 2.79837 1.00393 0
M  V30 5910 H 547.398 1.48911 0.408042 0
M  V30 5911 H 549.356 2.24395 3.4374 0
M  V30 5912 H 548.017 1.20678 2.89993 0
M  V30 5913 H 547.21 3.46245 3.66239 0
M  V30 5914 H 546.812 3.19146 1.94992 0
M  V30 5915 H 549.104 5.04198 4.52537 0
M  V30 5916 H 550.047 6.16096 3.49043 0
M  V30 5917 H 550.455 4.41957 3.51189 0
M  V30 5918 N 549.853 -0.472356 1.50355 0
M  V30 5919 C 550.785 -1.58795 1.65278 0
M  V30 5920 C 551.798 -1.53782 0.534313 0
M  V30 5921 O 552.987 -1.59193 0.807446 0
M  V30 5922 C 550.087 -2.97672 1.62001 0
M  V30 5923 C 549.26 -3.27568 2.89859 0
M  V30 5924 C 548.319 -4.45993 2.79242 0
M  V30 5925 O 547.345 -4.46364 3.53197 0
M  V30 5926 N 548.547 -5.47578 1.92713 0
M  V30 5927 H 551.312 -1.46411 2.61503 0
M  V30 5928 H 548.873 -0.660751 1.47803 0
M  V30 5929 H 550.865 -3.74862 1.52513 0
M  V30 5930 H 549.435 -3.03832 0.735159 0
M  V30 5931 H 548.655 -2.39003 3.13483 0
M  V30 5932 H 549.943 -3.44352 3.74565 0
M  V30 5933 H 549.341 -5.50099 1.31939 0
M  V30 5934 H 547.898 -6.23757 1.8913 0
M  V30 5935 N 551.331 -1.39911 -0.725443 0
M  V30 5936 C 552.747 -1.21725 -1.03224 0
M  V30 5937 C 552.947 -0.0855224 -2.01318 0
M  V30 5938 O 552.003 0.55976 -2.46217 0
M  V30 5939 C 553.316 -2.55511 -1.58539 0
M  V30 5940 C 554.864 -2.62439 -1.70572 0
M  V30 5941 C 555.339 -3.9647 -2.29294 0
M  V30 5942 N 556.83 -3.98159 -2.36692 0
M  V30 5943 C 557.565 -4.98647 -2.83088 0
M  V30 5944 N 557.061 -6.0953 -3.2931 0
M  V30 5945 N 558.854 -4.8602 -2.82384 0
M  V30 5946 H 551.005 -2.12267 -0.075048 0
M  V30 5947 H 553.268 -0.943136 -0.0959066 0
M  V30 5948 H 552.974 -3.38926 -0.939249 0
M  V30 5949 H 552.848 -2.75905 -2.57208 0
M  V30 5950 H 555.235 -1.79401 -2.34306 0
M  V30 5951 H 555.316 -2.45885 -0.705297 0
M  V30 5952 H 554.96 -4.79942 -1.66186 0
M  V30 5953 H 554.89 -4.10349 -3.30032 0
M  V30 5954 H 557.381 -3.18085 -2.04035 0
M  V30 5955 H 557.694 -6.82106 -3.6325 0
M  V30 5956 H 556.039 -6.1311 -3.27294 0
M  V30 5957 H 559.23 -3.98493 -2.45603 0
M  V30 5958 H 559.403 -5.64478 -3.18226 0
M  V30 5959 N 552.809 0.956637 -1.25245 0
M  V30 5960 C 554.039 1.7332 -1.12445 0
M  V30 5961 C 554.447 1.86392 0.324732 0
M  V30 5962 O 553.79 1.35967 1.23526 0
M  V30 5963 C 553.852 3.16603 -1.70303 0
M  V30 5964 C 553.516 3.26966 -3.19284 0
M  V30 5965 C 554.513 3.11434 -4.16299 0
M  V30 5966 C 552.198 3.50851 -3.59456 0
M  V30 5967 C 554.192 3.1963 -5.51467 0
M  V30 5968 C 551.879 3.58684 -4.94761 0
M  V30 5969 C 552.877 3.43087 -5.90576 0
M  V30 5970 O 552.565 3.50598 -7.2342 0
M  V30 5971 H 552.297 0.549981 -0.393061 0
M  V30 5972 H 554.851 1.20892 -1.66055 0
M  V30 5973 H 553.081 3.70385 -1.11138 0
M  V30 5974 H 554.77 3.76109 -1.52632 0
M  V30 5975 H 555.536 2.92853 -3.86604 0
M  V30 5976 H 551.415 3.62053 -2.85375 0
M  V30 5977 H 554.959 3.07373 -6.26233 0
M  V30 5978 H 550.856 3.76782 -5.24124 0
M  V30 5979 H 551.624 3.67242 -7.31489 0
M  V30 5980 N 554.287 1.06798 1.15896 0
M  V30 5981 C 555.25 0.687328 2.18651 0
M  V30 5982 C 556.25 -0.269559 1.58524 0
M  V30 5983 O 557.44 -0.0512627 1.74125 0
M  V30 5984 C 554.572 0.0121642 3.40898 0
M  V30 5985 H 555.765 1.59701 2.53842 0
M  V30 5986 H 553.318 0.863828 1.3026 0
M  V30 5987 H 554.053 -0.910025 3.1127 0
M  V30 5988 H 553.838 0.700309 3.85795 0
M  V30 5989 H 555.328 -0.239703 4.16911 0
M  V30 5990 N 555.766 -1.3263 0.851289 0
M  V30 5991 C 557.012 -1.9766 0.453694 0
M  V30 5992 C 557.345 -1.67225 -0.987396 0
M  V30 5993 O 556.62 -0.958693 -1.69232 0
M  V30 5994 C 556.903 -3.5344 0.68936 0
M  V30 5995 C 556.756 -3.93517 2.17862 0
M  V30 5996 C 558.075 -4.39866 0.143555 0
M  V30 5997 H 555.194 -0.717989 0.166314 0
M  V30 5998 H 557.836 -1.57068 1.06909 0
M  V30 5999 H 555.986 -3.88147 0.165546 0
M  V30 6000 H 557.658 -3.69006 2.76826 0
M  V30 6001 H 555.901 -3.42798 2.65841 0
M  V30 6002 H 556.572 -5.02065 2.29422 0
M  V30 6003 H 559.048 -4.11875 0.591451 0
M  V30 6004 H 557.924 -5.47858 0.338043 0
M  V30 6005 H 558.185 -4.31696 -0.953466 0
M  V30 6006 N 557.244 -0.608902 -1.45362 0
M  V30 6007 C 558.49 -0.113196 -2.03085 0
M  V30 6008 C 558.845 1.24288 -1.46868 0
M  V30 6009 O 558.138 1.80792 -0.634402 0
M  V30 6010 C 558.332 -0.0167296 -3.57396 0
M  V30 6011 C 558.161 -1.36191 -4.28581 0
M  V30 6012 C 556.931 -1.94295 -4.66452 0
M  V30 6013 C 559.129 -2.29097 -4.60455 0
M  V30 6014 N 557.111 -3.2228 -5.22503 0
M  V30 6015 C 558.482 -3.41681 -5.17353 0
M  V30 6016 C 560.537 -2.28453 -4.42395 0
M  V30 6017 C 559.24 -4.53789 -5.58093 0
M  V30 6018 C 561.266 -3.39608 -4.8417 0
M  V30 6019 C 560.628 -4.50915 -5.41161 0
M  V30 6020 H 556.727 -0.0848213 -0.777386 0
M  V30 6021 H 559.311 -0.807541 -1.77163 0
M  V30 6022 H 557.482 0.646839 -3.82976 0
M  V30 6023 H 559.214 0.485757 -4.01774 0
M  V30 6024 H 555.969 -1.47486 -4.5005 0
M  V30 6025 H 556.393 -3.87654 -5.55025 0
M  V30 6026 H 561.035 -1.43658 -3.97646 0
M  V30 6027 H 558.753 -5.39307 -6.01808 0
M  V30 6028 H 562.339 -3.40259 -4.71927 0
M  V30 6029 H 561.219 -5.35505 -5.72891 0
M  V30 6030 N 558.722 1.53707 -0.348139 0
M  V30 6031 C 559.969 2.00988 0.246966 0
M  V30 6032 C 560.297 1.23586 1.50189 0
M  V30 6033 O 559.552 0.312817 1.93184 0
M  V30 6034 C 559.851 3.52292 0.602061 0
M  V30 6035 C 559.517 4.47453 -0.556509 0
M  V30 6036 C 558.179 4.73188 -0.874446 0
M  V30 6037 C 560.531 5.03851 -1.33354 0
M  V30 6038 C 557.859 5.52577 -1.9717 0
M  V30 6039 C 560.211 5.84437 -2.42108 0
M  V30 6040 C 558.875 6.08465 -2.74456 0
M  V30 6041 H 558.145 0.735469 0.0903712 0
M  V30 6042 H 560.792 1.85464 -0.477001 0
M  V30 6043 H 559.097 3.65672 1.40681 0
M  V30 6044 H 560.794 3.86337 1.07447 0
M  V30 6045 H 557.384 4.27558 -0.298652 0
M  V30 6046 H 561.568 4.8393 -1.10117 0
M  V30 6047 H 556.824 5.69418 -2.22651 0
M  V30 6048 H 560.998 6.27151 -3.02745 0
M  V30 6049 H 558.625 6.69768 -3.59604 0
M  V30 6050 N 560.2 0.0768682 1.57412 0
M  V30 6051 C 561.448 -0.589918 1.93299 0
M  V30 6052 C 561.769 -1.69842 0.958049 0
M  V30 6053 O 561.039 -1.95899 0.00703261 0
M  V30 6054 H 559.619 -0.220901 0.713591 0
M  V30 6055 H 562.281 0.135917 1.94425 0
M  V30 6056 H 561.377 -1.01195 2.95239 0
M  V30 6057 N 561.678 -1.56367 -0.196722 0
M  V30 6058 C 562.926 -1.80172 -0.915554 0
M  V30 6059 C 563.247 -0.649649 -1.8386 0
M  V30 6060 O 562.517 0.332111 -1.93064 0
M  V30 6061 H 561.097 -0.664592 -0.341067 0
M  V30 6062 H 563.759 -1.93844 -0.202622 0
M  V30 6063 H 562.855 -2.7327 -1.50764 0
M  V30 6064 N 563.156 0.464375 -1.50603 0
M  V30 6065 C 564.381 1.24372 -1.65971 0
M  V30 6066 C 564.806 1.84901 -0.345453 0
M  V30 6067 O 564.164 1.67596 0.691457 0
M  V30 6068 C 564.212 2.32331 -2.7578 0
M  V30 6069 O 563.316 3.37146 -2.375 0
M  V30 6070 H 562.657 0.365604 -0.554283 0
M  V30 6071 H 565.187 0.55183 -1.97018 0
M  V30 6072 H 565.197 2.77539 -2.99059 0
M  V30 6073 H 563.872 1.87648 -3.71162 0
M  V30 6074 H 562.449 2.97602 -2.24694 0
M  V30 6075 N 564.634 1.40294 0.718013 0
M  V30 6076 C 565.567 1.34767 1.84155 0
M  V30 6077 C 566.545 0.218455 1.61126 0
M  V30 6078 O 567.729 0.401716 1.8417 0
M  V30 6079 C 564.856 1.09676 3.20451 0
M  V30 6080 C 563.902 2.25016 3.62312 0
M  V30 6081 S 564.735 3.87397 3.69707 0
M  V30 6082 C 565.891 3.64565 5.08766 0
M  V30 6083 H 566.124 2.29851 1.88562 0
M  V30 6084 H 563.657 1.2655 0.884555 0
M  V30 6085 H 565.615 0.95885 3.99144 0
M  V30 6086 H 564.276 0.162502 3.13679 0
M  V30 6087 H 563.469 2.03097 4.61268 0
M  V30 6088 H 563.071 2.35098 2.90869 0
M  V30 6089 H 565.363 3.22882 5.95612 0
M  V30 6090 H 566.306 4.63043 5.35721 0
M  V30 6091 H 566.714 2.98303 4.79245 0
M  V30 6092 N 566.112 -0.949982 1.2575 0
M  V30 6093 C 567.042 -2.06483 1.09028 0
M  V30 6094 C 568.023 -1.701 -0.00201532 0
M  V30 6095 O 569.208 -1.93469 0.168383 0
M  V30 6096 C 566.338 -3.39899 0.71316 0
M  V30 6097 C 565.292 -3.90309 1.75621 0
M  V30 6098 C 564.618 -5.20274 1.23365 0
M  V30 6099 C 565.918 -4.16169 3.15596 0
M  V30 6100 H 567.612 -2.20731 2.02283 0
M  V30 6101 H 565.158 -1.06066 0.973964 0
M  V30 6102 H 567.111 -4.17346 0.58309 0
M  V30 6103 H 565.835 -3.25602 -0.255091 0
M  V30 6104 H 564.494 -3.15035 1.8748 0
M  V30 6105 H 564.142 -5.02351 0.255491 0
M  V30 6106 H 563.842 -5.54971 1.93082 0
M  V30 6107 H 565.366 -6.00314 1.11607 0
M  V30 6108 H 566.78 -4.84259 3.06864 0
M  V30 6109 H 565.177 -4.62131 3.82825 0
M  V30 6110 H 566.247 -3.22273 3.6231 0
M  V30 6111 N 567.59 -1.07411 -1.15328 0
M  V30 6112 C 568.553 -0.698914 -2.18284 0
M  V30 6113 C 569.553 0.261149 -1.58665 0
M  V30 6114 O 570.743 0.0420277 -1.74149 0
M  V30 6115 C 567.875 -0.0302427 -3.40887 0
M  V30 6116 H 569.068 -1.61045 -2.52991 0
M  V30 6117 H 566.621 -0.870724 -1.298 0
M  V30 6118 H 567.356 0.893505 -3.11748 0
M  V30 6119 H 567.141 -0.720759 -3.85419 0
M  V30 6120 H 568.631 0.21759 -4.17033 0
M  V30 6121 N 569.068 1.32177 -0.85831 0
M  V30 6122 C 570.293 2.01847 -0.476718 0
M  V30 6123 C 570.718 1.64065 0.920021 0
M  V30 6124 O 570.076 0.843189 1.60499 0
M  V30 6125 C 570.124 3.55097 -0.627578 0
M  V30 6126 O 569.228 4.11012 0.338086 0
M  V30 6127 H 568.569 0.635907 -0.191099 0
M  V30 6128 H 571.099 1.68641 -1.15851 0
M  V30 6129 H 571.109 4.04718 -0.516476 0
M  V30 6130 H 569.784 3.81938 -1.64609 0
M  V30 6131 H 568.361 3.72451 0.182917 0
M  V30 6132 N 570.547 0.616602 1.45037 0
M  V30 6133 C 571.775 0.121968 2.0654 0
M  V30 6134 C 572.19 -1.19743 1.45969 0
M  V30 6135 O 571.547 -1.73133 0.577168 0
M  V30 6136 C 571.598 -0.0145171 3.61497 0
M  V30 6137 O 571.319 1.25269 4.19809 0
M  V30 6138 C 572.82 -0.539555 4.40004 0
M  V30 6139 H 570.04 0.0729837 0.667019 0
M  V30 6140 H 572.584 0.846891 1.8614 0
M  V30 6141 H 570.739 -0.689809 3.81209 0
M  V30 6142 H 571.153 1.08816 5.13088 0
M  V30 6143 H 572.627 -0.584112 5.48901 0
M  V30 6144 H 573.104 -1.56368 4.10421 0
M  V30 6145 H 573.71 0.101995 4.25178 0
M  V30 6146 N 572.025 -1.5352 0.356285 0
M  V30 6147 C 573.436 -1.86282 -0.12492 0
M  V30 6148 C 573.787 -1.27717 -1.48939 0
M  V30 6149 O 572.912 -0.595614 -2.08042 0
M  V30 6150 C 573.507 -3.37995 -0.23345 0
M  V30 6151 C 572.066 -3.70588 -0.658899 0
M  V30 6152 C 571.213 -2.76581 0.199596 0
M  V30 6153 H 574.164 -1.47901 0.575423 0
M  V30 6154 H 574.185 -3.65475 -1.0587 0
M  V30 6155 H 573.697 -3.8059 0.759776 0
M  V30 6156 H 571.798 -3.33544 -1.66069 0
M  V30 6157 H 571.911 -4.77076 -0.439957 0
M  V30 6158 H 570.275 -2.52552 -0.330076 0
M  V30 6159 H 571.058 -3.22008 1.19019 0
M  V30 6160 N 573.503 -0.0852151 -1.57369 0
M  V30 6161 C 574.413 0.891712 -2.16992 0
M  V30 6162 C 575.429 1.3174 -1.13669 0
M  V30 6163 O 576.605 1.38735 -1.45995 0
M  V30 6164 C 573.67 2.13635 -2.73059 0
M  V30 6165 C 572.731 1.7658 -3.91303 0
M  V30 6166 C 571.964 2.95111 -4.44686 0
M  V30 6167 O 572.187 4.09539 -3.97032 0
M  V30 6168 O 571.121 2.74149 -5.35841 0
M  V30 6169 H 574.947 0.414477 -3.00858 0
M  V30 6170 H 572.532 0.138598 -1.48756 0
M  V30 6171 H 574.414 2.86595 -3.08935 0
M  V30 6172 H 573.089 2.6043 -1.92244 0
M  V30 6173 H 571.996 1.00831 -3.60255 0
M  V30 6174 H 573.329 1.34557 -4.7345 0
M  V30 6175 N 574.981 1.5647 0.188427 0
M  V30 6176 C 576.228 1.81013 0.907779 0
M  V30 6177 C 576.556 0.65953 1.82977 0
M  V30 6178 O 575.811 -0.354308 1.92466 0
M  V30 6179 C 576.11 3.11596 1.7505 0
M  V30 6180 C 575.776 4.40145 0.978922 0
M  V30 6181 C 574.438 4.75066 0.765912 0
M  V30 6182 C 576.79 5.19369 0.436498 0
M  V30 6183 C 574.118 5.867 -0.00089868 0
M  V30 6184 C 576.47 6.31805 -0.317136 0
M  V30 6185 C 575.134 6.65303 -0.541103 0
M  V30 6186 H 574.404 0.662373 0.33218 0
M  V30 6187 H 577.051 1.9071 0.173732 0
M  V30 6188 H 575.356 2.97165 2.55343 0
M  V30 6189 H 577.053 3.27793 2.30983 0
M  V30 6190 H 573.643 4.12745 1.15497 0
M  V30 6191 H 577.827 4.92799 0.588449 0
M  V30 6192 H 573.083 6.11122 -0.184329 0
M  V30 6193 H 577.257 6.92406 -0.744788 0
M  V30 6194 H 574.884 7.51646 -1.13718 0
M  V30 6195 N 576.459 -0.456382 1.50847 0
M  V30 6196 C 577.689 -1.22848 1.66108 0
M  V30 6197 C 578.097 -1.85936 0.349897 0
M  V30 6198 O 577.44 -1.70664 -0.679665 0
M  V30 6199 C 577.502 -2.36722 2.70561 0
M  V30 6200 C 577.166 -1.94154 4.13707 0
M  V30 6201 C 578.163 -1.4557 4.99105 0
M  V30 6202 C 575.848 -2.02426 4.59705 0
M  V30 6203 C 577.842 -1.0582 6.28555 0
M  V30 6204 C 575.529 -1.62287 5.89157 0
M  V30 6205 C 576.527 -1.14064 6.73408 0
M  V30 6206 O 576.215 -0.744873 8.00442 0
M  V30 6207 H 575.947 -0.377105 0.561042 0
M  V30 6208 H 578.501 -0.549431 1.97915 0
M  V30 6209 H 576.731 -3.07844 2.34027 0
M  V30 6210 H 578.42 -2.98646 2.74892 0
M  V30 6211 H 579.186 -1.38589 4.64777 0
M  V30 6212 H 575.065 -2.38908 3.94264 0
M  V30 6213 H 578.609 -0.6811 6.94267 0
M  V30 6214 H 574.506 -1.68932 6.23003 0
M  V30 6215 H 575.274 -0.87242 8.13837 0
M  V30 6216 N 577.937 -1.40673 -0.710563 0
M  V30 6217 C 578.869 -1.37256 -1.83558 0
M  V30 6218 C 579.882 -0.277133 -1.60424 0
M  V30 6219 O 581.071 -0.537831 -1.70205 0
M  V30 6220 C 578.171 -1.1144 -3.20054 0
M  V30 6221 C 577.344 -2.32734 -3.70342 0
M  V30 6222 C 576.403 -2.03002 -4.85465 0
M  V30 6223 O 575.429 -2.75912 -4.97857 0
M  V30 6224 N 576.631 -1.01105 -5.71627 0
M  V30 6225 H 579.396 -2.34215 -1.86985 0
M  V30 6226 H 576.957 -1.35091 -0.892301 0
M  V30 6227 H 578.949 -0.895265 -3.94673 0
M  V30 6228 H 577.519 -0.231307 -3.11743 0
M  V30 6229 H 576.739 -2.70446 -2.86798 0
M  V30 6230 H 578.027 -3.13584 -4.00678 0
M  V30 6231 H 577.425 -0.407303 -5.64232 0
M  V30 6232 H 575.982 -0.85182 -6.4621 0
M  V30 6233 N 579.415 0.9433 -1.26252 0
M  V30 6234 C 580.661 1.69175 -1.11837 0
M  V30 6235 C 580.994 1.91238 0.337891 0
M  V30 6236 O 580.269 1.49152 1.24836 0
M  V30 6237 C 580.552 3.06783 -1.88563 0
M  V30 6238 C 580.405 2.9206 -3.42083 0
M  V30 6239 C 581.724 4.06865 -1.67776 0
M  V30 6240 H 578.843 0.61399 -0.407658 0
M  V30 6241 H 581.485 1.09572 -1.55222 0
M  V30 6242 H 579.635 3.57663 -1.51689 0
M  V30 6243 H 581.307 2.48419 -3.88698 0
M  V30 6244 H 579.55 2.27731 -3.69217 0
M  V30 6245 H 580.221 3.89651 -3.90994 0
M  V30 6246 H 582.697 3.64939 -1.99897 0
M  V30 6247 H 581.573 5.01168 -2.23879 0
M  V30 6248 H 581.834 4.37705 -0.621816 0
M  V30 6249 N 580.893 1.08022 1.14757 0
M  V30 6250 C 582.133 0.816959 1.87364 0
M  V30 6251 C 582.497 -0.645407 1.80827 0
M  V30 6252 O 583.698 -1.024 2.48531 0
M  V30 6253 C 581.969 1.31961 3.32146 0
M  V30 6254 S 583.528 1.18806 4.2241 0
M  V30 6255 H 580.346 0.295862 0.646519 0
M  V30 6256 H 582.948 1.3807 1.38408 0
M  V30 6257 H 581.652 2.37847 3.3445 0
M  V30 6258 H 581.183 0.751371 3.86158 0
M  V30 6259 H 583.198 0.129865 4.9603 0
M  V30 6260 N 582.371 -1.3172 0.865308 0
M  V30 6261 C 583.321 -2.26157 0.289305 0
M  V30 6262 C 584.305 -1.50428 -0.570977 0
M  V30 6263 O 585.497 -1.71978 -0.418617 0
M  V30 6264 C 582.626 -3.39457 -0.512237 0
M  V30 6265 C 581.712 -4.22561 0.361028 0
M  V30 6266 N 582.103 -4.84501 1.45231 0
M  V30 6267 C 580.401 -4.45739 0.152641 0
M  V30 6268 C 581.102 -5.46586 1.99043 0
M  V30 6269 N 580.078 -5.28119 1.28809 0
M  V30 6270 H 583.88 -2.71581 1.12344 0
M  V30 6271 H 581.394 -1.45932 0.712565 0
M  V30 6272 H 583.391 -4.06133 -0.941379 0
M  V30 6273 H 582.051 -2.95577 -1.34404 0
M  V30 6274 H 583.062 -4.84293 1.83524 0
M  V30 6275 H 579.739 -4.1251 -0.643583 0
M  V30 6276 H 581.129 -6.05817 2.90577 0
M  V30 6277 N 583.85 -0.624285 -1.44708 0
M  V30 6278 C 585.077 -0.132919 -2.06473 0
M  V30 6279 C 585.493 1.18967 -1.46602 0
M  V30 6280 O 584.85 1.72824 -0.586341 0
M  V30 6281 C 584.901 -0.00465418 -3.615 0
M  V30 6282 O 584.622 -1.27494 -4.19138 0
M  V30 6283 C 586.123 0.516213 -4.40284 0
M  V30 6284 H 583.343 -0.0765201 -0.666623 0
M  V30 6285 H 585.887 -0.856751 -1.85688 0
M  V30 6286 H 584.042 0.669583 -3.8157 0
M  V30 6287 H 584.456 -1.11536 -5.12504 0
M  V30 6288 H 585.93 0.554994 -5.49203 0
M  V30 6289 H 586.407 1.5419 -4.11245 0
M  V30 6290 H 587.013 -0.124542 -4.25118 0
M  V30 6291 N 585.328 1.53329 -0.364422 0
M  V30 6292 C 586.275 2.25698 0.482607 0
M  V30 6293 C 587.245 1.26325 1.07848 0
M  V30 6294 O 588.43 1.55104 1.11119 0
M  V30 6295 C 585.57 3.04873 1.61699 0
M  V30 6296 C 584.683 4.19135 1.0464 0
M  V30 6297 C 583.818 4.85754 2.14979 0
M  V30 6298 C 582.857 5.9205 1.5538 0
M  V30 6299 N 581.994 6.52365 2.59547 0
M  V30 6300 H 586.834 2.97666 -0.141032 0
M  V30 6301 H 584.371 1.46875 -0.0813692 0
M  V30 6302 H 586.329 3.49051 2.28516 0
M  V30 6303 H 584.959 2.35162 2.2113 0
M  V30 6304 H 584.011 3.79451 0.268553 0
M  V30 6305 H 585.323 4.95525 0.570653 0
M  V30 6306 H 584.477 5.3311 2.89619 0
M  V30 6307 H 583.216 4.08834 2.65906 0
M  V30 6308 H 582.221 5.44058 0.792549 0
M  V30 6309 H 583.446 6.7089 1.0528 0
M  V30 6310 H 581.392 5.78298 3.09689 0
M  V30 6311 H 581.309 7.2429 2.16655 0
M  V30 6312 H 582.577 7.0437 3.33892 0
M  V30 6313 N 586.806 0.0935595 1.57322 0
M  V30 6314 C 587.753 -0.865935 2.1394 0
M  V30 6315 C 588.723 -1.28083 1.05754 0
M  V30 6316 O 589.908 -1.36285 1.33533 0
M  V30 6317 C 587.048 -2.12023 2.72287 0
M  V30 6318 C 586.161 -1.756 3.94701 0
M  V30 6319 C 585.296 -2.95804 4.41218 0
M  V30 6320 C 584.335 -2.555 5.56225 0
M  V30 6321 N 583.472 -3.68534 5.97601 0
M  V30 6322 H 588.312 -0.376261 2.95615 0
M  V30 6323 H 585.849 -0.174052 1.46067 0
M  V30 6324 H 587.807 -2.85477 3.04235 0
M  V30 6325 H 586.437 -2.58492 1.93343 0
M  V30 6326 H 585.489 -0.921208 3.69077 0
M  V30 6327 H 586.801 -1.41964 4.78171 0
M  V30 6328 H 585.955 -3.77513 4.74941 0
M  V30 6329 H 584.694 -3.32649 3.56645 0
M  V30 6330 H 583.699 -1.72218 5.22131 0
M  V30 6331 H 584.924 -2.19801 6.42545 0
M  V30 6332 H 582.87 -4.051 5.15974 0
M  V30 6333 H 582.787 -3.38737 6.75865 0
M  V30 6334 H 584.055 -4.50757 6.35955 0
M  V30 6335 N 588.284 -1.56567 -0.180126 0
M  V30 6336 C 589.561 -1.7235 -0.924931 0
M  V30 6337 C 589.941 -0.652523 -2.00762 0
M  V30 6338 O 589.289 0.334115 -2.26044 0
M  V30 6339 C 589.499 -3.1523 -1.49771 0
M  V30 6340 C 590.847 -3.75921 -1.97405 0
M  V30 6341 O 591.871 -3.18452 -1.59583 0
M  V30 6342 O 590.73 -4.7681 -2.67048 0
M  V30 6343 H 587.824 -0.703502 -0.434758 0
M  V30 6344 H 590.37 -1.6886 -0.168647 0
M  V30 6345 H 589.142 -3.84656 -0.718027 0
M  V30 6346 H 588.765 -3.23009 -2.31842 0
M  V30 6347 N 589.762 0.448376 -1.51087 0
M  V30 6348 C 590.992 1.21965 -1.66757 0
M  V30 6349 C 591.4 1.85748 -0.359753 0
M  V30 6350 O 590.743 1.71022 0.670604 0
M  V30 6351 C 590.805 2.35284 -2.71812 0
M  V30 6352 C 590.469 1.91957 -4.1473 0
M  V30 6353 C 591.466 1.42921 -4.9987 0
M  V30 6354 C 589.151 1.99985 -4.60772 0
M  V30 6355 C 591.145 1.02485 -6.29107 0
M  V30 6356 C 588.832 1.5916 -5.90009 0
M  V30 6357 C 589.83 1.10491 -6.74004 0
M  V30 6358 O 589.518 0.702413 -8.00825 0
M  V30 6359 H 589.25 0.374125 -0.563034 0
M  V30 6360 H 591.804 0.538927 -1.98204 0
M  V30 6361 H 590.034 3.06599 -2.35657 0
M  V30 6362 H 591.723 2.97184 -2.76472 0
M  V30 6363 H 592.489 1.36123 -4.65506 0
M  V30 6364 H 588.368 2.36814 -3.95525 0
M  V30 6365 H 591.912 0.644271 -6.94619 0
M  V30 6366 H 587.809 1.65626 -6.2389 0
M  V30 6367 H 588.577 0.829248 -8.14288 0
M  V30 6368 N 591.24 1.41047 0.703093 0
M  V30 6369 C 592.15 1.44645 1.84703 0
M  V30 6370 C 593.166 0.337778 1.7069 0
M  V30 6371 O 594.342 0.584327 1.92737 0
M  V30 6372 C 591.407 1.31928 3.20618 0
M  V30 6373 C 590.468 2.53047 3.46794 0
M  V30 6374 C 589.701 2.40927 4.76224 0
M  V30 6375 O 589.924 1.42978 5.5219 0
M  V30 6376 O 588.858 3.30543 5.03016 0
M  V30 6377 H 592.684 2.41139 1.84624 0
M  V30 6378 H 590.269 1.22504 0.855167 0
M  V30 6379 H 592.151 1.27092 4.01778 0
M  V30 6380 H 590.826 0.385469 3.21397 0
M  V30 6381 H 589.733 2.6346 2.65593 0
M  V30 6382 H 591.066 3.45231 3.50822 0
M  V30 6383 N 592.718 -0.936591 1.26751 0
M  V30 6384 C 593.628 -2.06949 1.10496 0
M  V30 6385 C 594.644 -1.7396 0.037271 0
M  V30 6386 O 595.82 -1.99941 0.241944 0
M  V30 6387 C 592.885 -3.38612 0.744491 0
M  V30 6388 C 591.946 -3.85355 1.89209 0
M  V30 6389 C 591.179 -5.10735 1.54873 0
M  V30 6390 O 591.402 -5.68602 0.452546 0
M  V30 6391 O 590.336 -5.52632 2.38499 0
M  V30 6392 H 594.162 -2.23571 2.05547 0
M  V30 6393 H 591.747 -1.05428 1.05855 0
M  V30 6394 H 593.629 -4.17711 0.556396 0
M  V30 6395 H 592.304 -3.23218 -0.176582 0
M  V30 6396 H 591.211 -3.07182 2.13518 0
M  V30 6397 H 592.544 -4.05277 2.79305 0
M  V30 6398 N 594.196 -1.08629 -1.14182 0
M  V30 6399 C 595.445 -0.812271 -1.84621 0
M  V30 6400 C 595.758 0.664313 -1.83973 0
M  V30 6401 O 596.964 1.05357 -2.50224 0
M  V30 6402 C 595.42 -1.4031 -3.31423 0
M  V30 6403 C 595.028 -2.91164 -3.40481 0
M  V30 6404 C 596.772 -1.20767 -4.06959 0
M  V30 6405 C 594.679 -3.43373 -4.81507 0
M  V30 6406 H 593.609 -0.30019 -0.691666 0
M  V30 6407 H 596.26 -1.30798 -1.28701 0
M  V30 6408 H 594.642 -0.835096 -3.87094 0
M  V30 6409 H 595.816 -3.5412 -2.94848 0
M  V30 6410 H 594.131 -3.09646 -2.78403 0
M  V30 6411 H 596.728 -1.57237 -5.11058 0
M  V30 6412 H 597.071 -0.147664 -4.16038 0
M  V30 6413 H 597.604 -1.74274 -3.57594 0
M  V30 6414 H 594.343 -4.48958 -4.77616 0
M  V30 6415 H 593.863 -2.85176 -5.27669 0
M  V30 6416 H 595.542 -3.40095 -5.50404 0
M  V30 6417 N 595.674 1.31259 -0.872281 0
M  V30 6418 C 596.922 1.96233 -0.483409 0
M  V30 6419 C 597.243 1.69276 0.968012 0
M  V30 6420 O 596.513 1.00943 1.67891 0
M  V30 6421 H 595.093 0.726025 -0.175774 0
M  V30 6422 H 597.755 1.60024 -1.11258 0
M  V30 6423 H 596.851 3.05403 -0.643075 0
M  V30 6424 N 597.152 0.631951 1.44375 0
M  V30 6425 C 598.563 0.219036 1.85411 0
M  V30 6426 C 598.914 -1.22974 1.52879 0
M  V30 6427 O 598.039 -1.93579 0.967266 0
M  V30 6428 C 598.634 0.39075 3.36539 0
M  V30 6429 C 597.193 0.0323351 3.76386 0
M  V30 6430 C 596.34 0.703744 2.68221 0
M  V30 6431 H 599.291 0.837056 1.3483 0
M  V30 6432 H 599.312 -0.370056 3.78696 0
M  V30 6433 H 598.824 1.44527 3.60185 0
M  V30 6434 H 596.925 -1.02042 3.58355 0
M  V30 6435 H 597.038 0.442969 4.77048 0
M  V30 6436 H 595.402 0.138974 2.54321 0
M  V30 6437 H 596.185 1.76088 2.947 0
M  V30 6438 N 598.631 -1.53133 0.372548 0
M  V30 6439 C 599.856 -2.0625 -0.218098 0
M  V30 6440 C 600.281 -1.24375 -1.41111 0
M  V30 6441 O 599.639 -0.264554 -1.79359 0
M  V30 6442 C 599.687 -3.55858 -0.582876 0
M  V30 6443 O 598.791 -3.76667 -1.67917 0
M  V30 6444 H 598.132 -0.663317 -0.030104 0
M  V30 6445 H 600.662 -1.97477 0.535169 0
M  V30 6446 H 600.672 -3.99007 -0.851925 0
M  V30 6447 H 599.347 -4.14892 0.289428 0
M  V30 6448 H 597.924 -3.45413 -1.40513 0
M  V30 6449 N 600.109 -0.101901 -1.5727 0
M  V30 6450 C 601.358 0.559922 -1.93772 0
M  V30 6451 C 601.671 1.68913 -0.98629 0
M  V30 6452 O 602.877 2.41256 -1.24529 0
M  V30 6453 C 601.333 1.04739 -3.44322 0
M  V30 6454 C 600.941 -0.05243 -4.47969 0
M  V30 6455 C 602.685 1.68157 -3.89774 0
M  V30 6456 C 600.592 0.450781 -5.8968 0
M  V30 6457 H 599.522 0.212931 -0.723309 0
M  V30 6458 H 602.173 -0.179001 -1.82625 0
M  V30 6459 H 600.555 1.84021 -3.50645 0
M  V30 6460 H 601.729 -0.828157 -4.53297 0
M  V30 6461 H 600.044 -0.592202 -4.12167 0
M  V30 6462 H 602.641 2.0689 -4.93052 0
M  V30 6463 H 602.984 2.55338 -3.28798 0
M  V30 6464 H 603.517 0.954453 -3.8618 0
M  V30 6465 H 600.256 -0.38458 -6.54371 0
M  V30 6466 H 599.776 1.19336 -5.87809 0
M  V30 6467 H 601.455 0.917555 -6.40461 0
M  V30 6468 N 601.587 1.56661 0.17182 0
M  V30 6469 C 602.827 1.83762 0.895029 0
M  V30 6470 C 603.191 0.682752 1.79451 0
M  V30 6471 O 604.392 0.834208 2.55528 0
M  V30 6472 C 602.663 3.15976 1.67015 0
M  V30 6473 S 604.222 3.64558 2.44219 0
M  V30 6474 H 601.04 0.644713 0.299778 0
M  V30 6475 H 603.642 1.94871 0.156701 0
M  V30 6476 H 602.346 3.98021 1.00039 0
M  V30 6477 H 601.877 3.07807 2.44986 0
M  V30 6478 H 603.892 3.31845 3.68909 0
M  V30 6479 N 603.065 -0.440357 1.51323 0
M  V30 6480 C 604.481 -0.7766 1.39431 0
M  V30 6481 C 604.681 -1.95838 0.474296 0
M  V30 6482 O 603.737 -2.52398 -0.0716692 0
M  V30 6483 C 605.05 -1.05981 2.81405 0
M  V30 6484 C 606.598 -1.16442 2.90534 0
M  V30 6485 C 607.073 -1.48058 4.33408 0
M  V30 6486 N 608.564 -1.54988 4.36501 0
M  V30 6487 C 609.299 -1.81017 5.44078 0
M  V30 6488 N 608.795 -2.04858 6.61819 0
M  V30 6489 N 610.588 -1.82774 5.31554 0
M  V30 6490 H 602.739 0.338006 2.09693 0
M  V30 6491 H 605.002 0.0888072 0.943831 0
M  V30 6492 H 604.708 -0.264173 3.50706 0
M  V30 6493 H 604.582 -1.98822 3.20546 0
M  V30 6494 H 606.969 -1.95068 2.21432 0
M  V30 6495 H 607.05 -0.215088 2.54894 0
M  V30 6496 H 606.694 -0.699605 5.03059 0
M  V30 6497 H 606.624 -2.44192 4.66559 0
M  V30 6498 H 609.115 -1.38479 3.51613 0
M  V30 6499 H 609.428 -2.2408 7.396 0
M  V30 6500 H 607.773 -2.02187 6.6494 0
M  V30 6501 H 610.964 -1.63665 4.38556 0
M  V30 6502 H 611.137 -2.02722 6.15474 0
M  V30 6503 N 604.543 -1.41418 -0.695603 0
M  V30 6504 C 605.493 -1.39731 -1.80165 0
M  V30 6505 C 606.477 -0.271689 -1.5859 0
M  V30 6506 O 607.669 -0.512354 -1.69422 0
M  V30 6507 C 604.798 -1.28187 -3.1847 0
M  V30 6508 C 603.884 -2.45612 -3.45739 0
M  V30 6509 N 604.275 -3.71077 -3.43708 0
M  V30 6510 C 602.573 -2.39424 -3.76288 0
M  V30 6511 C 603.274 -4.48957 -3.69882 0
M  V30 6512 N 602.25 -3.7907 -3.89624 0
M  V30 6513 H 606.052 -2.34656 -1.76957 0
M  V30 6514 H 603.566 -1.35473 -0.89559 0
M  V30 6515 H 605.563 -1.2506 -3.977 0
M  V30 6516 H 604.223 -0.342468 -3.22889 0
M  V30 6517 H 605.234 -4.03963 -3.2409 0
M  V30 6518 H 601.911 -1.53955 -3.88077 0
M  V30 6519 H 603.301 -5.57887 -3.74448 0
M  V30 6520 N 606.021 0.929856 -1.27246 0
M  V30 6521 C 606.969 2.05151 -1.09616 0
M  V30 6522 C 607.963 1.69388 -0.0198617 0
M  V30 6523 O 609.169 1.79124 -0.177417 0
M  V30 6524 H 605.544 0.671909 -0.337701 0
M  V30 6525 H 607.515 2.17168 -2.04648 0
M  V30 6526 C 606.264 3.3934 -0.757851 0
M  V30 6527 H 605.587 3.67343 -1.57795 0
M  V30 6528 H 607.027 4.18603 -0.674358 0
M  V30 6529 C 605.486 3.32582 0.537658 0
M  V30 6530 O 606.016 3.69633 1.57271 0
M  V30 6531 N 604.222 2.8568 0.532478 0
M  V30 6532 H 603.769 2.55725 -0.310233 0
M  V30 6533 H 603.727 2.81541 1.39936 0
M  V30 6534 N 607.499 1.09233 1.13605 0
M  V30 6535 C 608.91 0.846839 1.6639 0
M  V30 6536 C 609.261 -0.625031 1.85978 0
M  V30 6537 O 608.386 -1.48173 1.57714 0
M  V30 6538 C 608.981 1.5307 3.0225 0
M  V30 6539 C 607.54 1.33223 3.52035 0
M  V30 6540 C 606.687 1.58806 2.27323 0
M  V30 6541 H 609.638 1.25175 0.975541 0
M  V30 6542 H 609.659 0.96267 3.68121 0
M  V30 6543 H 609.171 2.60192 2.87961 0
M  V30 6544 H 607.272 0.282091 3.71531 0
M  V30 6545 H 607.385 2.0657 4.32279 0
M  V30 6546 H 605.749 1.01007 2.33815 0
M  V30 6547 H 606.532 2.67153 2.15602 0
M  V30 6548 N 608.977 -1.30795 0.87923 0
M  V30 6549 C 610.223 -1.96653 0.495519 0
M  V30 6550 C 610.556 -1.69282 -0.951703 0
M  V30 6551 O 609.831 -0.994374 -1.6716 0
M  V30 6552 C 610.114 -3.51898 0.764174 0
M  V30 6553 C 609.967 -3.88808 2.2616 0
M  V30 6554 C 611.286 -4.39462 0.236825 0
M  V30 6555 H 608.405 -0.7143 0.181507 0
M  V30 6556 H 611.047 -1.54765 1.10217 0
M  V30 6557 H 609.197 -3.87709 0.247841 0
M  V30 6558 H 610.869 -3.63051 2.8459 0
M  V30 6559 H 609.112 -3.37082 2.73053 0
M  V30 6560 H 609.783 -4.97086 2.4002 0
M  V30 6561 H 612.259 -4.10528 0.678683 0
M  V30 6562 H 611.135 -5.47018 0.454176 0
M  V30 6563 H 611.396 -4.33621 -0.861683 0
M  V30 6564 N 610.455 -0.639598 -1.44038 0
M  V30 6565 C 611.702 -0.14748 -2.01962 0
M  V30 6566 C 612.03 1.23372 -1.50365 0
M  V30 6567 O 611.285 1.8345 -0.681501 0
M  V30 6568 C 611.584 -0.0925348 -3.5728 0
M  V30 6569 C 611.25 -1.41365 -4.28167 0
M  V30 6570 C 609.912 -1.77545 -4.47248 0
M  V30 6571 C 612.264 -2.2853 -4.68427 0
M  V30 6572 C 609.592 -3.00583 -5.03852 0
M  V30 6573 C 611.944 -3.50846 -5.26393 0
M  V30 6574 C 610.608 -3.8724 -5.43692 0
M  V30 6575 H 609.878 -0.0539666 -0.739032 0
M  V30 6576 H 612.525 -0.827599 -1.72694 0
M  V30 6577 H 610.83 0.670987 -3.86012 0
M  V30 6578 H 612.527 0.304891 -3.99839 0
M  V30 6579 H 609.117 -1.1221 -4.13651 0
M  V30 6580 H 613.301 -2.0187 -4.5339 0
M  V30 6581 H 608.557 -3.28846 -5.15432 0
M  V30 6582 H 612.731 -4.18616 -5.56537 0
M  V30 6583 H 610.358 -4.8266 -5.87319 0
M  V30 6584 N 611.933 1.52934 -0.380664 0
M  V30 6585 C 613.181 2.01069 0.203874 0
M  V30 6586 C 613.502 1.26922 1.4804 0
M  V30 6587 O 612.772 0.386787 1.92044 0
M  V30 6588 H 611.352 0.742882 0.0783279 0
M  V30 6589 H 614.014 1.88099 -0.510368 0
M  V30 6590 H 613.11 3.09258 0.42021 0
M  V30 6591 N 613.412 0.11024 1.57214 0
M  V30 6592 C 614.658 -0.550684 1.9518 0
M  V30 6593 C 614.991 -1.66885 0.993122 0
M  V30 6594 O 614.266 -1.94479 0.0287907 0
M  V30 6595 C 614.549 -1.09163 3.43155 0
M  V30 6596 C 614.402 0.0225198 4.49794 0
M  V30 6597 C 615.721 -1.98527 3.92778 0
M  V30 6598 H 612.84 -0.198706 0.709708 0
M  V30 6599 H 615.482 0.184024 1.89107 0
M  V30 6600 H 613.632 -1.71775 3.48462 0
M  V30 6601 H 615.304 0.657443 4.56591 0
M  V30 6602 H 613.547 0.686868 4.28328 0
M  V30 6603 H 614.218 -0.39706 5.5057 0
M  V30 6604 H 616.694 -1.458 3.8972 0
M  V30 6605 H 615.57 -2.33298 4.96853 0
M  V30 6606 H 615.831 -2.90846 3.32958 0
M  V30 6607 N 614.89 -1.56749 -0.16351 0
M  V30 6608 C 615.823 -1.9213 -1.23132 0
M  V30 6609 C 616.801 -0.785047 -1.42393 0
M  V30 6610 O 617.985 -1.0391 -1.57273 0
M  V30 6611 C 615.112 -2.17901 -2.59301 0
M  V30 6612 C 614.158 -3.40576 -2.5673 0
M  V30 6613 S 614.991 -4.94689 -2.05045 0
M  V30 6614 C 616.147 -5.23564 -3.42975 0
M  V30 6615 H 616.38 -2.824 -0.929383 0
M  V30 6616 H 613.913 -1.4994 -0.368418 0
M  V30 6617 H 615.871 -2.33429 -3.3767 0
M  V30 6618 H 614.532 -1.28324 -2.86691 0
M  V30 6619 H 613.725 -3.55833 -3.5693 0
M  V30 6620 H 613.327 -3.24204 -1.86462 0
M  V30 6621 H 615.619 -5.16019 -4.3901 0
M  V30 6622 H 616.562 -6.25134 -3.32586 0
M  V30 6623 H 616.97 -4.51113 -3.39348 0
M  V30 6624 N 616.368 0.432326 -1.51554 0
M  V30 6625 C 617.593 1.20824 -1.68571 0
M  V30 6626 C 618.018 1.84126 -0.384596 0
M  V30 6627 O 617.376 1.69025 0.655751 0
M  V30 6628 C 617.424 2.26429 -2.80646 0
M  V30 6629 O 616.528 3.32032 -2.44598 0
M  V30 6630 H 615.869 0.353765 -0.561913 0
M  V30 6631 H 618.399 0.509916 -1.98144 0
M  V30 6632 H 618.409 2.71133 -3.04878 0
M  V30 6633 H 617.084 1.79733 -3.75058 0
M  V30 6634 H 615.661 2.92769 -2.30956 0
M  V30 6635 O 617.885 1.50798 0.578109 0
M  V30 6636 H 618.576 1.4938 1.2331 0
M  V30 END ATOM
M  V30 BEGIN BOND
M  V30 END BOND
M  V30 END CTAB
M  END
$$$$
