drugbank_target|P0A079 Methionine aminopeptidase (DB01882; DB02408)
 OpenBabel12092119523D

  0  0  0     0  0            999 V3000
M  V30 BEGIN CTAB
M  V30 COUNTS 3870 3902 0 0 0
M  V30 BEGIN ATOM
M  V30 1 H -0.908 1.98254 -0.117106 0
M  V30 2 N 0 1.576 0 0
M  V30 3 C 0.933 2.03868 1.02534 0
M  V30 4 C 1.911 0.928543 1.3348 0
M  V30 5 O 3.095 1.19667 1.45644 0
M  V30 6 C 0.222 2.43627 2.35294 0
M  V30 7 C -0.732 3.65373 2.2001 0
M  V30 8 S 0.101 5.13292 1.52614 0
M  V30 9 C 1.257 5.56322 2.86805 0
M  V30 10 H 1.49 2.90518 0.631377 0
M  V30 11 H -0.977 1.52953 0.210867 0
M  V30 12 H 0.981 2.67203 3.11629 0
M  V30 13 H -0.358 1.57376 2.7183 0
M  V30 14 H -1.165 3.90944 3.18086 0
M  V30 15 H -1.563 3.418 1.51819 0
M  V30 16 H 0.729 5.58782 3.83104 0
M  V30 17 H 1.672 6.56266 2.65933 0
M  V30 18 H 2.08 4.83886 2.90714 0
M  V30 19 N 1.4781 -0.272755 1.55222 0
M  V30 20 C 2.7271 -1.00211 1.75045 0
M  V30 21 C 3.0401 -1.87441 0.559046 0
M  V30 22 O 4.2461 -2.63856 0.639698 0
M  V30 23 C 2.7021 -1.83165 3.09804 0
M  V30 24 C 2.3101 -1.008 4.36513 0
M  V30 25 C 4.0541 -2.55529 3.38977 0
M  V30 26 C 1.9611 -1.83194 5.62311 0
M  V30 27 H 0.8911 -0.377878 0.652476 0
M  V30 28 H 3.5421 -0.257776 1.8168 0
M  V30 29 H 1.9241 -2.61694 2.97207 0
M  V30 30 H 3.0981 -0.266855 4.60027 0
M  V30 31 H 1.4131 -0.398897 4.14485 0
M  V30 32 H 4.0101 -3.17578 4.30172 0
M  V30 33 H 4.3531 -3.25825 2.59121 0
M  V30 34 H 4.8861 -1.84029 3.52673 0
M  V30 35 H 1.6251 -1.17318 6.44916 0
M  V30 36 H 1.1451 -2.54905 5.4294 0
M  V30 37 H 2.8241 -2.40552 6.00619 0
M  V30 38 N 2.9562 -1.48159 -0.537278 0
M  V30 39 C 4.2022 -1.56035 -1.29541 0
M  V30 40 C 4.5352 -0.230377 -1.92829 0
M  V30 41 O 3.8102 0.762952 -1.78911 0
M  V30 42 C 4.0932 -2.69323 -2.39034 0
M  V30 43 C 3.9462 -4.12002 -1.80485 0
M  V30 44 C 5.2652 -2.78408 -3.40847 0
M  V30 45 H 2.3842 -0.567992 -0.469632 0
M  V30 46 H 5.0262 -1.80302 -0.599277 0
M  V30 47 H 3.1762 -2.48763 -2.98412 0
M  V30 48 H 4.8482 -4.43981 -1.25215 0
M  V30 49 H 3.0912 -4.19344 -1.11055 0
M  V30 50 H 3.7622 -4.87077 -2.59731 0
M  V30 51 H 6.2382 -2.97012 -2.91416 0
M  V30 52 H 5.1142 -3.59416 -4.14863 0
M  V30 53 H 5.3752 -1.86269 -4.00944 0
M  V30 54 N 4.4343 0.785586 -1.36625 0
M  V30 55 C 5.3813 1.89838 -1.31264 0
M  V30 56 C 6.3513 1.65115 -0.180633 0
M  V30 57 O 7.5363 1.87222 -0.36777 0
M  V30 58 C 4.6763 3.26706 -1.11163 0
M  V30 59 C 3.7893 3.63476 -2.33472 0
M  V30 60 C 2.9243 4.89481 -2.06353 0
M  V30 61 C 1.9633 5.18941 -3.24602 0
M  V30 62 N 1.1003 6.36131 -2.97123 0
M  V30 63 H 5.9403 1.93756 -2.26413 0
M  V30 64 H 3.4773 0.947454 -1.12524 0
M  V30 65 H 5.4353 4.05639 -0.975337 0
M  V30 66 H 4.0653 3.222 -0.196674 0
M  V30 67 H 3.1173 2.79636 -2.57891 0
M  V30 68 H 4.4293 3.81193 -3.21704 0
M  V30 69 H 3.5833 5.76288 -1.89675 0
M  V30 70 H 2.3223 4.73841 -1.15437 0
M  V30 71 H 1.3273 4.30615 -3.41834 0
M  V30 72 H 2.5523 5.36498 -4.16349 0
M  V30 73 H 0.4983 6.21875 -2.08823 0
M  V30 74 H 0.4153 6.54198 -3.78894 0
M  V30 75 H 1.6833 7.2591 -2.84033 0
M  V30 76 N 5.9124 1.20967 1.01018 0
M  V30 77 C 7.1404 1.04956 1.78303 0
M  V30 78 C 7.5554 -0.400915 1.84494 0
M  V30 79 O 6.9124 -1.27826 1.30257 0
M  V30 80 C 6.9634 1.63403 3.22462 0
M  V30 81 O 6.6844 3.02775 3.16637 0
M  V30 82 C 8.1854 1.52432 4.16268 0
M  V30 83 H 5.4054 0.368858 0.560522 0
M  V30 84 H 7.9494 1.60193 1.27116 0
M  V30 85 H 6.1044 1.1227 3.70775 0
M  V30 86 H 6.5184 3.30626 4.07169 0
M  V30 87 H 7.9924 1.98078 5.15237 0
M  V30 88 H 8.4694 0.477875 4.36592 0
M  V30 89 H 9.0754 2.02787 3.73841 0
M  V30 90 N 7.3905 -1.2043 1.01659 0
M  V30 91 C 8.3005 -2.2689 0.596484 0
M  V30 92 C 9.3165 -1.70107 -0.36599 0
M  V30 93 O 10.4925 -2.00117 -0.226942 0
M  V30 94 C 7.5575 -3.4665 -0.0586659 0
M  V30 95 C 6.6185 -4.18662 0.949751 0
M  V30 96 C 5.8515 -5.32705 0.32577 0
M  V30 97 O 6.0745 -5.63656 -0.874509 0
M  V30 98 O 5.0085 -5.92803 1.04249 0
M  V30 99 H 8.8345 -2.65041 1.4828 0
M  V30 100 H 6.4195 -1.27048 0.786082 0
M  V30 101 H 8.3015 -4.19256 -0.424564 0
M  V30 102 H 6.9765 -3.10375 -0.91918 0
M  V30 103 H 5.8835 -3.48229 1.36702 0
M  V30 104 H 7.2165 -4.58878 1.78023 0
M  V30 105 N 8.8686 -0.792821 -1.36206 0
M  V30 106 C 9.7786 -0.194808 -2.3379 0
M  V30 107 C 10.7946 0.654869 -1.61206 0
M  V30 108 O 11.9706 0.569856 -1.9317 0
M  V30 109 C 9.0356 0.657721 -3.40404 0
M  V30 110 C 8.0966 -0.210849 -4.28782 0
M  V30 111 C 7.3296 0.601086 -5.30304 0
M  V30 112 O 7.5526 1.83682 -5.40016 0
M  V30 113 O 6.4866 -0.000808277 -6.019 0
M  V30 114 H 10.3126 -1.00172 -2.86704 0
M  V30 115 H 7.8976 -0.554341 -1.38735 0
M  V30 116 H 9.7796 1.14375 -4.05581 0
M  V30 117 H 8.4546 1.44247 -2.89784 0
M  V30 118 H 7.3616 -0.743714 -3.66633 0
M  V30 119 H 8.6946 -0.959195 -4.82763 0
M  V30 120 N 10.3467 1.47872 -0.545128 0
M  V30 121 C 11.2567 2.33633 0.212746 0
M  V30 122 C 12.2727 1.4744 0.923983 0
M  V30 123 O 13.4487 1.80393 0.895572 0
M  V30 124 C 10.5137 3.23884 1.23693 0
M  V30 125 C 9.5747 4.25961 0.534417 0
M  V30 126 C 8.8077 5.11899 1.5098 0
M  V30 127 O 9.0307 5.00077 2.7437 0
M  V30 128 O 7.9647 5.92831 1.0409 0
M  V30 129 H 11.7907 2.99714 -0.490416 0
M  V30 130 H 9.3757 1.46235 -0.305871 0
M  V30 131 H 11.2577 3.79666 1.82843 0
M  V30 132 H 9.9327 2.60446 1.92222 0
M  V30 133 H 8.8397 3.73972 -0.0979679 0
M  V30 134 H 10.1727 4.92079 -0.109213 0
M  V30 135 N 11.8248 0.280983 1.55075 0
M  V30 136 C 12.7548 -0.597469 2.25727 0
M  V30 137 C 13.7358 -1.15417 1.24952 0
M  V30 138 O 14.9208 -1.18722 1.53684 0
M  V30 139 C 12.0508 -1.7789 2.98283 0
M  V30 140 C 11.0048 -1.35347 4.06036 0
M  V30 141 C 10.3308 -2.61846 4.66198 0
M  V30 142 C 11.6308 -0.499354 5.19907 0
M  V30 143 H 13.3248 -0.00824265 2.99399 0
M  V30 144 H 10.8708 -0.0025244 1.44 0
M  V30 145 H 12.8238 -2.39937 3.46422 0
M  V30 146 H 11.5478 -2.39405 2.22155 0
M  V30 147 H 10.2068 -0.756156 3.58717 0
M  V30 148 H 9.8548 -3.21632 3.86732 0
M  V30 149 H 9.5548 -2.3409 5.38958 0
M  V30 150 H 11.0788 -3.24732 5.1709 0
M  V30 151 H 12.4928 -1.02498 5.64063 0
M  V30 152 H 10.8898 -0.316424 5.99265 0
M  V30 153 H 11.9598 0.480459 4.82514 0
M  V30 154 N 13.3029 -1.57598 0.00835791 0
M  V30 155 C 14.2349 -2.05811 -1.00868 0
M  V30 156 C 15.2479 -0.977579 -1.30182 0
M  V30 157 O 16.4369 -1.25421 -1.27011 0
M  V30 158 C 13.5369 -2.45016 -2.34137 0
M  V30 159 C 12.7099 -3.75903 -2.23643 0
M  V30 160 C 11.7689 -4.01884 -3.3967 0
M  V30 161 O 10.7949 -4.72433 -3.17483 0
M  V30 162 N 11.9969 -3.50432 -4.62793 0
M  V30 163 H 14.7619 -2.93684 -0.597458 0
M  V30 164 H 12.3229 -1.60909 -0.178852 0
M  V30 165 H 14.3149 -2.59506 -3.10546 0
M  V30 166 H 12.8849 -1.62618 -2.66972 0
M  V30 167 H 12.1049 -3.7141 -1.32091 0
M  V30 168 H 13.3929 -4.61695 -2.13812 0
M  V30 169 H 12.7909 -2.93317 -4.83716 0
M  V30 170 H 11.3479 -3.70236 -5.3644 0
M  V30 171 N 14.781 0.264519 -1.55364 0
M  V30 172 C 15.744 1.31046 -1.88042 0
M  V30 173 C 16.744 1.41943 -0.755569 0
M  V30 174 O 17.934 1.40947 -1.02369 0
M  V30 175 C 15.066 2.69067 -2.09323 0
M  V30 176 H 16.259 1.03297 -2.81549 0
M  V30 177 H 13.812 0.502989 -1.47986 0
M  V30 178 H 14.547 3.01982 -1.18226 0
M  V30 179 H 14.332 2.62542 -2.91229 0
M  V30 180 H 15.822 3.44623 -2.35848 0
M  V30 181 N 16.2591 1.48442 0.529413 0
M  V30 182 C 17.1891 1.65902 1.64313 0
M  V30 183 C 18.1701 0.507897 1.6234 0
M  V30 184 O 19.3551 0.740503 1.79528 0
M  V30 185 C 16.4851 1.69911 3.02898 0
M  V30 186 C 15.4391 2.8453 3.19729 0
M  V30 187 C 14.7651 2.73629 4.59381 0
M  V30 188 C 16.0651 4.25821 3.02447 0
M  V30 189 H 17.7591 2.5914 1.49955 0
M  V30 190 H 15.3051 1.24709 0.719982 0
M  V30 191 H 17.2581 1.80715 3.80684 0
M  V30 192 H 15.9821 0.732524 3.18279 0
M  V30 193 H 14.6411 2.73283 2.44361 0
M  V30 194 H 14.2891 1.74938 4.71599 0
M  V30 195 H 13.9891 3.50541 4.71588 0
M  V30 196 H 15.5131 2.86401 5.39265 0
M  V30 197 H 16.9271 4.37898 3.70024 0
M  V30 198 H 15.3241 5.03735 3.26146 0
M  V30 199 H 16.3941 4.42244 1.98867 0
M  V30 200 N 17.7372 -0.778329 1.37039 0
M  V30 201 C 18.6842 -1.89139 1.32269 0
M  V30 202 C 19.6542 -1.65017 0.189387 0
M  V30 203 O 20.8392 -1.87024 0.377693 0
M  V30 204 C 17.9792 -3.26112 1.12894 0
M  V30 205 C 17.0922 -3.62233 2.35396 0
M  V30 206 C 16.2272 -4.8838 2.08946 0
M  V30 207 C 15.2662 -5.17212 3.2735 0
M  V30 208 N 14.4032 -6.34546 3.00492 0
M  V30 209 H 19.2432 -1.92552 2.27437 0
M  V30 210 H 16.7802 -0.941473 1.13025 0
M  V30 211 H 18.7382 -4.05116 0.996835 0
M  V30 212 H 17.3682 -3.22091 0.213758 0
M  V30 213 H 16.4202 -2.78265 2.5937 0
M  V30 214 H 17.7322 -3.79481 3.23721 0
M  V30 215 H 16.8862 -5.75274 1.92729 0
M  V30 216 H 15.6252 -4.73222 1.17949 0
M  V30 217 H 14.6302 -4.28796 3.44113 0
M  V30 218 H 15.8552 -5.34283 4.19188 0
M  V30 219 H 13.8012 -6.20759 2.12118 0
M  V30 220 H 13.7182 -6.52179 3.82358 0
M  V30 221 H 14.9862 -7.24394 2.87879 0
M  V30 222 N 19.2153 -1.21501 -1.00376 0
M  V30 223 C 20.1253 -0.991447 -2.12621 0
M  V30 224 C 21.1413 0.0568446 -1.73907 0
M  V30 225 O 22.3173 -0.13348 -2.00957 0
M  V30 226 C 19.3823 -0.560312 -3.42142 0
M  V30 227 C 18.4433 -1.68096 -3.95022 0
M  V30 228 C 17.6763 -1.2703 -5.18362 0
M  V30 229 O 17.8993 -0.144438 -5.70217 0
M  V30 230 O 16.8333 -2.08269 -5.64719 0
M  V30 231 H 20.6593 -1.93158 -2.34358 0
M  V30 232 H 18.2443 -0.999999 -1.10997 0
M  V30 233 H 20.1263 -0.329724 -4.20108 0
M  V30 234 H 18.8013 0.351089 -3.2179 0
M  V30 235 H 17.7083 -1.96597 -3.18278 0
M  V30 236 H 19.0413 -2.56983 -4.19786 0
M  V30 237 N 20.6934 1.19889 -1.02296 0
M  V30 238 C 21.9424 1.88743 -0.711257 0
M  V30 239 C 22.2554 1.80112 0.762817 0
M  V30 240 O 23.4614 2.44161 1.18733 0
M  V30 241 C 21.9174 3.38525 -1.22185 0
M  V30 242 C 21.5254 3.55727 -2.72328 0
M  V30 243 C 23.2694 4.12893 -0.985864 0
M  V30 244 C 21.1764 4.99369 -3.16835 0
M  V30 245 H 20.1064 0.706885 -0.262353 0
M  V30 246 H 22.7574 1.35586 -1.23648 0
M  V30 247 H 21.1394 3.91044 -0.624571 0
M  V30 248 H 22.3134 3.13564 -3.3766 0
M  V30 249 H 20.6284 2.94739 -2.9414 0
M  V30 250 H 23.2254 5.18813 -1.29374 0
M  V30 251 H 23.5684 4.16228 0.0775055 0
M  V30 252 H 24.1014 3.66494 -1.54684 0
M  V30 253 H 20.8404 5.01193 -4.22476 0
M  V30 254 H 20.3604 5.42317 -2.56228 0
M  V30 255 H 22.0394 5.67988 -3.09837 0
M  V30 256 N 22.1715 0.800033 1.35784 0
M  V30 257 C 23.4195 0.376597 1.9856 0
M  V30 258 C 23.7405 -1.05812 1.63795 0
M  V30 259 O 23.0105 -1.73103 0.917171 0
M  V30 260 H 21.5905 0.136261 0.734467 0
M  V30 261 H 24.2525 1.02442 1.65806 0
M  V30 262 H 23.3485 0.477002 3.08433 0
M  V30 263 N 23.6496 -1.47581 0.552962 0
M  V30 264 C 24.8796 -2.06575 0.0320091 0
M  V30 265 C 25.2876 -1.4067 -1.26525 0
M  V30 266 O 24.6306 -0.495808 -1.76883 0
M  V30 267 C 24.6926 -3.58705 -0.238913 0
M  V30 268 C 24.3566 -4.46625 0.968272 0
M  V30 269 C 25.3536 -4.85 1.87274 0
M  V30 270 C 23.0386 -4.88201 1.18175 0
M  V30 271 C 25.0326 -5.63745 2.9744 0
M  V30 272 C 22.7196 -5.66712 2.28651 0
M  V30 273 C 23.7176 -6.04394 3.18114 0
M  V30 274 O 23.4056 -6.81324 4.26676 0
M  V30 275 H 23.1376 -0.674763 0.0408689 0
M  V30 276 H 25.6916 -1.90634 0.764719 0
M  V30 277 H 23.9216 -3.72844 -1.02588 0
M  V30 278 H 25.6106 -3.99735 -0.704731 0
M  V30 279 H 26.3766 -4.53482 1.71984 0
M  V30 280 H 22.2556 -4.58339 0.494593 0
M  V30 281 H 25.7996 -5.93077 3.67296 0
M  V30 282 H 21.6966 -5.97642 2.43915 0
M  V30 283 H 22.4646 -6.99712 4.24671 0
M  V30 284 N 25.1277 -0.289203 -1.54924 0
M  V30 285 C 26.3767 0.324231 -1.99077 0
M  V30 286 C 26.6897 1.5591 -1.18117 0
M  V30 287 O 27.8957 2.24637 -1.52481 0
M  V30 288 C 26.3517 0.628209 -3.54375 0
M  V30 289 C 25.9597 -0.587647 -4.44129 0
M  V30 290 C 27.7037 1.20349 -4.07083 0
M  V30 291 C 25.6107 -0.257475 -5.90839 0
M  V30 292 H 24.5407 0.124924 -0.743579 0
M  V30 293 H 27.1917 -0.396063 -1.79175 0
M  V30 294 H 25.5737 1.40778 -3.70132 0
M  V30 295 H 26.7477 -1.36418 -4.40144 0
M  V30 296 H 25.0627 -1.08074 -4.0213 0
M  V30 297 H 27.6597 1.46456 -5.14252 0
M  V30 298 H 28.0027 2.14195 -3.56968 0
M  V30 299 H 28.5357 0.485889 -3.94821 0
M  V30 300 H 25.2747 -1.16419 -6.45079 0
M  V30 301 H 24.7947 0.482018 -5.9786 0
M  V30 302 H 26.4737 0.145238 -6.46837 0
M  V30 303 N 26.6058 1.57591 -0.0167156 0
M  V30 304 C 27.8458 1.93145 0.668902 0
M  V30 305 C 28.2098 0.892406 1.7 0
M  V30 306 O 29.4108 1.13373 2.43721 0
M  V30 307 C 27.6818 3.33678 1.28039 0
M  V30 308 S 29.2408 3.91142 1.9888 0
M  V30 309 H 26.0588 0.67593 0.220545 0
M  V30 310 H 28.6608 1.95347 -0.0774105 0
M  V30 311 H 27.3648 4.07126 0.517339 0
M  V30 312 H 26.8958 3.3489 2.06427 0
M  V30 313 H 28.9108 3.73571 3.26587 0
M  V30 314 N 28.0839 -0.256276 1.55502 0
M  V30 315 C 29.0469 -1.30047 1.88734 0
M  V30 316 C 30.0469 -1.4154 0.763086 0
M  V30 317 O 31.2369 -1.40403 1.03115 0
M  V30 318 C 28.3689 -2.67953 2.10747 0
M  V30 319 H 29.5619 -1.01802 2.82093 0
M  V30 320 H 27.1149 -0.495134 1.4825 0
M  V30 321 H 27.8499 -3.01351 1.19825 0
M  V30 322 H 27.6349 -2.60993 2.92617 0
M  V30 323 H 29.1249 -3.43368 2.37673 0
M  V30 324 N 29.562 -1.4872 -0.521534 0
M  V30 325 C 30.509 -1.63871 -1.62527 0
M  V30 326 C 31.479 -0.480559 -1.58996 0
M  V30 327 O 32.664 -0.705085 -1.77294 0
M  V30 328 C 29.804 -1.69227 -3.00759 0
M  V30 329 C 28.917 -2.96207 -3.14461 0
M  V30 330 C 28.052 -2.92671 -4.43303 0
M  V30 331 C 27.091 -4.14318 -4.50563 0
M  V30 332 N 26.228 -4.0881 -5.70805 0
M  V30 333 H 31.068 -2.58123 -1.48918 0
M  V30 334 H 28.605 -1.28 -0.724878 0
M  V30 335 H 30.563 -1.70314 -3.80853 0
M  V30 336 H 29.193 -0.784586 -3.1312 0
M  V30 337 H 28.245 -3.04826 -2.27564 0
M  V30 338 H 29.557 -3.86192 -3.15686 0
M  V30 339 H 28.711 -2.92206 -5.31696 0
M  V30 340 H 27.45 -2.00429 -4.44612 0
M  V30 341 H 26.455 -4.15049 -3.60575 0
M  V30 342 H 27.68 -5.07729 -4.50986 0
M  V30 343 H 25.626 -3.19394 -5.72995 0
M  V30 344 H 25.543 -4.92509 -5.7356 0
M  V30 345 H 26.811 -4.12418 -6.61462 0
M  V30 346 N 31.0401 0.771051 -1.3745 0
M  V30 347 C 32.2861 1.5319 -1.32894 0
M  V30 348 C 32.6191 1.94008 0.0862511 0
M  V30 349 O 31.8941 1.64124 1.04373 0
M  V30 350 C 32.1771 2.79648 -2.26868 0
M  V30 351 C 32.0301 2.45079 -3.77169 0
M  V30 352 C 33.3491 3.81583 -2.19277 0
M  V30 353 H 30.4681 0.555744 -0.484064 0
M  V30 354 H 33.1101 0.884492 -1.68157 0
M  V30 355 H 31.2601 3.34891 -1.96926 0
M  V30 356 H 32.9321 1.95745 -4.1771 0
M  V30 357 H 31.1751 1.77767 -3.95704 0
M  V30 358 H 31.8461 3.35478 -4.38359 0
M  V30 359 H 34.3221 3.35835 -2.45671 0
M  V30 360 H 33.1981 4.67787 -2.87171 0
M  V30 361 H 33.4591 4.25897 -1.18592 0
M  V30 362 N 32.5182 1.22032 0.997298 0
M  V30 363 C 33.9342 0.979326 1.26021 0
M  V30 364 C 34.1342 -0.32972 1.98784 0
M  V30 365 O 33.1902 -1.05345 2.29475 0
M  V30 366 C 34.5032 2.17509 2.07631 0
M  V30 367 C 36.0512 2.21817 2.2083 0
M  V30 368 C 36.5262 3.40933 3.05825 0
M  V30 369 N 38.0172 3.41067 3.13412 0
M  V30 370 C 38.7522 4.29885 3.79455 0
M  V30 371 N 38.2482 5.28914 4.47462 0
M  V30 372 N 40.0412 4.17673 3.76173 0
M  V30 373 H 32.1922 2.06202 0.509352 0
M  V30 374 H 34.4552 0.90334 0.287541 0
M  V30 375 H 34.1612 3.12415 1.61524 0
M  V30 376 H 34.0352 2.17206 3.08385 0
M  V30 377 H 36.4222 1.27462 2.66153 0
M  V30 378 H 36.5032 2.2616 1.1952 0
M  V30 379 H 36.1472 4.35586 2.61203 0
M  V30 380 H 36.0772 3.33829 4.07266 0
M  V30 381 H 38.5682 2.69406 2.65007 0
M  V30 382 H 38.8812 5.92973 4.95583 0
M  V30 383 H 37.2262 5.32831 4.46224 0
M  V30 384 H 40.4172 3.39564 3.22202 0
M  V30 385 H 40.5902 4.87098 4.27363 0
M  V30 386 N 33.9963 -1.19345 1.0293 0
M  V30 387 C 34.9443 -2.24621 0.604001 0
M  V30 388 C 35.9383 -1.65452 -0.363587 0
M  V30 389 O 37.1443 -1.78497 -0.23212 0
M  V30 390 H 33.5193 -0.730858 0.177061 0
M  V30 391 H 35.4903 -2.5781 1.50255 0
M  V30 392 C 34.2393 -3.47688 -0.0289127 0
M  V30 393 H 33.5623 -3.93505 0.706651 0
M  V30 394 H 35.0023 -4.23011 -0.289432 0
M  V30 395 C 33.4613 -3.11817 -1.2756 0
M  V30 396 O 33.9913 -3.2451 -2.36762 0
M  V30 397 N 32.1973 -2.66246 -1.16453 0
M  V30 398 H 31.7443 -2.56118 -0.275914 0
M  V30 399 H 31.7023 -2.42617 -1.99961 0
M  V30 400 N 35.4744 -0.807222 -1.35358 0
M  V30 401 C 36.7024 -0.400377 -2.02989 0
M  V30 402 C 37.1174 0.988859 -1.60832 0
M  V30 403 O 36.4744 1.63729 -0.806175 0
M  V30 404 C 36.5254 -0.474867 -3.58368 0
M  V30 405 O 36.2464 -1.80933 -3.98992 0
M  V30 406 C 37.7474 -0.0609112 -4.43258 0
M  V30 407 H 34.9674 -0.162587 -0.651004 0
M  V30 408 H 37.5114 -1.09102 -1.72965 0
M  V30 409 H 35.6664 0.167534 -3.87038 0
M  V30 410 H 36.0804 -1.77256 -4.9364 0
M  V30 411 H 37.5544 -0.164145 -5.51756 0
M  V30 412 H 38.0314 0.993831 -4.27808 0
M  V30 413 H 38.6374 -0.676492 -4.19885 0
M  V30 414 N 36.9525 1.47285 -0.560781 0
M  V30 415 C 37.8855 2.27009 0.232821 0
M  V30 416 C 38.8635 1.34273 0.917039 0
M  V30 417 O 40.0475 1.63659 0.935315 0
M  V30 418 C 37.1745 3.11406 1.33206 0
M  V30 419 C 36.2205 4.19746 0.756019 0
M  V30 420 S 37.0535 5.34003 -0.400165 0
M  V30 421 C 38.2095 6.21964 0.700805 0
M  V30 422 H 38.4425 2.93971 -0.443683 0
M  V30 423 H 35.9755 1.50446 -0.347181 0
M  V30 424 H 37.9335 3.60601 1.96156 0
M  V30 425 H 36.5945 2.438 1.98041 0
M  V30 426 H 35.7875 4.78541 1.5816 0
M  V30 427 H 35.3895 3.73451 0.202619 0
M  V30 428 H 37.6815 6.58529 1.59202 0
M  V30 429 H 38.6245 7.07941 0.150126 0
M  V30 430 H 39.0325 5.5566 0.995083 0
M  V30 431 N 38.4306 0.297415 1.54768 0
M  V30 432 C 39.3626 -0.613881 2.20826 0
M  V30 433 C 40.3756 -1.10032 1.19987 0
M  V30 434 O 41.5646 -1.01839 1.46598 0
M  V30 435 C 38.6646 -1.852 2.83821 0
M  V30 436 C 37.8376 -1.50865 4.10559 0
M  V30 437 C 36.8966 -2.60154 4.57391 0
M  V30 438 O 35.9226 -2.25398 5.2267 0
M  V30 439 N 37.1246 -3.90629 4.29406 0
M  V30 440 H 39.8896 -0.048389 2.99661 0
M  V30 441 H 37.4506 0.11946 1.61459 0
M  V30 442 H 39.4426 -2.57652 3.12086 0
M  V30 443 H 38.0126 -2.32597 2.08847 0
M  V30 444 H 37.2326 -0.616925 3.89343 0
M  V30 445 H 38.5206 -1.25458 4.9309 0
M  V30 446 H 37.9186 -4.21677 3.77101 0
M  V30 447 H 36.4756 -4.59391 4.62388 0
M  V30 448 N 39.9087 -1.5758 0.0250728 0
M  V30 449 C 40.8717 -2.08896 -0.943139 0
M  V30 450 C 41.8717 -1.00321 -1.25668 0
M  V30 451 O 43.0617 -1.26495 -1.19769 0
M  V30 452 C 40.1937 -2.55143 -2.26086 0
M  V30 453 H 41.3867 -2.95723 -0.498775 0
M  V30 454 H 38.9397 -1.54703 -0.222888 0
M  V30 455 H 39.6747 -1.71633 -2.75159 0
M  V30 456 H 39.4597 -3.34461 -2.04641 0
M  V30 457 H 40.9497 -2.95083 -2.95492 0
M  V30 458 N 41.3868 0.248026 -1.55636 0
M  V30 459 C 42.3498 1.29044 -1.89421 0
M  V30 460 C 43.3498 1.41134 -0.770581 0
M  V30 461 O 44.5398 1.39854 -1.03858 0
M  V30 462 C 41.6718 2.66831 -2.12165 0
M  V30 463 H 42.8648 1.00305 -2.82629 0
M  V30 464 H 40.4178 0.487265 -1.48511 0
M  V30 465 H 41.1528 3.00711 -1.21422 0
M  V30 466 H 40.9378 2.59438 -2.93997 0
M  V30 467 H 42.4278 3.42103 -2.3949 0
M  V30 468 N 42.8649 1.48995 0.513639 0
M  V30 469 C 44.0929 1.61531 1.29288 0
M  V30 470 C 44.5079 0.281801 1.86685 0
M  V30 471 O 43.8649 -0.731111 1.67215 0
M  V30 472 C 43.9159 2.67449 2.43215 0
M  V30 473 O 43.6369 3.95626 1.88179 0
M  V30 474 C 45.1379 2.90575 3.34785 0
M  V30 475 H 42.3579 0.544165 0.392588 0
M  V30 476 H 44.9019 1.9494 0.617956 0
M  V30 477 H 43.0569 2.36853 3.0656 0
M  V30 478 H 43.4709 4.53868 2.62876 0
M  V30 479 H 44.9449 3.68449 4.11035 0
M  V30 480 H 45.4219 2.00011 3.91015 0
M  V30 481 H 46.0279 3.22538 2.77218 0
M  V30 482 N 44.343 -0.763751 1.37857 0
M  V30 483 C 45.29 -1.87726 1.34267 0
M  V30 484 C 46.26 -1.64807 0.206879 0
M  V30 485 O 47.445 -1.86613 0.397508 0
M  V30 486 C 44.585 -3.24896 1.16346 0
M  V30 487 C 43.698 -3.59716 2.39225 0
M  V30 488 C 42.833 -4.86137 2.14114 0
M  V30 489 C 41.872 -5.13711 3.32817 0
M  V30 490 N 41.009 -6.31323 3.07206 0
M  V30 491 H 45.849 -1.90129 2.29466 0
M  V30 492 H 43.386 -0.929433 1.14017 0
M  V30 493 H 45.344 -4.04036 1.03975 0
M  V30 494 H 43.974 -3.21847 0.247909 0
M  V30 495 H 43.026 -2.75498 2.62307 0
M  V30 496 H 44.338 -3.76027 3.27728 0
M  V30 497 H 43.492 -5.73198 1.9882 0
M  V30 498 H 42.231 -4.71945 1.22961 0
M  V30 499 H 41.236 -4.25123 3.48641 0
M  V30 500 H 42.461 -5.29807 4.24832 0
M  V30 501 H 40.407 -6.18474 2.1869 0
M  V30 502 H 40.324 -6.48087 3.89254 0
M  V30 503 H 41.592 -7.213 2.95546 0
M  V30 504 N 45.8211 -1.22559 -0.990812 0
M  V30 505 C 47.2321 -1.04791 -1.54518 0
M  V30 506 C 47.5831 0.387998 -1.92325 0
M  V30 507 O 46.7081 1.27328 -1.74976 0
M  V30 508 C 47.3031 -1.896 -2.80779 0
M  V30 509 C 45.8621 -1.76124 -3.32652 0
M  V30 510 C 45.0091 -1.8594 -2.05722 0
M  V30 511 H 47.9601 -1.36374 -0.811662 0
M  V30 512 H 47.9811 -1.41464 -3.53225 0
M  V30 513 H 47.4931 -2.94101 -2.53231 0
M  V30 514 H 45.5941 -0.743643 -3.65104 0
M  V30 515 H 45.7071 -2.58913 -4.03114 0
M  V30 516 H 44.0711 -1.29403 -2.19379 0
M  V30 517 H 44.8541 -2.91976 -1.80568 0
M  V30 518 N 47.2992 1.18797 -1.03562 0
M  V30 519 C 48.5472 1.88278 -0.734569 0
M  V30 520 C 48.8682 1.8043 0.739586 0
M  V30 521 O 48.1382 1.21925 1.53333 0
M  V30 522 H 46.7182 0.696991 -0.268725 0
M  V30 523 H 49.3802 1.44192 -1.31129 0
M  V30 524 H 48.4762 2.94443 -1.03489 0
M  V30 525 N 48.7773 0.814389 1.34928 0
M  V30 526 C 50.0263 0.394871 1.97797 0
M  V30 527 C 50.3393 -1.04555 1.65311 0
M  V30 528 O 51.5453 -1.56856 2.21604 0
M  V30 529 C 50.0013 0.655103 3.53888 0
M  V30 530 C 49.6093 2.10858 3.95276 0
M  V30 531 C 51.3533 0.301329 4.23429 0
M  V30 532 C 49.2603 2.31415 5.44244 0
M  V30 533 H 48.1903 0.143913 0.740139 0
M  V30 534 H 50.8413 0.999544 1.53888 0
M  V30 535 H 49.2233 -0.0196253 3.95995 0
M  V30 536 H 50.3973 2.82176 3.64298 0
M  V30 537 H 48.7123 2.42297 3.38646 0
M  V30 538 H 51.3093 0.432869 5.32945 0
M  V30 539 H 51.6523 -0.75331 4.09428 0
M  V30 540 H 52.1853 0.930288 3.86769 0
M  V30 541 H 48.9243 3.35353 5.63222 0
M  V30 542 H 48.4443 1.6463 5.76764 0
M  V30 543 H 50.1233 2.13352 6.10811 0
M  V30 544 N 50.2554 -1.46986 0.568584 0
M  V30 545 C 51.4834 -2.0683 0.0539956 0
M  V30 546 C 51.8984 -1.41953 -1.24478 0
M  V30 547 O 51.2554 -0.519933 -1.74937 0
M  V30 548 C 51.3064 -3.61254 -0.133362 0
M  V30 549 O 51.0274 -4.237 1.11399 0
M  V30 550 C 52.5284 -4.37992 -0.683927 0
M  V30 551 H 49.7484 -0.669058 0.0510141 0
M  V30 552 H 52.2924 -1.88824 0.785234 0
M  V30 553 H 50.4474 -3.78735 -0.81477 0
M  V30 554 H 50.8614 -5.16388 0.91888 0
M  V30 555 H 52.3354 -5.46684 -0.764263 0
M  V30 556 H 52.8124 -4.05058 -1.69778 0
M  V30 557 H 53.4184 -4.25283 -0.0378494 0
M  V30 558 N 51.7335 -0.305618 -1.54608 0
M  V30 559 C 52.9615 0.304775 -2.04643 0
M  V30 560 C 53.3765 1.47167 -1.18268 0
M  V30 561 O 52.7335 1.81296 -0.209328 0
M  V30 562 C 52.7845 0.756564 -3.53495 0
M  V30 563 O 52.5055 -0.36389 -4.36586 0
M  V30 564 C 54.0065 1.43163 -4.19546 0
M  V30 565 H 51.2265 0.0655481 -0.667791 0
M  V30 566 H 53.7705 -0.446592 -1.99564 0
M  V30 567 H 51.9255 1.45794 -3.58919 0
M  V30 568 H 52.3395 -0.0113121 -5.24499 0
M  V30 569 H 53.8135 1.69886 -5.25207 0
M  V30 570 H 54.2905 2.37318 -3.69563 0
M  V30 571 H 54.8965 0.773307 -4.18211 0
M  V30 572 N 53.2116 1.57565 -0.0334293 0
M  V30 573 C 54.1586 2.10478 0.946981 0
M  V30 574 C 55.1286 1.00787 1.32027 0
M  V30 575 O 56.3136 1.28232 1.41284 0
M  V30 576 C 53.4536 2.63994 2.22263 0
M  V30 577 C 52.5666 3.87709 1.90541 0
M  V30 578 C 51.7016 4.29604 3.12433 0
M  V30 579 C 50.7406 5.46065 2.76549 0
M  V30 580 N 49.8776 5.83096 3.9108 0
M  V30 581 H 54.7176 2.93963 0.488846 0
M  V30 582 H 52.2546 1.45296 0.22969 0
M  V30 583 H 54.2126 2.93114 2.96884 0
M  V30 584 H 52.8426 1.83333 2.65685 0
M  V30 585 H 51.8946 3.65291 1.06144 0
M  V30 586 H 53.2066 4.72403 1.60116 0
M  V30 587 H 52.3606 4.60182 3.9537 0
M  V30 588 H 51.0996 3.43685 3.46023 0
M  V30 589 H 50.1046 5.15176 1.92026 0
M  V30 590 H 51.3296 6.33685 2.44171 0
M  V30 591 H 49.2756 5.00132 4.24504 0
M  V30 592 H 49.1926 6.6244 3.64293 0
M  V30 593 H 50.4606 6.18282 4.74708 0
M  V30 594 N 54.6897 -0.239769 1.55765 0
M  V30 595 C 55.5997 -1.31831 1.94056 0
M  V30 596 C 56.6157 -1.52275 0.841925 0
M  V30 597 O 57.7917 -1.65759 1.14394 0
M  V30 598 C 54.8567 -2.65156 2.23368 0
M  V30 599 C 53.9177 -2.53173 3.46701 0
M  V30 600 C 53.1507 -3.8014 3.74606 0
M  V30 601 O 53.3737 -4.82343 3.04469 0
M  V30 602 O 52.3077 -3.78344 4.68123 0
M  V30 603 H 56.1337 -1.02347 2.85935 0
M  V30 604 H 53.7187 -0.441123 1.42739 0
M  V30 605 H 55.6007 -3.43929 2.43497 0
M  V30 606 H 54.2757 -2.94358 1.34666 0
M  V30 607 H 53.1827 -1.72662 3.31871 0
M  V30 608 H 54.5157 -2.28915 4.35728 0
M  V30 609 N 56.1678 -1.49265 -0.50573 0
M  V30 610 C 57.0978 -1.68495 -1.61653 0
M  V30 611 C 58.0788 -0.53366 -1.61512 0
M  V30 612 O 59.2638 -0.76897 -1.78327 0
M  V30 613 C 56.3938 -1.74709 -3.00157 0
M  V30 614 C 55.3478 -2.89581 -3.15162 0
M  V30 615 C 54.6738 -2.80903 -4.5497 0
M  V30 616 C 55.9738 -4.30578 -2.95634 0
M  V30 617 H 57.6678 -2.61493 -1.45814 0
M  V30 618 H 55.2138 -1.25838 -0.70005 0
M  V30 619 H 57.1668 -1.86748 -3.77761 0
M  V30 620 H 55.8908 -0.783067 -3.17074 0
M  V30 621 H 54.5498 -2.77136 -2.39982 0
M  V30 622 H 54.1978 -1.82419 -4.68756 0
M  V30 623 H 53.8978 -3.57999 -4.65951 0
M  V30 624 H 55.4218 -2.94944 -5.34641 0
M  V30 625 H 56.8358 -4.4373 -3.63011 0
M  V30 626 H 55.2328 -5.0886 -3.18091 0
M  V30 627 H 56.3028 -4.45352 -1.91806 0
M  V30 628 N 57.6459 0.756429 -1.3826 0
M  V30 629 C 58.9229 1.50584 -1.24835 0
M  V30 630 C 59.3029 2.10556 0.151485 0
M  V30 631 O 58.6509 1.96825 1.1607 0
M  V30 632 C 58.8609 2.57448 -2.3563 0
M  V30 633 C 60.2089 3.24429 -2.73917 0
M  V30 634 O 61.2329 2.67751 -2.34921 0
M  V30 635 O 60.0919 4.26937 -3.41156 0
M  V30 636 H 57.1859 0.667664 -0.48801 0
M  V30 637 H 59.7319 0.792083 -1.5008 0
M  V30 638 H 58.5039 2.11362 -3.29305 0
M  V30 639 H 58.1269 3.36408 -2.11933 0
M  V30 640 N 59.124 1.23083 0.984299 0
M  V30 641 C 60.072 1.00593 2.09723 0
M  V30 642 C 61.066 -0.0538014 1.69315 0
M  V30 643 O 62.272 0.0993719 1.79725 0
M  V30 644 H 58.647 0.30817 0.685956 0
M  V30 645 H 60.618 1.95012 2.2586 0
M  V30 646 C 59.367 0.609601 3.42314 0
M  V30 647 H 58.69 1.41675 3.73856 0
M  V30 648 H 60.13 0.491726 4.21139 0
M  V30 649 C 58.589 -0.681745 3.2993 0
M  V30 650 O 59.119 -1.73192 3.62446 0
M  V30 651 N 57.325 -0.656178 2.83095 0
M  V30 652 H 56.872 0.198759 2.56832 0
M  V30 653 H 56.83 -1.52044 2.75191 0
M  V30 654 N 60.6021 -1.18246 1.0419 0
M  V30 655 C 61.8511 -1.87588 0.741194 0
M  V30 656 C 62.1641 -1.81303 -0.734066 0
M  V30 657 O 63.3701 -2.46019 -1.14834 0
M  V30 658 C 61.8261 -3.36538 1.27555 0
M  V30 659 C 61.4341 -3.51349 2.77953 0
M  V30 660 C 63.1781 -4.11273 1.05143 0
M  V30 661 C 61.0851 -4.94265 3.2474 0
M  V30 662 H 60.0151 -0.702622 0.273565 0
M  V30 663 H 62.6661 -1.33601 1.25789 0
M  V30 664 H 61.0481 -3.9 0.686703 0
M  V30 665 H 62.2221 -3.08153 3.42605 0
M  V30 666 H 60.5371 -2.90022 2.98791 0
M  V30 667 H 63.1341 -5.16689 1.37611 0
M  V30 668 H 63.4771 -4.16298 -0.0112774 0
M  V30 669 H 64.0101 -3.63987 1.60495 0
M  V30 670 H 60.7491 -4.94408 4.30396 0
M  V30 671 H 60.2691 -5.38172 2.64823 0
M  V30 672 H 61.9481 -5.62987 3.18834 0
M  V30 673 N 62.0802 -0.821533 -1.34494 0
M  V30 674 C 63.0432 -0.247847 -2.27856 0
M  V30 675 C 64.0432 0.573453 -1.50227 0
M  V30 676 O 65.2332 0.389759 -1.69784 0
M  V30 677 C 62.3652 0.652698 -3.34593 0
M  V30 678 H 63.5582 -1.07146 -2.80107 0
M  V30 679 H 61.1112 -0.593291 -1.44602 0
M  V30 680 H 61.8462 1.49943 -2.87555 0
M  V30 681 H 61.6312 0.065292 -3.92046 0
M  V30 682 H 63.1212 1.04793 -4.04238 0
M  V30 683 N 63.5583 1.46682 -0.576371 0
M  V30 684 C 64.5053 2.30241 0.160499 0
M  V30 685 C 65.4753 1.40233 0.890162 0
M  V30 686 O 66.6603 1.69186 0.882084 0
M  V30 687 C 63.8003 3.24578 1.1723 0
M  V30 688 C 62.9133 4.29684 0.446736 0
M  V30 689 C 62.0483 5.11154 1.44551 0
M  V30 690 C 61.0873 6.08015 0.70599 0
M  V30 691 N 60.2243 6.82376 1.65251 0
M  V30 692 H 65.0643 2.92727 -0.558127 0
M  V30 693 H 62.6013 1.44272 -0.287056 0
M  V30 694 H 64.5593 3.77711 1.77172 0
M  V30 695 H 63.1893 2.63916 1.85872 0
M  V30 696 H 62.2413 3.79458 -0.267594 0
M  V30 697 H 63.5533 4.98626 -0.131686 0
M  V30 698 H 62.7073 5.68533 2.11791 0
M  V30 699 H 61.4463 4.42158 2.05786 0
M  V30 700 H 60.4513 5.49796 0.0197725 0
M  V30 701 H 61.6763 6.79028 0.09912 0
M  V30 702 H 59.6223 6.16094 2.25308 0
M  V30 703 H 59.5393 7.47556 1.12673 0
M  V30 704 H 60.8073 7.44316 2.31546 0
M  V30 705 N 65.0364 0.313813 1.54444 0
M  V30 706 C 65.9464 -0.565714 2.27677 0
M  V30 707 C 66.9624 -1.13754 1.31666 0
M  V30 708 O 68.1384 -1.15959 1.64668 0
M  V30 709 C 65.2034 -1.71528 3.01296 0
M  V30 710 C 64.2644 -1.17624 4.12872 0
M  V30 711 C 63.4974 -2.27102 4.8297 0
M  V30 712 O 63.7204 -3.47256 4.52514 0
M  V30 713 O 62.6544 -1.9307 5.70094 0
M  V30 714 H 66.4804 0.0287296 3.03686 0
M  V30 715 H 64.0654 0.0798312 1.49187 0
M  V30 716 H 65.9474 -2.38476 3.4743 0
M  V30 717 H 64.6224 -2.29608 2.2817 0
M  V30 718 H 63.5294 -0.472124 3.71109 0
M  V30 719 H 64.8624 -0.640695 4.88012 0
M  V30 720 N 66.5145 -1.57545 0.0417849 0
M  V30 721 C 67.4445 -2.14009 -0.933929 0
M  V30 722 C 68.4255 -1.05938 -1.33083 0
M  V30 723 O 69.6105 -1.33833 -1.40721 0
M  V30 724 C 66.7405 -2.67747 -2.21199 0
M  V30 725 C 65.6945 -3.80718 -1.95544 0
M  V30 726 C 65.0205 -4.20935 -3.29724 0
M  V30 727 C 66.3205 -5.06258 -1.28452 0
M  V30 728 H 68.0145 -2.95788 -0.463645 0
M  V30 729 H 65.5605 -1.42285 -0.221573 0
M  V30 730 H 67.5135 -3.05886 -2.89848 0
M  V30 731 H 66.2375 -1.83147 -2.70416 0
M  V30 732 H 64.8965 -3.43037 -1.2931 0
M  V30 733 H 64.5445 -3.33298 -3.76724 0
M  V30 734 H 64.2445 -4.9707 -3.13361 0
M  V30 735 H 65.7685 -4.61666 -3.9962 0
M  V30 736 H 67.1825 -5.41903 -1.8712 0
M  V30 737 H 65.5795 -5.87475 -1.22445 0
M  V30 738 H 66.6495 -4.84207 -0.259219 0
M  V30 739 N 67.9926 0.231505 -1.5589 0
M  V30 740 C 69.2396 0.957352 -1.78441 0
M  V30 741 C 69.5676 1.84726 -0.60882 0
M  V30 742 O 68.8226 1.91416 0.40725 0
M  V30 743 C 69.1216 1.83577 -3.0665 0
M  V30 744 C 68.7876 1.09993 -4.37278 0
M  V30 745 C 67.4496 0.896629 -4.72773 0
M  V30 746 C 69.8016 0.579558 -5.17968 0
M  V30 747 C 67.1296 0.160896 -5.86479 0
M  V30 748 C 69.4816 -0.142783 -6.32439 0
M  V30 749 C 68.1456 -0.357427 -6.66542 0
M  V30 750 H 67.4156 0.35032 -0.65296 0
M  V30 751 H 70.0626 0.226259 -1.90159 0
M  V30 752 H 68.3676 2.63441 -2.90011 0
M  V30 753 H 70.0646 2.39934 -3.21298 0
M  V30 754 H 66.6546 1.26835 -4.09403 0
M  V30 755 H 70.8386 0.724125 -4.90989 0
M  V30 756 H 66.0946 -0.0157293 -6.11398 0
M  V30 757 H 70.2686 -0.553559 -6.94196 0
M  V30 758 H 67.8956 -0.929466 -7.54497 0
M  V30 759 N 69.4707 1.49531 0.497807 0
M  V30 760 C 70.3807 1.69176 1.62532 0
M  V30 761 C 71.3967 0.5744 1.64246 0
M  V30 762 O 72.5727 0.849497 1.82608 0
M  V30 763 C 69.6377 1.75695 2.98885 0
M  V30 764 C 68.6987 2.9929 3.07773 0
M  V30 765 C 67.9317 3.05488 4.37622 0
M  V30 766 O 68.1547 2.19192 5.26603 0
M  V30 767 O 67.0887 3.9798 4.51548 0
M  V30 768 H 70.9147 2.647 1.48887 0
M  V30 769 H 68.4997 1.3331 0.674441 0
M  V30 770 H 70.3817 1.82317 3.79919 0
M  V30 771 H 69.0567 0.8335 3.12785 0
M  V30 772 H 67.9637 2.98183 2.25915 0
M  V30 773 H 69.2967 3.91125 2.98801 0
M  V30 774 N 70.9488 -0.749086 1.3866 0
M  V30 775 C 71.8588 -1.89358 1.38494 0
M  V30 776 C 72.8748 -1.71708 0.281476 0
M  V30 777 O 74.0508 -1.94554 0.520643 0
M  V30 778 C 71.1158 -3.24782 1.21316 0
M  V30 779 C 70.1768 -3.54926 2.41508 0
M  V30 780 C 69.4098 -4.83888 2.2514 0
M  V30 781 O 69.6328 -5.56592 1.24746 0
M  V30 782 O 68.5668 -5.13612 3.13826 0
M  V30 783 H 72.3928 -1.92452 2.34938 0
M  V30 784 H 69.9778 -0.894981 1.19626 0
M  V30 785 H 71.8598 -4.05739 1.13814 0
M  V30 786 H 70.5348 -3.2249 0.279592 0
M  V30 787 H 69.4418 -2.74112 2.54585 0
M  V30 788 H 70.7748 -3.61983 3.3351 0
M  V30 789 N 72.4269 -1.23603 -0.977757 0
M  V30 790 C 73.6569 -1.09487 -1.75203 0
M  V30 791 C 74.0649 0.356321 -1.85814 0
M  V30 792 O 73.4079 1.25816 -1.33851 0
M  V30 793 C 73.4699 -1.64905 -3.19447 0
M  V30 794 C 73.1339 -3.13688 -3.32338 0
M  V30 795 C 74.1309 -4.10953 -3.18455 0
M  V30 796 C 71.8159 -3.53449 -3.56902 0
M  V30 797 C 73.8099 -5.45962 -3.28944 0
M  V30 798 C 71.4969 -4.88602 -3.6703 0
M  V30 799 C 72.4949 -5.84668 -3.53062 0
M  V30 800 O 72.1829 -7.17365 -3.62826 0
M  V30 801 H 71.9149 -0.38367 -0.556573 0
M  V30 802 H 74.4689 -1.6398 -1.23693 0
M  V30 803 H 72.6989 -1.04835 -3.72218 0
M  V30 804 H 74.3879 -1.46226 -3.78646 0
M  V30 805 H 75.1539 -3.81577 -2.99372 0
M  V30 806 H 71.0329 -2.79188 -3.66844 0
M  V30 807 H 74.5769 -6.20925 -3.17958 0
M  V30 808 H 70.4739 -5.17653 -3.85623 0
M  V30 809 H 71.2419 -7.2515 -3.79605 0
M  V30 810 N 73.905 1.17692 -1.04816 0
M  V30 811 C 75.153 1.87488 -0.754497 0
M  V30 812 C 75.474 1.81205 0.720407 0
M  V30 813 O 74.744 1.23544 1.52032 0
M  V30 814 H 73.324 0.694101 -0.276102 0
M  V30 815 H 75.986 1.42793 -1.32651 0
M  V30 816 H 75.082 2.93328 -1.06606 0
M  V30 817 N 75.3831 0.828654 1.34056 0
M  V30 818 C 76.3461 0.259927 2.27721 0
M  V30 819 C 77.3461 -0.565478 1.50529 0
M  V30 820 O 78.5361 -0.38075 1.69988 0
M  V30 821 C 75.6681 -0.634944 3.34935 0
M  V30 822 H 76.8611 1.0863 2.79534 0
M  V30 823 H 74.4141 0.600951 1.44285 0
M  V30 824 H 75.1491 -1.48416 2.88346 0
M  V30 825 H 74.9341 -0.0444999 3.92075 0
M  V30 826 H 76.4241 -1.02648 4.04788 0
M  V30 827 N 76.8612 -1.46375 0.584142 0
M  V30 828 C 78.1102 -2.01585 0.0679741 0
M  V30 829 C 78.4232 -1.46109 -1.30045 0
M  V30 830 O 79.6292 -1.93148 -1.90804 0
M  V30 831 C 78.0852 -3.5983 0.0709207 0
M  V30 832 C 77.6932 -4.24303 1.43775 0
M  V30 833 C 79.4372 -4.22693 -0.391228 0
M  V30 834 C 77.3442 -5.74631 1.39834 0
M  V30 835 H 76.2742 -0.753689 0.0216421 0
M  V30 836 H 78.9252 -1.68093 0.736001 0
M  V30 837 H 77.3072 -3.90405 -0.663299 0
M  V30 838 H 78.4812 -4.05335 2.19181 0
M  V30 839 H 76.7962 -3.73539 1.84004 0
M  V30 840 H 79.3932 -5.3289 -0.439524 0
M  V30 841 H 79.7362 -3.91728 -1.40906 0
M  V30 842 H 80.2692 -3.96749 0.288974 0
M  V30 843 H 77.0082 -6.10258 2.39303 0
M  V30 844 H 76.5282 -5.95858 0.686505 0
M  V30 845 H 78.2072 -6.37375 1.11187 0
M  V30 846 N 78.3393 -0.321999 -1.54275 0
M  V30 847 C 79.5643 0.285791 -2.05422 0
M  V30 848 C 79.9893 1.45124 -1.19669 0
M  V30 849 O 79.3473 1.80132 -0.205441 0
M  V30 850 C 79.3953 0.69956 -3.53749 0
M  V30 851 O 78.4993 1.8021 -3.70942 0
M  V30 852 H 77.8403 0.0518962 -0.661969 0
M  V30 853 H 80.3703 -0.469954 -1.9913 0
M  V30 854 H 80.3803 0.982649 -3.9599 0
M  V30 855 H 79.0553 -0.152864 -4.15619 0
M  V30 856 H 77.6323 1.51794 -3.40607 0
M  V30 857 N 79.8174 1.5752 -0.0501392 0
M  V30 858 C 80.7804 2.1037 0.909786 0
M  V30 859 C 81.7804 1.02308 1.24056 0
M  V30 860 O 82.9704 1.28385 1.17741 0
M  V30 861 C 80.1024 2.58708 2.21998 0
M  V30 862 H 81.2954 2.96479 0.451665 0
M  V30 863 H 78.8484 1.55038 0.198248 0
M  V30 864 H 79.5834 1.75989 2.72394 0
M  V30 865 H 79.3684 3.37675 1.99295 0
M  V30 866 H 80.8584 2.99747 2.9076 0
M  V30 867 N 81.2955 -0.223234 1.56011 0
M  V30 868 C 82.7065 -0.790368 1.69145 0
M  V30 869 C 83.0575 -1.85055 0.651845 0
M  V30 870 O 82.1825 -2.15498 -0.197359 0
M  V30 871 C 82.7775 -1.4404 3.06656 0
M  V30 872 C 81.3365 -1.95494 3.2165 0
M  V30 873 C 80.4835 -0.814506 2.65068 0
M  V30 874 H 83.4345 0.00139011 1.587 0
M  V30 875 H 83.4555 -2.30916 3.0242 0
M  V30 876 H 82.9675 -0.668543 3.82298 0
M  V30 877 H 81.0685 -2.75487 2.50874 0
M  V30 878 H 81.1815 -2.13607 4.28846 0
M  V30 879 H 79.5455 -1.22137 2.23505 0
M  V30 880 H 80.3285 -0.0553515 3.43255 0
M  V30 881 N 82.7736 -1.49793 -0.48987 0
M  V30 882 C 84.0226 -1.59085 -1.23995 0
M  V30 883 C 84.3356 -0.287907 -1.9347 0
M  V30 884 O 85.5416 -0.259506 -2.70257 0
M  V30 885 C 83.9976 -2.80736 -2.252 0
M  V30 886 C 83.6056 -4.17833 -1.61614 0
M  V30 887 C 85.3496 -2.99364 -3.00967 0
M  V30 888 C 83.2566 -5.30693 -2.60996 0
M  V30 889 H 82.1866 -0.592372 -0.466488 0
M  V30 890 H 84.8376 -1.76197 -0.51252 0
M  V30 891 H 83.2196 -2.57142 -3.01154 0
M  V30 892 H 84.3936 -4.51608 -0.915774 0
M  V30 893 H 82.7086 -4.04656 -0.981977 0
M  V30 894 H 85.3056 -3.80851 -3.75308 0
M  V30 895 H 85.6486 -2.10356 -3.59244 0
M  V30 896 H 86.1816 -3.2305 -2.32128 0
M  V30 897 H 82.9206 -6.21796 -2.07485 0
M  V30 898 H 82.4406 -5.01359 -3.2924 0
M  V30 899 H 84.1196 -5.6049 -3.23202 0
M  V30 900 N 84.2517 0.741722 -1.39055 0
M  V30 901 C 85.2017 1.84661 -1.33732 0
M  V30 902 C 86.1857 1.59397 -0.219401 0
M  V30 903 O 87.3777 1.71015 -0.456375 0
M  V30 904 C 84.5067 3.22512 -1.17647 0
M  V30 905 C 83.5927 3.53628 -2.34112 0
M  V30 906 N 83.9837 3.55723 -3.59576 0
M  V30 907 C 82.2817 3.83956 -2.26923 0
M  V30 908 C 82.9827 3.84443 -4.36553 0
M  V30 909 N 81.9587 4.01877 -3.66055 0
M  V30 910 H 85.7607 1.84576 -2.28711 0
M  V30 911 H 83.2747 0.939647 -1.32455 0
M  V30 912 H 85.2717 4.01597 -1.11917 0
M  V30 913 H 83.9317 3.2384 -0.236124 0
M  V30 914 H 84.9427 3.37196 -3.93089 0
M  V30 915 H 81.6197 3.92929 -1.41113 0
M  V30 916 H 83.0097 3.92588 -5.45274 0
M  V30 917 N 85.7298 1.2412 0.971189 0
M  V30 918 C 87.0068 0.986867 1.6888 0
M  V30 919 C 87.3868 -0.491857 2.0529 0
M  V30 920 O 86.7348 -1.46531 1.75331 0
M  V30 921 C 86.9448 1.9063 2.92338 0
M  V30 922 C 88.2928 2.17515 3.64654 0
M  V30 923 O 89.3168 1.88254 3.02388 0
M  V30 924 O 88.1758 2.6719 4.7673 0
M  V30 925 H 85.2698 0.372944 0.738134 0
M  V30 926 H 87.8158 1.35203 1.02559 0
M  V30 927 H 86.5878 2.90552 2.62097 0
M  V30 928 H 86.2108 1.54408 3.66393 0
M  V30 929 N 87.2079 -1.17134 1.05439 0
M  V30 930 C 88.1179 -2.24878 0.668365 0
M  V30 931 C 89.1339 -1.71186 -0.311687 0
M  V30 932 O 90.3099 -2.00738 -0.163161 0
M  V30 933 C 87.3749 -3.46662 0.051648 0
M  V30 934 C 86.4359 -4.15429 1.08246 0
M  V30 935 C 85.6689 -5.31399 0.495082 0
M  V30 936 O 85.8919 -5.66153 -0.694743 0
M  V30 937 O 84.8259 -5.89187 1.23056 0
M  V30 938 H 88.6519 -2.60189 1.56637 0
M  V30 939 H 86.2369 -1.24482 0.826104 0
M  V30 940 H 88.1189 -4.20394 -0.290966 0
M  V30 941 H 86.7939 -3.13142 -0.819971 0
M  V30 942 H 85.7009 -3.43704 1.47711 0
M  V30 943 H 87.0339 -4.52982 1.92532 0
M  V30 944 N 88.686 -0.835752 -1.33615 0
M  V30 945 C 89.634 -0.255238 -2.31195 0
M  V30 946 C 90.628 0.61107 -1.57995 0
M  V30 947 O 91.834 0.500979 -1.72888 0
M  V30 948 H 88.209 -0.0638085 -0.749288 0
M  V30 949 H 90.18 -1.09283 -2.77669 0
M  V30 950 C 88.929 0.55754 -3.43201 0
M  V30 951 H 88.252 -0.0997553 -3.99676 0
M  V30 952 H 89.692 0.929622 -4.13683 0
M  V30 953 C 88.151 1.73515 -2.88781 0
M  V30 954 O 88.681 2.83376 -2.84712 0
M  V30 955 N 86.887 1.55603 -2.4543 0
M  V30 956 H 86.434 0.662354 -2.48939 0
M  V30 957 H 86.392 2.34545 -2.09371 0
M  V30 958 N 90.1641 1.46063 -0.591896 0
M  V30 959 C 91.4111 2.02338 -0.0809991 0
M  V30 960 C 91.7391 1.46228 1.28249 0
M  V30 961 O 90.9941 0.620818 1.85592 0
M  V30 962 C 91.2931 3.57391 0.0249813 0
M  V30 963 C 90.9591 4.32583 -1.27211 0
M  V30 964 C 89.6211 4.52844 -1.62745 0
M  V30 965 C 91.9731 4.75687 -2.13005 0
M  V30 966 C 89.3011 5.13462 -2.83855 0
M  V30 967 C 91.6531 5.37644 -3.3335 0
M  V30 968 C 90.3171 5.5613 -3.69155 0
M  V30 969 H 89.5871 0.740407 -0.0296397 0
M  V30 970 H 92.2341 1.75321 -0.770374 0
M  V30 971 H 90.5391 3.83597 0.797537 0
M  V30 972 H 92.2361 3.98621 0.436184 0
M  V30 973 H 88.8261 4.17116 -0.985499 0
M  V30 974 H 93.0101 4.59782 -1.86855 0
M  V30 975 H 88.2661 5.25965 -3.11722 0
M  V30 976 H 92.4401 5.7 -4.00092 0
M  V30 977 H 90.0671 6.0287 -4.63089 0
M  V30 978 N 91.6422 0.330177 1.54103 0
M  V30 979 C 93.0532 -0.15652 1.86043 0
M  V30 980 C 93.4042 -1.51086 1.2517 0
M  V30 981 O 92.5292 -2.09023 0.560217 0
M  V30 982 C 93.1242 -0.290784 3.3755 0
M  V30 983 C 91.6832 -0.721705 3.69416 0
M  V30 984 C 90.8302 0.152622 2.7688 0
M  V30 985 H 93.7812 0.550237 1.48856 0
M  V30 986 H 93.8022 -1.12058 3.63625 0
M  V30 987 H 93.3142 0.695068 3.81825 0
M  V30 988 H 91.4152 -1.71706 3.30678 0
M  V30 989 H 91.5282 -0.520869 4.7626 0
M  V30 990 H 89.8922 -0.372894 2.51956 0
M  V30 991 H 90.6752 1.13536 3.23982 0
M  V30 992 N 93.1203 -1.57491 0.0584922 0
M  V30 993 C 94.3683 -1.92597 -0.612436 0
M  V30 994 C 94.6893 -0.938162 -1.70949 0
M  V30 995 O 93.9593 0.0158301 -1.95894 0
M  V30 996 H 92.5393 -0.710964 -0.229214 0
M  V30 997 H 95.2013 -1.94571 0.113218 0
M  V30 998 H 94.2973 -2.94038 -1.04633 0
M  V30 999 N 94.5984 0.214957 -1.56127 0
M  V30 1000 C 95.5304 1.29004 -1.89448 0
M  V30 1001 C 96.5434 1.42716 -0.783326 0
M  V30 1002 O 97.7324 1.43496 -1.06166 0
M  V30 1003 C 94.8324 2.66482 -2.09381 0
M  V30 1004 C 94.0054 2.74633 -3.40434 0
M  V30 1005 C 93.0644 3.9317 -3.49719 0
M  V30 1006 O 92.0904 3.812 -4.227 0
M  V30 1007 N 93.2924 5.07765 -2.81346 0
M  V30 1008 H 96.0574 1.00743 -2.82261 0
M  V30 1009 H 93.6184 0.40497 -1.56753 0
M  V30 1010 H 95.6104 3.44173 -2.12901 0
M  V30 1011 H 94.1804 2.87314 -1.23163 0
M  V30 1012 H 93.4004 1.83368 -3.48955 0
M  V30 1013 H 94.6884 2.77054 -4.26754 0
M  V30 1014 H 94.0864 5.20386 -2.21843 0
M  V30 1015 H 92.6434 5.83474 -2.90519 0
M  V30 1016 N 96.0765 1.50051 0.48192 0
M  V30 1017 C 97.3045 1.64237 1.25832 0
M  V30 1018 C 97.7195 0.321336 1.86045 0
M  V30 1019 O 97.0765 -0.695478 1.68729 0
M  V30 1020 C 97.1275 2.72548 2.37487 0
M  V30 1021 O 96.8485 3.99529 1.79745 0
M  V30 1022 C 98.3495 2.9761 3.28547 0
M  V30 1023 H 95.5695 0.55237 0.380957 0
M  V30 1024 H 98.1135 1.96207 0.576467 0
M  V30 1025 H 96.2685 2.43303 3.01467 0
M  V30 1026 H 96.6825 4.59342 2.5319 0
M  V30 1027 H 98.1565 3.77084 4.03127 0
M  V30 1028 H 98.6335 2.0826 3.86684 0
M  V30 1029 H 99.2395 3.28345 2.70314 0
M  V30 1030 N 97.5546 -0.734337 1.39446 0
M  V30 1031 C 98.7946 -1.50655 1.38139 0
M  V30 1032 C 99.1586 -1.91986 -0.0228701 0
M  V30 1033 O 100.36 -2.68318 -0.160947 0
M  V30 1034 C 98.6306 -2.71251 2.32718 0
M  V30 1035 S 100.19 -3.60892 2.49605 0
M  V30 1036 H 97.0076 -0.515315 0.489869 0
M  V30 1037 H 99.6096 -0.860392 1.75549 0
M  V30 1038 H 98.3136 -2.39027 3.33608 0
M  V30 1039 H 97.8446 -3.40795 1.96526 0
M  V30 1040 H 99.8596 -4.64899 1.73446 0
M  V30 1041 N 99.0327 -1.24633 -0.964593 0
M  V30 1042 C 100.282 -1.08188 -1.7023 0
M  V30 1043 C 100.595 0.37873 -1.91898 0
M  V30 1044 O 101.801 0.663427 -2.6327 0
M  V30 1045 C 100.257 -1.88773 -3.06419 0
M  V30 1046 C 99.8647 -3.39263 -2.92582 0
M  V30 1047 C 101.609 -1.80867 -3.84041 0
M  V30 1048 C 99.5157 -4.1218 -4.24101 0
M  V30 1049 H 98.4457 -0.401245 -0.638372 0
M  V30 1050 H 101.097 -1.48742 -1.07462 0
M  V30 1051 H 99.4787 -1.41035 -3.70034 0
M  V30 1052 H 100.653 -3.94603 -2.37961 0
M  V30 1053 H 98.9677 -3.48154 -2.28424 0
M  V30 1054 H 101.565 -2.32646 -4.81435 0
M  V30 1055 H 101.908 -0.774543 -4.09031 0
M  V30 1056 H 102.441 -2.26301 -3.27159 0
M  V30 1057 H 99.1797 -5.15965 -4.04303 0
M  V30 1058 H 98.6997 -3.61626 -4.78526 0
M  V30 1059 H 100.379 -4.19349 -4.92702 0
M  V30 1060 N 100.511 1.16574 -1.06058 0
M  V30 1061 C 101.736 1.91493 -0.796562 0
M  V30 1062 C 102.161 1.76773 0.642868 0
M  V30 1063 O 101.519 1.09142 1.44768 0
M  V30 1064 C 101.567 3.40293 -1.19303 0
M  V30 1065 O 100.671 4.11074 -0.330394 0
M  V30 1066 H 100.012 0.596678 -0.291326 0
M  V30 1067 H 102.542 1.47708 -1.41575 0
M  V30 1068 H 102.552 3.91057 -1.16356 0
M  V30 1069 H 101.227 3.50326 -2.24153 0
M  V30 1070 H 99.8038 3.70513 -0.421225 0
M  V30 1071 N 101.989 0.842826 1.3317 0
M  V30 1072 C 103.235 0.441099 1.97945 0
M  V30 1073 C 103.568 -0.998024 1.66593 0
M  V30 1074 O 102.843 -1.69839 0.947898 0
M  V30 1075 C 103.126 0.666841 3.53872 0
M  V30 1076 C 102.979 2.15352 3.94897 0
M  V30 1077 C 104.298 0.115544 4.39948 0
M  V30 1078 H 101.417 0.161739 0.719034 0
M  V30 1079 H 104.059 1.05907 1.57746 0
M  V30 1080 H 102.209 0.140828 3.88245 0
M  V30 1081 H 103.881 2.7447 3.70761 0
M  V30 1082 H 102.124 2.63653 3.44484 0
M  V30 1083 H 102.795 2.26221 5.03516 0
M  V30 1084 H 105.271 0.565213 4.12243 0
M  V30 1085 H 104.147 0.303152 5.48062 0
M  V30 1086 H 104.408 -0.980935 4.3108 0
M  V30 1087 N 103.467 -1.45747 0.599634 0
M  V30 1088 C 104.415 -2.322 -0.136426 0
M  V30 1089 C 105.409 -1.45497 -0.867583 0
M  V30 1090 O 106.615 -1.62027 -0.78405 0
M  V30 1091 H 102.99 -0.749368 -0.0628588 0
M  V30 1092 H 104.961 -2.92072 0.611281 0
M  V30 1093 C 103.71 -3.28974 -1.12567 0
M  V30 1094 H 103.033 -3.9568 -0.572484 0
M  V30 1095 H 104.473 -3.92212 -1.61077 0
M  V30 1096 C 102.932 -2.55561 -2.19523 0
M  V30 1097 O 103.462 -2.33111 -3.27143 0
M  V30 1098 N 101.668 -2.15832 -1.94589 0
M  V30 1099 H 101.215 -2.3429 -1.07078 0
M  V30 1100 H 101.173 -1.67034 -2.66359 0
M  V30 1101 N 104.945 -0.338344 -1.53925 0
M  V30 1102 C 105.855 0.529421 -2.28548 0
M  V30 1103 C 106.871 1.11645 -1.3346 0
M  V30 1104 O 108.047 1.13325 -1.66492 0
M  V30 1105 C 105.112 1.66713 -3.03987 0
M  V30 1106 C 104.173 1.11041 -4.14691 0
M  V30 1107 C 103.406 2.19389 -4.86522 0
M  V30 1108 O 103.629 3.40013 -4.57982 0
M  V30 1109 O 102.563 1.83976 -5.73094 0
M  V30 1110 H 106.389 -0.0770399 -3.03602 0
M  V30 1111 H 103.974 -0.103555 -1.49041 0
M  V30 1112 H 105.856 2.32918 -3.5118 0
M  V30 1113 H 104.531 2.25949 -2.31794 0
M  V30 1114 H 103.438 0.413024 -3.71813 0
M  V30 1115 H 104.771 0.562975 -4.8897 0
M  V30 1116 N 106.423 1.57458 -0.0668435 0
M  V30 1117 C 107.333 2.15937 0.916975 0
M  V30 1118 C 108.349 1.12123 1.33058 0
M  V30 1119 O 109.525 1.44366 1.40429 0
M  V30 1120 C 106.59 2.70547 2.16807 0
M  V30 1121 C 105.651 3.89215 1.81135 0
M  V30 1122 C 104.884 4.41211 3.0028 0
M  V30 1123 O 105.107 3.92225 4.14144 0
M  V30 1124 O 104.041 5.32605 2.80384 0
M  V30 1125 H 107.867 3.00354 0.449561 0
M  V30 1126 H 105.452 1.48584 0.155949 0
M  V30 1127 H 107.334 3.0557 2.90181 0
M  V30 1128 H 106.009 1.89192 2.62656 0
M  V30 1129 H 104.916 3.59054 1.05028 0
M  V30 1130 H 106.249 4.71848 1.40073 0
M  V30 1131 N 107.901 -0.206675 1.56239 0
M  V30 1132 C 109.147 -0.930218 1.80208 0
M  V30 1133 C 109.48 -1.83387 0.638981 0
M  V30 1134 O 108.755 -1.91119 -0.361066 0
M  V30 1135 C 109.038 -1.75641 3.1436 0
M  V30 1136 C 108.891 -0.878257 4.41142 0
M  V30 1137 C 110.21 -2.73129 3.45092 0
M  V30 1138 H 107.329 -0.336742 0.655571 0
M  V30 1139 H 109.971 -0.198222 1.88963 0
M  V30 1140 H 108.121 -2.38048 3.07027 0
M  V30 1141 H 109.793 -0.269787 4.6051 0
M  V30 1142 H 108.036 -0.184385 4.33408 0
M  V30 1143 H 108.707 -1.49106 5.3148 0
M  V30 1144 H 111.183 -2.20856 3.52649 0
M  V30 1145 H 110.059 -3.28028 4.40101 0
M  V30 1146 H 110.32 -3.51606 2.68003 0
M  V30 1147 N 109.379 -1.50304 -0.473955 0
M  V30 1148 C 110.342 -1.6841 -1.55469 0
M  V30 1149 C 111.342 -0.554905 -1.50922 0
M  V30 1150 O 112.532 -0.821882 -1.53593 0
M  V30 1151 C 109.664 -1.70667 -2.95102 0
M  V30 1152 H 110.857 -2.64828 -1.40733 0
M  V30 1153 H 108.41 -1.39742 -0.700132 0
M  V30 1154 H 109.145 -0.75932 -3.15285 0
M  V30 1155 H 108.93 -2.52698 -2.9981 0
M  V30 1156 H 110.42 -1.8664 -3.73571 0
M  V30 1157 N 110.857 0.726932 -1.39834 0
M  V30 1158 C 111.807 1.83232 -1.35683 0
M  V30 1159 C 112.791 1.59155 -0.236295 0
M  V30 1160 O 113.983 1.70522 -0.474488 0
M  V30 1161 C 111.112 3.21246 -1.21062 0
M  V30 1162 C 110.198 3.51125 -2.37849 0
M  V30 1163 N 110.589 3.51889 -3.63329 0
M  V30 1164 C 108.887 3.81527 -2.30982 0
M  V30 1165 C 109.588 3.79791 -4.40606 0
M  V30 1166 N 108.564 3.97971 -3.70297 0
M  V30 1167 H 112.366 1.8214 -2.30656 0
M  V30 1168 H 109.88 0.925545 -1.33444 0
M  V30 1169 H 111.877 4.00387 -1.16171 0
M  V30 1170 H 110.537 3.23572 -0.270458 0
M  V30 1171 H 111.548 3.33008 -3.96643 0
M  V30 1172 H 108.225 3.91411 -1.45272 0
M  V30 1173 H 109.615 3.86783 -5.49408 0
M  V30 1174 N 112.336 1.25143 0.95797 0
M  V30 1175 C 113.584 1.09476 1.69881 0
M  V30 1176 C 113.905 -0.365502 1.91544 0
M  V30 1177 O 113.175 -1.25985 1.50015 0
M  V30 1178 H 111.755 0.402128 0.629525 0
M  V30 1179 H 114.417 1.57214 1.15194 0
M  V30 1180 H 113.513 1.60046 2.6794 0
M  V30 1181 N 113.814 -1.1601 1.06675 0
M  V30 1182 C 115.063 -1.85973 0.780818 0
M  V30 1183 C 115.376 -1.82819 -0.695444 0
M  V30 1184 O 116.582 -2.484 -1.09589 0
M  V30 1185 C 115.038 -3.33757 1.34665 0
M  V30 1186 C 114.646 -3.45374 2.85343 0
M  V30 1187 C 116.39 -4.0895 1.13843 0
M  V30 1188 C 114.297 -4.87266 3.35151 0
M  V30 1189 H 113.227 -0.696661 0.288407 0
M  V30 1190 H 115.878 -1.30903 1.28595 0
M  V30 1191 H 114.26 -3.88456 0.769274 0
M  V30 1192 H 115.434 -3.00816 3.49065 0
M  V30 1193 H 113.749 -2.83619 3.04876 0
M  V30 1194 H 116.346 -5.13654 1.4854 0
M  V30 1195 H 116.689 -4.16229 0.0770282 0
M  V30 1196 H 117.222 -3.605 1.68179 0
M  V30 1197 H 113.961 -4.85168 4.40786 0
M  V30 1198 H 113.481 -5.32433 2.76179 0
M  V30 1199 H 115.16 -5.56097 3.30704 0
M  V30 1200 N 115.292 -0.849877 -1.32721 0
M  V30 1201 C 116.703 -0.506188 -1.79707 0
M  V30 1202 C 117.054 0.975627 -1.70223 0
M  V30 1203 O 116.179 1.76078 -1.25799 0
M  V30 1204 C 116.774 -0.912044 -3.26293 0
M  V30 1205 C 115.333 -0.620326 -3.71253 0
M  V30 1206 C 114.48 -1.11439 -2.53922 0
M  V30 1207 H 117.431 -1.03754 -1.20087 0
M  V30 1208 H 117.452 -0.226493 -3.79825 0
M  V30 1209 H 116.964 -1.99057 -3.33164 0
M  V30 1210 H 115.065 0.447674 -3.69901 0
M  V30 1211 H 115.178 -1.18327 -4.64258 0
M  V30 1212 H 113.542 -0.534834 -2.49021 0
M  V30 1213 H 114.325 -2.19992 -2.6355 0
M  V30 1214 N 116.77 1.45427 -0.607355 0
M  V30 1215 C 117.995 2.07124 -0.107006 0
M  V30 1216 C 118.42 1.44906 1.19933 0
M  V30 1217 O 117.778 0.541687 1.73019 0
M  V30 1218 C 117.826 3.60595 0.0194119 0
M  V30 1219 O 116.93 3.98285 1.0697 0
M  V30 1220 H 116.271 0.659868 -0.0739597 0
M  V30 1221 H 118.801 1.86683 -0.837297 0
M  V30 1222 H 118.811 4.07419 0.2177 0
M  V30 1223 H 117.486 4.05266 -0.934453 0
M  V30 1224 H 116.063 3.63133 0.847889 0
M  V30 1225 N 118.248 0.346503 1.53744 0
M  V30 1226 C 119.195 -0.508914 2.25119 0
M  V30 1227 C 120.165 -1.09315 1.25058 0
M  V30 1228 O 121.35 -1.12921 1.53797 0
M  V30 1229 C 118.49 -1.65246 3.02965 0
M  V30 1230 C 117.603 -1.09525 4.17886 0
M  V30 1231 C 116.738 -2.20634 4.83212 0
M  V30 1232 C 115.777 -1.62279 5.90196 0
M  V30 1233 N 114.914 -2.67143 6.49291 0
M  V30 1234 H 119.754 0.106283 2.9781 0
M  V30 1235 H 117.291 0.0642227 1.4696 0
M  V30 1236 H 119.249 -2.32574 3.4636 0
M  V30 1237 H 117.879 -2.2386 2.32565 0
M  V30 1238 H 116.931 -0.312818 3.79112 0
M  V30 1239 H 118.243 -0.628444 4.94825 0
M  V30 1240 H 117.397 -2.95821 5.29693 0
M  V30 1241 H 116.136 -2.70659 4.05703 0
M  V30 1242 H 115.141 -0.855989 5.43096 0
M  V30 1243 H 116.366 -1.13102 6.69615 0
M  V30 1244 H 114.312 -3.16417 5.74645 0
M  V30 1245 H 114.229 -2.25093 7.21713 0
M  V30 1246 H 115.497 -3.4209 7.00425 0
M  V30 1247 N 119.726 -1.57421 0.075193 0
M  V30 1248 C 121.142 -1.57099 -0.281444 0
M  V30 1249 C 121.342 -1.08486 -1.69803 0
M  V30 1250 O 120.398 -0.752279 -2.41033 0
M  V30 1251 C 121.711 -3.00571 -0.0880041 0
M  V30 1252 C 123.259 -3.12605 -0.157281 0
M  V30 1253 C 123.734 -4.57999 0.0079207 0
M  V30 1254 N 125.225 -4.63176 -0.0475725 0
M  V30 1255 C 125.96 -5.73373 0.0557876 0
M  V30 1256 N 125.456 -6.92473 0.21286 0
M  V30 1257 N 127.249 -5.621 -0.00152098 0
M  V30 1258 H 119.4 -1.87335 1.00098 0
M  V30 1259 H 121.663 -0.86377 0.390646 0
M  V30 1260 H 121.369 -3.40262 0.889629 0
M  V30 1261 H 121.243 -3.67754 -0.838875 0
M  V30 1262 H 123.63 -2.72798 -1.1254 0
M  V30 1263 H 123.711 -2.48053 0.62475 0
M  V30 1264 H 123.355 -4.98496 0.972824 0
M  V30 1265 H 123.285 -5.20586 -0.793556 0
M  V30 1266 H 125.776 -3.7753 -0.167244 0
M  V30 1267 H 126.089 -7.72279 0.283781 0
M  V30 1268 H 124.434 -6.94556 0.248267 0
M  V30 1269 H 127.625 -4.67938 -0.122958 0
M  V30 1270 H 127.798 -6.47948 0.0824844 0
M  V30 1271 N 121.204 0.198386 -1.56346 0
M  V30 1272 C 122.45 0.920648 -1.80698 0
M  V30 1273 C 122.783 1.83045 -0.648697 0
M  V30 1274 O 122.058 1.91308 0.350925 0
M  V30 1275 C 122.341 1.73971 -3.15287 0
M  V30 1276 C 122.194 0.85485 -4.41602 0
M  V30 1277 C 123.513 2.71296 -3.46535 0
M  V30 1278 H 120.632 0.333261 -0.657348 0
M  V30 1279 H 123.274 0.188198 -1.89066 0
M  V30 1280 H 121.424 2.36416 -3.08285 0
M  V30 1281 H 123.096 0.245362 -4.60647 0
M  V30 1282 H 121.339 0.161398 -4.335 0
M  V30 1283 H 122.01 1.46286 -5.32264 0
M  V30 1284 H 124.486 2.18983 -3.53816 0
M  V30 1285 H 123.362 3.2569 -4.41834 0
M  V30 1286 H 123.623 3.5018 -2.69864 0
M  V30 1287 N 122.682 1.50554 0.465978 0
M  V30 1288 C 123.931 1.61038 1.21448 0
M  V30 1289 C 124.244 0.31865 1.92987 0
M  V30 1290 O 125.45 0.302469 2.6981 0
M  V30 1291 C 123.906 2.84283 2.20706 0
M  V30 1292 C 123.514 4.20352 1.54946 0
M  V30 1293 C 125.258 3.04115 2.96166 0
M  V30 1294 C 123.165 5.34778 2.5252 0
M  V30 1295 H 122.095 0.599718 0.457005 0
M  V30 1296 H 124.746 1.7699 0.484424 0
M  V30 1297 H 123.128 2.61901 2.97025 0
M  V30 1298 H 124.302 4.53008 0.843811 0
M  V30 1299 H 122.617 4.06167 0.917475 0
M  V30 1300 H 125.214 3.86774 3.69202 0
M  V30 1301 H 125.557 2.16045 3.55852 0
M  V30 1302 H 126.09 3.26702 2.26959 0
M  V30 1303 H 122.829 6.25018 1.97566 0
M  V30 1304 H 122.349 5.06534 3.21222 0
M  V30 1305 H 124.028 5.65561 3.14245 0
M  V30 1306 N 124.16 -0.719506 1.40217 0
M  V30 1307 C 125.576 -1.02707 1.22161 0
M  V30 1308 C 125.776 -2.0128 0.0940557 0
M  V30 1309 O 124.832 -2.46452 -0.549318 0
M  V30 1310 C 126.145 -1.57454 2.56181 0
M  V30 1311 C 127.693 -1.69458 2.63159 0
M  V30 1312 C 128.168 -2.27611 3.97438 0
M  V30 1313 N 129.659 -2.35002 3.99159 0
M  V30 1314 C 130.394 -2.80972 4.99842 0
M  V30 1315 N 129.89 -3.26723 6.10921 0
M  V30 1316 N 131.683 -2.80321 4.87213 0
M  V30 1317 H 123.834 -0.0660492 2.12297 0
M  V30 1318 H 126.097 -0.0919077 0.943534 0
M  V30 1319 H 125.803 -0.924873 3.39321 0
M  V30 1320 H 125.677 -2.56036 2.76993 0
M  V30 1321 H 128.064 -2.33543 1.80393 0
M  V30 1322 H 128.145 -0.694867 2.46181 0
M  V30 1323 H 127.789 -1.6415 4.80643 0
M  V30 1324 H 127.719 -3.2829 4.11744 0
M  V30 1325 H 130.21 -2.02685 3.18947 0
M  V30 1326 H 130.523 -3.60355 6.8364 0
M  V30 1327 H 128.868 -3.24692 6.14492 0
M  V30 1328 H 132.059 -2.43912 3.9953 0
M  V30 1329 H 132.232 -3.15831 5.65822 0
M  V30 1330 N 125.638 -1.25649 -0.95132 0
M  V30 1331 C 126.548 -1.08073 -2.08224 0
M  V30 1332 C 127.564 -0.0169666 -1.73992 0
M  V30 1333 O 128.74 -0.218593 -2.0021 0
M  V30 1334 C 125.805 -0.704922 -3.39458 0
M  V30 1335 C 124.866 -1.84699 -3.87537 0
M  V30 1336 C 124.099 -1.48902 -5.12508 0
M  V30 1337 O 124.322 -0.386156 -5.69091 0
M  V30 1338 O 123.256 -2.32033 -5.55378 0
M  V30 1339 H 127.082 -2.02924 -2.25954 0
M  V30 1340 H 124.667 -1.04618 -1.06656 0
M  V30 1341 H 126.549 -0.507609 -4.18332 0
M  V30 1342 H 125.224 0.214291 -3.2299 0
M  V30 1343 H 124.131 -2.09919 -3.09653 0
M  V30 1344 H 125.464 -2.74557 -4.08509 0
M  V30 1345 N 127.117 1.15442 -1.07289 0
M  V30 1346 C 128.365 1.85845 -0.794096 0
M  V30 1347 C 128.686 1.82692 0.681809 0
M  V30 1348 O 127.956 1.26741 1.49377 0
M  V30 1349 H 126.536 0.688089 -0.290763 0
M  V30 1350 H 129.198 1.39947 -1.3565 0
M  V30 1351 H 128.294 2.91001 -1.12804 0
M  V30 1352 N 128.595 0.856903 1.32268 0
M  V30 1353 C 129.872 0.382583 1.91822 0
M  V30 1354 C 130.252 -1.13407 1.78051 0
M  V30 1355 O 129.6 -1.95673 1.18001 0
M  V30 1356 C 129.81 0.849446 3.38505 0
M  V30 1357 C 131.158 0.867936 4.15634 0
M  V30 1358 O 132.182 0.794232 3.47232 0
M  V30 1359 O 131.041 0.972286 5.37781 0
M  V30 1360 H 128.135 0.112014 0.819379 0
M  V30 1361 H 130.681 0.943952 1.41024 0
M  V30 1362 H 129.453 1.89267 3.42482 0
M  V30 1363 H 129.076 0.265652 3.96712 0
M  V30 1364 N 130.073 -1.45103 0.615059 0
M  V30 1365 C 131.003 -2.33339 -0.0865619 0
M  V30 1366 C 131.984 -1.4727 -0.851209 0
M  V30 1367 O 133.169 -1.76026 -0.820281 0
M  V30 1368 C 130.299 -3.30095 -1.07956 0
M  V30 1369 C 129.253 -4.25858 -0.427628 0
M  V30 1370 C 128.579 -5.12361 -1.5294 0
M  V30 1371 C 129.879 -5.18165 0.655944 0
M  V30 1372 H 131.573 -2.92254 0.650224 0
M  V30 1373 H 129.119 -1.40532 0.314138 0
M  V30 1374 H 131.072 -3.90698 -1.57901 0
M  V30 1375 H 129.796 -2.69355 -1.84703 0
M  V30 1376 H 128.455 -3.66564 0.0510292 0
M  V30 1377 H 128.103 -4.47984 -2.28734 0
M  V30 1378 H 127.803 -5.77238 -1.09865 0
M  V30 1379 H 129.327 -5.75833 -2.03098 0
M  V30 1380 H 130.741 -5.72796 0.240257 0
M  V30 1381 H 129.138 -5.91559 1.00888 0
M  V30 1382 H 130.208 -4.60144 1.52957 0
M  V30 1383 N 131.551 -0.354651 -1.53558 0
M  V30 1384 C 132.797 0.238797 -2.01389 0
M  V30 1385 C 133.13 1.49309 -1.2418 0
M  V30 1386 O 132.405 1.91638 -0.332457 0
M  V30 1387 C 132.688 0.541771 -3.56001 0
M  V30 1388 C 132.541 -0.725388 -4.43912 0
M  V30 1389 C 133.86 1.34685 -4.18984 0
M  V30 1390 H 130.979 0.0853177 -0.732045 0
M  V30 1391 H 133.621 -0.477384 -1.83905 0
M  V30 1392 H 131.771 1.15189 -3.71031 0
M  V30 1393 H 133.443 -1.36313 -4.407 0
M  V30 1394 H 131.686 -1.34801 -4.12324 0
M  V30 1395 H 132.357 -0.468505 -5.50008 0
M  V30 1396 H 134.833 0.830837 -4.07721 0
M  V30 1397 H 133.709 1.52759 -5.27215 0
M  V30 1398 H 133.97 2.35221 -3.74331 0
M  V30 1399 N 133.029 1.57378 -0.0835403 0
M  V30 1400 C 133.977 2.14602 0.89714 0
M  V30 1401 C 134.971 1.08589 1.30018 0
M  V30 1402 O 136.177 1.26952 1.27606 0
M  V30 1403 H 132.552 0.686346 0.3073 0
M  V30 1404 H 134.523 2.95845 0.38969 0
M  V30 1405 C 133.272 2.73188 2.15089 0
M  V30 1406 H 132.595 3.54442 1.84962 0
M  V30 1407 H 134.035 3.1681 2.81793 0
M  V30 1408 C 132.494 1.68517 2.91725 0
M  V30 1409 O 133.024 1.11718 3.85852 0
M  V30 1410 N 131.23 1.39277 2.55049 0
M  V30 1411 H 130.777 1.85655 1.78577 0
M  V30 1412 H 130.735 0.694791 3.06627 0
M  V30 1413 N 134.507 -0.190092 1.56449 0
M  V30 1414 C 135.756 -0.907912 1.80111 0
M  V30 1415 C 136.069 -1.84214 0.657619 0
M  V30 1416 O 137.275 -2.60094 0.778663 0
M  V30 1417 C 135.731 -1.66485 3.19078 0
M  V30 1418 C 135.339 -0.7752 4.41242 0
M  V30 1419 C 137.083 -2.37201 3.52045 0
M  V30 1420 C 134.99 -1.53129 5.71231 0
M  V30 1421 H 133.92 -0.34276 0.671589 0
M  V30 1422 H 136.571 -0.161109 1.82791 0
M  V30 1423 H 134.953 -2.45572 3.10661 0
M  V30 1424 H 136.127 -0.0226298 4.60794 0
M  V30 1425 H 134.442 -0.178627 4.16017 0
M  V30 1426 H 137.039 -2.94329 4.46402 0
M  V30 1427 H 137.382 -3.11632 2.76028 0
M  V30 1428 H 137.915 -1.65075 3.61932 0
M  V30 1429 H 134.654 -0.82967 6.50228 0
M  V30 1430 H 134.174 -2.25767 5.55688 0
M  V30 1431 H 135.853 -2.08377 6.12526 0
M  V30 1432 N 135.985 -1.50799 -0.457987 0
M  V30 1433 C 137.262 -1.52968 -1.21902 0
M  V30 1434 C 137.642 -0.281906 -2.09209 0
M  V30 1435 O 136.99 0.734076 -2.16388 0
M  V30 1436 C 137.2 -2.8326 -2.03875 0
M  V30 1437 C 138.548 -3.34425 -2.6162 0
M  V30 1438 O 139.572 -2.8467 -2.14106 0
M  V30 1439 O 138.431 -4.21188 -3.48228 0
M  V30 1440 H 135.525 -0.614129 -0.553873 0
M  V30 1441 H 138.071 -1.63098 -0.468739 0
M  V30 1442 H 136.843 -3.65543 -1.39621 0
M  V30 1443 H 136.466 -2.76195 -2.8601 0
M  V30 1444 N 137.463 0.71206 -1.40597 0
M  V30 1445 C 138.709 1.47416 -1.39271 0
M  V30 1446 C 139.042 1.942 0.00388791 0
M  V30 1447 O 138.317 1.68403 0.973179 0
M  V30 1448 C 138.6 2.69774 -2.38525 0
M  V30 1449 C 138.453 2.28861 -3.87224 0
M  V30 1450 C 139.772 3.71939 -2.35264 0
M  V30 1451 H 136.891 0.534713 -0.5072 0
M  V30 1452 H 139.533 0.812375 -1.71757 0
M  V30 1453 H 137.683 3.26238 -2.10953 0
M  V30 1454 H 139.355 1.77852 -4.25636 0
M  V30 1455 H 137.598 1.60824 -4.02887 0
M  V30 1456 H 138.269 3.16584 -4.52193 0
M  V30 1457 H 140.745 3.25113 -2.59694 0
M  V30 1458 H 139.621 4.55186 -3.06753 0
M  V30 1459 H 139.882 4.20484 -1.36549 0
M  V30 1460 N 138.941 1.26152 0.944643 0
M  V30 1461 C 140.166 1.14363 1.7302 0
M  V30 1462 C 140.591 -0.29772 1.85729 0
M  V30 1463 O 139.949 -1.2157 1.34501 0
M  V30 1464 C 139.997 1.81378 3.11664 0
M  V30 1465 O 139.101 1.10022 3.97453 0
M  V30 1466 H 138.442 0.398694 0.53098 0
M  V30 1467 H 140.972 1.66906 1.18337 0
M  V30 1468 H 140.982 1.88064 3.62072 0
M  V30 1469 H 139.657 2.86237 3.0173 0
M  V30 1470 H 138.234 1.11287 3.55907 0
M  V30 1471 N 140.419 -1.14872 1.07899 0
M  V30 1472 C 141.382 -2.17986 0.708161 0
M  V30 1473 C 142.382 -1.58775 -0.25442 0
M  V30 1474 O 143.572 -1.74166 -0.034645 0
M  V30 1475 C 140.704 -3.40871 0.0446929 0
M  V30 1476 H 141.897 -2.52306 1.62116 0
M  V30 1477 H 139.45 -1.2943 0.876218 0
M  V30 1478 H 140.185 -3.12124 -0.880281 0
M  V30 1479 H 139.97 -3.8511 0.737091 0
M  V30 1480 H 141.46 -4.17121 -0.19991 0
M  V30 1481 N 141.898 -0.863906 -1.31812 0
M  V30 1482 C 142.828 -0.330843 -2.31144 0
M  V30 1483 C 143.809 0.575005 -1.60087 0
M  V30 1484 O 144.994 0.493304 -1.8783 0
M  V30 1485 C 142.124 0.47374 -3.44054 0
M  V30 1486 C 141.078 -0.338481 -4.26659 0
M  V30 1487 C 140.404 0.591412 -5.31419 0
M  V30 1488 C 141.704 -1.56926 -4.98168 0
M  V30 1489 H 143.398 -1.16086 -2.75979 0
M  V30 1490 H 140.944 -0.559657 -1.32679 0
M  V30 1491 H 142.897 0.857143 -4.12591 0
M  V30 1492 H 141.621 1.33721 -2.9797 0
M  V30 1493 H 140.28 -0.703754 -3.59782 0
M  V30 1494 H 139.928 1.45199 -4.81587 0
M  V30 1495 H 139.628 0.0519022 -5.87577 0
M  V30 1496 H 141.152 0.97179 -6.02817 0
M  V30 1497 H 142.566 -1.25764 -5.59336 0
M  V30 1498 H 140.963 -2.04739 -5.64094 0
M  V30 1499 H 142.033 -2.32544 -4.25501 0
M  V30 1500 N 143.376 1.44774 -0.622745 0
M  V30 1501 C 144.323 2.30635 0.0871679 0
M  V30 1502 C 145.293 1.42994 0.845097 0
M  V30 1503 O 146.478 1.71907 0.827812 0
M  V30 1504 C 143.618 3.28144 1.06844 0
M  V30 1505 C 142.731 4.30888 0.309809 0
M  V30 1506 C 141.866 5.15494 1.28215 0
M  V30 1507 C 140.905 6.09953 0.512198 0
M  V30 1508 N 140.042 6.87287 1.43458 0
M  V30 1509 H 144.882 2.90803 -0.650974 0
M  V30 1510 H 142.419 1.43286 -0.33281 0
M  V30 1511 H 144.377 3.83157 1.65066 0
M  V30 1512 H 143.007 2.69695 1.77382 0
M  V30 1513 H 142.059 3.78414 -0.388181 0
M  V30 1514 H 143.371 4.97955 -0.290254 0
M  V30 1515 H 142.525 5.74983 1.93596 0
M  V30 1516 H 141.264 4.48481 1.91614 0
M  V30 1517 H 140.269 5.49581 -0.155151 0
M  V30 1518 H 141.494 6.78999 -0.116958 0
M  V30 1519 H 139.44 6.2295 2.05594 0
M  V30 1520 H 139.357 7.50763 0.888335 0
M  V30 1521 H 140.625 7.51306 2.07749 0
M  V30 1522 N 144.854 0.36279 1.53368 0
M  V30 1523 C 145.802 -0.500155 2.27159 0
M  V30 1524 C 146.796 -1.08575 1.3003 0
M  V30 1525 O 148.002 -1.02927 1.47668 0
M  V30 1526 H 144.377 -0.180009 0.730138 0
M  V30 1527 H 146.348 0.14401 2.98052 0
M  V30 1528 C 145.097 -1.62937 3.07159 0
M  V30 1529 H 144.42 -1.18806 3.8174 0
M  V30 1530 H 145.86 -2.20795 3.61975 0
M  V30 1531 C 144.319 -2.57007 2.17829 0
M  V30 1532 O 144.849 -3.59752 1.78721 0
M  V30 1533 N 143.055 -2.26131 1.82518 0
M  V30 1534 H 142.602 -1.42616 2.14519 0
M  V30 1535 H 142.56 -2.89327 1.23034 0
M  V30 1536 N 146.332 -1.57332 0.0918853 0
M  V30 1537 C 147.58 -1.93853 -0.571446 0
M  V30 1538 C 147.901 -0.974212 -1.6892 0
M  V30 1539 O 147.171 -0.0257254 -1.95883 0
M  V30 1540 H 145.751 -0.715666 -0.214082 0
M  V30 1541 H 148.413 -1.94287 0.154464 0
M  V30 1542 H 147.509 -2.96191 -0.983729 0
M  V30 1543 N 147.81 0.181792 -1.56548 0
M  V30 1544 C 149.04 0.914618 -1.85252 0
M  V30 1545 C 149.448 1.76791 -0.673914 0
M  V30 1546 O 148.791 1.80009 0.366416 0
M  V30 1547 C 148.853 1.85019 -3.08234 0
M  V30 1548 C 148.517 1.17754 -4.41569 0
M  V30 1549 C 149.514 0.548035 -5.17003 0
M  V30 1550 C 147.199 1.17742 -4.88305 0
M  V30 1551 C 149.193 -0.0726128 -6.37359 0
M  V30 1552 C 146.88 0.552946 -6.08593 0
M  V30 1553 C 147.878 -0.070978 -6.82963 0
M  V30 1554 O 147.566 -0.685635 -8.00971 0
M  V30 1555 H 147.298 0.271695 -0.618998 0
M  V30 1556 H 149.852 0.189944 -2.0452 0
M  V30 1557 H 148.082 2.61491 -2.84885 0
M  V30 1558 H 149.771 2.45195 -3.23472 0
M  V30 1559 H 150.537 0.540174 -4.81982 0
M  V30 1560 H 146.416 1.65246 -4.30366 0
M  V30 1561 H 149.96 -0.560213 -6.95347 0
M  V30 1562 H 145.857 0.558354 -6.43081 0
M  V30 1563 H 146.625 -0.58385 -8.16415 0
M  V30 1564 N 149.288 1.51039 0.449983 0
M  V30 1565 C 150.518 1.66627 1.22143 0
M  V30 1566 C 150.926 0.357776 1.85786 0
M  V30 1567 O 150.269 -0.672424 1.70951 0
M  V30 1568 C 150.331 2.71562 2.35573 0
M  V30 1569 C 149.995 4.14526 1.92399 0
M  V30 1570 C 150.992 4.99717 1.43453 0
M  V30 1571 C 148.677 4.60559 2.00475 0
M  V30 1572 C 150.671 6.28998 1.03155 0
M  V30 1573 C 148.358 5.8984 1.59788 0
M  V30 1574 C 149.356 6.73886 1.11208 0
M  V30 1575 O 149.044 8.0075 0.710935 0
M  V30 1576 H 148.776 0.562635 0.374724 0
M  V30 1577 H 151.33 1.98146 0.541036 0
M  V30 1578 H 149.56 2.3533 3.06849 0
M  V30 1579 H 151.249 2.76156 2.97478 0
M  V30 1580 H 152.015 4.65361 1.36618 0
M  V30 1581 H 147.894 3.95273 2.37235 0
M  V30 1582 H 151.438 6.9455 0.651663 0
M  V30 1583 H 147.335 6.23713 1.66289 0
M  V30 1584 H 148.103 8.142 0.837913 0
M  V30 1585 N 150.766 -0.704594 1.40972 0
M  V30 1586 C 151.729 -1.80035 1.41845 0
M  V30 1587 C 152.729 -1.57774 0.310474 0
M  V30 1588 O 153.919 -1.64613 0.56992 0
M  V30 1589 C 151.051 -3.18284 1.22098 0
M  V30 1590 H 152.244 -1.80658 2.3938 0
M  V30 1591 H 149.797 -0.911329 1.26982 0
M  V30 1592 H 150.532 -3.23306 0.253672 0
M  V30 1593 H 150.317 -3.35843 2.02366 0
M  V30 1594 H 151.807 -3.98289 1.25522 0
M  V30 1595 N 152.244 -1.26651 -0.937939 0
M  V30 1596 C 153.521 -1.0313 -1.66204 0
M  V30 1597 C 153.901 0.437256 -2.06522 0
M  V30 1598 O 153.249 1.41831 -1.79154 0
M  V30 1599 C 153.459 -1.98314 -2.87181 0
M  V30 1600 C 154.807 -2.27107 -3.58758 0
M  V30 1601 O 155.831 -1.96205 -2.97291 0
M  V30 1602 O 154.69 -2.79736 -4.69479 0
M  V30 1603 H 151.784 -0.392384 -0.727986 0
M  V30 1604 H 154.33 -1.37874 -0.989382 0
M  V30 1605 H 153.102 -2.97399 -2.54302 0
M  V30 1606 H 152.725 -1.64068 -3.6217 0
M  V30 1607 N 153.722 1.14298 -1.08507 0
M  V30 1608 C 154.95 1.89219 -0.836876 0
M  V30 1609 C 155.365 1.78638 0.611054 0
M  V30 1610 O 154.722 1.14643 1.41998 0
M  V30 1611 C 154.773 3.39158 -1.25116 0
M  V30 1612 O 154.494 3.49449 -2.64229 0
M  V30 1613 C 155.995 4.31073 -1.03398 0
M  V30 1614 H 153.215 0.599328 -0.301739 0
M  V30 1615 H 155.759 1.44746 -1.44461 0
M  V30 1616 H 153.914 3.81251 -0.687514 0
M  V30 1617 H 154.328 4.42589 -2.81452 0
M  V30 1618 H 155.802 5.34646 -1.37323 0
M  V30 1619 H 156.279 4.3919 0.0289259 0
M  V30 1620 H 156.885 3.94738 -1.58311 0
M  V30 1621 N 155.201 0.870884 1.31352 0
M  V30 1622 C 156.449 0.48132 1.96285 0
M  V30 1623 C 156.77 -0.969813 1.69173 0
M  V30 1624 O 156.04 -1.67998 1.00764 0
M  V30 1625 H 154.62 0.175002 0.726212 0
M  V30 1626 H 157.282 1.11087 1.60143 0
M  V30 1627 H 156.378 0.639825 3.05471 0
M  V30 1628 N 156.679 -1.44442 0.630414 0
M  V30 1629 C 157.928 -2.01267 0.132073 0
M  V30 1630 C 158.241 -1.50172 -1.25331 0
M  V30 1631 O 159.447 -1.9912 -1.84562 0
M  V30 1632 C 157.903 -3.59422 0.185362 0
M  V30 1633 C 157.511 -4.19514 1.57201 0
M  V30 1634 C 159.255 -4.23724 -0.256553 0
M  V30 1635 C 157.162 -5.69891 1.58045 0
M  V30 1636 H 156.092 -0.752619 0.0456092 0
M  V30 1637 H 158.743 -1.65666 0.789106 0
M  V30 1638 H 157.125 -3.92318 -0.538759 0
M  V30 1639 H 158.299 -3.98156 2.31966 0
M  V30 1640 H 156.614 -3.67496 1.95795 0
M  V30 1641 H 159.211 -5.34019 -0.269767 0
M  V30 1642 H 159.554 -3.96013 -1.28372 0
M  V30 1643 H 160.087 -3.95629 0.41505 0
M  V30 1644 H 156.826 -6.02336 2.58597 0
M  V30 1645 H 156.346 -5.93373 0.875725 0
M  V30 1646 H 158.025 -6.33515 1.31408 0
M  V30 1647 N 158.157 -0.370918 -1.53173 0
M  V30 1648 C 159.382 0.220293 -2.06227 0
M  V30 1649 C 159.807 1.41243 -1.24225 0
M  V30 1650 O 159.165 1.79387 -0.262645 0
M  V30 1651 C 159.213 0.586663 -3.55796 0
M  V30 1652 O 158.317 1.68317 -3.76488 0
M  V30 1653 H 157.658 0.0308099 -0.663285 0
M  V30 1654 H 160.188 -0.533068 -1.97534 0
M  V30 1655 H 160.198 0.85617 -3.98916 0
M  V30 1656 H 158.873 -0.285013 -4.14922 0
M  V30 1657 H 157.45 1.40881 -3.45264 0
M  V30 1658 N 159.635 1.57281 -0.100228 0
M  V30 1659 C 160.882 1.94537 0.562268 0
M  V30 1660 C 161.21 0.982315 1.67871 0
M  V30 1661 O 160.465 0.00280936 1.957 0
M  V30 1662 C 160.764 3.38305 1.15259 0
M  V30 1663 C 160.43 4.50618 0.159409 0
M  V30 1664 C 159.092 4.81066 -0.113741 0
M  V30 1665 C 161.444 5.18615 -0.518461 0
M  V30 1666 C 158.772 5.76835 -1.07137 0
M  V30 1667 C 161.124 6.15412 -1.46459 0
M  V30 1668 C 159.788 6.44262 -1.74592 0
M  V30 1669 H 159.058 0.711863 0.205748 0
M  V30 1670 H 161.705 1.90679 -0.17715 0
M  V30 1671 H 160.01 3.38766 1.96836 0
M  V30 1672 H 161.707 3.64435 1.67297 0
M  V30 1673 H 158.297 4.2689 0.382491 0
M  V30 1674 H 162.481 4.95264 -0.320581 0
M  V30 1675 H 157.737 5.975 -1.29628 0
M  V30 1676 H 161.911 6.67194 -1.99564 0
M  V30 1677 H 159.538 7.1828 -2.48953 0
M  V30 1678 N 161.113 -0.173488 1.56642 0
M  V30 1679 C 162.359 -0.891784 1.8214 0
M  V30 1680 C 162.692 -1.8199 0.677736 0
M  V30 1681 O 161.967 -1.91842 -0.320446 0
M  V30 1682 C 162.25 -1.68933 3.18015 0
M  V30 1683 C 162.103 -0.784487 4.42906 0
M  V30 1684 C 163.422 -2.65748 3.50808 0
M  V30 1685 H 160.541 -0.322761 0.662567 0
M  V30 1686 H 163.183 -0.158095 1.89341 0
M  V30 1687 H 161.333 -2.31482 3.12007 0
M  V30 1688 H 163.005 -0.172046 4.60979 0
M  V30 1689 H 161.248 -0.0924117 4.33702 0
M  V30 1690 H 161.919 -1.37799 5.34524 0
M  V30 1691 H 164.395 -2.13327 3.57255 0
M  V30 1692 H 163.271 -3.18619 4.4696 0
M  V30 1693 H 163.532 -3.45842 2.75401 0
M  V30 1694 N 162.591 -1.51276 -0.441967 0
M  V30 1695 C 163.837 -1.63958 -1.19355 0
M  V30 1696 C 164.17 -0.352543 -1.90973 0
M  V30 1697 O 163.445 0.647627 -1.83401 0
M  V30 1698 C 163.728 -2.83979 -2.21422 0
M  V30 1699 C 163.581 -4.22646 -1.53918 0
M  V30 1700 C 164.9 -2.99521 -3.22451 0
M  V30 1701 H 162.019 -0.596709 -0.432559 0
M  V30 1702 H 164.661 -1.83748 -0.483398 0
M  V30 1703 H 162.811 -2.67237 -2.81987 0
M  V30 1704 H 164.483 -4.51045 -0.967256 0
M  V30 1705 H 162.726 -4.25558 -0.841615 0
M  V30 1706 H 163.397 -5.02609 -2.28229 0
M  V30 1707 H 165.873 -3.14944 -2.71937 0
M  V30 1708 H 164.749 -3.85072 -3.91166 0
M  V30 1709 H 165.01 -2.11391 -3.88287 0
M  V30 1710 N 164.069 0.697108 -1.41344 0
M  V30 1711 C 165.317 1.45426 -1.40341 0
M  V30 1712 C 165.638 1.94996 -0.0128787 0
M  V30 1713 O 164.908 1.71599 0.945027 0
M  V30 1714 H 163.488 0.539594 -0.516573 0
M  V30 1715 H 166.15 0.825201 -1.76569 0
M  V30 1716 H 165.246 2.31817 -2.08967 0
M  V30 1717 N 165.547 1.27147 0.931209 0
M  V30 1718 C 166.457 1.11372 2.06478 0
M  V30 1719 C 167.473 0.044645 1.73943 0
M  V30 1720 O 168.649 0.250417 1.99837 0
M  V30 1721 C 165.714 0.758838 3.38294 0
M  V30 1722 C 164.775 1.90841 3.84549 0
M  V30 1723 C 164.008 1.57036 5.10074 0
M  V30 1724 O 164.231 0.476645 5.68405 0
M  V30 1725 O 163.165 2.40839 5.51616 0
M  V30 1726 H 166.991 2.06493 2.22698 0
M  V30 1727 H 164.576 1.06301 1.04978 0
M  V30 1728 H 166.458 0.574098 4.17471 0
M  V30 1729 H 165.133 -0.162879 3.2329 0
M  V30 1730 H 164.04 2.14819 3.06274 0
M  V30 1731 H 165.373 2.81021 4.04089 0
M  V30 1732 N 167.025 -1.13721 1.09112 0
M  V30 1733 C 168.25 -1.89314 0.847053 0
M  V30 1734 C 168.675 -1.78416 -0.595774 0
M  V30 1735 O 168.033 -1.12942 -1.41823 0
M  V30 1736 C 168.081 -3.3701 1.28284 0
M  V30 1737 O 167.185 -4.10054 0.439267 0
M  V30 1738 H 166.526 -0.588745 0.307044 0
M  V30 1739 H 169.056 -1.43902 1.45442 0
M  V30 1740 H 169.066 -3.87834 1.26683 0
M  V30 1741 H 167.741 -3.4426 2.33363 0
M  V30 1742 H 166.318 -3.69266 0.519312 0
M  V30 1743 N 168.503 -0.877838 -1.30888 0
M  V30 1744 C 169.78 -0.413052 -1.91189 0
M  V30 1745 C 170.16 1.1056 -1.79832 0
M  V30 1746 O 169.508 1.93771 -1.21099 0
M  V30 1747 C 169.718 -0.903191 -3.3711 0
M  V30 1748 C 171.066 -0.93395 -4.14201 0
M  V30 1749 O 172.09 -0.849373 -3.45925 0
M  V30 1750 O 170.949 -1.05772 -5.36167 0
M  V30 1751 H 168.043 -0.125035 -0.817493 0
M  V30 1752 H 170.589 -0.966269 -1.39504 0
M  V30 1753 H 169.361 -1.94692 -3.39427 0
M  V30 1754 H 168.984 -0.328732 -3.96239 0
M  V30 1755 N 169.982 1.44106 -0.638065 0
M  V30 1756 C 171.259 1.95453 -0.0759321 0
M  V30 1757 C 171.639 1.57984 1.40015 0
M  V30 1758 O 170.987 0.857361 2.11806 0
M  V30 1759 C 171.197 3.47655 -0.306132 0
M  V30 1760 C 172.545 4.24114 -0.203008 0
M  V30 1761 O 173.569 3.55405 -0.237871 0
M  V30 1762 O 172.428 5.46381 -0.113827 0
M  V30 1763 H 169.522 0.826797 0.0183332 0
M  V30 1764 H 172.068 1.54122 -0.710251 0
M  V30 1765 H 170.84 3.68 -1.3301 0
M  V30 1766 H 170.463 3.95949 0.361991 0
M  V30 1767 N 171.46 0.379036 1.52974 0
M  V30 1768 C 172.871 -0.0972525 1.86447 0
M  V30 1769 C 173.222 -1.47027 1.29914 0
M  V30 1770 O 172.347 -2.07135 0.626433 0
M  V30 1771 C 172.942 -0.183248 3.38304 0
M  V30 1772 C 171.501 -0.603812 3.71525 0
M  V30 1773 C 170.648 0.240632 2.76254 0
M  V30 1774 H 173.599 0.597316 1.4703 0
M  V30 1775 H 173.62 -1.00432 3.67006 0
M  V30 1776 H 173.132 0.816191 3.79421 0
M  V30 1777 H 171.233 -1.61099 3.35973 0
M  V30 1778 H 171.346 -0.369086 4.77676 0
M  V30 1779 H 169.71 -0.292548 2.53014 0
M  V30 1780 H 170.493 1.23786 3.20206 0
M  V30 1781 N 172.938 -1.57226 0.108567 0
M  V30 1782 C 173.871 -2.10447 -0.882464 0
M  V30 1783 C 174.849 -1.01829 -1.26766 0
M  V30 1784 O 176.033 -1.29415 -1.37054 0
M  V30 1785 C 173.16 -2.59258 -2.17952 0
M  V30 1786 C 172.206 -3.79662 -1.94318 0
M  V30 1787 S 173.039 -5.22586 -1.16892 0
M  V30 1788 C 174.195 -5.74758 -2.47799 0
M  V30 1789 H 174.428 -2.94178 -0.429745 0
M  V30 1790 H 171.961 -1.54043 -0.105 0
M  V30 1791 H 173.919 -2.88036 -2.92482 0
M  V30 1792 H 172.58 -1.75728 -2.60343 0
M  V30 1793 H 171.773 -4.11928 -2.90399 0
M  V30 1794 H 171.375 -3.51446 -1.27913 0
M  V30 1795 H 173.667 -5.83846 -3.43701 0
M  V30 1796 H 174.61 -6.73027 -2.20093 0
M  V30 1797 H 175.018 -5.02763 -2.56689 0
M  V30 1798 N 174.416 0.165178 -1.56732 0
M  V30 1799 C 175.363 1.2044 -1.96883 0
M  V30 1800 C 176.333 1.43664 -0.833657 0
M  V30 1801 O 177.518 1.56302 -1.09427 0
M  V30 1802 C 174.658 2.53727 -2.33916 0
M  V30 1803 C 173.771 2.3783 -3.6064 0
M  V30 1804 C 172.906 3.64026 -3.86857 0
M  V30 1805 C 171.945 3.43088 -5.06909 0
M  V30 1806 N 171.082 4.61369 -5.29229 0
M  V30 1807 H 175.922 0.854996 -2.85471 0
M  V30 1808 H 173.459 0.41076 -1.41249 0
M  V30 1809 H 175.417 3.31419 -2.53411 0
M  V30 1810 H 174.047 2.8665 -1.48431 0
M  V30 1811 H 173.099 1.51282 -3.49024 0
M  V30 1812 H 174.411 2.18308 -4.4849 0
M  V30 1813 H 173.565 4.50152 -4.06753 0
M  V30 1814 H 172.304 3.86533 -2.97394 0
M  V30 1815 H 171.309 2.55349 -4.86906 0
M  V30 1816 H 172.534 3.21997 -5.97909 0
M  V30 1817 H 170.48 4.84084 -4.42718 0
M  V30 1818 H 170.397 4.44783 -6.11313 0
M  V30 1819 H 171.665 5.48761 -5.53608 0
M  V30 1820 N 175.894 1.51508 0.433938 0
M  V30 1821 C 176.826 1.69266 1.54537 0
M  V30 1822 C 177.839 0.573276 1.52373 0
M  V30 1823 O 179.028 0.847698 1.57087 0
M  V30 1824 C 176.128 1.69524 2.93453 0
M  V30 1825 C 175.301 2.98101 3.20085 0
M  V30 1826 C 174.36 2.90502 4.38742 0
M  V30 1827 O 173.386 3.64442 4.3723 0
M  V30 1828 N 174.588 2.06586 5.42496 0
M  V30 1829 H 177.353 2.65145 1.39708 0
M  V30 1830 H 174.914 1.49437 0.622922 0
M  V30 1831 H 176.906 1.62004 3.70859 0
M  V30 1832 H 175.476 0.812245 3.01863 0
M  V30 1833 H 174.696 3.19464 2.30947 0
M  V30 1834 H 175.984 3.83207 3.34708 0
M  V30 1835 H 175.382 1.45896 5.46563 0
M  V30 1836 H 173.939 2.04943 6.18742 0
M  V30 1837 N 177.372 -0.689602 1.41712 0
M  V30 1838 C 178.319 -1.80345 1.44029 0
M  V30 1839 C 179.289 -1.63478 0.293948 0
M  V30 1840 O 180.474 -1.84244 0.495869 0
M  V30 1841 C 177.614 -3.18272 1.33405 0
M  V30 1842 C 176.727 -3.46529 2.57956 0
M  V30 1843 C 175.862 -4.74103 2.39582 0
M  V30 1844 C 174.901 -4.95347 3.5958 0
M  V30 1845 N 174.038 -6.14151 3.40239 0
M  V30 1846 H 178.878 -1.77698 2.39222 0
M  V30 1847 H 176.415 -0.867688 1.18784 0
M  V30 1848 H 178.373 -3.97956 1.25246 0
M  V30 1849 H 177.003 -3.2008 0.418164 0
M  V30 1850 H 176.055 -2.61207 2.76542 0
M  V30 1851 H 177.367 -3.58126 3.47199 0
M  V30 1852 H 176.521 -5.61853 2.28924 0
M  V30 1853 H 175.26 -4.64763 1.47805 0
M  V30 1854 H 174.265 -4.06044 3.70686 0
M  V30 1855 H 175.49 -5.06542 4.52318 0
M  V30 1856 H 173.436 -6.06013 2.51167 0
M  V30 1857 H 173.353 -6.26543 4.23061 0
M  V30 1858 H 174.621 -7.04619 3.33365 0
M  V30 1859 N 178.85 -1.27639 -0.924453 0
M  V30 1860 C 180.096 -1.14336 -1.67497 0
M  V30 1861 C 180.429 0.309465 -1.91718 0
M  V30 1862 O 179.704 1.22608 -1.50989 0
M  V30 1863 C 179.987 -1.93096 -3.0395 0
M  V30 1864 C 179.84 -3.46381 -2.8695 0
M  V30 1865 C 181.159 -1.73798 -4.0433 0
M  V30 1866 H 178.278 -0.416728 -0.607871 0
M  V30 1867 H 180.92 -1.56832 -1.07256 0
M  V30 1868 H 179.07 -1.56982 -3.55372 0
M  V30 1869 H 180.742 -3.92343 -2.42621 0
M  V30 1870 H 178.985 -3.72557 -2.22225 0
M  V30 1871 H 179.656 -3.96735 -3.83804 0
M  V30 1872 H 182.132 -2.05293 -3.61931 0
M  V30 1873 H 181.008 -2.31294 -4.97789 0
M  V30 1874 H 181.269 -0.686725 -4.36734 0
M  V30 1875 N 180.328 1.1314 -1.09713 0
M  V30 1876 C 181.568 1.8613 -0.844683 0
M  V30 1877 C 181.932 1.81765 0.618491 0
M  V30 1878 O 183.133 2.50024 0.98699 0
M  V30 1879 C 181.404 3.30151 -1.36877 0
M  V30 1880 S 182.963 4.206 -1.25064 0
M  V30 1881 H 179.781 0.642056 -0.305427 0
M  V30 1882 H 182.383 1.36343 -1.4011 0
M  V30 1883 H 181.087 3.30883 -2.42786 0
M  V30 1884 H 180.618 3.85 -0.808614 0
M  V30 1885 H 182.633 4.95783 -0.203486 0
M  V30 1886 N 181.806 0.884767 1.30421 0
M  V30 1887 C 183.083 0.423185 1.90967 0
M  V30 1888 C 183.463 -1.09605 1.80416 0
M  V30 1889 O 182.811 -1.93126 1.22125 0
M  V30 1890 C 183.021 0.921056 3.36627 0
M  V30 1891 C 184.369 0.955903 4.137 0
M  V30 1892 O 185.393 0.867706 3.4547 0
M  V30 1893 O 184.252 1.08614 5.35598 0
M  V30 1894 H 181.346 0.129369 0.816819 0
M  V30 1895 H 183.892 0.973653 1.3899 0
M  V30 1896 H 182.664 1.96489 3.3839 0
M  V30 1897 H 182.287 0.349741 3.96059 0
M  V30 1898 N 183.284 -1.43765 0.645699 0
M  V30 1899 C 184.53 -2.02197 0.156271 0
M  V30 1900 C 184.863 -1.50776 -1.22393 0
M  V30 1901 O 184.138 -0.697771 -1.81553 0
M  V30 1902 C 184.421 -3.59749 0.158872 0
M  V30 1903 C 184.274 -4.21419 1.57245 0
M  V30 1904 C 185.593 -4.37149 -0.50879 0
M  V30 1905 H 182.712 -0.734694 0.0582602 0
M  V30 1906 H 185.354 -1.71157 0.824951 0
M  V30 1907 H 183.504 -3.86325 -0.410525 0
M  V30 1908 H 185.176 -4.059 2.19186 0
M  V30 1909 H 183.419 -3.78356 2.122 0
M  V30 1910 H 184.09 -5.30482 1.52619 0
M  V30 1911 H 186.566 -4.16093 -0.024412 0
M  V30 1912 H 185.442 -5.4683 -0.476213 0
M  V30 1913 H 185.703 -4.12839 -1.58165 0
M  V30 1914 N 184.763 -0.387143 -1.52771 0
M  V30 1915 C 185.726 0.436939 -2.24997 0
M  V30 1916 C 186.726 0.991991 -1.26555 0
M  V30 1917 O 187.916 0.874335 -1.50669 0
M  V30 1918 C 185.048 1.61281 -3.00335 0
M  V30 1919 H 186.241 -0.195365 -2.99263 0
M  V30 1920 H 183.794 -0.139218 -1.55679 0
M  V30 1921 H 184.529 2.2826 -2.30364 0
M  V30 1922 H 184.314 1.22154 -3.72587 0
M  V30 1923 H 185.804 2.19629 -3.5518 0
M  V30 1924 N 186.241 1.57166 -0.116904 0
M  V30 1925 C 187.469 1.99473 0.549383 0
M  V30 1926 C 187.884 0.996541 1.60357 0
M  V30 1927 O 187.241 -0.0108731 1.82497 0
M  V30 1928 C 187.292 3.41788 1.17741 0
M  V30 1929 O 187.013 4.37788 0.165362 0
M  V30 1930 C 188.514 3.99216 1.92722 0
M  V30 1931 H 185.734 0.655009 0.145616 0
M  V30 1932 H 188.278 2.03494 -0.202625 0
M  V30 1933 H 186.433 3.38713 1.88021 0
M  V30 1934 H 186.847 5.20806 0.621403 0
M  V30 1935 H 188.321 5.00882 2.31995 0
M  V30 1936 H 188.798 3.3824 2.80161 0
M  V30 1937 H 189.404 4.0583 1.27209 0
M  V30 1938 N 187.719 -0.156864 1.56817 0
M  V30 1939 C 188.652 -1.22316 1.9265 0
M  V30 1940 C 189.63 -1.42059 0.791076 0
M  V30 1941 O 190.814 -1.56831 1.04576 0
M  V30 1942 C 187.941 -2.58375 2.18998 0
M  V30 1943 C 186.987 -2.55284 3.41661 0
M  V30 1944 S 187.82 -2.02946 4.95553 0
M  V30 1945 C 188.976 -3.40753 5.25013 0
M  V30 1946 H 189.209 -0.917403 2.82791 0
M  V30 1947 H 186.742 -0.362059 1.50095 0
M  V30 1948 H 188.7 -3.36677 2.34859 0
M  V30 1949 H 187.361 -2.86145 1.29538 0
M  V30 1950 H 186.554 -3.55418 3.57343 0
M  V30 1951 H 186.156 -1.85086 3.24991 0
M  V30 1952 H 188.448 -4.36819 5.17876 0
M  V30 1953 H 189.391 -3.29933 6.26538 0
M  V30 1954 H 189.799 -3.37433 4.52548 0
M  V30 1955 N 189.197 -1.51736 -0.425897 0
M  V30 1956 C 190.16 -1.73271 -1.50032 0
M  V30 1957 C 191.16 -0.602639 -1.4908 0
M  V30 1958 O 192.35 -0.87033 -1.509 0
M  V30 1959 C 189.482 -1.79969 -2.89523 0
M  V30 1960 H 190.675 -2.69172 -1.32237 0
M  V30 1961 H 188.228 -1.41899 -0.65532 0
M  V30 1962 H 188.963 -0.859241 -3.1271 0
M  V30 1963 H 188.748 -2.62109 -2.91619 0
M  V30 1964 H 190.238 -1.9843 -3.67444 0
M  V30 1965 N 190.675 0.682077 -1.42076 0
M  V30 1966 C 191.922 1.44215 -1.42156 0
M  V30 1967 C 192.25 1.94468 -0.0354186 0
M  V30 1968 O 191.505 1.70816 0.955002 0
M  V30 1969 C 191.804 2.66036 -2.38662 0
M  V30 1970 C 191.47 2.34366 -3.85206 0
M  V30 1971 C 190.132 2.25439 -4.25124 0
M  V30 1972 C 192.484 2.08513 -4.77673 0
M  V30 1973 C 189.812 1.88775 -5.55501 0
M  V30 1974 C 192.164 1.73354 -6.08384 0
M  V30 1975 C 190.828 1.62933 -6.47309 0
M  V30 1976 H 190.098 0.527718 -0.520187 0
M  V30 1977 H 192.745 0.778387 -1.74967 0
M  V30 1978 H 191.05 3.3741 -1.99152 0
M  V30 1979 H 192.747 3.24205 -2.35991 0
M  V30 1980 H 189.337 2.42213 -3.53597 0
M  V30 1981 H 193.521 2.14346 -4.47626 0
M  V30 1982 H 188.777 1.7927 -5.84527 0
M  V30 1983 H 192.951 1.52373 -6.79526 0
M  V30 1984 H 190.578 1.34292 -7.48244 0
M  V30 1985 N 192.153 1.28127 0.917671 0
M  V30 1986 C 193.063 1.13556 2.05286 0
M  V30 1987 C 194.079 0.0630914 1.73886 0
M  V30 1988 O 195.255 0.271598 1.9956 0
M  V30 1989 C 192.32 0.794676 3.3747 0
M  V30 1990 C 191.381 1.94909 3.82504 0
M  V30 1991 C 190.614 1.62437 5.0838 0
M  V30 1992 O 190.837 0.536905 5.67867 0
M  V30 1993 O 189.771 2.46677 5.4903 0
M  V30 1994 H 193.597 2.08844 2.20495 0
M  V30 1995 H 191.182 1.07409 1.03845 0
M  V30 1996 H 193.064 0.618344 4.16839 0
M  V30 1997 H 191.739 -0.128581 3.23445 0
M  V30 1998 H 190.646 2.18055 3.03978 0
M  V30 1999 H 191.979 2.85291 4.01086 0
M  V30 2000 N 193.631 -1.12557 1.10312 0
M  V30 2001 C 194.579 -2.20325 0.745629 0
M  V30 2002 C 195.573 -1.67429 -0.25763 0
M  V30 2003 O 196.779 -1.79612 -0.118132 0
M  V30 2004 H 193.154 -0.718118 0.223182 0
M  V30 2005 H 195.125 -2.47733 1.66346 0
M  V30 2006 C 193.874 -3.47168 0.192262 0
M  V30 2007 H 193.197 -3.88215 0.955475 0
M  V30 2008 H 194.637 -4.23995 -0.0198274 0
M  V30 2009 C 193.096 -3.19298 -1.07472 0
M  V30 2010 O 193.626 -3.3891 -2.15645 0
M  V30 2011 N 191.832 -2.73113 -0.992847 0
M  V30 2012 H 191.379 -2.57354 -0.112474 0
M  V30 2013 H 191.337 -2.54842 -1.84127 0
M  V30 2014 N 195.109 -0.891671 -1.2995 0
M  V30 2015 C 196.072 -0.36828 -2.26222 0
M  V30 2016 C 197.072 0.493014 -1.53056 0
M  V30 2017 O 198.262 0.299213 -1.71611 0
M  V30 2018 C 195.394 0.47442 -3.37583 0
M  V30 2019 H 196.587 -1.21844 -2.74033 0
M  V30 2020 H 194.14 -0.669107 -1.41254 0
M  V30 2021 H 194.875 1.34489 -2.95099 0
M  V30 2022 H 194.66 -0.142615 -3.91841 0
M  V30 2023 H 196.15 0.83218 -4.09224 0
M  V30 2024 N 196.587 1.43421 -0.653314 0
M  V30 2025 C 197.836 2.01032 -0.164076 0
M  V30 2026 C 198.149 1.52147 1.22926 0
M  V30 2027 O 199.355 2.02031 1.81371 0
M  V30 2028 C 197.811 3.59082 -0.24252 0
M  V30 2029 C 197.419 4.1696 -1.63855 0
M  V30 2030 C 199.163 4.24079 0.18911 0
M  V30 2031 C 197.07 5.67304 -1.67092 0
M  V30 2032 H 196 0.751798 -0.0575769 0
M  V30 2033 H 198.651 1.6439 -0.815362 0
M  V30 2034 H 197.033 3.93125 0.476276 0
M  V30 2035 H 198.207 3.94416 -2.38271 0
M  V30 2036 H 196.522 3.64335 -2.01616 0
M  V30 2037 H 199.119 5.34381 0.184775 0
M  V30 2038 H 199.462 3.98005 1.22056 0
M  V30 2039 H 199.995 3.94918 -0.477938 0
M  V30 2040 H 196.734 5.98145 -2.68146 0
M  V30 2041 H 196.254 5.91904 -0.970014 0
M  V30 2042 H 197.933 6.31344 -1.4147 0
M  V30 2043 N 198.065 0.39524 1.52563 0
M  V30 2044 C 199.028 -0.425001 2.25225 0
M  V30 2045 C 200.028 -0.985266 1.27079 0
M  V30 2046 O 201.218 -0.866332 1.5113 0
M  V30 2047 C 198.35 -1.59686 3.01186 0
M  V30 2048 H 199.543 0.211233 2.99155 0
M  V30 2049 H 197.096 0.147472 1.55603 0
M  V30 2050 H 197.831 -2.27035 2.31572 0
M  V30 2051 H 197.616 -1.20176 3.73229 0
M  V30 2052 H 199.106 -2.17743 3.5634 0
M  V30 2053 N 199.544 -1.57102 0.125237 0
M  V30 2054 C 200.491 -2.15641 -0.822655 0
M  V30 2055 C 201.461 -1.08313 -1.25927 0
M  V30 2056 O 202.646 -1.36251 -1.33567 0
M  V30 2057 C 199.786 -2.76504 -2.06494 0
M  V30 2058 C 198.899 -3.98158 -1.67612 0
M  V30 2059 C 198.034 -4.47088 -2.86854 0
M  V30 2060 C 197.073 -5.6126 -2.44242 0
M  V30 2061 N 196.21 -6.04905 -3.56419 0
M  V30 2062 H 201.05 -2.96313 -0.316625 0
M  V30 2063 H 198.587 -1.46388 -0.144588 0
M  V30 2064 H 200.545 -3.09925 -2.79289 0
M  V30 2065 H 199.175 -1.98512 -2.54545 0
M  V30 2066 H 198.227 -3.70858 -0.846661 0
M  V30 2067 H 199.539 -4.80934 -1.32301 0
M  V30 2068 H 198.693 -4.82451 -3.67867 0
M  V30 2069 H 197.432 -3.63275 -3.25396 0
M  V30 2070 H 196.437 -5.25495 -1.61663 0
M  V30 2071 H 197.662 -6.46843 -2.0681 0
M  V30 2072 H 195.608 -5.24032 -3.94623 0
M  V30 2073 H 195.525 -6.82552 -3.25051 0
M  V30 2074 H 196.793 -6.44907 -4.37853 0
M  V30 2075 N 201.022 0.148545 -1.56898 0
M  V30 2076 C 202.268 0.862694 -1.83536 0
M  V30 2077 C 202.601 1.80889 -0.706604 0
M  V30 2078 O 201.876 1.92328 0.289885 0
M  V30 2079 C 202.159 1.63853 -3.20662 0
M  V30 2080 C 202.012 0.713925 -4.44098 0
M  V30 2081 C 203.331 2.60133 -3.54991 0
M  V30 2082 H 200.45 0.312179 -0.667618 0
M  V30 2083 H 203.092 0.127953 -1.89569 0
M  V30 2084 H 201.242 2.26489 -3.1565 0
M  V30 2085 H 202.914 0.098686 -4.61194 0
M  V30 2086 H 201.157 0.0234019 -4.33794 0
M  V30 2087 H 201.828 1.29278 -5.36648 0
M  V30 2088 H 204.304 2.07616 -3.60603 0
M  V30 2089 H 203.18 3.11468 -4.51972 0
M  V30 2090 H 203.441 3.41417 -2.80868 0
M  V30 2091 N 202.5 1.5196 0.417844 0
M  V30 2092 C 203.447 1.74678 1.50852 0
M  V30 2093 C 204.417 0.588947 1.55308 0
M  V30 2094 O 205.602 0.825544 1.72016 0
M  V30 2095 C 202.742 1.89544 2.88387 0
M  V30 2096 C 201.855 3.17166 2.93309 0
M  V30 2097 C 200.99 3.22513 4.22088 0
M  V30 2098 C 200.029 4.44372 4.20951 0
M  V30 2099 N 199.166 4.47161 5.41287 0
M  V30 2100 H 204.006 2.67768 1.30783 0
M  V30 2101 H 201.543 1.32689 0.63498 0
M  V30 2102 H 203.501 1.96146 3.68216 0
M  V30 2103 H 202.131 0.998424 3.06971 0
M  V30 2104 H 201.183 3.19778 2.06024 0
M  V30 2105 H 202.495 4.07021 2.88332 0
M  V30 2106 H 201.649 3.28139 5.10303 0
M  V30 2107 H 200.388 2.30581 4.29748 0
M  V30 2108 H 199.393 4.38902 3.31127 0
M  V30 2109 H 200.618 5.3759 4.14938 0
M  V30 2110 H 198.564 3.58108 5.49632 0
M  V30 2111 H 198.481 5.3085 5.3827 0
M  V30 2112 H 199.749 4.57005 6.3148 0
M  V30 2113 N 203.978 -0.674533 1.42435 0
M  V30 2114 C 205.389 -1.25514 1.38214 0
M  V30 2115 C 205.74 -1.96055 0.0755464 0
M  V30 2116 O 204.865 -2.00028 -0.8257 0
M  V30 2117 C 205.46 -2.28269 2.50357 0
M  V30 2118 C 204.019 -2.81856 2.49467 0
M  V30 2119 C 203.166 -1.56182 2.29134 0
M  V30 2120 H 206.117 -0.467902 1.51646 0
M  V30 2121 H 206.138 -3.10009 2.20624 0
M  V30 2122 H 205.65 -1.769 3.45439 0
M  V30 2123 H 203.751 -3.37346 1.58204 0
M  V30 2124 H 203.864 -3.30854 3.46515 0
M  V30 2125 H 202.228 -1.82761 1.774 0
M  V30 2126 H 203.011 -1.06778 3.26272 0
M  V30 2127 N 205.456 -1.28612 -0.910864 0
M  V30 2128 C 206.704 -1.15705 -1.65701 0
M  V30 2129 C 207.025 0.29416 -1.92769 0
M  V30 2130 O 206.295 1.20331 -1.54588 0
M  V30 2131 H 204.875 -0.425216 -0.614167 0
M  V30 2132 H 207.537 -1.61381 -1.0928 0
M  V30 2133 H 206.633 -1.6988 -2.61815 0
M  V30 2134 N 206.934 1.1197 -1.10907 0
M  V30 2135 C 208.162 1.87402 -0.876824 0
M  V30 2136 C 208.577 1.79894 0.573025 0
M  V30 2137 O 207.934 1.17629 1.39534 0
M  V30 2138 C 207.985 3.36428 -1.32282 0
M  V30 2139 O 207.706 3.43765 -2.71582 0
M  V30 2140 C 209.207 4.28783 -1.12518 0
M  V30 2141 H 206.427 0.592793 -0.314384 0
M  V30 2142 H 208.971 1.41649 -1.47499 0
M  V30 2143 H 207.126 3.79706 -0.768229 0
M  V30 2144 H 207.54 4.3652 -2.90776 0
M  V30 2145 H 209.014 5.31613 -1.48633 0
M  V30 2146 H 209.491 4.39153 -0.0642394 0
M  V30 2147 H 210.097 3.91291 -1.66648 0
M  V30 2148 N 208.412 0.89855 1.29475 0
M  V30 2149 C 209.359 0.373819 2.27753 0
M  V30 2150 C 210.329 -0.543444 1.56958 0
M  V30 2151 O 211.514 -0.468934 1.84948 0
M  V30 2152 C 208.654 -0.393648 3.42848 0
M  V30 2153 C 207.767 0.554379 4.28428 0
M  V30 2154 C 206.902 -0.230026 5.30702 0
M  V30 2155 C 205.941 0.712599 6.07938 0
M  V30 2156 N 205.078 -0.0373283 7.0209 0
M  V30 2157 H 209.918 1.21699 2.72017 0
M  V30 2158 H 207.455 0.611456 1.33789 0
M  V30 2159 H 209.413 -0.85466 4.08352 0
M  V30 2160 H 208.043 -1.20128 2.99615 0
M  V30 2161 H 207.095 1.13391 3.63107 0
M  V30 2162 H 208.407 1.27597 4.82204 0
M  V30 2163 H 207.561 -0.752288 6.02018 0
M  V30 2164 H 206.3 -0.984758 4.77654 0
M  V30 2165 H 205.305 1.24637 5.35486 0
M  V30 2166 H 206.53 1.46664 6.63074 0
M  V30 2167 H 204.476 -0.774348 6.51414 0
M  V30 2168 H 204.393 0.624374 7.53417 0
M  V30 2169 H 205.661 -0.539891 7.77628 0
M  V30 2170 N 209.89 -1.43072 0.660911 0
M  V30 2171 C 210.82 -2.33497 -0.0122829 0
M  V30 2172 C 211.801 -1.49903 -0.803925 0
M  V30 2173 O 212.986 -1.78546 -0.763864 0
M  V30 2174 C 210.116 -3.33363 -0.973994 0
M  V30 2175 C 209.07 -4.27003 -0.291928 0
M  V30 2176 C 208.396 -5.16967 -1.36562 0
M  V30 2177 C 209.696 -5.15816 0.820462 0
M  V30 2178 H 211.39 -2.90038 0.742873 0
M  V30 2179 H 208.936 -1.39461 0.358688 0
M  V30 2180 H 210.889 -3.95524 -1.45392 0
M  V30 2181 H 209.613 -2.75095 -1.7604 0
M  V30 2182 H 208.272 -3.66217 0.167623 0
M  V30 2183 H 207.92 -4.55034 -2.14366 0
M  V30 2184 H 207.62 -5.80441 -0.914454 0
M  V30 2185 H 209.144 -5.82003 -1.84675 0
M  V30 2186 H 210.558 -5.71742 0.422366 0
M  V30 2187 H 208.955 -5.8805 1.19656 0
M  V30 2188 H 210.025 -4.55045 1.67518 0
M  V30 2189 N 211.368 -0.403325 -1.52352 0
M  V30 2190 C 212.593 0.176499 -2.06648 0
M  V30 2191 C 213.018 1.38577 -1.27193 0
M  V30 2192 O 212.376 1.7879 -0.300637 0
M  V30 2193 C 212.424 0.511061 -3.5696 0
M  V30 2194 O 211.528 1.60294 -3.79973 0
M  V30 2195 H 210.869 0.0167337 -0.663789 0
M  V30 2196 H 213.399 -0.574848 -1.96359 0
M  V30 2197 H 213.409 0.771362 -4.00642 0
M  V30 2198 H 212.084 -0.37296 -4.14224 0
M  V30 2199 H 210.661 1.33526 -3.48174 0
M  V30 2200 N 212.846 1.57033 -0.133567 0
M  V30 2201 C 213.794 2.17348 0.828412 0
M  V30 2202 C 214.788 1.12671 1.26498 0
M  V30 2203 O 215.994 1.30947 1.23502 0
M  V30 2204 H 212.369 0.695775 0.285309 0
M  V30 2205 H 214.34 2.96935 0.295372 0
M  V30 2206 C 213.089 2.79893 2.06289 0
M  V30 2207 H 212.412 3.60147 1.73592 0
M  V30 2208 H 213.852 3.25615 2.71572 0
M  V30 2209 C 212.311 1.77713 2.86216 0
M  V30 2210 O 212.841 1.23937 3.82103 0
M  V30 2211 N 211.047 1.47321 2.50489 0
M  V30 2212 H 210.594 1.91243 1.7258 0
M  V30 2213 H 210.552 0.79199 3.04261 0
M  V30 2214 N 214.325 -0.140222 1.56975 0
M  V30 2215 C 215.574 -0.850152 1.82908 0
M  V30 2216 C 215.887 -1.82028 0.715892 0
M  V30 2217 O 217.093 -2.57485 0.861016 0
M  V30 2218 C 215.549 -1.5625 3.24213 0
M  V30 2219 C 215.157 -0.63443 4.43485 0
M  V30 2220 C 216.901 -2.25881 3.59413 0
M  V30 2221 C 214.808 -1.34879 5.75814 0
M  V30 2222 H 213.738 -0.321221 0.682153 0
M  V30 2223 H 216.389 -0.102874 1.83211 0
M  V30 2224 H 214.771 -2.35565 3.18316 0
M  V30 2225 H 215.945 0.12398 4.60633 0
M  V30 2226 H 214.26 -0.0461836 4.16374 0
M  V30 2227 H 216.857 -2.79978 4.5554 0
M  V30 2228 H 217.2 -3.02693 2.85802 0
M  V30 2229 H 217.733 -1.53477 3.67001 0
M  V30 2230 H 214.472 -0.622385 6.52539 0
M  V30 2231 H 213.992 -2.07974 5.6259 0
M  V30 2232 H 215.671 -1.88784 6.18845 0
M  V30 2233 N 215.803 -1.52179 -0.40978 0
M  V30 2234 C 217.051 -1.65878 -1.15451 0
M  V30 2235 C 217.372 -0.390771 -1.91044 0
M  V30 2236 O 216.642 0.594323 -1.86667 0
M  V30 2237 H 215.222 -0.611405 -0.429177 0
M  V30 2238 H 217.884 -1.89219 -0.467134 0
M  V30 2239 H 216.98 -2.49954 -1.86894 0
M  V30 2240 N 217.281 0.66697 -1.42791 0
M  V30 2241 C 218.228 1.7803 -1.4688 0
M  V30 2242 C 219.198 1.6299 -0.319919 0
M  V30 2243 O 220.383 1.83432 -0.525118 0
M  V30 2244 C 217.523 3.1611 -1.38451 0
M  V30 2245 C 216.636 3.42381 -2.63437 0
M  V30 2246 C 215.771 4.70232 -2.47094 0
M  V30 2247 C 214.81 4.89564 -3.67415 0
M  V30 2248 N 213.947 6.08661 -3.49966 0
M  V30 2249 H 218.787 1.7387 -2.42019 0
M  V30 2250 H 216.324 0.84868 -1.20149 0
M  V30 2251 H 218.282 3.95914 -1.31561 0
M  V30 2252 H 216.912 3.19374 -0.469033 0
M  V30 2253 H 215.964 2.56774 -2.80662 0
M  V30 2254 H 217.276 3.52557 -3.52853 0
M  V30 2255 H 216.43 5.5814 -2.37834 0
M  V30 2256 H 215.169 4.62353 -1.5518 0
M  V30 2257 H 214.174 4.00096 -3.77099 0
M  V30 2258 H 215.399 4.99282 -4.6032 0
M  V30 2259 H 213.345 6.0194 -2.60776 0
M  V30 2260 H 213.262 6.19733 -4.32975 0
M  V30 2261 H 214.53 6.99226 -3.44532 0
M  V30 2262 N 218.759 1.29093 0.90403 0
M  V30 2263 C 219.722 1.1386 1.98919 0
M  V30 2264 C 220.722 0.0753457 1.60623 0
M  V30 2265 O 221.912 0.321931 1.71199 0
M  V30 2266 C 219.044 0.740198 3.32767 0
M  V30 2267 H 220.237 2.10246 2.13861 0
M  V30 2268 H 217.79 1.12218 1.08797 0
M  V30 2269 H 218.525 -0.223997 3.23525 0
M  V30 2270 H 218.31 1.50838 3.61926 0
M  V30 2271 H 219.8 0.656546 4.12407 0
M  V30 2272 N 220.237 -1.11381 1.11499 0
M  V30 2273 C 221.483 -1.83403 0.865512 0
M  V30 2274 C 221.816 -1.84459 -0.607329 0
M  V30 2275 O 221.091 -1.29811 -1.44842 0
M  V30 2276 C 221.374 -3.30552 1.42855 0
M  V30 2277 C 221.227 -3.37886 2.96906 0
M  V30 2278 C 222.546 -4.26643 1.08 0
M  V30 2279 H 219.665 -0.665879 0.31587 0
M  V30 2280 H 222.307 -1.30601 1.37998 0
M  V30 2281 H 220.457 -3.75648 0.990985 0
M  V30 2282 H 222.129 -3.01343 3.49271 0
M  V30 2283 H 220.372 -2.78088 3.32941 0
M  V30 2284 H 221.043 -4.41458 3.31389 0
M  V30 2285 H 223.519 -3.89729 1.45775 0
M  V30 2286 H 222.395 -5.27986 1.50072 0
M  V30 2287 H 222.656 -4.42099 -0.00915037 0
M  V30 2288 N 221.715 -0.905404 -1.28997 0
M  V30 2289 C 222.665 -0.358713 -2.25161 0
M  V30 2290 C 223.649 0.524449 -1.52113 0
M  V30 2291 O 224.841 0.365534 -1.73184 0
M  V30 2292 C 221.97 0.407609 -3.40872 0
M  V30 2293 C 221.056 -0.490797 -4.21251 0
M  V30 2294 N 221.447 -1.60061 -4.79806 0
M  V30 2295 C 219.745 -0.289636 -4.45059 0
M  V30 2296 C 220.446 -2.15757 -5.40207 0
M  V30 2297 N 219.422 -1.44988 -5.23908 0
M  V30 2298 H 223.224 -1.20642 -2.67998 0
M  V30 2299 H 220.738 -0.757103 -1.43672 0
M  V30 2300 H 222.735 0.816046 -4.08835 0
M  V30 2301 H 221.395 1.25251 -2.9957 0
M  V30 2302 H 222.406 -1.98329 -4.7842 0
M  V30 2303 H 219.083 0.51643 -4.14294 0
M  V30 2304 H 220.473 -3.09069 -5.96595 0
M  V30 2305 N 223.193 1.4272 -0.668489 0
M  V30 2306 C 224.141 2.32586 0.0254857 0
M  V30 2307 C 225.135 1.49471 0.797176 0
M  V30 2308 O 226.341 1.65583 0.705853 0
M  V30 2309 H 222.716 0.751514 0.0270339 0
M  V30 2310 H 224.687 2.88823 -0.749936 0
M  V30 2311 C 223.436 3.3397 0.967427 0
M  V30 2312 H 222.759 3.97961 0.383048 0
M  V30 2313 H 224.199 3.9945 1.42181 0
M  V30 2314 C 222.658 2.65744 2.0708 0
M  V30 2315 O 223.188 2.48454 3.15648 0
M  V30 2316 N 221.394 2.2487 1.8407 0
M  V30 2317 H 220.941 2.39132 0.95778 0
M  V30 2318 H 220.899 1.79552 2.58086 0
M  V30 2319 N 224.671 0.411399 1.52136 0
M  V30 2320 C 225.899 -0.163076 2.06256 0
M  V30 2321 C 226.314 -1.3867 1.28125 0
M  V30 2322 O 225.671 -1.79423 0.333721 0
M  V30 2323 C 225.722 -0.511252 3.57867 0
M  V30 2324 O 225.443 0.66378 4.33042 0
M  V30 2325 C 226.944 -1.13921 4.28412 0
M  V30 2326 H 224.164 -0.0193897 0.67072 0
M  V30 2327 H 226.708 0.583007 1.96013 0
M  V30 2328 H 224.863 -1.20723 3.6811 0
M  V30 2329 H 225.277 0.372601 5.23175 0
M  V30 2330 H 226.751 -1.33302 5.35663 0
M  V30 2331 H 227.228 -2.11296 3.85033 0
M  V30 2332 H 227.834 -0.483373 4.22544 0
M  V30 2333 N 226.149 -1.5696 0.141893 0
M  V30 2334 C 227.112 -2.15316 -0.785587 0
M  V30 2335 C 228.112 -1.09366 -1.1788 0
M  V30 2336 O 229.302 -1.35031 -1.10056 0
M  V30 2337 C 226.434 -2.71211 -2.06537 0
M  V30 2338 H 227.627 -2.98608 -0.278041 0
M  V30 2339 H 225.18 -1.5593 -0.107519 0
M  V30 2340 H 225.915 -1.91571 -2.6167 0
M  V30 2341 H 225.7 -3.4872 -1.79268 0
M  V30 2342 H 227.19 -3.16189 -2.72789 0
M  V30 2343 N 227.627 0.131896 -1.57047 0
M  V30 2344 C 229.043 0.485031 -1.52051 0
M  V30 2345 C 229.243 1.82563 -0.85281 0
M  V30 2346 O 228.299 2.48817 -0.429694 0
M  V30 2347 C 229.612 0.481409 -2.96821 0
M  V30 2348 C 231.16 0.565868 -3.07842 0
M  V30 2349 C 231.635 0.592762 -4.54148 0
M  V30 2350 N 233.126 0.654564 -4.58552 0
M  V30 2351 C 233.861 0.696608 -5.69153 0
M  V30 2352 N 233.357 0.697078 -6.89284 0
M  V30 2353 N 235.15 0.738639 -5.57226 0
M  V30 2354 H 227.301 -0.746664 -1.98843 0
M  V30 2355 H 229.564 -0.273999 -0.90754 0
M  V30 2356 H 229.27 -0.435731 -3.4899 0
M  V30 2357 H 229.144 1.3139 -3.53577 0
M  V30 2358 H 231.531 1.47343 -2.55684 0
M  V30 2359 H 231.612 -0.29406 -2.54104 0
M  V30 2360 H 231.256 -0.310701 -5.06949 0
M  V30 2361 H 231.186 1.46939 -5.05684 0
M  V30 2362 H 233.677 0.660887 -3.72076 0
M  V30 2363 H 233.99 0.731426 -7.69331 0
M  V30 2364 H 232.335 0.66471 -6.91814 0
M  V30 2365 H 235.526 0.735545 -4.62285 0
M  V30 2366 H 235.699 0.767938 -6.43434 0
M  V30 2367 N 229.106 1.52395 0.401703 0
M  V30 2368 C 230.038 1.72505 1.50912 0
M  V30 2369 C 231.051 0.605468 1.51122 0
M  V30 2370 O 232.24 0.880828 1.55254 0
M  V30 2371 C 229.34 1.75711 2.89791 0
M  V30 2372 C 228.513 3.04824 3.1369 0
M  V30 2373 C 227.572 2.99743 4.32482 0
M  V30 2374 O 226.598 3.73635 4.29402 0
M  V30 2375 N 227.8 2.18047 5.37992 0
M  V30 2376 H 230.565 2.68049 1.34052 0
M  V30 2377 H 228.126 1.50724 0.591084 0
M  V30 2378 H 230.118 1.69834 3.6734 0
M  V30 2379 H 228.688 0.876092 3.00072 0
M  V30 2380 H 227.908 3.2429 2.24119 0
M  V30 2381 H 229.196 3.90221 3.26504 0
M  V30 2382 H 228.594 1.57456 5.43345 0
M  V30 2383 H 227.151 2.18021 6.14256 0
M  V30 2384 N 230.584 -0.659388 1.43143 0
M  V30 2385 C 231.532 -1.79374 1.4808 0
M  V30 2386 C 232.526 -1.65639 0.354988 0
M  V30 2387 O 233.732 -1.7206 0.528704 0
M  V30 2388 H 230.107 -0.591705 0.4641 0
M  V30 2389 H 232.078 -1.72329 2.43609 0
M  V30 2390 C 230.827 -3.17606 1.41499 0
M  V30 2391 H 230.15 -3.28809 2.27431 0
M  V30 2392 H 231.59 -3.96951 1.49015 0
M  V30 2393 C 230.049 -3.36642 0.131765 0
M  V30 2394 O 230.579 -3.93461 -0.809386 0
M  V30 2395 N 228.785 -2.90567 0.0439396 0
M  V30 2396 H 228.332 -2.44513 0.810619 0
M  V30 2397 H 228.29 -3.03681 -0.813969 0
M  V30 2398 N 232.062 -1.29571 -0.897171 0
M  V30 2399 C 233.339 -1.08365 -1.62839 0
M  V30 2400 C 233.719 0.371331 -2.07808 0
M  V30 2401 O 233.067 1.3606 -1.83576 0
M  V30 2402 C 233.277 -2.0735 -2.80726 0
M  V30 2403 C 234.625 -2.38406 -3.51351 0
M  V30 2404 O 235.649 -2.05564 -2.90898 0
M  V30 2405 O 234.508 -2.9453 -4.60341 0
M  V30 2406 H 231.602 -0.415345 -0.715134 0
M  V30 2407 H 234.148 -1.40952 -0.945018 0
M  V30 2408 H 232.92 -3.05339 -2.44711 0
M  V30 2409 H 232.543 -1.75507 -3.56767 0
M  V30 2410 N 233.54 1.10788 -1.12088 0
M  V30 2411 C 234.47 2.19083 -0.807755 0
M  V30 2412 C 235.451 1.6858 0.226859 0
M  V30 2413 O 236.636 1.93997 0.0888475 0
M  V30 2414 C 233.766 3.46344 -0.257576 0
M  V30 2415 C 232.72 4.101 -1.22483 0
M  V30 2416 C 232.046 5.32016 -0.535052 0
M  V30 2417 C 233.346 4.54236 -2.57811 0
M  V30 2418 H 235.04 2.45534 -1.71328 0
M  V30 2419 H 232.586 1.1801 -0.825205 0
M  V30 2420 H 234.539 4.21392 -0.0262679 0
M  V30 2421 H 233.263 3.19373 0.683278 0
M  V30 2422 H 231.922 3.37054 -1.44189 0
M  V30 2423 H 231.57 5.01319 0.410827 0
M  V30 2424 H 231.27 5.75625 -1.18024 0
M  V30 2425 H 232.794 6.09799 -0.312695 0
M  V30 2426 H 234.208 5.20575 -2.40155 0
M  V30 2427 H 232.605 5.08682 -3.18375 0
M  V30 2428 H 233.675 3.6734 -3.16528 0
M  V30 2429 N 235.018 0.912232 1.28515 0
M  V30 2430 C 235.965 0.397954 2.27343 0
M  V30 2431 C 236.935 -0.526766 1.57526 0
M  V30 2432 O 238.12 -0.449292 1.85435 0
M  V30 2433 C 235.26 -0.357263 3.43246 0
M  V30 2434 C 234.373 0.599788 4.27816 0
M  V30 2435 C 233.508 -0.173725 5.30916 0
M  V30 2436 C 232.547 0.777039 6.07148 0
M  V30 2437 N 231.684 0.0371398 7.0209 0
M  V30 2438 H 236.524 1.24577 2.70711 0
M  V30 2439 H 234.061 0.625612 1.33133 0
M  V30 2440 H 236.019 -0.8113 4.09236 0
M  V30 2441 H 234.649 -1.16943 3.00872 0
M  V30 2442 H 233.701 1.17235 3.61884 0
M  V30 2443 H 235.013 1.32704 4.80823 0
M  V30 2444 H 234.167 -0.688394 6.02782 0
M  V30 2445 H 232.906 -0.934041 4.78672 0
M  V30 2446 H 231.911 1.3031 5.34134 0
M  V30 2447 H 233.136 1.53689 6.61481 0
M  V30 2448 H 231.082 -0.705213 6.52198 0
M  V30 2449 H 230.999 0.704249 7.52713 0
M  V30 2450 H 232.267 -0.457383 7.78157 0
M  V30 2451 N 236.496 -1.42363 0.676048 0
M  V30 2452 C 237.742 -2.0182 0.199125 0
M  V30 2453 C 238.075 -1.53339 -1.19168 0
M  V30 2454 O 237.35 -0.736124 -1.80032 0
M  V30 2455 C 237.633 -3.59331 0.235144 0
M  V30 2456 C 237.486 -4.17989 1.66149 0
M  V30 2457 C 238.805 -4.3813 -0.41595 0
M  V30 2458 H 235.924 -0.733293 0.0738311 0
M  V30 2459 H 238.566 -1.69368 0.86107 0
M  V30 2460 H 236.716 -3.87109 -0.328487 0
M  V30 2461 H 238.388 -4.0116 2.27747 0
M  V30 2462 H 236.631 -3.7377 2.20178 0
M  V30 2463 H 237.302 -5.27126 1.63837 0
M  V30 2464 H 239.778 -4.16051 0.0638529 0
M  V30 2465 H 238.654 -5.47717 -0.360115 0
M  V30 2466 H 238.915 -4.16101 -1.49373 0
M  V30 2467 N 237.974 -0.419461 -1.51915 0
M  V30 2468 C 239.223 0.154346 -2.01109 0
M  V30 2469 C 239.536 1.45338 -1.30905 0
M  V30 2470 O 240.742 2.10906 -1.7097 0
M  V30 2471 C 239.198 0.325615 -3.58424 0
M  V30 2472 C 238.806 -0.961934 -4.37551 0
M  V30 2473 C 240.55 0.854155 -4.15818 0
M  V30 2474 C 238.457 -0.757287 -5.86531 0
M  V30 2475 H 237.387 0.0614563 -0.751491 0
M  V30 2476 H 240.038 -0.54649 -1.75173 0
M  V30 2477 H 238.42 1.08903 -3.80731 0
M  V30 2478 H 239.594 -1.7323 -4.26999 0
M  V30 2479 H 237.909 -1.41766 -3.91524 0
M  V30 2480 H 240.506 1.02346 -5.24814 0
M  V30 2481 H 240.849 1.83172 -3.73837 0
M  V30 2482 H 241.382 0.149528 -3.97519 0
M  V30 2483 H 238.121 -1.70671 -6.32892 0
M  V30 2484 H 237.641 -0.0264061 -5.99794 0
M  V30 2485 H 239.32 -0.403482 -6.45741 0
M  V30 2486 N 239.452 1.56882 -0.150215 0
M  V30 2487 C 240.399 2.16922 0.788244 0
M  V30 2488 C 241.369 1.10303 1.24187 0
M  V30 2489 O 242.554 1.38359 1.31383 0
M  V30 2490 C 239.694 2.79754 2.02068 0
M  V30 2491 C 238.807 4.00775 1.61257 0
M  V30 2492 C 237.942 4.51595 2.79705 0
M  V30 2493 C 236.981 5.65074 2.35282 0
M  V30 2494 N 236.118 6.10499 3.4675 0
M  V30 2495 H 240.958 2.96779 0.269444 0
M  V30 2496 H 238.495 1.46599 0.12128 0
M  V30 2497 H 240.453 3.14329 2.74323 0
M  V30 2498 H 239.083 2.02536 2.51354 0
M  V30 2499 H 238.135 3.72158 0.787553 0
M  V30 2500 H 239.447 4.82978 1.24633 0
M  V30 2501 H 238.601 4.88242 3.60145 0
M  V30 2502 H 237.34 3.68406 3.19576 0
M  V30 2503 H 236.345 5.28 1.53283 0
M  V30 2504 H 237.57 6.50052 1.96493 0
M  V30 2505 H 235.516 5.30243 3.86236 0
M  V30 2506 H 235.433 6.87637 3.14152 0
M  V30 2507 H 236.701 6.51791 4.27537 0
M  V30 2508 N 240.93 -0.123565 1.57115 0
M  V30 2509 C 241.878 -1.17082 2.00984 0
M  V30 2510 C 242.872 -1.43136 0.906009 0
M  V30 2511 O 244.078 -1.43152 1.09121 0
M  V30 2512 H 240.453 -0.394653 0.64012 0
M  V30 2513 H 242.424 -0.774292 2.88179 0
M  V30 2514 C 241.173 -2.49057 2.42623 0
M  V30 2515 H 240.496 -2.29846 3.27125 0
M  V30 2516 H 241.936 -3.20906 2.7712 0
M  V30 2517 C 240.395 -3.11305 1.28805 0
M  V30 2518 O 240.925 -3.97171 0.60153 0
M  V30 2519 N 239.131 -2.71111 1.04628 0
M  V30 2520 H 238.678 -2.01382 1.60634 0
M  V30 2521 H 238.636 -3.1309 0.286685 0
M  V30 2522 N 242.408 -1.52605 -0.393616 0
M  V30 2523 C 243.338 -1.80022 -1.48709 0
M  V30 2524 C 244.319 -0.651995 -1.57108 0
M  V30 2525 O 245.504 -0.89913 -1.72132 0
M  V30 2526 C 242.634 -1.96492 -2.86371 0
M  V30 2527 C 241.588 -3.12161 -2.92813 0
M  V30 2528 C 240.914 -3.13877 -4.3288 0
M  V30 2529 C 242.214 -4.51322 -2.6288 0
M  V30 2530 H 243.908 -2.71589 -1.26015 0
M  V30 2531 H 241.454 -1.30684 -0.604778 0
M  V30 2532 H 243.407 -2.14255 -3.62867 0
M  V30 2533 H 242.131 -1.01611 -3.10391 0
M  V30 2534 H 240.79 -2.94173 -2.18764 0
M  V30 2535 H 240.438 -2.16687 -4.53933 0
M  V30 2536 H 240.138 -3.91576 -4.38112 0
M  V30 2537 H 241.662 -3.33789 -5.1129 0
M  V30 2538 H 243.076 -4.69435 -3.29096 0
M  V30 2539 H 241.473 -5.31053 -2.79468 0
M  V30 2540 H 242.543 -4.58353 -1.58242 0
M  V30 2541 N 243.887 0.651787 -1.4349 0
M  V30 2542 C 245.115 1.43937 -1.48626 0
M  V30 2543 C 245.53 1.8851 -0.104587 0
M  V30 2544 O 244.887 1.5958 0.885464 0
M  V30 2545 C 244.938 2.6734 -2.43334 0
M  V30 2546 O 244.659 2.24631 -3.76128 0
M  V30 2547 C 246.16 3.60683 -2.57726 0
M  V30 2548 H 243.38 0.44213 -0.504739 0
M  V30 2549 H 245.924 0.798944 -1.88248 0
M  V30 2550 H 244.079 3.2752 -2.06904 0
M  V30 2551 H 244.493 3.04485 -4.2707 0
M  V30 2552 H 245.967 4.43933 -3.28067 0
M  V30 2553 H 246.444 4.08126 -1.62265 0
M  V30 2554 H 247.05 3.06384 -2.94973 0
M  V30 2555 N 245.365 1.30045 0.890287 0
M  V30 2556 C 246.613 1.18327 1.63839 0
M  V30 2557 C 246.934 -0.263455 1.93212 0
M  V30 2558 O 246.204 -1.17856 1.56482 0
M  V30 2559 H 244.784 0.434933 0.607324 0
M  V30 2560 H 247.446 1.631 1.06698 0
M  V30 2561 H 246.542 1.74024 2.59079 0
M  V30 2562 N 246.843 -1.10192 1.12674 0
M  V30 2563 C 247.793 -2.14754 0.765801 0
M  V30 2564 C 248.777 -1.59154 -0.236409 0
M  V30 2565 O 249.969 -1.76951 -0.0415261 0
M  V30 2566 C 247.098 -3.42563 0.224827 0
M  V30 2567 C 246.184 -4.05091 1.25548 0
M  V30 2568 N 246.575 -4.42287 2.4539 0
M  V30 2569 C 244.873 -4.32186 1.10142 0
M  V30 2570 C 245.574 -4.91441 3.11224 0
M  V30 2571 N 244.55 -4.88405 2.38666 0
M  V30 2572 H 248.352 -2.41309 1.67772 0
M  V30 2573 H 245.866 -1.27339 1.00789 0
M  V30 2574 H 247.863 -4.16868 -0.0519578 0
M  V30 2575 H 246.523 -3.17467 -0.681515 0
M  V30 2576 H 247.534 -4.33902 2.82754 0
M  V30 2577 H 244.211 -4.16735 0.252587 0
M  V30 2578 H 245.601 -5.29749 4.13298 0
M  V30 2579 N 248.321 -0.919034 -1.28029 0
M  V30 2580 C 249.569 -0.553838 -1.94363 0
M  V30 2581 C 249.89 0.906357 -1.72656 0
M  V30 2582 O 249.16 1.64143 -1.0693 0
M  V30 2583 H 247.74 -0.201834 -0.719216 0
M  V30 2584 H 250.402 -1.16954 -1.55909 0
M  V30 2585 H 249.498 -0.752758 -3.02886 0
M  V30 2586 N 249.799 1.42003 -0.683588 0
M  V30 2587 C 251.045 2.01712 -0.209825 0
M  V30 2588 C 251.378 1.53968 1.18353 0
M  V30 2589 O 250.653 0.745661 1.79639 0
M  V30 2590 C 250.936 3.59202 -0.254197 0
M  V30 2591 C 250.789 4.17102 -1.68363 0
M  V30 2592 C 252.108 4.38344 0.392709 0
M  V30 2593 H 249.227 0.732891 -0.0777189 0
M  V30 2594 H 251.869 1.68909 -0.87004 0
M  V30 2595 H 250.019 3.87278 0.307954 0
M  V30 2596 H 251.691 3.99946 -2.29871 0
M  V30 2597 H 249.934 3.72597 -2.22157 0
M  V30 2598 H 250.605 5.26249 -1.6663 0
M  V30 2599 H 253.081 4.16011 -0.0859162 0
M  V30 2600 H 251.957 5.47901 0.331063 0
M  V30 2601 H 252.218 4.16887 1.47164 0
M  V30 2602 N 251.277 0.427512 1.51691 0
M  V30 2603 C 252.525 -0.141948 2.01601 0
M  V30 2604 C 252.846 -1.44067 1.31414 0
M  V30 2605 O 252.116 -1.90763 0.445658 0
M  V30 2606 H 250.696 -0.0554468 0.744939 0
M  V30 2607 H 253.358 0.567968 1.86441 0
M  V30 2608 H 252.454 -0.324913 3.10404 0
M  V30 2609 N 252.755 -1.56801 0.158532 0
M  V30 2610 C 253.685 -2.20347 -0.772609 0
M  V30 2611 C 254.666 -1.15518 -1.24859 0
M  V30 2612 O 255.851 -1.43902 -1.30406 0
M  V30 2613 C 252.981 -2.83417 -2.00729 0
M  V30 2614 C 251.935 -3.94174 -1.66765 0
M  V30 2615 C 251.261 -4.44233 -2.97592 0
M  V30 2616 C 252.561 -5.14392 -0.905447 0
M  V30 2617 H 254.255 -2.98413 -0.242959 0
M  V30 2618 H 251.801 -1.43537 -0.115419 0
M  V30 2619 H 253.754 -3.26543 -2.6636 0
M  V30 2620 H 252.478 -2.02701 -2.56086 0
M  V30 2621 H 251.137 -3.51684 -1.03508 0
M  V30 2622 H 250.785 -3.60325 -3.50963 0
M  V30 2623 H 250.485 -5.18945 -2.75626 0
M  V30 2624 H 252.009 -4.90037 -3.64274 0
M  V30 2625 H 253.423 -5.5429 -1.46408 0
M  V30 2626 H 251.82 -5.9494 -0.7853 0
M  V30 2627 H 252.89 -4.84795 0.100668 0
M  V30 2628 N 254.233 0.115231 -1.57178 0
M  V30 2629 C 255.458 0.840354 -1.89612 0
M  V30 2630 C 255.883 1.72464 -0.750845 0
M  V30 2631 O 255.241 1.78826 0.298478 0
M  V30 2632 C 255.289 1.64654 -3.20814 0
M  V30 2633 O 254.393 2.7538 -3.06985 0
M  V30 2634 H 253.734 0.232158 -0.622092 0
M  V30 2635 H 256.264 0.0964977 -2.04372 0
M  V30 2636 H 256.274 2.03499 -3.53627 0
M  V30 2637 H 254.949 0.997416 -4.03763 0
M  V30 2638 H 253.526 2.3971 -2.85646 0
M  V30 2639 N 255.711 1.52812 0.385517 0
M  V30 2640 C 256.641 1.80808 1.47752 0
M  V30 2641 C 257.622 0.660318 1.5676 0
M  V30 2642 O 258.807 0.908246 1.71652 0
M  V30 2643 C 255.937 1.98008 2.85324 0
M  V30 2644 C 254.891 3.13709 2.91154 0
M  V30 2645 C 254.217 3.16169 4.31209 0
M  V30 2646 C 255.517 4.52709 2.60483 0
M  V30 2647 H 257.211 2.72253 1.24573 0
M  V30 2648 H 254.757 1.31003 0.597839 0
M  V30 2649 H 256.71 2.16176 3.61726 0
M  V30 2650 H 255.434 1.03255 3.09848 0
M  V30 2651 H 254.093 2.95329 2.17201 0
M  V30 2652 H 253.741 2.19092 4.52778 0
M  V30 2653 H 253.441 3.93894 4.36029 0
M  V30 2654 H 254.965 3.36496 5.09512 0
M  V30 2655 H 256.379 4.71173 3.26602 0
M  V30 2656 H 254.776 5.32528 2.76648 0
M  V30 2657 H 255.846 4.59186 1.55809 0
M  V30 2658 N 257.189 -0.644168 1.43834 0
M  V30 2659 C 258.139 -1.7501 1.46135 0
M  V30 2660 C 259.123 -1.57507 0.328685 0
M  V30 2661 O 260.315 -1.67465 0.5731 0
M  V30 2662 C 257.444 -3.13641 1.39585 0
M  V30 2663 C 256.53 -3.3666 2.57916 0
M  V30 2664 N 256.921 -3.30107 3.83227 0
M  V30 2665 C 255.219 -3.67411 2.52834 0
M  V30 2666 C 255.92 -3.53456 4.61999 0
M  V30 2667 N 254.896 -3.75705 3.9287 0
M  V30 2668 H 258.698 -1.68382 2.40883 0
M  V30 2669 H 256.212 -0.846169 1.38614 0
M  V30 2670 H 258.209 -3.92933 1.39317 0
M  V30 2671 H 256.869 -3.21444 0.45865 0
M  V30 2672 H 257.88 -3.09316 4.15384 0
M  V30 2673 H 254.557 -3.82275 1.67845 0
M  V30 2674 H 255.947 -3.54093 5.71024 0
M  V30 2675 N 258.668 -1.30515 -0.883378 0
M  V30 2676 C 259.578 -1.18959 -2.02203 0
M  V30 2677 C 260.594 -0.109172 -1.73657 0
M  V30 2678 O 261.77 -0.324413 -1.9877 0
M  V30 2679 C 258.835 -0.883871 -3.35244 0
M  V30 2680 C 257.896 -2.04982 -3.77201 0
M  V30 2681 C 257.129 -1.75859 -5.03894 0
M  V30 2682 O 257.352 -0.687276 -5.66244 0
M  V30 2683 O 256.286 -2.61146 -5.42297 0
M  V30 2684 H 260.112 -2.14616 -2.1488 0
M  V30 2685 H 257.697 -1.10124 -1.0096 0
M  V30 2686 H 259.579 -0.728644 -4.15053 0
M  V30 2687 H 258.254 0.0427798 -3.23672 0
M  V30 2688 H 257.161 -2.26038 -2.9809 0
M  V30 2689 H 258.494 -2.95825 -3.93381 0
M  V30 2690 N 260.146 1.09593 -1.13257 0
M  V30 2691 C 261.109 2.14359 -0.811358 0
M  V30 2692 C 262.109 1.59808 0.178377 0
M  V30 2693 O 263.299 1.74132 -0.0484911 0
M  V30 2694 C 260.431 3.40269 -0.207276 0
M  V30 2695 H 261.624 2.44284 -1.73969 0
M  V30 2696 H 259.177 1.25102 -0.936973 0
M  V30 2697 H 259.912 3.15969 0.73036 0
M  V30 2698 H 259.697 3.81154 -0.919992 0
M  V30 2699 H 261.187 4.176 0.000667944 0
M  V30 2700 N 261.624 0.925811 1.2754 0
M  V30 2701 C 263.035 0.610102 1.7645 0
M  V30 2702 C 263.386 -0.874723 1.75622 0
M  V30 2703 O 262.511 -1.68444 1.35851 0
M  V30 2704 C 263.106 1.10073 3.20421 0
M  V30 2705 C 261.665 0.835723 3.67005 0
M  V30 2706 C 260.812 1.26054 2.46993 0
M  V30 2707 H 263.763 1.10579 1.13833 0
M  V30 2708 H 263.784 0.447557 3.77859 0
M  V30 2709 H 263.296 2.18143 3.20991 0
M  V30 2710 H 261.397 -0.231249 3.71882 0
M  V30 2711 H 261.51 1.45193 4.56569 0
M  V30 2712 H 259.874 0.679111 2.45479 0
M  V30 2713 H 260.657 2.34984 2.50275 0
M  V30 2714 N 263.102 -1.41638 0.69111 0
M  V30 2715 C 264.065 -2.29178 0.0319786 0
M  V30 2716 C 265.065 -1.44153 -0.712496 0
M  V30 2717 O 266.255 -1.65354 -0.548053 0
M  V30 2718 C 263.387 -3.26952 -0.965161 0
M  V30 2719 H 264.58 -2.88959 0.802681 0
M  V30 2720 H 262.133 -1.4955 0.454356 0
M  V30 2721 H 262.868 -2.72142 -1.76378 0
M  V30 2722 H 262.653 -3.89685 -0.434522 0
M  V30 2723 H 264.143 -3.92561 -1.42428 0
M  V30 2724 N 264.58 -0.43555 -1.51462 0
M  V30 2725 C 265.53 0.394701 -2.24558 0
M  V30 2726 C 266.514 0.99157 -1.26715 0
M  V30 2727 O 267.706 0.910007 -1.51815 0
M  V30 2728 C 264.835 1.4963 -3.08975 0
M  V30 2729 C 263.921 0.908912 -4.14246 0
M  V30 2730 N 264.312 0.0505335 -5.05775 0
M  V30 2731 C 262.61 1.17668 -4.30198 0
M  V30 2732 C 263.311 -0.279161 -5.8103 0
M  V30 2733 N 262.287 0.336767 -5.42556 0
M  V30 2734 H 266.089 -0.267106 -2.92684 0
M  V30 2735 H 263.603 -0.247518 -1.60503 0
M  V30 2736 H 265.6 2.10394 -3.59917 0
M  V30 2737 H 264.26 2.16046 -2.42393 0
M  V30 2738 H 265.271 -0.31577 -5.16936 0
M  V30 2739 H 261.948 1.83847 -3.74842 0
M  V30 2740 H 263.338 -0.977553 -6.64751 0
M  V30 2741 N 266.058 1.56714 -0.166846 0
M  V30 2742 C 267.304 1.97039 0.479962 0
M  V30 2743 C 267.637 1.05264 1.63197 0
M  V30 2744 O 266.912 0.0988833 1.94248 0
M  V30 2745 C 267.195 3.46867 0.967212 0
M  V30 2746 C 267.048 4.49421 -0.18466 0
M  V30 2747 C 268.367 3.9968 1.84238 0
M  V30 2748 H 265.486 0.71641 0.172992 0
M  V30 2749 H 268.128 1.8832 -0.252079 0
M  V30 2750 H 266.278 3.54428 1.59101 0
M  V30 2751 H 267.95 4.53924 -0.821621 0
M  V30 2752 H 266.193 4.25573 -0.840837 0
M  V30 2753 H 266.864 5.51644 0.198317 0
M  V30 2754 H 269.34 3.94723 1.31655 0
M  V30 2755 H 268.216 5.04941 2.15234 0
M  V30 2756 H 268.477 3.43226 2.78654 0
M  V30 2757 N 267.536 -0.106894 1.57237 0
M  V30 2758 C 268.466 -1.13148 2.04254 0
M  V30 2759 C 269.447 -1.42476 0.929224 0
M  V30 2760 O 270.632 -1.52709 1.19973 0
M  V30 2761 C 267.762 -2.4545 2.45706 0
M  V30 2762 C 266.716 -2.30558 3.60592 0
M  V30 2763 C 266.042 -3.67931 3.87983 0
M  V30 2764 C 267.342 -1.75597 4.91897 0
M  V30 2765 H 269.036 -0.740374 2.90101 0
M  V30 2766 H 266.582 -0.354696 1.39563 0
M  V30 2767 H 268.535 -3.17389 2.77205 0
M  V30 2768 H 267.259 -2.86475 1.56843 0
M  V30 2769 H 265.918 -1.61067 3.29322 0
M  V30 2770 H 265.566 -4.06462 2.96306 0
M  V30 2771 H 265.266 -3.58817 4.65322 0
M  V30 2772 H 266.79 -4.41356 4.21945 0
M  V30 2773 H 268.204 -2.37364 5.21854 0
M  V30 2774 H 266.601 -1.77272 5.73319 0
M  V30 2775 H 267.671 -0.714451 4.79608 0
M  V30 2776 N 269.014 -1.53014 -0.377408 0
M  V30 2777 C 269.962 -1.7927 -1.48206 0
M  V30 2778 C 270.956 -0.661195 -1.55963 0
M  V30 2779 O 272.162 -0.843908 -1.58991 0
M  V30 2780 H 268.537 -0.567425 -0.493491 0
M  V30 2781 H 270.508 -2.71753 -1.2326 0
M  V30 2782 C 269.257 -1.98894 -2.85196 0
M  V30 2783 H 268.58 -2.85395 -2.79981 0
M  V30 2784 H 270.02 -2.21249 -3.61698 0
M  V30 2785 C 268.479 -0.764691 -3.28107 0
M  V30 2786 O 269.009 0.0523226 -4.01666 0
M  V30 2787 N 267.215 -0.591493 -2.84517 0
M  V30 2788 H 266.762 -1.25749 -2.24822 0
M  V30 2789 H 266.72 0.226253 -3.13585 0
M  V30 2790 N 270.492 0.636531 -1.44174 0
M  V30 2791 C 271.722 1.42146 -1.49927 0
M  V30 2792 C 272.13 1.88812 -0.121063 0
M  V30 2793 O 271.473 1.61126 0.882267 0
M  V30 2794 C 271.535 2.67883 -2.39748 0
M  V30 2795 C 271.199 2.43048 -3.8701 0
M  V30 2796 C 272.196 2.05216 -4.77684 0
M  V30 2797 C 269.881 2.56856 -4.3166 0
M  V30 2798 C 271.875 1.81512 -6.11009 0
M  V30 2799 C 269.562 2.32766 -5.65034 0
M  V30 2800 C 270.56 1.95152 -6.54526 0
M  V30 2801 O 270.248 1.71326 -7.85431 0
M  V30 2802 H 269.98 0.442567 -0.51099 0
M  V30 2803 H 272.534 0.786158 -1.8976 0
M  V30 2804 H 270.764 3.34032 -1.94832 0
M  V30 2805 H 272.453 3.29874 -2.36513 0
M  V30 2806 H 273.219 1.94111 -4.44462 0
M  V30 2807 H 269.098 2.85104 -3.62266 0
M  V30 2808 H 272.642 1.52077 -6.80822 0
M  V30 2809 H 268.539 2.43479 -5.97819 0
M  V30 2810 H 269.307 1.85616 -7.97176 0
M  V30 2811 N 271.97 1.30982 0.876444 0
M  V30 2812 C 273.217 1.20296 1.62896 0
M  V30 2813 C 273.545 -0.240395 1.93009 0
M  V30 2814 O 272.8 -1.18733 1.55567 0
M  V30 2815 C 273.099 1.98572 2.9716 0
M  V30 2816 C 272.765 3.48125 2.86566 0
M  V30 2817 C 271.427 3.88905 2.83383 0
M  V30 2818 C 273.779 4.43322 2.74071 0
M  V30 2819 C 271.107 5.2316 2.65556 0
M  V30 2820 C 273.459 5.77695 2.57781 0
M  V30 2821 C 272.123 6.17704 2.52979 0
M  V30 2822 H 271.393 0.440193 0.59608 0
M  V30 2823 H 274.04 1.62177 1.01837 0
M  V30 2824 H 272.345 1.49352 3.62217 0
M  V30 2825 H 274.042 1.8769 3.54364 0
M  V30 2826 H 270.632 3.15723 2.89856 0
M  V30 2827 H 274.816 4.12752 2.75589 0
M  V30 2828 H 270.072 5.53241 2.60259 0
M  V30 2829 H 274.246 6.51091 2.47089 0
M  V30 2830 H 271.873 7.21678 2.38924 0
M  V30 2831 N 273.449 -1.08991 1.13837 0
M  V30 2832 C 274.726 -1.77863 0.813876 0
M  V30 2833 C 275.106 -1.99375 -0.693746 0
M  V30 2834 O 274.454 -1.59875 -1.63255 0
M  V30 2835 C 274.664 -3.0986 1.60586 0
M  V30 2836 C 276.012 -3.84493 1.8014 0
M  V30 2837 O 277.036 -3.19624 1.57222 0
M  V30 2838 O 275.895 -5.00957 2.18413 0
M  V30 2839 H 272.989 -0.771589 0.297624 0
M  V30 2840 H 275.535 -1.15507 1.24323 0
M  V30 2841 H 274.307 -2.89715 2.63022 0
M  V30 2842 H 273.93 -3.79942 1.17173 0
M  V30 2843 N 274.927 -0.932562 -1.27047 0
M  V30 2844 C 276.338 -0.619451 -1.76124 0
M  V30 2845 C 276.689 0.865397 -1.76083 0
M  V30 2846 O 275.814 1.67722 -1.36742 0
M  V30 2847 C 276.409 -1.11771 -3.19832 0
M  V30 2848 C 274.968 -0.855174 -3.66557 0
M  V30 2849 C 274.115 -1.27362 -2.46321 0
M  V30 2850 H 277.066 -1.11181 -1.13245 0
M  V30 2851 H 277.087 -0.46759 -3.77616 0
M  V30 2852 H 276.599 -2.19842 -3.1983 0
M  V30 2853 H 274.7 0.211524 -3.71999 0
M  V30 2854 H 274.813 -1.47613 -4.55793 0
M  V30 2855 H 273.177 -0.692119 -2.45116 0
M  V30 2856 H 273.96 -2.36307 -2.49025 0
M  V30 2857 N 276.405 1.4127 -0.698611 0
M  V30 2858 C 277.352 2.30773 -0.0352094 0
M  V30 2859 C 278.322 1.47273 0.768111 0
M  V30 2860 O 279.507 1.76053 0.735524 0
M  V30 2861 C 276.647 3.33346 0.893 0
M  V30 2862 C 275.76 4.31924 0.0809695 0
M  V30 2863 C 274.895 5.21566 1.0071 0
M  V30 2864 C 273.934 6.11811 0.188155 0
M  V30 2865 N 273.071 6.93926 1.06825 0
M  V30 2866 H 277.911 2.86943 -0.804207 0
M  V30 2867 H 275.448 1.4132 -0.408294 0
M  V30 2868 H 277.406 3.91368 1.44523 0
M  V30 2869 H 276.036 2.78719 1.62836 0
M  V30 2870 H 275.088 3.75825 -0.588224 0
M  V30 2871 H 276.4 4.95716 -0.553801 0
M  V30 2872 H 275.554 5.84437 1.62845 0
M  V30 2873 H 274.293 4.58008 1.67572 0
M  V30 2874 H 273.298 5.47986 -0.446254 0
M  V30 2875 H 274.523 6.77425 -0.476716 0
M  V30 2876 H 272.469 6.32973 1.72283 0
M  V30 2877 H 272.386 7.54416 0.489123 0
M  V30 2878 H 273.654 7.61262 1.67632 0
M  V30 2879 N 277.883 0.443576 1.51229 0
M  V30 2880 C 279.16 -0.181038 1.9476 0
M  V30 2881 C 279.54 -1.59523 1.38259 0
M  V30 2882 O 278.888 -2.2122 0.572198 0
M  V30 2883 C 279.098 -0.152422 3.48667 0
M  V30 2884 C 280.446 -0.354923 4.23114 0
M  V30 2885 O 281.47 -0.230257 3.55455 0
M  V30 2886 O 280.329 -0.603674 5.43156 0
M  V30 2887 H 277.423 -0.1266 0.817252 0
M  V30 2888 H 279.969 0.502004 1.62105 0
M  V30 2889 H 278.741 0.836022 3.82265 0
M  V30 2890 H 278.364 -0.878107 3.87782 0
M  V30 2891 N 279.361 -1.56624 0.175154 0
M  V30 2892 C 280.308 -2.18149 -0.753634 0
M  V30 2893 C 281.278 -1.12265 -1.22417 0
M  V30 2894 O 282.463 -1.40432 -1.29165 0
M  V30 2895 C 279.603 -2.82933 -1.97592 0
M  V30 2896 C 278.716 -4.03289 -1.5486 0
M  V30 2897 C 277.851 -4.55988 -2.72485 0
M  V30 2898 C 276.89 -5.68746 -2.26262 0
M  V30 2899 N 276.027 -6.15938 -3.36994 0
M  V30 2900 H 280.867 -2.9717 -0.222195 0
M  V30 2901 H 278.404 -1.46774 -0.0979422 0
M  V30 2902 H 280.362 -3.18653 -2.69288 0
M  V30 2903 H 278.992 -2.06509 -2.481 0
M  V30 2904 H 278.044 -3.73364 -0.728246 0
M  V30 2905 H 279.356 -4.849 -1.16933 0
M  V30 2906 H 278.51 -4.9391 -3.52332 0
M  V30 2907 H 277.249 -3.73443 -3.13674 0
M  V30 2908 H 276.254 -5.30372 -1.44863 0
M  V30 2909 H 277.479 -6.53095 -1.86127 0
M  V30 2910 H 275.425 -5.36321 -3.77751 0
M  V30 2911 H 275.342 -6.92548 -3.03172 0
M  V30 2912 H 276.61 -6.58511 -4.17114 0
M  V30 2913 N 280.839 0.0985539 -1.57292 0
M  V30 2914 C 282.067 0.816318 -1.90115 0
M  V30 2915 C 282.482 1.72451 -0.768509 0
M  V30 2916 O 281.839 1.80643 0.259687 0
M  V30 2917 C 281.89 1.63259 -3.22535 0
M  V30 2918 O 281.611 0.760934 -4.31441 0
M  V30 2919 C 283.112 2.45372 -3.69199 0
M  V30 2920 H 280.332 0.233595 -0.629027 0
M  V30 2921 H 282.876 0.0768229 -2.04356 0
M  V30 2922 H 281.031 2.32463 -3.09903 0
M  V30 2923 H 281.445 1.32595 -5.07463 0
M  V30 2924 H 282.919 2.98144 -4.64558 0
M  V30 2925 H 283.396 3.23677 -2.96867 0
M  V30 2926 H 284.002 1.81373 -3.84687 0
M  V30 2927 N 282.317 1.53212 0.369288 0
M  V30 2928 C 283.247 1.82365 1.45826 0
M  V30 2929 C 284.228 0.676907 1.56051 0
M  V30 2930 O 285.413 0.926401 1.70679 0
M  V30 2931 C 282.543 2.01023 2.83208 0
M  V30 2932 C 281.497 3.1678 2.8781 0
M  V30 2933 C 280.823 3.20724 4.27832 0
M  V30 2934 C 282.123 4.55447 2.55667 0
M  V30 2935 H 283.817 2.73559 1.21678 0
M  V30 2936 H 281.363 1.3163 0.583911 0
M  V30 2937 H 283.316 2.20001 3.59413 0
M  V30 2938 H 282.04 1.06536 3.08736 0
M  V30 2939 H 280.699 2.97616 2.14056 0
M  V30 2940 H 280.347 2.23882 4.50429 0
M  V30 2941 H 280.047 3.98496 4.31827 0
M  V30 2942 H 281.571 3.41881 5.05915 0
M  V30 2943 H 282.985 4.74611 3.21586 0
M  V30 2944 H 281.382 5.35432 2.70984 0
M  V30 2945 H 282.452 4.60812 1.5093 0
M  V30 2946 N 283.795 -0.628877 1.44509 0
M  V30 2947 C 284.725 -1.75187 1.54376 0
M  V30 2948 C 285.706 -1.65411 0.396618 0
M  V30 2949 O 286.891 -1.84137 0.617031 0
M  V30 2950 C 284.021 -3.13725 1.48976 0
M  V30 2951 C 282.975 -3.38291 2.62189 0
M  V30 2952 C 282.301 -4.76883 2.41841 0
M  V30 2953 C 283.601 -3.30632 4.04326 0
M  V30 2954 H 285.295 -1.67187 2.48373 0
M  V30 2955 H 282.841 -0.802909 1.19538 0
M  V30 2956 H 284.794 -3.92064 1.54478 0
M  V30 2957 H 283.518 -3.22515 0.514961 0
M  V30 2958 H 282.177 -2.62334 2.56079 0
M  V30 2959 H 281.825 -4.82378 1.42548 0
M  V30 2960 H 281.525 -4.94278 3.17747 0
M  V30 2961 H 283.049 -5.57449 2.49165 0
M  V30 2962 H 284.463 -3.98873 4.11793 0
M  V30 2963 H 282.86 -3.59561 4.80454 0
M  V30 2964 H 283.93 -2.28404 4.27738 0
M  V30 2965 N 285.273 -1.31445 -0.869486 0
M  V30 2966 C 286.501 -1.24122 -1.65534 0
M  V30 2967 C 286.916 0.193387 -1.87807 0
M  V30 2968 O 286.273 1.12557 -1.43656 0
M  V30 2969 C 286.324 -1.98229 -3.02304 0
M  V30 2970 O 286.045 -3.3609 -2.81026 0
M  V30 2971 C 287.546 -1.97751 -3.96749 0
M  V30 2972 H 284.766 -0.428868 -0.516055 0
M  V30 2973 H 287.31 -1.73328 -1.08525 0
M  V30 2974 H 285.465 -1.52782 -3.56001 0
M  V30 2975 H 285.879 -3.7383 -3.67902 0
M  V30 2976 H 287.353 -2.54114 -4.90031 0
M  V30 2977 H 287.83 -0.960137 -4.28577 0
M  V30 2978 H 288.436 -2.43079 -3.48988 0
M  V30 2979 N 286.751 1.08385 -1.14413 0
M  V30 2980 C 287.661 2.18856 -0.844951 0
M  V30 2981 C 288.677 1.73121 0.174668 0
M  V30 2982 O 289.853 2.014 0.00312857 0
M  V30 2983 C 286.918 3.45155 -0.32696 0
M  V30 2984 C 285.979 4.05513 -1.40916 0
M  V30 2985 C 285.212 5.25784 -0.915793 0
M  V30 2986 O 285.435 5.69884 0.242651 0
M  V30 2987 O 284.369 5.77545 -1.69487 0
M  V30 2988 H 288.195 2.46919 -1.76818 0
M  V30 2989 H 285.78 1.17524 -0.922411 0
M  V30 2990 H 287.662 4.21377 -0.0440211 0
M  V30 2991 H 286.337 3.18668 0.568539 0
M  V30 2992 H 285.244 3.30879 -1.74556 0
M  V30 2993 H 286.577 4.3625 -2.27919 0
M  V30 2994 N 288.23 0.939286 1.26551 0
M  V30 2995 C 289.478 0.58469 1.93457 0
M  V30 2996 C 289.799 -0.878774 1.74076 0
M  V30 2997 O 289.069 -1.62421 1.09528 0
M  V30 2998 H 287.649 0.21325 0.715914 0
M  V30 2999 H 290.311 1.1942 1.54029 0
M  V30 3000 H 289.407 0.800849 3.0165 0
M  V30 3001 N 289.708 -1.40897 0.706093 0
M  V30 3002 C 290.641 -2.282 -0.00328781 0
M  V30 3003 C 291.619 -1.42816 -0.77732 0
M  V30 3004 O 292.803 -1.72237 -0.765944 0
M  V30 3005 C 289.93 -3.23226 -1.01205 0
M  V30 3006 C 288.976 -4.25222 -0.329955 0
M  V30 3007 S 289.809 -5.27269 0.935298 0
M  V30 3008 C 290.965 -6.25859 -0.0716061 0
M  V30 3009 H 291.198 -2.88016 0.737143 0
M  V30 3010 H 288.731 -1.46191 0.496756 0
M  V30 3011 H 290.689 -3.78503 -1.58888 0
M  V30 3012 H 289.35 -2.62485 -1.72513 0
M  V30 3013 H 288.543 -4.92023 -1.09221 0
M  V30 3014 H 288.145 -3.73595 0.174069 0
M  V30 3015 H 290.437 -6.71204 -0.921521 0
M  V30 3016 H 291.38 -7.0586 0.562765 0
M  V30 3017 H 291.788 -5.62852 -0.431088 0
M  V30 3018 N 291.186 -0.45159 -1.50991 0
M  V30 3019 C 292.432 0.110237 -2.025 0
M  V30 3020 C 292.765 1.41109 -1.33424 0
M  V30 3021 O 292.04 1.89135 -0.453659 0
M  V30 3022 C 292.323 0.314271 -3.58726 0
M  V30 3023 C 292.176 -1.00623 -4.38401 0
M  V30 3024 C 293.495 1.07767 -4.26702 0
M  V30 3025 H 290.614 0.0385897 -0.735989 0
M  V30 3026 H 293.256 -0.593374 -1.80497 0
M  V30 3027 H 291.406 0.913601 -3.77605 0
M  V30 3028 H 293.078 -1.64064 -4.31139 0
M  V30 3029 H 291.321 -1.6075 -4.02917 0
M  V30 3030 H 291.992 -0.817341 -5.45915 0
M  V30 3031 H 294.468 0.56986 -4.12179 0
M  V30 3032 H 293.344 1.18921 -5.35863 0
M  V30 3033 H 293.605 2.10939 -3.88532 0
M  V30 3034 N 292.664 1.56529 -0.183458 0
M  V30 3035 C 293.594 2.21549 0.737456 0
M  V30 3036 C 294.575 1.17489 1.23005 0
M  V30 3037 O 295.76 1.45959 1.281 0
M  V30 3038 C 292.89 2.86575 1.96194 0
M  V30 3039 C 291.844 3.96778 1.60473 0
M  V30 3040 C 291.17 4.48911 2.90487 0
M  V30 3041 C 292.47 5.15767 0.823497 0
M  V30 3042 H 294.164 2.98761 0.195453 0
M  V30 3043 H 291.71 1.43702 0.0925686 0
M  V30 3044 H 293.663 3.30739 2.61131 0
M  V30 3045 H 292.387 2.06749 2.52828 0
M  V30 3046 H 291.046 3.53286 0.978997 0
M  V30 3047 H 290.694 3.65862 3.45186 0
M  V30 3048 H 290.394 5.23265 2.67335 0
M  V30 3049 H 291.918 4.95771 3.56432 0
M  V30 3050 H 293.332 5.56549 1.37571 0
M  V30 3051 H 291.729 5.96114 0.690551 0
M  V30 3052 H 292.799 4.84574 -0.177782 0
M  V30 3053 N 294.142 -0.090211 1.57342 0
M  V30 3054 C 295.105 -1.09335 2.01441 0
M  V30 3055 C 296.105 -1.32666 0.908641 0
M  V30 3056 O 297.295 -1.28697 1.174 0
M  V30 3057 C 294.427 -2.44136 2.3793 0
M  V30 3058 H 295.62 -0.713662 2.91285 0
M  V30 3059 H 293.173 -0.335404 1.52659 0
M  V30 3060 H 293.908 -2.86972 1.51055 0
M  V30 3061 H 293.693 -2.28548 3.18603 0
M  V30 3062 H 295.183 -3.16277 2.72688 0
M  V30 3063 N 295.62 -1.53406 -0.361157 0
M  V30 3064 C 296.869 -1.69022 -1.10066 0
M  V30 3065 C 297.182 -0.450838 -1.90333 0
M  V30 3066 O 298.388 -0.487617 -2.67085 0
M  V30 3067 C 296.844 -2.98812 -2.00598 0
M  V30 3068 C 296.452 -4.30027 -1.25621 0
M  V30 3069 C 298.196 -3.23795 -2.74513 0
M  V30 3070 C 296.103 -5.50903 -2.1508 0
M  V30 3071 H 295.033 -0.629776 -0.414606 0
M  V30 3072 H 297.684 -1.79907 -0.361348 0
M  V30 3073 H 296.066 -2.8174 -2.78278 0
M  V30 3074 H 297.24 -4.57745 -0.529739 0
M  V30 3075 H 295.555 -4.11522 -0.635496 0
M  V30 3076 H 298.152 -4.11289 -3.41681 0
M  V30 3077 H 298.495 -2.40045 -3.40123 0
M  V30 3078 H 299.028 -3.41561 -2.03914 0
M  V30 3079 H 295.767 -6.37143 -1.54041 0
M  V30 3080 H 295.287 -5.27459 -2.85565 0
M  V30 3081 H 296.966 -5.85865 -2.74538 0
M  V30 3082 N 297.098 0.621204 -1.44841 0
M  V30 3083 C 298.008 1.7612 -1.5498 0
M  V30 3084 C 299.024 1.68477 -0.434927 0
M  V30 3085 O 300.2 1.89076 -0.693693 0
M  V30 3086 C 297.265 3.1254 -1.50065 0
M  V30 3087 C 296.326 3.31741 -2.72482 0
M  V30 3088 C 295.559 4.61653 -2.67792 0
M  V30 3089 O 295.782 5.431 -1.74352 0
M  V30 3090 O 294.716 4.83271 -3.58794 0
M  V30 3091 H 298.542 1.70518 -2.51311 0
M  V30 3092 H 296.127 0.783643 -1.27198 0
M  V30 3093 H 298.009 3.93844 -1.49882 0
M  V30 3094 H 296.684 3.18663 -0.568806 0
M  V30 3095 H 295.591 2.50077 -2.7823 0
M  V30 3096 H 296.924 3.30486 -3.64746 0
M  V30 3097 N 298.576 1.31904 0.862503 0
M  V30 3098 C 299.987 1.19803 1.43193 0
M  V30 3099 C 300.338 -0.192567 1.95253 0
M  V30 3100 O 299.463 -1.09081 1.86896 0
M  V30 3101 C 300.058 2.16883 2.60283 0
M  V30 3102 C 298.617 2.08692 3.13248 0
M  V30 3103 C 297.764 2.05691 1.85975 0
M  V30 3104 H 300.715 1.43846 0.670365 0
M  V30 3105 H 300.736 1.76278 3.37204 0
M  V30 3106 H 300.248 3.18083 2.22363 0
M  V30 3107 H 298.349 1.10713 3.55771 0
M  V30 3108 H 298.462 2.9815 3.75025 0
M  V30 3109 H 296.826 1.50814 2.05249 0
M  V30 3110 H 297.609 3.08659 1.50282 0
M  V30 3111 N 300.054 -1.07777 1.14986 0
M  V30 3112 C 301.301 -1.8029 0.922056 0
M  V30 3113 C 301.629 -1.86531 -0.55105 0
M  V30 3114 O 300.884 -1.34189 -1.42449 0
M  V30 3115 C 301.183 -3.25495 1.47608 0
M  V30 3116 C 300.849 -3.39361 2.96893 0
M  V30 3117 C 299.511 -3.42852 3.37647 0
M  V30 3118 C 301.863 -3.42512 3.92854 0
M  V30 3119 C 299.191 -3.47094 4.73015 0
M  V30 3120 C 301.543 -3.4829 5.28088 0
M  V30 3121 C 300.207 -3.50058 5.68345 0
M  V30 3122 H 299.477 -0.659727 0.337404 0
M  V30 3123 H 302.124 -1.26854 1.43459 0
M  V30 3124 H 300.429 -3.81683 0.88463 0
M  V30 3125 H 302.126 -3.80168 1.27568 0
M  V30 3126 H 298.716 -3.37339 2.64387 0
M  V30 3127 H 302.9 -3.3904 3.62444 0
M  V30 3128 H 298.156 -3.46758 5.03556 0
M  V30 3129 H 302.33 -3.49675 6.02246 0
M  V30 3130 H 299.957 -3.53097 6.73221 0
M  V30 3131 N 301.532 -0.945985 -1.26051 0
M  V30 3132 C 302.781 -0.591836 -1.92822 0
M  V30 3133 C 303.094 0.873956 -1.7499 0
M  V30 3134 O 304.3 1.33769 -2.36259 0
M  V30 3135 C 302.756 -1.00776 -3.45503 0
M  V30 3136 C 302.364 -2.4955 -3.7206 0
M  V30 3137 C 304.108 -0.725735 -4.1825 0
M  V30 3138 C 302.015 -2.84988 -5.18205 0
M  V30 3139 H 300.945 -0.217635 -0.721908 0
M  V30 3140 H 303.596 -1.14927 -1.43052 0
M  V30 3141 H 301.978 -0.378812 -3.94184 0
M  V30 3142 H 303.152 -3.1739 -3.34066 0
M  V30 3143 H 301.467 -2.75133 -3.12555 0
M  V30 3144 H 304.064 -0.966771 -5.25887 0
M  V30 3145 H 304.407 0.337639 -4.14929 0
M  V30 3146 H 304.94 -1.31463 -3.7545 0
M  V30 3147 H 301.679 -3.90307 -5.26631 0
M  V30 3148 H 301.199 -2.21813 -5.57278 0
M  V30 3149 H 302.878 -2.73712 -5.86252 0
M  V30 3150 N 303.011 1.40521 -0.713556 0
M  V30 3151 C 304.236 2.05759 -0.26035 0
M  V30 3152 C 304.661 1.53403 1.08854 0
M  V30 3153 O 304.019 0.668535 1.68524 0
M  V30 3154 C 304.067 3.59745 -0.248122 0
M  V30 3155 O 303.171 4.05123 0.77131 0
M  V30 3156 H 302.512 0.652564 -0.122703 0
M  V30 3157 H 305.042 1.79958 -0.973467 0
M  V30 3158 H 305.052 4.07911 -0.0851129 0
M  V30 3159 H 303.727 3.97218 -1.2325 0
M  V30 3160 H 302.304 3.68422 0.57619 0
M  V30 3161 N 304.489 0.459591 1.5075 0
M  V30 3162 C 305.714 -0.0996819 2.0716 0
M  V30 3163 C 306.139 -1.33761 1.32249 0
M  V30 3164 O 305.497 -1.77551 0.366786 0
M  V30 3165 C 305.545 -0.378226 3.58611 0
M  V30 3166 O 304.649 -1.46081 3.85661 0
M  V30 3167 H 303.99 0.00791392 0.663953 0
M  V30 3168 H 306.52 0.647329 1.9409 0
M  V30 3169 H 306.53 -0.622135 4.03229 0
M  V30 3170 H 305.205 0.526439 4.12555 0
M  V30 3171 H 303.782 -1.20511 3.5289 0
M  V30 3172 N 305.967 -1.56429 0.191757 0
M  V30 3173 C 306.915 -2.20273 -0.747174 0
M  V30 3174 C 307.909 -1.17288 -1.22229 0
M  V30 3175 O 309.115 -1.35441 -1.18557 0
M  V30 3176 H 305.49 -0.705885 -0.259289 0
M  V30 3177 H 307.461 -2.97826 -0.184963 0
M  V30 3178 C 306.21 -2.87356 -1.95759 0
M  V30 3179 H 305.533 -3.66341 -1.60106 0
M  V30 3180 H 306.973 -3.3547 -2.59299 0
M  V30 3181 C 305.432 -1.88213 -2.79423 0
M  V30 3182 O 305.962 -1.38033 -3.7724 0
M  V30 3183 N 304.168 -1.56516 -2.44849 0
M  V30 3184 H 303.715 -1.97516 -1.65364 0
M  V30 3185 H 303.673 -0.904369 -3.01112 0
M  V30 3186 N 307.445 0.0818655 -1.57387 0
M  V30 3187 C 308.408 1.08265 -2.02018 0
M  V30 3188 C 309.408 1.32183 -0.915664 0
M  V30 3189 O 310.598 1.28073 -1.18081 0
M  V30 3190 C 307.73 2.42871 -2.39221 0
M  V30 3191 H 308.923 0.698204 -2.91659 0
M  V30 3192 H 306.476 0.327303 -1.52835 0
M  V30 3193 H 307.211 2.86167 -1.52575 0
M  V30 3194 H 306.996 2.26855 -3.19811 0
M  V30 3195 H 308.486 3.14826 -2.74362 0
M  V30 3196 N 308.923 1.53595 0.353017 0
M  V30 3197 C 310.148 1.7462 1.11904 0
M  V30 3198 C 310.573 0.479721 1.8188 0
M  V30 3199 O 309.931 -0.567066 1.72204 0
M  V30 3200 C 309.979 2.92029 2.11545 0
M  V30 3201 O 309.083 2.61516 3.18878 0
M  V30 3202 H 308.424 0.579531 0.324099 0
M  V30 3203 H 310.954 2.00525 0.406301 0
M  V30 3204 H 310.964 3.18551 2.5493 0
M  V30 3205 H 309.639 3.83888 1.60008 0
M  V30 3206 H 308.216 2.45852 2.80377 0
M  V30 3207 N 310.401 -0.613514 1.45168 0
M  V30 3208 C 311.648 -1.37268 1.48875 0
M  V30 3209 C 311.976 -1.94077 0.128161 0
M  V30 3210 O 311.231 -1.75178 -0.872416 0
M  V30 3211 C 311.53 -2.54347 2.51083 0
M  V30 3212 C 311.196 -2.1572 3.95949 0
M  V30 3213 C 309.858 -2.04899 4.35396 0
M  V30 3214 C 312.21 -1.85485 4.87078 0
M  V30 3215 C 309.538 -1.62057 5.63875 0
M  V30 3216 C 311.89 -1.4413 6.15962 0
M  V30 3217 C 310.554 -1.31863 6.54346 0
M  V30 3218 H 309.824 -0.502299 0.544773 0
M  V30 3219 H 312.471 -0.694021 1.78481 0
M  V30 3220 H 310.776 -3.27524 2.15024 0
M  V30 3221 H 312.473 -3.12577 2.51191 0
M  V30 3222 H 309.063 -2.25066 3.64751 0
M  V30 3223 H 313.247 -1.92745 4.57343 0
M  V30 3224 H 308.503 -1.51177 5.92415 0
M  V30 3225 H 312.677 -1.19778 6.86022 0
M  V30 3226 H 310.304 -0.984392 7.538 0
M  V30 3227 N 311.879 -1.3236 -0.855495 0
M  V30 3228 C 313.125 -1.23054 -1.612 0
M  V30 3229 C 313.458 0.207404 -1.93089 0
M  V30 3230 O 312.733 1.14432 -1.57275 0
M  V30 3231 C 313.016 -2.08937 -2.93287 0
M  V30 3232 C 312.869 -3.61105 -2.68185 0
M  V30 3233 C 314.188 -1.94986 -3.94549 0
M  V30 3234 H 311.307 -0.448364 -0.584926 0
M  V30 3235 H 313.949 -1.62297 -0.987917 0
M  V30 3236 H 312.099 -1.75599 -3.46551 0
M  V30 3237 H 313.771 -4.04652 -2.21483 0
M  V30 3238 H 312.014 -3.83813 -2.02164 0
M  V30 3239 H 312.685 -4.16522 -3.62234 0
M  V30 3240 H 315.161 -2.24189 -3.5054 0
M  V30 3241 H 314.037 -2.57356 -4.84829 0
M  V30 3242 H 314.298 -0.917263 -4.3248 0
M  V30 3243 N 313.357 1.07166 -1.15556 0
M  V30 3244 C 314.585 1.83514 -0.955519 0
M  V30 3245 C 315 1.82163 0.49621 0
M  V30 3246 O 314.357 1.23441 1.34419 0
M  V30 3247 C 314.408 3.30515 -1.46432 0
M  V30 3248 O 314.129 3.31937 -2.85918 0
M  V30 3249 C 315.63 4.23625 -1.30603 0
M  V30 3250 H 312.85 0.578926 -0.339244 0
M  V30 3251 H 315.394 1.35265 -1.53374 0
M  V30 3252 H 313.549 3.76106 -0.928584 0
M  V30 3253 H 313.963 4.23794 -3.09029 0
M  V30 3254 H 315.437 5.24831 -1.71047 0
M  V30 3255 H 315.914 4.38485 -0.250441 0
M  V30 3256 H 316.52 3.83871 -1.83094 0
M  V30 3257 N 314.835 0.952656 1.25548 0
M  V30 3258 C 315.745 0.47782 2.29682 0
M  V30 3259 C 316.761 -0.453859 1.67977 0
M  V30 3260 O 317.937 -0.330587 1.98668 0
M  V30 3261 C 315.002 -0.238655 3.45878 0
M  V30 3262 C 314.063 0.730994 4.23031 0
M  V30 3263 C 313.296 0.0486165 5.33678 0
M  V30 3264 O 313.519 -1.16612 5.58353 0
M  V30 3265 O 312.453 0.733152 5.97418 0
M  V30 3266 H 316.279 1.34312 2.72386 0
M  V30 3267 H 313.864 0.719026 1.30959 0
M  V30 3268 H 315.746 -0.641774 4.16484 0
M  V30 3269 H 314.421 -1.07916 3.05181 0
M  V30 3270 H 313.328 1.18428 3.5486 0
M  V30 3271 H 314.661 1.53946 4.67506 0
M  V30 3272 N 316.313 -1.40141 0.720998 0
M  V30 3273 C 317.561 -2.0039 0.262323 0
M  V30 3274 C 317.882 -1.57469 -1.15015 0
M  V30 3275 O 317.152 -0.816582 -1.78069 0
M  V30 3276 H 315.732 -0.741063 0.093996 0
M  V30 3277 H 318.394 -1.71398 0.927835 0
M  V30 3278 H 317.49 -3.10658 0.299671 0
M  V30 3279 N 317.792 -0.46758 -1.50504 0
M  V30 3280 C 318.739 0.328413 -2.28452 0
M  V30 3281 C 319.709 0.990313 -1.33349 0
M  V30 3282 O 320.894 1.00343 -1.62284 0
M  V30 3283 C 318.034 1.40648 -3.15138 0
M  V30 3284 C 317.147 0.759709 -4.25267 0
M  V30 3285 C 316.282 1.81537 -4.99217 0
M  V30 3286 C 315.321 1.14866 -6.01226 0
M  V30 3287 N 314.458 2.14702 -6.68467 0
M  V30 3288 H 319.298 -0.342603 -2.96024 0
M  V30 3289 H 316.835 -0.180801 -1.45985 0
M  V30 3290 H 318.793 2.04315 -3.63746 0
M  V30 3291 H 317.423 2.04671 -2.49619 0
M  V30 3292 H 316.475 0.0105671 -3.80399 0
M  V30 3293 H 317.787 0.233243 -4.98254 0
M  V30 3294 H 316.941 2.52793 -5.51526 0
M  V30 3295 H 315.68 2.37564 -4.25928 0
M  V30 3296 H 314.685 0.42171 -5.4818 0
M  V30 3297 H 315.91 0.595334 -6.76485 0
M  V30 3298 H 313.856 2.69752 -5.97972 0
M  V30 3299 H 313.773 1.6703 -7.37317 0
M  V30 3300 H 315.041 2.85348 -7.25394 0
M  V30 3301 N 319.27 1.56325 -0.20005 0
M  V30 3302 C 320.218 2.20666 0.735482 0
M  V30 3303 C 321.212 1.17934 1.21605 0
M  V30 3304 O 322.418 1.36068 1.17837 0
M  V30 3305 H 318.793 0.70725 0.255542 0
M  V30 3306 H 320.764 2.9792 0.169166 0
M  V30 3307 C 319.513 2.88391 1.94232 0
M  V30 3308 H 318.836 3.67185 1.58161 0
M  V30 3309 H 320.276 3.3684 2.57517 0
M  V30 3310 C 318.735 1.89692 2.78421 0
M  V30 3311 O 319.265 1.40032 3.76502 0
M  V30 3312 N 317.471 1.57813 2.44015 0
M  V30 3313 H 317.018 1.9839 1.64314 0
M  V30 3314 H 316.976 0.920325 3.00628 0
M  V30 3315 N 320.748 -0.0735177 1.57428 0
M  V30 3316 C 321.658 -1.10547 2.06922 0
M  V30 3317 C 322.674 -1.42506 0.998402 0
M  V30 3318 O 323.85 -1.52717 1.31299 0
M  V30 3319 C 320.915 -2.40019 2.50184 0
M  V30 3320 C 319.976 -2.15046 3.71556 0
M  V30 3321 C 319.209 -3.38345 4.12745 0
M  V30 3322 O 319.432 -4.47399 3.53822 0
M  V30 3323 O 318.366 -3.2666 5.05546 0
M  V30 3324 H 322.192 -0.715013 2.95163 0
M  V30 3325 H 319.777 -0.287531 1.46607 0
M  V30 3326 H 321.659 -3.16218 2.78539 0
M  V30 3327 H 320.334 -2.78447 1.65072 0
M  V30 3328 H 319.241 -1.36558 3.48285 0
M  V30 3329 H 320.574 -1.81499 4.57514 0
M  V30 3330 N 322.226 -1.5378 -0.344866 0
M  V30 3331 C 323.472 -1.72158 -1.0832 0
M  V30 3332 C 323.827 -0.478218 -1.86362 0
M  V30 3333 O 323.12 0.529152 -1.84148 0
M  V30 3334 C 323.314 -2.92407 -2.05506 0
M  V30 3335 C 323.143 -4.28318 -1.37017 0
M  V30 3336 C 321.913 -4.92832 -1.11558 0
M  V30 3337 C 324.111 -5.08086 -0.797071 0
M  V30 3338 N 322.093 -6.12619 -0.396358 0
M  V30 3339 C 323.464 -6.1965 -0.208336 0
M  V30 3340 C 325.519 -4.92986 -0.697787 0
M  V30 3341 C 324.222 -7.17763 0.470023 0
M  V30 3342 C 326.248 -5.91391 -0.033171 0
M  V30 3343 C 325.61 -7.02292 0.544599 0
M  V30 3344 H 321.709 -0.683017 -0.380805 0
M  V30 3345 H 324.293 -1.91211 -0.366961 0
M  V30 3346 H 322.464 -2.74857 -2.74423 0
M  V30 3347 H 324.196 -2.9951 -2.72169 0
M  V30 3348 H 320.951 -4.52362 -1.40234 0
M  V30 3349 H 321.375 -6.7698 -0.0515119 0
M  V30 3350 H 326.017 -4.07414 -1.13022 0
M  V30 3351 H 323.735 -8.0291 0.914351 0
M  V30 3352 H 327.321 -5.81784 0.0430009 0
M  V30 3353 H 326.201 -7.77129 1.05073 0
M  V30 3354 N 323.704 0.605807 -1.45491 0
M  V30 3355 C 324.667 1.69836 -1.5391 0
M  V30 3356 C 325.667 1.55261 -0.418424 0
M  V30 3357 O 326.857 1.60296 -0.681965 0
M  V30 3358 C 323.989 3.09117 -1.43734 0
M  V30 3359 H 325.182 1.63738 -2.51257 0
M  V30 3360 H 322.735 0.821689 -1.32959 0
M  V30 3361 H 323.47 3.20791 -0.475788 0
M  V30 3362 H 323.255 3.21104 -2.25021 0
M  V30 3363 H 324.745 3.88696 -1.52661 0
M  V30 3364 N 325.182 1.32811 0.848464 0
M  V30 3365 C 326.429 1.23724 1.60308 0
M  V30 3366 C 326.757 -0.1994 1.93475 0
M  V30 3367 O 326.012 -1.15406 1.5805 0
M  V30 3368 C 326.311 2.04831 2.92881 0
M  V30 3369 C 325.977 3.54125 2.79117 0
M  V30 3370 C 324.639 3.94829 2.7507 0
M  V30 3371 C 326.991 4.49036 2.64606 0
M  V30 3372 C 324.319 5.28675 2.544 0
M  V30 3373 C 326.671 5.83033 2.4547 0
M  V30 3374 C 325.335 6.22931 2.39819 0
M  V30 3375 H 324.605 0.452737 0.586609 0
M  V30 3376 H 327.252 1.64301 0.983743 0
M  V30 3377 H 325.557 1.57001 3.58968 0
M  V30 3378 H 327.254 1.95164 3.50303 0
M  V30 3379 H 323.844 3.21801 2.83094 0
M  V30 3380 H 328.028 4.18505 2.66772 0
M  V30 3381 H 323.284 5.58637 2.48465 0
M  V30 3382 H 327.458 6.56186 2.33222 0
M  V30 3383 H 325.085 7.26584 2.23562 0
M  V30 3384 N 326.66 -1.06551 1.16123 0
M  V30 3385 C 327.57 -2.17484 0.879662 0
M  V30 3386 C 328.586 -1.73377 -0.147104 0
M  V30 3387 O 329.762 -2.01379 0.0289128 0
M  V30 3388 C 326.827 -3.44591 0.381829 0
M  V30 3389 C 325.888 -4.0322 1.4735 0
M  V30 3390 C 325.121 -5.24261 0.999324 0
M  V30 3391 O 325.344 -5.70198 -0.151957 0
M  V30 3392 O 324.278 -5.74775 1.78653 0
M  V30 3393 H 328.104 -2.44075 1.80724 0
M  V30 3394 H 325.689 -1.16042 0.940992 0
M  V30 3395 H 327.571 -4.21254 0.111053 0
M  V30 3396 H 326.246 -3.19532 -0.51777 0
M  V30 3397 H 325.153 -3.2806 1.79798 0
M  V30 3398 H 326.486 -4.32568 2.34831 0
M  V30 3399 N 328.138 -0.959301 -1.25041 0
M  V30 3400 C 329.366 -0.633949 -1.96948 0
M  V30 3401 C 329.781 0.794916 -1.7125 0
M  V30 3402 O 329.138 1.53231 -0.991287 0
M  V30 3403 C 329.189 -0.888805 -3.50403 0
M  V30 3404 O 328.91 -2.26149 -3.75218 0
M  V30 3405 C 330.411 -0.576482 -4.39536 0
M  V30 3406 H 327.631 -0.237263 -0.627652 0
M  V30 3407 H 330.175 -1.28495 -1.59089 0
M  V30 3408 H 328.33 -0.284145 -3.86357 0
M  V30 3409 H 328.744 -2.33514 -4.6965 0
M  V30 3410 H 330.218 -0.805314 -5.46094 0
M  V30 3411 H 330.695 0.489075 -4.36468 0
M  V30 3412 H 331.301 -1.16067 -4.09156 0
M  V30 3413 N 329.616 1.39756 -0.72842 0
M  V30 3414 C 330.841 2.05472 -0.282159 0
M  V30 3415 C 331.266 1.54549 1.07221 0
M  V30 3416 O 330.624 0.686372 1.67805 0
M  V30 3417 C 330.672 3.59462 -0.286264 0
M  V30 3418 O 329.776 4.05918 0.728298 0
M  V30 3419 H 329.117 0.651226 -0.129618 0
M  V30 3420 H 331.647 1.78915 -0.992499 0
M  V30 3421 H 331.657 4.07798 -0.128373 0
M  V30 3422 H 330.332 3.95889 -1.27456 0
M  V30 3423 H 328.909 3.69012 0.537081 0
M  V30 3424 N 331.094 0.475555 1.50254 0
M  V30 3425 C 332.371 -0.139685 1.95101 0
M  V30 3426 C 332.751 -1.56555 1.41611 0
M  V30 3427 O 332.099 -2.19956 0.618993 0
M  V30 3428 C 332.309 -0.0784298 3.48912 0
M  V30 3429 C 333.657 -0.265095 4.23772 0
M  V30 3430 O 334.681 -0.154808 3.55863 0
M  V30 3431 O 333.54 -0.488327 5.44314 0
M  V30 3432 H 330.634 -0.109236 0.819754 0
M  V30 3433 H 333.18 0.536276 1.61004 0
M  V30 3434 H 331.952 0.916918 3.80405 0
M  V30 3435 H 331.575 -0.795655 3.89558 0
M  V30 3436 N 332.573 -1.56217 0.208337 0
M  V30 3437 C 333.52 -2.19699 -0.707192 0
M  V30 3438 C 334.49 -1.14836 -1.20008 0
M  V30 3439 O 335.675 -1.4314 -1.26157 0
M  V30 3440 C 332.815 -2.87061 -1.91546 0
M  V30 3441 C 331.928 -4.06483 -1.46271 0
M  V30 3442 C 331.063 -4.61665 -2.62752 0
M  V30 3443 C 330.102 -5.73417 -2.14147 0
M  V30 3444 N 329.239 -6.22948 -3.23853 0
M  V30 3445 H 334.079 -2.97575 -0.159111 0
M  V30 3446 H 331.616 -1.46948 -0.0667874 0
M  V30 3447 H 333.574 -3.24294 -2.62468 0
M  V30 3448 H 332.204 -2.11725 -2.43664 0
M  V30 3449 H 331.256 -3.74825 -0.648886 0
M  V30 3450 H 332.568 -4.87271 -1.06622 0
M  V30 3451 H 331.722 -5.01272 -3.41776 0
M  V30 3452 H 330.461 -3.80013 -3.05682 0
M  V30 3453 H 329.466 -5.33326 -1.33581 0
M  V30 3454 H 330.691 -6.56897 -1.72232 0
M  V30 3455 H 328.637 -5.44213 -3.6629 0
M  V30 3456 H 328.554 -6.98823 -2.88414 0
M  V30 3457 H 329.822 -6.6721 -4.03052 0
M  V30 3458 N 334.051 0.0651679 -1.57465 0
M  V30 3459 C 335.276 0.779605 -1.9219 0
M  V30 3460 C 335.701 1.69988 -0.805333 0
M  V30 3461 O 335.059 1.79685 0.241435 0
M  V30 3462 C 335.107 1.54364 -3.2589 0
M  V30 3463 O 334.211 2.65474 -3.1559 0
M  V30 3464 H 333.552 0.212249 -0.629163 0
M  V30 3465 H 336.082 0.0314294 -2.04576 0
M  V30 3466 H 336.092 1.92146 -3.59922 0
M  V30 3467 H 334.767 0.868457 -4.06732 0
M  V30 3468 H 333.344 2.30501 -2.93128 0
M  V30 3469 N 335.529 1.53961 0.336706 0
M  V30 3470 C 336.776 1.71536 1.07618 0
M  V30 3471 C 337.104 0.482125 1.8843 0
M  V30 3472 O 336.359 -0.536142 1.88213 0
M  V30 3473 C 336.658 2.93493 2.03953 0
M  V30 3474 C 336.324 4.28811 1.39399 0
M  V30 3475 C 334.986 4.65602 1.21523 0
M  V30 3476 C 337.338 5.12844 0.929541 0
M  V30 3477 C 334.666 5.84037 0.558312 0
M  V30 3478 C 337.018 6.31951 0.286505 0
M  V30 3479 C 335.682 6.67432 0.0954869 0
M  V30 3480 H 334.952 0.627696 0.393801 0
M  V30 3481 H 337.599 1.88186 0.354715 0
M  V30 3482 H 335.904 2.71475 2.82504 0
M  V30 3483 H 337.601 3.04285 2.61174 0
M  V30 3484 H 334.191 3.99858 1.54311 0
M  V30 3485 H 338.375 4.84947 1.05548 0
M  V30 3486 H 333.631 6.10097 0.398995 0
M  V30 3487 H 337.805 6.96352 -0.0814376 0
M  V30 3488 H 335.432 7.59063 -0.415579 0
M  V30 3489 N 337.007 -0.598083 1.45811 0
M  V30 3490 C 338.253 -1.35882 1.50545 0
M  V30 3491 C 338.586 -1.93616 0.150445 0
M  V30 3492 O 337.861 -1.75604 -0.83628 0
M  V30 3493 C 338.144 -2.49966 2.59208 0
M  V30 3494 C 337.997 -1.97367 4.04186 0
M  V30 3495 C 339.316 -3.52068 2.64076 0
M  V30 3496 H 336.435 -0.492717 0.548087 0
M  V30 3497 H 339.077 -0.673319 1.77669 0
M  V30 3498 H 337.227 -3.08443 2.3621 0
M  V30 3499 H 338.899 -1.43466 4.38423 0
M  V30 3500 H 337.142 -1.283 4.14393 0
M  V30 3501 H 337.813 -2.79649 4.75921 0
M  V30 3502 H 340.289 -3.03448 2.84708 0
M  V30 3503 H 339.165 -4.2937 3.41954 0
M  V30 3504 H 339.426 -4.08304 1.69531 0
M  V30 3505 N 338.485 -1.33259 -0.841409 0
M  V30 3506 C 339.448 -1.23221 -1.9326 0
M  V30 3507 C 340.448 -0.151895 -1.60081 0
M  V30 3508 O 341.638 -0.403246 -1.69468 0
M  V30 3509 C 338.77 -0.898123 -3.28856 0
M  V30 3510 H 339.963 -2.2021 -2.03587 0
M  V30 3511 H 337.516 -1.17281 -1.03319 0
M  V30 3512 H 338.251 0.0693841 -3.24226 0
M  V30 3513 H 338.036 -1.67934 -3.54317 0
M  V30 3514 H 339.526 -0.852563 -4.08805 0
M  V30 3515 N 339.963 1.05934 -1.16686 0
M  V30 3516 C 340.895 2.13468 -0.834503 0
M  V30 3517 C 341.908 1.62013 0.15984 0
M  V30 3518 O 343.097 1.7838 -0.0654228 0
M  V30 3519 C 340.197 3.3817 -0.222361 0
M  V30 3520 C 339.37 4.18928 -1.25771 0
M  V30 3521 C 338.429 5.21985 -0.664703 0
M  V30 3522 O 337.455 5.53334 -1.33453 0
M  V30 3523 N 338.657 5.77919 0.546834 0
M  V30 3524 H 341.422 2.42578 -1.75999 0
M  V30 3525 H 338.983 1.21967 -1.06469 0
M  V30 3526 H 340.975 4.04266 0.187472 0
M  V30 3527 H 339.545 3.06655 0.606758 0
M  V30 3528 H 338.765 3.48433 -1.84358 0
M  V30 3529 H 340.053 4.69687 -1.95631 0
M  V30 3530 H 339.451 5.54721 1.10912 0
M  V30 3531 H 338.008 6.45573 0.898829 0
M  V30 3532 N 341.441 0.965919 1.2453 0
M  V30 3533 C 342.69 0.622437 1.91856 0
M  V30 3534 C 343.003 -0.846006 1.76358 0
M  V30 3535 O 344.209 -1.29993 2.38357 0
M  V30 3536 C 342.665 1.0626 3.43856 0
M  V30 3537 C 342.273 2.55437 3.68043 0
M  V30 3538 C 344.017 0.792183 4.17043 0
M  V30 3539 C 341.924 2.93196 5.13605 0
M  V30 3540 H 340.854 0.229092 0.718354 0
M  V30 3541 H 343.505 1.17189 1.41206 0
M  V30 3542 H 341.887 0.441476 3.93531 0
M  V30 3543 H 343.061 3.22665 3.28974 0
M  V30 3544 H 341.376 2.8007 3.08139 0
M  V30 3545 H 343.973 1.05031 5.24283 0
M  V30 3546 H 344.316 -0.271584 4.15413 0
M  V30 3547 H 344.849 1.37419 3.73311 0
M  V30 3548 H 341.588 3.98636 5.20355 0
M  V30 3549 H 341.108 2.30651 5.53679 0
M  V30 3550 H 342.787 2.83004 5.81823 0
M  V30 3551 N 342.919 -1.39368 0.735821 0
M  V30 3552 C 343.829 -2.34395 0.0979693 0
M  V30 3553 C 344.845 -1.58361 -0.720968 0
M  V30 3554 O 346.021 -1.90648 -0.649245 0
M  V30 3555 C 343.086 -3.37393 -0.797916 0
M  V30 3556 C 342.147 -4.29287 0.0333662 0
M  V30 3557 C 341.38 -5.27365 -0.819854 0
M  V30 3558 O 341.603 -5.31959 -2.05855 0
M  V30 3559 O 340.537 -6.01389 -0.248079 0
M  V30 3560 H 344.363 -2.90601 0.882315 0
M  V30 3561 H 341.948 -1.40909 0.4965 0
M  V30 3562 H 343.83 -4.00505 -1.31048 0
M  V30 3563 H 342.505 -2.83571 -1.56106 0
M  V30 3564 H 341.412 -3.69395 0.591475 0
M  V30 3565 H 342.745 -4.86317 0.758752 0
M  V30 3566 N 344.397 -0.483516 -1.5 0
M  V30 3567 C 345.347 0.32306 -2.257 0
M  V30 3568 C 346.331 0.950755 -1.29805 0
M  V30 3569 O 347.523 0.861247 -1.54634 0
M  V30 3570 C 344.652 1.39724 -3.13579 0
M  V30 3571 C 343.738 0.776663 -4.16928 0
M  V30 3572 N 344.129 -0.1104 -5.0568 0
M  V30 3573 C 342.427 1.03922 -4.33724 0
M  V30 3574 C 343.128 -0.46387 -5.79848 0
M  V30 3575 N 342.104 0.163987 -5.43353 0
M  V30 3576 H 345.906 -0.360086 -2.91686 0
M  V30 3577 H 343.42 -0.298456 -1.59634 0
M  V30 3578 H 345.417 1.98837 -3.66428 0
M  V30 3579 H 344.077 2.08225 -2.49143 0
M  V30 3580 H 345.088 -0.480069 -5.1567 0
M  V30 3581 H 341.765 1.71829 -3.80501 0
M  V30 3582 H 343.155 -1.18854 -6.61304 0
M  V30 3583 N 345.875 1.56104 -0.216619 0
M  V30 3584 C 347.103 2.02563 0.421413 0
M  V30 3585 C 347.518 1.0965 1.53695 0
M  V30 3586 O 346.875 0.10521 1.82196 0
M  V30 3587 C 346.926 3.48584 0.957665 0
M  V30 3588 O 346.647 4.37953 -0.113389 0
M  V30 3589 C 348.148 4.10664 1.66943 0
M  V30 3590 H 345.368 0.662944 0.103665 0
M  V30 3591 H 347.912 2.01793 -0.331629 0
M  V30 3592 H 346.067 3.49985 1.661 0
M  V30 3593 H 346.481 5.23704 0.288932 0
M  V30 3594 H 347.955 5.14622 1.99671 0
M  V30 3595 H 348.432 3.55373 2.58083 0
M  V30 3596 H 349.038 4.13098 1.01142 0
M  V30 3597 N 347.353 -0.0568162 1.57498 0
M  V30 3598 C 348.599 -0.75422 1.88253 0
M  V30 3599 C 348.932 -1.76461 0.810865 0
M  V30 3600 O 348.207 -1.93691 -0.177259 0
M  V30 3601 C 348.49 -1.44878 3.2967 0
M  V30 3602 C 348.343 -0.453789 4.47505 0
M  V30 3603 C 349.662 -2.38994 3.69554 0
M  V30 3604 H 346.781 -0.272724 0.684683 0
M  V30 3605 H 349.423 -0.0172113 1.89992 0
M  V30 3606 H 347.573 -2.077 3.28318 0
M  V30 3607 H 349.245 0.170371 4.60985 0
M  V30 3608 H 347.488 0.229552 4.33192 0
M  V30 3609 H 348.159 -0.977699 5.43273 0
M  V30 3610 H 350.635 -1.86239 3.72095 0
M  V30 3611 H 349.511 -2.84587 4.69363 0
M  V30 3612 H 349.772 -3.24461 3.00296 0
M  V30 3613 N 348.832 -1.54138 -0.328536 0
M  V30 3614 C 350.081 -1.71318 -1.06456 0
M  V30 3615 C 350.394 -0.491109 -1.89334 0
M  V30 3616 O 351.6 -0.54416 -2.65991 0
M  V30 3617 C 350.056 -3.03 -1.94214 0
M  V30 3618 C 349.664 -4.32595 -1.16471 0
M  V30 3619 C 351.408 -3.29544 -2.67583 0
M  V30 3620 C 349.315 -5.55341 -2.03347 0
M  V30 3621 H 348.245 -0.638429 -0.401155 0
M  V30 3622 H 350.896 -1.80633 -0.323106 0
M  V30 3623 H 349.278 -2.87579 -2.72239 0
M  V30 3624 H 350.452 -4.58766 -0.432525 0
M  V30 3625 H 348.767 -4.12777 -0.548063 0
M  V30 3626 H 351.364 -4.18444 -3.3288 0
M  V30 3627 H 351.707 -2.47206 -3.34955 0
M  V30 3628 H 352.24 -3.45809 -1.96623 0
M  V30 3629 H 348.979 -6.40268 -1.40491 0
M  V30 3630 H 348.499 -5.33397 -2.74313 0
M  V30 3631 H 350.178 -5.91557 -2.62049 0
M  V30 3632 N 350.31 0.590341 -1.46126 0
M  V30 3633 C 351.556 1.35082 -1.51264 0
M  V30 3634 C 351.889 1.93534 -0.160711 0
M  V30 3635 O 351.164 1.76045 0.826956 0
M  V30 3636 C 351.447 2.48588 -2.6053 0
M  V30 3637 C 351.3 1.95221 -4.05227 0
M  V30 3638 C 352.619 3.50662 -2.6594 0
M  V30 3639 H 349.738 0.489803 -0.550692 0
M  V30 3640 H 352.38 0.663887 -1.78024 0
M  V30 3641 H 350.53 3.07186 -2.37843 0
M  V30 3642 H 352.202 1.41139 -4.39178 0
M  V30 3643 H 350.445 1.26101 -4.15068 0
M  V30 3644 H 351.116 2.77121 -4.77397 0
M  V30 3645 H 353.592 3.01934 -2.86313 0
M  V30 3646 H 352.468 4.27551 -3.44226 0
M  V30 3647 H 352.729 4.07399 -1.71694 0
M  V30 3648 N 351.788 1.33704 0.83433 0
M  V30 3649 C 353.016 1.28467 1.62185 0
M  V30 3650 C 353.431 -0.143526 1.88254 0
M  V30 3651 O 352.788 -1.08709 1.4659 0
M  V30 3652 C 352.839 2.06174 2.96942 0
M  V30 3653 O 352.56 3.43422 2.72016 0
M  V30 3654 C 354.061 2.08201 3.91366 0
M  V30 3655 H 351.281 0.4424 0.504503 0
M  V30 3656 H 353.825 1.76145 1.03891 0
M  V30 3657 H 351.98 1.62167 3.51825 0
M  V30 3658 H 352.394 3.83453 3.57861 0
M  V30 3659 H 353.868 2.67017 4.83121 0
M  V30 3660 H 354.345 1.07343 4.2588 0
M  V30 3661 H 354.951 2.52246 3.42421 0
M  V30 3662 N 353.266 -1.05314 1.17247 0
M  V30 3663 C 354.213 -2.13031 0.888058 0
M  V30 3664 C 355.183 -1.65253 -0.167537 0
M  V30 3665 O 356.368 -1.90775 -0.0305974 0
M  V30 3666 C 353.508 -3.42702 0.406147 0
M  V30 3667 C 352.621 -4.04161 1.52572 0
M  V30 3668 C 351.756 -5.21744 0.997808 0
M  V30 3669 C 350.795 -5.75207 2.09291 0
M  V30 3670 N 349.932 -6.84094 1.57986 0
M  V30 3671 H 354.772 -2.36698 1.81048 0
M  V30 3672 H 352.309 -1.16121 0.903013 0
M  V30 3673 H 354.267 -4.17059 0.108305 0
M  V30 3674 H 352.897 -3.19222 -0.479313 0
M  V30 3675 H 351.949 -3.27253 1.93931 0
M  V30 3676 H 353.261 -4.39881 2.35172 0
M  V30 3677 H 352.415 -6.03168 0.653739 0
M  V30 3678 H 351.154 -4.87495 0.141232 0
M  V30 3679 H 350.159 -4.92414 2.44557 0
M  V30 3680 H 351.384 -6.11505 2.95362 0
M  V30 3681 H 349.33 -6.51745 0.74598 0
M  V30 3682 H 349.247 -7.18811 2.34195 0
M  V30 3683 H 350.515 -7.69172 1.26468 0
M  V30 3684 N 354.744 -0.972509 -1.24016 0
M  V30 3685 C 356.021 -0.553733 -1.87598 0
M  V30 3686 C 356.401 0.969158 -1.87538 0
M  V30 3687 O 355.749 1.84255 -1.35139 0
M  V30 3688 C 355.959 -1.15076 -3.29482 0
M  V30 3689 C 357.307 -1.23862 -4.06132 0
M  V30 3690 O 358.331 -1.10363 -3.38672 0
M  V30 3691 O 357.19 -1.45252 -5.26844 0
M  V30 3692 H 354.284 -0.185331 -0.805966 0
M  V30 3693 H 356.83 -1.06709 -1.31952 0
M  V30 3694 H 355.602 -2.19333 -3.2405 0
M  V30 3695 H 355.225 -0.621746 -3.92709 0
M  V30 3696 N 356.222 1.38976 -0.743202 0
M  V30 3697 C 357.47 1.99948 -0.29417 0
M  V30 3698 C 357.791 1.59279 1.12495 0
M  V30 3699 O 357.061 0.844808 1.76748 0
M  V30 3700 H 355.641 0.739473 -0.105774 0
M  V30 3701 H 358.303 1.699 -0.954986 0
M  V30 3702 H 357.399 3.10142 -0.349056 0
M  V30 3703 N 357.7 0.491464 1.49741 0
M  V30 3704 C 359.111 0.0413169 1.86654 0
M  V30 3705 C 359.462 -1.36985 1.40462 0
M  V30 3706 O 358.587 -2.01917 0.778354 0
M  V30 3707 C 359.182 0.0682023 3.38731 0
M  V30 3708 C 357.741 -0.32656 3.74981 0
M  V30 3709 C 356.888 0.444888 2.73708 0
M  V30 3710 H 359.839 0.704733 1.42194 0
M  V30 3711 H 359.86 -0.729322 3.73445 0
M  V30 3712 H 359.372 1.09539 3.72321 0
M  V30 3713 H 357.473 -1.35734 3.46997 0
M  V30 3714 H 357.586 -0.013741 4.79098 0
M  V30 3715 H 355.95 -0.104062 2.54487 0
M  V30 3716 H 356.733 1.47197 3.10142 0
M  V30 3717 N 359.178 -1.55987 0.224894 0
M  V30 3718 C 360.427 -1.97566 -0.406273 0
M  V30 3719 C 360.74 -1.11569 -1.6066 0
M  V30 3720 O 361.946 -1.43062 -2.3075 0
M  V30 3721 C 360.402 -3.51474 -0.774207 0
M  V30 3722 C 360.01 -4.46179 0.403496 0
M  V30 3723 C 361.754 -4.01758 -1.37079 0
M  V30 3724 C 359.661 -5.91399 0.0129412 0
M  V30 3725 H 358.591 -0.737777 -0.155565 0
M  V30 3726 H 361.242 -1.80659 0.321635 0
M  V30 3727 H 359.624 -3.63994 -1.55963 0
M  V30 3728 H 360.798 -4.45409 1.18101 0
M  V30 3729 H 359.113 -4.06255 0.913536 0
M  V30 3730 H 361.71 -5.07756 -1.67596 0
M  V30 3731 H 362.053 -3.47805 -2.28773 0
M  V30 3732 H 362.586 -3.92475 -0.648733 0
M  V30 3733 H 359.325 -6.49341 0.896451 0
M  V30 3734 H 358.845 -5.95356 -0.728821 0
M  V30 3735 H 360.524 -6.45683 -0.412582 0
M  V30 3736 N 360.656 0.0484629 -1.57525 0
M  V30 3737 C 361.586 1.0549 -2.08313 0
M  V30 3738 C 362.567 1.38929 -0.981463 0
M  V30 3739 O 363.752 1.48151 -1.25558 0
M  V30 3740 C 360.882 2.36162 -2.54646 0
M  V30 3741 C 359.836 2.17016 -3.68901 0
M  V30 3742 C 359.162 3.53278 -4.01371 0
M  V30 3743 C 360.462 1.57219 -4.98076 0
M  V30 3744 H 362.156 0.632195 -2.92649 0
M  V30 3745 H 359.702 0.302654 -1.40784 0
M  V30 3746 H 361.655 3.06882 -2.88793 0
M  V30 3747 H 360.379 2.80456 -1.67368 0
M  V30 3748 H 359.038 1.48733 -3.35073 0
M  V30 3749 H 358.686 3.95185 -3.11188 0
M  V30 3750 H 358.386 3.41299 -4.78318 0
M  V30 3751 H 359.91 4.25391 -4.38035 0
M  V30 3752 H 361.324 2.17832 -5.30304 0
M  V30 3753 H 359.721 1.55871 -5.79503 0
M  V30 3754 H 360.791 0.535956 -4.81929 0
M  V30 3755 N 362.134 1.5431 0.320358 0
M  V30 3756 C 363.362 1.76636 1.07738 0
M  V30 3757 C 363.777 0.51649 1.81598 0
M  V30 3758 O 363.134 -0.512942 1.75143 0
M  V30 3759 C 363.185 2.96158 2.07299 0
M  V30 3760 O 362.906 4.16313 1.36438 0
M  V30 3761 C 364.407 3.3072 2.95193 0
M  V30 3762 H 361.627 0.589597 0.320339 0
M  V30 3763 H 364.171 2.01207 0.36551 0
M  V30 3764 H 362.326 2.73851 2.74016 0
M  V30 3765 H 362.74 4.83565 2.03138 0
M  V30 3766 H 364.214 4.17643 3.60941 0
M  V30 3767 H 364.691 2.48026 3.62463 0
M  V30 3768 H 365.297 3.55117 2.34034 0
M  V30 3769 N 363.613 -0.582584 1.46437 0
M  V30 3770 C 364.841 -1.36682 1.55324 0
M  V30 3771 C 365.256 -1.87796 0.194409 0
M  V30 3772 O 364.613 -1.63623 -0.808318 0
M  V30 3773 C 364.664 -2.55426 2.55812 0
M  V30 3774 O 364.385 -2.0643 3.86417 0
M  V30 3775 C 365.886 -3.47976 2.74641 0
M  V30 3776 H 363.106 -0.417545 0.525259 0
M  V30 3777 H 365.65 -0.708219 1.91845 0
M  V30 3778 H 363.805 -3.17275 2.22295 0
M  V30 3779 H 364.219 -2.83762 4.41111 0
M  V30 3780 H 365.693 -4.27775 3.48874 0
M  V30 3781 H 366.17 -3.99919 1.81553 0
M  V30 3782 H 366.776 -2.91962 3.09255 0
M  V30 3783 N 365.091 -1.34144 -0.827227 0
M  V30 3784 C 366.038 -1.25364 -1.93785 0
M  V30 3785 C 367.008 -0.129774 -1.65592 0
M  V30 3786 O 368.193 -0.310024 -1.88264 0
M  V30 3787 C 365.333 -1.01064 -3.2997 0
M  V30 3788 C 364.446 -2.22185 -3.70484 0
M  V30 3789 C 363.581 -1.91203 -4.95595 0
M  V30 3790 C 362.62 -3.08491 -5.28677 0
M  V30 3791 N 361.757 -2.77421 -6.44967 0
M  V30 3792 H 366.597 -2.20347 -2.00627 0
M  V30 3793 H 364.134 -1.09558 -0.981608 0
M  V30 3794 H 366.092 -0.850139 -4.08446 0
M  V30 3795 H 364.722 -0.0975026 -3.22653 0
M  V30 3796 H 363.774 -2.4917 -2.87434 0
M  V30 3797 H 365.086 -3.0983 -3.90905 0
M  V30 3798 H 364.24 -1.71864 -5.81848 0
M  V30 3799 H 362.979 -1.00812 -4.77167 0
M  V30 3800 H 361.984 -3.28431 -4.40923 0
M  V30 3801 H 363.209 -3.99655 -5.49047 0
M  V30 3802 H 361.155 -1.89601 -6.28003 0
M  V30 3803 H 361.072 -3.58598 -6.6554 0
M  V30 3804 H 362.34 -2.61577 -7.34301 0
M  V30 3805 N 366.569 1.04691 -1.17803 0
M  V30 3806 C 367.818 1.77176 -0.963931 0
M  V30 3807 C 368.131 1.88888 0.508015 0
M  V30 3808 O 369.337 2.58164 0.840465 0
M  V30 3809 C 367.793 3.18518 -1.67555 0
M  V30 3810 C 367.401 3.14919 -3.18637 0
M  V30 3811 C 369.145 3.95424 -1.54402 0
M  V30 3812 C 367.052 4.51081 -3.82466 0
M  V30 3813 H 365.982 0.664116 -0.357023 0
M  V30 3814 H 368.633 1.17303 -1.4111 0
M  V30 3815 H 367.015 3.78748 -1.15613 0
M  V30 3816 H 368.189 2.64178 -3.77554 0
M  V30 3817 H 366.504 2.51512 -3.31859 0
M  V30 3818 H 369.101 4.96106 -1.99456 0
M  V30 3819 H 369.444 4.13343 -0.495329 0
M  V30 3820 H 369.977 3.41754 -2.0359 0
M  V30 3821 H 366.716 4.38368 -4.87354 0
M  V30 3822 H 366.236 5.01951 -3.28337 0
M  V30 3823 H 367.915 5.2001 -3.84965 0
M  V30 3824 N 368.047 0.979072 1.23499 0
M  V30 3825 C 368.957 0.526431 2.28617 0
M  V30 3826 C 369.973 -0.418126 1.68901 0
M  V30 3827 O 371.149 -0.288372 1.99325 0
M  V30 3828 C 368.214 -0.165235 3.46306 0
M  V30 3829 C 367.275 0.82056 4.21385 0
M  V30 3830 C 366.508 0.161807 5.33455 0
M  V30 3831 O 366.731 -1.04742 5.60701 0
M  V30 3832 O 365.665 0.859708 5.95729 0
M  V30 3833 H 369.491 1.4006 2.69475 0
M  V30 3834 H 367.076 0.746643 1.29405 0
M  V30 3835 H 368.958 -0.553287 4.17752 0
M  V30 3836 H 367.633 -1.01419 3.07402 0
M  V30 3837 H 366.54 1.25929 3.52268 0
M  V30 3838 H 367.873 1.63828 4.64135 0
M  V30 3839 N 369.525 -1.3858 0.750561 0
M  V30 3840 C 370.435 -2.34278 0.122825 0
M  V30 3841 C 371.451 -1.59116 -0.704131 0
M  V30 3842 O 372.627 -1.91326 -0.628987 0
M  V30 3843 C 369.692 -3.38221 -0.762086 0
M  V30 3844 C 368.753 -4.29227 0.078896 0
M  V30 3845 C 367.986 -5.28205 -0.763874 0
M  V30 3846 O 368.209 -5.34112 -2.00201 0
M  V30 3847 O 367.143 -6.01618 -0.18428 0
M  V30 3848 H 370.969 -2.89649 0.913088 0
M  V30 3849 H 368.554 -1.40374 0.511417 0
M  V30 3850 H 370.436 -4.01872 -1.26793 0
M  V30 3851 H 369.111 -2.85211 -1.5309 0
M  V30 3852 H 368.018 -3.68747 0.630621 0
M  V30 3853 H 369.351 -4.85484 0.810289 0
M  V30 3854 N 371.003 -0.499398 -1.49478 0
M  V30 3855 C 371.913 0.284489 -2.32869 0
M  V30 3856 C 372.929 0.968885 -1.44529 0
M  V30 3857 O 374.105 0.95062 -1.77553 0
M  V30 3858 C 371.17 1.33594 -3.19928 0
M  V30 3859 C 370.231 0.665149 -4.24116 0
M  V30 3860 C 369.464 1.6665 -5.07014 0
M  V30 3861 O 369.687 2.89618 -4.91404 0
M  V30 3862 O 368.621 1.22271 -5.8935 0
M  V30 3863 H 372.447 -0.39802 -3.01081 0
M  V30 3864 H 370.032 -0.260758 -1.47107 0
M  V30 3865 H 371.914 1.94431 -3.73864 0
M  V30 3866 H 370.589 2.0014 -2.54412 0
M  V30 3867 H 369.496 0.0170769 -3.74096 0
M  V30 3868 H 370.829 0.0421555 -4.92182 0
M  V30 3869 O 372.52 1.5709 -0.374834 0
M  V30 3870 H 373.211 1.9292 0.173648 0
M  V30 END ATOM
M  V30 BEGIN BOND
M  V30 END BOND
M  V30 END CTAB
M  END
$$$$
