drugbank_target|Q8ILF7 Glutamate dehydrogenase (DB11638)
 OpenBabel12092121103D

  0  0  0     0  0            999 V3000
M  V30 BEGIN CTAB
M  V30 COUNTS 8095 8175 0 0 0
M  V30 BEGIN ATOM
M  V30 1 H -0.908 1.98254 -0.117106 0
M  V30 2 N 0 1.576 0 0
M  V30 3 C 0.933 2.03868 1.02534 0
M  V30 4 C 1.911 0.928543 1.3348 0
M  V30 5 O 3.095 1.19667 1.45644 0
M  V30 6 C 0.222 2.43627 2.35294 0
M  V30 7 C -0.732 3.65373 2.2001 0
M  V30 8 S 0.101 5.13292 1.52614 0
M  V30 9 C 1.257 5.56322 2.86805 0
M  V30 10 H 1.49 2.90518 0.631377 0
M  V30 11 H -0.977 1.52953 0.210867 0
M  V30 12 H 0.981 2.67203 3.11629 0
M  V30 13 H -0.358 1.57376 2.7183 0
M  V30 14 H -1.165 3.90944 3.18086 0
M  V30 15 H -1.563 3.418 1.51819 0
M  V30 16 H 0.729 5.58782 3.83104 0
M  V30 17 H 1.672 6.56266 2.65933 0
M  V30 18 H 2.08 4.83886 2.90714 0
M  V30 19 N 1.4781 -0.272755 1.55222 0
M  V30 20 C 2.7271 -1.00211 1.75045 0
M  V30 21 C 3.0401 -1.87441 0.559046 0
M  V30 22 O 4.2461 -2.63856 0.639698 0
M  V30 23 C 2.7021 -1.83165 3.09804 0
M  V30 24 C 2.3101 -1.008 4.36513 0
M  V30 25 C 4.0541 -2.55529 3.38977 0
M  V30 26 C 1.9611 -1.83194 5.62311 0
M  V30 27 H 0.8911 -0.377878 0.652476 0
M  V30 28 H 3.5421 -0.257776 1.8168 0
M  V30 29 H 1.9241 -2.61694 2.97207 0
M  V30 30 H 3.0981 -0.266855 4.60027 0
M  V30 31 H 1.4131 -0.398897 4.14485 0
M  V30 32 H 4.0101 -3.17578 4.30172 0
M  V30 33 H 4.3531 -3.25825 2.59121 0
M  V30 34 H 4.8861 -1.84029 3.52673 0
M  V30 35 H 1.6251 -1.17318 6.44916 0
M  V30 36 H 1.1451 -2.54905 5.4294 0
M  V30 37 H 2.8241 -2.40552 6.00619 0
M  V30 38 N 2.9562 -1.48159 -0.537278 0
M  V30 39 C 3.8862 -1.65029 -1.6519 0
M  V30 40 C 4.8672 -0.499281 -1.62607 0
M  V30 41 O 6.0522 -0.730972 -1.79918 0
M  V30 42 C 3.1822 -1.68303 -3.03795 0
M  V30 43 C 2.1362 -2.8283 -3.21234 0
M  V30 44 C 1.4622 -2.71189 -4.60826 0
M  V30 45 C 2.7622 -4.24211 -3.04701 0
M  V30 46 H 4.4562 -2.58341 -1.51328 0
M  V30 47 H 2.0022 -1.24325 -0.726585 0
M  V30 48 H 3.9552 -1.78693 -3.81637 0
M  V30 49 H 2.6792 -0.715635 -3.18663 0
M  V30 50 H 1.3382 -2.71983 -2.45807 0
M  V30 51 H 0.9862 -1.72435 -4.7252 0
M  V30 52 H 0.6862 -3.48035 -4.7344 0
M  V30 53 H 2.2102 -2.83537 -5.40777 0
M  V30 54 H 3.6242 -4.3593 -3.72341 0
M  V30 55 H 2.0212 -5.01998 -3.28813 0
M  V30 56 H 3.0912 -4.41184 -2.01209 0
M  V30 57 N 4.4343 0.785586 -1.36625 0
M  V30 58 C 5.6643 1.5722 -1.34036 0
M  V30 59 C 6.0723 1.89033 0.0795062 0
M  V30 60 O 5.4153 1.50881 1.04789 0
M  V30 61 C 5.4773 2.91759 -2.10041 0
M  V30 62 C 5.1413 2.82654 -3.59104 0
M  V30 63 C 6.1383 2.54634 -4.53274 0
M  V30 64 C 3.8233 3.01111 -4.02042 0
M  V30 65 C 5.8173 2.45177 -5.88359 0
M  V30 66 C 3.5043 2.91276 -5.37216 0
M  V30 67 C 4.5023 2.63348 -6.30188 0
M  V30 68 O 4.1903 2.53514 -7.6288 0
M  V30 69 H 3.9223 0.494177 -0.461265 0
M  V30 70 H 6.4763 0.982632 -1.8037 0
M  V30 71 H 4.7063 3.52781 -1.58375 0
M  V30 72 H 6.3953 3.53059 -2.00261 0
M  V30 73 H 7.1613 2.40073 -4.21414 0
M  V30 74 H 3.0403 3.21854 -3.30047 0
M  V30 75 H 6.5843 2.23299 -6.60896 0
M  V30 76 H 2.4813 3.054 -5.68684 0
M  V30 77 H 3.2493 2.68967 -7.73045 0
M  V30 78 N 5.9124 1.20967 1.01018 0
M  V30 79 C 7.1374 1.0503 1.78839 0
M  V30 80 C 7.5624 -0.395752 1.8389 0
M  V30 81 O 6.9204 -1.28529 1.27867 0
M  V30 82 C 6.9684 1.64602 3.2084 0
M  V30 83 O 6.0724 0.887988 4.02726 0
M  V30 84 H 5.4134 0.369987 0.551367 0
M  V30 85 H 7.9434 1.60399 1.27018 0
M  V30 86 H 7.9534 1.68607 3.71532 0
M  V30 87 H 6.6284 2.69841 3.16479 0
M  V30 88 H 5.2054 0.922648 3.61305 0
M  V30 89 N 7.3905 -1.2043 1.01659 0
M  V30 90 C 8.6305 -1.91507 0.714456 0
M  V30 91 C 8.9945 -1.77073 -0.742237 0
M  V30 92 O 10.1955 -2.42631 -1.15688 0
M  V30 93 C 8.4665 -3.38795 1.13809 0
M  V30 94 S 10.0255 -4.28216 0.957925 0
M  V30 95 H 6.8435 -0.661571 0.260471 0
M  V30 96 H 9.4455 -1.45671 1.30384 0
M  V30 97 H 8.1495 -3.46822 2.19415 0
M  V30 98 H 7.6805 -3.89656 0.541474 0
M  V30 99 H 9.6955 -4.96007 -0.138531 0
M  V30 100 N 8.8686 -0.792821 -1.36206 0
M  V30 101 C 10.1146 -0.36733 -1.99446 0
M  V30 102 C 10.4476 1.05917 -1.62774 0
M  V30 103 O 9.7226 1.7324 -0.88421 0
M  V30 104 C 10.0056 -0.535044 -3.56103 0
M  V30 105 C 9.8586 -2.00548 -4.02617 0
M  V30 106 C 11.1776 0.0478191 -4.40074 0
M  V30 107 H 8.2966 -0.134941 -0.724541 0
M  V30 108 H 10.9386 -0.999794 -1.61568 0
M  V30 109 H 9.0886 0.00336329 -3.885 0
M  V30 110 H 10.7606 -2.60521 -3.80692 0
M  V30 111 H 9.0036 -2.50686 -3.54032 0
M  V30 112 H 9.6746 -2.07377 -5.11565 0
M  V30 113 H 12.1506 -0.411822 -4.14057 0
M  V30 114 H 11.0266 -0.0995336 -5.4881 0
M  V30 115 H 11.2876 1.14025 -4.27142 0
M  V30 116 N 10.3467 1.47872 -0.545128 0
M  V30 117 C 11.5927 2.02793 -0.0166104 0
M  V30 118 C 11.9257 1.41987 1.32489 0
M  V30 119 O 11.2007 0.571045 1.85928 0
M  V30 120 C 11.4837 3.59989 0.0893294 0
M  V30 121 C 11.3367 4.3125 -1.27841 0
M  V30 122 C 12.6557 4.32606 0.808724 0
M  V30 123 H 9.7747 0.736962 -0.00751035 0
M  V30 124 H 12.4167 1.76433 -0.705085 0
M  V30 125 H 10.5667 3.82579 0.675681 0
M  V30 126 H 12.2387 4.20035 -1.90704 0
M  V30 127 H 10.4817 3.92076 -1.85632 0
M  V30 128 H 11.1527 5.39736 -1.15713 0
M  V30 129 H 13.6287 4.14936 0.310992 0
M  V30 130 H 12.5047 5.42251 0.851782 0
M  V30 131 H 12.7657 4.00963 1.86229 0
M  V30 132 N 11.8248 0.280983 1.55075 0
M  V30 133 C 13.0648 -0.335234 2.01632 0
M  V30 134 C 13.4288 -1.5261 1.16508 0
M  V30 135 O 14.6298 -2.21235 1.52672 0
M  V30 136 C 12.9008 -0.702172 3.50434 0
M  V30 137 S 14.4598 -1.30409 4.18974 0
M  V30 138 H 11.2778 -0.103967 0.703358 0
M  V30 139 H 13.8798 0.404187 1.91276 0
M  V30 140 H 12.5838 0.17333 4.10034 0
M  V30 141 H 12.1148 -1.4729 3.64786 0
M  V30 142 H 14.1298 -2.59253 4.23087 0
M  V30 143 N 13.3029 -1.57598 0.00835791 0
M  V30 144 C 14.5499 -1.90928 -0.674732 0
M  V30 145 C 14.8779 -0.88277 -1.73313 0
M  V30 146 O 14.1329 0.111294 -1.95383 0
M  V30 147 C 14.4319 -3.3101 -1.34787 0
M  V30 148 C 14.0979 -4.48922 -0.421861 0
M  V30 149 C 12.7599 -4.8091 -0.166927 0
M  V30 150 C 15.1119 -5.20755 0.215211 0
M  V30 151 C 12.4399 -5.821 0.733232 0
M  V30 152 C 14.7919 -6.22905 1.1033 0
M  V30 153 C 13.4559 -6.53346 1.36733 0
M  V30 154 H 12.7259 -0.698656 -0.246902 0
M  V30 155 H 15.3729 -1.91387 0.0656779 0
M  V30 156 H 13.6779 -3.26714 -2.16253 0
M  V30 157 H 15.3749 -3.54061 -1.8826 0
M  V30 158 H 11.9649 -4.23934 -0.630729 0
M  V30 159 H 16.1489 -4.9629 0.0312829 0
M  V30 160 H 11.4049 -6.04042 0.945712 0
M  V30 161 H 15.5789 -6.77694 1.60325 0
M  V30 162 H 13.2059 -7.31573 2.06652 0
M  V30 163 N 14.781 0.264519 -1.55364 0
M  V30 164 C 16.03 0.992812 -1.75574 0
M  V30 165 C 16.343 1.87142 -0.568979 0
M  V30 166 O 17.549 2.63513 -0.653682 0
M  V30 167 C 16.005 1.81519 -3.10771 0
M  V30 168 C 15.613 0.984839 -4.37041 0
M  V30 169 C 17.357 2.53727 -3.40327 0
M  V30 170 C 15.264 1.80209 -5.63275 0
M  V30 171 H 14.194 0.374412 -0.65447 0
M  V30 172 H 16.845 0.248138 -1.81815 0
M  V30 173 H 15.227 2.60115 -2.98591 0
M  V30 174 H 16.401 0.242455 -4.60162 0
M  V30 175 H 14.716 0.37691 -4.14691 0
M  V30 176 H 17.313 3.15292 -4.3185 0
M  V30 177 H 17.656 3.24447 -2.60845 0
M  V30 178 H 18.189 1.82156 -3.53644 0
M  V30 179 H 14.928 1.13896 -6.45529 0
M  V30 180 H 14.448 2.52022 -5.44284 0
M  V30 181 H 16.127 2.37364 -6.01887 0
M  V30 182 N 16.2591 1.48442 0.529413 0
M  V30 183 C 17.5051 1.5672 1.28711 0
M  V30 184 C 17.8381 0.2406 1.92704 0
M  V30 185 O 17.1131 -0.753454 1.79313 0
M  V30 186 C 17.3961 2.70587 2.37603 0
M  V30 187 C 17.2491 4.12953 1.78297 0
M  V30 188 C 18.5681 2.80212 3.39366 0
M  V30 189 H 15.6871 0.570474 0.466613 0
M  V30 190 H 18.3291 1.80617 0.589706 0
M  V30 191 H 16.4791 2.50342 2.97088 0
M  V30 192 H 18.1511 4.44639 1.22858 0
M  V30 193 H 16.3941 4.19927 1.0883 0
M  V30 194 H 17.0651 4.88448 2.57144 0
M  V30 195 H 19.5411 2.98553 2.89836 0
M  V30 196 H 18.4171 3.61611 4.12951 0
M  V30 197 H 18.6781 1.88393 3.99951 0
M  V30 198 N 17.7372 -0.778329 1.37039 0
M  V30 199 C 18.9842 -1.53665 1.31884 0
M  V30 200 C 19.3122 -1.9425 -0.0986303 0
M  V30 201 O 18.5672 -1.63832 -1.07041 0
M  V30 202 C 18.8662 -2.81845 2.19768 0
M  V30 203 C 18.5322 -2.60345 3.68146 0
M  V30 204 C 17.1942 -2.5419 4.08584 0
M  V30 205 C 19.5462 -2.40923 4.62175 0
M  V30 206 C 16.8742 -2.26594 5.41177 0
M  V30 207 C 19.2262 -2.14852 5.94997 0
M  V30 208 C 17.8902 -2.07137 6.34547 0
M  V30 209 H 17.1602 -0.562299 0.482598 0
M  V30 210 H 19.8072 -0.897069 1.69189 0
M  V30 211 H 18.1122 -3.50328 1.75436 0
M  V30 212 H 19.8092 -3.39692 2.13097 0
M  V30 213 H 16.3992 -2.65996 3.36072 0
M  V30 214 H 20.5832 -2.44673 4.31797 0
M  V30 215 H 15.8392 -2.19111 5.70789 0
M  V30 216 H 20.0132 -1.98822 6.67415 0
M  V30 217 H 17.6402 -1.85518 7.37216 0
M  V30 218 N 19.2153 -1.21501 -1.00376 0
M  V30 219 C 20.4613 -1.03452 -1.74429 0
M  V30 220 C 20.7943 0.430764 -1.89362 0
M  V30 221 O 20.0693 1.31962 -1.42886 0
M  V30 222 C 20.3523 -1.73375 -3.15615 0
M  V30 223 C 20.2053 -3.27431 -3.08397 0
M  V30 224 C 21.5243 -1.47732 -4.14564 0
M  V30 225 H 18.6433 -0.377226 -0.633143 0
M  V30 226 H 21.2853 -1.49693 -1.17013 0
M  V30 227 H 19.4353 -1.34064 -3.64636 0
M  V30 228 H 21.1073 -3.76119 -2.67081 0
M  V30 229 H 19.3503 -3.5767 -2.45468 0
M  V30 230 H 20.0213 -3.71524 -4.08258 0
M  V30 231 H 22.4973 -1.8186 -3.74254 0
M  V30 232 H 21.3733 -1.99169 -5.11491 0
M  V30 233 H 21.6343 -0.407589 -4.40217 0
M  V30 234 N 20.6934 1.19889 -1.02296 0
M  V30 235 C 21.9404 1.8942 -0.715972 0
M  V30 236 C 22.2684 1.79251 0.754944 0
M  V30 237 O 21.5234 1.17526 1.56481 0
M  V30 238 C 21.8224 3.39883 -1.10518 0
M  V30 239 C 21.4884 3.70254 -2.57337 0
M  V30 240 C 20.1504 3.78254 -2.97452 0
M  V30 241 C 22.5024 3.84052 -3.52354 0
M  V30 242 C 19.8304 3.97514 -4.31509 0
M  V30 243 C 22.1824 4.04824 -4.86108 0
M  V30 244 C 20.8464 4.11054 -5.25919 0
M  V30 245 H 20.1164 0.693138 -0.261993 0
M  V30 246 H 22.7634 1.42012 -1.28472 0
M  V30 247 H 21.0684 3.8915 -0.454953 0
M  V30 248 H 22.7654 3.9199 -0.845261 0
M  V30 249 H 19.3554 3.64632 -2.25258 0
M  V30 250 H 23.5394 3.77221 -3.22518 0
M  V30 251 H 18.7954 4.00574 -4.61898 0
M  V30 252 H 22.9694 4.14442 -5.59653 0
M  V30 253 H 20.5964 4.2573 -6.29808 0
M  V30 254 N 22.1715 0.800033 1.35784 0
M  V30 255 C 23.1215 0.178654 2.27299 0
M  V30 256 C 24.1055 -0.643667 1.47464 0
M  V30 257 O 25.2975 -0.502 1.69732 0
M  V30 258 C 22.4265 -0.677194 3.36555 0
M  V30 259 C 21.5125 0.154497 4.23818 0
M  V30 260 N 21.9035 1.21427 4.91008 0
M  V30 261 C 20.2015 -0.0649462 4.45953 0
M  V30 262 C 20.9025 1.72147 5.55644 0
M  V30 263 N 19.8785 1.02897 5.33773 0
M  V30 264 H 23.6805 0.989637 2.76737 0
M  V30 265 H 21.1945 0.64054 1.49234 0
M  V30 266 H 23.1915 -1.13835 4.01058 0
M  V30 267 H 21.8515 -1.4866 2.8867 0
M  V30 268 H 22.8625 1.59684 4.92668 0
M  V30 269 H 19.5395 -0.844016 4.0888 0
M  V30 270 H 20.9295 2.60683 6.19269 0
M  V30 271 N 23.6496 -1.47581 0.552962 0
M  V30 272 C 24.8956 -2.02782 0.0273648 0
M  V30 273 C 25.2286 -1.42687 -1.31734 0
M  V30 274 O 24.5036 -0.580897 -1.85623 0
M  V30 275 C 24.7866 -3.60031 -0.0702371 0
M  V30 276 C 24.6396 -4.30566 1.30126 0
M  V30 277 C 25.9586 -4.33028 -0.785771 0
M  V30 278 H 23.0776 -0.736912 0.0114185 0
M  V30 279 H 25.7196 -1.76056 0.714432 0
M  V30 280 H 23.8696 -3.82932 -0.655382 0
M  V30 281 H 25.5416 -4.19018 1.92929 0
M  V30 282 H 23.7846 -3.91086 1.87709 0
M  V30 283 H 24.4556 -5.39114 1.18573 0
M  V30 284 H 26.9316 -4.15095 -0.288982 0
M  V30 285 H 25.8076 -5.42695 -0.823013 0
M  V30 286 H 26.0686 -4.01945 -1.841 0
M  V30 287 N 25.1277 -0.289203 -1.54924 0
M  V30 288 C 26.0747 0.592115 -2.23075 0
M  V30 289 C 27.0447 1.13881 -1.20915 0
M  V30 290 O 28.2297 1.18551 -1.495 0
M  V30 291 C 25.3697 1.76376 -2.96623 0
M  V30 292 C 24.4827 1.24959 -4.13533 0
M  V30 293 C 23.6177 2.38416 -4.74691 0
M  V30 294 C 22.6567 1.84072 -5.83767 0
M  V30 295 N 21.7937 2.91057 -6.38929 0
M  V30 296 H 26.6337 0.00432038 -2.98 0
M  V30 297 H 24.1707 -0.00963529 -1.47097 0
M  V30 298 H 26.1287 2.45268 -3.3749 0
M  V30 299 H 24.7587 2.32337 -2.24097 0
M  V30 300 H 23.8107 0.453307 -3.77689 0
M  V30 301 H 25.1227 0.811662 -4.92152 0
M  V30 302 H 24.2767 3.15276 -5.18349 0
M  V30 303 H 23.0157 2.8553 -3.95378 0
M  V30 304 H 22.0207 1.05697 -5.39545 0
M  V30 305 H 23.2457 1.37877 -6.64956 0
M  V30 306 H 21.1917 3.37526 -5.62505 0
M  V30 307 H 21.1087 2.51724 -7.12861 0
M  V30 308 H 22.3767 3.6785 -6.87246 0
M  V30 309 N 26.6058 1.57591 -0.0167156 0
M  V30 310 C 27.5688 2.08393 0.954204 0
M  V30 311 C 28.5688 0.996531 1.26198 0
M  V30 312 O 29.7588 1.25858 1.20438 0
M  V30 313 C 26.8908 2.5394 2.27436 0
M  V30 314 H 28.0838 2.95455 0.514451 0
M  V30 315 H 25.6368 1.54582 0.231089 0
M  V30 316 H 26.3718 1.70171 2.76066 0
M  V30 317 H 26.1568 3.33371 2.06412 0
M  V30 318 H 27.6468 2.93512 2.97053 0
M  V30 319 N 28.0839 -0.256276 1.55502 0
M  V30 320 C 29.3139 -1.00196 1.80677 0
M  V30 321 C 29.7219 -1.79805 0.588797 0
M  V30 322 O 29.0649 -1.78055 -0.451883 0
M  V30 323 C 29.1269 -1.99515 2.99055 0
M  V30 324 C 28.7909 -1.38688 4.35448 0
M  V30 325 C 29.7879 -0.794079 5.138 0
M  V30 326 C 27.4729 -1.40906 4.82132 0
M  V30 327 C 29.4669 -0.231562 6.36979 0
M  V30 328 C 27.1539 -0.842684 6.05262 0
M  V30 329 C 28.1519 -0.254953 6.82524 0
M  V30 330 O 27.8399 0.3027 8.0333 0
M  V30 331 H 27.5719 -0.300919 0.60533 0
M  V30 332 H 30.1259 -0.287307 2.03381 0
M  V30 333 H 28.3559 -2.74785 2.72084 0
M  V30 334 H 30.0449 -2.60349 3.11405 0
M  V30 335 H 30.8109 -0.769519 4.78856 0
M  V30 336 H 26.6899 -1.85591 4.21992 0
M  V30 337 H 30.2339 0.227816 6.97228 0
M  V30 338 H 26.1309 -0.86454 6.39684 0
M  V30 339 H 26.8989 0.193662 8.18271 0
M  V30 340 N 29.562 -1.4872 -0.521534 0
M  V30 341 C 30.787 -1.61101 -1.30618 0
M  V30 342 C 31.212 -0.274611 -1.86085 0
M  V30 343 O 30.57 0.754937 -1.64834 0
M  V30 344 C 30.618 -2.66709 -2.4269 0
M  V30 345 O 29.722 -2.24456 -3.45967 0
M  V30 346 H 29.063 -0.539921 -0.386499 0
M  V30 347 H 31.593 -1.94767 -0.626645 0
M  V30 348 H 31.603 -2.88245 -2.88754 0
M  V30 349 H 30.278 -3.63727 -2.01682 0
M  V30 350 H 28.855 -2.13168 -3.05964 0
M  V30 351 N 31.0401 0.771051 -1.3745 0
M  V30 352 C 31.9871 1.88435 -1.3327 0
M  V30 353 C 32.9571 1.64914 -0.198136 0
M  V30 354 O 34.1421 1.86821 -0.387606 0
M  V30 355 C 31.2821 3.25509 -1.14622 0
M  V30 356 C 30.3951 3.60979 -2.37314 0
M  V30 357 C 29.5301 4.87265 -2.11533 0
M  V30 358 C 28.5691 5.15469 -3.30088 0
M  V30 359 N 27.7061 6.32944 -3.03853 0
M  V30 360 H 32.5461 1.91344 -2.28455 0
M  V30 361 H 30.0831 0.935466 -1.13523 0
M  V30 362 H 32.0411 4.04582 -1.01831 0
M  V30 363 H 30.6711 3.21974 -0.230837 0
M  V30 364 H 29.7231 2.76885 -2.60842 0
M  V30 365 H 31.0351 3.77759 -3.25729 0
M  V30 366 H 30.1891 5.74244 -1.95777 0
M  V30 367 H 28.9281 4.7259 -1.20457 0
M  V30 368 H 27.9331 4.26966 -3.46382 0
M  V30 369 H 29.1581 5.32052 -4.22016 0
M  V30 370 H 27.1041 6.19625 -2.15407 0
M  V30 371 H 27.0211 6.50143 -3.85812 0
M  V30 372 H 28.2891 7.22857 -2.91716 0
M  V30 373 N 32.5182 1.22032 0.997298 0
M  V30 374 C 33.4662 0.983634 2.10778 0
M  V30 375 C 34.4602 -0.0717564 1.69248 0
M  V30 376 O 35.6662 0.080304 1.79821 0
M  V30 377 H 32.0412 0.300877 0.689186 0
M  V30 378 H 34.0122 1.92606 2.27916 0
M  V30 379 C 32.7612 0.57326 3.42942 0
M  V30 380 H 32.0842 1.37702 3.75338 0
M  V30 381 H 33.5242 0.447031 4.21637 0
M  V30 382 C 31.9832 -0.7167 3.29188 0
M  V30 383 O 32.5132 -1.77027 3.60589 0
M  V30 384 N 30.7192 -0.686167 2.82383 0
M  V30 385 H 30.2662 0.171507 2.57028 0
M  V30 386 H 30.2242 -1.54955 2.73562 0
M  V30 387 N 33.9963 -1.19345 1.0293 0
M  V30 388 C 34.9433 -2.2258 0.610464 0
M  V30 389 C 35.9133 -1.6179 -0.375946 0
M  V30 390 O 37.0983 -1.88844 -0.272511 0
M  V30 391 C 34.2383 -3.45085 -0.0321473 0
M  V30 392 C 33.3513 -4.20258 1.00035 0
M  V30 393 C 32.4863 -5.3019 0.32746 0
M  V30 394 C 31.5253 -5.97121 1.34584 0
M  V30 395 N 30.6623 -6.98615 0.698726 0
M  V30 396 H 35.5023 -2.57764 1.49538 0
M  V30 397 H 33.0393 -1.26644 0.748311 0
M  V30 398 H 34.9973 -4.15061 -0.421966 0
M  V30 399 H 33.6273 -3.10555 -0.88064 0
M  V30 400 H 32.6793 -3.49223 1.50823 0
M  V30 401 H 33.9913 -4.66175 1.77433 0
M  V30 402 H 33.1453 -6.06587 -0.11718 0
M  V30 403 H 31.8843 -4.85345 -0.478713 0
M  V30 404 H 30.8893 -5.19474 1.80074 0
M  V30 405 H 32.1143 -6.4405 2.15352 0
M  V30 406 H 30.0603 -6.55942 -0.0873471 0
M  V30 407 H 29.9773 -7.42724 1.41058 0
M  V30 408 H 31.2453 -7.79004 0.278102 0
M  V30 409 N 35.4744 -0.807222 -1.35358 0
M  V30 410 C 36.7204 -0.388463 -1.99045 0
M  V30 411 C 37.0534 1.04184 -1.63888 0
M  V30 412 O 36.3284 1.72292 -0.902535 0
M  V30 413 C 36.6114 -0.572783 -3.55515 0
M  V30 414 C 36.4644 -2.04807 -4.00468 0
M  V30 415 C 37.7834 0.00114064 -4.401 0
M  V30 416 H 34.9024 -0.142619 -0.723069 0
M  V30 417 H 37.5444 -1.01687 -1.60498 0
M  V30 418 H 35.6944 -0.0378425 -3.88482 0
M  V30 419 H 37.3664 -2.64544 -3.77908 0
M  V30 420 H 35.6094 -2.54427 -3.51353 0
M  V30 421 H 36.2804 -2.12792 -5.09337 0
M  V30 422 H 38.7564 -0.455716 -4.13597 0
M  V30 423 H 37.6324 -0.157737 -5.48673 0
M  V30 424 H 37.8934 1.09488 -4.28328 0
M  V30 425 N 36.9525 1.47285 -0.560781 0
M  V30 426 C 37.8825 2.32857 0.173105 0
M  V30 427 C 38.8635 1.44009 0.905281 0
M  V30 428 O 40.0485 1.7286 0.885046 0
M  V30 429 C 37.1785 3.25861 1.20133 0
M  V30 430 C 36.1325 4.23978 0.585388 0
M  V30 431 C 35.4585 5.06332 1.7185 0
M  V30 432 C 36.7585 5.20242 -0.463178 0
M  V30 433 H 38.4525 2.94466 -0.541307 0
M  V30 434 H 35.9985 1.41601 -0.261764 0
M  V30 435 H 37.9515 3.84569 1.72293 0
M  V30 436 H 36.6755 2.62315 1.94573 0
M  V30 437 H 35.3345 3.66501 0.085054 0
M  V30 438 H 34.9825 4.39186 2.45203 0
M  V30 439 H 34.6825 5.72762 1.31213 0
M  V30 440 H 36.2065 5.67899 2.24329 0
M  V30 441 H 37.6205 5.73293 -0.027502 0
M  V30 442 H 36.0175 5.94896 -0.788627 0
M  V30 443 H 37.0875 4.65504 -1.35773 0
M  V30 444 N 38.4306 0.297415 1.54768 0
M  V30 445 C 39.3776 -0.580276 2.23386 0
M  V30 446 C 40.3476 -1.13238 1.21517 0
M  V30 447 O 41.5326 -1.17757 1.50126 0
M  V30 448 C 38.6726 -1.74801 2.97555 0
M  V30 449 C 37.7856 -1.22764 4.1419 0
M  V30 450 C 36.9206 -2.35895 4.75949 0
M  V30 451 C 35.9596 -1.80974 5.84735 0
M  V30 452 N 35.0966 -2.87664 6.40464 0
M  V30 453 H 39.9366 0.0114833 2.97998 0
M  V30 454 H 37.4736 0.0174361 1.4709 0
M  V30 455 H 39.4316 -2.43475 3.38786 0
M  V30 456 H 38.0616 -2.31145 2.25326 0
M  V30 457 H 37.1136 -0.433271 3.77924 0
M  V30 458 H 38.4256 -0.785551 4.92575 0
M  V30 459 H 37.5796 -3.12523 5.20014 0
M  V30 460 H 36.3186 -2.83429 3.96887 0
M  V30 461 H 35.3236 -1.02834 5.40097 0
M  V30 462 H 36.5486 -1.34348 6.65678 0
M  V30 463 H 34.4946 -3.34538 5.64287 0
M  V30 464 H 34.4116 -2.4794 7.14186 0
M  V30 465 H 35.6796 -3.642 6.89187 0
M  V30 466 N 39.9087 -1.5758 0.0250728 0
M  V30 467 C 41.1387 -1.95646 -0.663783 0
M  V30 468 C 41.5467 -0.899935 -1.66427 0
M  V30 469 O 40.8897 0.127191 -1.83259 0
M  V30 470 C 40.9517 -3.29835 -1.43 0
M  V30 471 C 40.6157 -4.53197 -0.588305 0
M  V30 472 C 41.6127 -5.19726 0.13469 0
M  V30 473 C 39.2977 -4.99529 -0.526897 0
M  V30 474 C 41.2917 -6.30902 0.90781 0
M  V30 475 C 38.9787 -6.10589 0.24993 0
M  V30 476 C 39.9767 -6.76134 0.965994 0
M  V30 477 O 39.6647 -7.85062 1.7301 0
M  V30 478 H 39.3967 -0.649282 -0.188174 0
M  V30 479 H 41.9507 -2.05245 0.0799006 0
M  V30 480 H 40.1807 -3.16716 -2.21873 0
M  V30 481 H 41.8697 -3.52833 -2.00658 0
M  V30 482 H 42.6357 -4.84904 0.0965562 0
M  V30 483 H 38.5147 -4.48319 -1.07381 0
M  V30 484 H 42.0587 -6.81995 1.46724 0
M  V30 485 H 37.9557 -6.44849 0.289795 0
M  V30 486 H 38.7237 -8.01708 1.64944 0
M  V30 487 N 41.3868 0.248026 -1.55636 0
M  V30 488 C 42.3498 1.29044 -1.89421 0
M  V30 489 C 43.3498 1.41134 -0.770581 0
M  V30 490 O 44.5398 1.39854 -1.03858 0
M  V30 491 C 41.6718 2.66831 -2.12165 0
M  V30 492 H 42.8648 1.00305 -2.82629 0
M  V30 493 H 40.4178 0.487265 -1.48511 0
M  V30 494 H 41.1528 3.00711 -1.21422 0
M  V30 495 H 40.9378 2.59438 -2.93997 0
M  V30 496 H 42.4278 3.42103 -2.3949 0
M  V30 497 N 42.8649 1.48995 0.513639 0
M  V30 498 C 43.8119 1.6473 1.61656 0
M  V30 499 C 44.7819 0.488984 1.58739 0
M  V30 500 O 45.9669 0.714478 1.76918 0
M  V30 501 C 43.1069 1.7082 2.99858 0
M  V30 502 C 42.2199 2.9787 3.12885 0
M  V30 503 C 41.3549 2.95017 4.41744 0
M  V30 504 C 40.3939 4.16702 4.48359 0
M  V30 505 N 39.5309 4.11832 5.68629 0
M  V30 506 H 44.3709 2.58909 1.47547 0
M  V30 507 H 41.9079 1.28382 0.71808 0
M  V30 508 H 43.8659 1.72331 3.79944 0
M  V30 509 H 42.4959 0.801181 3.12699 0
M  V30 510 H 41.5479 3.06029 2.25944 0
M  V30 511 H 42.8599 3.8786 3.13633 0
M  V30 512 H 42.0139 2.95021 5.30139 0
M  V30 513 H 40.7529 2.02784 4.43542 0
M  V30 514 H 39.7579 4.16955 3.58369 0
M  V30 515 H 40.9829 5.10113 4.48287 0
M  V30 516 H 38.9289 3.22428 5.71293 0
M  V30 517 H 38.8459 4.95543 5.7094 0
M  V30 518 H 40.1139 4.1592 6.59266 0
M  V30 519 N 44.343 -0.763751 1.37857 0
M  V30 520 C 45.754 -1.3405 1.29952 0
M  V30 521 C 46.105 -1.96138 -0.0492898 0
M  V30 522 O 45.23 -1.94372 -0.951239 0
M  V30 523 C 45.825 -2.43729 2.35333 0
M  V30 524 C 44.384 -2.97151 2.31037 0
M  V30 525 C 43.531 -1.70438 2.18738 0
M  V30 526 H 46.482 -0.563396 1.48363 0
M  V30 527 H 46.503 -3.23412 2.00462 0
M  V30 528 H 46.015 -1.9851 3.33489 0
M  V30 529 H 44.116 -3.46724 1.3643 0
M  V30 530 H 44.229 -3.52221 3.24772 0
M  V30 531 H 42.593 -1.93673 1.65418 0
M  V30 532 H 43.376 -1.27312 3.18821 0
M  V30 533 N 45.8211 -1.22559 -0.990812 0
M  V30 534 C 47.0691 -1.04933 -1.72724 0
M  V30 535 C 47.3901 0.416158 -1.90508 0
M  V30 536 O 46.6601 1.29918 -1.46622 0
M  V30 537 H 45.2401 -0.385296 -0.639965 0
M  V30 538 H 47.9021 -1.54105 -1.19322 0
M  V30 539 H 46.9981 -1.52886 -2.72089 0
M  V30 540 N 47.2992 1.18797 -1.03562 0
M  V30 541 C 48.5462 1.8865 -0.736023 0
M  V30 542 C 48.8742 1.80041 0.735889 0
M  V30 543 O 48.1292 1.19179 1.55225 0
M  V30 544 C 48.4282 3.38692 -1.14117 0
M  V30 545 C 48.0942 3.67504 -2.6125 0
M  V30 546 C 46.7562 3.75078 -3.01447 0
M  V30 547 C 49.1082 3.80293 -3.56408 0
M  V30 548 C 46.4362 3.92915 -4.35701 0
M  V30 549 C 48.7882 3.99645 -4.90374 0
M  V30 550 C 47.4522 4.05453 -5.30249 0
M  V30 551 H 46.7222 0.690321 -0.26933 0
M  V30 552 H 49.3692 1.40641 -1.29971 0
M  V30 553 H 47.6742 3.88645 -0.496202 0
M  V30 554 H 49.3712 3.91072 -0.886789 0
M  V30 555 H 45.9612 3.62223 -2.29113 0
M  V30 556 H 50.1452 3.73779 -3.26501 0
M  V30 557 H 45.4012 3.95653 -4.66121 0
M  V30 558 H 49.5752 4.08482 -5.64017 0
M  V30 559 H 47.2022 4.19027 -6.34288 0
M  V30 560 N 48.7773 0.814389 1.34928 0
M  V30 561 C 50.0263 0.394871 1.97797 0
M  V30 562 C 50.3393 -1.04555 1.65311 0
M  V30 563 O 51.5453 -1.56856 2.21604 0
M  V30 564 C 50.0013 0.655103 3.53888 0
M  V30 565 C 49.6093 2.10858 3.95276 0
M  V30 566 C 51.3533 0.301329 4.23429 0
M  V30 567 C 49.2603 2.31415 5.44244 0
M  V30 568 H 48.1903 0.143913 0.740139 0
M  V30 569 H 50.8413 0.999544 1.53888 0
M  V30 570 H 49.2233 -0.0196253 3.95995 0
M  V30 571 H 50.3973 2.82176 3.64298 0
M  V30 572 H 48.7123 2.42297 3.38646 0
M  V30 573 H 51.3093 0.432869 5.32945 0
M  V30 574 H 51.6523 -0.75331 4.09428 0
M  V30 575 H 52.1853 0.930288 3.86769 0
M  V30 576 H 48.9243 3.35353 5.63222 0
M  V30 577 H 48.4443 1.6463 5.76764 0
M  V30 578 H 50.1233 2.13352 6.10811 0
M  V30 579 N 50.2554 -1.46986 0.568584 0
M  V30 580 C 51.4834 -2.0683 0.0539956 0
M  V30 581 C 51.8984 -1.41953 -1.24478 0
M  V30 582 O 51.2554 -0.519933 -1.74937 0
M  V30 583 C 51.3064 -3.61254 -0.133362 0
M  V30 584 O 51.0274 -4.237 1.11399 0
M  V30 585 C 52.5284 -4.37992 -0.683927 0
M  V30 586 H 49.7484 -0.669058 0.0510141 0
M  V30 587 H 52.2924 -1.88824 0.785234 0
M  V30 588 H 50.4474 -3.78735 -0.81477 0
M  V30 589 H 50.8614 -5.16388 0.91888 0
M  V30 590 H 52.3354 -5.46684 -0.764263 0
M  V30 591 H 52.8124 -4.05058 -1.69778 0
M  V30 592 H 53.4184 -4.25283 -0.0378494 0
M  V30 593 N 51.7335 -0.305618 -1.54608 0
M  V30 594 C 52.6815 0.584119 -2.25146 0
M  V30 595 C 53.6755 1.13326 -1.25911 0
M  V30 596 O 54.8815 1.08337 -1.43747 0
M  V30 597 H 51.2565 0.206983 -0.722954 0
M  V30 598 H 53.2275 -0.033291 -2.98381 0
M  V30 599 C 51.9765 1.74225 -3.009 0
M  V30 600 H 51.2995 1.32892 -3.77067 0
M  V30 601 H 52.7395 2.34077 -3.53531 0
M  V30 602 C 51.1985 2.64914 -2.0814 0
M  V30 603 O 51.7285 3.66137 -1.65246 0
M  V30 604 N 49.9345 2.3275 -1.74 0
M  V30 605 H 49.4815 1.50479 -2.09078 0
M  V30 606 H 49.4395 2.93694 -1.12211 0
M  V30 607 N 53.2116 1.57565 -0.0334293 0
M  V30 608 C 54.1216 2.13943 0.962572 0
M  V30 609 C 55.1376 1.09276 1.35406 0
M  V30 610 O 56.3136 1.41355 1.4346 0
M  V30 611 C 53.3786 2.65887 2.22497 0
M  V30 612 C 52.4396 3.85286 1.8935 0
M  V30 613 C 51.6726 4.34743 3.09571 0
M  V30 614 O 51.8956 3.83352 4.22371 0
M  V30 615 O 50.8296 5.26538 2.91618 0
M  V30 616 H 54.6556 2.99333 0.513169 0
M  V30 617 H 52.2406 1.4822 0.18743 0
M  V30 618 H 54.1226 2.99346 2.96598 0
M  V30 619 H 52.7976 1.83578 2.6661 0
M  V30 620 H 51.7046 3.56746 1.1262 0
M  V30 621 H 53.0376 4.68771 1.5005 0
M  V30 622 N 54.6897 -0.239769 1.55765 0
M  V30 623 C 55.9387 -0.964754 1.77131 0
M  V30 624 C 56.2517 -1.86213 0.59868 0
M  V30 625 O 57.4577 -2.6244 0.695522 0
M  V30 626 C 55.9137 -1.76552 3.1362 0
M  V30 627 C 55.5217 -0.915185 4.38553 0
M  V30 628 C 57.2657 -2.48281 3.44321 0
M  V30 629 C 55.1727 -1.71225 5.66071 0
M  V30 630 H 54.1027 -0.363953 0.660344 0
M  V30 631 H 56.7537 -0.219181 1.82186 0
M  V30 632 H 55.1357 -2.55331 3.02691 0
M  V30 633 H 56.3097 -0.169217 4.60489 0
M  V30 634 H 54.6247 -0.310889 4.15238 0
M  V30 635 H 57.2217 -3.08382 4.36812 0
M  V30 636 H 57.5647 -3.20256 2.65973 0
M  V30 637 H 58.0977 -1.76507 3.56497 0
M  V30 638 H 54.8367 -1.03612 6.4726 0
M  V30 639 H 54.3567 -2.43331 5.48224 0
M  V30 640 H 56.0357 -2.27758 6.05587 0
M  V30 641 N 56.1678 -1.49265 -0.50573 0
M  V30 642 C 57.4448 -1.49012 -1.26707 0
M  V30 643 C 57.8248 -0.215205 -2.1 0
M  V30 644 O 57.1728 0.802547 -2.13943 0
M  V30 645 C 57.3828 -2.7663 -2.12783 0
M  V30 646 C 58.7308 -3.25932 -2.72127 0
M  V30 647 O 59.7548 -2.77715 -2.23054 0
M  V30 648 O 58.6138 -4.09897 -3.61451 0
M  V30 649 H 55.7078 -0.596197 -0.57313 0
M  V30 650 H 58.2538 -1.61524 -0.52039 0
M  V30 651 H 57.0258 -3.60916 -1.5118 0
M  V30 652 H 56.6488 -2.66956 -2.94653 0
M  V30 653 N 57.6459 0.756429 -1.3826 0
M  V30 654 C 58.8949 1.51082 -1.3363 0
M  V30 655 C 59.2079 1.95467 0.0720068 0
M  V30 656 O 60.4139 2.7043 0.240834 0
M  V30 657 C 58.8699 2.72893 -2.34644 0
M  V30 658 C 58.4779 2.35544 -3.81081 0
M  V30 659 C 60.2219 3.50791 -2.39052 0
M  V30 660 C 58.1289 3.53948 -4.73787 0
M  V30 661 H 57.0589 0.56727 -0.49671 0
M  V30 662 H 59.7099 0.827147 -1.638 0
M  V30 663 H 58.0919 3.43227 -1.97513 0
M  V30 664 H 59.2659 1.72894 -4.27135 0
M  V30 665 H 57.5809 1.70786 -3.79764 0
M  V30 666 H 60.1779 4.38823 -3.05513 0
M  V30 667 H 60.5209 3.91745 -1.40861 0
M  V30 668 H 61.0539 2.87467 -2.74968 0
M  V30 669 H 57.7929 3.18064 -5.73163 0
M  V30 670 H 57.3129 4.15651 -4.32428 0
M  V30 671 H 58.9919 4.20566 -4.91663 0
M  V30 672 N 59.124 1.23083 0.984299 0
M  V30 673 C 60.372 1.05848 1.72165 0
M  V30 674 C 60.693 -0.406049 1.90726 0
M  V30 675 O 59.963 -1.29139 1.47309 0
M  V30 676 H 58.543 0.388685 0.637913 0
M  V30 677 H 61.205 1.54736 1.18503 0
M  V30 678 H 60.301 1.54327 2.71274 0
M  V30 679 N 60.6021 -1.18246 1.0419 0
M  V30 680 C 61.5651 -2.20128 0.638452 0
M  V30 681 C 62.5651 -1.57885 -0.304805 0
M  V30 682 O 63.7551 -1.73967 -0.0900369 0
M  V30 683 C 60.8871 -3.4084 -0.0637751 0
M  V30 684 H 62.0801 -2.57336 1.54007 0
M  V30 685 H 59.6331 -1.32152 0.834598 0
M  V30 686 H 60.3681 -3.09166 -0.979136 0
M  V30 687 H 60.1531 -3.8726 0.614198 0
M  V30 688 H 61.6431 -4.16274 -0.332512 0
M  V30 689 N 62.0802 -0.821533 -1.34494 0
M  V30 690 C 63.3102 -0.421272 -2.02259 0
M  V30 691 C 63.7182 0.977047 -1.6202 0
M  V30 692 O 63.0612 1.64348 -0.820703 0
M  V30 693 C 63.1232 -0.44231 -3.56769 0
M  V30 694 C 62.7872 -1.79372 -4.20327 0
M  V30 695 C 63.7842 -2.75435 -4.40944 0
M  V30 696 C 61.4692 -2.08182 -4.57127 0
M  V30 697 C 63.4632 -3.98482 -4.97484 0
M  V30 698 C 61.1502 -3.31489 -5.13379 0
M  V30 699 C 62.1482 -4.26457 -5.33501 0
M  V30 700 O 61.8362 -5.47585 -5.88562 0
M  V30 701 H 61.5682 -0.167473 -0.654927 0
M  V30 702 H 64.1222 -1.11073 -1.72777 0
M  V30 703 H 62.3522 0.303836 -3.85505 0
M  V30 704 H 64.0412 -0.0622925 -4.05852 0
M  V30 705 H 64.8072 -2.54473 -4.12878 0
M  V30 706 H 60.6862 -1.35066 -4.4077 0
M  V30 707 H 64.2302 -4.72618 -5.13106 0
M  V30 708 H 60.1272 -3.52316 -5.40873 0
M  V30 709 H 60.8952 -5.49086 -6.06998 0
M  V30 710 N 63.5583 1.46682 -0.576371 0
M  V30 711 C 64.5213 2.28707 0.150239 0
M  V30 712 C 65.5213 1.38035 0.824794 0
M  V30 713 O 66.7113 1.60476 0.677719 0
M  V30 714 C 63.8433 3.18248 1.22192 0
M  V30 715 H 65.0363 2.94423 -0.570521 0
M  V30 716 H 62.5893 1.52688 -0.334078 0
M  V30 717 H 63.3243 2.57265 1.97447 0
M  V30 718 H 63.1093 3.85 0.742812 0
M  V30 719 H 64.5993 3.80001 1.73172 0
M  V30 720 N 65.0364 0.313813 1.54444 0
M  V30 721 C 65.9834 -0.55655 2.23989 0
M  V30 722 C 66.9534 -1.11943 1.22711 0
M  V30 723 O 68.1384 -1.16158 1.51367 0
M  V30 724 C 65.2784 -1.71635 2.99392 0
M  V30 725 C 64.3914 -1.18364 4.15468 0
M  V30 726 C 63.5264 -2.30834 4.78424 0
M  V30 727 C 62.5654 -1.74762 5.86622 0
M  V30 728 N 61.7024 -2.80855 6.43479 0
M  V30 729 H 66.5424 0.0430893 2.97969 0
M  V30 730 H 64.0794 0.0330359 1.47063 0
M  V30 731 H 66.0374 -2.39868 3.41349 0
M  V30 732 H 64.6674 -2.28742 2.27765 0
M  V30 733 H 63.7194 -0.393163 3.78363 0
M  V30 734 H 65.0314 -0.733262 4.93381 0
M  V30 735 H 64.1854 -3.0699 5.23299 0
M  V30 736 H 62.9244 -2.79204 3.99871 0
M  V30 737 H 61.9294 -0.970995 5.41158 0
M  V30 738 H 63.1544 -1.2728 6.67066 0
M  V30 739 H 61.1004 -3.28535 5.67804 0
M  V30 740 H 61.0174 -2.40351 7.16776 0
M  V30 741 H 62.2854 -3.5687 6.93011 0
M  V30 742 N 66.5145 -1.57545 0.0417849 0
M  V30 743 C 67.9305 -1.56467 -0.314704 0
M  V30 744 C 68.1305 -1.04859 -1.72066 0
M  V30 745 O 67.1865 -0.700983 -2.42575 0
M  V30 746 C 68.4995 -3.00317 -0.15174 0
M  V30 747 C 70.0475 -3.12201 -0.223553 0
M  V30 748 C 70.5225 -4.57913 -0.0892295 0
M  V30 749 N 72.0135 -4.6297 -0.145808 0
M  V30 750 C 72.7485 -5.73362 -0.0658459 0
M  V30 751 N 72.2445 -6.92769 0.0659282 0
M  V30 752 N 74.0375 -5.6197 -0.12075 0
M  V30 753 H 66.1885 -1.89416 0.961014 0
M  V30 754 H 68.4515 -0.871862 0.372237 0
M  V30 755 H 68.1575 -3.42073 0.817254 0
M  V30 756 H 68.0315 -3.65892 -0.916692 0
M  V30 757 H 70.4185 -2.70349 -1.18301 0
M  V30 758 H 70.4995 -2.49323 0.571994 0
M  V30 759 H 70.1435 -5.00448 0.866867 0
M  V30 760 H 70.0735 -5.18786 -0.903802 0
M  V30 761 H 72.5645 -3.7709 -0.247286 0
M  V30 762 H 72.8775 -7.72707 0.119905 0
M  V30 763 H 71.2225 -6.94927 0.100885 0
M  V30 764 H 74.4135 -4.67572 -0.222187 0
M  V30 765 H 74.5865 -6.47977 -0.0549735 0
M  V30 766 N 67.9926 0.231505 -1.5589 0
M  V30 767 C 69.4086 0.580748 -1.48659 0
M  V30 768 C 69.6086 1.87617 -0.73498 0
M  V30 769 O 68.6646 2.51046 -0.270586 0
M  V30 770 C 69.9776 0.669202 -2.93159 0
M  V30 771 C 71.5256 0.760499 -3.03621 0
M  V30 772 C 72.0006 0.880383 -4.49459 0
M  V30 773 N 73.4916 0.944861 -4.53461 0
M  V30 774 C 74.2266 1.05716 -5.63571 0
M  V30 775 N 73.7226 1.13403 -6.83456 0
M  V30 776 N 75.5156 1.09152 -5.514 0
M  V30 777 H 67.6666 -0.618695 -2.03189 0
M  V30 778 H 69.9296 -0.215728 -0.923128 0
M  V30 779 H 69.6356 -0.212904 -3.51055 0
M  V30 780 H 69.5096 1.5361 -3.44505 0
M  V30 781 H 71.8966 1.63305 -2.45796 0
M  V30 782 H 71.9776 -0.131864 -2.5546 0
M  V30 783 H 71.6216 0.0123284 -5.07899 0
M  V30 784 H 71.5516 1.78802 -4.95316 0
M  V30 785 H 74.0426 0.896176 -3.6712 0
M  V30 786 H 74.3556 1.21921 -7.63122 0
M  V30 787 H 72.7006 1.10333 -6.86186 0
M  V30 788 H 75.8916 1.02805 -4.56671 0
M  V30 789 H 76.0646 1.17558 -6.37247 0
M  V30 790 N 69.4707 1.49531 0.497807 0
M  V30 791 C 70.7187 1.58865 1.24926 0
M  V30 792 C 71.0397 0.278721 1.92998 0
M  V30 793 O 70.3097 -0.702144 1.82885 0
M  V30 794 H 68.8897 0.585343 0.464094 0
M  V30 795 H 71.5517 1.86174 0.57666 0
M  V30 796 H 70.6477 2.38633 2.01149 0
M  V30 797 N 70.9488 -0.749086 1.3866 0
M  V30 798 C 71.8958 -1.86291 1.36251 0
M  V30 799 C 72.8658 -1.64578 0.224347 0
M  V30 800 O 74.0508 -1.86181 0.417279 0
M  V30 801 C 71.1908 -3.23644 1.19786 0
M  V30 802 C 70.3038 -3.57158 2.43027 0
M  V30 803 C 69.4388 -4.83838 2.19258 0
M  V30 804 C 68.4778 -5.10152 3.38247 0
M  V30 805 N 67.6148 -6.28029 3.13884 0
M  V30 806 H 72.4548 -1.87685 2.3147 0
M  V30 807 H 69.9918 -0.917287 1.14997 0
M  V30 808 H 71.9498 -4.0291 1.08254 0
M  V30 809 H 70.5798 -3.21566 0.282031 0
M  V30 810 H 69.6318 -2.72701 2.65214 0
M  V30 811 H 70.9438 -3.7253 3.31697 0
M  V30 812 H 70.0978 -5.71057 2.04888 0
M  V30 813 H 68.8368 -4.70614 1.2796 0
M  V30 814 H 67.8418 -4.21401 3.53131 0
M  V30 815 H 69.0668 -5.25271 4.30427 0
M  V30 816 H 67.0128 -6.1612 2.25238 0
M  V30 817 H 66.9298 -6.43922 3.96106 0
M  V30 818 H 68.1978 -7.18124 3.03179 0
M  V30 819 N 72.4269 -1.23603 -0.977757 0
M  V30 820 C 73.6519 -1.09735 -1.75991 0
M  V30 821 C 74.0769 0.346858 -1.84874 0
M  V30 822 O 73.4349 1.25093 -1.3123 0
M  V30 823 C 73.4829 -1.73051 -3.16363 0
M  V30 824 O 72.5869 -0.994452 -4.0023 0
M  V30 825 H 71.9279 -0.384476 -0.541364 0
M  V30 826 H 74.4579 -1.6371 -1.2272 0
M  V30 827 H 74.4679 -1.78398 -3.66931 0
M  V30 828 H 73.1429 -2.78137 -3.09213 0
M  V30 829 H 71.7199 -1.01812 -3.58732 0
M  V30 830 N 73.905 1.17692 -1.04816 0
M  V30 831 C 75.321 1.39863 -0.768794 0
M  V30 832 C 75.521 1.91118 0.638451 0
M  V30 833 O 74.577 2.10036 1.40146 0
M  V30 834 C 75.89 2.39274 -1.82122 0
M  V30 835 C 77.438 2.52987 -1.843 0
M  V30 836 C 77.913 3.55669 -2.88555 0
M  V30 837 N 79.404 3.63183 -2.87493 0
M  V30 838 C 80.139 4.42381 -3.64811 0
M  V30 839 N 79.635 5.25125 -4.51903 0
M  V30 840 N 81.428 4.37217 -3.53267 0
M  V30 841 H 73.579 0.82752 -1.95617 0
M  V30 842 H 75.842 0.426123 -0.846831 0
M  V30 843 H 75.548 2.08678 -2.83102 0
M  V30 844 H 75.422 3.38725 -1.65967 0
M  V30 845 H 77.809 2.82896 -0.839869 0
M  V30 846 H 77.89 1.53623 -2.04532 0
M  V30 847 H 77.534 3.26499 -3.89051 0
M  V30 848 H 77.464 4.54728 -2.65575 0
M  V30 849 H 79.955 3.04103 -2.24343 0
M  V30 850 H 80.268 5.82728 -5.07591 0
M  V30 851 H 78.613 5.24519 -4.55966 0
M  V30 852 H 81.804 3.71626 -2.84625 0
M  V30 853 H 81.977 4.98696 -4.13771 0
M  V30 854 N 75.3831 0.828654 1.34056 0
M  V30 855 C 76.3131 0.269443 2.3194 0
M  V30 856 C 77.2941 -0.617247 1.58506 0
M  V30 857 O 78.4791 -0.542931 1.86456 0
M  V30 858 C 75.6091 -0.564793 3.42677 0
M  V30 859 C 74.5631 0.225241 4.27407 0
M  V30 860 C 73.8891 -0.7321 5.29664 0
M  V30 861 C 75.1891 1.43663 5.02154 0
M  V30 862 H 76.8831 1.08728 2.7896 0
M  V30 863 H 74.4291 0.524283 1.34117 0
M  V30 864 H 76.3821 -0.966233 4.10173 0
M  V30 865 H 75.1061 -1.41574 2.9432 0
M  V30 866 H 73.7651 0.608117 3.61521 0
M  V30 867 H 73.4131 -1.57916 4.77568 0
M  V30 868 H 73.1131 -0.20767 5.87233 0
M  V30 869 H 74.6371 -1.13128 6.00029 0
M  V30 870 H 76.0511 1.1089 5.62473 0
M  V30 871 H 74.4481 1.89711 5.69324 0
M  V30 872 H 75.5181 2.21181 4.31517 0
M  V30 873 N 76.8612 -1.46375 0.584142 0
M  V30 874 C 78.1092 -2.01978 0.0701287 0
M  V30 875 C 78.4302 -1.4579 -1.295 0
M  V30 876 O 77.7002 -0.64314 -1.85042 0
M  V30 877 H 76.2802 -0.746648 0.0229345 0
M  V30 878 H 78.9422 -1.79461 0.760245 0
M  V30 879 H 78.0382 -3.121 0.0022064 0
M  V30 880 N 78.3393 -0.321999 -1.54275 0
M  V30 881 C 79.5643 0.285791 -2.05422 0
M  V30 882 C 79.9893 1.45124 -1.19669 0
M  V30 883 O 79.3473 1.80132 -0.205441 0
M  V30 884 C 79.3953 0.69956 -3.53749 0
M  V30 885 O 78.4993 1.8021 -3.70942 0
M  V30 886 H 77.8403 0.0518962 -0.661969 0
M  V30 887 H 80.3703 -0.469954 -1.9913 0
M  V30 888 H 80.3803 0.982649 -3.9599 0
M  V30 889 H 79.0553 -0.152864 -4.15619 0
M  V30 890 H 77.6323 1.51794 -3.40607 0
M  V30 891 N 79.8174 1.5752 -0.0501392 0
M  V30 892 C 80.7474 2.14502 0.922566 0
M  V30 893 C 81.7284 1.06642 1.3252 0
M  V30 894 O 82.9134 1.34577 1.4001 0
M  V30 895 C 80.0434 2.68916 2.19776 0
M  V30 896 C 78.9974 3.8175 1.93523 0
M  V30 897 C 78.3234 4.22677 3.27487 0
M  V30 898 C 79.6234 5.06932 1.25765 0
M  V30 899 H 81.3174 2.9603 0.447952 0
M  V30 900 H 78.8634 1.42401 0.214024 0
M  V30 901 H 80.8164 3.07419 2.88222 0
M  V30 902 H 79.5404 1.84578 2.69441 0
M  V30 903 H 78.1994 3.43718 1.27489 0
M  V30 904 H 77.8474 3.35291 3.74952 0
M  V30 905 H 77.5474 4.98725 3.1072 0
M  V30 906 H 79.0714 4.63779 3.97166 0
M  V30 907 H 80.4854 5.42888 1.84244 0
M  V30 908 H 78.8824 5.88116 1.19328 0
M  V30 909 H 79.9524 4.84337 0.233536 0
M  V30 910 N 81.2955 -0.223234 1.56011 0
M  V30 911 C 82.2455 -1.28008 1.88674 0
M  V30 912 C 83.2295 -1.42369 0.749663 0
M  V30 913 O 84.4215 -1.45212 1.01205 0
M  V30 914 C 81.5505 -2.63084 2.20548 0
M  V30 915 C 80.6365 -2.52632 3.40643 0
M  V30 916 N 81.0275 -2.11829 4.59306 0
M  V30 917 C 79.3255 -2.83594 3.44224 0
M  V30 918 C 80.0265 -2.12587 5.41463 0
M  V30 919 N 79.0025 -2.5301 4.81131 0
M  V30 920 H 82.8045 -0.955487 2.77935 0
M  V30 921 H 80.3185 -0.431801 1.56554 0
M  V30 922 H 82.3155 -3.39385 2.42122 0
M  V30 923 H 80.9755 -2.96391 1.32599 0
M  V30 924 H 81.9865 -1.82988 4.84496 0
M  V30 925 H 78.6635 -3.21284 2.66614 0
M  V30 926 H 80.0535 -1.83179 6.46448 0
M  V30 927 N 82.7736 -1.49793 -0.48987 0
M  V30 928 C 83.7216 -1.67783 -1.61095 0
M  V30 929 C 84.7156 -0.543683 -1.60438 0
M  V30 930 O 85.9216 -0.723647 -1.64813 0
M  V30 931 H 82.2966 -0.529255 -0.534222 0
M  V30 932 H 84.2676 -2.61861 -1.43078 0
M  V30 933 C 83.0166 -1.77191 -2.99164 0
M  V30 934 H 82.3396 -2.63841 -3.0038 0
M  V30 935 H 83.7796 -1.93809 -3.77113 0
M  V30 936 C 82.2386 -0.519203 -3.32875 0
M  V30 937 O 82.7686 0.350124 -4.00171 0
M  V30 938 N 80.9746 -0.378816 -2.8812 0
M  V30 939 H 80.5216 -1.08725 -2.33531 0
M  V30 940 H 80.4796 0.458239 -3.11043 0
M  V30 941 N 84.2517 0.741722 -1.39055 0
M  V30 942 C 85.4817 1.52876 -1.3897 0
M  V30 943 C 85.8897 1.8919 0.0193266 0
M  V30 944 O 85.2327 1.54138 0.999356 0
M  V30 945 C 85.2947 2.84929 -2.19216 0
M  V30 946 C 84.9587 2.71086 -3.67915 0
M  V30 947 C 85.9557 2.40084 -4.61146 0
M  V30 948 C 83.6407 2.88168 -4.11418 0
M  V30 949 C 85.6347 2.26335 -5.95862 0
M  V30 950 C 83.3217 2.74037 -5.46211 0
M  V30 951 C 84.3197 2.43166 -6.38247 0
M  V30 952 O 84.0077 2.29115 -7.70559 0
M  V30 953 H 83.7397 0.479252 -0.476753 0
M  V30 954 H 86.2937 0.924751 -1.83405 0
M  V30 955 H 84.5237 3.47564 -1.69518 0
M  V30 956 H 86.2127 3.46509 -2.11392 0
M  V30 957 H 86.9787 2.26545 -4.28838 0
M  V30 958 H 82.8577 3.11191 -3.40119 0
M  V30 959 H 86.4017 2.0216 -6.67665 0
M  V30 960 H 82.2987 2.87153 -5.78112 0
M  V30 961 H 83.0667 2.44237 -7.81211 0
M  V30 962 N 85.7298 1.2412 0.971189 0
M  V30 963 C 86.9778 1.07668 1.71032 0
M  V30 964 C 87.2988 -0.385797 1.91146 0
M  V30 965 O 86.5688 -1.27569 1.4867 0
M  V30 966 H 85.1488 0.395429 0.633755 0
M  V30 967 H 87.8108 1.55984 1.16855 0
M  V30 968 H 86.9068 1.57195 2.69622 0
M  V30 969 N 87.2079 -1.17134 1.05439 0
M  V30 970 C 88.4379 -1.91094 0.785274 0
M  V30 971 C 88.8459 -1.77198 -0.663142 0
M  V30 972 O 88.1889 -1.10835 -1.46497 0
M  V30 973 C 88.2509 -3.42594 1.08949 0
M  V30 974 C 87.9149 -3.80274 2.53458 0
M  V30 975 C 88.9119 -3.82912 3.51673 0
M  V30 976 C 86.5969 -4.11162 2.88532 0
M  V30 977 C 88.5909 -4.15913 4.83006 0
M  V30 978 C 86.2779 -4.43831 4.20068 0
M  V30 979 C 87.2759 -4.46185 5.17115 0
M  V30 980 O 86.9639 -4.78083 6.46291 0
M  V30 981 H 86.6959 -0.613073 0.284811 0
M  V30 982 H 89.2499 -1.49461 1.40893 0
M  V30 983 H 87.4799 -3.84534 0.408741 0
M  V30 984 H 89.1689 -3.97817 0.805991 0
M  V30 985 H 89.9349 -3.5917 3.25917 0
M  V30 986 H 85.8139 -4.085 2.13656 0
M  V30 987 H 89.3579 -4.17665 5.5875 0
M  V30 988 H 85.2549 -4.67037 4.45586 0
M  V30 989 H 86.0229 -4.9593 6.51149 0
M  V30 990 N 88.686 -0.835752 -1.33615 0
M  V30 991 C 89.914 -0.443344 -2.02094 0
M  V30 992 C 90.329 0.954522 -1.62894 0
M  V30 993 O 89.686 1.61982 -0.840723 0
M  V30 994 C 89.737 -0.550775 -3.5728 0
M  V30 995 O 89.458 -1.89356 -3.95065 0
M  V30 996 C 90.959 -0.154919 -4.43029 0
M  V30 997 H 88.179 -0.176359 -0.647409 0
M  V30 998 H 90.723 -1.12746 -1.70612 0
M  V30 999 H 88.878 0.0853997 -3.87306 0
M  V30 1000 H 89.292 -1.87687 -4.89769 0
M  V30 1001 H 90.766 -0.281144 -5.51284 0
M  V30 1002 H 91.243 0.902863 -4.2982 0
M  V30 1003 H 91.849 -0.765404 -4.18356 0
M  V30 1004 N 90.1641 1.46063 -0.591896 0
M  V30 1005 C 91.3891 2.07226 -0.0850314 0
M  V30 1006 C 91.8141 1.43625 1.21463 0
M  V30 1007 O 91.1721 0.523305 1.73583 0
M  V30 1008 C 91.2201 3.60554 0.0576567 0
M  V30 1009 O 90.3241 3.97128 1.11188 0
M  V30 1010 H 89.6651 0.660615 -0.0669568 0
M  V30 1011 H 92.1951 1.8756 -0.81745 0
M  V30 1012 H 92.2051 4.07165 0.2609 0
M  V30 1013 H 90.8801 4.06235 -0.891416 0
M  V30 1014 H 89.4571 3.62213 0.886356 0
M  V30 1015 N 91.6422 0.330177 1.54103 0
M  V30 1016 C 92.8702 -0.272179 2.05102 0
M  V30 1017 C 93.2852 -1.45267 1.20595 0
M  V30 1018 O 92.6422 -1.8094 0.238144 0
M  V30 1019 C 92.6932 -0.70023 3.54653 0
M  V30 1020 O 92.4142 0.433301 4.35952 0
M  V30 1021 C 93.9152 -1.3647 4.21771 0
M  V30 1022 H 91.1352 -0.0549159 0.668749 0
M  V30 1023 H 93.6792 0.478285 1.98828 0
M  V30 1024 H 91.8342 -1.40066 3.61193 0
M  V30 1025 H 92.2482 0.0947539 5.24414 0
M  V30 1026 H 93.7222 -1.61509 5.27843 0
M  V30 1027 H 94.1992 -2.31409 3.73292 0
M  V30 1028 H 94.8052 -0.706675 4.19388 0
M  V30 1029 N 93.1203 -1.57491 0.0584922 0
M  V30 1030 C 94.0673 -2.11958 -0.913376 0
M  V30 1031 C 95.0373 -1.02875 -1.30407 0
M  V30 1032 O 96.2223 -1.30464 -1.39226 0
M  V30 1033 C 93.3623 -2.67497 -2.18035 0
M  V30 1034 C 92.4753 -3.90691 -1.84349 0
M  V30 1035 C 91.6103 -4.3452 -3.05559 0
M  V30 1036 C 90.6493 -5.50395 -2.67827 0
M  V30 1037 N 89.7863 -5.89244 -3.81754 0
M  V30 1038 H 94.6263 -2.94704 -0.442017 0
M  V30 1039 H 92.1633 -1.45643 -0.206545 0
M  V30 1040 H 94.1213 -2.978 -2.92183 0
M  V30 1041 H 92.7513 -1.87537 -2.62735 0
M  V30 1042 H 91.8033 -3.66934 -1.00319 0
M  V30 1043 H 93.1153 -4.7489 -1.5258 0
M  V30 1044 H 92.2693 -4.66414 -3.87998 0
M  V30 1045 H 91.0083 -3.49147 -3.40511 0
M  V30 1046 H 90.0133 -5.18165 -1.83806 0
M  V30 1047 H 91.2383 -6.3749 -2.34059 0
M  V30 1048 H 89.1843 -5.06823 -4.16493 0
M  V30 1049 H 89.1013 -6.68151 -3.53708 0
M  V30 1050 H 90.3693 -6.25756 -4.64811 0
M  V30 1051 N 94.5984 0.214957 -1.56127 0
M  V30 1052 C 95.8234 0.95924 -1.83884 0
M  V30 1053 C 96.2484 1.7689 -0.639644 0
M  V30 1054 O 95.6064 1.76566 0.411601 0
M  V30 1055 C 95.6544 1.84723 -3.09693 0
M  V30 1056 O 94.7584 2.94346 -2.8885 0
M  V30 1057 H 94.0994 0.27125 -0.606069 0
M  V30 1058 H 96.6294 0.226276 -2.03345 0
M  V30 1059 H 96.6394 2.25576 -3.39969 0
M  V30 1060 H 95.3144 1.25218 -3.96602 0
M  V30 1061 H 93.8914 2.57391 -2.69823 0
M  V30 1062 N 96.0765 1.50051 0.48192 0
M  V30 1063 C 97.3225 1.60736 1.2366 0
M  V30 1064 C 97.6555 0.301786 1.91841 0
M  V30 1065 O 96.9305 -0.696025 1.8162 0
M  V30 1066 C 97.2135 2.78009 2.28874 0
M  V30 1067 C 97.0665 4.18416 1.65069 0
M  V30 1068 C 98.3855 2.90867 3.30279 0
M  V30 1069 H 95.5045 0.585031 0.448228 0
M  V30 1070 H 98.1465 1.82402 0.531946 0
M  V30 1071 H 96.2965 2.59667 2.88973 0
M  V30 1072 H 97.9685 4.48322 1.0865 0
M  V30 1073 H 96.2115 4.23177 0.954148 0
M  V30 1074 H 96.8825 4.96381 2.41474 0
M  V30 1075 H 99.3585 3.07623 2.80191 0
M  V30 1076 H 98.2345 3.74566 4.01238 0
M  V30 1077 H 98.4955 2.01021 3.93755 0
M  V30 1078 N 97.5546 -0.734337 1.39446 0
M  V30 1079 C 98.8316 -1.48579 1.27215 0
M  V30 1080 C 99.2116 -2.1077 -0.117968 0
M  V30 1081 O 98.5596 -1.98646 -1.12924 0
M  V30 1082 C 98.7696 -2.53667 2.39696 0
M  V30 1083 C 100.118 -3.20031 2.79044 0
M  V30 1084 O 101.142 -2.6398 2.39151 0
M  V30 1085 O 100.001 -4.21455 3.47905 0
M  V30 1086 H 97.0946 -0.659816 0.49857 0
M  V30 1087 H 99.6406 -0.768106 1.51322 0
M  V30 1088 H 98.4126 -2.06096 3.32626 0
M  V30 1089 H 98.0356 -3.32994 2.17258 0
M  V30 1090 N 99.0327 -1.24633 -0.964593 0
M  V30 1091 C 99.9807 -1.03917 -2.08096 0
M  V30 1092 C 100.975 0.0268581 -1.69379 0
M  V30 1093 O 102.181 -0.127952 -1.79545 0
M  V30 1094 H 98.5557 -0.319044 -0.680966 0
M  V30 1095 H 100.527 -1.98581 -2.22729 0
M  V30 1096 C 99.2757 -0.663983 -3.41301 0
M  V30 1097 H 98.5987 -1.47605 -3.71555 0
M  V30 1098 H 100.039 -0.558663 -4.20303 0
M  V30 1099 C 98.4977 0.629169 -3.30973 0
M  V30 1100 O 99.0277 1.67404 -3.65156 0
M  V30 1101 N 97.2337 0.611057 -2.84103 0
M  V30 1102 H 96.7807 -0.239593 -2.56483 0
M  V30 1103 H 96.7387 1.47647 -2.77575 0
M  V30 1104 N 100.511 1.16574 -1.06058 0
M  V30 1105 C 101.443 2.2045 -0.627239 0
M  V30 1106 C 102.456 1.59752 0.313534 0
M  V30 1107 O 103.645 1.78192 0.104896 0
M  V30 1108 C 100.745 3.3875 0.100974 0
M  V30 1109 C 99.9178 4.29008 -0.852687 0
M  V30 1110 C 98.9768 5.25944 -0.164152 0
M  V30 1111 O 98.0028 5.63535 -0.801047 0
M  V30 1112 N 99.2048 5.70075 1.09518 0
M  V30 1113 H 101.97 2.58249 -1.52077 0
M  V30 1114 H 99.5308 1.3156 -0.943594 0
M  V30 1115 H 101.523 4.00638 0.57194 0
M  V30 1116 H 100.093 2.99476 0.89628 0
M  V30 1117 H 99.3128 3.64419 -1.50308 0
M  V30 1118 H 100.601 4.86195 -1.49972 0
M  V30 1119 H 99.9988 5.41624 1.6328 0
M  V30 1120 H 98.5558 6.34067 1.51006 0
M  V30 1121 N 101.989 0.842826 1.3317 0
M  V30 1122 C 103.238 0.436738 1.96915 0
M  V30 1123 C 103.551 -1.01025 1.67491 0
M  V30 1124 O 104.757 -1.5212 2.24881 0
M  V30 1125 C 103.213 0.730021 3.52418 0
M  V30 1126 C 102.821 2.19195 3.90714 0
M  V30 1127 C 104.565 0.391076 4.22695 0
M  V30 1128 C 102.472 2.42907 5.39212 0
M  V30 1129 H 101.402 0.15958 0.736919 0
M  V30 1130 H 104.053 1.03196 1.51733 0
M  V30 1131 H 102.435 0.0643755 3.95948 0
M  V30 1132 H 103.609 2.8984 3.58231 0
M  V30 1133 H 101.924 2.49425 3.33431 0
M  V30 1134 H 104.521 0.545817 5.31907 0
M  V30 1135 H 104.864 -0.666294 4.10933 0
M  V30 1136 H 105.397 1.01212 3.84709 0
M  V30 1137 H 102.136 3.47224 5.55982 0
M  V30 1138 H 101.656 1.76827 5.73142 0
M  V30 1139 H 103.335 2.2626 6.06148 0
M  V30 1140 N 103.467 -1.45747 0.599634 0
M  V30 1141 C 104.377 -2.34262 -0.125888 0
M  V30 1142 C 105.393 -1.50768 -0.868625 0
M  V30 1143 O 106.569 -1.83592 -0.828003 0
M  V30 1144 C 103.634 -3.28252 -1.11587 0
M  V30 1145 C 102.695 -4.27651 -0.375956 0
M  V30 1146 C 101.928 -5.1715 -1.31877 0
M  V30 1147 O 102.151 -5.09916 -2.55621 0
M  V30 1148 O 101.085 -5.96286 -0.820157 0
M  V30 1149 H 104.911 -2.97688 0.601315 0
M  V30 1150 H 102.496 -1.44999 0.359934 0
M  V30 1151 H 104.378 -3.86191 -1.68626 0
M  V30 1152 H 103.053 -2.67401 -1.82424 0
M  V30 1153 H 101.96 -3.7335 0.236698 0
M  V30 1154 H 103.293 -4.91334 0.29177 0
M  V30 1155 N 104.945 -0.338344 -1.53925 0
M  V30 1156 C 105.855 0.529421 -2.28548 0
M  V30 1157 C 106.871 1.11645 -1.3346 0
M  V30 1158 O 108.047 1.13325 -1.66492 0
M  V30 1159 C 105.112 1.66713 -3.03987 0
M  V30 1160 C 104.173 1.11041 -4.14691 0
M  V30 1161 C 103.406 2.19389 -4.86522 0
M  V30 1162 O 103.629 3.40013 -4.57982 0
M  V30 1163 O 102.563 1.83976 -5.73094 0
M  V30 1164 H 106.389 -0.0770399 -3.03602 0
M  V30 1165 H 103.974 -0.103555 -1.49041 0
M  V30 1166 H 105.856 2.32918 -3.5118 0
M  V30 1167 H 104.531 2.25949 -2.31794 0
M  V30 1168 H 103.438 0.413024 -3.71813 0
M  V30 1169 H 104.771 0.562975 -4.8897 0
M  V30 1170 N 106.423 1.57458 -0.0668435 0
M  V30 1171 C 107.353 2.15468 0.899764 0
M  V30 1172 C 108.334 1.08042 1.31381 0
M  V30 1173 O 109.519 1.36054 1.38574 0
M  V30 1174 C 106.649 2.71232 2.16911 0
M  V30 1175 C 105.603 3.83781 1.89463 0
M  V30 1176 C 104.929 4.26127 3.22986 0
M  V30 1177 C 106.229 5.08238 1.20381 0
M  V30 1178 H 107.923 2.96488 0.416529 0
M  V30 1179 H 105.469 1.4262 0.198908 0
M  V30 1180 H 107.422 3.10458 2.84945 0
M  V30 1181 H 106.146 1.87426 2.67468 0
M  V30 1182 H 104.805 3.45051 1.23836 0
M  V30 1183 H 104.453 3.39249 3.71374 0
M  V30 1184 H 104.153 5.01993 3.05413 0
M  V30 1185 H 105.677 4.67966 3.92225 0
M  V30 1186 H 107.091 5.44811 1.78475 0
M  V30 1187 H 105.488 5.89349 1.13083 0
M  V30 1188 H 106.558 4.84558 0.182153 0
M  V30 1189 N 107.901 -0.206675 1.56239 0
M  V30 1190 C 109.317 -0.557025 1.49564 0
M  V30 1191 C 109.517 -1.86424 0.764735 0
M  V30 1192 O 108.573 -2.50584 0.310491 0
M  V30 1193 C 109.886 -0.622478 2.94186 0
M  V30 1194 C 111.434 -0.712099 3.04792 0
M  V30 1195 C 111.909 -0.808767 4.50803 0
M  V30 1196 N 113.4 -0.8726 4.54907 0
M  V30 1197 C 114.135 -0.967365 5.65181 0
M  V30 1198 N 113.631 -1.02515 6.85173 0
M  V30 1199 N 115.424 -1.00366 5.53067 0
M  V30 1200 H 107.575 0.650943 2.02179 0
M  V30 1201 H 109.838 0.230387 0.919579 0
M  V30 1202 H 109.544 0.268727 3.50672 0
M  V30 1203 H 109.418 -1.4811 3.46905 0
M  V30 1204 H 111.805 -1.59374 2.48363 0
M  V30 1205 H 111.886 0.172489 2.55218 0
M  V30 1206 H 111.53 0.0684754 5.07854 0
M  V30 1207 H 111.46 -1.70899 4.98098 0
M  V30 1208 H 113.951 -0.837657 3.68499 0
M  V30 1209 H 114.264 -1.09765 7.64965 0
M  V30 1210 H 112.609 -0.994026 6.87855 0
M  V30 1211 H 115.8 -0.95527 4.58249 0
M  V30 1212 H 115.973 -1.07405 6.39037 0
M  V30 1213 N 109.379 -1.50304 -0.473955 0
M  V30 1214 C 110.289 -1.7174 -1.5982 0
M  V30 1215 C 111.305 -0.600457 -1.63311 0
M  V30 1216 O 112.481 -0.878441 -1.81233 0
M  V30 1217 C 109.546 -1.80427 -2.96052 0
M  V30 1218 C 108.607 -3.04148 -3.02972 0
M  V30 1219 C 107.84 -3.12411 -4.32706 0
M  V30 1220 O 108.063 -2.27542 -5.23049 0
M  V30 1221 O 106.997 -4.05113 -4.45159 0
M  V30 1222 H 110.823 -2.67035 -1.44657 0
M  V30 1223 H 108.408 -1.34366 -0.653148 0
M  V30 1224 H 110.29 -1.88338 -3.7697 0
M  V30 1225 H 108.965 -0.883156 -3.11419 0
M  V30 1226 H 107.872 -3.0174 -2.21142 0
M  V30 1227 H 109.205 -3.95829 -2.92541 0
M  V30 1228 N 110.857 0.726932 -1.39834 0
M  V30 1229 C 111.804 1.841 -1.39197 0
M  V30 1230 C 112.774 1.642 -0.250502 0
M  V30 1231 O 113.959 1.85494 -0.446846 0
M  V30 1232 C 111.099 3.21697 -1.24919 0
M  V30 1233 C 110.212 3.53247 -2.48678 0
M  V30 1234 C 109.347 4.80289 -2.26928 0
M  V30 1235 C 108.386 5.04707 -3.4632 0
M  V30 1236 N 107.523 6.22956 -3.23836 0
M  V30 1237 H 112.363 1.83979 -2.34427 0
M  V30 1238 H 109.9 0.898876 -1.16442 0
M  V30 1239 H 111.858 4.01137 -1.1465 0
M  V30 1240 H 110.488 3.21076 -0.333153 0
M  V30 1241 H 109.54 2.68447 -2.69519 0
M  V30 1242 H 110.852 3.67205 -3.37582 0
M  V30 1243 H 110.006 5.67725 -2.13947 0
M  V30 1244 H 108.745 4.68519 -1.35431 0
M  V30 1245 H 107.75 4.1573 -3.5979 0
M  V30 1246 H 108.975 5.18357 -4.38729 0
M  V30 1247 H 106.921 6.12459 -2.35011 0
M  V30 1248 H 106.838 6.37539 -4.063 0
M  V30 1249 H 108.106 7.1321 -3.14566 0
M  V30 1250 N 112.336 1.25143 0.95797 0
M  V30 1251 C 113.582 1.09855 1.70469 0
M  V30 1252 C 113.915 -0.360187 1.90831 0
M  V30 1253 O 113.19 -1.26568 1.47685 0
M  V30 1254 C 113.473 1.8497 3.08963 0
M  V30 1255 C 113.326 3.38652 2.96032 0
M  V30 1256 C 114.645 1.63016 4.08795 0
M  V30 1257 H 111.764 0.400465 0.618706 0
M  V30 1258 H 114.406 1.53933 1.11376 0
M  V30 1259 H 112.556 1.47505 3.59409 0
M  V30 1260 H 114.228 3.85772 2.52938 0
M  V30 1261 H 112.471 3.66534 2.32025 0
M  V30 1262 H 113.142 3.8642 3.94187 0
M  V30 1263 H 115.618 1.95625 3.67247 0
M  V30 1264 H 114.494 2.18015 5.03747 0
M  V30 1265 H 114.755 0.570692 4.38401 0
M  V30 1266 N 113.814 -1.1601 1.06675 0
M  V30 1267 C 115.06 -1.86909 0.786945 0
M  V30 1268 C 115.393 -1.81717 -0.685018 0
M  V30 1269 O 114.668 -1.23551 -1.50218 0
M  V30 1270 C 114.951 -3.36313 1.28707 0
M  V30 1271 C 114.804 -3.50175 2.82308 0
M  V30 1272 C 116.123 -4.3084 0.898071 0
M  V30 1273 H 113.242 -0.678677 0.287343 0
M  V30 1274 H 115.884 -1.36336 1.32334 0
M  V30 1275 H 114.034 -3.79513 0.830768 0
M  V30 1276 H 115.706 -3.15886 3.36175 0
M  V30 1277 H 113.949 -2.91959 3.20847 0
M  V30 1278 H 114.62 -4.55116 3.12368 0
M  V30 1279 H 117.096 -3.95561 1.29114 0
M  V30 1280 H 115.972 -5.33876 1.27543 0
M  V30 1281 H 116.233 -4.41662 -0.196651 0
M  V30 1282 N 115.292 -0.849877 -1.32721 0
M  V30 1283 C 116.517 -0.463856 -2.02146 0
M  V30 1284 C 116.942 0.930449 -1.63476 0
M  V30 1285 O 116.3 1.61033 -0.832952 0
M  V30 1286 C 116.348 -0.604955 -3.55489 0
M  V30 1287 O 115.452 0.36425 -4.10788 0
M  V30 1288 H 114.793 -0.187046 -0.637111 0
M  V30 1289 H 117.323 -1.14775 -1.69375 0
M  V30 1290 H 117.333 -0.490696 -4.05038 0
M  V30 1291 H 116.008 -1.62174 -3.82978 0
M  V30 1292 H 114.585 0.206628 -3.72327 0
M  V30 1293 N 116.77 1.45427 -0.607355 0
M  V30 1294 C 117.717 2.3053 0.111625 0
M  V30 1295 C 118.687 1.4209 0.860216 0
M  V30 1296 O 119.872 1.71019 0.845998 0
M  V30 1297 C 117.012 3.26992 1.10319 0
M  V30 1298 C 116.125 4.30535 0.355493 0
M  V30 1299 C 115.26 5.14105 1.33676 0
M  V30 1300 C 114.299 6.09376 0.576862 0
M  V30 1301 N 113.436 6.85727 1.5074 0
M  V30 1302 H 118.276 2.91477 -0.620093 0
M  V30 1303 H 115.813 1.43631 -0.317594 0
M  V30 1304 H 117.771 3.81385 1.6912 0
M  V30 1305 H 116.401 2.67799 1.80232 0
M  V30 1306 H 115.453 3.78805 -0.348023 0
M  V30 1307 H 116.765 4.98235 -0.237423 0
M  V30 1308 H 115.919 5.72897 1.99684 0
M  V30 1309 H 114.658 4.46423 1.9636 0
M  V30 1310 H 113.663 5.49715 -0.0968519 0
M  V30 1311 H 114.888 6.79085 -0.0449341 0
M  V30 1312 H 112.834 6.20735 2.12189 0
M  V30 1313 H 112.751 7.49778 0.967913 0
M  V30 1314 H 114.019 7.4906 2.15706 0
M  V30 1315 N 118.248 0.346503 1.53744 0
M  V30 1316 C 119.196 -0.52422 2.26616 0
M  V30 1317 C 120.19 -1.09948 1.28871 0
M  V30 1318 O 121.396 -1.04488 1.46568 0
M  V30 1319 H 117.771 -0.187743 0.728187 0
M  V30 1320 H 119.742 0.11239 2.98188 0
M  V30 1321 C 118.491 -1.66186 3.05414 0
M  V30 1322 H 117.814 -1.22848 3.80458 0
M  V30 1323 H 119.254 -2.24622 3.59612 0
M  V30 1324 C 117.713 -2.59302 2.1509 0
M  V30 1325 O 118.243 -3.61628 1.74895 0
M  V30 1326 N 116.449 -2.28055 1.8011 0
M  V30 1327 H 115.996 -1.44883 2.12994 0
M  V30 1328 H 115.954 -2.90615 1.19958 0
M  V30 1329 N 119.726 -1.57421 0.075193 0
M  V30 1330 C 120.673 -2.12915 -0.890843 0
M  V30 1331 C 121.643 -1.04252 -1.29309 0
M  V30 1332 O 122.828 -1.31933 -1.37834 0
M  V30 1333 C 119.968 -2.69795 -2.15186 0
M  V30 1334 C 119.081 -3.92624 -1.80194 0
M  V30 1335 C 118.216 -4.37736 -3.00933 0
M  V30 1336 C 117.255 -5.53205 -2.61974 0
M  V30 1337 N 116.392 -5.9326 -3.75483 0
M  V30 1338 H 121.232 -2.95156 -0.410735 0
M  V30 1339 H 118.769 -1.45854 -0.191086 0
M  V30 1340 H 120.727 -3.00883 -2.89008 0
M  V30 1341 H 119.357 -1.90313 -2.60731 0
M  V30 1342 H 118.409 -3.67977 -0.964218 0
M  V30 1343 H 119.721 -4.76482 -1.47534 0
M  V30 1344 H 118.875 -4.70503 -3.8303 0
M  V30 1345 H 117.614 -3.52739 -3.36789 0
M  V30 1346 H 116.619 -5.20086 -1.783 0
M  V30 1347 H 117.844 -6.39936 -2.27284 0
M  V30 1348 H 115.79 -5.11212 -4.11094 0
M  V30 1349 H 115.707 -6.71865 -3.46602 0
M  V30 1350 H 116.975 -6.30651 -4.58148 0
M  V30 1351 N 121.204 0.198386 -1.56346 0
M  V30 1352 C 122.152 1.26538 -1.95169 0
M  V30 1353 C 123.146 1.47295 -0.836685 0
M  V30 1354 O 124.352 1.48195 -1.02167 0
M  V30 1355 H 120.727 0.424744 -0.620561 0
M  V30 1356 H 122.698 0.910904 -2.84157 0
M  V30 1357 C 121.447 2.6035 -2.30463 0
M  V30 1358 H 120.77 2.45192 -3.15786 0
M  V30 1359 H 122.21 3.33762 -2.61494 0
M  V30 1360 C 120.669 3.17096 -1.13806 0
M  V30 1361 O 121.199 3.99588 -0.41135 0
M  V30 1362 N 119.405 2.75795 -0.915736 0
M  V30 1363 H 118.952 2.08816 -1.50843 0
M  V30 1364 H 118.91 3.14101 -0.136979 0
M  V30 1365 N 122.682 1.50554 0.465978 0
M  V30 1366 C 123.592 1.72585 1.58907 0
M  V30 1367 C 124.608 0.60911 1.6299 0
M  V30 1368 O 125.784 0.88804 1.80765 0
M  V30 1369 C 122.849 1.81995 2.95091 0
M  V30 1370 C 121.91 3.05751 3.01355 0
M  V30 1371 C 121.143 3.14702 4.31043 0
M  V30 1372 O 121.366 2.30313 5.21835 0
M  V30 1373 O 120.3 4.07468 4.43005 0
M  V30 1374 H 124.126 2.67799 1.43239 0
M  V30 1375 H 121.711 1.34711 0.646013 0
M  V30 1376 H 123.593 1.90335 3.75966 0
M  V30 1377 H 122.268 0.899659 3.10947 0
M  V30 1378 H 121.175 3.02908 2.19539 0
M  V30 1379 H 122.508 3.97375 2.90437 0
M  V30 1380 N 124.16 -0.719506 1.40217 0
M  V30 1381 C 125.571 -1.29848 1.34151 0
M  V30 1382 C 125.922 -1.96196 0.0131349 0
M  V30 1383 O 125.047 -1.973 -0.88892 0
M  V30 1384 C 125.642 -2.36118 2.42968 0
M  V30 1385 C 124.201 -2.8965 2.40374 0
M  V30 1386 C 123.348 -1.63393 2.24049 0
M  V30 1387 H 126.299 -0.51591 1.5008 0
M  V30 1388 H 126.32 -3.16871 2.10649 0
M  V30 1389 H 125.832 -1.878 3.39636 0
M  V30 1390 H 123.933 -3.42208 1.47392 0
M  V30 1391 H 124.046 -3.4171 3.35814 0
M  V30 1392 H 122.41 -1.88312 1.71495 0
M  V30 1393 H 123.193 -1.17104 3.2271 0
M  V30 1394 N 125.638 -1.25649 -0.95132 0
M  V30 1395 C 126.548 -1.08073 -2.08224 0
M  V30 1396 C 127.564 -0.0169666 -1.73992 0
M  V30 1397 O 128.74 -0.218593 -2.0021 0
M  V30 1398 C 125.805 -0.704922 -3.39458 0
M  V30 1399 C 124.866 -1.84699 -3.87537 0
M  V30 1400 C 124.099 -1.48902 -5.12508 0
M  V30 1401 O 124.322 -0.386156 -5.69091 0
M  V30 1402 O 123.256 -2.32033 -5.55378 0
M  V30 1403 H 127.082 -2.02924 -2.25954 0
M  V30 1404 H 124.667 -1.04618 -1.06656 0
M  V30 1405 H 126.549 -0.507609 -4.18332 0
M  V30 1406 H 125.224 0.214291 -3.2299 0
M  V30 1407 H 124.131 -2.09919 -3.09653 0
M  V30 1408 H 125.464 -2.74557 -4.08509 0
M  V30 1409 N 127.117 1.15442 -1.07289 0
M  V30 1410 C 128.364 1.86213 -0.795668 0
M  V30 1411 C 128.692 1.82291 0.678238 0
M  V30 1412 O 127.947 1.24057 1.51355 0
M  V30 1413 C 128.246 3.3489 -1.24834 0
M  V30 1414 C 127.912 3.59007 -2.72809 0
M  V30 1415 C 126.574 3.65298 -3.13227 0
M  V30 1416 C 128.926 3.68762 -3.68326 0
M  V30 1417 C 126.254 3.78854 -4.4798 0
M  V30 1418 C 128.606 3.83842 -5.0284 0
M  V30 1419 C 127.27 3.88378 -5.4288 0
M  V30 1420 H 126.54 0.681403 -0.291155 0
M  V30 1421 H 129.187 1.36435 -1.34379 0
M  V30 1422 H 127.492 3.8687 -0.619595 0
M  V30 1423 H 129.189 3.88052 -1.01076 0
M  V30 1424 H 125.779 3.5475 -2.40521 0
M  V30 1425 H 129.963 3.63202 -3.38227 0
M  V30 1426 H 125.219 3.80623 -4.78472 0
M  V30 1427 H 129.393 3.90332 -5.76727 0
M  V30 1428 H 127.02 3.98635 -6.47298 0
M  V30 1429 N 128.595 0.856903 1.32268 0
M  V30 1430 C 129.525 0.31858 2.31316 0
M  V30 1431 C 130.506 -0.583487 1.59779 0
M  V30 1432 O 131.691 -0.503259 1.87566 0
M  V30 1433 C 128.821 -0.491979 3.43798 0
M  V30 1434 C 127.775 0.315849 4.26833 0
M  V30 1435 C 127.101 -0.619586 5.31098 0
M  V30 1436 C 128.401 1.54282 4.98993 0
M  V30 1437 H 130.095 1.14621 2.76591 0
M  V30 1438 H 127.641 0.552613 1.32974 0
M  V30 1439 H 129.594 -0.879012 4.1213 0
M  V30 1440 H 128.318 -1.35299 2.97257 0
M  V30 1441 H 126.977 0.684664 3.6015 0
M  V30 1442 H 126.625 -1.47751 4.8081 0
M  V30 1443 H 126.325 -0.0830621 5.87541 0
M  V30 1444 H 127.849 -1.00375 6.02293 0
M  V30 1445 H 129.263 1.22796 5.59995 0
M  V30 1446 H 127.66 2.01745 5.65172 0
M  V30 1447 H 128.73 2.30285 4.26728 0
M  V30 1448 N 130.073 -1.45103 0.615059 0
M  V30 1449 C 131.005 -2.28786 -0.13762 0
M  V30 1450 C 132.018 -1.40376 -0.824525 0
M  V30 1451 O 133.207 -1.64681 -0.688662 0
M  V30 1452 C 130.307 -3.16322 -1.21628 0
M  V30 1453 C 129.48 -4.33054 -0.615039 0
M  V30 1454 C 128.539 -5.01743 -1.58556 0
M  V30 1455 O 127.565 -5.58293 -1.10895 0
M  V30 1456 N 128.767 -5.01714 -2.91998 0
M  V30 1457 H 131.532 -2.94025 0.580483 0
M  V30 1458 H 129.093 -1.55373 0.45507 0
M  V30 1459 H 131.085 -3.59139 -1.86552 0
M  V30 1460 H 129.655 -2.52943 -1.83681 0
M  V30 1461 H 128.875 -3.93627 0.21245 0
M  V30 1462 H 130.163 -5.08431 -0.193704 0
M  V30 1463 H 129.561 -4.57075 -3.33316 0
M  V30 1464 H 128.118 -5.48371 -3.52325 0
M  V30 1465 N 131.551 -0.354651 -1.53558 0
M  V30 1466 C 132.514 0.484566 -2.24019 0
M  V30 1467 C 133.514 1.01861 -1.24422 0
M  V30 1468 O 134.704 0.906097 -1.4878 0
M  V30 1469 C 131.836 1.67615 -2.96847 0
M  V30 1470 H 133.029 -0.131843 -2.9961 0
M  V30 1471 H 130.582 -0.106165 -1.55939 0
M  V30 1472 H 131.317 2.33095 -2.25471 0
M  V30 1473 H 131.102 1.30029 -3.69912 0
M  V30 1474 H 132.592 2.27114 -3.50441 0
M  V30 1475 N 133.029 1.57378 -0.0835403 0
M  V30 1476 C 134.276 1.9393 0.58287 0
M  V30 1477 C 134.604 0.964455 1.68904 0
M  V30 1478 O 133.859 -0.0179474 1.95692 0
M  V30 1479 C 134.158 3.37063 1.1884 0
M  V30 1480 C 133.824 4.50424 0.207194 0
M  V30 1481 C 132.486 4.81159 -0.0627115 0
M  V30 1482 C 134.838 5.19136 -0.463426 0
M  V30 1483 C 132.166 5.77939 -1.01012 0
M  V30 1484 C 134.518 6.16931 -1.39924 0
M  V30 1485 C 133.182 6.46078 -1.67749 0
M  V30 1486 H 132.452 0.70964 0.213287 0
M  V30 1487 H 135.099 1.90856 -0.156916 0
M  V30 1488 H 133.404 3.3666 2.00418 0
M  V30 1489 H 135.101 3.6264 1.71153 0
M  V30 1490 H 131.691 4.2646 0.427747 0
M  V30 1491 H 135.875 4.95576 -0.268034 0
M  V30 1492 H 131.131 5.98842 -1.23283 0
M  V30 1493 H 135.305 6.69273 -1.92476 0
M  V30 1494 H 132.932 7.2088 -2.41321 0
M  V30 1495 N 134.507 -0.190092 1.56449 0
M  V30 1496 C 135.417 -1.25591 1.98152 0
M  V30 1497 C 136.433 -1.49519 0.889944 0
M  V30 1498 O 137.609 -1.62036 1.19609 0
M  V30 1499 C 134.674 -2.57916 2.3169 0
M  V30 1500 C 133.735 -2.42015 3.5458 0
M  V30 1501 C 132.968 -3.6803 3.8651 0
M  V30 1502 O 133.191 -4.72413 3.1966 0
M  V30 1503 O 132.125 -3.6326 4.79923 0
M  V30 1504 H 135.951 -0.931988 2.89046 0
M  V30 1505 H 133.536 -0.395488 1.4407 0
M  V30 1506 H 135.418 -3.36008 2.54316 0
M  V30 1507 H 134.093 -2.89925 1.43963 0
M  V30 1508 H 133 -1.62017 3.37196 0
M  V30 1509 H 134.333 -2.14937 4.4279 0
M  V30 1510 N 135.985 -1.50799 -0.457987 0
M  V30 1511 C 136.895 -1.73426 -1.57989 0
M  V30 1512 C 137.911 -0.617745 -1.62665 0
M  V30 1513 O 139.087 -0.897614 -1.80291 0
M  V30 1514 C 136.152 -1.83557 -2.94122 0
M  V30 1515 C 135.213 -3.07345 -2.99729 0
M  V30 1516 C 134.446 -3.16983 -4.29368 0
M  V30 1517 O 134.669 -2.33077 -5.20607 0
M  V30 1518 O 133.603 -4.09812 -4.40837 0
M  V30 1519 H 137.429 -2.68555 -1.41817 0
M  V30 1520 H 135.014 -1.35052 -0.638859 0
M  V30 1521 H 136.896 -1.92326 -3.74952 0
M  V30 1522 H 135.571 -0.916137 -3.10465 0
M  V30 1523 H 134.478 -3.04068 -2.1793 0
M  V30 1524 H 135.811 -3.9891 -2.88326 0
M  V30 1525 N 137.463 0.71206 -1.40597 0
M  V30 1526 C 138.709 1.47416 -1.39271 0
M  V30 1527 C 139.042 1.942 0.00388791 0
M  V30 1528 O 138.317 1.68403 0.973179 0
M  V30 1529 C 138.6 2.69774 -2.38525 0
M  V30 1530 C 138.453 2.28861 -3.87224 0
M  V30 1531 C 139.772 3.71939 -2.35264 0
M  V30 1532 H 136.891 0.534713 -0.5072 0
M  V30 1533 H 139.533 0.812375 -1.71757 0
M  V30 1534 H 137.683 3.26238 -2.10953 0
M  V30 1535 H 139.355 1.77852 -4.25636 0
M  V30 1536 H 137.598 1.60824 -4.02887 0
M  V30 1537 H 138.269 3.16584 -4.52193 0
M  V30 1538 H 140.745 3.25113 -2.59694 0
M  V30 1539 H 139.621 4.55186 -3.06753 0
M  V30 1540 H 139.882 4.20484 -1.36549 0
M  V30 1541 N 138.941 1.26152 0.944643 0
M  V30 1542 C 139.871 1.09902 2.06019 0
M  V30 1543 C 140.852 0.00519538 1.70099 0
M  V30 1544 O 142.037 0.176583 1.93396 0
M  V30 1545 C 139.167 0.727562 3.39594 0
M  V30 1546 C 138.121 1.77274 3.89561 0
M  V30 1547 C 137.447 1.25569 5.19747 0
M  V30 1548 C 138.747 3.17357 4.14827 0
M  V30 1549 H 140.441 2.03217 2.19871 0
M  V30 1550 H 137.987 0.978452 1.05652 0
M  V30 1551 H 139.94 0.600777 4.17095 0
M  V30 1552 H 138.664 -0.241287 3.25707 0
M  V30 1553 H 137.323 1.88814 3.14237 0
M  V30 1554 H 136.971 0.276783 5.02238 0
M  V30 1555 H 136.671 1.95433 5.54148 0
M  V30 1556 H 138.195 1.1415 5.99835 0
M  V30 1557 H 139.609 3.08914 4.82954 0
M  V30 1558 H 138.006 3.84781 4.60504 0
M  V30 1559 H 139.076 3.63673 3.20734 0
M  V30 1560 N 140.419 -1.14872 1.07899 0
M  V30 1561 C 141.644 -1.90202 0.826926 0
M  V30 1562 C 142.069 -1.77774 -0.614664 0
M  V30 1563 O 141.427 -1.11431 -1.43013 0
M  V30 1564 C 141.475 -3.38352 1.24702 0
M  V30 1565 O 140.579 -4.10497 0.39575 0
M  V30 1566 H 139.92 -0.591968 0.300782 0
M  V30 1567 H 142.45 -1.45437 1.43907 0
M  V30 1568 H 142.46 -3.89156 1.22563 0
M  V30 1569 H 141.135 -3.46715 2.29698 0
M  V30 1570 H 139.712 -3.69796 0.480117 0
M  V30 1571 N 141.898 -0.863906 -1.31812 0
M  V30 1572 C 143.138 -0.47825 -1.98726 0
M  V30 1573 C 143.502 0.950397 -1.66828 0
M  V30 1574 O 144.703 1.44109 -2.26905 0
M  V30 1575 C 142.974 -0.721134 -3.50049 0
M  V30 1576 S 144.533 -0.434432 -4.36644 0
M  V30 1577 H 141.351 -0.178773 -0.688158 0
M  V30 1578 H 143.953 -1.11862 -1.60334 0
M  V30 1579 H 142.657 -1.75981 -3.70755 0
M  V30 1580 H 142.188 -0.0675315 -3.93342 0
M  V30 1581 H 144.203 0.735786 -4.90714 0
M  V30 1582 N 143.376 1.44774 -0.622745 0
M  V30 1583 C 144.306 2.33382 0.0741861 0
M  V30 1584 C 145.287 1.47719 0.843387 0
M  V30 1585 O 146.472 1.76458 0.810934 0
M  V30 1586 C 143.602 3.30663 1.06204 0
M  V30 1587 C 142.556 4.26079 0.405037 0
M  V30 1588 C 141.882 5.13165 1.5022 0
M  V30 1589 C 143.182 5.1781 -0.683414 0
M  V30 1590 H 144.876 2.91905 -0.665713 0
M  V30 1591 H 142.422 1.40363 -0.321587 0
M  V30 1592 H 144.375 3.9153 1.55827 0
M  V30 1593 H 143.099 2.70331 1.83272 0
M  V30 1594 H 141.758 3.66532 -0.0704683 0
M  V30 1595 H 141.406 4.49191 2.26355 0
M  V30 1596 H 141.106 5.77812 1.06803 0
M  V30 1597 H 142.63 5.76902 2.00041 0
M  V30 1598 H 144.044 5.72661 -0.270631 0
M  V30 1599 H 142.441 5.91015 -1.04023 0
M  V30 1600 H 143.511 4.59326 -1.55395 0
M  V30 1601 N 144.854 0.36279 1.53368 0
M  V30 1602 C 145.801 -0.485008 2.25646 0
M  V30 1603 C 146.771 -1.07982 1.2621 0
M  V30 1604 O 147.956 -1.11284 1.54986 0
M  V30 1605 C 145.096 -1.62023 3.04701 0
M  V30 1606 C 144.209 -1.05086 4.19024 0
M  V30 1607 C 143.344 -2.15496 4.85525 0
M  V30 1608 C 142.383 -1.5601 5.91884 0
M  V30 1609 N 141.52 -2.60241 6.52088 0
M  V30 1610 H 146.36 0.137864 2.97681 0
M  V30 1611 H 143.897 0.0798061 1.46883 0
M  V30 1612 H 145.855 -2.28887 3.48807 0
M  V30 1613 H 144.485 -2.2138 2.34927 0
M  V30 1614 H 143.537 -0.27259 3.79422 0
M  V30 1615 H 144.849 -0.575926 4.95464 0
M  V30 1616 H 144.003 -2.90186 5.32801 0
M  V30 1617 H 142.742 -2.66341 4.08551 0
M  V30 1618 H 141.747 -0.798338 5.43973 0
M  V30 1619 H 142.972 -1.05994 6.70777 0
M  V30 1620 H 140.918 -3.10304 5.77968 0
M  V30 1621 H 140.835 -2.17426 7.24059 0
M  V30 1622 H 142.103 -3.34641 7.04014 0
M  V30 1623 N 146.332 -1.57332 0.0918853 0
M  V30 1624 C 147.743 -1.81496 -0.437739 0
M  V30 1625 C 148.094 -1.00727 -1.6837 0
M  V30 1626 O 147.219 -0.235694 -2.15113 0
M  V30 1627 C 147.814 -3.29197 -0.800939 0
M  V30 1628 C 146.373 -3.54136 -1.27532 0
M  V30 1629 C 145.52 -2.75979 -0.270392 0
M  V30 1630 H 148.471 -1.55494 0.317366 0
M  V30 1631 H 148.492 -3.42344 -1.66074 0
M  V30 1632 H 148.004 -3.87955 0.106078 0
M  V30 1633 H 146.105 -3.00705 -2.20016 0
M  V30 1634 H 146.218 -4.62792 -1.23938 0
M  V30 1635 H 144.582 -2.43349 -0.751872 0
M  V30 1636 H 145.365 -3.37484 0.629248 0
M  V30 1637 N 147.81 0.181792 -1.56548 0
M  V30 1638 C 149.056 0.901431 -1.81665 0
M  V30 1639 C 149.389 1.82347 -0.668075 0
M  V30 1640 O 148.664 1.91669 0.330615 0
M  V30 1641 C 148.947 1.70618 -3.17115 0
M  V30 1642 C 148.8 0.807964 -4.42484 0
M  V30 1643 C 150.119 2.67605 -3.49393 0
M  V30 1644 H 147.238 0.32627 -0.660846 0
M  V30 1645 H 149.88 0.168134 -1.89255 0
M  V30 1646 H 148.03 2.33133 -3.10775 0
M  V30 1647 H 149.702 0.19649 -4.60881 0
M  V30 1648 H 147.945 0.115411 -4.33646 0
M  V30 1649 H 148.616 1.40632 -5.33785 0
M  V30 1650 H 151.092 2.15218 -3.56118 0
M  V30 1651 H 149.968 3.20985 -4.45264 0
M  V30 1652 H 150.229 3.47298 -2.73563 0
M  V30 1653 N 149.288 1.51039 0.449983 0
M  V30 1654 C 150.535 1.63081 1.20045 0
M  V30 1655 C 150.863 0.341024 1.91487 0
M  V30 1656 O 150.118 -0.674276 1.83717 0
M  V30 1657 C 150.417 2.77556 2.25161 0
M  V30 1658 C 150.083 4.17289 1.70823 0
M  V30 1659 C 148.745 4.55305 1.55725 0
M  V30 1660 C 151.097 5.04536 1.3074 0
M  V30 1661 C 148.425 5.78287 0.989999 0
M  V30 1662 C 150.777 6.28085 0.754482 0
M  V30 1663 C 149.441 6.64885 0.590308 0
M  V30 1664 H 148.711 0.596755 0.439277 0
M  V30 1665 H 151.358 1.85037 0.49333 0
M  V30 1666 H 149.663 2.49771 3.01863 0
M  V30 1667 H 151.36 2.84073 2.83026 0
M  V30 1668 H 147.95 3.8731 1.83546 0
M  V30 1669 H 152.134 4.75782 1.41229 0
M  V30 1670 H 147.39 6.05456 0.850451 0
M  V30 1671 H 151.564 6.95038 0.435324 0
M  V30 1672 H 149.191 7.60055 0.14862 0
M  V30 1673 N 150.766 -0.704594 1.40972 0
M  V30 1674 C 151.713 -1.81862 1.42109 0
M  V30 1675 C 152.683 -1.63781 0.276593 0
M  V30 1676 O 153.868 -1.84759 0.4763 0
M  V30 1677 C 151.008 -3.19669 1.30022 0
M  V30 1678 C 150.121 -3.49246 2.54267 0
M  V30 1679 C 149.256 -4.76618 2.3454 0
M  V30 1680 C 148.295 -4.99133 3.54306 0
M  V30 1681 N 147.432 -6.17726 3.33706 0
M  V30 1682 H 152.272 -1.80226 2.37324 0
M  V30 1683 H 149.809 -0.880238 1.17857 0
M  V30 1684 H 151.767 -3.99263 1.21018 0
M  V30 1685 H 150.397 -3.20506 0.384192 0
M  V30 1686 H 149.449 -2.64125 2.73756 0
M  V30 1687 H 150.761 -3.61788 3.43381 0
M  V30 1688 H 149.915 -5.64249 2.22952 0
M  V30 1689 H 148.654 -4.66305 1.42867 0
M  V30 1690 H 147.659 -4.09953 3.66359 0
M  V30 1691 H 148.884 -5.11311 4.4692 0
M  V30 1692 H 146.83 -6.08642 2.44725 0
M  V30 1693 H 146.747 -6.30995 4.16391 0
M  V30 1694 H 148.015 -7.08115 3.25873 0
M  V30 1695 N 152.244 -1.26651 -0.937939 0
M  V30 1696 C 153.191 -1.0849 -2.03712 0
M  V30 1697 C 154.161 0.011033 -1.66096 0
M  V30 1698 O 155.346 -0.149353 -1.90215 0
M  V30 1699 C 152.486 -0.72735 -3.37348 0
M  V30 1700 C 151.599 -1.89986 -3.87981 0
M  V30 1701 C 150.734 -1.48513 -5.10017 0
M  V30 1702 C 149.773 -2.62575 -5.5292 0
M  V30 1703 N 148.91 -2.21762 -6.66158 0
M  V30 1704 H 153.75 -2.02551 -2.18579 0
M  V30 1705 H 151.287 -1.00844 -1.07093 0
M  V30 1706 H 153.245 -0.50092 -4.14182 0
M  V30 1707 H 151.875 0.176298 -3.22318 0
M  V30 1708 H 150.927 -2.23913 -3.07518 0
M  V30 1709 H 152.239 -2.75586 -4.15757 0
M  V30 1710 H 151.393 -1.21934 -5.94321 0
M  V30 1711 H 150.132 -0.60009 -4.83994 0
M  V30 1712 H 149.137 -2.8988 -4.67172 0
M  V30 1713 H 150.362 -3.51685 -5.80943 0
M  V30 1714 H 148.308 -1.35696 -6.41812 0
M  V30 1715 H 148.225 -3.00903 -6.93537 0
M  V30 1716 H 149.493 -1.98403 -7.53828 0
M  V30 1717 N 153.722 1.14298 -1.08507 0
M  V30 1718 C 154.999 1.81544 -0.728088 0
M  V30 1719 C 155.379 1.95838 0.78808 0
M  V30 1720 O 154.727 1.51904 1.70697 0
M  V30 1721 C 154.937 3.17169 -1.45619 0
M  V30 1722 C 156.285 3.9265 -1.61591 0
M  V30 1723 O 157.309 3.26762 -1.41793 0
M  V30 1724 O 156.168 5.10807 -1.94263 0
M  V30 1725 H 153.262 0.78491 -0.260471 0
M  V30 1726 H 155.808 1.21307 -1.18671 0
M  V30 1727 H 154.58 3.01934 -2.489 0
M  V30 1728 H 154.203 3.851 -0.989124 0
M  V30 1729 N 155.201 0.870884 1.31352 0
M  V30 1730 C 156.149 0.316445 2.30437 0
M  V30 1731 C 157.143 -0.568965 1.59559 0
M  V30 1732 O 158.349 -0.454964 1.74155 0
M  V30 1733 H 154.724 0.0836521 0.747333 0
M  V30 1734 H 156.695 1.16606 2.74673 0
M  V30 1735 C 155.444 -0.46635 3.44558 0
M  V30 1736 H 154.767 0.205687 3.99271 0
M  V30 1737 H 156.207 -0.819614 4.16003 0
M  V30 1738 C 154.666 -1.65797 2.9328 0
M  V30 1739 O 155.196 -2.75728 2.92125 0
M  V30 1740 N 153.402 -1.49041 2.4947 0
M  V30 1741 H 152.949 -0.59612 2.50608 0
M  V30 1742 H 152.907 -2.28911 2.15516 0
M  V30 1743 N 156.679 -1.44442 0.630414 0
M  V30 1744 C 157.925 -2.02351 0.134816 0
M  V30 1745 C 158.258 -1.4947 -1.23986 0
M  V30 1746 O 157.533 -0.678475 -1.82283 0
M  V30 1747 C 157.816 -3.59898 0.120707 0
M  V30 1748 C 157.669 -4.23063 1.52767 0
M  V30 1749 C 158.988 -4.36585 -0.555127 0
M  V30 1750 H 156.107 -0.73527 0.0504646 0
M  V30 1751 H 158.749 -1.72022 0.806751 0
M  V30 1752 H 156.899 -3.85868 -0.451477 0
M  V30 1753 H 158.571 -4.08202 2.14869 0
M  V30 1754 H 156.814 -3.80586 2.08175 0
M  V30 1755 H 157.485 -5.32071 1.46984 0
M  V30 1756 H 159.961 -4.16044 -0.0685429 0
M  V30 1757 H 158.837 -5.46294 -0.534185 0
M  V30 1758 H 159.098 -4.11138 -1.62535 0
M  V30 1759 N 158.157 -0.370918 -1.53173 0
M  V30 1760 C 159.387 0.217389 -2.05453 0
M  V30 1761 C 159.795 1.42568 -1.24382 0
M  V30 1762 O 159.138 1.81571 -0.278839 0
M  V30 1763 C 159.2 0.669827 -3.53205 0
M  V30 1764 C 158.864 -0.4225 -4.55043 0
M  V30 1765 C 159.861 -1.27407 -5.04047 0
M  V30 1766 C 157.546 -0.58427 -4.9889 0
M  V30 1767 C 159.54 -2.27271 -5.95505 0
M  V30 1768 C 157.227 -1.58627 -5.90153 0
M  V30 1769 C 158.225 -2.42892 -6.38351 0
M  V30 1770 O 157.913 -3.41382 -7.27814 0
M  V30 1771 H 157.645 0.0408171 -0.674767 0
M  V30 1772 H 160.199 -0.5292 -1.98466 0
M  V30 1773 H 158.429 1.4681 -3.57748 0
M  V30 1774 H 160.118 1.18173 -3.88317 0
M  V30 1775 H 160.884 -1.16031 -4.70916 0
M  V30 1776 H 156.763 0.061851 -4.60959 0
M  V30 1777 H 160.307 -2.93079 -6.33049 0
M  V30 1778 H 156.204 -1.70048 -6.22699 0
M  V30 1779 H 156.972 -3.37173 -7.45826 0
M  V30 1780 N 159.635 1.57281 -0.100228 0
M  V30 1781 C 160.884 1.93713 0.561984 0
M  V30 1782 C 161.197 0.984492 1.69018 0
M  V30 1783 O 162.403 1.24273 2.41389 0
M  V30 1784 C 160.859 3.4421 1.05106 0
M  V30 1785 C 160.467 4.47975 -0.0476628 0
M  V30 1786 C 162.211 3.89595 1.68571 0
M  V30 1787 C 160.118 5.89631 0.457055 0
M  V30 1788 H 159.048 0.723082 0.2137 0
M  V30 1789 H 161.699 1.82644 -0.177057 0
M  V30 1790 H 160.081 3.50449 1.84395 0
M  V30 1791 H 161.255 4.53385 -0.823333 0
M  V30 1792 H 159.57 4.1223 -0.587816 0
M  V30 1793 H 162.167 4.92832 2.07414 0
M  V30 1794 H 162.51 3.28526 2.55688 0
M  V30 1795 H 163.043 3.86078 0.958562 0
M  V30 1796 H 159.782 6.54411 -0.377616 0
M  V30 1797 H 159.302 5.87681 1.19962 0
M  V30 1798 H 160.981 6.40363 0.92437 0
M  V30 1799 N 161.113 -0.173488 1.56642 0
M  V30 1800 C 162.361 -0.888706 1.81512 0
M  V30 1801 C 162.682 -1.82875 0.676872 0
M  V30 1802 O 161.952 -1.93536 -0.303414 0
M  V30 1803 H 160.532 -0.331164 0.669582 0
M  V30 1804 H 163.194 -0.173823 1.94123 0
M  V30 1805 H 162.29 -1.46691 2.75478 0
M  V30 1806 N 162.591 -1.51276 -0.441967 0
M  V30 1807 C 163.837 -1.63958 -1.19355 0
M  V30 1808 C 164.17 -0.352543 -1.90973 0
M  V30 1809 O 163.445 0.647627 -1.83401 0
M  V30 1810 C 163.728 -2.83979 -2.21422 0
M  V30 1811 C 163.581 -4.22646 -1.53918 0
M  V30 1812 C 164.9 -2.99521 -3.22451 0
M  V30 1813 H 162.019 -0.596709 -0.432559 0
M  V30 1814 H 164.661 -1.83748 -0.483398 0
M  V30 1815 H 162.811 -2.67237 -2.81987 0
M  V30 1816 H 164.483 -4.51045 -0.967256 0
M  V30 1817 H 162.726 -4.25558 -0.841615 0
M  V30 1818 H 163.397 -5.02609 -2.28229 0
M  V30 1819 H 165.873 -3.14944 -2.71937 0
M  V30 1820 H 164.749 -3.85072 -3.91166 0
M  V30 1821 H 165.01 -2.11391 -3.88287 0
M  V30 1822 N 164.069 0.697108 -1.41344 0
M  V30 1823 C 164.999 1.82353 -1.45841 0
M  V30 1824 C 165.98 1.67115 -0.317247 0
M  V30 1825 O 167.165 1.86871 -0.528474 0
M  V30 1826 C 164.295 3.20476 -1.33838 0
M  V30 1827 C 163.249 3.50415 -2.4575 0
M  V30 1828 C 162.575 4.87878 -2.18813 0
M  V30 1829 C 163.875 3.49546 -3.88091 0
M  V30 1830 H 165.569 1.78846 -2.40113 0
M  V30 1831 H 163.115 0.859028 -1.15571 0
M  V30 1832 H 165.068 3.98988 -1.35596 0
M  V30 1833 H 163.792 3.24604 -0.360498 0
M  V30 1834 H 162.451 2.74253 -2.43271 0
M  V30 1835 H 162.099 4.8863 -1.19371 0
M  V30 1836 H 161.799 5.08875 -2.93803 0
M  V30 1837 H 163.323 5.68702 -2.22284 0
M  V30 1838 H 164.737 4.18066 -3.92293 0
M  V30 1839 H 163.134 3.82075 -4.62751 0
M  V30 1840 H 164.204 2.48552 -4.16353 0
M  V30 1841 N 165.547 1.27147 0.931209 0
M  V30 1842 C 166.457 1.11372 2.06478 0
M  V30 1843 C 167.473 0.044645 1.73943 0
M  V30 1844 O 168.649 0.250417 1.99837 0
M  V30 1845 C 165.714 0.758838 3.38294 0
M  V30 1846 C 164.775 1.90841 3.84549 0
M  V30 1847 C 164.008 1.57036 5.10074 0
M  V30 1848 O 164.231 0.476645 5.68405 0
M  V30 1849 O 163.165 2.40839 5.51616 0
M  V30 1850 H 166.991 2.06493 2.22698 0
M  V30 1851 H 164.576 1.06301 1.04978 0
M  V30 1852 H 166.458 0.574098 4.17471 0
M  V30 1853 H 165.133 -0.162879 3.2329 0
M  V30 1854 H 164.04 2.14819 3.06274 0
M  V30 1855 H 165.373 2.81021 4.04089 0
M  V30 1856 N 167.025 -1.13721 1.09112 0
M  V30 1857 C 167.973 -2.21103 0.722219 0
M  V30 1858 C 168.967 -1.67147 -0.275374 0
M  V30 1859 O 170.173 -1.79477 -0.137176 0
M  V30 1860 H 166.548 -0.720445 0.215553 0
M  V30 1861 H 168.519 -2.49483 1.63709 0
M  V30 1862 C 167.268 -3.47352 0.15543 0
M  V30 1863 H 166.591 -3.89206 0.914246 0
M  V30 1864 H 168.031 -4.2395 -0.0647967 0
M  V30 1865 C 166.49 -3.1814 -1.10852 0
M  V30 1866 O 167.02 -3.36604 -2.19227 0
M  V30 1867 N 165.226 -2.72045 -1.02176 0
M  V30 1868 H 164.773 -2.57221 -0.139764 0
M  V30 1869 H 164.731 -2.52875 -1.8682 0
M  V30 1870 N 168.503 -0.877838 -1.30888 0
M  V30 1871 C 169.752 -0.488793 -1.95688 0
M  V30 1872 C 170.065 0.965485 -1.70111 0
M  V30 1873 O 171.271 1.46104 -2.28836 0
M  V30 1874 C 169.727 -0.823201 -3.50359 0
M  V30 1875 C 169.335 -2.29477 -3.84765 0
M  V30 1876 C 171.079 -0.503009 -4.21509 0
M  V30 1877 C 168.986 -2.57118 -5.32583 0
M  V30 1878 H 167.916 -0.179062 -0.732429 0
M  V30 1879 H 170.567 -1.07183 -1.48943 0
M  V30 1880 H 168.949 -0.169331 -3.95638 0
M  V30 1881 H 170.123 -2.99236 -3.5042 0
M  V30 1882 H 168.438 -2.58178 -3.267 0
M  V30 1883 H 171.035 -0.68665 -5.30273 0
M  V30 1884 H 171.378 0.557109 -4.12555 0
M  V30 1885 H 171.911 -1.11376 -3.8189 0
M  V30 1886 H 168.65 -3.61843 -5.4658 0
M  V30 1887 H 168.17 -1.91961 -5.68253 0
M  V30 1888 H 169.849 -2.42251 -5.99936 0
M  V30 1889 N 169.982 1.44106 -0.638065 0
M  V30 1890 C 170.945 2.29138 0.0531013 0
M  V30 1891 C 171.945 1.41409 0.765506 0
M  V30 1892 O 173.135 1.63206 0.609046 0
M  V30 1893 C 170.267 3.23144 1.08584 0
M  V30 1894 H 171.46 2.91739 -0.694883 0
M  V30 1895 H 169.013 1.51134 -0.398538 0
M  V30 1896 H 169.748 2.65408 1.86357 0
M  V30 1897 H 169.533 3.87804 0.578852 0
M  V30 1898 H 171.023 3.87004 1.56899 0
M  V30 1899 N 171.46 0.379036 1.52974 0
M  V30 1900 C 172.37 -0.468639 2.29872 0
M  V30 1901 C 173.386 -1.08067 1.36373 0
M  V30 1902 O 174.562 -1.08871 1.69438 0
M  V30 1903 C 171.627 -1.58594 3.083 0
M  V30 1904 C 170.688 -1.00007 4.17489 0
M  V30 1905 C 169.921 -2.06413 4.92168 0
M  V30 1906 O 170.144 -3.27751 4.66835 0
M  V30 1907 O 169.078 -1.68717 5.7777 0
M  V30 1908 H 172.904 0.157508 3.03291 0
M  V30 1909 H 170.489 0.143035 1.48714 0
M  V30 1910 H 172.371 -2.23525 3.57232 0
M  V30 1911 H 171.046 -2.19724 2.37703 0
M  V30 1912 H 169.953 -0.314299 3.72777 0
M  V30 1913 H 171.286 -0.433135 4.90291 0
M  V30 1914 N 172.938 -1.57226 0.108567 0
M  V30 1915 C 174.349 -1.8195 -0.418464 0
M  V30 1916 C 174.7 -1.02508 -1.67292 0
M  V30 1917 O 173.825 -0.258496 -2.14851 0
M  V30 1918 C 174.42 -3.30028 -0.765979 0
M  V30 1919 C 172.979 -3.55469 -1.23769 0
M  V30 1920 C 172.126 -2.7625 -0.241106 0
M  V30 1921 H 175.077 -1.55149 0.33384 0
M  V30 1922 H 175.098 -3.44086 -1.62434 0
M  V30 1923 H 174.61 -3.87821 0.147219 0
M  V30 1924 H 172.711 -3.03022 -2.16814 0
M  V30 1925 H 172.824 -4.6408 -1.19022 0
M  V30 1926 H 171.188 -2.44133 -0.72602 0
M  V30 1927 H 171.971 -3.36797 0.665007 0
M  V30 1928 N 174.416 0.165178 -1.56732 0
M  V30 1929 C 175.326 1.22423 -2.00125 0
M  V30 1930 C 176.342 1.48084 -0.913619 0
M  V30 1931 O 177.518 1.60112 -1.22172 0
M  V30 1932 C 174.583 2.54197 -2.35764 0
M  V30 1933 C 173.644 2.36343 -3.58386 0
M  V30 1934 C 172.877 3.61834 -3.92316 0
M  V30 1935 O 173.1 4.67267 -3.27135 0
M  V30 1936 O 172.034 3.55579 -4.85641 0
M  V30 1937 H 175.86 0.885886 -2.90492 0
M  V30 1938 H 173.445 0.372518 -1.44681 0
M  V30 1939 H 175.327 3.3192 -2.59629 0
M  V30 1940 H 174.002 2.87598 -1.48557 0
M  V30 1941 H 172.909 1.56632 -3.39731 0
M  V30 1942 H 174.242 2.07865 -4.46154 0
M  V30 1943 N 175.894 1.51508 0.433938 0
M  V30 1944 C 177.31 1.39759 0.770682 0
M  V30 1945 C 177.51 0.482594 1.95636 0
M  V30 1946 O 176.566 -0.0609691 2.52426 0
M  V30 1947 C 177.879 2.81851 1.04787 0
M  V30 1948 C 179.427 2.91025 1.1521 0
M  V30 1949 C 179.902 4.34032 1.46219 0
M  V30 1950 N 181.393 4.37154 1.53136 0
M  V30 1951 C 182.128 5.4484 1.78709 0
M  V30 1952 N 181.624 6.62682 2.02051 0
M  V30 1953 N 183.417 5.32324 1.80519 0
M  V30 1954 H 175.568 2.09548 -0.346892 0
M  V30 1955 H 177.831 0.943446 -0.0928074 0
M  V30 1956 H 177.537 3.50815 0.249304 0
M  V30 1957 H 177.411 3.21386 1.97461 0
M  V30 1958 H 179.798 2.22257 1.94128 0
M  V30 1959 H 179.879 2.54983 0.204281 0
M  V30 1960 H 179.523 5.03351 0.678274 0
M  V30 1961 H 179.453 4.6759 2.42212 0
M  V30 1962 H 181.944 3.52197 1.36987 0
M  V30 1963 H 182.257 7.40543 2.20943 0
M  V30 1964 H 180.602 6.65791 1.99366 0
M  V30 1965 H 183.793 4.39246 1.61805 0
M  V30 1966 H 183.966 6.16328 2.00111 0
M  V30 1967 N 177.372 -0.689602 1.41712 0
M  V30 1968 C 178.618 -1.45181 1.41599 0
M  V30 1969 C 178.951 -1.94181 0.0270081 0
M  V30 1970 O 178.226 -1.6993 -0.946265 0
M  V30 1971 C 178.509 -2.65945 2.42787 0
M  V30 1972 C 178.362 -2.22672 3.90816 0
M  V30 1973 C 179.681 -3.68149 2.41151 0
M  V30 1974 H 176.8 -0.526576 0.515642 0
M  V30 1975 H 179.442 -0.784947 1.73028 0
M  V30 1976 H 177.592 -3.2284 2.16116 0
M  V30 1977 H 179.264 -1.71058 4.28412 0
M  V30 1978 H 177.507 -1.54394 4.05395 0
M  V30 1979 H 178.178 -3.0935 4.57172 0
M  V30 1980 H 180.654 -3.2094 2.64834 0
M  V30 1981 H 179.53 -4.50248 3.13955 0
M  V30 1982 H 179.791 -4.18259 1.43221 0
M  V30 1983 N 178.85 -1.27639 -0.924453 0
M  V30 1984 C 180.099 -1.13549 -1.66702 0
M  V30 1985 C 180.412 0.317487 -1.93006 0
M  V30 1986 O 181.618 0.579333 -2.65247 0
M  V30 1987 C 180.074 -1.98426 -3.00259 0
M  V30 1988 C 179.682 -3.484 -2.81641 0
M  V30 1989 C 181.426 -1.92993 -3.78092 0
M  V30 1990 C 179.333 -4.25464 -4.10773 0
M  V30 1991 H 178.263 -0.421351 -0.625283 0
M  V30 1992 H 180.914 -1.52085 -1.02676 0
M  V30 1993 H 179.296 -1.52736 -3.6536 0
M  V30 1994 H 180.47 -4.01973 -2.25287 0
M  V30 1995 H 178.785 -3.55245 -2.17232 0
M  V30 1996 H 181.382 -2.47844 -4.7379 0
M  V30 1997 H 181.725 -0.904281 -4.0636 0
M  V30 1998 H 182.258 -2.36595 -3.19793 0
M  V30 1999 H 178.997 -5.28566 -3.87683 0
M  V30 2000 H 178.517 -3.76667 -4.66779 0
M  V30 2001 H 180.196 -4.34812 -4.79111 0
M  V30 2002 N 180.328 1.1314 -1.09713 0
M  V30 2003 C 181.26 2.18343 -0.697056 0
M  V30 2004 C 182.273 1.60669 0.262551 0
M  V30 2005 O 183.462 1.78435 0.0481527 0
M  V30 2006 C 180.562 3.38899 -0.00684728 0
M  V30 2007 C 179.735 4.26078 -0.988741 0
M  V30 2008 C 178.794 5.25155 -0.331394 0
M  V30 2009 O 177.82 5.60701 -0.979926 0
M  V30 2010 N 179.022 5.73271 0.913261 0
M  V30 2011 H 181.787 2.5328 -1.60216 0
M  V30 2012 H 179.348 1.28491 -0.984971 0
M  V30 2013 H 181.34 4.02255 0.444191 0
M  V30 2014 H 179.91 3.02175 0.800551 0
M  V30 2015 H 179.13 3.59453 -1.61826 0
M  V30 2016 H 180.418 4.81178 -1.65364 0
M  V30 2017 H 179.816 5.46544 1.45966 0
M  V30 2018 H 178.373 6.3855 1.30757 0
M  V30 2019 N 181.806 0.884767 1.30421 0
M  V30 2020 C 183.053 0.503105 1.96151 0
M  V30 2021 C 183.381 -0.947676 1.69851 0
M  V30 2022 O 182.636 -1.68467 0.995861 0
M  V30 2023 C 182.935 0.724318 3.49983 0
M  V30 2024 C 182.601 2.15015 3.96332 0
M  V30 2025 C 181.263 2.54005 4.08699 0
M  V30 2026 C 183.615 3.07936 4.20505 0
M  V30 2027 C 180.943 3.85128 4.42599 0
M  V30 2028 C 183.295 4.3859 4.55874 0
M  V30 2029 C 181.959 4.77474 4.66449 0
M  V30 2030 H 181.229 0.184099 0.717766 0
M  V30 2031 H 183.876 1.12058 1.55291 0
M  V30 2032 H 182.181 0.0238086 3.91793 0
M  V30 2033 H 183.878 0.408617 3.98913 0
M  V30 2034 H 180.468 1.8375 3.87213 0
M  V30 2035 H 184.652 2.79033 4.10431 0
M  V30 2036 H 179.908 4.14996 4.48986 0
M  V30 2037 H 184.082 5.10629 4.7353 0
M  V30 2038 H 181.709 5.79115 4.92473 0
M  V30 2039 N 183.284 -1.43765 0.645699 0
M  V30 2040 C 184.7 -1.56509 0.312591 0
M  V30 2041 C 184.9 -1.6307 -1.18365 0
M  V30 2042 O 183.956 -1.58167 -1.96824 0
M  V30 2043 C 185.269 -2.82968 1.01733 0
M  V30 2044 C 186.817 -2.96701 0.996865 0
M  V30 2045 C 187.292 -4.25982 1.68236 0
M  V30 2046 N 188.783 -4.32829 1.64964 0
M  V30 2047 C 189.518 -5.31613 2.14885 0
M  V30 2048 N 189.014 -6.36718 2.73061 0
M  V30 2049 N 190.807 -5.23217 2.05428 0
M  V30 2050 H 182.958 -1.3775 1.61675 0
M  V30 2051 H 185.221 -0.661067 0.679481 0
M  V30 2052 H 184.927 -2.84156 2.0724 0
M  V30 2053 H 184.801 -3.72957 0.564177 0
M  V30 2054 H 187.188 -2.95058 -0.0497719 0
M  V30 2055 H 187.269 -2.08022 1.48865 0
M  V30 2056 H 186.913 -4.28386 2.72852 0
M  V30 2057 H 186.843 -5.13545 1.16529 0
M  V30 2058 H 189.334 -3.57493 1.22503 0
M  V30 2059 H 189.647 -7.08401 3.08848 0
M  V30 2060 H 187.992 -6.37362 2.77118 0
M  V30 2061 H 191.183 -4.40019 1.59689 0
M  V30 2062 H 191.356 -6.00045 2.44643 0
M  V30 2063 N 184.763 -0.387143 -1.52771 0
M  V30 2064 C 186.009 0.196025 -2.0185 0
M  V30 2065 C 186.342 1.46641 -1.27319 0
M  V30 2066 O 185.617 1.90889 -0.373032 0
M  V30 2067 C 185.9 0.466136 -3.5707 0
M  V30 2068 C 185.753 -0.819385 -4.42274 0
M  V30 2069 C 187.072 1.25768 -4.21747 0
M  V30 2070 H 184.191 0.0697708 -0.73369 0
M  V30 2071 H 186.833 -0.516286 -1.82851 0
M  V30 2072 H 184.983 1.07293 -3.7339 0
M  V30 2073 H 186.655 -1.4563 -4.37709 0
M  V30 2074 H 184.898 -1.43517 -4.09372 0
M  V30 2075 H 185.569 -0.585065 -5.48891 0
M  V30 2076 H 188.045 0.744167 -4.09391 0
M  V30 2077 H 186.921 1.41541 -5.30337 0
M  V30 2078 H 187.182 2.27228 -3.79236 0
M  V30 2079 N 186.241 1.57166 -0.116904 0
M  V30 2080 C 187.652 1.82169 0.408809 0
M  V30 2081 C 188.003 1.03393 1.66746 0
M  V30 2082 O 187.128 0.269886 2.1471 0
M  V30 2083 C 187.723 3.30429 0.748466 0
M  V30 2084 C 186.282 3.5612 1.21882 0
M  V30 2085 C 185.429 2.76374 0.226452 0
M  V30 2086 H 188.38 1.5497 -0.342063 0
M  V30 2087 H 188.401 3.44943 1.60607 0
M  V30 2088 H 187.913 3.87737 -0.167784 0
M  V30 2089 H 186.014 3.04168 2.15204 0
M  V30 2090 H 186.127 4.64705 1.16559 0
M  V30 2091 H 184.491 2.44515 0.713063 0
M  V30 2092 H 185.274 3.3644 -0.682859 0
M  V30 2093 N 187.719 -0.156864 1.56817 0
M  V30 2094 C 188.965 -0.867645 1.83966 0
M  V30 2095 C 189.32 -1.79233 0.699511 0
M  V30 2096 O 188.613 -1.89186 -0.303176 0
M  V30 2097 C 188.807 -1.68737 3.1506 0
M  V30 2098 C 188.636 -0.843548 4.41718 0
M  V30 2099 C 187.406 -0.512994 5.02689 0
M  V30 2100 C 189.604 -0.178416 5.1399 0
M  V30 2101 N 187.586 0.345456 6.12927 0
M  V30 2102 C 188.957 0.540586 6.17639 0
M  V30 2103 C 191.012 -0.0980696 4.97803 0
M  V30 2104 C 189.715 1.33233 7.06853 0
M  V30 2105 C 191.741 0.680387 5.87473 0
M  V30 2106 C 191.103 1.3877 6.90596 0
M  V30 2107 H 187.202 -0.295642 0.723961 0
M  V30 2108 H 189.786 -0.13365 1.94241 0
M  V30 2109 H 187.957 -2.39268 3.0595 0
M  V30 2110 H 189.689 -2.34056 3.30151 0
M  V30 2111 H 186.444 -0.846476 4.65974 0
M  V30 2112 H 186.868 0.765415 6.72659 0
M  V30 2113 H 191.51 -0.630562 4.18071 0
M  V30 2114 H 189.228 1.87612 7.8602 0
M  V30 2115 H 192.814 0.744415 5.77018 0
M  V30 2116 H 191.694 1.9804 7.58782 0
M  V30 2117 N 189.197 -1.51736 -0.425897 0
M  V30 2118 C 190.446 -1.64201 -1.17136 0
M  V30 2119 C 190.759 -0.369705 -1.92074 0
M  V30 2120 O 191.965 -0.373898 -2.68913 0
M  V30 2121 C 190.421 -2.90035 -2.13091 0
M  V30 2122 C 190.029 -4.24312 -1.43747 0
M  V30 2123 C 191.773 -3.1186 -2.87999 0
M  V30 2124 C 189.68 -5.41285 -2.38253 0
M  V30 2125 H 188.61 -0.611624 -0.440944 0
M  V30 2126 H 191.261 -1.78212 -0.437328 0
M  V30 2127 H 189.643 -2.69684 -2.89977 0
M  V30 2128 H 190.817 -4.55086 -0.723408 0
M  V30 2129 H 189.132 -4.08456 -0.809465 0
M  V30 2130 H 191.729 -3.96427 -3.58817 0
M  V30 2131 H 192.072 -2.25403 -3.49999 0
M  V30 2132 H 192.605 -3.32605 -2.18217 0
M  V30 2133 H 189.344 -6.30037 -1.80925 0
M  V30 2134 H 188.864 -5.14872 -3.0768 0
M  V30 2135 H 190.543 -5.73694 -2.99139 0
M  V30 2136 N 190.675 0.682077 -1.42076 0
M  V30 2137 C 191.623 1.81707 -1.45208 0
M  V30 2138 C 192.617 1.66183 -0.328591 0
M  V30 2139 O 193.823 1.7288 -0.501264 0
M  V30 2140 H 190.198 0.599014 -0.454628 0
M  V30 2141 H 192.169 1.76183 -2.40836 0
M  V30 2142 C 190.918 3.19816 -1.36428 0
M  V30 2143 H 190.241 3.32385 -2.22171 0
M  V30 2144 H 191.681 3.99272 -1.42681 0
M  V30 2145 C 190.14 3.36809 -0.078191 0
M  V30 2146 O 190.67 3.92124 0.87188 0
M  V30 2147 N 188.876 2.906 0.00229266 0
M  V30 2148 H 188.423 2.45772 -0.771616 0
M  V30 2149 H 188.381 3.02347 0.862179 0
M  V30 2150 N 192.153 1.28127 0.917671 0
M  V30 2151 C 193.43 1.05761 1.64542 0
M  V30 2152 C 193.81 -0.404344 2.07191 0
M  V30 2153 O 193.158 -1.38963 1.81388 0
M  V30 2154 C 193.368 2.02857 2.83989 0
M  V30 2155 C 194.716 2.32786 3.551 0
M  V30 2156 O 195.74 2.0091 2.94132 0
M  V30 2157 O 194.599 2.87169 4.64969 0
M  V30 2158 H 191.693 0.403916 0.721652 0
M  V30 2159 H 194.239 1.39431 0.967322 0
M  V30 2160 H 193.011 3.01407 2.49538 0
M  V30 2161 H 192.634 1.69809 3.59514 0
M  V30 2162 N 193.631 -1.12557 1.10312 0
M  V30 2163 C 194.578 -2.18247 0.750781 0
M  V30 2164 C 195.548 -1.63853 -0.272293 0
M  V30 2165 O 196.733 -1.90195 -0.151862 0
M  V30 2166 C 193.873 -3.44591 0.187379 0
M  V30 2167 C 192.986 -4.13046 1.2656 0
M  V30 2168 C 192.121 -5.27034 0.663978 0
M  V30 2169 C 191.16 -5.87353 1.72287 0
M  V30 2170 N 190.297 -6.92757 1.1416 0
M  V30 2171 H 195.137 -2.47732 1.65628 0
M  V30 2172 H 192.674 -1.21629 0.827337 0
M  V30 2173 H 194.632 -4.16904 -0.157148 0
M  V30 2174 H 193.262 -3.15527 -0.681355 0
M  V30 2175 H 192.314 -3.38924 1.72727 0
M  V30 2176 H 193.626 -4.53947 2.06721 0
M  V30 2177 H 192.78 -6.06104 0.268824 0
M  V30 2178 H 191.519 -4.87407 -0.169082 0
M  V30 2179 H 190.524 -5.06971 2.12746 0
M  V30 2180 H 191.749 -6.29051 2.55875 0
M  V30 2181 H 189.695 -6.5517 0.329984 0
M  V30 2182 H 189.612 -7.3225 1.88007 0
M  V30 2183 H 190.88 -7.75658 0.772956 0
M  V30 2184 N 195.109 -0.891671 -1.2995 0
M  V30 2185 C 196.357 -0.512486 -1.95494 0
M  V30 2186 C 196.678 0.942776 -1.70695 0
M  V30 2187 O 195.948 1.66374 -1.03424 0
M  V30 2188 H 194.528 -0.186533 -0.723336 0
M  V30 2189 H 197.19 -1.13621 -1.58355 0
M  V30 2190 H 196.286 -0.688342 -3.04415 0
M  V30 2191 N 196.587 1.43421 -0.653314 0
M  V30 2192 C 197.497 2.34568 0.0388565 0
M  V30 2193 C 198.513 1.53888 0.81207 0
M  V30 2194 O 199.689 1.86539 0.759294 0
M  V30 2195 C 196.754 3.32167 0.993269 0
M  V30 2196 C 195.815 4.28751 0.216977 0
M  V30 2197 C 195.048 5.21688 1.12593 0
M  V30 2198 O 195.271 5.19052 2.36519 0
M  V30 2199 O 194.205 5.98919 0.598284 0
M  V30 2200 H 198.031 2.95251 -0.711386 0
M  V30 2201 H 195.616 1.43564 -0.413502 0
M  V30 2202 H 197.498 3.92183 1.54176 0
M  V30 2203 H 196.173 2.73987 1.72374 0
M  V30 2204 H 195.08 3.72215 -0.375101 0
M  V30 2205 H 196.413 4.89913 -0.473924 0
M  V30 2206 N 198.065 0.39524 1.52563 0
M  V30 2207 C 199.015 -0.4541 2.23432 0
M  V30 2208 C 199.999 -1.02482 1.24042 0
M  V30 2209 O 201.191 -0.949938 1.49349 0
M  V30 2210 C 198.32 -1.57769 3.049 0
M  V30 2211 C 197.406 -1.01842 4.1169 0
M  V30 2212 N 197.797 -0.184613 5.05463 0
M  V30 2213 C 196.095 -1.29033 4.26927 0
M  V30 2214 C 196.796 0.125013 5.81566 0
M  V30 2215 N 195.772 -0.480498 5.41472 0
M  V30 2216 H 199.574 0.189413 2.93289 0
M  V30 2217 H 197.088 0.204877 1.61102 0
M  V30 2218 H 199.085 -2.19862 3.54212 0
M  V30 2219 H 197.745 -2.22397 2.36579 0
M  V30 2220 H 198.756 0.178602 5.17592 0
M  V30 2221 H 195.433 -1.93721 3.69836 0
M  V30 2222 H 196.823 0.800962 6.67109 0
M  V30 2223 N 199.544 -1.57102 0.125237 0
M  V30 2224 C 200.491 -2.15641 -0.822655 0
M  V30 2225 C 201.461 -1.08313 -1.25927 0
M  V30 2226 O 202.646 -1.36251 -1.33567 0
M  V30 2227 C 199.786 -2.76504 -2.06494 0
M  V30 2228 C 198.899 -3.98158 -1.67612 0
M  V30 2229 C 198.034 -4.47088 -2.86854 0
M  V30 2230 C 197.073 -5.6126 -2.44242 0
M  V30 2231 N 196.21 -6.04905 -3.56419 0
M  V30 2232 H 201.05 -2.96313 -0.316625 0
M  V30 2233 H 198.587 -1.46388 -0.144588 0
M  V30 2234 H 200.545 -3.09925 -2.79289 0
M  V30 2235 H 199.175 -1.98512 -2.54545 0
M  V30 2236 H 198.227 -3.70858 -0.846661 0
M  V30 2237 H 199.539 -4.80934 -1.32301 0
M  V30 2238 H 198.693 -4.82451 -3.67867 0
M  V30 2239 H 197.432 -3.63275 -3.25396 0
M  V30 2240 H 196.437 -5.25495 -1.61663 0
M  V30 2241 H 197.662 -6.46843 -2.0681 0
M  V30 2242 H 195.608 -5.24032 -3.94623 0
M  V30 2243 H 195.525 -6.82552 -3.25051 0
M  V30 2244 H 196.793 -6.44907 -4.37853 0
M  V30 2245 N 201.022 0.148545 -1.56898 0
M  V30 2246 C 201.955 1.21293 -1.93296 0
M  V30 2247 C 202.933 1.41637 -0.798599 0
M  V30 2248 O 204.117 1.56275 -1.05406 0
M  V30 2249 C 201.244 2.5721 -2.20365 0
M  V30 2250 C 200.29 2.53469 -3.4301 0
M  V30 2251 S 201.123 2.00315 -4.96623 0
M  V30 2252 C 202.279 3.37964 -5.26812 0
M  V30 2253 H 202.512 0.902393 -2.83274 0
M  V30 2254 H 200.045 0.354094 -1.50285 0
M  V30 2255 H 202.003 3.35427 -2.36641 0
M  V30 2256 H 200.664 2.85454 -1.31054 0
M  V30 2257 H 199.857 3.53518 -3.59223 0
M  V30 2258 H 199.459 1.83359 -3.25968 0
M  V30 2259 H 201.751 4.34066 -5.20185 0
M  V30 2260 H 202.694 3.26606 -6.28279 0
M  V30 2261 H 203.102 3.35028 -4.54331 0
M  V30 2262 N 202.5 1.5196 0.417844 0
M  V30 2263 C 203.448 1.75278 1.52907 0
M  V30 2264 C 204.442 0.619611 1.57662 0
M  V30 2265 O 205.648 0.801457 1.61173 0
M  V30 2266 H 202.023 0.554141 0.508362 0
M  V30 2267 H 203.994 2.68389 1.30422 0
M  V30 2268 C 202.743 1.91262 2.90369 0
M  V30 2269 H 202.066 2.77872 2.8745 0
M  V30 2270 H 203.506 2.11581 3.67436 0
M  V30 2271 C 201.965 0.677431 3.30019 0
M  V30 2272 O 202.495 -0.158799 4.01386 0
M  V30 2273 N 200.701 0.515851 2.85985 0
M  V30 2274 H 200.248 1.19744 2.28077 0
M  V30 2275 H 200.206 -0.309315 3.12875 0
M  V30 2276 N 203.978 -0.674533 1.42435 0
M  V30 2277 C 205.394 -0.98769 1.25367 0
M  V30 2278 C 205.594 -2.00879 0.158044 0
M  V30 2279 O 204.65 -2.48075 -0.470633 0
M  V30 2280 C 205.963 -1.49224 2.6106 0
M  V30 2281 C 207.511 -1.61 2.68417 0
M  V30 2282 C 207.986 -2.14852 4.04478 0
M  V30 2283 N 209.477 -2.22185 4.06434 0
M  V30 2284 C 210.212 -2.64928 5.08528 0
M  V30 2285 N 209.708 -3.07121 6.21006 0
M  V30 2286 N 211.501 -2.64679 4.95885 0
M  V30 2287 H 203.652 0.00152503 2.124 0
M  V30 2288 H 205.915 -0.0618434 0.945981 0
M  V30 2289 H 205.621 -0.816453 3.42092 0
M  V30 2290 H 205.495 -2.47094 2.84999 0
M  V30 2291 H 207.882 -2.27686 1.87732 0
M  V30 2292 H 207.963 -0.616195 2.48267 0
M  V30 2293 H 207.607 -1.48775 4.85622 0
M  V30 2294 H 207.537 -3.15024 4.2198 0
M  V30 2295 H 210.028 -1.92435 3.25234 0
M  V30 2296 H 210.341 -3.38423 6.94759 0
M  V30 2297 H 208.686 -3.04978 6.24511 0
M  V30 2298 H 211.877 -2.31078 4.07088 0
M  V30 2299 H 212.05 -2.9767 5.75584 0
M  V30 2300 N 205.456 -1.28612 -0.910864 0
M  V30 2301 C 206.704 -1.15705 -1.65701 0
M  V30 2302 C 207.025 0.29416 -1.92769 0
M  V30 2303 O 206.295 1.20331 -1.54588 0
M  V30 2304 H 204.875 -0.425216 -0.614167 0
M  V30 2305 H 207.537 -1.61381 -1.0928 0
M  V30 2306 H 206.633 -1.6988 -2.61815 0
M  V30 2307 N 206.934 1.1197 -1.10907 0
M  V30 2308 C 208.181 1.83588 -0.854507 0
M  V30 2309 C 208.509 1.84357 0.6199 0
M  V30 2310 O 207.764 1.28809 1.47332 0
M  V30 2311 C 208.063 3.30749 -1.35425 0
M  V30 2312 C 207.729 3.50146 -2.84093 0
M  V30 2313 C 206.391 3.55148 -3.2469 0
M  V30 2314 C 208.743 3.56857 -3.79872 0
M  V30 2315 C 206.071 3.6441 -4.59806 0
M  V30 2316 C 208.423 3.6765 -5.14797 0
M  V30 2317 C 207.087 3.7091 -5.54961 0
M  V30 2318 H 206.357 0.671795 -0.312686 0
M  V30 2319 H 209.004 1.32091 -1.38652 0
M  V30 2320 H 207.309 3.84703 -0.742361 0
M  V30 2321 H 209.006 3.8464 -1.1337 0
M  V30 2322 H 205.596 3.46919 -2.51685 0
M  V30 2323 H 209.78 3.52258 -3.49611 0
M  V30 2324 H 205.036 3.65208 -4.9034 0
M  V30 2325 H 209.21 3.71786 -5.88853 0
M  V30 2326 H 206.837 3.7784 -6.59652 0
M  V30 2327 N 208.412 0.89855 1.29475 0
M  V30 2328 C 209.828 0.594483 1.48115 0
M  V30 2329 C 210.028 -0.86431 1.82022 0
M  V30 2330 O 209.084 -1.64457 1.91599 0
M  V30 2331 C 210.397 1.51932 2.59494 0
M  V30 2332 C 211.945 1.5244 2.7337 0
M  V30 2333 C 212.42 2.43548 3.87877 0
M  V30 2334 N 213.911 2.41589 3.95208 0
M  V30 2335 C 214.646 3.08789 4.83153 0
M  V30 2336 N 214.142 3.85265 5.75798 0
M  V30 2337 N 215.935 2.97952 4.76635 0
M  V30 2338 H 208.086 1.84207 1.05742 0
M  V30 2339 H 210.349 0.789251 0.525154 0
M  V30 2340 H 210.055 2.55865 2.41301 0
M  V30 2341 H 209.929 1.23899 3.56271 0
M  V30 2342 H 212.316 0.492518 2.90961 0
M  V30 2343 H 212.397 1.8451 1.77172 0
M  V30 2344 H 212.041 3.46829 3.71041 0
M  V30 2345 H 211.971 2.08788 4.83441 0
M  V30 2346 H 214.462 1.86025 3.28943 0
M  V30 2347 H 214.775 4.33598 6.39697 0
M  V30 2348 H 213.12 3.89371 5.75687 0
M  V30 2349 H 216.311 2.37723 4.03244 0
M  V30 2350 H 216.484 3.50599 5.44962 0
M  V30 2351 N 209.89 -1.43072 0.660911 0
M  V30 2352 C 211.136 -2.0202 0.177708 0
M  V30 2353 C 211.469 -1.52066 -1.20787 0
M  V30 2354 O 210.744 -0.716987 -1.80802 0
M  V30 2355 C 211.027 -3.59561 0.197019 0
M  V30 2356 C 210.88 -4.19727 1.61706 0
M  V30 2357 C 212.199 -4.37664 -0.462396 0
M  V30 2358 H 209.318 -0.734034 0.0660494 0
M  V30 2359 H 211.96 -1.70272 0.843058 0
M  V30 2360 H 210.11 -3.86739 -0.369527 0
M  V30 2361 H 211.782 -4.03553 2.23479 0
M  V30 2362 H 210.025 -3.76084 2.16201 0
M  V30 2363 H 210.696 -5.28834 1.58237 0
M  V30 2364 H 213.172 -4.16095 0.0197215 0
M  V30 2365 H 212.048 -5.47305 -0.418188 0
M  V30 2366 H 212.309 -4.14493 -1.53778 0
M  V30 2367 N 211.368 -0.403325 -1.52352 0
M  V30 2368 C 212.3 0.4603 -2.2453 0
M  V30 2369 C 213.313 1.01505 -1.27282 0
M  V30 2370 O 214.502 0.914982 -1.53266 0
M  V30 2371 C 211.602 1.65208 -2.95905 0
M  V30 2372 C 210.775 1.22224 -4.19976 0
M  V30 2373 C 209.834 2.28028 -4.74226 0
M  V30 2374 O 208.86 1.88857 -5.36956 0
M  V30 2375 N 210.062 3.6012 -4.55295 0
M  V30 2376 H 212.827 -0.158156 -2.99282 0
M  V30 2377 H 210.388 -0.230402 -1.60252 0
M  V30 2378 H 212.38 2.35541 -3.29093 0
M  V30 2379 H 210.95 2.17658 -2.24374 0
M  V30 2380 H 210.17 0.34725 -3.92668 0
M  V30 2381 H 211.458 0.911924 -5.00561 0
M  V30 2382 H 210.856 3.94698 -4.05253 0
M  V30 2383 H 209.413 4.26447 -4.92936 0
M  V30 2384 N 212.846 1.57033 -0.133567 0
M  V30 2385 C 214.076 1.99754 0.527429 0
M  V30 2386 C 214.484 1.01245 1.59832 0
M  V30 2387 O 213.827 -0.000645496 1.837 0
M  V30 2388 C 213.889 3.38903 1.19939 0
M  V30 2389 C 213.553 4.56174 0.274709 0
M  V30 2390 C 214.55 5.17563 -0.492398 0
M  V30 2391 C 212.235 5.01972 0.18153 0
M  V30 2392 C 214.229 6.2315 -1.34027 0
M  V30 2393 C 211.916 6.07416 -0.669958 0
M  V30 2394 C 212.914 6.67874 -1.42947 0
M  V30 2395 O 212.602 7.71279 -2.2668 0
M  V30 2396 H 212.334 0.660702 0.142999 0
M  V30 2397 H 214.888 2.04207 -0.221099 0
M  V30 2398 H 213.118 3.31248 1.99528 0
M  V30 2399 H 214.807 3.65818 1.75875 0
M  V30 2400 H 215.573 4.83087 -0.430367 0
M  V30 2401 H 211.452 4.54652 0.762422 0
M  V30 2402 H 214.996 6.70268 -1.93357 0
M  V30 2403 H 210.893 6.41321 -0.73333 0
M  V30 2404 H 211.661 7.88441 -2.1978 0
M  V30 2405 N 214.325 -0.140222 1.56975 0
M  V30 2406 C 215.273 -1.19207 1.99731 0
M  V30 2407 C 216.267 -1.44089 0.890777 0
M  V30 2408 O 217.473 -1.44301 1.07597 0
M  V30 2409 H 213.848 -0.40142 0.635898 0
M  V30 2410 H 215.819 -0.804813 2.87342 0
M  V30 2411 C 214.568 -2.51617 2.39967 0
M  V30 2412 H 213.891 -2.33303 3.24669 0
M  V30 2413 H 215.331 -3.23827 2.73701 0
M  V30 2414 C 213.79 -3.12654 1.25496 0
M  V30 2415 O 214.32 -3.97786 0.559371 0
M  V30 2416 N 212.526 -2.72206 1.01746 0
M  V30 2417 H 212.073 -2.03074 1.58489 0
M  V30 2418 H 212.031 -3.13377 0.253461 0
M  V30 2419 N 215.803 -1.52179 -0.40978 0
M  V30 2420 C 217.028 -1.70347 -1.18308 0
M  V30 2421 C 217.453 -0.411887 -1.83535 0
M  V30 2422 O 216.811 0.630587 -1.6998 0
M  V30 2423 C 216.859 -2.83977 -2.22238 0
M  V30 2424 O 215.963 -2.495 -3.28365 0
M  V30 2425 H 215.304 -0.567103 -0.345384 0
M  V30 2426 H 217.834 -1.98879 -0.480445 0
M  V30 2427 H 217.844 -3.0887 -2.66577 0
M  V30 2428 H 216.519 -3.77685 -1.74146 0
M  V30 2429 H 215.096 -2.35277 -2.89308 0
M  V30 2430 N 217.281 0.66697 -1.42791 0
M  V30 2431 C 218.527 1.4291 -1.43891 0
M  V30 2432 C 218.86 1.94114 -0.0578972 0
M  V30 2433 O 218.135 1.71414 0.91911 0
M  V30 2434 C 218.418 2.62049 -2.46987 0
M  V30 2435 C 218.271 2.16426 -3.94309 0
M  V30 2436 C 219.59 3.64266 -2.46978 0
M  V30 2437 H 216.709 0.518306 -0.523954 0
M  V30 2438 H 219.351 0.757321 -1.74255 0
M  V30 2439 H 217.501 3.19361 -2.21225 0
M  V30 2440 H 219.173 1.64221 -4.31079 0
M  V30 2441 H 217.416 1.47925 -4.078 0
M  V30 2442 H 218.087 3.02038 -4.62036 0
M  V30 2443 H 220.563 3.16686 -2.69906 0
M  V30 2444 H 219.439 4.45196 -3.21079 0
M  V30 2445 H 219.7 4.15927 -1.49857 0
M  V30 2446 N 218.759 1.29093 0.90403 0
M  V30 2447 C 219.689 1.16401 2.02418 0
M  V30 2448 C 220.67 0.0593085 1.69997 0
M  V30 2449 O 221.855 0.238021 1.92736 0
M  V30 2450 C 218.985 0.835233 3.37107 0
M  V30 2451 C 217.939 1.89578 3.83724 0
M  V30 2452 C 217.265 1.42041 5.15489 0
M  V30 2453 C 218.565 3.30394 4.04521 0
M  V30 2454 H 220.259 2.10109 2.13295 0
M  V30 2455 H 217.805 1.01157 1.02486 0
M  V30 2456 H 219.758 0.733169 4.14973 0
M  V30 2457 H 218.482 -0.137543 3.2631 0
M  V30 2458 H 217.141 1.98715 3.08071 0
M  V30 2459 H 216.789 0.436426 5.01103 0
M  V30 2460 H 216.489 2.12964 5.4765 0
M  V30 2461 H 218.013 1.33176 5.959 0
M  V30 2462 H 219.427 3.24123 4.72882 0
M  V30 2463 H 217.824 3.99237 4.48029 0
M  V30 2464 H 218.894 3.73692 3.09002 0
M  V30 2465 N 220.237 -1.11381 1.11499 0
M  V30 2466 C 221.485 -1.8277 0.862524 0
M  V30 2467 C 221.806 -1.85097 -0.613534 0
M  V30 2468 O 221.076 -1.32198 -1.4457 0
M  V30 2469 H 219.656 -0.676823 0.316101 0
M  V30 2470 H 222.318 -1.34816 1.4075 0
M  V30 2471 H 221.414 -2.86614 1.23527 0
M  V30 2472 N 221.715 -0.905404 -1.28997 0
M  V30 2473 C 223.126 -0.581953 -1.77398 0
M  V30 2474 C 223.477 0.902552 -1.74208 0
M  V30 2475 O 222.602 1.70584 -1.33154 0
M  V30 2476 C 223.197 -1.04961 -3.22131 0
M  V30 2477 C 221.756 -0.777229 -3.68288 0
M  V30 2478 C 220.903 -1.22109 -2.48967 0
M  V30 2479 H 223.854 -1.08754 -1.15578 0
M  V30 2480 H 223.875 -0.387387 -3.78523 0
M  V30 2481 H 223.387 -2.13008 -3.24421 0
M  V30 2482 H 221.488 0.290383 -3.71467 0
M  V30 2483 H 221.601 -1.37911 -4.58822 0
M  V30 2484 H 219.965 -0.639971 -2.46529 0
M  V30 2485 H 220.748 -2.30972 -2.53982 0
M  V30 2486 N 223.193 1.4272 -0.668489 0
M  V30 2487 C 224.423 2.05668 -0.196063 0
M  V30 2488 C 224.831 1.5028 1.14946 0
M  V30 2489 O 224.174 0.6348 1.72383 0
M  V30 2490 C 224.236 3.59469 -0.0468879 0
M  V30 2491 C 223.9 4.37518 -1.32012 0
M  V30 2492 C 224.897 4.68584 -2.25222 0
M  V30 2493 C 222.582 4.77266 -1.56596 0
M  V30 2494 C 224.576 5.38326 -3.41297 0
M  V30 2495 C 222.263 5.4675 -2.72962 0
M  V30 2496 C 223.261 5.77204 -3.65137 0
M  V30 2497 O 222.949 6.45264 -4.79468 0
M  V30 2498 H 222.681 0.669382 -0.0943599 0
M  V30 2499 H 225.235 1.83954 -0.913788 0
M  V30 2500 H 223.465 3.79817 0.726357 0
M  V30 2501 H 225.154 4.04071 0.384852 0
M  V30 2502 H 225.92 4.38382 -2.07477 0
M  V30 2503 H 221.799 4.52959 -0.857249 0
M  V30 2504 H 225.343 5.62014 -4.13263 0
M  V30 2505 H 221.24 5.76369 -2.90635 0
M  V30 2506 H 222.008 6.63753 -4.78931 0
M  V30 2507 N 224.671 0.411399 1.52136 0
M  V30 2508 C 225.618 -0.412975 2.27075 0
M  V30 2509 C 226.588 -1.03912 1.29582 0
M  V30 2510 O 227.773 -1.06296 1.58448 0
M  V30 2511 C 224.913 -1.52247 3.09701 0
M  V30 2512 C 224.026 -0.917021 4.22155 0
M  V30 2513 C 223.161 -1.9994 4.92135 0
M  V30 2514 C 222.2 -1.37101 5.96548 0
M  V30 2515 N 221.337 -2.39364 6.60038 0
M  V30 2516 H 226.177 0.232499 2.97092 0
M  V30 2517 H 223.714 0.126496 1.46555 0
M  V30 2518 H 225.672 -2.17674 3.55913 0
M  V30 2519 H 224.302 -2.13794 2.41851 0
M  V30 2520 H 223.354 -0.151742 3.80097 0
M  V30 2521 H 224.666 -0.418006 4.97045 0
M  V30 2522 H 223.82 -2.73088 5.41763 0
M  V30 2523 H 222.559 -2.53208 4.16818 0
M  V30 2524 H 221.564 -0.624873 5.46237 0
M  V30 2525 H 222.789 -0.845998 6.7381 0
M  V30 2526 H 220.735 -2.91759 5.87548 0
M  V30 2527 H 220.652 -1.9428 7.3061 0
M  V30 2528 H 221.92 -3.12074 7.14304 0
M  V30 2529 N 226.149 -1.5696 0.141893 0
M  V30 2530 C 227.397 -1.95573 -0.509484 0
M  V30 2531 C 227.718 -1.02746 -1.65736 0
M  V30 2532 O 226.988 -0.0880311 -1.95702 0
M  V30 2533 H 225.568 -0.722115 -0.191205 0
M  V30 2534 H 228.23 -1.93697 0.216196 0
M  V30 2535 H 227.326 -2.99171 -0.889 0
M  V30 2536 N 227.627 0.131896 -1.57047 0
M  V30 2537 C 228.875 0.840269 -1.83804 0
M  V30 2538 C 229.196 1.81017 -0.72512 0
M  V30 2539 O 228.466 1.94272 0.251995 0
M  V30 2540 H 227.046 0.313294 -0.678127 0
M  V30 2541 H 229.708 0.122294 -1.94516 0
M  V30 2542 H 228.804 1.39335 -2.79271 0
M  V30 2543 N 229.106 1.52395 0.401703 0
M  V30 2544 C 230.036 1.79231 1.49661 0
M  V30 2545 C 231.017 0.643654 1.57452 0
M  V30 2546 O 232.202 0.889989 1.72606 0
M  V30 2547 C 229.332 1.94971 2.87409 0
M  V30 2548 C 228.286 3.10604 2.94465 0
M  V30 2549 C 227.612 3.11577 4.34538 0
M  V30 2550 C 228.912 4.49921 2.6527 0
M  V30 2551 H 230.606 2.70917 1.27454 0
M  V30 2552 H 228.152 1.30362 0.6117 0
M  V30 2553 H 230.105 2.12328 3.63999 0
M  V30 2554 H 228.829 0.999632 3.10926 0
M  V30 2555 H 227.488 2.93009 2.20321 0
M  V30 2556 H 227.136 2.14277 4.55076 0
M  V30 2557 H 226.836 3.89247 4.40183 0
M  V30 2558 H 228.36 3.31073 5.13053 0
M  V30 2559 H 229.774 4.67683 3.31581 0
M  V30 2560 H 228.171 5.29564 2.82281 0
M  V30 2561 H 229.241 4.57507 1.60671 0
M  V30 2562 N 230.584 -0.659388 1.43143 0
M  V30 2563 C 232 -0.974337 1.26407 0
M  V30 2564 C 232.2 -2.007 0.179341 0
M  V30 2565 O 231.256 -2.4856 -0.444295 0
M  V30 2566 C 232.569 -1.46447 2.62628 0
M  V30 2567 C 234.117 -1.58144 2.7011 0
M  V30 2568 C 234.592 -2.1055 4.06734 0
M  V30 2569 N 236.083 -2.17861 4.08767 0
M  V30 2570 C 236.818 -2.59519 5.1131 0
M  V30 2571 N 236.314 -3.00518 6.24228 0
M  V30 2572 N 238.107 -2.59404 4.98664 0
M  V30 2573 H 230.258 0.0240528 2.12386 0
M  V30 2574 H 232.521 -0.0518065 0.946583 0
M  V30 2575 H 232.227 -0.780123 3.42939 0
M  V30 2576 H 232.101 -2.44058 2.87603 0
M  V30 2577 H 234.488 -2.25682 1.90136 0
M  V30 2578 H 234.569 -0.589828 2.48907 0
M  V30 2579 H 234.213 -1.43616 4.87172 0
M  V30 2580 H 234.143 -3.10531 4.25298 0
M  V30 2581 H 236.634 -1.88975 3.27257 0
M  V30 2582 H 236.947 -3.31036 6.98309 0
M  V30 2583 H 235.292 -2.98337 6.2771 0
M  V30 2584 H 238.483 -2.26747 4.09516 0
M  V30 2585 H 238.656 -2.91548 5.78709 0
M  V30 2586 N 232.062 -1.29571 -0.897171 0
M  V30 2587 C 233.309 -1.17689 -1.6479 0
M  V30 2588 C 233.637 0.27107 -1.92602 0
M  V30 2589 O 232.892 1.21193 -1.53658 0
M  V30 2590 C 233.191 -1.9382 -3.00281 0
M  V30 2591 C 232.857 -3.43522 -2.92068 0
M  V30 2592 C 231.519 -3.84348 -2.89535 0
M  V30 2593 C 233.871 -4.38906 -2.81089 0
M  V30 2594 C 231.199 -5.18869 -2.73846 0
M  V30 2595 C 233.551 -5.73521 -2.66939 0
M  V30 2596 C 232.215 -6.13601 -2.62774 0
M  V30 2597 H 231.485 -0.430654 -0.603008 0
M  V30 2598 H 234.132 -1.60536 -1.04404 0
M  V30 2599 H 232.437 -1.4357 -3.64547 0
M  V30 2600 H 234.134 -1.82028 -3.57305 0
M  V30 2601 H 230.724 -3.11072 -2.94842 0
M  V30 2602 H 234.908 -4.08315 -2.82121 0
M  V30 2603 H 230.164 -5.4903 -2.69027 0
M  V30 2604 H 234.338 -6.47078 -2.57416 0
M  V30 2605 H 231.965 -7.17786 -2.50375 0
M  V30 2606 N 233.54 1.10788 -1.12088 0
M  V30 2607 C 234.49 2.15158 -0.754401 0
M  V30 2608 C 235.474 1.59026 0.244846 0
M  V30 2609 O 236.666 1.76927 0.0509097 0
M  V30 2610 C 233.795 3.42677 -0.206657 0
M  V30 2611 C 232.881 4.05751 -1.23398 0
M  V30 2612 N 233.272 4.43582 -2.43041 0
M  V30 2613 C 231.57 4.32764 -1.07848 0
M  V30 2614 C 232.271 4.93085 -3.08613 0
M  V30 2615 N 231.247 4.89664 -2.36072 0
M  V30 2616 H 235.049 2.42195 -1.6649 0
M  V30 2617 H 232.563 1.27872 -1.00112 0
M  V30 2618 H 234.56 4.16834 0.0740646 0
M  V30 2619 H 233.22 3.17101 0.698342 0
M  V30 2620 H 234.231 4.35395 -2.80449 0
M  V30 2621 H 230.908 4.16863 -0.230483 0
M  V30 2622 H 232.298 5.31933 -4.10483 0
M  V30 2623 N 235.018 0.912232 1.28515 0
M  V30 2624 C 236.429 0.591352 1.77087 0
M  V30 2625 C 236.78 -0.8933 1.74684 0
M  V30 2626 O 235.905 -1.69876 1.34056 0
M  V30 2627 C 236.5 1.06668 3.2157 0
M  V30 2628 C 235.059 0.79675 3.67871 0
M  V30 2629 C 234.206 1.23427 2.48316 0
M  V30 2630 H 237.157 1.09365 1.15 0
M  V30 2631 H 237.178 0.407455 3.78312 0
M  V30 2632 H 236.69 2.14726 3.23287 0
M  V30 2633 H 234.791 -0.270679 3.71616 0
M  V30 2634 H 234.904 1.40343 4.58084 0
M  V30 2635 H 233.268 0.653036 2.46186 0
M  V30 2636 H 234.051 2.32316 2.52753 0
M  V30 2637 N 236.496 -1.42363 0.676048 0
M  V30 2638 C 237.724 -2.05859 0.207268 0
M  V30 2639 C 238.139 -1.50796 -1.13605 0
M  V30 2640 O 237.496 -0.648265 -1.70598 0
M  V30 2641 C 237.547 -3.61248 0.134975 0
M  V30 2642 O 237.268 -4.1427 1.42521 0
M  V30 2643 C 238.769 -4.41859 -0.357151 0
M  V30 2644 H 235.989 -0.663431 0.100503 0
M  V30 2645 H 238.533 -1.82479 0.923136 0
M  V30 2646 H 236.688 -3.83735 -0.531588 0
M  V30 2647 H 237.102 -5.0815 1.29939 0
M  V30 2648 H 238.576 -5.50847 -0.356641 0
M  V30 2649 H 239.053 -4.16536 -1.39264 0
M  V30 2650 H 239.659 -4.24392 0.27772 0
M  V30 2651 N 237.974 -0.419461 -1.51915 0
M  V30 2652 C 239.22 0.153166 -2.02221 0
M  V30 2653 C 239.553 1.43907 -1.30401 0
M  V30 2654 O 238.828 1.90055 -0.413438 0
M  V30 2655 C 239.111 0.390291 -3.57979 0
M  V30 2656 C 238.964 -0.913014 -4.40436 0
M  V30 2657 C 240.283 1.16794 -4.2432 0
M  V30 2658 H 237.402 0.0541924 -0.735005 0
M  V30 2659 H 240.044 -0.554955 -1.81715 0
M  V30 2660 H 238.194 0.993491 -3.75582 0
M  V30 2661 H 239.866 -1.54882 -4.34522 0
M  V30 2662 H 238.109 -1.52168 -4.06236 0
M  V30 2663 H 238.78 -0.701361 -5.47526 0
M  V30 2664 H 241.256 0.657161 -4.10878 0
M  V30 2665 H 240.132 1.3026 -5.3322 0
M  V30 2666 H 240.393 2.19132 -3.83971 0
M  V30 2667 N 239.452 1.56882 -0.150215 0
M  V30 2668 C 240.4 2.18214 0.805313 0
M  V30 2669 C 241.394 1.14006 1.25296 0
M  V30 2670 O 242.6 1.3225 1.22107 0
M  V30 2671 H 238.975 0.698762 0.277913 0
M  V30 2672 H 240.946 2.97231 0.263862 0
M  V30 2673 C 239.695 2.82065 2.03309 0
M  V30 2674 H 239.018 3.61968 1.69763 0
M  V30 2675 H 240.458 3.28477 2.68103 0
M  V30 2676 C 238.917 1.80739 2.84315 0
M  V30 2677 O 239.447 1.27983 3.80767 0
M  V30 2678 N 237.653 1.4997 2.48913 0
M  V30 2679 H 237.2 1.93062 1.70542 0
M  V30 2680 H 237.158 0.824217 3.03404 0
M  V30 2681 N 240.93 -0.123565 1.57115 0
M  V30 2682 C 241.86 -1.15309 2.03042 0
M  V30 2683 C 242.841 -1.43454 0.914061 0
M  V30 2684 O 244.026 -1.53973 1.18347 0
M  V30 2685 C 241.156 -2.48043 2.43089 0
M  V30 2686 C 240.11 -2.3437 3.58127 0
M  V30 2687 C 239.436 -3.72026 3.84059 0
M  V30 2688 C 240.736 -1.80804 4.90007 0
M  V30 2689 H 242.43 -0.771102 2.893 0
M  V30 2690 H 239.976 -0.369479 1.39179 0
M  V30 2691 H 241.929 -3.20311 2.73823 0
M  V30 2692 H 240.653 -2.88122 1.53796 0
M  V30 2693 H 239.312 -1.64551 3.27595 0
M  V30 2694 H 238.96 -4.09582 2.91979 0
M  V30 2695 H 238.66 -3.63732 4.6149 0
M  V30 2696 H 240.184 -4.45806 4.1724 0
M  V30 2697 H 241.598 -2.42886 5.19307 0
M  V30 2698 H 239.995 -1.83343 5.71407 0
M  V30 2699 H 241.065 -0.76528 4.78823 0
M  V30 2700 N 242.408 -1.52605 -0.393616 0
M  V30 2701 C 243.633 -1.71592 -1.16495 0
M  V30 2702 C 244.058 -0.43133 -1.83088 0
M  V30 2703 O 243.416 0.612523 -1.7064 0
M  V30 2704 C 243.464 -2.86318 -2.19213 0
M  V30 2705 O 242.568 -2.52969 -3.257 0
M  V30 2706 H 241.909 -0.570734 -0.33935 0
M  V30 2707 H 244.439 -1.99377 -0.459324 0
M  V30 2708 H 244.449 -3.1168 -2.63286 0
M  V30 2709 H 243.124 -3.79511 -1.7013 0
M  V30 2710 H 241.701 -2.38332 -2.86797 0
M  V30 2711 N 243.887 0.651787 -1.4349 0
M  V30 2712 C 245.133 1.41376 -1.45398 0
M  V30 2713 C 245.466 1.94041 -0.0784823 0
M  V30 2714 O 244.741 1.72379 0.900878 0
M  V30 2715 C 245.024 2.59414 -2.49752 0
M  V30 2716 C 244.877 2.12232 -3.96582 0
M  V30 2717 C 246.196 3.61626 -2.50827 0
M  V30 2718 H 243.315 0.512719 -0.529422 0
M  V30 2719 H 245.957 0.738796 -1.75048 0
M  V30 2720 H 244.107 3.16997 -2.246 0
M  V30 2721 H 245.779 1.59639 -4.32797 0
M  V30 2722 H 244.022 1.43592 -4.09346 0
M  V30 2723 H 244.693 2.9712 -4.65214 0
M  V30 2724 H 247.169 3.13805 -2.7325 0
M  V30 2725 H 246.045 4.41766 -3.25783 0
M  V30 2726 H 246.306 4.14314 -1.5426 0
M  V30 2727 N 245.365 1.30045 0.890287 0
M  V30 2728 C 246.614 1.17929 1.63633 0
M  V30 2729 C 246.927 -0.266204 1.9378 0
M  V30 2730 O 248.133 -0.508804 2.6669 0
M  V30 2731 C 246.589 2.06317 2.94892 0
M  V30 2732 C 246.197 3.55745 2.72305 0
M  V30 2733 C 247.941 2.0295 3.72843 0
M  V30 2734 C 245.848 4.36205 3.99348 0
M  V30 2735 H 244.778 0.437782 0.613892 0
M  V30 2736 H 247.429 1.54754 0.986075 0
M  V30 2737 H 245.811 1.6237 3.61182 0
M  V30 2738 H 246.985 4.07805 2.1455 0
M  V30 2739 H 245.3 3.6088 2.07737 0
M  V30 2740 H 247.897 2.60319 4.67053 0
M  V30 2741 H 248.24 1.0117 4.0382 0
M  V30 2742 H 248.773 2.4499 3.13408 0
M  V30 2743 H 245.512 5.38659 3.73533 0
M  V30 2744 H 245.032 3.8891 4.56628 0
M  V30 2745 H 246.711 4.47362 4.67415 0
M  V30 2746 N 246.843 -1.10192 1.12674 0
M  V30 2747 C 247.79 -2.16606 0.796906 0
M  V30 2748 C 248.76 -1.64394 -0.237476 0
M  V30 2749 O 249.945 -1.90474 -0.111484 0
M  V30 2750 C 247.085 -3.44116 0.26043 0
M  V30 2751 C 246.198 -4.10268 1.35293 0
M  V30 2752 C 245.333 -5.25507 0.775621 0
M  V30 2753 C 244.372 -5.83567 1.84706 0
M  V30 2754 N 243.509 -6.90179 1.28829 0
M  V30 2755 H 248.349 -2.44163 1.70846 0
M  V30 2756 H 245.886 -1.19846 0.85295 0
M  V30 2757 H 247.844 -4.17143 -0.0686814 0
M  V30 2758 H 246.474 -3.16901 -0.614274 0
M  V30 2759 H 245.526 -3.35184 1.79877 0
M  V30 2760 H 246.838 -4.4946 2.16303 0
M  V30 2761 H 245.992 -6.05398 0.397327 0
M  V30 2762 H 244.731 -4.87656 -0.0656581 0
M  V30 2763 H 243.736 -5.02344 2.23452 0
M  V30 2764 H 244.961 -6.23482 2.69161 0
M  V30 2765 H 242.907 -6.54322 0.468881 0
M  V30 2766 H 242.824 -7.28097 2.03497 0
M  V30 2767 H 244.092 -7.73844 0.937311 0
M  V30 2768 N 248.321 -0.919034 -1.28029 0
M  V30 2769 C 249.568 -0.554934 -1.94748 0
M  V30 2770 C 249.896 0.90231 -1.72304 0
M  V30 2771 O 249.151 1.65767 -1.04018 0
M  V30 2772 C 249.45 -0.816855 -3.4794 0
M  V30 2773 C 249.116 -2.25448 -3.90492 0
M  V30 2774 C 247.778 -2.64752 -4.01821 0
M  V30 2775 C 250.13 -3.18977 -4.12193 0
M  V30 2776 C 247.458 -3.96727 -4.32232 0
M  V30 2777 C 249.81 -4.50523 -4.44086 0
M  V30 2778 C 248.474 -4.89673 -4.53626 0
M  V30 2779 H 247.744 -0.203065 -0.712633 0
M  V30 2780 H 250.391 -1.16136 -1.52265 0
M  V30 2781 H 248.696 -0.127677 -3.91592 0
M  V30 2782 H 250.393 -0.514238 -3.97689 0
M  V30 2783 H 246.983 -1.93952 -3.82205 0
M  V30 2784 H 251.167 -2.89817 -4.02889 0
M  V30 2785 H 246.423 -4.26754 -4.37825 0
M  V30 2786 H 250.597 -5.23005 -4.59825 0
M  V30 2787 H 248.224 -5.91969 -4.76946 0
M  V30 2788 N 249.799 1.42003 -0.683588 0
M  V30 2789 C 250.729 2.33487 -0.024866 0
M  V30 2790 C 251.71 1.51163 0.779975 0
M  V30 2791 O 252.895 1.79739 0.735362 0
M  V30 2792 C 250.025 3.3487 0.920836 0
M  V30 2793 C 248.979 4.27414 0.223958 0
M  V30 2794 C 248.305 5.19074 1.2832 0
M  V30 2795 C 249.605 5.14445 -0.90242 0
M  V30 2796 H 251.299 2.88819 -0.788921 0
M  V30 2797 H 248.845 1.38873 -0.38083 0
M  V30 2798 H 250.798 3.97787 1.39081 0
M  V30 2799 H 249.522 2.77861 1.71642 0
M  V30 2800 H 248.181 3.65904 -0.225864 0
M  V30 2801 H 247.829 4.58387 2.071 0
M  V30 2802 H 247.529 5.81822 0.821995 0
M  V30 2803 H 249.053 5.84867 1.75392 0
M  V30 2804 H 250.467 5.70998 -0.513272 0
M  V30 2805 H 248.864 5.86072 -1.28997 0
M  V30 2806 H 249.934 4.52322 -1.74737 0
M  V30 2807 N 251.277 0.427512 1.51691 0
M  V30 2808 C 252.525 -0.141948 2.01601 0
M  V30 2809 C 252.846 -1.44067 1.31414 0
M  V30 2810 O 252.116 -1.90763 0.445658 0
M  V30 2811 H 250.696 -0.0554468 0.744939 0
M  V30 2812 H 253.358 0.567968 1.86441 0
M  V30 2813 H 252.454 -0.324913 3.10404 0
M  V30 2814 N 252.755 -1.56801 0.158532 0
M  V30 2815 C 254.002 -1.9649 -0.489679 0
M  V30 2816 C 254.33 -1.04394 -1.6411 0
M  V30 2817 O 253.585 -0.0754401 -1.95555 0
M  V30 2818 C 253.884 -3.4235 -1.02623 0
M  V30 2819 C 253.55 -4.50899 0.00794526 0
M  V30 2820 C 252.212 -4.80312 0.292207 0
M  V30 2821 C 254.564 -5.16333 0.710584 0
M  V30 2822 C 251.892 -5.72461 1.28472 0
M  V30 2823 C 254.244 -6.09553 1.69199 0
M  V30 2824 C 252.908 -6.37339 1.98383 0
M  V30 2825 H 252.178 -0.719009 -0.179186 0
M  V30 2826 H 254.825 -1.8989 0.247798 0
M  V30 2827 H 253.13 -3.45838 -1.84128 0
M  V30 2828 H 254.827 -3.70393 -1.53656 0
M  V30 2829 H 251.417 -4.28015 -0.22379 0
M  V30 2830 H 255.601 -4.93732 0.504174 0
M  V30 2831 H 250.857 -5.92278 1.51714 0
M  V30 2832 H 255.031 -6.59327 2.24189 0
M  V30 2833 H 252.658 -7.08546 2.7544 0
M  V30 2834 N 254.233 0.115231 -1.57178 0
M  V30 2835 C 255.143 1.15994 -2.03918 0
M  V30 2836 C 256.159 1.45103 -0.960268 0
M  V30 2837 O 257.335 1.56144 -1.27204 0
M  V30 2838 C 254.4 2.46568 -2.43732 0
M  V30 2839 C 253.461 2.24822 -3.65723 0
M  V30 2840 C 252.694 3.4917 -4.03629 0
M  V30 2841 O 252.917 4.56623 -3.41835 0
M  V30 2842 O 251.851 3.39949 -4.96708 0
M  V30 2843 H 255.677 0.793019 -2.93164 0
M  V30 2844 H 253.262 0.3263 -1.45793 0
M  V30 2845 H 255.144 3.23492 -2.70057 0
M  V30 2846 H 253.819 2.82726 -1.57631 0
M  V30 2847 H 252.726 1.45744 -3.44542 0
M  V30 2848 H 254.059 1.93566 -4.52541 0
M  V30 2849 N 255.711 1.52812 0.385517 0
M  V30 2850 C 256.643 1.74096 1.49074 0
M  V30 2851 C 257.656 0.621462 1.50472 0
M  V30 2852 O 258.845 0.897245 1.54311 0
M  V30 2853 C 255.945 1.78774 2.87911 0
M  V30 2854 C 255.118 3.08134 3.10439 0
M  V30 2855 C 254.177 3.04313 4.29278 0
M  V30 2856 O 253.203 3.78168 4.25415 0
M  V30 2857 N 254.405 2.23741 5.35649 0
M  V30 2858 H 257.17 2.69455 1.31202 0
M  V30 2859 H 254.731 1.51343 0.575065 0
M  V30 2860 H 256.723 1.73721 3.65518 0
M  V30 2861 H 255.293 0.907869 2.99126 0
M  V30 2862 H 254.513 3.26649 2.20667 0
M  V30 2863 H 255.801 3.93662 3.22347 0
M  V30 2864 H 255.199 1.63211 5.41645 0
M  V30 2865 H 253.756 2.24524 6.11909 0
M  V30 2866 N 257.189 -0.644168 1.43834 0
M  V30 2867 C 258.438 -1.39985 1.45214 0
M  V30 2868 C 258.751 -1.95421 0.0835494 0
M  V30 2869 O 259.957 -2.71488 -0.0251748 0
M  V30 2870 C 258.413 -2.53384 2.55587 0
M  V30 2871 C 258.021 -2.04517 3.98594 0
M  V30 2872 C 259.765 -3.30685 2.66172 0
M  V30 2873 C 257.672 -3.1518 5.00416 0
M  V30 2874 H 256.602 -0.526005 0.540218 0
M  V30 2875 H 259.253 -0.694367 1.69855 0
M  V30 2876 H 257.635 -3.26446 2.24163 0
M  V30 2877 H 258.809 -1.38405 4.39523 0
M  V30 2878 H 257.124 -1.40068 3.92135 0
M  V30 2879 H 259.721 -4.13158 3.39418 0
M  V30 2880 H 260.064 -3.79312 1.71546 0
M  V30 2881 H 260.597 -2.64708 2.96942 0
M  V30 2882 H 257.336 -2.71511 5.96625 0
M  V30 2883 H 256.856 -3.79974 4.64091 0
M  V30 2884 H 258.535 -3.80166 5.23529 0
M  V30 2885 N 258.668 -1.30515 -0.883378 0
M  V30 2886 C 259.915 -1.1943 -1.63532 0
M  V30 2887 C 260.243 0.250627 -1.92878 0
M  V30 2888 O 259.498 1.19556 -1.54935 0
M  V30 2889 C 259.797 -1.96994 -2.98209 0
M  V30 2890 C 259.463 -3.466 -2.88408 0
M  V30 2891 C 258.125 -3.87397 -2.85442 0
M  V30 2892 C 260.477 -4.41863 -2.76418 0
M  V30 2893 C 257.805 -5.21745 -2.68327 0
M  V30 2894 C 260.157 -5.7632 -2.60841 0
M  V30 2895 C 258.821 -6.16354 -2.56251 0
M  V30 2896 H 258.091 -0.437025 -0.598406 0
M  V30 2897 H 260.738 -1.61635 -1.02696 0
M  V30 2898 H 259.043 -1.47429 -3.63004 0
M  V30 2899 H 260.74 -1.85808 -3.55354 0
M  V30 2900 H 257.33 -3.14182 -2.91527 0
M  V30 2901 H 261.514 -4.11285 -2.77775 0
M  V30 2902 H 256.77 -5.51853 -2.63189 0
M  V30 2903 H 260.944 -6.49772 -2.50538 0
M  V30 2904 H 258.571 -7.20401 -2.42748 0
M  V30 2905 N 260.146 1.09593 -1.13257 0
M  V30 2906 C 261.093 2.1618 -0.808381 0
M  V30 2907 C 262.063 1.64517 0.228754 0
M  V30 2908 O 263.248 1.9053 0.101381 0
M  V30 2909 C 260.388 3.43973 -0.278675 0
M  V30 2910 C 259.501 4.09545 -1.37466 0
M  V30 2911 C 258.636 5.25088 -0.803479 0
M  V30 2912 C 257.675 5.82579 -1.87799 0
M  V30 2913 N 256.812 6.89486 -1.32488 0
M  V30 2914 H 261.652 2.43254 -1.72138 0
M  V30 2915 H 259.189 1.19392 -0.859294 0
M  V30 2916 H 261.147 4.17174 0.0465583 0
M  V30 2917 H 259.777 3.17223 0.597459 0
M  V30 2918 H 258.829 3.34226 -1.81652 0
M  V30 2919 H 260.141 4.48307 -2.18684 0
M  V30 2920 H 259.295 6.05178 -0.429427 0
M  V30 2921 H 258.034 4.87684 0.0397956 0
M  V30 2922 H 257.039 5.01152 -2.26113 0
M  V30 2923 H 258.264 6.22045 -2.72463 0
M  V30 2924 H 256.21 6.54064 -0.503575 0
M  V30 2925 H 256.127 7.27007 -2.07355 0
M  V30 2926 H 257.395 7.73336 -0.978336 0
M  V30 2927 N 261.624 0.925811 1.2754 0
M  V30 2928 C 262.572 0.413897 2.28888 0
M  V30 2929 C 263.566 -0.500779 1.61829 0
M  V30 2930 O 264.772 -0.38069 1.75928 0
M  V30 2931 H 261.147 0.115274 0.743112 0
M  V30 2932 H 263.118 1.28151 2.69481 0
M  V30 2933 C 261.867 -0.319792 3.46226 0
M  V30 2934 H 261.19 0.374846 3.98039 0
M  V30 2935 H 262.63 -0.642435 4.19105 0
M  V30 2936 C 261.089 -1.53209 3.00048 0
M  V30 2937 O 261.619 -2.6309 3.03557 0
M  V30 2938 N 259.825 -1.38326 2.55566 0
M  V30 2939 H 259.372 -0.489292 2.5291 0
M  V30 2940 H 259.33 -2.19564 2.25031 0
M  V30 2941 N 263.102 -1.41638 0.69111 0
M  V30 2942 C 264.327 -2.06148 0.227583 0
M  V30 2943 C 264.752 -1.51652 -1.11281 0
M  V30 2944 O 264.11 -0.64164 -1.69566 0
M  V30 2945 C 264.158 -3.60095 0.190858 0
M  V30 2946 O 263.262 -4.03845 -0.835664 0
M  V30 2947 H 262.603 -0.654434 0.112306 0
M  V30 2948 H 265.133 -1.81484 0.944714 0
M  V30 2949 H 265.143 -4.07995 0.020207 0
M  V30 2950 H 263.818 -3.99129 1.16915 0
M  V30 2951 H 262.395 -3.67458 -0.63473 0
M  V30 2952 N 264.58 -0.43555 -1.51462 0
M  V30 2953 C 265.51 0.367376 -2.30592 0
M  V30 2954 C 266.491 1.02263 -1.35928 0
M  V30 2955 O 267.676 1.02661 -1.64847 0
M  V30 2956 C 264.806 1.46983 -3.14664 0
M  V30 2957 C 263.76 0.938161 -4.17591 0
M  V30 2958 C 263.086 2.13622 -4.90173 0
M  V30 2959 C 264.386 -0.0261621 -5.22293 0
M  V30 2960 H 266.08 -0.292969 -2.97963 0
M  V30 2961 H 263.626 -0.14234 -1.43295 0
M  V30 2962 H 265.579 2.03873 -3.688 0
M  V30 2963 H 264.303 2.15843 -2.4511 0
M  V30 2964 H 262.962 0.391481 -3.64504 0
M  V30 2965 H 262.61 2.81098 -4.17124 0
M  V30 2966 H 262.31 1.78688 -5.59772 0
M  V30 2967 H 263.834 2.7107 -5.47132 0
M  V30 2968 H 265.248 0.452384 -5.71512 0
M  V30 2969 H 263.645 -0.287992 -5.99409 0
M  V30 2970 H 264.715 -0.963391 -4.75233 0
M  V30 2971 N 266.058 1.56714 -0.166846 0
M  V30 2972 C 267.286 2.0112 0.485644 0
M  V30 2973 C 267.701 1.04705 1.57106 0
M  V30 2974 O 267.058 0.0471923 1.82439 0
M  V30 2975 C 267.109 3.45361 1.06808 0
M  V30 2976 O 266.83 4.38092 0.0259995 0
M  V30 2977 C 268.331 4.05145 1.79924 0
M  V30 2978 H 265.551 0.65931 0.124704 0
M  V30 2979 H 268.095 2.02746 -0.267262 0
M  V30 2980 H 266.25 3.44524 1.7715 0
M  V30 2981 H 266.664 5.22519 0.455398 0
M  V30 2982 H 268.138 5.08009 2.15942 0
M  V30 2983 H 268.615 3.46982 2.69258 0
M  V30 2984 H 269.221 4.09672 1.14234 0
M  V30 2985 N 267.536 -0.106894 1.57237 0
M  V30 2986 C 268.764 -0.826389 1.8968 0
M  V30 2987 C 269.179 -1.72856 0.759353 0
M  V30 2988 O 268.536 -1.80503 -0.269263 0
M  V30 2989 C 268.587 -1.64967 3.21665 0
M  V30 2990 O 268.308 -0.783804 4.31031 0
M  V30 2991 C 269.809 -2.47326 3.67892 0
M  V30 2992 H 267.029 -0.236927 0.627779 0
M  V30 2993 H 269.573 -0.0876593 2.04312 0
M  V30 2994 H 267.728 -2.34103 3.08666 0
M  V30 2995 H 268.142 -1.35284 5.06753 0
M  V30 2996 H 269.616 -3.00604 4.6297 0
M  V30 2997 H 270.093 -3.25247 2.95146 0
M  V30 2998 H 270.699 -1.83411 3.83719 0
M  V30 2999 N 269.014 -1.53014 -0.377408 0
M  V30 3000 C 269.944 -1.81589 -1.46791 0
M  V30 3001 C 270.925 -0.668622 -1.56408 0
M  V30 3002 O 272.11 -0.917337 -1.71168 0
M  V30 3003 C 269.24 -1.99519 -2.8427 0
M  V30 3004 C 268.194 -3.15249 -2.89486 0
M  V30 3005 C 267.52 -3.18451 -4.29527 0
M  V30 3006 C 268.82 -4.54084 -2.58079 0
M  V30 3007 H 270.514 -2.7291 -1.23127 0
M  V30 3008 H 268.06 -1.31319 -0.590883 0
M  V30 3009 H 270.013 -2.18092 -3.60575 0
M  V30 3010 H 268.737 -1.04897 -3.09296 0
M  V30 3011 H 267.396 -2.96477 -2.15631 0
M  V30 3012 H 267.044 -2.2149 -4.5161 0
M  V30 3013 H 266.744 -3.962 -4.33934 0
M  V30 3014 H 268.268 -3.39193 -5.07721 0
M  V30 3015 H 269.682 -4.72899 -3.24098 0
M  V30 3016 H 268.079 -5.33987 -2.7382 0
M  V30 3017 H 269.149 -4.60006 -1.53372 0
M  V30 3018 N 270.492 0.636531 -1.44174 0
M  V30 3019 C 271.903 1.21806 -1.41493 0
M  V30 3020 C 272.254 1.95785 -0.1275 0
M  V30 3021 O 271.379 2.02147 0.772376 0
M  V30 3022 C 271.974 2.21551 -2.56321 0
M  V30 3023 C 270.533 2.75143 -2.56853 0
M  V30 3024 C 269.68 1.50052 -2.33195 0
M  V30 3025 H 272.631 0.427531 -1.52833 0
M  V30 3026 H 272.652 3.0405 -2.28765 0
M  V30 3027 H 272.164 1.67679 -3.50008 0
M  V30 3028 H 270.265 3.33033 -1.67093 0
M  V30 3029 H 270.378 3.2155 -3.55165 0
M  V30 3030 H 268.742 1.77993 -1.82183 0
M  V30 3031 H 269.525 0.980903 -3.28988 0
M  V30 3032 N 271.97 1.30982 0.876444 0
M  V30 3033 C 272.903 1.12414 1.98591 0
M  V30 3034 C 273.881 0.0294078 1.62573 0
M  V30 3035 O 275.065 0.184598 1.87594 0
M  V30 3036 C 272.192 0.716276 3.3104 0
M  V30 3037 C 271.238 1.81311 3.86042 0
M  V30 3038 S 272.071 3.41727 4.1229 0
M  V30 3039 C 273.227 3.02863 5.47745 0
M  V30 3040 H 273.46 2.06338 2.14037 0
M  V30 3041 H 270.993 1.15393 1.02586 0
M  V30 3042 H 272.951 0.487697 4.07593 0
M  V30 3043 H 271.612 -0.203749 3.13438 0
M  V30 3044 H 270.805 1.48021 4.81774 0
M  V30 3045 H 270.407 1.99641 3.16259 0
M  V30 3046 H 272.699 2.51353 6.29148 0
M  V30 3047 H 273.642 3.97533 5.8598 0
M  V30 3048 H 274.05 2.40487 5.10711 0
M  V30 3049 N 273.449 -1.08991 1.13837 0
M  V30 3050 C 274.697 -1.80899 0.901098 0
M  V30 3051 C 275.018 -1.86356 -0.574134 0
M  V30 3052 O 274.288 -1.35235 -1.41733 0
M  V30 3053 H 272.868 -0.669966 0.330386 0
M  V30 3054 H 275.53 -1.318 1.43578 0
M  V30 3055 H 274.626 -2.83929 1.29578 0
M  V30 3056 N 274.927 -0.932562 -1.27047 0
M  V30 3057 C 276.175 -0.574422 -1.93765 0
M  V30 3058 C 276.496 0.887993 -1.73608 0
M  V30 3059 O 275.766 1.62999 -1.08665 0
M  V30 3060 H 274.346 -0.209451 -0.717035 0
M  V30 3061 H 277.008 -1.18601 -1.5466 0
M  V30 3062 H 276.104 -0.784841 -3.02071 0
M  V30 3063 N 276.405 1.4127 -0.698611 0
M  V30 3064 C 277.653 2.00782 -0.230409 0
M  V30 3065 C 277.974 1.5562 1.17505 0
M  V30 3066 O 277.244 0.78815 1.79346 0
M  V30 3067 H 275.824 0.742464 -0.0821944 0
M  V30 3068 H 278.486 1.72852 -0.90045 0
M  V30 3069 H 277.582 3.11095 -0.25021 0
M  V30 3070 N 277.883 0.443576 1.51229 0
M  V30 3071 C 278.83 -0.364716 2.279 0
M  V30 3072 C 279.8 -1.0114 1.31757 0
M  V30 3073 O 280.985 -1.02912 1.60667 0
M  V30 3074 C 278.125 -1.45644 3.12861 0
M  V30 3075 C 277.238 -0.827269 4.24005 0
M  V30 3076 C 276.373 -1.89456 4.96266 0
M  V30 3077 C 275.412 -1.24416 5.99322 0
M  V30 3078 N 274.549 -2.25309 6.64966 0
M  V30 3079 H 279.389 0.295464 2.96532 0
M  V30 3080 H 276.926 0.157554 1.46254 0
M  V30 3081 H 278.884 -2.10076 3.6045 0
M  V30 3082 H 277.514 -2.08616 2.46331 0
M  V30 3083 H 276.566 -0.0710839 3.80334 0
M  V30 3084 H 277.878 -0.312481 4.9782 0
M  V30 3085 H 277.032 -2.61535 5.47434 0
M  V30 3086 H 275.771 -2.4431 4.22095 0
M  V30 3087 H 274.776 -0.508868 5.4744 0
M  V30 3088 H 276.001 -0.702882 6.75453 0
M  V30 3089 H 273.947 -2.79231 5.93604 0
M  V30 3090 H 273.864 -1.78739 7.34567 0
M  V30 3091 H 275.132 -2.96853 7.20763 0
M  V30 3092 N 279.361 -1.56624 0.175154 0
M  V30 3093 C 280.609 -1.96609 -0.467885 0
M  V30 3094 C 280.93 -1.06238 -1.63519 0
M  V30 3095 O 280.2 -0.129523 -1.95471 0
M  V30 3096 H 278.78 -0.726008 -0.175845 0
M  V30 3097 H 281.442 -1.93195 0.257234 0
M  V30 3098 H 280.538 -3.00989 -0.825342 0
M  V30 3099 N 280.839 0.0985539 -1.57292 0
M  V30 3100 C 282.087 0.801092 -1.85545 0
M  V30 3101 C 282.408 1.79438 -0.763353 0
M  V30 3102 O 281.678 1.94763 0.21073 0
M  V30 3103 H 280.258 0.29884 -0.684619 0
M  V30 3104 H 282.92 0.0810064 -1.94732 0
M  V30 3105 H 282.016 1.3338 -2.82163 0
M  V30 3106 N 282.317 1.53212 0.369288 0
M  V30 3107 C 283.542 1.73423 1.1375 0
M  V30 3108 C 283.967 0.460404 1.82378 0
M  V30 3109 O 283.325 -0.585298 1.71592 0
M  V30 3110 C 283.373 2.89769 2.1463 0
M  V30 3111 O 282.477 2.58119 3.21634 0
M  V30 3112 H 281.818 0.576061 0.330227 0
M  V30 3113 H 284.348 2.00083 0.427547 0
M  V30 3114 H 284.358 3.15829 2.58294 0
M  V30 3115 H 283.033 3.8217 1.64071 0
M  V30 3116 H 281.61 2.42864 2.82969 0
M  V30 3117 N 283.795 -0.628877 1.44509 0
M  V30 3118 C 285.072 -1.38733 1.37886 0
M  V30 3119 C 285.452 -2.11065 0.0387008 0
M  V30 3120 O 284.8 -2.06476 -0.97878 0
M  V30 3121 C 285.01 -2.35188 2.57852 0
M  V30 3122 C 286.358 -2.9845 3.02014 0
M  V30 3123 O 287.382 -2.45513 2.58073 0
M  V30 3124 O 286.241 -3.94487 3.78209 0
M  V30 3125 H 283.335 -0.621015 0.54614 0
M  V30 3126 H 285.881 -0.653744 1.56602 0
M  V30 3127 H 284.653 -1.80855 3.46998 0
M  V30 3128 H 284.276 -3.1596 2.4136 0
M  V30 3129 N 285.273 -1.31445 -0.869486 0
M  V30 3130 C 286.52 -1.21158 -1.62256 0
M  V30 3131 C 286.848 0.230155 -1.93133 0
M  V30 3132 O 286.103 1.17906 -1.56194 0
M  V30 3133 C 286.402 -2.00145 -2.96102 0
M  V30 3134 C 286.068 -3.4964 -2.84715 0
M  V30 3135 C 284.73 -3.90403 -2.81317 0
M  V30 3136 C 287.082 -4.44769 -2.71716 0
M  V30 3137 C 284.41 -5.24561 -2.62778 0
M  V30 3138 C 286.762 -5.79054 -2.54714 0
M  V30 3139 C 285.426 -6.19037 -2.49699 0
M  V30 3140 H 284.696 -0.443348 -0.593737 0
M  V30 3141 H 287.343 -1.62715 -1.00976 0
M  V30 3142 H 285.648 -1.5127 -3.6142 0
M  V30 3143 H 287.345 -1.89566 -3.53363 0
M  V30 3144 H 283.935 -3.17256 -2.88178 0
M  V30 3145 H 288.119 -4.14208 -2.73397 0
M  V30 3146 H 283.375 -5.54613 -2.57321 0
M  V30 3147 H 287.549 -6.52393 -2.43632 0
M  V30 3148 H 285.176 -7.22935 -2.35093 0
M  V30 3149 N 286.751 1.08385 -1.14413 0
M  V30 3150 C 288.028 1.77429 -0.823297 0
M  V30 3151 C 288.408 1.9974 0.683163 0
M  V30 3152 O 287.756 1.60739 1.62405 0
M  V30 3153 C 287.966 3.09004 -1.62227 0
M  V30 3154 C 289.314 3.83532 -1.82177 0
M  V30 3155 O 290.338 3.18786 -1.58915 0
M  V30 3156 O 289.197 4.99792 -2.21067 0
M  V30 3157 H 286.291 0.769999 -0.301712 0
M  V30 3158 H 288.837 1.14846 -1.24934 0
M  V30 3159 H 287.609 2.88316 -2.64555 0
M  V30 3160 H 287.232 3.79316 -1.19187 0
M  V30 3161 N 288.23 0.939286 1.26551 0
M  V30 3162 C 289.641 0.628782 1.75793 0
M  V30 3163 C 289.992 -0.856046 1.7654 0
M  V30 3164 O 289.117 -1.66994 1.3763 0
M  V30 3165 C 289.712 1.13465 3.19235 0
M  V30 3166 C 288.271 0.874601 3.66098 0
M  V30 3167 C 287.418 1.28667 2.45642 0
M  V30 3168 H 290.369 1.1178 1.12654 0
M  V30 3169 H 290.39 0.487609 3.77363 0
M  V30 3170 H 289.902 2.21535 3.1866 0
M  V30 3171 H 288.003 -0.191793 3.72106 0
M  V30 3172 H 288.116 1.50028 4.55004 0
M  V30 3173 H 286.48 0.705109 2.44745 0
M  V30 3174 H 287.263 2.37625 2.47769 0
M  V30 3175 N 289.708 -1.40897 0.706093 0
M  V30 3176 C 290.655 -2.30751 0.0474474 0
M  V30 3177 C 291.625 -1.47678 -0.76029 0
M  V30 3178 O 292.81 -1.76441 -0.726177 0
M  V30 3179 C 289.95 -3.33815 -0.875309 0
M  V30 3180 C 289.063 -4.31961 -0.0580623 0
M  V30 3181 C 288.198 -5.22093 -0.979425 0
M  V30 3182 C 287.237 -6.11902 -0.155706 0
M  V30 3183 N 286.374 -6.94482 -1.03144 0
M  V30 3184 H 291.214 -2.86513 0.819413 0
M  V30 3185 H 288.751 -1.41102 0.415783 0
M  V30 3186 H 290.709 -3.92129 -1.42446 0
M  V30 3187 H 289.339 -2.79579 -1.61356 0
M  V30 3188 H 288.391 -3.75507 0.608147 0
M  V30 3189 H 289.703 -4.95415 0.580082 0
M  V30 3190 H 288.857 -5.85292 -1.59744 0
M  V30 3191 H 287.596 -4.5889 -1.65141 0
M  V30 3192 H 286.601 -5.47742 0.475309 0
M  V30 3193 H 287.826 -6.77162 0.512635 0
M  V30 3194 H 285.772 -6.33877 -1.68924 0
M  V30 3195 H 285.689 -7.54665 -0.449108 0
M  V30 3196 H 286.957 -7.6214 -1.63593 0
M  V30 3197 N 291.186 -0.45159 -1.50991 0
M  V30 3198 C 292.434 0.109857 -2.01801 0
M  V30 3199 C 292.755 1.41958 -1.3369 0
M  V30 3200 O 292.025 1.9003 -0.475951 0
M  V30 3201 H 290.605 0.0435884 -0.745727 0
M  V30 3202 H 293.267 -0.597557 -1.85514 0
M  V30 3203 H 292.363 0.275489 -3.10882 0
M  V30 3204 N 292.664 1.56529 -0.183458 0
M  V30 3205 C 293.611 2.18546 0.742055 0
M  V30 3206 C 294.581 1.12912 1.2182 0
M  V30 3207 O 295.766 1.41115 1.28418 0
M  V30 3208 C 292.906 2.83977 1.96089 0
M  V30 3209 C 292.019 4.04105 1.52719 0
M  V30 3210 C 291.154 4.57427 2.70063 0
M  V30 3211 C 290.193 5.69938 2.23243 0
M  V30 3212 N 289.33 6.17717 3.33722 0
M  V30 3213 H 294.17 2.97284 0.206432 0
M  V30 3214 H 291.707 1.46823 0.0901571 0
M  V30 3215 H 293.665 3.20077 2.67594 0
M  V30 3216 H 292.295 2.07822 2.47002 0
M  V30 3217 H 291.347 3.73745 0.708436 0
M  V30 3218 H 292.659 4.85513 1.1436 0
M  V30 3219 H 291.813 4.95772 3.49708 0
M  V30 3220 H 290.552 3.75101 3.11689 0
M  V30 3221 H 289.557 5.31133 1.42048 0
M  V30 3222 H 290.782 6.54073 1.82661 0
M  V30 3223 H 288.728 5.38317 3.74902 0
M  V30 3224 H 288.645 6.94146 2.99495 0
M  V30 3225 H 289.913 6.60713 4.13616 0
M  V30 3226 N 294.142 -0.090211 1.57342 0
M  V30 3227 C 295.367 -0.810082 1.90925 0
M  V30 3228 C 295.792 -1.71248 0.778187 0
M  V30 3229 O 295.15 -1.79278 -0.269991 0
M  V30 3230 C 295.198 -1.59529 3.23393 0
M  V30 3231 O 294.302 -2.70461 3.11327 0
M  V30 3232 H 293.643 -0.222231 0.625707 0
M  V30 3233 H 296.173 -0.0639716 2.045 0
M  V30 3234 H 296.183 -1.97847 3.5682 0
M  V30 3235 H 294.858 -0.933055 4.05299 0
M  V30 3236 H 293.435 -2.35135 2.89423 0
M  V30 3237 N 295.62 -1.53406 -0.361157 0
M  V30 3238 C 296.53 -1.83122 -1.4664 0
M  V30 3239 C 297.546 -0.719943 -1.58407 0
M  V30 3240 O 298.722 -1.01046 -1.74218 0
M  V30 3241 C 295.787 -2.01891 -2.81853 0
M  V30 3242 C 294.848 -3.25784 -2.79577 0
M  V30 3243 C 294.081 -3.43648 -4.0834 0
M  V30 3244 O 294.304 -2.65714 -5.0473 0
M  V30 3245 O 293.238 -4.37018 -4.13883 0
M  V30 3246 H 297.064 -2.7703 -1.24451 0
M  V30 3247 H 294.649 -1.38841 -0.551678 0
M  V30 3248 H 296.531 -2.15782 -3.61962 0
M  V30 3249 H 295.206 -1.11173 -3.0401 0
M  V30 3250 H 294.113 -3.17312 -1.98151 0
M  V30 3251 H 295.446 -4.16439 -2.62373 0
M  V30 3252 N 297.098 0.621204 -1.44841 0
M  V30 3253 C 298.046 1.75385 -1.52784 0
M  V30 3254 C 299.04 1.64639 -0.398779 0
M  V30 3255 O 300.246 1.70598 -0.574137 0
M  V30 3256 H 296.621 0.579193 -0.479625 0
M  V30 3257 H 298.592 1.6581 -2.48092 0
M  V30 3258 C 297.341 3.13742 -1.4987 0
M  V30 3259 H 296.664 3.22663 -2.36069 0
M  V30 3260 H 298.104 3.92861 -1.59487 0
M  V30 3261 C 296.563 3.36175 -0.220973 0
M  V30 3262 O 297.093 3.95469 0.704782 0
M  V30 3263 N 295.299 2.90348 -0.120963 0
M  V30 3264 H 294.846 2.42278 -0.875162 0
M  V30 3265 H 294.804 3.05732 0.733168 0
M  V30 3266 N 298.576 1.31904 0.862503 0
M  V30 3267 C 299.486 1.22161 2.00285 0
M  V30 3268 C 300.502 0.136785 1.73462 0
M  V30 3269 O 301.678 0.355994 1.98229 0
M  V30 3270 C 298.743 0.937093 3.33796 0
M  V30 3271 C 297.804 2.10957 3.73893 0
M  V30 3272 C 297.037 1.83853 5.01033 0
M  V30 3273 O 297.26 0.777274 5.65079 0
M  V30 3274 O 296.194 2.69741 5.38074 0
M  V30 3275 H 300.02 2.18008 2.11439 0
M  V30 3276 H 297.605 1.11716 0.991957 0
M  V30 3277 H 299.487 0.794583 4.13841 0
M  V30 3278 H 298.162 0.00871894 3.23699 0
M  V30 3279 H 297.069 2.30752 2.94456 0
M  V30 3280 H 298.402 3.02046 3.88625 0
M  V30 3281 N 300.054 -1.07777 1.14986 0
M  V30 3282 C 301.303 -1.79669 0.916617 0
M  V30 3283 C 301.616 -1.87474 -0.557917 0
M  V30 3284 O 302.822 -2.55845 -0.908617 0
M  V30 3285 C 301.278 -3.22848 1.59051 0
M  V30 3286 C 300.886 -3.23257 3.10176 0
M  V30 3287 C 302.63 -3.99379 1.43864 0
M  V30 3288 C 300.537 -4.61063 3.70372 0
M  V30 3289 H 299.467 -0.673349 0.33929 0
M  V30 3290 H 302.118 -1.21003 1.37951 0
M  V30 3291 H 300.5 -3.8168 1.0553 0
M  V30 3292 H 301.674 -2.74095 3.70417 0
M  V30 3293 H 299.989 -2.60222 3.25074 0
M  V30 3294 H 302.586 -5.0122 1.86232 0
M  V30 3295 H 302.929 -4.14511 0.385564 0
M  V30 3296 H 303.462 -3.47032 1.94457 0
M  V30 3297 H 300.201 -4.51135 4.7556 0
M  V30 3298 H 299.721 -5.1048 3.14913 0
M  V30 3299 H 301.4 -5.30034 3.71043 0
M  V30 3300 N 301.532 -0.945985 -1.26051 0
M  V30 3301 C 302.462 -0.477172 -2.28572 0
M  V30 3302 C 303.443 0.472032 -1.63419 0
M  V30 3303 O 304.628 0.372853 -1.90587 0
M  V30 3304 C 301.758 0.253975 -3.4637 0
M  V30 3305 C 300.712 -0.609135 -4.23643 0
M  V30 3306 C 300.038 0.252252 -5.34105 0
M  V30 3307 C 301.338 -1.8829 -4.8718 0
M  V30 3308 H 303.032 -1.33402 -2.68038 0
M  V30 3309 H 300.578 -0.642904 -1.28852 0
M  V30 3310 H 302.531 0.593016 -4.17207 0
M  V30 3311 H 301.255 1.145 -3.05871 0
M  V30 3312 H 299.914 -0.931138 -3.54578 0
M  V30 3313 H 299.562 1.14278 -4.89846 0
M  V30 3314 H 299.262 -0.32188 -5.86718 0
M  V30 3315 H 300.786 0.586454 -6.07777 0
M  V30 3316 H 302.2 -1.61081 -5.50205 0
M  V30 3317 H 300.597 -2.40199 -5.49931 0
M  V30 3318 H 301.667 -2.59134 -4.09851 0
M  V30 3319 N 303.011 1.40521 -0.713556 0
M  V30 3320 C 303.958 2.30723 -0.059684 0
M  V30 3321 C 304.928 1.48079 0.752448 0
M  V30 3322 O 306.113 1.76823 0.71681 0
M  V30 3323 C 303.253 3.34274 0.857594 0
M  V30 3324 C 302.366 4.31986 0.0351536 0
M  V30 3325 C 301.501 5.22605 0.951724 0
M  V30 3326 C 300.54 6.11976 0.123253 0
M  V30 3327 N 299.677 6.9502 0.99459 0
M  V30 3328 H 304.517 2.86074 -0.834596 0
M  V30 3329 H 302.054 1.40879 -0.42326 0
M  V30 3330 H 304.012 3.92879 1.40364 0
M  V30 3331 H 302.642 2.8043 1.59871 0
M  V30 3332 H 301.694 3.7518 -0.628052 0
M  V30 3333 H 303.006 4.95101 -0.606347 0
M  V30 3334 H 302.16 5.86131 1.56638 0
M  V30 3335 H 300.899 4.59759 1.62705 0
M  V30 3336 H 299.904 5.47482 -0.50435 0
M  V30 3337 H 301.129 6.76881 -0.548539 0
M  V30 3338 H 299.075 6.34764 1.6556 0
M  V30 3339 H 298.992 7.54892 0.40908 0
M  V30 3340 H 300.26 7.62997 1.59549 0
M  V30 3341 N 304.489 0.459591 1.5075 0
M  V30 3342 C 305.736 -0.0993495 2.02256 0
M  V30 3343 C 306.064 -1.40751 1.34237 0
M  V30 3344 O 305.319 -1.90379 0.453228 0
M  V30 3345 C 305.618 -0.342866 3.55752 0
M  V30 3346 C 305.284 0.88218 4.42186 0
M  V30 3347 C 303.946 1.21808 4.65528 0
M  V30 3348 C 306.298 1.69837 4.92752 0
M  V30 3349 C 303.626 2.37045 5.36681 0
M  V30 3350 C 305.978 2.84192 5.65171 0
M  V30 3351 C 304.642 3.1821 5.8677 0
M  V30 3352 H 303.912 -0.0363545 0.740108 0
M  V30 3353 H 306.559 0.611329 1.8148 0
M  V30 3354 H 304.864 -1.13567 3.7498 0
M  V30 3355 H 306.561 -0.789121 3.93159 0
M  V30 3356 H 303.151 0.610467 4.2423 0
M  V30 3357 H 307.335 1.45205 4.74583 0
M  V30 3358 H 302.591 2.63689 5.51614 0
M  V30 3359 H 306.765 3.4779 6.03337 0
M  V30 3360 H 304.392 4.07613 6.41682 0
M  V30 3361 N 305.967 -1.56429 0.191757 0
M  V30 3362 C 307.207 -1.99383 -0.450099 0
M  V30 3363 C 307.571 -1.07581 -1.59029 0
M  V30 3364 O 308.772 -1.39758 -2.29611 0
M  V30 3365 C 307.043 -3.45841 -0.901611 0
M  V30 3366 S 308.602 -4.10822 -1.54177 0
M  V30 3367 H 305.42 -0.696253 -0.144057 0
M  V30 3368 H 308.022 -1.93276 0.294036 0
M  V30 3369 H 306.726 -4.10354 -0.0616596 0
M  V30 3370 H 306.257 -3.55757 -1.67929 0
M  V30 3371 H 308.272 -4.07553 -2.83046 0
M  V30 3372 N 307.445 0.0818655 -1.57387 0
M  V30 3373 C 308.377 1.12484 -1.997 0
M  V30 3374 C 309.39 1.35564 -0.90146 0
M  V30 3375 O 310.579 1.33982 -1.17945 0
M  V30 3376 C 307.679 2.47778 -2.31213 0
M  V30 3377 C 306.852 2.44793 -3.62485 0
M  V30 3378 C 305.911 3.62117 -3.81782 0
M  V30 3379 O 304.937 3.44005 -4.53486 0
M  V30 3380 N 306.139 4.82094 -3.23367 0
M  V30 3381 H 308.904 0.764585 -2.89783 0
M  V30 3382 H 306.465 0.270664 -1.59621 0
M  V30 3383 H 308.457 3.24891 -2.41304 0
M  V30 3384 H 307.027 2.75843 -1.4707 0
M  V30 3385 H 306.247 1.53134 -3.6324 0
M  V30 3386 H 307.535 2.39889 -4.48699 0
M  V30 3387 H 306.933 4.99713 -2.65148 0
M  V30 3388 H 305.49 5.56753 -3.38923 0
M  V30 3389 N 308.923 1.53595 0.353017 0
M  V30 3390 C 310.148 1.7462 1.11904 0
M  V30 3391 C 310.573 0.479721 1.8188 0
M  V30 3392 O 309.931 -0.567066 1.72204 0
M  V30 3393 C 309.979 2.92029 2.11545 0
M  V30 3394 O 309.083 2.61516 3.18878 0
M  V30 3395 H 308.424 0.579531 0.324099 0
M  V30 3396 H 310.954 2.00525 0.406301 0
M  V30 3397 H 310.964 3.18551 2.5493 0
M  V30 3398 H 309.639 3.83888 1.60008 0
M  V30 3399 H 308.216 2.45852 2.80377 0
M  V30 3400 N 310.401 -0.613514 1.45168 0
M  V30 3401 C 311.648 -1.37268 1.48875 0
M  V30 3402 C 311.976 -1.94077 0.128161 0
M  V30 3403 O 311.231 -1.75178 -0.872416 0
M  V30 3404 C 311.53 -2.54347 2.51083 0
M  V30 3405 C 311.196 -2.1572 3.95949 0
M  V30 3406 C 309.858 -2.04899 4.35396 0
M  V30 3407 C 312.21 -1.85485 4.87078 0
M  V30 3408 C 309.538 -1.62057 5.63875 0
M  V30 3409 C 311.89 -1.4413 6.15962 0
M  V30 3410 C 310.554 -1.31863 6.54346 0
M  V30 3411 H 309.824 -0.502299 0.544773 0
M  V30 3412 H 312.471 -0.694021 1.78481 0
M  V30 3413 H 310.776 -3.27524 2.15024 0
M  V30 3414 H 312.473 -3.12577 2.51191 0
M  V30 3415 H 309.063 -2.25066 3.64751 0
M  V30 3416 H 313.247 -1.92745 4.57343 0
M  V30 3417 H 308.503 -1.51177 5.92415 0
M  V30 3418 H 312.677 -1.19778 6.86022 0
M  V30 3419 H 310.304 -0.984392 7.538 0
M  V30 3420 N 311.879 -1.3236 -0.855495 0
M  V30 3421 C 312.812 -1.15559 -1.96777 0
M  V30 3422 C 313.79 -0.0552681 -1.62506 0
M  V30 3423 O 314.974 -0.214419 -1.87277 0
M  V30 3424 C 312.101 -0.768851 -3.29858 0
M  V30 3425 C 311.147 -1.87429 -3.83109 0
M  V30 3426 S 311.98 -3.48243 -4.06801 0
M  V30 3427 C 313.136 -3.11539 -5.42858 0
M  V30 3428 H 313.369 -2.09717 -2.10727 0
M  V30 3429 H 310.902 -1.17011 -1.00737 0
M  V30 3430 H 312.86 -0.55248 -4.06765 0
M  V30 3431 H 311.521 0.153857 -3.13723 0
M  V30 3432 H 310.714 -1.55667 -4.79358 0
M  V30 3433 H 310.316 -2.04647 -3.13042 0
M  V30 3434 H 312.608 -2.61331 -6.2507 0
M  V30 3435 H 313.551 -4.06806 -5.79582 0
M  V30 3436 H 313.959 -2.48582 -5.06821 0
M  V30 3437 N 313.357 1.07166 -1.15556 0
M  V30 3438 C 314.585 1.83514 -0.955519 0
M  V30 3439 C 315 1.82163 0.49621 0
M  V30 3440 O 314.357 1.23441 1.34419 0
M  V30 3441 C 314.408 3.30515 -1.46432 0
M  V30 3442 O 314.129 3.31937 -2.85918 0
M  V30 3443 C 315.63 4.23625 -1.30603 0
M  V30 3444 H 312.85 0.578926 -0.339244 0
M  V30 3445 H 315.394 1.35265 -1.53374 0
M  V30 3446 H 313.549 3.76106 -0.928584 0
M  V30 3447 H 313.963 4.23794 -3.09029 0
M  V30 3448 H 315.437 5.24831 -1.71047 0
M  V30 3449 H 315.914 4.38485 -0.250441 0
M  V30 3450 H 316.52 3.83871 -1.83094 0
M  V30 3451 N 314.835 0.952656 1.25548 0
M  V30 3452 C 315.783 0.462354 2.27958 0
M  V30 3453 C 316.777 -0.46634 1.62855 0
M  V30 3454 O 317.983 -0.343287 1.76696 0
M  V30 3455 H 314.358 0.13101 0.7405 0
M  V30 3456 H 316.329 1.33839 2.66702 0
M  V30 3457 C 315.078 -0.24628 3.46827 0
M  V30 3458 H 314.401 0.459192 3.97154 0
M  V30 3459 H 315.841 -0.553393 4.20373 0
M  V30 3460 C 314.3 -1.4681 3.0323 0
M  V30 3461 O 314.83 -2.56591 3.09069 0
M  V30 3462 N 313.036 -1.32874 2.58443 0
M  V30 3463 H 312.583 -0.435536 2.53891 0
M  V30 3464 H 312.541 -2.14742 2.29637 0
M  V30 3465 N 316.313 -1.40141 0.720998 0
M  V30 3466 C 317.243 -2.33339 0.0867621 0
M  V30 3467 C 318.224 -1.53178 -0.739622 0
M  V30 3468 O 319.409 -1.81625 -0.687449 0
M  V30 3469 C 316.539 -3.37194 -0.831728 0
M  V30 3470 C 315.493 -4.27857 -0.110558 0
M  V30 3471 C 314.819 -5.22294 -1.14513 0
M  V30 3472 C 316.119 -5.11872 1.0385 0
M  V30 3473 H 317.813 -2.86626 0.865219 0
M  V30 3474 H 315.359 -1.37814 0.417516 0
M  V30 3475 H 317.312 -4.01335 -1.28485 0
M  V30 3476 H 316.036 -2.82314 -1.64214 0
M  V30 3477 H 314.695 -3.65176 0.322797 0
M  V30 3478 H 314.343 -4.63717 -1.94874 0
M  V30 3479 H 314.043 -5.83797 -0.667446 0
M  V30 3480 H 315.567 -5.89312 -1.59824 0
M  V30 3481 H 316.981 -5.69436 0.664482 0
M  V30 3482 H 315.378 -5.82445 1.4449 0
M  V30 3483 H 316.448 -4.4753 1.86668 0
M  V30 3484 N 317.792 -0.46758 -1.50504 0
M  V30 3485 C 319.039 0.0886219 -2.02306 0
M  V30 3486 C 319.367 1.40037 -1.34981 0
M  V30 3487 O 318.622 1.90136 -0.463318 0
M  V30 3488 C 318.921 0.323995 -3.55928 0
M  V30 3489 C 318.587 -0.905618 -4.41712 0
M  V30 3490 C 317.249 -1.24275 -4.64875 0
M  V30 3491 C 319.601 -1.72448 -4.91845 0
M  V30 3492 C 316.929 -2.39888 -5.35417 0
M  V30 3493 C 319.281 -2.87185 -5.63656 0
M  V30 3494 C 317.945 -3.21317 -5.85074 0
M  V30 3495 H 317.215 0.0324291 -0.74029 0
M  V30 3496 H 319.862 -0.620945 -1.81153 0
M  V30 3497 H 318.167 1.11577 -3.75577 0
M  V30 3498 H 319.864 0.76826 -3.93572 0
M  V30 3499 H 316.454 -0.632956 -4.239 0
M  V30 3500 H 320.638 -1.4772 -4.73806 0
M  V30 3501 H 315.894 -2.66611 -5.50208 0
M  V30 3502 H 320.068 -3.50985 -6.01484 0
M  V30 3503 H 317.695 -4.1101 -6.39511 0
M  V30 3504 N 319.27 1.56325 -0.20005 0
M  V30 3505 C 320.686 1.58839 0.155716 0
M  V30 3506 C 320.886 1.21636 1.60645 0
M  V30 3507 O 319.942 0.941437 2.34293 0
M  V30 3508 C 321.255 3.0032 -0.151124 0
M  V30 3509 C 322.803 3.12866 -0.0916284 0
M  V30 3510 C 323.278 4.56488 -0.371845 0
M  V30 3511 N 324.769 4.62089 -0.320641 0
M  V30 3512 C 325.504 5.71116 -0.511243 0
M  V30 3513 N 325 6.88592 -0.762461 0
M  V30 3514 N 326.793 5.60335 -0.445157 0
M  V30 3515 H 318.944 1.78788 -1.14668 0
M  V30 3516 H 321.207 0.829996 -0.458051 0
M  V30 3517 H 320.913 3.32117 -1.15721 0
M  V30 3518 H 320.787 3.73257 0.543986 0
M  V30 3519 H 323.174 2.80878 0.905065 0
M  V30 3520 H 323.255 2.42304 -0.81989 0
M  V30 3521 H 322.899 4.89189 -1.36588 0
M  V30 3522 H 322.829 5.25246 0.377362 0
M  V30 3523 H 325.32 3.77665 -0.13329 0
M  V30 3524 H 325.633 7.67581 -0.896576 0
M  V30 3525 H 323.978 6.90387 -0.799412 0
M  V30 3526 H 327.169 4.67436 -0.249278 0
M  V30 3527 H 327.342 6.45243 -0.597116 0
M  V30 3528 N 320.748 -0.0735177 1.57428 0
M  V30 3529 C 321.978 -0.78483 1.91112 0
M  V30 3530 C 322.386 -1.71729 0.7941 0
M  V30 3531 O 321.729 -1.82105 -0.241542 0
M  V30 3532 C 321.791 -1.63346 3.20247 0
M  V30 3533 C 321.455 -0.870557 4.48632 0
M  V30 3534 C 322.452 -0.19058 5.19551 0
M  V30 3535 C 320.137 -0.838242 4.95256 0
M  V30 3536 C 322.131 0.511503 6.35344 0
M  V30 3537 C 319.818 -0.132386 6.10957 0
M  V30 3538 C 320.816 0.541288 6.80852 0
M  V30 3539 O 320.504 1.23578 7.94345 0
M  V30 3540 H 320.236 -0.228408 0.636244 0
M  V30 3541 H 322.79 -0.0486039 2.05342 0
M  V30 3542 H 321.02 -2.41245 3.02222 0
M  V30 3543 H 322.709 -2.22329 3.39595 0
M  V30 3544 H 323.475 -0.206864 4.84559 0
M  V30 3545 H 319.354 -1.35206 4.40727 0
M  V30 3546 H 322.898 1.03789 6.89836 0
M  V30 3547 H 318.795 -0.114023 6.45399 0
M  V30 3548 H 319.563 1.14487 8.10454 0
M  V30 3549 N 322.226 -1.5378 -0.344866 0
M  V30 3550 C 323.475 -1.7018 -1.08267 0
M  V30 3551 C 323.788 -0.471 -1.89845 0
M  V30 3552 O 324.994 -0.515917 -2.66553 0
M  V30 3553 C 323.45 -3.00923 -1.97417 0
M  V30 3554 C 323.058 -4.31335 -1.21053 0
M  V30 3555 C 324.802 -3.26688 -2.71063 0
M  V30 3556 C 322.709 -5.53153 -2.09225 0
M  V30 3557 H 321.639 -0.634138 -0.407903 0
M  V30 3558 H 324.29 -1.8028 -0.342246 0
M  V30 3559 H 322.672 -2.84676 -2.75274 0
M  V30 3560 H 323.846 -4.58281 -0.481159 0
M  V30 3561 H 322.161 -4.12173 -0.591813 0
M  V30 3562 H 324.758 -4.1489 -3.37299 0
M  V30 3563 H 325.101 -2.43639 -3.37558 0
M  V30 3564 H 325.634 -3.43705 -2.0028 0
M  V30 3565 H 322.373 -6.38741 -1.47274 0
M  V30 3566 H 321.893 -5.30458 -2.79955 0
M  V30 3567 H 323.572 -5.88744 -2.68308 0
M  V30 3568 N 323.704 0.605807 -1.45491 0
M  V30 3569 C 324.952 1.36207 -1.49305 0
M  V30 3570 C 325.273 1.94519 -0.136863 0
M  V30 3571 O 324.543 1.77261 0.833983 0
M  V30 3572 H 323.123 0.50565 -0.549843 0
M  V30 3573 H 325.785 0.711239 -1.81459 0
M  V30 3574 H 324.881 2.18058 -2.23287 0
M  V30 3575 N 325.182 1.32811 0.848464 0
M  V30 3576 C 326.593 1.21315 1.41914 0
M  V30 3577 C 326.944 -0.171847 1.95446 0
M  V30 3578 O 326.069 -1.07093 1.88043 0
M  V30 3579 C 326.664 2.19631 2.57968 0
M  V30 3580 C 325.223 2.12003 3.11017 0
M  V30 3581 C 324.37 2.07651 1.83783 0
M  V30 3582 H 327.321 1.44549 0.655071 0
M  V30 3583 H 327.342 1.79845 3.35315 0
M  V30 3584 H 326.854 3.20423 2.18976 0
M  V30 3585 H 324.955 1.14481 3.54577 0
M  V30 3586 H 325.068 3.02111 3.71841 0
M  V30 3587 H 323.432 1.52983 2.03638 0
M  V30 3588 H 324.215 3.10235 1.47 0
M  V30 3589 N 326.66 -1.06551 1.16123 0
M  V30 3590 C 327.608 -2.16063 0.861371 0
M  V30 3591 C 328.602 -1.6856 -0.168517 0
M  V30 3592 O 329.808 -1.79986 -0.0227579 0
M  V30 3593 H 326.183 -0.705278 0.260934 0
M  V30 3594 H 328.154 -2.38567 1.79244 0
M  V30 3595 C 326.903 -3.45661 0.376018 0
M  V30 3596 H 326.226 -3.82604 1.15992 0
M  V30 3597 H 327.666 -4.23504 0.204951 0
M  V30 3598 C 326.125 -3.24546 -0.903954 0
M  V30 3599 O 326.655 -3.49865 -1.97377 0
M  V30 3600 N 324.861 -2.77992 -0.846679 0
M  V30 3601 H 324.408 -2.57589 0.0241017 0
M  V30 3602 H 324.366 -2.64244 -1.70359 0
M  V30 3603 N 328.138 -0.959301 -1.25041 0
M  V30 3604 C 329.366 -0.633949 -1.96948 0
M  V30 3605 C 329.781 0.794916 -1.7125 0
M  V30 3606 O 329.138 1.53231 -0.991287 0
M  V30 3607 C 329.189 -0.888805 -3.50403 0
M  V30 3608 O 328.91 -2.26149 -3.75218 0
M  V30 3609 C 330.411 -0.576482 -4.39536 0
M  V30 3610 H 327.631 -0.237263 -0.627652 0
M  V30 3611 H 330.175 -1.28495 -1.59089 0
M  V30 3612 H 328.33 -0.284145 -3.86357 0
M  V30 3613 H 328.744 -2.33514 -4.6965 0
M  V30 3614 H 330.218 -0.805314 -5.46094 0
M  V30 3615 H 330.695 0.489075 -4.36468 0
M  V30 3616 H 331.301 -1.16067 -4.09156 0
M  V30 3617 N 329.616 1.39756 -0.72842 0
M  V30 3618 C 330.893 1.94574 -0.200079 0
M  V30 3619 C 331.273 1.66569 1.29684 0
M  V30 3620 O 330.621 0.990326 2.05924 0
M  V30 3621 C 330.831 3.45004 -0.526608 0
M  V30 3622 C 332.179 4.21965 -0.472318 0
M  V30 3623 O 333.203 3.53173 -0.463413 0
M  V30 3624 O 332.062 5.44552 -0.461075 0
M  V30 3625 H 329.156 0.826289 -0.0342851 0
M  V30 3626 H 331.702 1.49293 -0.806829 0
M  V30 3627 H 330.474 3.58796 -1.56144 0
M  V30 3628 H 330.097 3.97449 0.109449 0
M  V30 3629 N 331.094 0.475555 1.50254 0
M  V30 3630 C 332.34 -0.0780073 2.0265 0
M  V30 3631 C 332.673 -1.38968 1.35652 0
M  V30 3632 O 331.948 -1.8839 0.483691 0
M  V30 3633 C 332.231 -0.257161 3.59181 0
M  V30 3634 C 332.084 1.07585 4.36744 0
M  V30 3635 C 333.403 -1.00965 4.28362 0
M  V30 3636 H 330.522 -0.0268758 0.73651 0
M  V30 3637 H 333.164 0.622015 1.7953 0
M  V30 3638 H 331.314 -0.853412 3.79011 0
M  V30 3639 H 332.986 1.70902 4.28474 0
M  V30 3640 H 331.229 1.6714 4.00308 0
M  V30 3641 H 331.9 0.904088 5.44546 0
M  V30 3642 H 334.376 -0.504214 4.13034 0
M  V30 3643 H 333.252 -1.10381 5.37687 0
M  V30 3644 H 333.513 -2.04731 3.91839 0
M  V30 3645 N 332.573 -1.56217 0.208337 0
M  V30 3646 C 333.984 -1.84243 -0.301904 0
M  V30 3647 C 334.335 -1.12939 -1.60434 0
M  V30 3648 O 333.46 -0.39461 -2.12772 0
M  V30 3649 C 334.055 -3.34231 -0.554543 0
M  V30 3650 C 332.614 -3.62621 -1.00912 0
M  V30 3651 C 331.761 -2.77224 -0.064933 0
M  V30 3652 H 334.712 -1.52712 0.431833 0
M  V30 3653 H 334.733 -3.5372 -1.40223 0
M  V30 3654 H 334.245 -3.86099 0.393561 0
M  V30 3655 H 332.346 -3.16197 -1.97104 0
M  V30 3656 H 332.459 -4.7071 -0.892674 0
M  V30 3657 H 330.823 -2.48256 -0.56929 0
M  V30 3658 H 331.606 -3.31887 0.877851 0
M  V30 3659 N 334.051 0.0651679 -1.57465 0
M  V30 3660 C 335.014 1.06117 -2.03155 0
M  V30 3661 C 336.014 1.31204 -0.929632 0
M  V30 3662 O 337.204 1.26813 -1.19432 0
M  V30 3663 C 334.336 2.4032 -2.41783 0
M  V30 3664 H 335.529 0.667231 -2.92383 0
M  V30 3665 H 333.082 0.311075 -1.53173 0
M  V30 3666 H 333.817 2.84532 -1.55601 0
M  V30 3667 H 333.602 2.23451 -3.22199 0
M  V30 3668 H 335.092 3.11898 -2.77685 0
M  V30 3669 N 335.529 1.53961 0.336706 0
M  V30 3670 C 336.777 1.71197 1.07405 0
M  V30 3671 C 337.098 0.481475 1.88962 0
M  V30 3672 O 336.368 -0.504585 1.8929 0
M  V30 3673 H 334.948 0.631185 0.399517 0
M  V30 3674 H 337.61 1.91232 0.376323 0
M  V30 3675 H 336.706 2.58587 1.74755 0
M  V30 3676 N 337.007 -0.598083 1.45811 0
M  V30 3677 C 338.284 -1.35777 1.40797 0
M  V30 3678 C 338.664 -2.10935 0.083462 0
M  V30 3679 O 338.012 -2.08505 -0.934763 0
M  V30 3680 C 338.222 -2.29666 2.62783 0
M  V30 3681 C 339.57 -2.91977 3.08277 0
M  V30 3682 O 340.594 -2.39984 2.63223 0
M  V30 3683 O 339.453 -3.86376 3.86491 0
M  V30 3684 H 336.547 -0.609291 0.55919 0
M  V30 3685 H 339.093 -0.620379 1.57954 0
M  V30 3686 H 337.865 -1.73454 3.50756 0
M  V30 3687 H 337.488 -3.1077 2.48008 0
M  V30 3688 N 338.485 -1.33259 -0.841409 0
M  V30 3689 C 339.734 -1.23921 -1.59143 0
M  V30 3690 C 340.047 0.1941 -1.94635 0
M  V30 3691 O 341.253 0.409474 -2.68394 0
M  V30 3692 C 339.709 -2.17119 -2.87032 0
M  V30 3693 C 339.317 -3.65606 -2.58914 0
M  V30 3694 C 341.061 -2.16648 -3.65053 0
M  V30 3695 C 338.968 -4.50726 -3.82884 0
M  V30 3696 H 337.898 -0.460264 -0.597221 0
M  V30 3697 H 340.549 -1.58307 -0.927959 0
M  V30 3698 H 338.931 -1.75663 -3.54906 0
M  V30 3699 H 340.105 -4.15487 -1.99267 0
M  V30 3700 H 338.42 -3.68341 -1.942 0
M  V30 3701 H 341.017 -2.77474 -4.57069 0
M  V30 3702 H 341.36 -1.16088 -3.99787 0
M  V30 3703 H 341.893 -2.56453 -3.041 0
M  V30 3704 H 338.632 -5.52151 -3.53283 0
M  V30 3705 H 338.152 -4.0559 -4.41879 0
M  V30 3706 H 339.831 -4.64401 -4.50489 0
M  V30 3707 N 339.963 1.05934 -1.16686 0
M  V30 3708 C 341.211 1.78447 -0.948744 0
M  V30 3709 C 341.532 1.87813 0.524523 0
M  V30 3710 O 340.802 1.38945 1.38098 0
M  V30 3711 H 339.382 0.660971 -0.348033 0
M  V30 3712 H 342.044 1.27947 -1.47022 0
M  V30 3713 H 341.14 2.80394 -1.37061 0
M  V30 3714 N 341.441 0.965919 1.2453 0
M  V30 3715 C 342.687 0.62776 1.92839 0
M  V30 3716 C 343.02 -0.834694 1.75347 0
M  V30 3717 O 342.295 -1.60031 1.10546 0
M  V30 3718 C 342.578 1.00109 3.45905 0
M  V30 3719 C 342.431 2.52011 3.72573 0
M  V30 3720 C 343.75 0.53435 4.36844 0
M  V30 3721 H 340.869 0.229537 0.700344 0
M  V30 3722 H 343.511 1.2046 1.46933 0
M  V30 3723 H 341.661 0.510238 3.85135 0
M  V30 3724 H 343.333 3.08559 3.42912 0
M  V30 3725 H 341.576 2.95287 3.17786 0
M  V30 3726 H 342.247 2.73183 4.79661 0
M  V30 3727 H 344.723 0.955565 4.04979 0
M  V30 3728 H 343.599 0.824152 5.42678 0
M  V30 3729 H 343.86 -0.565589 4.38467 0
M  V30 3730 N 342.919 -1.39368 0.735821 0
M  V30 3731 C 344.167 -2.00101 0.283562 0
M  V30 3732 C 344.488 -1.5868 -1.13338 0
M  V30 3733 O 343.758 -0.835423 -1.77193 0
M  V30 3734 H 342.338 -0.740024 0.101851 0
M  V30 3735 H 345 -1.70404 0.945962 0
M  V30 3736 H 344.096 -3.10323 0.332604 0
M  V30 3737 N 344.397 -0.483516 -1.5 0
M  V30 3738 C 345.645 0.067027 -2.01989 0
M  V30 3739 C 345.966 1.3909 -1.36671 0
M  V30 3740 O 345.236 1.88978 -0.516152 0
M  V30 3741 H 343.816 0.0277606 -0.746484 0
M  V30 3742 H 346.478 -0.636773 -1.84204 0
M  V30 3743 H 345.574 0.209484 -3.11396 0
M  V30 3744 N 345.875 1.56104 -0.216619 0
M  V30 3745 C 347.291 1.58995 0.13886 0
M  V30 3746 C 347.491 1.23333 1.59346 0
M  V30 3747 O 346.547 0.966234 2.33281 0
M  V30 3748 C 347.86 3.00143 -0.182968 0
M  V30 3749 C 349.408 3.12751 -0.124807 0
M  V30 3750 C 349.883 4.56068 -0.420241 0
M  V30 3751 N 351.374 4.61723 -0.369634 0
M  V30 3752 C 352.109 5.70542 -0.571789 0
M  V30 3753 N 351.605 6.87744 -0.835453 0
M  V30 3754 N 353.398 5.59831 -0.504563 0
M  V30 3755 H 345.549 1.77562 -1.16557 0
M  V30 3756 H 347.812 0.825091 -0.466828 0
M  V30 3757 H 347.518 3.30871 -1.19237 0
M  V30 3758 H 347.392 3.73813 0.504367 0
M  V30 3759 H 349.779 2.81822 0.875223 0
M  V30 3760 H 349.86 2.41421 -0.845544 0
M  V30 3761 H 349.504 4.87713 -1.41769 0
M  V30 3762 H 349.434 5.25617 0.321631 0
M  V30 3763 H 351.925 3.77502 -0.173338 0
M  V30 3764 H 352.238 7.66587 -0.977938 0
M  V30 3765 H 350.583 6.895 -0.872592 0
M  V30 3766 H 353.774 4.67145 -0.298842 0
M  V30 3767 H 353.947 6.44573 -0.665519 0
M  V30 3768 N 347.353 -0.0568162 1.57498 0
M  V30 3769 C 348.263 -1.08346 2.08083 0
M  V30 3770 C 349.279 -1.41439 1.01346 0
M  V30 3771 O 350.455 -1.51316 1.32912 0
M  V30 3772 C 347.52 -2.37352 2.52715 0
M  V30 3773 C 346.581 -2.11093 3.73816 0
M  V30 3774 C 345.814 -3.33949 4.1631 0
M  V30 3775 O 346.037 -4.43622 3.58547 0
M  V30 3776 O 344.971 -3.21279 5.08983 0
M  V30 3777 H 348.797 -0.683667 2.95905 0
M  V30 3778 H 346.382 -0.271965 1.46904 0
M  V30 3779 H 348.264 -3.13246 2.81877 0
M  V30 3780 H 346.939 -2.76681 1.68016 0
M  V30 3781 H 345.846 -1.32856 3.49714 0
M  V30 3782 H 347.179 -1.76637 4.59413 0
M  V30 3783 N 348.832 -1.54138 -0.328536 0
M  V30 3784 C 350.081 -1.71318 -1.06456 0
M  V30 3785 C 350.394 -0.491109 -1.89334 0
M  V30 3786 O 351.6 -0.54416 -2.65991 0
M  V30 3787 C 350.056 -3.03 -1.94214 0
M  V30 3788 C 349.664 -4.32595 -1.16471 0
M  V30 3789 C 351.408 -3.29544 -2.67583 0
M  V30 3790 C 349.315 -5.55341 -2.03347 0
M  V30 3791 H 348.245 -0.638429 -0.401155 0
M  V30 3792 H 350.896 -1.80633 -0.323106 0
M  V30 3793 H 349.278 -2.87579 -2.72239 0
M  V30 3794 H 350.452 -4.58766 -0.432525 0
M  V30 3795 H 348.767 -4.12777 -0.548063 0
M  V30 3796 H 351.364 -4.18444 -3.3288 0
M  V30 3797 H 351.707 -2.47206 -3.34955 0
M  V30 3798 H 352.24 -3.45809 -1.96623 0
M  V30 3799 H 348.979 -6.40268 -1.40491 0
M  V30 3800 H 348.499 -5.33397 -2.74313 0
M  V30 3801 H 350.178 -5.91557 -2.62049 0
M  V30 3802 N 350.31 0.590341 -1.46126 0
M  V30 3803 C 351.558 1.34616 -1.50742 0
M  V30 3804 C 351.879 1.94363 -0.157486 0
M  V30 3805 O 351.149 1.78136 0.815136 0
M  V30 3806 H 349.729 0.499789 -0.555175 0
M  V30 3807 H 352.391 0.691953 -1.82203 0
M  V30 3808 H 351.487 2.15678 -2.25587 0
M  V30 3809 N 351.788 1.33704 0.83433 0
M  V30 3810 C 353.018 1.28281 1.6195 0
M  V30 3811 C 353.426 -0.147603 1.88623 0
M  V30 3812 O 352.769 -1.1016 1.47005 0
M  V30 3813 C 352.831 1.99386 2.99141 0
M  V30 3814 C 352.495 3.48681 2.95416 0
M  V30 3815 C 353.492 4.438 2.70809 0
M  V30 3816 C 351.177 3.90925 3.15409 0
M  V30 3817 C 353.171 5.79138 2.66229 0
M  V30 3818 C 350.858 5.26366 3.10454 0
M  V30 3819 C 351.856 6.20284 2.85895 0
M  V30 3820 O 351.544 7.53245 2.80852 0
M  V30 3821 H 351.276 0.44315 0.510484 0
M  V30 3822 H 353.83 1.76711 1.04702 0
M  V30 3823 H 352.06 1.45554 3.58261 0
M  V30 3824 H 353.749 1.87403 3.60049 0
M  V30 3825 H 354.515 4.12485 2.5511 0
M  V30 3826 H 350.394 3.18229 3.33543 0
M  V30 3827 H 353.938 6.52416 2.4698 0
M  V30 3828 H 349.835 5.57304 3.25703 0
M  V30 3829 H 350.603 7.62846 2.96661 0
M  V30 3830 N 353.266 -1.05314 1.17247 0
M  V30 3831 C 354.196 -2.1498 0.911362 0
M  V30 3832 C 355.177 -1.69471 -0.146169 0
M  V30 3833 O 356.362 -1.942 0.003812 0
M  V30 3834 C 353.492 -3.4472 0.422528 0
M  V30 3835 C 352.446 -4.03789 1.4191 0
M  V30 3836 C 351.772 -5.28858 0.788274 0
M  V30 3837 C 353.072 -4.41418 2.7919 0
M  V30 3838 H 354.766 -2.3708 1.82848 0
M  V30 3839 H 352.312 -1.13938 0.880569 0
M  V30 3840 H 354.265 -4.20787 0.227289 0
M  V30 3841 H 352.989 -3.22269 -0.530123 0
M  V30 3842 H 351.648 -3.2979 1.60106 0
M  V30 3843 H 351.296 -5.02709 -0.171173 0
M  V30 3844 H 350.996 -5.69338 1.45353 0
M  V30 3845 H 352.52 -6.07612 0.603282 0
M  V30 3846 H 353.934 -5.08524 2.64719 0
M  V30 3847 H 352.331 -4.92913 3.42282 0
M  V30 3848 H 353.401 -3.51819 3.33693 0
M  V30 3849 N 354.744 -0.972509 -1.24016 0
M  V30 3850 C 355.991 -0.637034 -1.92219 0
M  V30 3851 C 356.319 0.828418 -1.75976 0
M  V30 3852 O 355.574 1.61206 -1.10955 0
M  V30 3853 C 355.873 -0.963694 -3.44162 0
M  V30 3854 C 355.539 -2.41807 -3.80579 0
M  V30 3855 C 354.201 -2.81556 -3.9023 0
M  V30 3856 C 356.553 -3.36172 -3.98293 0
M  V30 3857 C 353.881 -4.14702 -4.15017 0
M  V30 3858 C 356.233 -4.68952 -4.24578 0
M  V30 3859 C 354.897 -5.08472 -4.32449 0
M  V30 3860 H 354.167 -0.233107 -0.703379 0
M  V30 3861 H 356.814 -1.2249 -1.47202 0
M  V30 3862 H 355.119 -0.29365 -3.90698 0
M  V30 3863 H 356.816 -0.682449 -3.9515 0
M  V30 3864 H 353.406 -2.09988 -3.73635 0
M  V30 3865 H 357.59 -3.06644 -3.90234 0
M  V30 3866 H 352.846 -4.4494 -4.19331 0
M  V30 3867 H 357.02 -5.42037 -4.37229 0
M  V30 3868 H 354.647 -6.11665 -4.51409 0
M  V30 3869 N 356.222 1.38976 -0.743202 0
M  V30 3870 C 357.47 1.99948 -0.29417 0
M  V30 3871 C 357.791 1.59279 1.12495 0
M  V30 3872 O 357.061 0.844808 1.76748 0
M  V30 3873 H 355.641 0.739473 -0.105774 0
M  V30 3874 H 358.303 1.699 -0.954986 0
M  V30 3875 H 357.399 3.10142 -0.349056 0
M  V30 3876 N 357.7 0.491464 1.49741 0
M  V30 3877 C 358.632 -0.328609 2.26832 0
M  V30 3878 C 359.645 -0.939113 1.32983 0
M  V30 3879 O 360.834 -0.824067 1.58339 0
M  V30 3880 C 357.934 -1.47675 3.05033 0
M  V30 3881 C 357.107 -0.975305 4.26388 0
M  V30 3882 C 356.166 -1.99991 4.86714 0
M  V30 3883 O 355.192 -1.57229 5.47054 0
M  V30 3884 N 356.394 -3.32962 4.75517 0
M  V30 3885 H 359.159 0.332377 2.97851 0
M  V30 3886 H 356.72 0.323441 1.58636 0
M  V30 3887 H 358.712 -2.15954 3.42266 0
M  V30 3888 H 357.282 -2.04206 2.36683 0
M  V30 3889 H 356.502 -0.117723 3.94024 0
M  V30 3890 H 357.79 -0.618531 5.05026 0
M  V30 3891 H 357.188 -3.70399 4.27576 0
M  V30 3892 H 355.745 -3.96982 5.16961 0
M  V30 3893 N 359.178 -1.55987 0.224894 0
M  V30 3894 C 360.408 -2.02489 -0.41007 0
M  V30 3895 C 360.816 -1.10391 -1.53657 0
M  V30 3896 O 360.159 -0.106458 -1.83391 0
M  V30 3897 C 360.221 -3.45319 -0.999757 0
M  V30 3898 C 359.885 -4.56999 -0.00827976 0
M  V30 3899 C 360.882 -5.13812 0.793314 0
M  V30 3900 C 358.567 -5.02176 0.111442 0
M  V30 3901 C 360.561 -6.14276 1.7013 0
M  V30 3902 C 358.248 -6.02477 1.02296 0
M  V30 3903 C 359.246 -6.58403 1.81643 0
M  V30 3904 O 358.934 -7.56751 2.71262 0
M  V30 3905 H 358.666 -0.667915 -0.104235 0
M  V30 3906 H 361.22 -2.0257 0.339782 0
M  V30 3907 H 359.45 -3.42318 -1.79876 0
M  V30 3908 H 361.139 -3.7545 -1.54248 0
M  V30 3909 H 361.905 -4.79756 0.711288 0
M  V30 3910 H 357.784 -4.58323 -0.49605 0
M  V30 3911 H 361.328 -6.57854 2.32107 0
M  V30 3912 H 357.225 -6.35954 1.10599 0
M  V30 3913 H 357.993 -7.74286 2.65375 0
M  V30 3914 N 360.656 0.0484629 -1.57525 0
M  V30 3915 C 361.603 1.05504 -2.05275 0
M  V30 3916 C 362.573 1.37084 -0.937927 0
M  V30 3917 O 363.758 1.47754 -1.2072 0
M  V30 3918 C 360.898 2.35676 -2.52093 0
M  V30 3919 C 360.011 2.10423 -3.77288 0
M  V30 3920 C 359.146 3.34327 -4.12794 0
M  V30 3921 C 358.185 3.04542 -5.30962 0
M  V30 3922 N 357.322 4.20841 -5.61994 0
M  V30 3923 H 362.162 0.640885 -2.91027 0
M  V30 3924 H 359.699 0.304854 -1.43906 0
M  V30 3925 H 361.657 3.11709 -2.77297 0
M  V30 3926 H 360.287 2.7485 -1.69285 0
M  V30 3927 H 359.339 1.24976 -3.59284 0
M  V30 3928 H 360.651 1.84438 -4.63448 0
M  V30 3929 H 359.805 4.1874 -4.39024 0
M  V30 3930 H 358.544 3.63408 -3.25247 0
M  V30 3931 H 357.549 2.18528 -5.04505 0
M  V30 3932 H 358.774 2.76758 -6.20146 0
M  V30 3933 H 356.72 4.4991 -4.77406 0
M  V30 3934 H 356.637 3.98212 -6.42622 0
M  V30 3935 H 357.905 5.06184 -5.92789 0
M  V30 3936 N 362.134 1.5431 0.320358 0
M  V30 3937 C 363.081 1.83918 1.39438 0
M  V30 3938 C 364.051 0.686525 1.51248 0
M  V30 3939 O 365.236 0.933269 1.66417 0
M  V30 3940 C 362.376 2.075 2.75749 0
M  V30 3941 C 361.489 3.35177 2.72544 0
M  V30 3942 C 360.624 3.48704 4.00723 0
M  V30 3943 C 359.663 4.70244 3.91838 0
M  V30 3944 N 358.8 4.80679 5.11754 0
M  V30 3945 H 363.64 2.75544 1.13489 0
M  V30 3946 H 361.177 1.36459 0.549309 0
M  V30 3947 H 363.135 2.19166 3.54996 0
M  V30 3948 H 361.765 1.19163 3 0
M  V30 3949 H 360.817 3.32233 1.85271 0
M  V30 3950 H 362.129 4.24534 2.61863 0
M  V30 3951 H 361.283 3.59928 4.88402 0
M  V30 3952 H 360.022 2.57445 4.14214 0
M  V30 3953 H 359.027 4.59072 3.02544 0
M  V30 3954 H 360.252 5.6289 3.7991 0
M  V30 3955 H 358.198 3.92337 5.25745 0
M  V30 3956 H 358.115 5.64007 5.0342 0
M  V30 3957 H 359.383 4.96239 6.01138 0
M  V30 3958 N 363.613 -0.582584 1.46437 0
M  V30 3959 C 364.543 -1.70187 1.59871 0
M  V30 3960 C 365.524 -1.64066 0.449042 0
M  V30 3961 O 366.709 -1.82081 0.6753 0
M  V30 3962 C 363.839 -3.08827 1.58881 0
M  V30 3963 C 362.793 -3.29779 2.72819 0
M  V30 3964 C 362.119 -4.68947 2.5689 0
M  V30 3965 C 363.419 -3.17601 4.1464 0
M  V30 3966 H 365.113 -1.592 2.53566 0
M  V30 3967 H 362.659 -0.764472 1.22032 0
M  V30 3968 H 364.612 -3.86951 1.66873 0
M  V30 3969 H 363.336 -3.20713 0.617306 0
M  V30 3970 H 361.995 -2.54054 2.64296 0
M  V30 3971 H 361.643 -4.77599 1.57823 0
M  V30 3972 H 361.343 -4.83919 3.33312 0
M  V30 3973 H 362.867 -5.4924 2.66773 0
M  V30 3974 H 364.281 -3.8557 4.24274 0
M  V30 3975 H 362.678 -3.44094 4.9165 0
M  V30 3976 H 363.748 -2.14681 4.34788 0
M  V30 3977 N 365.091 -1.34144 -0.827227 0
M  V30 3978 C 366.038 -1.25364 -1.93785 0
M  V30 3979 C 367.008 -0.129774 -1.65592 0
M  V30 3980 O 368.193 -0.310024 -1.88264 0
M  V30 3981 C 365.333 -1.01064 -3.2997 0
M  V30 3982 C 364.446 -2.22185 -3.70484 0
M  V30 3983 C 363.581 -1.91203 -4.95595 0
M  V30 3984 C 362.62 -3.08491 -5.28677 0
M  V30 3985 N 361.757 -2.77421 -6.44967 0
M  V30 3986 H 366.597 -2.20347 -2.00627 0
M  V30 3987 H 364.134 -1.09558 -0.981608 0
M  V30 3988 H 366.092 -0.850139 -4.08446 0
M  V30 3989 H 364.722 -0.0975026 -3.22653 0
M  V30 3990 H 363.774 -2.4917 -2.87434 0
M  V30 3991 H 365.086 -3.0983 -3.90905 0
M  V30 3992 H 364.24 -1.71864 -5.81848 0
M  V30 3993 H 362.979 -1.00812 -4.77167 0
M  V30 3994 H 361.984 -3.28431 -4.40923 0
M  V30 3995 H 363.209 -3.99655 -5.49047 0
M  V30 3996 H 361.155 -1.89601 -6.28003 0
M  V30 3997 H 361.072 -3.58598 -6.6554 0
M  V30 3998 H 362.34 -2.61577 -7.34301 0
M  V30 3999 N 366.569 1.04691 -1.17803 0
M  V30 4000 C 367.517 2.14665 -0.895635 0
M  V30 4001 C 368.511 1.68806 0.141679 0
M  V30 4002 O 369.717 1.79999 -0.00587914 0
M  V30 4003 H 366.092 0.701038 -0.272121 0
M  V30 4004 H 368.063 2.35685 -1.83017 0
M  V30 4005 C 366.812 3.45019 -0.430962 0
M  V30 4006 H 366.135 3.8071 -1.22064 0
M  V30 4007 H 367.575 4.23125 -0.272301 0
M  V30 4008 C 366.034 3.25943 0.852207 0
M  V30 4009 O 366.564 3.5296 1.91786 0
M  V30 4010 N 364.77 2.79304 0.802346 0
M  V30 4011 H 364.317 2.57518 -0.0650788 0
M  V30 4012 H 364.275 2.66921 1.66134 0
M  V30 4013 N 368.047 0.979072 1.23499 0
M  V30 4014 C 369.272 0.664845 1.96455 0
M  V30 4015 C 369.697 -0.761287 1.72006 0
M  V30 4016 O 369.055 -1.51837 0.990713 0
M  V30 4017 C 369.103 0.959479 3.47601 0
M  V30 4018 O 368.207 0.0508168 4.12369 0
M  V30 4019 H 367.548 0.250185 0.615064 0
M  V30 4020 H 370.078 1.31231 1.5697 0
M  V30 4021 H 370.088 0.895642 3.98048 0
M  V30 4022 H 368.763 1.99876 3.64723 0
M  V30 4023 H 367.34 0.16895 3.72517 0
M  V30 4024 N 369.525 -1.3858 0.750561 0
M  V30 4025 C 370.772 -2.00184 0.305373 0
M  V30 4026 C 371.1 -1.59575 -1.11203 0
M  V30 4027 O 370.355 -0.823236 -1.77542 0
M  V30 4028 C 370.654 -3.55455 0.372373 0
M  V30 4029 C 370.32 -4.15765 1.745 0
M  V30 4030 C 368.982 -4.31951 2.12065 0
M  V30 4031 C 371.334 -4.49067 2.64553 0
M  V30 4032 C 368.662 -4.78734 3.39162 0
M  V30 4033 C 371.014 -4.97265 3.91038 0
M  V30 4034 C 369.678 -5.11658 4.28676 0
M  V30 4035 H 368.948 -0.732526 0.111744 0
M  V30 4036 H 371.595 -1.65673 0.960451 0
M  V30 4037 H 369.9 -3.90084 -0.366272 0
M  V30 4038 H 371.597 -4.00999 0.00953918 0
M  V30 4039 H 368.187 -4.03579 1.44297 0
M  V30 4040 H 372.371 -4.36166 2.36796 0
M  V30 4041 H 367.627 -4.88062 3.68246 0
M  V30 4042 H 371.801 -5.22003 4.60962 0
M  V30 4043 H 369.428 -5.47668 5.27222 0
M  V30 4044 N 371.003 -0.499398 -1.49478 0
M  V30 4045 C 371.913 0.284489 -2.32869 0
M  V30 4046 C 372.929 0.968885 -1.44529 0
M  V30 4047 O 374.105 0.95062 -1.77553 0
M  V30 4048 C 371.17 1.33594 -3.19928 0
M  V30 4049 C 370.231 0.665149 -4.24116 0
M  V30 4050 C 369.464 1.6665 -5.07014 0
M  V30 4051 O 369.687 2.89618 -4.91404 0
M  V30 4052 O 368.621 1.22271 -5.8935 0
M  V30 4053 H 372.447 -0.39802 -3.01081 0
M  V30 4054 H 370.032 -0.260758 -1.47107 0
M  V30 4055 H 371.914 1.94431 -3.73864 0
M  V30 4056 H 370.589 2.0014 -2.54412 0
M  V30 4057 H 369.496 0.0170769 -3.74096 0
M  V30 4058 H 370.829 0.0421555 -4.92182 0
M  V30 4059 N 372.481 1.55866 -0.233164 0
M  V30 4060 C 373.729 1.9821 0.394593 0
M  V30 4061 C 374.05 1.12234 1.59463 0
M  V30 4062 O 373.32 0.201981 1.94856 0
M  V30 4063 H 371.9 0.732034 0.148778 0
M  V30 4064 H 374.562 1.92107 -0.32876 0
M  V30 4065 H 373.658 3.03845 0.713063 0
M  V30 4066 N 373.959 -0.0401083 1.57549 0
M  V30 4067 C 375.205 -0.734211 1.89043 0
M  V30 4068 C 375.538 -1.75591 0.829535 0
M  V30 4069 O 374.813 -1.93868 -0.156706 0
M  V30 4070 C 375.096 -1.41374 3.31188 0
M  V30 4071 C 374.949 -0.406299 4.47961 0
M  V30 4072 C 376.268 -2.35061 3.72068 0
M  V30 4073 H 373.387 -0.265447 0.687537 0
M  V30 4074 H 376.029 0.00294087 1.9 0
M  V30 4075 H 374.179 -2.04206 3.30503 0
M  V30 4076 H 375.851 0.219255 4.60779 0
M  V30 4077 H 374.094 0.275485 4.32924 0
M  V30 4078 H 374.765 -0.920022 5.44279 0
M  V30 4079 H 377.241 -1.82282 3.74049 0
M  V30 4080 H 376.117 -2.79593 4.72355 0
M  V30 4081 H 376.378 -3.21258 3.0372 0
M  V30 4082 N 375.437 -1.54477 -0.31217 0
M  V30 4083 C 376.367 -1.87652 -1.38957 0
M  V30 4084 C 377.348 -0.734358 -1.53431 0
M  V30 4085 O 378.533 -0.98911 -1.67123 0
M  V30 4086 C 375.663 -2.11396 -2.75552 0
M  V30 4087 C 374.617 -3.27243 -2.75855 0
M  V30 4088 C 373.943 -3.36382 -4.15633 0
M  V30 4089 C 375.243 -4.64622 -2.38587 0
M  V30 4090 H 376.937 -2.77887 -1.11442 0
M  V30 4091 H 374.483 -1.33707 -0.534655 0
M  V30 4092 H 376.436 -2.33189 -3.51 0
M  V30 4093 H 375.16 -1.17921 -3.04569 0
M  V30 4094 H 373.819 -3.05356 -2.02863 0
M  V30 4095 H 373.467 -2.40445 -4.41809 0
M  V30 4096 H 373.167 -4.14249 -4.1674 0
M  V30 4097 H 374.691 -3.60422 -4.92877 0
M  V30 4098 H 376.105 -4.86219 -3.03749 0
M  V30 4099 H 374.502 -5.45121 -2.50925 0
M  V30 4100 H 375.572 -4.66097 -1.33723 0
M  V30 4101 N 376.915 0.57481 -1.46744 0
M  V30 4102 C 378.143 1.35856 -1.56047 0
M  V30 4103 C 378.558 1.87691 -0.204365 0
M  V30 4104 O 377.915 1.64049 0.79963 0
M  V30 4105 C 377.966 2.54066 -2.57163 0
M  V30 4106 O 377.687 2.04377 -3.87507 0
M  V30 4107 C 379.188 3.46514 -2.76483 0
M  V30 4108 H 376.408 0.414754 -0.527466 0
M  V30 4109 H 378.952 0.698035 -1.92218 0
M  V30 4110 H 377.107 3.16092 -2.23974 0
M  V30 4111 H 377.521 2.81419 -4.4261 0
M  V30 4112 H 378.995 4.25919 -3.51137 0
M  V30 4113 H 379.472 3.98951 -1.83671 0
M  V30 4114 H 380.078 2.90318 -3.10799 0
M  V30 4115 N 378.394 1.34581 0.820102 0
M  V30 4116 C 379.642 1.26845 1.57336 0
M  V30 4117 C 379.963 -0.160667 1.94337 0
M  V30 4118 O 379.233 -1.09396 1.6251 0
M  V30 4119 H 377.813 0.466514 0.583415 0
M  V30 4120 H 380.475 1.68526 0.979027 0
M  V30 4121 H 379.571 1.87513 2.4949 0
M  V30 4122 N 379.872 -1.04064 1.18357 0
M  V30 4123 C 380.819 -2.12077 0.910603 0
M  V30 4124 C 381.789 -1.65421 -0.15 0
M  V30 4125 O 382.974 -1.90797 -0.0103614 0
M  V30 4126 C 380.114 -3.42252 0.442472 0
M  V30 4127 C 379.227 -4.0252 1.5685 0
M  V30 4128 C 378.362 -5.20657 1.05309 0
M  V30 4129 C 377.401 -5.72955 2.1538 0
M  V30 4130 N 376.538 -6.8238 1.65233 0
M  V30 4131 H 381.378 -2.34764 1.83548 0
M  V30 4132 H 378.915 -1.15157 0.915279 0
M  V30 4133 H 380.873 -4.16921 0.152534 0
M  V30 4134 H 379.503 -3.19712 -0.445428 0
M  V30 4135 H 378.555 -3.25178 1.97391 0
M  V30 4136 H 379.867 -4.37362 2.39824 0
M  V30 4137 H 379.021 -6.0244 0.717677 0
M  V30 4138 H 377.76 -4.87318 0.19293 0
M  V30 4139 H 376.765 -4.89793 2.49766 0
M  V30 4140 H 377.99 -6.08337 3.01832 0
M  V30 4141 H 375.936 -6.50917 0.815064 0
M  V30 4142 H 375.853 -7.16286 2.41805 0
M  V30 4143 H 377.121 -7.67788 1.34619 0
M  V30 4144 N 381.35 -0.985608 -1.22978 0
M  V30 4145 C 382.298 -0.522631 -2.26652 0
M  V30 4146 C 383.292 0.422998 -1.64034 0
M  V30 4147 O 384.498 0.296319 -1.77544 0
M  V30 4148 H 380.873 -0.150597 -0.736766 0
M  V30 4149 H 382.844 -1.40863 -2.63059 0
M  V30 4150 C 381.593 0.154238 -3.47358 0
M  V30 4151 H 380.916 -0.564329 -3.95797 0
M  V30 4152 H 382.356 0.441744 -4.21693 0
M  V30 4153 C 380.815 1.38719 -3.07016 0
M  V30 4154 O 381.345 2.48307 -3.15764 0
M  V30 4155 N 379.551 1.25975 -2.61875 0
M  V30 4156 H 379.098 0.368068 -2.54957 0
M  V30 4157 H 379.056 2.08578 -2.3525 0
M  V30 4158 N 382.828 1.3818 -0.7579 0
M  V30 4159 C 384.077 1.99261 -0.312744 0
M  V30 4160 C 384.39 1.60846 1.11301 0
M  V30 4161 O 385.596 2.14929 1.65885 0
M  V30 4162 C 384.052 3.56294 -0.50821 0
M  V30 4163 C 383.66 4.03657 -1.94333 0
M  V30 4164 C 385.404 4.24313 -0.125982 0
M  V30 4165 C 383.311 5.53347 -2.08712 0
M  V30 4166 H 382.241 0.745456 -0.113185 0
M  V30 4167 H 384.892 1.57889 -0.935056 0
M  V30 4168 H 383.274 3.95575 0.183353 0
M  V30 4169 H 384.448 3.75655 -2.66871 0
M  V30 4170 H 382.763 3.48376 -2.28086 0
M  V30 4171 H 385.36 5.34279 -0.212125 0
M  V30 4172 H 385.703 4.05962 0.921964 0
M  V30 4173 H 386.236 3.90285 -0.769563 0
M  V30 4174 H 382.975 5.76607 -3.11777 0
M  V30 4175 H 382.495 5.83078 -1.4064 0
M  V30 4176 H 384.174 6.19111 -1.87912 0
M  V30 4177 N 384.306 0.507319 1.49211 0
M  V30 4178 C 385.253 -0.267728 2.29242 0
M  V30 4179 C 386.223 -0.954609 1.35928 0
M  V30 4180 O 387.408 -0.960046 1.64887 0
M  V30 4181 C 384.548 -1.32243 3.18756 0
M  V30 4182 C 383.661 -0.64669 4.27132 0
M  V30 4183 C 382.796 -1.68238 5.03855 0
M  V30 4184 C 381.835 -0.98885 6.0406 0
M  V30 4185 N 380.972 -1.96903 6.73924 0
M  V30 4186 H 385.812 0.420968 2.95012 0
M  V30 4187 H 383.349 0.219443 1.45454 0
M  V30 4188 H 385.307 -1.94599 3.69036 0
M  V30 4189 H 383.937 -1.97981 2.54958 0
M  V30 4190 H 382.989 0.0902926 3.80293 0
M  V30 4191 H 384.301 -0.101058 4.98698 0
M  V30 4192 H 383.455 -2.38081 5.58034 0
M  V30 4193 H 382.194 -2.26187 4.32077 0
M  V30 4194 H 381.199 -0.276222 5.49106 0
M  V30 4195 H 382.424 -0.415767 6.77826 0
M  V30 4196 H 380.37 -2.53803 6.04913 0
M  V30 4197 H 380.287 -1.47423 7.41487 0
M  V30 4198 H 381.555 -2.66015 7.32705 0
M  V30 4199 N 385.784 -1.5574 0.241426 0
M  V30 4200 C 387.03 -1.99846 -0.378555 0
M  V30 4201 C 387.385 -1.12665 -1.55963 0
M  V30 4202 O 386.678 -0.180966 -1.90743 0
M  V30 4203 C 386.872 -3.47308 -0.843317 0
M  V30 4204 C 386.701 -4.48756 0.291178 0
M  V30 4205 C 385.471 -4.9949 0.764077 0
M  V30 4206 C 387.669 -5.02039 1.11631 0
M  V30 4207 N 385.651 -5.84676 1.87156 0
M  V30 4208 C 387.022 -5.84343 2.07226 0
M  V30 4209 C 389.077 -4.84354 1.15349 0
M  V30 4210 C 387.78 -6.50851 3.06245 0
M  V30 4211 C 389.806 -5.51636 2.13195 0
M  V30 4212 C 389.168 -6.33724 3.07528 0
M  V30 4213 H 385.267 -0.774968 -0.104634 0
M  V30 4214 H 387.851 -1.91385 0.357751 0
M  V30 4215 H 386.022 -3.56178 -1.54893 0
M  V30 4216 H 387.754 -3.78299 -1.43779 0
M  V30 4217 H 384.509 -4.72311 0.349175 0
M  V30 4218 H 384.933 -6.31967 2.42789 0
M  V30 4219 H 389.575 -4.20525 0.438057 0
M  V30 4220 H 387.293 -7.1385 3.78739 0
M  V30 4221 H 390.879 -5.39909 2.16771 0
M  V30 4222 H 389.759 -6.84867 3.82003 0
M  V30 4223 N 387.262 0.0317525 -1.57568 0
M  V30 4224 C 388.51 0.721676 -1.88776 0
M  V30 4225 C 388.831 1.76039 -0.838772 0
M  V30 4226 O 388.101 1.95482 0.127935 0
M  V30 4227 H 386.681 0.269534 -0.696678 0
M  V30 4228 H 389.343 -0.00165879 -1.949 0
M  V30 4229 H 388.439 1.21293 -2.87566 0
M  V30 4230 N 388.74 1.54641 0.303973 0
M  V30 4231 C 389.988 1.73437 1.0375 0
M  V30 4232 C 390.309 0.521449 1.87899 0
M  V30 4233 O 389.579 -0.46432 1.90318 0
M  V30 4234 H 388.159 0.639518 0.386039 0
M  V30 4235 H 390.821 1.91988 0.335675 0
M  V30 4236 H 389.917 2.62235 1.69231 0
M  V30 4237 N 390.218 -0.567019 1.47046 0
M  V30 4238 C 391.443 -1.3551 1.57009 0
M  V30 4239 C 391.868 -1.86841 0.217259 0
M  V30 4240 O 391.226 -1.62435 -0.805268 0
M  V30 4241 C 391.274 -2.50777 2.5912 0
M  V30 4242 O 390.378 -3.52706 2.13711 0
M  V30 4243 H 389.719 -0.402919 0.52778 0
M  V30 4244 H 392.249 -0.686241 1.92748 0
M  V30 4245 H 392.259 -2.97481 2.79229 0
M  V30 4246 H 390.934 -2.12771 3.57353 0
M  V30 4247 H 389.511 -3.12374 2.03659 0
M  V30 4248 N 391.696 -1.35014 -0.812953 0
M  V30 4249 C 392.644 -1.27435 -1.94585 0
M  V30 4250 C 393.638 -0.170494 -1.6854 0
M  V30 4251 O 394.844 -0.336085 -1.76835 0
M  V30 4252 H 391.219 -0.396144 -0.639198 0
M  V30 4253 H 393.19 -2.23158 -1.98098 0
M  V30 4254 C 391.939 -1.05677 -3.31252 0
M  V30 4255 H 391.262 -1.89853 -3.51846 0
M  V30 4256 H 392.702 -1.04413 -4.10943 0
M  V30 4257 C 391.161 0.239615 -3.36047 0
M  V30 4258 O 391.691 1.23759 -3.8216 0
M  V30 4259 N 389.897 0.276186 -2.89285 0
M  V30 4260 H 389.444 -0.53653 -2.51951 0
M  V30 4261 H 389.402 1.14332 -2.92875 0
M  V30 4262 N 393.175 1.03435 -1.18907 0
M  V30 4263 C 394.424 1.76143 -0.982669 0
M  V30 4264 C 394.737 1.89416 0.487953 0
M  V30 4265 O 395.943 2.59041 0.813036 0
M  V30 4266 C 394.399 3.16722 -1.70924 0
M  V30 4267 C 394.007 3.11522 -3.21959 0
M  V30 4268 C 395.751 3.93764 -1.58588 0
M  V30 4269 C 393.658 4.46999 -3.87228 0
M  V30 4270 H 392.588 0.660292 -0.364047 0
M  V30 4271 H 395.239 1.158 -1.42347 0
M  V30 4272 H 393.621 3.775 -1.19623 0
M  V30 4273 H 394.795 2.60158 -3.80335 0
M  V30 4274 H 393.11 2.47978 -3.34508 0
M  V30 4275 H 395.707 4.93963 -2.04707 0
M  V30 4276 H 396.05 4.12794 -0.539142 0
M  V30 4277 H 396.583 3.39576 -2.07203 0
M  V30 4278 H 393.322 4.33174 -4.91976 0
M  V30 4279 H 392.842 4.98441 -3.33642 0
M  V30 4280 H 394.521 5.15898 -3.90459 0
M  V30 4281 N 394.653 0.992116 1.22453 0
M  V30 4282 C 396.069 0.702713 1.43297 0
M  V30 4283 C 396.269 -0.726909 1.87932 0
M  V30 4284 O 395.325 -1.49792 2.0327 0
M  V30 4285 C 396.638 1.70762 2.47509 0
M  V30 4286 C 398.186 1.72298 2.61309 0
M  V30 4287 C 398.661 2.71649 3.68742 0
M  V30 4288 N 400.152 2.70239 3.76199 0
M  V30 4289 C 400.887 3.43778 4.58917 0
M  V30 4290 N 400.383 4.26914 5.45633 0
M  V30 4291 N 402.176 3.32487 4.5322 0
M  V30 4292 H 394.327 1.91543 0.917871 0
M  V30 4293 H 396.59 0.826031 0.465162 0
M  V30 4294 H 396.296 2.73059 2.21657 0
M  V30 4295 H 396.17 1.49985 3.46099 0
M  V30 4296 H 398.557 0.706989 2.86506 0
M  V30 4297 H 398.638 1.97143 1.62997 0
M  V30 4298 H 398.282 3.73397 3.44292 0
M  V30 4299 H 398.212 2.44074 4.66622 0
M  V30 4300 H 400.703 2.09912 3.14237 0
M  V30 4301 H 401.016 4.79855 6.05771 0
M  V30 4302 H 399.361 4.31002 5.45218 0
M  V30 4303 H 402.552 2.6698 3.84499 0
M  V30 4304 H 402.725 3.90058 5.17454 0
M  V30 4305 N 396.131 -1.37776 0.765217 0
M  V30 4306 C 397.094 -2.28686 0.153416 0
M  V30 4307 C 398.094 -1.47727 -0.635081 0
M  V30 4308 O 399.284 -1.68027 -0.459632 0
M  V30 4309 C 396.416 -3.31608 -0.790495 0
M  V30 4310 H 397.609 -2.84297 0.954723 0
M  V30 4311 H 395.162 -1.46932 0.53299 0
M  V30 4312 H 395.897 -2.81109 -1.61705 0
M  V30 4313 H 395.682 -3.9144 -0.227348 0
M  V30 4314 H 397.172 -3.99559 -1.21419 0
M  V30 4315 N 397.609 -0.515225 -1.4894 0
M  V30 4316 C 398.519 0.259774 -2.33157 0
M  V30 4317 C 399.535 0.953501 -1.45548 0
M  V30 4318 O 400.711 0.931735 -1.78552 0
M  V30 4319 C 397.776 1.30193 -3.21326 0
M  V30 4320 C 396.837 0.620129 -4.24797 0
M  V30 4321 C 396.07 1.61263 -5.08753 0
M  V30 4322 O 396.293 2.84389 -4.94448 0
M  V30 4323 O 395.227 1.16013 -5.90614 0
M  V30 4324 H 399.053 -0.429932 -3.00641 0
M  V30 4325 H 396.638 -0.276346 -1.46822 0
M  V30 4326 H 398.52 1.90455 -3.75905 0
M  V30 4327 H 397.195 1.97431 -2.56521 0
M  V30 4328 H 396.102 -0.0226019 -3.74093 0
M  V30 4329 H 397.435 -0.0100493 -4.92199 0
M  V30 4330 N 399.087 1.5561 -0.249682 0
M  V30 4331 C 400.05 2.20217 0.635394 0
M  V30 4332 C 401.05 1.17227 1.10066 0
M  V30 4333 O 402.24 1.42292 1.00492 0
M  V30 4334 C 399.372 2.84794 1.87363 0
M  V30 4335 H 400.565 2.99814 0.0716752 0
M  V30 4336 H 398.118 1.563 -0.000153234 0
M  V30 4337 H 398.853 2.09142 2.47851 0
M  V30 4338 H 398.638 3.60241 1.5482 0
M  V30 4339 H 400.128 3.3423 2.5036 0
M  V30 4340 N 400.565 -0.0233959 1.57583 0
M  V30 4341 C 401.793 -0.724682 1.93794 0
M  V30 4342 C 402.208 -1.68588 0.849912 0
M  V30 4343 O 401.565 -1.81676 -0.173204 0
M  V30 4344 C 401.616 -1.47684 3.29957 0
M  V30 4345 O 401.337 -0.554222 4.3458 0
M  V30 4346 C 402.838 -2.27477 3.80485 0
M  V30 4347 H 400.058 -0.203317 0.639455 0
M  V30 4348 H 402.602 0.0207653 2.04489 0
M  V30 4349 H 400.757 -2.17412 3.20641 0
M  V30 4350 H 401.171 -1.08232 5.13212 0
M  V30 4351 H 402.645 -2.7564 4.78254 0
M  V30 4352 H 403.122 -3.09144 3.11972 0
M  V30 4353 H 403.728 -1.62813 3.92902 0
M  V30 4354 N 402.043 -1.548 -0.295768 0
M  V30 4355 C 403.291 -1.73985 -1.02828 0
M  V30 4356 C 403.612 -0.531406 -1.87619 0
M  V30 4357 O 402.882 0.454221 -1.90561 0
M  V30 4358 H 401.462 -0.641556 -0.382642 0
M  V30 4359 H 404.124 -1.92163 -0.325489 0
M  V30 4360 H 403.22 -2.63129 -1.67838 0
M  V30 4361 N 403.521 0.559213 -1.47345 0
M  V30 4362 C 404.751 1.33999 -1.57251 0
M  V30 4363 C 405.159 1.87905 -0.220978 0
M  V30 4364 O 404.502 1.65577 0.795617 0
M  V30 4365 C 404.564 2.54798 -2.53611 0
M  V30 4366 C 404.228 2.22192 -3.99349 0
M  V30 4367 C 405.225 1.79607 -4.87891 0
M  V30 4368 C 402.91 2.33613 -4.44669 0
M  V30 4369 C 404.904 1.48868 -6.19772 0
M  V30 4370 C 402.591 2.02487 -5.76578 0
M  V30 4371 C 403.589 1.60183 -6.63951 0
M  V30 4372 O 403.277 1.29451 -7.93409 0
M  V30 4373 H 403.009 0.414858 -0.533731 0
M  V30 4374 H 405.563 0.684465 -1.9366 0
M  V30 4375 H 403.793 3.23235 -2.12265 0
M  V30 4376 H 405.482 3.16873 -2.53666 0
M  V30 4377 H 406.248 1.70278 -4.54126 0
M  V30 4378 H 402.127 2.65501 -3.76869 0
M  V30 4379 H 405.671 1.15775 -6.87926 0
M  V30 4380 H 401.568 2.11448 -6.09885 0
M  V30 4381 H 402.336 1.43098 -8.05894 0
M  V30 4382 N 404.999 1.35443 0.805782 0
M  V30 4383 C 406.247 1.28507 1.55982 0
M  V30 4384 C 406.568 -0.140046 1.94496 0
M  V30 4385 O 405.838 -1.07666 1.63661 0
M  V30 4386 H 404.418 0.472676 0.578434 0
M  V30 4387 H 407.08 1.69555 0.961098 0
M  V30 4388 H 406.176 1.90148 2.47488 0
M  V30 4389 N 406.477 -1.02803 1.19454 0
M  V30 4390 C 407.723 -1.76478 0.999171 0
M  V30 4391 C 408.056 -1.88456 -0.468828 0
M  V30 4392 O 407.331 -1.40198 -1.34814 0
M  V30 4393 C 407.614 -3.19044 1.66981 0
M  V30 4394 C 407.467 -3.14932 3.21151 0
M  V30 4395 C 408.786 -4.17456 1.39349 0
M  V30 4396 H 405.905 -0.640614 0.364393 0
M  V30 4397 H 408.547 -1.20005 1.47305 0
M  V30 4398 H 406.697 -3.67263 1.2669 0
M  V30 4399 H 408.369 -2.74605 3.70661 0
M  V30 4400 H 406.612 -2.52625 3.52652 0
M  V30 4401 H 407.283 -4.1566 3.63223 0
M  V30 4402 H 409.759 -3.77842 1.74283 0
M  V30 4403 H 408.635 -5.154 1.88823 0
M  V30 4404 H 408.896 -4.40949 0.318813 0
M  V30 4405 N 407.956 -0.998596 -1.21925 0
M  V30 4406 C 409.202 -0.678667 -1.91107 0
M  V30 4407 C 409.535 0.78791 -1.77498 0
M  V30 4408 O 408.81 1.57043 -1.1475 0
M  V30 4409 C 409.093 -1.09245 -3.43129 0
M  V30 4410 C 408.946 -2.61801 -3.6576 0
M  V30 4411 C 410.265 -0.649984 -4.35274 0
M  V30 4412 H 407.384 -0.248025 -0.694012 0
M  V30 4413 H 410.026 -1.24314 -1.43688 0
M  V30 4414 H 408.176 -0.612171 -3.83647 0
M  V30 4415 H 409.848 -3.17543 -3.34611 0
M  V30 4416 H 408.091 -3.03609 -3.09845 0
M  V30 4417 H 408.762 -2.85804 -4.7225 0
M  V30 4418 H 411.238 -1.0626 -4.02303 0
M  V30 4419 H 410.114 -0.967743 -5.40302 0
M  V30 4420 H 410.375 0.449139 -4.39813 0
M  V30 4421 N 409.434 1.37368 -0.772513 0
M  V30 4422 C 410.664 2.03647 -0.348082 0
M  V30 4423 C 411.072 1.58392 1.03482 0
M  V30 4424 O 410.415 0.760921 1.672 0
M  V30 4425 C 410.477 3.58131 -0.313404 0
M  V30 4426 C 410.141 4.2652 -1.64102 0
M  V30 4427 C 411.138 4.50587 -2.5936 0
M  V30 4428 C 408.823 4.64335 -1.91567 0
M  V30 4429 C 410.817 5.11526 -3.80289 0
M  V30 4430 C 408.504 5.24996 -3.12766 0
M  V30 4431 C 409.502 5.48529 -4.06946 0
M  V30 4432 O 409.19 6.07921 -5.26011 0
M  V30 4433 H 408.922 0.660538 -0.143753 0
M  V30 4434 H 411.476 1.76669 -1.04772 0
M  V30 4435 H 409.706 3.84159 0.442617 0
M  V30 4436 H 411.395 4.05813 0.0840613 0
M  V30 4437 H 412.161 4.21784 -2.39423 0
M  V30 4438 H 408.04 4.45353 -1.19088 0
M  V30 4439 H 411.584 5.29811 -4.53813 0
M  V30 4440 H 407.481 5.53223 -3.32588 0
M  V30 4441 H 408.249 6.26398 -5.26847 0
M  V30 4442 N 410.912 0.523116 1.48665 0
M  V30 4443 C 412.159 -0.0134763 2.02496 0
M  V30 4444 C 412.487 -1.3493 1.40086 0
M  V30 4445 O 411.742 -1.88286 0.533567 0
M  V30 4446 C 412.041 -0.191671 3.56886 0
M  V30 4447 C 411.707 1.06893 4.38046 0
M  V30 4448 C 410.369 1.41443 4.59943 0
M  V30 4449 C 412.721 1.90584 4.85106 0
M  V30 4450 C 410.049 2.59594 5.26144 0
M  V30 4451 C 412.401 3.07907 5.52609 0
M  V30 4452 C 411.065 3.42811 5.72745 0
M  V30 4453 H 410.335 -0.00493133 0.740984 0
M  V30 4454 H 412.982 0.687751 1.78724 0
M  V30 4455 H 411.287 -0.97561 3.79459 0
M  V30 4456 H 412.984 -0.621659 3.96152 0
M  V30 4457 H 409.574 0.789848 4.21259 0
M  V30 4458 H 413.758 1.65203 4.67997 0
M  V30 4459 H 409.014 2.86847 5.39934 0
M  V30 4460 H 413.188 3.73066 5.88043 0
M  V30 4461 H 410.815 4.34462 6.23816 0
M  V30 4462 N 412.39 -1.55475 0.257931 0
M  V30 4463 C 413.353 -2.20551 -0.623706 0
M  V30 4464 C 414.353 -1.17809 -1.09443 0
M  V30 4465 O 415.543 -1.42823 -0.997362 0
M  V30 4466 C 412.675 -2.85784 -1.8585 0
M  V30 4467 H 413.868 -2.99848 -0.0557743 0
M  V30 4468 H 411.421 -1.56298 0.0084422 0
M  V30 4469 H 412.156 -2.10453 -2.46739 0
M  V30 4470 H 411.941 -3.61057 -1.52907 0
M  V30 4471 H 413.431 -3.35553 -2.48584 0
M  V30 4472 N 413.868 0.0150385 -1.57593 0
M  V30 4473 C 414.778 1.02791 -2.10882 0
M  V30 4474 C 415.794 1.38702 -1.0506 0
M  V30 4475 O 416.97 1.47739 -1.36877 0
M  V30 4476 C 414.035 2.30568 -2.58919 0
M  V30 4477 C 413.096 2.01108 -3.79281 0
M  V30 4478 C 412.329 3.22794 -4.25018 0
M  V30 4479 O 412.552 4.33959 -3.70183 0
M  V30 4480 O 411.486 3.07672 -5.17322 0
M  V30 4481 H 415.312 0.604973 -2.97613 0
M  V30 4482 H 412.897 0.23292 -1.47573 0
M  V30 4483 H 414.779 3.05662 -2.90084 0
M  V30 4484 H 413.454 2.72129 -1.75293 0
M  V30 4485 H 412.361 1.23537 -3.53114 0
M  V30 4486 H 413.694 1.64394 -4.63935 0
M  V30 4487 N 415.346 1.54954 0.287554 0
M  V30 4488 C 416.294 1.87606 1.37502 0
M  V30 4489 C 417.288 0.751001 1.51843 0
M  V30 4490 O 418.494 0.935169 1.53801 0
M  V30 4491 H 414.869 0.595231 0.459569 0
M  V30 4492 H 416.84 2.78477 1.07206 0
M  V30 4493 C 415.589 2.15183 2.73115 0
M  V30 4494 H 414.912 3.01234 2.62866 0
M  V30 4495 H 416.352 2.4196 3.48183 0
M  V30 4496 C 414.811 0.954686 3.2309 0
M  V30 4497 O 415.341 0.181949 4.01288 0
M  V30 4498 N 413.547 0.756368 2.80584 0
M  V30 4499 H 413.094 1.38643 2.17108 0
M  V30 4500 H 413.052 -0.0430391 3.14371 0
M  V30 4501 N 416.824 -0.551391 1.4764 0
M  V30 4502 C 418.07 -1.31024 1.54792 0
M  V30 4503 C 418.403 -1.9304 0.211967 0
M  V30 4504 O 417.678 -1.78175 -0.77999 0
M  V30 4505 C 417.961 -2.41593 2.67029 0
M  V30 4506 C 417.814 -1.84408 4.10261 0
M  V30 4507 C 419.133 -3.43488 2.75143 0
M  V30 4508 H 416.252 -0.475031 0.563485 0
M  V30 4509 H 418.894 -0.616454 1.79722 0
M  V30 4510 H 417.044 -3.00772 2.45904 0
M  V30 4511 H 418.716 -1.29445 4.42766 0
M  V30 4512 H 416.959 -1.15051 4.18265 0
M  V30 4513 H 417.63 -2.64367 4.84576 0
M  V30 4514 H 420.106 -2.94236 2.94218 0
M  V30 4515 H 418.982 -4.18274 3.55441 0
M  V30 4516 H 419.243 -4.02703 1.82435 0
M  V30 4517 N 418.302 -1.35869 -0.798587 0
M  V30 4518 C 419.232 -1.32118 -1.92528 0
M  V30 4519 C 420.213 -0.194209 -1.68988 0
M  V30 4520 O 421.398 -0.390426 -1.90235 0
M  V30 4521 C 418.528 -1.10047 -3.29404 0
M  V30 4522 C 417.482 -2.19471 -3.67446 0
M  V30 4523 C 416.808 -1.82555 -5.02571 0
M  V30 4524 C 418.108 -3.61495 -3.76987 0
M  V30 4525 H 419.802 -2.26394 -1.95924 0
M  V30 4526 H 417.348 -1.08981 -0.94123 0
M  V30 4527 H 419.301 -1.06061 -4.07835 0
M  V30 4528 H 418.025 -0.122195 -3.26371 0
M  V30 4529 H 416.684 -2.22568 -2.91306 0
M  V30 4530 H 416.332 -0.833249 -4.9605 0
M  V30 4531 H 416.032 -2.5581 -5.28995 0
M  V30 4532 H 417.556 -1.80108 -5.83432 0
M  V30 4533 H 418.97 -3.60676 -4.4563 0
M  V30 4534 H 417.367 -4.33577 -4.14887 0
M  V30 4535 H 418.437 -3.97065 -2.78329 0
M  V30 4536 N 419.78 1.02168 -1.19998 0
M  V30 4537 C 420.727 2.10601 -0.944228 0
M  V30 4538 C 421.697 1.65639 0.123664 0
M  V30 4539 O 422.882 1.9079 -0.0199941 0
M  V30 4540 C 420.022 3.41504 -0.496865 0
M  V30 4541 C 419.135 3.99973 -1.63234 0
M  V30 4542 C 418.27 5.18915 -1.13579 0
M  V30 4543 C 417.309 5.69456 -2.24468 0
M  V30 4544 N 416.446 6.79665 -1.76068 0
M  V30 4545 H 421.286 2.31814 -1.8726 0
M  V30 4546 H 418.823 1.13686 -0.933483 0
M  V30 4547 H 420.781 4.16626 -0.218843 0
M  V30 4548 H 419.411 3.2038 0.394508 0
M  V30 4549 H 418.463 3.21997 -2.0254 0
M  V30 4550 H 419.775 4.33492 -2.46752 0
M  V30 4551 H 418.929 6.01222 -0.813429 0
M  V30 4552 H 417.668 4.8695 -0.270434 0
M  V30 4553 H 416.673 4.85757 -2.57526 0
M  V30 4554 H 417.898 6.03459 -3.11472 0
M  V30 4555 H 415.844 6.49538 -0.918516 0
M  V30 4556 H 415.761 7.12349 -2.5317 0
M  V30 4557 H 417.029 7.65549 -1.46817 0
M  V30 4558 N 421.258 1.00505 1.21394 0
M  V30 4559 C 422.535 0.603277 1.86064 0
M  V30 4560 C 422.915 -0.919095 1.90042 0
M  V30 4561 O 422.263 -1.80607 1.39977 0
M  V30 4562 C 422.473 1.23772 3.26315 0
M  V30 4563 C 423.821 1.34586 4.02705 0
M  V30 4564 O 424.845 1.19304 3.35626 0
M  V30 4565 O 423.704 1.59169 5.22807 0
M  V30 4566 H 420.798 0.206634 0.800769 0
M  V30 4567 H 423.344 1.1017 1.29076 0
M  V30 4568 H 422.116 2.27848 3.18121 0
M  V30 4569 H 421.739 0.725648 3.90922 0
M  V30 4570 N 422.737 -1.36956 0.779787 0
M  V30 4571 C 423.667 -2.32761 0.185651 0
M  V30 4572 C 424.648 -1.56177 -0.673989 0
M  V30 4573 O 425.833 -1.84378 -0.609797 0
M  V30 4574 C 422.963 -3.40418 -0.687964 0
M  V30 4575 C 421.917 -4.27941 0.0710102 0
M  V30 4576 C 421.243 -5.26681 -0.922573 0
M  V30 4577 C 422.543 -5.07006 1.25467 0
M  V30 4578 H 424.237 -2.82698 0.986008 0
M  V30 4579 H 421.783 -1.3592 0.475592 0
M  V30 4580 H 423.736 -4.06423 -1.11348 0
M  V30 4581 H 422.46 -2.89025 -1.52093 0
M  V30 4582 H 421.119 -3.63478 0.47739 0
M  V30 4583 H 420.767 -4.71565 -1.7503 0
M  V30 4584 H 420.467 -5.86103 -0.419237 0
M  V30 4585 H 421.991 -5.9556 -1.34686 0
M  V30 4586 H 423.405 -5.66105 0.905401 0
M  V30 4587 H 421.802 -5.75793 1.69063 0
M  V30 4588 H 422.872 -4.3921 2.05481 0
M  V30 4589 N 424.215 -0.530993 -1.48385 0
M  V30 4590 C 425.163 0.244595 -2.3131 0
M  V30 4591 C 426.157 0.93451 -1.41291 0
M  V30 4592 O 427.363 0.85878 -1.58193 0
M  V30 4593 H 423.738 0.0977472 -0.74562 0
M  V30 4594 H 425.709 -0.474369 -2.94605 0
M  V30 4595 C 424.458 1.2779 -3.23365 0
M  V30 4596 H 423.781 0.756439 -3.92579 0
M  V30 4597 H 425.221 1.79198 -3.84271 0
M  V30 4598 C 423.68 2.31205 -2.45042 0
M  V30 4599 O 424.21 3.37661 -2.17596 0
M  V30 4600 N 422.416 2.04446 -2.0652 0
M  V30 4601 H 421.963 1.17891 -2.2904 0
M  V30 4602 H 421.921 2.73861 -1.54427 0
M  V30 4603 N 425.693 1.55336 -0.266172 0
M  V30 4604 C 426.97 1.91372 0.404486 0
M  V30 4605 C 427.35 1.18935 1.74407 0
M  V30 4606 O 426.698 0.3132 2.26343 0
M  V30 4607 C 426.908 3.44581 0.553593 0
M  V30 4608 C 428.256 4.16196 0.840618 0
M  V30 4609 O 429.28 3.50426 0.638739 0
M  V30 4610 O 428.139 5.32567 1.22618 0
M  V30 4611 H 425.233 0.797194 0.220025 0
M  V30 4612 H 427.779 1.66813 -0.311664 0
M  V30 4613 H 426.551 3.89357 -0.389498 0
M  V30 4614 H 426.174 3.75065 1.31955 0
M  V30 4615 N 427.171 -0.0066808 1.57599 0
M  V30 4616 C 428.119 -1.01851 2.09115 0
M  V30 4617 C 429.113 -1.36021 1.00969 0
M  V30 4618 O 430.319 -1.34663 1.19439 0
M  V30 4619 H 426.694 -0.346083 0.667631 0
M  V30 4620 H 428.665 -0.558394 2.93129 0
M  V30 4621 C 427.414 -2.30374 2.60429 0
M  V30 4622 H 426.737 -2.04947 3.43273 0
M  V30 4623 H 428.177 -2.99466 3.00161 0
M  V30 4624 C 426.636 -3.00893 1.51542 0
M  V30 4625 O 427.166 -3.91614 0.894484 0
M  V30 4626 N 425.372 -2.62603 1.2445 0
M  V30 4627 H 424.919 -1.88911 1.75129 0
M  V30 4628 H 424.877 -3.10101 0.518137 0
M  V30 4629 N 428.649 -1.55105 -0.279332 0
M  V30 4630 C 429.579 -1.90557 -1.34945 0
M  V30 4631 C 430.56 -0.766738 -1.51839 0
M  V30 4632 O 431.745 -1.02434 -1.64988 0
M  V30 4633 C 428.875 -2.17193 -2.71006 0
M  V30 4634 C 427.829 -3.33021 -2.68851 0
M  V30 4635 C 427.155 -3.45123 -4.08405 0
M  V30 4636 C 428.455 -4.69578 -2.28678 0
M  V30 4637 H 430.149 -2.80188 -1.05522 0
M  V30 4638 H 427.695 -1.34811 -0.506173 0
M  V30 4639 H 429.648 -2.40581 -3.45975 0
M  V30 4640 H 428.372 -1.24355 -3.01999 0
M  V30 4641 H 427.031 -3.0959 -1.9634 0
M  V30 4642 H 426.679 -2.49762 -4.3661 0
M  V30 4643 H 426.379 -4.22995 -4.07859 0
M  V30 4644 H 427.903 -3.70796 -4.85121 0
M  V30 4645 H 429.317 -4.92553 -2.93368 0
M  V30 4646 H 427.714 -5.5032 -2.39306 0
M  V30 4647 H 428.784 -4.68828 -1.23807 0
M  V30 4648 N 430.127 0.543554 -1.4793 0
M  V30 4649 C 431.037 1.67657 -1.64098 0
M  V30 4650 C 432.053 1.65934 -0.523622 0
M  V30 4651 O 433.229 1.85133 -0.792943 0
M  V30 4652 C 430.294 3.04146 -1.66421 0
M  V30 4653 C 429.355 3.16831 -2.89684 0
M  V30 4654 C 428.588 4.46809 -2.91886 0
M  V30 4655 O 428.811 5.33095 -2.02895 0
M  V30 4656 O 427.745 4.63573 -3.83906 0
M  V30 4657 H 431.571 1.56957 -2.59997 0
M  V30 4658 H 429.156 0.715116 -1.31173 0
M  V30 4659 H 431.038 3.85346 -1.70548 0
M  V30 4660 H 429.713 3.152 -0.736923 0
M  V30 4661 H 428.62 2.34977 -2.91095 0
M  V30 4662 H 429.953 3.10687 -3.81752 0
M  V30 4663 N 431.605 1.3629 0.791371 0
M  V30 4664 C 432.553 1.30514 1.92533 0
M  V30 4665 C 433.547 0.197285 1.68247 0
M  V30 4666 O 434.753 0.364176 1.76278 0
M  V30 4667 H 431.128 0.406263 0.632815 0
M  V30 4668 H 433.099 2.26282 1.94523 0
M  V30 4669 C 431.848 1.10933 3.29529 0
M  V30 4670 H 431.171 1.95427 3.48781 0
M  V30 4671 H 432.611 1.10937 4.0923 0
M  V30 4672 C 431.07 -0.186123 3.36385 0
M  V30 4673 O 431.6 -1.17664 3.84081 0
M  V30 4674 N 429.806 -0.230128 2.89687 0
M  V30 4675 H 429.353 0.576545 2.51065 0
M  V30 4676 H 429.311 -1.09658 2.94657 0
M  V30 4677 N 433.083 -1.0153 1.20538 0
M  V30 4678 C 434.03 -2.10098 0.955383 0
M  V30 4679 C 435 -1.65702 -0.114878 0
M  V30 4680 O 436.185 -1.90776 0.0301118 0
M  V30 4681 C 433.325 -3.41236 0.514969 0
M  V30 4682 C 432.438 -3.99102 1.65353 0
M  V30 4683 C 431.573 -5.18306 1.16329 0
M  V30 4684 C 430.612 -5.68258 2.27485 0
M  V30 4685 N 429.749 -6.78722 1.7967 0
M  V30 4686 H 434.589 -2.30818 1.88486 0
M  V30 4687 H 432.126 -1.13189 0.939499 0
M  V30 4688 H 434.084 -4.16504 0.240935 0
M  V30 4689 H 432.714 -3.20585 -0.377512 0
M  V30 4690 H 431.766 -3.20918 2.04245 0
M  V30 4691 H 433.078 -4.32177 2.49047 0
M  V30 4692 H 432.232 -6.00782 0.845302 0
M  V30 4693 H 430.971 -4.86799 0.296254 0
M  V30 4694 H 429.976 -4.84385 2.60099 0
M  V30 4695 H 431.201 -6.01798 3.14667 0
M  V30 4696 H 429.147 -6.49042 0.95295 0
M  V30 4697 H 429.064 -7.10996 2.56944 0
M  V30 4698 H 430.332 -7.64759 1.50875 0
M  V30 4699 N 434.561 -1.01147 -1.20859 0
M  V30 4700 C 435.508 -0.577354 -2.23462 0
M  V30 4701 C 436.478 0.399922 -1.61214 0
M  V30 4702 O 437.663 0.300515 -1.88419 0
M  V30 4703 C 434.803 0.083372 -3.44999 0
M  V30 4704 C 433.916 -0.937856 -4.21697 0
M  V30 4705 C 433.051 -0.248717 -5.30617 0
M  V30 4706 C 432.09 -1.25705 -5.99053 0
M  V30 4707 N 431.227 -0.594939 -6.99575 0
M  V30 4708 H 436.067 -1.45695 -2.59956 0
M  V30 4709 H 433.604 -0.729428 -1.27741 0
M  V30 4710 H 435.562 0.483535 -4.14388 0
M  V30 4711 H 434.192 0.926645 -3.09214 0
M  V30 4712 H 433.244 -1.45622 -3.51423 0
M  V30 4713 H 434.556 -1.70493 -4.68757 0
M  V30 4714 H 433.71 0.207215 -6.06346 0
M  V30 4715 H 432.449 0.55071 -4.84581 0
M  V30 4716 H 431.454 -1.72343 -5.2209 0
M  V30 4717 H 432.679 -2.05767 -6.47176 0
M  V30 4718 H 430.625 0.184713 -6.5574 0
M  V30 4719 H 430.542 -1.30017 -7.44736 0
M  V30 4720 H 431.81 -0.162427 -7.79331 0
M  V30 4721 N 436.039 1.36541 -0.78704 0
M  V30 4722 C 437.279 2.01138 -0.363714 0
M  V30 4723 C 437.643 1.61114 1.04433 0
M  V30 4724 O 438.844 2.18285 1.56861 0
M  V30 4725 C 437.115 3.53603 -0.519582 0
M  V30 4726 S 438.674 4.38415 -0.183782 0
M  V30 4727 H 435.492 0.697263 -0.13909 0
M  V30 4728 H 438.094 1.66475 -1.02501 0
M  V30 4729 H 436.798 3.8022 -1.5447 0
M  V30 4730 H 436.329 3.93084 0.15773 0
M  V30 4731 H 438.344 4.85698 1.01547 0
M  V30 4732 N 437.518 0.538854 1.48102 0
M  V30 4733 C 438.448 -0.207654 2.32575 0
M  V30 4734 C 439.429 -0.926559 1.4265 0
M  V30 4735 O 440.614 -0.91061 1.71527 0
M  V30 4736 C 437.744 -1.24957 3.24042 0
M  V30 4737 C 436.698 -0.648263 4.23062 0
M  V30 4738 C 436.024 -1.79348 5.03725 0
M  V30 4739 C 437.324 0.385897 5.20872 0
M  V30 4740 H 439.018 0.497534 2.95237 0
M  V30 4741 H 436.564 0.240715 1.41974 0
M  V30 4742 H 438.517 -1.77983 3.81969 0
M  V30 4743 H 437.241 -1.98446 2.59397 0
M  V30 4744 H 435.9 -0.139452 3.66335 0
M  V30 4745 H 435.548 -2.51696 4.35498 0
M  V30 4746 H 435.248 -1.39702 5.70751 0
M  V30 4747 H 436.772 -2.32735 5.64506 0
M  V30 4748 H 438.186 -0.057607 5.73271 0
M  V30 4749 H 436.583 0.700227 5.96001 0
M  V30 4750 H 437.653 1.28848 4.67468 0
M  V30 4751 N 438.996 -1.55193 0.274407 0
M  V30 4752 C 440.242 -1.99877 -0.343086 0
M  V30 4753 C 440.575 -1.16256 -1.55558 0
M  V30 4754 O 439.85 -0.232462 -1.93106 0
M  V30 4755 C 440.133 -3.52706 -0.725965 0
M  V30 4756 C 439.986 -4.47081 0.493818 0
M  V30 4757 C 441.305 -4.11422 -1.56268 0
M  V30 4758 H 438.424 -0.726625 -0.123229 0
M  V30 4759 H 441.066 -1.86136 0.38121 0
M  V30 4760 H 439.216 -3.64546 -1.34307 0
M  V30 4761 H 440.888 -4.47186 1.13237 0
M  V30 4762 H 439.131 -4.1877 1.13201 0
M  V30 4763 H 439.802 -5.51699 0.18217 0
M  V30 4764 H 442.278 -4.02855 -1.04151 0
M  V30 4765 H 441.154 -5.18568 -1.79939 0
M  V30 4766 H 441.415 -3.61607 -2.54348 0
M  V30 4767 N 440.474 -0.00167713 -1.576 0
M  V30 4768 C 441.699 0.69739 -1.95323 0
M  V30 4769 C 442.124 1.6642 -0.876706 0
M  V30 4770 O 441.482 1.80548 0.165007 0
M  V30 4771 C 441.53 1.40403 -3.32144 0
M  V30 4772 O 440.634 2.5185 -3.26566 0
M  V30 4773 H 439.975 0.185373 -0.637599 0
M  V30 4774 H 442.505 -0.0553665 -2.04525 0
M  V30 4775 H 442.515 1.76707 -3.67748 0
M  V30 4776 H 441.19 0.695167 -4.10049 0
M  V30 4777 H 439.767 2.17861 -3.0264 0
M  V30 4778 N 441.952 1.55251 0.271103 0
M  V30 4779 C 443.2 1.75599 1.00047 0
M  V30 4780 C 443.521 0.561188 1.8675 0
M  V30 4781 O 442.791 -0.423846 1.9126 0
M  V30 4782 H 441.371 0.647562 0.372387 0
M  V30 4783 H 444.033 1.92656 0.294876 0
M  V30 4784 H 443.129 2.65766 1.6363 0
M  V30 4785 N 443.43 -0.535701 1.48216 0
M  V30 4786 C 444.655 -1.32149 1.59848 0
M  V30 4787 C 445.08 -1.86338 0.256842 0
M  V30 4788 O 444.438 -1.64107 -0.770632 0
M  V30 4789 C 444.486 -2.45224 2.64381 0
M  V30 4790 O 443.59 -3.48093 2.21144 0
M  V30 4791 H 442.931 -0.391634 0.536208 0
M  V30 4792 H 445.461 -0.645202 1.94161 0
M  V30 4793 H 445.471 -2.91491 2.85476 0
M  V30 4794 H 444.146 -2.05143 3.61786 0
M  V30 4795 H 442.723 -3.07984 2.10239 0
M  V30 4796 N 444.908 -1.36708 -0.784132 0
M  V30 4797 C 446.156 -1.30972 -1.53918 0
M  V30 4798 C 446.477 0.109086 -1.94695 0
M  V30 4799 O 445.747 1.05048 -1.65353 0
M  V30 4800 H 444.327 -0.481819 -0.570841 0
M  V30 4801 H 446.989 -1.71063 -0.934002 0
M  V30 4802 H 446.085 -1.94061 -2.44431 0
M  V30 4803 N 446.386 1.0089 -1.21074 0
M  V30 4804 C 447.334 2.11707 -0.963476 0
M  V30 4805 C 448.328 1.69172 0.0879032 0
M  V30 4806 O 449.534 1.79889 -0.0631415 0
M  V30 4807 H 445.909 0.692026 -0.294287 0
M  V30 4808 H 447.88 2.29743 -1.90422 0
M  V30 4809 C 446.629 3.43473 -0.540509 0
M  V30 4810 H 445.952 3.76634 -1.34114 0
M  V30 4811 H 447.392 4.22044 -0.406777 0
M  V30 4812 C 445.851 3.2849 0.748079 0
M  V30 4813 O 446.381 3.58883 1.8046 0
M  V30 4814 N 444.587 2.81715 0.713081 0
M  V30 4815 H 444.134 2.5718 -0.146973 0
M  V30 4816 H 444.092 2.72071 1.57558 0
M  V30 4817 N 447.864 1.01787 1.20321 0
M  V30 4818 C 449.11 0.708985 1.90003 0
M  V30 4819 C 449.443 -0.759572 1.78729 0
M  V30 4820 O 448.718 -1.55198 1.17234 0
M  V30 4821 C 449.001 1.1469 3.41348 0
M  V30 4822 C 448.854 2.67586 3.61549 0
M  V30 4823 C 450.173 0.71915 4.34185 0
M  V30 4824 H 447.292 0.259034 0.689978 0
M  V30 4825 H 449.934 1.26584 1.41692 0
M  V30 4826 H 448.084 0.673128 3.82624 0
M  V30 4827 H 449.756 3.22826 3.29517 0
M  V30 4828 H 447.999 3.085 3.04976 0
M  V30 4829 H 448.67 2.93281 4.67643 0
M  V30 4830 H 451.146 1.12647 4.00562 0
M  V30 4831 H 450.022 1.05358 5.38694 0
M  V30 4832 H 450.283 -0.379111 4.40472 0
M  V30 4833 N 449.342 -1.36122 0.79427 0
M  V30 4834 C 450.305 -2.28309 0.201889 0
M  V30 4835 C 451.305 -1.49041 -0.603603 0
M  V30 4836 O 452.495 -1.68964 -0.423888 0
M  V30 4837 C 449.627 -3.3321 -0.719978 0
M  V30 4838 H 450.82 -2.82208 1.01481 0
M  V30 4839 H 448.373 -1.45768 0.564037 0
M  V30 4840 H 449.108 -2.84475 -1.55706 0
M  V30 4841 H 448.893 -3.91835 -0.144266 0
M  V30 4842 H 450.383 -4.02044 -1.12916 0
M  V30 4843 N 450.82 -0.546701 -1.47814 0
M  V30 4844 C 451.752 0.244196 -2.27895 0
M  V30 4845 C 452.765 0.88911 -1.36377 0
M  V30 4846 O 453.954 0.764733 -1.61289 0
M  V30 4847 C 451.054 1.36252 -3.10304 0
M  V30 4848 C 450.227 0.816382 -4.29714 0
M  V30 4849 C 449.286 1.81789 -4.93801 0
M  V30 4850 O 448.312 1.36818 -5.52512 0
M  V30 4851 N 449.514 3.15085 -4.87547 0
M  V30 4852 H 452.279 -0.442694 -2.96412 0
M  V30 4853 H 449.84 -0.382095 -1.57327 0
M  V30 4854 H 451.832 2.03102 -3.50045 0
M  V30 4855 H 450.402 1.95281 -2.44099 0
M  V30 4856 H 449.622 -0.0285981 -3.9419 0
M  V30 4857 H 450.91 0.430668 -5.06974 0
M  V30 4858 H 450.308 3.54275 -4.41028 0
M  V30 4859 H 448.865 3.77522 -5.31339 0
M  V30 4860 N 452.299 1.55045 -0.282633 0
M  V30 4861 C 453.529 2.03872 0.334635 0
M  V30 4862 C 453.937 1.16018 1.49454 0
M  V30 4863 O 453.28 0.174449 1.8287 0
M  V30 4864 C 453.342 3.48791 0.870905 0
M  V30 4865 C 453.006 4.56715 -0.161338 0
M  V30 4866 C 454.003 5.10513 -0.983466 0
M  V30 4867 C 451.688 5.01417 -0.297745 0
M  V30 4868 C 453.682 6.07538 -1.92811 0
M  V30 4869 C 451.369 5.98265 -1.24586 0
M  V30 4870 C 452.367 6.51208 -2.05954 0
M  V30 4871 O 452.055 7.46162 -2.99162 0
M  V30 4872 H 451.787 0.671324 0.0793742 0
M  V30 4873 H 454.341 2.01169 -0.41473 0
M  V30 4874 H 452.571 3.48758 1.67047 0
M  V30 4875 H 454.26 3.80916 1.40207 0
M  V30 4876 H 455.026 4.76785 -0.888856 0
M  V30 4877 H 450.905 4.59849 0.325604 0
M  V30 4878 H 454.449 6.48787 -2.56363 0
M  V30 4879 H 450.346 6.31412 -1.34126 0
M  V30 4880 H 451.114 7.63903 -2.93929 0
M  V30 4881 N 453.777 0.010035 1.57597 0
M  V30 4882 C 454.707 -0.976857 2.12084 0
M  V30 4883 C 455.688 -1.35191 1.03235 0
M  V30 4884 O 456.873 -1.43389 1.3097 0
M  V30 4885 C 454.003 -2.26548 2.63236 0
M  V30 4886 C 452.957 -2.03175 3.76701 0
M  V30 4887 C 452.283 -3.38138 4.14206 0
M  V30 4888 C 453.583 -1.38625 5.03568 0
M  V30 4889 H 455.277 -0.523145 2.94794 0
M  V30 4890 H 452.823 -0.250195 1.4181 0
M  V30 4891 H 454.776 -2.95952 2.99984 0
M  V30 4892 H 453.5 -2.74051 1.77661 0
M  V30 4893 H 452.159 -1.36195 3.40362 0
M  V30 4894 H 451.807 -3.83363 3.25641 0
M  V30 4895 H 451.507 -3.23312 4.90656 0
M  V30 4896 H 453.031 -4.08841 4.53521 0
M  V30 4897 H 454.445 -1.98 5.38023 0
M  V30 4898 H 452.842 -1.34256 5.84889 0
M  V30 4899 H 453.912 -0.356722 4.83586 0
M  V30 4900 N 455.255 -1.55392 -0.262866 0
M  V30 4901 C 456.501 -1.76737 -0.99458 0
M  V30 4902 C 456.834 -0.572453 -1.85571 0
M  V30 4903 O 456.109 0.429732 -1.89693 0
M  V30 4904 C 456.392 -3.07824 -1.8686 0
M  V30 4905 C 456.245 -4.3769 -1.03672 0
M  V30 4906 C 457.564 -3.35021 -2.85393 0
M  V30 4907 H 454.683 -0.643005 -0.360157 0
M  V30 4908 H 457.325 -1.88126 -0.266216 0
M  V30 4909 H 455.475 -2.98245 -2.48962 0
M  V30 4910 H 457.147 -4.59238 -0.43563 0
M  V30 4911 H 455.39 -4.32461 -0.340513 0
M  V30 4912 H 456.061 -5.25759 -1.6817 0
M  V30 4913 H 458.537 -3.44458 -2.33426 0
M  V30 4914 H 457.413 -4.27989 -3.43681 0
M  V30 4915 H 457.674 -2.55153 -3.61039 0
M  V30 4916 N 456.733 0.527833 -1.48498 0
M  V30 4917 C 457.643 1.65907 -1.65867 0
M  V30 4918 C 458.659 1.6537 -0.541192 0
M  V30 4919 O 459.835 1.84282 -0.812534 0
M  V30 4920 C 456.9 3.02364 -1.69637 0
M  V30 4921 C 455.961 3.1374 -2.93028 0
M  V30 4922 C 455.194 4.43688 -2.96609 0
M  V30 4923 O 455.417 5.30913 -2.08538 0
M  V30 4924 O 454.351 4.59475 -3.88802 0
M  V30 4925 H 458.177 1.5419 -2.61647 0
M  V30 4926 H 455.762 0.701163 -1.31924 0
M  V30 4927 H 457.644 3.83515 -1.74625 0
M  V30 4928 H 456.319 3.14401 -0.770312 0
M  V30 4929 H 455.226 2.31877 -2.93571 0
M  V30 4930 H 456.559 3.06621 -3.85026 0
M  V30 4931 N 458.211 1.37122 0.776871 0
M  V30 4932 C 459.158 1.3247 1.88998 0
M  V30 4933 C 460.128 0.191143 1.64997 0
M  V30 4934 O 461.313 0.379683 1.86984 0
M  V30 4935 C 458.453 1.13241 3.25992 0
M  V30 4936 C 457.566 2.35782 3.61982 0
M  V30 4937 C 456.701 2.09465 4.88158 0
M  V30 4938 C 455.74 3.279 5.16864 0
M  V30 4939 N 454.877 3.01167 6.34226 0
M  V30 4940 H 459.717 2.27642 1.9231 0
M  V30 4941 H 457.254 1.13125 0.94027 0
M  V30 4942 H 459.212 1.00115 4.0501 0
M  V30 4943 H 457.842 0.217186 3.22069 0
M  V30 4944 H 456.894 2.59666 2.77989 0
M  V30 4945 H 458.206 3.24125 3.79137 0
M  V30 4946 H 457.36 1.93341 5.75069 0
M  V30 4947 H 456.099 1.18452 4.73097 0
M  V30 4948 H 455.104 3.44569 4.2843 0
M  V30 4949 H 456.329 4.19757 5.33836 0
M  V30 4950 H 454.275 2.12779 6.20533 0
M  V30 4951 H 454.192 3.83052 6.51772 0
M  V30 4952 H 455.46 2.88649 7.24087 0
M  V30 4953 N 459.689 -1.00246 1.21608 0
M  V30 4954 C 460.619 -2.10921 1.00172 0
M  V30 4955 C 461.6 -1.69938 -0.0741587 0
M  V30 4956 O 462.785 -1.94009 0.0861753 0
M  V30 4957 C 459.915 -3.42618 0.568355 0
M  V30 4958 C 458.869 -3.97407 1.58909 0
M  V30 4959 C 458.195 -5.25038 1.01187 0
M  V30 4960 C 459.495 -4.2918 2.97661 0
M  V30 4961 H 461.189 -2.29112 1.92739 0
M  V30 4962 H 458.735 -1.10101 0.928102 0
M  V30 4963 H 460.688 -4.19444 0.405555 0
M  V30 4964 H 459.412 -3.24227 -0.392961 0
M  V30 4965 H 458.071 -3.22703 1.73949 0
M  V30 4966 H 457.719 -5.02982 0.0421965 0
M  V30 4967 H 457.419 -5.62661 1.6937 0
M  V30 4968 H 458.943 -6.04507 0.860448 0
M  V30 4969 H 460.357 -4.96839 2.86049 0
M  V30 4970 H 458.754 -4.77952 3.6288 0
M  V30 4971 H 459.824 -3.3735 3.48315 0
M  V30 4972 N 461.167 -1.02423 -1.1978 0
M  V30 4973 C 462.416 -0.713265 -1.88667 0
M  V30 4974 C 462.729 0.7609 -1.80193 0
M  V30 4975 O 463.935 1.18473 -2.44288 0
M  V30 4976 C 462.391 -1.22545 -3.38394 0
M  V30 4977 C 461.999 -2.72706 -3.55437 0
M  V30 4978 C 463.743 -0.990257 -4.12788 0
M  V30 4979 C 461.65 -3.17367 -4.99031 0
M  V30 4980 H 460.58 -0.263105 -0.706606 0
M  V30 4981 H 463.231 -1.23792 -1.35454 0
M  V30 4982 H 461.613 -0.628732 -3.90977 0
M  V30 4983 H 462.787 -3.37993 -3.13205 0
M  V30 4984 H 461.102 -2.94453 -2.94425 0
M  V30 4985 H 463.699 -1.29926 -5.18675 0
M  V30 4986 H 464.042 0.0730761 -4.16236 0
M  V30 4987 H 464.575 -1.55074 -3.66329 0
M  V30 4988 H 461.314 -4.23009 -5.00743 0
M  V30 4989 H 460.834 -2.56805 -5.42044 0
M  V30 4990 H 462.513 -3.10441 -5.67658 0
M  V30 4991 N 462.645 1.35699 -0.801477 0
M  V30 4992 C 463.555 2.33661 -0.209691 0
M  V30 4993 C 464.571 1.6162 0.644591 0
M  V30 4994 O 465.747 1.93529 0.557545 0
M  V30 4995 C 462.812 3.40816 0.636033 0
M  V30 4996 C 461.873 4.28639 -0.238147 0
M  V30 4997 C 461.106 5.30676 0.567307 0
M  V30 4998 O 461.329 5.41174 1.8024 0
M  V30 4999 O 460.263 6.01887 -0.0391336 0
M  V30 5000 H 464.089 2.8606 -1.01996 0
M  V30 5001 H 461.674 1.38379 -0.563164 0
M  V30 5002 H 463.556 4.06301 1.11791 0
M  V30 5003 H 462.231 2.90696 1.42399 0
M  V30 5004 H 461.138 3.66152 -0.767044 0
M  V30 5005 H 462.471 4.82143 -0.989915 0
M  V30 5006 N 464.123 0.554532 1.47522 0
M  V30 5007 C 465.07 -0.19466 2.29978 0
M  V30 5008 C 466.04 -0.910882 1.38896 0
M  V30 5009 O 467.225 -0.907102 1.67858 0
M  V30 5010 C 464.365 -1.22035 3.22802 0
M  V30 5011 C 463.478 -0.510474 4.28973 0
M  V30 5012 C 462.613 -1.52123 5.08952 0
M  V30 5013 C 461.652 -0.796173 6.069 0
M  V30 5014 N 460.789 -1.75363 6.79847 0
M  V30 5015 H 465.629 0.51461 2.93523 0
M  V30 5016 H 463.166 0.265607 1.44682 0
M  V30 5017 H 465.124 -1.8276 3.7504 0
M  V30 5018 H 463.754 -1.89769 2.61127 0
M  V30 5019 H 462.806 0.211234 3.79813 0
M  V30 5020 H 464.118 0.0576503 4.98767 0
M  V30 5021 H 463.272 -2.20207 5.65326 0
M  V30 5022 H 462.011 -2.12327 4.39054 0
M  V30 5023 H 461.016 -0.101388 5.49707 0
M  V30 5024 H 462.241 -0.199911 6.78806 0
M  V30 5025 H 460.187 -2.3443 6.12682 0
M  V30 5026 H 460.104 -1.23759 7.45801 0
M  V30 5027 H 461.372 -2.4257 7.40797 0
M  V30 5028 N 465.601 -1.54893 0.290851 0
M  V30 5029 C 466.849 -1.99538 -0.320756 0
M  V30 5030 C 467.17 -1.18075 -1.55188 0
M  V30 5031 O 466.44 -0.274162 -1.93972 0
M  V30 5032 H 465.02 -0.737052 -0.121507 0
M  V30 5033 H 467.682 -1.90755 0.399832 0
M  V30 5034 H 466.778 -3.06282 -0.599802 0
M  V30 5035 N 467.08 -0.0183926 -1.57589 0
M  V30 5036 C 468.043 0.951986 -2.08494 0
M  V30 5037 C 469.043 1.26092 -0.997874 0
M  V30 5038 O 470.233 1.20304 -1.25987 0
M  V30 5039 C 467.365 2.27165 -2.54182 0
M  V30 5040 H 468.558 0.511307 -2.95509 0
M  V30 5041 H 466.111 0.229444 -1.54607 0
M  V30 5042 H 466.846 2.75884 -1.70465 0
M  V30 5043 H 466.631 2.06057 -3.33591 0
M  V30 5044 H 468.121 2.9674 -2.93828 0
M  V30 5045 N 468.558 1.5553 0.254621 0
M  V30 5046 C 469.807 1.76202 0.981612 0
M  V30 5047 C 470.12 0.580883 1.86776 0
M  V30 5048 O 471.326 0.670448 2.63092 0
M  V30 5049 C 469.782 3.11921 1.79537 0
M  V30 5050 C 469.39 4.37659 0.956991 0
M  V30 5051 C 471.134 3.41936 2.51555 0
M  V30 5052 C 469.041 5.64411 1.76619 0
M  V30 5053 H 467.971 0.656841 0.370237 0
M  V30 5054 H 470.622 1.81969 0.236556 0
M  V30 5055 H 469.004 3.00241 2.58208 0
M  V30 5056 H 470.178 4.60307 0.21315 0
M  V30 5057 H 468.493 4.14922 0.350497 0
M  V30 5058 H 471.09 4.33849 3.12536 0
M  V30 5059 H 471.433 2.62905 3.22779 0
M  V30 5060 H 471.966 3.54797 1.799 0
M  V30 5061 H 468.705 6.46241 1.09783 0
M  V30 5062 H 468.225 5.45877 2.48551 0
M  V30 5063 H 469.904 6.03386 2.33527 0
M  V30 5064 N 470.036 -0.519951 1.48776 0
M  V30 5065 C 471.282 -1.27711 1.57536 0
M  V30 5066 C 471.615 -1.92547 0.252866 0
M  V30 5067 O 470.89 -1.7979 -0.742021 0
M  V30 5068 C 471.173 -2.35875 2.72094 0
M  V30 5069 C 471.026 -1.75664 4.1408 0
M  V30 5070 C 472.345 -3.37575 2.82367 0
M  V30 5071 H 469.464 -0.462971 0.573434 0
M  V30 5072 H 472.106 -0.578194 1.80989 0
M  V30 5073 H 470.256 -2.95488 2.52228 0
M  V30 5074 H 471.928 -1.20025 4.45412 0
M  V30 5075 H 470.171 -1.06154 4.20611 0
M  V30 5076 H 470.842 -2.54029 4.90075 0
M  V30 5077 H 473.318 -2.87929 3.00393 0
M  V30 5078 H 472.194 -4.1064 3.64233 0
M  V30 5079 H 472.455 -3.98743 1.90936 0
M  V30 5080 N 471.514 -1.37532 -0.769588 0
M  V30 5081 C 472.444 -1.36172 -1.89682 0
M  V30 5082 C 473.425 -0.23001 -1.68538 0
M  V30 5083 O 474.61 -0.43069 -1.89364 0
M  V30 5084 C 471.74 -1.1701 -3.26995 0
M  V30 5085 C 470.694 -2.27216 -3.62708 0
M  V30 5086 C 470.02 -1.93174 -4.98586 0
M  V30 5087 C 471.32 -3.6941 -3.69234 0
M  V30 5088 H 473.014 -2.30499 -1.91078 0
M  V30 5089 H 470.56 -1.10953 -0.917902 0
M  V30 5090 H 472.513 -1.14688 -4.05493 0
M  V30 5091 H 471.237 -0.191395 -3.26039 0
M  V30 5092 H 469.896 -2.28697 -2.86519 0
M  V30 5093 H 469.544 -0.938281 -4.94171 0
M  V30 5094 H 469.244 -2.66973 -5.23449 0
M  V30 5095 H 470.768 -1.92443 -5.79481 0
M  V30 5096 H 472.182 -3.70047 -4.37879 0
M  V30 5097 H 470.579 -4.4228 -4.05597 0
M  V30 5098 H 471.649 -4.0288 -2.69844 0
M  V30 5099 N 472.992 0.995999 -1.22138 0
M  V30 5100 C 474.22 1.77066 -1.07029 0
M  V30 5101 C 474.635 1.8495 0.379357 0
M  V30 5102 O 473.992 1.3174 1.26297 0
M  V30 5103 C 474.043 3.20533 -1.67155 0
M  V30 5104 O 473.764 3.13082 -3.06449 0
M  V30 5105 C 475.265 4.14461 -1.5728 0
M  V30 5106 H 472.485 0.556179 -0.375374 0
M  V30 5107 H 475.029 1.25238 -1.61666 0
M  V30 5108 H 473.184 3.6944 -1.16589 0
M  V30 5109 H 473.598 4.03283 -3.35355 0
M  V30 5110 H 475.072 5.1289 -2.04078 0
M  V30 5111 H 475.549 4.36005 -0.528795 0
M  V30 5112 H 476.155 3.71449 -2.07136 0
M  V30 5113 N 474.47 1.03057 1.19235 0
M  V30 5114 C 475.403 0.557384 2.21288 0
M  V30 5115 C 476.381 -0.402675 1.57535 0
M  V30 5116 O 477.565 -0.319376 1.85775 0
M  V30 5117 C 474.692 -0.187041 3.38183 0
M  V30 5118 C 473.738 0.72471 4.20298 0
M  V30 5119 S 474.571 2.20187 4.88137 0
M  V30 5120 C 475.727 1.46801 6.08441 0
M  V30 5121 H 475.96 1.42207 2.61083 0
M  V30 5122 H 473.493 0.840651 1.29508 0
M  V30 5123 H 475.451 -0.610405 4.05936 0
M  V30 5124 H 474.112 -1.02748 2.96819 0
M  V30 5125 H 473.305 0.149911 5.03777 0
M  V30 5126 H 472.907 1.08647 3.57871 0
M  V30 5127 H 475.199 0.755522 6.73274 0
M  V30 5128 H 476.142 2.27946 6.70407 0
M  V30 5129 H 476.55 0.964762 5.56195 0
M  V30 5130 N 475.948 -1.35272 0.808662 0
M  V30 5131 C 477.173 -2.03477 0.401475 0
M  V30 5132 C 477.598 -1.60537 -0.980279 0
M  V30 5133 O 476.956 -0.78304 -1.63518 0
M  V30 5134 C 477.004 -3.57181 0.495354 0
M  V30 5135 O 476.108 -4.09474 -0.490397 0
M  V30 5136 H 475.449 -0.642561 0.167366 0
M  V30 5137 H 477.979 -1.72824 1.09512 0
M  V30 5138 H 477.989 -4.06356 0.365912 0
M  V30 5139 H 476.664 -3.87784 1.5032 0
M  V30 5140 H 475.241 -3.71516 -0.321023 0
M  V30 5141 N 477.426 -0.562348 -1.47226 0
M  V30 5142 C 478.703 0.0256985 -1.95583 0
M  V30 5143 C 479.083 1.48032 -1.50498 0
M  V30 5144 O 478.431 2.15973 -0.746181 0
M  V30 5145 C 478.641 -0.125129 -3.48776 0
M  V30 5146 C 479.989 0.0175728 -4.24596 0
M  V30 5147 O 481.013 -0.0529341 -3.56161 0
M  V30 5148 O 479.872 0.170145 -5.46235 0
M  V30 5149 H 476.966 0.0612565 -0.824728 0
M  V30 5150 H 479.512 -0.629233 -1.57603 0
M  V30 5151 H 478.284 -1.13715 -3.74412 0
M  V30 5152 H 477.907 0.567178 -3.93534 0
M  V30 5153 N 478.904 1.54736 -0.299062 0
M  V30 5154 C 480.129 2.04975 0.316254 0
M  V30 5155 C 480.554 1.17501 1.46885 0
M  V30 5156 O 479.912 0.178678 1.80417 0
M  V30 5157 C 479.96 3.52672 0.751997 0
M  V30 5158 O 479.064 3.68226 1.85697 0
M  V30 5159 H 478.405 0.661126 0.0617175 0
M  V30 5160 H 480.935 1.99805 -0.440341 0
M  V30 5161 H 480.945 3.94488 1.04133 0
M  V30 5162 H 479.62 4.158 -0.0911482 0
M  V30 5163 H 478.197 3.38316 1.56834 0
M  V30 5164 N 480.382 0.0267497 1.57577 0
M  V30 5165 C 481.33 -0.973923 2.11229 0
M  V30 5166 C 482.324 -1.33849 1.03831 0
M  V30 5167 O 483.53 -1.321 1.22269 0
M  V30 5168 H 479.905 -0.331844 0.674821 0
M  V30 5169 H 481.876 -0.496092 2.94247 0
M  V30 5170 C 480.625 -2.24798 2.65257 0
M  V30 5171 H 479.948 -1.9762 3.47543 0
M  V30 5172 H 481.388 -2.93031 3.06445 0
M  V30 5173 C 479.847 -2.97611 1.57891 0
M  V30 5174 O 480.377 -3.89629 0.97735 0
M  V30 5175 N 478.583 -2.59905 1.29992 0
M  V30 5176 H 478.13 -1.85154 1.79097 0
M  V30 5177 H 478.088 -3.08932 0.583798 0
M  V30 5178 N 481.861 -1.55662 -0.24637 0
M  V30 5179 C 483.109 -1.77168 -0.972411 0
M  V30 5180 C 483.43 -0.590827 -1.85834 0
M  V30 5181 O 482.7 0.393365 -1.9191 0
M  V30 5182 H 481.28 -0.653405 -0.362038 0
M  V30 5183 H 483.942 -1.93101 -0.264189 0
M  V30 5184 H 483.038 -2.68335 -1.59382 0
M  V30 5185 N 483.339 0.512053 -1.4905 0
M  V30 5186 C 484.569 1.28928 -1.61434 0
M  V30 5187 C 484.977 1.87107 -0.280647 0
M  V30 5188 O 484.32 1.68024 0.742537 0
M  V30 5189 C 484.382 2.466 -2.61588 0
M  V30 5190 C 484.046 2.09375 -4.06216 0
M  V30 5191 C 485.043 1.63994 -4.93358 0
M  V30 5192 C 482.728 2.19348 -4.51876 0
M  V30 5193 C 484.722 1.29076 -6.24194 0
M  V30 5194 C 482.409 1.84041 -5.82728 0
M  V30 5195 C 483.407 1.38978 -6.68711 0
M  V30 5196 O 483.095 1.04144 -7.97126 0
M  V30 5197 H 482.827 0.397668 -0.546659 0
M  V30 5198 H 485.381 0.622507 -1.9574 0
M  V30 5199 H 483.611 3.16318 -2.22441 0
M  V30 5200 H 485.3 3.08642 -2.63619 0
M  V30 5201 H 486.066 1.55744 -4.59313 0
M  V30 5202 H 481.945 2.53376 -3.85125 0
M  V30 5203 H 485.489 0.938303 -6.91261 0
M  V30 5204 H 481.386 1.91938 -6.16304 0
M  V30 5205 H 482.154 1.17387 -8.10039 0
M  V30 5206 N 484.817 1.37938 0.762283 0
M  V30 5207 C 486.066 1.32989 1.51647 0
M  V30 5208 C 486.379 -0.0802922 1.95435 0
M  V30 5209 O 487.585 -0.252295 2.70325 0
M  V30 5210 C 486.041 2.33485 2.73885 0
M  V30 5211 C 485.649 3.80079 2.37157 0
M  V30 5212 C 487.393 2.37563 3.51801 0
M  V30 5213 C 485.3 4.72283 3.55954 0
M  V30 5214 H 484.23 0.494301 0.56937 0
M  V30 5215 H 486.881 1.63448 0.834083 0
M  V30 5216 H 485.263 1.96056 3.44061 0
M  V30 5217 H 486.437 4.26398 1.74704 0
M  V30 5218 H 484.752 3.79037 1.72395 0
M  V30 5219 H 487.349 3.0365 4.40114 0
M  V30 5220 H 487.692 1.39199 3.92338 0
M  V30 5221 H 488.225 2.73747 2.8863 0
M  V30 5222 H 484.964 5.7181 3.2049 0
M  V30 5223 H 484.484 4.30663 4.1748 0
M  V30 5224 H 486.163 4.89876 4.22647 0
M  V30 5225 N 486.295 -0.989507 1.22664 0
M  V30 5226 C 487.225 -2.09847 1.02404 0
M  V30 5227 C 488.206 -1.70007 -0.0561303 0
M  V30 5228 O 489.391 -1.93906 0.106748 0
M  V30 5229 C 486.521 -3.41996 0.604663 0
M  V30 5230 C 485.475 -3.95699 1.63115 0
M  V30 5231 C 484.801 -5.23936 1.0675 0
M  V30 5232 C 486.101 -4.25999 3.02196 0
M  V30 5233 H 487.795 -2.27054 1.95158 0
M  V30 5234 H 485.341 -1.09111 0.939727 0
M  V30 5235 H 487.294 -4.1899 0.45002 0
M  V30 5236 H 486.018 -3.24626 -0.35855 0
M  V30 5237 H 484.677 -3.2084 1.77362 0
M  V30 5238 H 484.325 -5.02909 0.0955422 0
M  V30 5239 H 484.025 -5.60833 1.75328 0
M  V30 5240 H 485.549 -6.0356 0.924516 0
M  V30 5241 H 486.963 -4.93777 2.91303 0
M  V30 5242 H 485.36 -4.74076 3.67929 0
M  V30 5243 H 486.43 -3.33636 3.51873 0
M  V30 5244 N 487.773 -1.03688 -1.18687 0
M  V30 5245 C 488.683 -0.634908 -2.25845 0
M  V30 5246 C 489.699 0.337065 -1.70704 0
M  V30 5247 O 490.875 0.192943 -2.00474 0
M  V30 5248 C 487.94 -0.000180054 -3.467 0
M  V30 5249 C 487.001 -1.02067 -4.1699 0
M  V30 5250 C 486.234 -0.41614 -5.32075 0
M  V30 5251 O 486.457 0.778712 -5.65059 0
M  V30 5252 O 485.391 -1.14296 -5.90948 0
M  V30 5253 H 489.217 -1.52757 -2.62486 0
M  V30 5254 H 486.802 -0.807533 -1.25695 0
M  V30 5255 H 488.684 0.353342 -4.19916 0
M  V30 5256 H 487.359 0.866367 -3.11891 0
M  V30 5257 H 486.266 -1.42592 -3.45859 0
M  V30 5258 H 487.599 -1.85786 -4.5579 0
M  V30 5259 N 489.251 1.34841 -0.815825 0
M  V30 5260 C 490.662 1.80937 -0.46029 0
M  V30 5261 C 491.013 1.67685 1.01863 0
M  V30 5262 O 490.138 1.21277 1.79223 0
M  V30 5263 C 490.733 3.28509 -0.828708 0
M  V30 5264 C 489.292 3.72712 -0.525644 0
M  V30 5265 C 488.439 2.56676 -1.04941 0
M  V30 5266 H 491.39 1.22688 -1.00664 0
M  V30 5267 H 491.411 3.80279 -0.129757 0
M  V30 5268 H 490.923 3.38122 -1.90513 0
M  V30 5269 H 489.024 3.68642 0.541666 0
M  V30 5270 H 489.137 4.67119 -1.06474 0
M  V30 5271 H 487.501 2.50302 -0.471286 0
M  V30 5272 H 488.284 2.69063 -2.13214 0
M  V30 5273 N 490.729 0.570148 1.46925 0
M  V30 5274 C 491.677 -0.183181 2.31878 0
M  V30 5275 C 492.671 -0.896721 1.43719 0
M  V30 5276 O 493.877 -0.816536 1.60414 0
M  V30 5277 H 490.252 -0.077944 0.74795 0
M  V30 5278 H 492.223 0.552312 2.93244 0
M  V30 5279 C 490.972 -1.19172 3.2664 0
M  V30 5280 H 490.295 -0.652088 3.94446 0
M  V30 5281 H 491.735 -1.68946 3.88887 0
M  V30 5282 C 490.194 -2.24627 2.51086 0
M  V30 5283 O 490.724 -3.31773 2.26472 0
M  V30 5284 N 488.93 -1.98898 2.11867 0
M  V30 5285 H 488.477 -1.11777 2.32086 0
M  V30 5286 H 488.435 -2.6967 1.61634 0
M  V30 5287 N 492.207 -1.54576 0.307264 0
M  V30 5288 C 493.455 -1.99867 -0.299574 0
M  V30 5289 C 493.776 -1.19714 -1.53927 0
M  V30 5290 O 493.046 -0.29472 -1.9367 0
M  V30 5291 H 491.626 -0.738299 -0.113683 0
M  V30 5292 H 494.288 -1.9032 0.420042 0
M  V30 5293 H 493.384 -3.06901 -0.567283 0
M  V30 5294 N 493.685 -0.035106 -1.57561 0
M  V30 5295 C 494.932 0.642229 -1.92046 0
M  V30 5296 C 495.26 1.7179 -0.91206 0
M  V30 5297 O 494.515 1.95544 0.0781153 0
M  V30 5298 C 494.814 1.29149 -3.3325 0
M  V30 5299 C 494.48 0.345604 -4.49574 0
M  V30 5300 C 493.142 0.0852775 -4.81124 0
M  V30 5301 C 495.494 -0.303569 -5.20315 0
M  V30 5302 C 492.822 -0.831927 -5.80772 0
M  V30 5303 C 495.174 -1.20886 -6.20942 0
M  V30 5304 C 493.838 -1.47802 -6.50931 0
M  V30 5305 H 493.108 0.235008 -0.702746 0
M  V30 5306 H 495.755 -0.0981529 -1.91248 0
M  V30 5307 H 494.06 2.10676 -3.30337 0
M  V30 5308 H 495.757 1.82223 -3.57205 0
M  V30 5309 H 492.347 0.558683 -4.24943 0
M  V30 5310 H 496.531 -0.115515 -4.96166 0
M  V30 5311 H 491.787 -1.0481 -6.02349 0
M  V30 5312 H 495.961 -1.71804 -6.74875 0
M  V30 5313 H 493.588 -2.19039 -7.2796 0
M  V30 5314 N 495.163 1.55791 0.238111 0
M  V30 5315 C 496.391 1.82098 0.982233 0
M  V30 5316 C 496.806 0.612025 1.78605 0
M  V30 5317 O 496.163 -0.419381 1.77616 0
M  V30 5318 C 496.214 3.0673 1.91309 0
M  V30 5319 O 495.935 4.2296 1.14179 0
M  V30 5320 C 497.436 3.45903 2.77248 0
M  V30 5321 H 494.656 0.605748 0.288635 0
M  V30 5322 H 497.2 2.02862 0.258341 0
M  V30 5323 H 495.355 2.87991 2.59114 0
M  V30 5324 H 495.769 4.93653 1.7722 0
M  V30 5325 H 497.243 4.36189 3.38295 0
M  V30 5326 H 497.72 2.66891 3.48806 0
M  V30 5327 H 498.326 3.67024 2.14881 0
M  V30 5328 N 496.642 -0.504142 1.49319 0
M  V30 5329 C 497.589 -1.60603 1.65756 0
M  V30 5330 C 498.559 -1.58425 0.499082 0
M  V30 5331 O 499.744 -1.76459 0.725728 0
M  V30 5332 C 496.884 -2.98764 1.72726 0
M  V30 5333 C 495.997 -3.10982 2.99857 0
M  V30 5334 C 495.132 -4.39857 2.97824 0
M  V30 5335 C 494.171 -4.45697 4.19548 0
M  V30 5336 N 493.308 -5.65995 4.15444 0
M  V30 5337 H 498.148 -1.45895 2.59843 0
M  V30 5338 H 495.685 -0.709891 1.28837 0
M  V30 5339 H 497.643 -3.78839 1.74747 0
M  V30 5340 H 496.273 -3.12183 0.821075 0
M  V30 5341 H 495.325 -2.23991 3.07461 0
M  V30 5342 H 496.637 -3.11157 3.89849 0
M  V30 5343 H 495.791 -5.2825 2.98391 0
M  V30 5344 H 494.53 -4.42242 2.05604 0
M  V30 5345 H 493.535 -3.55707 4.19229 0
M  V30 5346 H 494.76 -4.4503 5.12957 0
M  V30 5347 H 492.706 -5.69229 3.26059 0
M  V30 5348 H 492.623 -5.67773 4.99169 0
M  V30 5349 H 493.891 -6.56604 4.20109 0
M  V30 5350 N 498.12 -1.38341 -0.754957 0
M  V30 5351 C 499.03 -1.3769 -1.89944 0
M  V30 5352 C 500.046 -0.274194 -1.71826 0
M  V30 5353 O 501.222 -0.512391 -1.94773 0
M  V30 5354 C 498.287 -1.19938 -3.25293 0
M  V30 5355 C 497.348 -2.40001 -3.55946 0
M  V30 5356 C 496.581 -2.23087 -4.84838 0
M  V30 5357 O 496.804 -1.22386 -5.57116 0
M  V30 5358 O 495.738 -3.11646 -5.14937 0
M  V30 5359 H 499.564 -2.3412 -1.93446 0
M  V30 5360 H 497.149 -1.19246 -0.900044 0
M  V30 5361 H 499.031 -1.12093 -4.06218 0
M  V30 5362 H 497.706 -0.265919 -3.22606 0
M  V30 5363 H 496.613 -2.53421 -2.75188 0
M  V30 5364 H 497.946 -3.31973 -3.63394 0
M  V30 5365 N 499.598 0.982988 -1.23187 0
M  V30 5366 C 500.53 2.07729 -0.968572 0
M  V30 5367 C 501.543 1.62702 0.0564821 0
M  V30 5368 O 502.732 1.77603 -0.178733 0
M  V30 5369 C 499.832 3.36071 -0.436974 0
M  V30 5370 C 499.005 4.10081 -1.52159 0
M  V30 5371 C 498.064 5.16701 -0.99532 0
M  V30 5372 O 497.09 5.43727 -1.68373 0
M  V30 5373 N 498.292 5.80226 0.178192 0
M  V30 5374 H 501.057 2.30894 -1.9107 0
M  V30 5375 H 498.618 1.14949 -1.1401 0
M  V30 5376 H 500.61 4.04639 -0.0700051 0
M  V30 5377 H 499.18 3.09893 0.410509 0
M  V30 5378 H 498.4 3.36004 -2.06144 0
M  V30 5379 H 499.688 4.56295 -2.25105 0
M  V30 5380 H 499.086 5.60651 0.754096 0
M  V30 5381 H 497.643 6.49982 0.486449 0
M  V30 5382 N 501.076 1.04316 1.18135 0
M  V30 5383 C 502.006 0.657299 2.24058 0
M  V30 5384 C 502.987 -0.340678 1.66654 0
M  V30 5385 O 504.172 -0.220223 1.92947 0
M  V30 5386 C 501.302 0.0220715 3.47293 0
M  V30 5387 C 500.256 0.943857 4.17463 0
M  V30 5388 C 499.582 0.172973 5.3442 0
M  V30 5389 C 500.882 2.26409 4.70677 0
M  V30 5390 H 502.576 1.5428 2.56589 0
M  V30 5391 H 500.122 0.743263 1.23335 0
M  V30 5392 H 502.075 -0.259607 4.206 0
M  V30 5393 H 500.799 -0.898323 3.14003 0
M  V30 5394 H 499.458 1.20996 3.46057 0
M  V30 5395 H 499.106 -0.749907 4.97379 0
M  V30 5396 H 498.806 0.787098 5.82304 0
M  V30 5397 H 500.33 -0.101628 6.10515 0
M  V30 5398 H 501.744 2.04294 5.35665 0
M  V30 5399 H 500.141 2.8314 5.29105 0
M  V30 5400 H 501.211 2.90883 3.87962 0
M  V30 5401 N 502.554 -1.34406 0.822964 0
M  V30 5402 C 503.502 -2.31428 0.233165 0
M  V30 5403 C 504.496 -1.57404 -0.626118 0
M  V30 5404 O 505.702 -1.72402 -0.517453 0
M  V30 5405 H 502.077 -0.749863 0.0566557 0
M  V30 5406 H 504.048 -2.78699 1.06628 0
M  V30 5407 C 502.797 -3.42653 -0.590264 0
M  V30 5408 H 502.12 -3.99753 0.0616129 0
M  V30 5409 H 503.56 -4.12778 -0.969054 0
M  V30 5410 C 502.019 -2.87112 -1.76262 0
M  V30 5411 O 502.549 -2.81995 -2.8608 0
M  V30 5412 N 500.755 -2.43934 -1.57938 0
M  V30 5413 H 500.302 -2.48296 -0.686078 0
M  V30 5414 H 500.26 -2.07123 -2.36532 0
M  V30 5415 N 504.032 -0.577932 -1.46621 0
M  V30 5416 C 505.262 -0.0670668 -2.06491 0
M  V30 5417 C 505.67 1.24119 -1.42798 0
M  V30 5418 O 505.013 1.76016 -0.525759 0
M  V30 5419 C 505.075 0.177995 -3.59059 0
M  V30 5420 C 504.739 -1.04394 -4.44917 0
M  V30 5421 C 505.736 -1.95479 -4.81751 0
M  V30 5422 C 503.421 -1.26444 -4.86125 0
M  V30 5423 C 505.415 -3.06965 -5.58615 0
M  V30 5424 C 503.102 -2.38237 -5.62749 0
M  V30 5425 C 504.1 -3.28327 -5.98908 0
M  V30 5426 O 503.788 -4.38179 -6.73984 0
M  V30 5427 H 503.52 -0.0523159 -0.673973 0
M  V30 5428 H 506.074 -0.796966 -1.89308 0
M  V30 5429 H 504.304 0.962451 -3.74531 0
M  V30 5430 H 505.993 0.636782 -4.00874 0
M  V30 5431 H 506.759 -1.79657 -4.50498 0
M  V30 5432 H 502.638 -0.572316 -4.57434 0
M  V30 5433 H 506.182 -3.77309 -5.86757 0
M  V30 5434 H 502.079 -2.54023 -5.93416 0
M  V30 5435 H 502.847 -4.36486 -6.92403 0
M  V30 5436 N 505.51 1.54411 -0.315457 0
M  V30 5437 C 506.759 1.99599 0.290395 0
M  V30 5438 C 507.072 1.20746 1.53882 0
M  V30 5439 O 508.278 1.56272 2.22017 0
M  V30 5440 C 506.734 3.5539 0.56797 0
M  V30 5441 C 506.342 4.43068 -0.662945 0
M  V30 5442 C 508.086 4.09067 1.13422 0
M  V30 5443 C 505.993 5.90317 -0.357722 0
M  V30 5444 H 504.923 0.745592 0.112286 0
M  V30 5445 H 507.574 1.78477 -0.426418 0
M  V30 5446 H 505.956 3.72468 1.34476 0
M  V30 5447 H 507.13 4.37765 -1.43869 0
M  V30 5448 H 505.445 4.00238 -1.14884 0
M  V30 5449 H 508.042 5.16663 1.37707 0
M  V30 5450 H 508.385 3.60552 2.08106 0
M  V30 5451 H 508.918 3.95589 0.418805 0
M  V30 5452 H 505.657 6.4301 -1.27351 0
M  V30 5453 H 505.177 5.98592 0.380472 0
M  V30 5454 H 506.856 6.4699 0.0354284 0
M  V30 5455 N 506.988 0.0434614 1.5754 0
M  V30 5456 C 507.921 -0.968729 2.06618 0
M  V30 5457 C 508.899 -1.30868 0.965 0
M  V30 5458 O 510.083 -1.42288 1.23638 0
M  V30 5459 C 507.21 -2.28486 2.50023 0
M  V30 5460 C 506.256 -2.09851 3.71302 0
M  V30 5461 S 507.089 -1.38401 5.17306 0
M  V30 5462 C 508.245 -2.71354 5.64019 0
M  V30 5463 H 508.478 -0.551021 2.92149 0
M  V30 5464 H 506.011 -0.168607 1.53477 0
M  V30 5465 H 507.969 -3.04142 2.75695 0
M  V30 5466 H 506.63 -2.67387 1.64812 0
M  V30 5467 H 505.823 -3.07184 3.99567 0
M  V30 5468 H 505.425 -1.42336 3.45856 0
M  V30 5469 H 507.717 -3.67549 5.69134 0
M  V30 5470 H 508.66 -2.47734 6.6335 0
M  V30 5471 H 509.068 -2.77259 4.91719 0
M  V30 5472 N 508.466 -1.55915 -0.229846 0
M  V30 5473 C 509.743 -1.6932 -0.979295 0
M  V30 5474 C 510.123 -0.588321 -2.02736 0
M  V30 5475 O 509.471 0.40586 -2.24867 0
M  V30 5476 C 509.681 -3.10305 -1.59724 0
M  V30 5477 C 511.029 -3.6945 -2.09264 0
M  V30 5478 O 512.053 -3.13214 -1.69633 0
M  V30 5479 O 510.912 -4.68072 -2.82082 0
M  V30 5480 H 508.006 -0.689314 -0.456919 0
M  V30 5481 H 510.552 -1.68238 -0.222283 0
M  V30 5482 H 509.324 -3.82177 -0.840039 0
M  V30 5483 H 508.947 -3.1547 -2.42001 0
M  V30 5484 N 509.944 0.496216 -1.49584 0
M  V30 5485 C 511.193 1.24668 -1.58558 0
M  V30 5486 C 511.506 1.9359 -0.279703 0
M  V30 5487 O 512.712 2.70365 -0.248048 0
M  V30 5488 C 511.168 2.26388 -2.79779 0
M  V30 5489 C 510.776 1.63384 -4.17145 0
M  V30 5490 C 512.52 3.02233 -2.98086 0
M  V30 5491 C 510.427 2.63243 -5.29582 0
M  V30 5492 H 509.357 0.468995 -0.590389 0
M  V30 5493 H 512.008 0.519985 -1.75978 0
M  V30 5494 H 510.39 3.02241 -2.55863 0
M  V30 5495 H 511.564 0.93491 -4.51216 0
M  V30 5496 H 509.879 0.999121 -4.04236 0
M  V30 5497 H 512.476 3.76919 -3.79257 0
M  V30 5498 H 512.819 3.60132 -2.08831 0
M  V30 5499 H 513.352 2.33495 -3.22063 0
M  V30 5500 H 510.091 2.10119 -6.20911 0
M  V30 5501 H 509.611 3.31363 -4.99959 0
M  V30 5502 H 511.29 3.25575 -5.59115 0
M  V30 5503 N 511.423 1.38739 0.74761 0
M  V30 5504 C 512.37 1.36449 1.86146 0
M  V30 5505 C 513.34 0.226098 1.64554 0
M  V30 5506 O 514.525 0.41926 1.86137 0
M  V30 5507 C 511.665 1.2013 3.23516 0
M  V30 5508 C 510.778 2.43407 3.56899 0
M  V30 5509 C 509.913 2.19773 4.83605 0
M  V30 5510 C 508.952 3.3879 5.09792 0
M  V30 5511 N 508.089 3.14553 6.27695 0
M  V30 5512 H 512.929 2.3167 1.87438 0
M  V30 5513 H 510.466 1.15094 0.916063 0
M  V30 5514 H 512.424 1.08683 4.02795 0
M  V30 5515 H 511.054 0.285453 3.21535 0
M  V30 5516 H 510.106 2.65504 2.72418 0
M  V30 5517 H 511.418 3.32094 3.72176 0
M  V30 5518 H 510.572 2.05496 5.70838 0
M  V30 5519 H 509.311 1.28461 4.70478 0
M  V30 5520 H 508.316 3.53579 4.21025 0
M  V30 5521 H 509.541 4.30986 5.24812 0
M  V30 5522 H 507.487 2.25893 6.1588 0
M  V30 5523 H 507.404 3.96791 6.435 0
M  V30 5524 H 508.672 3.03943 7.17801 0
M  V30 5525 N 512.901 -0.976442 1.23707 0
M  V30 5526 C 513.849 -2.09078 1.01927 0
M  V30 5527 C 514.843 -1.69345 -0.0430193 0
M  V30 5528 O 516.049 -1.79659 0.110814 0
M  V30 5529 H 512.424 -0.68398 0.312531 0
M  V30 5530 H 514.395 -2.24614 1.96447 0
M  V30 5531 C 513.144 -3.41919 0.631385 0
M  V30 5532 H 512.467 -3.72946 1.44053 0
M  V30 5533 H 513.907 -4.20817 0.518532 0
M  V30 5534 C 512.366 -3.30357 -0.660723 0
M  V30 5535 O 512.896 -3.63542 -1.70881 0
M  V30 5536 N 511.102 -2.83507 -0.638139 0
M  V30 5537 H 510.649 -2.567 0.215108 0
M  V30 5538 H 510.607 -2.76153 -1.50289 0
M  V30 5539 N 514.379 -1.04941 -1.1758 0
M  V30 5540 C 515.327 -0.64204 -2.23563 0
M  V30 5541 C 516.321 0.335453 -1.66045 0
M  V30 5542 O 517.527 0.20179 -1.78865 0
M  V30 5543 H 513.902 -0.18944 -0.727748 0
M  V30 5544 H 515.873 -1.54609 -2.55223 0
M  V30 5545 C 514.622 -0.0301051 -3.47687 0
M  V30 5546 H 513.945 -0.773339 -3.92249 0
M  V30 5547 H 515.385 0.217592 -4.23441 0
M  V30 5548 C 513.844 1.2225 -3.13937 0
M  V30 5549 O 514.374 2.3122 -3.28482 0
M  V30 5550 N 512.58 1.11917 -2.68185 0
M  V30 5551 H 512.127 0.232403 -2.5655 0
M  V30 5552 H 512.085 1.95814 -2.45976 0
M  V30 5553 N 515.857 1.33968 -0.830081 0
M  V30 5554 C 516.789 2.28194 -0.21448 0
M  V30 5555 C 517.802 1.5135 0.599752 0
M  V30 5556 O 518.991 1.73286 0.42826 0
M  V30 5557 C 516.091 3.31221 0.717356 0
M  V30 5558 C 515.264 4.37365 -0.055613 0
M  V30 5559 C 514.323 5.2011 0.798231 0
M  V30 5560 O 513.349 5.68691 0.240616 0
M  V30 5561 N 514.551 5.40523 2.11695 0
M  V30 5562 H 517.316 2.81662 -1.02405 0
M  V30 5563 H 514.877 1.46568 -0.687713 0
M  V30 5564 H 516.869 3.83477 1.29334 0
M  V30 5565 H 515.439 2.78095 1.42765 0
M  V30 5566 H 514.659 3.85727 -0.812936 0
M  V30 5567 H 515.947 5.05397 -0.587444 0
M  V30 5568 H 515.345 5.0274 2.59363 0
M  V30 5569 H 513.902 5.95871 2.64162 0
M  V30 5570 N 517.335 0.585699 1.46312 0
M  V30 5571 C 518.751 0.247607 1.57668 0
M  V30 5572 C 518.951 -1.25007 1.58037 0
M  V30 5573 O 518.007 -2.03196 1.49893 0
M  V30 5574 C 519.32 0.899456 2.86933 0
M  V30 5575 C 520.868 0.873326 3.00569 0
M  V30 5576 C 521.343 1.50477 4.32574 0
M  V30 5577 N 522.834 1.46925 4.3928 0
M  V30 5578 C 523.569 1.92719 5.40044 0
M  V30 5579 N 523.065 2.46499 6.47464 0
M  V30 5580 N 524.858 1.83617 5.31264 0
M  V30 5581 H 517.009 1.55841 1.44317 0
M  V30 5582 H 519.272 0.651564 0.688599 0
M  V30 5583 H 518.978 1.95313 2.92482 0
M  V30 5584 H 518.852 0.409476 3.74971 0
M  V30 5585 H 521.239 -0.171736 2.946 0
M  V30 5586 H 521.32 1.40136 2.13999 0
M  V30 5587 H 520.964 2.54905 4.39302 0
M  V30 5588 H 520.894 0.951944 5.17924 0
M  V30 5589 H 523.385 1.07616 3.62253 0
M  V30 5590 H 523.698 2.79291 7.20567 0
M  V30 5591 H 522.043 2.50526 6.48276 0
M  V30 5592 H 525.234 1.41358 4.46246 0
M  V30 5593 H 525.407 2.19622 6.09648 0
M  V30 5594 N 518.813 -1.54241 0.323641 0
M  V30 5595 C 519.743 -2.27289 -0.534993 0
M  V30 5596 C 520.724 -1.28087 -1.11927 0
M  V30 5597 O 521.909 -1.56899 -1.14439 0
M  V30 5598 C 519.039 -3.03075 -1.69596 0
M  V30 5599 C 517.993 -4.09614 -1.24098 0
M  V30 5600 C 517.319 -4.73242 -2.4889 0
M  V30 5601 C 518.619 -5.21087 -0.355789 0
M  V30 5602 H 520.313 -2.99308 0.0743257 0
M  V30 5603 H 517.859 -1.43952 0.0371874 0
M  V30 5604 H 519.812 -3.52907 -2.30293 0
M  V30 5605 H 518.536 -2.28673 -2.33187 0
M  V30 5606 H 517.195 -3.60666 -0.656945 0
M  V30 5607 H 516.843 -3.95455 -3.10845 0
M  V30 5608 H 516.543 -5.45209 -2.19138 0
M  V30 5609 H 518.067 -5.25848 -3.10348 0
M  V30 5610 H 519.481 -5.66675 -0.869042 0
M  V30 5611 H 517.878 -5.9991 -0.151045 0
M  V30 5612 H 518.948 -4.81005 0.613339 0
M  V30 5613 N 520.291 -0.0518155 -1.57515 0
M  V30 5614 C 521.707 0.304735 -1.56664 0
M  V30 5615 C 521.907 1.71395 -1.05953 0
M  V30 5616 O 520.963 2.42123 -0.716414 0
M  V30 5617 C 522.276 0.132614 -3.00407 0
M  V30 5618 C 523.824 0.20367 -3.12337 0
M  V30 5619 C 524.299 0.0600706 -4.57961 0
M  V30 5620 N 525.79 0.116326 -4.63054 0
M  V30 5621 C 526.525 0.0293363 -5.73392 0
M  V30 5622 N 526.021 -0.110038 -6.92713 0
M  V30 5623 N 527.814 0.0849651 -5.62036 0
M  V30 5624 H 519.965 -0.973056 -1.888 0
M  V30 5625 H 522.228 -0.377781 -0.869474 0
M  V30 5626 H 521.934 -0.839019 -3.41546 0
M  V30 5627 H 521.808 0.893376 -3.66468 0
M  V30 5628 H 524.195 1.16578 -2.71097 0
M  V30 5629 H 524.276 -0.587857 -2.48954 0
M  V30 5630 H 523.92 -0.898715 -4.99886 0
M  V30 5631 H 523.85 0.87075 -5.19351 0
M  V30 5632 H 526.341 0.22327 -3.7724 0
M  V30 5633 H 526.654 -0.169104 -7.72615 0
M  V30 5634 H 524.999 -0.145132 -6.94848 0
M  V30 5635 H 528.19 0.192411 -4.67704 0
M  V30 5636 H 528.363 0.0137131 -6.47999 0
M  V30 5637 N 521.769 1.56035 0.221574 0
M  V30 5638 C 522.699 1.95434 1.2778 0
M  V30 5639 C 523.68 0.822564 1.48889 0
M  V30 5640 O 524.865 1.08486 1.61072 0
M  V30 5641 C 521.995 2.27102 2.62759 0
M  V30 5642 C 520.949 3.4277 2.56306 0
M  V30 5643 C 520.275 3.60043 3.95314 0
M  V30 5644 C 521.575 4.77742 2.11093 0
M  V30 5645 H 523.269 2.83912 0.950504 0
M  V30 5646 H 520.815 1.36596 0.455791 0
M  V30 5647 H 522.768 2.53256 3.36807 0
M  V30 5648 H 521.492 1.35478 2.97176 0
M  V30 5649 H 520.151 3.16664 1.84715 0
M  V30 5650 H 519.799 2.65794 4.27039 0
M  V30 5651 H 519.499 4.37841 3.91879 0
M  V30 5652 H 521.023 3.88545 4.71025 0
M  V30 5653 H 522.437 5.03102 2.74885 0
M  V30 5654 H 520.834 5.58823 2.18716 0
M  V30 5655 H 521.904 4.731 1.06321 0
M  V30 5656 N 523.247 -0.488276 1.49845 0
M  V30 5657 C 524.194 -1.58836 1.67451 0
M  V30 5658 C 525.164 -1.57886 0.515857 0
M  V30 5659 O 526.349 -1.75679 0.744403 0
M  V30 5660 C 523.489 -2.96915 1.75885 0
M  V30 5661 C 522.602 -3.07784 3.03138 0
M  V30 5662 C 521.737 -4.36673 3.02473 0
M  V30 5663 C 520.776 -4.41222 4.24252 0
M  V30 5664 N 519.913 -5.61557 4.21424 0
M  V30 5665 H 524.753 -1.43131 2.61376 0
M  V30 5666 H 522.29 -0.696186 1.29583 0
M  V30 5667 H 524.248 -3.76965 1.78755 0
M  V30 5668 H 522.878 -3.11295 0.85414 0
M  V30 5669 H 521.93 -2.20717 3.09819 0
M  V30 5670 H 523.242 -3.07005 3.93128 0
M  V30 5671 H 522.396 -5.25055 3.03977 0
M  V30 5672 H 521.135 -4.40037 2.10283 0
M  V30 5673 H 520.14 -3.5124 4.22978 0
M  V30 5674 H 521.365 -4.39564 5.17649 0
M  V30 5675 H 519.311 -5.65738 3.32078 0
M  V30 5676 H 519.228 -5.62447 5.05163 0
M  V30 5677 H 520.496 -6.52111 4.2705 0
M  V30 5678 N 524.725 -1.39134 -0.740242 0
M  V30 5679 C 525.635 -1.39697 -1.88473 0
M  V30 5680 C 526.651 -0.292403 -1.71526 0
M  V30 5681 O 527.827 -0.533021 -1.94219 0
M  V30 5682 C 524.892 -1.23382 -3.24003 0
M  V30 5683 C 523.953 -2.43763 -3.53381 0
M  V30 5684 C 523.186 -2.28216 -4.82445 0
M  V30 5685 O 523.409 -1.28288 -5.55786 0
M  V30 5686 O 522.343 -3.1709 -5.11603 0
M  V30 5687 H 526.169 -2.36159 -1.90952 0
M  V30 5688 H 523.754 -1.20194 -0.887346 0
M  V30 5689 H 525.636 -1.16395 -4.05006 0
M  V30 5690 H 524.311 -0.300121 -3.22306 0
M  V30 5691 H 523.218 -2.56325 -2.72485 0
M  V30 5692 H 524.551 -3.35808 -3.59852 0
M  V30 5693 N 526.204 0.969867 -1.24223 0
M  V30 5694 C 527.434 1.74502 -1.106 0
M  V30 5695 C 527.842 1.86038 0.344483 0
M  V30 5696 O 527.185 1.3465 1.24961 0
M  V30 5697 C 527.247 3.18391 -1.66935 0
M  V30 5698 C 526.911 3.30334 -3.15798 0
M  V30 5699 C 527.908 3.15832 -4.12973 0
M  V30 5700 C 525.593 3.54644 -3.55715 0
M  V30 5701 C 527.587 3.25461 -5.48045 0
M  V30 5702 C 525.274 3.63912 -4.90929 0
M  V30 5703 C 526.272 3.49332 -5.86904 0
M  V30 5704 O 525.96 3.58251 -7.1966 0
M  V30 5705 H 525.692 0.554119 -0.387206 0
M  V30 5706 H 528.246 1.22646 -1.64764 0
M  V30 5707 H 526.476 3.71543 -1.07203 0
M  V30 5708 H 528.165 3.77707 -1.48634 0
M  V30 5709 H 528.931 2.96937 -3.83476 0
M  V30 5710 H 524.81 3.65059 -2.81519 0
M  V30 5711 H 528.354 3.13998 -6.22937 0
M  V30 5712 H 524.251 3.82319 -5.20098 0
M  V30 5713 H 525.019 3.7498 -7.27552 0
M  V30 5714 N 527.682 1.05563 1.17022 0
M  V30 5715 C 528.612 0.681026 2.23348 0
M  V30 5716 C 529.593 -0.322983 1.67005 0
M  V30 5717 O 530.778 -0.199746 1.9317 0
M  V30 5718 C 527.908 0.0589053 3.4725 0
M  V30 5719 C 526.862 0.988082 4.16438 0
M  V30 5720 C 526.188 0.229646 5.34207 0
M  V30 5721 C 527.488 2.31388 4.68249 0
M  V30 5722 H 529.182 1.56993 2.54938 0
M  V30 5723 H 526.728 0.756302 1.2254 0
M  V30 5724 H 528.681 -0.214982 4.20851 0
M  V30 5725 H 527.405 -0.864968 3.14938 0
M  V30 5726 H 526.064 1.24659 3.44754 0
M  V30 5727 H 525.712 -0.697111 4.98146 0
M  V30 5728 H 525.412 0.848815 5.81437 0
M  V30 5729 H 526.936 -0.0368694 6.10589 0
M  V30 5730 H 528.35 2.09964 5.33468 0
M  V30 5731 H 526.747 2.88736 5.26072 0
M  V30 5732 H 527.817 2.94982 3.84855 0
M  V30 5733 N 529.16 -1.33526 0.837174 0
M  V30 5734 C 530.107 -2.29248 0.267169 0
M  V30 5735 C 531.077 -1.54252 -0.616071 0
M  V30 5736 O 532.262 -1.82559 -0.554699 0
M  V30 5737 C 529.402 -3.40638 -0.553152 0
M  V30 5738 C 528.515 -4.30548 0.353921 0
M  V30 5739 C 527.65 -5.29051 -0.477339 0
M  V30 5740 C 526.689 -6.106 0.42823 0
M  V30 5741 N 525.826 -7.01152 -0.364801 0
M  V30 5742 H 530.666 -2.77398 1.08877 0
M  V30 5743 H 528.203 -1.36496 0.54838 0
M  V30 5744 H 530.161 -4.03921 -1.04422 0
M  V30 5745 H 528.791 -2.93685 -1.33973 0
M  V30 5746 H 527.843 -3.68001 0.963289 0
M  V30 5747 H 529.155 -4.87631 1.04964 0
M  V30 5748 H 528.309 -5.97853 -1.0323 0
M  V30 5749 H 527.048 -4.72541 -1.2065 0
M  V30 5750 H 526.053 -5.40718 0.995219 0
M  V30 5751 H 527.278 -6.69193 1.15573 0
M  V30 5752 H 525.224 -6.47092 -1.07738 0
M  V30 5753 H 525.141 -7.5551 0.272238 0
M  V30 5754 H 526.409 -7.74263 -0.902054 0
M  V30 5755 N 530.638 -0.59345 -1.46 0
M  V30 5756 C 531.868 -0.0889642 -2.06408 0
M  V30 5757 C 532.276 1.22597 -1.44106 0
M  V30 5758 O 531.619 1.75448 -0.544398 0
M  V30 5759 C 531.681 0.139902 -3.59228 0
M  V30 5760 C 531.345 -1.09107 -4.43784 0
M  V30 5761 C 532.342 -2.00577 -4.79651 0
M  V30 5762 C 530.027 -1.31593 -4.84756 0
M  V30 5763 C 532.021 -3.12873 -5.55328 0
M  V30 5764 C 529.708 -2.44192 -5.60191 0
M  V30 5765 C 530.706 -3.34661 -5.95392 0
M  V30 5766 O 530.394 -4.45302 -6.69299 0
M  V30 5767 H 530.126 -0.0594613 -0.67338 0
M  V30 5768 H 532.68 -0.817 -1.88452 0
M  V30 5769 H 530.91 0.922672 -3.75531 0
M  V30 5770 H 532.599 0.594228 -4.01527 0
M  V30 5771 H 533.365 -1.84425 -4.48567 0
M  V30 5772 H 529.244 -0.620801 -4.56801 0
M  V30 5773 H 532.788 -3.83511 -5.82722 0
M  V30 5774 H 528.685 -2.60303 -5.90688 0
M  V30 5775 H 529.453 -4.43805 -6.87735 0
M  V30 5776 N 532.116 1.54067 -0.331816 0
M  V30 5777 C 533.341 2.05599 0.272705 0
M  V30 5778 C 533.766 1.2059 1.44359 0
M  V30 5779 O 533.124 0.216907 1.79998 0
M  V30 5780 C 533.172 3.54188 0.677021 0
M  V30 5781 O 532.276 3.72082 1.77844 0
M  V30 5782 H 531.617 0.662286 0.0476801 0
M  V30 5783 H 534.147 1.98826 -0.482624 0
M  V30 5784 H 534.157 3.96608 0.957415 0
M  V30 5785 H 532.832 4.15513 -0.179325 0
M  V30 5786 H 531.409 3.41566 1.49622 0
M  V30 5787 N 533.594 0.0601682 1.57485 0
M  V30 5788 C 534.541 -0.91112 2.12055 0
M  V30 5789 C 535.511 -1.30298 1.03013 0
M  V30 5790 O 536.696 -1.39087 1.30612 0
M  V30 5791 C 533.836 -2.1775 2.67729 0
M  V30 5792 C 532.949 -1.83933 3.90887 0
M  V30 5793 C 532.084 -3.05096 4.34845 0
M  V30 5794 C 531.123 -2.67241 5.5068 0
M  V30 5795 N 530.26 -3.81127 5.8965 0
M  V30 5796 H 535.1 -0.43888 2.9475 0
M  V30 5797 H 532.637 -0.204995 1.45665 0
M  V30 5798 H 534.595 -2.91866 2.98111 0
M  V30 5799 H 533.225 -2.62535 1.87816 0
M  V30 5800 H 532.277 -0.999287 3.6704 0
M  V30 5801 H 533.589 -1.52074 4.75052 0
M  V30 5802 H 532.743 -3.87502 4.66827 0
M  V30 5803 H 531.482 -3.40139 3.49509 0
M  V30 5804 H 530.487 -1.83254 5.18361 0
M  V30 5805 H 531.712 -2.3338 6.37738 0
M  V30 5806 H 529.658 -4.15954 5.07266 0
M  V30 5807 H 529.575 -3.52997 6.68528 0
M  V30 5808 H 530.843 -4.64145 6.2625 0
M  V30 5809 N 535.072 -1.5615 -0.213296 0
M  V30 5810 C 536.3 -1.83638 -0.953139 0
M  V30 5811 C 536.715 -0.640362 -1.77609 0
M  V30 5812 O 536.072 0.391071 -1.78261 0
M  V30 5813 C 536.123 -3.09735 -1.86405 0
M  V30 5814 O 535.844 -4.24723 -1.07435 0
M  V30 5815 C 537.345 -3.5027 -2.71709 0
M  V30 5816 H 534.565 -0.610263 -0.278962 0
M  V30 5817 H 537.109 -2.03247 -0.226035 0
M  V30 5818 H 535.264 -2.92077 -2.545 0
M  V30 5819 H 535.678 -4.9641 -1.69343 0
M  V30 5820 H 537.152 -4.41515 -3.31313 0
M  V30 5821 H 537.629 -2.72406 -3.44516 0
M  V30 5822 H 538.235 -3.70396 -2.09015 0
M  V30 5823 N 536.55 0.480323 -1.50102 0
M  V30 5824 C 537.513 1.56181 -1.6775 0
M  V30 5825 C 538.513 1.51156 -0.548503 0
M  V30 5826 O 539.703 1.5394 -0.815363 0
M  V30 5827 C 536.835 2.95823 -1.69415 0
M  V30 5828 H 538.028 1.41855 -2.6423 0
M  V30 5829 H 535.581 0.70605 -1.39444 0
M  V30 5830 H 536.316 3.15604 -0.745948 0
M  V30 5831 H 536.101 3.00878 -2.51425 0
M  V30 5832 H 537.591 3.74359 -1.85054 0
M  V30 5833 N 538.028 1.39524 0.732853 0
M  V30 5834 C 538.975 1.38416 1.84688 0
M  V30 5835 C 539.945 0.243539 1.64305 0
M  V30 5836 O 541.13 0.438979 1.85681 0
M  V30 5837 C 538.27 1.23555 3.22224 0
M  V30 5838 C 537.383 2.47179 3.54298 0
M  V30 5839 C 536.518 2.2489 4.81246 0
M  V30 5840 C 535.557 3.44178 5.0617 0
M  V30 5841 N 534.694 3.21192 6.24323 0
M  V30 5842 H 539.534 2.33645 1.84971 0
M  V30 5843 H 537.071 1.16059 0.903804 0
M  V30 5844 H 539.029 1.12949 4.0162 0
M  V30 5845 H 537.659 0.31954 3.21215 0
M  V30 5846 H 536.711 2.68379 2.69587 0
M  V30 5847 H 538.023 3.36022 3.68633 0
M  V30 5848 H 537.177 2.11538 5.68627 0
M  V30 5849 H 535.916 1.33443 4.69089 0
M  V30 5850 H 534.921 3.58025 4.17251 0
M  V30 5851 H 536.146 4.36528 5.20212 0
M  V30 5852 H 534.092 2.32413 6.1345 0
M  V30 5853 H 534.009 4.03594 6.39256 0
M  V30 5854 H 535.277 3.1154 7.14537 0
M  V30 5855 N 539.506 -0.963266 1.24736 0
M  V30 5856 C 540.736 -1.73913 1.11524 0
M  V30 5857 C 541.144 -1.86218 -0.334612 0
M  V30 5858 O 540.487 -1.3531 -1.24245 0
M  V30 5859 C 540.549 -3.17501 1.68622 0
M  V30 5860 C 540.213 -3.28655 3.17546 0
M  V30 5861 C 541.21 -3.13637 4.14642 0
M  V30 5862 C 538.895 -3.52753 3.5759 0
M  V30 5863 C 540.889 -3.2255 5.49764 0
M  V30 5864 C 538.576 -3.61303 4.92852 0
M  V30 5865 C 539.574 -3.46214 5.88748 0
M  V30 5866 O 539.262 -3.5443 7.2155 0
M  V30 5867 H 538.994 -0.552057 0.390139 0
M  V30 5868 H 541.548 -1.2177 1.65412 0
M  V30 5869 H 539.778 -3.70969 1.09172 0
M  V30 5870 H 541.467 -3.76914 1.50635 0
M  V30 5871 H 542.233 -2.94899 3.85045 0
M  V30 5872 H 538.112 -3.63561 2.83451 0
M  V30 5873 H 541.656 -3.1069 6.24594 0
M  V30 5874 H 537.553 -3.79556 5.22118 0
M  V30 5875 H 538.321 -3.71116 7.29531 0
M  V30 5876 N 540.985 -1.06182 -1.16461 0
M  V30 5877 C 542.232 -0.777863 -1.86964 0
M  V30 5878 C 542.56 0.695602 -1.81636 0
M  V30 5879 O 541.815 1.52532 -1.22607 0
M  V30 5880 C 542.114 -1.21633 -3.36066 0
M  V30 5881 C 541.78 -2.69371 -3.61594 0
M  V30 5882 C 540.442 -3.09727 -3.6827 0
M  V30 5883 C 542.794 -3.64791 -3.7226 0
M  V30 5884 C 540.122 -4.44345 -3.83112 0
M  V30 5885 C 542.474 -4.99155 -3.88623 0
M  V30 5886 C 541.138 -5.39149 -3.93541 0
M  V30 5887 H 540.408 -0.28464 -0.68415 0
M  V30 5888 H 543.055 -1.33071 -1.37711 0
M  V30 5889 H 541.36 -0.582651 -3.87443 0
M  V30 5890 H 543.057 -0.973682 -3.88999 0
M  V30 5891 H 539.647 -2.37124 -3.57029 0
M  V30 5892 H 543.831 -3.34746 -3.66413 0
M  V30 5893 H 539.087 -4.74819 -3.85172 0
M  V30 5894 H 543.261 -5.72976 -3.95817 0
M  V30 5895 H 540.888 -6.43464 -4.04794 0
M  V30 5896 N 542.463 1.3308 -0.844243 0
M  V30 5897 C 543.373 2.32876 -0.283922 0
M  V30 5898 C 544.389 1.63589 0.592846 0
M  V30 5899 O 545.565 1.95205 0.495693 0
M  V30 5900 C 542.63 3.42667 0.527283 0
M  V30 5901 C 541.691 4.27664 -0.374394 0
M  V30 5902 C 540.924 5.32212 0.39819 0
M  V30 5903 O 541.147 5.46635 1.62932 0
M  V30 5904 O 540.081 6.01458 -0.2306 0
M  V30 5905 H 543.907 2.82671 -1.11045 0
M  V30 5906 H 541.492 1.36518 -0.606903 0
M  V30 5907 H 543.374 4.09652 0.988078 0
M  V30 5908 H 542.049 2.95079 1.33078 0
M  V30 5909 H 540.956 3.63526 -0.883144 0
M  V30 5910 H 542.289 4.78749 -1.1428 0
M  V30 5911 N 543.941 0.601185 1.45683 0
M  V30 5912 C 544.889 -0.133955 2.32214 0
M  V30 5913 C 545.883 -0.866034 1.45589 0
M  V30 5914 O 547.089 -0.782326 1.6211 0
M  V30 5915 H 543.464 -0.0620613 0.749435 0
M  V30 5916 H 545.435 0.614389 2.92007 0
M  V30 5917 C 544.184 -1.12216 3.29094 0
M  V30 5918 H 543.507 -0.568273 3.95741 0
M  V30 5919 H 544.947 -1.60659 3.92383 0
M  V30 5920 C 543.406 -2.19251 2.55794 0
M  V30 5921 O 543.936 -3.26894 2.33459 0
M  V30 5922 N 542.142 -1.9436 2.16039 0
M  V30 5923 H 541.689 -1.06829 2.34404 0
M  V30 5924 H 541.647 -2.66181 1.67318 0
M  V30 5925 N 545.419 -1.53889 0.339982 0
M  V30 5926 C 546.351 -2.22435 -0.55275 0
M  V30 5927 C 547.364 -1.22975 -1.06681 0
M  V30 5928 O 548.553 -1.49351 -0.977575 0
M  V30 5929 C 545.653 -2.8882 -1.77302 0
M  V30 5930 C 544.826 -4.14563 -1.39486 0
M  V30 5931 C 543.885 -4.64391 -2.47442 0
M  V30 5932 O 542.911 -5.28687 -2.10899 0
M  V30 5933 N 544.113 -4.40015 -3.78639 0
M  V30 5934 H 546.878 -2.9968 0.0342669 0
M  V30 5935 H 544.439 -1.61068 0.16394 0
M  V30 5936 H 546.431 -3.19072 -2.48948 0
M  V30 5937 H 545.001 -2.15182 -2.26749 0
M  V30 5938 H 544.221 -3.90896 -0.509321 0
M  V30 5939 H 545.509 -4.96362 -1.11813 0
M  V30 5940 H 544.907 -3.88586 -4.11118 0
M  V30 5941 H 543.464 -4.74881 -4.46465 0
M  V30 5942 N 546.897 -0.0685191 -1.57451 0
M  V30 5943 C 547.844 0.899861 -2.12535 0
M  V30 5944 C 548.814 1.29749 -1.03703 0
M  V30 5945 O 549.999 1.38392 -1.31348 0
M  V30 5946 C 547.139 2.16328 -2.6888 0
M  V30 5947 C 546.252 1.81857 -3.91857 0
M  V30 5948 C 545.387 3.02786 -4.36457 0
M  V30 5949 C 544.426 2.64317 -5.5209 0
M  V30 5950 N 543.563 3.77994 -5.91663 0
M  V30 5951 H 548.403 0.423243 -2.94979 0
M  V30 5952 H 545.94 0.197268 -1.45771 0
M  V30 5953 H 547.898 2.90281 -2.99655 0
M  V30 5954 H 546.528 2.61536 -1.89206 0
M  V30 5955 H 545.58 0.979808 -3.67565 0
M  V30 5956 H 546.892 1.49553 -4.75852 0
M  V30 5957 H 546.046 3.85021 -4.68875 0
M  V30 5958 H 544.785 3.38281 -3.51308 0
M  V30 5959 H 543.79 1.80503 -5.19325 0
M  V30 5960 H 545.015 2.29995 -6.38967 0
M  V30 5961 H 542.961 4.13258 -5.09464 0
M  V30 5962 H 542.878 3.49447 -6.7039 0
M  V30 5963 H 544.146 4.60818 -6.28703 0
M  V30 5964 N 548.375 1.56261 0.205012 0
M  V30 5965 C 549.786 1.70056 0.770574 0
M  V30 5966 C 550.137 0.673398 1.84282 0
M  V30 5967 O 549.262 -0.172196 2.15714 0
M  V30 5968 C 549.857 3.08316 1.40451 0
M  V30 5969 C 548.416 3.2391 1.91727 0
M  V30 5970 C 547.563 2.66001 0.783516 0
M  V30 5971 H 550.514 1.58688 -0.019911 0
M  V30 5972 H 550.535 3.05094 2.27371 0
M  V30 5973 H 550.047 3.83053 0.623882 0
M  V30 5974 H 548.148 2.54072 2.7254 0
M  V30 5975 H 548.261 4.3131 2.08588 0
M  V30 5976 H 546.625 2.24915 1.19521 0
M  V30 5977 H 547.408 3.43297 0.0152883 0
M  V30 5978 N 549.853 -0.472356 1.50355 0
M  V30 5979 C 551.099 -1.22348 1.62488 0
M  V30 5980 C 551.454 -1.89711 0.320574 0
M  V30 5981 O 550.747 -1.79074 -0.68141 0
M  V30 5982 C 550.941 -2.29257 2.74182 0
M  V30 5983 C 550.77 -1.72383 4.15348 0
M  V30 5984 C 549.54 -1.52411 4.81766 0
M  V30 5985 C 551.738 -1.21949 4.99633 0
M  V30 5986 N 549.72 -0.907669 6.07153 0
M  V30 5987 C 551.091 -0.726191 6.15732 0
M  V30 5988 C 553.146 -1.10792 4.85417 0
M  V30 5989 C 551.849 -0.132322 7.19178 0
M  V30 5990 C 553.875 -0.52799 5.89038 0
M  V30 5991 C 553.237 -0.0450604 7.04386 0
M  V30 5992 H 549.336 -0.436631 0.648751 0
M  V30 5993 H 551.92 -0.525698 1.87469 0
M  V30 5994 H 550.091 -2.96464 2.50926 0
M  V30 5995 H 551.823 -2.9628 2.75681 0
M  V30 5996 H 548.578 -1.776 4.39039 0
M  V30 5997 H 549.002 -0.617897 6.74174 0
M  V30 5998 H 553.644 -1.46722 3.96525 0
M  V30 5999 H 551.362 0.239187 8.07746 0
M  V30 6000 H 554.948 -0.444046 5.80103 0
M  V30 6001 H 553.828 0.396659 7.83196 0
M  V30 6002 N 551.331 -1.39911 -0.725443 0
M  V30 6003 C 552.279 -1.39552 -1.86086 0
M  V30 6004 C 553.273 -0.277334 -1.67114 0
M  V30 6005 O 554.479 -0.447865 -1.74339 0
M  V30 6006 H 550.854 -0.435993 -0.612711 0
M  V30 6007 H 552.825 -2.35305 -1.83505 0
M  V30 6008 C 551.574 -1.26529 -3.2386 0
M  V30 6009 H 550.897 -2.11845 -3.3906 0
M  V30 6010 H 552.337 -1.30336 -4.03471 0
M  V30 6011 C 550.796 0.0254168 -3.3689 0
M  V30 6012 O 551.326 0.992048 -3.89257 0
M  V30 6013 N 549.532 0.0916528 -2.90455 0
M  V30 6014 H 549.079 -0.695675 -2.48028 0
M  V30 6015 H 549.037 0.954745 -2.99553 0
M  V30 6016 N 552.809 0.956637 -1.25245 0
M  V30 6017 C 554.058 1.69537 -1.0927 0
M  V30 6018 C 554.371 1.92136 0.366503 0
M  V30 6019 O 555.577 2.63687 0.64665 0
M  V30 6020 C 554.033 3.05211 -1.9072 0
M  V30 6021 C 553.641 2.90416 -3.41119 0
M  V30 6022 C 555.385 3.82882 -1.83308 0
M  V30 6023 C 553.292 4.21468 -4.14872 0
M  V30 6024 H 552.222 0.635804 -0.405302 0
M  V30 6025 H 554.873 1.06513 -1.49423 0
M  V30 6026 H 553.255 3.69128 -1.43389 0
M  V30 6027 H 554.429 2.35444 -3.9611 0
M  V30 6028 H 552.744 2.26203 -3.49602 0
M  V30 6029 H 555.341 4.79944 -2.35706 0
M  V30 6030 H 555.684 4.0853 -0.800572 0
M  V30 6031 H 556.217 3.25711 -2.28379 0
M  V30 6032 H 552.956 4.01009 -5.18529 0
M  V30 6033 H 552.476 4.76213 -3.64665 0
M  V30 6034 H 554.155 4.90022 -4.22478 0
M  V30 6035 N 554.287 1.06798 1.15896 0
M  V30 6036 C 555.698 0.811355 1.68149 0
M  V30 6037 C 556.049 -0.664339 1.8461 0
M  V30 6038 O 555.174 -1.51485 1.54535 0
M  V30 6039 C 555.769 1.46624 3.05429 0
M  V30 6040 C 554.328 1.25726 3.54781 0
M  V30 6041 C 553.475 1.53949 2.3064 0
M  V30 6042 H 556.426 1.23078 1.00187 0
M  V30 6043 H 556.447 0.88437 3.7008 0
M  V30 6044 H 555.959 2.54025 2.93416 0
M  V30 6045 H 554.06 0.20322 3.72045 0
M  V30 6046 H 554.173 1.97354 4.36564 0
M  V30 6047 H 552.537 0.96025 2.35905 0
M  V30 6048 H 553.32 2.6252 2.2122 0
M  V30 6049 N 555.766 -1.3263 0.851289 0
M  V30 6050 C 557.006 -1.99174 0.459266 0
M  V30 6051 C 557.37 -1.65913 -0.966273 0
M  V30 6052 O 558.571 -2.2552 -1.46267 0
M  V30 6053 C 556.842 -3.50721 0.687698 0
M  V30 6054 S 558.401 -4.37039 0.392746 0
M  V30 6055 H 555.219 -0.689832 0.172199 0
M  V30 6056 H 557.821 -1.61395 1.10327 0
M  V30 6057 H 556.525 -3.72417 1.72435 0
M  V30 6058 H 556.056 -3.93389 0.0299949 0
M  V30 6059 H 558.071 -4.8999 -0.782578 0
M  V30 6060 N 557.244 -0.608902 -1.45362 0
M  V30 6061 C 558.521 -0.0365378 -1.95566 0
M  V30 6062 C 558.901 1.43169 -1.55131 0
M  V30 6063 O 558.249 2.1349 -0.814513 0
M  V30 6064 C 558.459 -0.236026 -3.48201 0
M  V30 6065 C 559.807 -0.117518 -4.24437 0
M  V30 6066 O 560.831 -0.166217 -3.55812 0
M  V30 6067 O 559.69 -0.00372127 -5.465 0
M  V30 6068 H 556.784 0.0349874 -0.82626 0
M  V30 6069 H 559.33 -0.679055 -1.55521 0
M  V30 6070 H 558.102 -1.25569 -3.70605 0
M  V30 6071 H 557.725 0.441691 -3.95139 0
M  V30 6072 N 558.722 1.53707 -0.348139 0
M  V30 6073 C 559.971 2.0017 0.247992 0
M  V30 6074 C 560.284 1.23983 1.51286 0
M  V30 6075 O 561.49 1.60946 2.18652 0
M  V30 6076 C 559.946 3.56515 0.492459 0
M  V30 6077 C 559.554 4.41562 -0.756777 0
M  V30 6078 C 561.298 4.11381 1.0472 0
M  V30 6079 C 559.205 5.89426 -0.482856 0
M  V30 6080 H 558.135 0.747806 0.0964452 0
M  V30 6081 H 560.786 1.77532 -0.464179 0
M  V30 6082 H 559.168 3.75236 1.26545 0
M  V30 6083 H 560.342 4.34615 -1.53122 0
M  V30 6084 H 558.657 3.97711 -1.23348 0
M  V30 6085 H 561.254 5.19468 1.26717 0
M  V30 6086 H 561.597 3.64885 2.00411 0
M  V30 6087 H 562.13 3.96389 0.334801 0
M  V30 6088 H 558.869 6.40164 -1.40962 0
M  V30 6089 H 558.389 5.99264 0.253416 0
M  V30 6090 H 560.068 6.4692 -0.101816 0
M  V30 6091 N 560.2 0.0768682 1.57412 0
M  V30 6092 C 561.163 -0.873949 2.11884 0
M  V30 6093 C 562.163 -1.22301 1.04398 0
M  V30 6094 O 563.353 -1.15545 1.30365 0
M  V30 6095 C 560.485 -2.17575 2.62438 0
M  V30 6096 H 561.678 -0.401278 2.97203 0
M  V30 6097 H 559.231 -0.171904 1.55352 0
M  V30 6098 H 559.966 -2.69368 1.80587 0
M  V30 6099 H 559.751 -1.93534 3.41009 0
M  V30 6100 H 561.241 -2.85631 3.04639 0
M  V30 6101 N 561.678 -1.56367 -0.196722 0
M  V30 6102 C 562.925 -1.80529 -0.917366 0
M  V30 6103 C 563.253 -0.649817 -1.83324 0
M  V30 6104 O 562.508 0.36451 -1.92275 0
M  V30 6105 C 562.807 -3.10663 -1.767 0
M  V30 6106 C 562.473 -4.3962 -1.00225 0
M  V30 6107 C 561.135 -4.74653 -0.791095 0
M  V30 6108 C 563.487 -5.1913 -0.464035 0
M  V30 6109 C 560.815 -5.86692 -0.0302155 0
M  V30 6110 C 563.167 -6.31964 0.283625 0
M  V30 6111 C 561.831 -6.65581 0.505813 0
M  V30 6112 H 561.101 -0.660602 -0.335688 0
M  V30 6113 H 563.748 -1.90615 -0.183844 0
M  V30 6114 H 562.053 -2.95807 -2.56915 0
M  V30 6115 H 563.75 -3.26563 -2.32718 0
M  V30 6116 H 560.34 -4.12127 -1.17684 0
M  V30 6117 H 564.524 -4.9248 -0.614575 0
M  V30 6118 H 559.78 -6.11211 0.151917 0
M  V30 6119 H 563.954 -6.92791 0.708057 0
M  V30 6120 H 561.581 -7.52239 1.0973 0
M  V30 6121 N 563.156 0.464375 -1.50603 0
M  V30 6122 C 564.567 1.04507 -1.5471 0
M  V30 6123 C 564.918 1.9297 -0.354542 0
M  V30 6124 O 564.043 2.09763 0.531812 0
M  V30 6125 C 564.638 1.90207 -2.80369 0
M  V30 6126 C 563.197 2.43373 -2.87135 0
M  V30 6127 C 562.344 1.21886 -2.49076 0
M  V30 6128 H 565.295 0.246716 -1.56771 0
M  V30 6129 H 565.316 2.75353 -2.62604 0
M  V30 6130 H 564.828 1.25796 -3.67147 0
M  V30 6131 H 562.929 3.11318 -2.04724 0
M  V30 6132 H 563.042 2.7802 -3.90181 0
M  V30 6133 H 561.406 1.55575 -2.01664 0
M  V30 6134 H 562.189 0.591268 -3.3817 0
M  V30 6135 N 564.634 1.40294 0.718013 0
M  V30 6136 C 565.874 1.39888 1.49032 0
M  V30 6137 C 566.238 -0.000462935 1.92 0
M  V30 6138 O 567.439 -0.129622 2.68487 0
M  V30 6139 C 565.71 2.35868 2.68516 0
M  V30 6140 S 567.269 2.53799 3.57954 0
M  V30 6141 H 564.087 0.495849 0.509563 0
M  V30 6142 H 566.689 1.76541 0.839846 0
M  V30 6143 H 565.393 3.36375 2.35117 0
M  V30 6144 H 564.924 2.0049 3.38478 0
M  V30 6145 H 566.939 1.78859 4.62843 0
M  V30 6146 N 566.112 -0.949982 1.2575 0
M  V30 6147 C 567.075 -2.02894 1.06615 0
M  V30 6148 C 568.075 -1.60791 0.0173905 0
M  V30 6149 O 569.265 -1.72249 0.260003 0
M  V30 6150 C 566.397 -3.35219 0.619751 0
M  V30 6151 H 567.59 -2.21302 2.02399 0
M  V30 6152 H 565.143 -1.12772 1.08223 0
M  V30 6153 H 565.878 -3.22508 -0.340486 0
M  V30 6154 H 565.663 -3.67129 1.37692 0
M  V30 6155 H 567.153 -4.14505 0.507443 0
M  V30 6156 N 567.59 -1.07411 -1.15328 0
M  V30 6157 C 568.818 -0.818782 -1.90009 0
M  V30 6158 C 569.233 0.628072 -1.78047 0
M  V30 6159 O 568.59 1.43085 -1.13282 0
M  V30 6160 C 568.641 -1.21874 -3.40337 0
M  V30 6161 O 568.362 -2.60883 -3.51954 0
M  V30 6162 C 569.863 -0.992796 -4.3204 0
M  V30 6163 H 567.083 -0.296007 -0.60218 0
M  V30 6164 H 569.627 -1.43073 -1.46117 0
M  V30 6165 H 567.782 -0.651103 -3.81889 0
M  V30 6166 H 568.196 -2.77216 -4.45255 0
M  V30 6167 H 569.67 -1.32215 -5.35932 0
M  V30 6168 H 570.147 0.0708331 -4.39143 0
M  V30 6169 H 570.753 -1.54537 -3.9623 0
M  V30 6170 N 569.068 1.32177 -0.85831 0
M  V30 6171 C 570 2.27688 -0.262835 0
M  V30 6172 C 571.013 1.52588 0.567513 0
M  V30 6173 O 572.202 1.74156 0.391407 0
M  V30 6174 C 569.302 3.32668 0.646937 0
M  V30 6175 C 568.475 4.37148 -0.148372 0
M  V30 6176 C 567.534 5.21686 0.687728 0
M  V30 6177 O 566.56 5.69074 0.119934 0
M  V30 6178 N 567.762 5.44892 2.00182 0
M  V30 6179 H 570.527 2.79426 -1.08356 0
M  V30 6180 H 568.088 1.45076 -0.718647 0
M  V30 6181 H 570.08 3.86134 1.2117 0
M  V30 6182 H 568.65 2.81061 1.36834 0
M  V30 6183 H 567.87 3.83915 -0.894572 0
M  V30 6184 H 569.158 5.04038 -0.694514 0
M  V30 6185 H 568.556 5.08128 2.4864 0
M  V30 6186 H 567.113 6.0134 2.51463 0
M  V30 6187 N 570.547 0.616602 1.45037 0
M  V30 6188 C 571.495 -0.109318 2.32343 0
M  V30 6189 C 572.489 -0.850543 1.465 0
M  V30 6190 O 573.695 -0.765088 1.62931 0
M  V30 6191 H 570.07 -0.0541091 0.750051 0
M  V30 6192 H 572.041 0.645326 2.91338 0
M  V30 6193 C 570.79 -1.0872 3.30266 0
M  V30 6194 H 570.113 -0.526267 3.96321 0
M  V30 6195 H 571.553 -1.56489 3.94065 0
M  V30 6196 C 570.012 -2.16525 2.58105 0
M  V30 6197 O 570.542 -3.244 2.36913 0
M  V30 6198 N 568.748 -1.92057 2.18088 0
M  V30 6199 H 568.295 -1.04337 2.35524 0
M  V30 6200 H 568.253 -2.64391 1.70131 0
M  V30 6201 N 572.025 -1.5352 0.356285 0
M  V30 6202 C 572.935 -2.29151 -0.502712 0
M  V30 6203 C 573.951 -1.34753 -1.1008 0
M  V30 6204 O 575.127 -1.67803 -1.11374 0
M  V30 6205 C 572.192 -3.05911 -1.63154 0
M  V30 6206 C 571.253 -4.15958 -1.06194 0
M  V30 6207 C 570.486 -4.8905 -2.13696 0
M  V30 6208 O 570.709 -4.61919 -3.34645 0
M  V30 6209 O 569.643 -5.75202 -1.77275 0
M  V30 6210 H 573.469 -3.03492 0.112466 0
M  V30 6211 H 571.054 -1.4891 0.120942 0
M  V30 6212 H 572.936 -3.53874 -2.28804 0
M  V30 6213 H 571.611 -2.34415 -2.23229 0
M  V30 6214 H 570.518 -3.7227 -0.369603 0
M  V30 6215 H 571.851 -4.89593 -0.505872 0
M  V30 6216 N 573.503 -0.0852151 -1.57369 0
M  V30 6217 C 574.752 0.580443 -1.93168 0
M  V30 6218 C 575.065 1.6995 -0.968319 0
M  V30 6219 O 576.271 2.42564 -1.21963 0
M  V30 6220 C 574.727 1.08386 -3.43192 0
M  V30 6221 C 574.335 -0.00491388 -4.48 0
M  V30 6222 C 576.079 1.72281 -3.87968 0
M  V30 6223 C 573.986 0.513299 -5.89168 0
M  V30 6224 H 572.916 0.22059 -0.72101 0
M  V30 6225 H 575.567 -0.159621 -1.82804 0
M  V30 6226 H 573.949 1.8773 -3.48674 0
M  V30 6227 H 575.123 -0.780032 -4.5415 0
M  V30 6228 H 573.438 -0.548453 -4.12772 0
M  V30 6229 H 576.035 2.12108 -4.9083 0
M  V30 6230 H 576.378 2.58811 -3.26071 0
M  V30 6231 H 576.911 0.995359 -3.85146 0
M  V30 6232 H 573.65 -0.315153 -6.54742 0
M  V30 6233 H 573.17 1.25564 -5.8651 0
M  V30 6234 H 574.849 0.985433 -6.39451 0
M  V30 6235 N 574.981 1.5647 0.188427 0
M  V30 6236 C 575.929 1.95971 1.25293 0
M  V30 6237 C 576.923 0.846047 1.4676 0
M  V30 6238 O 578.129 1.03109 1.47542 0
M  V30 6239 H 574.504 0.623253 0.420784 0
M  V30 6240 H 576.475 2.84731 0.892792 0
M  V30 6241 C 575.224 2.32116 2.58877 0
M  V30 6242 H 574.547 3.17341 2.43176 0
M  V30 6243 H 575.987 2.63613 3.3209 0
M  V30 6244 C 574.446 1.15823 3.16365 0
M  V30 6245 O 574.976 0.436785 3.99318 0
M  V30 6246 N 573.182 0.933278 2.75206 0
M  V30 6247 H 572.729 1.52169 2.07852 0
M  V30 6248 H 572.687 0.156976 3.14008 0
M  V30 6249 N 576.459 -0.456382 1.50847 0
M  V30 6250 C 577.369 -1.57805 1.73594 0
M  V30 6251 C 578.385 -1.62599 0.619476 0
M  V30 6252 O 579.561 -1.80195 0.899532 0
M  V30 6253 C 576.626 -2.93926 1.8387 0
M  V30 6254 C 575.687 -2.99402 3.07663 0
M  V30 6255 C 574.92 -4.29031 3.1744 0
M  V30 6256 O 575.143 -5.20358 2.33631 0
M  V30 6257 O 574.077 -4.40401 4.10281 0
M  V30 6258 H 577.903 -1.41531 2.68705 0
M  V30 6259 H 575.488 -0.637422 1.3512 0
M  V30 6260 H 577.37 -3.74747 1.92725 0
M  V30 6261 H 576.045 -3.10368 0.91944 0
M  V30 6262 H 574.952 -2.17606 3.043 0
M  V30 6263 H 576.285 -2.87901 3.99216 0
M  V30 6264 N 577.937 -1.40673 -0.710563 0
M  V30 6265 C 578.885 -1.41517 -1.84596 0
M  V30 6266 C 579.879 -0.295043 -1.66811 0
M  V30 6267 O 581.085 -0.466331 -1.73854 0
M  V30 6268 H 577.46 -0.442467 -0.608052 0
M  V30 6269 H 579.431 -2.37238 -1.80999 0
M  V30 6270 C 578.18 -1.29957 -3.225 0
M  V30 6271 H 577.503 -2.15429 -3.36794 0
M  V30 6272 H 578.943 -1.34608 -4.02066 0
M  V30 6273 C 577.402 -0.0103164 -3.36898 0
M  V30 6274 O 577.932 0.950707 -3.90288 0
M  V30 6275 N 576.138 0.0608409 -2.90536 0
M  V30 6276 H 575.685 -0.721943 -2.47277 0
M  V30 6277 H 575.643 0.92292 -3.00549 0
M  V30 6278 N 579.415 0.9433 -1.26252 0
M  V30 6279 C 580.692 1.66639 -1.02424 0
M  V30 6280 C 581.072 2.06335 0.446006 0
M  V30 6281 O 580.42 1.78551 1.42589 0
M  V30 6282 C 580.63 2.88019 -1.97094 0
M  V30 6283 C 581.978 3.59718 -2.25584 0
M  V30 6284 O 583.002 2.9812 -1.94943 0
M  V30 6285 O 581.861 4.7066 -2.77743 0
M  V30 6286 H 578.955 0.729643 -0.389294 0
M  V30 6287 H 581.501 0.995218 -1.37454 0
M  V30 6288 H 580.273 2.5556 -2.96319 0
M  V30 6289 H 579.896 3.62863 -1.62532 0
M  V30 6290 N 580.893 1.08022 1.14757 0
M  V30 6291 C 581.856 0.71048 2.1791 0
M  V30 6292 C 582.856 -0.252731 1.58801 0
M  V30 6293 O 584.046 -0.0327915 1.74169 0
M  V30 6294 C 581.178 0.0483203 3.40866 0
M  V30 6295 H 582.371 1.62384 2.52134 0
M  V30 6296 H 579.924 0.877595 1.29337 0
M  V30 6297 H 580.659 -0.876959 3.12218 0
M  V30 6298 H 580.444 0.741189 3.85031 0
M  V30 6299 H 581.934 -0.195471 4.17142 0
M  V30 6300 N 582.371 -1.3172 0.865308 0
M  V30 6301 C 583.648 -1.91574 0.394789 0
M  V30 6302 C 584.028 -1.78769 -1.12271 0
M  V30 6303 O 583.376 -1.19245 -1.94918 0
M  V30 6304 C 583.586 -3.37957 0.870982 0
M  V30 6305 C 584.934 -4.15073 0.894384 0
M  V30 6306 O 585.958 -3.4672 0.816325 0
M  V30 6307 O 584.817 -5.37151 1.00651 0
M  V30 6308 H 581.911 -0.818649 0.117229 0
M  V30 6309 H 584.457 -1.4042 0.952913 0
M  V30 6310 H 583.229 -3.41269 1.91444 0
M  V30 6311 H 582.852 -3.96534 0.290907 0
M  V30 6312 N 583.85 -0.624285 -1.44708 0
M  V30 6313 C 584.779 0.0717025 -2.3339 0
M  V30 6314 C 585.76 0.841814 -1.47809 0
M  V30 6315 O 586.946 0.809056 -1.76544 0
M  V30 6316 C 584.076 1.05852 -3.30776 0
M  V30 6317 C 583.029 0.400503 -4.26122 0
M  V30 6318 C 582.356 1.49674 -5.13324 0
M  V30 6319 C 583.656 -0.688924 -5.17737 0
M  V30 6320 H 585.35 -0.668819 -2.91834 0
M  V30 6321 H 582.896 -0.32308 -1.40329 0
M  V30 6322 H 584.849 1.5541 -3.91696 0
M  V30 6323 H 583.572 1.82984 -2.70526 0
M  V30 6324 H 582.231 -0.0743687 -3.66525 0
M  V30 6325 H 581.88 2.25877 -4.49431 0
M  V30 6326 H 581.58 1.06188 -5.77926 0
M  V30 6327 H 583.104 1.99427 -5.77115 0
M  V30 6328 H 584.518 -0.276724 -5.72632 0
M  V30 6329 H 582.915 -1.04652 -5.90904 0
M  V30 6330 H 583.985 -1.55884 -4.5916 0
M  V30 6331 N 585.328 1.53329 -0.364422 0
M  V30 6332 C 586.575 2.01239 0.225634 0
M  V30 6333 C 586.903 1.25172 1.48869 0
M  V30 6334 O 586.158 0.333289 1.92841 0
M  V30 6335 C 586.457 3.52911 0.564661 0
M  V30 6336 C 586.123 4.46837 -0.603936 0
M  V30 6337 C 584.785 4.72234 -0.924585 0
M  V30 6338 C 587.137 5.02409 -1.38691 0
M  V30 6339 C 584.465 5.50454 -2.0302 0
M  V30 6340 C 586.817 5.81836 -2.48293 0
M  V30 6341 C 585.481 6.0552 -2.80894 0
M  V30 6342 H 584.751 0.736386 0.0825654 0
M  V30 6343 H 587.398 1.84948 -0.496645 0
M  V30 6344 H 585.703 3.67144 1.36794 0
M  V30 6345 H 587.4 3.87455 1.03344 0
M  V30 6346 H 583.99 4.27217 -0.343983 0
M  V30 6347 H 588.174 4.82735 -1.15243 0
M  V30 6348 H 583.43 5.67024 -2.28678 0
M  V30 6349 H 587.604 6.23905 -3.0938 0
M  V30 6350 H 585.231 6.65916 -3.66688 0
M  V30 6351 N 586.806 0.0935595 1.57322 0
M  V30 6352 C 588.055 -0.570191 1.93473 0
M  V30 6353 C 588.368 -1.69434 0.977318 0
M  V30 6354 O 589.574 -2.41914 1.23248 0
M  V30 6355 C 588.03 -1.06564 3.43762 0
M  V30 6356 C 587.638 0.0286723 4.47991 0
M  V30 6357 C 589.382 -1.70221 3.88877 0
M  V30 6358 C 587.289 -0.482046 5.89432 0
M  V30 6359 H 586.219 -0.216764 0.72217 0
M  V30 6360 H 588.87 0.169313 1.82717 0
M  V30 6361 H 587.252 -1.85878 3.49664 0
M  V30 6362 H 588.426 0.804106 4.5373 0
M  V30 6363 H 586.741 0.570336 4.12476 0
M  V30 6364 H 589.338 -2.09502 4.91948 0
M  V30 6365 H 589.681 -2.57078 3.27439 0
M  V30 6366 H 590.214 -0.974919 3.85668 0
M  V30 6367 H 586.953 0.349871 6.54566 0
M  V30 6368 H 586.473 -1.22452 5.87167 0
M  V30 6369 H 588.152 -0.951508 6.39965 0
M  V30 6370 N 588.284 -1.56567 -0.180126 0
M  V30 6371 C 589.216 -1.92275 -1.24751 0
M  V30 6372 C 590.229 -0.814922 -1.40936 0
M  V30 6373 O 591.418 -1.09336 -1.41095 0
M  V30 6374 C 588.518 -2.15265 -2.61752 0
M  V30 6375 C 587.691 -3.46467 -2.66981 0
M  V30 6376 C 586.75 -3.58391 -3.85283 0
M  V30 6377 O 585.776 -4.31086 -3.7169 0
M  V30 6378 N 586.978 -2.92587 -5.01371 0
M  V30 6379 H 589.743 -2.84435 -0.944302 0
M  V30 6380 H 587.304 -1.57617 -0.369952 0
M  V30 6381 H 589.296 -2.20515 -3.39345 0
M  V30 6382 H 587.866 -1.29533 -2.845 0
M  V30 6383 H 587.086 -3.52953 -1.75549 0
M  V30 6384 H 588.374 -4.32819 -2.67479 0
M  V30 6385 H 587.772 -2.3338 -5.15316 0
M  V30 6386 H 586.329 -3.03444 -5.76858 0
M  V30 6387 N 589.762 0.448376 -1.51087 0
M  V30 6388 C 590.71 1.56407 -1.72161 0
M  V30 6389 C 591.704 1.58878 -0.587721 0
M  V30 6390 O 592.91 1.62755 -0.768822 0
M  V30 6391 H 589.285 0.519423 -0.543786 0
M  V30 6392 H 591.256 1.35803 -2.65707 0
M  V30 6393 C 590.005 2.94163 -1.85373 0
M  V30 6394 H 589.328 2.9299 -2.72024 0
M  V30 6395 H 590.768 3.71625 -2.04135 0
M  V30 6396 C 589.227 3.31317 -0.610803 0
M  V30 6397 O 589.757 4.00985 0.239636 0
M  V30 6398 N 587.963 2.86966 -0.458127 0
M  V30 6399 H 587.51 2.30443 -1.15124 0
M  V30 6400 H 587.468 3.12188 0.372289 0
M  V30 6401 N 591.24 1.41047 0.703093 0
M  V30 6402 C 592.187 1.42302 1.81711 0
M  V30 6403 C 593.157 0.278336 1.63751 0
M  V30 6404 O 594.342 0.478266 1.84709 0
M  V30 6405 C 591.482 1.30362 3.19531 0
M  V30 6406 C 590.595 2.54638 3.48975 0
M  V30 6407 C 589.73 2.35047 4.76368 0
M  V30 6408 C 588.769 3.54837 4.98756 0
M  V30 6409 N 587.906 3.34363 6.1737 0
M  V30 6410 H 592.746 2.37516 1.79973 0
M  V30 6411 H 590.283 1.1795 0.878983 0
M  V30 6412 H 592.241 1.21443 3.99134 0
M  V30 6413 H 590.871 0.387602 3.20464 0
M  V30 6414 H 589.923 2.74037 2.63833 0
M  V30 6415 H 591.235 3.43766 3.61423 0
M  V30 6416 H 590.389 2.23552 5.64012 0
M  V30 6417 H 589.128 1.43363 4.66153 0
M  V30 6418 H 588.133 3.66795 4.09563 0
M  V30 6419 H 589.358 4.47464 5.10835 0
M  V30 6420 H 587.304 2.45373 6.08382 0
M  V30 6421 H 587.221 4.17063 6.30551 0
M  V30 6422 H 588.489 3.26626 7.07768 0
M  V30 6423 N 592.718 -0.936591 1.26751 0
M  V30 6424 C 593.958 -1.69796 1.13792 0
M  V30 6425 C 594.322 -1.89437 -0.312671 0
M  V30 6426 O 595.523 -2.62806 -0.564489 0
M  V30 6427 C 593.794 -3.03297 1.89065 0
M  V30 6428 S 595.353 -3.94461 1.92214 0
M  V30 6429 H 592.171 -0.583412 0.406389 0
M  V30 6430 H 594.773 -1.11575 1.60535 0
M  V30 6431 H 593.477 -2.86687 2.93665 0
M  V30 6432 H 593.008 -3.66575 1.42781 0
M  V30 6433 H 595.023 -4.85767 1.01215 0
M  V30 6434 N 594.196 -1.08629 -1.14182 0
M  V30 6435 C 595.143 -0.718299 -2.19338 0
M  V30 6436 C 596.113 0.296587 -1.63431 0
M  V30 6437 O 597.298 0.180079 -1.89948 0
M  V30 6438 C 594.438 -0.136203 -3.44831 0
M  V30 6439 C 593.551 -1.20414 -4.14879 0
M  V30 6440 C 592.686 -0.585666 -5.27962 0
M  V30 6441 C 591.725 -1.63548 -5.89846 0
M  V30 6442 N 590.862 -1.03864 -6.94375 0
M  V30 6443 H 595.702 -1.61932 -2.50164 0
M  V30 6444 H 593.239 -0.80919 -1.22844 0
M  V30 6445 H 595.197 0.219021 -4.16625 0
M  V30 6446 H 593.827 0.728121 -3.14481 0
M  V30 6447 H 592.879 -1.67676 -3.41451 0
M  V30 6448 H 594.191 -1.99959 -4.56966 0
M  V30 6449 H 593.345 -0.178818 -6.06436 0
M  V30 6450 H 592.084 0.24142 -4.87102 0
M  V30 6451 H 591.089 -2.05197 -5.10073 0
M  V30 6452 H 592.314 -2.46509 -6.3278 0
M  V30 6453 H 590.26 -0.232687 -6.55587 0
M  V30 6454 H 590.177 -1.77116 -7.3496 0
M  V30 6455 H 591.445 -0.657724 -7.7672 0
M  V30 6456 N 595.674 1.31259 -0.872281 0
M  V30 6457 C 596.607 2.26544 -0.274394 0
M  V30 6458 C 597.585 1.51213 0.597776 0
M  V30 6459 O 598.769 1.80277 0.550687 0
M  V30 6460 C 595.896 3.33139 0.611256 0
M  V30 6461 C 594.942 4.26077 -0.189876 0
M  V30 6462 S 595.775 5.11971 -1.56989 0
M  V30 6463 C 596.931 6.2208 -0.690427 0
M  V30 6464 H 597.164 2.76908 -1.0821 0
M  V30 6465 H 594.697 1.3906 -0.670939 0
M  V30 6466 H 596.655 3.95024 1.11654 0
M  V30 6467 H 595.316 2.81525 1.39294 0
M  V30 6468 H 594.509 5.01657 0.485433 0
M  V30 6469 H 594.111 3.68701 -0.627339 0
M  V30 6470 H 596.403 6.77429 0.098001 0
M  V30 6471 H 597.346 6.93768 -1.41742 0
M  V30 6472 H 597.754 5.63915 -0.256953 0
M  V30 6473 N 597.152 0.631951 1.44375 0
M  V30 6474 C 598.401 0.134214 2.01253 0
M  V30 6475 C 598.714 -1.25171 1.50305 0
M  V30 6476 O 599.92 -1.8435 1.99317 0
M  V30 6477 C 598.376 0.189187 3.59402 0
M  V30 6478 C 597.984 1.57647 4.19346 0
M  V30 6479 C 599.728 -0.252044 4.23751 0
M  V30 6480 C 597.635 1.58651 5.69722 0
M  V30 6481 H 596.565 0.0464101 0.75257 0
M  V30 6482 H 599.216 0.790868 1.65582 0
M  V30 6483 H 597.598 -0.534584 3.92375 0
M  V30 6484 H 598.772 2.32389 3.97909 0
M  V30 6485 H 597.087 1.96186 3.67288 0
M  V30 6486 H 599.684 -0.264084 5.34047 0
M  V30 6487 H 600.027 -1.27951 3.96149 0
M  V30 6488 H 600.56 0.41926 3.95584 0
M  V30 6489 H 597.299 2.59237 6.0206 0
M  V30 6490 H 596.819 0.882039 5.93279 0
M  V30 6491 H 598.498 1.32082 6.33375 0
M  V30 6492 N 598.631 -1.53133 0.372548 0
M  V30 6493 C 599.877 -2.01654 -0.215277 0
M  V30 6494 C 600.21 -1.25914 -1.47849 0
M  V30 6495 O 599.485 -0.3548 -1.91237 0
M  V30 6496 C 599.768 -3.56609 -0.500187 0
M  V30 6497 C 599.621 -4.43036 0.777145 0
M  V30 6498 C 600.94 -4.20528 -1.29786 0
M  V30 6499 H 598.059 -0.732991 -0.0767686 0
M  V30 6500 H 600.701 -1.83335 0.498814 0
M  V30 6501 H 598.851 -3.7235 -1.10852 0
M  V30 6502 H 600.523 -4.39079 1.41447 0
M  V30 6503 H 598.766 -4.10723 1.39604 0
M  V30 6504 H 599.437 -5.49424 0.532662 0
M  V30 6505 H 601.913 -4.08663 -0.783198 0
M  V30 6506 H 600.789 -5.28962 -1.46596 0
M  V30 6507 H 601.05 -3.77051 -2.30836 0
M  V30 6508 N 600.109 -0.101901 -1.5727 0
M  V30 6509 C 601.019 0.868647 -2.17926 0
M  V30 6510 C 602.035 1.30527 -1.1506 0
M  V30 6511 O 603.211 1.37178 -1.47459 0
M  V30 6512 C 600.276 2.10727 -2.75309 0
M  V30 6513 C 599.337 1.7242 -3.93154 0
M  V30 6514 C 598.57 2.90377 -4.47791 0
M  V30 6515 O 598.793 4.05305 -4.01353 0
M  V30 6516 O 597.727 2.6845 -5.38719 0
M  V30 6517 H 601.553 0.382544 -3.01281 0
M  V30 6518 H 599.138 0.122812 -1.48894 0
M  V30 6519 H 601.02 2.83303 -3.11958 0
M  V30 6520 H 599.695 2.58376 -1.94996 0
M  V30 6521 H 598.602 0.970039 -3.61305 0
M  V30 6522 H 599.935 1.29528 -4.74851 0
M  V30 6523 N 601.587 1.56661 0.17182 0
M  V30 6524 C 602.835 1.81606 0.886774 0
M  V30 6525 C 603.156 0.678818 1.82803 0
M  V30 6526 O 602.426 -0.301354 1.93568 0
M  V30 6527 H 601.006 0.669934 0.330451 0
M  V30 6528 H 603.668 1.94142 0.171757 0
M  V30 6529 H 602.764 2.75634 1.46398 0
M  V30 6530 N 603.065 -0.440357 1.51323 0
M  V30 6531 C 604.028 -1.51679 1.71832 0
M  V30 6532 C 605.028 -1.49648 0.588386 0
M  V30 6533 O 606.218 -1.51724 0.855891 0
M  V30 6534 C 603.35 -2.91228 1.77199 0
M  V30 6535 H 604.543 -1.34799 2.67898 0
M  V30 6536 H 602.096 -0.66883 1.41267 0
M  V30 6537 H 602.831 -3.13516 0.829363 0
M  V30 6538 H 602.616 -2.94107 2.59314 0
M  V30 6539 H 604.106 -3.69321 1.94915 0
M  V30 6540 N 604.543 -1.41418 -0.695603 0
M  V30 6541 C 605.491 -1.43467 -1.83084 0
M  V30 6542 C 606.485 -0.312719 -1.66489 0
M  V30 6543 O 607.691 -0.484744 -1.7335 0
M  V30 6544 H 604.066 -0.448891 -0.603325 0
M  V30 6545 H 606.037 -2.39144 -1.78473 0
M  V30 6546 C 604.786 -1.3337 -3.21104 0
M  V30 6547 H 604.109 -2.18989 -3.3449 0
M  V30 6548 H 605.549 -1.38865 -4.00615 0
M  V30 6549 C 604.008 -0.0460484 -3.36869 0
M  V30 6550 O 604.538 0.909258 -3.91274 0
M  V30 6551 N 602.744 0.0300222 -2.90584 0
M  V30 6552 H 602.291 -0.748129 -2.46497 0
M  V30 6553 H 602.249 0.890991 -3.01511 0
M  V30 6554 N 606.021 0.929856 -1.27246 0
M  V30 6555 C 606.954 2.03069 -1.04106 0
M  V30 6556 C 607.932 1.62556 0.0378417 0
M  V30 6557 O 609.116 1.88197 -0.106869 0
M  V30 6558 C 606.243 3.33718 -0.578778 0
M  V30 6559 C 605.289 3.93209 -1.65193 0
M  V30 6560 S 606.122 4.26068 -3.24386 0
M  V30 6561 C 607.278 5.598 -2.79954 0
M  V30 6562 H 607.511 2.22386 -1.97311 0
M  V30 6563 H 605.044 1.07269 -1.11053 0
M  V30 6564 H 607.002 4.09261 -0.31874 0
M  V30 6565 H 605.663 3.12328 0.333182 0
M  V30 6566 H 604.856 4.87482 -1.27973 0
M  V30 6567 H 604.458 3.24243 -1.86393 0
M  V30 6568 H 606.75 6.39004 -2.25123 0
M  V30 6569 H 607.693 6.01917 -3.72963 0
M  V30 6570 H 608.101 5.20219 -2.19164 0
M  V30 6571 N 607.499 1.09233 1.13605 0
M  V30 6572 C 608.91 0.846839 1.6639 0
M  V30 6573 C 609.261 -0.625031 1.85978 0
M  V30 6574 O 608.386 -1.48173 1.57714 0
M  V30 6575 C 608.981 1.5307 3.0225 0
M  V30 6576 C 607.54 1.33223 3.52035 0
M  V30 6577 C 606.687 1.58806 2.27323 0
M  V30 6578 H 609.638 1.25175 0.975541 0
M  V30 6579 H 609.659 0.96267 3.68121 0
M  V30 6580 H 609.171 2.60192 2.87961 0
M  V30 6581 H 607.272 0.282091 3.71531 0
M  V30 6582 H 607.385 2.0657 4.32279 0
M  V30 6583 H 605.749 1.01007 2.33815 0
M  V30 6584 H 606.532 2.67153 2.15602 0
M  V30 6585 N 608.977 -1.30795 0.87923 0
M  V30 6586 C 610.205 -2.00527 0.509548 0
M  V30 6587 C 610.62 -1.65944 -0.90045 0
M  V30 6588 O 609.977 -0.893525 -1.5913 0
M  V30 6589 C 610.028 -3.55276 0.667943 0
M  V30 6590 O 609.749 -3.88625 2.02242 0
M  V30 6591 C 611.25 -4.4228 0.300494 0
M  V30 6592 H 608.47 -0.641261 0.197549 0
M  V30 6593 H 611.014 -1.66813 1.18295 0
M  V30 6594 H 609.169 -3.87377 0.0419843 0
M  V30 6595 H 609.583 -4.83334 2.03688 0
M  V30 6596 H 611.057 -5.50061 0.462242 0
M  V30 6597 H 611.534 -4.32556 -0.76106 0
M  V30 6598 H 612.14 -4.15613 0.902536 0
M  V30 6599 N 610.455 -0.639598 -1.44038 0
M  V30 6600 C 611.405 0.0823038 -2.27851 0
M  V30 6601 C 612.389 0.807991 -1.39141 0
M  V30 6602 O 613.581 0.692702 -1.62882 0
M  V30 6603 C 610.71 1.05742 -3.26609 0
M  V30 6604 C 609.796 0.330911 -4.22807 0
M  V30 6605 N 610.187 -0.645126 -5.01669 0
M  V30 6606 C 608.485 0.574214 -4.42288 0
M  V30 6607 C 609.186 -1.07513 -5.71678 0
M  V30 6608 N 608.162 -0.412164 -5.42035 0
M  V30 6609 H 611.964 -0.666861 -2.86234 0
M  V30 6610 H 609.478 -0.465777 -1.55577 0
M  V30 6611 H 611.475 1.58927 -3.85419 0
M  V30 6612 H 610.135 1.80679 -2.69787 0
M  V30 6613 H 611.146 -1.02329 -5.0769 0
M  V30 6614 H 607.823 1.30581 -3.96554 0
M  V30 6615 H 609.213 -1.88196 -6.45005 0
M  V30 6616 N 611.933 1.52934 -0.380664 0
M  V30 6617 C 613.182 2.00651 0.205477 0
M  V30 6618 C 613.495 1.27164 1.48623 0
M  V30 6619 O 614.701 1.65547 2.15189 0
M  V30 6620 C 613.157 3.57479 0.416726 0
M  V30 6621 C 612.765 4.39857 -0.850268 0
M  V30 6622 C 614.509 4.13509 0.959702 0
M  V30 6623 C 612.416 5.88269 -0.607773 0
M  V30 6624 H 611.346 0.749684 0.0805614 0
M  V30 6625 H 613.997 1.76508 -0.501732 0
M  V30 6626 H 612.379 3.77836 1.18557 0
M  V30 6627 H 613.553 4.31269 -1.62307 0
M  V30 6628 H 611.868 3.95005 -1.31756 0
M  V30 6629 H 614.465 5.22039 1.15669 0
M  V30 6630 H 614.808 3.69054 1.92626 0
M  V30 6631 H 615.341 3.9701 0.250645 0
M  V30 6632 H 612.08 6.3703 -1.54509 0
M  V30 6633 H 611.6 5.99667 0.126247 0
M  V30 6634 H 613.279 6.46558 -0.239014 0
M  V30 6635 N 613.412 0.11024 1.57214 0
M  V30 6636 C 614.359 -0.843195 2.14846 0
M  V30 6637 C 615.329 -1.26954 1.07107 0
M  V30 6638 O 616.514 -1.34861 1.34971 0
M  V30 6639 C 613.654 -2.09123 2.74521 0
M  V30 6640 C 612.767 -1.71404 3.96541 0
M  V30 6641 C 611.902 -2.91107 4.44331 0
M  V30 6642 C 610.941 -2.49586 5.58903 0
M  V30 6643 N 610.078 -3.62175 6.01477 0
M  V30 6644 H 614.918 -0.344886 2.95998 0
M  V30 6645 H 612.455 -0.15855 1.46243 0
M  V30 6646 H 614.413 -2.82234 3.07246 0
M  V30 6647 H 613.043 -2.56427 1.96074 0
M  V30 6648 H 612.095 -0.88201 3.70033 0
M  V30 6649 H 613.407 -1.36884 4.7965 0
M  V30 6650 H 612.561 -3.72454 4.78919 0
M  V30 6651 H 611.3 -3.28848 3.60153 0
M  V30 6652 H 610.305 -1.6667 5.23929 0
M  V30 6653 H 611.53 -2.12973 6.4484 0
M  V30 6654 H 609.476 -3.99605 5.20242 0
M  V30 6655 H 609.393 -3.3155 6.79419 0
M  V30 6656 H 610.661 -4.43987 6.407 0
M  V30 6657 N 614.89 -1.56749 -0.16351 0
M  V30 6658 C 615.853 -1.96121 -1.18613 0
M  V30 6659 C 616.853 -0.845765 -1.36761 0
M  V30 6660 O 618.043 -1.11268 -1.34033 0
M  V30 6661 C 615.175 -2.26282 -2.54969 0
M  V30 6662 H 616.368 -2.87639 -0.848764 0
M  V30 6663 H 613.921 -1.50928 -0.406251 0
M  V30 6664 H 614.656 -1.37504 -2.93706 0
M  V30 6665 H 614.441 -3.07595 -2.43162 0
M  V30 6666 H 615.931 -2.57638 -3.28653 0
M  V30 6667 N 616.368 0.432326 -1.51554 0
M  V30 6668 C 617.298 1.53242 -1.76179 0
M  V30 6669 C 618.279 1.58717 -0.611801 0
M  V30 6670 O 619.464 1.74364 -0.855033 0
M  V30 6671 C 616.594 2.91278 -1.89141 0
M  V30 6672 C 615.548 3.00663 -3.04608 0
M  V30 6673 C 614.874 4.40728 -3.02759 0
M  V30 6674 C 616.174 2.74281 -4.44485 0
M  V30 6675 H 617.868 1.32886 -2.68294 0
M  V30 6676 H 615.414 0.637841 -1.29103 0
M  V30 6677 H 617.367 3.68203 -2.04951 0
M  V30 6678 H 616.091 3.12877 -0.936785 0
M  V30 6679 H 614.75 2.26179 -2.88511 0
M  V30 6680 H 614.398 4.59301 -2.05065 0
M  V30 6681 H 614.098 4.47936 -3.80299 0
M  V30 6682 H 615.622 5.19619 -3.20669 0
M  V30 6683 H 617.036 3.40936 -4.60907 0
M  V30 6684 H 615.433 2.92893 -5.23769 0
M  V30 6685 H 616.503 1.69856 -4.54177 0
M  V30 6686 N 617.846 1.41785 0.688094 0
M  V30 6687 C 618.796 1.40684 1.79421 0
M  V30 6688 C 619.78 0.280096 1.58443 0
M  V30 6689 O 620.972 0.521332 1.69148 0
M  V30 6690 C 618.101 1.29874 3.17785 0
M  V30 6691 C 617.187 2.47442 3.44432 0
M  V30 6692 N 617.578 3.72895 3.41736 0
M  V30 6693 C 615.876 2.41416 3.75013 0
M  V30 6694 C 616.577 4.50912 3.67496 0
M  V30 6695 N 615.553 3.81131 3.87608 0
M  V30 6696 H 619.355 2.35591 1.7571 0
M  V30 6697 H 616.869 1.35946 0.888393 0
M  V30 6698 H 618.866 1.27168 3.97031 0
M  V30 6699 H 617.526 0.359587 3.22703 0
M  V30 6700 H 618.537 4.05676 3.21943 0
M  V30 6701 H 615.214 1.56011 3.87256 0
M  V30 6702 H 616.604 5.59865 3.71484 0
M  V30 6703 N 619.324 -0.923095 1.27737 0
M  V30 6704 C 620.271 -2.02432 1.1086 0
M  V30 6705 C 621.241 -1.66098 0.00835195 0
M  V30 6706 O 622.426 -1.90027 0.171542 0
M  V30 6707 C 619.566 -3.36476 0.766671 0
M  V30 6708 C 618.679 -3.85737 1.94501 0
M  V30 6709 C 617.814 -5.08249 1.54455 0
M  V30 6710 C 616.853 -5.49818 2.6901 0
M  V30 6711 N 615.99 -6.63524 2.29521 0
M  V30 6712 H 620.83 -2.16201 2.05089 0
M  V30 6713 H 618.367 -1.05909 1.02087 0
M  V30 6714 H 620.325 -4.13569 0.549223 0
M  V30 6715 H 618.955 -3.22502 -0.13867 0
M  V30 6716 H 618.007 -3.04883 2.27487 0
M  V30 6717 H 619.319 -4.12513 2.80419 0
M  V30 6718 H 618.473 -5.92857 1.28862 0
M  V30 6719 H 617.212 -4.83261 0.656534 0
M  V30 6720 H 616.217 -4.63757 2.95313 0
M  V30 6721 H 617.442 -5.76799 3.5844 0
M  V30 6722 H 615.388 -6.40185 1.43177 0
M  V30 6723 H 615.305 -6.89978 3.08977 0
M  V30 6724 H 616.573 -7.51461 2.07187 0
M  V30 6725 N 620.802 -1.09834 -1.13024 0
M  V30 6726 C 621.732 -0.763451 -2.20666 0
M  V30 6727 C 622.713 0.260778 -1.68089 0
M  V30 6728 O 623.898 0.127915 -1.93778 0
M  V30 6729 C 621.028 -0.187744 -3.46792 0
M  V30 6730 C 619.982 -1.14196 -4.12484 0
M  V30 6731 C 619.308 -0.427755 -5.32986 0
M  V30 6732 C 620.608 -2.48607 -4.59338 0
M  V30 6733 H 622.302 -1.66347 -2.48936 0
M  V30 6734 H 619.848 -0.801261 -1.19649 0
M  V30 6735 H 621.801 0.0586375 -4.21359 0
M  V30 6736 H 620.525 0.747485 -3.17931 0
M  V30 6737 H 619.184 -1.37369 -3.3989 0
M  V30 6738 H 618.832 0.511747 -5.0039 0
M  V30 6739 H 618.532 -1.06403 -5.77886 0
M  V30 6740 H 620.056 -0.189772 -6.10305 0
M  V30 6741 H 621.47 -2.29618 -5.25308 0
M  V30 6742 H 619.867 -3.08062 -5.14993 0
M  V30 6743 H 620.937 -3.09062 -3.73642 0
M  V30 6744 N 622.28 1.30327 -0.886154 0
M  V30 6745 C 623.227 2.28099 -0.352069 0
M  V30 6746 C 624.197 1.56433 0.558397 0
M  V30 6747 O 625.382 1.84492 0.486561 0
M  V30 6748 C 622.522 3.42456 0.426346 0
M  V30 6749 C 621.635 4.28938 -0.513472 0
M  V30 6750 C 620.77 5.30458 0.280657 0
M  V30 6751 C 619.809 6.0859 -0.654556 0
M  V30 6752 N 618.946 7.02022 0.104322 0
M  V30 6753 H 623.786 2.73166 -1.19097 0
M  V30 6754 H 621.323 1.34367 -0.598662 0
M  V30 6755 H 623.281 4.07518 0.893587 0
M  V30 6756 H 621.911 2.98455 1.22981 0
M  V30 6757 H 620.963 3.64173 -1.09921 0
M  V30 6758 H 622.275 4.83399 -1.2299 0
M  V30 6759 H 621.429 6.01273 0.8097 0
M  V30 6760 H 620.168 4.76693 1.03029 0
M  V30 6761 H 619.173 5.36651 -1.19522 0
M  V30 6762 H 620.398 6.64443 -1.4033 0
M  V30 6763 H 618.344 6.50645 0.836472 0
M  V30 6764 H 618.261 7.53979 -0.552453 0
M  V30 6765 H 619.529 7.77077 0.614069 0
M  V30 6766 N 623.758 0.647228 1.43697 0
M  V30 6767 C 624.69 -0.0866232 2.29036 0
M  V30 6768 C 625.703 -0.793051 1.42178 0
M  V30 6769 O 626.892 -0.651807 1.66174 0
M  V30 6770 C 623.992 -1.14552 3.18953 0
M  V30 6771 C 623.165 -0.518422 4.34317 0
M  V30 6772 C 622.224 -1.4734 5.05151 0
M  V30 6773 O 621.25 -0.984312 5.60625 0
M  V30 6774 N 622.452 -2.8075 5.08094 0
M  V30 6775 H 625.217 0.645834 2.92659 0
M  V30 6776 H 622.778 0.489567 1.54321 0
M  V30 6777 H 624.77 -1.78505 3.63205 0
M  V30 6778 H 623.34 -1.78001 2.56971 0
M  V30 6779 H 622.56 0.300079 3.93056 0
M  V30 6780 H 623.848 -0.080401 5.08736 0
M  V30 6781 H 623.246 -3.23052 4.64386 0
M  V30 6782 H 621.803 -3.40022 5.56083 0
M  V30 6783 N 625.236 -1.5273 0.388769 0
M  V30 6784 C 626.184 -2.27975 -0.461527 0
M  V30 6785 C 627.178 -1.31854 -1.06352 0
M  V30 6786 O 628.384 -1.49394 -1.00406 0
M  V30 6787 H 624.759 -0.733088 -0.16759 0
M  V30 6788 H 626.73 -2.97765 0.194579 0
M  V30 6789 C 625.479 -3.09881 -1.577 0
M  V30 6790 H 624.802 -3.83701 -1.12309 0
M  V30 6791 H 626.242 -3.6567 -2.14619 0
M  V30 6792 C 624.701 -2.22159 -2.53272 0
M  V30 6793 O 625.231 -1.84802 -3.56667 0
M  V30 6794 N 623.437 -1.8633 -2.23001 0
M  V30 6795 H 622.984 -2.16909 -1.38954 0
M  V30 6796 H 622.942 -1.27927 -2.87197 0
M  V30 6797 N 626.714 -0.118576 -1.57153 0
M  V30 6798 C 627.662 0.849114 -2.16547 0
M  V30 6799 C 628.656 1.27567 -1.11458 0
M  V30 6800 O 629.862 1.24746 -1.29763 0
M  V30 6801 H 626.237 0.291935 -0.693021 0
M  V30 6802 H 628.208 0.323693 -2.96639 0
M  V30 6803 C 626.957 2.08951 -2.77912 0
M  V30 6804 H 626.28 1.77021 -3.58474 0
M  V30 6805 H 627.72 2.74666 -3.23008 0
M  V30 6806 C 626.179 2.87899 -1.74974 0
M  V30 6807 O 626.709 3.83268 -1.20285 0
M  V30 6808 N 624.915 2.51884 -1.44924 0
M  V30 6809 H 624.462 1.74397 -1.89587 0
M  V30 6810 H 624.42 3.05003 -0.762921 0
M  V30 6811 N 628.193 1.56834 0.155195 0
M  V30 6812 C 629.442 1.82088 0.867567 0
M  V30 6813 C 629.755 0.69849 1.82703 0
M  V30 6814 O 630.961 0.836407 2.58295 0
M  V30 6815 C 629.417 3.22707 1.59336 0
M  V30 6816 C 629.025 4.42859 0.676719 0
M  V30 6817 C 630.769 3.57242 2.293 0
M  V30 6818 C 628.676 5.74501 1.40367 0
M  V30 6819 H 627.606 0.679057 0.327715 0
M  V30 6820 H 630.257 1.83105 0.120351 0
M  V30 6821 H 628.639 3.16054 2.38591 0
M  V30 6822 H 629.813 4.60731 -0.0800196 0
M  V30 6823 H 628.128 4.16311 0.0859129 0
M  V30 6824 H 630.725 4.52847 2.84312 0
M  V30 6825 H 631.068 2.82901 3.05406 0
M  V30 6826 H 631.601 3.6552 1.56972 0
M  V30 6827 H 628.34 6.51915 0.684623 0
M  V30 6828 H 627.86 5.60579 2.13332 0
M  V30 6829 H 629.539 6.17016 1.94681 0
M  V30 6830 N 629.671 -0.424282 1.51781 0
M  V30 6831 C 630.92 -1.16961 1.64326 0
M  V30 6832 C 631.233 -1.92035 0.371749 0
M  V30 6833 O 632.439 -2.68873 0.37676 0
M  V30 6834 C 630.895 -2.12782 2.90262 0
M  V30 6835 C 630.503 -1.43295 4.24465 0
M  V30 6836 C 632.247 -2.87667 3.12166 0
M  V30 6837 C 630.154 -2.37676 5.41538 0
M  V30 6838 H 629.084 -0.440293 0.612093 0
M  V30 6839 H 631.735 -0.435431 1.78259 0
M  V30 6840 H 630.117 -2.8969 2.69992 0
M  V30 6841 H 631.291 -0.718564 4.55163 0
M  V30 6842 H 629.606 -0.805118 4.08542 0
M  V30 6843 H 632.203 -3.58395 3.96808 0
M  V30 6844 H 632.546 -3.49758 2.25776 0
M  V30 6845 H 633.079 -2.17863 3.32837 0
M  V30 6846 H 629.818 -1.80255 6.30229 0
M  V30 6847 H 629.338 -3.07132 5.15199 0
M  V30 6848 H 631.017 -2.98529 5.74012 0
M  V30 6849 N 631.149 -1.42148 -0.680565 0
M  V30 6850 C 632.079 -1.4796 -1.80638 0
M  V30 6851 C 633.06 -0.336728 -1.66734 0
M  V30 6852 O 634.245 -0.550247 -1.86242 0
M  V30 6853 C 631.375 -1.37569 -3.18892 0
M  V30 6854 C 630.329 -2.49823 -3.47524 0
M  V30 6855 C 629.655 -2.24491 -4.85291 0
M  V30 6856 C 630.955 -3.92144 -3.44994 0
M  V30 6857 H 632.649 -2.42184 -1.76032 0
M  V30 6858 H 630.195 -1.16566 -0.845481 0
M  V30 6859 H 632.148 -1.40243 -3.97379 0
M  V30 6860 H 630.872 -0.398357 -3.24162 0
M  V30 6861 H 629.531 -2.46455 -2.71395 0
M  V30 6862 H 629.179 -1.25066 -4.87204 0
M  V30 6863 H 628.879 -2.99722 -5.05411 0
M  V30 6864 H 630.403 -2.28906 -5.66069 0
M  V30 6865 H 631.817 -3.97145 -4.13459 0
M  V30 6866 H 630.214 -4.67179 -3.76648 0
M  V30 6867 H 631.284 -4.19225 -2.43676 0
M  V30 6868 N 632.627 0.916307 -1.28225 0
M  V30 6869 C 633.867 1.67964 -1.16479 0
M  V30 6870 C 634.231 1.8991 0.282494 0
M  V30 6871 O 635.432 2.63671 0.522607 0
M  V30 6872 C 633.703 3.00251 -1.93866 0
M  V30 6873 S 635.262 3.91353 -1.98465 0
M  V30 6874 H 632.08 0.576873 -0.415619 0
M  V30 6875 H 634.682 1.09006 -1.62289 0
M  V30 6876 H 633.386 2.81978 -2.98189 0
M  V30 6877 H 632.917 3.64257 -1.48595 0
M  V30 6878 H 634.932 4.84096 -1.0893 0
M  V30 6879 N 634.105 1.10431 1.1244 0
M  V30 6880 C 635.516 0.864439 1.65482 0
M  V30 6881 C 635.867 -0.60527 1.8663 0
M  V30 6882 O 634.992 -1.46492 1.59276 0
M  V30 6883 C 635.587 1.56267 3.0061 0
M  V30 6884 C 634.146 1.3695 3.50602 0
M  V30 6885 C 633.293 1.61209 2.25626 0
M  V30 6886 H 636.244 1.26203 0.962209 0
M  V30 6887 H 636.265 1.00166 3.67079 0
M  V30 6888 H 635.777 2.63231 2.85186 0
M  V30 6889 H 633.878 0.321481 3.71211 0
M  V30 6890 H 633.991 2.11143 4.30064 0
M  V30 6891 H 632.355 1.03482 2.32731 0
M  V30 6892 H 633.138 2.69425 2.12756 0
M  V30 6893 N 635.583 -1.29855 0.893053 0
M  V30 6894 C 636.808 -2.00512 0.530066 0
M  V30 6895 C 637.233 -1.66446 -0.876199 0
M  V30 6896 O 636.591 -0.885446 -1.58207 0
M  V30 6897 C 636.639 -3.53308 0.721505 0
M  V30 6898 O 635.743 -4.11764 -0.228994 0
M  V30 6899 H 635.084 -0.630617 0.207891 0
M  V30 6900 H 637.614 -1.6551 1.20282 0
M  V30 6901 H 637.624 -4.03206 0.623599 0
M  V30 6902 H 636.299 -3.77439 1.74678 0
M  V30 6903 H 634.876 -3.72805 -0.0841034 0
M  V30 6904 N 637.061 -0.65484 -1.43351 0
M  V30 6905 C 638.008 0.0357713 -2.30772 0
M  V30 6906 C 638.978 0.813035 -1.44841 0
M  V30 6907 O 640.163 0.789314 -1.73708 0
M  V30 6908 C 637.303 0.995084 -3.30442 0
M  V30 6909 C 636.416 0.21375 -4.31471 0
M  V30 6910 C 635.551 1.16701 -5.18222 0
M  V30 6911 C 634.59 0.376201 -6.10943 0
M  V30 6912 N 633.727 1.28113 -6.90313 0
M  V30 6913 H 638.567 -0.71559 -2.89281 0
M  V30 6914 H 636.104 -0.364645 -1.42509 0
M  V30 6915 H 638.062 1.5649 -3.86739 0
M  V30 6916 H 636.692 1.7133 -2.7358 0
M  V30 6917 H 635.744 -0.472377 -3.77456 0
M  V30 6918 H 637.056 -0.401103 -4.97185 0
M  V30 6919 H 636.21 1.8074 -5.79153 0
M  V30 6920 H 634.949 1.81577 -4.52638 0
M  V30 6921 H 633.954 -0.277534 -5.49099 0
M  V30 6922 H 635.179 -0.268178 -6.7857 0
M  V30 6923 H 633.125 1.91666 -6.27376 0
M  V30 6924 H 633.042 0.720879 -7.52555 0
M  V30 6925 H 634.31 1.90962 -7.55747 0
M  V30 6926 N 638.539 1.52521 -0.396863 0
M  V30 6927 C 639.502 2.2527 0.422604 0
M  V30 6928 C 640.502 1.27184 0.983913 0
M  V30 6929 O 641.692 1.51222 0.864723 0
M  V30 6930 C 638.824 3.01356 1.59365 0
M  V30 6931 H 640.017 2.99133 -0.214416 0
M  V30 6932 H 637.57 1.55587 -0.149128 0
M  V30 6933 H 638.305 2.31813 2.26789 0
M  V30 6934 H 638.09 3.73357 1.19779 0
M  V30 6935 H 639.58 3.56571 2.17363 0
M  V30 6936 N 640.017 0.126909 1.57088 0
M  V30 6937 C 640.98 -0.806097 2.14557 0
M  V30 6938 C 641.98 -1.18918 1.08236 0
M  V30 6939 O 643.17 -1.11339 1.33975 0
M  V30 6940 C 640.302 -2.09116 2.69227 0
M  V30 6941 H 641.495 -0.306522 2.98329 0
M  V30 6942 H 639.048 -0.122393 1.5582 0
M  V30 6943 H 639.783 -2.63486 1.89065 0
M  V30 6944 H 639.568 -1.82588 3.46993 0
M  V30 6945 H 641.058 -2.75794 3.13572 0
M  V30 6946 N 641.495 -1.56914 -0.146875 0
M  V30 6947 C 642.443 -1.99224 -1.20053 0
M  V30 6948 C 643.437 -0.884661 -1.44465 0
M  V30 6949 O 644.643 -1.06984 -1.44756 0
M  V30 6950 H 641.018 -0.634191 -0.404112 0
M  V30 6951 H 642.989 -2.86998 -0.816987 0
M  V30 6952 C 641.738 -2.38899 -2.52632 0
M  V30 6953 H 641.061 -3.23677 -2.34677 0
M  V30 6954 H 642.501 -2.72326 -3.24984 0
M  V30 6955 C 640.96 -1.2417 -3.13183 0
M  V30 6956 O 641.49 -0.542503 -3.9802 0
M  V30 6957 N 639.696 -1.00592 -2.72635 0
M  V30 6958 H 639.243 -1.57627 -2.03744 0
M  V30 6959 H 639.201 -0.240174 -3.13481 0
M  V30 6960 N 642.974 0.416227 -1.52004 0
M  V30 6961 C 643.937 1.48926 -1.74223 0
M  V30 6962 C 644.937 1.48693 -0.612119 0
M  V30 6963 O 646.127 1.50343 -0.879921 0
M  V30 6964 C 643.259 2.88372 -1.81809 0
M  V30 6965 H 644.452 1.3052 -2.70008 0
M  V30 6966 H 642.005 0.646271 -1.42313 0
M  V30 6967 H 642.74 3.12157 -0.879135 0
M  V30 6968 H 642.525 2.89944 -2.6396 0
M  V30 6969 H 644.015 3.66173 -2.00766 0
M  V30 6970 N 644.452 1.42507 0.673017 0
M  V30 6971 C 645.7 1.42789 1.43023 0
M  V30 6972 C 646.021 0.0459738 1.94946 0
M  V30 6973 O 645.291 -0.915765 1.73178 0
M  V30 6974 H 643.871 0.525657 0.530748 0
M  V30 6975 H 646.533 1.77944 0.795113 0
M  V30 6976 H 645.629 2.12872 2.28237 0
M  V30 6977 N 645.93 -0.909495 1.28709 0
M  V30 6978 C 647.178 -1.65577 1.15882 0
M  V30 6979 C 647.499 -1.928 -0.292108 0
M  V30 6980 O 646.769 -1.54716 -1.20166 0
M  V30 6981 H 645.349 -0.613714 0.425869 0
M  V30 6982 H 648.011 -1.09108 1.61498 0
M  V30 6983 H 647.107 -2.61634 1.70159 0
M  V30 6984 N 647.408 -1.11026 -1.11852 0
M  V30 6985 C 648.654 -0.857729 -1.83768 0
M  V30 6986 C 648.987 0.615143 -1.842 0
M  V30 6987 O 648.262 1.45391 -1.29196 0
M  V30 6988 C 648.545 -1.41453 -3.31154 0
M  V30 6989 C 648.398 -2.95471 -3.39142 0
M  V30 6990 C 649.717 -1.0619 -4.27097 0
M  V30 6991 H 646.836 -0.313044 -0.667212 0
M  V30 6992 H 649.478 -1.37443 -1.31185 0
M  V30 6993 H 647.628 -0.975052 -3.76065 0
M  V30 6994 H 649.3 -3.4799 -3.02821 0
M  V30 6995 H 647.543 -3.31759 -2.79497 0
M  V30 6996 H 648.214 -3.29515 -4.42859 0
M  V30 6997 H 650.69 -1.44122 -3.90344 0
M  V30 6998 H 649.566 -1.47832 -5.28618 0
M  V30 6999 H 649.827 0.0278912 -4.42091 0
M  V30 7000 N 648.886 1.2938 -0.899927 0
M  V30 7001 C 649.849 2.25983 -0.382677 0
M  V30 7002 C 650.849 1.53366 0.483259 0
M  V30 7003 O 652.039 1.71798 0.28828 0
M  V30 7004 C 649.171 3.37878 0.452915 0
M  V30 7005 H 650.364 2.73252 -1.23586 0
M  V30 7006 H 647.917 1.40825 -0.678088 0
M  V30 7007 H 648.652 2.95949 1.32608 0
M  V30 7008 H 648.437 3.91742 -0.167562 0
M  V30 7009 H 649.927 4.09746 0.806107 0
M  V30 7010 N 650.364 0.662433 1.43002 0
M  V30 7011 C 651.61 0.179857 2.02001 0
M  V30 7012 C 651.943 -1.20625 1.52195 0
M  V30 7013 O 651.218 -1.80726 0.718911 0
M  V30 7014 C 651.501 0.200845 3.59539 0
M  V30 7015 C 651.354 1.62153 4.19555 0
M  V30 7016 C 652.673 -0.457738 4.37713 0
M  V30 7017 H 649.792 0.0668305 0.733964 0
M  V30 7018 H 652.434 0.84487 1.70182 0
M  V30 7019 H 650.584 -0.365411 3.86778 0
M  V30 7020 H 652.256 2.23908 4.03315 0
M  V30 7021 H 650.499 2.16601 3.75854 0
M  V30 7022 H 651.17 1.58799 5.28665 0
M  V30 7023 H 653.646 0.0241495 4.16093 0
M  V30 7024 H 652.522 -0.412363 5.47349 0
M  V30 7025 H 652.783 -1.53336 4.14657 0
M  V30 7026 N 651.842 -1.52309 0.404946 0
M  V30 7027 C 653.067 -2.06666 -0.1743 0
M  V30 7028 C 653.492 -1.27341 -1.38441 0
M  V30 7029 O 652.85 -0.302539 -1.78758 0
M  V30 7030 C 652.898 -3.57014 -0.507262 0
M  V30 7031 O 652.002 -3.80144 -1.59889 0
M  V30 7032 H 651.343 -0.663807 -0.0160273 0
M  V30 7033 H 653.873 -1.96297 0.576937 0
M  V30 7034 H 653.883 -4.00724 -0.767098 0
M  V30 7035 H 652.558 -4.14184 0.377368 0
M  V30 7036 H 651.135 -3.48316 -1.33155 0
M  V30 7037 N 653.32 -0.135238 -1.57019 0
M  V30 7038 C 654.568 0.51777 -1.95355 0
M  V30 7039 C 654.889 1.6617 -1.02042 0
M  V30 7040 O 654.159 1.95738 -0.0797343 0
M  V30 7041 H 652.739 0.194264 -0.721298 0
M  V30 7042 H 655.401 -0.207983 -1.93787 0
M  V30 7043 H 654.497 0.901675 -2.98791 0
M  V30 7044 N 654.798 1.5699 0.138552 0
M  V30 7045 C 655.728 2.01933 1.17241 0
M  V30 7046 C 656.709 0.90033 1.44319 0
M  V30 7047 O 657.894 1.16872 1.55095 0
M  V30 7048 C 655.024 2.40711 2.50351 0
M  V30 7049 C 653.978 3.55874 2.37776 0
M  V30 7050 C 653.304 3.80491 3.75674 0
M  V30 7051 C 654.604 4.8826 1.85472 0
M  V30 7052 H 656.298 2.88551 0.798672 0
M  V30 7053 H 653.844 1.3882 0.382743 0
M  V30 7054 H 655.797 2.70754 3.22909 0
M  V30 7055 H 654.521 1.5104 2.89576 0
M  V30 7056 H 653.18 3.2601 1.67669 0
M  V30 7057 H 652.828 2.88057 4.12349 0
M  V30 7058 H 652.528 4.57998 3.68119 0
M  V30 7059 H 654.052 4.12967 4.49767 0
M  V30 7060 H 655.466 5.16965 2.4783 0
M  V30 7061 H 653.863 5.69631 1.88787 0
M  V30 7062 H 654.933 4.78071 0.810935 0
M  V30 7063 N 656.276 -0.40816 1.52223 0
M  V30 7064 C 657.186 -1.52202 1.78526 0
M  V30 7065 C 658.202 -1.60546 0.670892 0
M  V30 7066 O 659.378 -1.77242 0.956404 0
M  V30 7067 C 656.443 -2.87928 1.93128 0
M  V30 7068 C 655.504 -2.89463 3.17033 0
M  V30 7069 C 654.737 -4.18715 3.30929 0
M  V30 7070 O 654.96 -5.12662 2.50067 0
M  V30 7071 O 653.894 -4.27125 4.24084 0
M  V30 7072 H 657.72 -1.32911 2.73072 0
M  V30 7073 H 655.305 -0.594112 1.37079 0
M  V30 7074 H 657.187 -3.68426 2.04549 0
M  V30 7075 H 655.862 -3.07285 1.01772 0
M  V30 7076 H 654.769 -2.07815 3.11069 0
M  V30 7077 H 656.102 -2.75055 4.08174 0
M  V30 7078 N 657.755 -1.42862 -0.66545 0
M  V30 7079 C 658.688 -1.41509 -1.79026 0
M  V30 7080 C 659.666 -0.278106 -1.60204 0
M  V30 7081 O 660.85 -0.469792 -1.82552 0
M  V30 7082 C 657.977 -1.21494 -3.1616 0
M  V30 7083 C 657.023 -2.38308 -3.53711 0
M  V30 7084 S 657.856 -4.00852 -3.55075 0
M  V30 7085 C 659.012 -3.83197 -4.94885 0
M  V30 7086 H 659.245 -2.36691 -1.79902 0
M  V30 7087 H 656.778 -1.29746 -0.836977 0
M  V30 7088 H 658.736 -1.10633 -3.95311 0
M  V30 7089 H 657.397 -0.27881 -3.1286 0
M  V30 7090 H 656.59 -2.20076 -4.53412 0
M  V30 7091 H 656.192 -2.45732 -2.81943 0
M  V30 7092 H 658.484 -3.44765 -5.83218 0
M  V30 7093 H 659.427 -4.82607 -5.18166 0
M  V30 7094 H 659.835 -3.15884 -4.67843 0
M  V30 7095 N 659.233 0.902656 -1.29189 0
M  V30 7096 C 660.458 1.69167 -1.19989 0
M  V30 7097 C 660.883 1.86607 0.236495 0
M  V30 7098 O 660.241 1.38425 1.17082 0
M  V30 7099 C 660.289 3.05532 -1.91527 0
M  V30 7100 O 659.393 3.93621 -1.2303 0
M  V30 7101 H 658.734 0.517584 -0.415936 0
M  V30 7102 H 661.264 1.12785 -1.70706 0
M  V30 7103 H 661.274 3.55693 -1.99866 0
M  V30 7104 H 659.949 2.92156 -2.96003 0
M  V30 7105 H 658.526 3.52055 -1.22928 0
M  V30 7106 N 660.711 1.11618 1.11262 0
M  V30 7107 C 661.643 0.734015 2.17129 0
M  V30 7108 C 662.656 -0.235243 1.61091 0
M  V30 7109 O 663.845 -0.0178597 1.78491 0
M  V30 7110 C 660.945 0.0643682 3.38839 0
M  V30 7111 C 660.118 1.06092 4.24339 0
M  V30 7112 C 659.177 0.420482 5.24517 0
M  V30 7113 O 658.203 1.07495 5.58957 0
M  V30 7114 N 659.405 -0.815828 5.74739 0
M  V30 7115 H 662.17 1.64492 2.50524 0
M  V30 7116 H 659.731 1.00664 1.26801 0
M  V30 7117 H 661.723 -0.375851 4.02951 0
M  V30 7118 H 660.293 -0.749147 3.03491 0
M  V30 7119 H 659.513 1.67903 3.56654 0
M  V30 7120 H 660.801 1.73507 4.78302 0
M  V30 7121 H 660.199 -1.36668 5.48943 0
M  V30 7122 H 658.756 -1.199 6.40677 0
M  V30 7123 N 662.189 -1.289 0.906776 0
M  V30 7124 C 663.137 -2.29477 0.379873 0
M  V30 7125 C 664.131 -1.61068 -0.524747 0
M  V30 7126 O 665.337 -1.75344 -0.406765 0
M  V30 7127 H 661.712 -0.744742 0.10423 0
M  V30 7128 H 663.683 -2.71353 1.24137 0
M  V30 7129 C 662.432 -3.45713 -0.371154 0
M  V30 7130 H 661.755 -3.98551 0.315716 0
M  V30 7131 H 663.195 -4.18105 -0.704581 0
M  V30 7132 C 661.654 -2.9774 -1.57646 0
M  V30 7133 O 662.184 -2.99618 -2.67567 0
M  V30 7134 N 660.39 -2.53485 -1.42105 0
M  V30 7135 H 659.937 -2.52156 -0.526783 0
M  V30 7136 H 659.895 -2.21747 -2.22881 0
M  V30 7137 N 663.667 -0.670007 -1.42649 0
M  V30 7138 C 664.892 -0.196955 -2.06463 0
M  V30 7139 C 665.317 1.1352 -1.49983 0
M  V30 7140 O 664.675 1.705 -0.616397 0
M  V30 7141 C 664.723 -0.137381 -3.60338 0
M  V30 7142 O 663.827 0.895523 -4.02559 0
M  V30 7143 H 663.168 -0.102579 -0.656029 0
M  V30 7144 H 665.698 -0.917669 -1.82866 0
M  V30 7145 H 665.708 0.0403625 -4.0798 0
M  V30 7146 H 664.383 -1.10977 -4.0082 0
M  V30 7147 H 662.96 0.689209 -3.66476 0
M  V30 7148 N 665.145 1.52092 -0.413018 0
M  V30 7149 C 666.078 2.23613 0.455234 0
M  V30 7150 C 667.056 1.2459 1.04481 0
M  V30 7151 O 668.24 1.53653 1.09193 0
M  V30 7152 C 665.367 2.96775 1.63224 0
M  V30 7153 C 664.413 4.10261 1.16568 0
M  V30 7154 S 665.246 5.35348 0.127633 0
M  V30 7155 C 666.402 6.1204 1.30987 0
M  V30 7156 H 666.635 2.96911 -0.152042 0
M  V30 7157 H 664.168 1.53134 -0.197343 0
M  V30 7158 H 666.126 3.39532 2.30713 0
M  V30 7159 H 664.787 2.23113 2.21087 0
M  V30 7160 H 663.98 4.6064 2.04515 0
M  V30 7161 H 663.582 3.6964 0.569386 0
M  V30 7162 H 665.874 6.39651 2.23276 0
M  V30 7163 H 666.817 7.03022 0.846533 0
M  V30 7164 H 667.225 5.43161 1.53743 0
M  V30 7165 N 666.623 0.143563 1.56945 0
M  V30 7166 C 668.039 -0.212877 1.58174 0
M  V30 7167 C 668.239 -1.64926 1.15766 0
M  V30 7168 O 667.295 -2.37535 0.856361 0
M  V30 7169 C 668.608 0.0427573 3.0067 0
M  V30 7170 C 670.156 -0.0212221 3.12993 0
M  V30 7171 C 670.631 0.207036 4.57532 0
M  V30 7172 N 672.122 0.153845 4.62944 0
M  V30 7173 C 672.857 0.305018 5.72588 0
M  V30 7174 N 672.353 0.513722 6.90893 0
M  V30 7175 N 674.146 0.242862 5.61575 0
M  V30 7176 H 666.297 1.08148 1.82805 0
M  V30 7177 H 668.56 0.427831 0.84597 0
M  V30 7178 H 668.266 1.03672 3.36073 0
M  V30 7179 H 668.14 -0.678195 3.71053 0
M  V30 7180 H 670.527 -1.00574 2.77433 0
M  V30 7181 H 670.608 0.732004 2.45103 0
M  V30 7182 H 670.252 1.18863 4.93795 0
M  V30 7183 H 670.182 -0.566473 5.23544 0
M  V30 7184 H 672.673 -0.00294866 3.779 0
M  V30 7185 H 672.986 0.619273 7.70315 0
M  V30 7186 H 671.331 0.550001 6.9282 0
M  V30 7187 H 674.522 0.0806015 4.68031 0
M  V30 7188 H 674.695 0.364112 6.46976 0
M  V30 7189 N 668.101 -1.57061 -0.130224 0
M  V30 7190 C 669.031 -2.02552 -1.16168 0
M  V30 7191 C 670.012 -0.907971 -1.4384 0
M  V30 7192 O 671.197 -1.17693 -1.54473 0
M  V30 7193 C 668.327 -2.42035 -2.49071 0
M  V30 7194 C 667.281 -3.5713 -2.35886 0
M  V30 7195 C 666.607 -3.82478 -3.7365 0
M  V30 7196 C 667.907 -4.89236 -1.8288 0
M  V30 7197 H 669.601 -2.8897 -0.783359 0
M  V30 7198 H 667.147 -1.39021 -0.375376 0
M  V30 7199 H 669.1 -2.72462 -3.21469 0
M  V30 7200 H 667.824 -1.52573 -2.88771 0
M  V30 7201 H 666.483 -3.26895 -1.65938 0
M  V30 7202 H 666.131 -2.9024 -4.10816 0
M  V30 7203 H 665.831 -4.59944 -3.65685 0
M  V30 7204 H 667.355 -4.15347 -4.47571 0
M  V30 7205 H 668.769 -5.18272 -2.45085 0
M  V30 7206 H 667.166 -5.70624 -1.85763 0
M  V30 7207 H 668.236 -4.78494 -0.785571 0
M  V30 7208 N 669.579 0.400081 -1.52437 0
M  V30 7209 C 670.511 1.50729 -1.72666 0
M  V30 7210 C 671.524 1.51058 -0.607075 0
M  V30 7211 O 672.713 1.5516 -0.88248 0
M  V30 7212 C 669.813 2.89604 -1.76019 0
M  V30 7213 C 668.986 3.13365 -3.05157 0
M  V30 7214 C 668.045 4.32163 -3.00203 0
M  V30 7215 O 667.071 4.29004 -3.74092 0
M  V30 7216 N 668.273 5.3776 -2.18619 0
M  V30 7217 H 671.038 1.33767 -2.68191 0
M  V30 7218 H 668.599 0.58948 -1.50787 0
M  V30 7219 H 670.591 3.67159 -1.70225 0
M  V30 7220 H 669.161 2.99979 -0.879284 0
M  V30 7221 H 668.381 2.23774 -3.24529 0
M  V30 7222 H 669.669 3.26089 -3.90568 0
M  V30 7223 H 669.067 5.43177 -1.58035 0
M  V30 7224 H 667.624 6.14023 -2.18674 0
M  V30 7225 N 671.057 1.43213 0.657864 0
M  V30 7226 C 672.303 1.45795 1.41829 0
M  V30 7227 C 672.658 0.0792176 1.92237 0
M  V30 7228 O 671.951 -0.901406 1.69072 0
M  V30 7229 C 672.145 2.43143 2.61947 0
M  V30 7230 C 671.974 3.90345 2.23295 0
M  V30 7231 C 670.744 4.58749 2.11843 0
M  V30 7232 C 672.942 4.80308 1.83873 0
M  V30 7233 N 670.924 5.90898 1.66473 0
M  V30 7234 C 672.295 6.01693 1.49549 0
M  V30 7235 C 674.35 4.67609 1.71015 0
M  V30 7236 C 673.053 7.11792 1.03657 0
M  V30 7237 C 675.079 5.77707 1.26527 0
M  V30 7238 C 674.441 6.98215 0.931379 0
M  V30 7239 H 670.54 0.588628 0.514822 0
M  V30 7240 H 673.124 1.7936 0.7575 0
M  V30 7241 H 671.295 2.11612 3.25692 0
M  V30 7242 H 673.027 2.36193 3.28626 0
M  V30 7243 H 669.782 4.1319 2.31453 0
M  V30 7244 H 670.206 6.61034 1.46163 0
M  V30 7245 H 674.848 3.74902 1.95469 0
M  V30 7246 H 672.566 8.04332 0.779502 0
M  V30 7247 H 676.152 5.69899 1.17074 0
M  V30 7248 H 675.032 7.81959 0.592379 0
M  V30 7249 N 672.536 -0.895792 1.29666 0
M  V30 7250 C 673.764 -1.68001 1.20761 0
M  V30 7251 C 674.179 -1.87379 -0.231187 0
M  V30 7252 O 673.536 -1.41359 -1.15429 0
M  V30 7253 C 673.587 -3.06236 1.92098 0
M  V30 7254 O 673.308 -2.8774 3.30359 0
M  V30 7255 C 674.809 -4.00652 1.89717 0
M  V30 7256 H 672.029 -0.524591 0.418384 0
M  V30 7257 H 674.573 -1.11995 1.71106 0
M  V30 7258 H 672.728 -3.59007 1.45578 0
M  V30 7259 H 673.142 -3.75359 3.66342 0
M  V30 7260 H 674.616 -4.95051 2.44189 0
M  V30 7261 H 675.093 -4.30424 0.873595 0
M  V30 7262 H 675.699 -3.53815 2.35998 0
M  V30 7263 N 674.014 -1.12206 -1.10668 0
M  V30 7264 C 674.964 -0.75669 -2.15077 0
M  V30 7265 C 675.948 0.243154 -1.59052 0
M  V30 7266 O 677.14 0.0490268 -1.76932 0
M  V30 7267 C 674.269 -0.210303 -3.42655 0
M  V30 7268 C 673.355 -1.23829 -4.05619 0
M  V30 7269 N 673.746 -2.43513 -4.43323 0
M  V30 7270 C 672.044 -1.08309 -4.32649 0
M  V30 7271 C 672.745 -3.09138 -4.92756 0
M  V30 7272 N 671.721 -2.36593 -4.89413 0
M  V30 7273 H 675.523 -1.66747 -2.42018 0
M  V30 7274 H 673.037 -1.00248 -1.27765 0
M  V30 7275 H 675.034 0.0696287 -4.16842 0
M  V30 7276 H 673.694 0.694967 -3.17176 0
M  V30 7277 H 674.705 -2.80912 -4.35097 0
M  V30 7278 H 671.382 -0.234919 -4.16839 0
M  V30 7279 H 672.772 -4.11049 -5.31496 0
M  V30 7280 N 675.492 1.28418 -0.913599 0
M  V30 7281 C 676.424 2.26368 -0.359169 0
M  V30 7282 C 677.437 1.54858 0.502285 0
M  V30 7283 O 678.626 1.75659 0.31719 0
M  V30 7284 C 675.726 3.35112 0.50526 0
M  V30 7285 C 674.899 4.36126 -0.333648 0
M  V30 7286 C 673.958 5.24134 0.465845 0
M  V30 7287 O 672.984 5.6907 -0.121538 0
M  V30 7288 N 674.186 5.52892 1.76891 0
M  V30 7289 H 676.951 2.74579 -1.2011 0
M  V30 7290 H 674.512 1.41898 -0.779532 0
M  V30 7291 H 676.504 3.90926 1.04684 0
M  V30 7292 H 675.074 2.86611 1.2479 0
M  V30 7293 H 674.294 3.79776 -1.0566 0
M  V30 7294 H 675.582 5.00638 -0.907669 0
M  V30 7295 H 674.98 5.18217 2.26865 0
M  V30 7296 H 673.537 6.11464 2.25732 0
M  V30 7297 N 676.97 0.677563 1.42291 0
M  V30 7298 C 677.88 0.000962654 2.346 0
M  V30 7299 C 678.896 -0.785833 1.55244 0
M  V30 7300 O 680.072 -0.727523 1.87801 0
M  V30 7301 C 677.137 -0.936746 3.33805 0
M  V30 7302 C 676.198 -0.144173 4.29058 0
M  V30 7303 C 675.431 -1.03722 5.23524 0
M  V30 7304 O 675.654 -2.27675 5.22992 0
M  V30 7305 O 674.588 -0.496542 5.99848 0
M  V30 7306 H 678.414 0.761397 2.94001 0
M  V30 7307 H 675.999 0.43781 1.42841 0
M  V30 7308 H 677.881 -1.47497 3.94744 0
M  V30 7309 H 676.556 -1.67698 2.76874 0
M  V30 7310 H 675.463 0.438224 3.71524 0
M  V30 7311 H 676.796 0.55701 4.89038 0
M  V30 7312 N 678.448 -1.51871 0.421078 0
M  V30 7313 C 679.676 -2.06356 -0.14994 0
M  V30 7314 C 680.091 -1.29006 -1.37851 0
M  V30 7315 O 679.448 -0.345139 -1.79207 0
M  V30 7316 C 679.499 -3.58185 -0.488454 0
M  V30 7317 O 679.22 -4.32611 0.691341 0
M  V30 7318 C 680.721 -4.29129 -1.11191 0
M  V30 7319 H 677.941 -0.67083 -0.0151186 0
M  V30 7320 H 680.485 -1.95638 0.595476 0
M  V30 7321 H 678.64 -3.68871 -1.18376 0
M  V30 7322 H 679.054 -5.22927 0.405906 0
M  V30 7323 H 680.528 -5.36501 -1.29889 0
M  V30 7324 H 681.005 -3.86371 -2.0884 0
M  V30 7325 H 681.611 -4.22843 -0.456458 0
M  V30 7326 N 679.926 -0.151884 -1.56866 0
M  V30 7327 C 681.203 0.543328 -1.87902 0
M  V30 7328 C 681.583 1.82636 -1.05864 0
M  V30 7329 O 680.931 2.28028 -0.146868 0
M  V30 7330 C 681.141 0.804056 -3.39611 0
M  V30 7331 C 682.489 1.14267 -4.08935 0
M  V30 7332 O 683.513 0.893248 -3.44818 0
M  V30 7333 O 682.372 1.61229 -5.22176 0
M  V30 7334 H 679.466 0.277724 -0.778973 0
M  V30 7335 H 682.012 -0.188862 -1.68646 0
M  V30 7336 H 680.784 -0.103772 -3.91162 0
M  V30 7337 H 680.407 1.59025 -3.64413 0
M  V30 7338 N 681.404 1.57128 0.121893 0
M  V30 7339 C 682.337 1.95327 1.17995 0
M  V30 7340 C 683.315 0.822524 1.40262 0
M  V30 7341 O 684.499 1.08044 1.54463 0
M  V30 7342 C 681.626 2.24699 2.53432 0
M  V30 7343 C 680.672 3.47263 2.4761 0
M  V30 7344 S 681.505 4.99951 1.91857 0
M  V30 7345 C 682.661 5.32473 3.28973 0
M  V30 7346 H 682.894 2.84765 0.854182 0
M  V30 7347 H 680.427 1.50864 0.328534 0
M  V30 7348 H 682.385 2.423 3.31362 0
M  V30 7349 H 681.046 1.3588 2.83188 0
M  V30 7350 H 680.239 3.65171 3.4737 0
M  V30 7351 H 679.841 3.29034 1.778 0
M  V30 7352 H 682.133 5.27478 4.25175 0
M  V30 7353 H 683.076 6.33732 3.15895 0
M  V30 7354 H 683.484 4.59952 3.27268 0
M  V30 7355 N 682.882 -0.391992 1.52647 0
M  V30 7356 C 683.829 -1.47866 1.77213 0
M  V30 7357 C 684.799 -1.54286 0.615223 0
M  V30 7358 O 685.984 -1.7059 0.854622 0
M  V30 7359 C 683.124 -2.85129 1.94411 0
M  V30 7360 C 682.237 -2.87883 3.22098 0
M  V30 7361 C 681.372 -4.16553 3.29631 0
M  V30 7362 C 680.411 -4.13348 4.51453 0
M  V30 7363 N 679.548 -5.33619 4.56284 0
M  V30 7364 H 684.388 -1.26219 2.6995 0
M  V30 7365 H 681.925 -0.612367 1.33748 0
M  V30 7366 H 683.883 -3.64833 2.02367 0
M  V30 7367 H 682.513 -3.05232 1.05038 0
M  V30 7368 H 681.565 -2.00567 3.23229 0
M  V30 7369 H 682.877 -2.81382 4.11856 0
M  V30 7370 H 682.031 -5.0466 3.36753 0
M  V30 7371 H 680.77 -4.25773 2.37842 0
M  V30 7372 H 679.775 -3.23629 4.44459 0
M  V30 7373 H 681 -4.05754 5.44555 0
M  V30 7374 H 678.946 -5.43474 3.67385 0
M  V30 7375 H 678.863 -5.29182 5.3991 0
M  V30 7376 H 680.131 -6.23632 4.67657 0
M  V30 7377 N 684.36 -1.4356 -0.65026 0
M  V30 7378 C 685.29 -1.51758 -1.77459 0
M  V30 7379 C 686.271 -0.372019 -1.65982 0
M  V30 7380 O 687.456 -0.589627 -1.85033 0
M  V30 7381 C 684.586 -1.44302 -3.15902 0
M  V30 7382 C 683.54 -2.57138 -3.42146 0
M  V30 7383 C 682.866 -2.34735 -4.8042 0
M  V30 7384 C 684.166 -3.99373 -3.36598 0
M  V30 7385 H 685.86 -2.45863 -1.70855 0
M  V30 7386 H 683.406 -1.18333 -0.820566 0
M  V30 7387 H 685.359 -1.48641 -3.94314 0
M  V30 7388 H 684.083 -0.467026 -3.23244 0
M  V30 7389 H 682.742 -2.52157 -2.66106 0
M  V30 7390 H 682.39 -1.35372 -4.84441 0
M  V30 7391 H 682.09 -3.10375 -4.9894 0
M  V30 7392 H 683.614 -2.40862 -5.61086 0
M  V30 7393 H 685.028 -4.05826 -4.04942 0
M  V30 7394 H 683.425 -4.75063 -3.66654 0
M  V30 7395 H 684.495 -4.243 -2.34729 0
M  V30 7396 N 685.838 0.888903 -1.30139 0
M  V30 7397 C 686.77 1.99972 -1.11999 0
M  V30 7398 C 687.783 1.62673 -0.0643619 0
M  V30 7399 O 688.972 1.75788 -0.309983 0
M  V30 7400 C 686.072 3.31904 -0.685059 0
M  V30 7401 C 685.245 3.97665 -1.82158 0
M  V30 7402 C 684.304 5.07894 -1.37585 0
M  V30 7403 O 683.33 5.2974 -2.08241 0
M  V30 7404 N 684.532 5.7995 -0.252697 0
M  V30 7405 H 687.297 2.16085 -2.07671 0
M  V30 7406 H 684.858 1.06175 -1.22223 0
M  V30 7407 H 686.85 4.03005 -0.369964 0
M  V30 7408 H 685.42 3.12084 0.179507 0
M  V30 7409 H 684.64 3.19787 -2.305 0
M  V30 7410 H 685.928 4.3834 -2.58332 0
M  V30 7411 H 685.326 5.647 0.336141 0
M  V30 7412 H 683.883 6.518 0.00296813 0
M  V30 7413 N 687.317 1.12792 1.10072 0
M  V30 7414 C 688.265 0.794523 2.18609 0
M  V30 7415 C 689.259 -0.220271 1.67962 0
M  V30 7416 O 690.465 -0.0780938 1.79831 0
M  V30 7417 H 686.84 0.239123 0.712969 0
M  V30 7418 H 688.811 1.71823 2.43966 0
M  V30 7419 C 687.56 0.269548 3.46654 0
M  V30 7420 H 686.883 1.04171 3.8599 0
M  V30 7421 H 688.323 0.0746242 4.23934 0
M  V30 7422 C 686.782 -1.00333 3.21613 0
M  V30 7423 O 687.312 -2.08042 3.4363 0
M  V30 7424 N 685.518 -0.931763 2.75257 0
M  V30 7425 H 685.065 -0.0551197 2.57541 0
M  V30 7426 H 685.023 -1.78405 2.58881 0
M  V30 7427 N 688.795 -1.27931 0.920396 0
M  V30 7428 C 690.044 -1.93975 0.552867 0
M  V30 7429 C 690.357 -1.73193 -0.909035 0
M  V30 7430 O 691.563 -2.33515 -1.38502 0
M  V30 7431 C 690.019 -3.47463 0.937947 0
M  V30 7432 C 689.627 -3.77013 2.42003 0
M  V30 7433 C 691.371 -4.19628 0.64132 0
M  V30 7434 C 689.278 -5.23841 2.74489 0
M  V30 7435 H 688.208 -0.726146 0.203046 0
M  V30 7436 H 690.859 -1.45339 1.12022 0
M  V30 7437 H 689.241 -3.94867 0.299317 0
M  V30 7438 H 690.415 -3.40393 3.10595 0
M  V30 7439 H 688.73 -3.18035 2.6878 0
M  V30 7440 H 691.327 -5.27729 0.860622 0
M  V30 7441 H 691.67 -4.14164 -0.421168 0
M  V30 7442 H 692.203 -3.78022 1.23872 0
M  V30 7443 H 688.942 -5.34388 3.79618 0
M  V30 7444 H 688.462 -5.61634 2.1054 0
M  V30 7445 H 690.141 -5.91647 2.61845 0
M  V30 7446 N 690.273 -0.685099 -1.4193 0
M  V30 7447 C 691.206 0.0371639 -2.2817 0
M  V30 7448 C 692.184 0.798436 -1.41647 0
M  V30 7449 O 693.368 0.791428 -1.71081 0
M  V30 7450 C 690.495 1.05993 -3.21688 0
M  V30 7451 C 689.541 0.393043 -4.24685 0
M  V30 7452 S 690.374 -0.856921 -5.28599 0
M  V30 7453 C 691.53 0.164508 -6.25684 0
M  V30 7454 H 691.763 -0.694305 -2.89079 0
M  V30 7455 H 689.296 -0.474999 -1.46912 0
M  V30 7456 H 691.254 1.64489 -3.76103 0
M  V30 7457 H 689.915 1.7639 -2.59895 0
M  V30 7458 H 689.108 1.16513 -4.90348 0
M  V30 7459 H 688.71 -0.118589 -3.73812 0
M  V30 7460 H 691.002 1.02106 -6.69762 0
M  V30 7461 H 691.945 -0.457917 -7.06618 0
M  V30 7462 H 692.353 0.514596 -5.6215 0
M  V30 7463 N 691.751 1.51645 -0.429126 0
M  V30 7464 C 692.698 2.27542 0.386446 0
M  V30 7465 C 693.668 1.30786 1.02393 0
M  V30 7466 O 694.853 1.59678 1.0444 0
M  V30 7467 C 691.993 3.11457 1.48623 0
M  V30 7468 C 691.106 4.23196 0.867691 0
M  V30 7469 C 690.241 4.94435 1.94183 0
M  V30 7470 C 689.28 5.98108 1.30129 0
M  V30 7471 N 688.417 6.62786 2.31644 0
M  V30 7472 H 693.257 2.968 -0.267155 0
M  V30 7473 H 690.794 1.46397 -0.143591 0
M  V30 7474 H 692.752 3.58429 2.13506 0
M  V30 7475 H 691.382 2.44329 2.10957 0
M  V30 7476 H 690.434 3.80248 0.107373 0
M  V30 7477 H 691.746 4.97499 0.35997 0
M  V30 7478 H 690.9 5.44914 2.66747 0
M  V30 7479 H 689.639 4.19744 2.48326 0
M  V30 7480 H 688.644 5.4693 0.561082 0
M  V30 7481 H 689.869 6.74751 0.767303 0
M  V30 7482 H 687.815 5.90913 2.84883 0
M  V30 7483 H 687.732 7.32828 1.85741 0
M  V30 7484 H 689 7.17897 3.03717 0
M  V30 7485 N 693.229 0.160201 1.56784 0
M  V30 7486 C 694.454 -0.497373 2.01348 0
M  V30 7487 C 694.879 -1.56757 1.03966 0
M  V30 7488 O 694.237 -1.81292 0.0174455 0
M  V30 7489 C 694.285 -1.0628 3.44582 0
M  V30 7490 O 693.389 -2.17723 3.50244 0
M  V30 7491 H 692.73 -0.120295 0.653012 0
M  V30 7492 H 695.26 0.260821 2.02931 0
M  V30 7493 H 695.27 -1.38819 3.83658 0
M  V30 7494 H 693.945 -0.279166 4.14962 0
M  V30 7495 H 692.522 -1.86313 3.2302 0
M  V30 7496 N 694.707 -1.5719 -0.113559 0
M  V30 7497 C 695.956 -1.84325 -0.818984 0
M  V30 7498 C 696.269 -0.746685 -1.80787 0
M  V30 7499 O 697.475 -0.904596 -2.55987 0
M  V30 7500 C 695.931 -3.26818 -1.50724 0
M  V30 7501 C 695.539 -4.44498 -0.559065 0
M  V30 7502 C 697.283 -3.63196 -2.19748 0
M  V30 7503 C 695.19 -5.7802 -1.25086 0
M  V30 7504 H 694.12 -0.687507 -0.309596 0
M  V30 7505 H 696.771 -1.8336 -0.0717621 0
M  V30 7506 H 695.153 -3.22269 -2.30128 0
M  V30 7507 H 696.327 -4.60356 0.202146 0
M  V30 7508 H 694.642 -4.16393 0.024495 0
M  V30 7509 H 697.239 -4.60226 -2.72206 0
M  V30 7510 H 697.582 -2.90899 -2.97798 0
M  V30 7511 H 698.115 -3.69553 -1.47226 0
M  V30 7512 H 694.854 -6.53501 -0.511539 0
M  V30 7513 H 694.374 -5.66038 -1.98395 0
M  V30 7514 H 696.053 -6.2196 -1.78253 0
M  V30 7515 N 696.185 0.383891 -1.52853 0
M  V30 7516 C 697.415 1.14783 -1.7178 0
M  V30 7517 C 697.823 1.84055 -0.438211 0
M  V30 7518 O 697.166 1.73713 0.597465 0
M  V30 7519 C 697.228 2.23543 -2.81547 0
M  V30 7520 C 696.892 1.74195 -4.22499 0
M  V30 7521 C 697.889 1.21591 -5.05481 0
M  V30 7522 C 695.574 1.80262 -4.6884 0
M  V30 7523 C 697.568 0.757104 -6.32888 0
M  V30 7524 C 695.255 1.33993 -5.96229 0
M  V30 7525 C 696.253 0.818049 -6.78083 0
M  V30 7526 O 695.941 0.362123 -8.03084 0
M  V30 7527 H 695.673 0.349908 -0.578395 0
M  V30 7528 H 698.227 0.454377 -2.00311 0
M  V30 7529 H 696.457 2.96328 -2.48449 0
M  V30 7530 H 698.146 2.8519 -2.88828 0
M  V30 7531 H 698.912 1.16257 -4.7086 0
M  V30 7532 H 694.791 2.19825 -4.05213 0
M  V30 7533 H 698.335 0.34908 -6.96726 0
M  V30 7534 H 694.232 1.39015 -6.30353 0
M  V30 7535 H 695 0.483134 -8.17073 0
M  V30 7536 N 697.663 1.43903 0.642637 0
M  V30 7537 C 698.573 1.52349 1.78401 0
M  V30 7538 C 699.589 0.409869 1.69104 0
M  V30 7539 O 700.765 0.665548 1.90085 0
M  V30 7540 C 697.83 1.45408 3.14734 0
M  V30 7541 C 696.891 2.67528 3.35749 0
M  V30 7542 C 696.124 2.60909 4.65577 0
M  V30 7543 O 696.347 1.6627 5.45628 0
M  V30 7544 O 695.281 3.5158 4.88544 0
M  V30 7545 H 699.107 2.48752 1.7423 0
M  V30 7546 H 696.692 1.26021 0.802439 0
M  V30 7547 H 698.574 1.44019 3.96026 0
M  V30 7548 H 697.249 0.521437 3.19473 0
M  V30 7549 H 696.156 2.74487 2.5418 0
M  V30 7550 H 697.489 3.598 3.35864 0
M  V30 7551 N 699.141 -0.881989 1.30609 0
M  V30 7552 C 700.073 -1.99375 1.13058 0
M  V30 7553 C 701.086 -1.62636 0.0729879 0
M  V30 7554 O 702.275 -1.75621 0.319301 0
M  V30 7555 C 699.375 -3.31536 0.702651 0
M  V30 7556 C 698.548 -3.96693 1.84265 0
M  V30 7557 C 697.607 -5.07158 1.40277 0
M  V30 7558 O 696.633 -5.28628 2.11048 0
M  V30 7559 N 697.835 -5.79808 0.283449 0
M  V30 7560 H 700.6 -2.14981 2.08814 0
M  V30 7561 H 698.161 -1.05526 1.22784 0
M  V30 7562 H 700.153 -4.02804 0.391331 0
M  V30 7563 H 698.723 -3.12175 -0.162954 0
M  V30 7564 H 697.943 -3.1856 2.32192 0
M  V30 7565 H 699.231 -4.36964 2.60653 0
M  V30 7566 H 698.629 -5.64871 -0.306189 0
M  V30 7567 H 697.186 -6.51792 0.0315985 0
M  V30 7568 N 700.619 -1.13374 -1.09472 0
M  V30 7569 C 701.859 -0.905422 -1.83252 0
M  V30 7570 C 702.223 0.558396 -1.83701 0
M  V30 7571 O 703.424 0.904254 -2.53134 0
M  V30 7572 C 701.695 -1.47658 -3.25472 0
M  V30 7573 S 703.254 -1.38825 -4.16261 0
M  V30 7574 H 700.072 -0.326371 -0.631667 0
M  V30 7575 H 702.674 -1.44517 -1.31663 0
M  V30 7576 H 701.378 -2.53533 -3.22722 0
M  V30 7577 H 700.909 -0.934756 -3.82133 0
M  V30 7578 H 702.924 -0.366379 -4.94846 0
M  V30 7579 N 702.098 1.27442 -0.927168 0
M  V30 7580 C 703.048 2.24519 -0.396878 0
M  V30 7581 C 704.032 1.52981 0.498555 0
M  V30 7582 O 705.224 1.7378 0.336087 0
M  V30 7583 C 702.353 3.41514 0.349694 0
M  V30 7584 C 701.439 4.20357 -0.562226 0
M  V30 7585 N 701.83 4.7702 -1.68182 0
M  V30 7586 C 700.128 4.44503 -0.365135 0
M  V30 7587 C 700.829 5.36467 -2.24895 0
M  V30 7588 N 699.805 5.21371 -1.5386 0
M  V30 7589 H 703.607 2.65911 -1.25173 0
M  V30 7590 H 701.121 1.42366 -0.78138 0
M  V30 7591 H 703.118 4.10161 0.746536 0
M  V30 7592 H 701.778 3.01653 1.20148 0
M  V30 7593 H 702.789 4.74985 -2.06421 0
M  V30 7594 H 699.466 4.15111 0.446037 0
M  V30 7595 H 700.856 5.91264 -3.1915 0
M  V30 7596 N 703.576 0.692616 1.41565 0
M  V30 7597 C 704.524 0.0139952 2.32596 0
M  V30 7598 C 705.518 -0.771691 1.50802 0
M  V30 7599 O 706.724 -0.677646 1.66757 0
M  V30 7600 H 703.099 -0.0142745 0.751865 0
M  V30 7601 H 705.07 0.798851 2.87508 0
M  V30 7602 C 703.819 -0.910602 3.35564 0
M  V30 7603 H 703.142 -0.315446 3.98554 0
M  V30 7604 H 704.582 -1.3538 4.01806 0
M  V30 7605 C 703.041 -2.02539 2.6922 0
M  V30 7606 O 703.571 -3.11386 2.53775 0
M  V30 7607 N 701.777 -1.80227 2.27962 0
M  V30 7608 H 701.324 -0.917054 2.40724 0
M  V30 7609 H 701.282 -2.55001 1.83907 0
M  V30 7610 N 705.054 -1.51416 0.437162 0
M  V30 7611 C 706.282 -2.06503 -0.128045 0
M  V30 7612 C 706.697 -1.30461 -1.36475 0
M  V30 7613 O 706.054 -0.364127 -1.78831 0
M  V30 7614 C 706.105 -3.58683 -0.450437 0
M  V30 7615 O 705.826 -4.31853 0.737186 0
M  V30 7616 C 707.327 -4.30284 -1.06633 0
M  V30 7617 H 704.547 -0.670952 -0.00800269 0
M  V30 7618 H 707.091 -1.94996 0.616193 0
M  V30 7619 H 705.246 -3.70106 -1.14457 0
M  V30 7620 H 705.66 -5.22467 0.461347 0
M  V30 7621 H 707.134 -5.37848 -1.24191 0
M  V30 7622 H 707.611 -3.88564 -2.0473 0
M  V30 7623 H 708.217 -4.23304 -0.411585 0
M  V30 7624 N 706.532 -0.168513 -1.56696 0
M  V30 7625 C 707.757 0.486688 -2.01609 0
M  V30 7626 C 708.182 1.56203 -1.04796 0
M  V30 7627 O 707.54 1.8128 -0.0270596 0
M  V30 7628 C 707.588 1.04451 -3.45141 0
M  V30 7629 O 706.692 2.15862 -3.51393 0
M  V30 7630 H 706.033 0.116831 -0.653641 0
M  V30 7631 H 708.563 -0.271579 -2.0279 0
M  V30 7632 H 708.573 1.36782 -3.84389 0
M  V30 7633 H 707.248 0.257155 -4.15104 0
M  V30 7634 H 705.825 1.84597 -3.24004 0
M  V30 7635 N 708.01 1.57248 0.105221 0
M  V30 7636 C 708.957 2.01338 1.12835 0
M  V30 7637 C 709.927 0.887897 1.40377 0
M  V30 7638 O 711.112 1.15315 1.5201 0
M  V30 7639 C 708.252 2.43432 2.44611 0
M  V30 7640 C 707.365 3.69457 2.23888 0
M  V30 7641 C 706.5 4.00473 3.48991 0
M  V30 7642 C 705.539 5.19638 3.23485 0
M  V30 7643 N 704.676 5.46457 4.40828 0
M  V30 7644 H 709.516 2.88527 0.745386 0
M  V30 7645 H 707.053 1.42714 0.356535 0
M  V30 7646 H 709.011 2.65879 3.21503 0
M  V30 7647 H 707.641 1.59266 2.80774 0
M  V30 7648 H 706.693 3.54545 1.37847 0
M  V30 7649 H 708.005 4.56497 2.01026 0
M  V30 7650 H 707.159 4.23642 4.34295 0
M  V30 7651 H 705.898 3.11935 3.74897 0
M  V30 7652 H 704.903 4.96299 2.36574 0
M  V30 7653 H 706.128 6.09766 2.98935 0
M  V30 7654 H 704.074 4.60876 4.66829 0
M  V30 7655 H 703.991 6.27849 4.2112 0
M  V30 7656 H 705.259 5.74155 5.27225 0
M  V30 7657 N 709.488 -0.375779 1.53054 0
M  V30 7658 C 710.737 -1.11674 1.67964 0
M  V30 7659 C 711.05 -1.90755 0.432655 0
M  V30 7660 O 712.256 -2.67538 0.462109 0
M  V30 7661 C 710.712 -2.0344 2.96884 0
M  V30 7662 C 710.32 -1.29719 4.28809 0
M  V30 7663 C 712.064 -2.7759 3.2116 0
M  V30 7664 C 709.971 -2.20327 5.48826 0
M  V30 7665 H 708.901 -0.420597 0.625791 0
M  V30 7666 H 711.552 -0.378499 1.79554 0
M  V30 7667 H 709.934 -2.80953 2.79072 0
M  V30 7668 H 711.108 -0.573394 4.57219 0
M  V30 7669 H 709.423 -0.674735 4.10897 0
M  V30 7670 H 712.02 -3.4559 4.0801 0
M  V30 7671 H 712.363 -3.42399 2.36789 0
M  V30 7672 H 712.896 -2.07164 3.396 0
M  V30 7673 H 709.635 -1.60113 6.35645 0
M  V30 7674 H 709.155 -2.90585 5.2471 0
M  V30 7675 H 710.834 -2.80116 5.83219 0
M  V30 7676 N 710.966 -1.44241 -0.634997 0
M  V30 7677 C 712.196 -1.50078 -1.41987 0
M  V30 7678 C 712.604 -0.123072 -1.88799 0
M  V30 7679 O 711.947 0.880552 -1.6122 0
M  V30 7680 C 712.009 -2.40033 -2.67628 0
M  V30 7681 C 711.673 -3.87268 -2.42637 0
M  V30 7682 C 712.67 -4.77902 -2.04708 0
M  V30 7683 C 710.355 -4.31933 -2.56396 0
M  V30 7684 C 712.349 -6.11202 -1.80862 0
M  V30 7685 C 710.036 -5.65281 -2.32164 0
M  V30 7686 C 711.034 -6.54734 -1.94455 0
M  V30 7687 O 710.722 -7.85613 -1.7049 0
M  V30 7688 H 710.454 -0.51146 -0.442023 0
M  V30 7689 H 713.008 -1.89843 -0.784138 0
M  V30 7690 H 711.238 -1.95188 -3.33824 0
M  V30 7691 H 712.927 -2.36863 -3.29622 0
M  V30 7692 H 713.693 -4.44668 -1.93638 0
M  V30 7693 H 709.572 -3.62569 -2.84719 0
M  V30 7694 H 713.116 -6.80983 -1.51353 0
M  V30 7695 H 709.013 -5.98078 -2.42843 0
M  V30 7696 H 709.781 -7.97373 -1.84767 0
M  V30 7697 N 712.444 0.87505 -1.31075 0
M  V30 7698 C 713.374 1.99775 -1.20881 0
M  V30 7699 C 714.355 1.69822 -0.0971612 0
M  V30 7700 O 715.54 1.92158 -0.280895 0
M  V30 7701 C 712.67 3.35163 -0.910118 0
M  V30 7702 C 711.624 3.79406 -1.98078 0
M  V30 7703 C 710.95 5.12197 -1.53488 0
M  V30 7704 C 712.25 3.97061 -3.39323 0
M  V30 7705 H 713.944 2.08562 -2.14808 0
M  V30 7706 H 711.49 1.00207 -1.03415 0
M  V30 7707 H 713.443 4.13237 -0.825423 0
M  V30 7708 H 712.167 3.26536 0.064822 0
M  V30 7709 H 710.826 3.03568 -2.05528 0
M  V30 7710 H 710.474 5.00007 -0.547941 0
M  V30 7711 H 710.174 5.4277 -2.2511 0
M  V30 7712 H 711.698 5.92785 -1.46417 0
M  V30 7713 H 713.112 4.65545 -3.34576 0
M  V30 7714 H 711.509 4.39025 -4.09118 0
M  V30 7715 H 712.579 3.00601 -3.80483 0
M  V30 7716 N 713.922 1.13953 1.08869 0
M  V30 7717 C 714.87 0.817664 2.17754 0
M  V30 7718 C 715.864 -0.202444 1.68186 0
M  V30 7719 O 717.07 -0.0590159 1.79903 0
M  V30 7720 H 713.445 0.246671 0.710392 0
M  V30 7721 H 715.416 1.74401 2.4213 0
M  V30 7722 C 714.165 0.3063 3.46348 0
M  V30 7723 H 713.488 1.08259 3.84864 0
M  V30 7724 H 714.928 0.119584 4.23831 0
M  V30 7725 C 713.387 -0.969158 3.22659 0
M  V30 7726 O 713.917 -2.04386 3.45817 0
M  V30 7727 N 712.123 -0.902516 2.7623 0
M  V30 7728 H 711.67 -0.027801 2.57585 0
M  V30 7729 H 711.628 -1.75649 2.60758 0
M  V30 7730 N 715.4 -1.26948 0.933913 0
M  V30 7731 C 716.31 -2.30366 0.443671 0
M  V30 7732 C 717.326 -1.67284 -0.478745 0
M  V30 7733 O 718.502 -1.98156 -0.360043 0
M  V30 7734 C 715.567 -3.45485 -0.289974 0
M  V30 7735 C 714.628 -4.24069 0.668114 0
M  V30 7736 C 713.861 -5.33691 -0.0306138 0
M  V30 7737 O 714.084 -5.5656 -1.24888 0
M  V30 7738 O 713.018 -5.98441 0.644384 0
M  V30 7739 H 716.844 -2.74349 1.30254 0
M  V30 7740 H 714.429 -1.32012 0.699506 0
M  V30 7741 H 716.311 -4.15486 -0.70353 0
M  V30 7742 H 714.986 -3.03546 -1.12435 0
M  V30 7743 H 713.893 -3.56579 1.13147 0
M  V30 7744 H 715.226 -4.69739 1.46989 0
M  V30 7745 N 716.879 -0.700114 -1.41195 0
M  V30 7746 C 718.104 -0.240704 -2.05998 0
M  V30 7747 C 718.529 1.10313 -1.52357 0
M  V30 7748 O 717.887 1.69154 -0.652424 0
M  V30 7749 C 717.935 -0.213783 -3.59966 0
M  V30 7750 O 717.039 0.809933 -4.04368 0
M  V30 7751 H 716.38 -0.116471 -0.653705 0
M  V30 7752 H 718.91 -0.956251 -1.80878 0
M  V30 7753 H 718.92 -0.0461852 -4.07974 0
M  V30 7754 H 717.595 -1.19454 -3.98376 0
M  V30 7755 H 716.172 0.611319 -3.67855 0
M  V30 7756 N 718.357 1.51182 -0.445186 0
M  V30 7757 C 719.634 1.9478 0.178965 0
M  V30 7758 C 720.014 1.38428 1.59376 0
M  V30 7759 O 719.362 0.574552 2.21159 0
M  V30 7760 C 719.572 3.48683 0.148711 0
M  V30 7761 C 720.92 4.23152 0.35042 0
M  V30 7762 O 721.944 3.55479 0.226474 0
M  V30 7763 O 720.803 5.4322 0.597893 0
M  V30 7764 H 717.897 0.817387 0.12573 0
M  V30 7765 H 720.443 1.62051 -0.503729 0
M  V30 7766 H 719.215 3.82176 -0.84009 0
M  V30 7767 H 718.838 3.87875 0.873979 0
M  V30 7768 N 719.835 0.176821 1.56605 0
M  V30 7769 C 720.765 -0.746841 2.21234 0
M  V30 7770 C 721.746 -1.23502 1.16967 0
M  V30 7771 O 722.931 -1.28718 1.45414 0
M  V30 7772 C 720.061 -1.97407 2.8574 0
M  V30 7773 C 719.015 -1.62153 3.96094 0
M  V30 7774 C 718.341 -2.92387 4.47676 0
M  V30 7775 C 719.641 -0.845353 5.15413 0
M  V30 7776 H 721.335 -0.208116 2.98676 0
M  V30 7777 H 718.881 -0.0986594 1.43662 0
M  V30 7778 H 720.834 -2.62531 3.2963 0
M  V30 7779 H 719.558 -2.53703 2.05676 0
M  V30 7780 H 718.217 -0.993964 3.52868 0
M  V30 7781 H 717.865 -3.46734 3.64396 0
M  V30 7782 H 717.565 -2.69551 5.22127 0
M  V30 7783 H 719.089 -3.5853 4.94255 0
M  V30 7784 H 720.503 -1.39929 5.55961 0
M  V30 7785 H 718.9 -0.715814 5.95815 0
M  V30 7786 H 719.97 0.157239 4.84645 0
M  V30 7787 N 721.313 -1.57302 -0.09688 0
M  V30 7788 C 722.559 -1.86273 -0.801885 0
M  V30 7789 C 722.892 -0.765694 -1.78468 0
M  V30 7790 O 722.167 0.226495 -1.93177 0
M  V30 7791 C 722.45 -3.25876 -1.53221 0
M  V30 7792 C 722.303 -4.46205 -0.567529 0
M  V30 7793 C 723.622 -3.63352 -2.48321 0
M  V30 7794 H 720.741 -0.67752 -0.29006 0
M  V30 7795 H 723.383 -1.89887 -0.0655577 0
M  V30 7796 H 721.533 -3.22926 -2.15988 0
M  V30 7797 H 723.205 -4.6127 0.0529982 0
M  V30 7798 H 721.448 -4.33636 0.119233 0
M  V30 7799 H 722.119 -5.40608 -1.11564 0
M  V30 7800 H 724.595 -3.67234 -1.95648 0
M  V30 7801 H 723.471 -4.61968 -2.9644 0
M  V30 7802 H 723.732 -2.91941 -3.31998 0
M  V30 7803 N 722.791 0.367657 -1.53252 0
M  V30 7804 C 723.754 1.43308 -1.78873 0
M  V30 7805 C 724.754 1.46671 -0.659115 0
M  V30 7806 O 725.944 1.47468 -0.927306 0
M  V30 7807 C 723.076 2.82442 -1.90892 0
M  V30 7808 H 724.269 1.21864 -2.74024 0
M  V30 7809 H 721.822 0.600668 -1.44297 0
M  V30 7810 H 722.557 3.09202 -0.978 0
M  V30 7811 H 722.342 2.81399 -2.73051 0
M  V30 7812 H 723.832 3.59601 -2.12314 0
M  V30 7813 N 724.269 1.44576 0.627338 0
M  V30 7814 C 725.517 1.47267 1.38408 0
M  V30 7815 C 725.838 0.107971 1.94701 0
M  V30 7816 O 725.108 -0.860206 1.76004 0
M  V30 7817 H 723.688 0.542276 0.513756 0
M  V30 7818 H 726.35 1.80383 0.738099 0
M  V30 7819 H 725.446 2.20025 2.21349 0
M  V30 7820 N 725.747 -0.868086 1.31537 0
M  V30 7821 C 726.71 -1.95703 1.19302 0
M  V30 7822 C 727.71 -1.60355 0.119612 0
M  V30 7823 O 728.9 -1.70247 0.36902 0
M  V30 7824 C 726.032 -3.30599 0.831684 0
M  V30 7825 H 727.225 -2.07982 2.16064 0
M  V30 7826 H 724.778 -1.05661 1.15176 0
M  V30 7827 H 725.513 -3.2402 -0.134694 0
M  V30 7828 H 725.298 -3.57629 1.60761 0
M  V30 7829 H 726.788 -4.10439 0.770026 0
M  V30 7830 N 727.225 -1.14528 -1.08264 0
M  V30 7831 C 728.173 -0.829201 -2.17318 0
M  V30 7832 C 729.167 0.193521 -1.68291 0
M  V30 7833 O 730.373 0.0494744 -1.79932 0
M  V30 7834 H 726.748 -0.250435 -0.709074 0
M  V30 7835 H 728.719 -1.75683 -2.41201 0
M  V30 7836 C 727.468 -0.324663 -3.46181 0
M  V30 7837 H 726.791 -1.10299 -3.84284 0
M  V30 7838 H 728.231 -0.142059 -4.23762 0
M  V30 7839 C 726.69 0.952033 -3.23169 0
M  V30 7840 O 727.22 2.02549 -3.46896 0
M  V30 7841 N 725.426 0.887854 -2.76705 0
M  V30 7842 H 724.973 0.0141402 -2.57596 0
M  V30 7843 H 724.931 1.74263 -2.61686 0
M  V30 7844 N 728.703 1.26451 -0.940633 0
M  V30 7845 C 729.952 1.93071 -0.583656 0
M  V30 7846 C 730.265 1.74618 0.881366 0
M  V30 7847 O 731.471 2.35689 1.34769 0
M  V30 7848 C 729.927 3.45927 -0.993106 0
M  V30 7849 C 729.535 3.73115 -2.4797 0
M  V30 7850 C 731.279 4.18554 -0.707998 0
M  V30 7851 C 729.186 5.19408 -2.82788 0
M  V30 7852 H 728.116 0.722824 -0.214572 0
M  V30 7853 H 730.767 1.43538 -1.1432 0
M  V30 7854 H 729.149 3.94341 -0.362099 0
M  V30 7855 H 730.323 3.35408 -3.15971 0
M  V30 7856 H 728.638 3.13719 -2.73805 0
M  V30 7857 H 731.235 5.26293 -0.94447 0
M  V30 7858 H 731.578 4.14782 0.355225 0
M  V30 7859 H 732.111 3.76003 -1.2987 0
M  V30 7860 H 728.85 5.28281 -3.88071 0
M  V30 7861 H 728.37 5.58214 -2.19449 0
M  V30 7862 H 730.049 5.87407 -2.71224 0
M  V30 7863 N 730.181 0.707592 1.40822 0
M  V30 7864 C 731.144 0.0587224 2.29125 0
M  V30 7865 C 732.144 -0.695624 1.44975 0
M  V30 7866 O 733.334 -0.528718 1.65983 0
M  V30 7867 C 730.466 -0.926939 3.28056 0
M  V30 7868 H 731.659 0.836349 2.88002 0
M  V30 7869 H 729.212 0.471778 1.4901 0
M  V30 7870 H 729.947 -1.7319 2.74182 0
M  V30 7871 H 729.732 -0.389015 3.90165 0
M  V30 7872 H 731.222 -1.37837 3.94196 0
M  V30 7873 N 731.66 -1.50943 0.453197 0
M  V30 7874 C 732.908 -2.01813 -0.107709 0
M  V30 7875 C 733.229 -1.33841 -1.41816 0
M  V30 7876 O 732.499 -0.477973 -1.8998 0
M  V30 7877 H 731.079 -0.745773 -0.0427948 0
M  V30 7878 H 733.741 -1.8545 0.599531 0
M  V30 7879 H 732.837 -3.10911 -0.27218 0
M  V30 7880 N 733.138 -0.185124 -1.56509 0
M  V30 7881 C 734.385 0.456258 -1.97293 0
M  V30 7882 C 734.713 1.62314 -1.07165 0
M  V30 7883 O 733.968 1.95398 -0.108621 0
M  V30 7884 C 734.267 0.967977 -3.44042 0
M  V30 7885 C 733.933 -0.084476 -4.50821 0
M  V30 7886 C 732.595 -0.373689 -4.79747 0
M  V30 7887 C 734.947 -0.79812 -5.15053 0
M  V30 7888 C 732.275 -1.3817 -5.70198 0
M  V30 7889 C 734.627 -1.79521 -6.06593 0
M  V30 7890 C 733.291 -2.09172 -6.3388 0
M  V30 7891 H 732.561 0.166957 -0.721946 0
M  V30 7892 H 735.208 -0.279992 -1.89442 0
M  V30 7893 H 733.513 1.78231 -3.48914 0
M  V30 7894 H 735.21 1.47347 -3.72948 0
M  V30 7895 H 731.8 0.15111 -4.28334 0
M  V30 7896 H 735.984 -0.587903 -4.92806 0
M  V30 7897 H 731.24 -1.61745 -5.89617 0
M  V30 7898 H 735.414 -2.35347 -6.55427 0
M  V30 7899 H 733.041 -2.87427 -7.03768 0
M  V30 7900 N 734.616 1.57351 0.0885366 0
M  V30 7901 C 735.546 2.05561 1.10757 0
M  V30 7902 C 736.527 0.945789 1.41382 0
M  V30 7903 O 737.712 1.21747 1.51299 0
M  V30 7904 C 734.842 2.48554 2.42566 0
M  V30 7905 C 733.796 3.63259 2.26334 0
M  V30 7906 C 733.122 3.9225 3.63378 0
M  V30 7907 C 734.422 4.93913 1.69844 0
M  V30 7908 H 736.116 2.90946 0.706468 0
M  V30 7909 H 733.662 1.39968 0.338385 0
M  V30 7910 H 735.615 2.8089 3.14132 0
M  V30 7911 H 734.339 1.60176 2.84625 0
M  V30 7912 H 732.998 3.31179 1.57213 0
M  V30 7913 H 732.646 3.0103 4.02976 0
M  V30 7914 H 732.346 4.69478 3.53362 0
M  V30 7915 H 733.87 4.27067 4.36401 0
M  V30 7916 H 735.284 5.24588 2.31258 0
M  V30 7917 H 733.681 5.75349 1.70569 0
M  V30 7918 H 734.751 4.80409 0.65843 0
M  V30 7919 N 736.094 -0.359525 1.53444 0
M  V30 7920 C 737.041 -1.44073 1.8031 0
M  V30 7921 C 738.011 -1.52946 0.647811 0
M  V30 7922 O 739.196 -1.68739 0.890614 0
M  V30 7923 C 736.336 -2.80941 2.00416 0
M  V30 7924 C 735.449 -2.80986 3.28132 0
M  V30 7925 C 734.584 -4.09468 3.38393 0
M  V30 7926 C 733.623 -4.03679 4.60119 0
M  V30 7927 N 732.76 -5.23821 4.675 0
M  V30 7928 H 737.6 -1.20464 2.72566 0
M  V30 7929 H 735.137 -0.583859 1.35017 0
M  V30 7930 H 737.095 -3.60459 2.1006 0
M  V30 7931 H 735.725 -3.02936 1.11489 0
M  V30 7932 H 734.777 -1.93666 3.27411 0
M  V30 7933 H 736.089 -2.72583 4.17732 0
M  V30 7934 H 735.243 -4.97404 3.47382 0
M  V30 7935 H 733.982 -4.20632 2.4682 0
M  V30 7936 H 732.987 -3.14129 4.51224 0
M  V30 7937 H 734.212 -3.94112 5.5304 0
M  V30 7938 H 732.158 -5.35559 3.7883 0
M  V30 7939 H 732.075 -5.17611 5.51013 0
M  V30 7940 H 733.343 -6.13572 4.8078 0
M  V30 7941 N 737.572 -1.44907 -0.619662 0
M  V30 7942 C 738.818 -1.48512 -1.38102 0
M  V30 7943 C 739.151 -0.121686 -1.93818 0
M  V30 7944 O 738.426 0.862256 -1.74343 0
M  V30 7945 C 738.709 -2.55469 -2.53787 0
M  V30 7946 C 738.562 -4.01212 -2.03345 0
M  V30 7947 C 739.881 -2.58821 -3.55949 0
M  V30 7948 H 737 -0.540712 -0.500799 0
M  V30 7949 H 739.642 -1.7665 -0.69962 0
M  V30 7950 H 737.792 -2.31606 -3.11915 0
M  V30 7951 H 739.464 -4.36245 -1.49959 0
M  V30 7952 H 737.707 -4.12443 -1.34438 0
M  V30 7953 H 738.378 -4.71717 -2.86683 0
M  V30 7954 H 740.854 -2.80172 -3.07641 0
M  V30 7955 H 739.73 -3.35542 -4.34399 0
M  V30 7956 H 739.991 -1.63451 -4.10775 0
M  V30 7957 N 739.05 0.861098 -1.31996 0
M  V30 7958 C 740.013 1.95068 -1.20338 0
M  V30 7959 C 741.013 1.60289 -0.128114 0
M  V30 7960 O 742.203 1.70048 -0.378044 0
M  V30 7961 C 739.335 3.30153 -0.849205 0
M  V30 7962 H 740.528 2.06833 -2.17164 0
M  V30 7963 H 738.081 1.05049 -1.15734 0
M  V30 7964 H 738.816 3.24087 0.117508 0
M  V30 7965 H 738.601 3.56771 -1.62655 0
M  V30 7966 H 740.091 4.10025 -0.791782 0
M  V30 7967 N 740.528 1.15101 1.07655 0
M  V30 7968 C 741.805 0.834578 1.76902 0
M  V30 7969 C 742.185 -0.670431 2.00171 0
M  V30 7970 O 741.533 -1.61378 1.6177 0
M  V30 7971 C 741.743 1.64191 3.07965 0
M  V30 7972 C 743.091 1.84615 3.82364 0
M  V30 7973 O 744.115 1.60941 3.17768 0
M  V30 7974 O 742.974 2.24244 4.98374 0
M  V30 7975 H 740.068 0.306608 0.768063 0
M  V30 7976 H 742.614 1.25663 1.14048 0
M  V30 7977 H 741.386 2.66386 2.86626 0
M  V30 7978 H 741.009 1.216 3.78549 0
M  V30 7979 N 742.006 -1.2595 0.947325 0
M  V30 7980 C 743.231 -1.98083 0.614633 0
M  V30 7981 C 743.656 -1.70013 -0.804815 0
M  V30 7982 O 743.014 -0.95175 -1.54309 0
M  V30 7983 C 743.062 -3.4993 0.870706 0
M  V30 7984 O 742.166 -4.12364 -0.0541451 0
M  V30 7985 H 741.507 -0.621232 0.234451 0
M  V30 7986 H 744.037 -1.60259 1.27193 0
M  V30 7987 H 744.047 -4.00198 0.794051 0
M  V30 7988 H 742.722 -3.69691 1.90529 0
M  V30 7989 H 741.299 -3.72826 0.0740917 0
M  V30 7990 N 743.484 -0.715051 -1.40445 0
M  V30 7991 C 744.731 -0.254328 -2.00897 0
M  V30 7992 C 745.059 1.15228 -1.56693 0
M  V30 7993 O 744.314 1.7958 -0.777786 0
M  V30 7994 C 744.613 -0.281791 -3.56287 0
M  V30 7995 C 744.279 -1.63862 -4.20071 0
M  V30 7996 C 742.941 -2.01003 -4.37208 0
M  V30 7997 C 745.293 -2.53039 -4.55654 0
M  V30 7998 C 742.621 -3.26869 -4.8721 0
M  V30 7999 C 744.973 -3.78256 -5.07055 0
M  V30 8000 C 743.637 -4.15515 -5.22401 0
M  V30 8001 H 742.907 -0.0930652 -0.735133 0
M  V30 8002 H 745.554 -0.917977 -1.68064 0
M  V30 8003 H 743.859 0.465428 -3.89026 0
M  V30 8004 H 745.556 0.0925158 -4.00893 0
M  V30 8005 H 742.146 -1.33979 -4.07121 0
M  V30 8006 H 746.33 -2.2562 -4.42051 0
M  V30 8007 H 741.586 -3.55706 -4.97276 0
M  V30 8008 H 745.76 -4.47528 -5.33565 0
M  V30 8009 H 743.387 -5.13114 -5.60909 0
M  V30 8010 N 744.962 1.50701 -0.461195 0
M  V30 8011 C 745.892 2.31182 0.328184 0
M  V30 8012 C 746.873 1.37644 0.999408 0
M  V30 8013 O 748.058 1.66565 0.99848 0
M  V30 8014 C 745.188 3.17113 1.41621 0
M  V30 8015 C 744.142 4.19124 0.867148 0
M  V30 8016 C 743.468 4.93728 2.05272 0
M  V30 8017 C 744.768 5.22174 -0.114808 0
M  V30 8018 H 746.462 2.97423 -0.343501 0
M  V30 8019 H 744.008 1.43033 -0.166641 0
M  V30 8020 H 745.961 3.72208 1.97584 0
M  V30 8021 H 744.685 2.48739 2.11652 0
M  V30 8022 H 743.344 3.65116 0.329557 0
M  V30 8023 H 742.992 4.21835 2.73978 0
M  V30 8024 H 742.692 5.62724 1.69161 0
M  V30 8025 H 744.216 5.51654 2.61744 0
M  V30 8026 H 745.63 5.72198 0.355316 0
M  V30 8027 H 744.027 5.98833 -0.389689 0
M  V30 8028 H 745.097 4.7353 -1.04391 0
M  V30 8029 N 746.441 0.193421 1.56409 0
M  V30 8030 C 747.351 -0.740112 2.2262 0
M  V30 8031 C 748.367 -1.23597 1.22474 0
M  V30 8032 O 749.543 -1.28348 1.55206 0
M  V30 8033 C 746.608 -1.94317 2.87127 0
M  V30 8034 C 745.669 -1.49205 4.02538 0
M  V30 8035 C 744.902 -2.63776 4.63959 0
M  V30 8036 O 745.125 -3.81215 4.24301 0
M  V30 8037 O 744.059 -2.36585 5.53454 0
M  V30 8038 H 747.885 -0.206238 3.02999 0
M  V30 8039 H 745.47 -0.0357938 1.49357 0
M  V30 8040 H 747.352 -2.64633 3.27944 0
M  V30 8041 H 746.027 -2.46568 2.09728 0
M  V30 8042 H 744.934 -0.757738 3.66346 0
M  V30 8043 H 746.267 -1.01622 4.81595 0
M  V30 8044 N 747.919 -1.57396 -0.0801906 0
M  V30 8045 C 748.851 -1.9982 -1.12271 0
M  V30 8046 C 749.864 -0.902902 -1.35468 0
M  V30 8047 O 751.053 -1.18088 -1.33856 0
M  V30 8048 C 748.153 -2.31476 -2.47532 0
M  V30 8049 C 747.326 -3.62745 -2.44407 0
M  V30 8050 C 746.385 -3.82168 -3.6171 0
M  V30 8051 O 745.411 -4.53852 -3.43522 0
M  V30 8052 N 746.613 -3.2388 -4.81749 0
M  V30 8053 H 749.378 -2.89864 -0.761501 0
M  V30 8054 H 746.939 -1.5965 -0.268965 0
M  V30 8055 H 748.931 -2.4165 -3.24634 0
M  V30 8056 H 747.501 -1.47364 -2.75686 0
M  V30 8057 H 746.721 -3.63403 -1.52747 0
M  V30 8058 H 748.009 -4.48954 -2.39412 0
M  V30 8059 H 747.407 -2.6568 -4.9943 0
M  V30 8060 H 745.964 -3.39515 -5.56392 0
M  V30 8061 N 749.397 0.351382 -1.53633 0
M  V30 8062 C 750.645 1.09034 -1.70165 0
M  V30 8063 C 750.966 1.89413 -0.463422 0
M  V30 8064 O 750.236 1.888 0.522624 0
M  V30 8065 H 748.816 0.405522 -0.627344 0
M  V30 8066 H 751.478 0.394554 -1.90865 0
M  V30 8067 H 750.574 1.77215 -2.56907 0
M  V30 8068 N 750.875 1.45233 0.611969 0
M  V30 8069 C 752.123 1.48727 1.36838 0
M  V30 8070 C 752.444 0.128616 1.94575 0
M  V30 8071 O 751.714 -0.84149 1.76906 0
M  V30 8072 H 750.294 0.547695 0.507976 0
M  V30 8073 H 752.956 1.81156 0.718925 0
M  V30 8074 H 752.052 2.2236 2.19003 0
M  V30 8075 N 752.353 -0.854086 1.3245 0
M  V30 8076 C 753.283 -1.97827 1.24044 0
M  V30 8077 C 754.264 -1.69646 0.124166 0
M  V30 8078 O 755.449 -1.91687 0.31143 0
M  V30 8079 C 752.579 -3.33673 0.963324 0
M  V30 8080 C 751.533 -3.76207 2.04089 0
M  V30 8081 C 750.859 -5.0969 1.61618 0
M  V30 8082 C 752.159 -3.91612 3.45597 0
M  V30 8083 H 753.853 -2.05118 2.18099 0
M  V30 8084 H 751.399 -0.985489 1.04996 0
M  V30 8085 H 753.352 -4.11871 0.891061 0
M  V30 8086 H 752.076 -3.26597 -0.0128649 0
M  V30 8087 H 750.735 -3.0026 2.10332 0
M  V30 8088 H 750.383 -4.99072 0.627418 0
M  V30 8089 H 750.083 -5.3912 2.33717 0
M  V30 8090 H 751.607 -5.90381 1.55829 0
M  V30 8091 H 753.021 -4.60163 3.4194 0
M  V30 8092 H 751.418 -4.3246 4.16051 0
M  V30 8093 H 752.488 -2.9451 3.85217 0
M  V30 8094 O 753.87 -1.27491 -0.991381 0
M  V30 8095 H 754.561 -1.07099 -1.61398 0
M  V30 END ATOM
M  V30 BEGIN BOND
M  V30 END BOND
M  V30 END CTAB
M  END
$$$$
