drugbank_drug|DB00095 Heavy Chain Variable Region
 OpenBabel12092119123D

  0  0  0     0  0            999 V3000
M  V30 BEGIN CTAB
M  V30 COUNTS 1948 1974 0 0 0
M  V30 BEGIN ATOM
M  V30 1 H -0.908 1.98254 -0.117106 0
M  V30 2 N 0 1.576 0 0
M  V30 3 C 0.91 2.11853 1.00774 0
M  V30 4 C 1.926 1.06379 1.37693 0
M  V30 5 O 3.102 1.3828 1.46426 0
M  V30 6 C 0.167 2.61108 2.28087 0
M  V30 7 C -0.772 3.81183 1.9748 0
M  V30 8 C -1.539 4.28079 3.18723 0
M  V30 9 O -1.316 3.74307 4.30407 0
M  V30 10 O -2.382 5.20234 3.02721 0
M  V30 11 H 1.444 2.98177 0.576547 0
M  V30 12 H -0.971 1.47789 0.218828 0
M  V30 13 H 0.911 2.92987 3.0288 0
M  V30 14 H -0.414 1.77881 2.70444 0
M  V30 15 H -1.507 3.54277 1.20162 0
M  V30 16 H -0.174 4.65482 1.5996 0
M  V30 17 N 1.4781 -0.272755 1.55222 0
M  V30 18 C 2.7241 -1.00581 1.761 0
M  V30 19 C 3.0571 -1.85932 0.560625 0
M  V30 20 O 2.3321 -1.89416 -0.441801 0
M  V30 21 C 2.6151 -1.88816 3.06628 0
M  V30 22 C 2.4681 -1.06457 4.37021 0
M  V30 23 C 3.7871 -2.8752 3.33197 0
M  V30 24 H 0.9061 -0.364244 0.640699 0
M  V30 25 H 3.5481 -0.278189 1.87952 0
M  V30 26 H 1.6981 -2.50856 2.96654 0
M  V30 27 H 3.3701 -0.464863 4.58952 0
M  V30 28 H 1.6131 -0.368043 4.32236 0
M  V30 29 H 2.2841 -1.71514 5.24678 0
M  V30 30 H 4.7601 -2.35615 3.42965 0
M  V30 31 H 3.6361 -3.46399 4.25792 0
M  V30 32 H 3.8971 -3.62657 2.52849 0
M  V30 33 N 2.9562 -1.48159 -0.537278 0
M  V30 34 C 3.8882 -1.58218 -1.65831 0
M  V30 35 C 4.9012 -0.466948 -1.5596 0
M  V30 36 O 6.0902 -0.73747 -1.62553 0
M  V30 37 C 3.1902 -1.48906 -3.04434 0
M  V30 38 C 2.3632 -2.75343 -3.3986 0
M  V30 39 C 1.4222 -2.59588 -4.57712 0
M  V30 40 O 0.4482 -3.33457 -4.61297 0
M  V30 41 N 1.6502 -1.68724 -5.55439 0
M  V30 42 H 4.4152 -2.54891 -1.57641 0
M  V30 43 H 1.9762 -1.4479 -0.724386 0
M  V30 44 H 3.9682 -1.36072 -3.81139 0
M  V30 45 H 2.5382 -0.602368 -3.06741 0
M  V30 46 H 1.7582 -3.02795 -2.52406 0
M  V30 47 H 3.0462 -3.5924 -3.60311 0
M  V30 48 H 2.4442 -1.07898 -5.55315 0
M  V30 49 H 1.0012 -1.61832 -6.3139 0
M  V30 50 N 4.4343 0.785586 -1.36625 0
M  V30 51 C 5.3643 1.91259 -1.33949 0
M  V30 52 C 6.3453 1.68795 -0.210325 0
M  V30 53 O 7.5303 1.89854 -0.408561 0
M  V30 54 C 4.6603 3.28339 -1.13186 0
M  V30 55 C 3.6143 3.65335 -2.22967 0
M  V30 56 C 2.9403 5.00806 -1.87342 0
M  V30 57 C 4.2403 3.7352 -3.65075 0
M  V30 58 H 5.9343 1.93755 -2.28253 0
M  V30 59 H 3.4803 0.930788 -1.09874 0
M  V30 60 H 5.4333 4.06804 -1.09948 0
M  V30 61 H 4.1573 3.2624 -0.153332 0
M  V30 62 H 2.8163 2.89169 -2.25337 0
M  V30 63 H 2.4643 4.95233 -0.880545 0
M  V30 64 H 2.1643 5.26529 -2.60846 0
M  V30 65 H 3.6883 5.81687 -1.85667 0
M  V30 66 H 5.1023 4.42168 -3.64911 0
M  V30 67 H 3.4993 4.10731 -4.37516 0
M  V30 68 H 4.5693 2.74527 -3.99703 0
M  V30 69 N 5.9124 1.20967 1.01018 0
M  V30 70 C 7.1584 1.02526 1.74975 0
M  V30 71 C 7.4914 -0.4408 1.89131 0
M  V30 72 O 6.7664 -1.32718 1.42184 0
M  V30 73 C 7.0494 1.71699 3.1653 0
M  V30 74 C 6.9024 3.25791 3.10129 0
M  V30 75 C 8.2214 1.45531 4.15342 0
M  V30 76 H 5.3404 0.373863 0.635134 0
M  V30 77 H 7.9824 1.49071 1.17805 0
M  V30 78 H 6.1324 1.32128 3.65341 0
M  V30 79 H 7.8044 3.74697 2.69072 0
M  V30 80 H 6.0474 3.56363 2.47362 0
M  V30 81 H 6.7184 3.69353 4.10222 0
M  V30 82 H 9.1944 1.79872 3.75213 0
M  V30 83 H 8.0704 1.96453 5.1254 0
M  V30 84 H 8.3314 0.384237 4.40427 0
M  V30 85 N 7.3905 -1.2043 1.01659 0
M  V30 86 C 8.3005 -2.2689 0.596484 0
M  V30 87 C 9.3165 -1.70107 -0.36599 0
M  V30 88 O 10.4925 -2.00117 -0.226942 0
M  V30 89 C 7.5575 -3.4665 -0.0586659 0
M  V30 90 C 6.6185 -4.18662 0.949751 0
M  V30 91 C 5.8515 -5.32705 0.32577 0
M  V30 92 O 6.0745 -5.63656 -0.874509 0
M  V30 93 O 5.0085 -5.92803 1.04249 0
M  V30 94 H 8.8345 -2.65041 1.4828 0
M  V30 95 H 6.4195 -1.27048 0.786082 0
M  V30 96 H 8.3015 -4.19256 -0.424564 0
M  V30 97 H 6.9765 -3.10375 -0.91918 0
M  V30 98 H 5.8835 -3.48229 1.36702 0
M  V30 99 H 7.2165 -4.58878 1.78023 0
M  V30 100 N 8.8686 -0.792821 -1.36206 0
M  V30 101 C 10.0936 -0.377701 -2.03932 0
M  V30 102 C 10.5186 0.998947 -1.59382 0
M  V30 103 O 9.8766 1.64421 -0.763903 0
M  V30 104 C 9.9246 -0.453635 -3.57735 0
M  V30 105 O 9.0286 0.538151 -4.08874 0
M  V30 106 H 8.3696 -0.159855 -0.644471 0
M  V30 107 H 10.8996 -1.07488 -1.7409 0
M  V30 108 H 10.9096 -0.318464 -4.06755 0
M  V30 109 H 9.5846 -1.45784 -3.89512 0
M  V30 110 H 8.1616 0.364359 -3.71116 0
M  V30 111 N 10.3467 1.47872 -0.545128 0
M  V30 112 C 11.5947 2.02093 -0.016553 0
M  V30 113 C 11.9157 1.42305 1.3332 0
M  V30 114 O 11.1857 0.593853 1.86682 0
M  V30 115 H 9.7657 0.746993 -0.00313038 0
M  V30 116 H 12.4277 1.81414 -0.712397 0
M  V30 117 H 11.5237 3.11996 0.0805422 0
M  V30 118 N 11.8248 0.280983 1.55075 0
M  V30 119 C 13.0728 -0.333455 1.9933 0
M  V30 120 C 13.3938 -1.55937 1.17085 0
M  V30 121 O 12.6638 -1.94143 0.261805 0
M  V30 122 H 11.2438 -0.126197 0.736263 0
M  V30 123 H 13.9058 0.387678 1.91005 0
M  V30 124 H 13.0018 -0.619292 3.05894 0
M  V30 125 N 13.3029 -1.57598 0.00835791 0
M  V30 126 C 14.5509 -1.90551 -0.6734 0
M  V30 127 C 14.8719 -0.883301 -1.73847 0
M  V30 128 O 14.1419 0.0781442 -1.95744 0
M  V30 129 H 12.7219 -0.703312 -0.251717 0
M  V30 130 H 15.3839 -1.94833 0.0512592 0
M  V30 131 H 14.4799 -2.9056 -1.13935 0
M  V30 132 N 14.781 0.264519 -1.55364 0
M  V30 133 C 15.711 1.33121 -1.91836 0
M  V30 134 C 16.692 1.51101 -0.781192 0
M  V30 135 O 17.877 1.64003 -1.04003 0
M  V30 136 C 15.007 2.68921 -2.19769 0
M  V30 137 C 13.961 2.65661 -3.35571 0
M  V30 138 C 13.287 4.05093 -3.49004 0
M  V30 139 C 14.587 2.24187 -4.71739 0
M  V30 140 H 16.281 1.02844 -2.81182 0
M  V30 141 H 13.827 0.493286 -1.35287 0
M  V30 142 H 15.78 3.43663 -2.43872 0
M  V30 143 H 14.504 3.00799 -1.27231 0
M  V30 144 H 13.163 1.93377 -3.1145 0
M  V30 145 H 12.811 4.34206 -2.53917 0
M  V30 146 H 12.511 4.03804 -4.26868 0
M  V30 147 H 14.035 4.81561 -3.75408 0
M  V30 148 H 15.449 2.88654 -4.9533 0
M  V30 149 H 13.846 2.34044 -5.52579 0
M  V30 150 H 14.916 1.19327 -4.69988 0
M  V30 151 N 16.2591 1.48442 0.529413 0
M  V30 152 C 17.5051 1.5672 1.28711 0
M  V30 153 C 17.8381 0.2406 1.92704 0
M  V30 154 O 17.1131 -0.753454 1.79313 0
M  V30 155 C 17.3961 2.70587 2.37603 0
M  V30 156 C 17.2491 4.12953 1.78297 0
M  V30 157 C 18.5681 2.80212 3.39366 0
M  V30 158 H 15.6871 0.570474 0.466613 0
M  V30 159 H 18.3291 1.80617 0.589706 0
M  V30 160 H 16.4791 2.50342 2.97088 0
M  V30 161 H 18.1511 4.44639 1.22858 0
M  V30 162 H 16.3941 4.19927 1.0883 0
M  V30 163 H 17.0651 4.88448 2.57144 0
M  V30 164 H 19.5411 2.98553 2.89836 0
M  V30 165 H 18.4171 3.61611 4.12951 0
M  V30 166 H 18.6781 1.88393 3.99951 0
M  V30 167 N 17.7372 -0.778329 1.37039 0
M  V30 168 C 18.6692 -1.90034 1.2814 0
M  V30 169 C 19.6822 -1.61585 0.198558 0
M  V30 170 O 20.8712 -1.72625 0.454175 0
M  V30 171 C 17.9712 -3.25108 0.956968 0
M  V30 172 C 17.1442 -3.81253 2.14394 0
M  V30 173 C 16.2032 -4.94789 1.79082 0
M  V30 174 O 15.2292 -5.10721 2.51301 0
M  V30 175 N 16.4312 -5.75878 0.731043 0
M  V30 176 H 19.1962 -1.98186 2.24816 0
M  V30 177 H 16.7572 -0.957129 1.30578 0
M  V30 178 H 18.7492 -3.9857 0.701701 0
M  V30 179 H 17.3192 -3.125 0.0789812 0
M  V30 180 H 16.5392 -2.99647 2.56135 0
M  V30 181 H 17.8272 -4.15495 2.93668 0
M  V30 182 H 17.2252 -5.65547 0.131618 0
M  V30 183 H 15.7822 -6.49596 0.535622 0
M  V30 184 N 19.2153 -1.21501 -1.00376 0
M  V30 185 C 20.6263 -1.03146 -1.55621 0
M  V30 186 C 20.9773 0.408375 -1.91903 0
M  V30 187 O 20.1023 1.29177 -1.73616 0
M  V30 188 C 20.6973 -1.86612 -2.82775 0
M  V30 189 C 19.2563 -1.72586 -3.34501 0
M  V30 190 C 18.4033 -1.83747 -2.07683 0
M  V30 191 H 21.3543 -1.35505 -0.826081 0
M  V30 192 H 21.3753 -1.3771 -3.54706 0
M  V30 193 H 20.8873 -2.91399 -2.56336 0
M  V30 194 H 18.9883 -0.704877 -3.65872 0
M  V30 195 H 19.1013 -2.54623 -4.05837 0
M  V30 196 H 17.4653 -1.27069 -2.20739 0
M  V30 197 H 18.2483 -2.90044 -1.83655 0
M  V30 198 N 20.6934 1.19889 -1.02296 0
M  V30 199 C 21.9414 1.89046 -0.714558 0
M  V30 200 C 22.2624 1.79636 0.758681 0
M  V30 201 O 21.5324 1.20292 1.54618 0
M  V30 202 H 20.1124 0.699802 -0.261317 0
M  V30 203 H 22.7744 1.45574 -1.29592 0
M  V30 204 H 21.8704 2.95524 -1.0036 0
M  V30 205 N 22.1715 0.800033 1.35784 0
M  V30 206 C 23.4195 0.376597 1.9856 0
M  V30 207 C 23.7405 -1.05812 1.63795 0
M  V30 208 O 23.0105 -1.73103 0.917171 0
M  V30 209 H 21.5905 0.136261 0.734467 0
M  V30 210 H 24.2525 1.02442 1.65806 0
M  V30 211 H 23.3485 0.477002 3.08433 0
M  V30 212 N 23.6496 -1.47581 0.552962 0
M  V30 213 C 24.8746 -2.07378 0.0300593 0
M  V30 214 C 25.2996 -1.40355 -1.25229 0
M  V30 215 O 24.6576 -0.477099 -1.7491 0
M  V30 216 C 24.7056 -3.60274 -0.153231 0
M  V30 217 O 23.8096 -3.94041 -1.21678 0
M  V30 218 H 23.1506 -0.662158 0.0494182 0
M  V30 219 H 25.6806 -1.89662 0.767434 0
M  V30 220 H 25.6906 -4.0633 -0.368761 0
M  V30 221 H 24.3656 -4.08455 0.783397 0
M  V30 222 H 22.9426 -3.59735 -0.982079 0
M  V30 223 N 25.1277 -0.289203 -1.54924 0
M  V30 224 C 26.0577 0.58549 -2.2604 0
M  V30 225 C 27.0387 1.14753 -1.25562 0
M  V30 226 O 28.2237 1.17906 -1.54311 0
M  V30 227 C 25.3537 1.76305 -2.99222 0
M  V30 228 C 24.3077 1.33191 -4.06748 0
M  V30 229 C 23.6337 2.5937 -4.6758 0
M  V30 230 C 24.9337 0.471775 -5.20165 0
M  V30 231 H 26.6277 -0.00763532 -2.99399 0
M  V30 232 H 24.1737 -0.00511229 -1.43999 0
M  V30 233 H 26.1267 2.38097 -3.47689 0
M  V30 234 H 24.8507 2.38223 -2.23422 0
M  V30 235 H 23.5097 0.737121 -3.59113 0
M  V30 236 H 23.1577 3.19576 -3.88433 0
M  V30 237 H 22.8577 2.31228 -5.40192 0
M  V30 238 H 24.3817 3.21985 -5.18804 0
M  V30 239 H 25.7957 0.995056 -5.64599 0
M  V30 240 H 24.1927 0.284639 -5.99425 0
M  V30 241 H 25.2627 -0.506041 -4.82252 0
M  V30 242 N 26.6058 1.57591 -0.0167156 0
M  V30 243 C 28.0218 1.55946 0.339557 0
M  V30 244 C 28.2218 1.02109 1.73713 0
M  V30 245 O 27.2778 0.662303 2.43659 0
M  V30 246 C 28.5908 3.00037 0.199499 0
M  V30 247 C 30.1388 3.11805 0.273193 0
M  V30 248 C 30.6138 4.57713 0.162068 0
M  V30 249 N 32.1048 4.6268 0.219444 0
M  V30 250 C 32.8398 5.73185 0.157054 0
M  V30 251 N 32.3358 6.92786 0.0442936 0
M  V30 252 N 34.1288 5.61707 0.21014 0
M  V30 253 H 26.2798 1.90921 -0.930758 0
M  V30 254 H 28.5428 0.877674 -0.358319 0
M  V30 255 H 28.2488 3.4333 -0.76273 0
M  V30 256 H 28.1228 3.64387 0.974786 0
M  V30 257 H 30.5098 2.68433 1.22587 0
M  V30 258 H 30.5908 2.50201 -0.532256 0
M  V30 259 H 30.2348 5.01763 -0.78714 0
M  V30 260 H 30.1648 5.17283 0.986222 0
M  V30 261 H 32.6558 3.76649 0.307246 0
M  V30 262 H 32.9688 7.728 0.00304069 0
M  V30 263 H 31.3138 6.94999 0.00968457 0
M  V30 264 H 34.5048 4.6716 0.296546 0
M  V30 265 H 34.6778 6.47807 0.158054 0
M  V30 266 N 28.0839 -0.256276 1.55502 0
M  V30 267 C 29.0139 -1.32102 1.92539 0
M  V30 268 C 29.9949 -1.50684 0.789194 0
M  V30 269 O 31.1799 -1.63449 1.04872 0
M  V30 270 C 28.3099 -2.67752 2.21192 0
M  V30 271 C 27.2639 -2.63878 3.36975 0
M  V30 272 C 26.5899 -4.03236 3.51147 0
M  V30 273 C 27.8899 -2.21682 4.72921 0
M  V30 274 H 29.5839 -1.01351 2.81724 0
M  V30 275 H 27.1299 -0.486105 1.35547 0
M  V30 276 H 29.0829 -3.42365 2.45691 0
M  V30 277 H 27.8069 -3.0012 1.28824 0
M  V30 278 H 26.4659 -1.91722 3.12471 0
M  V30 279 H 26.1139 -4.32854 2.56216 0
M  V30 280 H 25.8139 -4.01535 4.29003 0
M  V30 281 H 27.3379 -4.79563 3.77957 0
M  V30 282 H 28.7519 -2.86023 4.96854 0
M  V30 283 H 27.1489 -2.3111 5.53812 0
M  V30 284 H 28.2189 -1.16833 4.70615 0
M  V30 285 N 29.562 -1.4872 -0.521534 0
M  V30 286 C 30.787 -1.61101 -1.30618 0
M  V30 287 C 31.212 -0.274611 -1.86085 0
M  V30 288 O 30.57 0.754937 -1.64834 0
M  V30 289 C 30.618 -2.66709 -2.4269 0
M  V30 290 O 29.722 -2.24456 -3.45967 0
M  V30 291 H 29.063 -0.539921 -0.386499 0
M  V30 292 H 31.593 -1.94767 -0.626645 0
M  V30 293 H 31.603 -2.88245 -2.88754 0
M  V30 294 H 30.278 -3.63727 -2.01682 0
M  V30 295 H 28.855 -2.13168 -3.05964 0
M  V30 296 N 31.0401 0.771051 -1.3745 0
M  V30 297 C 32.2801 1.54264 -1.34096 0
M  V30 298 C 32.6441 1.91858 0.0737639 0
M  V30 299 O 33.8451 2.67797 0.23203 0
M  V30 300 C 32.1161 2.77326 -2.25445 0
M  V30 301 S 33.6751 3.67383 -2.39948 0
M  V30 302 H 30.4931 0.528122 -0.476034 0
M  V30 303 H 33.0951 0.906633 -1.73206 0
M  V30 304 H 31.7991 2.47788 -3.27153 0
M  V30 305 H 31.3301 3.45886 -1.87421 0
M  V30 306 H 33.3451 4.69334 -1.61059 0
M  V30 307 N 32.5182 1.22032 0.997298 0
M  V30 308 C 33.4812 0.987909 2.06816 0
M  V30 309 C 34.4812 -0.0440084 1.6074 0
M  V30 310 O 35.6712 0.194053 1.73116 0
M  V30 311 C 32.8032 0.49132 3.37341 0
M  V30 312 H 33.9962 1.93803 2.28868 0
M  V30 313 H 31.5492 1.03838 1.16822 0
M  V30 314 H 32.2842 -0.463364 3.20973 0
M  V30 315 H 32.0692 1.23575 3.72118 0
M  V30 316 H 33.5592 0.348824 4.16141 0
M  V30 317 N 33.9963 -1.19345 1.0293 0
M  V30 318 C 34.9593 -2.20793 0.615069 0
M  V30 319 C 35.9593 -1.57553 -0.321533 0
M  V30 320 O 37.1493 -1.73862 -0.108483 0
M  V30 321 C 34.2813 -3.40754 -0.0999222 0
M  V30 322 H 35.4743 -2.58955 1.51269 0
M  V30 323 H 33.0273 -1.3303 0.820534 0
M  V30 324 H 33.7623 -3.0811 -1.01187 0
M  V30 325 H 33.5473 -3.87889 0.57309 0
M  V30 326 H 35.0373 -4.15898 -0.376645 0
M  V30 327 N 35.4744 -0.807222 -1.35358 0
M  V30 328 C 36.6994 -0.399309 -2.0352 0
M  V30 329 C 37.1244 0.981986 -1.60433 0
M  V30 330 O 36.4824 1.63601 -0.781299 0
M  V30 331 C 36.5304 -0.491552 -3.57234 0
M  V30 332 O 35.6344 0.494754 -4.09421 0
M  V30 333 H 34.9754 -0.166682 -0.642739 0
M  V30 334 H 37.5054 -1.09328 -1.72941 0
M  V30 335 H 37.5154 -0.361588 -4.06395 0
M  V30 336 H 36.1904 -1.49907 -3.87944 0
M  V30 337 H 34.7674 0.324977 -3.71481 0
M  V30 338 N 36.9525 1.47285 -0.560781 0
M  V30 339 C 38.2005 2.02064 -0.0379868 0
M  V30 340 C 38.5215 1.43711 1.31803 0
M  V30 341 O 37.7915 0.61362 1.86042 0
M  V30 342 H 36.3715 0.746918 -0.0110531 0
M  V30 343 H 39.0335 1.80648 -0.731598 0
M  V30 344 H 38.1295 3.12064 0.0474463 0
M  V30 345 N 38.4306 0.297415 1.54768 0
M  V30 346 C 39.6606 -0.315165 2.04182 0
M  V30 347 C 40.0686 -1.4834 1.17439 0
M  V30 348 O 39.4116 -1.82695 0.191891 0
M  V30 349 C 39.4736 -0.837583 3.49607 0
M  V30 350 C 39.1376 0.204912 4.5654 0
M  V30 351 C 40.1346 1.03214 5.09552 0
M  V30 352 C 37.8196 0.345578 5.0111 0
M  V30 353 C 39.8136 1.986 6.05671 0
M  V30 354 C 37.5006 1.30289 5.97049 0
M  V30 355 C 38.4986 2.12159 6.49213 0
M  V30 356 O 38.1866 3.06268 7.43273 0
M  V30 357 H 37.9186 -0.0729646 0.672051 0
M  V30 358 H 40.4726 0.433907 2.00765 0
M  V30 359 H 38.7026 -1.63712 3.50336 0
M  V30 360 H 40.3916 -1.36566 3.82236 0
M  V30 361 H 41.1576 0.934312 4.75916 0
M  V30 362 H 37.0366 -0.28171 4.60138 0
M  V30 363 H 40.5806 2.62542 6.46311 0
M  V30 364 H 36.4776 1.40145 6.30103 0
M  V30 365 H 37.2456 3.01205 7.61064 0
M  V30 366 N 39.9087 -1.5758 0.0250728 0
M  V30 367 C 41.1337 -1.96337 -0.668317 0
M  V30 368 C 41.5587 -0.901314 -1.651 0
M  V30 369 O 40.9167 0.138187 -1.80773 0
M  V30 370 C 40.9647 -3.34191 -1.35457 0
M  V30 371 O 40.0687 -3.30269 -2.46974 0
M  V30 372 H 39.4097 -0.640281 -0.175887 0
M  V30 373 H 41.9397 -2.0442 0.0857224 0
M  V30 374 H 41.9497 -3.70331 -1.71228 0
M  V30 375 H 40.6247 -4.11036 -0.634218 0
M  V30 376 H 39.2017 -3.05841 -2.13344 0
M  V30 377 N 41.3868 0.248026 -1.55636 0
M  V30 378 C 42.6338 0.976224 -1.77415 0
M  V30 379 C 42.9618 1.85361 -0.589193 0
M  V30 380 O 42.2168 1.90973 0.427529 0
M  V30 381 C 42.5158 1.86819 -3.04686 0
M  V30 382 C 42.1818 1.14625 -4.36087 0
M  V30 383 C 40.8438 0.946723 -4.71795 0
M  V30 384 C 43.1958 0.634463 -5.17324 0
M  V30 385 C 40.5238 0.223091 -5.86276 0
M  V30 386 C 42.8758 -0.0756959 -6.32555 0
M  V30 387 C 41.5398 -0.286711 -6.66884 0
M  V30 388 H 40.8098 0.357226 -0.649208 0
M  V30 389 H 43.4568 0.246415 -1.89908 0
M  V30 390 H 41.7618 2.66502 -2.872 0
M  V30 391 H 43.4588 2.43329 -3.18735 0
M  V30 392 H 40.0488 1.3117 -4.08035 0
M  V30 393 H 44.2328 0.77616 -4.90193 0
M  V30 394 H 39.4888 0.0491185 -6.1138 0
M  V30 395 H 43.6628 -0.479899 -6.94745 0
M  V30 396 H 41.2898 -0.849389 -7.5544 0
M  V30 397 N 42.8649 1.48995 0.513639 0
M  V30 398 C 44.0929 1.61531 1.29288 0
M  V30 399 C 44.5079 0.281801 1.86685 0
M  V30 400 O 43.8649 -0.731111 1.67215 0
M  V30 401 C 43.9159 2.67449 2.43215 0
M  V30 402 O 43.6369 3.95626 1.88179 0
M  V30 403 C 45.1379 2.90575 3.34785 0
M  V30 404 H 42.3579 0.544165 0.392588 0
M  V30 405 H 44.9019 1.9494 0.617956 0
M  V30 406 H 43.0569 2.36853 3.0656 0
M  V30 407 H 43.4709 4.53868 2.62876 0
M  V30 408 H 44.9449 3.68449 4.11035 0
M  V30 409 H 45.4219 2.00011 3.91015 0
M  V30 410 H 46.0279 3.22538 2.77218 0
M  V30 411 N 44.343 -0.763751 1.37857 0
M  V30 412 C 45.591 -1.51957 1.33243 0
M  V30 413 C 45.912 -1.94835 -0.0801709 0
M  V30 414 O 45.182 -1.66894 -1.02582 0
M  V30 415 H 43.762 -0.563626 0.49024 0
M  V30 416 H 46.424 -0.908504 1.7243 0
M  V30 417 H 45.52 -2.41523 1.97669 0
M  V30 418 N 45.8211 -1.22559 -0.990812 0
M  V30 419 C 46.7711 -0.964807 -2.0658 0
M  V30 420 C 47.7551 0.0853472 -1.60673 0
M  V30 421 O 48.9471 -0.125443 -1.76555 0
M  V30 422 C 46.0761 -0.546707 -3.38919 0
M  V30 423 C 45.1621 -1.6317 -3.91454 0
M  V30 424 N 45.5531 -2.85985 -4.17189 0
M  V30 425 C 43.8511 -1.50387 -4.19881 0
M  V30 426 C 44.5521 -3.56159 -4.59919 0
M  V30 427 N 43.5281 -2.83637 -4.63736 0
M  V30 428 H 47.3301 -1.89769 -2.24421 0
M  V30 429 H 44.8441 -1.12343 -1.17273 0
M  V30 430 H 46.8411 -0.34119 -4.15502 0
M  V30 431 H 45.5011 0.379254 -3.22478 0
M  V30 432 H 46.5121 -3.22392 -4.05319 0
M  V30 433 H 43.1891 -0.644254 -4.12499 0
M  V30 434 H 44.5791 -4.6139 -4.88435 0
M  V30 435 N 47.2992 1.18797 -1.03562 0
M  V30 436 C 48.5452 1.89192 -0.746867 0
M  V30 437 C 48.9002 1.78531 0.717245 0
M  V30 438 O 48.1932 1.17137 1.51622 0
M  V30 439 C 48.3872 3.38692 -1.14117 0
M  V30 440 C 48.2162 3.63902 -2.64207 0
M  V30 441 C 46.9862 3.81553 -3.31279 0
M  V30 442 C 49.1842 3.64903 -3.62423 0
M  V30 443 N 47.1662 3.94455 -4.70402 0
M  V30 444 C 48.5372 3.83458 -4.87196 0
M  V30 445 C 50.5922 3.47965 -3.56125 0
M  V30 446 C 49.2952 3.86829 -6.06429 0
M  V30 447 C 51.3212 3.52616 -4.7478 0
M  V30 448 C 50.6832 3.71663 -5.9837 0
M  V30 449 H 46.7822 0.711141 -0.325273 0
M  V30 450 H 49.3662 1.42727 -1.32428 0
M  V30 451 H 47.5372 3.83864 -0.591889 0
M  V30 452 H 49.2692 3.96634 -0.803966 0
M  V30 453 H 46.0242 3.80723 -2.81686 0
M  V30 454 H 46.4482 4.0474 -5.42692 0
M  V30 455 H 51.0902 3.32189 -2.61553 0
M  V30 456 H 48.8082 4.01395 -7.01362 0
M  V30 457 H 52.3942 3.40791 -4.71543 0
M  V30 458 H 51.2742 3.75145 -6.88648 0
M  V30 459 N 48.7773 0.814389 1.34928 0
M  V30 460 C 49.7103 0.175641 2.27523 0
M  V30 461 C 50.6883 -0.662953 1.48471 0
M  V30 462 O 51.8723 -0.628545 1.77712 0
M  V30 463 C 48.9993 -0.755516 3.30166 0
M  V30 464 C 48.0453 0.00445305 4.265 0
M  V30 465 S 48.8783 1.34582 5.18313 0
M  V30 466 C 50.0343 0.419315 6.24494 0
M  V30 467 H 50.2673 0.960691 2.8135 0
M  V30 468 H 47.8003 0.609846 1.41846 0
M  V30 469 H 49.7583 -1.28723 3.89796 0
M  V30 470 H 48.4193 -1.51402 2.75202 0
M  V30 471 H 47.6123 -0.703077 4.99072 0
M  V30 472 H 47.2143 0.466447 3.7108 0
M  V30 473 H 49.5063 -0.392432 6.76362 0
M  V30 474 H 50.4493 1.11446 6.99275 0
M  V30 475 H 50.8573 0.0115389 5.64499 0
M  V30 476 N 50.2554 -1.46986 0.568584 0
M  V30 477 C 51.2034 -2.31858 -0.185649 0
M  V30 478 C 52.1974 -1.43624 -0.898249 0
M  V30 479 O 53.4034 -1.60327 -0.818242 0
M  V30 480 H 49.7784 -0.747866 -0.0787399 0
M  V30 481 H 51.7494 -2.93303 0.549191 0
M  V30 482 C 50.4984 -3.26513 -1.19519 0
M  V30 483 H 49.8214 -3.94377 -0.656285 0
M  V30 484 H 51.2614 -3.88707 -1.6936 0
M  V30 485 C 49.7204 -2.50847 -2.24894 0
M  V30 486 O 50.2504 -2.26119 -3.32014 0
M  V30 487 N 48.4564 -2.11656 -1.99124 0
M  V30 488 H 48.0034 -2.31966 -1.12024 0
M  V30 489 H 47.9614 -1.61347 -2.69842 0
M  V30 490 N 51.7335 -0.305618 -1.54608 0
M  V30 491 C 52.9795 0.295595 -2.01241 0
M  V30 492 C 53.3345 1.51171 -1.19018 0
M  V30 493 O 52.6275 1.89832 -0.259684 0
M  V30 494 C 52.8215 0.698983 -3.50498 0
M  V30 495 C 52.6505 -0.476491 -4.47168 0
M  V30 496 C 51.4205 -0.969963 -4.95903 0
M  V30 497 C 53.6185 -1.32294 -4.96994 0
M  V30 498 N 51.6005 -2.11172 -5.76437 0
M  V30 499 C 52.9715 -2.31212 -5.75275 0
M  V30 500 C 55.0265 -1.35278 -4.7917 0
M  V30 501 C 53.7295 -3.32896 -6.37631 0
M  V30 502 C 55.7555 -2.35823 -5.42348 0
M  V30 503 C 55.1175 -3.33469 -6.20466 0
M  V30 504 H 51.2165 0.0724992 -0.778632 0
M  V30 505 H 53.8005 -0.436583 -1.89742 0
M  V30 506 H 51.9715 1.40032 -3.62278 0
M  V30 507 H 53.7035 1.28013 -3.8392 0
M  V30 508 H 50.4585 -0.544178 -4.70463 0
M  V30 509 H 50.8825 -2.68714 -6.21387 0
M  V30 510 H 55.5245 -0.61157 -4.18354 0
M  V30 511 H 53.2425 -4.07933 -6.97579 0
M  V30 512 H 56.8285 -2.38911 -5.30484 0
M  V30 513 H 55.7085 -4.09996 -6.68485 0
M  V30 514 N 53.2116 1.57565 -0.0334293 0
M  V30 515 C 54.4576 1.92262 0.645226 0
M  V30 516 C 54.7906 0.910543 1.71531 0
M  V30 517 O 54.0656 -0.066099 1.94388 0
M  V30 518 C 54.3486 3.37422 1.2577 0
M  V30 519 C 54.2016 4.49369 0.196891 0
M  V30 520 C 55.5206 3.82628 2.17449 0
M  V30 521 H 52.6396 0.699171 0.233085 0
M  V30 522 H 55.2816 1.89779 -0.0915694 0
M  V30 523 H 53.4316 3.39669 1.88566 0
M  V30 524 H 55.1036 4.59254 -0.433962 0
M  V30 525 H 53.3466 4.31168 -0.477137 0
M  V30 526 H 54.0176 5.47978 0.665124 0
M  V30 527 H 56.4936 3.82145 1.64634 0
M  V30 528 H 55.3696 4.84883 2.57254 0
M  V30 529 H 55.6306 3.18376 3.0674 0
M  V30 530 N 54.6897 -0.239769 1.55765 0
M  V30 531 C 56.1057 -0.588624 1.48349 0
M  V30 532 C 56.3057 -1.88005 0.72502 0
M  V30 533 O 55.3617 -2.51186 0.257269 0
M  V30 534 C 56.6747 -0.68474 2.928 0
M  V30 535 C 58.2227 -0.77659 3.03213 0
M  V30 536 C 58.6977 -0.904207 4.48986 0
M  V30 537 N 60.1887 -0.968896 4.52953 0
M  V30 538 C 60.9237 -1.08703 5.63002 0
M  V30 539 N 60.4197 -1.17026 6.82845 0
M  V30 540 N 62.2127 -1.12074 5.50814 0
M  V30 541 H 54.3637 0.607911 2.03515 0
M  V30 542 H 56.6267 0.21083 0.924259 0
M  V30 543 H 56.3327 0.194284 3.51163 0
M  V30 544 H 56.2067 -1.55435 3.43686 0
M  V30 545 H 58.5937 -1.64606 2.44926 0
M  V30 546 H 58.6747 0.118315 2.55526 0
M  V30 547 H 58.3187 -0.0392633 5.07885 0
M  V30 548 H 58.2487 -1.81426 4.9436 0
M  V30 549 H 60.7397 -0.915633 3.6664 0
M  V30 550 H 61.0527 -1.25966 7.62465 0
M  V30 551 H 59.3977 -1.13971 6.85591 0
M  V30 552 H 62.5887 -1.05226 4.5612 0
M  V30 553 H 62.7617 -1.20936 6.36615 0
M  V30 554 N 56.1678 -1.49265 -0.50573 0
M  V30 555 C 57.0998 -1.617 -1.62437 0
M  V30 556 C 58.1128 -0.499924 -1.54934 0
M  V30 557 O 59.3018 -0.771785 -1.60953 0
M  V30 558 C 56.4018 -1.5533 -3.01207 0
M  V30 559 C 55.5748 -2.8249 -3.33943 0
M  V30 560 C 54.6338 -2.69238 -4.52103 0
M  V30 561 O 53.6598 -3.43167 -4.5412 0
M  V30 562 N 54.8618 -1.80468 -5.51735 0
M  V30 563 H 57.6268 -2.58177 -1.52199 0
M  V30 564 H 55.1878 -1.46294 -0.693511 0
M  V30 565 H 57.1798 -1.44125 -3.78167 0
M  V30 566 H 55.7498 -0.667297 -3.05395 0
M  V30 567 H 54.9698 -3.08081 -2.45926 0
M  V30 568 H 56.2578 -3.66802 -3.5261 0
M  V30 569 H 55.6558 -1.19653 -5.52901 0
M  V30 570 H 54.2128 -1.75188 -6.27816 0
M  V30 571 N 57.6459 0.756429 -1.3826 0
M  V30 572 C 58.6089 1.85176 -1.35065 0
M  V30 573 C 59.6089 1.58818 -0.251703 0
M  V30 574 O 60.7989 1.66615 -0.508433 0
M  V30 575 C 57.9309 3.22596 -1.10201 0
M  V30 576 H 59.1239 1.89417 -2.3251 0
M  V30 577 H 56.6769 0.95783 -1.23512 0
M  V30 578 H 57.4119 3.24025 -0.133504 0
M  V30 579 H 57.1969 3.43122 -1.89762 0
M  V30 580 H 58.6869 4.02673 -1.10654 0
M  V30 581 N 59.124 1.23083 0.984299 0
M  V30 582 C 60.535 1.05609 1.5396 0
M  V30 583 C 60.886 -0.377793 1.92528 0
M  V30 584 O 60.011 -1.26398 1.75649 0
M  V30 585 C 60.606 1.91087 2.7977 0
M  V30 586 C 59.165 1.77885 3.31713 0
M  V30 587 C 58.312 1.87028 2.04733 0
M  V30 588 H 61.263 1.36802 0.804419 0
M  V30 589 H 61.284 1.43336 3.5247 0
M  V30 590 H 60.796 2.9544 2.51668 0
M  V30 591 H 58.897 0.762995 3.64704 0
M  V30 592 H 59.01 2.61047 4.01735 0
M  V30 593 H 57.374 1.30565 2.18689 0
M  V30 594 H 58.157 2.92929 1.79017 0
M  V30 595 N 60.6021 -1.18246 1.0419 0
M  V30 596 C 61.8501 -1.87886 0.744543 0
M  V30 597 C 62.1711 -1.8082 -0.730006 0
M  V30 598 O 61.4411 -1.22736 -1.52685 0
M  V30 599 H 60.0211 -0.695556 0.272417 0
M  V30 600 H 62.6831 -1.43494 1.31892 0
M  V30 601 H 61.7791 -2.9389 1.05049 0
M  V30 602 N 62.0802 -0.821533 -1.34494 0
M  V30 603 C 63.0272 -0.240397 -2.29545 0
M  V30 604 C 63.9972 0.634031 -1.53523 0
M  V30 605 O 65.1822 0.575966 -1.81899 0
M  V30 606 C 62.3222 0.592869 -3.39969 0
M  V30 607 C 61.4352 -0.30365 -4.30932 0
M  V30 608 C 60.5702 0.539049 -5.28458 0
M  V30 609 C 59.6092 -0.356942 -6.11058 0
M  V30 610 N 58.7462 0.446603 -7.00678 0
M  V30 611 H 63.5862 -1.05632 -2.7865 0
M  V30 612 H 61.1232 -0.532413 -1.37127 0
M  V30 613 H 63.0812 1.09129 -4.02675 0
M  V30 614 H 61.7112 1.37392 -2.92102 0
M  V30 615 H 60.7632 -0.920276 -3.691 0
M  V30 616 H 62.0752 -0.992661 -4.88823 0
M  V30 617 H 61.2292 1.102 -5.96608 0
M  V30 618 H 59.9682 1.26157 -4.71101 0
M  V30 619 H 58.9732 -0.932047 -5.41842 0
M  V30 620 H 60.1982 -1.07755 -6.70497 0
M  V30 621 H 58.1442 1.15282 -6.45791 0
M  V30 622 H 58.0612 -0.184048 -7.55776 0
M  V30 623 H 59.3292 0.992352 -7.73158 0
M  V30 624 N 63.5583 1.46682 -0.576371 0
M  V30 625 C 64.8063 2.02013 -0.0594163 0
M  V30 626 C 65.1273 1.45101 1.30271 0
M  V30 627 O 64.3973 0.633317 1.8538 0
M  V30 628 H 62.9773 0.746759 -0.0189745 0
M  V30 629 H 65.6393 1.79862 -0.750717 0
M  V30 630 H 64.7353 3.12097 0.014345 0
M  V30 631 N 65.0364 0.313813 1.54444 0
M  V30 632 C 65.9664 -0.549454 2.26943 0
M  V30 633 C 66.9474 -1.12741 1.27372 0
M  V30 634 O 68.1324 -1.15436 1.56167 0
M  V30 635 C 65.2624 -1.71523 3.01989 0
M  V30 636 C 64.2164 -1.26703 4.08816 0
M  V30 637 C 63.5424 -2.51898 4.71647 0
M  V30 638 C 64.8424 -0.388962 5.2085 0
M  V30 639 H 66.5364 0.0552661 2.99349 0
M  V30 640 H 64.0824 0.0280207 1.43973 0
M  V30 641 H 66.0354 -2.32535 3.51433 0
M  V30 642 H 64.7594 -2.34639 2.27183 0
M  V30 643 H 63.4184 -0.679896 3.6024 0
M  V30 644 H 63.0664 -3.13356 3.93468 0
M  V30 645 H 62.7664 -2.22605 5.43802 0
M  V30 646 H 64.2904 -3.1369 5.23861 0
M  V30 647 H 65.7044 -0.905107 5.6611 0
M  V30 648 H 64.1014 -0.18924 5.99802 0
M  V30 649 H 65.1714 0.582699 4.81386 0
M  V30 650 N 66.5145 -1.57545 0.0417849 0
M  V30 651 C 67.4245 -2.14451 -0.951213 0
M  V30 652 C 68.4405 -1.09992 -1.34825 0
M  V30 653 O 69.6165 -1.42114 -1.42708 0
M  V30 654 C 66.6815 -2.67063 -2.21084 0
M  V30 655 C 65.7425 -3.86284 -1.87304 0
M  V30 656 C 64.9755 -4.36378 -3.07261 0
M  V30 657 O 65.1985 -3.85587 -4.20332 0
M  V30 658 O 64.1325 -5.28077 -2.88822 0
M  V30 659 H 67.9585 -2.99601 -0.497287 0
M  V30 660 H 65.5435 -1.48317 -0.179567 0
M  V30 661 H 67.4255 -3.00914 -2.95006 0
M  V30 662 H 66.1005 -1.84989 -2.65633 0
M  V30 663 H 65.0075 -3.57338 -1.10727 0
M  V30 664 H 66.3405 -4.6956 -1.47562 0
M  V30 665 N 67.9926 0.231505 -1.5589 0
M  V30 666 C 69.2386 0.954429 -1.79617 0
M  V30 667 C 69.5936 1.82367 -0.613199 0
M  V30 668 O 68.8866 1.87524 0.393094 0
M  V30 669 C 69.0806 1.83577 -3.0665 0
M  V30 670 C 68.9096 1.05334 -4.3719 0
M  V30 671 C 67.6796 0.75225 -4.99669 0
M  V30 672 C 69.8776 0.423444 -5.12554 0
M  V30 673 N 67.8596 -0.052627 -6.13877 0
M  V30 674 C 69.2306 -0.245287 -6.19515 0
M  V30 675 C 71.2856 0.335466 -4.96769 0
M  V30 676 C 69.9886 -0.993566 -7.12405 0
M  V30 677 C 72.0146 -0.399321 -5.9005 0
M  V30 678 C 71.3766 -1.05663 -6.9643 0
M  V30 679 H 67.4756 0.329846 -0.709031 0
M  V30 680 H 70.0596 0.226172 -1.93382 0
M  V30 681 H 68.2306 2.53592 -2.94186 0
M  V30 682 H 69.9626 2.49541 -3.18608 0
M  V30 683 H 66.7176 1.06783 -4.61405 0
M  V30 684 H 67.1416 -0.443609 -6.75545 0
M  V30 685 H 71.7836 0.829311 -4.14587 0
M  V30 686 H 69.5016 -1.49896 -7.94076 0
M  V30 687 H 73.0876 -0.468265 -5.79913 0
M  V30 688 H 71.9676 -1.61612 -7.67366 0
M  V30 689 N 69.4707 1.49531 0.497807 0
M  V30 690 C 70.7167 1.59415 1.25358 0
M  V30 691 C 71.0497 0.281422 1.9215 0
M  V30 692 O 70.3247 -0.715249 1.80871 0
M  V30 693 C 70.6077 2.75566 2.3181 0
M  V30 694 C 70.4607 4.16642 1.69498 0
M  V30 695 C 71.7797 2.87347 3.33346 0
M  V30 696 H 68.8987 0.580244 0.454408 0
M  V30 697 H 71.5407 1.81827 0.551262 0
M  V30 698 H 69.6907 2.56587 2.91711 0
M  V30 699 H 71.3627 4.47145 1.13399 0
M  V30 700 H 69.6057 4.22141 0.998978 0
M  V30 701 H 70.2767 4.93792 2.46725 0
M  V30 702 H 72.7527 3.04634 2.83438 0
M  V30 703 H 71.6287 3.70289 4.05188 0
M  V30 704 H 71.8897 1.96834 3.95865 0
M  V30 705 N 70.9488 -0.749086 1.3866 0
M  V30 706 C 72.1968 -1.50535 1.34847 0
M  V30 707 C 72.5178 -1.94909 -0.0595016 0
M  V30 708 O 71.7878 -1.67973 -1.00806 0
M  V30 709 H 70.3678 -0.558395 0.49619 0
M  V30 710 H 73.0298 -0.890165 1.73384 0
M  V30 711 H 72.1258 -2.39413 2.00219 0
M  V30 712 N 72.4269 -1.23603 -0.977757 0
M  V30 713 C 73.6759 -1.06377 -1.71368 0
M  V30 714 C 73.9889 0.399062 -1.91486 0
M  V30 715 O 75.1949 0.691312 -2.62551 0
M  V30 716 C 73.6509 -1.85512 -3.08404 0
M  V30 717 C 73.2589 -3.36141 -2.96164 0
M  V30 718 C 75.0029 -1.76783 -3.85938 0
M  V30 719 C 72.9099 -4.07659 -4.28449 0
M  V30 720 H 71.8399 -0.394452 -0.642591 0
M  V30 721 H 74.4909 -1.47594 -1.09034 0
M  V30 722 H 72.8729 -1.37103 -3.71509 0
M  V30 723 H 74.0469 -3.92056 -2.42133 0
M  V30 724 H 72.3619 -3.45712 -2.32104 0
M  V30 725 H 74.9589 -2.27526 -4.83876 0
M  V30 726 H 75.3019 -0.731116 -4.0983 0
M  V30 727 H 75.8349 -2.22818 -3.2954 0
M  V30 728 H 72.5739 -5.11648 -4.09752 0
M  V30 729 H 72.0939 -3.5653 -4.82334 0
M  V30 730 H 73.7729 -4.141 -4.97122 0
M  V30 731 N 73.905 1.17692 -1.04816 0
M  V30 732 C 74.838 2.20436 -0.590173 0
M  V30 733 C 75.816 1.58115 0.379244 0
M  V30 734 O 77 1.86228 0.291762 0
M  V30 735 C 74.127 3.38424 0.136817 0
M  V30 736 C 73.173 4.19176 -0.787023 0
M  V30 737 S 74.006 4.84815 -2.27409 0
M  V30 738 C 75.162 6.06195 -1.55817 0
M  V30 739 H 75.395 2.58944 -1.46067 0
M  V30 740 H 72.928 1.28246 -0.859784 0
M  V30 741 H 74.886 4.06798 0.550076 0
M  V30 742 H 73.547 2.98312 0.983299 0
M  V30 743 H 72.74 5.03499 -0.224681 0
M  V30 744 H 72.342 3.56219 -1.13947 0
M  V30 745 H 74.634 6.72078 -0.855387 0
M  V30 746 H 75.577 6.6695 -2.37873 0
M  V30 747 H 75.985 5.54701 -1.04722 0
M  V30 748 N 75.3831 0.828654 1.34056 0
M  V30 749 C 76.6321 0.415828 1.97367 0
M  V30 750 C 76.9451 -1.02796 1.6641 0
M  V30 751 O 78.1511 -1.54497 2.23255 0
M  V30 752 C 76.6071 0.692601 3.53173 0
M  V30 753 C 76.2151 2.15038 3.93017 0
M  V30 754 C 77.9591 0.346222 4.23086 0
M  V30 755 C 75.8661 2.37174 5.41758 0
M  V30 756 H 74.7961 0.151755 0.738571 0
M  V30 757 H 77.4471 1.01581 1.52819 0
M  V30 758 H 75.8291 0.0223764 3.95994 0
M  V30 759 H 77.0031 2.86024 3.61285 0
M  V30 760 H 75.3181 2.45875 3.36057 0
M  V30 761 H 77.9151 0.48937 5.32456 0
M  V30 762 H 78.2581 -0.709842 4.10204 0
M  V30 763 H 78.7911 0.971258 3.85761 0
M  V30 764 H 75.5301 3.41308 5.59633 0
M  V30 765 H 75.0501 1.70738 5.74986 0
M  V30 766 H 76.7291 2.19818 6.08514 0
M  V30 767 N 76.8612 -1.46375 0.584142 0
M  V30 768 C 77.8112 -2.27371 -0.169232 0
M  V30 769 C 78.7952 -1.35955 -0.860523 0
M  V30 770 O 79.9872 -1.60119 -0.754382 0
M  V30 771 C 77.1162 -3.22334 -1.18134 0
M  V30 772 C 76.2022 -4.21235 -0.492088 0
M  V30 773 N 76.5932 -5.03766 0.453129 0
M  V30 774 C 74.8912 -4.39773 -0.742652 0
M  V30 775 C 75.5922 -5.75366 0.85609 0
M  V30 776 N 74.5682 -5.43214 0.204926 0
M  V30 777 H 78.3702 -2.88572 0.557097 0
M  V30 778 H 75.8842 -1.57242 0.406042 0
M  V30 779 H 77.8812 -3.79071 -1.73525 0
M  V30 780 H 76.5412 -2.62693 -1.90847 0
M  V30 781 H 77.5522 -5.11227 0.828723 0
M  V30 782 H 74.2292 -3.91279 -1.45625 0
M  V30 783 H 75.6192 -6.5172 1.63434 0
M  V30 784 N 78.3393 -0.321999 -1.54275 0
M  V30 785 C 79.7503 0.166384 -1.85957 0
M  V30 786 C 80.1013 1.51747 -1.24367 0
M  V30 787 O 79.2263 2.09317 -0.549124 0
M  V30 788 C 79.8213 0.308681 -3.37391 0
M  V30 789 C 78.3803 0.741286 -3.69028 0
M  V30 790 C 77.5273 -0.137937 -2.76957 0
M  V30 791 H 80.4783 -0.542335 -1.49146 0
M  V30 792 H 80.4993 1.13984 -3.63026 0
M  V30 793 H 80.0113 -0.674809 -3.82188 0
M  V30 794 H 78.1123 1.73458 -3.29762 0
M  V30 795 H 78.2253 0.546118 -4.75977 0
M  V30 796 H 76.5893 0.386251 -2.51754 0
M  V30 797 H 77.3723 -1.11816 -3.2458 0
M  V30 798 N 79.8174 1.5752 -0.0501392 0
M  V30 799 C 81.0424 1.97376 0.636997 0
M  V30 800 C 81.4674 0.927466 1.63645 0
M  V30 801 O 80.8254 -0.10941 1.8097 0
M  V30 802 C 80.8734 3.36304 1.30123 0
M  V30 803 O 79.9774 3.34156 2.41689 0
M  V30 804 H 79.3184 0.642998 0.165679 0
M  V30 805 H 81.8484 2.04258 -0.118233 0
M  V30 806 H 81.8584 3.73008 1.65315 0
M  V30 807 H 80.5334 4.11993 0.568746 0
M  V30 808 H 79.1104 3.09196 2.08451 0
M  V30 809 N 81.2955 -0.223234 1.56011 0
M  V30 810 C 82.5725 -0.972108 1.69733 0
M  V30 811 C 82.9525 -2.02485 0.59691 0
M  V30 812 O 82.3005 -2.25037 -0.396324 0
M  V30 813 C 82.5105 -1.58407 3.10979 0
M  V30 814 C 83.8585 -2.07696 3.70334 0
M  V30 815 O 84.8825 -1.68304 3.1393 0
M  V30 816 O 83.7415 -2.80096 4.69264 0
M  V30 817 H 80.8355 -0.453993 0.691245 0
M  V30 818 H 83.3815 -0.215149 1.68331 0
M  V30 819 H 82.1535 -0.823831 3.82529 0
M  V30 820 H 81.7765 -2.40661 3.16493 0
M  V30 821 N 82.7736 -1.49793 -0.48987 0
M  V30 822 C 83.9986 -1.63836 -1.27172 0
M  V30 823 C 84.4236 -0.31402 -1.8546 0
M  V30 824 O 83.7816 0.719803 -1.66399 0
M  V30 825 C 83.8296 -2.71797 -2.36978 0
M  V30 826 O 82.9336 -2.31744 -3.41128 0
M  V30 827 H 82.2746 -0.547997 -0.37496 0
M  V30 828 H 84.8046 -1.96053 -0.585191 0
M  V30 829 H 84.8146 -2.94305 -2.82575 0
M  V30 830 H 83.4896 -3.67923 -1.93921 0
M  V30 831 H 82.0666 -2.1961 -3.01373 0
M  V30 832 N 84.2517 0.741722 -1.39055 0
M  V30 833 C 85.1617 1.88621 -1.39496 0
M  V30 834 C 86.1777 1.71557 -0.290578 0
M  V30 835 O 87.3537 1.94275 -0.530954 0
M  V30 836 C 84.4187 3.24134 -1.23037 0
M  V30 837 C 83.4797 3.5364 -2.43387 0
M  V30 838 C 82.7127 4.82687 -2.27703 0
M  V30 839 O 82.9357 5.55922 -1.27696 0
M  V30 840 O 81.8697 5.1194 -3.16545 0
M  V30 841 H 85.6957 1.91203 -2.35956 0
M  V30 842 H 83.2807 0.888625 -1.20099 0
M  V30 843 H 85.1627 4.0513 -1.15964 0
M  V30 844 H 83.8377 3.22337 -0.296691 0
M  V30 845 H 82.7447 2.72758 -2.56035 0
M  V30 846 H 84.0777 3.60209 -3.35425 0
M  V30 847 N 85.7298 1.2412 0.971189 0
M  V30 848 C 86.9578 1.10575 1.74874 0
M  V30 849 C 87.3728 -0.342017 1.85676 0
M  V30 850 O 86.7298 -1.23617 1.34258 0
M  V30 851 C 86.7808 1.73579 3.171 0
M  V30 852 O 86.5018 3.12695 3.06844 0
M  V30 853 C 88.0028 1.65598 4.11208 0
M  V30 854 H 85.2228 0.386504 0.548503 0
M  V30 855 H 87.7668 1.64156 1.21955 0
M  V30 856 H 85.9218 1.24009 3.67016 0
M  V30 857 H 86.3358 3.43412 3.96445 0
M  V30 858 H 87.8098 2.1437 5.08674 0
M  V30 859 H 88.2868 0.616532 4.34851 0
M  V30 860 H 88.8928 2.14578 3.67201 0
M  V30 861 N 87.2079 -1.17134 1.05439 0
M  V30 862 C 88.6239 -1.39454 0.776201 0
M  V30 863 C 88.8239 -1.91454 -0.628307 0
M  V30 864 O 87.8799 -2.10777 -1.39031 0
M  V30 865 C 89.1929 -2.38305 1.83388 0
M  V30 866 C 90.7409 -2.52006 1.85639 0
M  V30 867 C 91.2159 -3.54133 2.90437 0
M  V30 868 N 92.7069 -3.61653 2.89415 0
M  V30 869 C 93.4419 -4.4044 3.67152 0
M  V30 870 N 92.9379 -5.22721 4.54681 0
M  V30 871 N 94.7309 -4.35337 3.55581 0
M  V30 872 H 86.8819 -0.817134 1.96053 0
M  V30 873 H 89.1449 -0.421626 0.849079 0
M  V30 874 H 88.8509 -2.07173 2.84204 0
M  V30 875 H 88.7249 -3.37841 1.67761 0
M  V30 876 H 91.1119 -2.82447 0.85486 0
M  V30 877 H 91.1929 -1.52537 2.05344 0
M  V30 878 H 90.8369 -3.24431 3.90777 0
M  V30 879 H 90.7669 -4.53313 2.67983 0
M  V30 880 H 93.2579 -3.02909 2.25952 0
M  V30 881 H 93.5709 -5.80027 5.10674 0
M  V30 882 H 91.9159 -5.22093 4.58741 0
M  V30 883 H 95.1069 -3.70112 2.86592 0
M  V30 884 H 95.2799 -4.96494 4.1641 0
M  V30 885 N 88.686 -0.835752 -1.33615 0
M  V30 886 C 89.916 -0.442701 -2.01801 0
M  V30 887 C 90.324 0.959807 -1.63047 0
M  V30 888 O 89.667 1.63468 -0.838088 0
M  V30 889 C 89.729 -0.480125 -3.56279 0
M  V30 890 C 89.393 -1.8382 -4.18401 0
M  V30 891 C 90.39 -2.80097 -4.37998 0
M  V30 892 C 88.075 -2.13019 -4.54894 0
M  V30 893 C 90.069 -4.03736 -4.9323 0
M  V30 894 C 87.756 -3.36916 -5.09834 0
M  V30 895 C 88.754 -4.32091 -5.28948 0
M  V30 896 O 88.442 -5.53797 -5.82721 0
M  V30 897 H 88.174 -0.17441 -0.653114 0
M  V30 898 H 90.728 -1.129 -1.71589 0
M  V30 899 H 88.958 0.262931 -3.85805 0
M  V30 900 H 90.647 -0.105335 -4.05763 0
M  V30 901 H 91.413 -2.58838 -4.10156 0
M  V30 902 H 87.292 -1.39733 -4.39313 0
M  V30 903 H 90.836 -4.78034 -5.08064 0
M  V30 904 H 86.733 -3.58033 -5.37106 0
M  V30 905 H 87.501 -5.55494 -6.0114 0
M  V30 906 N 90.1641 1.46063 -0.591896 0
M  V30 907 C 91.1121 2.32124 0.148739 0
M  V30 908 C 92.1061 1.45035 0.875286 0
M  V30 909 O 93.3121 1.61609 0.792632 0
M  V30 910 H 89.6871 0.749024 0.066832 0
M  V30 911 H 91.6581 2.92392 -0.595783 0
M  V30 912 C 90.4071 3.28373 1.1431 0
M  V30 913 H 89.7301 3.95371 0.59346 0
M  V30 914 H 91.1701 3.91352 1.63155 0
M  V30 915 C 89.6291 2.54393 2.20875 0
M  V30 916 O 90.1591 2.31373 3.28374 0
M  V30 917 N 88.3651 2.14797 1.95731 0
M  V30 918 H 87.9121 2.33719 1.08319 0
M  V30 919 H 87.8701 1.65619 2.67241 0
M  V30 920 N 91.6422 0.330177 1.54103 0
M  V30 921 C 92.5742 -0.566902 2.22079 0
M  V30 922 C 93.5872 -1.07462 1.22294 0
M  V30 923 O 94.7762 -0.987065 1.48726 0
M  V30 924 C 91.8762 -1.79138 2.87685 0
M  V30 925 C 91.0492 -1.42123 4.13666 0
M  V30 926 C 90.1082 -2.50394 4.62806 0
M  V30 927 O 89.1342 -2.14261 5.27334 0
M  V30 928 N 90.3362 -3.81433 4.37595 0
M  V30 929 H 93.1012 0.0151844 2.99696 0
M  V30 930 H 90.6622 0.153681 1.61169 0
M  V30 931 H 92.6542 -2.50975 3.1748 0
M  V30 932 H 91.2242 -2.28115 2.13734 0
M  V30 933 H 90.4442 -0.534201 3.90564 0
M  V30 934 H 91.7322 -1.14971 4.9564 0
M  V30 935 H 91.1302 -4.13584 3.8596 0
M  V30 936 H 89.6872 -4.4948 4.72029 0
M  V30 937 N 93.1203 -1.57491 0.0584922 0
M  V30 938 C 94.0673 -2.11958 -0.913376 0
M  V30 939 C 95.0373 -1.02875 -1.30407 0
M  V30 940 O 96.2223 -1.30464 -1.39226 0
M  V30 941 C 93.3623 -2.67497 -2.18035 0
M  V30 942 C 92.4753 -3.90691 -1.84349 0
M  V30 943 C 91.6103 -4.3452 -3.05559 0
M  V30 944 C 90.6493 -5.50395 -2.67827 0
M  V30 945 N 89.7863 -5.89244 -3.81754 0
M  V30 946 H 94.6263 -2.94704 -0.442017 0
M  V30 947 H 92.1633 -1.45643 -0.206545 0
M  V30 948 H 94.1213 -2.978 -2.92183 0
M  V30 949 H 92.7513 -1.87537 -2.62735 0
M  V30 950 H 91.8033 -3.66934 -1.00319 0
M  V30 951 H 93.1153 -4.7489 -1.5258 0
M  V30 952 H 92.2693 -4.66414 -3.87998 0
M  V30 953 H 91.0083 -3.49147 -3.40511 0
M  V30 954 H 90.0133 -5.18165 -1.83806 0
M  V30 955 H 91.2383 -6.3749 -2.34059 0
M  V30 956 H 89.1843 -5.06823 -4.16493 0
M  V30 957 H 89.1013 -6.68151 -3.53708 0
M  V30 958 H 90.3693 -6.25756 -4.64811 0
M  V30 959 N 94.5984 0.214957 -1.56127 0
M  V30 960 C 95.8454 0.938372 -1.79446 0
M  V30 961 C 96.1734 1.8407 -0.628378 0
M  V30 962 O 95.4284 1.91837 0.386925 0
M  V30 963 C 95.7274 1.80314 -3.0858 0
M  V30 964 C 95.3934 1.05349 -4.3842 0
M  V30 965 C 94.0554 0.846435 -4.73697 0
M  V30 966 C 96.4074 0.524588 -5.18553 0
M  V30 967 C 93.7354 0.098683 -5.86617 0
M  V30 968 C 96.0874 -0.209853 -6.32252 0
M  V30 969 C 94.7514 -0.428102 -6.66126 0
M  V30 970 H 94.0214 0.343375 -0.656639 0
M  V30 971 H 96.6684 0.206077 -1.90388 0
M  V30 972 H 94.9734 2.6035 -2.92789 0
M  V30 973 H 96.6704 2.36513 -3.23825 0
M  V30 974 H 93.2604 1.22486 -4.10725 0
M  V30 975 H 97.4444 0.672008 -4.91729 0
M  V30 976 H 92.7004 -0.0805753 -6.11347 0
M  V30 977 H 96.8744 -0.627157 -6.9357 0
M  V30 978 H 94.5014 -1.00944 -7.53468 0
M  V30 979 N 96.0765 1.50051 0.48192 0
M  V30 980 C 97.0235 1.68122 1.58125 0
M  V30 981 C 97.9935 0.522545 1.57666 0
M  V30 982 O 99.1785 0.751844 1.75362 0
M  V30 983 C 96.3185 1.77142 2.96167 0
M  V30 984 C 95.4315 3.0444 3.06497 0
M  V30 985 C 94.5665 3.04321 4.35387 0
M  V30 986 C 93.6055 4.26118 4.3942 0
M  V30 987 N 92.7425 4.238 5.59766 0
M  V30 988 H 97.5825 2.6198 1.42022 0
M  V30 989 H 95.1195 1.29877 0.690687 0
M  V30 990 H 97.0775 1.80352 3.76203 0
M  V30 991 H 95.7075 0.867329 3.1093 0
M  V30 992 H 94.7595 3.10752 2.19402 0
M  V30 993 H 96.0715 3.94426 3.05336 0
M  V30 994 H 95.2255 3.062 5.23762 0
M  V30 995 H 93.9645 2.12147 4.39141 0
M  V30 996 H 92.9695 4.24463 3.49444 0
M  V30 997 H 94.1945 5.19507 4.37366 0
M  V30 998 H 92.1405 3.34474 5.64326 0
M  V30 999 H 92.0575 5.07542 5.60301 0
M  V30 1000 H 93.3255 4.2981 6.50295 0
M  V30 1001 N 97.5546 -0.734337 1.39446 0
M  V30 1002 C 98.8316 -1.48579 1.27215 0
M  V30 1003 C 99.2116 -2.1077 -0.117968 0
M  V30 1004 O 98.5596 -1.98646 -1.12924 0
M  V30 1005 C 98.7696 -2.53667 2.39696 0
M  V30 1006 C 100.118 -3.20031 2.79044 0
M  V30 1007 O 101.142 -2.6398 2.39151 0
M  V30 1008 O 100.001 -4.21455 3.47905 0
M  V30 1009 H 97.0946 -0.659816 0.49857 0
M  V30 1010 H 99.6406 -0.768106 1.51322 0
M  V30 1011 H 98.4126 -2.06096 3.32626 0
M  V30 1012 H 98.0356 -3.32994 2.17258 0
M  V30 1013 N 99.0327 -1.24633 -0.964593 0
M  V30 1014 C 100.282 -1.08188 -1.7023 0
M  V30 1015 C 100.595 0.37873 -1.91898 0
M  V30 1016 O 101.801 0.663427 -2.6327 0
M  V30 1017 C 100.257 -1.88773 -3.06419 0
M  V30 1018 C 99.8647 -3.39263 -2.92582 0
M  V30 1019 C 101.609 -1.80867 -3.84041 0
M  V30 1020 C 99.5157 -4.1218 -4.24101 0
M  V30 1021 H 98.4457 -0.401245 -0.638372 0
M  V30 1022 H 101.097 -1.48742 -1.07462 0
M  V30 1023 H 99.4787 -1.41035 -3.70034 0
M  V30 1024 H 100.653 -3.94603 -2.37961 0
M  V30 1025 H 98.9677 -3.48154 -2.28424 0
M  V30 1026 H 101.565 -2.32646 -4.81435 0
M  V30 1027 H 101.908 -0.774543 -4.09031 0
M  V30 1028 H 102.441 -2.26301 -3.27159 0
M  V30 1029 H 99.1797 -5.15965 -4.04303 0
M  V30 1030 H 98.6997 -3.61626 -4.78526 0
M  V30 1031 H 100.379 -4.19349 -4.92702 0
M  V30 1032 N 100.511 1.16574 -1.06058 0
M  V30 1033 C 101.927 1.3904 -0.783585 0
M  V30 1034 C 102.127 1.91784 0.618145 0
M  V30 1035 O 101.183 2.11511 1.37911 0
M  V30 1036 C 102.496 2.37329 -1.84649 0
M  V30 1037 C 104.044 2.51018 -1.86973 0
M  V30 1038 C 104.519 3.52588 -2.92311 0
M  V30 1039 N 106.01 3.60113 -2.91329 0
M  V30 1040 C 106.745 4.38486 -3.69482 0
M  V30 1041 N 106.241 5.20302 -4.57447 0
M  V30 1042 N 108.034 4.33446 -3.57885 0
M  V30 1043 H 100.185 0.806725 -1.96483 0
M  V30 1044 H 102.448 0.417117 -0.851303 0
M  V30 1045 H 102.154 2.05663 -2.85299 0
M  V30 1046 H 102.028 3.36946 -1.6955 0
M  V30 1047 H 104.415 2.81989 -0.869827 0
M  V30 1048 H 104.496 1.51445 -2.0615 0
M  V30 1049 H 104.14 3.22354 -3.92492 0
M  V30 1050 H 104.07 4.51886 -2.70383 0
M  V30 1051 H 106.561 3.01707 -2.27555 0
M  V30 1052 H 106.874 5.77311 -5.13743 0
M  V30 1053 H 105.219 5.19653 -4.61503 0
M  V30 1054 H 108.41 3.68586 -2.88551 0
M  V30 1055 H 108.583 4.94279 -4.19037 0
M  V30 1056 N 101.989 0.842826 1.3317 0
M  V30 1057 C 103.236 0.440447 1.97652 0
M  V30 1058 C 103.564 -1.00123 1.6675 0
M  V30 1059 O 102.819 -1.7155 0.941761 0
M  V30 1060 C 103.118 0.612607 3.52111 0
M  V30 1061 C 102.784 2.02297 4.02972 0
M  V30 1062 C 101.446 2.40874 4.16573 0
M  V30 1063 C 103.798 2.94402 4.30089 0
M  V30 1064 C 101.126 3.70852 4.54627 0
M  V30 1065 C 103.478 4.23865 4.69597 0
M  V30 1066 C 102.142 4.62392 4.81404 0
M  V30 1067 H 101.412 0.161171 0.72326 0
M  V30 1068 H 104.059 1.07061 1.58777 0
M  V30 1069 H 102.364 -0.100849 3.9167 0
M  V30 1070 H 104.061 0.2815 4.00011 0
M  V30 1071 H 100.651 1.71338 3.92863 0
M  V30 1072 H 104.835 2.65835 4.19101 0
M  V30 1073 H 100.091 4.00501 4.61962 0
M  V30 1074 H 104.265 4.95306 4.89536 0
M  V30 1075 H 101.892 5.63154 5.10648 0
M  V30 1076 N 103.467 -1.45747 0.599634 0
M  V30 1077 C 104.695 -2.06668 0.0978551 0
M  V30 1078 C 105.11 -1.44562 -1.21439 0
M  V30 1079 O 104.467 -0.556923 -1.73795 0
M  V30 1080 C 104.518 -3.61456 -0.0567044 0
M  V30 1081 O 104.239 -4.21242 1.20361 0
M  V30 1082 C 105.74 -4.39345 -0.590869 0
M  V30 1083 H 102.96 -0.667825 0.0651943 0
M  V30 1084 H 105.504 -1.87115 0.82511 0
M  V30 1085 H 103.659 -3.80378 -0.734251 0
M  V30 1086 H 104.073 -5.14323 1.02821 0
M  V30 1087 H 105.547 -5.48182 -0.648131 0
M  V30 1088 H 106.024 -4.08568 -1.61147 0
M  V30 1089 H 106.63 -4.25268 0.0523679 0
M  V30 1090 N 104.945 -0.338344 -1.53925 0
M  V30 1091 C 106.194 0.260732 -2.00008 0
M  V30 1092 C 106.507 1.52073 -1.23017 0
M  V30 1093 O 107.713 2.19672 -1.5955 0
M  V30 1094 C 106.169 0.51515 -3.56194 0
M  V30 1095 C 105.777 -0.728645 -4.42035 0
M  V30 1096 C 107.521 1.07337 -4.10706 0
M  V30 1097 C 105.428 -0.445315 -5.89721 0
M  V30 1098 H 104.358 0.101205 -0.747177 0
M  V30 1099 H 107.009 -0.452866 -1.77824 0
M  V30 1100 H 105.391 1.28932 -3.74423 0
M  V30 1101 H 106.565 -1.50352 -4.35581 0
M  V30 1102 H 104.88 -1.20813 -3.98489 0
M  V30 1103 H 107.477 1.30022 -5.18651 0
M  V30 1104 H 107.82 2.0273 -3.63602 0
M  V30 1105 H 108.353 0.360034 -3.96167 0
M  V30 1106 H 105.092 -1.36883 -6.41049 0
M  V30 1107 H 104.612 0.291569 -5.99091 0
M  V30 1108 H 106.291 -0.0606218 -6.46972 0
M  V30 1109 N 106.423 1.57458 -0.0668435 0
M  V30 1110 C 107.648 1.9804 0.616027 0
M  V30 1111 C 108.073 0.944771 1.62652 0
M  V30 1112 O 107.431 -0.0902094 1.81075 0
M  V30 1113 C 107.479 3.37665 1.26549 0
M  V30 1114 O 106.583 3.36701 2.38131 0
M  V30 1115 H 105.924 0.644719 0.158849 0
M  V30 1116 H 108.454 2.04121 -0.139891 0
M  V30 1117 H 108.464 3.7474 1.6135 0
M  V30 1118 H 107.139 4.12573 0.525016 0
M  V30 1119 H 105.716 3.1139 2.0516 0
M  V30 1120 N 107.901 -0.206675 1.56239 0
M  V30 1121 C 109.147 -0.930218 1.80208 0
M  V30 1122 C 109.48 -1.83387 0.638981 0
M  V30 1123 O 108.755 -1.91119 -0.361066 0
M  V30 1124 C 109.038 -1.75641 3.1436 0
M  V30 1125 C 108.891 -0.878257 4.41142 0
M  V30 1126 C 110.21 -2.73129 3.45092 0
M  V30 1127 H 107.329 -0.336742 0.655571 0
M  V30 1128 H 109.971 -0.198222 1.88963 0
M  V30 1129 H 108.121 -2.38048 3.07027 0
M  V30 1130 H 109.793 -0.269787 4.6051 0
M  V30 1131 H 108.036 -0.184385 4.33408 0
M  V30 1132 H 108.707 -1.49106 5.3148 0
M  V30 1133 H 111.183 -2.20856 3.52649 0
M  V30 1134 H 110.059 -3.28028 4.40101 0
M  V30 1135 H 110.32 -3.51606 2.68003 0
M  V30 1136 N 109.379 -1.50304 -0.473955 0
M  V30 1137 C 110.656 -1.51667 -1.23518 0
M  V30 1138 C 111.036 -0.259701 -2.09496 0
M  V30 1139 O 110.384 0.756986 -2.15597 0
M  V30 1140 C 110.594 -2.81082 -2.06868 0
M  V30 1141 C 111.942 -3.31631 -2.65153 0
M  V30 1142 O 112.966 -2.82384 -2.17113 0
M  V30 1143 O 111.825 -4.17471 -3.52675 0
M  V30 1144 H 108.919 -0.60822 -0.560355 0
M  V30 1145 H 111.465 -1.62592 -0.486011 0
M  V30 1146 H 110.237 -3.64041 -1.4349 0
M  V30 1147 H 109.86 -2.73146 -2.88924 0
M  V30 1148 N 110.857 0.726932 -1.39834 0
M  V30 1149 C 111.804 1.841 -1.39197 0
M  V30 1150 C 112.774 1.642 -0.250502 0
M  V30 1151 O 113.959 1.85494 -0.446846 0
M  V30 1152 C 111.099 3.21697 -1.24919 0
M  V30 1153 C 110.212 3.53247 -2.48678 0
M  V30 1154 C 109.347 4.80289 -2.26928 0
M  V30 1155 C 108.386 5.04707 -3.4632 0
M  V30 1156 N 107.523 6.22956 -3.23836 0
M  V30 1157 H 112.363 1.83979 -2.34427 0
M  V30 1158 H 109.9 0.898876 -1.16442 0
M  V30 1159 H 111.858 4.01137 -1.1465 0
M  V30 1160 H 110.488 3.21076 -0.333153 0
M  V30 1161 H 109.54 2.68447 -2.69519 0
M  V30 1162 H 110.852 3.67205 -3.37582 0
M  V30 1163 H 110.006 5.67725 -2.13947 0
M  V30 1164 H 108.745 4.68519 -1.35431 0
M  V30 1165 H 107.75 4.1573 -3.5979 0
M  V30 1166 H 108.975 5.18357 -4.38729 0
M  V30 1167 H 106.921 6.12459 -2.35011 0
M  V30 1168 H 106.838 6.37539 -4.063 0
M  V30 1169 H 108.106 7.1321 -3.14566 0
M  V30 1170 N 112.336 1.25143 0.95797 0
M  V30 1171 C 113.561 1.12521 1.74223 0
M  V30 1172 C 113.986 -0.317402 1.85403 0
M  V30 1173 O 113.344 -1.2299 1.33204 0
M  V30 1174 C 113.392 1.78062 3.1357 0
M  V30 1175 O 112.496 1.058 3.98598 0
M  V30 1176 H 111.837 0.39304 0.535178 0
M  V30 1177 H 114.367 1.65641 1.201 0
M  V30 1178 H 114.377 1.84213 3.64046 0
M  V30 1179 H 113.052 2.83021 3.04749 0
M  V30 1180 H 111.629 1.07506 3.57067 0
M  V30 1181 N 113.814 -1.1601 1.06675 0
M  V30 1182 C 114.761 -2.20525 0.680967 0
M  V30 1183 C 115.731 -1.62904 -0.324283 0
M  V30 1184 O 116.916 -1.89615 -0.212294 0
M  V30 1185 C 114.056 -3.45013 0.0776551 0
M  V30 1186 C 113.169 -4.16863 1.13355 0
M  V30 1187 C 112.304 -5.2888 0.49597 0
M  V30 1188 C 111.343 -5.92537 1.53513 0
M  V30 1189 N 110.48 -6.96038 0.920631 0
M  V30 1190 H 115.32 -2.52876 1.57663 0
M  V30 1191 H 112.857 -1.24199 0.788223 0
M  V30 1192 H 114.815 -4.16193 -0.289704 0
M  V30 1193 H 113.445 -3.132 -0.781393 0
M  V30 1194 H 112.497 -3.44248 1.61857 0
M  V30 1195 H 113.809 -4.60294 1.92174 0
M  V30 1196 H 112.963 -6.06653 0.0758604 0
M  V30 1197 H 111.702 -4.86622 -0.324062 0
M  V30 1198 H 110.707 -5.13482 1.9651 0
M  V30 1199 H 111.932 -6.36873 2.35733 0
M  V30 1200 H 109.878 -6.55888 0.12138 0
M  V30 1201 H 109.795 -7.3786 1.64616 0
M  V30 1202 H 111.063 -7.77725 0.525795 0
M  V30 1203 N 115.292 -0.849877 -1.32721 0
M  V30 1204 C 116.24 -0.279745 -2.30912 0
M  V30 1205 C 117.234 0.594278 -1.58634 0
M  V30 1206 O 118.44 0.482613 -1.73409 0
M  V30 1207 H 114.815 -0.0717521 -0.748569 0
M  V30 1208 H 116.786 -1.12222 -2.76494 0
M  V30 1209 C 115.535 0.521108 -3.43773 0
M  V30 1210 H 114.858 -0.142141 -3.99547 0
M  V30 1211 H 116.298 0.885693 -4.14646 0
M  V30 1212 C 114.757 1.70442 -2.90605 0
M  V30 1213 O 115.287 2.8034 -2.87702 0
M  V30 1214 N 113.493 1.52991 -2.47067 0
M  V30 1215 H 113.04 0.635914 -2.49628 0
M  V30 1216 H 112.998 2.32311 -2.11847 0
M  V30 1217 N 116.77 1.45427 -0.607355 0
M  V30 1218 C 117.998 2.06614 -0.108814 0
M  V30 1219 C 118.413 1.45204 1.2067 0
M  V30 1220 O 117.77 0.566132 1.73497 0
M  V30 1221 C 117.821 3.61481 0.0375347 0
M  V30 1222 O 117.542 4.20598 -1.22593 0
M  V30 1223 C 119.043 4.39652 0.567561 0
M  V30 1224 H 116.263 0.66747 -0.0687351 0
M  V30 1225 H 118.807 1.86675 -0.835022 0
M  V30 1226 H 116.962 3.80762 0.714068 0
M  V30 1227 H 117.376 5.1377 -1.05547 0
M  V30 1228 H 118.85 5.48518 0.61905 0
M  V30 1229 H 119.327 4.09417 1.58978 0
M  V30 1230 H 119.933 4.25234 -0.0749202 0
M  V30 1231 N 118.248 0.346503 1.53744 0
M  V30 1232 C 119.178 -0.501193 2.28058 0
M  V30 1233 C 120.159 -1.10014 1.29734 0
M  V30 1234 O 121.344 -1.12097 1.58581 0
M  V30 1235 C 118.474 -1.65078 3.05559 0
M  V30 1236 C 117.428 -1.18003 4.11411 0
M  V30 1237 C 116.754 -2.41837 4.76884 0
M  V30 1238 C 118.054 -0.278394 5.21558 0
M  V30 1239 H 119.748 0.11875 2.99164 0
M  V30 1240 H 117.294 0.0585531 1.43881 0
M  V30 1241 H 119.247 -2.25028 3.56287 0
M  V30 1242 H 117.971 -2.29767 2.32109 0
M  V30 1243 H 116.63 -0.603331 3.61601 0
M  V30 1244 H 116.278 -3.0494 4.00026 0
M  V30 1245 H 115.978 -2.1102 5.48402 0
M  V30 1246 H 117.502 -3.02508 5.30397 0
M  V30 1247 H 118.916 -0.784823 5.67903 0
M  V30 1248 H 117.313 -0.0619707 6.00068 0
M  V30 1249 H 118.383 0.684677 4.80042 0
M  V30 1250 N 119.726 -1.57421 0.075193 0
M  V30 1251 C 120.956 -1.97659 -0.601203 0
M  V30 1252 C 121.364 -0.952427 -1.63479 0
M  V30 1253 O 120.707 0.0688241 -1.83571 0
M  V30 1254 C 120.769 -3.34218 -1.32434 0
M  V30 1255 C 120.433 -4.5484 -0.443826 0
M  V30 1256 C 121.43 -5.19034 0.299969 0
M  V30 1257 C 119.115 -5.00952 -0.367709 0
M  V30 1258 C 121.109 -6.27695 1.10807 0
M  V30 1259 C 118.796 -6.09484 0.444058 0
M  V30 1260 C 119.794 -6.72719 1.18061 0
M  V30 1261 O 119.482 -7.79161 1.97898 0
M  V30 1262 H 119.214 -0.65494 -0.167422 0
M  V30 1263 H 121.768 -2.04886 0.145157 0
M  V30 1264 H 119.998 -3.23615 -2.11685 0
M  V30 1265 H 121.687 -3.59038 -1.89331 0
M  V30 1266 H 122.453 -4.84351 0.250776 0
M  V30 1267 H 118.332 -4.51509 -0.930638 0
M  V30 1268 H 121.876 -6.76982 1.68347 0
M  V30 1269 H 117.773 -6.43601 0.494803 0
M  V30 1270 H 118.541 -7.96055 1.90367 0
M  V30 1271 N 121.204 0.198386 -1.56346 0
M  V30 1272 C 122.134 1.24865 -1.9731 0
M  V30 1273 C 123.115 1.47651 -0.844576 0
M  V30 1274 O 124.3 1.59444 -1.10866 0
M  V30 1275 C 121.43 2.59358 -2.30977 0
M  V30 1276 C 120.384 2.5119 -3.46537 0
M  V30 1277 C 119.71 3.89926 -3.65871 0
M  V30 1278 C 121.01 2.03977 -4.80823 0
M  V30 1279 H 122.704 0.908252 -2.85291 0
M  V30 1280 H 120.25 0.435462 -1.37258 0
M  V30 1281 H 122.203 3.33011 -2.58228 0
M  V30 1282 H 120.927 2.95132 -1.39874 0
M  V30 1283 H 119.586 1.79993 -3.19371 0
M  V30 1284 H 119.234 4.23046 -2.72105 0
M  V30 1285 H 118.934 3.85336 -4.4361 0
M  V30 1286 H 120.458 4.65205 -3.95495 0
M  V30 1287 H 121.872 2.67386 -5.07127 0
M  V30 1288 H 120.269 2.10397 -5.62008 0
M  V30 1289 H 121.339 0.992861 -4.74626 0
M  V30 1290 N 122.682 1.50554 0.465978 0
M  V30 1291 C 123.614 1.65949 1.58093 0
M  V30 1292 C 124.627 0.540827 1.53554 0
M  V30 1293 O 125.816 0.814187 1.5885 0
M  V30 1294 C 122.916 1.63261 2.96983 0
M  V30 1295 C 122.089 2.91245 3.26336 0
M  V30 1296 C 121.148 2.8113 4.44806 0
M  V30 1297 O 120.174 3.55086 4.44862 0
M  V30 1298 N 121.376 1.95032 5.46756 0
M  V30 1299 H 124.141 2.62122 1.45301 0
M  V30 1300 H 121.702 1.48082 0.65448 0
M  V30 1301 H 123.694 1.54101 3.74212 0
M  V30 1302 H 122.264 0.748032 3.03518 0
M  V30 1303 H 121.484 3.14493 2.37672 0
M  V30 1304 H 122.772 3.76022 3.42761 0
M  V30 1305 H 122.17 1.3427 5.49534 0
M  V30 1306 H 120.727 1.91772 6.2295 0
M  V30 1307 N 124.16 -0.719506 1.40217 0
M  V30 1308 C 125.093 -1.84298 1.34571 0
M  V30 1309 C 126.071 -1.61149 0.216741 0
M  V30 1310 O 127.255 -1.84212 0.399756 0
M  V30 1311 C 124.382 -3.20568 1.09335 0
M  V30 1312 C 123.428 -3.62551 2.24631 0
M  V30 1313 S 124.261 -3.7012 3.87004 0
M  V30 1314 C 125.417 -5.09154 3.64024 0
M  V30 1315 H 125.65 -1.88807 2.2965 0
M  V30 1316 H 123.183 -0.885901 1.26456 0
M  V30 1317 H 125.141 -3.99246 0.954602 0
M  V30 1318 H 123.802 -3.13696 0.159164 0
M  V30 1319 H 122.995 -4.61483 2.02606 0
M  V30 1320 H 122.597 -2.91119 2.34789 0
M  V30 1321 H 124.889 -5.95955 3.22248 0
M  V30 1322 H 125.832 -5.36213 4.62473 0
M  V30 1323 H 126.24 -4.79562 2.97793 0
M  V30 1324 N 125.638 -1.25649 -0.95132 0
M  V30 1325 C 126.586 -1.06118 -2.06982 0
M  V30 1326 C 127.58 0.00889169 -1.69398 0
M  V30 1327 O 128.786 -0.146988 -1.79399 0
M  V30 1328 H 125.161 -0.326248 -0.677544 0
M  V30 1329 H 127.132 -2.00932 -2.2061 0
M  V30 1330 C 125.881 -0.700145 -3.40578 0
M  V30 1331 H 125.204 -1.51537 -3.69968 0
M  V30 1332 H 126.644 -0.603211 -4.19687 0
M  V30 1333 C 125.103 0.59403 -3.31622 0
M  V30 1334 O 125.633 1.63522 -3.66911 0
M  V30 1335 N 123.839 0.58089 -2.84735 0
M  V30 1336 H 123.386 -0.266783 -2.56215 0
M  V30 1337 H 123.344 1.44695 -2.79125 0
M  V30 1338 N 127.117 1.15442 -1.07289 0
M  V30 1339 C 128.342 1.90638 -0.816828 0
M  V30 1340 C 128.767 1.77445 0.624083 0
M  V30 1341 O 128.125 1.10671 1.43602 0
M  V30 1342 C 128.173 3.39008 -1.22906 0
M  V30 1343 O 127.277 4.10701 -0.373975 0
M  V30 1344 H 126.618 0.593555 -0.297638 0
M  V30 1345 H 129.148 1.46198 -1.43134 0
M  V30 1346 H 129.158 3.89801 -1.20497 0
M  V30 1347 H 127.833 3.47929 -2.27856 0
M  V30 1348 H 126.41 3.70046 -0.460499 0
M  V30 1349 N 128.595 0.856903 1.32268 0
M  V30 1350 C 129.525 0.31858 2.31316 0
M  V30 1351 C 130.506 -0.583487 1.59779 0
M  V30 1352 O 131.691 -0.503259 1.87566 0
M  V30 1353 C 128.821 -0.491979 3.43798 0
M  V30 1354 C 127.775 0.315849 4.26833 0
M  V30 1355 C 127.101 -0.619586 5.31098 0
M  V30 1356 C 128.401 1.54282 4.98993 0
M  V30 1357 H 130.095 1.14621 2.76591 0
M  V30 1358 H 127.641 0.552613 1.32974 0
M  V30 1359 H 129.594 -0.879012 4.1213 0
M  V30 1360 H 128.318 -1.35299 2.97257 0
M  V30 1361 H 126.977 0.684664 3.6015 0
M  V30 1362 H 126.625 -1.47751 4.8081 0
M  V30 1363 H 126.325 -0.0830621 5.87541 0
M  V30 1364 H 127.849 -1.00375 6.02293 0
M  V30 1365 H 129.263 1.22796 5.59995 0
M  V30 1366 H 127.66 2.01745 5.65172 0
M  V30 1367 H 128.73 2.30285 4.26728 0
M  V30 1368 N 130.073 -1.45103 0.615059 0
M  V30 1369 C 131.489 -1.57137 0.279322 0
M  V30 1370 C 131.689 -1.60523 -1.21797 0
M  V30 1371 O 130.745 -1.53956 -2.00134 0
M  V30 1372 C 132.058 -2.85062 0.957083 0
M  V30 1373 C 133.606 -2.98749 0.933706 0
M  V30 1374 C 134.081 -4.29455 1.59162 0
M  V30 1375 N 135.572 -4.36231 1.55746 0
M  V30 1376 C 136.307 -5.36051 2.0356 0
M  V30 1377 N 135.803 -6.42367 2.59494 0
M  V30 1378 N 137.596 -5.27456 1.94284 0
M  V30 1379 H 129.747 -1.41148 1.58717 0
M  V30 1380 H 132.01 -0.675331 0.665306 0
M  V30 1381 H 131.716 -2.88488 2.01166 0
M  V30 1382 H 131.59 -3.7407 0.48494 0
M  V30 1383 H 133.977 -2.94886 -0.112347 0
M  V30 1384 H 134.058 -2.11132 1.44419 0
M  V30 1385 H 133.702 -4.34077 2.63704 0
M  V30 1386 H 133.632 -5.15901 1.0561 0
M  V30 1387 H 136.123 -3.60011 1.14893 0
M  V30 1388 H 136.436 -7.14793 2.93752 0
M  V30 1389 H 134.781 -6.43097 2.63537 0
M  V30 1390 H 137.972 -4.43308 1.5032 0
M  V30 1391 H 138.145 -6.05099 2.3186 0
M  V30 1392 N 131.551 -0.354651 -1.53558 0
M  V30 1393 C 132.514 0.484566 -2.24019 0
M  V30 1394 C 133.514 1.01861 -1.24422 0
M  V30 1395 O 134.704 0.906097 -1.4878 0
M  V30 1396 C 131.836 1.67615 -2.96847 0
M  V30 1397 H 133.029 -0.131843 -2.9961 0
M  V30 1398 H 130.582 -0.106165 -1.55939 0
M  V30 1399 H 131.317 2.33095 -2.25471 0
M  V30 1400 H 131.102 1.30029 -3.69912 0
M  V30 1401 H 132.592 2.27114 -3.50441 0
M  V30 1402 N 133.029 1.57378 -0.0835403 0
M  V30 1403 C 133.939 2.16897 0.894021 0
M  V30 1404 C 134.955 1.13528 1.31861 0
M  V30 1405 O 136.131 1.45848 1.3889 0
M  V30 1406 C 133.196 2.72831 2.13925 0
M  V30 1407 C 132.257 3.91115 1.76997 0
M  V30 1408 C 131.49 4.44371 2.95584 0
M  V30 1409 O 131.713 3.96596 4.09961 0
M  V30 1410 O 130.647 5.35549 2.74719 0
M  V30 1411 H 134.473 3.00814 0.417679 0
M  V30 1412 H 132.058 1.48741 0.140181 0
M  V30 1413 H 133.94 3.0863 2.86924 0
M  V30 1414 H 132.615 1.91967 2.60635 0
M  V30 1415 H 131.522 3.60148 1.01214 0
M  V30 1416 H 132.855 4.73307 1.3506 0
M  V30 1417 N 134.507 -0.190092 1.56449 0
M  V30 1418 C 135.784 -0.935886 1.71757 0
M  V30 1419 C 136.164 -2.01173 0.639726 0
M  V30 1420 O 135.512 -2.25827 -0.348502 0
M  V30 1421 C 135.722 -1.51775 3.1427 0
M  V30 1422 C 137.07 -1.99794 3.74656 0
M  V30 1423 O 138.094 -1.61607 3.1743 0
M  V30 1424 O 136.953 -2.70079 4.751 0
M  V30 1425 H 134.047 -0.439229 0.700719 0
M  V30 1426 H 136.593 -0.179395 1.68749 0
M  V30 1427 H 135.365 -0.742505 3.84191 0
M  V30 1428 H 134.988 -2.33894 3.21527 0
M  V30 1429 N 135.985 -1.50799 -0.457987 0
M  V30 1430 C 137.213 -1.66218 -1.23203 0
M  V30 1431 C 137.628 -0.350894 -1.85511 0
M  V30 1432 O 136.985 0.668546 -1.69814 0
M  V30 1433 C 137.036 -2.76291 -2.33121 0
M  V30 1434 O 136.757 -4.02338 -1.73366 0
M  V30 1435 C 138.258 -3.028 -3.2377 0
M  V30 1436 H 135.478 -0.558361 -0.372121 0
M  V30 1437 H 138.022 -1.97099 -0.545179 0
M  V30 1438 H 136.177 -2.48068 -2.97558 0
M  V30 1439 H 136.591 -4.63312 -2.4585 0
M  V30 1440 H 138.065 -3.8345 -3.97077 0
M  V30 1441 H 138.542 -2.14385 -3.83322 0
M  V30 1442 H 139.148 -3.32604 -2.65056 0
M  V30 1443 N 137.463 0.71206 -1.40597 0
M  V30 1444 C 138.426 1.80785 -1.40888 0
M  V30 1445 C 139.426 1.57937 -0.302103 0
M  V30 1446 O 140.616 1.64913 -0.561182 0
M  V30 1447 C 137.748 3.18927 -1.20409 0
M  V30 1448 H 138.941 1.81924 -2.38419 0
M  V30 1449 H 136.494 0.91805 -1.26497 0
M  V30 1450 H 137.229 3.23436 -0.236522 0
M  V30 1451 H 137.014 3.36911 -2.00582 0
M  V30 1452 H 138.504 3.98949 -1.23408 0
M  V30 1453 N 138.941 1.26152 0.944643 0
M  V30 1454 C 140.187 1.11657 1.69294 0
M  V30 1455 C 140.52 -0.339926 1.91202 0
M  V30 1456 O 139.795 -1.24994 1.49019 0
M  V30 1457 C 140.078 1.88236 3.06984 0
M  V30 1458 C 139.931 3.41772 2.92424 0
M  V30 1459 C 141.25 1.67343 4.07043 0
M  V30 1460 H 138.369 0.407004 0.614424 0
M  V30 1461 H 141.011 1.55106 1.09737 0
M  V30 1462 H 139.161 1.51308 3.57824 0
M  V30 1463 H 140.833 3.88433 2.48832 0
M  V30 1464 H 139.076 3.68974 2.28124 0
M  V30 1465 H 139.747 3.90579 3.90067 0
M  V30 1466 H 142.223 1.99509 3.65151 0
M  V30 1467 H 141.099 2.23346 5.01406 0
M  V30 1468 H 141.36 0.617158 4.37771 0
M  V30 1469 N 140.419 -1.14872 1.07899 0
M  V30 1470 C 141.649 -1.89386 0.825631 0
M  V30 1471 C 142.057 -1.78565 -0.625406 0
M  V30 1472 O 141.4 -1.13918 -1.44113 0
M  V30 1473 C 141.462 -3.40206 1.16191 0
M  V30 1474 C 141.126 -3.74812 2.61467 0
M  V30 1475 C 142.123 -3.75367 3.59716 0
M  V30 1476 C 139.808 -4.0495 2.97189 0
M  V30 1477 C 141.802 -4.05574 4.9172 0
M  V30 1478 C 139.489 -4.34821 4.29388 0
M  V30 1479 C 140.487 -4.35116 5.26463 0
M  V30 1480 O 140.175 -4.64267 6.56286 0
M  V30 1481 H 139.907 -0.606894 0.297751 0
M  V30 1482 H 142.461 -1.46438 1.44031 0
M  V30 1483 H 140.691 -3.8358 0.490214 0
M  V30 1484 H 142.38 -3.96018 0.890193 0
M  V30 1485 H 143.146 -3.52176 3.33462 0
M  V30 1486 H 139.025 -4.03876 2.22273 0
M  V30 1487 H 142.569 -4.05719 5.67484 0
M  V30 1488 H 138.466 -4.5748 4.55392 0
M  V30 1489 H 139.234 -4.82007 6.61522 0
M  V30 1490 N 141.898 -0.863906 -1.31812 0
M  V30 1491 C 143.128 -0.485406 -2.00817 0
M  V30 1492 C 143.536 0.925007 -1.65046 0
M  V30 1493 O 142.879 1.61653 -0.872574 0
M  V30 1494 C 142.941 -0.555589 -3.55181 0
M  V30 1495 C 142.605 -1.92654 -4.14407 0
M  V30 1496 C 143.602 -2.89324 -4.31958 0
M  V30 1497 C 141.287 -2.2262 -4.50273 0
M  V30 1498 C 143.281 -4.14108 -4.84555 0
M  V30 1499 C 140.968 -3.47654 -5.02573 0
M  V30 1500 C 141.966 -4.43214 -5.19664 0
M  V30 1501 O 141.654 -5.66033 -5.70843 0
M  V30 1502 H 141.386 -0.188224 -0.649267 0
M  V30 1503 H 143.94 -1.16514 -1.69156 0
M  V30 1504 H 142.17 0.181037 -3.86276 0
M  V30 1505 H 143.859 -0.19138 -4.05449 0
M  V30 1506 H 144.625 -2.6748 -4.04573 0
M  V30 1507 H 140.504 -1.4902 -4.3625 0
M  V30 1508 H 144.048 -4.88703 -4.9781 0
M  V30 1509 H 139.945 -3.69345 -5.29391 0
M  V30 1510 H 140.713 -5.6812 -5.89222 0
M  V30 1511 N 143.376 1.44774 -0.622745 0
M  V30 1512 C 144.616 2.04004 -0.127102 0
M  V30 1513 C 144.98 1.47862 1.22478 0
M  V30 1514 O 146.181 1.98541 1.81204 0
M  V30 1515 C 144.452 3.57247 -0.104429 0
M  V30 1516 S 146.011 4.37574 0.327814 0
M  V30 1517 H 142.829 0.708713 -0.0569776 0
M  V30 1518 H 145.431 1.77275 -0.824253 0
M  V30 1519 H 144.135 3.95616 -1.09159 0
M  V30 1520 H 143.666 3.88575 0.614236 0
M  V30 1521 H 145.681 4.70575 1.57395 0
M  V30 1522 N 144.854 0.36279 1.53368 0
M  V30 1523 C 145.817 -0.472679 2.24273 0
M  V30 1524 C 146.817 -1.012 1.24961 0
M  V30 1525 O 148.007 -0.898194 1.49259 0
M  V30 1526 C 145.139 -1.66039 2.97731 0
M  V30 1527 H 146.332 0.14773 2.99536 0
M  V30 1528 H 143.885 0.114434 1.55881 0
M  V30 1529 H 144.62 -2.31896 2.26704 0
M  V30 1530 H 144.405 -1.28066 3.70596 0
M  V30 1531 H 145.895 -2.25252 3.51641 0
M  V30 1532 N 146.332 -1.57332 0.0918853 0
M  V30 1533 C 147.748 -1.57389 -0.264766 0
M  V30 1534 C 147.948 -1.10281 -1.68643 0
M  V30 1535 O 147.004 -0.777801 -2.40222 0
M  V30 1536 C 148.317 -3.00648 -0.0561195 0
M  V30 1537 C 149.865 -3.12754 -0.124116 0
M  V30 1538 C 150.34 -4.57965 0.0564972 0
M  V30 1539 N 151.831 -4.632 0.00155611 0
M  V30 1540 C 152.566 -5.73281 0.116598 0
M  V30 1541 N 152.062 -6.92208 0.286294 0
M  V30 1542 N 153.855 -5.6207 0.0580973 0
M  V30 1543 H 146.006 -1.86262 1.02079 0
M  V30 1544 H 148.269 -0.859579 0.399786 0
M  V30 1545 H 147.975 -3.393 0.925669 0
M  V30 1546 H 147.849 -3.68623 -0.799823 0
M  V30 1547 H 150.236 -2.73976 -1.09641 0
M  V30 1548 H 150.317 -2.47377 0.651024 0
M  V30 1549 H 149.961 -4.97436 1.02564 0
M  V30 1550 H 149.891 -5.21399 -0.738297 0
M  V30 1551 H 152.382 -3.77686 -0.127192 0
M  V30 1552 H 152.695 -7.71934 0.365676 0
M  V30 1553 H 151.04 -6.94254 0.32192 0
M  V30 1554 H 154.231 -4.68043 -0.0733204 0
M  V30 1555 H 154.404 -6.47824 0.151203 0
M  V30 1556 N 147.81 0.181792 -1.56548 0
M  V30 1557 C 149.059 0.898348 -1.8059 0
M  V30 1558 C 149.372 1.83862 -0.667379 0
M  V30 1559 O 150.578 2.59678 -0.792446 0
M  V30 1560 C 149.034 1.64791 -3.19956 0
M  V30 1561 C 148.642 0.751789 -4.41647 0
M  V30 1562 C 150.386 2.35331 -3.53298 0
M  V30 1563 C 148.293 1.50098 -5.72035 0
M  V30 1564 H 147.223 0.339194 -0.673397 0
M  V30 1565 H 149.874 0.151413 -1.82874 0
M  V30 1566 H 148.256 2.43921 -3.11959 0
M  V30 1567 H 149.43 -0.0018076 -4.608 0
M  V30 1568 H 147.745 0.156562 -4.16106 0
M  V30 1569 H 150.342 2.91958 -4.47956 0
M  V30 1570 H 150.685 3.10164 -2.77676 0
M  V30 1571 H 151.218 1.63154 -3.62803 0
M  V30 1572 H 147.957 0.795175 -6.50659 0
M  V30 1573 H 147.477 2.22817 -5.56878 0
M  V30 1574 H 149.156 2.05125 -6.13622 0
M  V30 1575 N 149.288 1.51039 0.449983 0
M  V30 1576 C 150.536 1.62759 1.19808 0
M  V30 1577 C 150.857 0.339981 1.92013 0
M  V30 1578 O 150.127 -0.643606 1.85026 0
M  V30 1579 H 148.707 0.599811 0.445237 0
M  V30 1580 H 151.369 1.87914 0.517138 0
M  V30 1581 H 150.465 2.44911 1.93455 0
M  V30 1582 N 150.766 -0.704594 1.40972 0
M  V30 1583 C 152.015 -1.46018 1.39146 0
M  V30 1584 C 152.328 -1.956 0.000589254 0
M  V30 1585 O 153.534 -2.71137 -0.1403 0
M  V30 1586 C 151.99 -2.63996 2.4461 0
M  V30 1587 C 151.598 -2.21238 3.89561 0
M  V30 1588 C 153.342 -3.41677 2.51907 0
M  V30 1589 C 151.249 -3.3612 4.86598 0
M  V30 1590 H 150.179 -0.548444 0.517422 0
M  V30 1591 H 152.83 -0.765784 1.66757 0
M  V30 1592 H 151.212 -3.3566 2.10115 0
M  V30 1593 H 152.386 -1.56923 4.33257 0
M  V30 1594 H 150.701 -1.56574 3.85841 0
M  V30 1595 H 153.298 -4.27182 3.2159 0
M  V30 1596 H 153.641 -3.86247 1.55303 0
M  V30 1597 H 154.174 -2.77064 2.85448 0
M  V30 1598 H 150.913 -2.96572 5.84573 0
M  V30 1599 H 150.433 -3.99315 4.47557 0
M  V30 1600 H 152.112 -4.02029 5.06934 0
M  V30 1601 N 152.244 -1.26651 -0.937939 0
M  V30 1602 C 153.474 -1.15006 -1.71631 0
M  V30 1603 C 153.882 0.297026 -1.86854 0
M  V30 1604 O 153.225 1.21493 -1.37786 0
M  V30 1605 C 153.287 -1.74984 -3.14039 0
M  V30 1606 C 152.951 -3.24103 -3.2219 0
M  V30 1607 C 153.948 -4.20877 -3.05219 0
M  V30 1608 C 151.633 -3.64625 -3.45476 0
M  V30 1609 C 153.627 -5.56151 -3.11408 0
M  V30 1610 C 151.314 -5.00032 -3.513 0
M  V30 1611 C 152.312 -5.95604 -3.34282 0
M  V30 1612 O 152 -7.28545 -3.3982 0
M  V30 1613 H 151.732 -0.401183 -0.544085 0
M  V30 1614 H 154.286 -1.67832 -1.18413 0
M  V30 1615 H 152.516 -1.16624 -3.68695 0
M  V30 1616 H 154.205 -1.58199 -3.73802 0
M  V30 1617 H 154.971 -3.90908 -2.87081 0
M  V30 1618 H 150.85 -2.90718 -3.57777 0
M  V30 1619 H 154.394 -6.30727 -2.98043 0
M  V30 1620 H 150.291 -5.29659 -3.68959 0
M  V30 1621 H 151.059 -7.3686 -3.56343 0
M  V30 1622 N 153.722 1.14298 -1.08507 0
M  V30 1623 C 154.969 1.85359 -0.815373 0
M  V30 1624 C 155.297 1.83001 0.658865 0
M  V30 1625 O 154.552 1.25655 1.50031 0
M  V30 1626 C 154.851 3.33547 -1.28379 0
M  V30 1627 C 154.517 3.56093 -2.76602 0
M  V30 1628 C 153.179 3.61955 -3.17084 0
M  V30 1629 C 155.531 3.64834 -3.72217 0
M  V30 1630 C 152.859 3.74082 -4.51973 0
M  V30 1631 C 155.211 3.78487 -5.06883 0
M  V30 1632 C 153.875 3.82598 -5.46969 0
M  V30 1633 H 153.145 0.678276 -0.298366 0
M  V30 1634 H 155.792 1.35002 -1.35819 0
M  V30 1635 H 154.097 3.86191 -0.660593 0
M  V30 1636 H 155.794 3.86959 -1.05186 0
M  V30 1637 H 152.384 3.52179 -2.4427 0
M  V30 1638 H 156.568 3.59595 -3.42061 0
M  V30 1639 H 151.824 3.75527 -4.82483 0
M  V30 1640 H 155.998 3.84193 -5.80834 0
M  V30 1641 H 153.625 3.91747 -6.51489 0
M  V30 1642 N 155.201 0.870884 1.31352 0
M  V30 1643 C 156.431 0.496049 2.00557 0
M  V30 1644 C 156.839 -0.916241 1.65534 0
M  V30 1645 O 156.182 -1.61188 0.881134 0
M  V30 1646 C 156.244 0.574418 3.54881 0
M  V30 1647 C 155.908 1.94849 4.1338 0
M  V30 1648 C 156.905 2.91611 4.30417 0
M  V30 1649 C 154.59 2.25005 4.49086 0
M  V30 1650 C 156.584 4.16672 4.82352 0
M  V30 1651 C 154.271 3.50315 5.00722 0
M  V30 1652 C 155.269 4.45964 5.17306 0
M  V30 1653 O 154.957 5.69052 5.67833 0
M  V30 1654 H 154.689 0.191664 0.64826 0
M  V30 1655 H 157.243 1.17409 1.68536 0
M  V30 1656 H 155.473 -0.160549 3.86367 0
M  V30 1657 H 157.162 0.212879 4.05341 0
M  V30 1658 H 157.928 2.69622 4.03149 0
M  V30 1659 H 153.807 1.51332 4.35453 0
M  V30 1660 H 157.351 4.91336 4.95211 0
M  V30 1661 H 153.248 3.72147 5.27424 0
M  V30 1662 H 154.016 5.71236 5.86201 0
M  V30 1663 N 156.679 -1.44442 0.630414 0
M  V30 1664 C 157.927 -2.01653 0.134351 0
M  V30 1665 C 158.248 -1.49836 -1.24796 0
M  V30 1666 O 157.518 -0.701684 -1.82902 0
M  V30 1667 H 156.098 -0.74554 0.0466769 0
M  V30 1668 H 158.76 -1.76952 0.816955 0
M  V30 1669 H 157.856 -3.11935 0.101498 0
M  V30 1670 N 158.157 -0.370918 -1.53173 0
M  V30 1671 C 159.385 0.217704 -2.05751 0
M  V30 1672 C 159.8 1.42018 -1.24404 0
M  V30 1673 O 159.157 1.80245 -0.286033 0
M  V30 1674 C 159.208 0.605954 -3.56385 0
M  V30 1675 O 158.929 -0.548734 -4.3465 0
M  V30 1676 C 160.43 1.2524 -4.25241 0
M  V30 1677 H 157.65 0.0371659 -0.66997 0
M  V30 1678 H 160.194 -0.530832 -1.9749 0
M  V30 1679 H 158.349 1.3044 -3.6478 0
M  V30 1680 H 158.763 -0.23376 -5.23979 0
M  V30 1681 H 160.237 1.47458 -5.3194 0
M  V30 1682 H 160.714 2.2143 -3.79296 0
M  V30 1683 H 161.32 0.595233 -4.21114 0
M  V30 1684 N 159.635 1.57281 -0.100228 0
M  V30 1685 C 160.863 1.98879 0.570509 0
M  V30 1686 C 161.278 0.979476 1.61405 0
M  V30 1687 O 160.635 -0.0302288 1.82475 0
M  V30 1688 C 160.686 3.4052 1.2136 0
M  V30 1689 O 160.407 4.37588 0.211786 0
M  V30 1690 C 161.908 3.97149 1.96945 0
M  V30 1691 H 159.128 0.653428 0.152555 0
M  V30 1692 H 161.672 2.03697 -0.18103 0
M  V30 1693 H 159.827 3.367 1.91603 0
M  V30 1694 H 160.241 5.20118 0.676607 0
M  V30 1695 H 161.715 4.98393 2.37294 0
M  V30 1696 H 162.192 3.3525 2.83733 0
M  V30 1697 H 162.798 4.04458 1.31506 0
M  V30 1698 N 161.113 -0.173488 1.56642 0
M  V30 1699 C 162.343 -0.904781 1.85734 0
M  V30 1700 C 162.751 -1.76431 0.68328 0
M  V30 1701 O 162.094 -1.802 -0.356865 0
M  V30 1702 C 162.156 -1.83382 3.09211 0
M  V30 1703 C 161.82 -1.15411 4.42187 0
M  V30 1704 C 162.817 -0.520609 5.17287 0
M  V30 1705 C 160.502 -1.15151 4.88923 0
M  V30 1706 C 162.496 0.106412 6.37311 0
M  V30 1707 C 160.183 -0.520664 6.08878 0
M  V30 1708 C 161.181 0.107196 6.82916 0
M  V30 1709 O 160.869 0.728102 8.00596 0
M  V30 1710 H 160.601 -0.268408 0.62043 0
M  V30 1711 H 163.155 -0.179096 2.04618 0
M  V30 1712 H 161.385 -2.59976 2.86268 0
M  V30 1713 H 163.074 -2.43476 3.24768 0
M  V30 1714 H 163.84 -0.514606 4.82262 0
M  V30 1715 H 159.719 -1.62961 4.31236 0
M  V30 1716 H 163.263 0.597081 6.9504 0
M  V30 1717 H 159.16 -0.524242 6.43368 0
M  V30 1718 H 159.928 0.627138 8.16094 0
M  V30 1719 N 162.591 -1.51276 -0.441967 0
M  V30 1720 C 163.838 -1.63715 -1.19179 0
M  V30 1721 C 164.166 -0.351175 -1.91303 0
M  V30 1722 O 163.421 0.664524 -1.84072 0
M  V30 1723 C 163.72 -2.78746 -2.23686 0
M  V30 1724 C 163.386 -4.18189 -1.68607 0
M  V30 1725 C 162.048 -4.56125 -1.53308 0
M  V30 1726 C 164.4 -5.05222 -1.28062 0
M  V30 1727 C 161.728 -5.78804 -0.959317 0
M  V30 1728 C 164.08 -6.28476 -0.721162 0
M  V30 1729 C 162.744 -6.65188 -0.55504 0
M  V30 1730 H 162.014 -0.599076 -0.436106 0
M  V30 1731 H 164.661 -1.85296 -0.48351 0
M  V30 1732 H 162.966 -2.51369 -3.00535 0
M  V30 1733 H 164.663 -2.8557 -2.81515 0
M  V30 1734 H 161.253 -3.88277 -1.8149 0
M  V30 1735 H 165.437 -4.76524 -1.38704 0
M  V30 1736 H 160.693 -6.05899 -0.81833 0
M  V30 1737 H 164.867 -6.95259 -0.398458 0
M  V30 1738 H 162.494 -7.60123 -0.108311 0
M  V30 1739 N 164.069 0.697108 -1.41344 0
M  V30 1740 C 165.346 1.45154 -1.31109 0
M  V30 1741 C 165.726 2.11009 0.0620449 0
M  V30 1742 O 165.074 2.01571 1.07618 0
M  V30 1743 C 165.284 2.47223 -2.46337 0
M  V30 1744 C 166.632 3.1252 -2.87431 0
M  V30 1745 O 167.656 2.57547 -2.46065 0
M  V30 1746 O 166.515 4.12083 -3.58957 0
M  V30 1747 H 163.609 0.646365 -0.515889 0
M  V30 1748 H 166.155 0.727716 -1.53305 0
M  V30 1749 H 164.927 1.97204 -3.37974 0
M  V30 1750 H 164.55 3.27116 -2.2601 0
M  V30 1751 N 165.547 1.27147 0.931209 0
M  V30 1752 C 166.777 1.15914 1.71019 0
M  V30 1753 C 167.185 -0.287112 1.87009 0
M  V30 1754 O 166.528 -1.20761 1.38429 0
M  V30 1755 C 166.59 1.76647 3.13107 0
M  V30 1756 C 166.254 3.25807 3.20467 0
M  V30 1757 C 167.251 4.22489 3.02983 0
M  V30 1758 C 164.936 3.66452 3.43538 0
M  V30 1759 C 166.93 5.57794 3.08454 0
M  V30 1760 C 164.617 5.01888 3.48643 0
M  V30 1761 C 165.615 5.97369 3.31119 0
M  V30 1762 O 165.303 7.30337 3.35952 0
M  V30 1763 H 165.035 0.404062 0.54195 0
M  V30 1764 H 167.589 1.68457 1.17521 0
M  V30 1765 H 165.819 1.18578 3.68071 0
M  V30 1766 H 167.508 1.60179 3.72958 0
M  V30 1767 H 168.274 3.92425 2.85004 0
M  V30 1768 H 164.153 2.92611 3.5623 0
M  V30 1769 H 167.697 6.32298 2.94694 0
M  V30 1770 H 163.594 5.31609 3.66145 0
M  V30 1771 H 164.362 7.38739 3.5243 0
M  V30 1772 N 167.025 -1.13721 1.09112 0
M  V30 1773 C 168.274 -1.84275 0.82009 0
M  V30 1774 C 168.587 -1.84253 -0.656509 0
M  V30 1775 O 169.793 -2.50668 -1.04296 0
M  V30 1776 C 168.249 -3.30825 1.41714 0
M  V30 1777 C 167.857 -3.39244 2.92605 0
M  V30 1778 C 169.601 -4.06443 1.22492 0
M  V30 1779 C 167.508 -4.80047 3.45411 0
M  V30 1780 H 166.438 -0.690387 0.30312 0
M  V30 1781 H 169.089 -1.28146 1.31343 0
M  V30 1782 H 167.471 -3.86737 0.851498 0
M  V30 1783 H 168.645 -2.93344 3.55367 0
M  V30 1784 H 166.96 -2.77088 3.10823 0
M  V30 1785 H 169.557 -5.10387 1.59402 0
M  V30 1786 H 169.9 -4.15972 0.165299 0
M  V30 1787 H 170.433 -3.56852 1.75788 0
M  V30 1788 H 167.172 -4.75709 4.50978 0
M  V30 1789 H 166.692 -5.26455 2.87411 0
M  V30 1790 H 168.371 -5.48957 3.42425 0
M  V30 1791 N 168.503 -0.877838 -1.30888 0
M  V30 1792 C 169.749 -0.502773 -1.97088 0
M  V30 1793 C 170.104 0.936274 -1.68082 0
M  V30 1794 O 169.397 1.65162 -0.971196 0
M  V30 1795 C 169.591 -0.705748 -3.50363 0
M  V30 1796 C 169.42 -2.16297 -3.94266 0
M  V30 1797 C 168.19 -2.80614 -4.20219 0
M  V30 1798 C 170.388 -3.13606 -4.07622 0
M  V30 1799 N 168.37 -4.17007 -4.50532 0
M  V30 1800 C 169.741 -4.35051 -4.41736 0
M  V30 1801 C 171.796 -3.09491 -3.90026 0
M  V30 1802 C 170.499 -5.52911 -4.60089 0
M  V30 1803 C 172.525 -4.26616 -4.09576 0
M  V30 1804 C 171.887 -5.46825 -4.44029 0
M  V30 1805 H 167.986 -0.233168 -0.746429 0
M  V30 1806 H 170.57 -1.13408 -1.58261 0
M  V30 1807 H 168.741 -0.103976 -3.88261 0
M  V30 1808 H 170.473 -0.298291 -4.03599 0
M  V30 1809 H 167.228 -2.3152 -4.13153 0
M  V30 1810 H 167.652 -4.87426 -4.69834 0
M  V30 1811 H 172.294 -2.17657 -3.62471 0
M  V30 1812 H 170.012 -6.45255 -4.86489 0
M  V30 1813 H 173.598 -4.24894 -3.97438 0
M  V30 1814 H 172.478 -6.35947 -4.58848 0
M  V30 1815 N 169.982 1.44106 -0.638065 0
M  V30 1816 C 171.23 2.01579 -0.145043 0
M  V30 1817 C 171.551 1.50496 1.24 0
M  V30 1818 O 170.821 0.711374 1.82527 0
M  V30 1819 H 169.401 0.745282 -0.05063 0
M  V30 1820 H 172.063 1.76516 -0.826327 0
M  V30 1821 H 171.159 3.11877 -0.118039 0
M  V30 1822 N 171.46 0.379036 1.52974 0
M  V30 1823 C 172.392 -0.495963 2.2377 0
M  V30 1824 C 173.405 -1.03517 1.25651 0
M  V30 1825 O 174.594 -0.939249 1.51791 0
M  V30 1826 C 171.694 -1.69894 2.93239 0
M  V30 1827 C 170.867 -1.2889 4.17979 0
M  V30 1828 C 169.926 -2.35543 4.70538 0
M  V30 1829 O 168.952 -1.97375 5.33883 0
M  V30 1830 N 170.154 -3.67318 4.49508 0
M  V30 1831 H 172.919 0.110523 2.99496 0
M  V30 1832 H 170.48 0.204878 1.60598 0
M  V30 1833 H 172.472 -2.40747 3.25304 0
M  V30 1834 H 171.042 -2.212 2.20883 0
M  V30 1835 H 170.262 -0.409676 3.92065 0
M  V30 1836 H 171.55 -0.991443 4.99047 0
M  V30 1837 H 170.948 -4.01095 3.98923 0
M  V30 1838 H 169.505 -4.34235 4.8609 0
M  V30 1839 N 172.938 -1.57226 0.108567 0
M  V30 1840 C 174.186 -1.94448 -0.550853 0
M  V30 1841 C 174.507 -0.992074 -1.67878 0
M  V30 1842 O 173.777 -0.0465 -1.95845 0
M  V30 1843 H 172.357 -0.717897 -0.206479 0
M  V30 1844 H 175.019 -1.94112 0.175062 0
M  V30 1845 H 174.115 -2.97218 -0.952259 0
M  V30 1846 N 174.416 0.165178 -1.56732 0
M  V30 1847 C 175.644 0.896218 -1.86482 0
M  V30 1848 C 176.059 1.75555 -0.694675 0
M  V30 1849 O 175.416 1.79379 0.33607 0
M  V30 1850 C 175.467 1.76792 -3.1532 0
M  V30 1851 O 175.188 0.943239 -4.27825 0
M  V30 1852 C 176.689 2.6081 -3.58459 0
M  V30 1853 H 173.909 0.260064 -0.618553 0
M  V30 1854 H 176.453 0.163428 -2.03846 0
M  V30 1855 H 174.608 2.45398 -2.99764 0
M  V30 1856 H 175.022 1.53998 -5.01383 0
M  V30 1857 H 176.496 3.17579 -4.51495 0
M  V30 1858 H 176.973 3.35977 -2.82872 0
M  V30 1859 H 177.579 1.97526 -3.76648 0
M  V30 1860 N 175.894 1.51508 0.433938 0
M  V30 1861 C 176.824 1.76016 1.53429 0
M  V30 1862 C 177.805 0.610112 1.58782 0
M  V30 1863 O 178.99 0.853177 1.74455 0
M  V30 1864 C 176.12 1.88831 2.9148 0
M  V30 1865 C 175.074 3.04288 3.00987 0
M  V30 1866 C 174.4 3.0229 4.4105 0
M  V30 1867 C 175.7 4.44193 2.74754 0
M  V30 1868 H 177.394 2.68152 1.33171 0
M  V30 1869 H 174.94 1.29035 0.639214 0
M  V30 1870 H 176.893 2.04559 3.6842 0
M  V30 1871 H 175.617 0.933455 3.12976 0
M  V30 1872 H 174.276 2.8827 2.26486 0
M  V30 1873 H 173.924 2.04576 4.59519 0
M  V30 1874 H 173.624 3.79822 4.4834 0
M  V30 1875 H 175.148 3.20116 5.1996 0
M  V30 1876 H 176.562 4.60544 3.41426 0
M  V30 1877 H 174.959 5.23457 2.9345 0
M  V30 1878 H 176.029 4.53996 1.70339 0
M  V30 1879 N 177.372 -0.689602 1.41712 0
M  V30 1880 C 178.618 -1.45181 1.41599 0
M  V30 1881 C 178.951 -1.94181 0.0270081 0
M  V30 1882 O 178.226 -1.6993 -0.946265 0
M  V30 1883 C 178.509 -2.65945 2.42787 0
M  V30 1884 C 178.362 -2.22672 3.90816 0
M  V30 1885 C 179.681 -3.68149 2.41151 0
M  V30 1886 H 176.8 -0.526576 0.515642 0
M  V30 1887 H 179.442 -0.784947 1.73028 0
M  V30 1888 H 177.592 -3.2284 2.16116 0
M  V30 1889 H 179.264 -1.71058 4.28412 0
M  V30 1890 H 177.507 -1.54394 4.05395 0
M  V30 1891 H 178.178 -3.0935 4.57172 0
M  V30 1892 H 180.654 -3.2094 2.64834 0
M  V30 1893 H 179.53 -4.50248 3.13955 0
M  V30 1894 H 179.791 -4.18259 1.43221 0
M  V30 1895 N 178.85 -1.27639 -0.924453 0
M  V30 1896 C 180.078 -1.16989 -1.70649 0
M  V30 1897 C 180.493 0.272869 -1.86818 0
M  V30 1898 O 179.85 1.18549 -1.38753 0
M  V30 1899 C 179.901 -1.85229 -3.10439 0
M  V30 1900 O 179.622 -3.23868 -2.95028 0
M  V30 1901 C 181.123 -1.80746 -4.04779 0
M  V30 1902 H 178.343 -0.406595 -0.53378 0
M  V30 1903 H 180.887 -1.68569 -1.15778 0
M  V30 1904 H 179.042 -1.37545 -3.6216 0
M  V30 1905 H 179.456 -3.57889 -3.83426 0
M  V30 1906 H 180.93 -2.33101 -5.00368 0
M  V30 1907 H 181.407 -0.777499 -4.32263 0
M  V30 1908 H 182.013 -2.28059 -3.58984 0
M  V30 1909 N 180.328 1.1314 -1.09713 0
M  V30 1910 C 181.574 1.84757 -0.836224 0
M  V30 1911 C 181.907 1.8347 0.636598 0
M  V30 1912 O 181.182 1.27491 1.46889 0
M  V30 1913 C 181.465 3.32782 -1.37578 0
M  V30 1914 C 181.318 3.42567 -2.91493 0
M  V30 1915 C 182.637 4.28307 -1.01198 0
M  V30 1916 H 179.756 0.67082 -0.305236 0
M  V30 1917 H 182.398 1.3278 -1.35903 0
M  V30 1918 H 180.548 3.77177 -0.931097 0
M  V30 1919 H 182.22 3.06862 -3.44432 0
M  V30 1920 H 180.463 2.83349 -3.28475 0
M  V30 1921 H 181.134 4.46674 -3.24324 0
M  V30 1922 H 183.61 3.91999 -1.39556 0
M  V30 1923 H 182.486 5.30307 -1.41653 0
M  V30 1924 H 182.747 4.42029 0.0794833 0
M  V30 1925 N 181.806 0.884767 1.30421 0
M  V30 1926 C 183.031 0.517288 2.00845 0
M  V30 1927 C 183.456 -0.886779 1.65885 0
M  V30 1928 O 182.814 -1.58768 0.875354 0
M  V30 1929 C 182.862 0.698994 3.5376 0
M  V30 1930 O 181.966 -0.255208 4.1161 0
M  V30 1931 H 181.307 0.203872 0.631927 0
M  V30 1932 H 183.837 1.19225 1.66272 0
M  V30 1933 H 183.847 0.597912 4.03595 0
M  V30 1934 H 182.522 1.72271 3.78544 0
M  V30 1935 H 181.099 -0.10784 3.72744 0
M  V30 1936 N 183.284 -1.43765 0.645699 0
M  V30 1937 C 184.509 -2.06767 0.161883 0
M  V30 1938 C 184.934 -1.48034 -1.16049 0
M  V30 1939 O 184.292 -0.587369 -1.71522 0
M  V30 1940 C 184.34 -3.60519 0.0762003 0
M  V30 1941 O 183.444 -4.00982 -0.963721 0
M  V30 1942 H 182.785 -0.657675 0.091429 0
M  V30 1943 H 185.315 -1.84397 0.886499 0
M  V30 1944 H 185.325 -4.07853 -0.109604 0
M  V30 1945 H 184 -4.02646 1.04157 0
M  V30 1946 H 182.577 -3.65253 -0.751312 0
M  V30 1947 O 184.801 -0.529329 -1.52579 0
M  V30 1948 H 185.492 -0.019233 -1.9369 0
M  V30 END ATOM
M  V30 BEGIN BOND
M  V30 END BOND
M  V30 END CTAB
M  END
$$$$
