drugbank_target|P23415 Glycine receptor subunit alpha-1 (DB00145; DB00228; DB00431; DB00466; DB00572; DB00753; DB00898; DB01028; DB01159; DB01189; DB01236; DB01381; DB01593; DB01956; DB03929; DB05417; DB09061; DB09130; DB11582; DB14009; DB14011; DB14487; DB14533; DB14548)
 OpenBabel12092119313D

  0  0  0     0  0            999 V3000
M  V30 BEGIN CTAB
M  V30 COUNTS 7397 7492 0 0 0
M  V30 BEGIN ATOM
M  V30 1 H -0.908 1.98254 -0.117106 0
M  V30 2 N 0 1.576 0 0
M  V30 3 C 0.933 2.03868 1.02534 0
M  V30 4 C 1.911 0.928543 1.3348 0
M  V30 5 O 3.095 1.19667 1.45644 0
M  V30 6 C 0.222 2.43627 2.35294 0
M  V30 7 C -0.732 3.65373 2.2001 0
M  V30 8 S 0.101 5.13292 1.52614 0
M  V30 9 C 1.257 5.56322 2.86805 0
M  V30 10 H 1.49 2.90518 0.631377 0
M  V30 11 H -0.977 1.52953 0.210867 0
M  V30 12 H 0.981 2.67203 3.11629 0
M  V30 13 H -0.358 1.57376 2.7183 0
M  V30 14 H -1.165 3.90944 3.18086 0
M  V30 15 H -1.563 3.418 1.51819 0
M  V30 16 H 0.729 5.58782 3.83104 0
M  V30 17 H 1.672 6.56266 2.65933 0
M  V30 18 H 2.08 4.83886 2.90714 0
M  V30 19 N 1.4781 -0.272755 1.55222 0
M  V30 20 C 2.7081 -1.02107 1.79604 0
M  V30 21 C 3.1161 -1.80419 0.569693 0
M  V30 22 O 2.4591 -1.77566 -0.470743 0
M  V30 23 C 2.5211 -2.02675 2.96922 0
M  V30 24 C 2.1851 -1.43299 4.33952 0
M  V30 25 C 3.1821 -0.84853 5.12929 0
M  V30 26 C 0.8671 -1.46012 4.8061 0
M  V30 27 C 2.8611 -0.299109 6.36698 0
M  V30 28 C 0.5481 -0.906833 6.04334 0
M  V30 29 C 1.5461 -0.32733 6.82215 0
M  V30 30 O 1.2341 0.217479 8.03606 0
M  V30 31 H 0.9661 -0.307322 0.602104 0
M  V30 32 H 3.5201 -0.308862 2.03065 0
M  V30 33 H 1.7501 -2.77656 2.69155 0
M  V30 34 H 3.4391 -2.63637 3.08626 0
M  V30 35 H 4.2051 -0.820265 4.78013 0
M  V30 36 H 0.0841 -1.90056 4.2 0
M  V30 37 H 3.6281 0.153852 6.9743 0
M  V30 38 H -0.4749 -0.932339 6.38731 0
M  V30 39 H 0.2931 0.106863 8.1843 0
M  V30 40 N 2.9562 -1.48159 -0.537278 0
M  V30 41 C 4.1812 -1.59707 -1.32319 0
M  V30 42 C 4.6062 -0.254859 -1.86365 0
M  V30 43 O 3.9642 0.772378 -1.64024 0
M  V30 44 C 4.0122 -2.6412 -2.45505 0
M  V30 45 O 3.1162 -2.20774 -3.48328 0
M  V30 46 H 2.4572 -0.535791 -0.392204 0
M  V30 47 H 4.9872 -1.94092 -0.647268 0
M  V30 48 H 4.9972 -2.85166 -2.91795 0
M  V30 49 H 3.6722 -3.61567 -2.05528 0
M  V30 50 H 2.2492 -2.09911 -3.08207 0
M  V30 51 N 4.4343 0.785586 -1.36625 0
M  V30 52 C 5.6813 1.54362 -1.31067 0
M  V30 53 C 6.0093 1.94195 0.10893 0
M  V30 54 O 5.2643 1.63262 1.07908 0
M  V30 55 C 5.5633 2.83007 -2.1827 0
M  V30 56 C 5.2293 2.62294 -3.6676 0
M  V30 57 C 3.8913 2.56353 -4.0723 0
M  V30 58 C 6.2433 2.43371 -4.6089 0
M  V30 59 C 3.5713 2.29461 -5.39967 0
M  V30 60 C 5.9233 2.18005 -5.93849 0
M  V30 61 C 4.5873 2.105 -6.3344 0
M  V30 62 H 3.8573 0.564851 -0.479609 0
M  V30 63 H 6.5043 0.906028 -1.68711 0
M  V30 64 H 4.8093 3.51253 -1.73576 0
M  V30 65 H 6.5063 3.40817 -2.11292 0
M  V30 66 H 3.0963 2.67774 -3.34656 0
M  V30 67 H 7.2803 2.46959 -4.30494 0
M  V30 68 H 2.5363 2.22135 -5.69619 0
M  V30 69 H 6.7103 2.02359 -6.66351 0
M  V30 70 H 4.3373 1.89425 -7.36222 0
M  V30 71 N 5.9124 1.20967 1.01018 0
M  V30 72 C 6.8604 0.961223 2.1181 0
M  V30 73 C 7.8544 -0.0897034 1.69162 0
M  V30 74 O 9.0604 0.0612271 1.79896 0
M  V30 75 H 5.4354 0.29355 0.692338 0
M  V30 76 H 7.4064 1.90178 2.29946 0
M  V30 77 C 6.1554 0.536854 3.4353 0
M  V30 78 H 5.4784 1.33713 3.76777 0
M  V30 79 H 6.9184 0.402286 4.22087 0
M  V30 80 C 5.3774 -0.751574 3.2841 0
M  V30 81 O 5.9074 -1.80841 3.58691 0
M  V30 82 N 4.1134 -0.716079 2.81639 0
M  V30 83 H 3.6604 0.144236 2.57196 0
M  V30 84 H 3.6184 -1.57847 2.71904 0
M  V30 85 N 7.3905 -1.2043 1.01659 0
M  V30 86 C 8.6185 -1.93777 0.725132 0
M  V30 87 C 9.0335 -1.74772 -0.714166 0
M  V30 88 O 8.3905 -1.06169 -1.4844 0
M  V30 89 C 8.4415 -3.45876 1.05129 0
M  V30 90 O 8.1625 -3.6426 2.43406 0
M  V30 91 C 9.6635 -4.36368 0.780891 0
M  V30 92 H 6.8835 -0.615901 0.266284 0
M  V30 93 H 9.4275 -1.52922 1.35776 0
M  V30 94 H 7.5825 -3.8461 0.464065 0
M  V30 95 H 7.9965 -4.58246 2.55169 0
M  V30 96 H 9.4705 -5.41743 1.05918 0
M  V30 97 H 9.9475 -4.38275 -0.284937 0
M  V30 98 H 10.5535 -4.03296 1.35027 0
M  V30 99 N 8.8686 -0.792821 -1.36206 0
M  V30 100 C 9.7986 -0.207853 -2.32573 0
M  V30 101 C 10.7796 0.659055 -1.56813 0
M  V30 102 O 11.9646 0.592176 -1.84951 0
M  V30 103 C 9.0946 0.655449 -3.41059 0
M  V30 104 C 8.0486 -0.111842 -4.27854 0
M  V30 105 C 7.3746 0.872274 -5.27537 0
M  V30 106 C 8.6746 -1.30299 -5.05786 0
M  V30 107 H 10.3686 -1.01294 -2.81744 0
M  V30 108 H 7.9146 -0.48854 -1.3546 0
M  V30 109 H 9.8676 1.07464 -4.07467 0
M  V30 110 H 8.5916 1.49328 -2.90463 0
M  V30 111 H 7.2506 -0.512053 -3.63006 0
M  V30 112 H 6.8986 1.70523 -4.73214 0
M  V30 113 H 6.5986 0.363291 -5.86476 0
M  V30 114 H 8.1226 1.28996 -5.96818 0
M  V30 115 H 9.5366 -0.959379 -5.65216 0
M  V30 116 H 7.9336 -1.7455 -5.74154 0
M  V30 117 H 9.0036 -2.09663 -4.37229 0
M  V30 118 N 10.3467 1.47872 -0.545128 0
M  V30 119 C 11.7627 1.5829 -0.204032 0
M  V30 120 C 11.9627 1.54529 1.29317 0
M  V30 121 O 11.0187 1.44232 2.07252 0
M  V30 122 C 12.3317 2.89304 -0.819987 0
M  V30 123 C 13.8797 3.02864 -0.790105 0
M  V30 124 C 14.3547 4.3656 -1.38491 0
M  V30 125 N 15.8457 4.43165 -1.34755 0
M  V30 126 C 16.5807 5.45153 -1.77753 0
M  V30 127 N 16.0767 6.54016 -2.2855 0
M  V30 128 N 17.8697 5.36125 -1.68897 0
M  V30 129 H 10.0207 1.4856 -1.51802 0
M  V30 130 H 12.2837 0.706305 -0.632327 0
M  V30 131 H 11.9897 2.97757 -1.87173 0
M  V30 132 H 11.8637 3.75957 -0.305915 0
M  V30 133 H 14.2507 2.94014 0.252913 0
M  V30 134 H 14.3317 2.17782 -1.34181 0
M  V30 135 H 13.9757 4.46164 -2.42693 0
M  V30 136 H 13.9057 5.20353 -0.808754 0
M  V30 137 H 16.3967 3.65083 -0.975855 0
M  V30 138 H 16.7097 7.27994 -2.59314 0
M  V30 139 H 15.0547 6.54938 -2.32553 0
M  V30 140 H 18.2457 4.49975 -1.28998 0
M  V30 141 H 18.4187 6.15472 -2.02726 0
M  V30 142 N 11.8248 0.280983 1.55075 0
M  V30 143 C 12.7548 -0.597469 2.25727 0
M  V30 144 C 13.7358 -1.15417 1.24952 0
M  V30 145 O 14.9208 -1.18722 1.53684 0
M  V30 146 C 12.0508 -1.7789 2.98283 0
M  V30 147 C 11.0048 -1.35347 4.06036 0
M  V30 148 C 10.3308 -2.61846 4.66198 0
M  V30 149 C 11.6308 -0.499354 5.19907 0
M  V30 150 H 13.3248 -0.00824265 2.99399 0
M  V30 151 H 10.8708 -0.0025244 1.44 0
M  V30 152 H 12.8238 -2.39937 3.46422 0
M  V30 153 H 11.5478 -2.39405 2.22155 0
M  V30 154 H 10.2068 -0.756156 3.58717 0
M  V30 155 H 9.8548 -3.21632 3.86732 0
M  V30 156 H 9.5548 -2.3409 5.38958 0
M  V30 157 H 11.0788 -3.24732 5.1709 0
M  V30 158 H 12.4928 -1.02498 5.64063 0
M  V30 159 H 10.8898 -0.316424 5.99265 0
M  V30 160 H 11.9598 0.480459 4.82514 0
M  V30 161 N 13.3029 -1.57598 0.00835791 0
M  V30 162 C 14.5329 -1.94931 -0.684496 0
M  V30 163 C 14.9409 -0.882233 -1.67372 0
M  V30 164 O 14.2839 0.146621 -1.83114 0
M  V30 165 C 14.3459 -3.283 -1.4649 0
M  V30 166 C 14.0099 -4.52548 -0.63634 0
M  V30 167 C 15.0069 -5.19839 0.0795586 0
M  V30 168 C 12.6919 -4.98942 -0.579849 0
M  V30 169 C 14.6859 -6.3183 0.840843 0
M  V30 170 C 12.3729 -6.10819 0.185155 0
M  V30 171 C 13.3709 -6.77121 0.894227 0
M  V30 172 O 13.0589 -7.86853 1.64673 0
M  V30 173 H 12.7909 -0.647249 -0.19505 0
M  V30 174 H 15.3449 -2.05318 0.0581272 0
M  V30 175 H 13.5749 -3.14345 -2.2522 0
M  V30 176 H 15.2639 -3.50685 -2.04389 0
M  V30 177 H 16.0299 -4.84979 0.0451202 0
M  V30 178 H 11.9089 -4.47155 -1.1213 0
M  V30 179 H 15.4529 -6.83513 1.39483 0
M  V30 180 H 11.3499 -6.4512 0.221384 0
M  V30 181 H 12.1179 -8.03412 1.56432 0
M  V30 182 N 14.781 0.264519 -1.55364 0
M  V30 183 C 15.711 1.33121 -1.91836 0
M  V30 184 C 16.692 1.51101 -0.781192 0
M  V30 185 O 17.877 1.64003 -1.04003 0
M  V30 186 C 15.007 2.68921 -2.19769 0
M  V30 187 C 13.961 2.65661 -3.35571 0
M  V30 188 C 13.287 4.05093 -3.49004 0
M  V30 189 C 14.587 2.24187 -4.71739 0
M  V30 190 H 16.281 1.02844 -2.81182 0
M  V30 191 H 13.827 0.493286 -1.35287 0
M  V30 192 H 15.78 3.43663 -2.43872 0
M  V30 193 H 14.504 3.00799 -1.27231 0
M  V30 194 H 13.163 1.93377 -3.1145 0
M  V30 195 H 12.811 4.34206 -2.53917 0
M  V30 196 H 12.511 4.03804 -4.26868 0
M  V30 197 H 14.035 4.81561 -3.75408 0
M  V30 198 H 15.449 2.88654 -4.9533 0
M  V30 199 H 13.846 2.34044 -5.52579 0
M  V30 200 H 14.916 1.19327 -4.69988 0
M  V30 201 N 16.2591 1.48442 0.529413 0
M  V30 202 C 17.5051 1.57699 1.28463 0
M  V30 203 C 17.8601 0.247913 1.90796 0
M  V30 204 O 17.1531 -0.749279 1.76342 0
M  V30 205 C 17.3471 2.6523 2.39558 0
M  V30 206 C 17.1761 4.08464 1.88114 0
M  V30 207 C 15.9461 4.75596 1.70693 0
M  V30 208 C 18.1441 4.94613 1.40935 0
M  V30 209 N 16.1261 6.03245 1.13881 0
M  V30 210 C 17.4971 6.12511 0.960734 0
M  V30 211 C 19.5521 4.80833 1.29243 0
M  V30 212 C 18.2551 7.18149 0.406792 0
M  V30 213 C 20.2811 5.86593 0.752487 0
M  V30 214 C 19.6431 7.037 0.313946 0
M  V30 215 H 15.7421 0.631608 0.46108 0
M  V30 216 H 18.3261 1.85325 0.596886 0
M  V30 217 H 16.4971 2.39425 3.05827 0
M  V30 218 H 18.2291 2.64169 3.06589 0
M  V30 219 H 14.9841 4.31938 1.94232 0
M  V30 220 H 15.4081 6.71324 0.874831 0
M  V30 221 H 20.0501 3.90635 1.61754 0
M  V30 222 H 17.7681 8.0807 0.0693671 0
M  V30 223 H 21.3541 5.77985 0.665192 0
M  V30 224 H 20.2341 7.8414 -0.0973632 0
M  V30 225 N 17.7372 -0.778329 1.37039 0
M  V30 226 C 18.6472 -1.92253 1.34446 0
M  V30 227 C 19.6632 -1.72267 0.244991 0
M  V30 228 O 20.8392 -1.95615 0.479258 0
M  V30 229 C 17.9042 -3.27282 1.144 0
M  V30 230 C 16.9652 -3.59969 2.33925 0
M  V30 231 C 16.1982 -4.88555 2.14825 0
M  V30 232 O 16.4212 -5.59113 1.12912 0
M  V30 233 O 15.3552 -5.20153 3.02861 0
M  V30 234 H 19.1812 -1.97392 2.30803 0
M  V30 235 H 16.7662 -0.920154 1.17701 0
M  V30 236 H 18.6482 -4.08062 1.05182 0
M  V30 237 H 17.3232 -3.23011 0.211124 0
M  V30 238 H 16.2302 -2.7945 2.48714 0
M  V30 239 H 17.5632 -3.68976 3.25757 0
M  V30 240 N 19.2153 -1.21501 -1.00376 0
M  V30 241 C 20.4433 -1.059 -1.77744 0
M  V30 242 C 20.8583 0.391125 -1.84704 0
M  V30 243 O 20.2153 1.27133 -1.30933 0
M  V30 244 C 20.2663 -1.65111 -3.21591 0
M  V30 245 O 19.9873 -3.0445 -3.15027 0
M  V30 246 C 21.4883 -1.54637 -4.15454 0
M  V30 247 H 18.7083 -0.371825 -0.558558 0
M  V30 248 H 21.2523 -1.60865 -1.26264 0
M  V30 249 H 19.4073 -1.14235 -3.70175 0
M  V30 250 H 19.8213 -3.3278 -4.0541 0
M  V30 251 H 21.2953 -2.00808 -5.14179 0
M  V30 252 H 21.7723 -0.501022 -4.36333 0
M  V30 253 H 22.3783 -2.04767 -3.72761 0
M  V30 254 N 20.6934 1.19889 -1.02296 0
M  V30 255 C 21.9424 1.88743 -0.711257 0
M  V30 256 C 22.2554 1.80112 0.762817 0
M  V30 257 O 23.4614 2.44161 1.18733 0
M  V30 258 C 21.9174 3.38525 -1.22185 0
M  V30 259 C 21.5254 3.55727 -2.72328 0
M  V30 260 C 23.2694 4.12893 -0.985864 0
M  V30 261 C 21.1764 4.99369 -3.16835 0
M  V30 262 H 20.1064 0.706885 -0.262353 0
M  V30 263 H 22.7574 1.35586 -1.23648 0
M  V30 264 H 21.1394 3.91044 -0.624571 0
M  V30 265 H 22.3134 3.13564 -3.3766 0
M  V30 266 H 20.6284 2.94739 -2.9414 0
M  V30 267 H 23.2254 5.18813 -1.29374 0
M  V30 268 H 23.5684 4.16228 0.0775055 0
M  V30 269 H 24.1014 3.66494 -1.54684 0
M  V30 270 H 20.8404 5.01193 -4.22476 0
M  V30 271 H 20.3604 5.42317 -2.56228 0
M  V30 272 H 22.0394 5.67988 -3.09837 0
M  V30 273 N 22.1715 0.800033 1.35784 0
M  V30 274 C 23.4175 0.377901 1.99248 0
M  V30 275 C 23.7505 -1.05052 1.63333 0
M  V30 276 O 23.0255 -1.72768 0.893385 0
M  V30 277 C 23.3085 0.553922 3.55814 0
M  V30 278 C 23.1615 2.0268 4.01548 0
M  V30 279 C 24.4805 -0.0244802 4.40093 0
M  V30 280 H 21.5995 0.138782 0.723815 0
M  V30 281 H 24.2415 1.00835 1.61035 0
M  V30 282 H 22.3915 0.0172398 3.88496 0
M  V30 283 H 24.0635 2.62536 3.79305 0
M  V30 284 H 22.3065 2.5256 3.52698 0
M  V30 285 H 22.9775 2.10087 5.10458 0
M  V30 286 H 25.4535 0.433775 4.13833 0
M  V30 287 H 24.3295 0.128637 5.48749 0
M  V30 288 H 24.5905 -1.11758 4.27741 0
M  V30 289 N 23.6496 -1.47581 0.552962 0
M  V30 290 C 24.8966 -2.02482 0.0273243 0
M  V30 291 C 25.2246 -1.42776 -1.32081 0
M  V30 292 O 24.4796 -0.571393 -1.87173 0
M  V30 293 C 24.7786 -3.57199 -0.119728 0
M  V30 294 C 24.4446 -4.35804 1.15697 0
M  V30 295 C 23.1066 -4.57 1.50681 0
M  V30 296 C 25.4586 -4.81167 2.00319 0
M  V30 297 C 22.7866 -5.20807 2.70142 0
M  V30 298 C 25.1386 -5.46293 3.18978 0
M  V30 299 C 23.8026 -5.65722 3.54281 0
M  V30 300 H 23.0726 -0.740933 0.00999866 0
M  V30 301 H 25.7196 -1.77302 0.72362 0
M  V30 302 H 24.0246 -3.81348 -0.89896 0
M  V30 303 H 25.7216 -3.97324 -0.541718 0
M  V30 304 H 22.3116 -4.19582 0.874561 0
M  V30 305 H 26.4956 -4.64574 1.74599 0
M  V30 306 H 21.7516 -5.34045 2.97668 0
M  V30 307 H 25.9256 -5.80407 3.84838 0
M  V30 308 H 23.5526 -6.14936 4.46942 0
M  V30 309 N 25.1277 -0.289203 -1.54924 0
M  V30 310 C 26.3747 0.323519 -1.99899 0
M  V30 311 C 26.7027 1.54797 -1.17762 0
M  V30 312 O 25.9577 1.94237 -0.238835 0
M  V30 313 C 26.2567 0.736119 -3.49737 0
M  V30 314 C 25.9227 -0.385276 -4.49251 0
M  V30 315 C 24.5847 -0.693156 -4.76181 0
M  V30 316 C 26.9367 -1.14021 -5.08575 0
M  V30 317 C 24.2647 -1.7593 -5.59701 0
M  V30 318 C 26.6167 -2.19619 -5.93254 0
M  V30 319 C 25.2807 -2.51026 -6.185 0
M  V30 320 H 24.5507 0.118384 -0.731482 0
M  V30 321 H 27.1977 -0.405847 -1.8715 0
M  V30 322 H 25.5027 1.54539 -3.60035 0
M  V30 323 H 27.1997 1.22118 -3.81953 0
M  V30 324 H 23.7897 -0.135202 -4.28387 0
M  V30 325 H 27.9737 -0.915611 -4.87781 0
M  V30 326 H 23.2297 -2.0075 -5.77503 0
M  V30 327 H 27.4037 -2.78581 -6.38252 0
M  V30 328 H 25.0307 -3.33772 -6.83008 0
M  V30 329 N 26.6058 1.57591 -0.0167156 0
M  V30 330 C 27.8308 1.9598 0.67872 0
M  V30 331 C 28.2558 0.892546 1.65575 0
M  V30 332 O 27.6138 -0.147772 1.80697 0
M  V30 333 C 27.6618 3.33468 1.37227 0
M  V30 334 O 26.7658 3.28954 2.48722 0
M  V30 335 H 26.1068 0.639339 0.17928 0
M  V30 336 H 28.6368 2.04463 -0.0748802 0
M  V30 337 H 28.6468 3.69417 1.7319 0
M  V30 338 H 27.3218 4.10694 0.656007 0
M  V30 339 H 25.8988 3.04705 2.14963 0
M  V30 340 N 28.0839 -0.256276 1.55502 0
M  V30 341 C 29.0139 -1.32102 1.92539 0
M  V30 342 C 29.9949 -1.50684 0.789194 0
M  V30 343 O 31.1799 -1.63449 1.04872 0
M  V30 344 C 28.3099 -2.67752 2.21192 0
M  V30 345 C 27.2639 -2.63878 3.36975 0
M  V30 346 C 26.5899 -4.03236 3.51147 0
M  V30 347 C 27.8899 -2.21682 4.72921 0
M  V30 348 H 29.5839 -1.01351 2.81724 0
M  V30 349 H 27.1299 -0.486105 1.35547 0
M  V30 350 H 29.0829 -3.42365 2.45691 0
M  V30 351 H 27.8069 -3.0012 1.28824 0
M  V30 352 H 26.4659 -1.91722 3.12471 0
M  V30 353 H 26.1139 -4.32854 2.56216 0
M  V30 354 H 25.8139 -4.01535 4.29003 0
M  V30 355 H 27.3379 -4.79563 3.77957 0
M  V30 356 H 28.7519 -2.86023 4.96854 0
M  V30 357 H 27.1489 -2.3111 5.53812 0
M  V30 358 H 28.2189 -1.16833 4.70615 0
M  V30 359 N 29.562 -1.4872 -0.521534 0
M  V30 360 C 30.525 -1.63379 -1.60748 0
M  V30 361 C 31.525 -0.50661 -1.52611 0
M  V30 362 O 32.715 -0.772601 -1.5613 0
M  V30 363 C 29.847 -1.61192 -3.00383 0
M  V30 364 H 31.04 -2.60217 -1.49087 0
M  V30 365 H 28.593 -1.37444 -0.744235 0
M  V30 366 H 29.328 -0.65863 -3.17541 0
M  V30 367 H 29.113 -2.43032 -3.07698 0
M  V30 368 H 30.603 -1.7466 -3.7932 0
M  V30 369 N 31.0401 0.771051 -1.3745 0
M  V30 370 C 32.0031 1.86598 -1.33093 0
M  V30 371 C 33.0031 1.59076 -0.234845 0
M  V30 372 O 34.1931 1.67145 -0.490732 0
M  V30 373 C 31.3251 3.23747 -1.06773 0
M  V30 374 H 32.5181 1.91873 -2.30488 0
M  V30 375 H 30.0711 0.970876 -1.2249 0
M  V30 376 H 30.8061 3.24148 -0.099129 0
M  V30 377 H 30.5911 3.45115 -1.86112 0
M  V30 378 H 32.0811 4.03824 -1.06377 0
M  V30 379 N 32.5182 1.22032 0.997298 0
M  V30 380 C 33.7432 1.06921 1.77715 0
M  V30 381 C 34.1682 -0.376226 1.84299 0
M  V30 382 O 33.5262 -1.27165 1.29223 0
M  V30 383 C 33.5742 1.67996 3.19076 0
M  V30 384 O 32.6782 0.930653 4.01762 0
M  V30 385 H 32.0192 0.375814 0.547412 0
M  V30 386 H 34.5492 1.61737 1.25309 0
M  V30 387 H 34.5592 1.72538 3.69723 0
M  V30 388 H 33.2342 2.73182 3.13599 0
M  V30 389 H 31.8112 0.960917 3.60307 0
M  V30 390 N 33.9963 -1.19345 1.0293 0
M  V30 391 C 34.9433 -2.2258 0.610464 0
M  V30 392 C 35.9133 -1.6179 -0.375946 0
M  V30 393 O 37.0983 -1.88844 -0.272511 0
M  V30 394 C 34.2383 -3.45085 -0.0321473 0
M  V30 395 C 33.3513 -4.20258 1.00035 0
M  V30 396 C 32.4863 -5.3019 0.32746 0
M  V30 397 C 31.5253 -5.97121 1.34584 0
M  V30 398 N 30.6623 -6.98615 0.698726 0
M  V30 399 H 35.5023 -2.57764 1.49538 0
M  V30 400 H 33.0393 -1.26644 0.748311 0
M  V30 401 H 34.9973 -4.15061 -0.421966 0
M  V30 402 H 33.6273 -3.10555 -0.88064 0
M  V30 403 H 32.6793 -3.49223 1.50823 0
M  V30 404 H 33.9913 -4.66175 1.77433 0
M  V30 405 H 33.1453 -6.06587 -0.11718 0
M  V30 406 H 31.8843 -4.85345 -0.478713 0
M  V30 407 H 30.8893 -5.19474 1.80074 0
M  V30 408 H 32.1143 -6.4405 2.15352 0
M  V30 409 H 30.0603 -6.55942 -0.0873471 0
M  V30 410 H 29.9773 -7.42724 1.41058 0
M  V30 411 H 31.2453 -7.79004 0.278102 0
M  V30 412 N 35.4744 -0.807222 -1.35358 0
M  V30 413 C 36.3844 -0.219594 -2.3357 0
M  V30 414 C 37.4004 0.637734 -1.61892 0
M  V30 415 O 38.5764 0.549336 -1.93763 0
M  V30 416 C 35.6414 0.62158 -3.41083 0
M  V30 417 C 34.7024 -0.256315 -4.28534 0
M  V30 418 C 33.9354 0.544807 -5.30912 0
M  V30 419 O 34.1584 1.77944 -5.41934 0
M  V30 420 O 33.0924 -0.0646478 -6.01865 0
M  V30 421 H 36.9184 -1.03208 -2.85625 0
M  V30 422 H 34.5034 -0.569025 -1.38139 0
M  V30 423 H 36.3854 1.10067 -4.06772 0
M  V30 424 H 35.0604 1.41165 -2.91297 0
M  V30 425 H 33.9674 -0.782559 -3.65823 0
M  V30 426 H 35.3004 -1.01034 -4.81719 0
M  V30 427 N 36.9525 1.47285 -0.560781 0
M  V30 428 C 37.9155 2.28535 0.174488 0
M  V30 429 C 38.9155 1.37153 0.839388 0
M  V30 430 O 40.1055 1.59748 0.694702 0
M  V30 431 C 37.2375 3.16934 1.25561 0
M  V30 432 H 38.4305 2.95012 -0.539262 0
M  V30 433 H 35.9835 1.53034 -0.317865 0
M  V30 434 H 36.7185 2.55157 2.00164 0
M  V30 435 H 36.5035 3.8419 0.783604 0
M  V30 436 H 37.9935 3.78143 1.77193 0
M  V30 437 N 38.4306 0.297415 1.54768 0
M  V30 438 C 39.3406 -0.58983 2.27064 0
M  V30 439 C 40.3566 -1.15144 1.30453 0
M  V30 440 O 41.5326 -1.17699 1.63428 0
M  V30 441 C 38.5976 -1.74714 2.9946 0
M  V30 442 C 37.6586 -1.21997 4.11601 0
M  V30 443 C 36.8916 -2.32212 4.80535 0
M  V30 444 O 37.1146 -3.52036 4.48806 0
M  V30 445 O 36.0486 -1.99106 5.68014 0
M  V30 446 H 39.8746 -0.00348199 3.037 0
M  V30 447 H 37.4596 0.0640035 1.49263 0
M  V30 448 H 39.3416 -2.42147 3.44881 0
M  V30 449 H 38.0166 -2.32016 2.25722 0
M  V30 450 H 36.9236 -0.511458 3.70587 0
M  V30 451 H 38.2566 -0.692419 4.87305 0
M  V30 452 N 39.9087 -1.5758 0.0250728 0
M  V30 453 C 40.8717 -2.08896 -0.943139 0
M  V30 454 C 41.8717 -1.00321 -1.25668 0
M  V30 455 O 43.0617 -1.26495 -1.19769 0
M  V30 456 C 40.1937 -2.55143 -2.26086 0
M  V30 457 H 41.3867 -2.95723 -0.498775 0
M  V30 458 H 38.9397 -1.54703 -0.222888 0
M  V30 459 H 39.6747 -1.71633 -2.75159 0
M  V30 460 H 39.4597 -3.34461 -2.04641 0
M  V30 461 H 40.9497 -2.95083 -2.95492 0
M  V30 462 N 41.3868 0.248026 -1.55636 0
M  V30 463 C 42.3498 1.29044 -1.89421 0
M  V30 464 C 43.3498 1.41134 -0.770581 0
M  V30 465 O 44.5398 1.39854 -1.03858 0
M  V30 466 C 41.6718 2.66831 -2.12165 0
M  V30 467 H 42.8648 1.00305 -2.82629 0
M  V30 468 H 40.4178 0.487265 -1.48511 0
M  V30 469 H 41.1528 3.00711 -1.21422 0
M  V30 470 H 40.9378 2.59438 -2.93997 0
M  V30 471 H 42.4278 3.42103 -2.3949 0
M  V30 472 N 42.8649 1.48995 0.513639 0
M  V30 473 C 44.2809 1.35478 0.843682 0
M  V30 474 C 44.4809 0.378213 1.97919 0
M  V30 475 O 43.5369 -0.194689 2.51748 0
M  V30 476 C 44.8499 2.75901 1.1958 0
M  V30 477 C 46.3979 2.84509 1.30474 0
M  V30 478 C 46.8729 4.25671 1.69021 0
M  V30 479 N 48.3639 4.28422 1.76094 0
M  V30 480 C 49.0989 5.34601 2.07338 0
M  V30 481 N 48.5949 6.5104 2.36894 0
M  V30 482 N 50.3879 5.22007 2.08483 0
M  V30 483 H 42.5389 2.11092 -0.235328 0
M  V30 484 H 44.8019 0.947039 -0.0426669 0
M  V30 485 H 44.5079 3.49001 0.434913 0
M  V30 486 H 44.3819 3.10467 2.1422 0
M  V30 487 H 46.7689 2.11655 2.05637 0
M  V30 488 H 46.8499 2.53542 0.339155 0
M  V30 489 H 46.4939 4.99048 0.944135 0
M  V30 490 H 46.4239 4.54094 2.66658 0
M  V30 491 H 48.9149 3.44441 1.55464 0
M  V30 492 H 49.2279 7.2779 2.59887 0
M  V30 493 H 47.5729 6.54287 2.34378 0
M  V30 494 H 50.7639 4.30051 1.84861 0
M  V30 495 H 50.9369 6.04854 2.325 0
M  V30 496 N 44.343 -0.763751 1.37857 0
M  V30 497 C 45.568 -1.55805 1.36893 0
M  V30 498 C 45.993 -1.88054 -0.0416135 0
M  V30 499 O 45.351 -1.49825 -1.02089 0
M  V30 500 C 45.399 -2.84012 2.22192 0
M  V30 501 O 44.503 -3.78732 1.63204 0
M  V30 502 H 43.844 -0.471638 0.46739 0
M  V30 503 H 46.374 -0.944657 1.81487 0
M  V30 504 H 46.384 -3.33037 2.35691 0
M  V30 505 H 45.059 -2.59869 3.24716 0
M  V30 506 H 43.636 -3.37402 1.58791 0
M  V30 507 N 45.8211 -1.22559 -0.990812 0
M  V30 508 C 46.7841 -0.998863 -2.0629 0
M  V30 509 C 47.7841 0.0354834 -1.60761 0
M  V30 510 O 48.9741 -0.203231 -1.7301 0
M  V30 511 C 46.1061 -0.509203 -3.37076 0
M  V30 512 H 47.2991 -1.95014 -2.27837 0
M  V30 513 H 44.8521 -1.04456 -1.16269 0
M  V30 514 H 45.5871 0.446335 -3.21214 0
M  V30 515 H 45.3721 -1.25547 -3.71457 0
M  V30 516 H 46.8621 -0.370888 -4.1595 0
M  V30 517 N 47.2992 1.18797 -1.03562 0
M  V30 518 C 48.7102 1.70322 -0.764676 0
M  V30 519 C 49.0612 1.82708 0.714996 0
M  V30 520 O 48.1862 1.50299 1.55689 0
M  V30 521 C 48.7812 3.09356 -1.38145 0
M  V30 522 C 47.3402 3.58114 -1.15895 0
M  V30 523 C 46.4872 2.34798 -1.4753 0
M  V30 524 H 49.4382 1.03543 -1.20268 0
M  V30 525 H 49.4592 3.72378 -0.781977 0
M  V30 526 H 48.9712 3.00309 -2.45837 0
M  V30 527 H 47.0722 3.72464 -0.100544 0
M  V30 528 H 47.1852 4.4184 -1.8524 0
M  V30 529 H 45.5492 2.38464 -0.894829 0
M  V30 530 H 46.3322 2.28375 -2.56319 0
M  V30 531 N 48.7773 0.814389 1.34928 0
M  V30 532 C 49.7243 0.22822 2.29669 0
M  V30 533 C 50.6943 -0.642164 1.53184 0
M  V30 534 O 51.8793 -0.585605 1.81591 0
M  V30 535 C 49.0193 -0.61089 3.3965 0
M  V30 536 C 48.1323 0.280792 4.31086 0
M  V30 537 C 47.2673 -0.567067 5.28165 0
M  V30 538 C 46.3063 0.324531 6.11239 0
M  V30 539 N 45.4433 -0.483756 7.00431 0
M  V30 540 H 50.2833 1.04153 2.79206 0
M  V30 541 H 47.8203 0.525133 1.37407 0
M  V30 542 H 49.7783 -1.11263 4.0209 0
M  V30 543 H 48.4083 -1.38939 2.91369 0
M  V30 544 H 47.4603 0.900688 3.69583 0
M  V30 545 H 48.7723 0.966723 4.89342 0
M  V30 546 H 47.9263 -1.13363 5.96015 0
M  V30 547 H 46.6653 -1.28654 4.70425 0
M  V30 548 H 45.6703 0.903298 5.42329 0
M  V30 549 H 46.8953 1.04198 6.71059 0
M  V30 550 H 44.8413 -1.18706 6.45171 0
M  V30 551 H 44.7583 0.143965 7.55863 0
M  V30 552 H 46.0263 -1.03334 7.7262 0
M  V30 553 N 50.2554 -1.46986 0.568584 0
M  V30 554 C 51.6664 -1.86188 0.138219 0
M  V30 555 C 52.0174 -1.47388 -1.29504 0
M  V30 556 O 51.1424 -0.88219 -1.97602 0
M  V30 557 C 51.7374 -3.3792 0.244065 0
M  V30 558 C 50.2964 -3.76171 -0.131335 0
M  V30 559 C 49.4434 -2.71027 0.586465 0
M  V30 560 H 52.3944 -1.38342 0.777645 0
M  V30 561 H 52.4154 -3.76729 -0.534351 0
M  V30 562 H 51.9274 -3.66128 1.28731 0
M  V30 563 H 50.0284 -3.5358 -1.17526 0
M  V30 564 H 50.1414 -4.78523 0.235146 0
M  V30 565 H 48.5054 -2.54684 0.0282722 0
M  V30 566 H 49.2884 -3.02077 1.63109 0
M  V30 567 N 51.7335 -0.305618 -1.54608 0
M  V30 568 C 52.6665 0.610536 -2.19881 0
M  V30 569 C 53.6445 1.1294 -1.16976 0
M  V30 570 O 54.8285 1.19673 -1.45638 0
M  V30 571 C 51.9555 1.83583 -2.84631 0
M  V30 572 C 51.0015 1.4498 -4.01102 0
M  V30 573 S 51.8345 0.501793 -5.33144 0
M  V30 574 C 52.9905 1.73478 -6.01379 0
M  V30 575 H 53.2235 0.0560177 -2.97247 0
M  V30 576 H 50.7565 -0.0897434 -1.54139 0
M  V30 577 H 52.7145 2.53898 -3.22562 0
M  V30 578 H 51.3755 2.36152 -2.07102 0
M  V30 579 H 50.5685 2.36236 -4.45206 0
M  V30 580 H 50.1705 0.826553 -3.64752 0
M  V30 581 H 52.4625 2.67473 -6.22467 0
M  V30 582 H 53.4055 1.33622 -6.95378 0
M  V30 583 H 53.8135 1.9136 -5.31076 0
M  V30 584 N 53.2116 1.57565 -0.0334293 0
M  V30 585 C 54.4366 1.96689 0.657895 0
M  V30 586 C 54.8616 0.910057 1.64619 0
M  V30 587 O 54.2196 -0.128598 1.80843 0
M  V30 588 C 54.2676 3.34905 1.33683 0
M  V30 589 O 53.3716 3.31574 2.45219 0
M  V30 590 H 52.7126 0.641205 0.172489 0
M  V30 591 H 55.2426 2.04372 -0.0965621 0
M  V30 592 H 55.2526 3.71234 1.69262 0
M  V30 593 H 53.9276 4.11366 0.612411 0
M  V30 594 H 52.5046 3.06968 2.11719 0
M  V30 595 N 54.6897 -0.239769 1.55765 0
M  V30 596 C 56.1007 -0.808263 1.68297 0
M  V30 597 C 56.4517 -1.85736 0.632181 0
M  V30 598 O 55.5767 -2.15277 -0.220204 0
M  V30 599 C 56.1717 -1.47284 3.05111 0
M  V30 600 C 54.7307 -1.98895 3.19559 0
M  V30 601 C 53.8777 -0.842575 2.64189 0
M  V30 602 H 56.8287 -0.0154422 1.58692 0
M  V30 603 H 56.8497 -2.34111 2.99954 0
M  V30 604 H 56.3617 -0.709053 3.81568 0
M  V30 605 H 54.4627 -2.78132 2.47938 0
M  V30 606 H 54.5757 -2.18143 4.26556 0
M  V30 607 H 52.9397 -1.24501 2.22197 0
M  V30 608 H 53.7227 -0.0917552 3.43177 0
M  V30 609 N 56.1678 -1.49265 -0.50573 0
M  V30 610 C 57.3928 -1.62478 -1.28902 0
M  V30 611 C 57.8178 -0.294332 -1.85783 0
M  V30 612 O 57.1758 0.737412 -1.65626 0
M  V30 613 C 57.2238 -2.69268 -2.39848 0
M  V30 614 O 56.3278 -2.28113 -3.43567 0
M  V30 615 H 55.6688 -0.54399 -0.380751 0
M  V30 616 H 58.1988 -1.95421 -0.605952 0
M  V30 617 H 58.2088 -2.91291 -2.85681 0
M  V30 618 H 56.8838 -3.65846 -1.97812 0
M  V30 619 H 55.4608 -2.16401 -3.03685 0
M  V30 620 N 57.6459 0.756429 -1.3826 0
M  V30 621 C 58.9229 1.50584 -1.24835 0
M  V30 622 C 59.3029 2.10556 0.151485 0
M  V30 623 O 58.6509 1.96825 1.1607 0
M  V30 624 C 58.8609 2.57448 -2.3563 0
M  V30 625 C 60.2089 3.24429 -2.73917 0
M  V30 626 O 61.2329 2.67751 -2.34921 0
M  V30 627 O 60.0919 4.26937 -3.41156 0
M  V30 628 H 57.1859 0.667664 -0.48801 0
M  V30 629 H 59.7319 0.792083 -1.5008 0
M  V30 630 H 58.5039 2.11362 -3.29305 0
M  V30 631 H 58.1269 3.36408 -2.11933 0
M  V30 632 N 59.124 1.23083 0.984299 0
M  V30 633 C 60.371 1.06057 1.72505 0
M  V30 634 C 60.699 -0.403105 1.90277 0
M  V30 635 O 59.954 -1.3149 1.44944 0
M  V30 636 C 60.253 1.72673 3.1292 0
M  V30 637 C 59.919 3.22586 3.15038 0
M  V30 638 C 58.581 3.63489 3.15324 0
M  V30 639 C 60.933 4.185 3.10657 0
M  V30 640 C 58.261 4.98772 3.08939 0
M  V30 641 C 60.613 5.53769 3.05814 0
M  V30 642 C 59.277 5.94041 3.04419 0
M  V30 643 H 58.547 0.388091 0.631242 0
M  V30 644 H 61.194 1.52963 1.15215 0
M  V30 645 H 59.499 1.18116 3.73572 0
M  V30 646 H 61.196 1.56982 3.68996 0
M  V30 647 H 57.786 2.90022 3.15571 0
M  V30 648 H 61.97 3.87911 3.09579 0
M  V30 649 H 57.226 5.29193 3.0621 0
M  V30 650 H 61.4 6.27808 3.0138 0
M  V30 651 H 59.027 6.98833 2.99227 0
M  V30 652 N 60.6021 -1.18246 1.0419 0
M  V30 653 C 61.5321 -2.24127 0.654914 0
M  V30 654 C 62.5131 -1.66617 -0.342451 0
M  V30 655 O 63.6981 -1.92924 -0.222277 0
M  V30 656 C 60.8281 -3.47295 0.0183757 0
M  V30 657 C 59.7821 -4.17563 0.939414 0
M  V30 658 C 59.1081 -5.34438 0.167286 0
M  V30 659 C 60.4081 -4.70917 2.25908 0
M  V30 660 H 62.1021 -2.56753 1.54007 0
M  V30 661 H 59.6481 -1.23414 0.74195 0
M  V30 662 H 61.6011 -4.20572 -0.264082 0
M  V30 663 H 60.3251 -3.13907 -0.901664 0
M  V30 664 H 58.9841 -3.46186 1.20628 0
M  V30 665 H 58.6321 -4.97298 -0.7552 0
M  V30 666 H 58.3321 -5.82388 0.780901 0
M  V30 667 H 59.8561 -6.10504 -0.108125 0
M  V30 668 H 61.2701 -5.35882 2.03724 0
M  V30 669 H 59.6671 -5.29406 2.82577 0
M  V30 670 H 60.7371 -3.88272 2.9047 0
M  V30 671 N 62.0802 -0.821533 -1.34494 0
M  V30 672 C 63.3572 -0.33159 -1.92769 0
M  V30 673 C 63.7372 1.18088 -1.74981 0
M  V30 674 O 63.0852 1.98733 -1.12772 0
M  V30 675 C 63.2952 -0.759398 -3.40638 0
M  V30 676 C 64.6432 -0.757433 -4.1779 0
M  V30 677 O 65.6672 -0.70189 -3.49216 0
M  V30 678 O 64.5262 -0.829361 -5.4017 0
M  V30 679 H 61.6202 -0.0902502 -0.822061 0
M  V30 680 H 64.1662 -0.906231 -1.43477 0
M  V30 681 H 62.9382 -1.8012 -3.47379 0
M  V30 682 H 62.5612 -0.160378 -3.97276 0
M  V30 683 N 63.5583 1.46682 -0.576371 0
M  V30 684 C 64.5053 2.30241 0.160499 0
M  V30 685 C 65.4753 1.40233 0.890162 0
M  V30 686 O 66.6603 1.69186 0.882084 0
M  V30 687 C 63.8003 3.24578 1.1723 0
M  V30 688 C 62.9133 4.29684 0.446736 0
M  V30 689 C 62.0483 5.11154 1.44551 0
M  V30 690 C 61.0873 6.08015 0.70599 0
M  V30 691 N 60.2243 6.82376 1.65251 0
M  V30 692 H 65.0643 2.92727 -0.558127 0
M  V30 693 H 62.6013 1.44272 -0.287056 0
M  V30 694 H 64.5593 3.77711 1.77172 0
M  V30 695 H 63.1893 2.63916 1.85872 0
M  V30 696 H 62.2413 3.79458 -0.267594 0
M  V30 697 H 63.5533 4.98626 -0.131686 0
M  V30 698 H 62.7073 5.68533 2.11791 0
M  V30 699 H 61.4463 4.42158 2.05786 0
M  V30 700 H 60.4513 5.49796 0.0197725 0
M  V30 701 H 61.6763 6.79028 0.09912 0
M  V30 702 H 59.6223 6.16094 2.25308 0
M  V30 703 H 59.5393 7.47556 1.12673 0
M  V30 704 H 60.8073 7.44316 2.31546 0
M  V30 705 N 65.0364 0.313813 1.54444 0
M  V30 706 C 65.9664 -0.549454 2.26943 0
M  V30 707 C 66.9474 -1.12741 1.27372 0
M  V30 708 O 68.1324 -1.15436 1.56167 0
M  V30 709 C 65.2624 -1.71523 3.01989 0
M  V30 710 C 64.2164 -1.26703 4.08816 0
M  V30 711 C 63.5424 -2.51898 4.71647 0
M  V30 712 C 64.8424 -0.388962 5.2085 0
M  V30 713 H 66.5364 0.0552661 2.99349 0
M  V30 714 H 64.0824 0.0280207 1.43973 0
M  V30 715 H 66.0354 -2.32535 3.51433 0
M  V30 716 H 64.7594 -2.34639 2.27183 0
M  V30 717 H 63.4184 -0.679896 3.6024 0
M  V30 718 H 63.0664 -3.13356 3.93468 0
M  V30 719 H 62.7664 -2.22605 5.43802 0
M  V30 720 H 64.2904 -3.1369 5.23861 0
M  V30 721 H 65.7044 -0.905107 5.6611 0
M  V30 722 H 64.1014 -0.18924 5.99802 0
M  V30 723 H 65.1714 0.582699 4.81386 0
M  V30 724 N 66.5145 -1.57545 0.0417849 0
M  V30 725 C 67.4475 -2.06514 -0.970928 0
M  V30 726 C 68.4255 -0.963607 -1.30971 0
M  V30 727 O 69.6095 -1.23486 -1.4242 0
M  V30 728 C 66.7365 -2.4978 -2.28752 0
M  V30 729 C 65.7825 -3.71078 -2.10246 0
M  V30 730 S 66.6155 -5.17158 -1.38952 0
M  V30 731 C 67.7715 -5.6373 -2.71954 0
M  V30 732 H 68.0045 -2.9209 -0.554129 0
M  V30 733 H 65.5375 -1.53459 -0.17024 0
M  V30 734 H 67.4955 -2.75371 -3.04435 0
M  V30 735 H 66.1565 -1.64527 -2.67562 0
M  V30 736 H 65.3495 -3.9924 -3.07609 0
M  V30 737 H 64.9515 -3.45705 -1.42704 0
M  V30 738 H 67.2435 -5.68743 -3.68154 0
M  V30 739 H 68.1865 -6.63086 -2.4844 0
M  V30 740 H 68.5945 -4.91424 -2.77782 0
M  V30 741 N 67.9926 0.231505 -1.5589 0
M  V30 742 C 69.2406 0.955461 -1.78088 0
M  V30 743 C 69.5616 1.85262 -0.608533 0
M  V30 744 O 68.8316 1.92277 0.375035 0
M  V30 745 H 67.4116 0.355787 -0.656829 0
M  V30 746 H 70.0736 0.245751 -1.93344 0
M  V30 747 H 69.1696 1.56814 -2.69844 0
M  V30 748 N 69.4707 1.49531 0.497807 0
M  V30 749 C 70.8867 1.36365 0.829266 0
M  V30 750 C 71.0867 0.399184 1.97506 0
M  V30 751 O 70.1427 -0.167977 2.51941 0
M  V30 752 C 71.4557 2.77153 1.16647 0
M  V30 753 C 73.0037 2.85877 1.27449 0
M  V30 754 C 73.4787 4.2744 1.64497 0
M  V30 755 N 74.9697 4.30265 1.7154 0
M  V30 756 C 75.7047 5.3677 2.01656 0
M  V30 757 N 75.2007 6.53516 2.29976 0
M  V30 758 N 76.9937 5.24189 2.02934 0
M  V30 759 H 69.1447 2.10831 -0.257703 0
M  V30 760 H 71.4077 0.946534 -0.0527091 0
M  V30 761 H 71.1137 3.49442 0.397872 0
M  V30 762 H 70.9877 3.12722 2.10915 0
M  V30 763 H 73.3747 2.13824 2.0338 0
M  V30 764 H 73.4557 2.53887 0.312244 0
M  V30 765 H 73.0997 5.00021 0.891151 0
M  V30 766 H 73.0297 4.56896 2.61827 0
M  V30 767 H 75.5207 3.4607 1.51802 0
M  V30 768 H 75.8337 7.30506 2.52153 0
M  V30 769 H 74.1787 6.56737 2.27425 0
M  V30 770 H 77.3697 4.31988 1.80289 0
M  V30 771 H 77.5427 6.07286 2.26071 0
M  V30 772 N 70.9488 -0.749086 1.3866 0
M  V30 773 C 72.1768 -1.53834 1.38358 0
M  V30 774 C 72.5918 -1.88783 -0.0255219 0
M  V30 775 O 71.9488 -1.53101 -0.993292 0
M  V30 776 C 71.9998 -2.83468 2.2434 0
M  V30 777 O 71.7208 -2.50008 3.5976 0
M  V30 778 C 73.2218 -3.7758 2.32267 0
M  V30 779 H 70.4418 -0.47585 0.473083 0
M  V30 780 H 72.9858 -0.926726 1.82297 0
M  V30 781 H 71.1408 -3.40995 1.83851 0
M  V30 782 H 71.5548 -3.33182 4.05081 0
M  V30 783 H 73.0288 -4.65478 2.96706 0
M  V30 784 H 73.5058 -4.18334 1.33765 0
M  V30 785 H 74.1118 -3.25976 2.73166 0
M  V30 786 N 72.4269 -1.23603 -0.977757 0
M  V30 787 C 73.6519 -1.09735 -1.75991 0
M  V30 788 C 74.0769 0.346858 -1.84874 0
M  V30 789 O 73.4349 1.25093 -1.3123 0
M  V30 790 C 73.4829 -1.73051 -3.16363 0
M  V30 791 O 72.5869 -0.994452 -4.0023 0
M  V30 792 H 71.9279 -0.384476 -0.541364 0
M  V30 793 H 74.4579 -1.6371 -1.2272 0
M  V30 794 H 74.4679 -1.78398 -3.66931 0
M  V30 795 H 73.1429 -2.78137 -3.09213 0
M  V30 796 H 71.7199 -1.01812 -3.58732 0
M  V30 797 N 73.905 1.17692 -1.04816 0
M  V30 798 C 75.153 1.87488 -0.754497 0
M  V30 799 C 75.474 1.81205 0.720407 0
M  V30 800 O 74.744 1.23544 1.52032 0
M  V30 801 H 73.324 0.694101 -0.276102 0
M  V30 802 H 75.986 1.42793 -1.32651 0
M  V30 803 H 75.082 2.93328 -1.06606 0
M  V30 804 N 75.3831 0.828654 1.34056 0
M  V30 805 C 76.6131 0.431993 2.02033 0
M  V30 806 C 77.0211 -0.96844 1.62536 0
M  V30 807 O 76.3641 -1.6391 0.829408 0
M  V30 808 C 76.4261 0.461224 3.56529 0
M  V30 809 C 76.0901 1.81599 4.1937 0
M  V30 810 C 77.0871 2.7777 4.39477 0
M  V30 811 C 74.7721 2.10604 4.56017 0
M  V30 812 C 76.7661 4.01115 4.95364 0
M  V30 813 C 74.4531 3.34207 5.11614 0
M  V30 814 C 75.4511 4.2928 5.31232 0
M  V30 815 O 75.1391 5.50699 5.8565 0
M  V30 816 H 74.8711 0.170943 0.654029 0
M  V30 817 H 77.4251 1.11988 1.72185 0
M  V30 818 H 75.6551 -0.283388 3.8566 0
M  V30 819 H 77.3441 0.0838149 4.05813 0
M  V30 820 H 78.1101 2.56659 4.11523 0
M  V30 821 H 73.9891 1.37402 4.40047 0
M  V30 822 H 77.5331 4.75333 5.10592 0
M  V30 823 H 73.4301 3.55179 5.38997 0
M  V30 824 H 74.1981 5.52298 6.04077 0
M  V30 825 N 76.8612 -1.46375 0.584142 0
M  V30 826 C 78.1382 -1.956 0.0033388 0
M  V30 827 C 78.5182 -1.52679 -1.45782 0
M  V30 828 O 77.8662 -0.77816 -2.14842 0
M  V30 829 C 78.0762 -3.48551 0.176891 0
M  V30 830 C 79.4242 -4.24576 0.0454609 0
M  V30 831 O 80.4482 -3.56043 0.105801 0
M  V30 832 O 79.3072 -5.46427 -0.0890376 0
M  V30 833 H 76.4012 -0.825547 -0.0490066 0
M  V30 834 H 78.9472 -1.56652 0.65256 0
M  V30 835 H 77.7192 -3.72683 1.1926 0
M  V30 836 H 77.3422 -3.94332 -0.508695 0
M  V30 837 N 78.3393 -0.321999 -1.54275 0
M  V30 838 C 79.3023 0.531975 -2.22941 0
M  V30 839 C 80.3023 1.04478 -1.22234 0
M  V30 840 O 81.4923 0.937452 -1.46825 0
M  V30 841 C 78.6243 1.73874 -2.93224 0
M  V30 842 H 79.8173 -0.0682612 -2.99822 0
M  V30 843 H 77.3703 -0.0730644 -1.56129 0
M  V30 844 H 78.1053 2.37825 -2.20476 0
M  V30 845 H 77.8903 1.37847 -3.6707 0
M  V30 846 H 79.3803 2.34496 -3.45545 0
M  V30 847 N 79.8174 1.5752 -0.0501392 0
M  V30 848 C 81.2334 1.56631 0.306402 0
M  V30 849 C 81.4334 1.0577 1.71508 0
M  V30 850 O 80.4894 0.713837 2.422 0
M  V30 851 C 81.8024 3.00393 0.135811 0
M  V30 852 C 83.3504 3.12315 0.206993 0
M  V30 853 C 83.8254 4.57954 0.064944 0
M  V30 854 N 85.3164 4.63041 0.121254 0
M  V30 855 C 86.0514 5.73389 0.0354381 0
M  V30 856 N 85.5474 6.92724 -0.102666 0
M  V30 857 N 87.3404 5.62026 0.090946 0
M  V30 858 H 79.4914 1.88903 -0.971046 0
M  V30 859 H 81.7544 0.869876 -0.376855 0
M  V30 860 H 81.4604 3.41635 -0.835384 0
M  V30 861 H 81.3344 3.66373 0.897275 0
M  V30 862 H 83.7214 2.70973 1.16866 0
M  V30 863 H 83.8024 2.49016 -0.585208 0
M  V30 864 H 83.4464 4.99981 -0.893394 0
M  V30 865 H 83.3764 5.19258 0.876277 0
M  V30 866 H 85.8674 3.77216 0.227284 0
M  V30 867 H 86.1804 7.72633 -0.160882 0
M  V30 868 H 84.5254 6.94864 -0.137737 0
M  V30 869 H 87.7164 4.67684 0.197388 0
M  V30 870 H 87.8894 6.47997 0.0206089 0
M  V30 871 N 81.2955 -0.223234 1.56011 0
M  V30 872 C 82.5445 -0.945912 1.78144 0
M  V30 873 C 82.8575 -1.85567 0.618396 0
M  V30 874 O 84.0635 -2.61688 0.723318 0
M  V30 875 C 82.5195 -1.73216 3.15475 0
M  V30 876 C 82.1275 -0.868619 4.39499 0
M  V30 877 C 83.8715 -2.44615 3.46935 0
M  V30 878 C 81.7785 -1.65212 5.67855 0
M  V30 879 H 80.7085 -0.356929 0.664167 0
M  V30 880 H 83.3595 -0.199845 1.82409 0
M  V30 881 H 81.7415 -2.52107 3.05382 0
M  V30 882 H 82.9155 -0.120366 4.60643 0
M  V30 883 H 81.2305 -0.26683 4.15544 0
M  V30 884 H 83.8275 -3.03732 4.40058 0
M  V30 885 H 84.1705 -3.17417 2.69355 0
M  V30 886 H 84.7035 -1.72715 3.58349 0
M  V30 887 H 81.4425 -0.967407 6.48322 0
M  V30 888 H 80.9625 -2.37503 5.50774 0
M  V30 889 H 82.6415 -2.21322 6.07968 0
M  V30 890 N 82.7736 -1.49793 -0.48987 0
M  V30 891 C 84.1896 -1.36803 -0.822022 0
M  V30 892 C 84.3896 -0.409652 -1.97292 0
M  V30 893 O 83.4456 0.154614 -2.52026 0
M  V30 894 C 84.7586 -2.77768 -1.15175 0
M  V30 895 C 86.3066 -2.86549 -1.25931 0
M  V30 896 C 86.7816 -4.28306 -1.62228 0
M  V30 897 N 88.2726 -4.31169 -1.69256 0
M  V30 898 C 89.0076 -5.37832 -1.98807 0
M  V30 899 N 88.5036 -6.54726 -2.26507 0
M  V30 900 N 90.2966 -5.25258 -2.00152 0
M  V30 901 H 82.4476 -2.10691 0.268881 0
M  V30 902 H 84.7106 -0.946241 0.057728 0
M  V30 903 H 84.4166 -3.49648 -0.379335 0
M  V30 904 H 84.2906 -3.13836 -2.09253 0
M  V30 905 H 86.6776 -2.14899 -2.02243 0
M  V30 906 H 86.7586 -2.54049 -0.298776 0
M  V30 907 H 86.4026 -5.00486 -0.864622 0
M  V30 908 H 86.3326 -4.58279 -2.594 0
M  V30 909 H 88.8236 -3.4687 -1.49965 0
M  V30 910 H 89.1366 -7.31833 -2.48276 0
M  V30 911 H 87.4816 -6.57933 -2.23939 0
M  V30 912 H 90.6726 -4.32938 -1.77996 0
M  V30 913 H 90.8456 -6.08476 -2.22848 0
M  V30 914 N 84.2517 0.741722 -1.39055 0
M  V30 915 C 85.6627 1.31966 -1.32068 0
M  V30 916 C 86.0137 1.96192 0.0180797 0
M  V30 917 O 85.1387 1.95861 0.920196 0
M  V30 918 C 85.7337 2.39954 -2.39181 0
M  V30 919 C 84.2927 2.93438 -2.35735 0
M  V30 920 C 83.4397 1.66936 -2.21422 0
M  V30 921 H 86.3907 0.539721 -1.4924 0
M  V30 922 H 86.4117 3.20182 -2.05581 0
M  V30 923 H 85.9237 1.9318 -3.36605 0
M  V30 924 H 84.0247 3.4451 -1.41929 0
M  V30 925 H 84.1377 3.4701 -3.30335 0
M  V30 926 H 82.5017 1.91016 -1.68478 0
M  V30 927 H 83.2847 1.22224 -3.20806 0
M  V30 928 N 85.7298 1.2412 0.971189 0
M  V30 929 C 86.6778 1.02812 2.08644 0
M  V30 930 C 87.6718 -0.0358403 1.69362 0
M  V30 931 O 88.8778 0.118429 1.7961 0
M  V30 932 H 85.2528 0.315428 0.682649 0
M  V30 933 H 87.2238 1.97397 2.23779 0
M  V30 934 C 85.9728 0.645874 3.41649 0
M  V30 935 H 85.2958 1.45632 3.72332 0
M  V30 936 H 86.7358 0.536366 4.20594 0
M  V30 937 C 85.1948 -0.646713 3.30635 0
M  V30 938 O 85.7248 -1.69338 3.64263 0
M  V30 939 N 83.9308 -0.626115 2.83775 0
M  V30 940 H 83.4778 0.225988 2.56607 0
M  V30 941 H 83.4358 -1.49117 2.76788 0
M  V30 942 N 87.2079 -1.17134 1.05439 0
M  V30 943 C 88.4549 -1.87456 0.765942 0
M  V30 944 C 88.7829 -1.81189 -0.707153 0
M  V30 945 O 88.0379 -1.21633 -1.5331 0
M  V30 946 C 88.3369 -3.36833 1.19491 0
M  V30 947 C 88.0029 -3.63301 2.67063 0
M  V30 948 C 86.6649 -3.70234 3.07376 0
M  V30 949 C 89.0169 -3.74575 3.62413 0
M  V30 950 C 86.3449 -3.85933 4.41896 0
M  V30 951 C 88.6969 -3.91793 4.9667 0
M  V30 952 C 87.3609 -3.96966 5.36633 0
M  V30 953 H 86.6309 -0.685948 0.280278 0
M  V30 954 H 89.2779 -1.38556 1.32192 0
M  V30 955 H 87.5829 -3.87807 0.557969 0
M  V30 956 H 89.2799 -3.89611 0.948893 0
M  V30 957 H 85.8699 -3.58532 2.34846 0
M  V30 958 H 90.0539 -3.68537 3.32406 0
M  V30 959 H 85.3099 -3.88187 4.72357 0
M  V30 960 H 89.4839 -3.99458 5.70444 0
M  V30 961 H 87.1109 -4.08883 6.40874 0
M  V30 962 N 88.686 -0.835752 -1.33615 0
M  V30 963 C 89.633 -0.26473 -2.29277 0
M  V30 964 C 90.603 0.617712 -1.54187 0
M  V30 965 O 91.788 0.556641 -1.825 0
M  V30 966 C 88.928 0.556777 -3.40579 0
M  V30 967 C 88.041 -0.349339 -4.30585 0
M  V30 968 C 87.176 0.482969 -5.29 0
M  V30 969 C 86.215 -0.421732 -6.10645 0
M  V30 970 N 85.352 0.372262 -7.01112 0
M  V30 971 H 90.192 -1.08582 -2.77514 0
M  V30 972 H 87.729 -0.546927 -1.36554 0
M  V30 973 H 89.687 1.04852 -4.03809 0
M  V30 974 H 88.317 1.34286 -2.93542 0
M  V30 975 H 87.369 -0.959372 -3.68104 0
M  V30 976 H 88.681 -1.04445 -4.87742 0
M  V30 977 H 87.835 1.03866 -5.97743 0
M  V30 978 H 86.574 1.21153 -4.72412 0
M  V30 979 H 85.579 -0.989464 -5.40823 0
M  V30 980 H 86.804 -1.14861 -6.69316 0
M  V30 981 H 84.75 1.08426 -6.46977 0
M  V30 982 H 84.667 -0.264198 -7.55538 0
M  V30 983 H 85.935 0.910293 -7.74167 0
M  V30 984 N 90.1641 1.46063 -0.591896 0
M  V30 985 C 91.4121 2.01938 -0.0808391 0
M  V30 986 C 91.7331 1.46475 1.28725 0
M  V30 987 O 91.0031 0.652944 1.84698 0
M  V30 988 H 89.5831 0.746516 -0.0268938 0
M  V30 989 H 92.2451 1.79055 -0.769752 0
M  V30 990 H 91.3411 3.12094 -0.0187578 0
M  V30 991 N 91.6422 0.330177 1.54103 0
M  V30 992 C 93.0532 -0.15652 1.86043 0
M  V30 993 C 93.4042 -1.51086 1.2517 0
M  V30 994 O 92.5292 -2.09023 0.560217 0
M  V30 995 C 93.1242 -0.290784 3.3755 0
M  V30 996 C 91.6832 -0.721705 3.69416 0
M  V30 997 C 90.8302 0.152622 2.7688 0
M  V30 998 H 93.7812 0.550237 1.48856 0
M  V30 999 H 93.8022 -1.12058 3.63625 0
M  V30 1000 H 93.3142 0.695068 3.81825 0
M  V30 1001 H 91.4152 -1.71706 3.30678 0
M  V30 1002 H 91.5282 -0.520869 4.7626 0
M  V30 1003 H 89.8922 -0.372894 2.51956 0
M  V30 1004 H 90.6752 1.13536 3.23982 0
M  V30 1005 N 93.1203 -1.57491 0.0584922 0
M  V30 1006 C 94.5313 -1.80526 -0.476138 0
M  V30 1007 C 94.8823 -0.971334 -1.70469 0
M  V30 1008 O 94.0073 -0.190012 -2.15564 0
M  V30 1009 C 94.6023 -3.27424 -0.870587 0
M  V30 1010 C 93.1613 -3.51351 -1.35015 0
M  V30 1011 C 92.3083 -2.75343 -0.32887 0
M  V30 1012 H 95.2593 -1.56133 0.284312 0
M  V30 1013 H 95.2803 -3.38745 -1.73299 0
M  V30 1014 H 94.7923 -3.88093 0.0237627 0
M  V30 1015 H 92.8933 -2.95971 -2.26345 0
M  V30 1016 H 93.0063 -4.60059 -1.33726 0
M  V30 1017 H 91.3703 -2.417 -0.803321 0
M  V30 1018 H 92.1533 -3.38743 0.557521 0
M  V30 1019 N 94.5984 0.214957 -1.56127 0
M  V30 1020 C 95.8444 0.939762 -1.79712 0
M  V30 1021 C 96.1774 1.83723 -0.629247 0
M  V30 1022 O 95.4524 1.90925 0.371197 0
M  V30 1023 C 95.7354 1.77306 -3.13424 0
M  V30 1024 C 95.5884 0.90164 -4.40671 0
M  V30 1025 C 96.9074 2.74956 -3.43638 0
M  V30 1026 H 94.0264 0.340214 -0.653776 0
M  V30 1027 H 96.6684 0.20824 -1.88855 0
M  V30 1028 H 94.8184 2.39673 -3.0576 0
M  V30 1029 H 96.4904 0.294206 -4.60361 0
M  V30 1030 H 94.7334 0.207368 -4.33304 0
M  V30 1031 H 95.4044 1.51923 -5.30682 0
M  V30 1032 H 97.8804 2.22724 -3.51473 0
M  V30 1033 H 96.7564 3.30358 -4.38355 0
M  V30 1034 H 97.0174 3.53023 -2.66134 0
M  V30 1035 N 96.0765 1.50051 0.48192 0
M  V30 1036 C 97.0245 1.68635 1.60203 0
M  V30 1037 C 98.0185 0.552184 1.60148 0
M  V30 1038 O 99.2245 0.732377 1.64427 0
M  V30 1039 H 95.5995 0.532081 0.531407 0
M  V30 1040 H 97.5705 2.62616 1.41688 0
M  V30 1041 C 96.3195 1.78775 2.9822 0
M  V30 1042 H 95.6425 2.6543 2.98976 0
M  V30 1043 H 97.0825 1.95806 3.7608 0
M  V30 1044 C 95.5415 0.536849 3.32595 0
M  V30 1045 O 96.0715 -0.328897 4.00351 0
M  V30 1046 N 94.2775 0.394091 2.87915 0
M  V30 1047 H 93.8245 1.09962 2.32951 0
M  V30 1048 H 93.7825 -0.441737 3.11281 0
M  V30 1049 N 97.5546 -0.734337 1.39446 0
M  V30 1050 C 98.8006 -1.49613 1.36908 0
M  V30 1051 C 99.1336 -1.94169 -0.0347829 0
M  V30 1052 O 98.4086 -1.66833 -0.999847 0
M  V30 1053 C 98.6916 -2.73534 2.34203 0
M  V30 1054 C 98.5446 -2.34993 3.83534 0
M  V30 1055 C 99.8636 -3.75635 2.29317 0
M  V30 1056 H 96.9826 -0.542714 0.498629 0
M  V30 1057 H 99.6246 -0.839597 1.70443 0
M  V30 1058 H 97.7746 -3.29553 2.05736 0
M  V30 1059 H 99.4466 -1.84601 4.22753 0
M  V30 1060 H 97.6896 -1.67213 4.00278 0
M  V30 1061 H 98.3606 -3.23738 4.47099 0
M  V30 1062 H 100.837 -3.29203 2.54489 0
M  V30 1063 H 99.7126 -4.60008 2.99472 0
M  V30 1064 H 99.9736 -4.22603 1.29842 0
M  V30 1065 N 99.0327 -1.24633 -0.964593 0
M  V30 1066 C 100.258 -1.11596 -1.74818 0
M  V30 1067 C 100.683 0.32723 -1.85232 0
M  V30 1068 O 100.041 1.23695 -1.32549 0
M  V30 1069 C 100.089 -1.76397 -3.1451 0
M  V30 1070 O 99.1927 -1.03685 -3.99153 0
M  V30 1071 H 98.5337 -0.390196 -0.537255 0
M  V30 1072 H 101.064 -1.65002 -1.20977 0
M  V30 1073 H 101.074 -1.8228 -3.65018 0
M  V30 1074 H 99.7487 -2.81401 -3.06246 0
M  V30 1075 H 98.3257 -1.05611 -3.57632 0
M  V30 1076 N 100.511 1.16574 -1.06058 0
M  V30 1077 C 101.751 1.88723 -0.78504 0
M  V30 1078 C 102.115 1.79706 0.676006 0
M  V30 1079 O 103.316 2.46757 1.06603 0
M  V30 1080 C 101.587 3.34338 -1.26304 0
M  V30 1081 S 103.146 4.24366 -1.1162 0
M  V30 1082 H 99.9638 0.651448 -0.284846 0
M  V30 1083 H 102.566 1.40732 -1.35701 0
M  V30 1084 H 101.27 3.38439 -2.32136 0
M  V30 1085 H 100.801 3.87378 -0.685719 0
M  V30 1086 H 102.816 4.96179 -0.0456539 0
M  V30 1087 N 101.989 0.842826 1.3317 0
M  V30 1088 C 102.937 0.267495 2.31057 0
M  V30 1089 C 103.931 -0.602682 1.58316 0
M  V30 1090 O 105.137 -0.491803 1.73151 0
M  V30 1091 H 101.512 0.0677813 0.748939 0
M  V30 1092 H 103.483 1.10754 2.77085 0
M  V30 1093 C 102.232 -0.539331 3.43492 0
M  V30 1094 H 101.555 0.12095 3.99617 0
M  V30 1095 H 102.995 -0.90767 4.14171 0
M  V30 1096 C 101.454 -1.71981 2.89697 0
M  V30 1097 O 101.984 -2.81862 2.86211 0
M  V30 1098 N 100.19 -1.54299 2.46252 0
M  V30 1099 H 99.7369 -0.649143 2.49287 0
M  V30 1100 H 99.6949 -2.33431 2.10612 0
M  V30 1101 N 103.467 -1.45747 0.599634 0
M  V30 1102 C 104.716 -2.01502 0.0893511 0
M  V30 1103 C 105.029 -1.4748 -1.28488 0
M  V30 1104 O 106.235 -1.95161 -1.88745 0
M  V30 1105 C 104.691 -3.59735 0.109082 0
M  V30 1106 C 104.299 -4.22754 1.48267 0
M  V30 1107 C 106.043 -4.23085 -0.346374 0
M  V30 1108 C 103.95 -5.73115 1.45921 0
M  V30 1109 H 102.88 -0.753417 0.0296347 0
M  V30 1110 H 105.531 -1.67303 0.753788 0
M  V30 1111 H 103.913 -3.91087 -0.621854 0
M  V30 1112 H 105.087 -4.02987 2.23468 0
M  V30 1113 H 103.402 -3.71567 1.87955 0
M  V30 1114 H 105.999 -5.33327 -0.38298 0
M  V30 1115 H 106.342 -3.93201 -1.36743 0
M  V30 1116 H 106.875 -3.9642 0.331038 0
M  V30 1117 H 103.614 -6.07685 2.45762 0
M  V30 1118 H 103.134 -5.95097 0.749665 0
M  V30 1119 H 104.813 -6.3616 1.17941 0
M  V30 1120 N 104.945 -0.338344 -1.53925 0
M  V30 1121 C 106.192 0.259758 -2.00827 0
M  V30 1122 C 106.52 1.50973 -1.22628 0
M  V30 1123 O 105.775 1.93379 -0.300509 0
M  V30 1124 C 106.074 0.62448 -3.51902 0
M  V30 1125 C 105.74 -0.528006 -4.47798 0
M  V30 1126 C 104.402 -0.844298 -4.73735 0
M  V30 1127 C 106.754 -1.30143 -5.0469 0
M  V30 1128 C 104.082 -1.93648 -5.53821 0
M  V30 1129 C 106.434 -2.38382 -5.85967 0
M  V30 1130 C 105.098 -2.70576 -6.10201 0
M  V30 1131 H 104.368 0.0950523 -0.734878 0
M  V30 1132 H 107.015 -0.465182 -1.85764 0
M  V30 1133 H 105.32 1.43006 -3.64769 0
M  V30 1134 H 107.017 1.09905 -3.85645 0
M  V30 1135 H 103.607 -0.271421 -4.2774 0
M  V30 1136 H 107.791 -1.07033 -4.84621 0
M  V30 1137 H 103.047 -2.19021 -5.70824 0
M  V30 1138 H 107.221 -2.98746 -6.29066 0
M  V30 1139 H 104.848 -3.55333 -6.72044 0
M  V30 1140 N 106.423 1.57458 -0.0668435 0
M  V30 1141 C 107.672 1.92477 0.602947 0
M  V30 1142 C 107.985 0.948419 1.71068 0
M  V30 1143 O 109.191 1.19124 2.43971 0
M  V30 1144 C 107.647 3.41903 1.12383 0
M  V30 1145 C 107.255 4.47975 0.04737 0
M  V30 1146 C 108.999 3.85931 1.76797 0
M  V30 1147 C 106.906 5.88529 0.582022 0
M  V30 1148 H 105.836 0.718387 0.22899 0
M  V30 1149 H 108.487 1.82978 -0.138276 0
M  V30 1150 H 106.869 3.46459 1.91787 0
M  V30 1151 H 108.043 4.55029 -0.726978 0
M  V30 1152 H 106.358 4.13384 -0.500243 0
M  V30 1153 H 108.955 4.88322 2.17821 0
M  V30 1154 H 109.298 3.23029 2.62599 0
M  V30 1155 H 109.831 3.83958 1.04024 0
M  V30 1156 H 106.57 6.55065 -0.238721 0
M  V30 1157 H 106.09 5.85004 1.324 0
M  V30 1158 H 107.769 6.38258 1.05999 0
M  V30 1159 N 107.901 -0.206675 1.56239 0
M  V30 1160 C 108.849 -1.27571 1.94495 0
M  V30 1161 C 109.843 -1.47737 0.828862 0
M  V30 1162 O 111.049 -1.48735 1.0138 0
M  V30 1163 H 107.424 -0.428029 0.6183 0
M  V30 1164 H 109.395 -0.925961 2.8367 0
M  V30 1165 C 108.144 -2.61568 2.29079 0
M  V30 1166 H 107.467 -2.46863 3.14482 0
M  V30 1167 H 108.907 -3.35144 2.5972 0
M  V30 1168 C 107.366 -3.17695 1.12123 0
M  V30 1169 O 107.896 -3.99801 0.390153 0
M  V30 1170 N 106.102 -2.76276 0.901097 0
M  V30 1171 H 105.649 -2.09613 1.49733 0
M  V30 1172 H 105.607 -3.1417 0.120319 0
M  V30 1173 N 109.379 -1.50304 -0.473955 0
M  V30 1174 C 110.604 -1.65175 -1.25427 0
M  V30 1175 C 111.029 -0.333673 -1.85117 0
M  V30 1176 O 110.387 0.702114 -1.67153 0
M  V30 1177 C 110.435 -2.74295 -2.34082 0
M  V30 1178 O 109.539 -2.35349 -3.38651 0
M  V30 1179 H 108.88 -0.551944 -0.369126 0
M  V30 1180 H 111.41 -1.96662 -0.564364 0
M  V30 1181 H 111.42 -2.97285 -2.79438 0
M  V30 1182 H 110.095 -3.69959 -1.90008 0
M  V30 1183 H 108.672 -2.22794 -2.99027 0
M  V30 1184 N 110.857 0.726932 -1.39834 0
M  V30 1185 C 112.104 1.48664 -1.37496 0
M  V30 1186 C 112.432 1.94482 0.0264678 0
M  V30 1187 O 111.687 1.67692 1.00886 0
M  V30 1188 C 111.986 2.73495 -2.30077 0
M  V30 1189 C 111.652 2.46502 -3.77555 0
M  V30 1190 C 110.314 2.3885 -4.17737 0
M  V30 1191 C 112.666 2.23604 -4.70798 0
M  V30 1192 C 109.994 2.06352 -5.49214 0
M  V30 1193 C 112.346 1.92622 -6.02561 0
M  V30 1194 C 111.01 1.83444 -6.41798 0
M  V30 1195 H 110.28 0.544001 -0.503135 0
M  V30 1196 H 112.927 0.833657 -1.72402 0
M  V30 1197 H 111.232 3.43575 -1.88317 0
M  V30 1198 H 112.929 3.31549 -2.25558 0
M  V30 1199 H 109.519 2.5334 -3.45712 0
M  V30 1200 H 113.703 2.28479 -4.40581 0
M  V30 1201 H 108.959 1.97776 -5.78528 0
M  V30 1202 H 113.133 1.73914 -6.74334 0
M  V30 1203 H 110.76 1.58029 -7.43593 0
M  V30 1204 N 112.336 1.25143 0.95797 0
M  V30 1205 C 113.584 1.09476 1.69881 0
M  V30 1206 C 113.905 -0.365502 1.91544 0
M  V30 1207 O 113.175 -1.25985 1.50015 0
M  V30 1208 H 111.755 0.402128 0.629525 0
M  V30 1209 H 114.417 1.57214 1.15194 0
M  V30 1210 H 113.513 1.60046 2.6794 0
M  V30 1211 N 113.814 -1.1601 1.06675 0
M  V30 1212 C 115.039 -1.91068 0.806706 0
M  V30 1213 C 115.464 -1.77112 -0.633485 0
M  V30 1214 O 114.822 -1.09908 -1.44187 0
M  V30 1215 C 114.87 -3.39655 1.21106 0
M  V30 1216 O 113.974 -4.10893 0.352189 0
M  V30 1217 H 113.315 -0.595125 0.294486 0
M  V30 1218 H 115.845 -1.46955 1.42356 0
M  V30 1219 H 115.855 -3.90434 1.18428 0
M  V30 1220 H 114.53 -3.49132 2.26008 0
M  V30 1221 H 113.107 -3.70285 0.440868 0
M  V30 1222 N 115.292 -0.849877 -1.32721 0
M  V30 1223 C 116.541 -0.447175 -1.96681 0
M  V30 1224 C 116.854 1.00135 -1.68025 0
M  V30 1225 O 118.06 1.50926 -2.25685 0
M  V30 1226 C 116.516 -0.7487 -3.52026 0
M  V30 1227 C 116.124 -2.21264 -3.89546 0
M  V30 1228 C 117.868 -0.413487 -4.22481 0
M  V30 1229 C 115.775 -2.45763 -5.37917 0
M  V30 1230 H 114.705 -0.163486 -0.736063 0
M  V30 1231 H 117.356 -1.03999 -1.51183 0
M  V30 1232 H 115.738 -0.0853727 -3.95908 0
M  V30 1233 H 116.912 -2.91736 -3.56689 0
M  V30 1234 H 115.227 -2.5119 -3.32103 0
M  V30 1235 H 117.824 -0.574017 -5.3161 0
M  V30 1236 H 118.167 0.644492 -4.11281 0
M  V30 1237 H 118.7 -1.03251 -3.84167 0
M  V30 1238 H 115.439 -3.50168 -5.54132 0
M  V30 1239 H 114.959 -1.79864 -5.72197 0
M  V30 1240 H 116.638 -2.29471 -6.0494 0
M  V30 1241 N 116.77 1.45427 -0.607355 0
M  V30 1242 C 117.733 2.28974 0.101693 0
M  V30 1243 C 118.733 1.39754 0.795329 0
M  V30 1244 O 119.923 1.61878 0.643527 0
M  V30 1245 C 117.055 3.20768 1.15414 0
M  V30 1246 H 118.248 2.93147 -0.632844 0
M  V30 1247 H 115.801 1.51945 -0.366391 0
M  V30 1248 H 116.536 2.61395 1.91945 0
M  V30 1249 H 116.321 3.86489 0.66098 0
M  V30 1250 H 117.811 3.83589 1.65073 0
M  V30 1251 N 118.248 0.346503 1.53744 0
M  V30 1252 C 119.158 -0.517293 2.28826 0
M  V30 1253 C 120.174 -1.10935 1.3405 0
M  V30 1254 O 121.35 -1.1244 1.6709 0
M  V30 1255 C 118.415 -1.65098 3.04866 0
M  V30 1256 C 117.476 -1.0884 4.15274 0
M  V30 1257 C 116.709 -2.16806 4.87679 0
M  V30 1258 O 116.932 -3.3758 4.59778 0
M  V30 1259 O 115.866 -1.80934 5.74061 0
M  V30 1260 H 119.692 0.0931396 3.03557 0
M  V30 1261 H 117.277 0.111458 1.48984 0
M  V30 1262 H 119.159 -2.31053 3.5241 0
M  V30 1263 H 117.834 -2.24717 2.32989 0
M  V30 1264 H 116.741 -0.3933 3.72027 0
M  V30 1265 H 118.074 -0.537036 4.89261 0
M  V30 1266 N 119.726 -1.57421 0.075193 0
M  V30 1267 C 120.954 -1.97946 -0.602076 0
M  V30 1268 C 121.369 -0.953674 -1.62943 0
M  V30 1269 O 120.726 0.0592551 -1.82404 0
M  V30 1270 C 120.777 -3.38546 -1.26762 0
M  V30 1271 O 120.498 -4.37195 -0.281376 0
M  V30 1272 C 121.999 -3.93966 -2.03239 0
M  V30 1273 H 119.219 -0.650918 -0.162931 0
M  V30 1274 H 121.763 -2.03959 0.148601 0
M  V30 1275 H 119.918 -3.33609 -1.96936 0
M  V30 1276 H 120.332 -5.18975 -0.759267 0
M  V30 1277 H 121.806 -4.94555 -2.45193 0
M  V30 1278 H 122.283 -3.30693 -2.8903 0
M  V30 1279 H 122.889 -4.02315 -1.37924 0
M  V30 1280 N 121.204 0.198386 -1.56346 0
M  V30 1281 C 122.432 0.935572 -1.84539 0
M  V30 1282 C 122.847 1.76989 -0.657281 0
M  V30 1283 O 122.204 1.78626 0.374043 0
M  V30 1284 C 122.255 1.8344 -3.11499 0
M  V30 1285 O 121.976 1.03377 -4.25728 0
M  V30 1286 C 123.477 2.68355 -3.52846 0
M  V30 1287 H 120.697 0.273126 -0.612897 0
M  V30 1288 H 123.241 0.20663 -2.03453 0
M  V30 1289 H 121.396 2.51701 -2.94492 0
M  V30 1290 H 121.81 1.64599 -4.98003 0
M  V30 1291 H 123.284 3.27085 -4.44657 0
M  V30 1292 H 123.761 3.41901 -2.75681 0
M  V30 1293 H 124.367 2.05471 -3.72373 0
M  V30 1294 N 122.682 1.50554 0.465978 0
M  V30 1295 C 123.615 1.64436 1.58227 0
M  V30 1296 C 124.593 0.492367 1.54966 0
M  V30 1297 O 125.777 0.712536 1.74514 0
M  V30 1298 C 122.904 1.63165 2.96808 0
M  V30 1299 C 121.95 2.83987 3.18204 0
M  V30 1300 S 122.783 4.45219 2.97557 0
M  V30 1301 C 123.939 4.46649 4.3847 0
M  V30 1302 H 124.172 2.58861 1.46213 0
M  V30 1303 H 121.705 1.3988 0.653678 0
M  V30 1304 H 123.663 1.63116 3.76701 0
M  V30 1305 H 122.324 0.69967 3.06208 0
M  V30 1306 H 121.517 2.79416 4.19455 0
M  V30 1307 H 121.119 2.81629 2.46092 0
M  V30 1308 H 123.411 4.20526 5.31191 0
M  V30 1309 H 124.354 5.48295 4.48082 0
M  V30 1310 H 124.762 3.76296 4.20787 0
M  V30 1311 N 124.16 -0.719506 1.40217 0
M  V30 1312 C 125.437 -1.47221 1.28784 0
M  V30 1313 C 125.817 -2.10883 -0.0956067 0
M  V30 1314 O 125.165 -1.99833 -1.10811 0
M  V30 1315 C 125.375 -2.5111 2.42373 0
M  V30 1316 C 126.723 -3.17053 2.82423 0
M  V30 1317 O 127.747 -2.61429 2.41937 0
M  V30 1318 O 126.606 -4.17742 3.52355 0
M  V30 1319 H 123.7 -0.654491 0.50554 0
M  V30 1320 H 126.246 -0.752014 1.52128 0
M  V30 1321 H 125.018 -2.02556 3.34793 0
M  V30 1322 H 124.641 -3.3067 2.20778 0
M  V30 1323 N 125.638 -1.25649 -0.95132 0
M  V30 1324 C 126.868 -1.13179 -1.72841 0
M  V30 1325 C 127.276 0.316827 -1.86528 0
M  V30 1326 O 126.619 1.22948 -1.3649 0
M  V30 1327 C 126.681 -1.71644 -3.15878 0
M  V30 1328 C 126.345 -3.20667 -3.25609 0
M  V30 1329 C 127.342 -4.17616 -3.09666 0
M  V30 1330 C 125.027 -3.6094 -3.49324 0
M  V30 1331 C 127.021 -5.52817 -3.17289 0
M  V30 1332 C 124.708 -4.96278 -3.56584 0
M  V30 1333 C 125.706 -5.92025 -3.40581 0
M  V30 1334 O 125.394 -7.24899 -3.47528 0
M  V30 1335 H 125.126 -0.395389 -0.54831 0
M  V30 1336 H 127.68 -1.66566 -1.20187 0
M  V30 1337 H 125.91 -1.12707 -3.69911 0
M  V30 1338 H 127.599 -1.54225 -3.75459 0
M  V30 1339 H 128.365 -3.87842 -2.91211 0
M  V30 1340 H 124.244 -2.86907 -3.6084 0
M  V30 1341 H 127.788 -6.2753 -3.04716 0
M  V30 1342 H 123.685 -5.25716 -3.74556 0
M  V30 1343 H 124.453 -7.33039 -3.64138 0
M  V30 1344 N 127.117 1.15442 -1.07289 0
M  V30 1345 C 128.533 1.38201 -0.798288 0
M  V30 1346 C 128.733 1.92429 0.597769 0
M  V30 1347 O 127.789 2.12962 1.3566 0
M  V30 1348 C 129.102 2.35357 -1.87156 0
M  V30 1349 C 130.65 2.49021 -1.89624 0
M  V30 1350 C 131.125 3.49468 -2.96034 0
M  V30 1351 N 132.616 3.57003 -2.95132 0
M  V30 1352 C 133.351 4.34543 -3.74112 0
M  V30 1353 N 132.847 5.15421 -4.6294 0
M  V30 1354 N 134.64 4.29625 -3.62462 0
M  V30 1355 H 126.791 0.78584 -1.97328 0
M  V30 1356 H 129.054 0.408065 -0.855679 0
M  V30 1357 H 128.76 2.02626 -2.87464 0
M  V30 1358 H 128.634 3.35129 -1.73114 0
M  V30 1359 H 131.021 2.81051 -0.899687 0
M  V30 1360 H 131.102 1.4925 -2.07745 0
M  V30 1361 H 130.746 3.18173 -3.95889 0
M  V30 1362 H 130.676 4.48992 -2.75161 0
M  V30 1363 H 133.167 2.99276 -2.30743 0
M  V30 1364 H 133.48 5.7183 -5.19837 0
M  V30 1365 H 131.825 5.14729 -4.66989 0
M  V30 1366 H 135.016 3.65505 -2.92444 0
M  V30 1367 H 135.189 4.89807 -4.24256 0
M  V30 1368 N 128.595 0.856903 1.32268 0
M  V30 1369 C 129.841 0.462069 1.97466 0
M  V30 1370 C 130.174 -0.980298 1.67642 0
M  V30 1371 O 129.449 -1.68824 0.965858 0
M  V30 1372 C 129.732 0.704336 3.53145 0
M  V30 1373 C 129.585 2.19529 3.9259 0
M  V30 1374 C 130.904 0.1622 4.39801 0
M  V30 1375 H 128.023 0.169357 0.717278 0
M  V30 1376 H 130.665 1.07574 1.56614 0
M  V30 1377 H 128.815 0.181999 3.88073 0
M  V30 1378 H 130.487 2.78387 3.67829 0
M  V30 1379 H 128.73 2.67292 3.41668 0
M  V30 1380 H 129.401 2.31549 5.01088 0
M  V30 1381 H 131.877 0.608905 4.11621 0
M  V30 1382 H 130.753 0.361265 5.4771 0
M  V30 1383 H 131.014 -0.935158 4.32096 0
M  V30 1384 N 130.073 -1.45103 0.615059 0
M  V30 1385 C 131.021 -2.32331 -0.111791 0
M  V30 1386 C 132.015 -1.46409 -0.852102 0
M  V30 1387 O 133.221 -1.62849 -0.766821 0
M  V30 1388 H 129.596 -0.749993 -0.0549072 0
M  V30 1389 H 131.567 -2.91407 0.642225 0
M  V30 1390 C 130.316 -3.3015 -1.09071 0
M  V30 1391 H 129.639 -3.96265 -0.530485 0
M  V30 1392 H 131.079 -3.93898 -1.56908 0
M  V30 1393 C 129.538 -2.57875 -2.168 0
M  V30 1394 O 130.068 -2.36567 -3.24652 0
M  V30 1395 N 128.274 -2.17884 -1.92289 0
M  V30 1396 H 127.821 -2.35413 -1.04587 0
M  V30 1397 H 127.779 -1.6985 -2.64572 0
M  V30 1398 N 131.551 -0.354651 -1.53558 0
M  V30 1399 C 132.8 0.239504 -2.00273 0
M  V30 1400 C 133.113 1.50759 -1.24623 0
M  V30 1401 O 134.319 2.17968 -1.61871 0
M  V30 1402 C 132.775 0.477341 -3.5672 0
M  V30 1403 C 132.383 -0.775488 -4.41237 0
M  V30 1404 C 134.127 1.02975 -4.11821 0
M  V30 1405 C 132.034 -0.507838 -5.89216 0
M  V30 1406 H 130.964 0.0932743 -0.748208 0
M  V30 1407 H 133.615 -0.471701 -1.77334 0
M  V30 1408 H 131.997 1.24953 -3.7577 0
M  V30 1409 H 133.171 -1.54963 -4.33962 0
M  V30 1410 H 131.486 -1.25033 -3.97185 0
M  V30 1411 H 134.083 1.24513 -5.2 0
M  V30 1412 H 134.426 1.98862 -3.65731 0
M  V30 1413 H 134.959 0.317994 -3.96527 0
M  V30 1414 H 131.698 -1.43674 -6.39561 0
M  V30 1415 H 131.218 0.228011 -5.99366 0
M  V30 1416 H 132.897 -0.129238 -6.46871 0
M  V30 1417 N 133.029 1.57378 -0.0835403 0
M  V30 1418 C 134.276 1.9393 0.58287 0
M  V30 1419 C 134.604 0.964455 1.68904 0
M  V30 1420 O 133.859 -0.0179474 1.95692 0
M  V30 1421 C 134.158 3.37063 1.1884 0
M  V30 1422 C 133.824 4.50424 0.207194 0
M  V30 1423 C 132.486 4.81159 -0.0627115 0
M  V30 1424 C 134.838 5.19136 -0.463426 0
M  V30 1425 C 132.166 5.77939 -1.01012 0
M  V30 1426 C 134.518 6.16931 -1.39924 0
M  V30 1427 C 133.182 6.46078 -1.67749 0
M  V30 1428 H 132.452 0.70964 0.213287 0
M  V30 1429 H 135.099 1.90856 -0.156916 0
M  V30 1430 H 133.404 3.3666 2.00418 0
M  V30 1431 H 135.101 3.6264 1.71153 0
M  V30 1432 H 131.691 4.2646 0.427747 0
M  V30 1433 H 135.875 4.95576 -0.268034 0
M  V30 1434 H 131.131 5.98842 -1.23283 0
M  V30 1435 H 135.305 6.69273 -1.92476 0
M  V30 1436 H 132.932 7.2088 -2.41321 0
M  V30 1437 N 134.507 -0.190092 1.56449 0
M  V30 1438 C 135.437 -1.23816 1.97969 0
M  V30 1439 C 136.418 -1.47201 0.852395 0
M  V30 1440 O 137.603 -1.58854 1.1171 0
M  V30 1441 C 134.733 -2.5813 2.3235 0
M  V30 1442 C 133.687 -2.49348 3.47864 0
M  V30 1443 C 133.013 -3.8798 3.67934 0
M  V30 1444 C 134.313 -2.01424 4.81898 0
M  V30 1445 H 136.007 -0.89311 2.85769 0
M  V30 1446 H 133.553 -0.428177 1.37487 0
M  V30 1447 H 135.506 -3.31637 2.59991 0
M  V30 1448 H 134.23 -2.94386 1.41438 0
M  V30 1449 H 132.889 -1.78297 3.20321 0
M  V30 1450 H 132.537 -4.21597 2.74344 0
M  V30 1451 H 132.237 -3.82978 4.45648 0
M  V30 1452 H 133.761 -4.63101 3.97957 0
M  V30 1453 H 135.175 -2.64693 5.08538 0
M  V30 1454 H 133.572 -2.07413 5.63116 0
M  V30 1455 H 134.642 -0.967677 4.75146 0
M  V30 1456 N 135.985 -1.50799 -0.457987 0
M  V30 1457 C 137.401 -1.38515 -0.792819 0
M  V30 1458 C 137.601 -0.451409 -1.96379 0
M  V30 1459 O 136.657 0.10112 -2.52297 0
M  V30 1460 C 137.97 -2.80149 -1.09258 0
M  V30 1461 C 139.518 -2.89156 -1.19825 0
M  V30 1462 C 139.993 -4.31651 -1.53106 0
M  V30 1463 N 141.484 -4.34662 -1.60072 0
M  V30 1464 C 142.219 -5.41928 -1.87354 0
M  V30 1465 N 141.715 -6.59384 -2.12568 0
M  V30 1466 N 143.508 -5.29385 -1.88965 0
M  V30 1467 H 135.659 -2.10073 0.313511 0
M  V30 1468 H 137.922 -0.944803 0.0777862 0
M  V30 1469 H 137.628 -3.50374 -0.305084 0
M  V30 1470 H 137.502 -3.18204 -2.02549 0
M  V30 1471 H 139.889 -2.19141 -1.97639 0
M  V30 1472 H 139.97 -2.54626 -0.244821 0
M  V30 1473 H 139.614 -5.02208 -0.758266 0
M  V30 1474 H 139.544 -4.63678 -2.49621 0
M  V30 1475 H 142.035 -3.49973 -1.42573 0
M  V30 1476 H 142.348 -7.36934 -2.32696 0
M  V30 1477 H 140.693 -6.62535 -2.09933 0
M  V30 1478 H 143.884 -4.36616 -1.68772 0
M  V30 1479 H 144.057 -6.13066 -2.09891 0
M  V30 1480 N 137.463 0.71206 -1.40597 0
M  V30 1481 C 138.395 1.83704 -1.37061 0
M  V30 1482 C 139.408 1.60453 -0.275426 0
M  V30 1483 O 140.597 1.70262 -0.53602 0
M  V30 1484 C 137.697 3.20172 -1.11099 0
M  V30 1485 C 136.87 3.7059 -2.3234 0
M  V30 1486 C 135.929 4.85681 -2.02485 0
M  V30 1487 O 134.955 4.9815 -2.75382 0
M  V30 1488 N 136.157 5.71735 -1.00497 0
M  V30 1489 H 138.922 1.87235 -2.34016 0
M  V30 1490 H 136.483 0.893739 -1.34996 0
M  V30 1491 H 138.475 3.94768 -0.891064 0
M  V30 1492 H 137.045 3.11767 -0.227989 0
M  V30 1493 H 136.265 2.87085 -2.7014 0
M  V30 1494 H 137.553 4.01011 -3.13157 0
M  V30 1495 H 136.951 5.64275 -0.401298 0
M  V30 1496 H 135.508 6.463 -0.844942 0
M  V30 1497 N 138.941 1.26152 0.944643 0
M  V30 1498 C 139.873 1.03199 2.04652 0
M  V30 1499 C 140.886 -0.00642356 1.62799 0
M  V30 1500 O 142.075 0.233263 1.76969 0
M  V30 1501 C 139.175 0.540111 3.34568 0
M  V30 1502 C 138.348 1.64697 4.05208 0
M  V30 1503 C 137.407 1.15374 5.13396 0
M  V30 1504 O 136.433 1.85013 5.38293 0
M  V30 1505 N 137.635 0.00031529 5.805 0
M  V30 1506 H 140.4 1.9808 2.2491 0
M  V30 1507 H 137.961 1.17491 1.11389 0
M  V30 1508 H 139.953 0.194401 4.04233 0
M  V30 1509 H 138.523 -0.315021 3.11009 0
M  V30 1510 H 137.743 2.16379 3.29506 0
M  V30 1511 H 139.031 2.3903 4.49157 0
M  V30 1512 H 138.429 -0.581336 5.62705 0
M  V30 1513 H 136.986 -0.286346 6.51171 0
M  V30 1514 N 140.419 -1.14872 1.07899 0
M  V30 1515 C 141.665 -1.86289 0.81657 0
M  V30 1516 C 142.02 -1.8107 -0.65049 0
M  V30 1517 O 141.313 -1.22684 -1.47171 0
M  V30 1518 C 141.507 -3.34223 1.26609 0
M  V30 1519 C 141.336 -3.53846 2.77531 0
M  V30 1520 C 140.106 -3.68995 3.45212 0
M  V30 1521 C 142.304 -3.51201 3.75716 0
M  V30 1522 N 140.286 -3.76725 4.84718 0
M  V30 1523 C 141.657 -3.65112 5.01092 0
M  V30 1524 C 143.712 -3.34507 3.68794 0
M  V30 1525 C 142.415 -3.64056 6.20368 0
M  V30 1526 C 144.441 -3.34752 4.8754 0
M  V30 1527 C 143.803 -3.49199 6.11751 0
M  V30 1528 H 139.902 -0.698579 0.351443 0
M  V30 1529 H 142.486 -1.37713 1.37634 0
M  V30 1530 H 140.657 -3.81402 0.73395 0
M  V30 1531 H 142.389 -3.93377 0.95062 0
M  V30 1532 H 139.144 -3.70006 2.95622 0
M  V30 1533 H 139.568 -3.8432 5.5734 0
M  V30 1534 H 144.21 -3.22253 2.73702 0
M  V30 1535 H 141.928 -3.75087 7.15776 0
M  V30 1536 H 145.514 -3.23055 4.83866 0
M  V30 1537 H 144.394 -3.49328 7.02097 0
M  V30 1538 N 141.898 -0.863906 -1.31812 0
M  V30 1539 C 142.846 -0.30422 -2.30602 0
M  V30 1540 C 143.84 0.577419 -1.59255 0
M  V30 1541 O 145.046 0.464194 -1.73912 0
M  V30 1542 H 141.421 -0.0796877 -0.747766 0
M  V30 1543 H 143.392 -1.15148 -2.75288 0
M  V30 1544 C 142.141 0.484617 -3.44306 0
M  V30 1545 H 141.464 -0.18451 -3.99374 0
M  V30 1546 H 142.904 0.841664 -4.15562 0
M  V30 1547 C 141.363 1.6735 -2.92396 0
M  V30 1548 O 141.893 2.77273 -2.90659 0
M  V30 1549 N 140.099 1.50362 -2.48676 0
M  V30 1550 H 139.646 0.609402 -2.50288 0
M  V30 1551 H 139.604 2.30051 -2.14299 0
M  V30 1552 N 143.376 1.44774 -0.622745 0
M  V30 1553 C 144.653 1.95522 -0.0551974 0
M  V30 1554 C 145.033 1.5649 1.41683 0
M  V30 1555 O 144.381 0.834848 2.12703 0
M  V30 1556 C 144.591 3.4796 -0.269242 0
M  V30 1557 C 145.939 4.24306 -0.158014 0
M  V30 1558 O 146.963 3.55637 -0.200162 0
M  V30 1559 O 145.822 5.46471 -0.0558693 0
M  V30 1560 H 142.916 0.826556 0.0271015 0
M  V30 1561 H 145.462 1.54866 -0.693864 0
M  V30 1562 H 144.234 3.6939 -1.29099 0
M  V30 1563 H 143.857 3.95543 0.403966 0
M  V30 1564 N 144.854 0.36279 1.53368 0
M  V30 1565 C 146.265 -0.117022 1.86333 0
M  V30 1566 C 146.616 -1.48397 1.28347 0
M  V30 1567 O 145.741 -2.07787 0.604428 0
M  V30 1568 C 146.336 -0.21912 3.38091 0
M  V30 1569 C 144.895 -0.643184 3.70864 0
M  V30 1570 C 144.042 0.211318 2.76494 0
M  V30 1571 H 146.993 0.581687 1.47655 0
M  V30 1572 H 147.014 -1.04319 3.6592 0
M  V30 1573 H 146.526 0.775902 3.80265 0
M  V30 1574 H 144.627 -1.64654 3.34245 0
M  V30 1575 H 144.74 -0.41973 4.77258 0
M  V30 1576 H 143.104 -0.319367 2.5269 0
M  V30 1577 H 143.887 1.20383 3.21501 0
M  V30 1578 N 146.332 -1.57332 0.0918853 0
M  V30 1579 C 147.748 -1.57389 -0.264766 0
M  V30 1580 C 147.948 -1.10281 -1.68643 0
M  V30 1581 O 147.004 -0.777801 -2.40222 0
M  V30 1582 C 148.317 -3.00648 -0.0561195 0
M  V30 1583 C 149.865 -3.12754 -0.124116 0
M  V30 1584 C 150.34 -4.57965 0.0564972 0
M  V30 1585 N 151.831 -4.632 0.00155611 0
M  V30 1586 C 152.566 -5.73281 0.116598 0
M  V30 1587 N 152.062 -6.92208 0.286294 0
M  V30 1588 N 153.855 -5.6207 0.0580973 0
M  V30 1589 H 146.006 -1.86262 1.02079 0
M  V30 1590 H 148.269 -0.859579 0.399786 0
M  V30 1591 H 147.975 -3.393 0.925669 0
M  V30 1592 H 147.849 -3.68623 -0.799823 0
M  V30 1593 H 150.236 -2.73976 -1.09641 0
M  V30 1594 H 150.317 -2.47377 0.651024 0
M  V30 1595 H 149.961 -4.97436 1.02564 0
M  V30 1596 H 149.891 -5.21399 -0.738297 0
M  V30 1597 H 152.382 -3.77686 -0.127192 0
M  V30 1598 H 152.695 -7.71934 0.365676 0
M  V30 1599 H 151.04 -6.94254 0.32192 0
M  V30 1600 H 154.231 -4.68043 -0.0733204 0
M  V30 1601 H 154.404 -6.47824 0.151203 0
M  V30 1602 N 147.81 0.181792 -1.56548 0
M  V30 1603 C 148.74 1.22765 -1.98623 0
M  V30 1604 C 149.721 1.46747 -0.860189 0
M  V30 1605 O 150.906 1.58259 -1.12551 0
M  V30 1606 C 148.036 2.56894 -2.33715 0
M  V30 1607 C 146.99 2.475 -3.49182 0
M  V30 1608 C 146.316 3.86023 -3.69986 0
M  V30 1609 C 147.616 1.98866 -4.82959 0
M  V30 1610 H 149.31 0.877942 -2.86239 0
M  V30 1611 H 146.856 0.42088 -1.37712 0
M  V30 1612 H 148.809 3.30253 -2.61746 0
M  V30 1613 H 147.533 2.93632 -1.42997 0
M  V30 1614 H 146.192 1.76596 -3.21262 0
M  V30 1615 H 145.84 4.20136 -2.76576 0
M  V30 1616 H 145.54 3.80609 -4.47672 0
M  V30 1617 H 147.064 4.60984 -4.00407 0
M  V30 1618 H 148.478 2.61992 -5.09934 0
M  V30 1619 H 146.875 2.04424 -5.64208 0
M  V30 1620 H 147.945 0.942465 -4.75653 0
M  V30 1621 N 149.288 1.51039 0.449983 0
M  V30 1622 C 150.251 1.70863 1.5277 0
M  V30 1623 C 151.251 0.578846 1.5002 0
M  V30 1624 O 152.441 0.846213 1.52266 0
M  V30 1625 C 149.573 1.75341 2.9235 0
M  V30 1626 H 150.766 2.67034 1.36502 0
M  V30 1627 H 148.319 1.40838 0.677812 0
M  V30 1628 H 149.054 0.809383 3.14037 0
M  V30 1629 H 148.839 2.57436 2.95752 0
M  V30 1630 H 150.329 1.92559 3.70555 0
M  V30 1631 N 150.766 -0.704594 1.40972 0
M  V30 1632 C 151.996 -1.49138 1.42974 0
M  V30 1633 C 152.404 -1.89175 0.0308406 0
M  V30 1634 O 151.747 -1.56734 -0.958138 0
M  V30 1635 C 151.809 -2.79016 2.26694 0
M  V30 1636 C 151.473 -2.61236 3.74973 0
M  V30 1637 C 152.47 -2.27773 4.67349 0
M  V30 1638 C 150.155 -2.77158 4.18914 0
M  V30 1639 C 152.149 -2.10457 6.01653 0
M  V30 1640 C 149.836 -2.59459 5.53285 0
M  V30 1641 C 150.834 -2.26158 6.4447 0
M  V30 1642 O 150.522 -2.08605 7.76363 0
M  V30 1643 H 150.254 -0.466443 0.489292 0
M  V30 1644 H 152.808 -0.8758 1.85793 0
M  V30 1645 H 151.038 -3.42947 1.78673 0
M  V30 1646 H 152.727 -3.40782 2.20504 0
M  V30 1647 H 153.493 -2.15095 4.34694 0
M  V30 1648 H 149.372 -3.02064 3.48251 0
M  V30 1649 H 152.916 -1.84387 6.72791 0
M  V30 1650 H 148.813 -2.71725 5.85522 0
M  V30 1651 H 149.581 -2.23439 7.87412 0
M  V30 1652 N 152.244 -1.26651 -0.937939 0
M  V30 1653 C 153.192 -1.08308 -2.05845 0
M  V30 1654 C 154.186 -0.0090757 -1.69398 0
M  V30 1655 O 155.392 -0.166007 -1.79233 0
M  V30 1656 H 151.767 -0.333416 -0.674046 0
M  V30 1657 H 153.738 -2.03261 -2.18467 0
M  V30 1658 C 152.487 -0.736229 -3.39816 0
M  V30 1659 H 151.81 -1.55453 -3.6834 0
M  V30 1660 H 153.25 -0.64769 -4.19024 0
M  V30 1661 C 151.709 0.558824 -3.32233 0
M  V30 1662 O 152.239 1.59621 -3.68624 0
M  V30 1663 N 150.445 0.550657 -2.85335 0
M  V30 1664 H 149.992 -0.293943 -2.55917 0
M  V30 1665 H 149.95 1.41726 -2.80644 0
M  V30 1666 N 153.722 1.14298 -1.08507 0
M  V30 1667 C 154.632 2.23027 -0.727753 0
M  V30 1668 C 155.648 1.71952 0.26619 0
M  V30 1669 O 156.824 2.011 0.109882 0
M  V30 1670 C 153.889 3.46403 -0.143541 0
M  V30 1671 C 152.95 4.12413 -1.19223 0
M  V30 1672 C 152.183 5.29899 -0.635798 0
M  V30 1673 O 152.406 5.67796 0.544393 0
M  V30 1674 O 151.34 5.85717 -1.38634 0
M  V30 1675 H 155.166 2.55945 -1.63481 0
M  V30 1676 H 152.751 1.22248 -0.858817 0
M  V30 1677 H 154.633 4.21018 0.179404 0
M  V30 1678 H 153.308 3.15206 0.736659 0
M  V30 1679 H 152.215 3.39667 -1.56772 0
M  V30 1680 H 153.548 4.47718 -2.04474 0
M  V30 1681 N 155.201 0.870884 1.31352 0
M  V30 1682 C 156.431 0.496049 2.00557 0
M  V30 1683 C 156.839 -0.916241 1.65534 0
M  V30 1684 O 156.182 -1.61188 0.881134 0
M  V30 1685 C 156.244 0.574418 3.54881 0
M  V30 1686 C 155.908 1.94849 4.1338 0
M  V30 1687 C 156.905 2.91611 4.30417 0
M  V30 1688 C 154.59 2.25005 4.49086 0
M  V30 1689 C 156.584 4.16672 4.82352 0
M  V30 1690 C 154.271 3.50315 5.00722 0
M  V30 1691 C 155.269 4.45964 5.17306 0
M  V30 1692 O 154.957 5.69052 5.67833 0
M  V30 1693 H 154.689 0.191664 0.64826 0
M  V30 1694 H 157.243 1.17409 1.68536 0
M  V30 1695 H 155.473 -0.160549 3.86367 0
M  V30 1696 H 157.162 0.212879 4.05341 0
M  V30 1697 H 157.928 2.69622 4.03149 0
M  V30 1698 H 153.807 1.51332 4.35453 0
M  V30 1699 H 157.351 4.91336 4.95211 0
M  V30 1700 H 153.248 3.72147 5.27424 0
M  V30 1701 H 154.016 5.71236 5.86201 0
M  V30 1702 N 156.679 -1.44442 0.630414 0
M  V30 1703 C 158.09 -1.85434 0.217063 0
M  V30 1704 C 158.441 -1.52748 -1.23136 0
M  V30 1705 O 157.566 -0.965205 -1.93682 0
M  V30 1706 C 158.161 -3.36581 0.387168 0
M  V30 1707 C 156.72 -3.76389 0.0283297 0
M  V30 1708 C 155.867 -2.68296 0.700889 0
M  V30 1709 H 158.818 -1.34919 0.83562 0
M  V30 1710 H 158.839 -3.78657 -0.374086 0
M  V30 1711 H 158.351 -3.60339 1.44144 0
M  V30 1712 H 156.452 -3.58246 -1.02423 0
M  V30 1713 H 156.565 -4.77095 0.437892 0
M  V30 1714 H 154.929 -2.54335 0.136267 0
M  V30 1715 H 155.712 -2.94887 1.75774 0
M  V30 1716 N 158.157 -0.370918 -1.53173 0
M  V30 1717 C 159.434 0.273754 -1.93675 0
M  V30 1718 C 159.814 1.65938 -1.3049 0
M  V30 1719 O 159.162 2.23698 -0.465999 0
M  V30 1720 C 159.372 0.318602 -3.47543 0
M  V30 1721 C 160.72 0.556392 -4.20939 0
M  V30 1722 O 161.744 0.399587 -3.53952 0
M  V30 1723 O 160.603 0.862133 -5.39657 0
M  V30 1724 H 157.697 0.165448 -0.810281 0
M  V30 1725 H 160.243 -0.42409 -1.64315 0
M  V30 1726 H 159.015 -0.652687 -3.85818 0
M  V30 1727 H 158.638 1.06212 -3.83151 0
M  V30 1728 N 159.635 1.57281 -0.100228 0
M  V30 1729 C 160.912 1.86014 0.604812 0
M  V30 1730 C 161.292 0.998025 1.86018 0
M  V30 1731 O 160.64 0.0718184 2.28387 0
M  V30 1732 C 160.85 3.36784 0.915278 0
M  V30 1733 C 162.198 4.04957 1.27651 0
M  V30 1734 O 163.222 3.41695 1.00613 0
M  V30 1735 O 162.081 5.16593 1.7831 0
M  V30 1736 H 159.175 0.76942 0.303185 0
M  V30 1737 H 161.721 1.69176 -0.133313 0
M  V30 1738 H 160.493 3.91292 0.0248896 0
M  V30 1739 H 160.116 3.58987 1.70921 0
M  V30 1740 N 161.113 -0.173488 1.56642 0
M  V30 1741 C 162.338 -0.910149 1.86363 0
M  V30 1742 C 162.763 -1.75132 0.686318 0
M  V30 1743 O 162.121 -1.77595 -0.364643 0
M  V30 1744 C 162.169 -1.76447 3.14482 0
M  V30 1745 O 161.273 -2.86584 2.96553 0
M  V30 1746 H 160.614 -0.255086 0.613047 0
M  V30 1747 H 163.144 -0.172283 2.03873 0
M  V30 1748 H 163.154 -2.16483 3.45831 0
M  V30 1749 H 161.829 -1.14658 3.99783 0
M  V30 1750 H 160.406 -2.50146 2.76553 0
M  V30 1751 N 162.591 -1.51276 -0.441967 0
M  V30 1752 C 163.521 -1.752 -1.54361 0
M  V30 1753 C 164.502 -0.601682 -1.59103 0
M  V30 1754 O 165.687 -0.843913 -1.74905 0
M  V30 1755 C 162.817 -1.87282 -2.92477 0
M  V30 1756 C 161.771 -3.02687 -3.02596 0
M  V30 1757 C 161.097 -2.99947 -4.42647 0
M  V30 1758 C 162.397 -4.4273 -2.77106 0
M  V30 1759 H 164.091 -2.67442 -1.34592 0
M  V30 1760 H 161.637 -1.28694 -0.646048 0
M  V30 1761 H 163.59 -2.02602 -3.695 0
M  V30 1762 H 162.314 -0.916844 -3.13467 0
M  V30 1763 H 160.973 -2.87065 -2.28012 0
M  V30 1764 H 160.621 -2.02136 -4.60597 0
M  V30 1765 H 160.321 -3.77439 -4.50348 0
M  V30 1766 H 161.845 -3.17354 -5.2165 0
M  V30 1767 H 163.259 -4.58727 -3.43864 0
M  V30 1768 H 161.656 -5.21893 -2.96222 0
M  V30 1769 H 162.726 -4.53087 -1.72744 0
M  V30 1770 N 164.069 0.697108 -1.41344 0
M  V30 1771 C 165.346 1.45154 -1.31109 0
M  V30 1772 C 165.726 2.11009 0.0620449 0
M  V30 1773 O 165.074 2.01571 1.07618 0
M  V30 1774 C 165.284 2.47223 -2.46337 0
M  V30 1775 C 166.632 3.1252 -2.87431 0
M  V30 1776 O 167.656 2.57547 -2.46065 0
M  V30 1777 O 166.515 4.12083 -3.58957 0
M  V30 1778 H 163.609 0.646365 -0.515889 0
M  V30 1779 H 166.155 0.727716 -1.53305 0
M  V30 1780 H 164.927 1.97204 -3.37974 0
M  V30 1781 H 164.55 3.27116 -2.2601 0
M  V30 1782 N 165.547 1.27147 0.931209 0
M  V30 1783 C 166.477 1.12081 2.04842 0
M  V30 1784 C 167.458 0.0232364 1.70084 0
M  V30 1785 O 168.643 0.197085 1.93197 0
M  V30 1786 C 165.773 0.76354 3.38803 0
M  V30 1787 C 164.727 1.81396 3.87659 0
M  V30 1788 C 164.053 1.31075 5.18385 0
M  V30 1789 C 165.353 3.21739 4.11438 0
M  V30 1790 H 167.047 2.05537 2.17703 0
M  V30 1791 H 164.593 0.989603 1.04608 0
M  V30 1792 H 166.546 0.644982 4.16435 0
M  V30 1793 H 165.27 -0.206727 3.25945 0
M  V30 1794 H 163.929 1.92136 3.12217 0
M  V30 1795 H 163.577 0.330037 5.01916 0
M  V30 1796 H 163.277 2.013 5.52044 0
M  V30 1797 H 164.801 1.20506 5.98591 0
M  V30 1798 H 166.215 3.14019 4.79651 0
M  V30 1799 H 164.612 3.89644 4.56397 0
M  V30 1800 H 165.682 3.67054 3.16859 0
M  V30 1801 N 167.025 -1.13721 1.09112 0
M  V30 1802 C 168.302 -1.81155 0.737706 0
M  V30 1803 C 168.682 -1.96253 -0.777683 0
M  V30 1804 O 168.03 -1.52807 -1.69889 0
M  V30 1805 C 168.24 -3.16392 1.47299 0
M  V30 1806 C 169.588 -3.91787 1.63671 0
M  V30 1807 O 170.612 -3.26005 1.43524 0
M  V30 1808 O 169.471 -5.0977 1.96969 0
M  V30 1809 H 166.565 -0.783518 0.26463 0
M  V30 1810 H 169.111 -1.20676 1.19312 0
M  V30 1811 H 167.883 -3.0061 2.50498 0
M  V30 1812 H 167.506 -3.8457 1.00953 0
M  V30 1813 N 168.503 -0.877838 -1.30888 0
M  V30 1814 C 169.914 -0.544193 -1.78593 0
M  V30 1815 C 170.265 0.939301 -1.72254 0
M  V30 1816 O 169.39 1.7337 -1.29505 0
M  V30 1817 C 169.985 -0.98105 -3.24285 0
M  V30 1818 C 168.544 -0.698935 -3.69854 0
M  V30 1819 C 167.691 -1.168 -2.51502 0
M  V30 1820 H 170.642 -1.06278 -1.17859 0
M  V30 1821 H 170.663 -0.307009 -3.79259 0
M  V30 1822 H 170.175 -2.06079 -3.28866 0
M  V30 1823 H 168.276 0.369112 -3.70767 0
M  V30 1824 H 168.389 -1.28148 -4.61644 0
M  V30 1825 H 166.753 -0.587535 -2.47831 0
M  V30 1826 H 167.536 -2.25533 -2.58824 0
M  V30 1827 N 169.982 1.44106 -0.638065 0
M  V30 1828 C 171.207 2.0685 -0.150916 0
M  V30 1829 C 171.632 1.47417 1.16833 0
M  V30 1830 O 170.99 0.578264 1.71831 0
M  V30 1831 C 171.038 3.60555 -0.05708 0
M  V30 1832 O 170.142 4.00465 0.984972 0
M  V30 1833 H 169.483 0.658151 -0.0879399 0
M  V30 1834 H 172.013 1.84865 -0.876707 0
M  V30 1835 H 172.023 4.07789 0.131232 0
M  V30 1836 H 170.698 4.03193 -1.02021 0
M  V30 1837 H 169.275 3.64849 0.770672 0
M  V30 1838 N 171.46 0.379036 1.52974 0
M  V30 1839 C 172.393 -0.504932 2.22544 0
M  V30 1840 C 173.371 -1.0723 1.22231 0
M  V30 1841 O 174.555 -1.12589 1.51182 0
M  V30 1842 C 171.682 -1.69794 2.93066 0
M  V30 1843 C 170.728 -1.25678 4.07563 0
M  V30 1844 S 171.561 -0.246852 5.34931 0
M  V30 1845 C 172.717 -1.44588 6.08971 0
M  V30 1846 H 172.95 0.0858666 2.97176 0
M  V30 1847 H 170.483 0.163183 1.53535 0
M  V30 1848 H 172.441 -2.38219 3.34308 0
M  V30 1849 H 171.102 -2.26002 2.18133 0
M  V30 1850 H 170.295 -2.14725 4.5597 0
M  V30 1851 H 169.897 -0.651584 3.6828 0
M  V30 1852 H 172.189 -2.37469 6.34519 0
M  V30 1853 H 173.132 -1.00292 7.00962 0
M  V30 1854 H 173.54 -1.65804 5.39601 0
M  V30 1855 N 172.938 -1.57226 0.108567 0
M  V30 1856 C 173.868 -2.17778 -0.84232 0
M  V30 1857 C 174.849 -1.11487 -1.2847 0
M  V30 1858 O 176.034 -1.39681 -1.34918 0
M  V30 1859 C 173.164 -2.76888 -2.09644 0
M  V30 1860 C 172.118 -3.88669 -1.79221 0
M  V30 1861 C 171.444 -4.34541 -3.11574 0
M  V30 1862 C 172.744 -5.11251 -1.06864 0
M  V30 1863 H 174.438 -2.97489 -0.337774 0
M  V30 1864 H 171.984 -1.43097 -0.161025 0
M  V30 1865 H 173.937 -3.17904 -2.76614 0
M  V30 1866 H 172.661 -1.94451 -2.62405 0
M  V30 1867 H 171.32 -3.48213 -1.14644 0
M  V30 1868 H 170.968 -3.48977 -3.62249 0
M  V30 1869 H 170.668 -5.09914 -2.91996 0
M  V30 1870 H 172.192 -4.782 -3.7968 0
M  V30 1871 H 173.606 -5.49352 -1.63968 0
M  V30 1872 H 172.003 -5.9214 -0.974178 0
M  V30 1873 H 173.073 -4.8487 -0.0536168 0
M  V30 1874 N 174.416 0.165178 -1.56732 0
M  V30 1875 C 175.693 0.908443 -1.73224 0
M  V30 1876 C 176.073 2.0013 -0.67165 0
M  V30 1877 O 175.421 2.26353 0.31253 0
M  V30 1878 C 175.631 1.46756 -3.16644 0
M  V30 1879 C 176.979 1.93809 -3.77787 0
M  V30 1880 O 178.003 1.56537 -3.1996 0
M  V30 1881 O 176.862 2.62486 -4.79336 0
M  V30 1882 H 173.956 0.428025 -0.707618 0
M  V30 1883 H 176.502 0.152526 -1.69013 0
M  V30 1884 H 175.274 0.68129 -3.85323 0
M  V30 1885 H 174.897 2.28749 -3.25207 0
M  V30 1886 N 175.894 1.51508 0.433938 0
M  V30 1887 C 177.119 1.68443 1.21003 0
M  V30 1888 C 177.544 0.382636 1.84167 0
M  V30 1889 O 176.902 -0.65755 1.68956 0
M  V30 1890 C 176.95 2.80405 2.26727 0
M  V30 1891 O 176.054 2.44245 3.32292 0
M  V30 1892 H 175.395 0.561536 0.354363 0
M  V30 1893 H 177.925 1.9809 0.512024 0
M  V30 1894 H 177.935 3.0459 2.71457 0
M  V30 1895 H 176.61 3.74867 1.80132 0
M  V30 1896 H 175.187 2.30644 2.93015 0
M  V30 1897 N 177.372 -0.689602 1.41712 0
M  V30 1898 C 178.621 -1.44534 1.40686 0
M  V30 1899 C 178.934 -1.95588 0.0213352 0
M  V30 1900 O 180.14 -2.71271 -0.111534 0
M  V30 1901 C 178.596 -2.61387 2.47396 0
M  V30 1902 C 178.204 -2.17094 3.91885 0
M  V30 1903 C 179.948 -3.38986 2.55517 0
M  V30 1904 C 177.855 -3.3094 4.90135 0
M  V30 1905 H 176.785 -0.542925 0.52321 0
M  V30 1906 H 179.436 -0.748054 1.6756 0
M  V30 1907 H 177.818 -3.33412 2.13664 0
M  V30 1908 H 178.992 -1.52318 4.34897 0
M  V30 1909 H 177.307 -1.52473 3.8748 0
M  V30 1910 H 179.904 -4.23747 3.26102 0
M  V30 1911 H 180.247 -3.84578 1.59391 0
M  V30 1912 H 180.78 -2.74021 2.8837 0
M  V30 1913 H 177.519 -2.90355 5.87685 0
M  V30 1914 H 177.039 -3.94546 4.51767 0
M  V30 1915 H 178.718 -3.9663 5.11169 0
M  V30 1916 N 178.85 -1.27639 -0.924453 0
M  V30 1917 C 180.096 -1.15345 -1.67532 0
M  V30 1918 C 180.451 0.297096 -1.90092 0
M  V30 1919 O 179.744 1.21374 -1.48253 0
M  V30 1920 C 179.938 -1.87407 -3.04325 0
M  V30 1921 C 179.767 -3.3932 -2.95114 0
M  V30 1922 C 178.537 -4.08644 -2.97218 0
M  V30 1923 C 180.735 -4.35242 -2.73987 0
M  V30 1924 N 178.717 -5.47102 -2.78482 0
M  V30 1925 C 180.088 -5.6099 -2.63988 0
M  V30 1926 C 182.143 -4.25294 -2.589 0
M  V30 1927 C 180.846 -6.77924 -2.40442 0
M  V30 1928 C 182.872 -5.41952 -2.36731 0
M  V30 1929 C 182.234 -6.66658 -2.27478 0
M  V30 1930 H 178.333 -0.47696 -0.619704 0
M  V30 1931 H 180.917 -1.6115 -1.09265 0
M  V30 1932 H 179.088 -1.44053 -3.60699 0
M  V30 1933 H 180.82 -1.6759 -3.68369 0
M  V30 1934 H 177.575 -3.60136 -3.07569 0
M  V30 1935 H 177.999 -6.19852 -2.72236 0
M  V30 1936 H 182.641 -3.29598 -2.64811 0
M  V30 1937 H 180.359 -7.73699 -2.3327 0
M  V30 1938 H 183.945 -5.36137 -2.25938 0
M  V30 1939 H 182.825 -7.55405 -2.10555 0
M  V30 1940 N 180.328 1.1314 -1.09713 0
M  V30 1941 C 181.275 2.18642 -0.739196 0
M  V30 1942 C 182.245 1.63706 0.280978 0
M  V30 1943 O 183.43 1.90111 0.161946 0
M  V30 1944 C 180.57 3.44685 -0.169102 0
M  V30 1945 C 179.683 4.13711 -1.24367 0
M  V30 1946 C 178.818 5.27379 -0.636019 0
M  V30 1947 C 177.857 5.88259 -1.69169 0
M  V30 1948 N 176.994 6.93352 -1.10485 0
M  V30 1949 H 181.834 2.48607 -1.64312 0
M  V30 1950 H 179.371 1.22066 -0.820875 0
M  V30 1951 H 181.329 4.16815 0.179256 0
M  V30 1952 H 179.959 3.15161 0.698079 0
M  V30 1953 H 179.011 3.39835 -1.70927 0
M  V30 1954 H 180.323 4.55037 -2.04311 0
M  V30 1955 H 179.477 6.06238 -0.236677 0
M  V30 1956 H 178.216 4.8731 0.194928 0
M  V30 1957 H 177.221 5.08092 -2.10055 0
M  V30 1958 H 178.446 6.30399 -2.52536 0
M  V30 1959 H 176.392 6.55335 -0.295234 0
M  V30 1960 H 176.309 7.33236 -1.84121 0
M  V30 1961 H 177.577 7.76057 -0.73181 0
M  V30 1962 N 181.806 0.884767 1.30421 0
M  V30 1963 C 183.217 0.553656 1.78302 0
M  V30 1964 C 183.568 -0.930153 1.7275 0
M  V30 1965 O 182.693 -1.72681 1.30423 0
M  V30 1966 C 183.288 0.998234 3.2376 0
M  V30 1967 C 181.847 0.71854 3.69478 0
M  V30 1968 C 180.994 1.18132 2.50879 0
M  V30 1969 H 183.945 1.06901 1.17294 0
M  V30 1970 H 183.966 0.327118 3.79091 0
M  V30 1971 H 183.478 2.0782 3.27769 0
M  V30 1972 H 181.579 -0.349444 3.70958 0
M  V30 1973 H 181.692 1.30595 4.60958 0
M  V30 1974 H 180.056 0.600669 2.47516 0
M  V30 1975 H 180.839 2.26902 2.57624 0
M  V30 1976 N 183.284 -1.43765 0.645699 0
M  V30 1977 C 184.561 -1.9541 0.0862963 0
M  V30 1978 C 184.941 -1.58725 -1.39175 0
M  V30 1979 O 184.289 -0.868581 -2.11348 0
M  V30 1980 C 184.499 -3.47488 0.324565 0
M  V30 1981 C 185.847 -4.24001 0.225497 0
M  V30 1982 O 186.871 -3.55274 0.256715 0
M  V30 1983 O 185.73 -5.46313 0.142801 0
M  V30 1984 H 182.824 -0.826882 -0.0139483 0
M  V30 1985 H 185.37 -1.53743 0.718415 0
M  V30 1986 H 184.142 -3.67289 1.3496 0
M  V30 1987 H 183.765 -3.96135 -0.340987 0
M  V30 1988 N 184.763 -0.387143 -1.52771 0
M  V30 1989 C 185.693 0.440551 -2.29306 0
M  V30 1990 C 186.674 1.06535 -1.32606 0
M  V30 1991 O 187.859 1.07853 -1.61497 0
M  V30 1992 C 184.989 1.56919 -3.09829 0
M  V30 1993 C 183.943 1.07054 -4.14395 0
M  V30 1994 C 183.269 2.29109 -4.83129 0
M  V30 1995 C 184.569 0.140015 -5.22112 0
M  V30 1996 H 186.263 -0.198026 -2.98744 0
M  V30 1997 H 183.809 -0.09668 -1.43675 0
M  V30 1998 H 185.762 2.15503 -3.62128 0
M  V30 1999 H 184.486 2.23532 -2.3812 0
M  V30 2000 H 183.145 0.507247 -3.63074 0
M  V30 2001 H 182.793 2.94227 -4.0797 0
M  V30 2002 H 182.493 1.96406 -5.53804 0
M  V30 2003 H 184.017 2.88339 -5.38231 0
M  V30 2004 H 185.431 0.633978 -5.69784 0
M  V30 2005 H 183.828 -0.0971485 -6.00021 0
M  V30 2006 H 184.898 -0.811711 -4.78058 0
M  V30 2007 N 186.241 1.57166 -0.116904 0
M  V30 2008 C 187.488 1.95123 0.541603 0
M  V30 2009 C 187.816 1.00006 1.6682 0
M  V30 2010 O 187.071 0.0235658 1.95686 0
M  V30 2011 C 187.37 3.39508 1.11664 0
M  V30 2012 C 187.036 4.50762 0.111606 0
M  V30 2013 C 185.698 4.80918 -0.164758 0
M  V30 2014 C 188.05 5.18036 -0.573438 0
M  V30 2015 C 185.378 5.75666 -1.13249 0
M  V30 2016 C 187.73 6.13824 -1.52978 0
M  V30 2017 C 186.394 6.42374 -1.81415 0
M  V30 2018 H 185.664 0.714005 0.198187 0
M  V30 2019 H 188.311 1.9048 -0.197365 0
M  V30 2020 H 186.616 3.40835 1.93232 0
M  V30 2021 H 188.313 3.66189 1.63422 0
M  V30 2022 H 184.903 4.27272 0.337192 0
M  V30 2023 H 189.087 4.94896 -0.373092 0
M  V30 2024 H 184.343 5.96092 -1.35958 0
M  V30 2025 H 188.517 6.65039 -2.06629 0
M  V30 2026 H 186.144 7.15599 -2.56557 0
M  V30 2027 N 187.719 -0.156864 1.56817 0
M  V30 2028 C 188.966 -0.871125 1.82805 0
M  V30 2029 C 189.294 -1.81611 0.696262 0
M  V30 2030 O 188.549 -1.93141 -0.315459 0
M  V30 2031 C 188.848 -1.68737 3.1506 0
M  V30 2032 C 188.514 -0.890045 4.42028 0
M  V30 2033 C 187.176 -0.670042 4.76512 0
M  V30 2034 C 189.528 -0.331769 5.20143 0
M  V30 2035 C 186.856 0.119104 5.86579 0
M  V30 2036 C 189.208 0.444365 6.31037 0
M  V30 2037 C 187.872 0.675035 6.64078 0
M  V30 2038 H 187.142 -0.318767 0.668931 0
M  V30 2039 H 189.789 -0.135274 1.91022 0
M  V30 2040 H 188.094 -2.49304 3.0225 0
M  V30 2041 H 189.791 -2.24331 3.3238 0
M  V30 2042 H 186.381 -1.07157 4.14988 0
M  V30 2043 H 190.565 -0.489043 4.93885 0
M  V30 2044 H 185.821 0.307417 6.10627 0
M  V30 2045 H 189.995 0.884139 6.90765 0
M  V30 2046 H 187.622 1.28839 7.49203 0
M  V30 2047 N 189.197 -1.51736 -0.425897 0
M  V30 2048 C 190.16 -1.73271 -1.50032 0
M  V30 2049 C 191.16 -0.602639 -1.4908 0
M  V30 2050 O 192.35 -0.87033 -1.509 0
M  V30 2051 C 189.482 -1.79969 -2.89523 0
M  V30 2052 H 190.675 -2.69172 -1.32237 0
M  V30 2053 H 188.228 -1.41899 -0.65532 0
M  V30 2054 H 188.963 -0.859241 -3.1271 0
M  V30 2055 H 188.748 -2.62109 -2.91619 0
M  V30 2056 H 190.238 -1.9843 -3.67444 0
M  V30 2057 N 190.675 0.682077 -1.42076 0
M  V30 2058 C 191.623 1.81707 -1.45208 0
M  V30 2059 C 192.617 1.66183 -0.328591 0
M  V30 2060 O 193.823 1.7288 -0.501264 0
M  V30 2061 H 190.198 0.599014 -0.454628 0
M  V30 2062 H 192.169 1.76183 -2.40836 0
M  V30 2063 C 190.918 3.19816 -1.36428 0
M  V30 2064 H 190.241 3.32385 -2.22171 0
M  V30 2065 H 191.681 3.99272 -1.42681 0
M  V30 2066 C 190.14 3.36809 -0.078191 0
M  V30 2067 O 190.67 3.92124 0.87188 0
M  V30 2068 N 188.876 2.906 0.00229266 0
M  V30 2069 H 188.423 2.45772 -0.771616 0
M  V30 2070 H 188.381 3.02347 0.862179 0
M  V30 2071 N 192.153 1.28127 0.917671 0
M  V30 2072 C 193.063 1.13556 2.05286 0
M  V30 2073 C 194.079 0.0630914 1.73886 0
M  V30 2074 O 195.255 0.271598 1.9956 0
M  V30 2075 C 192.32 0.794676 3.3747 0
M  V30 2076 C 191.381 1.94909 3.82504 0
M  V30 2077 C 190.614 1.62437 5.0838 0
M  V30 2078 O 190.837 0.536905 5.67867 0
M  V30 2079 O 189.771 2.46677 5.4903 0
M  V30 2080 H 193.597 2.08844 2.20495 0
M  V30 2081 H 191.182 1.07409 1.03845 0
M  V30 2082 H 193.064 0.618344 4.16839 0
M  V30 2083 H 191.739 -0.128581 3.23445 0
M  V30 2084 H 190.646 2.18055 3.03978 0
M  V30 2085 H 191.979 2.85291 4.01086 0
M  V30 2086 N 193.631 -1.12557 1.10312 0
M  V30 2087 C 194.578 -2.18247 0.750781 0
M  V30 2088 C 195.548 -1.63853 -0.272293 0
M  V30 2089 O 196.733 -1.90195 -0.151862 0
M  V30 2090 C 193.873 -3.44591 0.187379 0
M  V30 2091 C 192.986 -4.13046 1.2656 0
M  V30 2092 C 192.121 -5.27034 0.663978 0
M  V30 2093 C 191.16 -5.87353 1.72287 0
M  V30 2094 N 190.297 -6.92757 1.1416 0
M  V30 2095 H 195.137 -2.47732 1.65628 0
M  V30 2096 H 192.674 -1.21629 0.827337 0
M  V30 2097 H 194.632 -4.16904 -0.157148 0
M  V30 2098 H 193.262 -3.15527 -0.681355 0
M  V30 2099 H 192.314 -3.38924 1.72727 0
M  V30 2100 H 193.626 -4.53947 2.06721 0
M  V30 2101 H 192.78 -6.06104 0.268824 0
M  V30 2102 H 191.519 -4.87407 -0.169082 0
M  V30 2103 H 190.524 -5.06971 2.12746 0
M  V30 2104 H 191.749 -6.29051 2.55875 0
M  V30 2105 H 189.695 -6.5517 0.329984 0
M  V30 2106 H 189.612 -7.3225 1.88007 0
M  V30 2107 H 190.88 -7.75658 0.772956 0
M  V30 2108 N 195.109 -0.891671 -1.2995 0
M  V30 2109 C 196.357 -0.512486 -1.95494 0
M  V30 2110 C 196.678 0.942776 -1.70695 0
M  V30 2111 O 195.948 1.66374 -1.03424 0
M  V30 2112 H 194.528 -0.186533 -0.723336 0
M  V30 2113 H 197.19 -1.13621 -1.58355 0
M  V30 2114 H 196.286 -0.688342 -3.04415 0
M  V30 2115 N 196.587 1.43421 -0.653314 0
M  V30 2116 C 197.55 2.29182 0.0287951 0
M  V30 2117 C 198.55 1.42213 0.750465 0
M  V30 2118 O 199.74 1.63843 0.591701 0
M  V30 2119 C 196.872 3.24278 1.05151 0
M  V30 2120 H 198.065 2.90985 -0.725786 0
M  V30 2121 H 195.618 1.50702 -0.414545 0
M  V30 2122 H 196.353 2.6737 1.83532 0
M  V30 2123 H 196.138 3.88396 0.537687 0
M  V30 2124 H 197.628 3.88647 1.52786 0
M  V30 2125 N 198.065 0.39524 1.52563 0
M  V30 2126 C 199.015 -0.4541 2.23432 0
M  V30 2127 C 199.999 -1.02482 1.24042 0
M  V30 2128 O 201.191 -0.949938 1.49349 0
M  V30 2129 C 198.32 -1.57769 3.049 0
M  V30 2130 C 197.406 -1.01842 4.1169 0
M  V30 2131 N 197.797 -0.184613 5.05463 0
M  V30 2132 C 196.095 -1.29033 4.26927 0
M  V30 2133 C 196.796 0.125013 5.81566 0
M  V30 2134 N 195.772 -0.480498 5.41472 0
M  V30 2135 H 199.574 0.189413 2.93289 0
M  V30 2136 H 197.088 0.204877 1.61102 0
M  V30 2137 H 199.085 -2.19862 3.54212 0
M  V30 2138 H 197.745 -2.22397 2.36579 0
M  V30 2139 H 198.756 0.178602 5.17592 0
M  V30 2140 H 195.433 -1.93721 3.69836 0
M  V30 2141 H 196.823 0.800962 6.67109 0
M  V30 2142 N 199.544 -1.57102 0.125237 0
M  V30 2143 C 200.791 -1.95407 -0.531248 0
M  V30 2144 C 201.119 -1.0089 -1.66287 0
M  V30 2145 O 200.374 -0.0339431 -1.95671 0
M  V30 2146 C 200.673 -3.40096 -1.09862 0
M  V30 2147 C 200.339 -4.50815 -0.0876989 0
M  V30 2148 C 199.001 -4.80824 0.19026 0
M  V30 2149 C 201.353 -5.17724 0.600902 0
M  V30 2150 C 198.681 -5.75058 1.163 0
M  V30 2151 C 201.033 -6.13005 1.56231 0
M  V30 2152 C 199.697 -6.41403 1.8482 0
M  V30 2153 H 198.967 -0.715046 -0.194397 0
M  V30 2154 H 201.614 -1.90373 0.207463 0
M  V30 2155 H 199.919 -3.41855 -1.91422 0
M  V30 2156 H 201.616 -3.6705 -1.61478 0
M  V30 2157 H 198.206 -4.27444 -0.314528 0
M  V30 2158 H 202.39 -4.94691 0.399333 0
M  V30 2159 H 197.646 -5.95362 1.39117 0
M  V30 2160 H 201.82 -6.63934 2.10153 0
M  V30 2161 H 199.447 -7.14229 2.60349 0
M  V30 2162 N 201.022 0.148545 -1.56898 0
M  V30 2163 C 201.972 1.1886 -1.94567 0
M  V30 2164 C 202.956 1.3863 -0.816735 0
M  V30 2165 O 204.148 1.40218 -1.08018 0
M  V30 2166 C 201.277 2.52262 -2.32849 0
M  V30 2167 C 200.363 2.36092 -3.52309 0
M  V30 2168 N 200.754 1.89674 -4.6889 0
M  V30 2169 C 199.052 2.66848 -3.57363 0
M  V30 2170 C 199.753 1.86511 -5.50989 0
M  V30 2171 N 198.729 2.29766 -4.92655 0
M  V30 2172 H 202.531 0.821793 -2.82177 0
M  V30 2173 H 200.045 0.356615 -1.58436 0
M  V30 2174 H 202.042 3.27447 -2.58039 0
M  V30 2175 H 200.702 2.89727 -1.46589 0
M  V30 2176 H 201.713 1.59663 -4.92674 0
M  V30 2177 H 198.39 3.08198 -2.81639 0
M  V30 2178 H 199.78 1.52128 -6.54452 0
M  V30 2179 N 202.5 1.5196 0.417844 0
M  V30 2180 C 203.41 1.77554 1.53336 0
M  V30 2181 C 204.426 0.660655 1.6097 0
M  V30 2182 O 205.602 0.945099 1.77848 0
M  V30 2183 C 202.667 1.91291 2.89152 0
M  V30 2184 C 201.728 3.15183 2.91475 0
M  V30 2185 C 200.961 3.28256 4.20813 0
M  V30 2186 O 201.184 2.46798 5.14244 0
M  V30 2187 O 200.118 4.21356 4.29817 0
M  V30 2188 H 203.944 2.7222 1.34647 0
M  V30 2189 H 201.529 1.36698 0.602828 0
M  V30 2190 H 203.411 2.02199 3.69721 0
M  V30 2191 H 202.086 0.998129 3.07927 0
M  V30 2192 H 200.993 3.09739 2.09791 0
M  V30 2193 H 202.326 4.06414 2.77648 0
M  V30 2194 N 203.978 -0.674533 1.42435 0
M  V30 2195 C 205.227 -1.43034 1.42212 0
M  V30 2196 C 205.54 -1.95555 0.0420788 0
M  V30 2197 O 206.746 -2.71374 -0.0827558 0
M  V30 2198 C 205.202 -2.58748 2.50155 0
M  V30 2199 C 204.81 -2.12925 3.94166 0
M  V30 2200 C 206.554 -3.36257 2.59098 0
M  V30 2201 C 204.461 -3.25723 4.93618 0
M  V30 2202 H 203.391 -0.537345 0.528939 0
M  V30 2203 H 206.042 -0.73024 1.68344 0
M  V30 2204 H 204.424 -3.31128 2.17188 0
M  V30 2205 H 205.598 -1.47697 4.36488 0
M  V30 2206 H 203.913 -1.48354 3.89076 0
M  V30 2207 H 206.51 -4.20264 3.30578 0
M  V30 2208 H 206.853 -3.82866 1.63461 0
M  V30 2209 H 207.386 -2.70947 2.9126 0
M  V30 2210 H 204.125 -2.84105 5.90732 0
M  V30 2211 H 203.645 -3.89732 4.55926 0
M  V30 2212 H 205.324 -3.91186 5.15347 0
M  V30 2213 N 205.456 -1.28612 -0.910864 0
M  V30 2214 C 206.684 -1.18792 -1.69399 0
M  V30 2215 C 207.099 0.253039 -1.87097 0
M  V30 2216 O 206.456 1.17071 -1.40003 0
M  V30 2217 C 206.507 -1.88511 -3.08457 0
M  V30 2218 O 206.228 -3.26979 -2.91576 0
M  V30 2219 C 207.729 -1.85029 -4.02839 0
M  V30 2220 H 204.949 -0.412233 -0.529438 0
M  V30 2221 H 207.493 -1.69788 -1.13984 0
M  V30 2222 H 205.648 -1.41379 -3.60681 0
M  V30 2223 H 206.062 -3.61936 -3.79608 0
M  V30 2224 H 207.536 -2.38395 -4.97867 0
M  V30 2225 H 208.013 -0.823303 -4.31414 0
M  V30 2226 H 208.619 -2.31853 -3.56545 0
M  V30 2227 N 206.934 1.1197 -1.10907 0
M  V30 2228 C 208.162 1.87402 -0.876824 0
M  V30 2229 C 208.577 1.79894 0.573025 0
M  V30 2230 O 207.934 1.17629 1.39534 0
M  V30 2231 C 207.985 3.36428 -1.32282 0
M  V30 2232 O 207.706 3.43765 -2.71582 0
M  V30 2233 C 209.207 4.28783 -1.12518 0
M  V30 2234 H 206.427 0.592793 -0.314384 0
M  V30 2235 H 208.971 1.41649 -1.47499 0
M  V30 2236 H 207.126 3.79706 -0.768229 0
M  V30 2237 H 207.54 4.3652 -2.90776 0
M  V30 2238 H 209.014 5.31613 -1.48633 0
M  V30 2239 H 209.491 4.39153 -0.0642394 0
M  V30 2240 H 210.097 3.91291 -1.66648 0
M  V30 2241 N 208.412 0.89855 1.29475 0
M  V30 2242 C 209.689 0.443416 1.90508 0
M  V30 2243 C 210.069 -1.07685 1.81569 0
M  V30 2244 O 209.417 -1.9182 1.24166 0
M  V30 2245 C 209.627 0.956708 3.35631 0
M  V30 2246 C 210.975 0.999728 4.12663 0
M  V30 2247 O 211.999 0.904299 3.4453 0
M  V30 2248 O 210.858 1.14289 5.34416 0
M  V30 2249 H 207.952 0.138025 0.815401 0
M  V30 2250 H 210.498 0.98834 1.37949 0
M  V30 2251 H 209.27 2.00067 3.36287 0
M  V30 2252 H 208.893 0.391728 3.95666 0
M  V30 2253 N 209.89 -1.43072 0.660911 0
M  V30 2254 C 210.838 -2.32569 -0.0378199 0
M  V30 2255 C 211.832 -1.49046 -0.805092 0
M  V30 2256 O 213.038 -1.65206 -0.714624 0
M  V30 2257 H 209.413 -0.75136 -0.031019 0
M  V30 2258 H 211.384 -2.89216 0.734609 0
M  V30 2259 C 210.133 -3.33453 -0.985124 0
M  V30 2260 H 209.456 -3.97752 -0.404147 0
M  V30 2261 H 210.896 -3.98691 -1.44297 0
M  V30 2262 C 209.355 -2.64642 -2.08486 0
M  V30 2263 O 209.885 -2.46776 -3.16961 0
M  V30 2264 N 208.091 -2.23891 -1.8526 0
M  V30 2265 H 207.638 -2.38621 -0.970449 0
M  V30 2266 H 207.596 -1.78181 -2.59034 0
M  V30 2267 N 211.368 -0.403325 -1.52352 0
M  V30 2268 C 212.315 0.425011 -2.26853 0
M  V30 2269 C 213.285 1.04598 -1.29029 0
M  V30 2270 O 214.47 1.07135 -1.57882 0
M  V30 2271 C 211.61 1.53888 -3.08889 0
M  V30 2272 C 210.723 0.939396 -4.21663 0
M  V30 2273 C 209.858 2.02547 -4.91068 0
M  V30 2274 C 208.897 1.40263 -5.95813 0
M  V30 2275 N 208.034 2.4286 -6.58759 0
M  V30 2276 H 212.874 -0.21674 -2.97211 0
M  V30 2277 H 210.411 -0.118722 -1.4662 0
M  V30 2278 H 212.369 2.19558 -3.54753 0
M  V30 2279 H 210.999 2.15074 -2.40714 0
M  V30 2280 H 210.051 0.171898 -3.80011 0
M  V30 2281 H 211.363 0.44436 -4.96817 0
M  V30 2282 H 210.517 2.75958 -5.40308 0
M  V30 2283 H 209.256 2.55415 -4.15469 0
M  V30 2284 H 208.261 0.653833 -5.45898 0
M  V30 2285 H 209.486 0.881719 -6.73352 0
M  V30 2286 H 207.432 2.94871 -5.85992 0
M  V30 2287 H 207.349 1.98152 -7.2957 0
M  V30 2288 H 208.617 3.15858 -7.12639 0
M  V30 2289 N 212.846 1.57033 -0.133567 0
M  V30 2290 C 213.776 2.1909 0.807567 0
M  V30 2291 C 214.757 1.13517 1.26681 0
M  V30 2292 O 215.942 1.41809 1.32679 0
M  V30 2293 C 213.072 2.80188 2.05212 0
M  V30 2294 C 212.026 3.91471 1.73015 0
M  V30 2295 C 211.352 4.39443 3.04622 0
M  V30 2296 C 212.652 5.12886 0.987168 0
M  V30 2297 H 214.346 2.97988 0.290403 0
M  V30 2298 H 211.892 1.43335 0.138239 0
M  V30 2299 H 213.845 3.22264 2.71521 0
M  V30 2300 H 212.569 1.98601 2.59278 0
M  V30 2301 H 211.228 3.49993 1.0909 0
M  V30 2302 H 210.876 3.54695 3.56651 0
M  V30 2303 H 210.576 5.14495 2.83847 0
M  V30 2304 H 212.1 4.8418 3.72024 0
M  V30 2305 H 213.514 5.51891 1.55208 0
M  V30 2306 H 211.911 5.93615 0.87985 0
M  V30 2307 H 212.981 4.84894 -0.0235286 0
M  V30 2308 N 214.325 -0.140222 1.56975 0
M  V30 2309 C 215.255 -1.17456 2.01808 0
M  V30 2310 C 216.236 -1.44415 0.898794 0
M  V30 2311 O 217.421 -1.5522 1.16707 0
M  V30 2312 C 214.551 -2.50607 2.40444 0
M  V30 2313 C 213.505 -2.38155 3.55621 0
M  V30 2314 C 212.831 -3.76078 3.80091 0
M  V30 2315 C 214.131 -1.85991 4.88062 0
M  V30 2316 H 215.825 -0.801743 2.88466 0
M  V30 2317 H 213.371 -0.38422 1.38779 0
M  V30 2318 H 215.324 -3.23197 2.7041 0
M  V30 2319 H 214.048 -2.89737 1.50732 0
M  V30 2320 H 212.707 -1.68016 3.25832 0
M  V30 2321 H 212.355 -4.12656 2.87618 0
M  V30 2322 H 212.055 -3.68606 4.57606 0
M  V30 2323 H 213.579 -4.50206 4.12488 0
M  V30 2324 H 214.993 -2.4838 5.16701 0
M  V30 2325 H 213.39 -1.89393 5.6943 0
M  V30 2326 H 214.46 -0.816023 4.77984 0
M  V30 2327 N 215.803 -1.52179 -0.40978 0
M  V30 2328 C 217.219 -1.40968 -0.74835 0
M  V30 2329 C 217.419 -0.513657 -1.94843 0
M  V30 2330 O 216.475 0.0208026 -2.52491 0
M  V30 2331 C 217.788 -2.83483 -1.0029 0
M  V30 2332 C 219.336 -2.92821 -1.10565 0
M  V30 2333 C 219.811 -4.36303 -1.39296 0
M  V30 2334 N 221.302 -4.39535 -1.46162 0
M  V30 2335 C 222.037 -5.47614 -1.70018 0
M  V30 2336 N 221.533 -6.65812 -1.91483 0
M  V30 2337 N 223.326 -5.35129 -1.72027 0
M  V30 2338 H 215.477 -2.0897 0.380186 0
M  V30 2339 H 217.74 -0.94185 0.107805 0
M  V30 2340 H 217.446 -3.51168 -0.193461 0
M  V30 2341 H 217.32 -3.24487 -1.92323 0
M  V30 2342 H 219.707 -2.25318 -1.90568 0
M  V30 2343 H 219.788 -2.55276 -0.16369 0
M  V30 2344 H 219.432 -5.04366 -0.598109 0
M  V30 2345 H 219.362 -4.71385 -2.34743 0
M  V30 2346 H 221.853 -3.54332 -1.31367 0
M  V30 2347 H 222.166 -7.43964 -2.09134 0
M  V30 2348 H 220.511 -6.68879 -1.88749 0
M  V30 2349 H 223.702 -4.41764 -1.54796 0
M  V30 2350 H 223.875 -6.19433 -1.9028 0
M  V30 2351 N 217.281 0.66697 -1.42791 0
M  V30 2352 C 218.53 1.42278 -1.42968 0
M  V30 2353 C 218.843 1.9553 -0.0524489 0
M  V30 2354 O 220.049 2.71414 0.068363 0
M  V30 2355 C 218.505 2.57418 -2.51524 0
M  V30 2356 C 218.113 2.10832 -3.9529 0
M  V30 2357 C 219.857 3.34878 -2.60877 0
M  V30 2358 C 217.764 3.23101 -4.95338 0
M  V30 2359 H 216.694 0.534533 -0.531781 0
M  V30 2360 H 219.345 0.721302 -1.68729 0
M  V30 2361 H 217.727 3.29971 -2.18941 0
M  V30 2362 H 218.901 1.4538 -4.37266 0
M  V30 2363 H 217.216 1.46289 -3.89857 0
M  V30 2364 H 219.813 4.18505 -3.32802 0
M  V30 2365 H 220.156 3.81993 -1.6549 0
M  V30 2366 H 220.689 2.69398 -2.92693 0
M  V30 2367 H 217.428 2.80969 -5.9223 0
M  V30 2368 H 216.948 3.87309 -4.57987 0
M  V30 2369 H 218.627 3.88447 -5.17415 0
M  V30 2370 N 218.759 1.29093 0.90403 0
M  V30 2371 C 219.984 1.19809 1.69294 0
M  V30 2372 C 220.409 -0.238481 1.86582 0
M  V30 2373 O 219.767 -1.1723 1.383 0
M  V30 2374 C 219.815 1.91202 3.05736 0
M  V30 2375 O 218.919 1.22611 3.93752 0
M  V30 2376 H 218.26 0.415385 0.518027 0
M  V30 2377 H 220.79 1.70586 1.12967 0
M  V30 2378 H 220.8 1.99487 3.55906 0
M  V30 2379 H 219.475 2.95692 2.92471 0
M  V30 2380 H 218.052 1.22554 3.52186 0
M  V30 2381 N 220.237 -1.11381 1.11499 0
M  V30 2382 C 221.653 -1.35143 0.849031 0
M  V30 2383 C 221.853 -1.94515 -0.525938 0
M  V30 2384 O 220.909 -2.1785 -1.27662 0
M  V30 2385 C 222.222 -2.28249 1.95762 0
M  V30 2386 C 223.77 -2.41812 1.98736 0
M  V30 2387 C 224.245 -3.3824 3.088 0
M  V30 2388 N 225.736 -3.45803 3.08179 0
M  V30 2389 C 226.471 -4.20358 3.89982 0
M  V30 2390 N 225.967 -4.97884 4.8175 0
M  V30 2391 N 227.76 -4.15877 3.78157 0
M  V30 2392 H 219.911 -0.712062 2.00109 0
M  V30 2393 H 222.174 -0.376025 0.870235 0
M  V30 2394 H 221.88 -1.91817 2.94787 0
M  V30 2395 H 221.754 -3.28473 1.85433 0
M  V30 2396 H 224.141 -2.77518 1.00338 0
M  V30 2397 H 224.222 -1.41437 2.13141 0
M  V30 2398 H 223.866 -3.03261 4.07425 0
M  V30 2399 H 223.796 -4.38471 2.91635 0
M  V30 2400 H 226.287 -2.90506 2.41691 0
M  V30 2401 H 226.6 -5.52142 5.40702 0
M  V30 2402 H 224.945 -4.97043 4.85771 0
M  V30 2403 H 228.136 -3.544 3.05808 0
M  V30 2404 H 228.309 -4.73723 4.42143 0
M  V30 2405 N 221.715 -0.905404 -1.28997 0
M  V30 2406 C 222.663 -0.377431 -2.29517 0
M  V30 2407 C 223.657 0.526461 -1.61012 0
M  V30 2408 O 224.863 0.40863 -1.753 0
M  V30 2409 H 221.238 -0.103437 -0.744852 0
M  V30 2410 H 223.209 -1.23848 -2.71485 0
M  V30 2411 C 221.958 0.374833 -3.45674 0
M  V30 2412 H 221.281 -0.311474 -3.98585 0
M  V30 2413 H 222.721 0.70903 -4.1803 0
M  V30 2414 C 221.18 1.57963 -2.97572 0
M  V30 2415 O 221.71 2.67886 -2.99333 0
M  V30 2416 N 219.916 1.42375 -2.53333 0
M  V30 2417 H 219.463 0.529466 -2.521 0
M  V30 2418 H 219.421 2.23117 -2.21509 0
M  V30 2419 N 223.193 1.4272 -0.668489 0
M  V30 2420 C 224.441 2.01226 -0.187769 0
M  V30 2421 C 224.762 1.53092 1.2078 0
M  V30 2422 O 224.032 0.74993 1.80977 0
M  V30 2423 H 222.612 0.744041 -0.0664272 0
M  V30 2424 H 225.274 1.74723 -0.863583 0
M  V30 2425 H 224.37 3.11556 -0.184166 0
M  V30 2426 N 224.671 0.411399 1.52136 0
M  V30 2427 C 225.619 -0.427633 2.28635 0
M  V30 2428 C 226.613 -1.04383 1.33419 0
M  V30 2429 O 227.819 -0.981772 1.50868 0
M  V30 2430 H 224.194 -0.156689 0.735495 0
M  V30 2431 H 226.165 0.238761 2.97443 0
M  V30 2432 C 224.914 -1.53082 3.12188 0
M  V30 2433 H 224.237 -1.06601 3.85326 0
M  V30 2434 H 225.677 -2.09167 3.68816 0
M  V30 2435 C 224.136 -2.49946 2.25895 0
M  V30 2436 O 224.666 -3.53884 1.90076 0
M  V30 2437 N 222.872 -2.2021 1.8962 0
M  V30 2438 H 222.419 -1.35719 2.18948 0
M  V30 2439 H 222.377 -2.85266 1.32176 0
M  V30 2440 N 226.149 -1.5696 0.141893 0
M  V30 2441 C 227.395 -1.9625 -0.511248 0
M  V30 2442 C 227.728 -1.02654 -1.64851 0
M  V30 2443 O 227.003 -0.0679676 -1.94381 0
M  V30 2444 C 227.286 -3.45285 -1.02227 0
M  V30 2445 C 227.139 -4.49658 0.113138 0
M  V30 2446 C 228.458 -3.96698 -1.90574 0
M  V30 2447 H 225.577 -0.713567 -0.184367 0
M  V30 2448 H 228.219 -1.88698 0.222087 0
M  V30 2449 H 226.369 -3.51852 -1.64719 0
M  V30 2450 H 228.041 -4.55174 0.749302 0
M  V30 2451 H 226.284 -4.26857 0.773026 0
M  V30 2452 H 226.955 -5.51258 -0.286053 0
M  V30 2453 H 229.431 -3.92578 -1.37918 0
M  V30 2454 H 228.307 -5.01453 -2.2324 0
M  V30 2455 H 228.568 -3.3875 -2.84079 0
M  V30 2456 N 227.627 0.131896 -1.57047 0
M  V30 2457 C 228.557 1.16384 -2.02428 0
M  V30 2458 C 229.538 1.43936 -0.90644 0
M  V30 2459 O 230.723 1.54599 -1.17528 0
M  V30 2460 C 227.853 2.49328 -2.4177 0
M  V30 2461 C 226.807 2.36266 -3.56879 0
M  V30 2462 C 226.133 3.74057 -3.8208 0
M  V30 2463 C 227.433 1.834 -4.89042 0
M  V30 2464 H 229.127 0.786433 -2.88887 0
M  V30 2465 H 226.673 0.376855 -1.38981 0
M  V30 2466 H 228.626 3.21759 -2.7212 0
M  V30 2467 H 227.35 2.88934 -1.52266 0
M  V30 2468 H 226.009 1.66286 -3.26718 0
M  V30 2469 H 225.657 4.11125 -2.89803 0
M  V30 2470 H 225.357 3.66174 -4.59554 0
M  V30 2471 H 226.881 4.48012 -4.1487 0
M  V30 2472 H 228.295 2.45636 -5.18011 0
M  V30 2473 H 226.692 1.8637 -5.70426 0
M  V30 2474 H 227.762 0.790662 -4.7841 0
M  V30 2475 N 229.106 1.52395 0.401703 0
M  V30 2476 C 230.336 1.70429 1.1678 0
M  V30 2477 C 230.744 0.416702 1.84554 0
M  V30 2478 O 230.087 -0.617697 1.73003 0
M  V30 2479 C 230.149 2.78919 2.26814 0
M  V30 2480 C 229.813 4.20437 1.79113 0
M  V30 2481 C 230.81 5.04028 1.27482 0
M  V30 2482 C 228.495 4.66704 1.85722 0
M  V30 2483 C 230.489 6.31961 0.830913 0
M  V30 2484 C 228.176 5.94625 1.40942 0
M  V30 2485 C 229.174 6.77082 0.897128 0
M  V30 2486 O 228.862 8.02607 0.455822 0
M  V30 2487 H 228.594 0.574272 0.356634 0
M  V30 2488 H 231.148 1.99767 0.477724 0
M  V30 2489 H 229.378 2.44973 2.99207 0
M  V30 2490 H 231.067 2.8548 2.88541 0
M  V30 2491 H 231.833 4.69471 1.21744 0
M  V30 2492 H 227.712 4.0262 2.24539 0
M  V30 2493 H 231.256 6.96271 0.430368 0
M  V30 2494 H 227.153 6.28688 1.46362 0
M  V30 2495 H 227.921 8.16453 0.578457 0
M  V30 2496 N 230.584 -0.659388 1.43143 0
M  V30 2497 C 231.809 -1.45221 1.48073 0
M  V30 2498 C 232.234 -1.87845 0.097995 0
M  V30 2499 O 231.592 -1.56985 -0.90694 0
M  V30 2500 C 231.64 -2.66748 2.42647 0
M  V30 2501 O 230.744 -3.65583 1.90848 0
M  V30 2502 H 230.085 -0.435669 0.501088 0
M  V30 2503 H 232.615 -0.807432 1.87994 0
M  V30 2504 H 232.625 -3.14637 2.59745 0
M  V30 2505 H 231.3 -2.35067 3.43098 0
M  V30 2506 H 229.877 -3.24693 1.83381 0
M  V30 2507 N 232.062 -1.29571 -0.897171 0
M  V30 2508 C 233.311 -1.1706 -1.64256 0
M  V30 2509 C 233.624 0.276476 -1.93636 0
M  V30 2510 O 234.83 0.52294 -2.66416 0
M  V30 2511 C 233.286 -2.0475 -2.95982 0
M  V30 2512 C 232.894 -3.54295 -2.74187 0
M  V30 2513 C 234.638 -2.0097 -3.73914 0
M  V30 2514 C 232.545 -4.34081 -4.01656 0
M  V30 2515 H 231.475 -0.43452 -0.616205 0
M  V30 2516 H 234.126 -1.54229 -0.994268 0
M  V30 2517 H 232.508 -1.60452 -3.62038 0
M  V30 2518 H 233.682 -4.06662 -2.1671 0
M  V30 2519 H 231.997 -3.59773 -2.09648 0
M  V30 2520 H 234.594 -2.57838 -4.68427 0
M  V30 2521 H 234.937 -0.990273 -4.0435 0
M  V30 2522 H 235.47 -2.43325 -3.14703 0
M  V30 2523 H 232.209 -5.36671 -3.76384 0
M  V30 2524 H 231.729 -3.86483 -4.58684 0
M  V30 2525 H 233.408 -4.44877 -4.69781 0
M  V30 2526 N 233.54 1.10788 -1.12088 0
M  V30 2527 C 234.956 1.34691 -0.856186 0
M  V30 2528 C 235.156 1.94791 0.515615 0
M  V30 2529 O 234.212 2.18524 1.26505 0
M  V30 2530 C 235.525 2.27208 -1.9697 0
M  V30 2531 C 237.073 2.40755 -2.00016 0
M  V30 2532 C 237.548 3.36598 -3.1059 0
M  V30 2533 N 239.039 3.44164 -3.10008 0
M  V30 2534 C 239.774 4.18284 -3.92206 0
M  V30 2535 N 239.27 4.95322 -4.84384 0
M  V30 2536 N 241.063 4.13865 -3.80357 0
M  V30 2537 H 233.214 0.70144 -2.00483 0
M  V30 2538 H 235.477 0.371405 -0.872217 0
M  V30 2539 H 235.183 1.90251 -2.958 0
M  V30 2540 H 235.057 3.27485 -1.87172 0
M  V30 2541 H 237.444 2.76982 -1.01808 0
M  V30 2542 H 237.525 1.40305 -2.13888 0
M  V30 2543 H 237.169 3.01096 -4.09028 0
M  V30 2544 H 237.099 4.36918 -2.93956 0
M  V30 2545 H 239.59 2.8922 -2.43228 0
M  V30 2546 H 239.903 5.49267 -5.43623 0
M  V30 2547 H 238.248 4.94459 -4.884 0
M  V30 2548 H 241.439 3.52773 -3.07683 0
M  V30 2549 H 241.612 4.71372 -4.44649 0
M  V30 2550 N 235.018 0.912232 1.28515 0
M  V30 2551 C 236.267 0.540504 1.94323 0
M  V30 2552 C 236.58 -0.920044 1.72611 0
M  V30 2553 O 237.786 -1.39986 2.32629 0
M  V30 2554 C 236.242 0.915803 3.48053 0
M  V30 2555 C 235.85 2.39598 3.78546 0
M  V30 2556 C 237.594 0.614588 4.20027 0
M  V30 2557 C 235.501 2.71148 5.25578 0
M  V30 2558 H 234.431 0.198418 0.727424 0
M  V30 2559 H 237.082 1.11094 1.46049 0
M  V30 2560 H 235.464 0.274168 3.9505 0
M  V30 2561 H 236.638 3.08422 3.42364 0
M  V30 2562 H 234.953 2.66749 3.1974 0
M  V30 2563 H 237.55 0.827002 5.28266 0
M  V30 2564 H 237.893 -0.447531 4.13887 0
M  V30 2565 H 238.426 1.21462 3.78803 0
M  V30 2566 H 235.165 3.76207 5.36794 0
M  V30 2567 H 234.685 2.0696 5.62963 0
M  V30 2568 H 236.364 2.58072 5.93302 0
M  V30 2569 N 236.496 -1.42363 0.676048 0
M  V30 2570 C 237.724 -2.05859 0.207268 0
M  V30 2571 C 238.139 -1.50796 -1.13605 0
M  V30 2572 O 237.496 -0.648265 -1.70598 0
M  V30 2573 C 237.547 -3.61248 0.134975 0
M  V30 2574 O 237.268 -4.1427 1.42521 0
M  V30 2575 C 238.769 -4.41859 -0.357151 0
M  V30 2576 H 235.989 -0.663431 0.100503 0
M  V30 2577 H 238.533 -1.82479 0.923136 0
M  V30 2578 H 236.688 -3.83735 -0.531588 0
M  V30 2579 H 237.102 -5.0815 1.29939 0
M  V30 2580 H 238.576 -5.50847 -0.356641 0
M  V30 2581 H 239.053 -4.16536 -1.39264 0
M  V30 2582 H 239.659 -4.24392 0.27772 0
M  V30 2583 N 237.974 -0.419461 -1.51915 0
M  V30 2584 C 238.904 0.391813 -2.30189 0
M  V30 2585 C 239.885 1.03699 -1.34836 0
M  V30 2586 O 241.07 1.04403 -1.63748 0
M  V30 2587 C 238.2 1.50312 -3.13087 0
M  V30 2588 C 237.154 0.9824 -4.16573 0
M  V30 2589 C 236.48 2.18809 -4.8788 0
M  V30 2590 C 237.78 0.0292356 -5.22292 0
M  V30 2591 H 239.474 -0.26135 -2.98257 0
M  V30 2592 H 237.02 -0.127134 -1.43438 0
M  V30 2593 H 238.973 2.07773 -3.66617 0
M  V30 2594 H 237.697 2.18431 -2.42807 0
M  V30 2595 H 236.356 0.430119 -3.64068 0
M  V30 2596 H 236.004 2.85507 -4.14119 0
M  V30 2597 H 235.704 1.84615 -5.57845 0
M  V30 2598 H 237.228 2.76858 -5.44226 0
M  V30 2599 H 238.642 0.512976 -5.71 0
M  V30 2600 H 237.039 -0.2244 -5.9968 0
M  V30 2601 H 238.109 -0.912931 -4.76228 0
M  V30 2602 N 239.452 1.56882 -0.150215 0
M  V30 2603 C 240.68 2.00593 0.506948 0
M  V30 2604 C 241.095 1.03033 1.58208 0
M  V30 2605 O 240.452 0.0278396 1.82479 0
M  V30 2606 C 240.503 3.44209 1.10465 0
M  V30 2607 O 240.224 4.3804 0.0724636 0
M  V30 2608 C 241.725 4.03214 1.84211 0
M  V30 2609 H 238.945 0.65795 0.13169 0
M  V30 2610 H 241.489 2.03018 -0.245743 0
M  V30 2611 H 239.644 3.42625 1.80795 0
M  V30 2612 H 240.058 5.22007 0.510793 0
M  V30 2613 H 241.532 5.0569 2.21318 0
M  V30 2614 H 242.009 3.44107 2.72923 0
M  V30 2615 H 242.615 4.08437 1.18572 0
M  V30 2616 N 240.93 -0.123565 1.57115 0
M  V30 2617 C 241.86 -1.15309 2.03042 0
M  V30 2618 C 242.841 -1.43454 0.914061 0
M  V30 2619 O 244.026 -1.53973 1.18347 0
M  V30 2620 C 241.156 -2.48043 2.43089 0
M  V30 2621 C 240.11 -2.3437 3.58127 0
M  V30 2622 C 239.436 -3.72026 3.84059 0
M  V30 2623 C 240.736 -1.80804 4.90007 0
M  V30 2624 H 242.43 -0.771102 2.893 0
M  V30 2625 H 239.976 -0.369479 1.39179 0
M  V30 2626 H 241.929 -3.20311 2.73823 0
M  V30 2627 H 240.653 -2.88122 1.53796 0
M  V30 2628 H 239.312 -1.64551 3.27595 0
M  V30 2629 H 238.96 -4.09582 2.91979 0
M  V30 2630 H 238.66 -3.63732 4.6149 0
M  V30 2631 H 240.184 -4.45806 4.1724 0
M  V30 2632 H 241.598 -2.42886 5.19307 0
M  V30 2633 H 239.995 -1.83343 5.71407 0
M  V30 2634 H 241.065 -0.76528 4.78823 0
M  V30 2635 N 242.408 -1.52605 -0.393616 0
M  V30 2636 C 243.371 -1.76415 -1.46323 0
M  V30 2637 C 244.371 -0.634126 -1.47768 0
M  V30 2638 O 245.561 -0.902142 -1.4902 0
M  V30 2639 C 242.693 -1.8607 -2.85641 0
M  V30 2640 H 243.886 -2.71916 -1.26498 0
M  V30 2641 H 241.439 -1.43257 -0.625073 0
M  V30 2642 H 242.174 -0.925378 -3.10817 0
M  V30 2643 H 241.959 -2.68235 -2.85993 0
M  V30 2644 H 243.449 -2.06179 -3.63153 0
M  V30 2645 N 243.887 0.651787 -1.4349 0
M  V30 2646 C 245.127 1.42345 -1.46688 0
M  V30 2647 C 245.491 1.91793 -0.0891023 0
M  V30 2648 O 246.692 2.688 0.00423594 0
M  V30 2649 C 244.963 2.57221 -2.48137 0
M  V30 2650 S 246.522 3.45725 -2.70221 0
M  V30 2651 H 243.34 0.485878 -0.51908 0
M  V30 2652 H 245.942 0.756578 -1.80267 0
M  V30 2653 H 244.646 2.1917 -3.46976 0
M  V30 2654 H 244.177 3.28757 -2.16061 0
M  V30 2655 H 246.192 4.53996 -2.00255 0
M  V30 2656 N 245.365 1.30045 0.890287 0
M  V30 2657 C 246.776 1.16738 1.45702 0
M  V30 2658 C 247.127 -0.233939 1.948 0
M  V30 2659 O 246.252 -1.13021 1.84541 0
M  V30 2660 C 246.847 2.11313 2.64825 0
M  V30 2661 C 245.406 2.02001 3.17604 0
M  V30 2662 C 244.553 2.01699 1.90296 0
M  V30 2663 H 247.504 1.42392 0.700726 0
M  V30 2664 H 247.525 1.69086 3.40867 0
M  V30 2665 H 247.037 3.13294 2.2906 0
M  V30 2666 H 245.138 1.03142 3.5804 0
M  V30 2667 H 245.251 2.90128 3.81264 0
M  V30 2668 H 243.615 1.46427 2.08402 0
M  V30 2669 H 244.398 3.05402 1.56795 0
M  V30 2670 N 246.843 -1.10192 1.12674 0
M  V30 2671 C 247.776 -2.15847 0.740625 0
M  V30 2672 C 248.754 -1.60352 -0.269421 0
M  V30 2673 O 249.938 -1.87796 -0.16278 0
M  V30 2674 C 247.065 -3.38562 0.096641 0
M  V30 2675 C 246.111 -4.12758 1.07391 0
M  V30 2676 S 246.944 -4.67997 2.60267 0
M  V30 2677 C 248.1 -5.94021 1.97206 0
M  V30 2678 H 248.333 -2.48266 1.63558 0
M  V30 2679 H 245.866 -1.22019 0.946087 0
M  V30 2680 H 247.824 -4.09621 -0.268535 0
M  V30 2681 H 246.485 -3.04377 -0.775462 0
M  V30 2682 H 245.678 -5.00755 0.570997 0
M  V30 2683 H 245.28 -3.47523 1.38216 0
M  V30 2684 H 247.572 -6.64589 1.31634 0
M  V30 2685 H 248.515 -6.48979 2.83253 0
M  V30 2686 H 248.923 -5.46169 1.42686 0
M  V30 2687 N 248.321 -0.919034 -1.28029 0
M  V30 2688 C 249.598 -0.473668 -1.89778 0
M  V30 2689 C 249.978 1.04783 -1.83259 0
M  V30 2690 O 249.326 1.8982 -1.27202 0
M  V30 2691 C 249.536 -1.00998 -3.34066 0
M  V30 2692 C 250.884 -1.06525 -4.1102 0
M  V30 2693 O 251.908 -0.958996 -3.43048 0
M  V30 2694 O 250.767 -1.22776 -5.3253 0
M  V30 2695 H 247.861 -0.15098 -0.813101 0
M  V30 2696 H 250.407 -1.01016 -1.36359 0
M  V30 2697 H 249.179 -2.05392 -3.33061 0
M  V30 2698 H 248.802 -0.454626 -3.94992 0
M  V30 2699 N 249.799 1.42003 -0.683588 0
M  V30 2700 C 250.729 2.33487 -0.024866 0
M  V30 2701 C 251.71 1.51163 0.779975 0
M  V30 2702 O 252.895 1.79739 0.735362 0
M  V30 2703 C 250.025 3.3487 0.920836 0
M  V30 2704 C 248.979 4.27414 0.223958 0
M  V30 2705 C 248.305 5.19074 1.2832 0
M  V30 2706 C 249.605 5.14445 -0.90242 0
M  V30 2707 H 251.299 2.88819 -0.788921 0
M  V30 2708 H 248.845 1.38873 -0.38083 0
M  V30 2709 H 250.798 3.97787 1.39081 0
M  V30 2710 H 249.522 2.77861 1.71642 0
M  V30 2711 H 248.181 3.65904 -0.225864 0
M  V30 2712 H 247.829 4.58387 2.071 0
M  V30 2713 H 247.529 5.81822 0.821995 0
M  V30 2714 H 249.053 5.84867 1.75392 0
M  V30 2715 H 250.467 5.70998 -0.513272 0
M  V30 2716 H 248.864 5.86072 -1.28997 0
M  V30 2717 H 249.934 4.52322 -1.74737 0
M  V30 2718 N 251.277 0.427512 1.51691 0
M  V30 2719 C 252.224 -0.388867 2.275 0
M  V30 2720 C 253.194 -1.02532 1.30677 0
M  V30 2721 O 254.379 -1.0461 1.59566 0
M  V30 2722 C 251.519 -1.48954 3.11298 0
M  V30 2723 C 250.632 -0.872194 4.23104 0
M  V30 2724 C 249.767 -1.94709 4.94228 0
M  V30 2725 C 248.806 -1.30766 5.97969 0
M  V30 2726 N 247.943 -2.32349 6.62539 0
M  V30 2727 H 252.783 0.263997 2.96828 0
M  V30 2728 H 250.32 0.142033 1.46413 0
M  V30 2729 H 252.278 -2.13887 3.58201 0
M  V30 2730 H 250.908 -2.11217 2.44105 0
M  V30 2731 H 249.96 -0.111419 3.80237 0
M  V30 2732 H 251.272 -0.365264 4.97461 0
M  V30 2733 H 250.426 -2.67327 5.44629 0
M  V30 2734 H 249.165 -2.48773 4.1948 0
M  V30 2735 H 248.17 -0.566902 5.4687 0
M  V30 2736 H 249.395 -0.774483 6.74669 0
M  V30 2737 H 247.341 -2.85511 5.90609 0
M  V30 2738 H 247.258 -1.8652 7.3263 0
M  V30 2739 H 248.526 -3.04481 7.17574 0
M  V30 2740 N 252.755 -1.56801 0.158532 0
M  V30 2741 C 253.703 -2.18638 -0.793729 0
M  V30 2742 C 254.697 -1.14669 -1.24689 0
M  V30 2743 O 255.903 -1.32895 -1.21403 0
M  V30 2744 H 252.278 -0.700226 -0.274204 0
M  V30 2745 H 254.249 -2.97367 -0.248095 0
M  V30 2746 C 252.998 -2.83139 -2.0181 0
M  V30 2747 H 252.321 -3.62863 -1.67841 0
M  V30 2748 H 253.761 -3.29894 -2.66357 0
M  V30 2749 C 252.22 -1.82244 -2.83353 0
M  V30 2750 O 252.75 -1.3 -3.80083 0
M  V30 2751 N 250.956 -1.51288 -2.48114 0
M  V30 2752 H 250.503 -1.93964 -1.69516 0
M  V30 2753 H 250.461 -0.840296 -3.02963 0
M  V30 2754 N 254.233 0.115231 -1.57178 0
M  V30 2755 C 255.48 0.822351 -1.8505 0
M  V30 2756 C 255.808 1.79701 -0.744168 0
M  V30 2757 O 255.063 1.93909 0.26414 0
M  V30 2758 C 255.362 1.60324 -3.19423 0
M  V30 2759 C 255.028 0.772536 -4.44233 0
M  V30 2760 C 253.69 0.543468 -4.78121 0
M  V30 2761 C 256.042 0.193746 -5.2084 0
M  V30 2762 C 253.37 -0.274583 -5.86057 0
M  V30 2763 C 255.722 -0.611517 -6.29637 0
M  V30 2764 C 254.386 -0.850867 -6.62055 0
M  V30 2765 H 253.656 0.30092 -0.677147 0
M  V30 2766 H 256.303 0.0845802 -1.91313 0
M  V30 2767 H 254.608 2.41203 -3.08753 0
M  V30 2768 H 256.305 2.1544 -3.38211 0
M  V30 2769 H 252.895 0.96117 -4.17683 0
M  V30 2770 H 257.079 0.357926 -4.95008 0
M  V30 2771 H 252.335 -0.469206 -6.09597 0
M  V30 2772 H 256.509 -1.06697 -6.88178 0
M  V30 2773 H 254.136 -1.48657 -7.45523 0
M  V30 2774 N 255.711 1.52812 0.385517 0
M  V30 2775 C 257.122 1.5993 0.963293 0
M  V30 2776 C 257.473 0.454302 1.90868 0
M  V30 2777 O 256.598 -0.422132 2.12243 0
M  V30 2778 C 257.193 2.89871 1.75387 0
M  V30 2779 C 255.752 2.99389 2.28129 0
M  V30 2780 C 254.899 2.55071 1.08783 0
M  V30 2781 H 257.85 1.5784 0.164948 0
M  V30 2782 H 257.871 2.76553 2.61341 0
M  V30 2783 H 257.383 3.73186 1.06554 0
M  V30 2784 H 255.484 2.20619 3.00263 0
M  V30 2785 H 255.597 4.04096 2.57377 0
M  V30 2786 H 253.961 2.09473 1.4489 0
M  V30 2787 H 254.744 3.40785 0.414807 0
M  V30 2788 N 257.189 -0.644168 1.43834 0
M  V30 2789 C 258.122 -1.76906 1.44151 0
M  V30 2790 C 259.1 -1.59774 0.301857 0
M  V30 2791 O 260.284 -1.81834 0.496841 0
M  V30 2792 C 257.411 -3.14321 1.26174 0
M  V30 2793 C 256.457 -3.50134 2.43533 0
M  V30 2794 S 257.29 -3.49085 4.06079 0
M  V30 2795 C 258.446 -4.89142 3.90501 0
M  V30 2796 H 258.679 -1.76368 2.39336 0
M  V30 2797 H 256.212 -0.817624 1.30974 0
M  V30 2798 H 258.17 -3.93625 1.16489 0
M  V30 2799 H 256.831 -3.12412 0.325224 0
M  V30 2800 H 256.024 -4.50095 2.26783 0
M  V30 2801 H 255.626 -2.78264 2.4989 0
M  V30 2802 H 257.918 -5.78036 3.53385 0
M  V30 2803 H 258.861 -5.10945 4.90246 0
M  V30 2804 H 259.269 -4.63102 3.22795 0
M  V30 2805 N 258.668 -1.30515 -0.883378 0
M  V30 2806 C 259.945 -1.10086 -1.6168 0
M  V30 2807 C 260.325 0.349269 -2.08191 0
M  V30 2808 O 259.673 1.34105 -1.85008 0
M  V30 2809 C 259.883 -2.10315 -2.78511 0
M  V30 2810 C 261.231 -2.42119 -3.48803 0
M  V30 2811 O 262.255 -2.08638 -2.88702 0
M  V30 2812 O 261.114 -2.99396 -4.57192 0
M  V30 2813 H 258.208 -0.422907 -0.710689 0
M  V30 2814 H 260.754 -1.41947 -0.930015 0
M  V30 2815 H 259.526 -3.07917 -2.41459 0
M  V30 2816 H 259.149 -1.79282 -3.54886 0
M  V30 2817 N 260.146 1.09593 -1.13257 0
M  V30 2818 C 261.392 1.82003 -0.89458 0
M  V30 2819 C 261.725 1.85402 0.577906 0
M  V30 2820 O 261 1.32099 1.42759 0
M  V30 2821 C 261.283 3.28237 -1.48096 0
M  V30 2822 C 261.136 3.3312 -3.02244 0
M  V30 2823 C 262.455 4.24871 -1.14774 0
M  V30 2824 H 259.574 0.66077 -0.326424 0
M  V30 2825 H 262.216 1.28389 -1.40058 0
M  V30 2826 H 260.366 3.74024 -1.05062 0
M  V30 2827 H 262.038 2.95748 -3.54021 0
M  V30 2828 H 260.281 2.72756 -3.37323 0
M  V30 2829 H 260.952 4.3613 -3.38371 0
M  V30 2830 H 263.428 3.87361 -1.51957 0
M  V30 2831 H 262.304 5.25532 -1.58452 0
M  V30 2832 H 262.565 4.42058 -0.0611849 0
M  V30 2833 N 261.624 0.925811 1.2754 0
M  V30 2834 C 262.556 0.380753 2.26015 0
M  V30 2835 C 263.569 -0.487485 1.5533 0
M  V30 2836 O 264.758 -0.300413 1.75954 0
M  V30 2837 C 261.858 -0.473259 3.35579 0
M  V30 2838 C 261.031 0.375249 4.35787 0
M  V30 2839 C 260.09 -0.415809 5.24555 0
M  V30 2840 O 259.116 0.175834 5.68928 0
M  V30 2841 N 260.318 -1.71607 5.54555 0
M  V30 2842 H 263.083 1.22725 2.73421 0
M  V30 2843 H 260.644 0.793037 1.41147 0
M  V30 2844 H 262.636 -1.00949 3.91907 0
M  V30 2845 H 261.206 -1.2205 2.87789 0
M  V30 2846 H 260.426 1.09279 3.7875 0
M  V30 2847 H 261.714 0.955399 4.99749 0
M  V30 2848 H 261.112 -2.2191 5.20358 0
M  V30 2849 H 259.669 -2.19887 6.1359 0
M  V30 2850 N 263.102 -1.41638 0.69111 0
M  V30 2851 C 264.33 -2.05628 0.22909 0
M  V30 2852 C 264.745 -1.51992 -1.11999 0
M  V30 2853 O 264.102 -0.666322 -1.69901 0
M  V30 2854 C 264.153 -3.61084 0.173283 0
M  V30 2855 O 263.874 -4.12735 1.46907 0
M  V30 2856 C 265.375 -4.42213 -0.310266 0
M  V30 2857 H 262.595 -0.662327 0.107534 0
M  V30 2858 H 265.139 -1.81489 0.942438 0
M  V30 2859 H 263.294 -3.84278 -0.490858 0
M  V30 2860 H 263.708 -5.06743 1.35322 0
M  V30 2861 H 265.182 -5.51194 -0.298196 0
M  V30 2862 H 265.659 -4.1799 -1.34838 0
M  V30 2863 H 266.265 -4.24074 0.322716 0
M  V30 2864 N 264.58 -0.43555 -1.51462 0
M  V30 2865 C 265.82 0.130708 -2.03982 0
M  V30 2866 C 266.184 1.40117 -1.31268 0
M  V30 2867 O 267.385 2.04755 -1.74152 0
M  V30 2868 C 265.656 0.346102 -3.5572 0
M  V30 2869 S 267.215 0.876022 -4.29967 0
M  V30 2870 H 264.033 0.0326881 -0.710248 0
M  V30 2871 H 266.635 -0.594544 -1.8624 0
M  V30 2872 H 265.339 -0.584911 -4.0621 0
M  V30 2873 H 264.87 1.09849 -3.77752 0
M  V30 2874 H 266.885 2.15379 -4.47019 0
M  V30 2875 N 266.058 1.56714 -0.166846 0
M  V30 2876 C 267.307 1.95922 0.479318 0
M  V30 2877 C 267.62 1.05529 1.6469 0
M  V30 2878 O 268.826 1.34399 2.35901 0
M  V30 2879 C 267.282 3.48359 0.90412 0
M  V30 2880 C 266.89 4.47369 -0.237621 0
M  V30 2881 C 268.634 3.96394 1.51896 0
M  V30 2882 C 266.541 5.91039 0.206561 0
M  V30 2883 H 265.471 0.731495 0.18284 0
M  V30 2884 H 268.122 1.81728 -0.254363 0
M  V30 2885 H 266.504 3.57955 1.69365 0
M  V30 2886 H 267.678 4.49485 -1.01489 0
M  V30 2887 H 265.993 4.09366 -0.762128 0
M  V30 2888 H 268.59 5.01186 1.86325 0
M  V30 2889 H 268.933 3.39075 2.41524 0
M  V30 2890 H 269.466 3.89796 0.79395 0
M  V30 2891 H 266.205 6.52221 -0.654834 0
M  V30 2892 H 265.725 5.9224 0.949282 0
M  V30 2893 H 267.404 6.43707 0.651939 0
M  V30 2894 N 267.536 -0.106894 1.57237 0
M  V30 2895 C 268.469 -1.16125 1.96444 0
M  V30 2896 C 269.447 -1.3947 0.835871 0
M  V30 2897 O 270.631 -1.53425 1.09513 0
M  V30 2898 C 267.758 -2.51277 2.27107 0
M  V30 2899 C 266.804 -2.44285 3.4961 0
M  V30 2900 S 267.637 -1.87077 5.01759 0
M  V30 2901 C 268.793 -3.23877 5.35588 0
M  V30 2902 H 269.026 -0.826971 2.85567 0
M  V30 2903 H 266.559 -0.314124 1.51171 0
M  V30 2904 H 268.517 -3.29035 2.45451 0
M  V30 2905 H 267.178 -2.81879 1.38576 0
M  V30 2906 H 266.371 -3.4387 3.68469 0
M  V30 2907 H 265.973 -1.74652 3.30715 0
M  V30 2908 H 268.265 -4.20122 5.31511 0
M  V30 2909 H 269.208 -3.09833 6.36717 0
M  V30 2910 H 269.616 -3.22864 4.63054 0
M  V30 2911 N 269.014 -1.53014 -0.377408 0
M  V30 2912 C 269.946 -1.74884 -1.48149 0
M  V30 2913 C 270.959 -0.629433 -1.5014 0
M  V30 2914 O 272.148 -0.905416 -1.53833 0
M  V30 2915 C 269.248 -1.80299 -2.86959 0
M  V30 2916 C 268.421 -3.09776 -3.08801 0
M  V30 2917 C 267.48 -3.06586 -4.27658 0
M  V30 2918 O 266.506 -3.80419 -4.23403 0
M  V30 2919 N 267.708 -2.26578 -5.34455 0
M  V30 2920 H 270.473 -2.70147 -1.29771 0
M  V30 2921 H 268.034 -1.51646 -0.56703 0
M  V30 2922 H 270.026 -1.75657 -3.64591 0
M  V30 2923 H 268.596 -0.92372 -2.98641 0
M  V30 2924 H 267.816 -3.27815 -2.18931 0
M  V30 2925 H 269.104 -3.95366 -3.20255 0
M  V30 2926 H 268.502 -1.66081 -5.40771 0
M  V30 2927 H 267.059 -2.27766 -6.10709 0
M  V30 2928 N 270.492 0.636531 -1.44174 0
M  V30 2929 C 271.422 1.76003 -1.53444 0
M  V30 2930 C 272.403 1.65619 -0.387841 0
M  V30 2931 O 273.588 1.84461 -0.607257 0
M  V30 2932 C 270.718 3.14511 -1.4731 0
M  V30 2933 C 269.672 3.39677 -2.60391 0
M  V30 2934 C 268.998 4.78159 -2.39308 0
M  V30 2935 C 270.298 3.32772 -4.02567 0
M  V30 2936 H 271.992 1.68501 -2.47483 0
M  V30 2937 H 269.538 0.809237 -1.19111 0
M  V30 2938 H 271.491 3.92878 -1.52397 0
M  V30 2939 H 270.215 3.22783 -0.49785 0
M  V30 2940 H 268.874 2.63688 -2.54684 0
M  V30 2941 H 268.522 4.83128 -1.39988 0
M  V30 2942 H 268.222 4.95956 -3.15122 0
M  V30 2943 H 269.746 5.58762 -2.46205 0
M  V30 2944 H 271.16 4.01051 -4.09672 0
M  V30 2945 H 269.557 3.62104 -4.7854 0
M  V30 2946 H 270.627 2.30669 -4.2652 0
M  V30 2947 N 271.97 1.30982 0.876444 0
M  V30 2948 C 272.88 1.2003 2.01569 0
M  V30 2949 C 273.896 0.11838 1.73597 0
M  V30 2950 O 275.072 0.33495 1.98595 0
M  V30 2951 C 272.137 0.901637 3.34771 0
M  V30 2952 C 271.198 2.06979 3.76109 0
M  V30 2953 C 270.431 1.78529 5.02954 0
M  V30 2954 O 270.654 0.717296 5.65872 0
M  V30 2955 O 269.588 2.64019 5.40905 0
M  V30 2956 H 273.414 2.15753 2.13739 0
M  V30 2957 H 270.999 1.10658 1.00375 0
M  V30 2958 H 272.881 0.750645 4.1466 0
M  V30 2959 H 271.556 -0.0256141 3.2369 0
M  V30 2960 H 270.463 2.27616 2.96887 0
M  V30 2961 H 271.796 2.97907 3.91807 0
M  V30 2962 N 273.449 -1.08991 1.13837 0
M  V30 2963 C 274.674 -1.85551 0.926585 0
M  V30 2964 C 275.099 -1.80782 -0.519566 0
M  V30 2965 O 274.457 -1.18855 -1.36906 0
M  V30 2966 C 274.505 -3.31266 1.42462 0
M  V30 2967 O 273.609 -4.07822 0.612789 0
M  V30 2968 H 272.95 -0.575192 0.331738 0
M  V30 2969 H 275.48 -1.37604 1.51414 0
M  V30 2970 H 275.49 -3.82112 1.43019 0
M  V30 2971 H 274.165 -3.34052 2.47754 0
M  V30 2972 H 272.742 -3.66731 0.675463 0
M  V30 2973 N 274.927 -0.932562 -1.27047 0
M  V30 2974 C 276.174 -0.575559 -1.94148 0
M  V30 2975 C 276.502 0.883984 -1.73251 0
M  V30 2976 O 275.757 1.64655 -1.0577 0
M  V30 2977 C 276.056 -0.853713 -3.47054 0
M  V30 2978 C 275.722 -2.29577 -3.88079 0
M  V30 2979 C 274.384 -2.68999 -3.9899 0
M  V30 2980 C 276.736 -3.23331 -4.08787 0
M  V30 2981 C 274.064 -4.01289 -4.28 0
M  V30 2982 C 276.416 -4.55207 -4.39282 0
M  V30 2983 C 275.08 -4.94457 -4.48407 0
M  V30 2984 H 274.35 -0.210612 -0.710439 0
M  V30 2985 H 276.997 -1.17744 -1.51025 0
M  V30 2986 H 275.302 -0.169204 -3.91434 0
M  V30 2987 H 276.999 -0.55639 -3.97121 0
M  V30 2988 H 273.589 -1.97994 -3.80127 0
M  V30 2989 H 277.773 -2.94074 -3.99793 0
M  V30 2990 H 273.029 -4.31374 -4.33275 0
M  V30 2991 H 277.203 -5.27852 -4.54252 0
M  V30 2992 H 274.83 -5.96994 -4.7064 0
M  V30 2993 N 276.405 1.4127 -0.698611 0
M  V30 2994 C 277.653 2.00782 -0.230409 0
M  V30 2995 C 277.974 1.5562 1.17505 0
M  V30 2996 O 277.244 0.78815 1.79346 0
M  V30 2997 H 275.824 0.742464 -0.0821944 0
M  V30 2998 H 278.486 1.72852 -0.90045 0
M  V30 2999 H 277.582 3.11095 -0.25021 0
M  V30 3000 N 277.883 0.443576 1.51229 0
M  V30 3001 C 279.113 -0.119117 2.06256 0
M  V30 3002 C 279.521 -1.36471 1.31043 0
M  V30 3003 O 278.864 -1.80034 0.365151 0
M  V30 3004 C 278.926 -0.500546 3.55998 0
M  V30 3005 C 278.59 0.639125 4.52509 0
M  V30 3006 C 279.587 1.51311 4.97394 0
M  V30 3007 C 277.272 0.821632 4.95535 0
M  V30 3008 C 279.266 2.55425 5.83984 0
M  V30 3009 C 276.953 1.86603 5.81913 0
M  V30 3010 C 277.951 2.73072 6.26036 0
M  V30 3011 O 277.639 3.75718 7.10698 0
M  V30 3012 H 277.371 -0.00857665 0.675946 0
M  V30 3013 H 279.925 0.623288 1.95715 0
M  V30 3014 H 278.155 -1.29575 3.64345 0
M  V30 3015 H 279.844 -0.995116 3.93513 0
M  V30 3016 H 280.61 1.38367 4.64844 0
M  V30 3017 H 276.489 0.158149 4.60729 0
M  V30 3018 H 280.033 3.22949 6.18344 0
M  V30 3019 H 275.93 1.99564 6.13876 0
M  V30 3020 H 276.698 3.72374 7.2889 0
M  V30 3021 N 279.361 -1.56624 0.175154 0
M  V30 3022 C 280.589 -2.01374 -0.474971 0
M  V30 3023 C 281.004 -1.05537 -1.56548 0
M  V30 3024 O 280.361 -0.0568668 -1.82411 0
M  V30 3025 C 280.412 -3.45923 -1.04975 0
M  V30 3026 O 280.133 -4.381 -0.00276605 0
M  V30 3027 C 281.634 -4.06093 -1.77773 0
M  V30 3028 H 278.854 -0.659962 -0.121206 0
M  V30 3029 H 281.398 -2.02601 0.27801 0
M  V30 3030 H 279.553 -3.45458 -1.75321 0
M  V30 3031 H 279.967 -5.22753 -0.427681 0
M  V30 3032 H 281.441 -5.09147 -2.13245 0
M  V30 3033 H 281.918 -3.48405 -2.67414 0
M  V30 3034 H 282.524 -4.10272 -1.12059 0
M  V30 3035 N 280.839 0.0985539 -1.57292 0
M  V30 3036 C 281.772 1.15082 -1.97057 0
M  V30 3037 C 282.75 1.39025 -0.843255 0
M  V30 3038 O 283.934 1.52842 -1.10325 0
M  V30 3039 C 281.061 2.50069 -2.28437 0
M  V30 3040 C 280.107 2.42428 -3.509 0
M  V30 3041 S 280.94 1.84414 -5.02744 0
M  V30 3042 C 282.096 3.21032 -5.37298 0
M  V30 3043 H 282.329 0.811815 -2.86002 0
M  V30 3044 H 279.862 0.306102 -1.51335 0
M  V30 3045 H 281.82 3.27729 -2.47192 0
M  V30 3046 H 280.481 2.8114 -1.40069 0
M  V30 3047 H 279.674 3.41911 -3.70288 0
M  V30 3048 H 279.276 1.72896 -3.31637 0
M  V30 3049 H 281.568 4.17297 -5.33731 0
M  V30 3050 H 282.511 3.06452 -6.38352 0
M  V30 3051 H 282.919 3.20404 -4.64759 0
M  V30 3052 N 282.317 1.53212 0.369288 0
M  V30 3053 C 283.265 1.80054 1.47253 0
M  V30 3054 C 284.259 0.669456 1.55611 0
M  V30 3055 O 285.465 0.852328 1.58541 0
M  V30 3056 H 281.84 0.570034 0.490475 0
M  V30 3057 H 283.811 2.72403 1.21817 0
M  V30 3058 C 282.56 2.00403 2.84137 0
M  V30 3059 H 281.883 2.86876 2.78464 0
M  V30 3060 H 283.323 2.23164 3.60519 0
M  V30 3061 C 281.782 0.782081 3.27697 0
M  V30 3062 O 282.312 -0.0310205 4.01688 0
M  V30 3063 N 280.518 0.606573 2.84199 0
M  V30 3064 H 280.065 1.26939 2.24152 0
M  V30 3065 H 280.023 -0.20962 3.137 0
M  V30 3066 N 283.795 -0.628877 1.44509 0
M  V30 3067 C 285.072 -1.38733 1.37886 0
M  V30 3068 C 285.452 -2.11065 0.0387008 0
M  V30 3069 O 284.8 -2.06476 -0.97878 0
M  V30 3070 C 285.01 -2.35188 2.57852 0
M  V30 3071 C 286.358 -2.9845 3.02014 0
M  V30 3072 O 287.382 -2.45513 2.58073 0
M  V30 3073 O 286.241 -3.94487 3.78209 0
M  V30 3074 H 283.335 -0.621015 0.54614 0
M  V30 3075 H 285.881 -0.653744 1.56602 0
M  V30 3076 H 284.653 -1.80855 3.46998 0
M  V30 3077 H 284.276 -3.1596 2.4136 0
M  V30 3078 N 285.273 -1.31445 -0.869486 0
M  V30 3079 C 286.203 -1.21727 -1.99261 0
M  V30 3080 C 287.184 -0.104359 -1.6978 0
M  V30 3081 O 288.369 -0.289038 -1.92037 0
M  V30 3082 C 285.499 -0.924317 -3.34774 0
M  V30 3083 C 284.453 -1.99685 -3.78563 0
M  V30 3084 C 283.779 -1.55658 -5.11541 0
M  V30 3085 C 285.079 -3.41003 -3.95619 0
M  V30 3086 H 286.773 -2.1569 -2.07649 0
M  V30 3087 H 284.319 -1.03839 -0.997675 0
M  V30 3088 H 286.272 -0.842934 -4.12883 0
M  V30 3089 H 284.996 0.0509793 -3.2656 0
M  V30 3090 H 283.655 -2.06813 -3.02694 0
M  V30 3091 H 283.303 -0.569132 -4.9977 0
M  V30 3092 H 283.003 -2.27409 -5.41811 0
M  V30 3093 H 284.527 -1.48928 -5.92159 0
M  V30 3094 H 285.941 -3.36547 -4.64122 0
M  V30 3095 H 284.338 -4.10975 -4.37286 0
M  V30 3096 H 285.408 -3.81754 -2.98985 0
M  V30 3097 N 286.751 1.08385 -1.14413 0
M  V30 3098 C 288 1.80153 -0.907076 0
M  V30 3099 C 288.313 1.87176 0.567851 0
M  V30 3100 O 289.519 2.55359 0.922172 0
M  V30 3101 C 287.975 3.23687 -1.57336 0
M  V30 3102 C 287.583 3.24897 -3.08457 0
M  V30 3103 C 289.327 4.00136 -1.41744 0
M  V30 3104 C 287.234 4.6302 -3.67921 0
M  V30 3105 H 286.164 0.675139 -0.335714 0
M  V30 3106 H 288.815 1.21733 -1.37307 0
M  V30 3107 H 287.197 3.82234 -1.03505 0
M  V30 3108 H 288.371 2.76055 -3.68958 0
M  V30 3109 H 286.686 2.61943 -3.2369 0
M  V30 3110 H 289.283 5.02201 -1.83572 0
M  V30 3111 H 289.626 4.14709 -0.363576 0
M  V30 3112 H 290.159 3.48058 -1.92614 0
M  V30 3113 H 286.898 4.5365 -4.73161 0
M  V30 3114 H 286.418 5.12143 -3.12201 0
M  V30 3115 H 288.097 5.31994 -3.68227 0
M  V30 3116 N 288.23 0.939286 1.26551 0
M  V30 3117 C 289.477 0.585847 1.9384 0
M  V30 3118 C 289.805 -0.874784 1.73718 0
M  V30 3119 O 289.06 -1.64092 1.06642 0
M  V30 3120 C 289.359 0.872106 3.46596 0
M  V30 3121 C 289.025 2.31632 3.86856 0
M  V30 3122 C 287.687 2.71111 3.97558 0
M  V30 3123 C 290.039 3.25494 4.07066 0
M  V30 3124 C 287.367 4.03553 4.25866 0
M  V30 3125 C 289.719 4.57531 4.36862 0
M  V30 3126 C 288.383 4.96828 4.45778 0
M  V30 3127 H 287.653 0.214377 0.709312 0
M  V30 3128 H 290.3 1.18544 1.50398 0
M  V30 3129 H 288.605 0.18996 3.91339 0
M  V30 3130 H 290.302 0.577442 3.96821 0
M  V30 3131 H 286.892 2.00008 3.79071 0
M  V30 3132 H 291.076 2.9619 3.98227 0
M  V30 3133 H 286.332 4.33665 4.30981 0
M  V30 3134 H 290.506 5.30254 4.51446 0
M  V30 3135 H 288.133 5.99482 4.67468 0
M  V30 3136 N 289.708 -1.40897 0.706093 0
M  V30 3137 C 290.618 -2.3455 0.0482286 0
M  V30 3138 C 291.634 -1.56796 -0.754396 0
M  V30 3139 O 292.81 -1.89228 -0.689538 0
M  V30 3140 C 289.875 -3.35625 -0.869303 0
M  V30 3141 C 288.936 -4.29261 -0.0576994 0
M  V30 3142 C 288.169 -5.25508 -0.931531 0
M  V30 3143 O 288.392 -5.27472 -2.17092 0
M  V30 3144 O 287.326 -6.00727 -0.375587 0
M  V30 3145 H 291.152 -2.92407 0.820476 0
M  V30 3146 H 288.737 -1.4193 0.4665 0
M  V30 3147 H 290.619 -3.97635 -1.39514 0
M  V30 3148 H 289.294 -2.80196 -1.62086 0
M  V30 3149 H 288.201 -3.70566 0.512988 0
M  V30 3150 H 289.534 -4.87817 0.655426 0
M  V30 3151 N 291.186 -0.45159 -1.50991 0
M  V30 3152 C 292.432 0.102439 -2.03142 0
M  V30 3153 C 292.787 1.39138 -1.32884 0
M  V30 3154 O 292.08 1.86493 -0.439438 0
M  V30 3155 C 292.274 0.361728 -3.55565 0
M  V30 3156 C 292.103 -0.900535 -4.40591 0
M  V30 3157 C 290.873 -1.43821 -4.844 0
M  V30 3158 C 293.071 -1.79063 -4.82121 0
M  V30 3159 N 291.053 -2.65153 -5.53685 0
M  V30 3160 C 292.424 -2.84991 -5.50618 0
M  V30 3161 C 294.479 -1.80334 -4.64095 0
M  V30 3162 C 293.182 -3.92155 -6.02998 0
M  V30 3163 C 295.208 -2.86442 -5.17402 0
M  V30 3164 C 294.57 -3.9109 -5.85857 0
M  V30 3165 H 290.669 -0.00204537 -0.781997 0
M  V30 3166 H 293.253 -0.615446 -1.84717 0
M  V30 3167 H 291.424 1.04865 -3.73976 0
M  V30 3168 H 293.156 0.908372 -3.94374 0
M  V30 3169 H 289.911 -0.990117 -4.63135 0
M  V30 3170 H 290.335 -3.26717 -5.92946 0
M  V30 3171 H 294.977 -1.00753 -4.1062 0
M  V30 3172 H 292.695 -4.72565 -6.55521 0
M  V30 3173 H 296.281 -2.88386 -5.05297 0
M  V30 3174 H 295.161 -4.71845 -6.26364 0
M  V30 3175 N 292.664 1.56529 -0.183458 0
M  V30 3176 C 293.596 2.15747 0.773697 0
M  V30 3177 C 294.609 1.1162 1.1851 0
M  V30 3178 O 295.798 1.3876 1.12285 0
M  V30 3179 C 292.898 2.6952 2.05456 0
M  V30 3180 C 292.071 3.98429 1.8048 0
M  V30 3181 C 291.13 4.37145 2.92901 0
M  V30 3182 O 290.156 5.04791 2.6301 0
M  V30 3183 N 291.358 3.99695 4.2098 0
M  V30 3184 H 294.123 2.98505 0.26736 0
M  V30 3185 H 291.684 1.619 -0.0010878 0
M  V30 3186 H 293.676 2.92412 2.79781 0
M  V30 3187 H 292.246 1.91282 2.47245 0
M  V30 3188 H 291.466 3.8379 0.899947 0
M  V30 3189 H 292.754 4.82597 1.61175 0
M  V30 3190 H 292.152 3.4526 4.48121 0
M  V30 3191 H 290.709 4.27562 4.9197 0
M  V30 3192 N 294.142 -0.090211 1.57342 0
M  V30 3193 C 295.052 -1.12735 2.05738 0
M  V30 3194 C 296.068 -1.43557 0.983231 0
M  V30 3195 O 297.244 -1.54101 1.29672 0
M  V30 3196 C 294.309 -2.42659 2.47624 0
M  V30 3197 C 293.37 -2.18975 3.69254 0
M  V30 3198 C 292.603 -3.42704 4.09133 0
M  V30 3199 O 292.826 -4.51127 3.49057 0
M  V30 3200 O 291.76 -3.32003 5.02053 0
M  V30 3201 H 295.586 -0.746279 2.94388 0
M  V30 3202 H 293.171 -0.303064 1.46294 0
M  V30 3203 H 295.053 -3.19155 2.7517 0
M  V30 3204 H 293.728 -2.80182 1.62109 0
M  V30 3205 H 292.635 -1.40244 3.46818 0
M  V30 3206 H 293.968 -1.86342 4.55563 0
M  V30 3207 N 295.62 -1.53406 -0.361157 0
M  V30 3208 C 296.552 -1.76446 -1.46286 0
M  V30 3209 C 297.565 -0.645322 -1.49464 0
M  V30 3210 O 298.754 -0.921681 -1.52864 0
M  V30 3211 C 295.854 -1.83332 -2.85031 0
M  V30 3212 C 295.027 -3.13033 -3.05498 0
M  V30 3213 C 294.086 -3.11104 -4.24383 0
M  V30 3214 O 293.112 -3.84888 -4.19344 0
M  V30 3215 N 294.314 -2.32234 -5.32022 0
M  V30 3216 H 297.079 -2.71508 -1.26899 0
M  V30 3217 H 294.64 -1.52238 -0.550915 0
M  V30 3218 H 296.632 -1.79514 -3.62708 0
M  V30 3219 H 295.202 -0.955342 -2.97644 0
M  V30 3220 H 294.422 -3.30119 -2.15442 0
M  V30 3221 H 295.71 -3.9874 -3.16044 0
M  V30 3222 H 295.108 -1.71807 -5.38979 0
M  V30 3223 H 293.665 -2.3423 -6.08259 0
M  V30 3224 N 297.098 0.621204 -1.44841 0
M  V30 3225 C 298.346 1.37783 -1.47852 0
M  V30 3226 C 298.667 1.94653 -0.116224 0
M  V30 3227 O 297.937 1.76367 0.852737 0
M  V30 3228 H 296.517 0.511453 -0.544449 0
M  V30 3229 H 299.179 0.730446 -1.80694 0
M  V30 3230 H 298.275 2.20414 -2.20961 0
M  V30 3231 N 298.576 1.31904 0.862503 0
M  V30 3232 C 299.539 1.20131 1.95195 0
M  V30 3233 C 300.539 0.126409 1.60302 0
M  V30 3234 O 301.729 0.376234 1.70089 0
M  V30 3235 C 298.861 0.845691 3.30244 0
M  V30 3236 H 300.054 2.16943 2.07064 0
M  V30 3237 H 297.607 1.15622 1.05172 0
M  V30 3238 H 298.342 -0.120957 3.24074 0
M  V30 3239 H 298.127 1.62276 3.56944 0
M  V30 3240 H 299.617 0.787418 4.10109 0
M  V30 3241 N 300.054 -1.07777 1.14986 0
M  V30 3242 C 301.3 -1.80557 0.923422 0
M  V30 3243 C 301.633 -1.86298 -0.548337 0
M  V30 3244 O 300.908 -1.34354 -1.40639 0
M  V30 3245 C 301.191 -3.25839 1.53299 0
M  V30 3246 C 301.044 -3.28269 3.07505 0
M  V30 3247 C 302.363 -4.22991 1.21518 0
M  V30 3248 H 299.482 -0.655493 0.336894 0
M  V30 3249 H 302.124 -1.26144 1.42083 0
M  V30 3250 H 300.274 -3.72306 1.10999 0
M  V30 3251 H 301.946 -2.90079 3.58681 0
M  V30 3252 H 300.189 -2.67355 3.4162 0
M  V30 3253 H 300.86 -4.30691 3.45266 0
M  V30 3254 H 303.336 -3.84894 1.581 0
M  V30 3255 H 302.212 -5.22945 1.66793 0
M  V30 3256 H 302.473 -4.41904 0.131505 0
M  V30 3257 N 301.532 -0.945985 -1.26051 0
M  V30 3258 C 302.464 -0.416662 -2.25381 0
M  V30 3259 C 303.477 0.462712 -1.56086 0
M  V30 3260 O 304.666 0.272383 -1.7641 0
M  V30 3261 C 301.766 0.419812 -3.3629 0
M  V30 3262 C 300.939 -0.444531 -4.35135 0
M  V30 3263 C 299.998 0.332305 -5.2515 0
M  V30 3264 O 299.024 -0.266324 -5.68577 0
M  V30 3265 N 300.226 1.62763 -5.57215 0
M  V30 3266 H 302.991 -1.27059 -2.71433 0
M  V30 3267 H 300.552 -0.815392 -1.39868 0
M  V30 3268 H 302.544 0.947013 -3.93464 0
M  V30 3269 H 301.114 1.17456 -2.89694 0
M  V30 3270 H 300.334 -1.15291 -3.76964 0
M  V30 3271 H 301.622 -1.03478 -4.98166 0
M  V30 3272 H 301.02 2.13603 -5.23823 0
M  V30 3273 H 299.577 2.10097 -6.17011 0
M  V30 3274 N 303.011 1.40521 -0.713556 0
M  V30 3275 C 304.257 2.01221 -0.252564 0
M  V30 3276 C 304.59 1.56444 1.1506 0
M  V30 3277 O 303.865 0.783597 1.78017 0
M  V30 3278 C 304.148 3.58582 -0.330332 0
M  V30 3279 C 304.001 4.13437 -1.77173 0
M  V30 3280 C 305.32 4.39079 0.299641 0
M  V30 3281 H 302.439 0.731077 -0.0932471 0
M  V30 3282 H 305.081 1.67026 -0.905673 0
M  V30 3283 H 303.231 3.87844 0.225737 0
M  V30 3284 H 304.903 3.9498 -2.38303 0
M  V30 3285 H 303.146 3.67801 -2.3001 0
M  V30 3286 H 303.817 5.22597 -1.77755 0
M  V30 3287 H 306.293 4.15735 -0.174139 0
M  V30 3288 H 305.169 5.4848 0.214771 0
M  V30 3289 H 305.43 4.19915 1.38288 0
M  V30 3290 N 304.489 0.459591 1.5075 0
M  V30 3291 C 305.452 -0.329093 2.26825 0
M  V30 3292 C 306.452 -0.930481 1.31144 0
M  V30 3293 O 307.642 -0.801453 1.54669 0
M  V30 3294 C 304.774 -1.46768 3.07688 0
M  V30 3295 H 305.967 0.337924 2.9799 0
M  V30 3296 H 303.52 0.213336 1.54837 0
M  V30 3297 H 304.255 -2.17009 2.40993 0
M  V30 3298 H 304.04 -1.04238 3.77991 0
M  V30 3299 H 305.53 -2.02433 3.65254 0
M  V30 3300 N 305.967 -1.56429 0.191757 0
M  V30 3301 C 307.244 -1.89224 -0.495332 0
M  V30 3302 C 307.624 -1.10478 -1.79883 0
M  V30 3303 O 306.972 -0.204852 -2.2758 0
M  V30 3304 C 307.182 -3.41548 -0.717367 0
M  V30 3305 C 308.53 -4.11711 -1.03823 0
M  V30 3306 O 309.554 -3.4698 -0.805204 0
M  V30 3307 O 308.413 -5.2611 -1.47887 0
M  V30 3308 H 305.507 -0.785788 -0.25781 0
M  V30 3309 H 308.053 -1.68111 0.231721 0
M  V30 3310 H 306.825 -3.90772 0.203287 0
M  V30 3311 H 306.448 -3.68342 -1.497 0
M  V30 3312 N 307.445 0.0818655 -1.57387 0
M  V30 3313 C 308.693 0.781368 -1.86384 0
M  V30 3314 C 309.014 1.78618 -0.782342 0
M  V30 3315 O 308.284 1.94976 0.190061 0
M  V30 3316 H 306.864 0.291562 -0.687751 0
M  V30 3317 H 309.526 0.060348 -1.94807 0
M  V30 3318 H 308.622 1.3038 -2.83562 0
M  V30 3319 N 308.923 1.53595 0.353017 0
M  V30 3320 C 309.853 1.83902 1.43883 0
M  V30 3321 C 310.834 0.693421 1.55324 0
M  V30 3322 O 312.019 0.944452 1.69687 0
M  V30 3323 C 309.149 2.04016 2.8106 0
M  V30 3324 C 308.103 3.19814 2.84434 0
M  V30 3325 C 307.429 3.25244 4.24406 0
M  V30 3326 C 308.729 4.58133 2.50822 0
M  V30 3327 H 310.423 2.74835 1.1877 0
M  V30 3328 H 307.969 1.32242 0.569917 0
M  V30 3329 H 309.922 2.238 3.57059 0
M  V30 3330 H 308.646 1.09804 3.07588 0
M  V30 3331 H 307.305 2.9987 2.10887 0
M  V30 3332 H 306.953 2.28646 4.48029 0
M  V30 3333 H 306.653 4.03054 4.27576 0
M  V30 3334 H 308.177 3.47228 5.0226 0
M  V30 3335 H 309.591 4.77995 3.16534 0
M  V30 3336 H 307.988 5.38276 2.6529 0
M  V30 3337 H 309.058 4.62387 1.46034 0
M  V30 3338 N 310.401 -0.613514 1.45168 0
M  V30 3339 C 311.629 -1.39946 1.5239 0
M  V30 3340 C 312.044 -1.88167 0.154531 0
M  V30 3341 O 311.401 -1.61872 -0.842843 0
M  V30 3342 C 311.452 -2.60795 2.50337 0
M  V30 3343 O 311.173 -2.1458 3.81952 0
M  V30 3344 C 312.674 -3.53723 2.67198 0
M  V30 3345 H 309.894 -0.428593 0.516284 0
M  V30 3346 H 312.438 -0.748753 1.903 0
M  V30 3347 H 310.593 -3.21919 2.15515 0
M  V30 3348 H 311.007 -2.93055 4.34993 0
M  V30 3349 H 312.481 -4.35079 3.39721 0
M  V30 3350 H 312.958 -4.0368 1.73029 0
M  V30 3351 H 313.564 -2.98456 3.02992 0
M  V30 3352 N 311.879 -1.3236 -0.855495 0
M  V30 3353 C 312.809 -1.23833 -1.97958 0
M  V30 3354 C 313.79 -0.122361 -1.69659 0
M  V30 3355 O 314.975 -0.30939 -1.9172 0
M  V30 3356 C 312.105 -0.959772 -3.33775 0
M  V30 3357 C 311.059 -2.03689 -3.76424 0
M  V30 3358 C 310.385 -1.61075 -5.09862 0
M  V30 3359 C 311.685 -3.4518 -3.9198 0
M  V30 3360 H 313.379 -2.1788 -2.0535 0
M  V30 3361 H 310.925 -1.04891 -0.986605 0
M  V30 3362 H 312.878 -0.886678 -4.11966 0
M  V30 3363 H 311.602 0.0163404 -3.26596 0
M  V30 3364 H 310.261 -2.10012 -3.00484 0
M  V30 3365 H 309.909 -0.622107 -4.99138 0
M  V30 3366 H 309.609 -2.33143 -5.39368 0
M  V30 3367 H 311.133 -1.55201 -5.90546 0
M  V30 3368 H 312.547 -3.4145 -4.60526 0
M  V30 3369 H 310.944 -4.1559 -4.32903 0
M  V30 3370 H 312.014 -3.84903 -2.94919 0
M  V30 3371 N 313.357 1.07166 -1.15556 0
M  V30 3372 C 314.768 1.6127 -0.940693 0
M  V30 3373 C 315.119 1.89251 0.517551 0
M  V30 3374 O 314.244 1.65937 1.38903 0
M  V30 3375 C 314.839 2.92993 -1.7012 0
M  V30 3376 C 313.398 3.43832 -1.53156 0
M  V30 3377 C 312.545 2.1786 -1.71558 0
M  V30 3378 H 315.496 0.90229 -1.30554 0
M  V30 3379 H 315.517 3.62007 -1.17181 0
M  V30 3380 H 315.029 2.72596 -2.76248 0
M  V30 3381 H 313.13 3.69307 -0.494294 0
M  V30 3382 H 313.243 4.19747 -2.30975 0
M  V30 3383 H 311.607 2.2765 -1.14225 0
M  V30 3384 H 312.39 1.99956 -2.79056 0
M  V30 3385 N 314.835 0.952656 1.25548 0
M  V30 3386 C 315.767 0.428609 2.25157 0
M  V30 3387 C 316.78 -0.454428 1.56329 0
M  V30 3388 O 317.969 -0.263023 1.76552 0
M  V30 3389 C 315.069 -0.401972 3.36508 0
M  V30 3390 C 314.242 0.467601 4.34893 0
M  V30 3391 C 313.301 -0.30445 5.25319 0
M  V30 3392 O 312.327 0.296473 5.68427 0
M  V30 3393 N 313.529 -1.59805 5.5807 0
M  V30 3394 H 316.294 1.28497 2.70756 0
M  V30 3395 H 313.855 0.822798 1.39433 0
M  V30 3396 H 315.847 -0.926134 3.9396 0
M  V30 3397 H 314.417 -1.15918 2.90313 0
M  V30 3398 H 313.637 1.17288 3.76347 0
M  V30 3399 H 314.925 1.06119 4.97611 0
M  V30 3400 H 314.323 -2.10823 5.24948 0
M  V30 3401 H 312.88 -2.06822 6.18116 0
M  V30 3402 N 316.313 -1.40141 0.720998 0
M  V30 3403 C 317.56 -2.00787 0.262842 0
M  V30 3404 C 317.888 -1.5718 -1.14563 0
M  V30 3405 O 317.143 -0.785391 -1.79249 0
M  V30 3406 C 317.442 -3.56165 0.296892 0
M  V30 3407 C 317.108 -4.19373 1.65641 0
M  V30 3408 C 315.77 -4.36352 2.02855 0
M  V30 3409 C 318.122 -4.54578 2.54968 0
M  V30 3410 C 315.45 -4.8582 3.28931 0
M  V30 3411 C 317.802 -5.05447 3.80402 0
M  V30 3412 C 316.466 -5.20635 4.17726 0
M  V30 3413 H 315.736 -0.734731 0.0961807 0
M  V30 3414 H 318.383 -1.67673 0.925093 0
M  V30 3415 H 316.688 -3.8922 -0.448932 0
M  V30 3416 H 318.385 -4.00929 -0.0755208 0
M  V30 3417 H 314.975 -4.06549 1.35704 0
M  V30 3418 H 319.159 -4.41091 2.27491 0
M  V30 3419 H 314.415 -4.95764 3.57811 0
M  V30 3420 H 318.589 -5.31663 4.49786 0
M  V30 3421 H 316.216 -5.58728 5.15487 0
M  V30 3422 N 317.792 -0.46758 -1.50504 0
M  V30 3423 C 319.041 0.0902868 -2.01498 0
M  V30 3424 C 319.354 1.411 -1.35463 0
M  V30 3425 O 320.56 2.0536 -1.77594 0
M  V30 3426 C 319.016 0.21142 -3.59278 0
M  V30 3427 C 318.624 -1.10065 -4.34269 0
M  V30 3428 C 320.368 0.721433 -4.18325 0
M  V30 3429 C 318.275 -0.943505 -5.83825 0
M  V30 3430 H 317.205 0.037517 -0.753066 0
M  V30 3431 H 319.856 -0.601943 -1.73346 0
M  V30 3432 H 318.238 0.967352 -3.84003 0
M  V30 3433 H 319.412 -1.86726 -4.21272 0
M  V30 3434 H 317.727 -1.5415 -3.86816 0
M  V30 3435 H 320.324 0.85598 -5.27804 0
M  V30 3436 H 320.667 1.71186 -3.79475 0
M  V30 3437 H 321.2 0.0229843 -3.97793 0
M  V30 3438 H 317.939 -1.90719 -6.27141 0
M  V30 3439 H 317.459 -0.217213 -5.99407 0
M  V30 3440 H 319.138 -0.608715 -6.4413 0
M  V30 3441 N 319.27 1.56325 -0.20005 0
M  V30 3442 C 320.2 2.22318 0.713916 0
M  V30 3443 C 321.181 1.18788 1.21752 0
M  V30 3444 O 322.366 1.47309 1.26545 0
M  V30 3445 C 319.496 2.88639 1.93144 0
M  V30 3446 C 318.45 3.98457 1.56255 0
M  V30 3447 C 317.776 4.51967 2.85709 0
M  V30 3448 C 319.076 5.16612 0.768747 0
M  V30 3449 H 320.77 2.98952 0.163755 0
M  V30 3450 H 318.316 1.43792 0.0773219 0
M  V30 3451 H 320.269 3.33491 2.57608 0
M  V30 3452 H 318.993 2.09419 2.50621 0
M  V30 3453 H 317.652 3.54305 0.941471 0
M  V30 3454 H 317.3 3.69503 3.41287 0
M  V30 3455 H 317 5.26071 2.6177 0
M  V30 3456 H 318.524 4.99523 3.51154 0
M  V30 3457 H 319.938 5.57977 1.3166 0
M  V30 3458 H 318.335 5.96812 0.627286 0
M  V30 3459 H 319.405 4.84358 -0.229168 0
M  V30 3460 N 320.748 -0.0735177 1.57428 0
M  V30 3461 C 321.695 -1.08756 2.0357 0
M  V30 3462 C 322.665 -1.38559 0.916 0
M  V30 3463 O 323.85 -1.49656 1.18354 0
M  V30 3464 C 320.99 -2.39657 2.48311 0
M  V30 3465 C 320.103 -2.16399 3.73892 0
M  V30 3466 C 319.238 -3.40852 4.07423 0
M  V30 3467 C 318.277 -3.1295 5.2605 0
M  V30 3468 N 317.414 -4.29729 5.55228 0
M  V30 3469 H 322.254 -0.687104 2.8997 0
M  V30 3470 H 319.791 -0.327709 1.43403 0
M  V30 3471 H 321.749 -3.16081 2.72303 0
M  V30 3472 H 320.379 -2.77508 1.64891 0
M  V30 3473 H 319.431 -1.30676 3.57251 0
M  V30 3474 H 320.743 -1.91788 4.60455 0
M  V30 3475 H 319.897 -4.25671 4.32306 0
M  V30 3476 H 318.636 -3.68537 3.19425 0
M  V30 3477 H 317.641 -2.26526 5.00965 0
M  V30 3478 H 318.866 -2.86589 6.15665 0
M  V30 3479 H 316.812 -4.57448 4.70188 0
M  V30 3480 H 316.729 -4.08385 6.36206 0
M  V30 3481 H 317.997 -5.1555 5.84661 0
M  V30 3482 N 322.226 -1.5378 -0.344866 0
M  V30 3483 C 323.136 -1.84667 -1.4469 0
M  V30 3484 C 324.152 -0.736704 -1.57635 0
M  V30 3485 O 325.328 -1.02888 -1.73136 0
M  V30 3486 C 322.393 -2.04869 -2.79696 0
M  V30 3487 C 321.454 -3.28731 -2.76106 0
M  V30 3488 C 320.687 -3.4796 -4.04673 0
M  V30 3489 O 320.91 -2.71052 -5.01883 0
M  V30 3490 O 319.844 -4.41383 -4.09224 0
M  V30 3491 H 323.67 -2.78334 -1.21506 0
M  V30 3492 H 321.255 -1.39418 -0.536921 0
M  V30 3493 H 323.137 -2.19609 -3.59652 0
M  V30 3494 H 321.812 -1.14391 -3.02814 0
M  V30 3495 H 320.719 -3.19396 -1.94774 0
M  V30 3496 H 322.052 -4.19198 -2.57941 0
M  V30 3497 N 323.704 0.605807 -1.45491 0
M  V30 3498 C 324.614 1.74466 -1.56839 0
M  V30 3499 C 325.63 1.68006 -0.452772 0
M  V30 3500 O 326.806 1.8833 -0.713708 0
M  V30 3501 C 323.871 3.10931 -1.53371 0
M  V30 3502 C 322.932 3.28832 -2.75986 0
M  V30 3503 C 322.165 4.58787 -2.72673 0
M  V30 3504 O 322.388 5.4122 -1.80102 0
M  V30 3505 O 321.322 4.79438 -3.63899 0
M  V30 3506 H 325.148 1.67843 -2.53106 0
M  V30 3507 H 322.733 0.770108 -1.28022 0
M  V30 3508 H 324.615 3.92233 -1.54051 0
M  V30 3509 H 323.29 3.18042 -0.602572 0
M  V30 3510 H 322.197 2.47112 -2.80867 0
M  V30 3511 H 323.53 3.26599 -3.68231 0
M  V30 3512 N 325.182 1.32811 0.848464 0
M  V30 3513 C 326.129 1.22265 1.95755 0
M  V30 3514 C 327.099 0.103413 1.65778 0
M  V30 3515 O 328.284 0.280033 1.88734 0
M  V30 3516 C 325.424 0.958014 3.31536 0
M  V30 3517 C 324.537 2.16262 3.73971 0
M  V30 3518 C 323.672 1.83295 4.98575 0
M  V30 3519 C 322.711 3.00041 5.33518 0
M  V30 3520 N 321.848 2.67125 6.49299 0
M  V30 3521 H 326.688 2.17128 2.04107 0
M  V30 3522 H 324.225 1.07982 0.998913 0
M  V30 3523 H 326.183 0.785052 4.09747 0
M  V30 3524 H 324.813 0.046159 3.22767 0
M  V30 3525 H 323.865 2.44565 2.91362 0
M  V30 3526 H 325.177 3.03572 3.95785 0
M  V30 3527 H 324.331 1.62586 5.84509 0
M  V30 3528 H 323.07 0.932078 4.7871 0
M  V30 3529 H 322.075 3.21374 4.46093 0
M  V30 3530 H 323.3 3.90869 5.55336 0
M  V30 3531 H 321.246 1.79586 6.3094 0
M  V30 3532 H 321.163 3.47965 6.71161 0
M  V30 3533 H 322.431 2.49861 7.3837 0
M  V30 3534 N 326.66 -1.06551 1.16123 0
M  V30 3535 C 327.937 -1.76097 0.85142 0
M  V30 3536 C 328.317 -2.00802 -0.6513 0
M  V30 3537 O 327.665 -1.63302 -1.59827 0
M  V30 3538 C 327.875 -3.06384 1.67122 0
M  V30 3539 C 329.223 -3.80585 1.88255 0
M  V30 3540 O 330.247 -3.16218 1.63966 0
M  V30 3541 O 329.106 -4.96212 2.2899 0
M  V30 3542 H 326.2 -0.765102 0.313923 0
M  V30 3543 H 328.746 -1.12844 1.26745 0
M  V30 3544 H 327.518 -2.84071 2.69108 0
M  V30 3545 H 327.141 -3.77371 1.25206 0
M  V30 3546 N 328.138 -0.959301 -1.25041 0
M  V30 3547 C 329.068 -0.501388 -2.28053 0
M  V30 3548 C 330.049 0.454673 -1.63911 0
M  V30 3549 O 331.234 0.352618 -1.90972 0
M  V30 3550 C 328.364 0.217224 -3.4662 0
M  V30 3551 C 327.318 -0.654034 -4.22973 0
M  V30 3552 C 326.644 0.195589 -5.34342 0
M  V30 3553 C 327.944 -1.93447 -4.85155 0
M  V30 3554 H 329.638 -1.36238 -2.66608 0
M  V30 3555 H 327.184 -0.656534 -1.28163 0
M  V30 3556 H 329.137 0.548732 -4.17812 0
M  V30 3557 H 327.861 1.1125 -3.07068 0
M  V30 3558 H 326.52 -0.968693 -3.5357 0
M  V30 3559 H 326.168 1.09076 -4.91031 0
M  V30 3560 H 325.868 -0.384091 -5.86343 0
M  V30 3561 H 327.392 0.521958 -6.08365 0
M  V30 3562 H 328.806 -1.66908 -5.48466 0
M  V30 3563 H 327.203 -2.46018 -5.47353 0
M  V30 3564 H 328.273 -2.63466 -4.07079 0
M  V30 3565 N 329.616 1.39756 -0.72842 0
M  V30 3566 C 331.032 1.5442 -0.403308 0
M  V30 3567 C 331.232 1.69694 1.08656 0
M  V30 3568 O 330.288 1.69373 1.87267 0
M  V30 3569 C 331.601 2.76555 -1.18058 0
M  V30 3570 C 333.149 2.90384 -1.16815 0
M  V30 3571 C 333.624 4.15449 -1.92785 0
M  V30 3572 N 335.115 4.22475 -1.89918 0
M  V30 3573 C 335.85 5.1818 -2.45514 0
M  V30 3574 N 335.346 6.19714 -3.09719 0
M  V30 3575 N 337.139 5.1035 -2.35584 0
M  V30 3576 H 329.29 1.28089 -1.69431 0
M  V30 3577 H 331.553 0.620327 -0.716867 0
M  V30 3578 H 331.259 2.7159 -2.23455 0
M  V30 3579 H 331.133 3.69033 -0.780662 0
M  V30 3580 H 333.52 2.94846 -0.12234 0
M  V30 3581 H 333.601 1.98988 -1.6074 0
M  V30 3582 H 333.245 4.11749 -2.97364 0
M  V30 3583 H 333.175 5.05877 -1.46272 0
M  V30 3584 H 335.666 3.49743 -1.43138 0
M  V30 3585 H 335.979 6.8919 -3.49625 0
M  V30 3586 H 334.324 6.20121 -3.13807 0
M  V30 3587 H 337.515 4.2996 -1.85072 0
M  V30 3588 H 337.688 5.84761 -2.79211 0
M  V30 3589 N 331.094 0.475555 1.50254 0
M  V30 3590 C 332.324 -0.0753399 2.06463 0
M  V30 3591 C 332.732 -1.33661 1.33908 0
M  V30 3592 O 332.075 -1.79219 0.403257 0
M  V30 3593 C 332.137 -0.424921 3.5698 0
M  V30 3594 C 331.801 0.734965 4.51051 0
M  V30 3595 C 332.798 1.61827 4.94073 0
M  V30 3596 C 330.483 0.926557 4.9368 0
M  V30 3597 C 332.477 2.67754 5.78434 0
M  V30 3598 C 330.164 1.98904 5.77824 0
M  V30 3599 C 331.162 2.8629 6.20103 0
M  V30 3600 O 330.85 3.90708 7.02568 0
M  V30 3601 H 330.582 0.00576308 0.675975 0
M  V30 3602 H 333.136 0.664662 1.94349 0
M  V30 3603 H 331.366 -1.21817 3.67012 0
M  V30 3604 H 333.055 -0.911422 3.95535 0
M  V30 3605 H 333.821 1.48196 4.61804 0
M  V30 3606 H 329.7 0.25584 4.6029 0
M  V30 3607 H 333.244 3.35992 6.11355 0
M  V30 3608 H 329.141 2.12541 6.09505 0
M  V30 3609 H 329.909 3.87751 7.20827 0
M  V30 3610 N 332.573 -1.56217 0.208337 0
M  V30 3611 C 333.813 -1.99849 -0.428927 0
M  V30 3612 C 334.177 -1.09262 -1.57879 0
M  V30 3613 O 335.378 -1.42185 -2.28116 0
M  V30 3614 C 333.649 -3.46777 -0.864879 0
M  V30 3615 S 335.208 -4.12434 -1.49811 0
M  V30 3616 H 332.026 -0.697742 -0.136665 0
M  V30 3617 H 334.628 -1.92953 0.314519 0
M  V30 3618 H 333.332 -4.10396 -0.0181326 0
M  V30 3619 H 332.863 -3.57518 -1.64147 0
M  V30 3620 H 334.878 -4.10532 -2.78707 0
M  V30 3621 N 334.051 0.0651679 -1.57465 0
M  V30 3622 C 335.279 0.775808 -1.91804 0
M  V30 3623 C 335.694 1.70782 -0.804916 0
M  V30 3624 O 335.051 1.81153 0.221311 0
M  V30 3625 C 335.102 1.56381 -3.25925 0
M  V30 3626 O 334.823 0.669248 -4.32958 0
M  V30 3627 C 336.324 2.37485 -3.7432 0
M  V30 3628 H 333.544 0.2202 -0.63384 0
M  V30 3629 H 336.088 0.0334587 -2.04473 0
M  V30 3630 H 334.243 2.25837 -3.14764 0
M  V30 3631 H 334.657 1.21801 -5.10162 0
M  V30 3632 H 336.131 2.88223 -4.70778 0
M  V30 3633 H 336.608 3.17307 -3.03666 0
M  V30 3634 H 337.214 1.73173 -3.88447 0
M  V30 3635 N 335.529 1.53961 0.336706 0
M  V30 3636 C 336.476 1.82428 1.41381 0
M  V30 3637 C 337.446 0.670444 1.51968 0
M  V30 3638 O 338.631 0.915565 1.67398 0
M  V30 3639 C 335.771 2.04564 2.77934 0
M  V30 3640 C 334.884 3.32267 2.76084 0
M  V30 3641 C 334.019 3.44434 4.04399 0
M  V30 3642 C 333.058 4.66061 3.96804 0
M  V30 3643 N 332.195 4.75224 5.16823 0
M  V30 3644 H 337.035 2.74324 1.16405 0
M  V30 3645 H 334.572 1.35869 0.563752 0
M  V30 3646 H 336.53 2.15388 3.57301 0
M  V30 3647 H 335.16 1.15974 3.01247 0
M  V30 3648 H 334.212 3.3025 1.88784 0
M  V30 3649 H 335.524 4.21733 2.66351 0
M  V30 3650 H 334.678 3.54728 4.92192 0
M  V30 3651 H 333.417 2.53037 4.16921 0
M  V30 3652 H 332.422 4.55838 3.07396 0
M  V30 3653 H 333.647 5.58829 3.85858 0
M  V30 3654 H 331.593 3.86739 5.29876 0
M  V30 3655 H 331.51 5.58636 5.09374 0
M  V30 3656 H 332.778 4.89835 6.06367 0
M  V30 3657 N 337.007 -0.598083 1.45811 0
M  V30 3658 C 337.957 -1.70272 1.51629 0
M  V30 3659 C 338.941 -1.56382 0.378629 0
M  V30 3660 O 340.133 -1.65557 0.626087 0
M  V30 3661 C 337.262 -3.09042 1.49493 0
M  V30 3662 C 336.348 -3.28284 2.68496 0
M  V30 3663 N 336.739 -3.17748 3.93535 0
M  V30 3664 C 335.037 -3.59182 2.64394 0
M  V30 3665 C 335.738 -3.38579 4.7301 0
M  V30 3666 N 334.714 -3.63016 4.04624 0
M  V30 3667 H 338.516 -1.60634 2.46118 0
M  V30 3668 H 336.03 -0.801642 1.41235 0
M  V30 3669 H 338.027 -3.88302 1.51747 0
M  V30 3670 H 336.687 -3.19823 0.560683 0
M  V30 3671 H 337.698 -2.95944 4.25014 0
M  V30 3672 H 334.375 -3.76742 1.79922 0
M  V30 3673 H 335.765 -3.35747 5.82 0
M  V30 3674 N 338.485 -1.33259 -0.841409 0
M  V30 3675 C 339.715 -1.2742 -1.62628 0
M  V30 3676 C 340.123 0.157604 -1.88542 0
M  V30 3677 O 339.466 1.10938 -1.46419 0
M  V30 3678 C 339.528 -1.97797 -3.00194 0
M  V30 3679 C 339.192 -3.47109 -2.97261 0
M  V30 3680 C 340.189 -4.42358 -2.73159 0
M  V30 3681 C 337.874 -3.89247 -3.17478 0
M  V30 3682 C 339.868 -5.77718 -2.69296 0
M  V30 3683 C 337.555 -5.24713 -3.13241 0
M  V30 3684 C 338.553 -6.1876 -2.89181 0
M  V30 3685 O 338.241 -7.51745 -2.84843 0
M  V30 3686 H 337.973 -0.440436 -0.512827 0
M  V30 3687 H 340.527 -1.76153 -1.05638 0
M  V30 3688 H 338.757 -1.43652 -3.59028 0
M  V30 3689 H 340.446 -1.8549 -3.61038 0
M  V30 3690 H 341.212 -4.11127 -2.57294 0
M  V30 3691 H 337.091 -3.16456 -3.35226 0
M  V30 3692 H 340.635 -6.51097 -2.50436 0
M  V30 3693 H 336.532 -5.55569 -3.28654 0
M  V30 3694 H 337.3 -7.61262 -3.00702 0
M  V30 3695 N 339.963 1.05934 -1.16686 0
M  V30 3696 C 340.911 2.15603 -0.872817 0
M  V30 3697 C 341.905 1.68647 0.159576 0
M  V30 3698 O 343.111 1.79995 0.0132125 0
M  V30 3699 H 339.486 0.703885 -0.264671 0
M  V30 3700 H 341.457 2.37613 -1.80507 0
M  V30 3701 C 340.206 3.45457 -0.394344 0
M  V30 3702 H 339.529 3.81984 -1.18019 0
M  V30 3703 H 340.969 4.2339 -0.227408 0
M  V30 3704 C 339.428 3.25021 0.88673 0
M  V30 3705 O 339.958 3.50906 1.95519 0
M  V30 3706 N 338.164 2.78437 0.831925 0
M  V30 3707 H 337.711 2.57572 -0.0377619 0
M  V30 3708 H 337.669 2.65144 1.68956 0
M  V30 3709 N 341.441 0.965919 1.2453 0
M  V30 3710 C 342.669 0.644385 1.96609 0
M  V30 3711 C 343.084 -0.785823 1.71669 0
M  V30 3712 O 342.441 -1.52703 0.999399 0
M  V30 3713 C 342.492 0.907375 3.49927 0
M  V30 3714 O 342.213 2.28136 3.74013 0
M  V30 3715 C 343.714 0.599784 4.39224 0
M  V30 3716 H 340.934 0.240588 0.626385 0
M  V30 3717 H 343.478 1.29337 1.58405 0
M  V30 3718 H 341.633 0.304631 3.862 0
M  V30 3719 H 342.047 2.36002 4.68405 0
M  V30 3720 H 343.521 0.834263 5.45659 0
M  V30 3721 H 343.998 -0.465921 4.36722 0
M  V30 3722 H 344.604 1.18235 4.08535 0
M  V30 3723 N 342.919 -1.39368 0.735821 0
M  V30 3724 C 344.167 -2.00101 0.283562 0
M  V30 3725 C 344.488 -1.5868 -1.13338 0
M  V30 3726 O 343.758 -0.835423 -1.77193 0
M  V30 3727 H 342.338 -0.740024 0.101851 0
M  V30 3728 H 345 -1.70404 0.945962 0
M  V30 3729 H 344.096 -3.10323 0.332604 0
M  V30 3730 N 344.397 -0.483516 -1.5 0
M  V30 3731 C 345.344 0.304164 -2.28787 0
M  V30 3732 C 346.314 0.976114 -1.34392 0
M  V30 3733 O 347.499 0.986156 -1.63339 0
M  V30 3734 C 344.639 1.37298 -3.16612 0
M  V30 3735 C 343.752 0.714561 -4.26049 0
M  V30 3736 C 342.887 1.76232 -5.01114 0
M  V30 3737 C 341.926 1.08483 -6.0241 0
M  V30 3738 N 341.063 2.076 -6.70706 0
M  V30 3739 H 345.903 -0.373981 -2.95644 0
M  V30 3740 H 343.44 -0.196275 -1.45785 0
M  V30 3741 H 345.398 2.00445 -3.65893 0
M  V30 3742 H 344.028 2.02012 -2.51776 0
M  V30 3743 H 343.08 -0.0297798 -3.80388 0
M  V30 3744 H 344.392 0.180383 -4.98474 0
M  V30 3745 H 343.546 2.46929 -5.54176 0
M  V30 3746 H 342.285 2.33033 -4.28424 0
M  V30 3747 H 341.29 0.363545 -5.48597 0
M  V30 3748 H 342.515 0.523551 -6.77079 0
M  V30 3749 H 340.461 2.63394 -6.00799 0
M  V30 3750 H 340.378 1.59201 -7.39047 0
M  V30 3751 H 341.646 2.77639 -7.2838 0
M  V30 3752 N 345.875 1.56104 -0.216619 0
M  V30 3753 C 347.122 1.98172 0.416416 0
M  V30 3754 C 347.45 1.10413 1.60122 0
M  V30 3755 O 346.705 0.147967 1.9514 0
M  V30 3756 C 347.004 3.45923 0.898464 0
M  V30 3757 C 346.67 4.50559 -0.175288 0
M  V30 3758 C 345.332 4.78897 -0.470271 0
M  V30 3759 C 347.684 5.1334 -0.901728 0
M  V30 3760 C 345.012 5.67299 -1.4963 0
M  V30 3761 C 347.364 6.02853 -1.91705 0
M  V30 3762 C 346.028 6.29537 -2.21901 0
M  V30 3763 H 345.298 0.725164 0.152377 0
M  V30 3764 H 347.945 1.88839 -0.318103 0
M  V30 3765 H 346.25 3.52434 1.71165 0
M  V30 3766 H 347.947 3.75841 1.39803 0
M  V30 3767 H 344.537 4.28551 0.0647806 0
M  V30 3768 H 348.721 4.91521 -0.687072 0
M  V30 3769 H 343.977 5.86239 -1.73592 0
M  V30 3770 H 348.151 6.50552 -2.48505 0
M  V30 3771 H 345.778 6.97835 -3.01548 0
M  V30 3772 N 347.353 -0.0568162 1.57498 0
M  V30 3773 C 348.581 -0.765626 1.92213 0
M  V30 3774 C 348.996 -1.70353 0.813961 0
M  V30 3775 O 348.353 -1.81268 -0.211701 0
M  V30 3776 C 348.404 -1.5465 3.2675 0
M  V30 3777 O 348.125 -0.646278 4.33307 0
M  V30 3778 C 349.626 -2.35497 3.75574 0
M  V30 3779 H 346.846 -0.216835 0.634999 0
M  V30 3780 H 349.39 -0.0226146 2.04487 0
M  V30 3781 H 347.545 -2.24165 3.15957 0
M  V30 3782 H 347.959 -1.19093 5.108 0
M  V30 3783 H 349.433 -2.85722 4.72299 0
M  V30 3784 H 349.91 -3.15692 3.05344 0
M  V30 3785 H 350.516 -1.7111 3.8936 0
M  V30 3786 N 348.832 -1.54138 -0.328536 0
M  V30 3787 C 350.072 -1.73827 -1.07534 0
M  V30 3788 C 350.436 -0.498777 -1.85408 0
M  V30 3789 O 351.637 -0.572937 -2.62623 0
M  V30 3790 C 349.908 -2.97573 -1.97952 0
M  V30 3791 S 351.467 -3.38143 -2.79652 0
M  V30 3792 H 348.285 -0.611287 -0.36311 0
M  V30 3793 H 350.887 -1.92306 -0.351931 0
M  V30 3794 H 349.591 -3.85939 -1.39569 0
M  V30 3795 H 349.122 -2.81603 -2.74706 0
M  V30 3796 H 351.137 -2.93052 -4.00418 0
M  V30 3797 N 350.31 0.590341 -1.46126 0
M  V30 3798 C 351.559 1.34499 -1.50309 0
M  V30 3799 C 351.872 1.94977 -0.156021 0
M  V30 3800 O 353.078 2.71395 -0.0756037 0
M  V30 3801 C 351.534 2.43723 -2.64815 0
M  V30 3802 C 351.142 1.89582 -4.0591 0
M  V30 3803 C 352.886 3.20579 -2.78262 0
M  V30 3804 C 350.793 2.9639 -5.11769 0
M  V30 3805 H 349.723 0.505593 -0.559368 0
M  V30 3806 H 352.374 0.630848 -1.72315 0
M  V30 3807 H 350.756 3.17902 -2.36124 0
M  V30 3808 H 351.93 1.21997 -4.44357 0
M  V30 3809 H 350.245 1.25418 -3.97063 0
M  V30 3810 H 352.842 4.00276 -3.54519 0
M  V30 3811 H 353.185 3.72684 -1.85505 0
M  V30 3812 H 353.718 2.53505 -3.06562 0
M  V30 3813 H 350.457 2.49181 -6.06291 0
M  V30 3814 H 349.977 3.62487 -4.77873 0
M  V30 3815 H 351.656 3.60474 -5.37278 0
M  V30 3816 N 351.788 1.33704 0.83433 0
M  V30 3817 C 352.698 1.26382 1.97648 0
M  V30 3818 C 353.714 0.173548 1.73132 0
M  V30 3819 O 354.89 0.397962 1.97429 0
M  V30 3820 C 351.955 1.00769 3.31733 0
M  V30 3821 C 351.016 2.1884 3.69334 0
M  V30 3822 C 350.249 1.9444 4.9702 0
M  V30 3823 O 350.472 0.896961 5.63303 0
M  V30 3824 O 349.406 2.81093 5.32231 0
M  V30 3825 H 353.232 2.22444 2.06767 0
M  V30 3826 H 350.817 1.13795 0.968037 0
M  V30 3827 H 352.699 0.882186 4.12062 0
M  V30 3828 H 351.374 0.0773783 3.23608 0
M  V30 3829 H 350.281 2.36946 2.89495 0
M  V30 3830 H 351.614 3.10221 3.82131 0
M  V30 3831 N 353.266 -1.05314 1.17247 0
M  V30 3832 C 354.229 -2.112 0.890357 0
M  V30 3833 C 355.229 -1.60359 -0.118943 0
M  V30 3834 O 356.419 -1.73833 0.113086 0
M  V30 3835 C 353.551 -3.39266 0.333422 0
M  V30 3836 H 354.744 -2.37659 1.82916 0
M  V30 3837 H 352.297 -1.21538 0.982758 0
M  V30 3838 H 353.032 -3.18462 -0.612587 0
M  V30 3839 H 352.817 -3.77477 1.06082 0
M  V30 3840 H 354.307 -4.17315 0.154322 0
M  V30 3841 N 354.744 -0.972509 -1.24016 0
M  V30 3842 C 356.16 -0.679827 -1.44397 0
M  V30 3843 C 356.36 0.756716 -1.86751 0
M  V30 3844 O 355.416 1.53007 -2.00861 0
M  V30 3845 C 356.729 -1.66803 -2.50195 0
M  V30 3846 C 358.277 -1.68119 -2.64017 0
M  V30 3847 C 358.752 -2.65748 -3.73017 0
M  V30 3848 N 360.243 -2.64219 -3.8045 0
M  V30 3849 C 360.978 -3.36433 -4.64328 0
M  V30 3850 N 360.474 -4.1818 -5.52356 0
M  V30 3851 N 362.267 -3.25235 -4.58453 0
M  V30 3852 H 354.418 -1.90059 -0.948228 0
M  V30 3853 H 356.681 -0.818527 -0.478245 0
M  V30 3854 H 356.387 -2.69498 -2.25973 0
M  V30 3855 H 356.261 -1.4446 -3.48441 0
M  V30 3856 H 358.648 -0.661319 -2.87594 0
M  V30 3857 H 358.729 -1.94525 -1.66113 0
M  V30 3858 H 358.373 -3.67872 -3.50189 0
M  V30 3859 H 358.303 -2.36619 -4.70446 0
M  V30 3860 H 360.794 -2.04887 -3.17537 0
M  V30 3861 H 361.107 -4.70157 -6.13329 0
M  V30 3862 H 359.452 -4.22273 -5.52006 0
M  V30 3863 H 362.643 -2.60829 -3.88698 0
M  V30 3864 H 362.816 -3.81776 -5.23594 0
M  V30 3865 N 356.222 1.38976 -0.743202 0
M  V30 3866 C 357.469 2.00343 -0.294752 0
M  V30 3867 C 357.797 1.58983 1.12047 0
M  V30 3868 O 357.052 0.813809 1.77977 0
M  V30 3869 C 357.351 3.55647 -0.353517 0
M  V30 3870 C 357.017 4.16685 -1.72292 0
M  V30 3871 C 355.679 4.3307 -2.09771 0
M  V30 3872 C 358.031 4.50464 -2.62168 0
M  V30 3873 C 355.359 4.80526 -3.36618 0
M  V30 3874 C 357.711 4.99332 -3.88395 0
M  V30 3875 C 356.375 5.13924 -4.25956 0
M  V30 3876 H 355.645 0.733108 -0.107857 0
M  V30 3877 H 358.292 1.6618 -0.951651 0
M  V30 3878 H 356.597 3.89884 0.386954 0
M  V30 3879 H 358.294 4.00998 0.0117269 0
M  V30 3880 H 354.884 4.04339 -1.42155 0
M  V30 3881 H 359.068 4.37416 -2.3448 0
M  V30 3882 H 354.324 4.90008 -3.65653 0
M  V30 3883 H 358.498 5.2444 -4.58187 0
M  V30 3884 H 356.125 5.50457 -5.2431 0
M  V30 3885 N 357.7 0.491464 1.49741 0
M  V30 3886 C 358.65 -0.311086 2.25868 0
M  V30 3887 C 359.634 -0.943857 1.30308 0
M  V30 3888 O 360.826 -0.853035 1.55088 0
M  V30 3889 C 357.955 -1.38059 3.14316 0
M  V30 3890 C 357.041 -0.754541 4.17334 0
M  V30 3891 N 357.432 0.137216 5.05614 0
M  V30 3892 C 355.73 -1.01621 4.34269 0
M  V30 3893 C 356.431 0.494614 5.79593 0
M  V30 3894 N 355.407 -0.135169 5.43432 0
M  V30 3895 H 359.209 0.37555 2.91491 0
M  V30 3896 H 356.723 0.306917 1.59473 0
M  V30 3897 H 358.72 -1.96891 3.67477 0
M  V30 3898 H 357.38 -2.06901 2.50244 0
M  V30 3899 H 358.391 0.50741 5.15408 0
M  V30 3900 H 355.068 -1.69808 3.81407 0
M  V30 3901 H 356.458 1.2236 6.60665 0
M  V30 3902 N 359.178 -1.55987 0.224894 0
M  V30 3903 C 360.108 -2.23426 -0.678457 0
M  V30 3904 C 361.089 -1.20709 -1.19847 0
M  V30 3905 O 362.274 -1.49304 -1.24186 0
M  V30 3906 C 359.404 -2.91676 -1.88527 0
M  V30 3907 C 358.358 -4.00893 -1.49896 0
M  V30 3908 C 357.684 -4.56455 -2.78483 0
M  V30 3909 C 358.984 -5.17769 -0.686461 0
M  V30 3910 H 360.678 -2.99175 -0.116173 0
M  V30 3911 H 358.224 -1.43897 -0.054436 0
M  V30 3912 H 360.177 -3.37547 -2.5227 0
M  V30 3913 H 358.901 -2.1338 -2.47258 0
M  V30 3914 H 357.56 -3.55758 -0.884985 0
M  V30 3915 H 357.208 -3.74886 -3.35365 0
M  V30 3916 H 356.908 -5.30169 -2.53368 0
M  V30 3917 H 358.432 -5.05047 -3.43162 0
M  V30 3918 H 359.846 -5.60001 -1.22767 0
M  V30 3919 H 358.243 -5.97735 -0.532259 0
M  V30 3920 H 359.313 -4.83932 0.306196 0
M  V30 3921 N 360.656 0.0484629 -1.57525 0
M  V30 3922 C 361.566 1.07241 -2.08654 0
M  V30 3923 C 362.582 1.409 -1.02095 0
M  V30 3924 O 363.758 1.50609 -1.33712 0
M  V30 3925 C 360.823 2.36008 -2.5397 0
M  V30 3926 C 359.884 2.09108 -3.7493 0
M  V30 3927 C 359.117 3.31736 -4.18075 0
M  V30 3928 O 359.34 4.41714 -3.60895 0
M  V30 3929 O 358.274 3.18576 -5.10679 0
M  V30 3930 H 362.1 0.667965 -2.96263 0
M  V30 3931 H 359.685 0.26417 -1.47046 0
M  V30 3932 H 361.567 3.11747 -2.83535 0
M  V30 3933 H 360.242 2.75786 -1.69481 0
M  V30 3934 H 359.149 1.31 -3.50414 0
M  V30 3935 H 360.482 1.74198 -4.60343 0
M  V30 3936 N 362.134 1.5431 0.320358 0
M  V30 3937 C 363.55 1.45091 0.664889 0
M  V30 3938 C 363.75 0.626382 1.91517 0
M  V30 3939 O 362.806 0.126443 2.52183 0
M  V30 3940 C 364.119 2.88848 0.83591 0
M  V30 3941 C 365.667 2.9877 0.933046 0
M  V30 3942 C 366.142 4.43683 1.13621 0
M  V30 3943 N 367.633 4.47309 1.20287 0
M  V30 3944 C 368.368 5.56595 1.37801 0
M  V30 3945 N 367.864 6.75844 1.52338 0
M  V30 3946 N 369.657 5.44248 1.40535 0
M  V30 3947 H 361.808 2.06398 -0.501374 0
M  V30 3948 H 364.071 0.933963 -0.162534 0
M  V30 3949 H 363.777 3.51698 -0.0116092 0
M  V30 3950 H 363.651 3.35148 1.73078 0
M  V30 3951 H 366.038 2.36045 1.77107 0
M  V30 3952 H 366.119 2.55796 0.0145782 0
M  V30 3953 H 365.763 5.06995 0.303032 0
M  V30 3954 H 365.693 4.84269 2.0686 0
M  V30 3955 H 368.184 3.61388 1.10485 0
M  V30 3956 H 368.497 7.54892 1.65403 0
M  V30 3957 H 366.842 6.78746 1.4943 0
M  V30 3958 H 370.033 4.50038 1.28777 0
M  V30 3959 H 370.206 6.29473 1.53842 0
M  V30 3960 N 363.613 -0.582584 1.46437 0
M  V30 3961 C 364.545 -1.70618 1.53043 0
M  V30 3962 C 365.558 -1.57322 0.418769 0
M  V30 3963 O 366.747 -1.64744 0.687136 0
M  V30 3964 C 363.847 -3.08869 1.39474 0
M  V30 3965 C 363.02 -3.48166 2.64762 0
M  V30 3966 C 362.079 -4.65478 2.4539 0
M  V30 3967 O 361.105 -4.71333 3.19114 0
M  V30 3968 N 362.307 -5.60365 1.51564 0
M  V30 3969 H 365.072 -1.65405 2.49923 0
M  V30 3970 H 362.633 -0.768567 1.42494 0
M  V30 3971 H 364.625 -3.85143 1.24287 0
M  V30 3972 H 363.195 -3.08449 0.507758 0
M  V30 3973 H 362.415 -2.61598 2.9489 0
M  V30 3974 H 363.703 -3.71188 3.4799 0
M  V30 3975 H 363.101 -5.5837 0.907705 0
M  V30 3976 H 361.658 -6.36068 1.4234 0
M  V30 3977 N 365.091 -1.34144 -0.827227 0
M  V30 3978 C 366.024 -1.19707 -1.94282 0
M  V30 3979 C 367.002 -0.0897256 -1.62352 0
M  V30 3980 O 368.186 -0.254095 -1.8678 0
M  V30 3981 C 365.313 -0.838646 -3.28153 0
M  V30 3982 C 364.359 -1.95514 -3.79047 0
M  V30 3983 S 365.192 -3.56793 -3.99323 0
M  V30 3984 C 366.348 -3.22983 -5.36127 0
M  V30 3985 H 366.581 -2.1414 -2.06231 0
M  V30 3986 H 364.114 -1.19121 -0.982321 0
M  V30 3987 H 366.072 -0.638637 -4.05502 0
M  V30 3988 H 364.733 0.0872776 -3.13979 0
M  V30 3989 H 363.926 -1.658 -4.75948 0
M  V30 3990 H 363.528 -2.11241 -3.08631 0
M  V30 3991 H 365.82 -2.74531 -6.19386 0
M  V30 3992 H 366.763 -4.19008 -5.70822 0
M  V30 3993 H 367.171 -2.59276 -5.01434 0
M  V30 3994 N 366.569 1.04691 -1.17803 0
M  V30 3995 C 367.817 1.7743 -0.967617 0
M  V30 3996 C 368.138 1.88359 0.504574 0
M  V30 3997 O 367.408 1.40402 1.36617 0
M  V30 3998 H 365.988 0.657242 -0.355024 0
M  V30 3999 H 368.65 1.2638 -1.48371 0
M  V30 4000 H 367.746 2.78924 -1.40027 0
M  V30 4001 N 368.047 0.979072 1.23499 0
M  V30 4002 C 369.277 0.664237 1.95631 0
M  V30 4003 C 369.685 -0.772653 1.72704 0
M  V30 4004 O 369.028 -1.53141 1.01457 0
M  V30 4005 C 369.09 0.873115 3.48736 0
M  V30 4006 C 368.754 2.29182 3.95379 0
M  V30 4007 C 369.751 3.2704 4.04155 0
M  V30 4008 C 367.436 2.62256 4.28401 0
M  V30 4009 C 369.43 4.56052 4.45304 0
M  V30 4010 C 367.117 3.91491 4.69231 0
M  V30 4011 C 368.115 4.88201 4.77649 0
M  V30 4012 O 367.803 6.15129 5.17563 0
M  V30 4013 H 367.535 0.245915 0.629684 0
M  V30 4014 H 370.089 1.3127 1.57979 0
M  V30 4015 H 368.319 0.167476 3.86337 0
M  V30 4016 H 370.008 0.555642 4.02079 0
M  V30 4017 H 370.774 3.02819 3.78848 0
M  V30 4018 H 366.653 1.87692 4.21061 0
M  V30 4019 H 370.197 5.31538 4.51789 0
M  V30 4020 H 366.094 4.15508 4.93987 0
M  V30 4021 H 366.862 6.18862 5.35679 0
M  V30 4022 N 369.525 -1.3858 0.750561 0
M  V30 4023 C 370.755 -2.04175 0.31564 0
M  V30 4024 C 371.163 -1.56726 -1.05989 0
M  V30 4025 O 370.506 -0.734225 -1.68389 0
M  V30 4026 C 370.568 -3.58585 0.256389 0
M  V30 4027 C 370.232 -4.29077 1.57296 0
M  V30 4028 C 371.229 -4.54656 2.52159 0
M  V30 4029 C 368.914 -4.67324 1.84156 0
M  V30 4030 C 370.908 -5.17512 3.72103 0
M  V30 4031 C 368.595 -5.29905 3.04374 0
M  V30 4032 C 369.593 -5.54933 3.98168 0
M  V30 4033 O 369.281 -6.16212 5.16273 0
M  V30 4034 H 369.013 -0.662742 0.133226 0
M  V30 4035 H 371.567 -1.78313 1.01948 0
M  V30 4036 H 369.797 -3.83406 -0.503677 0
M  V30 4037 H 371.486 -4.05628 -0.148612 0
M  V30 4038 H 372.252 -4.25539 2.32683 0
M  V30 4039 H 368.131 -4.47191 1.11988 0
M  V30 4040 H 371.675 -5.36963 4.45327 0
M  V30 4041 H 367.572 -5.58444 3.23745 0
M  V30 4042 H 368.34 -6.34701 5.16815 0
M  V30 4043 N 371.003 -0.499398 -1.49478 0
M  V30 4044 C 371.933 0.269244 -2.31943 0
M  V30 4045 C 372.914 0.964054 -1.40143 0
M  V30 4046 O 374.099 0.955767 -1.69052 0
M  V30 4047 C 371.229 1.33504 -3.20615 0
M  V30 4048 C 370.183 0.760202 -4.21195 0
M  V30 4049 C 369.509 1.9264 -4.98792 0
M  V30 4050 C 370.809 -0.247661 -5.21712 0
M  V30 4051 H 372.503 -0.419082 -2.96452 0
M  V30 4052 H 370.049 -0.202988 -1.42562 0
M  V30 4053 H 372.002 1.88048 -3.77115 0
M  V30 4054 H 370.726 2.05253 -2.54045 0
M  V30 4055 H 369.385 0.23653 -3.65836 0
M  V30 4056 H 369.033 2.63154 -4.28671 0
M  V30 4057 H 368.733 1.54785 -5.66847 0
M  V30 4058 H 370.257 2.4762 -5.58137 0
M  V30 4059 H 371.671 0.209579 -5.72917 0
M  V30 4060 H 370.068 -0.541962 -5.97648 0
M  V30 4061 H 371.138 -1.16409 -4.7072 0
M  V30 4062 N 372.481 1.55866 -0.233164 0
M  V30 4063 C 373.73 1.97779 0.39579 0
M  V30 4064 C 374.043 1.12419 1.60066 0
M  V30 4065 O 375.249 1.44283 2.29988 0
M  V30 4066 C 373.705 3.5188 0.755556 0
M  V30 4067 C 373.313 4.45959 -0.427152 0
M  V30 4068 C 375.057 4.02479 1.34946 0
M  V30 4069 C 372.964 5.91383 -0.0443043 0
M  V30 4070 H 371.894 0.738592 0.15165 0
M  V30 4071 H 374.545 1.80486 -0.331212 0
M  V30 4072 H 372.927 3.64816 1.5403 0
M  V30 4073 H 374.101 4.44776 -1.20462 0
M  V30 4074 H 372.416 4.05765 -0.935068 0
M  V30 4075 H 375.013 5.08637 1.649 0
M  V30 4076 H 375.356 3.49014 2.26925 0
M  V30 4077 H 375.889 3.92813 0.62791 0
M  V30 4078 H 372.628 6.48857 -0.930874 0
M  V30 4079 H 372.148 5.95734 0.697238 0
M  V30 4080 H 373.827 6.45893 0.378334 0
M  V30 4081 N 373.959 -0.0401083 1.57549 0
M  V30 4082 C 374.891 -1.07149 2.02612 0
M  V30 4083 C 375.904 -1.33126 0.937085 0
M  V30 4084 O 377.093 -1.30808 1.21456 0
M  V30 4085 C 374.193 -2.41561 2.37701 0
M  V30 4086 C 373.366 -2.35096 3.68848 0
M  V30 4087 C 372.425 -3.51867 3.91249 0
M  V30 4088 O 371.451 -3.3186 4.62447 0
M  V30 4089 N 372.653 -4.73351 3.36035 0
M  V30 4090 H 375.418 -0.687485 2.91708 0
M  V30 4091 H 372.979 -0.228248 1.60283 0
M  V30 4092 H 374.971 -3.18379 2.49833 0
M  V30 4093 H 373.541 -2.71846 1.54332 0
M  V30 4094 H 372.761 -1.4345 3.67173 0
M  V30 4095 H 374.049 -2.27908 4.54901 0
M  V30 4096 H 373.447 -4.92507 2.78304 0
M  V30 4097 H 372.004 -5.47572 3.53565 0
M  V30 4098 N 375.437 -1.54477 -0.31217 0
M  V30 4099 C 376.37 -1.79519 -1.40884 0
M  V30 4100 C 377.348 -0.645753 -1.49227 0
M  V30 4101 O 378.532 -0.884468 -1.66461 0
M  V30 4102 C 375.659 -1.92194 -2.78889 0
M  V30 4103 C 374.705 -3.14555 -2.88023 0
M  V30 4104 S 375.538 -4.72893 -2.51262 0
M  V30 4105 C 376.694 -4.8849 -3.91317 0
M  V30 4106 H 376.927 -2.72256 -1.19432 0
M  V30 4107 H 374.46 -1.45746 -0.509654 0
M  V30 4108 H 376.418 -2.00182 -3.58382 0
M  V30 4109 H 375.079 -1.00414 -2.97617 0
M  V30 4110 H 374.272 -3.20193 -3.89221 0
M  V30 4111 H 373.874 -3.04955 -2.16514 0
M  V30 4112 H 376.166 -4.71826 -4.86196 0
M  V30 4113 H 377.109 -5.90588 -3.90656 0
M  V30 4114 H 377.517 -4.16715 -3.80801 0
M  V30 4115 N 376.915 0.57481 -1.46744 0
M  V30 4116 C 378.145 1.35659 -1.55821 0
M  V30 4117 C 378.553 1.88129 -0.201036 0
M  V30 4118 O 377.896 1.64723 0.813134 0
M  V30 4119 C 377.958 2.57473 -2.50894 0
M  V30 4120 C 377.622 2.26415 -3.9697 0
M  V30 4121 C 378.619 1.84771 -4.85958 0
M  V30 4122 C 376.304 2.38316 -4.42166 0
M  V30 4123 C 378.298 1.55434 -6.18158 0
M  V30 4124 C 375.985 2.08591 -5.74398 0
M  V30 4125 C 376.983 1.67216 -6.62214 0
M  V30 4126 O 376.671 1.37859 -7.91991 0
M  V30 4127 H 376.403 0.420496 -0.529301 0
M  V30 4128 H 378.957 0.704967 -1.92923 0
M  V30 4129 H 377.187 3.25468 -2.08824 0
M  V30 4130 H 378.876 3.19546 -2.50291 0
M  V30 4131 H 379.642 1.75085 -4.52295 0
M  V30 4132 H 375.521 2.69483 -3.74032 0
M  V30 4133 H 379.065 1.23065 -6.86659 0
M  V30 4134 H 374.962 2.17905 -6.07608 0
M  V30 4135 H 375.73 1.51638 -8.04331 0
M  V30 4136 N 378.394 1.34581 0.820102 0
M  V30 4137 C 379.643 1.26437 1.57151 0
M  V30 4138 C 379.956 -0.163111 1.94919 0
M  V30 4139 O 381.162 -0.366722 2.69012 0
M  V30 4140 C 379.618 2.21658 2.83541 0
M  V30 4141 C 379.226 3.69679 2.53065 0
M  V30 4142 C 380.97 2.22428 3.61561 0
M  V30 4143 C 378.877 4.56761 3.75664 0
M  V30 4144 H 377.807 0.469707 0.589823 0
M  V30 4145 H 380.458 1.59763 0.902656 0
M  V30 4146 H 378.84 1.81287 3.52067 0
M  V30 4147 H 380.014 4.18605 1.92631 0
M  V30 4148 H 378.329 3.71384 1.88316 0
M  V30 4149 H 380.926 2.8471 4.52597 0
M  V30 4150 H 381.269 1.22434 3.97889 0
M  V30 4151 H 381.802 2.61259 2.99981 0
M  V30 4152 H 378.541 5.57702 3.44454 0
M  V30 4153 H 378.061 4.12568 4.35371 0
M  V30 4154 H 379.74 4.71509 4.43044 0
M  V30 4155 N 379.872 -1.04064 1.18357 0
M  V30 4156 C 381.283 -1.58719 0.98312 0
M  V30 4157 C 381.634 -1.90556 -0.467193 0
M  V30 4158 O 380.759 -1.69561 -1.34454 0
M  V30 4159 C 381.354 -2.88379 1.77828 0
M  V30 4160 C 379.913 -3.3965 1.62218 0
M  V30 4161 C 379.06 -2.13235 1.77274 0
M  V30 4162 H 382.011 -0.867359 1.32901 0
M  V30 4163 H 382.032 -3.58773 1.26737 0
M  V30 4164 H 381.544 -2.65176 2.83379 0
M  V30 4165 H 379.645 -3.67866 0.592036 0
M  V30 4166 H 379.758 -4.13475 2.42023 0
M  V30 4167 H 378.122 -2.24542 1.20221 0
M  V30 4168 H 378.905 -1.92487 2.8426 0
M  V30 4169 N 381.35 -0.985608 -1.22978 0
M  V30 4170 C 382.575 -0.675254 -1.961 0
M  V30 4171 C 383 0.752154 -1.72407 0
M  V30 4172 O 382.358 1.5131 -0.998751 0
M  V30 4173 C 382.406 -0.977899 -3.47087 0
M  V30 4174 O 381.51 -0.072685 -4.12336 0
M  V30 4175 H 380.851 -0.253443 -0.613728 0
M  V30 4176 H 383.381 -1.32061 -1.56272 0
M  V30 4177 H 383.391 -0.916739 -3.97567 0
M  V30 4178 H 382.066 -2.01807 -3.63657 0
M  V30 4179 H 380.643 -0.188703 -3.72422 0
M  V30 4180 N 382.828 1.3818 -0.7579 0
M  V30 4181 C 383.758 2.33027 -0.148597 0
M  V30 4182 C 384.739 1.55085 0.69875 0
M  V30 4183 O 385.924 1.83384 0.639053 0
M  V30 4184 C 383.054 3.3928 0.742034 0
M  V30 4185 C 382.008 4.28 -0.00291946 0
M  V30 4186 C 381.334 5.25146 1.00625 0
M  V30 4187 C 382.634 5.08938 -1.17385 0
M  V30 4188 H 384.328 2.84231 -0.940909 0
M  V30 4189 H 381.874 1.36659 -0.453908 0
M  V30 4190 H 383.827 4.046 1.17799 0
M  V30 4191 H 382.551 2.86569 1.56671 0
M  V30 4192 H 381.21 3.64192 -0.419504 0
M  V30 4193 H 380.858 4.68721 1.8251 0
M  V30 4194 H 380.558 5.85361 0.512428 0
M  V30 4195 H 382.082 5.93342 1.44143 0
M  V30 4196 H 383.496 5.67474 -0.815224 0
M  V30 4197 H 381.893 5.7841 -1.59882 0
M  V30 4198 H 382.963 4.42424 -1.98468 0
M  V30 4199 N 384.306 0.507319 1.49211 0
M  V30 4200 C 385.236 -0.256939 2.32082 0
M  V30 4201 C 386.217 -0.956609 1.40652 0
M  V30 4202 O 387.402 -0.946788 1.69557 0
M  V30 4203 C 384.532 -1.31802 3.21318 0
M  V30 4204 C 383.486 -0.737855 4.21592 0
M  V30 4205 C 382.812 -1.89992 4.99807 0
M  V30 4206 C 384.112 0.275325 5.21574 0
M  V30 4207 H 385.806 0.434798 2.96226 0
M  V30 4208 H 383.352 0.210546 1.42452 0
M  V30 4209 H 385.305 -1.86045 3.78107 0
M  V30 4210 H 384.029 -2.03903 2.5513 0
M  V30 4211 H 382.688 -0.217126 3.65956 0
M  V30 4212 H 382.336 -2.60877 4.30061 0
M  V30 4213 H 382.036 -1.51777 5.6766 0
M  V30 4214 H 383.56 -2.44657 5.59442 0
M  V30 4215 H 384.974 -0.179193 5.7302 0
M  V30 4216 H 383.371 0.573649 5.97352 0
M  V30 4217 H 384.441 1.18903 4.70096 0
M  V30 4218 N 385.784 -1.5574 0.241426 0
M  V30 4219 C 387.033 -1.97986 -0.385295 0
M  V30 4220 C 387.346 -1.13267 -1.59468 0
M  V30 4221 O 388.552 -1.45501 -2.2922 0
M  V30 4222 C 387.008 -3.52275 -0.736884 0
M  V30 4223 C 386.616 -4.45726 0.450796 0
M  V30 4224 C 388.36 -4.03189 -1.3281 0
M  V30 4225 C 386.267 -5.91352 0.0756662 0
M  V30 4226 H 385.197 -0.739386 -0.147731 0
M  V30 4227 H 387.848 -1.80308 0.340779 0
M  V30 4228 H 386.23 -3.65628 -1.52094 0
M  V30 4229 H 387.404 -4.44131 1.22819 0
M  V30 4230 H 385.719 -4.05264 0.956573 0
M  V30 4231 H 388.316 -5.09505 -1.62201 0
M  V30 4232 H 388.659 -3.50212 -2.25071 0
M  V30 4233 H 389.192 -3.93141 -0.607069 0
M  V30 4234 H 385.931 -6.48354 0.965272 0
M  V30 4235 H 385.451 -5.96095 -0.665635 0
M  V30 4236 H 387.13 -6.46084 -0.344075 0
M  V30 4237 N 387.262 0.0317525 -1.57568 0
M  V30 4238 C 388.508 0.724175 -1.8943 0
M  V30 4239 C 388.841 1.75149 -0.838836 0
M  V30 4240 O 388.116 1.93948 0.146422 0
M  V30 4241 C 388.399 1.39615 -3.31933 0
M  V30 4242 C 388.252 0.382537 -4.4817 0
M  V30 4243 C 389.571 2.33084 -3.73309 0
M  V30 4244 H 386.69 0.261797 -0.688935 0
M  V30 4245 H 389.332 -0.013017 -1.89996 0
M  V30 4246 H 387.482 2.02451 -3.31581 0
M  V30 4247 H 389.154 -0.243689 -4.60656 0
M  V30 4248 H 387.397 -0.29844 -4.32772 0
M  V30 4249 H 388.068 0.891145 -5.44759 0
M  V30 4250 H 390.544 1.80295 -3.7501 0
M  V30 4251 H 389.42 2.77084 -4.73831 0
M  V30 4252 H 389.681 3.19643 -3.05419 0
M  V30 4253 N 388.74 1.54641 0.303973 0
M  V30 4254 C 389.989 1.7299 1.03717 0
M  V30 4255 C 390.302 0.521168 1.88529 0
M  V30 4256 O 391.508 0.586408 2.65092 0
M  V30 4257 C 389.964 3.06051 1.89369 0
M  V30 4258 C 389.572 4.34393 1.09574 0
M  V30 4259 C 391.316 3.3376 2.62306 0
M  V30 4260 C 389.223 5.58506 1.94486 0
M  V30 4261 H 388.153 0.64473 0.390947 0
M  V30 4262 H 390.804 1.81124 0.294328 0
M  V30 4263 H 389.186 2.91874 2.67629 0
M  V30 4264 H 390.36 4.59396 0.359485 0
M  V30 4265 H 388.675 4.13597 0.482324 0
M  V30 4266 H 391.272 4.23687 3.26181 0
M  V30 4267 H 391.615 2.52503 3.3098 0
M  V30 4268 H 392.148 3.48894 1.91097 0
M  V30 4269 H 388.887 6.42422 1.30287 0
M  V30 4270 H 388.407 5.37694 2.65792 0
M  V30 4271 H 390.086 5.95651 2.52605 0
M  V30 4272 N 390.218 -0.567019 1.47046 0
M  V30 4273 C 391.148 -1.68482 1.61667 0
M  V30 4274 C 392.129 -1.6358 0.466418 0
M  V30 4275 O 393.314 -1.81354 0.694574 0
M  V30 4276 C 390.444 -3.07124 1.62148 0
M  V30 4277 C 389.398 -3.26867 2.76301 0
M  V30 4278 C 388.724 -4.66196 2.61849 0
M  V30 4279 C 390.024 -3.13186 4.17986 0
M  V30 4280 H 391.718 -1.56502 2.5524 0
M  V30 4281 H 389.264 -0.751486 1.22836 0
M  V30 4282 H 391.217 -3.8516 1.70968 0
M  V30 4283 H 389.941 -3.2004 0.651287 0
M  V30 4284 H 388.6 -2.51237 2.66975 0
M  V30 4285 H 388.248 -4.75898 1.62879 0
M  V30 4286 H 387.948 -4.80356 3.38425 0
M  V30 4287 H 389.472 -5.46379 2.72584 0
M  V30 4288 H 390.886 -3.81049 4.2834 0
M  V30 4289 H 389.283 -3.3886 4.95272 0
M  V30 4290 H 390.353 -2.10057 4.3704 0
M  V30 4291 N 391.696 -1.35014 -0.812953 0
M  V30 4292 C 392.921 -1.31187 -1.60639 0
M  V30 4293 C 393.346 0.109382 -1.87782 0
M  V30 4294 O 392.704 1.07424 -1.46047 0
M  V30 4295 C 392.752 -2.11809 -2.91838 0
M  V30 4296 O 391.856 -1.49444 -3.8437 0
M  V30 4297 H 391.197 -0.450084 -0.488181 0
M  V30 4298 H 393.727 -1.77963 -1.00947 0
M  V30 4299 H 393.737 -2.23531 -3.41318 0
M  V30 4300 H 392.412 -3.15137 -2.71407 0
M  V30 4301 H 390.989 -1.46524 -3.42907 0
M  V30 4302 N 393.175 1.03435 -1.18907 0
M  V30 4303 C 394.421 1.7713 -0.99982 0
M  V30 4304 C 394.776 1.86695 0.465049 0
M  V30 4305 O 394.069 1.36866 1.34083 0
M  V30 4306 C 394.263 3.19792 -1.59586 0
M  V30 4307 C 394.092 3.24134 -3.11717 0
M  V30 4308 C 392.862 3.32398 -3.80578 0
M  V30 4309 C 395.06 3.11625 -4.09138 0
M  V30 4310 N 393.042 3.26055 -5.20155 0
M  V30 4311 C 394.413 3.12855 -5.35277 0
M  V30 4312 C 396.468 2.95713 -4.00572 0
M  V30 4313 C 395.171 2.99805 -6.53842 0
M  V30 4314 C 397.197 2.84011 -5.1874 0
M  V30 4315 C 396.559 2.8589 -6.43775 0
M  V30 4316 H 392.658 0.659683 -0.419931 0
M  V30 4317 H 395.242 1.2317 -1.50789 0
M  V30 4318 H 393.413 3.72085 -1.11389 0
M  V30 4319 H 395.145 3.81819 -1.3415 0
M  V30 4320 H 391.9 3.38392 -3.31342 0
M  V30 4321 H 392.324 3.26307 -5.93172 0
M  V30 4322 H 396.966 2.93086 -3.0473 0
M  V30 4323 H 394.684 3.01184 -7.49876 0
M  V30 4324 H 398.27 2.72744 -5.13909 0
M  V30 4325 H 397.15 2.76931 -7.33675 0
M  V30 4326 N 394.653 0.992116 1.22453 0
M  V30 4327 C 395.902 0.662992 1.90492 0
M  V30 4328 C 396.215 -0.808407 1.78113 0
M  V30 4329 O 397.421 -1.24908 2.41061 0
M  V30 4330 C 395.877 1.1353 3.41524 0
M  V30 4331 C 395.485 2.63187 3.62542 0
M  V30 4332 C 397.229 0.880465 4.15269 0
M  V30 4333 C 395.136 3.04024 5.0727 0
M  V30 4334 H 394.066 0.244278 0.713333 0
M  V30 4335 H 396.717 1.20157 1.38688 0
M  V30 4336 H 395.099 0.52485 3.92506 0
M  V30 4337 H 396.273 3.2957 3.22056 0
M  V30 4338 H 394.588 2.86543 3.02129 0
M  V30 4339 H 397.185 1.16128 5.21937 0
M  V30 4340 H 397.528 -0.183408 4.15896 0
M  V30 4341 H 398.061 1.45307 3.70312 0
M  V30 4342 H 394.8 4.09584 5.11782 0
M  V30 4343 H 394.32 2.42343 5.48662 0
M  V30 4344 H 395.999 2.95282 5.75689 0
M  V30 4345 N 396.131 -1.37776 0.765217 0
M  V30 4346 C 397.356 -2.04651 0.336537 0
M  V30 4347 C 397.781 -1.57337 -1.03086 0
M  V30 4348 O 397.139 -0.730621 -1.65927 0
M  V30 4349 C 397.187 -3.58577 0.381468 0
M  V30 4350 O 396.291 -4.07706 -0.62042 0
M  V30 4351 H 395.632 -0.64756 0.146838 0
M  V30 4352 H 398.162 -1.76221 1.03959 0
M  V30 4353 H 398.172 -4.07314 0.236448 0
M  V30 4354 H 396.847 -3.9237 1.37907 0
M  V30 4355 H 395.424 -3.70306 -0.439056 0
M  V30 4356 N 397.609 -0.515225 -1.4894 0
M  V30 4357 C 398.856 0.024215 -2.02486 0
M  V30 4358 C 399.184 1.35671 -1.39368 0
M  V30 4359 O 398.439 1.88566 -0.523574 0
M  V30 4360 C 398.738 0.210595 -3.56779 0
M  V30 4361 C 398.404 -1.04569 -4.38607 0
M  V30 4362 C 397.066 -1.39002 -4.60686 0
M  V30 4363 C 399.418 -1.88008 -4.86109 0
M  V30 4364 C 396.746 -2.568 -5.27514 0
M  V30 4365 C 399.098 -3.04972 -5.54234 0
M  V30 4366 C 397.762 -3.39768 -5.74555 0
M  V30 4367 H 397.032 0.00886088 -0.740947 0
M  V30 4368 H 399.679 -0.678263 -1.79086 0
M  V30 4369 H 397.984 0.99572 -3.78936 0
M  V30 4370 H 399.681 0.642659 -3.95817 0
M  V30 4371 H 396.271 -0.767497 -4.21672 0
M  V30 4372 H 400.455 -1.62719 -4.68867 0
M  V30 4373 H 395.711 -2.8398 -5.41447 0
M  V30 4374 H 399.885 -3.69943 -5.90013 0
M  V30 4375 H 397.512 -4.31148 -6.26112 0
M  V30 4376 N 399.087 1.5561 -0.249682 0
M  V30 4377 C 400.333 2.00044 0.367952 0
M  V30 4378 C 400.688 1.1349 1.55363 0
M  V30 4379 O 399.981 0.191079 1.90645 0
M  V30 4380 C 400.175 3.4775 0.824887 0
M  V30 4381 C 400.004 4.48596 -0.314973 0
M  V30 4382 C 398.774 4.99077 -0.790555 0
M  V30 4383 C 400.972 5.0144 -1.14291 0
M  V30 4384 N 398.954 5.83675 -1.90254 0
M  V30 4385 C 400.325 5.83236 -2.10322 0
M  V30 4386 C 402.38 4.83736 -1.17916 0
M  V30 4387 C 401.083 6.49217 -3.09692 0
M  V30 4388 C 403.109 5.50497 -2.16117 0
M  V30 4389 C 402.471 6.32084 -3.10884 0
M  V30 4390 H 398.57 0.775512 0.100522 0
M  V30 4391 H 401.154 1.91193 -0.367896 0
M  V30 4392 H 399.325 3.56994 1.53002 0
M  V30 4393 H 401.057 3.79056 1.4177 0
M  V30 4394 H 397.812 4.72119 -0.374218 0
M  V30 4395 H 398.236 6.30671 -2.46137 0
M  V30 4396 H 402.878 4.20286 -0.460352 0
M  V30 4397 H 400.596 7.11832 -3.8252 0
M  V30 4398 H 404.182 5.38752 -2.19631 0
M  V30 4399 H 403.062 6.82832 -3.8563 0
M  V30 4400 N 400.565 -0.0233959 1.57583 0
M  V30 4401 C 401.814 -0.712133 1.8871 0
M  V30 4402 C 402.127 -1.76217 0.848944 0
M  V30 4403 O 403.333 -2.50389 1.04964 0
M  V30 4404 C 401.789 -1.3177 3.3491 0
M  V30 4405 C 401.397 -0.303715 4.46969 0
M  V30 4406 C 403.141 -1.98598 3.75179 0
M  V30 4407 C 401.048 -0.917945 5.84233 0
M  V30 4408 H 399.978 -0.269735 0.704101 0
M  V30 4409 H 402.629 0.0333114 1.8347 0
M  V30 4410 H 401.011 -2.11304 3.34913 0
M  V30 4411 H 402.185 0.465325 4.58445 0
M  V30 4412 H 400.5 0.2628 4.1557 0
M  V30 4413 H 403.097 -2.45416 4.75053 0
M  V30 4414 H 403.44 -2.80659 3.07468 0
M  V30 4415 H 403.973 -1.25831 3.77374 0
M  V30 4416 H 400.712 -0.136633 6.55358 0
M  V30 4417 H 400.232 -1.65669 5.76467 0
M  V30 4418 H 401.911 -1.4236 6.31144 0
M  V30 4419 N 402.043 -1.548 -0.295768 0
M  V30 4420 C 402.991 -1.86874 -1.38495 0
M  V30 4421 C 403.985 -0.742938 -1.52239 0
M  V30 4422 O 405.191 -0.926999 -1.54294 0
M  V30 4423 H 401.566 -0.592786 -0.462719 0
M  V30 4424 H 403.537 -2.77904 -1.08682 0
M  V30 4425 C 402.286 -2.13732 -2.74252 0
M  V30 4426 H 401.609 -2.99835 -2.64459 0
M  V30 4427 H 403.049 -2.4011 -3.49461 0
M  V30 4428 C 401.508 -0.937539 -3.23592 0
M  V30 4429 O 402.038 -0.160665 -4.01379 0
M  V30 4430 N 400.244 -0.741478 -2.80981 0
M  V30 4431 H 399.791 -1.37489 -2.1784 0
M  V30 4432 H 399.749 0.0597103 -3.14343 0
M  V30 4433 N 403.521 0.559213 -1.47345 0
M  V30 4434 C 404.454 1.68201 -1.5422 0
M  V30 4435 C 405.432 1.57742 -0.394497 0
M  V30 4436 O 406.616 1.78628 -0.60201 0
M  V30 4437 C 403.743 3.0643 -1.44285 0
M  V30 4438 C 402.789 3.3534 -2.63532 0
M  V30 4439 S 403.622 3.24816 -4.25741 0
M  V30 4440 C 404.778 4.65542 -4.18355 0
M  V30 4441 H 405.011 1.62114 -2.49211 0
M  V30 4442 H 402.544 0.739871 -1.35519 0
M  V30 4443 H 404.502 3.86164 -1.3924 0
M  V30 4444 H 403.163 3.09984 -0.506816 0
M  V30 4445 H 402.356 4.36107 -2.52639 0
M  V30 4446 H 401.958 2.63221 -2.65689 0
M  V30 4447 H 404.25 5.56449 -3.86485 0
M  V30 4448 H 405.193 4.81493 -5.19202 0
M  V30 4449 H 405.601 4.43495 -3.49246 0
M  V30 4450 N 404.999 1.35443 0.805782 0
M  V30 4451 C 406.276 1.19325 1.54987 0
M  V30 4452 C 406.656 -0.227294 2.09873 0
M  V30 4453 O 406.004 -1.2309 1.92512 0
M  V30 4454 C 406.214 2.26196 2.65775 0
M  V30 4455 C 407.562 2.62043 3.34094 0
M  V30 4456 O 408.586 2.25115 2.76046 0
M  V30 4457 O 407.445 3.25542 4.38958 0
M  V30 4458 H 404.539 0.463623 0.684823 0
M  V30 4459 H 407.085 1.47127 0.845674 0
M  V30 4460 H 405.857 3.21471 2.23096 0
M  V30 4461 H 405.48 1.99667 3.43829 0
M  V30 4462 N 406.477 -1.02803 1.19454 0
M  V30 4463 C 407.44 -2.09264 0.934955 0
M  V30 4464 C 408.44 -1.60576 -0.0849015 0
M  V30 4465 O 409.63 -1.73554 0.149933 0
M  V30 4466 C 406.762 -3.38482 0.40531 0
M  V30 4467 H 407.955 -2.33726 1.87916 0
M  V30 4468 H 405.508 -1.19426 1.00832 0
M  V30 4469 H 406.243 -3.19689 -0.544899 0
M  V30 4470 H 406.028 -3.75142 1.14065 0
M  V30 4471 H 407.518 -4.16894 0.242806 0
M  V30 4472 N 407.956 -0.998596 -1.21925 0
M  V30 4473 C 408.919 -0.558679 -2.22287 0
M  V30 4474 C 409.919 0.361525 -1.56683 0
M  V30 4475 O 411.109 0.152695 -1.73529 0
M  V30 4476 C 408.241 0.18661 -3.40389 0
M  V30 4477 H 409.434 -1.4463 -2.62721 0
M  V30 4478 H 406.987 -0.786413 -1.35075 0
M  V30 4479 H 407.722 1.08996 -3.05435 0
M  V30 4480 H 407.507 -0.474188 -3.89222 0
M  V30 4481 H 408.997 0.482367 -4.14805 0
M  V30 4482 N 409.434 1.37368 -0.772513 0
M  V30 4483 C 410.845 1.8231 -0.402493 0
M  V30 4484 C 411.196 1.6436 1.07146 0
M  V30 4485 O 410.321 1.15514 1.82991 0
M  V30 4486 C 410.916 3.30979 -0.723776 0
M  V30 4487 C 409.475 3.74195 -0.406802 0
M  V30 4488 C 408.622 2.59885 -0.967218 0
M  V30 4489 H 411.573 1.25829 -0.967099 0
M  V30 4490 H 411.594 3.80499 -0.00870832 0
M  V30 4491 H 411.106 3.44011 -1.7966 0
M  V30 4492 H 409.207 3.66732 0.658673 0
M  V30 4493 H 409.32 4.7027 -0.915588 0
M  V30 4494 H 407.684 2.51674 -0.391416 0
M  V30 4495 H 408.467 2.7571 -2.04546 0
M  V30 4496 N 410.912 0.523116 1.48665 0
M  V30 4497 C 411.875 -0.232592 2.28017 0
M  V30 4498 C 412.875 -0.874021 1.34972 0
M  V30 4499 O 414.065 -0.735132 1.57929 0
M  V30 4500 C 411.197 -1.33586 3.13636 0
M  V30 4501 H 412.39 0.464008 2.96289 0
M  V30 4502 H 409.943 0.278816 1.53793 0
M  V30 4503 H 410.678 -2.06593 2.4998 0
M  V30 4504 H 410.463 -0.881125 3.82071 0
M  V30 4505 H 411.953 -1.86759 3.73511 0
M  V30 4506 N 412.39 -1.55475 0.257931 0
M  V30 4507 C 413.806 -1.59307 -0.0966563 0
M  V30 4508 C 414.006 -1.27514 -1.5602 0
M  V30 4509 O 413.062 -1.02774 -2.30637 0
M  V30 4510 C 414.375 -2.99552 0.262481 0
M  V30 4511 C 415.923 -3.1231 0.207683 0
M  V30 4512 C 416.398 -4.54793 0.541012 0
M  V30 4513 N 417.889 -4.6058 0.491921 0
M  V30 4514 C 418.624 -5.68825 0.722857 0
M  V30 4515 N 418.12 -6.85287 1.0175 0
M  V30 4516 N 419.913 -5.58296 0.652815 0
M  V30 4517 H 412.064 -1.74409 1.21224 0
M  V30 4518 H 414.327 -0.812424 0.48854 0
M  V30 4519 H 414.033 -3.27593 1.27967 0
M  V30 4520 H 413.907 -3.75019 -0.40508 0
M  V30 4521 H 416.294 -2.84044 -0.800195 0
M  V30 4522 H 416.375 -2.39095 0.909255 0
M  V30 4523 H 416.019 -4.83783 1.5465 0
M  V30 4524 H 415.949 -5.26285 -0.18216 0
M  V30 4525 H 418.44 -3.7691 0.273366 0
M  V30 4526 H 418.753 -7.63725 1.18084 0
M  V30 4527 H 417.098 -6.86945 1.05509 0
M  V30 4528 H 420.289 -4.66189 0.422592 0
M  V30 4529 H 420.462 -6.42582 0.836182 0
M  V30 4530 N 413.868 0.0150385 -1.57593 0
M  V30 4531 C 415.114 0.704043 -1.90187 0
M  V30 4532 C 415.447 1.74249 -0.857366 0
M  V30 4533 O 414.722 1.94092 0.125843 0
M  V30 4534 C 415.005 1.36087 -3.33395 0
M  V30 4535 C 414.858 0.334981 -4.48551 0
M  V30 4536 C 416.177 2.29112 -3.7576 0
M  V30 4537 H 413.296 0.254475 -0.691673 0
M  V30 4538 H 415.938 -0.0331678 -1.89971 0
M  V30 4539 H 414.088 1.98922 -3.3371 0
M  V30 4540 H 415.76 -0.292534 -4.60372 0
M  V30 4541 H 414.003 -0.344325 -4.32431 0
M  V30 4542 H 414.674 0.833316 -5.45674 0
M  V30 4543 H 417.15 1.76308 -3.76902 0
M  V30 4544 H 416.026 2.72043 -4.76743 0
M  V30 4545 H 416.287 3.16385 -3.08793 0
M  V30 4546 N 415.346 1.54954 0.287554 0
M  V30 4547 C 416.594 1.74528 1.01904 0
M  V30 4548 C 416.915 0.541349 1.87335 0
M  V30 4549 O 416.185 -0.444108 1.908 0
M  V30 4550 H 414.765 0.643576 0.379235 0
M  V30 4551 H 417.427 1.92333 0.315294 0
M  V30 4552 H 416.523 2.64015 1.6644 0
M  V30 4553 N 416.824 -0.551391 1.4764 0
M  V30 4554 C 417.754 -1.66757 1.63445 0
M  V30 4555 C 418.735 -1.63077 0.483742 0
M  V30 4556 O 419.92 -1.80607 0.71377 0
M  V30 4557 C 417.05 -3.05387 1.65396 0
M  V30 4558 C 416.004 -3.23918 2.79752 0
M  V30 4559 C 415.33 -4.63393 2.66779 0
M  V30 4560 C 416.63 -3.08735 4.21284 0
M  V30 4561 H 418.324 -1.53786 2.56886 0
M  V30 4562 H 415.87 -0.738415 1.23626 0
M  V30 4563 H 417.823 -3.83325 1.75043 0
M  V30 4564 H 416.547 -3.19332 0.685195 0
M  V30 4565 H 415.206 -2.48391 2.69625 0
M  V30 4566 H 414.854 -4.74144 1.67918 0
M  V30 4567 H 414.554 -4.7674 3.43501 0
M  V30 4568 H 416.078 -5.43458 2.78364 0
M  V30 4569 H 417.492 -3.76484 4.32357 0
M  V30 4570 H 415.889 -3.33588 4.98838 0
M  V30 4571 H 416.959 -2.0541 4.39243 0
M  V30 4572 N 418.302 -1.35869 -0.798587 0
M  V30 4573 C 419.55 -1.29332 -1.55298 0
M  V30 4574 C 419.871 0.129729 -1.94568 0
M  V30 4575 O 419.141 1.06796 -1.6423 0
M  V30 4576 H 417.721 -0.475737 -0.57592 0
M  V30 4577 H 420.383 -1.70062 -0.952093 0
M  V30 4578 H 419.479 -1.91458 -2.46476 0
M  V30 4579 N 419.78 1.02168 -1.19998 0
M  V30 4580 C 421.029 1.75091 -1.0013 0
M  V30 4581 C 421.342 1.89923 0.467835 0
M  V30 4582 O 422.548 2.59888 0.785515 0
M  V30 4583 C 421.004 3.14892 -1.74273 0
M  V30 4584 C 420.612 3.0809 -3.25245 0
M  V30 4585 C 422.356 3.9206 -1.62755 0
M  V30 4586 C 420.263 4.42867 -3.91948 0
M  V30 4587 H 419.193 0.656394 -0.37103 0
M  V30 4588 H 421.844 1.14284 -1.43567 0
M  V30 4589 H 420.226 3.7621 -1.2362 0
M  V30 4590 H 421.4 2.5611 -3.83072 0
M  V30 4591 H 419.715 2.44416 -3.3712 0
M  V30 4592 H 422.312 4.91764 -2.09934 0
M  V30 4593 H 422.655 4.12199 -0.582894 0
M  V30 4594 H 423.188 3.37359 -2.10793 0
M  V30 4595 H 419.927 4.27931 -4.96543 0
M  V30 4596 H 419.447 4.94874 -3.3891 0
M  V30 4597 H 421.126 5.11728 -3.95909 0
M  V30 4598 N 421.258 1.00505 1.21394 0
M  V30 4599 C 422.486 0.706609 1.9446 0
M  V30 4600 C 422.901 -0.73081 1.74082 0
M  V30 4601 O 422.258 -1.49446 1.04747 0
M  V30 4602 C 422.309 1.01824 3.46863 0
M  V30 4603 O 422.03 2.39919 3.66566 0
M  V30 4604 C 423.531 0.739216 4.37093 0
M  V30 4605 H 420.751 0.260394 0.618414 0
M  V30 4606 H 423.295 1.34311 1.54211 0
M  V30 4607 H 421.45 0.427343 3.85036 0
M  V30 4608 H 421.864 2.50784 4.6066 0
M  V30 4609 H 423.338 1.00744 5.42729 0
M  V30 4610 H 423.815 -0.326746 4.37983 0
M  V30 4611 H 424.421 1.31173 4.04566 0
M  V30 4612 N 422.737 -1.36956 0.779787 0
M  V30 4613 C 423.965 -2.03755 0.359398 0
M  V30 4614 C 424.38 -1.58807 -1.02106 0
M  V30 4615 O 423.737 -0.773024 -1.6532 0
M  V30 4616 C 423.788 -3.59251 0.402568 0
M  V30 4617 O 423.509 -4.02557 1.72858 0
M  V30 4618 C 425.01 -4.43291 -0.0284068 0
M  V30 4619 H 422.23 -0.654148 0.149437 0
M  V30 4620 H 424.774 -1.75128 1.05595 0
M  V30 4621 H 422.929 -3.86621 -0.245478 0
M  V30 4622 H 423.343 -4.97111 1.67275 0
M  V30 4623 H 424.817 -5.51975 0.0529466 0
M  V30 4624 H 425.294 -4.25719 -1.07982 0
M  V30 4625 H 425.9 -4.21163 0.591758 0
M  V30 4626 N 424.215 -0.530993 -1.48385 0
M  V30 4627 C 425.461 0.00274135 -2.028 0
M  V30 4628 C 425.794 1.33838 -1.40716 0
M  V30 4629 O 425.069 1.86465 -0.553277 0
M  V30 4630 C 425.352 0.123676 -3.59888 0
M  V30 4631 C 425.205 -1.2372 -4.3245 0
M  V30 4632 C 426.524 0.849967 -4.31814 0
M  V30 4633 H 423.643 -0.000477758 -0.737 0
M  V30 4634 H 426.285 -0.688217 -1.77098 0
M  V30 4635 H 424.435 0.712157 -3.81917 0
M  V30 4636 H 426.107 -1.86687 -4.21836 0
M  V30 4637 H 424.35 -1.81882 -3.93829 0
M  V30 4638 H 425.021 -1.10557 -5.40815 0
M  V30 4639 H 427.497 0.350572 -4.14621 0
M  V30 4640 H 426.373 0.903486 -5.41413 0
M  V30 4641 H 426.634 1.90047 -3.99167 0
M  V30 4642 N 425.693 1.55336 -0.266172 0
M  V30 4643 C 426.623 2.25146 0.618981 0
M  V30 4644 C 427.604 1.23845 1.16604 0
M  V30 4645 O 428.789 1.52544 1.20183 0
M  V30 4646 C 425.919 2.96572 1.80728 0
M  V30 4647 C 424.873 4.04726 1.39215 0
M  V30 4648 C 424.199 4.63678 2.66283 0
M  V30 4649 C 425.499 5.19407 0.548942 0
M  V30 4650 H 427.193 2.99377 0.0368116 0
M  V30 4651 H 424.739 1.43991 0.0162651 0
M  V30 4652 H 426.692 3.44116 2.43232 0
M  V30 4653 H 425.416 2.19861 2.41514 0
M  V30 4654 H 424.075 3.57979 0.790351 0
M  V30 4655 H 423.723 3.83646 3.25308 0
M  V30 4656 H 423.423 5.367 2.39222 0
M  V30 4657 H 424.947 5.13967 3.29651 0
M  V30 4658 H 426.361 5.63059 1.07876 0
M  V30 4659 H 424.758 5.98936 0.373593 0
M  V30 4660 H 425.828 4.8295 -0.434394 0
M  V30 4661 N 427.171 -0.0066808 1.57599 0
M  V30 4662 C 428.399 -0.704087 1.94551 0
M  V30 4663 C 428.814 -1.67677 0.867746 0
M  V30 4664 O 428.171 -1.8185 -0.153925 0
M  V30 4665 C 428.222 -1.44177 3.31505 0
M  V30 4666 O 427.943 -0.508097 4.35144 0
M  V30 4667 C 429.444 -2.23429 3.82876 0
M  V30 4668 H 426.664 -0.196523 0.641576 0
M  V30 4669 H 429.208 0.042453 2.04456 0
M  V30 4670 H 427.363 -2.13999 3.22929 0
M  V30 4671 H 427.777 -1.02782 5.14331 0
M  V30 4672 H 429.251 -2.70552 4.8115 0
M  V30 4673 H 429.728 -3.05818 3.15233 0
M  V30 4674 H 430.334 -1.58636 3.94607 0
M  V30 4675 N 428.649 -1.55105 -0.279332 0
M  V30 4676 C 429.582 -1.82467 -1.37044 0
M  V30 4677 C 430.56 -0.677261 -1.47824 0
M  V30 4678 O 431.744 -0.919578 -1.64548 0
M  V30 4679 C 428.871 -1.98066 -2.7475 0
M  V30 4680 C 427.917 -3.20594 -2.81286 0
M  V30 4681 S 428.75 -4.78116 -2.41175 0
M  V30 4682 C 429.906 -4.9668 -3.80867 0
M  V30 4683 H 430.139 -2.74728 -1.1363 0
M  V30 4684 H 427.672 -1.46794 -0.478625 0
M  V30 4685 H 429.63 -2.07739 -3.54055 0
M  V30 4686 H 428.291 -1.06704 -2.9542 0
M  V30 4687 H 427.484 -3.28376 -3.82341 0
M  V30 4688 H 427.086 -3.09479 -2.09996 0
M  V30 4689 H 429.378 -4.82033 -4.76078 0
M  V30 4690 H 430.321 -5.98741 -3.78041 0
M  V30 4691 H 430.729 -4.24698 -3.71876 0
M  V30 4692 N 430.127 0.543554 -1.4793 0
M  V30 4693 C 431.355 1.32516 -1.58894 0
M  V30 4694 C 431.77 1.87215 -0.244131 0
M  V30 4695 O 431.127 1.65709 0.764652 0
M  V30 4696 C 431.178 2.48554 -2.62494 0
M  V30 4697 O 430.899 1.96112 -3.91755 0
M  V30 4698 C 432.4 3.40572 -2.8377 0
M  V30 4699 H 429.62 0.403472 -0.536145 0
M  V30 4700 H 432.164 0.657106 -1.93655 0
M  V30 4701 H 430.319 3.1127 -2.30629 0
M  V30 4702 H 430.733 2.71967 -4.4848 0
M  V30 4703 H 432.207 4.18375 -3.60093 0
M  V30 4704 H 432.684 3.94965 -1.92092 0
M  V30 4705 H 433.29 2.8366 -3.16887 0
M  V30 4706 N 431.605 1.3629 0.791371 0
M  V30 4707 C 432.833 1.33562 1.58016 0
M  V30 4708 C 433.248 -0.0835616 1.88615 0
M  V30 4709 O 432.605 -1.0399 1.49974 0
M  V30 4710 C 432.656 2.15517 2.90232 0
M  V30 4711 O 432.377 3.51902 2.60953 0
M  V30 4712 C 433.878 2.20546 3.84544 0
M  V30 4713 H 431.098 0.458226 0.490173 0
M  V30 4714 H 433.642 1.79361 0.982345 0
M  V30 4715 H 431.797 1.73278 3.46487 0
M  V30 4716 H 432.211 3.94644 3.4548 0
M  V30 4717 H 433.685 2.82252 4.74382 0
M  V30 4718 H 434.162 1.20838 4.2225 0
M  V30 4719 H 434.768 2.63013 3.34222 0
M  V30 4720 N 433.083 -1.0153 1.20538 0
M  V30 4721 C 434.015 -2.10224 0.913155 0
M  V30 4722 C 435.028 -1.62495 -0.0995998 0
M  V30 4723 O 436.217 -1.78014 0.131582 0
M  V30 4724 C 433.317 -3.37111 0.347717 0
M  V30 4725 C 432.49 -4.13971 1.41233 0
M  V30 4726 C 431.549 -5.19158 0.857976 0
M  V30 4727 O 430.575 -5.48 1.53897 0
M  V30 4728 N 431.777 -5.7955 -0.331966 0
M  V30 4729 H 434.542 -2.35879 1.84881 0
M  V30 4730 H 432.103 -1.17931 1.10923 0
M  V30 4731 H 434.095 -4.04683 -0.0373026 0
M  V30 4732 H 432.665 -3.08696 -0.492527 0
M  V30 4733 H 431.885 -3.41351 1.97163 0
M  V30 4734 H 433.173 -4.62103 2.12928 0
M  V30 4735 H 432.571 -5.58455 -0.902478 0
M  V30 4736 H 431.128 -6.48464 -0.65861 0
M  V30 4737 N 434.561 -1.01147 -1.20859 0
M  V30 4738 C 435.786 -0.716698 -1.94623 0
M  V30 4739 C 436.211 0.715415 -1.73964 0
M  V30 4740 O 435.569 1.49157 -1.03062 0
M  V30 4741 C 435.617 -1.0513 -3.44935 0
M  V30 4742 O 434.721 -0.160131 -4.12089 0
M  V30 4743 H 434.062 -0.266404 -0.608214 0
M  V30 4744 H 436.592 -1.35346 -1.53436 0
M  V30 4745 H 436.602 -1.00086 -3.95533 0
M  V30 4746 H 435.277 -2.09475 -3.59295 0
M  V30 4747 H 433.854 -0.267657 -3.71938 0
M  V30 4748 N 436.039 1.36541 -0.78704 0
M  V30 4749 C 437.264 2.0409 -0.369053 0
M  V30 4750 C 437.689 1.58957 1.00569 0
M  V30 4751 O 437.047 0.756926 1.64743 0
M  V30 4752 C 437.095 3.57924 -0.438466 0
M  V30 4753 O 436.199 4.08642 0.555479 0
M  V30 4754 H 435.54 0.645142 -0.157122 0
M  V30 4755 H 438.07 1.74545 -1.06749 0
M  V30 4756 H 438.08 4.06887 -0.301218 0
M  V30 4757 H 436.755 3.90127 -1.44132 0
M  V30 4758 H 435.332 3.70958 0.380088 0
M  V30 4759 N 437.518 0.538854 1.48102 0
M  V30 4760 C 438.766 0.00798599 2.02098 0
M  V30 4761 C 439.087 -1.33922 1.41739 0
M  V30 4762 O 438.357 -1.86932 0.585934 0
M  V30 4763 H 436.937 -3.62179e-05 0.747 0
M  V30 4764 H 439.599 0.7047 1.81714 0
M  V30 4765 H 438.695 -0.0937672 3.11959 0
M  V30 4766 N 438.996 -1.55193 0.274407 0
M  V30 4767 C 440.221 -2.04446 -0.348824 0
M  V30 4768 C 440.646 -1.15149 -1.48735 0
M  V30 4769 O 440.004 -0.149952 -1.80679 0
M  V30 4770 C 440.052 -3.51431 -0.808009 0
M  V30 4771 O 439.156 -3.65225 -1.91531 0
M  V30 4772 H 438.497 -0.66006 -0.0722276 0
M  V30 4773 H 441.027 -2.00481 0.408498 0
M  V30 4774 H 441.037 -3.92781 -1.10395 0
M  V30 4775 H 439.712 -4.15892 0.0249865 0
M  V30 4776 H 438.289 -3.35778 -1.62196 0
M  V30 4777 N 440.474 -0.00167713 -1.576 0
M  V30 4778 C 441.89 0.354422 -1.55615 0
M  V30 4779 C 442.09 1.74679 -1.00447 0
M  V30 4780 O 441.146 2.4428 -0.639022 0
M  V30 4781 C 442.459 0.22812 -2.99833 0
M  V30 4782 C 444.007 0.302934 -3.11531 0
M  V30 4783 C 444.482 0.205737 -4.57538 0
M  V30 4784 N 445.973 0.263584 -4.62449 0
M  V30 4785 C 446.708 0.211742 -5.73009 0
M  V30 4786 N 446.204 0.110399 -6.92712 0
M  V30 4787 N 447.997 0.263729 -5.61481 0
M  V30 4788 H 440.148 -0.912498 -1.918 0
M  V30 4789 H 442.411 -0.349928 -0.881053 0
M  V30 4790 H 442.117 -0.729934 -3.44042 0
M  V30 4791 H 441.991 1.00951 -3.6344 0
M  V30 4792 H 444.378 1.25143 -2.67251 0
M  V30 4793 H 444.459 -0.508357 -2.50698 0
M  V30 4794 H 444.103 -0.739225 -5.02492 0
M  V30 4795 H 444.033 1.03554 -5.16318 0
M  V30 4796 H 446.524 0.343173 -3.76339 0
M  V30 4797 H 446.837 0.0767828 -7.72762 0
M  V30 4798 H 445.182 0.0760025 -6.94958 0
M  V30 4799 H 448.373 0.34111 -4.66855 0
M  V30 4800 H 448.546 0.219862 -6.47627 0
M  V30 4801 N 441.952 1.55251 0.271103 0
M  V30 4802 C 442.915 1.87484 1.31842 0
M  V30 4803 C 443.915 0.749545 1.42262 0
M  V30 4804 O 445.105 1.01771 1.4138 0
M  V30 4805 C 442.237 2.0818 2.69951 0
M  V30 4806 H 443.43 2.81108 1.0449 0
M  V30 4807 H 440.983 1.47771 0.509258 0
M  V30 4808 H 441.718 1.16944 3.02481 0
M  V30 4809 H 441.503 2.90114 2.63774 0
M  V30 4810 H 442.993 2.34385 3.4562 0
M  V30 4811 N 443.43 -0.535701 1.48216 0
M  V30 4812 C 444.655 -1.32149 1.59848 0
M  V30 4813 C 445.08 -1.86338 0.256842 0
M  V30 4814 O 444.438 -1.64107 -0.770632 0
M  V30 4815 C 444.486 -2.45224 2.64381 0
M  V30 4816 O 443.59 -3.48093 2.21144 0
M  V30 4817 H 442.931 -0.391634 0.536208 0
M  V30 4818 H 445.461 -0.645202 1.94161 0
M  V30 4819 H 445.471 -2.91491 2.85476 0
M  V30 4820 H 444.146 -2.05143 3.61786 0
M  V30 4821 H 442.723 -3.07984 2.10239 0
M  V30 4822 N 444.908 -1.36708 -0.784132 0
M  V30 4823 C 445.838 -1.34153 -1.91116 0
M  V30 4824 C 446.819 -0.212121 -1.68772 0
M  V30 4825 O 448.004 -0.410581 -1.8981 0
M  V30 4826 C 445.134 -1.13535 -3.28218 0
M  V30 4827 C 444.088 -2.23356 -3.65097 0
M  V30 4828 C 443.414 -1.87875 -5.00607 0
M  V30 4829 C 444.714 -3.65473 -3.73131 0
M  V30 4830 H 446.408 -2.28459 -1.93512 0
M  V30 4831 H 443.954 -1.09973 -0.929618 0
M  V30 4832 H 445.907 -1.10381 -4.06687 0
M  V30 4833 H 444.631 -0.156804 -3.26223 0
M  V30 4834 H 443.29 -2.25645 -2.88929 0
M  V30 4835 H 442.938 -0.885814 -4.95139 0
M  V30 4836 H 442.638 -2.61406 -5.26252 0
M  V30 4837 H 444.162 -1.86286 -5.81489 0
M  V30 4838 H 445.576 -3.65382 -4.41779 0
M  V30 4839 H 443.973 -4.37953 -4.10265 0
M  V30 4840 H 445.043 -3.99995 -2.74102 0
M  V30 4841 N 446.386 1.0089 -1.21074 0
M  V30 4842 C 447.797 1.56056 -1.02486 0
M  V30 4843 C 448.148 1.91728 0.416506 0
M  V30 4844 O 447.273 1.73066 1.29912 0
M  V30 4845 C 447.868 2.83563 -1.85411 0
M  V30 4846 C 446.427 3.3523 -1.71166 0
M  V30 4847 C 445.574 2.0846 -1.82865 0
M  V30 4848 H 448.525 0.831818 -1.35154 0
M  V30 4849 H 448.546 3.55286 -1.36205 0
M  V30 4850 H 448.058 2.57569 -2.9031 0
M  V30 4851 H 446.159 3.66167 -0.689361 0
M  V30 4852 H 446.272 4.06913 -2.52901 0
M  V30 4853 H 444.636 2.21275 -1.26132 0
M  V30 4854 H 445.419 1.84883 -2.89263 0
M  V30 4855 N 447.864 1.01787 1.20321 0
M  V30 4856 C 448.811 0.589197 2.23153 0
M  V30 4857 C 449.781 -0.391367 1.61423 0
M  V30 4858 O 450.966 -0.290518 1.88575 0
M  V30 4859 C 448.106 -0.0650747 3.45039 0
M  V30 4860 C 447.219 0.960207 4.21194 0
M  V30 4861 C 446.354 0.276854 5.30478 0
M  V30 4862 C 445.393 1.2888 5.98378 0
M  V30 4863 N 444.53 0.632031 6.99249 0
M  V30 4864 H 449.37 1.47071 2.59179 0
M  V30 4865 H 446.907 0.736192 1.27352 0
M  V30 4866 H 448.865 -0.461552 4.14639 0
M  V30 4867 H 447.495 -0.910233 3.09701 0
M  V30 4868 H 446.547 1.47484 3.50646 0
M  V30 4869 H 447.859 1.72977 4.67847 0
M  V30 4870 H 447.013 -0.175056 6.06447 0
M  V30 4871 H 445.752 -0.525004 4.84866 0
M  V30 4872 H 444.757 1.75109 5.21169 0
M  V30 4873 H 445.982 2.09196 6.46076 0
M  V30 4874 H 443.928 -0.149935 6.55829 0
M  V30 4875 H 443.845 1.33964 7.44036 0
M  V30 4876 H 445.113 0.203755 7.79234 0
M  V30 4877 N 449.342 -1.36122 0.79427 0
M  V30 4878 C 450.588 -1.99406 0.369452 0
M  V30 4879 C 450.921 -1.62886 -1.05743 0
M  V30 4880 O 450.196 -0.886053 -1.73145 0
M  V30 4881 C 450.479 -3.56046 0.538833 0
M  V30 4882 C 450.332 -4.02404 2.00976 0
M  V30 4883 C 451.651 -4.40079 -0.0431359 0
M  V30 4884 H 448.77 -0.724397 0.135712 0
M  V30 4885 H 451.412 -1.61461 1.00151 0
M  V30 4886 H 449.562 -3.885 0.000771004 0
M  V30 4887 H 451.234 -3.80415 2.60926 0
M  V30 4888 H 449.477 -3.53765 2.51063 0
M  V30 4889 H 450.148 -5.11344 2.07922 0
M  V30 4890 H 452.624 -4.14013 0.416228 0
M  V30 4891 H 451.5 -5.48799 0.105374 0
M  V30 4892 H 451.761 -4.27264 -1.13571 0
M  V30 4893 N 450.82 -0.546701 -1.47814 0
M  V30 4894 C 452.045 -0.021268 -2.07389 0
M  V30 4895 C 452.47 1.25822 -1.39822 0
M  V30 4896 O 451.828 1.75111 -0.46968 0
M  V30 4897 C 451.876 0.168502 -3.60206 0
M  V30 4898 O 450.98 1.23347 -3.93522 0
M  V30 4899 H 450.321 -0.0466108 -0.662362 0
M  V30 4900 H 452.851 -0.759387 -1.89985 0
M  V30 4901 H 452.861 0.385982 -4.0617 0
M  V30 4902 H 451.536 -0.766075 -4.08784 0
M  V30 4903 H 450.113 0.997319 -3.59316 0
M  V30 4904 N 452.299 1.55045 -0.282633 0
M  V30 4905 C 453.529 2.03872 0.334635 0
M  V30 4906 C 453.937 1.16018 1.49454 0
M  V30 4907 O 453.28 0.174449 1.8287 0
M  V30 4908 C 453.342 3.48791 0.870905 0
M  V30 4909 C 453.006 4.56715 -0.161338 0
M  V30 4910 C 454.003 5.10513 -0.983466 0
M  V30 4911 C 451.688 5.01417 -0.297745 0
M  V30 4912 C 453.682 6.07538 -1.92811 0
M  V30 4913 C 451.369 5.98265 -1.24586 0
M  V30 4914 C 452.367 6.51208 -2.05954 0
M  V30 4915 O 452.055 7.46162 -2.99162 0
M  V30 4916 H 451.787 0.671324 0.0793742 0
M  V30 4917 H 454.341 2.01169 -0.41473 0
M  V30 4918 H 452.571 3.48758 1.67047 0
M  V30 4919 H 454.26 3.80916 1.40207 0
M  V30 4920 H 455.026 4.76785 -0.888856 0
M  V30 4921 H 450.905 4.59849 0.325604 0
M  V30 4922 H 454.449 6.48787 -2.56363 0
M  V30 4923 H 450.346 6.31412 -1.34126 0
M  V30 4924 H 451.114 7.63903 -2.93929 0
M  V30 4925 N 453.777 0.010035 1.57597 0
M  V30 4926 C 455.023 -0.673697 1.91283 0
M  V30 4927 C 455.356 -1.72863 0.884979 0
M  V30 4928 O 454.631 -1.94268 -0.0949487 0
M  V30 4929 C 454.914 -1.30766 3.35518 0
M  V30 4930 C 454.767 -0.263578 4.49027 0
M  V30 4931 C 456.086 -2.23105 3.79358 0
M  V30 4932 H 453.205 -0.243439 0.695634 0
M  V30 4933 H 455.847 0.0633864 1.89894 0
M  V30 4934 H 453.997 -1.93588 3.36832 0
M  V30 4935 H 455.669 0.365738 4.59848 0
M  V30 4936 H 453.912 0.413077 4.31829 0
M  V30 4937 H 454.583 -0.746398 5.4693 0
M  V30 4938 H 457.059 -1.70289 3.79659 0
M  V30 4939 H 455.935 -2.64424 4.81011 0
M  V30 4940 H 456.196 -3.11433 3.13787 0
M  V30 4941 N 455.255 -1.55392 -0.262866 0
M  V30 4942 C 456.202 -1.88966 -1.32516 0
M  V30 4943 C 457.172 -0.742187 -1.48596 0
M  V30 4944 O 458.357 -0.99439 -1.62839 0
M  V30 4945 C 455.497 -2.17592 -2.67858 0
M  V30 4946 C 454.61 -3.45061 -2.59917 0
M  V30 4947 C 453.745 -3.63336 -3.87505 0
M  V30 4948 C 452.784 -4.84462 -3.74116 0
M  V30 4949 N 451.921 -4.99342 -4.93561 0
M  V30 4950 H 456.761 -2.79566 -1.03184 0
M  V30 4951 H 454.298 -1.38404 -0.498285 0
M  V30 4952 H 456.256 -2.3219 -3.46617 0
M  V30 4953 H 454.886 -1.30215 -2.95371 0
M  V30 4954 H 453.938 -3.38881 -1.72812 0
M  V30 4955 H 455.25 -4.3396 -2.45926 0
M  V30 4956 H 454.404 -3.77807 -4.74707 0
M  V30 4957 H 453.143 -2.72641 -4.04374 0
M  V30 4958 H 452.148 -4.69985 -2.85297 0
M  V30 4959 H 453.373 -5.76603 -3.58757 0
M  V30 4960 H 451.319 -4.1158 -5.10821 0
M  V30 4961 H 451.236 -5.82303 -4.82141 0
M  V30 4962 H 452.504 -5.18208 -5.82306 0
M  V30 4963 N 456.733 0.527833 -1.48498 0
M  V30 4964 C 457.696 1.61439 -1.62696 0
M  V30 4965 C 458.696 1.52824 -0.500136 0
M  V30 4966 O 459.886 1.56456 -0.765976 0
M  V30 4967 C 457.018 3.01063 -1.59918 0
M  V30 4968 H 458.211 1.50189 -2.59583 0
M  V30 4969 H 455.764 0.750055 -1.37127 0
M  V30 4970 H 456.499 3.17818 -0.645163 0
M  V30 4971 H 456.284 3.08725 -2.41726 0
M  V30 4972 H 457.774 3.80057 -1.73051 0
M  V30 4973 N 458.211 1.37122 0.776871 0
M  V30 4974 C 459.46 1.31373 1.53049 0
M  V30 4975 C 459.773 -0.101016 1.95339 0
M  V30 4976 O 460.979 -0.280953 2.70042 0
M  V30 4977 C 459.435 2.30567 2.76346 0
M  V30 4978 C 459.043 3.77543 2.41175 0
M  V30 4979 C 460.787 2.33818 3.54301 0
M  V30 4980 C 458.694 4.68481 3.60943 0
M  V30 4981 H 457.624 0.488234 0.574581 0
M  V30 4982 H 460.275 1.62554 0.851372 0
M  V30 4983 H 458.657 1.92396 3.46121 0
M  V30 4984 H 459.831 4.24521 1.79216 0
M  V30 4985 H 458.146 3.77187 1.76405 0
M  V30 4986 H 460.743 2.98965 4.4331 0
M  V30 4987 H 461.086 1.3503 3.93793 0
M  V30 4988 H 461.619 2.7067 2.91518 0
M  V30 4989 H 458.358 5.68378 3.26537 0
M  V30 4990 H 457.878 4.2621 4.22025 0
M  V30 4991 H 459.557 4.85366 4.27819 0
M  V30 4992 N 459.689 -1.00246 1.21608 0
M  V30 4993 C 460.966 -1.71336 0.943568 0
M  V30 4994 C 461.346 -2.03972 -0.543943 0
M  V30 4995 O 460.694 -1.71545 -1.50946 0
M  V30 4996 C 460.904 -2.97094 1.83128 0
M  V30 4997 C 462.252 -3.70071 2.08165 0
M  V30 4998 O 463.276 -3.07081 1.80498 0
M  V30 4999 O 462.135 -4.83376 2.54971 0
M  V30 5000 H 459.229 -0.747386 0.354039 0
M  V30 5001 H 461.775 -1.05967 1.32549 0
M  V30 5002 H 460.547 -2.69407 2.83788 0
M  V30 5003 H 460.17 -3.70204 1.45034 0
M  V30 5004 N 461.167 -1.02423 -1.1978 0
M  V30 5005 C 462.416 -0.713265 -1.88667 0
M  V30 5006 C 462.729 0.7609 -1.80193 0
M  V30 5007 O 463.935 1.18473 -2.44288 0
M  V30 5008 C 462.391 -1.22545 -3.38394 0
M  V30 5009 C 461.999 -2.72706 -3.55437 0
M  V30 5010 C 463.743 -0.990257 -4.12788 0
M  V30 5011 C 461.65 -3.17367 -4.99031 0
M  V30 5012 H 460.58 -0.263105 -0.706606 0
M  V30 5013 H 463.231 -1.23792 -1.35454 0
M  V30 5014 H 461.613 -0.628732 -3.90977 0
M  V30 5015 H 462.787 -3.37993 -3.13205 0
M  V30 5016 H 461.102 -2.94453 -2.94425 0
M  V30 5017 H 463.699 -1.29926 -5.18675 0
M  V30 5018 H 464.042 0.0730761 -4.16236 0
M  V30 5019 H 464.575 -1.55074 -3.66329 0
M  V30 5020 H 461.314 -4.23009 -5.00743 0
M  V30 5021 H 460.834 -2.56805 -5.42044 0
M  V30 5022 H 462.513 -3.10441 -5.67658 0
M  V30 5023 N 462.645 1.35699 -0.801477 0
M  V30 5024 C 463.891 1.99643 -0.389135 0
M  V30 5025 C 464.246 1.62447 1.03095 0
M  V30 5026 O 463.539 0.875064 1.7045 0
M  V30 5027 C 463.733 3.53828 -0.504041 0
M  V30 5028 C 463.562 4.06 -1.93375 0
M  V30 5029 C 462.332 4.35592 -2.561 0
M  V30 5030 C 464.53 4.24905 -2.89759 0
M  V30 5031 N 462.512 4.73663 -3.90534 0
M  V30 5032 C 463.883 4.65914 -4.09052 0
M  V30 5033 C 465.938 4.07101 -2.86658 0
M  V30 5034 C 464.641 4.90984 -5.25669 0
M  V30 5035 C 466.667 4.33324 -4.02472 0
M  V30 5036 C 466.029 4.74601 -5.20512 0
M  V30 5037 H 462.128 0.758552 -0.19006 0
M  V30 5038 H 464.712 1.64493 -1.04164 0
M  V30 5039 H 462.883 3.88219 0.118437 0
M  V30 5040 H 464.615 4.04645 -0.0667794 0
M  V30 5041 H 461.37 4.25728 -2.07492 0
M  V30 5042 H 461.794 4.96965 -4.59734 0
M  V30 5043 H 466.436 3.74335 -1.96552 0
M  V30 5044 H 464.154 5.22626 -6.1635 0
M  V30 5045 H 467.74 4.21107 -4.01447 0
M  V30 5046 H 466.62 4.94497 -6.08639 0
M  V30 5047 N 464.123 0.554532 1.47522 0
M  V30 5048 C 465.056 -0.242442 2.26908 0
M  V30 5049 C 466.034 -0.922722 1.33883 0
M  V30 5050 O 467.218 -0.942244 1.63261 0
M  V30 5051 C 464.345 -1.34525 3.10839 0
M  V30 5052 C 463.391 -0.773805 4.19422 0
M  V30 5053 S 464.224 0.377525 5.34168 0
M  V30 5054 C 465.38 -0.727164 6.21662 0
M  V30 5055 H 465.613 0.431218 2.94156 0
M  V30 5056 H 463.146 0.3408 1.50592 0
M  V30 5057 H 465.104 -1.97683 3.59766 0
M  V30 5058 H 463.765 -1.99073 2.42958 0
M  V30 5059 H 462.958 -1.60187 4.77866 0
M  V30 5060 H 462.56 -0.218448 3.73361 0
M  V30 5061 H 464.852 -1.61992 6.57849 0
M  V30 5062 H 465.795 -0.180135 7.07871 0
M  V30 5063 H 466.203 -1.01863 5.55233 0
M  V30 5064 N 465.601 -1.54893 0.290851 0
M  V30 5065 C 466.564 -2.21824 -0.576784 0
M  V30 5066 C 467.564 -1.20104 -1.06919 0
M  V30 5067 O 468.754 -1.44906 -0.966843 0
M  V30 5068 C 465.886 -2.89662 -1.79747 0
M  V30 5069 H 467.079 -2.99899 0.00784051 0
M  V30 5070 H 464.632 -1.56245 0.0415934 0
M  V30 5071 H 465.367 -2.15639 -2.42219 0
M  V30 5072 H 465.152 -3.64219 -1.45214 0
M  V30 5073 H 466.642 -3.4075 -2.4141 0
M  V30 5074 N 467.08 -0.0183926 -1.57589 0
M  V30 5075 C 468.326 0.663543 -1.91638 0
M  V30 5076 C 468.659 1.72392 -0.894134 0
M  V30 5077 O 467.934 1.94316 0.0846449 0
M  V30 5078 C 468.217 1.28984 -3.36207 0
M  V30 5079 C 468.07 0.239761 -4.49161 0
M  V30 5080 C 469.389 2.2109 -3.80536 0
M  V30 5081 H 466.508 0.239746 -0.696915 0
M  V30 5082 H 469.15 -0.073456 -1.89858 0
M  V30 5083 H 467.3 1.91799 -3.37854 0
M  V30 5084 H 468.972 -0.390119 -4.59647 0
M  V30 5085 H 467.215 -0.435972 -4.31604 0
M  V30 5086 H 467.886 0.717383 -5.47319 0
M  V30 5087 H 470.362 1.68273 -3.80557 0
M  V30 5088 H 469.238 2.61869 -4.82406 0
M  V30 5089 H 469.499 3.09764 -3.15434 0
M  V30 5090 N 468.558 1.5553 0.254621 0
M  V30 5091 C 469.798 1.7876 0.991179 0
M  V30 5092 C 470.162 0.586669 1.82817 0
M  V30 5093 O 471.363 0.697585 2.5959 0
M  V30 5094 C 469.634 3.06679 1.83529 0
M  V30 5095 S 471.193 3.511 2.632 0
M  V30 5096 H 468.011 0.627916 0.333531 0
M  V30 5097 H 470.613 1.93766 0.259778 0
M  V30 5098 H 469.317 3.92158 1.20996 0
M  V30 5099 H 468.848 2.94388 2.60958 0
M  V30 5100 H 470.863 3.11823 3.8598 0
M  V30 5101 N 470.036 -0.519951 1.48776 0
M  V30 5102 C 470.966 -1.63253 1.66945 0
M  V30 5103 C 471.947 -1.62014 0.518224 0
M  V30 5104 O 473.132 -1.79053 0.751919 0
M  V30 5105 C 470.262 -3.0181 1.71836 0
M  V30 5106 C 469.216 -3.17911 2.8656 0
M  V30 5107 C 468.542 -4.5763 2.76548 0
M  V30 5108 C 469.842 -2.99729 4.27738 0
M  V30 5109 H 471.536 -1.48302 2.6009 0
M  V30 5110 H 469.082 -0.712026 1.25165 0
M  V30 5111 H 471.035 -3.79525 1.83135 0
M  V30 5112 H 469.759 -3.17806 0.752775 0
M  V30 5113 H 468.418 -2.42616 2.74833 0
M  V30 5114 H 468.066 -4.70476 1.77937 0
M  V30 5115 H 467.766 -4.69346 3.53536 0
M  V30 5116 H 469.29 -5.37431 2.89828 0
M  V30 5117 H 470.704 -3.67228 4.40246 0
M  V30 5118 H 469.101 -3.22932 5.05801 0
M  V30 5119 H 470.171 -1.96047 4.43502 0
M  V30 5120 N 471.514 -1.37532 -0.769588 0
M  V30 5121 C 472.444 -1.36172 -1.89682 0
M  V30 5122 C 473.425 -0.23001 -1.68538 0
M  V30 5123 O 474.61 -0.43069 -1.89364 0
M  V30 5124 C 471.74 -1.1701 -3.26995 0
M  V30 5125 C 470.694 -2.27216 -3.62708 0
M  V30 5126 C 470.02 -1.93174 -4.98586 0
M  V30 5127 C 471.32 -3.6941 -3.69234 0
M  V30 5128 H 473.014 -2.30499 -1.91078 0
M  V30 5129 H 470.56 -1.10953 -0.917902 0
M  V30 5130 H 472.513 -1.14688 -4.05493 0
M  V30 5131 H 471.237 -0.191395 -3.26039 0
M  V30 5132 H 469.896 -2.28697 -2.86519 0
M  V30 5133 H 469.544 -0.938281 -4.94171 0
M  V30 5134 H 469.244 -2.66973 -5.23449 0
M  V30 5135 H 470.768 -1.92443 -5.79481 0
M  V30 5136 H 472.182 -3.70047 -4.37879 0
M  V30 5137 H 470.579 -4.4228 -4.05597 0
M  V30 5138 H 471.649 -4.0288 -2.69844 0
M  V30 5139 N 472.992 0.995999 -1.22138 0
M  V30 5140 C 474.239 1.7351 -1.04406 0
M  V30 5141 C 474.567 1.89884 0.421244 0
M  V30 5142 O 473.822 1.43683 1.32867 0
M  V30 5143 C 474.121 3.14553 -1.6968 0
M  V30 5144 C 473.787 3.18102 -3.19565 0
M  V30 5145 C 472.449 3.18778 -3.60464 0
M  V30 5146 C 474.801 3.14636 -4.15516 0
M  V30 5147 C 472.129 3.13684 -4.95801 0
M  V30 5148 C 474.481 3.11084 -5.50826 0
M  V30 5149 C 473.145 3.10074 -5.91109 0
M  V30 5150 H 472.415 0.634916 -0.38205 0
M  V30 5151 H 475.062 1.1667 -1.51857 0
M  V30 5152 H 473.367 3.74682 -1.14546 0
M  V30 5153 H 475.064 3.70477 -1.53454 0
M  V30 5154 H 471.654 3.18324 -2.86998 0
M  V30 5155 H 475.838 3.13266 -3.84939 0
M  V30 5156 H 471.094 3.11245 -5.26247 0
M  V30 5157 H 475.268 3.07357 -6.24904 0
M  V30 5158 H 472.895 3.05882 -6.95946 0
M  V30 5159 N 474.47 1.03057 1.19235 0
M  V30 5160 C 475.716 0.729098 1.89241 0
M  V30 5161 C 476.049 -0.740573 1.79525 0
M  V30 5162 O 475.324 -1.53946 1.18874 0
M  V30 5163 C 475.607 1.18304 3.40112 0
M  V30 5164 C 475.46 2.71406 3.5869 0
M  V30 5165 C 476.779 0.765161 4.33397 0
M  V30 5166 H 473.898 0.266338 0.687192 0
M  V30 5167 H 476.54 1.28079 1.40341 0
M  V30 5168 H 474.69 0.713672 3.81889 0
M  V30 5169 H 476.362 3.26303 3.26074 0
M  V30 5170 H 474.605 3.11717 3.01687 0
M  V30 5171 H 475.276 2.98225 4.64506 0
M  V30 5172 H 477.752 1.16889 3.99345 0
M  V30 5173 H 476.628 1.11065 5.37546 0
M  V30 5174 H 476.889 -0.332372 4.40849 0
M  V30 5175 N 475.948 -1.35272 0.808662 0
M  V30 5176 C 477.195 -1.98709 0.390003 0
M  V30 5177 C 477.523 -1.64148 -1.04335 0
M  V30 5178 O 476.778 -0.897797 -1.73891 0
M  V30 5179 C 477.077 -3.53556 0.522798 0
M  V30 5180 C 476.743 -4.0799 1.91977 0
M  V30 5181 C 475.405 -4.22568 2.30195 0
M  V30 5182 C 477.757 -4.37442 2.83361 0
M  V30 5183 C 475.085 -4.63918 3.59162 0
M  V30 5184 C 477.437 -4.80232 4.11776 0
M  V30 5185 C 476.101 -4.93016 4.49991 0
M  V30 5186 H 475.371 -0.727127 0.142712 0
M  V30 5187 H 478.018 -1.6145 1.02985 0
M  V30 5188 H 476.323 -3.91287 -0.200494 0
M  V30 5189 H 478.02 -4.00598 0.179608 0
M  V30 5190 H 474.61 -3.97096 1.61284 0
M  V30 5191 H 478.794 -4.25731 2.55083 0
M  V30 5192 H 474.05 -4.72005 3.88615 0
M  V30 5193 H 478.224 -5.01982 4.82687 0
M  V30 5194 H 475.851 -5.24814 5.49976 0
M  V30 5195 N 477.426 -0.562348 -1.47226 0
M  V30 5196 C 478.651 -0.0432632 -2.07355 0
M  V30 5197 C 479.076 1.24332 -1.41149 0
M  V30 5198 O 478.434 1.74603 -0.488226 0
M  V30 5199 C 478.482 0.130288 -3.60365 0
M  V30 5200 O 477.586 1.19166 -3.94808 0
M  V30 5201 H 476.927 -0.0536334 -0.66183 0
M  V30 5202 H 479.457 -0.779495 -1.89169 0
M  V30 5203 H 479.467 0.342881 -4.06557 0
M  V30 5204 H 478.142 -0.809389 -4.07948 0
M  V30 5205 H 476.719 0.959153 -3.60354 0
M  V30 5206 N 478.904 1.54736 -0.299062 0
M  V30 5207 C 479.867 2.22127 0.565012 0
M  V30 5208 C 480.867 1.20669 1.06281 0
M  V30 5209 O 482.057 1.45417 0.959145 0
M  V30 5210 C 479.189 2.90611 1.78208 0
M  V30 5211 H 480.382 2.99891 -0.0237448 0
M  V30 5212 H 477.935 1.5622 -0.0498788 0
M  V30 5213 H 478.67 2.16921 2.41072 0
M  V30 5214 H 478.455 3.64984 1.43281 0
M  V30 5215 H 479.945 3.42026 2.396 0
M  V30 5216 N 480.382 0.0267497 1.57577 0
M  V30 5217 C 481.312 -0.954308 2.13108 0
M  V30 5218 C 482.293 -1.34088 1.04663 0
M  V30 5219 O 483.478 -1.41992 1.32484 0
M  V30 5220 C 480.608 -2.23744 2.65624 0
M  V30 5221 C 479.562 -1.99168 3.78835 0
M  V30 5222 C 478.888 -3.33726 4.17769 0
M  V30 5223 C 480.188 -1.33277 5.0501 0
M  V30 5224 H 481.882 -0.491848 2.95332 0
M  V30 5225 H 479.428 -0.23514 1.42067 0
M  V30 5226 H 481.381 -2.92754 3.03106 0
M  V30 5227 H 480.105 -2.72151 1.80558 0
M  V30 5228 H 478.764 -1.32577 3.41788 0
M  V30 5229 H 478.412 -3.79888 3.29688 0
M  V30 5230 H 478.112 -3.18089 4.94058 0
M  V30 5231 H 479.636 -4.04008 4.57832 0
M  V30 5232 H 481.05 -1.92283 5.40093 0
M  V30 5233 H 479.447 -1.28045 5.8628 0
M  V30 5234 H 480.517 -0.305411 4.83937 0
M  V30 5235 N 481.861 -1.55662 -0.24637 0
M  V30 5236 C 482.791 -1.93377 -1.30873 0
M  V30 5237 C 483.772 -0.798773 -1.50179 0
M  V30 5238 O 484.957 -1.0591 -1.62778 0
M  V30 5239 C 482.087 -2.22893 -2.66338 0
M  V30 5240 C 481.041 -3.38649 -2.61727 0
M  V30 5241 C 480.367 -3.53708 -4.00992 0
M  V30 5242 C 481.667 -4.74323 -2.18666 0
M  V30 5243 H 483.361 -2.82363 -0.995552 0
M  V30 5244 H 480.907 -1.35854 -0.477464 0
M  V30 5245 H 482.86 -2.47866 -3.40794 0
M  V30 5246 H 481.584 -1.30733 -2.99293 0
M  V30 5247 H 480.243 -3.13685 -1.89729 0
M  V30 5248 H 479.891 -2.58967 -4.31214 0
M  V30 5249 H 479.591 -4.31551 -3.98795 0
M  V30 5250 H 481.115 -3.81003 -4.77147 0
M  V30 5251 H 482.529 -4.98665 -2.82854 0
M  V30 5252 H 480.926 -5.55273 -2.27579 0
M  V30 5253 H 481.996 -4.71349 -1.13834 0
M  V30 5254 N 483.339 0.512053 -1.4905 0
M  V30 5255 C 484.249 1.64139 -1.67617 0
M  V30 5256 C 485.265 1.64786 -0.558701 0
M  V30 5257 O 486.441 1.8341 -0.832034 0
M  V30 5258 C 483.506 3.00548 -1.72835 0
M  V30 5259 C 482.567 3.10615 -2.96339 0
M  V30 5260 C 481.8 4.40517 -3.01298 0
M  V30 5261 O 482.023 5.28671 -2.14157 0
M  V30 5262 O 480.957 4.55325 -3.93653 0
M  V30 5263 H 484.783 1.51407 -2.63267 0
M  V30 5264 H 482.368 0.687131 -1.32661 0
M  V30 5265 H 484.25 3.81641 -1.78683 0
M  V30 5266 H 482.925 3.13566 -0.803616 0
M  V30 5267 H 481.832 2.2875 -2.96014 0
M  V30 5268 H 483.165 3.0252 -3.88256 0
M  V30 5269 N 484.817 1.37938 0.762283 0
M  V30 5270 C 486.047 1.36685 1.54922 0
M  V30 5271 C 486.455 -0.0474099 1.89141 0
M  V30 5272 O 485.798 -1.02213 1.52638 0
M  V30 5273 C 485.86 2.14963 2.88152 0
M  V30 5274 C 485.524 3.6385 2.76518 0
M  V30 5275 C 486.521 4.57531 2.46904 0
M  V30 5276 C 484.206 4.07095 2.94243 0
M  V30 5277 C 486.2 5.92436 2.35156 0
M  V30 5278 C 483.887 5.42083 2.82116 0
M  V30 5279 C 484.885 6.34567 2.52614 0
M  V30 5280 O 484.573 7.67073 2.40529 0
M  V30 5281 H 484.305 0.469586 0.486276 0
M  V30 5282 H 486.859 1.82012 0.951876 0
M  V30 5283 H 485.089 1.6434 3.50042 0
M  V30 5284 H 486.778 2.06224 3.49609 0
M  V30 5285 H 487.544 4.25428 2.32886 0
M  V30 5286 H 483.423 3.35462 3.16206 0
M  V30 5287 H 486.967 6.64591 2.12049 0
M  V30 5288 H 482.864 5.73785 2.95704 0
M  V30 5289 H 483.632 7.77499 2.55807 0
M  V30 5290 N 486.295 -0.989507 1.22664 0
M  V30 5291 C 487.258 -2.06183 1.00106 0
M  V30 5292 C 488.258 -1.60765 -0.0337726 0
M  V30 5293 O 489.448 -1.72989 0.205072 0
M  V30 5294 C 486.58 -3.37021 0.51279 0
M  V30 5295 H 487.773 -2.27629 1.95256 0
M  V30 5296 H 485.326 -1.16158 1.0458 0
M  V30 5297 H 486.061 -3.21261 -0.442917 0
M  V30 5298 H 485.846 -3.71323 1.25942 0
M  V30 5299 H 487.336 -4.1591 0.375315 0
M  V30 5300 N 487.773 -1.03688 -1.18687 0
M  V30 5301 C 488.736 -0.629115 -2.20397 0
M  V30 5302 C 489.736 0.311495 -1.57754 0
M  V30 5303 O 490.926 0.0974107 -1.73927 0
M  V30 5304 C 488.058 0.0782231 -3.4081 0
M  V30 5305 H 489.251 -1.52915 -2.57987 0
M  V30 5306 H 486.804 -0.828988 -1.32505 0
M  V30 5307 H 487.539 0.992233 -3.08748 0
M  V30 5308 H 487.324 -0.597776 -3.87517 0
M  V30 5309 H 488.814 0.350156 -4.16129 0
M  V30 5310 N 489.251 1.34841 -0.815825 0
M  V30 5311 C 490.497 1.98793 -0.401129 0
M  V30 5312 C 490.83 1.64548 1.03139 0
M  V30 5313 O 490.105 0.913487 1.71714 0
M  V30 5314 C 490.388 3.55143 -0.595409 0
M  V30 5315 C 490.241 3.99155 -2.07352 0
M  V30 5316 C 491.56 4.40092 -0.0268823 0
M  V30 5317 H 488.679 0.722146 -0.14722 0
M  V30 5318 H 491.321 1.59847 -1.02707 0
M  V30 5319 H 489.471 3.8845 -0.0625779 0
M  V30 5320 H 491.143 3.76216 -2.66945 0
M  V30 5321 H 489.386 3.49726 -2.56659 0
M  V30 5322 H 490.057 5.07971 -2.1603 0
M  V30 5323 H 492.533 4.13298 -0.482042 0
M  V30 5324 H 491.409 5.48562 -0.19267 0
M  V30 5325 H 491.67 4.29016 1.06759 0
M  V30 5326 N 490.729 0.570148 1.46925 0
M  V30 5327 C 491.677 -0.183181 2.31878 0
M  V30 5328 C 492.671 -0.896721 1.43719 0
M  V30 5329 O 493.877 -0.816536 1.60414 0
M  V30 5330 H 490.252 -0.077944 0.74795 0
M  V30 5331 H 492.223 0.552312 2.93244 0
M  V30 5332 C 490.972 -1.19172 3.2664 0
M  V30 5333 H 490.295 -0.652088 3.94446 0
M  V30 5334 H 491.735 -1.68946 3.88887 0
M  V30 5335 C 490.194 -2.24627 2.51086 0
M  V30 5336 O 490.724 -3.31773 2.26472 0
M  V30 5337 N 488.93 -1.98898 2.11867 0
M  V30 5338 H 488.477 -1.11777 2.32086 0
M  V30 5339 H 488.435 -2.6967 1.61634 0
M  V30 5340 N 492.207 -1.54576 0.307264 0
M  V30 5341 C 493.454 -2.00263 -0.300167 0
M  V30 5342 C 493.782 -1.19561 -1.53413 0
M  V30 5343 O 493.037 -0.261487 -1.93945 0
M  V30 5344 C 493.336 -3.50572 -0.695253 0
M  V30 5345 C 493.002 -4.48771 0.437679 0
M  V30 5346 C 491.664 -4.7534 0.748681 0
M  V30 5347 C 494.016 -5.0721 1.19949 0
M  V30 5348 C 491.344 -5.5761 1.8245 0
M  V30 5349 C 493.696 -5.90651 2.26527 0
M  V30 5350 C 492.36 -6.15528 2.58227 0
M  V30 5351 H 491.63 -0.732814 -0.109839 0
M  V30 5352 H 494.277 -1.86664 0.427661 0
M  V30 5353 H 492.582 -3.61814 -1.50326 0
M  V30 5354 H 494.279 -3.83352 -1.17653 0
M  V30 5355 H 490.869 -4.282 0.185187 0
M  V30 5356 H 495.053 -4.86679 0.972474 0
M  V30 5357 H 490.309 -5.75121 2.07476 0
M  V30 5358 H 494.483 -6.34957 2.86011 0
M  V30 5359 H 492.11 -6.79066 3.4172 0
M  V30 5360 N 493.685 -0.035106 -1.57561 0
M  V30 5361 C 494.931 0.64318 -1.92331 0
M  V30 5362 C 495.264 1.71434 -0.912368 0
M  V30 5363 O 494.539 1.94395 0.0640303 0
M  V30 5364 C 494.822 1.25411 -3.37556 0
M  V30 5365 C 494.675 0.192109 -4.4939 0
M  V30 5366 C 495.994 2.17041 -3.82859 0
M  V30 5367 H 493.113 0.232341 -0.699419 0
M  V30 5368 H 495.755 -0.0935889 -1.89769 0
M  V30 5369 H 493.905 1.88205 -3.39869 0
M  V30 5370 H 495.577 -0.438849 -4.59208 0
M  V30 5371 H 493.82 -0.481725 -4.31117 0
M  V30 5372 H 494.491 0.659292 -5.48049 0
M  V30 5373 H 496.967 1.64228 -3.8232 0
M  V30 5374 H 495.843 2.56738 -4.85157 0
M  V30 5375 H 496.104 3.06401 -3.18702 0
M  V30 5376 N 495.163 1.55791 0.238111 0
M  V30 5377 C 496.388 1.8244 0.986432 0
M  V30 5378 C 496.813 0.613314 1.7782 0
M  V30 5379 O 496.171 -0.437767 1.75935 0
M  V30 5380 C 496.219 3.06917 1.893 0
M  V30 5381 O 495.323 2.84449 2.98601 0
M  V30 5382 H 494.664 0.601975 0.280218 0
M  V30 5383 H 497.194 2.02987 0.256437 0
M  V30 5384 H 497.204 3.36583 2.30598 0
M  V30 5385 H 495.879 3.947 1.31091 0
M  V30 5386 H 494.456 2.65972 2.61368 0
M  V30 5387 N 496.642 -0.504142 1.49319 0
M  V30 5388 C 498.058 -0.835039 1.36012 0
M  V30 5389 C 498.258 -1.97674 0.390808 0
M  V30 5390 O 497.314 -2.51867 -0.178655 0
M  V30 5391 C 498.627 -1.17821 2.76656 0
M  V30 5392 C 500.175 -1.2866 2.85334 0
M  V30 5393 C 500.65 -1.66307 4.26739 0
M  V30 5394 N 502.141 -1.73362 4.29534 0
M  V30 5395 C 502.876 -2.0393 5.35911 0
M  V30 5396 N 502.372 -2.32744 6.52535 0
M  V30 5397 N 504.165 -2.05155 5.23324 0
M  V30 5398 H 496.316 0.248764 2.10938 0
M  V30 5399 H 498.579 0.0486962 0.946748 0
M  V30 5400 H 498.285 -0.412682 3.4927 0
M  V30 5401 H 498.159 -2.12239 3.11825 0
M  V30 5402 H 500.546 -2.04285 2.1296 0
M  V30 5403 H 500.627 -0.323004 2.53752 0
M  V30 5404 H 500.271 -0.91234 4.99639 0
M  V30 5405 H 500.201 -2.63761 4.55782 0
M  V30 5406 H 502.692 -1.53268 3.45424 0
M  V30 5407 H 503.005 -2.55248 7.2943 0
M  V30 5408 H 501.35 -2.30207 6.55767 0
M  V30 5409 H 504.541 -1.82119 4.3122 0
M  V30 5410 H 504.714 -2.28644 6.06322 0
M  V30 5411 N 498.12 -1.38341 -0.754957 0
M  V30 5412 C 499.052 -1.31347 -1.87831 0
M  V30 5413 C 500.065 -0.225955 -1.61224 0
M  V30 5414 O 501.254 -0.48341 -1.7183 0
M  V30 5415 C 498.354 -1.01201 -3.23437 0
M  V30 5416 C 497.527 -2.20834 -3.77559 0
M  V30 5417 C 496.586 -1.87454 -4.91678 0
M  V30 5418 O 495.612 -2.59934 -5.06382 0
M  V30 5419 N 496.814 -0.828682 -5.74555 0
M  V30 5420 H 499.579 -2.28147 -1.94342 0
M  V30 5421 H 497.14 -1.32184 -0.934828 0
M  V30 5422 H 499.132 -0.769249 -3.97322 0
M  V30 5423 H 497.702 -0.132011 -3.12321 0
M  V30 5424 H 496.922 -2.61184 -2.95256 0
M  V30 5425 H 498.21 -3.00678 -4.10451 0
M  V30 5426 H 497.608 -0.227591 -5.65242 0
M  V30 5427 H 496.165 -0.645802 -6.48593 0
M  V30 5428 N 499.598 0.982988 -1.23187 0
M  V30 5429 C 500.548 2.05962 -0.977942 0
M  V30 5430 C 501.532 1.60725 0.0751148 0
M  V30 5431 O 502.724 1.76471 -0.136683 0
M  V30 5432 C 499.853 3.38564 -0.568276 0
M  V30 5433 C 498.939 3.90407 -1.6566 0
M  V30 5434 N 499.33 4.15359 -2.88635 0
M  V30 5435 C 497.628 4.18915 -1.53058 0
M  V30 5436 C 498.329 4.57642 -3.5908 0
M  V30 5437 N 497.305 4.6192 -2.86584 0
M  V30 5438 H 501.107 2.23208 -1.91195 0
M  V30 5439 H 498.621 1.16555 -1.13087 0
M  V30 5440 H 500.618 4.15276 -0.36764 0
M  V30 5441 H 499.278 3.22712 0.358713 0
M  V30 5442 H 500.289 4.03258 -3.24966 0
M  V30 5443 H 496.966 4.12081 -0.670506 0
M  V30 5444 H 498.356 4.85488 -4.6449 0
M  V30 5445 N 501.076 1.04316 1.18135 0
M  V30 5446 C 502.023 0.636398 2.21853 0
M  V30 5447 C 502.993 -0.357039 1.62217 0
M  V30 5448 O 504.178 -0.250453 1.89149 0
M  V30 5449 C 501.318 0.00812779 3.45099 0
M  V30 5450 C 500.431 1.04933 4.19062 0
M  V30 5451 C 499.566 0.389313 5.29771 0
M  V30 5452 C 498.605 1.41544 5.9551 0
M  V30 5453 N 497.742 0.78021 6.97751 0
M  V30 5454 H 502.582 1.52536 2.56002 0
M  V30 5455 H 500.119 0.76304 1.25762 0
M  V30 5456 H 502.077 -0.373497 4.15525 0
M  V30 5457 H 500.707 -0.844336 3.11562 0
M  V30 5458 H 499.759 1.54888 3.47439 0
M  V30 5459 H 501.071 1.82862 4.64072 0
M  V30 5460 H 500.225 -0.0463805 6.06682 0
M  V30 5461 H 498.964 -0.422038 4.8587 0
M  V30 5462 H 497.969 1.86124 5.17337 0
M  V30 5463 H 499.194 2.22854 6.41493 0
M  V30 5464 H 497.14 -0.0107899 6.55999 0
M  V30 5465 H 497.057 1.49716 7.41027 0
M  V30 5466 H 498.325 0.368996 7.78626 0
M  V30 5467 N 502.554 -1.34406 0.822964 0
M  V30 5468 C 503.464 -2.33298 0.246838 0
M  V30 5469 C 504.48 -1.62625 -0.618797 0
M  V30 5470 O 505.656 -1.94391 -0.526685 0
M  V30 5471 C 502.721 -3.41785 -0.581731 0
M  V30 5472 C 501.782 -4.28206 0.306309 0
M  V30 5473 C 501.015 -5.31512 -0.48281 0
M  V30 5474 O 501.238 -5.43973 -1.71607 0
M  V30 5475 O 500.172 -6.01749 0.134884 0
M  V30 5476 H 503.998 -2.84401 1.06534 0
M  V30 5477 H 501.583 -1.37466 0.585108 0
M  V30 5478 H 503.465 -4.08028 -1.05313 0
M  V30 5479 H 502.14 -2.92925 -1.37756 0
M  V30 5480 H 501.047 -3.64885 0.825199 0
M  V30 5481 H 502.38 -4.80507 1.06649 0
M  V30 5482 N 504.032 -0.577932 -1.46621 0
M  V30 5483 C 504.962 0.145917 -2.33044 0
M  V30 5484 C 505.943 0.888412 -1.45056 0
M  V30 5485 O 507.128 0.864812 -1.73881 0
M  V30 5486 C 504.258 1.16322 -3.27241 0
M  V30 5487 C 503.212 0.535868 -4.24632 0
M  V30 5488 C 502.538 1.65929 -5.08303 0
M  V30 5489 C 503.838 -0.523861 -5.19666 0
M  V30 5490 H 505.532 -0.575636 -2.93814 0
M  V30 5491 H 503.078 -0.278272 -1.41286 0
M  V30 5492 H 505.031 1.67793 -3.86553 0
M  V30 5493 H 503.755 1.91498 -2.64567 0
M  V30 5494 H 502.414 0.0422759 -3.66576 0
M  V30 5495 H 502.062 2.40061 -4.42018 0
M  V30 5496 H 501.762 1.2452 -5.74255 0
M  V30 5497 H 503.286 2.17686 -5.70478 0
M  V30 5498 H 504.7 -0.0944059 -5.73222 0
M  V30 5499 H 503.097 -0.858 -5.93935 0
M  V30 5500 H 504.167 -1.41197 -4.63887 0
M  V30 5501 N 505.51 1.54411 -0.315457 0
M  V30 5502 C 506.44 2.27002 0.547039 0
M  V30 5503 C 507.421 1.27492 1.12605 0
M  V30 5504 O 508.606 1.5629 1.15269 0
M  V30 5505 C 505.736 3.02171 1.71201 0
M  V30 5506 C 504.69 4.0895 1.26268 0
M  V30 5507 C 504.016 4.71915 2.51396 0
M  V30 5508 C 505.316 5.20891 0.383419 0
M  V30 5509 H 507.01 2.99343 -0.0584517 0
M  V30 5510 H 504.556 1.4397 -0.0295527 0
M  V30 5511 H 506.509 3.51681 2.32161 0
M  V30 5512 H 505.233 2.27433 2.34397 0
M  V30 5513 H 503.892 3.60312 0.676062 0
M  V30 5514 H 503.54 3.93801 3.12937 0
M  V30 5515 H 503.24 5.44039 2.22026 0
M  V30 5516 H 504.764 5.24195 3.13133 0
M  V30 5517 H 506.178 5.66206 0.899082 0
M  V30 5518 H 504.575 5.99821 0.182857 0
M  V30 5519 H 505.645 4.81324 -0.587821 0
M  V30 5520 N 506.988 0.0434614 1.5754 0
M  V30 5521 C 508.404 -0.313039 1.565 0
M  V30 5522 C 508.604 -1.71954 1.05043 0
M  V30 5523 O 507.66 -2.425 0.703564 0
M  V30 5524 C 508.973 -0.148544 3.00333 0
M  V30 5525 C 510.521 -0.220231 3.12224 0
M  V30 5526 C 510.996 -0.0843565 4.57922 0
M  V30 5527 N 512.487 -0.140881 4.62986 0
M  V30 5528 C 513.222 -0.0597443 5.73369 0
M  V30 5529 N 512.718 0.0733004 6.92761 0
M  V30 5530 N 514.511 -0.11477 5.61983 0
M  V30 5531 H 506.662 0.96303 1.89313 0
M  V30 5532 H 508.925 0.373164 0.871466 0
M  V30 5533 H 508.631 0.820894 3.41986 0
M  V30 5534 H 508.505 -0.912798 3.65989 0
M  V30 5535 H 510.892 -1.18014 2.70475 0
M  V30 5536 H 510.973 0.574646 2.49262 0
M  V30 5537 H 510.617 0.872192 5.00355 0
M  V30 5538 H 510.547 -0.898281 5.18882 0
M  V30 5539 H 513.038 -0.243273 3.77116 0
M  V30 5540 H 513.351 0.128128 7.72694 0
M  V30 5541 H 511.696 0.10828 6.94916 0
M  V30 5542 H 514.887 -0.217212 4.67596 0
M  V30 5543 H 515.06 -0.0480779 6.47982 0
M  V30 5544 N 508.466 -1.55915 -0.229846 0
M  V30 5545 C 509.713 -1.78542 -0.955452 0
M  V30 5546 C 510.041 -0.610785 -1.84661 0
M  V30 5547 O 509.296 0.405213 -1.91459 0
M  V30 5548 C 509.595 -3.06845 -1.8325 0
M  V30 5549 C 509.261 -4.37395 -1.09528 0
M  V30 5550 C 507.923 -4.72868 -0.891598 0
M  V30 5551 C 510.275 -5.18029 -0.574046 0
M  V30 5552 C 507.603 -5.86496 -0.154655 0
M  V30 5553 C 509.955 -6.32423 0.149513 0
M  V30 5554 C 508.619 -6.66504 0.364519 0
M  V30 5555 H 507.889 -0.653333 -0.349625 0
M  V30 5556 H 510.536 -1.90183 -0.224235 0
M  V30 5557 H 508.841 -2.90291 -2.63132 0
M  V30 5558 H 510.538 -3.21553 -2.39592 0
M  V30 5559 H 507.128 -4.09538 -1.26399 0
M  V30 5560 H 511.312 -4.91066 -0.718899 0
M  V30 5561 H 506.568 -6.11396 0.0222356 0
M  V30 5562 H 510.742 -6.94137 0.560947 0
M  V30 5563 H 508.369 -7.54397 0.937495 0
M  V30 5564 N 509.944 0.496216 -1.49584 0
M  V30 5565 C 511.36 0.827814 -1.36453 0
M  V30 5566 C 511.56 1.97464 -0.401285 0
M  V30 5567 O 510.616 2.51958 0.165296 0
M  V30 5568 C 511.929 1.16352 -2.77277 0
M  V30 5569 C 513.477 1.27145 -2.86013 0
M  V30 5570 C 513.952 1.64042 -4.27615 0
M  V30 5571 N 515.443 1.71082 -4.30448 0
M  V30 5572 C 516.178 2.01085 -5.36984 0
M  V30 5573 N 515.674 2.2928 -6.5376 0
M  V30 5574 N 517.467 2.02376 -5.24405 0
M  V30 5575 H 509.618 -0.259947 -2.10803 0
M  V30 5576 H 511.881 -0.0537163 -0.946477 0
M  V30 5577 H 511.587 0.394153 -3.49484 0
M  V30 5578 H 511.461 2.10582 -3.12946 0
M  V30 5579 H 513.848 2.03152 -2.1404 0
M  V30 5580 H 513.929 0.309542 -2.5392 0
M  V30 5581 H 513.573 0.88583 -5.00115 0
M  V30 5582 H 513.503 2.6134 -4.57175 0
M  V30 5583 H 515.994 1.51434 -3.46232 0
M  V30 5584 H 516.307 2.51376 -7.30774 0
M  V30 5585 H 514.652 2.26726 -6.56978 0
M  V30 5586 H 517.843 1.79829 -4.32179 0
M  V30 5587 H 518.016 2.25425 -6.07526 0
M  V30 5588 N 511.423 1.38739 0.74761 0
M  V30 5589 C 512.839 1.20067 1.05148 0
M  V30 5590 C 513.039 0.0534835 2.01429 0
M  V30 5591 O 512.095 -0.59886 2.45296 0
M  V30 5592 C 513.408 2.52957 1.62584 0
M  V30 5593 C 514.956 2.59692 1.74726 0
M  V30 5594 C 515.431 3.92772 2.35573 0
M  V30 5595 N 516.922 3.94343 2.42997 0
M  V30 5596 C 517.657 4.9408 2.90985 0
M  V30 5597 N 517.153 6.04214 3.38965 0
M  V30 5598 N 518.946 4.81466 2.9008 0
M  V30 5599 H 511.097 2.12121 0.108808 0
M  V30 5600 H 513.36 0.941491 0.110899 0
M  V30 5601 H 513.066 3.37389 0.993051 0
M  V30 5602 H 512.94 2.71779 2.61565 0
M  V30 5603 H 515.327 1.75651 2.3713 0
M  V30 5604 H 515.408 2.44731 0.744326 0
M  V30 5605 H 515.052 4.77238 1.738 0
M  V30 5606 H 514.982 4.05046 3.36519 0
M  V30 5607 H 517.473 3.14799 2.0907 0
M  V30 5608 H 517.786 6.76241 3.74056 0
M  V30 5609 H 516.131 6.07825 3.37007 0
M  V30 5610 H 519.322 3.94535 2.51912 0
M  V30 5611 H 519.495 5.59344 3.27166 0
M  V30 5612 N 512.901 -0.976442 1.23707 0
M  V30 5613 C 513.848 -2.06952 1.02174 0
M  V30 5614 C 514.818 -1.65984 -0.0621034 0
M  V30 5615 O 516.003 -1.90584 0.0907906 0
M  V30 5616 C 513.143 -3.39425 0.62327 0
M  V30 5617 C 512.256 -3.9364 1.77966 0
M  V30 5618 C 511.391 -5.14343 1.3276 0
M  V30 5619 C 510.43 -5.60733 2.45449 0
M  V30 5620 N 509.567 -6.72662 2.01172 0
M  V30 5621 H 514.407 -2.24704 1.95734 0
M  V30 5622 H 511.944 -1.10143 0.975034 0
M  V30 5623 H 513.902 -4.15526 0.37332 0
M  V30 5624 H 512.532 -3.21624 -0.275329 0
M  V30 5625 H 511.584 -3.14258 2.14351 0
M  V30 5626 H 512.896 -4.24035 2.62671 0
M  V30 5627 H 512.05 -5.97789 1.03601 0
M  V30 5628 H 510.789 -4.8561 0.450975 0
M  V30 5629 H 509.794 -4.75865 2.75378 0
M  V30 5630 H 511.019 -5.91483 3.33654 0
M  V30 5631 H 508.965 -6.45681 1.15895 0
M  V30 5632 H 508.882 -7.02462 2.79434 0
M  V30 5633 H 510.15 -7.59572 1.75129 0
M  V30 5634 N 514.379 -1.04941 -1.1758 0
M  V30 5635 C 515.795 -0.770282 -1.39781 0
M  V30 5636 C 515.995 0.636417 -1.91186 0
M  V30 5637 O 515.051 1.39923 -2.10185 0
M  V30 5638 C 516.364 -1.82376 -2.3908 0
M  V30 5639 C 517.912 -1.84569 -2.52791 0
M  V30 5640 C 518.387 -2.88933 -3.55361 0
M  V30 5641 N 519.878 -2.8788 -3.62877 0
M  V30 5642 C 520.613 -3.65282 -4.41992 0
M  V30 5643 N 520.109 -4.52461 -5.24643 0
M  V30 5644 N 521.902 -3.53732 -4.36841 0
M  V30 5645 H 514.053 -1.95705 -0.825438 0
M  V30 5646 H 516.316 -0.847284 -0.425222 0
M  V30 5647 H 516.022 -2.83323 -2.08376 0
M  V30 5648 H 515.896 -1.66327 -3.38549 0
M  V30 5649 H 518.283 -0.842879 -2.82807 0
M  V30 5650 H 518.364 -2.04696 -1.53406 0
M  V30 5651 H 518.008 -3.89398 -3.26085 0
M  V30 5652 H 517.938 -2.66059 -4.54445 0
M  V30 5653 H 520.429 -2.24666 -3.03864 0
M  V30 5654 H 520.742 -5.08211 -5.82187 0
M  V30 5655 H 519.087 -4.56524 -5.24033 0
M  V30 5656 H 522.278 -2.85021 -3.71323 0
M  V30 5657 H 522.451 -4.14302 -4.98255 0
M  V30 5658 N 515.857 1.33968 -0.830081 0
M  V30 5659 C 517.273 1.51003 -0.516742 0
M  V30 5660 C 517.473 1.77286 0.957694 0
M  V30 5661 O 516.529 1.82797 1.74188 0
M  V30 5662 C 517.842 2.67036 -1.38247 0
M  V30 5663 C 519.39 2.80919 -1.38034 0
M  V30 5664 C 519.865 4.00004 -2.23071 0
M  V30 5665 N 521.356 4.07224 -2.20733 0
M  V30 5666 C 522.091 4.98541 -2.83275 0
M  V30 5667 N 521.587 5.95033 -3.54835 0
M  V30 5668 N 523.38 4.91469 -2.72791 0
M  V30 5669 H 515.531 1.15168 -1.78466 0
M  V30 5670 H 517.794 0.565443 -0.760906 0
M  V30 5671 H 517.5 2.54266 -2.42985 0
M  V30 5672 H 517.374 3.62226 -1.05225 0
M  V30 5673 H 519.761 2.93127 -0.340713 0
M  V30 5674 H 519.842 1.86517 -1.75057 0
M  V30 5675 H 519.486 3.88557 -3.27087 0
M  V30 5676 H 519.416 4.93634 -1.83394 0
M  V30 5677 H 521.907 3.38162 -1.68687 0
M  V30 5678 H 522.22 6.61357 -3.99784 0
M  V30 5679 H 520.565 5.95135 -3.58942 0
M  V30 5680 H 523.756 4.15048 -2.16456 0
M  V30 5681 H 523.929 5.62439 -3.21818 0
M  V30 5682 N 517.335 0.585699 1.46312 0
M  V30 5683 C 518.285 -0.166813 2.27389 0
M  V30 5684 C 519.269 -0.859076 1.36047 0
M  V30 5685 O 520.461 -0.752678 1.60199 0
M  V30 5686 C 517.59 -1.17791 3.2246 0
M  V30 5687 C 516.676 -0.487605 4.21288 0
M  V30 5688 N 517.067 0.45849 5.03718 0
M  V30 5689 C 515.365 -0.737971 4.39852 0
M  V30 5690 C 516.066 0.862213 5.75275 0
M  V30 5691 N 515.042 0.210707 5.43191 0
M  V30 5692 H 518.844 0.560167 2.88512 0
M  V30 5693 H 516.358 0.407715 1.57199 0
M  V30 5694 H 518.355 -1.73122 3.79255 0
M  V30 5695 H 517.015 -1.90568 2.62896 0
M  V30 5696 H 518.026 0.834163 5.11138 0
M  V30 5697 H 514.703 -1.45209 3.91434 0
M  V30 5698 H 516.093 1.64128 6.51546 0
M  V30 5699 N 518.813 -1.54241 0.323641 0
M  V30 5700 C 519.763 -2.21071 -0.557833 0
M  V30 5701 C 520.747 -1.19126 -1.08157 0
M  V30 5702 O 521.939 -1.44755 -1.01857 0
M  V30 5703 C 519.068 -2.97208 -1.71821 0
M  V30 5704 C 518.154 -4.06491 -1.20936 0
M  V30 5705 N 518.545 -5.04052 -0.420202 0
M  V30 5706 C 516.843 -4.20443 -1.48808 0
M  V30 5707 C 517.544 -5.81516 -0.146413 0
M  V30 5708 N 516.52 -5.38641 -0.732562 0
M  V30 5709 H 520.322 -2.93853 0.0523921 0
M  V30 5710 H 517.836 -1.61883 0.129502 0
M  V30 5711 H 519.833 -3.4357 -2.36146 0
M  V30 5712 H 518.493 -2.25947 -2.33191 0
M  V30 5713 H 519.504 -5.17862 -0.0630401 0
M  V30 5714 H 516.181 -3.60396 -2.10762 0
M  V30 5715 H 517.571 -6.70119 0.488895 0
M  V30 5716 N 520.291 -0.0518155 -1.57515 0
M  V30 5717 C 521.238 0.922352 -2.11569 0
M  V30 5718 C 522.208 1.30842 -1.02321 0
M  V30 5719 O 523.393 1.39778 -1.29872 0
M  V30 5720 C 520.533 2.19167 -2.6657 0
M  V30 5721 C 519.646 1.86003 -3.89906 0
M  V30 5722 C 518.781 3.07398 -4.33221 0
M  V30 5723 C 517.82 2.70158 -5.49255 0
M  V30 5724 N 516.957 3.84248 -5.8762 0
M  V30 5725 H 521.797 0.454506 -2.94514 0
M  V30 5726 H 519.334 0.212718 -1.45554 0
M  V30 5727 H 521.292 2.93443 -2.96559 0
M  V30 5728 H 519.922 2.63528 -1.86421 0
M  V30 5729 H 518.974 1.01874 -3.66505 0
M  V30 5730 H 520.286 1.54592 -4.74239 0
M  V30 5731 H 519.44 3.89972 -4.64765 0
M  V30 5732 H 518.179 3.41988 -3.477 0
M  V30 5733 H 517.184 1.86001 -5.17382 0
M  V30 5734 H 518.409 2.36759 -6.36492 0
M  V30 5735 H 516.355 4.18638 -5.05053 0
M  V30 5736 H 516.272 3.56538 -6.66646 0
M  V30 5737 H 517.54 4.6746 -6.2378 0
M  V30 5738 N 521.769 1.56035 0.221574 0
M  V30 5739 C 522.994 1.83476 0.967026 0
M  V30 5740 C 523.419 0.632139 1.7716 0
M  V30 5741 O 522.777 -0.419082 1.7639 0
M  V30 5742 C 522.825 3.08907 1.86034 0
M  V30 5743 O 521.929 2.876 2.95567 0
M  V30 5744 H 521.27 0.604913 0.273817 0
M  V30 5745 H 523.8 2.03247 0.234893 0
M  V30 5746 H 523.81 3.3901 2.27016 0
M  V30 5747 H 522.485 3.96068 1.26898 0
M  V30 5748 H 521.062 2.6873 2.58532 0
M  V30 5749 N 523.247 -0.488276 1.49845 0
M  V30 5750 C 524.658 -1.06955 1.53028 0
M  V30 5751 C 525.009 -1.9351 0.323797 0
M  V30 5752 O 524.134 -2.08891 -0.565116 0
M  V30 5753 C 524.729 -1.94643 2.77307 0
M  V30 5754 C 523.288 -2.4791 2.83227 0
M  V30 5755 C 522.435 -1.25833 2.47106 0
M  V30 5756 H 525.386 -0.271626 1.56358 0
M  V30 5757 H 525.407 -2.79496 2.5819 0
M  V30 5758 H 524.919 -1.31621 3.65099 0
M  V30 5759 H 523.02 -3.14535 1.99745 0
M  V30 5760 H 523.133 -2.84193 3.85709 0
M  V30 5761 H 521.497 -1.58764 1.99163 0
M  V30 5762 H 522.28 -0.644993 3.37186 0
M  V30 5763 N 524.725 -1.39134 -0.740242 0
M  V30 5764 C 525.658 -1.3182 -1.86276 0
M  V30 5765 C 526.636 -0.192794 -1.61453 0
M  V30 5766 O 527.82 -0.372365 -1.84786 0
M  V30 5767 C 524.947 -1.04564 -3.22155 0
M  V30 5768 C 523.993 -2.19224 -3.65846 0
M  V30 5769 S 524.826 -3.81466 -3.75824 0
M  V30 5770 C 525.982 -3.56425 -5.14502 0
M  V30 5771 H 526.215 -2.26822 -1.92195 0
M  V30 5772 H 523.748 -1.25127 -0.904576 0
M  V30 5773 H 525.706 -0.895228 -4.00619 0
M  V30 5774 H 524.367 -0.112578 -3.13898 0
M  V30 5775 H 523.56 -1.95732 -4.6444 0
M  V30 5776 H 523.162 -2.30441 -2.94572 0
M  V30 5777 H 525.454 -3.13366 -6.00673 0
M  V30 5778 H 526.397 -4.54462 -5.43019 0
M  V30 5779 H 526.805 -2.90641 -4.8393 0
M  V30 5780 N 526.204 0.969867 -1.24223 0
M  V30 5781 C 527.134 2.08191 -1.05729 0
M  V30 5782 C 528.115 1.70075 0.0290765 0
M  V30 5783 O 529.3 1.93712 -0.137583 0
M  V30 5784 C 526.43 3.40991 -0.658995 0
M  V30 5785 C 525.384 3.93054 -1.69389 0
M  V30 5786 C 524.71 5.22171 -1.15072 0
M  V30 5787 C 526.01 4.21137 -3.08935 0
M  V30 5788 H 527.704 2.23921 -1.98746 0
M  V30 5789 H 525.25 1.07602 -0.956967 0
M  V30 5790 H 527.203 4.18221 -0.51662 0
M  V30 5791 H 525.927 3.25155 0.30686 0
M  V30 5792 H 524.586 3.17977 -1.82444 0
M  V30 5793 H 524.234 5.02694 -0.175539 0
M  V30 5794 H 523.934 5.57973 -1.84229 0
M  V30 5795 H 525.458 6.02013 -1.02042 0
M  V30 5796 H 526.872 4.8908 -2.99121 0
M  V30 5797 H 525.269 4.68163 -3.75425 0
M  V30 5798 H 526.339 3.27996 -3.57137 0
M  V30 5799 N 527.682 1.05563 1.17022 0
M  V30 5800 C 528.63 0.653887 2.2322 0
M  V30 5801 C 529.624 -0.326642 1.66221 0
M  V30 5802 O 530.83 -0.192301 1.7897 0
M  V30 5803 H 527.205 0.193297 0.726733 0
M  V30 5804 H 529.176 1.5596 2.54399 0
M  V30 5805 C 527.925 0.0485434 3.47666 0
M  V30 5806 H 527.248 0.79413 3.91834 0
M  V30 5807 H 528.688 -0.195133 4.23551 0
M  V30 5808 C 527.147 -1.20583 3.14581 0
M  V30 5809 O 527.677 -2.29475 3.29703 0
M  V30 5810 N 525.883 -1.10493 2.68774 0
M  V30 5811 H 525.43 -0.218795 2.56669 0
M  V30 5812 H 525.388 -1.94507 2.47011 0
M  V30 5813 N 529.16 -1.33526 0.837174 0
M  V30 5814 C 530.09 -2.31764 0.284206 0
M  V30 5815 C 531.071 -1.58896 -0.607142 0
M  V30 5816 O 532.256 -1.86798 -0.531047 0
M  V30 5817 C 529.386 -3.43029 -0.542962 0
M  V30 5818 C 528.34 -4.27255 0.252451 0
M  V30 5819 C 527.666 -5.3012 -0.69836 0
M  V30 5820 C 528.966 -5.01229 1.46858 0
M  V30 5821 H 530.66 -2.78262 1.10502 0
M  V30 5822 H 528.206 -1.3378 0.532812 0
M  V30 5823 H 530.159 -4.1078 -0.940096 0
M  V30 5824 H 528.883 -2.95216 -1.39697 0
M  V30 5825 H 527.542 -3.61127 0.631124 0
M  V30 5826 H 527.19 -4.78564 -1.54872 0
M  V30 5827 H 526.89 -5.87353 -0.170274 0
M  V30 5828 H 528.414 -6.00737 -1.09305 0
M  V30 5829 H 529.828 -5.61756 1.14469 0
M  V30 5830 H 528.225 -5.68104 1.93333 0
M  V30 5831 H 529.295 -4.301 2.23924 0
M  V30 5832 N 530.638 -0.59345 -1.46 0
M  V30 5833 C 531.885 -0.0831523 -2.02329 0
M  V30 5834 C 532.213 1.28093 -1.46364 0
M  V30 5835 O 531.468 1.85526 -0.622793 0
M  V30 5836 C 531.767 0.021178 -3.57394 0
M  V30 5837 C 531.433 -1.27671 -4.32448 0
M  V30 5838 C 530.095 -1.63227 -4.5267 0
M  V30 5839 C 532.447 -2.13511 -4.7546 0
M  V30 5840 C 529.775 -2.84401 -5.1316 0
M  V30 5841 C 532.127 -3.33922 -5.37289 0
M  V30 5842 C 530.791 -3.69747 -5.55737 0
M  V30 5843 H 530.061 -0.0304276 -0.740375 0
M  V30 5844 H 532.708 -0.772239 -1.75239 0
M  V30 5845 H 531.013 0.793454 -3.83682 0
M  V30 5846 H 532.71 0.431942 -3.98667 0
M  V30 5847 H 529.3 -0.989937 -4.17011 0
M  V30 5848 H 533.484 -1.87344 -4.59582 0
M  V30 5849 H 528.74 -3.12282 -5.25633 0
M  V30 5850 H 532.914 -4.00698 -5.69574 0
M  V30 5851 H 530.541 -4.6373 -6.02377 0
M  V30 5852 N 532.116 1.54067 -0.331816 0
M  V30 5853 C 533.048 2.22139 0.564538 0
M  V30 5854 C 534.061 1.22408 1.07332 0
M  V30 5855 O 535.25 1.4883 0.985481 0
M  V30 5856 C 532.35 2.87876 1.78831 0
M  V30 5857 C 531.523 4.13817 1.41682 0
M  V30 5858 C 530.582 4.63072 2.49901 0
M  V30 5859 O 529.608 5.27562 2.13699 0
M  V30 5860 N 530.81 4.38001 3.80967 0
M  V30 5861 H 533.575 2.99694 -0.0183736 0
M  V30 5862 H 531.136 1.61153 -0.155396 0
M  V30 5863 H 533.128 3.17747 2.50637 0
M  V30 5864 H 531.698 2.13977 2.27887 0
M  V30 5865 H 530.918 3.9062 0.530044 0
M  V30 5866 H 532.206 4.95762 1.14443 0
M  V30 5867 H 531.604 3.864 4.13173 0
M  V30 5868 H 530.161 4.72507 4.48977 0
M  V30 5869 N 533.594 0.0601682 1.57485 0
M  V30 5870 C 534.504 -0.926121 2.15546 0
M  V30 5871 C 535.52 -1.33532 1.11558 0
M  V30 5872 O 536.696 -1.4104 1.4377 0
M  V30 5873 C 533.761 -2.17952 2.69625 0
M  V30 5874 C 532.822 -1.82783 3.88444 0
M  V30 5875 C 532.055 -3.02148 4.39935 0
M  V30 5876 O 532.278 -4.15803 3.90466 0
M  V30 5877 O 531.212 -2.82639 5.31412 0
M  V30 5878 H 535.038 -0.462289 3.00161 0
M  V30 5879 H 532.623 -0.162246 1.48516 0
M  V30 5880 H 534.505 -2.91474 3.04337 0
M  V30 5881 H 533.18 -2.63456 1.88077 0
M  V30 5882 H 532.087 -1.06549 3.58606 0
M  V30 5883 H 533.42 -1.42072 4.7125 0
M  V30 5884 N 535.072 -1.5615 -0.213296 0
M  V30 5885 C 536.349 -1.70349 -0.961281 0
M  V30 5886 C 536.729 -0.609791 -2.02101 0
M  V30 5887 O 536.077 0.381987 -2.25285 0
M  V30 5888 C 536.287 -3.11982 -1.56424 0
M  V30 5889 C 537.635 -3.71649 -2.05334 0
M  V30 5890 O 538.659 -3.14995 -1.66302 0
M  V30 5891 O 537.518 -4.71038 -2.77102 0
M  V30 5892 H 534.612 -0.694121 -0.449582 0
M  V30 5893 H 537.158 -1.68464 -0.204426 0
M  V30 5894 H 535.93 -3.83046 -0.799457 0
M  V30 5895 H 535.553 -3.18019 -2.38641 0
M  V30 5896 N 536.55 0.480323 -1.50102 0
M  V30 5897 C 537.46 1.60547 -1.71061 0
M  V30 5898 C 538.476 1.63564 -0.593529 0
M  V30 5899 O 539.652 1.81604 -0.870751 0
M  V30 5900 C 536.717 2.96814 -1.79171 0
M  V30 5901 C 535.778 3.04259 -3.02861 0
M  V30 5902 C 535.011 4.34027 -3.10574 0
M  V30 5903 O 535.234 5.24009 -2.25323 0
M  V30 5904 O 534.168 4.46873 -4.03223 0
M  V30 5905 H 537.994 1.45788 -2.6642 0
M  V30 5906 H 535.579 0.658838 -1.34088 0
M  V30 5907 H 537.461 3.77765 -1.86738 0
M  V30 5908 H 536.136 3.11791 -0.869947 0
M  V30 5909 H 535.043 2.22419 -3.008 0
M  V30 5910 H 536.376 2.94216 -3.94586 0
M  V30 5911 N 538.028 1.39524 0.732853 0
M  V30 5912 C 538.991 1.38189 1.82857 0
M  V30 5913 C 539.991 0.278624 1.58368 0
M  V30 5914 O 541.181 0.536639 1.65728 0
M  V30 5915 C 538.313 1.15661 3.2068 0
M  V30 5916 H 539.506 2.35692 1.85444 0
M  V30 5917 H 537.059 1.2512 0.936728 0
M  V30 5918 H 537.794 0.188482 3.23752 0
M  V30 5919 H 537.579 1.95559 3.39852 0
M  V30 5920 H 539.069 1.17472 4.00737 0
M  V30 5921 N 539.506 -0.963266 1.24736 0
M  V30 5922 C 540.754 -1.70343 1.08755 0
M  V30 5923 C 541.075 -1.91387 -0.373619 0
M  V30 5924 O 540.345 -1.4948 -1.2662 0
M  V30 5925 H 538.925 -0.631224 0.399456 0
M  V30 5926 H 541.587 -1.15859 1.56725 0
M  V30 5927 H 540.683 -2.68616 1.58909 0
M  V30 5928 N 540.985 -1.06182 -1.16461 0
M  V30 5929 C 541.895 -0.682671 -2.24448 0
M  V30 5930 C 542.911 0.30078 -1.71381 0
M  V30 5931 O 544.087 0.150376 -2.00838 0
M  V30 5932 C 541.152 -0.0737202 -3.46622 0
M  V30 5933 C 540.213 -1.10889 -4.14731 0
M  V30 5934 C 539.446 -0.528908 -5.31073 0
M  V30 5935 O 539.669 0.65868 -5.66584 0
M  V30 5936 O 538.603 -1.26805 -5.88391 0
M  V30 5937 H 542.429 -1.58291 -2.59187 0
M  V30 5938 H 540.014 -0.834013 -1.23954 0
M  V30 5939 H 541.896 0.264192 -4.20571 0
M  V30 5940 H 540.571 0.800015 -3.13658 0
M  V30 5941 H 539.478 -1.49896 -3.42756 0
M  V30 5942 H 540.811 -1.95412 -4.51747 0
M  V30 5943 N 542.463 1.3308 -0.844243 0
M  V30 5944 C 543.711 1.97215 -0.441676 0
M  V30 5945 C 544.032 1.67185 1.0037 0
M  V30 5946 O 543.302 0.973588 1.69994 0
M  V30 5947 H 541.882 0.72959 -0.160335 0
M  V30 5948 H 544.544 1.62348 -1.07838 0
M  V30 5949 H 543.64 3.06698 -0.57815 0
M  V30 5950 N 543.941 0.601185 1.45683 0
M  V30 5951 C 545.357 0.264315 1.57396 0
M  V30 5952 C 545.557 -1.23324 1.59353 0
M  V30 5953 O 544.613 -2.01594 1.52039 0
M  V30 5954 C 545.926 0.929839 2.85962 0
M  V30 5955 C 547.474 0.905156 2.99626 0
M  V30 5956 C 547.949 1.55057 4.30954 0
M  V30 5957 N 549.44 1.51576 4.37697 0
M  V30 5958 C 550.175 1.98436 5.37969 0
M  V30 5959 N 549.671 2.53352 6.44813 0
M  V30 5960 N 551.464 1.89242 5.29286 0
M  V30 5961 H 543.615 1.57363 1.42656 0
M  V30 5962 H 545.878 0.658831 0.681649 0
M  V30 5963 H 545.584 1.98404 2.90394 0
M  V30 5964 H 545.458 0.449224 3.74515 0
M  V30 5965 H 547.845 -0.14048 2.94765 0
M  V30 5966 H 547.926 1.42397 2.12501 0
M  V30 5967 H 547.57 2.5955 4.36573 0
M  V30 5968 H 547.5 1.00682 5.16886 0
M  V30 5969 H 549.991 1.11452 3.61091 0
M  V30 5970 H 550.304 2.86918 7.17564 0
M  V30 5971 H 548.649 2.57388 6.45582 0
M  V30 5972 H 551.84 1.46083 4.44722 0
M  V30 5973 H 552.013 2.26075 6.07284 0
M  V30 5974 N 545.419 -1.53889 0.339982 0
M  V30 5975 C 546.666 -2.00855 -0.257621 0
M  V30 5976 C 546.994 -1.22788 -1.50842 0
M  V30 5977 O 546.249 -0.302567 -1.93347 0
M  V30 5978 C 546.548 -3.51968 -0.620735 0
M  V30 5979 C 546.214 -4.47741 0.532771 0
M  V30 5980 C 544.876 -4.73645 0.849339 0
M  V30 5981 C 547.228 -5.04551 1.3068 0
M  V30 5982 C 544.556 -5.53614 1.94237 0
M  V30 5983 C 546.908 -5.85713 2.39005 0
M  V30 5984 C 545.572 -6.09912 2.71225 0
M  V30 5985 H 544.842 -0.734979 -0.0942703 0
M  V30 5986 H 547.489 -1.85714 0.467159 0
M  V30 5987 H 545.794 -3.64921 -1.42618 0
M  V30 5988 H 547.491 -3.85762 -1.09495 0
M  V30 5989 H 544.081 -4.27711 0.275973 0
M  V30 5990 H 548.265 -4.84507 1.07549 0
M  V30 5991 H 543.521 -5.7059 2.19628 0
M  V30 5992 H 547.695 -6.28748 2.99415 0
M  V30 5993 H 545.322 -6.71665 3.56047 0
M  V30 5994 N 546.897 -0.0685191 -1.57451 0
M  V30 5995 C 547.845 0.917577 -2.13736 0
M  V30 5996 C 548.839 1.31049 -1.07344 0
M  V30 5997 O 550.045 1.28811 -1.25728 0
M  V30 5998 H 546.42 0.313835 -0.683382 0
M  V30 5999 H 548.391 0.417903 -2.95459 0
M  V30 6000 C 547.14 2.17686 -2.71123 0
M  V30 6001 H 546.463 1.88336 -3.52661 0
M  V30 6002 H 547.903 2.84803 -3.14107 0
M  V30 6003 C 546.362 2.9332 -1.65726 0
M  V30 6004 O 546.892 3.86901 -1.08031 0
M  V30 6005 N 545.098 2.56367 -1.36837 0
M  V30 6006 H 544.645 1.80341 -1.83943 0
M  V30 6007 H 544.603 3.07276 -0.665501 0
M  V30 6008 N 548.375 1.56261 0.205012 0
M  V30 6009 C 549.622 1.8004 0.926927 0
M  V30 6010 C 549.95 0.640086 1.83666 0
M  V30 6011 O 549.205 -0.374702 1.92079 0
M  V30 6012 C 549.504 3.09722 1.78345 0
M  V30 6013 C 549.17 4.39082 1.02555 0
M  V30 6014 C 547.832 4.74226 0.816256 0
M  V30 6015 C 550.184 5.18877 0.491559 0
M  V30 6016 C 547.512 5.86668 0.0613287 0
M  V30 6017 C 549.864 6.32105 -0.250107 0
M  V30 6018 C 548.528 6.6584 -0.470508 0
M  V30 6019 H 547.798 0.658812 0.339187 0
M  V30 6020 H 550.445 1.90515 0.19395 0
M  V30 6021 H 548.75 2.9444 2.5848 0
M  V30 6022 H 550.447 3.25324 2.34446 0
M  V30 6023 H 547.037 4.11497 1.19868 0
M  V30 6024 H 551.221 4.92147 0.640684 0
M  V30 6025 H 546.477 6.11283 -0.119501 0
M  V30 6026 H 550.651 6.93157 -0.671307 0
M  V30 6027 H 548.278 7.5281 -1.05739 0
M  V30 6028 N 549.853 -0.472356 1.50355 0
M  V30 6029 C 551.078 -1.25251 1.65309 0
M  V30 6030 C 551.503 -1.85081 0.335643 0
M  V30 6031 O 550.861 -1.67227 -0.700335 0
M  V30 6032 C 550.909 -2.3379 2.74544 0
M  V30 6033 O 550.013 -3.38401 2.35709 0
M  V30 6034 H 549.354 -0.368539 0.552336 0
M  V30 6035 H 551.884 -0.562271 1.96722 0
M  V30 6036 H 551.894 -2.79121 2.97583 0
M  V30 6037 H 550.569 -1.89614 3.70161 0
M  V30 6038 H 549.146 -2.9879 2.23112 0
M  V30 6039 N 551.331 -1.39911 -0.725443 0
M  V30 6040 C 552.294 -1.39156 -1.82121 0
M  V30 6041 C 553.294 -0.287018 -1.58218 0
M  V30 6042 O 554.484 -0.545421 -1.65441 0
M  V30 6043 C 551.616 -1.1736 -3.20062 0
M  V30 6044 H 552.809 -2.36672 -1.84191 0
M  V30 6045 H 550.362 -1.25615 -0.930079 0
M  V30 6046 H 551.097 -0.205648 -3.23647 0
M  V30 6047 H 550.882 -1.97358 -3.3881 0
M  V30 6048 H 552.372 -1.19596 -4.00108 0
M  V30 6049 N 552.809 0.956637 -1.25245 0
M  V30 6050 C 554.039 1.7332 -1.12445 0
M  V30 6051 C 554.447 1.86392 0.324732 0
M  V30 6052 O 553.79 1.35967 1.23526 0
M  V30 6053 C 553.852 3.16603 -1.70303 0
M  V30 6054 C 553.516 3.26966 -3.19284 0
M  V30 6055 C 554.513 3.11434 -4.16299 0
M  V30 6056 C 552.198 3.50851 -3.59456 0
M  V30 6057 C 554.192 3.1963 -5.51467 0
M  V30 6058 C 551.879 3.58684 -4.94761 0
M  V30 6059 C 552.877 3.43087 -5.90576 0
M  V30 6060 O 552.565 3.50598 -7.2342 0
M  V30 6061 H 552.297 0.549981 -0.393061 0
M  V30 6062 H 554.851 1.20892 -1.66055 0
M  V30 6063 H 553.081 3.70385 -1.11138 0
M  V30 6064 H 554.77 3.76109 -1.52632 0
M  V30 6065 H 555.536 2.92853 -3.86604 0
M  V30 6066 H 551.415 3.62053 -2.85375 0
M  V30 6067 H 554.959 3.07373 -6.26233 0
M  V30 6068 H 550.856 3.76782 -5.24124 0
M  V30 6069 H 551.624 3.67242 -7.31489 0
M  V30 6070 N 554.287 1.06798 1.15896 0
M  V30 6071 C 555.535 0.786211 1.8618 0
M  V30 6072 C 555.856 -0.689547 1.82401 0
M  V30 6073 O 555.126 -1.49913 1.26107 0
M  V30 6074 H 553.706 0.287843 0.689315 0
M  V30 6075 H 556.368 1.35055 1.40521 0
M  V30 6076 H 555.464 1.1157 2.91477 0
M  V30 6077 N 555.766 -1.3263 0.851289 0
M  V30 6078 C 556.699 -2.26952 0.238318 0
M  V30 6079 C 557.677 -1.50243 -0.621757 0
M  V30 6080 O 558.861 -1.79378 -0.579298 0
M  V30 6081 C 555.988 -3.32124 -0.664178 0
M  V30 6082 C 555.034 -4.26325 0.122067 0
M  V30 6083 S 555.867 -5.14404 1.48824 0
M  V30 6084 C 557.023 -6.231 0.591372 0
M  V30 6085 H 557.256 -2.78594 1.03791 0
M  V30 6086 H 554.789 -1.4011 0.648731 0
M  V30 6087 H 556.747 -3.93197 -1.17924 0
M  V30 6088 H 555.408 -2.79273 -1.43755 0
M  V30 6089 H 554.601 -5.00821 -0.565181 0
M  V30 6090 H 554.203 -3.69652 0.568602 0
M  V30 6091 H 556.495 -6.77187 -0.205762 0
M  V30 6092 H 557.438 -6.95936 1.30687 0
M  V30 6093 H 557.846 -5.64252 0.167206 0
M  V30 6094 N 557.244 -0.608902 -1.45362 0
M  V30 6095 C 558.492 -0.104401 -2.0183 0
M  V30 6096 C 558.813 1.27007 -1.47967 0
M  V30 6097 O 558.083 1.83924 -0.674455 0
M  V30 6098 H 556.663 -0.0356042 -0.746151 0
M  V30 6099 H 559.325 -0.790596 -1.78145 0
M  V30 6100 H 558.421 -0.0551793 -3.12051 0
M  V30 6101 N 558.722 1.53707 -0.348139 0
M  V30 6102 C 560.133 1.86213 0.134797 0
M  V30 6103 C 560.484 1.26925 1.49614 0
M  V30 6104 O 559.609 0.584573 2.08355 0
M  V30 6105 C 560.204 3.37866 0.251371 0
M  V30 6106 C 558.763 3.70233 0.678543 0
M  V30 6107 C 557.91 2.76683 -0.184925 0
M  V30 6108 H 560.861 1.48204 -0.567571 0
M  V30 6109 H 560.882 3.64908 1.07806 0
M  V30 6110 H 560.394 3.80988 -0.739581 0
M  V30 6111 H 558.495 3.32659 1.67835 0
M  V30 6112 H 558.608 4.76836 0.465251 0
M  V30 6113 H 556.972 2.52374 0.343465 0
M  V30 6114 H 557.755 3.22635 -1.1731 0
M  V30 6115 N 560.2 0.0768682 1.57412 0
M  V30 6116 C 561.163 -0.873949 2.11884 0
M  V30 6117 C 562.163 -1.22301 1.04398 0
M  V30 6118 O 563.353 -1.15545 1.30365 0
M  V30 6119 C 560.485 -2.17575 2.62438 0
M  V30 6120 H 561.678 -0.401278 2.97203 0
M  V30 6121 H 559.231 -0.171904 1.55352 0
M  V30 6122 H 559.966 -2.69368 1.80587 0
M  V30 6123 H 559.751 -1.93534 3.41009 0
M  V30 6124 H 561.241 -2.85631 3.04639 0
M  V30 6125 N 561.678 -1.56367 -0.196722 0
M  V30 6126 C 562.918 -1.82315 -0.92415 0
M  V30 6127 C 563.282 -0.654117 -1.80514 0
M  V30 6128 O 564.483 -0.79345 -2.56823 0
M  V30 6129 C 562.754 -3.13279 -1.72021 0
M  V30 6130 S 564.313 -3.60627 -2.49988 0
M  V30 6131 H 561.131 -0.639862 -0.309997 0
M  V30 6132 H 563.733 -1.94597 -0.187684 0
M  V30 6133 H 562.437 -3.96379 -1.06358 0
M  V30 6134 H 561.968 -3.03871 -2.49852 0
M  V30 6135 H 563.983 -3.25934 -3.74141 0
M  V30 6136 N 563.156 0.464375 -1.50603 0
M  V30 6137 C 564.086 1.56944 -1.72889 0
M  V30 6138 C 565.067 1.59979 -0.577997 0
M  V30 6139 O 566.252 1.76138 -0.817855 0
M  V30 6140 C 563.382 2.95225 -1.8292 0
M  V30 6141 C 562.336 3.07056 -2.98162 0
M  V30 6142 C 561.662 4.47051 -2.93343 0
M  V30 6143 C 562.962 2.83648 -4.38567 0
M  V30 6144 H 564.656 1.38547 -2.65415 0
M  V30 6145 H 562.202 0.665082 -1.27721 0
M  V30 6146 H 564.155 3.72467 -1.97095 0
M  V30 6147 H 562.879 3.14793 -0.870209 0
M  V30 6148 H 561.538 2.32248 -2.83648 0
M  V30 6149 H 561.186 4.63547 -1.95276 0
M  V30 6150 H 560.886 4.55902 -3.70712 0
M  V30 6151 H 562.41 5.26304 -3.09575 0
M  V30 6152 H 563.824 3.50636 -4.53572 0
M  V30 6153 H 562.221 3.03937 -5.17438 0
M  V30 6154 H 563.291 1.79451 -4.50472 0
M  V30 6155 N 564.634 1.40294 0.718013 0
M  V30 6156 C 565.566 1.36281 1.84283 0
M  V30 6157 C 566.579 0.268621 1.60569 0
M  V30 6158 O 567.768 0.528798 1.70487 0
M  V30 6159 C 564.868 1.09741 3.2064 0
M  V30 6160 C 564.041 2.30767 3.71571 0
M  V30 6161 C 563.1 2.00424 4.86535 0
M  V30 6162 O 562.126 2.73268 4.99313 0
M  V30 6163 N 563.328 0.980724 5.72156 0
M  V30 6164 H 566.093 2.3322 1.88225 0
M  V30 6165 H 563.654 1.34616 0.899453 0
M  V30 6166 H 565.646 0.874322 3.95143 0
M  V30 6167 H 564.216 0.214771 3.11861 0
M  V30 6168 H 563.436 2.68921 2.88228 0
M  V30 6169 H 564.724 3.11455 4.02335 0
M  V30 6170 H 564.122 0.377375 5.6444 0
M  V30 6171 H 562.679 0.817538 6.46653 0
M  V30 6172 N 566.112 -0.949982 1.2575 0
M  V30 6173 C 567.075 -2.02894 1.06615 0
M  V30 6174 C 568.075 -1.60791 0.0173905 0
M  V30 6175 O 569.265 -1.72249 0.260003 0
M  V30 6176 C 566.397 -3.35219 0.619751 0
M  V30 6177 H 567.59 -2.21302 2.02399 0
M  V30 6178 H 565.143 -1.12772 1.08223 0
M  V30 6179 H 565.878 -3.22508 -0.340486 0
M  V30 6180 H 565.663 -3.67129 1.37692 0
M  V30 6181 H 567.153 -4.14505 0.507443 0
M  V30 6182 N 567.59 -1.07411 -1.15328 0
M  V30 6183 C 568.537 -0.694995 -2.20087 0
M  V30 6184 C 569.507 0.313904 -1.63107 0
M  V30 6185 O 570.692 0.200216 -1.89747 0
M  V30 6186 C 567.832 -0.0996218 -3.44956 0
M  V30 6187 C 566.945 -1.16007 -4.16133 0
M  V30 6188 C 566.08 -0.529636 -5.28553 0
M  V30 6189 C 565.119 -1.57283 -5.91548 0
M  V30 6190 N 564.256 -0.964932 -6.95438 0
M  V30 6191 H 569.096 -1.5927 -2.51867 0
M  V30 6192 H 566.633 -0.796115 -1.23695 0
M  V30 6193 H 568.591 0.263197 -4.16369 0
M  V30 6194 H 567.221 0.761435 -3.13691 0
M  V30 6195 H 566.273 -1.64045 -3.4321 0
M  V30 6196 H 567.585 -1.95101 -4.59061 0
M  V30 6197 H 566.739 -0.114487 -6.06592 0
M  V30 6198 H 565.478 0.29307 -4.86819 0
M  V30 6199 H 564.483 -1.99775 -5.12221 0
M  V30 6200 H 565.708 -2.39783 -6.35359 0
M  V30 6201 H 563.654 -0.16314 -6.55797 0
M  V30 6202 H 563.571 -1.69311 -7.36797 0
M  V30 6203 H 564.839 -0.575305 -7.77374 0
M  V30 6204 N 569.068 1.32177 -0.85831 0
M  V30 6205 C 570.345 1.91781 -0.384624 0
M  V30 6206 C 570.725 1.78171 1.13217 0
M  V30 6207 O 570.073 1.18209 1.95548 0
M  V30 6208 C 570.283 3.38414 -0.853047 0
M  V30 6209 C 571.631 4.15542 -0.872359 0
M  V30 6210 O 572.655 3.47148 -0.797926 0
M  V30 6211 O 571.514 5.37678 -0.978009 0
M  V30 6212 H 568.608 0.819259 -0.112886 0
M  V30 6213 H 571.154 1.40923 -0.945453 0
M  V30 6214 H 569.926 3.4228 -1.89632 0
M  V30 6215 H 569.549 3.96683 -0.269874 0
M  V30 6216 N 570.547 0.616602 1.45037 0
M  V30 6217 C 571.795 0.115103 2.01772 0
M  V30 6218 C 572.116 -1.2622 1.48639 0
M  V30 6219 O 571.386 -1.83563 0.684199 0
M  V30 6220 H 569.966 0.0395607 0.745952 0
M  V30 6221 H 572.628 0.800032 1.77723 0
M  V30 6222 H 571.724 0.0717274 3.12018 0
M  V30 6223 N 572.025 -1.5352 0.356285 0
M  V30 6224 C 573.274 -2.00298 -0.237373 0
M  V30 6225 C 573.587 -1.24784 -1.50627 0
M  V30 6226 O 574.793 -1.62103 -2.17795 0
M  V30 6227 C 573.249 -3.56771 -0.473545 0
M  V30 6228 C 572.857 -4.41154 0.780183 0
M  V30 6229 C 574.601 -4.1193 -1.02537 0
M  V30 6230 C 572.508 -5.89161 0.514108 0
M  V30 6231 H 571.438 -0.748307 -0.092478 0
M  V30 6232 H 574.089 -1.77283 0.473588 0
M  V30 6233 H 572.471 -3.75902 -1.24553 0
M  V30 6234 H 573.645 -4.33797 1.55425 0
M  V30 6235 H 571.96 -3.97052 1.25455 0
M  V30 6236 H 574.557 -5.20133 -1.2396 0
M  V30 6237 H 574.9 -3.65943 -1.98473 0
M  V30 6238 H 575.433 -3.96561 -0.313775 0
M  V30 6239 H 572.172 -6.39408 1.44355 0
M  V30 6240 H 571.692 -5.9939 -0.221632 0
M  V30 6241 H 573.371 -6.46857 0.136122 0
M  V30 6242 N 573.503 -0.0852151 -1.57369 0
M  V30 6243 C 574.728 0.592872 -1.98746 0
M  V30 6244 C 575.153 1.61538 -0.963689 0
M  V30 6245 O 574.511 1.81168 0.069071 0
M  V30 6246 C 574.559 1.22599 -3.39119 0
M  V30 6247 O 573.663 2.34185 -3.39457 0
M  V30 6248 H 573.004 0.151314 -0.646529 0
M  V30 6249 H 575.534 -0.163703 -2.03944 0
M  V30 6250 H 575.544 1.56965 -3.76598 0
M  V30 6251 H 574.219 0.476831 -4.13158 0
M  V30 6252 H 572.796 2.01512 -3.13763 0
M  V30 6253 N 574.981 1.5647 0.188427 0
M  V30 6254 C 576.227 1.81281 0.909124 0
M  V30 6255 C 576.56 0.66034 1.82628 0
M  V30 6256 O 575.835 -0.338737 1.91528 0
M  V30 6257 C 576.118 3.16388 1.7196 0
M  V30 6258 C 575.971 4.42137 0.826714 0
M  V30 6259 C 577.29 3.48256 2.69083 0
M  V30 6260 H 574.409 0.659457 0.329068 0
M  V30 6261 H 577.051 1.89182 0.176156 0
M  V30 6262 H 575.201 3.09784 2.34448 0
M  V30 6263 H 576.873 4.60794 0.216025 0
M  V30 6264 H 575.116 4.33594 0.133792 0
M  V30 6265 H 575.787 5.33184 1.42893 0
M  V30 6266 H 578.263 3.55203 2.16726 0
M  V30 6267 H 577.139 4.43899 3.2287 0
M  V30 6268 H 577.4 2.72088 3.48455 0
M  V30 6269 N 576.459 -0.456382 1.50847 0
M  V30 6270 C 577.406 -1.55249 1.70782 0
M  V30 6271 C 578.376 -1.56757 0.549231 0
M  V30 6272 O 579.561 -1.74061 0.7815 0
M  V30 6273 C 576.701 -2.93118 1.82143 0
M  V30 6274 C 575.814 -3.01285 3.09598 0
M  V30 6275 C 574.949 -4.30159 3.11667 0
M  V30 6276 C 573.988 -4.32124 4.33515 0
M  V30 6277 N 573.125 -5.52492 4.3324 0
M  V30 6278 H 577.965 -1.37555 2.64353 0
M  V30 6279 H 575.502 -0.668543 1.3103 0
M  V30 6280 H 577.46 -3.73088 1.86711 0
M  V30 6281 H 576.09 -3.09413 0.919978 0
M  V30 6282 H 575.142 -2.14096 3.14431 0
M  V30 6283 H 576.454 -2.98597 3.99551 0
M  V30 6284 H 575.608 -5.18489 3.15046 0
M  V30 6285 H 574.347 -4.35477 2.1957 0
M  V30 6286 H 573.352 -3.42189 4.30333 0
M  V30 6287 H 574.577 -4.28485 5.26856 0
M  V30 6288 H 572.523 -5.58567 3.44004 0
M  V30 6289 H 572.44 -5.51605 5.16979 0
M  V30 6290 H 573.708 -6.42906 4.40786 0
M  V30 6291 N 577.937 -1.40673 -0.710563 0
M  V30 6292 C 579.185 -1.38947 -1.46759 0
M  V30 6293 C 579.506 0.00572879 -1.94999 0
M  V30 6294 O 578.776 0.961358 -1.70689 0
M  V30 6295 H 577.356 -0.5114 -0.544499 0
M  V30 6296 H 580.018 -1.75773 -0.842012 0
M  V30 6297 H 579.114 -2.06745 -2.33801 0
M  V30 6298 N 579.415 0.9433 -1.26252 0
M  V30 6299 C 580.378 2.02326 -1.07689 0
M  V30 6300 C 581.378 1.60779 -0.0259174 0
M  V30 6301 O 582.568 1.72108 -0.269134 0
M  V30 6302 C 579.7 3.34886 -0.63752 0
M  V30 6303 H 580.893 2.20225 -2.0357 0
M  V30 6304 H 578.446 1.12197 -1.08819 0
M  V30 6305 H 579.181 3.22684 0.323377 0
M  V30 6306 H 578.966 3.66393 -1.39637 0
M  V30 6307 H 580.456 4.14231 -0.529418 0
M  V30 6308 N 580.893 1.08022 1.14757 0
M  V30 6309 C 581.841 0.701088 2.21783 0
M  V30 6310 C 582.835 -0.291311 1.66876 0
M  V30 6311 O 584.041 -0.154296 1.79337 0
M  V30 6312 H 580.416 0.208668 0.722469 0
M  V30 6313 H 582.387 1.61321 2.51034 0
M  V30 6314 C 581.136 0.122278 3.47485 0
M  V30 6315 H 580.459 0.877065 3.90061 0
M  V30 6316 H 581.899 -0.105248 4.23869 0
M  V30 6317 C 580.358 -1.13883 3.17068 0
M  V30 6318 O 580.888 -2.22429 3.34497 0
M  V30 6319 N 579.094 -1.04767 2.71058 0
M  V30 6320 H 578.641 -0.164302 2.57075 0
M  V30 6321 H 578.599 -1.89224 2.51081 0
M  V30 6322 N 582.371 -1.3172 0.865308 0
M  V30 6323 C 583.319 -2.30569 0.306674 0
M  V30 6324 C 584.313 -1.59317 -0.575724 0
M  V30 6325 O 585.519 -1.73961 -0.462343 0
M  V30 6326 H 581.894 -0.747681 0.0804834 0
M  V30 6327 H 583.865 -2.75165 1.15441 0
M  V30 6328 C 582.614 -3.44358 -0.480952 0
M  V30 6329 H 581.937 -3.99354 0.18876 0
M  V30 6330 H 583.377 -4.15652 -0.837241 0
M  V30 6331 C 581.836 -2.92574 -1.67039 0
M  V30 6332 O 582.366 -2.90954 -2.76964 0
M  V30 6333 N 580.572 -2.48835 -1.50097 0
M  V30 6334 H 580.119 -2.50353 -0.606738 0
M  V30 6335 H 580.077 -2.14543 -2.29823 0
M  V30 6336 N 583.85 -0.624285 -1.44708 0
M  V30 6337 C 585.075 -0.131171 -2.06985 0
M  V30 6338 C 585.5 1.18234 -1.46295 0
M  V30 6339 O 584.858 1.72375 -0.561842 0
M  V30 6340 C 584.906 -0.0226724 -3.60593 0
M  V30 6341 O 584.01 1.02314 -3.99507 0
M  V30 6342 H 583.351 -0.0816556 -0.65896 0
M  V30 6343 H 585.88 -0.859027 -1.85693 0
M  V30 6344 H 585.891 0.170138 -4.07645 0
M  V30 6345 H 584.566 -0.981685 -4.04148 0
M  V30 6346 H 583.143 0.805452 -3.64097 0
M  V30 6347 N 585.328 1.53329 -0.364422 0
M  V30 6348 C 586.276 2.27212 0.497737 0
M  V30 6349 C 587.27 1.30146 1.08437 0
M  V30 6350 O 588.476 1.47778 1.0277 0
M  V30 6351 H 584.851 0.730329 0.179232 0
M  V30 6352 H 586.822 2.98037 -0.147182 0
M  V30 6353 C 585.571 3.07333 1.6261 0
M  V30 6354 H 584.894 3.81866 1.184 0
M  V30 6355 H 586.334 3.62209 2.20409 0
M  V30 6356 C 584.793 2.18102 2.56775 0
M  V30 6357 O 585.323 1.79104 3.59562 0
M  V30 6358 N 583.529 1.82759 2.25937 0
M  V30 6359 H 583.076 2.14671 1.42387 0
M  V30 6360 H 583.034 1.23342 2.89196 0
M  V30 6361 N 586.806 0.0935595 1.57322 0
M  V30 6362 C 588.034 -0.578934 1.98635 0
M  V30 6363 C 588.449 -1.61819 0.972626 0
M  V30 6364 O 587.806 -1.82461 -0.0379638 0
M  V30 6365 C 587.857 -1.22802 3.40003 0
M  V30 6366 O 587.578 -0.230334 4.37494 0
M  V30 6367 C 589.079 -1.98627 3.96311 0
M  V30 6368 H 586.299 -0.155324 0.652775 0
M  V30 6369 H 588.843 0.172393 2.03772 0
M  V30 6370 H 586.998 -1.93029 3.35885 0
M  V30 6371 H 587.412 -0.698649 5.19826 0
M  V30 6372 H 588.886 -2.39405 4.97382 0
M  V30 6373 H 589.363 -2.85151 3.34044 0
M  V30 6374 H 589.969 -1.3322 4.03897 0
M  V30 6375 N 588.284 -1.56567 -0.180126 0
M  V30 6376 C 589.512 -1.85618 -0.913972 0
M  V30 6377 C 589.927 -0.677892 -1.7621 0
M  V30 6378 O 589.284 0.353171 -1.7905 0
M  V30 6379 C 589.335 -3.13619 -1.79793 0
M  V30 6380 O 589.056 -4.26906 -0.98402 0
M  V30 6381 C 590.557 -3.55954 -2.64219 0
M  V30 6382 H 587.777 -0.616043 -0.265954 0
M  V30 6383 H 590.321 -2.03681 -0.182872 0
M  V30 6384 H 588.476 -2.97409 -2.48247 0
M  V30 6385 H 588.89 -4.9989 -1.58776 0
M  V30 6386 H 590.364 -4.48444 -3.21873 0
M  V30 6387 H 590.841 -2.79653 -3.38661 0
M  V30 6388 H 591.447 -3.74746 -2.01111 0
M  V30 6389 N 589.762 0.448376 -1.51087 0
M  V30 6390 C 590.71 1.56407 -1.72161 0
M  V30 6391 C 591.704 1.58878 -0.587721 0
M  V30 6392 O 592.91 1.62755 -0.768822 0
M  V30 6393 H 589.285 0.519423 -0.543786 0
M  V30 6394 H 591.256 1.35803 -2.65707 0
M  V30 6395 C 590.005 2.94163 -1.85373 0
M  V30 6396 H 589.328 2.9299 -2.72024 0
M  V30 6397 H 590.768 3.71625 -2.04135 0
M  V30 6398 C 589.227 3.31317 -0.610803 0
M  V30 6399 O 589.757 4.00985 0.239636 0
M  V30 6400 N 587.963 2.86966 -0.458127 0
M  V30 6401 H 587.51 2.30443 -1.15124 0
M  V30 6402 H 587.468 3.12188 0.372289 0
M  V30 6403 N 591.24 1.41047 0.703093 0
M  V30 6404 C 592.651 1.35657 1.28274 0
M  V30 6405 C 593.002 0.0360309 1.96167 0
M  V30 6406 O 592.127 -0.865833 1.98324 0
M  V30 6407 C 592.722 2.45707 2.33267 0
M  V30 6408 C 591.281 2.43738 2.86825 0
M  V30 6409 C 590.428 2.25941 1.60767 0
M  V30 6410 H 593.379 1.50672 0.49836 0
M  V30 6411 H 593.4 2.14333 3.14391 0
M  V30 6412 H 592.912 3.41805 1.83824 0
M  V30 6413 H 591.013 1.51375 3.40465 0
M  V30 6414 H 591.126 3.39779 3.37768 0
M  V30 6415 H 589.49 1.73681 1.86298 0
M  V30 6416 H 590.273 3.24054 1.1333 0
M  V30 6417 N 592.718 -0.936591 1.26751 0
M  V30 6418 C 594.129 -1.49816 1.1141 0
M  V30 6419 C 594.48 -1.9383 -0.304015 0
M  V30 6420 O 593.605 -1.80346 -1.196 0
M  V30 6421 C 594.2 -2.72271 2.01629 0
M  V30 6422 C 592.759 -3.2468 1.9042 0
M  V30 6423 C 591.906 -1.97444 1.94708 0
M  V30 6424 H 594.857 -0.751604 1.39773 0
M  V30 6425 H 594.878 -3.46741 1.56688 0
M  V30 6426 H 594.39 -2.40205 3.04833 0
M  V30 6427 H 592.491 -3.61525 0.901674 0
M  V30 6428 H 592.604 -3.91476 2.76195 0
M  V30 6429 H 590.968 -2.13545 1.38818 0
M  V30 6430 H 591.751 -1.67703 2.9955 0
M  V30 6431 N 594.196 -1.08629 -1.14182 0
M  V30 6432 C 595.607 -0.838003 -1.66836 0
M  V30 6433 C 595.958 0.634885 -1.85644 0
M  V30 6434 O 595.083 1.49008 -1.56926 0
M  V30 6435 C 595.678 -1.51465 -3.03058 0
M  V30 6436 C 594.237 -1.31355 -3.52736 0
M  V30 6437 C 593.384 -1.57599 -2.28162 0
M  V30 6438 H 596.335 -1.24656 -0.982165 0
M  V30 6439 H 596.356 -0.943134 -3.68626 0
M  V30 6440 H 595.868 -2.58661 -2.89337 0
M  V30 6441 H 593.969 -0.262384 -3.71675 0
M  V30 6442 H 594.082 -2.04275 -4.33369 0
M  V30 6443 H 592.446 -0.997659 -2.34348 0
M  V30 6444 H 593.229 -2.66006 -2.17015 0
M  V30 6445 N 595.674 1.31259 -0.872281 0
M  V30 6446 C 596.637 2.26744 -0.334656 0
M  V30 6447 C 597.637 1.52307 0.515681 0
M  V30 6448 O 598.827 1.71148 0.324656 0
M  V30 6449 C 595.959 3.36841 0.524482 0
M  V30 6450 H 597.152 2.75812 -1.17762 0
M  V30 6451 H 594.705 1.42232 -0.648064 0
M  V30 6452 H 595.44 2.93069 1.38855 0
M  V30 6453 H 595.225 3.92009 -0.0844299 0
M  V30 6454 H 596.715 4.07944 0.892838 0
M  V30 6455 N 597.152 0.631951 1.44375 0
M  V30 6456 C 598.563 0.219036 1.85411 0
M  V30 6457 C 598.914 -1.22974 1.52879 0
M  V30 6458 O 598.039 -1.93579 0.967266 0
M  V30 6459 C 598.634 0.39075 3.36539 0
M  V30 6460 C 597.193 0.0323351 3.76386 0
M  V30 6461 C 596.34 0.703744 2.68221 0
M  V30 6462 H 599.291 0.837056 1.3483 0
M  V30 6463 H 599.312 -0.370056 3.78696 0
M  V30 6464 H 598.824 1.44527 3.60185 0
M  V30 6465 H 596.925 -1.02042 3.58355 0
M  V30 6466 H 597.038 0.442969 4.77048 0
M  V30 6467 H 595.402 0.138974 2.54321 0
M  V30 6468 H 596.185 1.76088 2.947 0
M  V30 6469 N 598.631 -1.53133 0.372548 0
M  V30 6470 C 599.856 -2.0625 -0.218098 0
M  V30 6471 C 600.281 -1.24375 -1.41111 0
M  V30 6472 O 599.639 -0.264554 -1.79359 0
M  V30 6473 C 599.687 -3.55858 -0.582876 0
M  V30 6474 O 598.791 -3.76667 -1.67917 0
M  V30 6475 H 598.132 -0.663317 -0.030104 0
M  V30 6476 H 600.662 -1.97477 0.535169 0
M  V30 6477 H 600.672 -3.99007 -0.851925 0
M  V30 6478 H 599.347 -4.14892 0.289428 0
M  V30 6479 H 597.924 -3.45413 -1.40513 0
M  V30 6480 N 600.109 -0.101901 -1.5727 0
M  V30 6481 C 601.056 0.854577 -2.14396 0
M  V30 6482 C 602.026 1.27521 -1.06432 0
M  V30 6483 O 603.211 1.35575 -1.34253 0
M  V30 6484 C 600.351 2.10576 -2.73408 0
M  V30 6485 C 599.464 1.73504 -3.95626 0
M  V30 6486 C 598.599 2.9346 -4.42781 0
M  V30 6487 C 597.638 2.52547 -5.57572 0
M  V30 6488 N 596.775 3.65359 -5.99547 0
M  V30 6489 H 601.615 0.360578 -2.9581 0
M  V30 6490 H 599.152 0.166303 -1.46157 0
M  V30 6491 H 601.11 2.83859 -3.05745 0
M  V30 6492 H 599.74 2.57463 -1.94711 0
M  V30 6493 H 598.792 0.901622 -3.6956 0
M  V30 6494 H 600.104 1.39426 -4.78917 0
M  V30 6495 H 599.258 3.74988 -4.76937 0
M  V30 6496 H 597.997 3.30753 -3.58404 0
M  V30 6497 H 597.002 1.69446 -5.23037 0
M  V30 6498 H 598.227 2.1639 -6.43702 0
M  V30 6499 H 596.173 4.02358 -5.18116 0
M  V30 6500 H 596.09 3.35148 -6.77652 0
M  V30 6501 H 597.358 4.47378 -6.38336 0
M  V30 6502 N 601.587 1.56661 0.17182 0
M  V30 6503 C 602.812 1.86459 0.908165 0
M  V30 6504 C 603.237 0.688181 1.75059 0
M  V30 6505 O 602.595 -0.362753 1.77634 0
M  V30 6506 C 602.643 3.14669 1.76112 0
M  V30 6507 O 601.747 2.96858 2.86268 0
M  V30 6508 H 601.088 0.613318 0.254434 0
M  V30 6509 H 603.618 2.03892 0.170113 0
M  V30 6510 H 603.628 3.46061 2.16115 0
M  V30 6511 H 602.303 3.99905 1.14233 0
M  V30 6512 H 600.88 2.76819 2.49852 0
M  V30 6513 N 603.065 -0.440357 1.51323 0
M  V30 6514 C 604.476 -1.02032 1.56353 0
M  V30 6515 C 604.827 -1.92382 0.385197 0
M  V30 6516 O 603.952 -2.10583 -0.498373 0
M  V30 6517 C 604.547 -1.85723 2.83359 0
M  V30 6518 C 603.106 -2.38774 2.90971 0
M  V30 6519 C 602.253 -1.17908 2.50984 0
M  V30 6520 H 605.204 -0.221744 1.57143 0
M  V30 6521 H 605.225 -2.71141 2.66951 0
M  V30 6522 H 604.737 -1.19939 3.69102 0
M  V30 6523 H 602.838 -3.08021 2.09651 0
M  V30 6524 H 602.951 -2.71778 3.94555 0
M  V30 6525 H 601.315 -1.52347 2.04114 0
M  V30 6526 H 602.098 -0.537393 3.39068 0
M  V30 6527 N 604.543 -1.41418 -0.695603 0
M  V30 6528 C 605.453 -1.45622 -1.83933 0
M  V30 6529 C 606.469 -0.346825 -1.70508 0
M  V30 6530 O 607.645 -0.59454 -1.92424 0
M  V30 6531 C 604.71 -1.33627 -3.19914 0
M  V30 6532 C 603.771 -2.54882 -3.45447 0
M  V30 6533 C 603.004 -2.43449 -4.7494 0
M  V30 6534 O 603.227 -1.45905 -5.51424 0
M  V30 6535 O 602.161 -3.33206 -5.01256 0
M  V30 6536 H 605.987 -2.42114 -1.83342 0
M  V30 6537 H 603.572 -1.22956 -0.848658 0
M  V30 6538 H 605.454 -1.29221 -4.01098 0
M  V30 6539 H 604.129 -0.402508 -3.21188 0
M  V30 6540 H 603.036 -2.64865 -2.64192 0
M  V30 6541 H 604.369 -3.47087 -3.48987 0
M  V30 6542 N 606.021 0.929856 -1.27246 0
M  V30 6543 C 606.931 2.0636 -1.11592 0
M  V30 6544 C 607.947 1.73938 -0.046496 0
M  V30 6545 O 609.123 1.9981 -0.252544 0
M  V30 6546 C 606.188 3.38213 -0.762437 0
M  V30 6547 C 605.249 3.84346 -1.9125 0
M  V30 6548 C 604.482 5.09906 -1.57579 0
M  V30 6549 O 604.705 5.68354 -0.482694 0
M  V30 6550 O 603.639 5.51359 -2.41426 0
M  V30 6551 H 607.465 2.22478 -2.0673 0
M  V30 6552 H 605.05 1.04865 -1.06413 0
M  V30 6553 H 606.932 4.1741 -0.57854 0
M  V30 6554 H 605.607 3.23307 0.159439 0
M  V30 6555 H 604.514 3.06045 -2.15144 0
M  V30 6556 H 605.847 4.0379 -2.81451 0
M  V30 6557 N 607.499 1.09233 1.13605 0
M  V30 6558 C 608.432 0.6739 2.18023 0
M  V30 6559 C 609.41 -0.318603 1.59448 0
M  V30 6560 O 610.594 -0.220452 1.87206 0
M  V30 6561 C 607.721 -0.00751458 3.38699 0
M  V30 6562 C 606.767 0.946481 4.15865 0
M  V30 6563 S 607.6 2.45753 4.75779 0
M  V30 6564 C 608.756 1.78846 5.99804 0
M  V30 6565 H 608.989 1.55846 2.53178 0
M  V30 6566 H 606.522 0.908118 1.2487 0
M  V30 6567 H 608.48 -0.394368 4.08601 0
M  V30 6568 H 607.141 -0.868693 3.01849 0
M  V30 6569 H 606.334 0.416742 5.02274 0
M  V30 6570 H 605.936 1.27464 3.51609 0
M  V30 6571 H 608.228 1.11135 6.68323 0
M  V30 6572 H 609.171 2.63163 6.57382 0
M  V30 6573 H 609.579 1.25823 5.50299 0
M  V30 6574 N 608.977 -1.30795 0.87923 0
M  V30 6575 C 610.393 -1.48981 0.57243 0
M  V30 6576 C 610.593 -1.80719 -0.891236 0
M  V30 6577 O 609.649 -1.89136 -1.67283 0
M  V30 6578 C 610.962 -2.61721 1.48063 0
M  V30 6579 C 612.51 -2.75603 1.48365 0
M  V30 6580 C 612.985 -3.91449 2.37763 0
M  V30 6581 N 614.476 -3.98751 2.35695 0
M  V30 6582 C 615.211 -4.87684 3.01583 0
M  V30 6583 N 614.707 -5.81454 3.76674 0
M  V30 6584 N 616.5 -4.81005 2.90844 0
M  V30 6585 H 608.651 -1.08465 1.82617 0
M  V30 6586 H 610.914 -0.536813 0.781368 0
M  V30 6587 H 610.62 -2.45073 2.52254 0
M  V30 6588 H 610.494 -3.58071 1.18596 0
M  V30 6589 H 612.881 -2.9166 0.44927 0
M  V30 6590 H 612.962 -1.79891 1.81859 0
M  V30 6591 H 612.606 -3.76149 3.41283 0
M  V30 6592 H 612.536 -4.86487 2.01589 0
M  V30 6593 H 615.027 -3.31668 1.81121 0
M  V30 6594 H 615.34 -6.46063 4.24054 0
M  V30 6595 H 613.685 -5.81403 3.80782 0
M  V30 6596 H 616.876 -4.06728 2.31711 0
M  V30 6597 H 617.049 -5.50107 3.42471 0
M  V30 6598 N 610.455 -0.639598 -1.44038 0
M  V30 6599 C 611.402 0.0602458 -2.30721 0
M  V30 6600 C 612.372 0.828352 -1.43971 0
M  V30 6601 O 613.557 0.807693 -1.72861 0
M  V30 6602 C 610.697 1.03008 -3.29368 0
M  V30 6603 C 609.81 0.259502 -4.3122 0
M  V30 6604 C 608.945 1.22191 -5.16955 0
M  V30 6605 C 607.984 0.440978 -6.10509 0
M  V30 6606 N 607.121 1.35428 -6.88915 0
M  V30 6607 H 611.961 -0.684867 -2.90023 0
M  V30 6608 H 609.498 -0.349509 -1.42888 0
M  V30 6609 H 611.456 1.60583 -3.85057 0
M  V30 6610 H 610.086 1.74222 -2.71747 0
M  V30 6611 H 609.138 -0.432317 -3.77935 0
M  V30 6612 H 610.45 -0.348347 -4.97582 0
M  V30 6613 H 609.604 1.86873 -5.77203 0
M  V30 6614 H 608.343 1.86367 -4.50687 0
M  V30 6615 H 607.348 -0.219279 -5.49363 0
M  V30 6616 H 608.573 -0.196192 -6.78817 0
M  V30 6617 H 606.519 1.9831 -6.25307 0
M  V30 6618 H 606.436 0.800657 -7.51748 0
M  V30 6619 H 607.704 1.98967 -7.53679 0
M  V30 6620 N 611.933 1.52934 -0.380664 0
M  V30 6621 C 612.863 2.29118 0.450268 0
M  V30 6622 C 613.844 1.32153 1.07096 0
M  V30 6623 O 615.029 1.61038 1.08537 0
M  V30 6624 C 612.159 3.09161 1.58231 0
M  V30 6625 C 611.113 4.13938 1.0881 0
M  V30 6626 C 610.439 4.82153 2.31155 0
M  V30 6627 C 611.739 5.22048 0.162146 0
M  V30 6628 H 613.433 2.98826 -0.185361 0
M  V30 6629 H 610.979 1.43715 -0.0905886 0
M  V30 6630 H 612.932 3.61211 2.17036 0
M  V30 6631 H 611.656 2.3717 2.2454 0
M  V30 6632 H 610.315 3.62855 0.522633 0
M  V30 6633 H 609.963 4.06719 2.95953 0
M  V30 6634 H 609.663 5.52966 1.98752 0
M  V30 6635 H 611.187 5.37004 2.90618 0
M  V30 6636 H 612.601 5.6951 0.658126 0
M  V30 6637 H 610.998 6.00057 -0.0717122 0
M  V30 6638 H 612.068 4.78398 -0.791438 0
M  V30 6639 N 613.412 0.11024 1.57214 0
M  V30 6640 C 614.659 -0.54987 1.94891 0
M  V30 6641 C 614.987 -1.67243 0.992984 0
M  V30 6642 O 614.242 -1.95694 0.0152703 0
M  V30 6643 C 614.541 -1.13102 3.39032 0
M  V30 6644 C 614.207 -0.130713 4.5071 0
M  V30 6645 C 612.869 0.14437 4.80983 0
M  V30 6646 C 615.221 0.551472 5.18274 0
M  V30 6647 C 612.549 1.10807 5.76141 0
M  V30 6648 C 614.901 1.50375 6.14467 0
M  V30 6649 C 613.565 1.78691 6.43138 0
M  V30 6650 H 612.835 -0.201212 0.713158 0
M  V30 6651 H 615.482 0.189288 1.90562 0
M  V30 6652 H 613.787 -1.94675 3.40013 0
M  V30 6653 H 615.484 -1.64973 3.65493 0
M  V30 6654 H 612.074 -0.355301 4.27125 0
M  V30 6655 H 616.258 0.35211 4.95049 0
M  V30 6656 H 611.514 1.3343 5.96663 0
M  V30 6657 H 615.688 2.03808 6.65909 0
M  V30 6658 H 613.315 2.53522 7.1668 0
M  V30 6659 N 614.89 -1.56749 -0.16351 0
M  V30 6660 C 616.139 -1.81626 -0.877211 0
M  V30 6661 C 616.452 -0.688791 -1.83071 0
M  V30 6662 O 617.658 -0.822697 -2.58735 0
M  V30 6663 C 616.114 -3.21858 -1.61045 0
M  V30 6664 C 615.722 -4.42494 -0.700195 0
M  V30 6665 C 617.466 -3.56021 -2.31192 0
M  V30 6666 C 615.373 -5.73748 -1.43412 0
M  V30 6667 H 614.303 -0.67731 -0.331312 0
M  V30 6668 H 616.954 -1.83039 -0.13006 0
M  V30 6669 H 615.336 -3.14784 -2.40264 0
M  V30 6670 H 616.51 -4.60766 0.0555849 0
M  V30 6671 H 614.825 -4.1626 -0.10799 0
M  V30 6672 H 617.422 -4.51333 -2.8671 0
M  V30 6673 H 617.765 -2.81277 -3.06902 0
M  V30 6674 H 618.298 -3.64682 -1.58909 0
M  V30 6675 H 615.037 -6.51543 -0.719186 0
M  V30 6676 H 614.557 -5.5944 -2.16302 0
M  V30 6677 H 616.236 -6.15975 -1.9795 0
M  V30 6678 N 616.368 0.432326 -1.51554 0
M  V30 6679 C 617.3 1.54357 -1.6943 0
M  V30 6680 C 618.313 1.52311 -0.574897 0
M  V30 6681 O 619.502 1.56997 -0.849369 0
M  V30 6682 C 616.602 2.93273 -1.69836 0
M  V30 6683 C 615.775 3.19768 -2.98442 0
M  V30 6684 C 614.834 4.38433 -2.90969 0
M  V30 6685 O 613.86 4.36842 -3.64908 0
M  V30 6686 N 615.062 5.42276 -2.07163 0
M  V30 6687 H 617.827 1.39426 -2.65293 0
M  V30 6688 H 615.388 0.621331 -1.49503 0
M  V30 6689 H 617.38 3.70687 -1.62399 0
M  V30 6690 H 615.95 3.01777 -0.815456 0
M  V30 6691 H 615.17 2.30607 -3.19709 0
M  V30 6692 H 616.458 3.343 -3.83563 0
M  V30 6693 H 615.856 5.46407 -1.46477 0
M  V30 6694 H 614.413 6.18524 -2.05601 0
M  V30 6695 N 617.846 1.41785 0.688094 0
M  V30 6696 C 619.262 1.24419 0.999608 0
M  V30 6697 C 619.462 0.138868 2.01021 0
M  V30 6698 O 618.518 -0.494283 2.47615 0
M  V30 6699 C 619.831 2.59625 1.51709 0
M  V30 6700 C 621.379 2.66869 1.63554 0
M  V30 6701 C 621.854 4.0241 2.18702 0
M  V30 6702 N 623.345 4.04295 2.26053 0
M  V30 6703 C 624.08 5.05977 2.69768 0
M  V30 6704 N 623.576 6.18047 3.13033 0
M  V30 6705 N 625.369 4.93336 2.69398 0
M  V30 6706 H 617.52 2.12392 0.0187427 0
M  V30 6707 H 619.783 0.945347 0.0708673 0
M  V30 6708 H 619.489 3.41297 0.849059 0
M  V30 6709 H 619.363 2.82628 2.49803 0
M  V30 6710 H 621.75 1.8555 2.29467 0
M  V30 6711 H 621.831 2.47668 0.639857 0
M  V30 6712 H 621.475 4.8418 1.53402 0
M  V30 6713 H 621.405 4.18955 3.19037 0
M  V30 6714 H 623.896 3.23383 1.9553 0
M  V30 6715 H 624.209 6.91498 3.45038 0
M  V30 6716 H 622.554 6.21572 3.10923 0
M  V30 6717 H 625.745 4.04865 2.34952 0
M  V30 6718 H 625.918 5.72717 3.03148 0
M  V30 6719 N 619.324 -0.923095 1.27737 0
M  V30 6720 C 620.287 -2.00587 1.10894 0
M  V30 6721 C 621.287 -1.60718 0.0514927 0
M  V30 6722 O 622.477 -1.71658 0.296481 0
M  V30 6723 C 619.609 -3.33829 0.690717 0
M  V30 6724 H 620.802 -2.16959 2.07048 0
M  V30 6725 H 618.355 -1.10451 1.1059 0
M  V30 6726 H 619.09 -3.23157 -0.272 0
M  V30 6727 H 618.875 -3.64125 1.45448 0
M  V30 6728 H 620.365 -4.13336 0.595252 0
M  V30 6729 N 620.802 -1.09834 -1.13024 0
M  V30 6730 C 621.749 -0.741522 -2.18564 0
M  V30 6731 C 622.719 0.279236 -1.63736 0
M  V30 6732 O 623.904 0.159923 -1.90129 0
M  V30 6733 C 621.044 -0.17277 -3.44667 0
M  V30 6734 C 620.157 -1.24808 -4.13578 0
M  V30 6735 C 619.292 -0.641631 -5.27311 0
M  V30 6736 C 618.331 -1.69795 -5.88078 0
M  V30 6737 N 617.468 -1.11223 -6.93234 0
M  V30 6738 H 622.308 -1.64576 -2.48432 0
M  V30 6739 H 619.845 -0.822174 -1.21978 0
M  V30 6740 H 621.803 0.17482 -4.16834 0
M  V30 6741 H 620.433 0.694725 -3.15235 0
M  V30 6742 H 619.485 -1.71288 -3.39653 0
M  V30 6743 H 620.797 -2.04795 -4.54819 0
M  V30 6744 H 619.951 -0.243128 -6.06213 0
M  V30 6745 H 618.69 0.189742 -4.87331 0
M  V30 6746 H 617.695 -2.10595 -5.07868 0
M  V30 6747 H 618.92 -2.53206 -6.3013 0
M  V30 6748 H 616.866 -0.302208 -6.55304 0
M  V30 6749 H 616.783 -1.84901 -7.3304 0
M  V30 6750 H 618.051 -0.740068 -7.75979 0
M  V30 6751 N 622.28 1.30327 -0.886154 0
M  V30 6752 C 623.227 2.28099 -0.352069 0
M  V30 6753 C 624.197 1.56433 0.558397 0
M  V30 6754 O 625.382 1.84492 0.486561 0
M  V30 6755 C 622.522 3.42456 0.426346 0
M  V30 6756 C 621.635 4.28938 -0.513472 0
M  V30 6757 C 620.77 5.30458 0.280657 0
M  V30 6758 C 619.809 6.0859 -0.654556 0
M  V30 6759 N 618.946 7.02022 0.104322 0
M  V30 6760 H 623.786 2.73166 -1.19097 0
M  V30 6761 H 621.323 1.34367 -0.598662 0
M  V30 6762 H 623.281 4.07518 0.893587 0
M  V30 6763 H 621.911 2.98455 1.22981 0
M  V30 6764 H 620.963 3.64173 -1.09921 0
M  V30 6765 H 622.275 4.83399 -1.2299 0
M  V30 6766 H 621.429 6.01273 0.8097 0
M  V30 6767 H 620.168 4.76693 1.03029 0
M  V30 6768 H 619.173 5.36651 -1.19522 0
M  V30 6769 H 620.398 6.64443 -1.4033 0
M  V30 6770 H 618.344 6.50645 0.836472 0
M  V30 6771 H 618.261 7.53979 -0.552453 0
M  V30 6772 H 619.529 7.77077 0.614069 0
M  V30 6773 N 623.758 0.647228 1.43697 0
M  V30 6774 C 625.007 0.155552 2.01099 0
M  V30 6775 C 625.32 -1.23569 1.51624 0
M  V30 6776 O 626.526 -1.82226 2.01261 0
M  V30 6777 C 624.982 0.227296 3.59182 0
M  V30 6778 C 624.59 1.62086 4.17651 0
M  V30 6779 C 626.334 -0.207085 4.23995 0
M  V30 6780 C 624.241 1.64685 5.68008 0
M  V30 6781 H 623.171 0.0543895 0.752036 0
M  V30 6782 H 625.822 0.808386 1.64734 0
M  V30 6783 H 624.204 -0.492937 3.9292 0
M  V30 6784 H 625.378 2.36597 3.95422 0
M  V30 6785 H 623.693 2.0007 3.65186 0
M  V30 6786 H 626.29 -0.207426 5.34298 0
M  V30 6787 H 626.633 -1.23742 3.97484 0
M  V30 6788 H 627.166 0.461193 3.95118 0
M  V30 6789 H 623.905 2.65608 5.99277 0
M  V30 6790 H 623.425 0.944914 5.9231 0
M  V30 6791 H 625.104 1.38792 6.31938 0
M  V30 6792 N 625.236 -1.5273 0.388769 0
M  V30 6793 C 626.513 -1.93981 -0.251133 0
M  V30 6794 C 626.893 -1.32418 -1.64404 0
M  V30 6795 O 626.241 -0.492074 -2.23139 0
M  V30 6796 C 626.451 -3.47891 -0.27802 0
M  V30 6797 C 627.799 -4.21559 -0.507229 0
M  V30 6798 O 628.823 -3.54394 -0.358252 0
M  V30 6799 O 627.682 -5.40626 -0.799094 0
M  V30 6800 H 624.776 -0.812157 -0.15598 0
M  V30 6801 H 627.322 -1.63809 0.443237 0
M  V30 6802 H 626.094 -3.8503 0.697669 0
M  V30 6803 H 625.717 -3.84364 -1.01733 0
M  V30 6804 N 626.714 -0.118576 -1.57153 0
M  V30 6805 C 627.661 0.831789 -2.1529 0
M  V30 6806 C 628.631 1.26385 -1.07778 0
M  V30 6807 O 629.816 1.34144 -1.35684 0
M  V30 6808 C 626.956 2.07664 -2.75626 0
M  V30 6809 C 626.069 1.69298 -3.97444 0
M  V30 6810 C 625.204 2.88747 -4.45868 0
M  V30 6811 C 624.243 2.46619 -5.60219 0
M  V30 6812 N 623.38 3.5898 -6.03389 0
M  V30 6813 H 628.22 0.329183 -2.96176 0
M  V30 6814 H 625.757 0.150792 -1.46325 0
M  V30 6815 H 627.715 2.80601 -3.08738 0
M  V30 6816 H 626.345 2.55384 -1.97431 0
M  V30 6817 H 625.397 0.862374 -3.70496 0
M  V30 6818 H 626.709 1.34338 -4.80369 0
M  V30 6819 H 625.863 3.69909 -4.80887 0
M  V30 6820 H 624.602 3.26933 -3.61892 0
M  V30 6821 H 623.607 1.63889 -5.24805 0
M  V30 6822 H 624.832 2.0955 -6.45961 0
M  V30 6823 H 622.778 3.9684 -5.22354 0
M  V30 6824 H 622.695 3.27942 -6.81168 0
M  V30 6825 H 623.963 4.40583 -6.43045 0
M  V30 6826 N 628.193 1.56834 0.155195 0
M  V30 6827 C 629.442 1.82088 0.867567 0
M  V30 6828 C 629.755 0.69849 1.82703 0
M  V30 6829 O 630.961 0.836407 2.58295 0
M  V30 6830 C 629.417 3.22707 1.59336 0
M  V30 6831 C 629.025 4.42859 0.676719 0
M  V30 6832 C 630.769 3.57242 2.293 0
M  V30 6833 C 628.676 5.74501 1.40367 0
M  V30 6834 H 627.606 0.679057 0.327715 0
M  V30 6835 H 630.257 1.83105 0.120351 0
M  V30 6836 H 628.639 3.16054 2.38591 0
M  V30 6837 H 629.813 4.60731 -0.0800196 0
M  V30 6838 H 628.128 4.16311 0.0859129 0
M  V30 6839 H 630.725 4.52847 2.84312 0
M  V30 6840 H 631.068 2.82901 3.05406 0
M  V30 6841 H 631.601 3.6552 1.56972 0
M  V30 6842 H 628.34 6.51915 0.684623 0
M  V30 6843 H 627.86 5.60579 2.13332 0
M  V30 6844 H 629.539 6.17016 1.94681 0
M  V30 6845 N 629.671 -0.424282 1.51781 0
M  V30 6846 C 630.896 -1.19928 1.6921 0
M  V30 6847 C 631.321 -1.8392 0.394355 0
M  V30 6848 O 630.679 -1.69371 -0.646778 0
M  V30 6849 C 630.727 -2.24937 2.81843 0
M  V30 6850 O 629.831 -3.3073 2.46356 0
M  V30 6851 H 629.172 -0.35078 0.563781 0
M  V30 6852 H 631.702 -0.499401 1.98412 0
M  V30 6853 H 631.712 -2.69512 3.06312 0
M  V30 6854 H 630.387 -1.77742 3.76006 0
M  V30 6855 H 628.964 -2.9154 2.32505 0
M  V30 6856 N 631.149 -1.42148 -0.680565 0
M  V30 6857 C 632.565 -1.24947 -0.992995 0
M  V30 6858 C 632.765 -0.149527 -2.00944 0
M  V30 6859 O 631.821 0.481145 -2.47873 0
M  V30 6860 C 633.134 -2.60426 -1.5033 0
M  V30 6861 C 634.682 -2.67733 -1.62137 0
M  V30 6862 C 635.157 -4.03564 -2.16565 0
M  V30 6863 N 636.648 -4.05488 -2.23905 0
M  V30 6864 C 637.383 -5.07401 -2.67081 0
M  V30 6865 N 636.879 -6.19698 -3.09751 0
M  V30 6866 N 638.672 -4.94758 -2.66778 0
M  V30 6867 H 630.823 -2.12399 -0.0074788 0
M  V30 6868 H 633.086 -0.94571 -0.0658529 0
M  V30 6869 H 632.792 -3.41743 -0.830947 0
M  V30 6870 H 632.666 -2.83949 -2.483 0
M  V30 6871 H 635.053 -1.86765 -2.2848 0
M  V30 6872 H 635.134 -2.48004 -0.626713 0
M  V30 6873 H 634.778 -4.84987 -1.50833 0
M  V30 6874 H 634.708 -4.20641 -3.1681 0
M  V30 6875 H 637.199 -3.24415 -1.93812 0
M  V30 6876 H 637.512 -6.93318 -3.41365 0
M  V30 6877 H 635.857 -6.23212 -3.07623 0
M  V30 6878 H 639.048 -4.06105 -2.32801 0
M  V30 6879 H 639.221 -5.74317 -3.00107 0
M  V30 6880 N 632.627 0.916307 -1.28225 0
M  V30 6881 C 633.876 1.65975 -1.14608 0
M  V30 6882 C 634.189 1.93204 0.305191 0
M  V30 6883 O 635.395 2.65611 0.562432 0
M  V30 6884 C 633.851 2.98989 -2.00333 0
M  V30 6885 C 633.459 2.79417 -3.50186 0
M  V30 6886 C 635.203 3.76856 -1.95397 0
M  V30 6887 C 633.11 4.08056 -4.28071 0
M  V30 6888 H 632.04 0.622587 -0.425324 0
M  V30 6889 H 634.691 1.01705 -1.52736 0
M  V30 6890 H 633.073 3.6438 -1.5506 0
M  V30 6891 H 634.247 2.22723 -4.034 0
M  V30 6892 H 632.562 2.14966 -3.56621 0
M  V30 6893 H 635.159 4.72203 -2.50856 0
M  V30 6894 H 635.502 4.05776 -0.930137 0
M  V30 6895 H 636.035 3.1828 -2.38626 0
M  V30 6896 H 632.774 3.8431 -5.31024 0
M  V30 6897 H 632.294 4.64371 -3.79631 0
M  V30 6898 H 633.973 4.76333 -4.37854 0
M  V30 6899 N 634.105 1.10431 1.1244 0
M  V30 6900 C 635.353 0.845045 1.83585 0
M  V30 6901 C 635.674 -0.631168 1.84503 0
M  V30 6902 O 634.944 -1.45825 1.30813 0
M  V30 6903 H 633.524 0.309628 0.679809 0
M  V30 6904 H 636.186 1.39458 1.36153 0
M  V30 6905 H 635.282 1.20786 2.8778 0
M  V30 6906 N 635.583 -1.29855 0.893053 0
M  V30 6907 C 636.83 -1.95826 0.515585 0
M  V30 6908 C 637.158 -1.70451 -0.936842 0
M  V30 6909 O 636.413 -1.00657 -1.67829 0
M  V30 6910 C 636.712 -3.49515 0.746588 0
M  V30 6911 C 636.378 -3.94955 2.17535 0
M  V30 6912 C 635.04 -4.07073 2.56603 0
M  V30 6913 C 637.392 -4.18536 3.10607 0
M  V30 6914 C 634.72 -4.40138 3.87938 0
M  V30 6915 C 637.072 -4.53073 4.41484 0
M  V30 6916 C 635.736 -4.634 4.80434 0
M  V30 6917 H 635.006 -0.71658 0.188666 0
M  V30 6918 H 637.653 -1.54574 1.13045 0
M  V30 6919 H 635.958 -3.9177 0.0487551 0
M  V30 6920 H 637.655 -3.98644 0.434009 0
M  V30 6921 H 634.245 -3.86035 1.86212 0
M  V30 6922 H 638.429 -4.08646 2.81641 0
M  V30 6923 H 633.685 -4.46335 4.17846 0
M  V30 6924 H 637.859 -4.70269 5.13634 0
M  V30 6925 H 635.486 -4.88775 5.82239 0
M  V30 6926 N 637.061 -0.65484 -1.43351 0
M  V30 6927 C 638.472 -0.248506 -1.85039 0
M  V30 6928 C 638.823 1.20526 -1.54816 0
M  V30 6929 O 637.948 1.92016 -0.99794 0
M  V30 6930 C 638.543 -0.444241 -3.35875 0
M  V30 6931 C 637.102 -0.0922108 -3.76287 0
M  V30 6932 C 636.249 -0.746327 -2.67068 0
M  V30 6933 H 639.2 -0.8584 -1.33481 0
M  V30 6934 H 639.221 0.309762 -3.79237 0
M  V30 6935 H 638.733 -1.50239 -3.5784 0
M  V30 6936 H 636.834 0.96328 -3.59933 0
M  V30 6937 H 636.947 -0.518807 -4.76283 0
M  V30 6938 H 635.311 -0.179416 -2.54067 0
M  V30 6939 H 636.094 -1.80754 -2.91861 0
M  V30 6940 N 638.539 1.52521 -0.396863 0
M  V30 6941 C 639.472 2.23118 0.478926 0
M  V30 6942 C 640.45 1.23475 1.05796 0
M  V30 6943 O 641.634 1.52486 1.10817 0
M  V30 6944 C 638.761 2.95028 1.66362 0
M  V30 6945 C 637.807 4.09002 1.20913 0
M  V30 6946 S 638.64 5.35182 0.184407 0
M  V30 6947 C 639.796 6.10616 1.37471 0
M  V30 6948 H 640.029 2.97056 -0.120542 0
M  V30 6949 H 637.562 1.53334 -0.18109 0
M  V30 6950 H 639.52 3.37066 2.34301 0
M  V30 6951 H 638.181 2.20756 2.23441 0
M  V30 6952 H 637.374 4.58445 2.09389 0
M  V30 6953 H 636.976 3.69016 0.608559 0
M  V30 6954 H 639.268 6.37247 2.30048 0
M  V30 6955 H 640.211 7.02084 0.921051 0
M  V30 6956 H 640.619 5.41499 1.59495 0
M  V30 6957 N 640.017 0.126909 1.57088 0
M  V30 6958 C 640.98 -0.806097 2.14557 0
M  V30 6959 C 641.98 -1.18918 1.08236 0
M  V30 6960 O 643.17 -1.11339 1.33975 0
M  V30 6961 C 640.302 -2.09116 2.69227 0
M  V30 6962 H 641.495 -0.306522 2.98329 0
M  V30 6963 H 639.048 -0.122393 1.5582 0
M  V30 6964 H 639.783 -2.63486 1.89065 0
M  V30 6965 H 639.568 -1.82588 3.46993 0
M  V30 6966 H 641.058 -2.75794 3.13572 0
M  V30 6967 N 641.495 -1.56914 -0.146875 0
M  V30 6968 C 642.742 -1.83356 -0.859467 0
M  V30 6969 C 643.07 -0.707811 -1.81164 0
M  V30 6970 O 642.325 0.303155 -1.93338 0
M  V30 6971 C 642.624 -3.16128 -1.66727 0
M  V30 6972 C 642.29 -4.42586 -0.861881 0
M  V30 6973 C 640.952 -4.76929 -0.639687 0
M  V30 6974 C 643.304 -5.20344 -0.298643 0
M  V30 6975 C 640.632 -5.86491 0.156451 0
M  V30 6976 C 642.984 -6.30742 0.484536 0
M  V30 6977 C 641.648 -6.63635 0.717306 0
M  V30 6978 H 640.918 -0.670947 -0.314501 0
M  V30 6979 H 643.565 -1.91104 -0.123108 0
M  V30 6980 H 641.87 -3.03831 -2.47374 0
M  V30 6981 H 643.567 -3.33802 -2.2221 0
M  V30 6982 H 640.157 -4.15662 -1.04513 0
M  V30 6983 H 644.341 -4.94186 -0.457585 0
M  V30 6984 H 639.597 -6.10419 0.346292 0
M  V30 6985 H 643.771 -6.90188 0.928105 0
M  V30 6986 H 641.398 -7.48367 1.33607 0
M  V30 6987 N 642.974 0.416227 -1.52004 0
M  V30 6988 C 643.904 1.51365 -1.77795 0
M  V30 6989 C 644.885 1.58059 -0.628601 0
M  V30 6990 O 646.07 1.73447 -0.873478 0
M  V30 6991 C 643.2 2.89256 -1.92219 0
M  V30 6992 C 642.154 2.97415 -3.0778 0
M  V30 6993 C 641.48 4.37492 -3.07417 0
M  V30 6994 C 642.78 2.69551 -4.47369 0
M  V30 6995 H 644.474 1.30033 -2.69688 0
M  V30 6996 H 642.02 0.624112 -1.29772 0
M  V30 6997 H 643.973 3.66008 -2.08845 0
M  V30 6998 H 642.697 3.11866 -0.969917 0
M  V30 6999 H 641.356 2.23107 -2.90893 0
M  V30 7000 H 641.004 4.571 -2.09925 0
M  V30 7001 H 640.704 4.43877 -3.85029 0
M  V30 7002 H 642.228 5.16188 -3.26162 0
M  V30 7003 H 643.642 3.36028 -4.64497 0
M  V30 7004 H 642.039 2.87321 -5.26846 0
M  V30 7005 H 643.109 1.65029 -4.55953 0
M  V30 7006 N 644.452 1.42507 0.673017 0
M  V30 7007 C 645.701 1.42364 1.42883 0
M  V30 7008 C 646.014 0.0441598 1.9555 0
M  V30 7009 O 647.22 -0.0798679 2.71382 0
M  V30 7010 C 645.676 2.5043 2.58482 0
M  V30 7011 C 645.284 3.94392 2.12506 0
M  V30 7012 C 647.028 2.59455 3.35981 0
M  V30 7013 C 644.935 4.93964 3.25198 0
M  V30 7014 H 643.865 0.52951 0.536782 0
M  V30 7015 H 646.516 1.68422 0.728448 0
M  V30 7016 H 644.898 2.1754 3.30896 0
M  V30 7017 H 646.072 4.36645 1.47233 0
M  V30 7018 H 644.387 3.89233 1.4794 0
M  V30 7019 H 646.984 3.31025 4.19912 0
M  V30 7020 H 647.327 1.63869 3.82691 0
M  V30 7021 H 647.86 2.91549 2.70637 0
M  V30 7022 H 644.599 5.91034 2.83477 0
M  V30 7023 H 644.119 4.56341 3.89247 0
M  V30 7024 H 645.798 5.15763 3.90637 0
M  V30 7025 N 645.93 -0.909495 1.28709 0
M  V30 7026 C 647.177 -1.65905 1.16111 0
M  V30 7027 C 647.505 -1.92334 -0.289436 0
M  V30 7028 O 646.76 -1.52495 -1.22653 0
M  V30 7029 C 647.059 -3.02117 1.90945 0
M  V30 7030 C 646.725 -2.95332 3.40719 0
M  V30 7031 C 645.387 -2.93189 3.81567 0
M  V30 7032 C 647.739 -2.85264 4.36204 0
M  V30 7033 C 645.067 -2.78784 5.16233 0
M  V30 7034 C 647.419 -2.724 5.70948 0
M  V30 7035 C 646.083 -2.68617 6.11066 0
M  V30 7036 H 645.353 -0.60709 0.42488 0
M  V30 7037 H 648 -1.05932 1.59533 0
M  V30 7038 H 646.305 -3.65901 1.40085 0
M  V30 7039 H 648.002 -3.59026 1.7861 0
M  V30 7040 H 644.592 -2.97797 3.08245 0
M  V30 7041 H 648.776 -2.86005 4.05605 0
M  V30 7042 H 644.032 -2.74254 5.46438 0
M  V30 7043 H 648.206 -2.63579 6.44592 0
M  V30 7044 H 645.833 -2.57213 7.15364 0
M  V30 7045 N 647.408 -1.11026 -1.11852 0
M  V30 7046 C 648.356 -0.759643 -2.19846 0
M  V30 7047 C 649.35 0.246964 -1.6759 0
M  V30 7048 O 650.556 0.106693 -1.79684 0
M  V30 7049 H 646.931 -0.22775 -0.716683 0
M  V30 7050 H 648.902 -1.6792 -2.46669 0
M  V30 7051 C 647.651 -0.214364 -3.47039 0
M  V30 7052 H 646.974 -0.980175 -3.87599 0
M  V30 7053 H 648.414 -0.00717047 -4.23999 0
M  V30 7054 C 646.873 1.05436 -3.19976 0
M  V30 7055 O 647.403 2.13483 -3.40276 0
M  V30 7056 N 645.609 0.975436 -2.7374 0
M  V30 7057 H 645.156 0.0960853 -2.57421 0
M  V30 7058 H 645.114 1.82501 -2.5601 0
M  V30 7059 N 648.886 1.2938 -0.899927 0
M  V30 7060 C 649.819 2.25911 -0.322386 0
M  V30 7061 C 650.797 1.52447 0.565567 0
M  V30 7062 O 651.981 1.81404 0.512324 0
M  V30 7063 C 649.108 3.3436 0.540455 0
M  V30 7064 C 648.154 4.25579 -0.280211 0
M  V30 7065 S 648.987 5.08526 -1.67814 0
M  V30 7066 C 650.143 6.20476 -0.822224 0
M  V30 7067 H 650.376 2.7455 -1.1406 0
M  V30 7068 H 647.909 1.37606 -0.700285 0
M  V30 7069 H 649.867 3.97303 1.0325 0
M  V30 7070 H 648.528 2.84416 1.33291 0
M  V30 7071 H 647.721 5.02574 0.378915 0
M  V30 7072 H 647.323 3.67287 -0.705405 0
M  V30 7073 H 649.615 6.77485 -0.0457138 0
M  V30 7074 H 650.558 6.90606 -1.56426 0
M  V30 7075 H 650.966 5.63243 -0.37651 0
M  V30 7076 N 650.364 0.662433 1.43002 0
M  V30 7077 C 651.611 0.179591 2.01702 0
M  V30 7078 C 651.939 -1.20964 1.52309 0
M  V30 7079 O 651.194 -1.82343 0.7106 0
M  V30 7080 C 651.493 0.149363 3.57088 0
M  V30 7081 C 651.159 1.48158 4.25864 0
M  V30 7082 C 649.821 1.84638 4.44367 0
M  V30 7083 C 652.173 2.35953 4.64732 0
M  V30 7084 C 649.501 3.08561 4.99006 0
M  V30 7085 C 651.853 3.59176 5.20745 0
M  V30 7086 C 650.517 3.95841 5.37463 0
M  V30 7087 H 649.787 0.0657172 0.73808 0
M  V30 7088 H 652.434 0.854968 1.71355 0
M  V30 7089 H 650.739 -0.609491 3.8703 0
M  V30 7090 H 652.436 -0.241241 4.00274 0
M  V30 7091 H 649.026 1.18777 4.11813 0
M  V30 7092 H 653.21 2.09058 4.50121 0
M  V30 7093 H 648.466 3.37005 5.10135 0
M  V30 7094 H 652.64 4.27417 5.49807 0
M  V30 7095 H 650.267 4.91942 5.79566 0
M  V30 7096 N 651.842 -1.52309 0.404946 0
M  V30 7097 C 653.072 -2.05886 -0.171569 0
M  V30 7098 C 653.48 -1.27527 -1.39762 0
M  V30 7099 O 652.823 -0.319215 -1.80905 0
M  V30 7100 C 652.885 -3.54609 -0.590983 0
M  V30 7101 C 652.549 -4.53989 0.523757 0
M  V30 7102 C 653.546 -5.01084 1.38604 0
M  V30 7103 C 651.231 -4.97465 0.695255 0
M  V30 7104 C 653.225 -5.90295 2.4048 0
M  V30 7105 C 650.912 -5.86473 1.71733 0
M  V30 7106 C 651.91 -6.32782 2.57051 0
M  V30 7107 O 651.598 -7.20029 3.57509 0
M  V30 7108 H 651.33 -0.675508 -0.0257763 0
M  V30 7109 H 653.884 -1.97238 0.573278 0
M  V30 7110 H 652.114 -3.60929 -1.38805 0
M  V30 7111 H 653.803 -3.90853 -1.09494 0
M  V30 7112 H 654.569 -4.68214 1.26492 0
M  V30 7113 H 650.448 -4.60982 0.0408447 0
M  V30 7114 H 653.992 -6.26363 3.07108 0
M  V30 7115 H 649.889 -6.18756 1.83877 0
M  V30 7116 H 650.657 -7.3813 3.53703 0
M  V30 7117 N 653.32 -0.135238 -1.57019 0
M  V30 7118 C 654.566 0.513232 -1.96818 0
M  V30 7119 C 654.921 1.63245 -1.01827 0
M  V30 7120 O 654.214 1.91532 -0.0511756 0
M  V30 7121 C 654.408 1.07694 -3.40788 0
M  V30 7122 C 654.237 0.0138667 -4.49698 0
M  V30 7123 C 653.007 -0.423532 -5.03522 0
M  V30 7124 C 655.205 -0.77322 -5.08454 0
M  V30 7125 N 653.187 -1.47068 -5.96024 0
M  V30 7126 C 654.558 -1.67115 -5.97053 0
M  V30 7127 C 656.613 -0.822313 -4.91063 0
M  V30 7128 C 655.316 -2.61395 -6.70123 0
M  V30 7129 C 657.342 -1.75288 -5.64826 0
M  V30 7130 C 656.704 -2.63836 -6.53123 0
M  V30 7131 H 652.803 0.156956 -0.766087 0
M  V30 7132 H 655.387 -0.227118 -1.93371 0
M  V30 7133 H 653.558 1.78694 -3.44852 0
M  V30 7134 H 655.29 1.69106 -3.67675 0
M  V30 7135 H 652.045 -0.0280202 -4.73592 0
M  V30 7136 H 652.469 -1.99366 -6.46979 0
M  V30 7137 H 657.111 -0.151822 -4.22527 0
M  V30 7138 H 654.829 -3.2945 -7.37895 0
M  V30 7139 H 658.415 -1.79652 -5.53368 0
M  V30 7140 H 657.295 -3.34672 -7.092 0
M  V30 7141 N 654.798 1.5699 0.138552 0
M  V30 7142 C 656.047 1.82998 0.848205 0
M  V30 7143 C 656.36 0.717829 1.81952 0
M  V30 7144 O 657.566 0.863756 2.57394 0
M  V30 7145 C 656.022 3.24379 1.55904 0
M  V30 7146 C 655.63 4.43552 0.62971 0
M  V30 7147 C 657.374 3.59654 2.25498 0
M  V30 7148 C 655.281 5.75957 1.34266 0
M  V30 7149 H 654.211 0.682495 0.320495 0
M  V30 7150 H 656.862 1.83222 0.100924 0
M  V30 7151 H 655.244 3.18567 2.35226 0
M  V30 7152 H 656.418 4.6062 -0.128882 0
M  V30 7153 H 654.733 4.16379 0.0417526 0
M  V30 7154 H 657.33 4.55837 2.79493 0
M  V30 7155 H 657.673 2.86124 3.02388 0
M  V30 7156 H 658.206 3.67164 1.53087 0
M  V30 7157 H 654.945 6.52604 0.615441 0
M  V30 7158 H 654.465 5.62811 2.07375 0
M  V30 7159 H 656.144 6.19046 1.88126 0
M  V30 7160 N 656.276 -0.40816 1.52223 0
M  V30 7161 C 657.525 -1.15212 1.65557 0
M  V30 7162 C 657.838 -1.9163 0.392096 0
M  V30 7163 O 659.044 -2.68458 0.405256 0
M  V30 7164 C 657.5 -2.09691 2.92502 0
M  V30 7165 C 657.108 -1.38785 4.25961 0
M  V30 7166 C 658.852 -2.8434 3.152 0
M  V30 7167 C 656.759 -2.31919 5.44029 0
M  V30 7168 H 655.689 -0.433776 0.616729 0
M  V30 7169 H 658.34 -0.4165 1.78711 0
M  V30 7170 H 656.722 -2.8681 2.7305 0
M  V30 7171 H 657.896 -0.670248 4.55899 0
M  V30 7172 H 656.211 -0.761741 4.09373 0
M  V30 7173 H 658.808 -3.54166 4.00587 0
M  V30 7174 H 659.151 -3.47344 2.29473 0
M  V30 7175 H 659.684 -2.14321 3.35129 0
M  V30 7176 H 656.423 -1.7356 6.32105 0
M  V30 7177 H 655.943 -3.0165 5.18428 0
M  V30 7178 H 657.622 -2.92424 5.77146 0
M  V30 7179 N 657.755 -1.42862 -0.66545 0
M  V30 7180 C 658.985 -1.47032 -1.45138 0
M  V30 7181 C 659.393 -0.0829977 -1.89018 0
M  V30 7182 O 658.736 0.914551 -1.59316 0
M  V30 7183 C 658.798 -2.34302 -2.72659 0
M  V30 7184 C 658.462 -3.82034 -2.50796 0
M  V30 7185 C 659.459 -4.73453 -2.14799 0
M  V30 7186 C 657.144 -4.26397 -2.655 0
M  V30 7187 C 659.138 -6.07228 -1.93785 0
M  V30 7188 C 656.825 -5.6023 -2.44103 0
M  V30 7189 C 657.823 -6.50462 -2.08299 0
M  V30 7190 O 657.511 -7.8182 -1.87116 0
M  V30 7191 H 657.243 -0.501969 -0.452772 0
M  V30 7192 H 659.797 -1.88137 -0.82423 0
M  V30 7193 H 658.027 -1.88063 -3.37889 0
M  V30 7194 H 659.716 -2.29818 -3.34572 0
M  V30 7195 H 660.482 -4.4046 -2.03026 0
M  V30 7196 H 656.361 -3.56448 -2.92345 0
M  V30 7197 H 659.905 -6.7762 -1.65763 0
M  V30 7198 H 655.802 -5.92793 -2.55475 0
M  V30 7199 H 656.57 -7.93274 -2.01639 0
M  V30 7200 N 659.233 0.902656 -1.29189 0
M  V30 7201 C 660.18 2.00643 -1.14066 0
M  V30 7202 C 661.15 1.66064 -0.0347756 0
M  V30 7203 O 662.335 1.8973 -0.201752 0
M  V30 7204 C 659.475 3.35214 -0.820104 0
M  V30 7205 C 658.588 3.82594 -2.00614 0
M  V30 7206 C 657.723 5.05727 -1.62522 0
M  V30 7207 C 656.762 5.45469 -2.77724 0
M  V30 7208 N 655.899 6.59789 -2.40048 0
M  V30 7209 H 660.739 2.1291 -2.08502 0
M  V30 7210 H 658.276 1.04271 -1.03759 0
M  V30 7211 H 660.234 4.12643 -0.614949 0
M  V30 7212 H 658.864 3.22682 0.0873452 0
M  V30 7213 H 657.916 3.01226 -2.32308 0
M  V30 7214 H 659.228 4.07999 -2.86946 0
M  V30 7215 H 658.382 5.90732 -1.38277 0
M  V30 7216 H 657.121 4.82155 -0.733333 0
M  V30 7217 H 656.126 4.59 -3.02653 0
M  V30 7218 H 657.351 5.71024 -3.67572 0
M  V30 7219 H 655.297 6.37826 -1.53343 0
M  V30 7220 H 655.214 6.84975 -3.19914 0
M  V30 7221 H 656.482 7.4807 -2.19116 0
M  V30 7222 N 660.711 1.11618 1.11262 0
M  V30 7223 C 661.96 0.860934 1.82403 0
M  V30 7224 C 662.273 -0.615303 1.8567 0
M  V30 7225 O 663.479 -0.986861 2.52929 0
M  V30 7226 C 661.935 1.49048 3.27586 0
M  V30 7227 C 661.543 3.00089 3.32642 0
M  V30 7228 C 663.287 1.31515 4.03614 0
M  V30 7229 C 661.194 3.56019 4.72234 0
M  V30 7230 H 660.124 0.318423 0.683464 0
M  V30 7231 H 662.775 1.34165 1.25188 0
M  V30 7232 H 661.157 0.937434 3.84744 0
M  V30 7233 H 662.331 3.61813 2.85356 0
M  V30 7234 H 660.646 3.16919 2.70096 0
M  V30 7235 H 663.243 1.70732 5.0671 0
M  V30 7236 H 663.586 0.257917 4.155 0
M  V30 7237 H 664.119 1.83694 3.52848 0
M  V30 7238 H 660.858 4.61463 4.65545 0
M  V30 7239 H 660.378 2.99066 5.19923 0
M  V30 7240 H 662.057 3.54568 5.41193 0
M  V30 7241 N 662.189 -1.289 0.906776 0
M  V30 7242 C 663.435 -1.95558 0.53712 0
M  V30 7243 C 663.768 -1.71262 -0.915582 0
M  V30 7244 O 663.043 -1.02961 -1.65013 0
M  V30 7245 C 663.326 -3.50198 0.838645 0
M  V30 7246 C 663.179 -3.83923 2.34357 0
M  V30 7247 C 664.498 -4.38861 0.329988 0
M  V30 7248 H 661.617 -0.710289 0.196617 0
M  V30 7249 H 664.259 -1.52392 1.13475 0
M  V30 7250 H 662.409 -3.87096 0.330024 0
M  V30 7251 H 664.081 -3.56933 2.92227 0
M  V30 7252 H 662.324 -3.31215 2.80141 0
M  V30 7253 H 662.995 -4.91883 2.5051 0
M  V30 7254 H 665.471 -4.08996 0.765609 0
M  V30 7255 H 664.347 -5.45931 0.570105 0
M  V30 7256 H 664.608 -4.35352 -0.769511 0
M  V30 7257 N 663.667 -0.670007 -1.42649 0
M  V30 7258 C 665.083 -0.33911 -1.55956 0
M  V30 7259 C 665.283 1.1558 -1.65056 0
M  V30 7260 O 664.339 1.94111 -1.61485 0
M  V30 7261 C 665.652 -1.06522 -2.812 0
M  V30 7262 C 667.2 -1.04708 -2.94966 0
M  V30 7263 C 667.675 -1.75442 -4.23065 0
M  V30 7264 N 669.166 -1.72286 -4.29967 0
M  V30 7265 C 669.901 -2.23877 -5.27889 0
M  V30 7266 N 669.397 -2.83829 -6.31991 0
M  V30 7267 N 671.19 -2.14279 -5.19654 0
M  V30 7268 H 663.341 -1.6399 -1.34986 0
M  V30 7269 H 665.604 -0.690603 -0.649439 0
M  V30 7270 H 665.31 -2.12033 -2.80597 0
M  V30 7271 H 665.184 -0.627398 -3.71946 0
M  V30 7272 H 667.571 -0.000315966 -2.951 0
M  V30 7273 H 667.652 -1.52374 -2.05465 0
M  V30 7274 H 667.296 -2.80084 -4.23693 0
M  V30 7275 H 667.226 -1.25229 -5.11493 0
M  V30 7276 H 669.717 -1.28554 -3.55362 0
M  V30 7277 H 670.03 -3.20827 -7.03057 0
M  V30 7278 H 668.375 -2.87896 -6.32567 0
M  V30 7279 H 671.566 -1.67135 -4.37245 0
M  V30 7280 H 671.739 -2.54792 -5.95806 0
M  V30 7281 N 665.145 1.52092 -0.413018 0
M  V30 7282 C 666.561 1.59471 -0.0640836 0
M  V30 7283 C 666.761 1.42562 1.42402 0
M  V30 7284 O 665.817 1.25453 2.19129 0
M  V30 7285 C 667.13 2.95392 -0.562474 0
M  V30 7286 C 668.678 3.08637 -0.520788 0
M  V30 7287 C 669.153 4.47044 -0.995752 0
M  V30 7288 N 670.644 4.53296 -0.952732 0
M  V30 7289 C 671.379 5.58669 -1.29138 0
M  V30 7290 N 670.875 6.71576 -1.70168 0
M  V30 7291 N 672.668 5.48898 -1.2111 0
M  V30 7292 H 664.819 1.6133 -1.38153 0
M  V30 7293 H 667.082 0.75916 -0.567785 0
M  V30 7294 H 666.788 3.13059 -1.60271 0
M  V30 7295 H 666.662 3.77191 0.0257875 0
M  V30 7296 H 669.049 2.90652 0.510412 0
M  V30 7297 H 669.13 2.28735 -1.14515 0
M  V30 7298 H 668.774 4.65773 -2.0253 0
M  V30 7299 H 668.704 5.25448 -0.348162 0
M  V30 7300 H 671.195 3.72248 -0.651119 0
M  V30 7301 H 671.508 7.47973 -1.9431 0
M  V30 7302 H 669.853 6.72847 -1.74075 0
M  V30 7303 H 673.044 4.59573 -0.889396 0
M  V30 7304 H 673.217 6.30912 -1.47833 0
M  V30 7305 N 666.623 0.143563 1.56945 0
M  V30 7306 C 667.533 -0.810562 2.20152 0
M  V30 7307 C 668.549 -1.27431 1.1848 0
M  V30 7308 O 669.725 -1.33221 1.51044 0
M  V30 7309 C 666.79 -2.03353 2.80799 0
M  V30 7310 C 665.851 -1.61936 3.97587 0
M  V30 7311 C 665.084 -2.78403 4.55332 0
M  V30 7312 O 665.307 -3.94521 4.11958 0
M  V30 7313 O 664.241 -2.54073 5.45647 0
M  V30 7314 H 668.067 -0.30253 3.02189 0
M  V30 7315 H 665.652 -0.0832925 1.49168 0
M  V30 7316 H 667.534 -2.74932 3.19359 0
M  V30 7317 H 666.209 -2.53116 2.01777 0
M  V30 7318 H 665.116 -0.873904 3.6375 0
M  V30 7319 H 666.449 -1.16892 4.78118 0
M  V30 7320 N 668.101 -1.57061 -0.130224 0
M  V30 7321 C 669.378 -1.75205 -0.869631 0
M  V30 7322 C 669.758 -0.716063 -1.98584 0
M  V30 7323 O 669.106 0.262032 -2.26993 0
M  V30 7324 C 669.316 -3.19835 -1.39666 0
M  V30 7325 C 670.664 -3.82011 -1.85345 0
M  V30 7326 O 671.688 -3.23368 -1.49371 0
M  V30 7327 O 670.547 -4.85064 -2.51744 0
M  V30 7328 H 667.641 -0.716977 -0.412157 0
M  V30 7329 H 670.187 -1.69311 -0.11484 0
M  V30 7330 H 668.959 -3.86745 -0.595288 0
M  V30 7331 H 668.582 -3.30222 -2.21448 0
M  V30 7332 N 669.579 0.400081 -1.52437 0
M  V30 7333 C 670.825 1.14788 -1.67187 0
M  V30 7334 C 671.158 1.89928 -0.405074 0
M  V30 7335 O 670.433 1.85118 0.596804 0
M  V30 7336 C 670.716 2.13507 -2.89977 0
M  V30 7337 C 670.569 1.42204 -4.2673 0
M  V30 7338 C 671.888 3.14069 -3.083 0
M  V30 7339 H 669.007 0.415939 -0.608411 0
M  V30 7340 H 671.649 0.432542 -1.85011 0
M  V30 7341 H 669.799 2.7451 -2.74912 0
M  V30 7342 H 671.471 0.842503 -4.53541 0
M  V30 7343 H 669.714 0.723939 -4.27717 0
M  V30 7344 H 670.385 2.14281 -5.08712 0
M  V30 7345 H 672.861 2.63148 -3.22323 0
M  V30 7346 H 671.737 3.80398 -3.95713 0
M  V30 7347 H 671.998 3.82309 -2.22018 0
M  V30 7348 N 671.057 1.43213 0.657864 0
M  V30 7349 C 672.007 1.44459 1.76396 0
M  V30 7350 C 672.991 0.313641 1.57814 0
M  V30 7351 O 674.183 0.557094 1.68004 0
M  V30 7352 C 671.312 1.36586 3.14959 0
M  V30 7353 C 670.398 2.54692 3.39106 0
M  V30 7354 N 670.789 3.80059 3.33749 0
M  V30 7355 C 669.087 2.49316 3.69807 0
M  V30 7356 C 669.788 4.58606 3.57849 0
M  V30 7357 N 668.764 3.89267 3.79437 0
M  V30 7358 H 672.566 2.39265 1.70673 0
M  V30 7359 H 670.08 1.378 0.859357 0
M  V30 7360 H 672.077 1.35561 3.94245 0
M  V30 7361 H 670.737 0.427956 3.21867 0
M  V30 7362 H 671.748 4.12414 3.13266 0
M  V30 7363 H 668.425 1.6419 3.83859 0
M  V30 7364 H 669.815 5.67619 3.59525 0
M  V30 7365 N 672.536 -0.895792 1.29666 0
M  V30 7366 C 673.484 -2.02173 1.15017 0
M  V30 7367 C 674.478 -1.69276 0.0647651 0
M  V30 7368 O 675.684 -1.7859 0.224846 0
M  V30 7369 H 672.059 -0.662719 0.355397 0
M  V30 7370 H 674.03 -2.11666 2.10334 0
M  V30 7371 C 672.779 -3.37212 0.847555 0
M  V30 7372 H 672.102 -3.6303 1.67479 0
M  V30 7373 H 673.542 -4.16668 0.785106 0
M  V30 7374 C 672.001 -3.33891 -0.44929 0
M  V30 7375 O 672.531 -3.73673 -1.47415 0
M  V30 7376 N 670.737 -2.86991 -0.456547 0
M  V30 7377 H 670.284 -2.54813 0.377925 0
M  V30 7378 H 670.242 -2.85152 -1.32423 0
M  V30 7379 N 674.014 -1.12206 -1.10668 0
M  V30 7380 C 674.946 -0.74552 -2.16736 0
M  V30 7381 C 675.959 0.226696 -1.61214 0
M  V30 7382 O 677.148 0.0083936 -1.78498 0
M  V30 7383 C 674.248 -0.0823368 -3.388 0
M  V30 7384 C 673.421 -1.08341 -4.2377 0
M  V30 7385 C 672.48 -0.448292 -5.24287 0
M  V30 7386 O 671.506 -1.10458 -5.58379 0
M  V30 7387 N 672.708 0.785336 -5.75163 0
M  V30 7388 H 675.473 -1.65818 -2.49649 0
M  V30 7389 H 673.034 -1.01335 -1.26265 0
M  V30 7390 H 675.026 0.354476 -4.03145 0
M  V30 7391 H 673.596 0.733041 -3.03884 0
M  V30 7392 H 672.816 -1.69792 -3.55759 0
M  V30 7393 H 674.104 -1.76042 -4.77375 0
M  V30 7394 H 673.502 1.33755 -5.4966 0
M  V30 7395 H 672.059 1.16501 -6.41304 0
M  V30 7396 O 675.531 1.23095 -1.04546 0
M  V30 7397 H 676.222 1.79876 -0.718642 0
M  V30 END ATOM
M  V30 BEGIN BOND
M  V30 END BOND
M  V30 END CTAB
M  END
$$$$
