drugbank_target|P46940 Ras GTPase-activating-like protein IQGAP1 (DB11638)
 OpenBabel12092121093D

  0  0  0     0  0            999 V3000
M  V30 BEGIN CTAB
M  V30 COUNTS 26722 26939 0 0 0
M  V30 BEGIN ATOM
M  V30 1 H -0.908 1.98254 -0.117106 0
M  V30 2 N 0 1.576 0 0
M  V30 3 C 0.933 2.03868 1.02534 0
M  V30 4 C 1.911 0.928543 1.3348 0
M  V30 5 O 3.095 1.19667 1.45644 0
M  V30 6 C 0.222 2.43627 2.35294 0
M  V30 7 C -0.732 3.65373 2.2001 0
M  V30 8 S 0.101 5.13292 1.52614 0
M  V30 9 C 1.257 5.56322 2.86805 0
M  V30 10 H 1.49 2.90518 0.631377 0
M  V30 11 H -0.977 1.52953 0.210867 0
M  V30 12 H 0.981 2.67203 3.11629 0
M  V30 13 H -0.358 1.57376 2.7183 0
M  V30 14 H -1.165 3.90944 3.18086 0
M  V30 15 H -1.563 3.418 1.51819 0
M  V30 16 H 0.729 5.58782 3.83104 0
M  V30 17 H 1.672 6.56266 2.65933 0
M  V30 18 H 2.08 4.83886 2.90714 0
M  V30 19 N 1.4781 -0.272755 1.55222 0
M  V30 20 C 2.7031 -1.02683 1.80197 0
M  V30 21 C 3.1281 -1.79142 0.573551 0
M  V30 22 O 2.4861 -1.74917 -0.476849 0
M  V30 23 C 2.5341 -1.9609 3.02624 0
M  V30 24 O 1.6381 -3.04863 2.77727 0
M  V30 25 H 0.9791 -0.293557 0.595584 0
M  V30 26 H 3.5091 -0.30159 2.02365 0
M  V30 27 H 3.5191 -2.38039 3.31363 0
M  V30 28 H 2.1941 -1.39851 3.91682 0
M  V30 29 H 0.7711 -2.67228 2.60084 0
M  V30 30 N 2.9562 -1.48159 -0.537278 0
M  V30 31 C 3.9192 -1.61665 -1.62472 0
M  V30 32 C 4.9192 -0.490395 -1.5314 0
M  V30 33 O 6.1092 -0.755998 -1.5694 0
M  V30 34 C 3.2412 -1.57997 -3.02076 0
M  V30 35 H 4.4342 -2.58621 -1.51839 0
M  V30 36 H 1.9872 -1.36647 -0.758771 0
M  V30 37 H 2.7222 -0.624913 -3.18222 0
M  V30 38 H 2.5072 -2.39755 -3.10258 0
M  V30 39 H 3.9972 -1.70627 -3.81151 0
M  V30 40 N 4.4343 0.785586 -1.36625 0
M  V30 41 C 5.3973 1.87999 -1.31107 0
M  V30 42 C 6.3973 1.59316 -0.217959 0
M  V30 43 O 7.5873 1.67656 -0.472977 0
M  V30 44 C 4.7193 3.24861 -1.03334 0
M  V30 45 H 5.9123 1.94307 -2.2844 0
M  V30 46 H 3.4653 0.983813 -1.21453 0
M  V30 47 H 4.2003 3.24235 -0.0647432 0
M  V30 48 H 3.9853 3.4707 -1.82441 0
M  V30 49 H 5.4753 4.04929 -1.02088 0
M  V30 50 N 5.9124 1.20967 1.01018 0
M  V30 51 C 7.1894 0.93264 1.71934 0
M  V30 52 C 7.5694 -0.55692 2.03621 0
M  V30 53 O 6.9174 -1.52035 1.7058 0
M  V30 54 C 7.1274 1.81233 2.98254 0
M  V30 55 C 8.4754 2.05804 3.71389 0
M  V30 56 O 9.4994 1.78539 3.08225 0
M  V30 57 O 8.3584 2.51888 4.84989 0
M  V30 58 H 5.4524 0.349272 0.749625 0
M  V30 59 H 7.9984 1.31871 1.06808 0
M  V30 60 H 6.7704 2.82067 2.71208 0
M  V30 61 H 6.3934 1.42674 3.7112 0
M  V30 62 N 7.3905 -1.2043 1.01659 0
M  V30 63 C 8.3005 -2.2689 0.596484 0
M  V30 64 C 9.3165 -1.70107 -0.36599 0
M  V30 65 O 10.4925 -2.00117 -0.226942 0
M  V30 66 C 7.5575 -3.4665 -0.0586659 0
M  V30 67 C 6.6185 -4.18662 0.949751 0
M  V30 68 C 5.8515 -5.32705 0.32577 0
M  V30 69 O 6.0745 -5.63656 -0.874509 0
M  V30 70 O 5.0085 -5.92803 1.04249 0
M  V30 71 H 8.8345 -2.65041 1.4828 0
M  V30 72 H 6.4195 -1.27048 0.786082 0
M  V30 73 H 8.3015 -4.19256 -0.424564 0
M  V30 74 H 6.9765 -3.10375 -0.91918 0
M  V30 75 H 5.8835 -3.48229 1.36702 0
M  V30 76 H 7.2165 -4.58878 1.78023 0
M  V30 77 N 8.8686 -0.792821 -1.36206 0
M  V30 78 C 10.1146 -0.36733 -1.99446 0
M  V30 79 C 10.4476 1.05917 -1.62774 0
M  V30 80 O 9.7226 1.7324 -0.88421 0
M  V30 81 C 10.0056 -0.535044 -3.56103 0
M  V30 82 C 9.8586 -2.00548 -4.02617 0
M  V30 83 C 11.1776 0.0478191 -4.40074 0
M  V30 84 H 8.2966 -0.134941 -0.724541 0
M  V30 85 H 10.9386 -0.999794 -1.61568 0
M  V30 86 H 9.0886 0.00336329 -3.885 0
M  V30 87 H 10.7606 -2.60521 -3.80692 0
M  V30 88 H 9.0036 -2.50686 -3.54032 0
M  V30 89 H 9.6746 -2.07377 -5.11565 0
M  V30 90 H 12.1506 -0.411822 -4.14057 0
M  V30 91 H 11.0266 -0.0995336 -5.4881 0
M  V30 92 H 11.2876 1.14025 -4.27142 0
M  V30 93 N 10.3467 1.47872 -0.545128 0
M  V30 94 C 11.6237 1.9554 0.0485222 0
M  V30 95 C 12.0037 1.4876 1.49779 0
M  V30 96 O 11.3517 0.720925 2.16829 0
M  V30 97 C 11.5617 3.48898 -0.084417 0
M  V30 98 C 12.9097 4.24547 0.0671239 0
M  V30 99 O 13.9337 3.56198 -0.0113649 0
M  V30 100 O 12.7927 5.45999 0.233882 0
M  V30 101 H 9.8867 0.823957 0.0708773 0
M  V30 102 H 12.4327 1.58327 -0.610798 0
M  V30 103 H 11.2047 3.75714 -1.09337 0
M  V30 104 H 10.8277 3.92845 0.613066 0
M  V30 105 N 11.8248 0.280983 1.55075 0
M  V30 106 C 13.0728 -0.333455 1.9933 0
M  V30 107 C 13.3938 -1.55937 1.17085 0
M  V30 108 O 12.6638 -1.94143 0.261805 0
M  V30 109 H 11.2438 -0.126197 0.736263 0
M  V30 110 H 13.9058 0.387678 1.91005 0
M  V30 111 H 13.0018 -0.619292 3.05894 0
M  V30 112 N 13.3029 -1.57598 0.00835791 0
M  V30 113 C 14.2329 -2.1198 -0.979113 0
M  V30 114 C 15.2139 -1.03091 -1.35301 0
M  V30 115 O 16.3989 -1.30818 -1.43528 0
M  V30 116 C 13.5289 -2.62995 -2.26828 0
M  V30 117 C 12.4829 -3.76485 -2.03576 0
M  V30 118 C 11.8089 -4.13846 -3.38579 0
M  V30 119 C 13.1089 -5.0342 -1.39161 0
M  V30 120 H 14.8029 -2.94738 -0.526281 0
M  V30 121 H 12.3489 -1.41783 -0.251704 0
M  V30 122 H 14.3019 -2.99669 -2.96271 0
M  V30 123 H 13.0259 -1.7737 -2.7424 0
M  V30 124 H 11.6849 -3.40217 -1.36557 0
M  V30 125 H 11.3329 -3.25232 -3.83709 0
M  V30 126 H 11.0329 -4.90312 -3.23834 0
M  V30 127 H 12.5569 -4.53086 -4.09323 0
M  V30 128 H 13.9709 -5.37812 -1.98573 0
M  V30 129 H 12.3679 -5.84746 -1.34878 0
M  V30 130 H 13.4379 -4.83548 -0.361868 0
M  V30 131 N 14.781 0.264519 -1.55364 0
M  V30 132 C 16.029 0.993021 -1.76021 0
M  V30 133 C 16.35 1.86511 -0.569099 0
M  V30 134 O 15.62 1.91438 0.415735 0
M  V30 135 H 14.2 0.369639 -0.649135 0
M  V30 136 H 16.862 0.286707 -1.9278 0
M  V30 137 H 15.958 1.62502 -2.66457 0
M  V30 138 N 16.2591 1.48442 0.529413 0
M  V30 139 C 17.5051 1.5672 1.28711 0
M  V30 140 C 17.8381 0.2406 1.92704 0
M  V30 141 O 17.1131 -0.753454 1.79313 0
M  V30 142 C 17.3961 2.70587 2.37603 0
M  V30 143 C 17.2491 4.12953 1.78297 0
M  V30 144 C 18.5681 2.80212 3.39366 0
M  V30 145 H 15.6871 0.570474 0.466613 0
M  V30 146 H 18.3291 1.80617 0.589706 0
M  V30 147 H 16.4791 2.50342 2.97088 0
M  V30 148 H 18.1511 4.44639 1.22858 0
M  V30 149 H 16.3941 4.19927 1.0883 0
M  V30 150 H 17.0651 4.88448 2.57144 0
M  V30 151 H 19.5411 2.98553 2.89836 0
M  V30 152 H 18.4171 3.61611 4.12951 0
M  V30 153 H 18.6781 1.88393 3.99951 0
M  V30 154 N 17.7372 -0.778329 1.37039 0
M  V30 155 C 18.7002 -1.87301 1.32102 0
M  V30 156 C 19.7002 -1.59198 0.226405 0
M  V30 157 O 20.8902 -1.67403 0.481861 0
M  V30 158 C 18.0222 -3.24309 1.05055 0
M  V30 159 H 19.2152 -1.93093 2.29467 0
M  V30 160 H 16.7682 -0.977358 1.21973 0
M  V30 161 H 17.5032 -3.24196 0.0819373 0
M  V30 162 H 17.2882 -3.46098 1.84279 0
M  V30 163 H 18.7782 -4.04382 1.04234 0
M  V30 164 N 19.2153 -1.21501 -1.00376 0
M  V30 165 C 20.6313 -0.972629 -1.26539 0
M  V30 166 C 20.8313 0.340257 -1.98606 0
M  V30 167 O 19.8873 1.06561 -2.28913 0
M  V30 168 C 21.2003 -2.16404 -2.08781 0
M  V30 169 C 22.7483 -2.20643 -2.22004 0
M  V30 170 C 23.2233 -3.39306 -3.07629 0
M  V30 171 N 24.7143 -3.39401 -3.15217 0
M  V30 172 C 25.4493 -4.27867 -3.81729 0
M  V30 173 N 24.9453 -5.26533 -4.5026 0
M  V30 174 N 26.7383 -4.15672 -3.78382 0
M  V30 175 H 18.8893 -2.05929 -0.520281 0
M  V30 176 H 21.1523 -0.901803 -0.292328 0
M  V30 177 H 20.8583 -3.11554 -1.63178 0
M  V30 178 H 20.7323 -2.15567 -3.09533 0
M  V30 179 H 23.1193 -1.26048 -2.66825 0
M  V30 180 H 23.2003 -2.25523 -1.20718 0
M  V30 181 H 22.8443 -4.34195 -2.63509 0
M  V30 182 H 22.7743 -3.31665 -4.09031 0
M  V30 183 H 25.2653 -2.67997 -2.66432 0
M  V30 184 H 25.5783 -5.90337 -4.98721 0
M  V30 185 H 23.9233 -5.30457 -4.49044 0
M  V30 186 H 27.1143 -3.3785 -3.23998 0
M  V30 187 H 27.2873 -4.84825 -4.2994 0
M  V30 188 N 20.6934 1.19889 -1.02296 0
M  V30 189 C 22.1044 1.71124 -0.746568 0
M  V30 190 C 22.4554 1.81939 0.734335 0
M  V30 191 O 21.5804 1.48639 1.57275 0
M  V30 192 C 22.1754 3.10804 -1.34857 0
M  V30 193 C 20.7344 3.59323 -1.1209 0
M  V30 194 C 19.8814 2.3635 -1.45031 0
M  V30 195 H 22.8324 1.04813 -1.19163 0
M  V30 196 H 22.8534 3.73186 -0.742437 0
M  V30 197 H 22.3654 3.029 -2.42638 0
M  V30 198 H 20.4664 3.7255 -0.0610337 0
M  V30 199 H 20.5794 4.4378 -1.80544 0
M  V30 200 H 18.9434 2.39399 -0.869487 0
M  V30 201 H 19.7264 2.31081 -2.53883 0
M  V30 202 N 22.1715 0.800033 1.35784 0
M  V30 203 C 23.1215 0.178654 2.27299 0
M  V30 204 C 24.1055 -0.643667 1.47464 0
M  V30 205 O 25.2975 -0.502 1.69732 0
M  V30 206 C 22.4265 -0.677194 3.36555 0
M  V30 207 C 21.5125 0.154497 4.23818 0
M  V30 208 N 21.9035 1.21427 4.91008 0
M  V30 209 C 20.2015 -0.0649462 4.45953 0
M  V30 210 C 20.9025 1.72147 5.55644 0
M  V30 211 N 19.8785 1.02897 5.33773 0
M  V30 212 H 23.6805 0.989637 2.76737 0
M  V30 213 H 21.1945 0.64054 1.49234 0
M  V30 214 H 23.1915 -1.13835 4.01058 0
M  V30 215 H 21.8515 -1.4866 2.8867 0
M  V30 216 H 22.8625 1.59684 4.92668 0
M  V30 217 H 19.5395 -0.844016 4.0888 0
M  V30 218 H 20.9295 2.60683 6.19269 0
M  V30 219 N 23.6496 -1.47581 0.552962 0
M  V30 220 C 24.8796 -2.06575 0.0320091 0
M  V30 221 C 25.2876 -1.4067 -1.26525 0
M  V30 222 O 24.6306 -0.495808 -1.76883 0
M  V30 223 C 24.6926 -3.58705 -0.238913 0
M  V30 224 C 24.3566 -4.46625 0.968272 0
M  V30 225 C 25.3536 -4.85 1.87274 0
M  V30 226 C 23.0386 -4.88201 1.18175 0
M  V30 227 C 25.0326 -5.63745 2.9744 0
M  V30 228 C 22.7196 -5.66712 2.28651 0
M  V30 229 C 23.7176 -6.04394 3.18114 0
M  V30 230 O 23.4056 -6.81324 4.26676 0
M  V30 231 H 23.1376 -0.674763 0.0408689 0
M  V30 232 H 25.6916 -1.90634 0.764719 0
M  V30 233 H 23.9216 -3.72844 -1.02588 0
M  V30 234 H 25.6106 -3.99735 -0.704731 0
M  V30 235 H 26.3766 -4.53482 1.71984 0
M  V30 236 H 22.2556 -4.58339 0.494593 0
M  V30 237 H 25.7996 -5.93077 3.67296 0
M  V30 238 H 21.6966 -5.97642 2.43915 0
M  V30 239 H 22.4646 -6.99712 4.24671 0
M  V30 240 N 25.1277 -0.289203 -1.54924 0
M  V30 241 C 26.3757 0.322879 -1.99504 0
M  V30 242 C 26.6967 1.55313 -1.1791 0
M  V30 243 O 25.9667 1.94001 -0.272097 0
M  V30 244 H 24.5467 0.122291 -0.736922 0
M  V30 245 H 27.2087 -0.397802 -1.90797 0
M  V30 246 H 26.3047 0.603061 -3.06218 0
M  V30 247 N 26.6058 1.57591 -0.0167156 0
M  V30 248 C 27.8308 1.9598 0.67872 0
M  V30 249 C 28.2558 0.892546 1.65575 0
M  V30 250 O 27.6138 -0.147772 1.80697 0
M  V30 251 C 27.6618 3.33468 1.37227 0
M  V30 252 O 26.7658 3.28954 2.48722 0
M  V30 253 H 26.1068 0.639339 0.17928 0
M  V30 254 H 28.6368 2.04463 -0.0748802 0
M  V30 255 H 28.6468 3.69417 1.7319 0
M  V30 256 H 27.3218 4.10694 0.656007 0
M  V30 257 H 25.8988 3.04705 2.14963 0
M  V30 258 N 28.0839 -0.256276 1.55502 0
M  V30 259 C 29.3299 -0.987079 1.77157 0
M  V30 260 C 29.6629 -1.85327 0.580315 0
M  V30 261 O 28.9379 -1.89874 -0.421686 0
M  V30 262 C 29.2209 -1.85553 3.08613 0
M  V30 263 C 29.0739 -1.01816 4.38125 0
M  V30 264 C 30.3929 -2.8397 3.36228 0
M  V30 265 H 27.5119 -0.357428 0.644526 0
M  V30 266 H 30.1539 -0.258239 1.88237 0
M  V30 267 H 28.3039 -2.47695 2.99298 0
M  V30 268 H 29.9759 -0.416159 4.59419 0
M  V30 269 H 28.2189 -0.322178 4.32602 0
M  V30 270 H 28.8899 -1.65939 5.26468 0
M  V30 271 H 31.3659 -2.31964 3.45445 0
M  V30 272 H 30.2419 -3.41864 4.29442 0
M  V30 273 H 30.5029 -3.59955 2.56681 0
M  V30 274 N 29.562 -1.4872 -0.521534 0
M  V30 275 C 30.492 -1.66771 -1.63431 0
M  V30 276 C 31.473 -0.516499 -1.62069 0
M  V30 277 O 32.658 -0.750013 -1.79132 0
M  V30 278 C 29.788 -1.71515 -3.01993 0
M  V30 279 C 28.742 -2.86222 -3.18216 0
M  V30 280 C 28.068 -2.76061 -4.57924 0
M  V30 281 C 29.368 -4.27419 -3.00184 0
M  V30 282 H 31.062 -2.59932 -1.48579 0
M  V30 283 H 28.608 -1.25089 -0.713358 0
M  V30 284 H 30.561 -1.82731 -3.7972 0
M  V30 285 H 29.285 -0.749393 -3.17886 0
M  V30 286 H 27.944 -2.74575 -2.42908 0
M  V30 287 H 27.592 -1.77437 -4.70665 0
M  V30 288 H 27.292 -3.53037 -4.69722 0
M  V30 289 H 28.816 -2.89256 -5.37739 0
M  V30 290 H 30.23 -4.39855 -3.67697 0
M  V30 291 H 28.627 -5.05458 -3.2347 0
M  V30 292 H 29.697 -4.43293 -1.96518 0
M  V30 293 N 31.0401 0.771051 -1.3745 0
M  V30 294 C 32.3171 1.519 -1.23231 0
M  V30 295 C 32.6971 2.10383 0.173809 0
M  V30 296 O 32.0451 1.95583 1.18151 0
M  V30 297 C 32.2551 2.59933 -2.32886 0
M  V30 298 C 33.6031 3.27316 -2.70461 0
M  V30 299 O 34.6271 2.70228 -2.32068 0
M  V30 300 O 33.4861 4.30531 -3.36608 0
M  V30 301 H 30.5801 0.672803 -0.480901 0
M  V30 302 H 33.1261 0.807957 -1.49232 0
M  V30 303 H 31.8981 2.14842 -3.27045 0
M  V30 304 H 31.5211 3.38637 -2.08353 0
M  V30 305 N 32.5182 1.22032 0.997298 0
M  V30 306 C 33.4662 0.983634 2.10778 0
M  V30 307 C 34.4602 -0.0717564 1.69248 0
M  V30 308 O 35.6662 0.080304 1.79821 0
M  V30 309 H 32.0412 0.300877 0.689186 0
M  V30 310 H 34.0122 1.92606 2.27916 0
M  V30 311 C 32.7612 0.57326 3.42942 0
M  V30 312 H 32.0842 1.37702 3.75338 0
M  V30 313 H 33.5242 0.447031 4.21637 0
M  V30 314 C 31.9832 -0.7167 3.29188 0
M  V30 315 O 32.5132 -1.77027 3.60589 0
M  V30 316 N 30.7192 -0.686167 2.82383 0
M  V30 317 H 30.2662 0.171507 2.57028 0
M  V30 318 H 30.2242 -1.54955 2.73562 0
M  V30 319 N 33.9963 -1.19345 1.0293 0
M  V30 320 C 34.9063 -2.26245 0.620515 0
M  V30 321 C 35.9223 -1.70486 -0.347928 0
M  V30 322 O 37.0983 -2.00347 -0.205704 0
M  V30 323 C 34.1633 -3.46693 -0.0218957 0
M  V30 324 C 33.2243 -4.17632 0.994102 0
M  V30 325 C 32.4573 -5.32329 0.382253 0
M  V30 326 O 32.6803 -5.64552 -0.814676 0
M  V30 327 O 31.6143 -5.91664 1.10531 0
M  V30 328 H 35.4403 -2.63453 1.51083 0
M  V30 329 H 33.0253 -1.26207 0.799513 0
M  V30 330 H 34.9073 -4.19683 -0.380072 0
M  V30 331 H 33.5823 -3.11333 -0.886209 0
M  V30 332 H 32.4893 -3.4676 1.40387 0
M  V30 333 H 33.8223 -4.56964 1.8288 0
M  V30 334 N 35.4744 -0.807222 -1.35358 0
M  V30 335 C 36.8904 -0.491038 -1.51858 0
M  V30 336 C 37.0904 0.987648 -1.75635 0
M  V30 337 O 36.1464 1.77265 -1.79815 0
M  V30 338 C 37.4594 -1.33695 -2.69344 0
M  V30 339 C 39.0074 -1.33246 -2.83222 0
M  V30 340 C 39.4824 -2.1625 -4.03733 0
M  V30 341 N 40.9734 -2.1379 -4.10911 0
M  V30 342 C 41.7084 -2.74772 -5.03277 0
M  V30 343 N 41.2044 -3.44684 -6.0097 0
M  V30 344 N 42.9974 -2.6441 -4.96028 0
M  V30 345 H 35.1484 -1.76485 -1.18181 0
M  V30 346 H 37.4114 -0.751199 -0.578276 0
M  V30 347 H 37.1174 -2.38634 -2.58354 0
M  V30 348 H 36.9914 -0.990618 -3.6396 0
M  V30 349 H 39.3784 -0.290911 -2.93663 0
M  V30 350 H 39.4594 -1.71866 -1.89461 0
M  V30 351 H 39.1034 -3.20445 -3.94052 0
M  V30 352 H 39.0334 -1.74989 -4.96675 0
M  V30 353 H 41.5244 -1.62923 -3.40976 0
M  V30 354 H 41.8374 -3.88501 -6.68047 0
M  V30 355 H 40.1824 -3.48788 -6.01142 0
M  V30 356 H 43.3734 -2.0938 -4.18662 0
M  V30 357 H 43.5464 -3.12225 -5.6782 0
M  V30 358 N 36.9525 1.47285 -0.560781 0
M  V30 359 C 37.8825 2.32857 0.173105 0
M  V30 360 C 38.8635 1.44009 0.905281 0
M  V30 361 O 40.0485 1.7286 0.885046 0
M  V30 362 C 37.1785 3.25861 1.20133 0
M  V30 363 C 36.1325 4.23978 0.585388 0
M  V30 364 C 35.4585 5.06332 1.7185 0
M  V30 365 C 36.7585 5.20242 -0.463178 0
M  V30 366 H 38.4525 2.94466 -0.541307 0
M  V30 367 H 35.9985 1.41601 -0.261764 0
M  V30 368 H 37.9515 3.84569 1.72293 0
M  V30 369 H 36.6755 2.62315 1.94573 0
M  V30 370 H 35.3345 3.66501 0.085054 0
M  V30 371 H 34.9825 4.39186 2.45203 0
M  V30 372 H 34.6825 5.72762 1.31213 0
M  V30 373 H 36.2065 5.67899 2.24329 0
M  V30 374 H 37.6205 5.73293 -0.027502 0
M  V30 375 H 36.0175 5.94896 -0.788627 0
M  V30 376 H 37.0875 4.65504 -1.35773 0
M  V30 377 N 38.4306 0.297415 1.54768 0
M  V30 378 C 39.6586 -0.315623 2.04478 0
M  V30 379 C 40.0736 -1.47792 1.17486 0
M  V30 380 O 39.4306 -1.81404 0.19971 0
M  V30 381 C 39.4816 -0.7753 3.53088 0
M  V30 382 O 39.2026 0.340732 4.36773 0
M  V30 383 C 40.7036 -1.45386 4.18781 0
M  V30 384 H 37.9236 -0.0690887 0.667434 0
M  V30 385 H 40.4676 0.436003 1.99798 0
M  V30 386 H 38.6226 -1.47696 3.58141 0
M  V30 387 H 39.0366 -0.0165035 5.24497 0
M  V30 388 H 40.5106 -1.72669 5.24299 0
M  V30 389 H 40.9876 -2.39275 3.68299 0
M  V30 390 H 41.5936 -0.795475 4.17795 0
M  V30 391 N 39.9087 -1.5758 0.0250728 0
M  V30 392 C 40.8717 -2.08896 -0.943139 0
M  V30 393 C 41.8717 -1.00321 -1.25668 0
M  V30 394 O 43.0617 -1.26495 -1.19769 0
M  V30 395 C 40.1937 -2.55143 -2.26086 0
M  V30 396 H 41.3867 -2.95723 -0.498775 0
M  V30 397 H 38.9397 -1.54703 -0.222888 0
M  V30 398 H 39.6747 -1.71633 -2.75159 0
M  V30 399 H 39.4597 -3.34461 -2.04641 0
M  V30 400 H 40.9497 -2.95083 -2.95492 0
M  V30 401 N 41.3868 0.248026 -1.55636 0
M  V30 402 C 42.2968 1.32859 -1.93354 0
M  V30 403 C 43.3128 1.52719 -0.833838 0
M  V30 404 O 44.4888 1.66363 -1.13513 0
M  V30 405 C 41.5538 2.66337 -2.21958 0
M  V30 406 C 40.6148 2.55008 -3.45354 0
M  V30 407 C 39.8478 3.82121 -3.72584 0
M  V30 408 O 40.0708 4.83951 -3.01907 0
M  V30 409 O 39.0048 3.80822 -4.6611 0
M  V30 410 H 42.8308 1.03862 -2.85388 0
M  V30 411 H 40.4158 0.448686 -1.42503 0
M  V30 412 H 42.2978 3.45216 -2.4167 0
M  V30 413 H 40.9728 2.95068 -1.33103 0
M  V30 414 H 39.8798 1.7442 -3.30951 0
M  V30 415 H 41.2128 2.31222 -4.34508 0
M  V30 416 N 42.8649 1.48995 0.513639 0
M  V30 417 C 43.7749 1.67443 1.64317 0
M  V30 418 C 44.7909 0.556947 1.64846 0
M  V30 419 O 45.9669 0.830082 1.83498 0
M  V30 420 C 43.0319 1.72515 3.00732 0
M  V30 421 C 42.0929 2.96009 3.1093 0
M  V30 422 C 41.3259 3.00829 4.40837 0
M  V30 423 O 41.5489 2.13594 5.28898 0
M  V30 424 O 40.4829 3.93168 4.55744 0
M  V30 425 H 44.3089 2.63106 1.51687 0
M  V30 426 H 41.8939 1.32588 0.688543 0
M  V30 427 H 43.7759 1.78277 3.81831 0
M  V30 428 H 42.4509 0.800278 3.13651 0
M  V30 429 H 41.3579 2.9577 2.29065 0
M  V30 430 H 42.6909 3.87934 3.02933 0
M  V30 431 N 44.343 -0.763751 1.37857 0
M  V30 432 C 45.276 -1.88486 1.28639 0
M  V30 433 C 46.254 -1.61757 0.165363 0
M  V30 434 O 47.438 -1.85391 0.340948 0
M  V30 435 C 44.565 -3.23884 0.990811 0
M  V30 436 C 43.611 -3.69514 2.12983 0
M  V30 437 S 44.444 -3.82244 3.75033 0
M  V30 438 C 45.6 -5.20477 3.47641 0
M  V30 439 H 45.833 -1.96017 2.23527 0
M  V30 440 H 43.366 -0.925684 1.23574 0
M  V30 441 H 45.324 -4.02081 0.827101 0
M  V30 442 H 43.985 -3.14044 0.0592832 0
M  V30 443 H 43.178 -4.67696 1.87821 0
M  V30 444 H 42.78 -2.98441 2.25408 0
M  V30 445 H 45.072 -6.05905 3.03125 0
M  V30 446 H 46.015 -5.50655 4.4518 0
M  V30 447 H 46.423 -4.88793 2.82385 0
M  V30 448 N 45.8211 -1.22559 -0.990812 0
M  V30 449 C 47.0981 -0.959875 -1.70428 0
M  V30 450 C 47.4781 0.524455 -2.04481 0
M  V30 451 O 46.8261 1.49302 -1.72977 0
M  V30 452 C 47.0361 -1.85955 -2.95333 0
M  V30 453 C 48.3841 -2.11687 -3.68068 0
M  V30 454 O 49.4081 -1.8342 -3.05345 0
M  V30 455 O 48.2671 -2.59572 -4.80921 0
M  V30 456 H 45.3611 -0.361154 -0.743974 0
M  V30 457 H 47.9071 -1.33554 -1.04697 0
M  V30 458 H 46.6791 -2.86346 -2.66687 0
M  V30 459 H 46.3021 -1.4856 -3.68803 0
M  V30 460 N 47.2992 1.18797 -1.03562 0
M  V30 461 C 48.2092 2.25913 -0.632505 0
M  V30 462 C 49.2252 1.70668 0.338882 0
M  V30 463 O 50.4012 2.00453 0.195076 0
M  V30 464 C 47.4662 3.467 0.00350942 0
M  V30 465 C 46.5272 4.17098 -1.01624 0
M  V30 466 C 45.7602 5.32119 -0.410478 0
M  V30 467 O 45.9832 5.64976 0.784725 0
M  V30 468 O 44.9172 5.9107 -1.13667 0
M  V30 469 H 48.7432 2.62648 -1.52478 0
M  V30 470 H 46.3282 1.25781 -0.806195 0
M  V30 471 H 48.2102 4.19878 0.35781 0
M  V30 472 H 46.8852 3.11798 0.869686 0
M  V30 473 H 45.7922 3.4601 -1.42224 0
M  V30 474 H 47.1252 4.55987 -1.85301 0
M  V30 475 N 48.7773 0.814389 1.34928 0
M  V30 476 C 50.1933 0.499084 1.51596 0
M  V30 477 C 50.3933 -0.978319 1.76157 0
M  V30 478 O 49.4493 -1.76309 1.80752 0
M  V30 479 C 50.7623 1.35121 2.68631 0
M  V30 480 C 52.3103 1.34746 2.82511 0
M  V30 481 C 52.7853 2.18388 4.0258 0
M  V30 482 N 54.2763 2.15966 4.09772 0
M  V30 483 C 55.0113 2.77437 5.01813 0
M  V30 484 N 54.5073 3.47866 5.99134 0
M  V30 485 N 56.3003 2.67037 4.94619 0
M  V30 486 H 48.4513 1.7711 1.17243 0
M  V30 487 H 50.7143 0.754256 0.574284 0
M  V30 488 H 50.4203 2.40001 2.57085 0
M  V30 489 H 50.2943 1.00991 3.63429 0
M  V30 490 H 52.6813 0.30648 2.93504 0
M  V30 491 H 52.7623 1.72869 1.88547 0
M  V30 492 H 52.4063 3.2253 3.92347 0
M  V30 493 H 52.3363 1.77621 4.9574 0
M  V30 494 H 54.8273 1.64729 3.40107 0
M  V30 495 H 55.1403 3.92038 6.65977 0
M  V30 496 H 53.4853 3.51972 5.99284 0
M  V30 497 H 56.6763 2.11597 4.17546 0
M  V30 498 H 56.8493 3.15232 5.66156 0
M  V30 499 N 50.2554 -1.46986 0.568584 0
M  V30 500 C 51.6714 -1.57946 0.229189 0
M  V30 501 C 51.8714 -1.56567 -1.26843 0
M  V30 502 O 50.9274 -1.47511 -2.04931 0
M  V30 503 C 52.2404 -2.87963 0.865909 0
M  V30 504 C 53.7884 -3.01568 0.838188 0
M  V30 505 C 54.2634 -4.34301 1.45419 0
M  V30 506 N 55.7544 -4.40965 1.41788 0
M  V30 507 C 56.4894 -5.42256 1.86403 0
M  V30 508 N 55.9854 -6.50297 2.38926 0
M  V30 509 N 57.7784 -5.3337 1.77405 0
M  V30 510 H 49.9294 -1.46126 1.54146 0
M  V30 511 H 52.1924 -0.696156 0.643484 0
M  V30 512 H 51.8984 -2.94742 1.91886 0
M  V30 513 H 51.7724 -3.75423 0.365687 0
M  V30 514 H 54.1594 -2.94379 -0.206106 0
M  V30 515 H 54.2404 -2.1562 1.37629 0
M  V30 516 H 53.8844 -4.42247 2.49761 0
M  V30 517 H 53.8144 -5.19 0.891435 0
M  V30 518 H 56.3054 -3.63484 1.03381 0
M  V30 519 H 56.6184 -7.23777 2.70863 0
M  V30 520 H 54.9634 -6.51155 2.42944 0
M  V30 521 H 58.1544 -4.47865 1.3614 0
M  V30 522 H 58.3274 -6.12169 2.12492 0
M  V30 523 N 51.7335 -0.305618 -1.54608 0
M  V30 524 C 53.1495 0.0476228 -1.59529 0
M  V30 525 C 53.3495 1.52025 -1.32252 0
M  V30 526 O 52.4055 2.27368 -1.09818 0
M  V30 527 C 53.7185 -0.354471 -2.98603 0
M  V30 528 C 55.2665 -0.303622 -3.11524 0
M  V30 529 C 55.7415 -0.680608 -4.52915 0
M  V30 530 N 57.2325 -0.63332 -4.5885 0
M  V30 531 C 57.9675 -0.897432 -5.66334 0
M  V30 532 N 57.4635 -1.22775 -6.81834 0
M  V30 533 N 59.2565 -0.824186 -5.56025 0
M  V30 534 H 51.4075 -1.2653 -1.70599 0
M  V30 535 H 53.6705 -0.513291 -0.797017 0
M  V30 536 H 53.3765 -1.3798 -3.23503 0
M  V30 537 H 53.2505 0.289568 -3.76087 0
M  V30 538 H 55.6375 0.712472 -2.8637 0
M  V30 539 H 55.7185 -0.982348 -2.36185 0
M  V30 540 H 55.3625 -1.69453 -4.78799 0
M  V30 541 H 55.2925 0.0202385 -5.26596 0
M  V30 542 H 57.7835 -0.389138 -3.75891 0
M  V30 543 H 58.0965 -1.41513 -7.59733 0
M  V30 544 H 56.4415 -1.26583 -6.83375 0
M  V30 545 H 59.6325 -0.565748 -4.64669 0
M  V30 546 H 59.8055 -1.03338 -6.39707 0
M  V30 547 N 53.2116 1.57565 -0.0334293 0
M  V30 548 C 54.1436 2.0739 0.975811 0
M  V30 549 C 55.1566 0.998166 1.2861 0
M  V30 550 O 56.3456 1.27426 1.25 0
M  V30 551 C 53.4456 2.4871 2.30209 0
M  V30 552 C 52.6186 3.79413 2.17634 0
M  V30 553 C 51.6776 4.07237 3.33233 0
M  V30 554 O 50.7036 4.77425 3.09927 0
M  V30 555 N 51.9056 3.5775 4.5716 0
M  V30 556 H 54.6706 2.94598 0.55066 0
M  V30 557 H 52.2316 1.61173 0.15323 0
M  V30 558 H 54.2236 2.64413 3.06378 0
M  V30 559 H 52.7936 1.66845 2.64351 0
M  V30 560 H 52.0136 3.73465 1.26165 0
M  V30 561 H 53.3016 4.65038 2.0644 0
M  V30 562 H 52.6996 3.00976 4.78989 0
M  V30 563 H 51.2566 3.78724 5.30482 0
M  V30 564 N 54.6897 -0.239769 1.55765 0
M  V30 565 C 55.6377 -1.31668 1.91745 0
M  V30 566 C 56.6317 -1.49462 0.797338 0
M  V30 567 O 57.8377 -1.50852 0.982021 0
M  V30 568 H 54.2127 -0.441048 0.609082 0
M  V30 569 H 56.1837 -0.985923 2.81642 0
M  V30 570 C 54.9327 -2.66368 2.2348 0
M  V30 571 H 54.2557 -2.53478 3.09175 0
M  V30 572 H 55.6957 -3.40578 2.52553 0
M  V30 573 C 54.1547 -3.20002 1.05359 0
M  V30 574 O 54.6847 -4.00538 0.305261 0
M  V30 575 N 52.8907 -2.78126 0.842292 0
M  V30 576 H 52.4377 -2.12742 1.45253 0
M  V30 577 H 52.3957 -3.14354 0.053652 0
M  V30 578 N 56.1678 -1.49265 -0.50573 0
M  V30 579 C 57.4138 -1.58748 -1.26202 0
M  V30 580 C 57.7468 -0.271227 -1.92297 0
M  V30 581 O 57.0218 0.724831 -1.80489 0
M  V30 582 C 57.3048 -2.74332 -2.33268 0
M  V30 583 C 57.1578 -4.15737 -1.71705 0
M  V30 584 C 58.4768 -2.85576 -3.34865 0
M  V30 585 H 55.5958 -0.577826 -0.457478 0
M  V30 586 H 58.2378 -1.81532 -0.560897 0
M  V30 587 H 56.3878 -2.55036 -2.93068 0
M  V30 588 H 58.0598 -4.46537 -1.15769 0
M  V30 589 H 56.3028 -4.21605 -1.02135 0
M  V30 590 H 56.9738 -4.92477 -2.49341 0
M  V30 591 H 59.4498 -3.03127 -2.8505 0
M  V30 592 H 58.3258 -3.68135 -4.07146 0
M  V30 593 H 58.5868 -1.94732 -3.96903 0
M  V30 594 N 57.6459 0.756429 -1.3826 0
M  V30 595 C 58.6089 1.85176 -1.35065 0
M  V30 596 C 59.6089 1.58818 -0.251703 0
M  V30 597 O 60.7989 1.66615 -0.508433 0
M  V30 598 C 57.9309 3.22596 -1.10201 0
M  V30 599 H 59.1239 1.89417 -2.3251 0
M  V30 600 H 56.6769 0.95783 -1.23512 0
M  V30 601 H 57.4119 3.24025 -0.133504 0
M  V30 602 H 57.1969 3.43122 -1.89762 0
M  V30 603 H 58.6869 4.02673 -1.10654 0
M  V30 604 N 59.124 1.23083 0.984299 0
M  V30 605 C 60.354 1.08556 1.75781 0
M  V30 606 C 60.762 -0.366171 1.85623 0
M  V30 607 O 60.105 -1.26524 1.33182 0
M  V30 608 C 60.167 1.63208 3.20318 0
M  V30 609 C 59.831 3.11922 3.33997 0
M  V30 610 C 60.828 4.09259 3.2063 0
M  V30 611 C 58.513 3.51552 3.58771 0
M  V30 612 C 60.507 5.4421 3.31835 0
M  V30 613 C 58.194 4.86649 3.69616 0
M  V30 614 C 59.192 5.82787 3.56157 0
M  V30 615 O 58.88 7.15431 3.66626 0
M  V30 616 H 58.612 0.380713 0.5586 0
M  V30 617 H 61.166 1.63321 1.2456 0
M  V30 618 H 59.396 1.0286 3.72769 0
M  V30 619 H 61.085 1.44216 3.79416 0
M  V30 620 H 61.851 3.79984 3.01392 0
M  V30 621 H 57.73 2.77239 3.6832 0
M  V30 622 H 61.274 6.1923 3.21247 0
M  V30 623 H 57.171 5.15601 3.88363 0
M  V30 624 H 57.939 7.23127 3.83445 0
M  V30 625 N 60.6021 -1.18246 1.0419 0
M  V30 626 C 61.5121 -2.25574 0.644476 0
M  V30 627 C 62.5281 -1.70845 -0.329826 0
M  V30 628 O 63.7041 -2.00554 -0.184443 0
M  V30 629 C 60.7691 -3.46697 0.014877 0
M  V30 630 C 59.8301 -4.16554 1.03834 0
M  V30 631 C 59.0631 -5.31894 0.438692 0
M  V30 632 O 59.2861 -5.65385 -0.754752 0
M  V30 633 O 58.2201 -5.90459 1.168 0
M  V30 634 H 62.0461 -2.61836 1.53869 0
M  V30 635 H 59.6311 -1.25352 0.812854 0
M  V30 636 H 61.5131 -4.20062 -0.335538 0
M  V30 637 H 60.1881 -3.12255 -0.853138 0
M  V30 638 H 59.0951 -3.45251 1.44057 0
M  V30 639 H 60.4281 -4.54998 1.87716 0
M  V30 640 N 62.0802 -0.821533 -1.34494 0
M  V30 641 C 63.3102 -0.421272 -2.02259 0
M  V30 642 C 63.7182 0.977047 -1.6202 0
M  V30 643 O 63.0612 1.64348 -0.820703 0
M  V30 644 C 63.1232 -0.44231 -3.56769 0
M  V30 645 C 62.7872 -1.79372 -4.20327 0
M  V30 646 C 63.7842 -2.75435 -4.40944 0
M  V30 647 C 61.4692 -2.08182 -4.57127 0
M  V30 648 C 63.4632 -3.98482 -4.97484 0
M  V30 649 C 61.1502 -3.31489 -5.13379 0
M  V30 650 C 62.1482 -4.26457 -5.33501 0
M  V30 651 O 61.8362 -5.47585 -5.88562 0
M  V30 652 H 61.5682 -0.167473 -0.654927 0
M  V30 653 H 64.1222 -1.11073 -1.72777 0
M  V30 654 H 62.3522 0.303836 -3.85505 0
M  V30 655 H 64.0412 -0.0622925 -4.05852 0
M  V30 656 H 64.8072 -2.54473 -4.12878 0
M  V30 657 H 60.6862 -1.35066 -4.4077 0
M  V30 658 H 64.2302 -4.72618 -5.13106 0
M  V30 659 H 60.1272 -3.52316 -5.40873 0
M  V30 660 H 60.8952 -5.49086 -6.06998 0
M  V30 661 N 63.5583 1.46682 -0.576371 0
M  V30 662 C 64.4883 2.33028 0.148397 0
M  V30 663 C 65.4693 1.44961 0.889956 0
M  V30 664 O 66.6543 1.73789 0.866662 0
M  V30 665 C 63.7843 3.27117 1.1667 0
M  V30 666 C 62.7383 4.24575 0.540386 0
M  V30 667 C 62.0643 5.08126 1.6647 0
M  V30 668 C 63.3643 5.19722 -0.518331 0
M  V30 669 H 65.0583 2.93875 -0.572509 0
M  V30 670 H 62.6043 1.41315 -0.276768 0
M  V30 671 H 64.5573 3.86374 1.68204 0
M  V30 672 H 63.2813 2.64364 1.9178 0
M  V30 673 H 61.9403 3.66571 0.0461769 0
M  V30 674 H 61.5883 4.41762 2.40531 0
M  V30 675 H 61.2883 5.74122 1.25131 0
M  V30 676 H 62.8123 5.70246 2.18293 0
M  V30 677 H 64.2263 5.73232 -0.0883058 0
M  V30 678 H 62.6233 5.94026 -0.851679 0
M  V30 679 H 63.6933 4.64037 -1.40703 0
M  V30 680 N 65.0364 0.313813 1.54444 0
M  V30 681 C 66.2764 -0.292389 2.02298 0
M  V30 682 C 66.6404 -1.50105 1.19719 0
M  V30 683 O 67.8414 -2.17947 1.5733 0
M  V30 684 C 66.1124 -0.627682 3.51845 0
M  V30 685 S 67.6714 -1.21493 4.21646 0
M  V30 686 H 64.4894 -0.0890247 0.705405 0
M  V30 687 H 67.0914 0.444668 1.90376 0
M  V30 688 H 65.7954 0.260265 4.09574 0
M  V30 689 H 65.3264 -1.39519 3.67829 0
M  V30 690 H 67.3414 -2.5022 4.28491 0
M  V30 691 N 66.5145 -1.57545 0.0417849 0
M  V30 692 C 67.4645 -2.07483 -0.945247 0
M  V30 693 C 68.4485 -0.977983 -1.27767 0
M  V30 694 O 69.6405 -1.24142 -1.26166 0
M  V30 695 C 66.7695 -2.61576 -2.22335 0
M  V30 696 C 65.8555 -3.78213 -1.91874 0
M  V30 697 N 66.2465 -4.88344 -1.31733 0
M  V30 698 C 64.5445 -3.8694 -2.21796 0
M  V30 699 C 65.2455 -5.69462 -1.1869 0
M  V30 700 N 64.2215 -5.16771 -1.68666 0
M  V30 701 H 68.0235 -2.90029 -0.475441 0
M  V30 702 H 65.5375 -1.61581 -0.162911 0
M  V30 703 H 67.5345 -2.95651 -2.93932 0
M  V30 704 H 66.1945 -1.80465 -2.69931 0
M  V30 705 H 67.2055 -5.08335 -0.990729 0
M  V30 706 H 63.8825 -3.16757 -2.71977 0
M  V30 707 H 65.2725 -6.68023 -0.720793 0
M  V30 708 N 67.9926 0.231505 -1.5589 0
M  V30 709 C 68.9226 1.29022 -1.94617 0
M  V30 710 C 69.9036 1.4941 -0.813067 0
M  V30 711 O 71.0886 1.6176 -1.07459 0
M  V30 712 C 68.2186 2.64199 -2.25424 0
M  V30 713 C 67.1726 2.58484 -3.41131 0
M  V30 714 C 66.4986 3.97599 -3.57518 0
M  V30 715 C 67.7986 2.1413 -4.76388 0
M  V30 716 H 69.4926 0.968563 -2.83301 0
M  V30 717 H 67.0386 0.464479 -1.36303 0
M  V30 718 H 68.9916 3.38413 -2.51107 0
M  V30 719 H 67.7156 2.98032 -1.33583 0
M  V30 720 H 66.3746 1.86727 -3.15481 0
M  V30 721 H 66.0226 4.28723 -2.6307 0
M  V30 722 H 65.7226 3.94659 -4.35337 0
M  V30 723 H 67.2466 4.7349 -3.85538 0
M  V30 724 H 68.6606 2.78083 -5.01341 0
M  V30 725 H 67.0576 2.2227 -5.57419 0
M  V30 726 H 68.1276 1.09331 -4.72414 0
M  V30 727 N 69.4707 1.49531 0.497807 0
M  V30 728 C 70.3807 1.69176 1.62532 0
M  V30 729 C 71.3967 0.5744 1.64246 0
M  V30 730 O 72.5727 0.849497 1.82608 0
M  V30 731 C 69.6377 1.75695 2.98885 0
M  V30 732 C 68.6987 2.9929 3.07773 0
M  V30 733 C 67.9317 3.05488 4.37622 0
M  V30 734 O 68.1547 2.19192 5.26603 0
M  V30 735 O 67.0887 3.9798 4.51548 0
M  V30 736 H 70.9147 2.647 1.48887 0
M  V30 737 H 68.4997 1.3331 0.674441 0
M  V30 738 H 70.3817 1.82317 3.79919 0
M  V30 739 H 69.0567 0.8335 3.12785 0
M  V30 740 H 67.9637 2.98183 2.25915 0
M  V30 741 H 69.2967 3.91125 2.98801 0
M  V30 742 N 70.9488 -0.749086 1.3866 0
M  V30 743 C 71.8588 -1.89358 1.38494 0
M  V30 744 C 72.8748 -1.71708 0.281476 0
M  V30 745 O 74.0508 -1.94554 0.520643 0
M  V30 746 C 71.1158 -3.24782 1.21316 0
M  V30 747 C 70.1768 -3.54926 2.41508 0
M  V30 748 C 69.4098 -4.83888 2.2514 0
M  V30 749 O 69.6328 -5.56592 1.24746 0
M  V30 750 O 68.5668 -5.13612 3.13826 0
M  V30 751 H 72.3928 -1.92452 2.34938 0
M  V30 752 H 69.9778 -0.894981 1.19626 0
M  V30 753 H 71.8598 -4.05739 1.13814 0
M  V30 754 H 70.5348 -3.2249 0.279592 0
M  V30 755 H 69.4418 -2.74112 2.54585 0
M  V30 756 H 70.7748 -3.61983 3.3351 0
M  V30 757 N 72.4269 -1.23603 -0.977757 0
M  V30 758 C 73.3899 -1.02069 -2.05218 0
M  V30 759 C 74.3899 0.0184305 -1.60789 0
M  V30 760 O 75.5799 -0.221569 -1.72785 0
M  V30 761 C 72.7119 -0.544926 -3.36517 0
M  V30 762 H 73.9049 -1.9742 -2.25755 0
M  V30 763 H 71.4579 -1.05684 -1.15155 0
M  V30 764 H 72.1929 0.412241 -3.21669 0
M  V30 765 H 71.9779 -1.2948 -3.70105 0
M  V30 766 H 73.4679 -0.414985 -4.15533 0
M  V30 767 N 73.905 1.17692 -1.04816 0
M  V30 768 C 74.852 2.21581 -0.645797 0
M  V30 769 C 75.822 1.62367 0.350159 0
M  V30 770 O 77.007 1.89254 0.242433 0
M  V30 771 C 74.147 3.45092 -0.0227568 0
M  V30 772 C 73.26 4.18613 -1.06709 0
M  V30 773 C 72.395 5.29602 -0.411767 0
M  V30 774 C 71.434 5.94904 -1.44067 0
M  V30 775 N 70.571 6.97414 -0.809781 0
M  V30 776 H 75.411 2.55353 -1.5362 0
M  V30 777 H 72.948 1.25438 -0.768364 0
M  V30 778 H 74.906 4.15679 0.35588 0
M  V30 779 H 73.536 3.11917 0.831122 0
M  V30 780 H 72.588 3.46779 -1.5636 0
M  V30 781 H 73.9 4.63293 -1.84827 0
M  V30 782 H 73.054 6.06696 0.0206623 0
M  V30 783 H 71.793 4.86045 0.401438 0
M  V30 784 H 70.798 5.16544 -1.88316 0
M  V30 785 H 72.023 6.40542 -2.25571 0
M  V30 786 H 69.969 6.55998 -0.0170186 0
M  V30 787 H 69.886 7.40386 -1.52856 0
M  V30 788 H 71.154 7.78463 -0.401999 0
M  V30 789 N 75.3831 0.828654 1.34056 0
M  V30 790 C 76.7991 0.515135 1.51058 0
M  V30 791 C 76.9991 -0.959581 1.77184 0
M  V30 792 O 76.0551 -1.74382 1.82612 0
M  V30 793 C 77.3681 1.37963 2.67183 0
M  V30 794 C 78.9161 1.37735 2.81066 0
M  V30 795 C 79.3911 2.22645 4.00241 0
M  V30 796 N 80.8821 2.203 4.07458 0
M  V30 797 C 81.6171 2.82744 4.98842 0
M  V30 798 N 81.1131 3.54201 5.9541 0
M  V30 799 N 82.9061 2.72268 4.91759 0
M  V30 800 H 75.0571 1.78343 1.15358 0
M  V30 801 H 77.3201 0.760304 0.566252 0
M  V30 802 H 77.0261 2.42714 2.54525 0
M  V30 803 H 76.9001 1.0484 3.62338 0
M  V30 804 H 79.2871 0.337593 2.93163 0
M  V30 805 H 79.3681 1.74859 1.86703 0
M  V30 806 H 79.0121 3.26674 3.88905 0
M  V30 807 H 78.9421 1.82869 4.93829 0
M  V30 808 H 81.4331 1.68327 3.38341 0
M  V30 809 H 81.7461 3.9908 6.61782 0
M  V30 810 H 80.0911 3.58308 5.95517 0
M  V30 811 H 83.2821 2.16014 4.15278 0
M  V30 812 H 83.4551 3.21219 5.62781 0
M  V30 813 N 76.8612 -1.46375 0.584142 0
M  V30 814 C 78.1072 -2.03248 0.0787103 0
M  V30 815 C 78.4622 -1.44737 -1.26763 0
M  V30 816 O 77.7552 -0.603625 -1.81843 0
M  V30 817 C 77.9492 -3.57373 -0.0439342 0
M  V30 818 C 77.7782 -4.30831 1.28897 0
M  V30 819 C 76.5482 -4.69683 1.8635 0
M  V30 820 C 78.7462 -4.64278 2.21248 0
M  V30 821 N 76.7282 -5.27898 3.13365 0
M  V30 822 C 78.0992 -5.23078 3.32851 0
M  V30 823 C 80.1542 -4.46209 2.20911 0
M  V30 824 C 78.8572 -5.65715 4.44251 0
M  V30 825 C 80.8832 -4.89864 3.31341 0
M  V30 826 C 80.2452 -5.48736 4.41665 0
M  V30 827 H 76.3442 -0.778714 0.0716144 0
M  V30 828 H 78.9282 -1.78509 0.777355 0
M  V30 829 H 77.0992 -3.81823 -0.711749 0
M  V30 830 H 78.8312 -4.00892 -0.553881 0
M  V30 831 H 75.5862 -4.52488 1.39826 0
M  V30 832 H 76.0102 -5.61525 3.78178 0
M  V30 833 H 80.6522 -4.00027 1.36888 0
M  V30 834 H 78.3702 -6.10875 5.29015 0
M  V30 835 H 81.9562 -4.77634 3.322 0
M  V30 836 H 80.8362 -5.81898 5.25704 0
M  V30 837 N 78.3393 -0.321999 -1.54275 0
M  V30 838 C 79.2723 0.58718 -2.20516 0
M  V30 839 C 80.2503 1.11693 -1.18167 0
M  V30 840 O 81.4343 1.18122 -1.46899 0
M  V30 841 C 78.5613 1.80554 -2.86562 0
M  V30 842 C 77.6073 1.40718 -4.02617 0
M  V30 843 S 78.4403 0.445218 -5.33646 0
M  V30 844 C 79.5963 1.6709 -6.03185 0
M  V30 845 H 79.8293 0.0244875 -2.9729 0
M  V30 846 H 77.3623 -0.106087 -1.54035 0
M  V30 847 H 79.3203 2.50462 -3.25237 0
M  V30 848 H 77.9813 2.33942 -2.09595 0
M  V30 849 H 77.1743 2.31501 -4.47687 0
M  V30 850 H 76.7763 0.78782 -3.65608 0
M  V30 851 H 79.0683 2.60856 -6.25268 0
M  V30 852 H 80.0113 1.26239 -6.96756 0
M  V30 853 H 80.4193 1.85716 -5.33076 0
M  V30 854 N 79.8174 1.5752 -0.0501392 0
M  V30 855 C 80.7274 2.14952 0.939827 0
M  V30 856 C 81.7434 1.10706 1.34239 0
M  V30 857 O 82.9194 1.42869 1.41952 0
M  V30 858 C 79.9844 2.68232 2.19665 0
M  V30 859 C 79.0454 3.87272 1.85253 0
M  V30 860 C 78.2784 4.38002 3.04943 0
M  V30 861 O 78.5014 3.87811 4.18281 0
M  V30 862 O 77.4354 5.29602 2.86017 0
M  V30 863 H 81.2614 2.9986 0.481392 0
M  V30 864 H 78.8464 1.4841 0.171699 0
M  V30 865 H 80.7284 3.02475 2.93406 0
M  V30 866 H 79.4034 1.86395 2.64648 0
M  V30 867 H 78.3104 3.5792 1.0883 0
M  V30 868 H 79.6434 4.70336 1.4507 0
M  V30 869 N 81.2955 -0.223234 1.56011 0
M  V30 870 C 82.2585 -1.26014 1.9145 0
M  V30 871 C 83.2585 -1.3989 0.792937 0
M  V30 872 O 84.4485 -1.38184 1.0607 0
M  V30 873 C 81.5805 -2.63422 2.16383 0
M  V30 874 H 82.7735 -0.95796 2.84189 0
M  V30 875 H 80.3265 -0.463576 1.49267 0
M  V30 876 H 81.0615 -2.98741 1.2619 0
M  V30 877 H 80.8465 -2.54728 2.98088 0
M  V30 878 H 82.3365 -3.38249 2.44903 0
M  V30 879 N 82.7736 -1.49793 -0.48987 0
M  V30 880 C 84.0136 -1.61466 -1.25332 0
M  V30 881 C 84.3776 -0.299688 -1.89647 0
M  V30 882 O 85.5786 -0.291687 -2.67213 0
M  V30 883 C 83.8496 -2.74944 -2.28343 0
M  V30 884 S 85.4086 -3.06637 -3.13878 0
M  V30 885 H 82.2266 -0.569411 -0.425784 0
M  V30 886 H 84.8286 -1.875 -0.553541 0
M  V30 887 H 83.5326 -3.68994 -1.79643 0
M  V30 888 H 83.0636 -2.50938 -3.02975 0
M  V30 889 H 85.0786 -2.49015 -4.29192 0
M  V30 890 N 84.2517 0.741722 -1.39055 0
M  V30 891 C 85.1817 1.869 -1.39966 0
M  V30 892 C 86.1627 1.6804 -0.26392 0
M  V30 893 O 87.3477 1.88458 -0.468755 0
M  V30 894 C 84.4777 3.24572 -1.23574 0
M  V30 895 C 83.4317 3.58056 -2.34477 0
M  V30 896 C 82.7577 4.94593 -2.0318 0
M  V30 897 C 84.0577 3.61716 -3.76774 0
M  V30 898 H 85.7517 1.86395 -2.34302 0
M  V30 899 H 83.2977 0.895361 -1.1278 0
M  V30 900 H 85.2507 4.031 -1.22834 0
M  V30 901 H 83.9747 3.25587 -0.257045 0
M  V30 902 H 82.6337 2.81854 -2.34423 0
M  V30 903 H 82.2817 4.92181 -1.03765 0
M  V30 904 H 81.9817 5.17964 -2.77465 0
M  V30 905 H 83.5057 5.75486 -2.04079 0
M  V30 906 H 84.9197 4.30335 -3.78794 0
M  V30 907 H 83.3167 3.96603 -4.50362 0
M  V30 908 H 84.3867 2.61672 -4.08235 0
M  V30 909 N 85.7298 1.2412 0.971189 0
M  V30 910 C 86.9778 1.07668 1.71032 0
M  V30 911 C 87.2988 -0.385797 1.91146 0
M  V30 912 O 86.5688 -1.27569 1.4867 0
M  V30 913 H 85.1488 0.395429 0.633755 0
M  V30 914 H 87.8108 1.55984 1.16855 0
M  V30 915 H 86.9068 1.57195 2.69622 0
M  V30 916 N 87.2079 -1.17134 1.05439 0
M  V30 917 C 88.1179 -2.24878 0.668365 0
M  V30 918 C 89.1339 -1.71186 -0.311687 0
M  V30 919 O 90.3099 -2.00738 -0.163161 0
M  V30 920 C 87.3749 -3.46662 0.051648 0
M  V30 921 C 86.4359 -4.15429 1.08246 0
M  V30 922 C 85.6689 -5.31399 0.495082 0
M  V30 923 O 85.8919 -5.66153 -0.694743 0
M  V30 924 O 84.8259 -5.89187 1.23056 0
M  V30 925 H 88.6519 -2.60189 1.56637 0
M  V30 926 H 86.2369 -1.24482 0.826104 0
M  V30 927 H 88.1189 -4.20394 -0.290966 0
M  V30 928 H 86.7939 -3.13142 -0.819971 0
M  V30 929 H 85.7009 -3.43704 1.47711 0
M  V30 930 H 87.0339 -4.52982 1.92532 0
M  V30 931 N 88.686 -0.835752 -1.33615 0
M  V30 932 C 89.963 -0.352017 -1.92406 0
M  V30 933 C 90.343 1.16225 -1.76224 0
M  V30 934 O 89.691 1.97526 -1.14873 0
M  V30 935 C 89.901 -0.795485 -3.39813 0
M  V30 936 C 91.249 -0.801703 -4.16963 0
M  V30 937 O 92.273 -0.738889 -3.48452 0
M  V30 938 O 91.132 -0.886607 -5.3926 0
M  V30 939 H 88.226 -0.0989641 -0.821057 0
M  V30 940 H 90.772 -0.921397 -1.42507 0
M  V30 941 H 89.544 -1.83795 -3.45449 0
M  V30 942 H 89.167 -0.202505 -3.97084 0
M  V30 943 N 90.1641 1.46063 -0.591896 0
M  V30 944 C 91.0941 2.33172 0.123673 0
M  V30 945 C 92.0751 1.45897 0.87453 0
M  V30 946 O 93.2601 1.74698 0.848181 0
M  V30 947 C 90.3901 3.28336 1.13194 0
M  V30 948 C 89.3441 4.25124 0.495324 0
M  V30 949 C 88.6701 5.09863 1.61071 0
M  V30 950 C 89.9701 5.19143 -0.573425 0
M  V30 951 H 91.6641 2.93252 -0.603646 0
M  V30 952 H 89.2101 1.41014 -0.291741 0
M  V30 953 H 91.1631 3.88137 1.64097 0
M  V30 954 H 89.8871 2.66383 1.88965 0
M  V30 955 H 88.5461 3.66599 0.00729452 0
M  V30 956 H 88.1941 4.44288 2.35832 0
M  V30 957 H 87.8941 5.75417 1.19035 0
M  V30 958 H 89.4181 5.72529 2.12233 0
M  V30 959 H 90.8321 5.73106 -0.1491 0
M  V30 960 H 89.2291 5.93089 -0.914636 0
M  V30 961 H 90.2991 4.62519 -1.45617 0
M  V30 962 N 91.6422 0.330177 1.54103 0
M  V30 963 C 93.0532 -0.15652 1.86043 0
M  V30 964 C 93.4042 -1.51086 1.2517 0
M  V30 965 O 92.5292 -2.09023 0.560217 0
M  V30 966 C 93.1242 -0.290784 3.3755 0
M  V30 967 C 91.6832 -0.721705 3.69416 0
M  V30 968 C 90.8302 0.152622 2.7688 0
M  V30 969 H 93.7812 0.550237 1.48856 0
M  V30 970 H 93.8022 -1.12058 3.63625 0
M  V30 971 H 93.3142 0.695068 3.81825 0
M  V30 972 H 91.4152 -1.71706 3.30678 0
M  V30 973 H 91.5282 -0.520869 4.7626 0
M  V30 974 H 89.8922 -0.372894 2.51956 0
M  V30 975 H 90.6752 1.13536 3.23982 0
M  V30 976 N 93.1203 -1.57491 0.0584922 0
M  V30 977 C 94.5313 -1.80526 -0.476138 0
M  V30 978 C 94.8823 -0.971334 -1.70469 0
M  V30 979 O 94.0073 -0.190012 -2.15564 0
M  V30 980 C 94.6023 -3.27424 -0.870587 0
M  V30 981 C 93.1613 -3.51351 -1.35015 0
M  V30 982 C 92.3083 -2.75343 -0.32887 0
M  V30 983 H 95.2593 -1.56133 0.284312 0
M  V30 984 H 95.2803 -3.38745 -1.73299 0
M  V30 985 H 94.7923 -3.88093 0.0237627 0
M  V30 986 H 92.8933 -2.95971 -2.26345 0
M  V30 987 H 93.0063 -4.60059 -1.33726 0
M  V30 988 H 91.3703 -2.417 -0.803321 0
M  V30 989 H 92.1533 -3.38743 0.557521 0
M  V30 990 N 94.5984 0.214957 -1.56127 0
M  V30 991 C 95.8264 0.955092 -1.83536 0
M  V30 992 C 96.2414 1.77677 -0.638472 0
M  V30 993 O 95.5984 1.78219 0.392968 0
M  V30 994 C 95.6494 1.86734 -3.09536 0
M  V30 995 O 95.3704 1.07887 -4.24608 0
M  V30 996 C 96.8714 2.72082 -3.4998 0
M  V30 997 H 94.0914 0.279611 -0.609966 0
M  V30 998 H 96.6354 0.228197 -2.03223 0
M  V30 999 H 94.7904 2.5481 -2.91806 0
M  V30 1000 H 95.2044 1.69872 -4.9623 0
M  V30 1001 H 96.6784 3.31782 -4.41163 0
M  V30 1002 H 97.1554 3.44806 -2.7204 0
M  V30 1003 H 97.7614 2.09409 -3.70173 0
M  V30 1004 N 96.0765 1.50051 0.48192 0
M  V30 1005 C 97.3045 1.64237 1.25832 0
M  V30 1006 C 97.7195 0.321336 1.86045 0
M  V30 1007 O 97.0765 -0.695478 1.68729 0
M  V30 1008 C 97.1275 2.72548 2.37487 0
M  V30 1009 O 96.8485 3.99529 1.79745 0
M  V30 1010 C 98.3495 2.9761 3.28547 0
M  V30 1011 H 95.5695 0.55237 0.380957 0
M  V30 1012 H 98.1135 1.96207 0.576467 0
M  V30 1013 H 96.2685 2.43303 3.01467 0
M  V30 1014 H 96.6825 4.59342 2.5319 0
M  V30 1015 H 98.1565 3.77084 4.03127 0
M  V30 1016 H 98.6335 2.0826 3.86684 0
M  V30 1017 H 99.2395 3.28345 2.70314 0
M  V30 1018 N 97.5546 -0.734337 1.39446 0
M  V30 1019 C 98.4646 -1.87879 1.40495 0
M  V30 1020 C 99.4806 -1.714 0.299672 0
M  V30 1021 O 100.657 -1.93991 0.541249 0
M  V30 1022 C 97.7216 -3.23477 1.24754 0
M  V30 1023 C 96.7826 -3.52344 2.45259 0
M  V30 1024 C 96.0156 -4.81473 2.30259 0
M  V30 1025 O 96.2386 -5.55237 1.30643 0
M  V30 1026 O 95.1726 -5.10254 3.19256 0
M  V30 1027 H 98.9986 -1.89949 2.36966 0
M  V30 1028 H 96.5836 -0.882243 1.20569 0
M  V30 1029 H 98.4656 -4.04509 1.18111 0
M  V30 1030 H 97.1406 -3.22176 0.313781 0
M  V30 1031 H 96.0476 -2.71396 2.57478 0
M  V30 1032 H 97.3806 -3.58426 3.37331 0
M  V30 1033 N 99.0327 -1.24633 -0.964593 0
M  V30 1034 C 99.9627 -1.06611 -2.07741 0
M  V30 1035 C 100.944 0.0218666 -1.70086 0
M  V30 1036 O 102.129 -0.145793 -1.93652 0
M  V30 1037 C 99.2587 -0.673444 -3.40708 0
M  V30 1038 C 98.2127 -1.71054 -3.92332 0
M  V30 1039 C 97.5387 -1.17285 -5.21678 0
M  V30 1040 C 98.8387 -3.10718 -4.19824 0
M  V30 1041 H 100.533 -1.99693 -2.23076 0
M  V30 1042 H 98.0787 -0.96152 -1.07195 0
M  V30 1043 H 100.032 -0.534345 -4.17998 0
M  V30 1044 H 98.7557 0.293073 -3.25282 0
M  V30 1045 H 97.4147 -1.83791 -3.17201 0
M  V30 1046 H 97.0627 -0.196847 -5.02615 0
M  V30 1047 H 96.7627 -1.86592 -5.57187 0
M  V30 1048 H 98.2867 -1.04593 -6.01575 0
M  V30 1049 H 99.7007 -3.01192 -4.87808 0
M  V30 1050 H 98.0977 -3.77406 -4.66567 0
M  V30 1051 H 99.1677 -3.58524 -3.26479 0
M  V30 1052 N 100.511 1.16574 -1.06058 0
M  V30 1053 C 101.421 2.2452 -0.680282 0
M  V30 1054 C 102.437 1.71348 0.302604 0
M  V30 1055 O 103.613 2.00822 0.152513 0
M  V30 1056 C 100.678 3.46629 -0.0700315 0
M  V30 1057 C 99.7388 4.14849 -1.10448 0
M  V30 1058 C 98.9718 5.31129 -0.523256 0
M  V30 1059 O 99.1948 5.66514 0.664709 0
M  V30 1060 O 98.1288 5.88526 -1.26179 0
M  V30 1061 H 101.955 2.59355 -1.58015 0
M  V30 1062 H 99.5398 1.24043 -0.832694 0
M  V30 1063 H 101.422 4.20543 0.268667 0
M  V30 1064 H 100.097 3.13573 0.803353 0
M  V30 1065 H 99.0038 3.42916 -1.49532 0
M  V30 1066 H 100.337 4.51954 -1.94931 0
M  V30 1067 N 101.989 0.842826 1.3317 0
M  V30 1068 C 102.899 0.281444 2.32906 0
M  V30 1069 C 103.915 -0.594587 1.63526 0
M  V30 1070 O 105.091 -0.49777 1.95152 0
M  V30 1071 C 102.156 -0.530929 3.42611 0
M  V30 1072 C 101.217 0.369843 4.27704 0
M  V30 1073 C 100.45 -0.403853 5.3217 0
M  V30 1074 O 100.673 -1.63513 5.46461 0
M  V30 1075 O 99.6069 0.224199 6.01482 0
M  V30 1076 H 103.433 1.10744 2.82789 0
M  V30 1077 H 101.018 0.60545 1.36582 0
M  V30 1078 H 102.9 -0.992437 4.09547 0
M  V30 1079 H 101.575 -1.33392 2.94938 0
M  V30 1080 H 100.482 0.879275 3.6362 0
M  V30 1081 H 101.815 1.13771 4.78871 0
M  V30 1082 N 103.467 -1.45747 0.599634 0
M  V30 1083 C 104.715 -2.01893 0.0915472 0
M  V30 1084 C 105.036 -1.47155 -1.27946 0
M  V30 1085 O 104.306 -0.66273 -1.84349 0
M  V30 1086 H 102.886 -0.746363 0.0308524 0
M  V30 1087 H 105.548 -1.78645 0.779237 0
M  V30 1088 H 104.644 -3.1208 0.0353086 0
M  V30 1089 N 104.945 -0.338344 -1.53925 0
M  V30 1090 C 105.875 0.51328 -2.27789 0
M  V30 1091 C 106.856 1.107 -1.29149 0
M  V30 1092 O 108.041 1.12937 -1.57984 0
M  V30 1093 C 105.171 1.66697 -3.04679 0
M  V30 1094 C 104.125 1.20183 -4.1078 0
M  V30 1095 C 103.451 2.44363 -4.75595 0
M  V30 1096 C 104.751 0.30605 -5.21403 0
M  V30 1097 H 106.445 -0.102883 -2.99223 0
M  V30 1098 H 103.991 -0.0509219 -1.4391 0
M  V30 1099 H 105.944 2.26915 -3.55088 0
M  V30 1100 H 104.668 2.30995 -2.30887 0
M  V30 1101 H 103.327 0.622499 -3.61276 0
M  V30 1102 H 102.975 3.07057 -3.98403 0
M  V30 1103 H 102.675 2.13925 -5.47275 0
M  V30 1104 H 104.199 3.05317 -5.28786 0
M  V30 1105 H 105.613 0.814929 -5.67478 0
M  V30 1106 H 104.01 0.0937929 -6.00027 0
M  V30 1107 H 105.08 -0.65921 -4.80398 0
M  V30 1108 N 106.423 1.57458 -0.0668435 0
M  V30 1109 C 107.839 1.56947 0.289772 0
M  V30 1110 C 108.039 1.07584 1.70376 0
M  V30 1111 O 107.095 0.739486 2.41429 0
M  V30 1112 C 108.408 3.0052 0.103943 0
M  V30 1113 C 109.956 3.12517 0.173857 0
M  V30 1114 C 110.431 4.57997 0.0163682 0
M  V30 1115 N 111.922 4.63144 0.0721352 0
M  V30 1116 C 112.657 5.73394 -0.0253794 0
M  V30 1117 N 112.153 6.92576 -0.176133 0
M  V30 1118 N 113.946 5.62091 0.0313305 0
M  V30 1119 H 106.097 1.87863 -0.991027 0
M  V30 1120 H 108.36 0.86583 -0.38606 0
M  V30 1121 H 108.066 3.40729 -0.871572 0
M  V30 1122 H 107.94 3.67304 0.858366 0
M  V30 1123 H 110.327 2.72197 1.13985 0
M  V30 1124 H 110.408 2.48381 -0.611586 0
M  V30 1125 H 110.052 4.99005 -0.946374 0
M  V30 1126 H 109.982 5.20158 0.821153 0
M  V30 1127 H 112.473 3.77436 0.187263 0
M  V30 1128 H 112.786 7.72418 -0.242821 0
M  V30 1129 H 111.131 6.94678 -0.211429 0
M  V30 1130 H 114.322 4.67867 0.147773 0
M  V30 1131 H 114.495 6.47982 -0.048121 0
M  V30 1132 N 107.901 -0.206675 1.56239 0
M  V30 1133 C 108.849 -1.27571 1.94495 0
M  V30 1134 C 109.843 -1.47737 0.828862 0
M  V30 1135 O 111.049 -1.48735 1.0138 0
M  V30 1136 H 107.424 -0.428029 0.6183 0
M  V30 1137 H 109.395 -0.925961 2.8367 0
M  V30 1138 C 108.144 -2.61568 2.29079 0
M  V30 1139 H 107.467 -2.46863 3.14482 0
M  V30 1140 H 108.907 -3.35144 2.5972 0
M  V30 1141 C 107.366 -3.17695 1.12123 0
M  V30 1142 O 107.896 -3.99801 0.390153 0
M  V30 1143 N 106.102 -2.76276 0.901097 0
M  V30 1144 H 105.649 -2.09613 1.49733 0
M  V30 1145 H 105.607 -3.1417 0.120319 0
M  V30 1146 N 109.379 -1.50304 -0.473955 0
M  V30 1147 C 110.627 -1.60832 -1.22382 0
M  V30 1148 C 110.948 -0.30939 -1.9253 0
M  V30 1149 O 110.218 0.67296 -1.83978 0
M  V30 1150 H 108.798 -0.592652 -0.454723 0
M  V30 1151 H 111.46 -1.87068 -0.546968 0
M  V30 1152 H 110.556 -2.41803 -1.97327 0
M  V30 1153 N 110.857 0.726932 -1.39834 0
M  V30 1154 C 112.103 1.48884 -1.377 0
M  V30 1155 C 112.436 1.94185 0.0244852 0
M  V30 1156 O 111.711 1.67361 0.990986 0
M  V30 1157 C 111.994 2.72288 -2.3565 0
M  V30 1158 C 111.847 2.32956 -3.84775 0
M  V30 1159 C 113.166 3.74414 -2.31306 0
M  V30 1160 H 110.285 0.540062 -0.5015 0
M  V30 1161 H 112.927 0.830547 -1.70886 0
M  V30 1162 H 111.077 3.28457 -2.07481 0
M  V30 1163 H 112.749 1.82356 -4.23726 0
M  V30 1164 H 110.992 1.65088 -4.01159 0
M  V30 1165 H 111.663 3.21362 -4.4881 0
M  V30 1166 H 114.139 3.27849 -2.56231 0
M  V30 1167 H 113.015 4.58414 -3.01907 0
M  V30 1168 H 113.276 4.21909 -1.32081 0
M  V30 1169 N 112.336 1.25143 0.95797 0
M  V30 1170 C 113.566 1.12261 1.73439 0
M  V30 1171 C 113.974 -0.326715 1.86358 0
M  V30 1172 O 113.317 -1.2367 1.35836 0
M  V30 1173 C 113.379 1.69966 3.16784 0
M  V30 1174 C 113.043 3.18936 3.27305 0
M  V30 1175 C 114.04 4.15968 3.11877 0
M  V30 1176 C 111.725 3.59083 3.51234 0
M  V30 1177 C 113.719 5.51126 3.20217 0
M  V30 1178 C 111.406 4.9438 3.5921 0
M  V30 1179 C 112.404 5.90211 3.43716 0
M  V30 1180 O 112.092 7.23046 3.51368 0
M  V30 1181 H 111.824 0.392476 0.550399 0
M  V30 1182 H 114.378 1.65927 1.21068 0
M  V30 1183 H 112.608 1.10744 3.70503 0
M  V30 1184 H 114.297 1.52232 3.76272 0
M  V30 1185 H 115.063 3.86292 2.93264 0
M  V30 1186 H 110.942 2.84989 3.62356 0
M  V30 1187 H 114.486 6.25905 3.0804 0
M  V30 1188 H 110.383 5.23723 3.77339 0
M  V30 1189 H 111.151 7.31097 3.6802 0
M  V30 1190 N 113.814 -1.1601 1.06675 0
M  V30 1191 C 114.744 -2.22688 0.702307 0
M  V30 1192 C 115.725 -1.67306 -0.307032 0
M  V30 1193 O 116.91 -1.93352 -0.181305 0
M  V30 1194 C 114.04 -3.47178 0.092038 0
M  V30 1195 C 112.994 -4.15477 1.02777 0
M  V30 1196 C 112.32 -5.33963 0.28061 0
M  V30 1197 C 113.62 -4.66019 2.35846 0
M  V30 1198 H 115.314 -2.53429 1.59419 0
M  V30 1199 H 112.86 -1.21813 0.767961 0
M  V30 1200 H 114.813 -4.21037 -0.174814 0
M  V30 1201 H 113.537 -3.15749 -0.834877 0
M  V30 1202 H 112.196 -3.43549 1.27944 0
M  V30 1203 H 111.844 -4.98788 -0.649545 0
M  V30 1204 H 111.544 -5.806 0.904258 0
M  V30 1205 H 113.068 -6.10596 0.021396 0
M  V30 1206 H 114.482 -5.3144 2.15045 0
M  V30 1207 H 112.879 -5.23293 2.93743 0
M  V30 1208 H 113.949 -3.82023 2.98641 0
M  V30 1209 N 115.292 -0.849877 -1.32721 0
M  V30 1210 C 116.255 -0.296122 -2.27279 0
M  V30 1211 C 117.255 0.541458 -1.5141 0
M  V30 1212 O 118.445 0.353658 -1.70572 0
M  V30 1213 C 115.577 0.581579 -3.35902 0
M  V30 1214 H 116.77 -1.13064 -2.77771 0
M  V30 1215 H 114.323 -0.62383 -1.43311 0
M  V30 1216 H 115.058 1.43809 -2.9067 0
M  V30 1217 H 114.843 -0.0178814 -3.92096 0
M  V30 1218 H 116.333 0.961951 -4.0637 0
M  V30 1219 N 116.77 1.45427 -0.607355 0
M  V30 1220 C 117.717 2.3053 0.111625 0
M  V30 1221 C 118.687 1.4209 0.860216 0
M  V30 1222 O 119.872 1.71019 0.845998 0
M  V30 1223 C 117.012 3.26992 1.10319 0
M  V30 1224 C 116.125 4.30535 0.355493 0
M  V30 1225 C 115.26 5.14105 1.33676 0
M  V30 1226 C 114.299 6.09376 0.576862 0
M  V30 1227 N 113.436 6.85727 1.5074 0
M  V30 1228 H 118.276 2.91477 -0.620093 0
M  V30 1229 H 115.813 1.43631 -0.317594 0
M  V30 1230 H 117.771 3.81385 1.6912 0
M  V30 1231 H 116.401 2.67799 1.80232 0
M  V30 1232 H 115.453 3.78805 -0.348023 0
M  V30 1233 H 116.765 4.98235 -0.237423 0
M  V30 1234 H 115.919 5.72897 1.99684 0
M  V30 1235 H 114.658 4.46423 1.9636 0
M  V30 1236 H 113.663 5.49715 -0.0968519 0
M  V30 1237 H 114.888 6.79085 -0.0449341 0
M  V30 1238 H 112.834 6.20735 2.12189 0
M  V30 1239 H 112.751 7.49778 0.967913 0
M  V30 1240 H 114.019 7.4906 2.15706 0
M  V30 1241 N 118.248 0.346503 1.53744 0
M  V30 1242 C 119.178 -0.501193 2.28058 0
M  V30 1243 C 120.159 -1.10014 1.29734 0
M  V30 1244 O 121.344 -1.12097 1.58581 0
M  V30 1245 C 118.474 -1.65078 3.05559 0
M  V30 1246 C 117.428 -1.18003 4.11411 0
M  V30 1247 C 116.754 -2.41837 4.76884 0
M  V30 1248 C 118.054 -0.278394 5.21558 0
M  V30 1249 H 119.748 0.11875 2.99164 0
M  V30 1250 H 117.294 0.0585531 1.43881 0
M  V30 1251 H 119.247 -2.25028 3.56287 0
M  V30 1252 H 117.971 -2.29767 2.32109 0
M  V30 1253 H 116.63 -0.603331 3.61601 0
M  V30 1254 H 116.278 -3.0494 4.00026 0
M  V30 1255 H 115.978 -2.1102 5.48402 0
M  V30 1256 H 117.502 -3.02508 5.30397 0
M  V30 1257 H 118.916 -0.784823 5.67903 0
M  V30 1258 H 117.313 -0.0619707 6.00068 0
M  V30 1259 H 118.383 0.684677 4.80042 0
M  V30 1260 N 119.726 -1.57421 0.075193 0
M  V30 1261 C 120.974 -1.93236 -0.591974 0
M  V30 1262 C 121.295 -0.956241 -1.69944 0
M  V30 1263 O 120.565 -0.00494792 -1.95899 0
M  V30 1264 H 119.145 -0.713355 -0.22166 0
M  V30 1265 H 121.807 -1.9444 0.133848 0
M  V30 1266 H 120.903 -2.95131 -1.01509 0
M  V30 1267 N 121.204 0.198386 -1.56346 0
M  V30 1268 C 122.152 1.26538 -1.95169 0
M  V30 1269 C 123.146 1.47295 -0.836685 0
M  V30 1270 O 124.352 1.48195 -1.02167 0
M  V30 1271 H 120.727 0.424744 -0.620561 0
M  V30 1272 H 122.698 0.910904 -2.84157 0
M  V30 1273 C 121.447 2.6035 -2.30463 0
M  V30 1274 H 120.77 2.45192 -3.15786 0
M  V30 1275 H 122.21 3.33762 -2.61494 0
M  V30 1276 C 120.669 3.17096 -1.13806 0
M  V30 1277 O 121.199 3.99588 -0.41135 0
M  V30 1278 N 119.405 2.75795 -0.915736 0
M  V30 1279 H 118.952 2.08816 -1.50843 0
M  V30 1280 H 118.91 3.14101 -0.136979 0
M  V30 1281 N 122.682 1.50554 0.465978 0
M  V30 1282 C 123.929 1.61798 1.21768 0
M  V30 1283 C 124.257 0.320696 1.91838 0
M  V30 1284 O 123.512 -0.693724 1.82992 0
M  V30 1285 C 123.811 2.75152 2.28093 0
M  V30 1286 C 123.477 4.15454 1.75239 0
M  V30 1287 C 122.139 4.53628 1.60546 0
M  V30 1288 C 124.491 5.03121 1.36083 0
M  V30 1289 C 121.819 5.77204 1.05128 0
M  V30 1290 C 124.171 6.27249 0.821056 0
M  V30 1291 C 122.835 6.64221 0.660795 0
M  V30 1292 H 122.105 0.592063 0.445582 0
M  V30 1293 H 124.752 1.84503 0.512927 0
M  V30 1294 H 123.057 2.46556 3.04496 0
M  V30 1295 H 124.754 2.81055 2.86023 0
M  V30 1296 H 121.344 3.85341 1.87644 0
M  V30 1297 H 125.528 4.74257 1.46267 0
M  V30 1298 H 120.784 6.0452 0.91462 0
M  V30 1299 H 124.958 6.94537 0.509018 0
M  V30 1300 H 122.585 7.59854 0.229226 0
M  V30 1301 N 124.16 -0.719506 1.40217 0
M  V30 1302 C 125.407 -1.47933 1.38283 0
M  V30 1303 C 125.735 -1.94493 -0.0161536 0
M  V30 1304 O 124.99 -1.68224 -0.999956 0
M  V30 1305 C 125.289 -2.72271 2.31524 0
M  V30 1306 C 124.955 -2.44496 3.78857 0
M  V30 1307 C 123.617 -2.36631 4.18998 0
M  V30 1308 C 125.969 -2.21104 4.71977 0
M  V30 1309 C 123.297 -2.03437 5.503 0
M  V30 1310 C 125.649 -1.89423 6.03574 0
M  V30 1311 C 124.313 -1.80038 6.42762 0
M  V30 1312 H 123.583 -0.541325 0.506012 0
M  V30 1313 H 126.23 -0.824502 1.72842 0
M  V30 1314 H 124.535 -3.42572 1.90137 0
M  V30 1315 H 126.232 -3.30348 2.27313 0
M  V30 1316 H 122.822 -2.51503 3.47051 0
M  V30 1317 H 127.006 -2.26139 4.41786 0
M  V30 1318 H 122.262 -1.94705 5.79569 0
M  V30 1319 H 126.436 -1.70336 6.75247 0
M  V30 1320 H 124.063 -1.54083 7.44421 0
M  V30 1321 N 125.638 -1.25649 -0.95132 0
M  V30 1322 C 126.863 -1.13443 -1.73624 0
M  V30 1323 C 127.288 0.307565 -1.85568 0
M  V30 1324 O 126.646 1.22282 -1.33854 0
M  V30 1325 C 126.694 -1.79723 -3.12621 0
M  V30 1326 O 125.798 -1.07912 -3.98031 0
M  V30 1327 H 125.139 -0.395872 -0.533086 0
M  V30 1328 H 127.669 -1.66276 -1.1922 0
M  V30 1329 H 127.679 -1.86141 -3.63064 0
M  V30 1330 H 126.354 -2.84633 -3.03244 0
M  V30 1331 H 124.931 -1.09398 -3.56492 0
M  V30 1332 N 127.117 1.15442 -1.07289 0
M  V30 1333 C 128.528 1.67803 -0.818475 0
M  V30 1334 C 128.879 1.8489 0.656507 0
M  V30 1335 O 128.004 1.55176 1.50829 0
M  V30 1336 C 128.599 3.04805 -1.47917 0
M  V30 1337 C 127.158 3.54245 -1.27229 0
M  V30 1338 C 126.305 2.29986 -1.54925 0
M  V30 1339 H 129.256 0.996646 -1.23502 0
M  V30 1340 H 129.277 3.69702 -0.90005 0
M  V30 1341 H 128.789 2.92336 -2.55267 0
M  V30 1342 H 126.89 3.71956 -0.21899 0
M  V30 1343 H 127.003 4.35723 -1.99203 0
M  V30 1344 H 125.367 2.35496 -0.970242 0
M  V30 1345 H 126.15 2.20105 -2.63455 0
M  V30 1346 N 128.595 0.856903 1.32268 0
M  V30 1347 C 129.542 0.301172 2.28827 0
M  V30 1348 C 130.512 -0.593104 1.5515 0
M  V30 1349 O 131.697 -0.527537 1.83362 0
M  V30 1350 C 128.837 -0.502523 3.41422 0
M  V30 1351 C 127.95 0.417797 4.29975 0
M  V30 1352 C 127.085 -0.398749 5.29701 0
M  V30 1353 C 126.124 0.518827 6.09897 0
M  V30 1354 N 125.261 -0.260674 7.01616 0
M  V30 1355 H 130.101 1.12983 2.75751 0
M  V30 1356 H 127.638 0.568582 1.35667 0
M  V30 1357 H 129.596 -0.984141 4.05426 0
M  V30 1358 H 128.226 -1.29599 2.95642 0
M  V30 1359 H 127.278 1.01781 3.66531 0
M  V30 1360 H 128.59 1.12191 4.86019 0
M  V30 1361 H 127.744 -0.943435 5.9932 0
M  V30 1362 H 126.483 -1.13622 4.7428 0
M  V30 1363 H 125.488 1.07538 5.39181 0
M  V30 1364 H 126.713 1.25495 6.67404 0
M  V30 1365 H 124.659 -0.981198 6.4862 0
M  V30 1366 H 124.576 0.384364 7.55022 0
M  V30 1367 H 125.844 -0.787014 7.75517 0
M  V30 1368 N 130.073 -1.45103 0.615059 0
M  V30 1369 C 131.319 -2.02483 0.113347 0
M  V30 1370 C 131.652 -1.48146 -1.25564 0
M  V30 1371 O 130.927 -0.659104 -1.82992 0
M  V30 1372 C 131.21 -3.60005 0.0825278 0
M  V30 1373 C 131.063 -4.2466 1.48271 0
M  V30 1374 C 132.382 -4.35972 -0.601401 0
M  V30 1375 H 129.501 -0.735764 0.0426632 0
M  V30 1376 H 132.143 -1.72868 0.788461 0
M  V30 1377 H 130.293 -3.85367 -0.492378 0
M  V30 1378 H 131.965 -4.10458 2.10527 0
M  V30 1379 H 130.208 -3.82772 2.04127 0
M  V30 1380 H 130.879 -5.336 1.41332 0
M  V30 1381 H 133.355 -4.15947 -0.112666 0
M  V30 1382 H 132.231 -5.45697 -0.592097 0
M  V30 1383 H 132.492 -4.09391 -1.66887 0
M  V30 1384 N 131.551 -0.354651 -1.53558 0
M  V30 1385 C 132.797 0.238797 -2.01389 0
M  V30 1386 C 133.13 1.49309 -1.2418 0
M  V30 1387 O 132.405 1.91638 -0.332457 0
M  V30 1388 C 132.688 0.541771 -3.56001 0
M  V30 1389 C 132.541 -0.725388 -4.43912 0
M  V30 1390 C 133.86 1.34685 -4.18984 0
M  V30 1391 H 130.979 0.0853177 -0.732045 0
M  V30 1392 H 133.621 -0.477384 -1.83905 0
M  V30 1393 H 131.771 1.15189 -3.71031 0
M  V30 1394 H 133.443 -1.36313 -4.407 0
M  V30 1395 H 131.686 -1.34801 -4.12324 0
M  V30 1396 H 132.357 -0.468505 -5.50008 0
M  V30 1397 H 134.833 0.830837 -4.07721 0
M  V30 1398 H 133.709 1.52759 -5.27215 0
M  V30 1399 H 133.97 2.35221 -3.74331 0
M  V30 1400 N 133.029 1.57378 -0.0835403 0
M  V30 1401 C 134.254 1.98682 0.594987 0
M  V30 1402 C 134.679 0.961969 1.61641 0
M  V30 1403 O 134.037 -0.0709989 1.81161 0
M  V30 1404 C 134.085 3.38988 1.2296 0
M  V30 1405 O 133.189 3.39208 2.34546 0
M  V30 1406 H 132.53 0.646368 0.152002 0
M  V30 1407 H 135.06 2.03961 -0.161533 0
M  V30 1408 H 135.07 3.76431 1.57366 0
M  V30 1409 H 133.745 4.13107 0.481228 0
M  V30 1410 H 132.322 3.13548 2.01846 0
M  V30 1411 N 134.507 -0.190092 1.56449 0
M  V30 1412 C 135.437 -1.23816 1.97969 0
M  V30 1413 C 136.418 -1.47201 0.852395 0
M  V30 1414 O 137.603 -1.58854 1.1171 0
M  V30 1415 C 134.733 -2.5813 2.3235 0
M  V30 1416 C 133.687 -2.49348 3.47864 0
M  V30 1417 C 133.013 -3.8798 3.67934 0
M  V30 1418 C 134.313 -2.01424 4.81898 0
M  V30 1419 H 136.007 -0.89311 2.85769 0
M  V30 1420 H 133.553 -0.428177 1.37487 0
M  V30 1421 H 135.506 -3.31637 2.59991 0
M  V30 1422 H 134.23 -2.94386 1.41438 0
M  V30 1423 H 132.889 -1.78297 3.20321 0
M  V30 1424 H 132.537 -4.21597 2.74344 0
M  V30 1425 H 132.237 -3.82978 4.45648 0
M  V30 1426 H 133.761 -4.63101 3.97957 0
M  V30 1427 H 135.175 -2.64693 5.08538 0
M  V30 1428 H 133.572 -2.07413 5.63116 0
M  V30 1429 H 134.642 -0.967677 4.75146 0
M  V30 1430 N 135.985 -1.50799 -0.457987 0
M  V30 1431 C 136.932 -1.70617 -1.5543 0
M  V30 1432 C 137.902 -0.547562 -1.56815 0
M  V30 1433 O 139.087 -0.779647 -1.74144 0
M  V30 1434 C 136.227 -1.81831 -2.93311 0
M  V30 1435 C 135.34 -3.09278 -3.01615 0
M  V30 1436 C 134.475 -3.11209 -4.30491 0
M  V30 1437 C 133.514 -4.33055 -4.32585 0
M  V30 1438 N 132.651 -4.32652 -5.52952 0
M  V30 1439 H 137.491 -2.64207 -1.37836 0
M  V30 1440 H 135.028 -1.30959 -0.669937 0
M  V30 1441 H 136.986 -1.86314 -3.73287 0
M  V30 1442 H 135.616 -0.916685 -3.0951 0
M  V30 1443 H 134.668 -3.14203 -2.1443 0
M  V30 1444 H 135.98 -3.99233 -2.99022 0
M  V30 1445 H 135.134 -3.14494 -5.18824 0
M  V30 1446 H 133.873 -2.19106 -4.35711 0
M  V30 1447 H 132.878 -4.29969 -3.42647 0
M  V30 1448 H 134.103 -5.264 -4.29046 0
M  V30 1449 H 132.049 -3.43409 -5.58933 0
M  V30 1450 H 131.966 -5.16392 -5.52155 0
M  V30 1451 H 133.234 -4.40101 -6.43375 0
M  V30 1452 N 137.463 0.71206 -1.40597 0
M  V30 1453 C 138.41 1.82613 -1.41142 0
M  V30 1454 C 139.38 1.63925 -0.267903 0
M  V30 1455 O 140.565 1.85009 -0.466495 0
M  V30 1456 C 137.705 3.20354 -1.28324 0
M  V30 1457 C 136.818 3.50589 -2.52411 0
M  V30 1458 C 135.953 4.77855 -2.32009 0
M  V30 1459 C 134.992 5.01005 -3.51654 0
M  V30 1460 N 134.129 6.19487 -3.30425 0
M  V30 1461 H 138.969 1.81482 -2.36365 0
M  V30 1462 H 136.506 0.886475 -1.17388 0
M  V30 1463 H 138.464 3.99899 -1.18899 0
M  V30 1464 H 137.094 3.20705 -0.367189 0
M  V30 1465 H 136.146 2.65573 -2.72351 0
M  V30 1466 H 137.458 3.63604 -3.41458 0
M  V30 1467 H 136.612 5.65424 -2.19956 0
M  V30 1468 H 135.351 4.67056 -1.40392 0
M  V30 1469 H 134.356 4.1189 -3.64179 0
M  V30 1470 H 135.581 5.13674 -4.44202 0
M  V30 1471 H 133.527 6.09932 -2.41494 0
M  V30 1472 H 133.444 6.33194 -4.13039 0
M  V30 1473 H 134.712 7.09834 -3.22113 0
M  V30 1474 N 138.941 1.26152 0.944643 0
M  V30 1475 C 140.19 1.10883 1.68487 0
M  V30 1476 C 140.503 -0.348153 1.92477 0
M  V30 1477 O 141.709 -0.621459 2.64292 0
M  V30 1478 C 140.165 1.93624 3.03377 0
M  V30 1479 C 139.773 3.43875 2.87148 0
M  V30 1480 C 141.517 1.86954 3.81115 0
M  V30 1481 C 139.424 4.18875 4.1749 0
M  V30 1482 H 138.354 0.41135 0.631907 0
M  V30 1483 H 141.005 1.50433 1.05082 0
M  V30 1484 H 139.387 1.46904 3.67743 0
M  V30 1485 H 140.561 3.98338 2.31653 0
M  V30 1486 H 138.876 3.51744 2.22856 0
M  V30 1487 H 141.473 2.40275 4.77673 0
M  V30 1488 H 141.816 0.839518 4.07747 0
M  V30 1489 H 142.349 2.31477 3.23517 0
M  V30 1490 H 139.088 5.22332 3.96043 0
M  V30 1491 H 138.608 3.69193 4.72712 0
M  V30 1492 H 140.287 4.27134 4.85968 0
M  V30 1493 N 140.419 -1.14872 1.07899 0
M  V30 1494 C 141.649 -1.89386 0.825631 0
M  V30 1495 C 142.057 -1.78565 -0.625406 0
M  V30 1496 O 141.4 -1.13918 -1.44113 0
M  V30 1497 C 141.462 -3.40206 1.16191 0
M  V30 1498 C 141.126 -3.74812 2.61467 0
M  V30 1499 C 142.123 -3.75367 3.59716 0
M  V30 1500 C 139.808 -4.0495 2.97189 0
M  V30 1501 C 141.802 -4.05574 4.9172 0
M  V30 1502 C 139.489 -4.34821 4.29388 0
M  V30 1503 C 140.487 -4.35116 5.26463 0
M  V30 1504 O 140.175 -4.64267 6.56286 0
M  V30 1505 H 139.907 -0.606894 0.297751 0
M  V30 1506 H 142.461 -1.46438 1.44031 0
M  V30 1507 H 140.691 -3.8358 0.490214 0
M  V30 1508 H 142.38 -3.96018 0.890193 0
M  V30 1509 H 143.146 -3.52176 3.33462 0
M  V30 1510 H 139.025 -4.03876 2.22273 0
M  V30 1511 H 142.569 -4.05719 5.67484 0
M  V30 1512 H 138.466 -4.5748 4.55392 0
M  V30 1513 H 139.234 -4.82007 6.61522 0
M  V30 1514 N 141.898 -0.863906 -1.31812 0
M  V30 1515 C 143.175 -0.39275 -1.91616 0
M  V30 1516 C 143.555 1.12461 -1.7865 0
M  V30 1517 O 142.903 1.95045 -1.19037 0
M  V30 1518 C 143.113 -0.867385 -3.38049 0
M  V30 1519 C 144.461 -0.889966 -4.15168 0
M  V30 1520 O 145.485 -0.812635 -3.46806 0
M  V30 1521 O 144.344 -1.00079 -5.37258 0
M  V30 1522 H 141.438 -0.116358 -0.818773 0
M  V30 1523 H 143.984 -0.951418 -1.40521 0
M  V30 1524 H 142.756 -1.91081 -3.41473 0
M  V30 1525 H 142.379 -0.286687 -3.96565 0
M  V30 1526 N 143.376 1.44774 -0.622745 0
M  V30 1527 C 144.792 1.56986 -0.287652 0
M  V30 1528 C 144.992 1.61167 1.20944 0
M  V30 1529 O 144.048 1.55015 1.99315 0
M  V30 1530 C 145.361 2.84551 -0.972188 0
M  V30 1531 C 146.909 2.9825 -0.949536 0
M  V30 1532 C 147.384 4.28605 -1.61437 0
M  V30 1533 N 148.875 4.35399 -1.58057 0
M  V30 1534 C 149.61 5.34964 -2.064 0
M  V30 1535 N 149.106 6.40981 -2.62897 0
M  V30 1536 N 150.899 5.26419 -1.97078 0
M  V30 1537 H 143.05 1.40304 -1.59463 0
M  V30 1538 H 145.313 0.671794 -0.668878 0
M  V30 1539 H 145.019 2.87417 -2.02693 0
M  V30 1540 H 144.893 3.73807 -0.504771 0
M  V30 1541 H 147.28 2.94941 0.0967067 0
M  V30 1542 H 147.361 2.10364 -1.45536 0
M  V30 1543 H 147.005 4.32672 -2.66002 0
M  V30 1544 H 146.935 5.15334 -1.08344 0
M  V30 1545 H 149.426 3.59397 -1.16801 0
M  V30 1546 H 149.739 7.13225 -2.97539 0
M  V30 1547 H 148.084 6.4169 -2.66943 0
M  V30 1548 H 151.275 4.42504 -1.52669 0
M  V30 1549 H 151.448 6.03861 -2.35066 0
M  V30 1550 N 144.854 0.36279 1.53368 0
M  V30 1551 C 145.764 -0.492994 2.29362 0
M  V30 1552 C 146.78 -1.09507 1.35219 0
M  V30 1553 O 147.956 -1.10662 1.68273 0
M  V30 1554 C 145.021 -1.61855 3.066 0
M  V30 1555 C 144.082 -1.04429 4.16405 0
M  V30 1556 C 143.315 -2.11621 4.89951 0
M  V30 1557 O 143.538 -3.32684 4.63333 0
M  V30 1558 O 142.472 -1.74835 5.75948 0
M  V30 1559 H 146.298 0.125331 3.03441 0
M  V30 1560 H 143.883 0.127253 1.48857 0
M  V30 1561 H 145.765 -2.27302 3.54841 0
M  V30 1562 H 144.44 -2.22233 2.3536 0
M  V30 1563 H 143.347 -0.353819 3.72423 0
M  V30 1564 H 144.68 -0.485113 4.89804 0
M  V30 1565 N 146.332 -1.57332 0.0918853 0
M  V30 1566 C 147.264 -2.10869 -0.898168 0
M  V30 1567 C 148.277 -1.04521 -1.24817 0
M  V30 1568 O 149.466 -1.31977 -1.20184 0
M  V30 1569 C 146.566 -2.57083 -2.2082 0
M  V30 1570 C 145.739 -3.87229 -2.03402 0
M  V30 1571 C 144.798 -4.19324 -3.17889 0
M  V30 1572 O 143.824 -4.88598 -2.91994 0
M  V30 1573 N 145.026 -3.74471 -4.43567 0
M  V30 1574 H 147.791 -2.96439 -0.440943 0
M  V30 1575 H 145.352 -1.61631 -0.0933064 0
M  V30 1576 H 147.344 -2.75602 -2.96354 0
M  V30 1577 H 145.914 -1.76541 -2.57977 0
M  V30 1578 H 145.134 -3.7789 -1.12218 0
M  V30 1579 H 146.422 -4.72379 -1.89038 0
M  V30 1580 H 145.82 -3.18546 -4.67488 0
M  V30 1581 H 144.377 -3.98151 -5.16061 0
M  V30 1582 N 147.81 0.181792 -1.56548 0
M  V30 1583 C 149.038 0.915947 -1.85521 0
M  V30 1584 C 149.453 1.76282 -0.676016 0
M  V30 1585 O 148.81 1.79012 0.355077 0
M  V30 1586 C 148.861 1.80126 -3.13427 0
M  V30 1587 O 148.582 0.988562 -4.26801 0
M  V30 1588 C 150.083 2.64597 -3.55673 0
M  V30 1589 H 147.303 0.26661 -0.61576 0
M  V30 1590 H 149.847 0.185039 -2.03661 0
M  V30 1591 H 148.002 2.48563 -2.97145 0
M  V30 1592 H 148.416 1.59308 -4.99721 0
M  V30 1593 H 149.89 3.2235 -4.48101 0
M  V30 1594 H 150.367 3.38958 -2.79292 0
M  V30 1595 H 150.973 2.0151 -3.74532 0
M  V30 1596 N 149.288 1.51039 0.449983 0
M  V30 1597 C 150.704 1.38934 0.785462 0
M  V30 1598 C 150.904 0.461817 1.96136 0
M  V30 1599 O 149.96 -0.0877389 2.52348 0
M  V30 1600 C 151.273 2.80724 1.0777 0
M  V30 1601 C 152.821 2.89787 1.1829 0
M  V30 1602 C 153.296 4.32457 1.50815 0
M  V30 1603 N 154.787 4.35505 1.57764 0
M  V30 1604 C 155.522 5.42914 1.84477 0
M  V30 1605 N 155.018 6.60502 2.09068 0
M  V30 1606 N 156.811 5.3038 1.86155 0
M  V30 1607 H 148.962 2.09904 -0.324647 0
M  V30 1608 H 151.225 0.944378 -0.0827957 0
M  V30 1609 H 150.931 3.50531 0.286498 0
M  V30 1610 H 150.805 3.19273 2.00859 0
M  V30 1611 H 153.192 2.20186 1.96474 0
M  V30 1612 H 153.273 2.54752 0.231314 0
M  V30 1613 H 152.917 5.02603 0.731622 0
M  V30 1614 H 152.847 4.64995 2.47158 0
M  V30 1615 H 155.338 3.50724 1.40715 0
M  V30 1616 H 155.651 7.38158 2.28785 0
M  V30 1617 H 153.996 6.63639 2.06416 0
M  V30 1618 H 157.187 4.37505 1.66454 0
M  V30 1619 H 157.36 6.1417 2.06637 0
M  V30 1620 N 150.766 -0.704594 1.40972 0
M  V30 1621 C 151.996 -1.49138 1.42974 0
M  V30 1622 C 152.404 -1.89175 0.0308406 0
M  V30 1623 O 151.747 -1.56734 -0.958138 0
M  V30 1624 C 151.809 -2.79016 2.26694 0
M  V30 1625 C 151.473 -2.61236 3.74973 0
M  V30 1626 C 152.47 -2.27773 4.67349 0
M  V30 1627 C 150.155 -2.77158 4.18914 0
M  V30 1628 C 152.149 -2.10457 6.01653 0
M  V30 1629 C 149.836 -2.59459 5.53285 0
M  V30 1630 C 150.834 -2.26158 6.4447 0
M  V30 1631 O 150.522 -2.08605 7.76363 0
M  V30 1632 H 150.254 -0.466443 0.489292 0
M  V30 1633 H 152.808 -0.8758 1.85793 0
M  V30 1634 H 151.038 -3.42947 1.78673 0
M  V30 1635 H 152.727 -3.40782 2.20504 0
M  V30 1636 H 153.493 -2.15095 4.34694 0
M  V30 1637 H 149.372 -3.02064 3.48251 0
M  V30 1638 H 152.916 -1.84387 6.72791 0
M  V30 1639 H 148.813 -2.71725 5.85522 0
M  V30 1640 H 149.581 -2.23439 7.87412 0
M  V30 1641 N 152.244 -1.26651 -0.937939 0
M  V30 1642 C 153.191 -1.0849 -2.03712 0
M  V30 1643 C 154.161 0.011033 -1.66096 0
M  V30 1644 O 155.346 -0.149353 -1.90215 0
M  V30 1645 C 152.486 -0.72735 -3.37348 0
M  V30 1646 C 151.599 -1.89986 -3.87981 0
M  V30 1647 C 150.734 -1.48513 -5.10017 0
M  V30 1648 C 149.773 -2.62575 -5.5292 0
M  V30 1649 N 148.91 -2.21762 -6.66158 0
M  V30 1650 H 153.75 -2.02551 -2.18579 0
M  V30 1651 H 151.287 -1.00844 -1.07093 0
M  V30 1652 H 153.245 -0.50092 -4.14182 0
M  V30 1653 H 151.875 0.176298 -3.22318 0
M  V30 1654 H 150.927 -2.23913 -3.07518 0
M  V30 1655 H 152.239 -2.75586 -4.15757 0
M  V30 1656 H 151.393 -1.21934 -5.94321 0
M  V30 1657 H 150.132 -0.60009 -4.83994 0
M  V30 1658 H 149.137 -2.8988 -4.67172 0
M  V30 1659 H 150.362 -3.51685 -5.80943 0
M  V30 1660 H 148.308 -1.35696 -6.41812 0
M  V30 1661 H 148.225 -3.00903 -6.93537 0
M  V30 1662 H 149.493 -1.98403 -7.53828 0
M  V30 1663 N 153.722 1.14298 -1.08507 0
M  V30 1664 C 154.685 2.17607 -0.719711 0
M  V30 1665 C 155.685 1.58907 0.245997 0
M  V30 1666 O 156.875 1.74181 0.0254081 0
M  V30 1667 C 154.007 3.40842 -0.0627695 0
M  V30 1668 H 155.2 2.51443 -1.63452 0
M  V30 1669 H 152.753 1.28963 -0.88307 0
M  V30 1670 H 153.488 3.12587 0.863716 0
M  V30 1671 H 153.273 3.84713 -0.757504 0
M  V30 1672 H 154.763 4.17221 0.177786 0
M  V30 1673 N 155.201 0.870884 1.31352 0
M  V30 1674 C 156.429 0.49677 2.00848 0
M  V30 1675 C 156.844 -0.910998 1.65367 0
M  V30 1676 O 156.201 -1.59696 0.883374 0
M  V30 1677 C 156.252 0.645308 3.55694 0
M  V30 1678 O 155.973 1.99764 3.89905 0
M  V30 1679 C 157.474 0.272326 4.42463 0
M  V30 1680 H 154.694 0.193462 0.642506 0
M  V30 1681 H 157.238 1.1723 1.67563 0
M  V30 1682 H 155.393 0.0173176 3.87396 0
M  V30 1683 H 155.807 2.00607 4.84621 0
M  V30 1684 H 157.281 0.427208 5.50344 0
M  V30 1685 H 157.758 -0.788587 4.32062 0
M  V30 1686 H 158.364 0.876054 4.1618 0
M  V30 1687 N 156.679 -1.44442 0.630414 0
M  V30 1688 C 157.927 -2.01653 0.134351 0
M  V30 1689 C 158.248 -1.49836 -1.24796 0
M  V30 1690 O 157.518 -0.701684 -1.82902 0
M  V30 1691 H 156.098 -0.74554 0.0466769 0
M  V30 1692 H 158.76 -1.76952 0.816955 0
M  V30 1693 H 157.856 -3.11935 0.101498 0
M  V30 1694 N 158.157 -0.370918 -1.53173 0
M  V30 1695 C 159.087 0.464847 -2.28826 0
M  V30 1696 C 160.068 1.07936 -1.31468 0
M  V30 1697 O 161.253 1.0956 -1.60344 0
M  V30 1698 C 158.383 1.60196 -3.08147 0
M  V30 1699 C 157.337 1.11443 -4.13237 0
M  V30 1700 C 156.663 2.3422 -4.80672 0
M  V30 1701 C 157.963 0.195384 -5.21934 0
M  V30 1702 H 159.657 -0.166329 -2.98938 0
M  V30 1703 H 157.203 -0.0814359 -1.4377 0
M  V30 1704 H 159.156 2.19332 -3.59822 0
M  V30 1705 H 157.88 2.26045 -2.35735 0
M  V30 1706 H 156.539 0.545727 -3.62515 0
M  V30 1707 H 156.187 2.98537 -4.04827 0
M  V30 1708 H 155.887 2.02269 -5.51689 0
M  V30 1709 H 157.411 2.94032 -5.35143 0
M  V30 1710 H 158.825 0.694375 -5.69079 0
M  V30 1711 H 157.222 -0.0335027 -6.00091 0
M  V30 1712 H 158.292 -0.760961 -4.78892 0
M  V30 1713 N 159.635 1.57281 -0.100228 0
M  V30 1714 C 160.585 2.10848 0.86759 0
M  V30 1715 C 161.569 1.02473 1.24049 0
M  V30 1716 O 162.761 1.28739 1.21471 0
M  V30 1717 C 159.89 2.69648 2.12474 0
M  V30 1718 C 158.976 3.85074 1.77704 0
M  V30 1719 N 159.367 4.92897 1.13518 0
M  V30 1720 C 157.665 3.94905 2.07282 0
M  V30 1721 C 158.366 5.73475 0.974735 0
M  V30 1722 N 157.342 5.22675 1.4937 0
M  V30 1723 H 161.144 2.91594 0.367471 0
M  V30 1724 H 158.658 1.62074 0.102829 0
M  V30 1725 H 160.655 3.06356 2.82757 0
M  V30 1726 H 159.315 1.90359 2.63047 0
M  V30 1727 H 160.326 5.11662 0.801381 0
M  V30 1728 H 157.003 3.26633 2.60033 0
M  V30 1729 H 158.393 6.70238 0.472364 0
M  V30 1730 N 161.113 -0.173488 1.56642 0
M  V30 1731 C 162.36 -0.890465 1.81871 0
M  V30 1732 C 162.688 -1.82339 0.67696 0
M  V30 1733 O 161.943 -1.92795 -0.335926 0
M  V30 1734 C 162.242 -1.72069 3.13252 0
M  V30 1735 C 161.908 -0.936878 4.41059 0
M  V30 1736 C 160.57 -0.720545 4.75775 0
M  V30 1737 C 162.922 -0.386919 5.19762 0
M  V30 1738 C 160.25 0.0568829 5.86672 0
M  V30 1739 C 162.602 0.37741 6.31473 0
M  V30 1740 C 161.266 0.604563 6.64757 0
M  V30 1741 H 160.536 -0.325844 0.665512 0
M  V30 1742 H 163.183 -0.155527 1.90867 0
M  V30 1743 H 161.488 -2.52496 2.99588 0
M  V30 1744 H 163.185 -2.27844 3.29982 0
M  V30 1745 H 159.775 -1.11553 4.13828 0
M  V30 1746 H 163.959 -0.541398 4.93338 0
M  V30 1747 H 159.215 0.242635 6.10918 0
M  V30 1748 H 163.389 0.810825 6.91664 0
M  V30 1749 H 161.016 1.20885 7.50527 0
M  V30 1750 N 162.591 -1.51276 -0.441967 0
M  V30 1751 C 164.007 -1.39349 -0.778083 0
M  V30 1752 C 164.207 -0.472212 -1.95889 0
M  V30 1753 O 163.263 0.0743551 -2.5239 0
M  V30 1754 C 164.576 -2.81292 -1.0628 0
M  V30 1755 C 166.124 -2.9041 -1.16751 0
M  V30 1756 C 166.599 -4.33251 -1.48519 0
M  V30 1757 N 168.09 -4.36336 -1.55453 0
M  V30 1758 C 168.825 -5.43885 -1.81596 0
M  V30 1759 N 168.321 -6.61601 -2.05562 0
M  V30 1760 N 170.114 -5.3136 -1.8334 0
M  V30 1761 H 162.265 -2.09729 0.335774 0
M  V30 1762 H 164.528 -0.943925 0.0878028 0
M  V30 1763 H 164.234 -3.50678 -0.267905 0
M  V30 1764 H 164.108 -3.20334 -1.99163 0
M  V30 1765 H 166.495 -2.21225 -1.95304 0
M  V30 1766 H 166.576 -2.54871 -0.217801 0
M  V30 1767 H 166.22 -5.02984 -0.704958 0
M  V30 1768 H 166.15 -4.66299 -2.44689 0
M  V30 1769 H 168.641 -3.51466 -1.38853 0
M  V30 1770 H 168.954 -7.39361 -2.24867 0
M  V30 1771 H 167.299 -6.64725 -2.02894 0
M  V30 1772 H 170.49 -4.38382 -1.64132 0
M  V30 1773 H 170.663 -6.15258 -2.03377 0
M  V30 1774 N 164.069 0.697108 -1.41344 0
M  V30 1775 C 165.019 1.80313 -1.39539 0
M  V30 1776 C 166.003 1.58618 -0.270001 0
M  V30 1777 O 167.195 1.69477 -0.510551 0
M  V30 1778 C 164.324 3.18606 -1.27848 0
M  V30 1779 C 163.41 3.46001 -2.45244 0
M  V30 1780 N 163.801 3.44103 -3.70711 0
M  V30 1781 C 162.099 3.76542 -2.39023 0
M  V30 1782 C 162.8 3.7036 -4.48563 0
M  V30 1783 N 161.776 3.90027 -3.78655 0
M  V30 1784 H 165.578 1.77207 -2.34468 0
M  V30 1785 H 163.092 0.897031 -1.35378 0
M  V30 1786 H 165.089 3.97833 -1.24637 0
M  V30 1787 H 163.749 3.22925 -0.339032 0
M  V30 1788 H 164.76 3.2452 -4.03618 0
M  V30 1789 H 161.437 3.88241 -1.53542 0
M  V30 1790 H 162.827 3.75042 -5.57488 0
M  V30 1791 N 165.547 1.27147 0.931209 0
M  V30 1792 C 166.775 1.16082 1.71267 0
M  V30 1793 C 167.19 -0.282772 1.8667 0
M  V30 1794 O 166.547 -1.19283 1.38122 0
M  V30 1795 C 166.598 1.8358 3.11417 0
M  V30 1796 O 166.319 3.22299 2.96741 0
M  V30 1797 C 167.82 1.78597 4.05732 0
M  V30 1798 H 165.04 0.403758 0.535929 0
M  V30 1799 H 167.584 1.67953 1.16671 0
M  V30 1800 H 165.739 1.35623 3.62885 0
M  V30 1801 H 166.153 3.55851 3.85319 0
M  V30 1802 H 167.627 2.30444 5.01597 0
M  V30 1803 H 168.104 0.754564 4.3267 0
M  V30 1804 H 168.71 2.26152 3.60188 0
M  V30 1805 N 167.025 -1.13721 1.09112 0
M  V30 1806 C 168.302 -1.81155 0.737706 0
M  V30 1807 C 168.682 -1.96253 -0.777683 0
M  V30 1808 O 168.03 -1.52807 -1.69889 0
M  V30 1809 C 168.24 -3.16392 1.47299 0
M  V30 1810 C 169.588 -3.91787 1.63671 0
M  V30 1811 O 170.612 -3.26005 1.43524 0
M  V30 1812 O 169.471 -5.0977 1.96969 0
M  V30 1813 H 166.565 -0.783518 0.26463 0
M  V30 1814 H 169.111 -1.20676 1.19312 0
M  V30 1815 H 167.883 -3.0061 2.50498 0
M  V30 1816 H 167.506 -3.8457 1.00953 0
M  V30 1817 N 168.503 -0.877838 -1.30888 0
M  V30 1818 C 169.451 -0.328662 -2.30266 0
M  V30 1819 C 170.445 0.560496 -1.59859 0
M  V30 1820 O 171.651 0.445722 -1.74394 0
M  V30 1821 H 168.026 -0.0876142 -0.746879 0
M  V30 1822 H 169.997 -1.18061 -2.74051 0
M  V30 1823 C 168.746 0.448071 -3.44801 0
M  V30 1824 H 168.069 -0.226859 -3.99156 0
M  V30 1825 H 169.509 0.797541 -4.16432 0
M  V30 1826 C 167.968 1.64239 -2.94155 0
M  V30 1827 O 168.498 2.74175 -2.93583 0
M  V30 1828 N 166.704 1.47716 -2.50256 0
M  V30 1829 H 166.251 0.582821 -2.5092 0
M  V30 1830 H 166.209 2.27765 -2.16727 0
M  V30 1831 N 169.982 1.44106 -0.638065 0
M  V30 1832 C 171.228 2.02277 -0.145546 0
M  V30 1833 C 171.561 1.50125 1.23191 0
M  V30 1834 O 170.836 0.688133 1.8192 0
M  V30 1835 C 171.119 3.59829 -0.139791 0
M  V30 1836 C 170.972 4.22247 -1.55008 0
M  V30 1837 C 172.291 4.36873 0.531966 0
M  V30 1838 H 169.41 0.734992 -0.0543632 0
M  V30 1839 H 172.052 1.71592 -0.815863 0
M  V30 1840 H 170.202 3.86102 0.431007 0
M  V30 1841 H 171.874 4.07057 -2.1703 0
M  V30 1842 H 170.117 3.79476 -2.10191 0
M  V30 1843 H 170.788 5.31284 -1.49804 0
M  V30 1844 H 173.264 4.16074 0.0464781 0
M  V30 1845 H 172.14 5.4657 0.505206 0
M  V30 1846 H 172.401 4.11995 1.60352 0
M  V30 1847 N 171.46 0.379036 1.52974 0
M  V30 1848 C 172.709 -0.207612 2.00629 0
M  V30 1849 C 173.022 -1.48758 1.27006 0
M  V30 1850 O 174.228 -2.15365 1.65318 0
M  V30 1851 C 172.684 -0.42053 3.57435 0
M  V30 1852 C 172.292 0.845587 4.39948 0
M  V30 1853 C 174.036 -0.964102 4.13407 0
M  V30 1854 C 171.943 0.601513 5.88333 0
M  V30 1855 H 170.873 -0.0813591 0.749598 0
M  V30 1856 H 173.524 0.499853 1.76561 0
M  V30 1857 H 171.906 -1.18959 3.7771 0
M  V30 1858 H 173.08 1.61848 4.31442 0
M  V30 1859 H 171.395 1.31336 3.95145 0
M  V30 1860 H 173.992 -1.16225 5.21916 0
M  V30 1861 H 174.335 -1.93019 3.68849 0
M  V30 1862 H 174.868 -0.25487 3.96983 0
M  V30 1863 H 171.607 1.53831 6.37194 0
M  V30 1864 H 171.127 -0.132628 5.99653 0
M  V30 1865 H 172.806 0.232134 6.46583 0
M  V30 1866 N 172.938 -1.57226 0.108567 0
M  V30 1867 C 173.87 -2.11809 -0.875752 0
M  V30 1868 C 174.883 -1.05839 -1.23701 0
M  V30 1869 O 176.072 -1.33245 -1.18778 0
M  V30 1870 C 173.172 -2.59411 -2.18081 0
M  V30 1871 C 172.345 -3.89364 -1.99284 0
M  V30 1872 C 171.404 -4.22672 -3.13424 0
M  V30 1873 O 170.43 -4.91668 -2.86795 0
M  V30 1874 N 171.632 -3.79154 -4.3957 0
M  V30 1875 H 174.397 -2.9689 -0.409477 0
M  V30 1876 H 171.958 -1.61721 -0.076158 0
M  V30 1877 H 173.95 -2.7873 -2.93414 0
M  V30 1878 H 172.52 -1.79268 -2.5609 0
M  V30 1879 H 171.74 -3.79059 -1.08203 0
M  V30 1880 H 173.028 -4.74358 -1.84017 0
M  V30 1881 H 172.426 -3.23486 -4.64083 0
M  V30 1882 H 170.983 -4.03602 -5.11809 0
M  V30 1883 N 174.416 0.165178 -1.56732 0
M  V30 1884 C 175.662 0.877389 -1.83503 0
M  V30 1885 C 176.017 1.79602 -0.689996 0
M  V30 1886 O 175.31 1.89023 0.313205 0
M  V30 1887 C 175.504 1.70405 -3.1416 0
M  V30 1888 C 175.333 0.866961 -4.41264 0
M  V30 1889 C 174.103 0.539646 -5.0241 0
M  V30 1890 C 176.301 0.205671 -5.13889 0
M  V30 1891 N 174.283 -0.312946 -6.13102 0
M  V30 1892 C 175.654 -0.507823 -6.17917 0
M  V30 1893 C 177.709 0.124468 -4.97744 0
M  V30 1894 C 176.412 -1.29483 -7.0755 0
M  V30 1895 C 178.438 -0.649222 -5.87826 0
M  V30 1896 C 177.8 -1.35106 -6.91322 0
M  V30 1897 H 173.899 0.299477 -0.722383 0
M  V30 1898 H 176.483 0.143949 -1.94167 0
M  V30 1899 H 174.654 2.40887 -3.04677 0
M  V30 1900 H 176.386 2.35804 -3.28905 0
M  V30 1901 H 173.141 0.871176 -4.65519 0
M  V30 1902 H 173.565 -0.729731 -6.73056 0
M  V30 1903 H 178.207 0.652724 -4.17731 0
M  V30 1904 H 175.925 -1.83441 -7.87004 0
M  V30 1905 H 179.511 -0.713804 -5.77405 0
M  V30 1906 H 178.391 -1.94013 -7.59821 0
M  V30 1907 N 175.894 1.51508 0.433938 0
M  V30 1908 C 176.824 1.76016 1.53429 0
M  V30 1909 C 177.805 0.610112 1.58782 0
M  V30 1910 O 178.99 0.853177 1.74455 0
M  V30 1911 C 176.12 1.88831 2.9148 0
M  V30 1912 C 175.074 3.04288 3.00987 0
M  V30 1913 C 174.4 3.0229 4.4105 0
M  V30 1914 C 175.7 4.44193 2.74754 0
M  V30 1915 H 177.394 2.68152 1.33171 0
M  V30 1916 H 174.94 1.29035 0.639214 0
M  V30 1917 H 176.893 2.04559 3.6842 0
M  V30 1918 H 175.617 0.933455 3.12976 0
M  V30 1919 H 174.276 2.8827 2.26486 0
M  V30 1920 H 173.924 2.04576 4.59519 0
M  V30 1921 H 173.624 3.79822 4.4834 0
M  V30 1922 H 175.148 3.20116 5.1996 0
M  V30 1923 H 176.562 4.60544 3.41426 0
M  V30 1924 H 174.959 5.23457 2.9345 0
M  V30 1925 H 176.029 4.53996 1.70339 0
M  V30 1926 N 177.372 -0.689602 1.41712 0
M  V30 1927 C 178.32 -1.82475 1.44242 0
M  V30 1928 C 179.314 -1.66354 0.319774 0
M  V30 1929 O 180.52 -1.73143 0.492089 0
M  V30 1930 H 176.895 -0.601416 0.451445 0
M  V30 1931 H 178.866 -1.77458 2.39899 0
M  V30 1932 C 177.615 -3.20535 1.3473 0
M  V30 1933 H 176.938 -3.33559 2.20405 0
M  V30 1934 H 178.378 -4.00023 1.40562 0
M  V30 1935 C 176.837 -3.36846 0.0603281 0
M  V30 1936 O 177.367 -3.91656 -0.892663 0
M  V30 1937 N 175.573 -2.90595 -0.0177039 0
M  V30 1938 H 175.12 -2.46178 0.758572 0
M  V30 1939 H 175.078 -3.01886 -0.878201 0
M  V30 1940 N 178.85 -1.27639 -0.924453 0
M  V30 1941 C 179.813 -1.10681 -2.00705 0
M  V30 1942 C 180.813 -0.0497823 -1.60723 0
M  V30 1943 O 182.003 -0.294654 -1.7169 0
M  V30 1944 C 179.135 -0.687164 -3.33902 0
M  V30 1945 H 180.328 -2.06817 -2.17179 0
M  V30 1946 H 177.881 -1.10473 -1.10569 0
M  V30 1947 H 178.616 0.275439 -3.23128 0
M  V30 1948 H 178.401 -1.45061 -3.6428 0
M  V30 1949 H 179.891 -0.590853 -4.13399 0
M  V30 1950 N 180.328 1.1314 -1.09713 0
M  V30 1951 C 181.261 2.17735 -0.683137 0
M  V30 1952 C 182.239 1.59582 0.311841 0
M  V30 1953 O 183.423 1.87298 0.212514 0
M  V30 1954 C 180.55 3.38699 -0.00684324 0
M  V30 1955 C 179.596 4.1546 -0.964102 0
M  V30 1956 S 180.429 4.74733 -2.47767 0
M  V30 1957 C 181.585 5.9904 -1.81387 0
M  V30 1958 H 181.818 2.52515 -1.56918 0
M  V30 1959 H 179.351 1.24484 -0.913404 0
M  V30 1960 H 181.309 4.08765 0.377044 0
M  V30 1961 H 179.97 3.02214 0.85589 0
M  V30 1962 H 179.163 5.02093 -0.43803 0
M  V30 1963 H 178.765 3.51066 -1.28953 0
M  V30 1964 H 181.057 6.67846 -1.13967 0
M  V30 1965 H 182 6.56261 -2.65947 0
M  V30 1966 H 182.408 5.4976 -1.28155 0
M  V30 1967 N 181.806 0.884767 1.30421 0
M  V30 1968 C 183.083 0.423185 1.90967 0
M  V30 1969 C 183.463 -1.09605 1.80416 0
M  V30 1970 O 182.811 -1.93126 1.22125 0
M  V30 1971 C 183.021 0.921056 3.36627 0
M  V30 1972 C 184.369 0.955903 4.137 0
M  V30 1973 O 185.393 0.867706 3.4547 0
M  V30 1974 O 184.252 1.08614 5.35598 0
M  V30 1975 H 181.346 0.129369 0.816819 0
M  V30 1976 H 183.892 0.973653 1.3899 0
M  V30 1977 H 182.664 1.96489 3.3839 0
M  V30 1978 H 182.287 0.349741 3.96059 0
M  V30 1979 N 183.284 -1.43765 0.645699 0
M  V30 1980 C 184.194 -2.34544 -0.0512957 0
M  V30 1981 C 185.21 -1.53455 -0.82022 0
M  V30 1982 O 186.386 -1.86133 -0.769176 0
M  V30 1983 C 183.451 -3.31636 -1.01087 0
M  V30 1984 C 182.512 -4.2863 -0.239712 0
M  V30 1985 C 181.745 -5.21084 -1.15358 0
M  V30 1986 O 181.968 -5.1779 -2.39269 0
M  V30 1987 O 180.902 -5.98593 -0.630038 0
M  V30 1988 H 184.728 -2.95624 0.695718 0
M  V30 1989 H 182.313 -1.43781 0.405882 0
M  V30 1990 H 184.195 -3.9136 -1.56254 0
M  V30 1991 H 182.87 -2.73069 -1.73824 0
M  V30 1992 H 181.777 -3.72408 0.355356 0
M  V30 1993 H 183.11 -4.90157 0.447936 0
M  V30 1994 N 184.763 -0.387143 -1.52771 0
M  V30 1995 C 186.012 0.19697 -2.00736 0
M  V30 1996 C 186.325 1.48082 -1.27793 0
M  V30 1997 O 187.531 2.14485 -1.66458 0
M  V30 1998 C 185.987 0.401568 -3.57653 0
M  V30 1999 C 185.595 -0.868907 -4.39493 0
M  V30 2000 C 187.339 0.942164 -4.13912 0
M  V30 2001 C 185.246 -0.632705 -5.88006 0
M  V30 2002 H 184.176 0.0773827 -0.750019 0
M  V30 2003 H 186.827 -0.50921 -1.76293 0
M  V30 2004 H 185.209 1.16954 -3.78335 0
M  V30 2005 H 186.383 -1.64133 -4.30577 0
M  V30 2006 H 184.698 -1.33429 -3.94443 0
M  V30 2007 H 187.295 1.13455 -5.22525 0
M  V30 2008 H 187.638 1.9106 -3.69867 0
M  V30 2009 H 188.171 0.233814 -3.97112 0
M  V30 2010 H 184.91 -1.57208 -6.36369 0
M  V30 2011 H 184.43 0.100825 -5.99715 0
M  V30 2012 H 186.109 -0.26642 -6.46451 0
M  V30 2013 N 186.241 1.57166 -0.116904 0
M  V30 2014 C 187.489 1.94737 0.540533 0
M  V30 2015 C 187.81 1.00096 1.67349 0
M  V30 2016 O 187.08 0.0568854 1.95817 0
M  V30 2017 H 185.66 0.718981 0.202669 0
M  V30 2018 H 188.322 1.94017 -0.185353 0
M  V30 2019 H 187.418 2.97719 0.936483 0
M  V30 2020 N 187.719 -0.156864 1.56817 0
M  V30 2021 C 188.649 -1.19589 2.00551 0
M  V30 2022 C 189.63 -1.4536 0.883426 0
M  V30 2023 O 190.815 -1.56449 1.15054 0
M  V30 2024 C 187.945 -2.53143 2.37773 0
M  V30 2025 C 186.899 -2.41913 3.53075 0
M  V30 2026 C 186.225 -3.80088 3.76081 0
M  V30 2027 C 187.525 -1.91157 4.86062 0
M  V30 2028 H 189.219 -0.832293 2.87599 0
M  V30 2029 H 186.765 -0.398918 1.38364 0
M  V30 2030 H 188.718 -3.26047 2.66967 0
M  V30 2031 H 187.442 -2.91319 1.4765 0
M  V30 2032 H 186.101 -1.71462 3.24031 0
M  V30 2033 H 185.749 -4.15683 2.83225 0
M  V30 2034 H 185.449 -3.73439 4.53671 0
M  V30 2035 H 186.973 -4.54556 4.0769 0
M  V30 2036 H 188.387 -2.53846 5.14038 0
M  V30 2037 H 186.784 -1.95422 5.67389 0
M  V30 2038 H 187.854 -0.866673 4.77092 0
M  V30 2039 N 189.197 -1.51736 -0.425897 0
M  V30 2040 C 190.608 -1.5732 -1.00536 0
M  V30 2041 C 190.959 -0.403537 -1.92005 0
M  V30 2042 O 190.084 0.478256 -2.11049 0
M  V30 2043 C 190.679 -2.85119 -1.8301 0
M  V30 2044 C 189.238 -2.93236 -2.35987 0
M  V30 2045 C 188.385 -2.52098 -1.15508 0
M  V30 2046 H 191.336 -1.57348 -0.206739 0
M  V30 2047 H 191.357 -2.69526 -2.68581 0
M  V30 2048 H 190.869 -3.7023 -1.16411 0
M  V30 2049 H 188.97 -2.12581 -3.06007 0
M  V30 2050 H 189.083 -3.9713 -2.68001 0
M  V30 2051 H 187.447 -2.05558 -1.50393 0
M  V30 2052 H 188.23 -3.39565 -0.505014 0
M  V30 2053 N 190.675 0.682077 -1.42076 0
M  V30 2054 C 191.622 1.79578 -1.44984 0
M  V30 2055 C 192.592 1.6332 -0.302614 0
M  V30 2056 O 193.777 1.83978 -0.505633 0
M  V30 2057 C 190.917 3.1756 -1.35091 0
M  V30 2058 C 190.03 3.45156 -2.59791 0
M  V30 2059 C 189.165 4.72826 -2.42093 0
M  V30 2060 C 188.204 4.93433 -3.62202 0
M  V30 2061 N 187.341 6.12338 -3.43491 0
M  V30 2062 H 192.181 1.76427 -2.40161 0
M  V30 2063 H 189.718 0.861376 -1.19242 0
M  V30 2064 H 191.676 3.97287 -1.27354 0
M  V30 2065 H 190.306 3.19854 -0.435133 0
M  V30 2066 H 189.358 2.59736 -2.77923 0
M  V30 2067 H 190.67 3.5628 -3.49094 0
M  V30 2068 H 189.824 5.60631 -2.319 0
M  V30 2069 H 188.563 4.63973 -1.50268 0
M  V30 2070 H 187.568 4.04073 -3.72834 0
M  V30 2071 H 188.793 5.04136 -4.54998 0
M  V30 2072 H 186.739 6.04672 -2.54377 0
M  V30 2073 H 186.656 6.2429 -4.26377 0
M  V30 2074 H 187.924 7.02841 -3.37097 0
M  V30 2075 N 192.153 1.28127 0.917671 0
M  V30 2076 C 193.402 1.14432 1.66097 0
M  V30 2077 C 193.715 -0.307247 1.93172 0
M  V30 2078 O 194.921 -0.565259 2.65551 0
M  V30 2079 C 193.377 2.00015 2.99202 0
M  V30 2080 C 192.985 3.49889 2.79789 0
M  V30 2081 C 194.729 1.94996 3.77064 0
M  V30 2082 C 192.636 4.27636 4.08511 0
M  V30 2083 H 191.566 0.424662 0.62304 0
M  V30 2084 H 194.217 1.52628 1.01868 0
M  V30 2085 H 192.599 1.54672 3.64544 0
M  V30 2086 H 193.773 4.03162 2.23152 0
M  V30 2087 H 192.088 3.56392 2.15345 0
M  V30 2088 H 194.685 2.50354 4.72469 0
M  V30 2089 H 195.028 0.925819 4.05875 0
M  V30 2090 H 195.561 2.38287 3.18534 0
M  V30 2091 H 192.3 5.30615 3.84874 0
M  V30 2092 H 191.82 3.79137 4.64774 0
M  V30 2093 H 193.499 4.37346 4.76799 0
M  V30 2094 N 193.631 -1.12557 1.10312 0
M  V30 2095 C 194.878 -1.84038 0.844759 0
M  V30 2096 C 195.206 -1.84026 -0.629668 0
M  V30 2097 O 194.461 -1.28026 -1.48013 0
M  V30 2098 C 194.76 -3.31462 1.33669 0
M  V30 2099 C 194.426 -3.51647 2.82232 0
M  V30 2100 C 193.088 -3.56864 3.22802 0
M  V30 2101 C 195.44 -3.58867 3.77974 0
M  V30 2102 C 192.768 -3.66844 4.57867 0
M  V30 2103 C 195.12 -3.70375 5.1284 0
M  V30 2104 C 193.784 -3.73848 5.52986 0
M  V30 2105 H 193.054 -0.673444 0.309119 0
M  V30 2106 H 195.701 -1.32824 1.37949 0
M  V30 2107 H 194.006 -3.85091 0.721949 0
M  V30 2108 H 195.703 -3.85236 1.11329 0
M  V30 2109 H 192.293 -3.48249 2.49842 0
M  V30 2110 H 196.477 -3.54107 3.47738 0
M  V30 2111 H 191.733 -3.67804 4.88396 0
M  V30 2112 H 195.907 -3.74904 5.86873 0
M  V30 2113 H 193.534 -3.81333 6.57639 0
M  V30 2114 N 195.109 -0.891671 -1.2995 0
M  V30 2115 C 196.339 -0.527893 -1.99742 0
M  V30 2116 C 196.747 0.88979 -1.66971 0
M  V30 2117 O 196.09 1.59766 -0.906667 0
M  V30 2118 C 196.152 -0.630804 -3.53922 0
M  V30 2119 C 195.816 -2.01401 -4.10228 0
M  V30 2120 C 196.813 -2.98422 -4.25724 0
M  V30 2121 C 194.498 -2.32121 -4.45449 0
M  V30 2122 C 196.492 -4.24293 -4.75662 0
M  V30 2123 C 194.179 -3.58237 -4.95086 0
M  V30 2124 C 195.177 -4.54137 -5.10146 0
M  V30 2125 O 194.865 -5.78014 -5.58708 0
M  V30 2126 H 194.597 -0.201953 -0.645129 0
M  V30 2127 H 197.151 -1.20076 -1.66646 0
M  V30 2128 H 195.381 0.0990616 -3.86573 0
M  V30 2129 H 197.07 -0.277338 -4.04951 0
M  V30 2130 H 197.836 -2.76001 -3.98809 0
M  V30 2131 H 193.715 -1.5824 -4.32991 0
M  V30 2132 H 197.259 -4.99153 -4.87332 0
M  V30 2133 H 193.156 -3.80491 -5.21437 0
M  V30 2134 H 193.924 -5.8049 -5.77039 0
M  V30 2135 N 196.587 1.43421 -0.653314 0
M  V30 2136 C 197.998 1.85065 -0.246537 0
M  V30 2137 C 198.349 1.54688 1.2069 0
M  V30 2138 O 197.474 0.995896 1.92122 0
M  V30 2139 C 198.069 3.35922 -0.440666 0
M  V30 2140 C 196.628 3.76297 -0.0882064 0
M  V30 2141 C 195.775 2.67147 -0.743484 0
M  V30 2142 H 198.726 1.33572 -0.856979 0
M  V30 2143 H 198.747 3.79204 0.313798 0
M  V30 2144 H 198.259 3.58 -1.49858 0
M  V30 2145 H 196.36 3.5983 0.96711 0
M  V30 2146 H 196.473 4.76338 -0.513738 0
M  V30 2147 H 194.837 2.54086 -0.176712 0
M  V30 2148 H 195.62 2.92053 -1.80443 0
M  V30 2149 N 198.065 0.39524 1.52563 0
M  V30 2150 C 198.975 -0.444232 2.30356 0
M  V30 2151 C 199.991 -1.06615 1.37511 0
M  V30 2152 O 201.167 -1.07067 1.70583 0
M  V30 2153 C 198.232 -1.55315 3.09964 0
M  V30 2154 C 197.293 -0.955734 4.18526 0
M  V30 2155 C 196.526 -2.01181 4.9433 0
M  V30 2156 O 196.749 -3.22781 4.70285 0
M  V30 2157 O 195.683 -1.62579 5.79527 0
M  V30 2158 H 199.509 0.189667 3.03107 0
M  V30 2159 H 197.094 0.1588 1.48554 0
M  V30 2160 H 198.976 -2.19724 3.59582 0
M  V30 2161 H 197.651 -2.17191 2.4002 0
M  V30 2162 H 196.558 -0.274743 3.7309 0
M  V30 2163 H 197.891 -0.381109 4.90722 0
M  V30 2164 N 199.544 -1.57102 0.125237 0
M  V30 2165 C 200.772 -1.99761 -0.538797 0
M  V30 2166 C 201.187 -1.00503 -1.59827 0
M  V30 2167 O 200.544 0.00119474 -1.825 0
M  V30 2168 C 200.595 -3.42408 -1.15927 0
M  V30 2169 O 200.316 -4.37869 -0.142143 0
M  V30 2170 C 201.817 -4.00232 -1.90602 0
M  V30 2171 H 199.037 -0.655772 -0.14214 0
M  V30 2172 H 201.581 -2.03383 0.213413 0
M  V30 2173 H 199.736 -3.39706 -1.86223 0
M  V30 2174 H 200.15 -5.21128 -0.593775 0
M  V30 2175 H 201.624 -5.02105 -2.29335 0
M  V30 2176 H 202.101 -3.39721 -2.78363 0
M  V30 2177 H 202.707 -4.06499 -1.25055 0
M  V30 2178 N 201.022 0.148545 -1.56898 0
M  V30 2179 C 202.25 0.876389 -1.87422 0
M  V30 2180 C 202.665 1.74809 -0.713256 0
M  V30 2181 O 202.022 1.79725 0.317025 0
M  V30 2182 C 202.073 1.73438 -3.17178 0
M  V30 2183 O 201.794 0.897809 -4.28802 0
M  V30 2184 C 203.295 2.56993 -3.61205 0
M  V30 2185 H 200.515 0.253489 -0.621277 0
M  V30 2186 H 203.059 0.141798 -2.04008 0
M  V30 2187 H 201.214 2.42205 -3.0235 0
M  V30 2188 H 201.628 1.48672 -5.02988 0
M  V30 2189 H 203.102 3.12773 -4.54838 0
M  V30 2190 H 203.579 3.32958 -2.86419 0
M  V30 2191 H 204.185 1.9352 -3.78722 0
M  V30 2192 N 202.5 1.5196 0.417844 0
M  V30 2193 C 203.777 1.56146 1.17803 0
M  V30 2194 C 204.157 0.337275 2.08388 0
M  V30 2195 O 203.505 -0.676447 2.18258 0
M  V30 2196 C 203.715 2.88566 1.96293 0
M  V30 2197 C 205.063 3.41244 2.52662 0
M  V30 2198 O 206.087 2.90247 2.06483 0
M  V30 2199 O 204.946 4.30273 3.36938 0
M  V30 2200 H 202.04 0.628598 0.537395 0
M  V30 2201 H 204.586 1.64283 0.425331 0
M  V30 2202 H 203.358 3.69116 1.2988 0
M  V30 2203 H 202.981 2.83681 2.78587 0
M  V30 2204 N 203.978 -0.674533 1.42435 0
M  V30 2205 C 205.227 -1.43034 1.42212 0
M  V30 2206 C 205.54 -1.95555 0.0420788 0
M  V30 2207 O 206.746 -2.71374 -0.0827558 0
M  V30 2208 C 205.202 -2.58748 2.50155 0
M  V30 2209 C 204.81 -2.12925 3.94166 0
M  V30 2210 C 206.554 -3.36257 2.59098 0
M  V30 2211 C 204.461 -3.25723 4.93618 0
M  V30 2212 H 203.391 -0.537345 0.528939 0
M  V30 2213 H 206.042 -0.73024 1.68344 0
M  V30 2214 H 204.424 -3.31128 2.17188 0
M  V30 2215 H 205.598 -1.47697 4.36488 0
M  V30 2216 H 203.913 -1.48354 3.89076 0
M  V30 2217 H 206.51 -4.20264 3.30578 0
M  V30 2218 H 206.853 -3.82866 1.63461 0
M  V30 2219 H 207.386 -2.70947 2.9126 0
M  V30 2220 H 204.125 -2.84105 5.90732 0
M  V30 2221 H 203.645 -3.89732 4.55926 0
M  V30 2222 H 205.324 -3.91186 5.15347 0
M  V30 2223 N 205.456 -1.28612 -0.910864 0
M  V30 2224 C 206.686 -1.1862 -1.69153 0
M  V30 2225 C 207.094 0.257324 -1.87442 0
M  V30 2226 O 206.437 1.18543 -1.40332 0
M  V30 2227 C 206.499 -1.81606 -3.10257 0
M  V30 2228 C 206.163 -3.30864 -3.15243 0
M  V30 2229 C 207.16 -4.27256 -2.96223 0
M  V30 2230 C 204.845 -3.71871 -3.37664 0
M  V30 2231 C 206.839 -5.62631 -2.99541 0
M  V30 2232 C 204.526 -5.07371 -3.40614 0
M  V30 2233 C 205.524 -6.02561 -3.21573 0
M  V30 2234 O 205.212 -7.35589 -3.2429 0
M  V30 2235 H 204.944 -0.412633 -0.535453 0
M  V30 2236 H 207.498 -1.70306 -1.14827 0
M  V30 2237 H 205.728 -1.24418 -3.66138 0
M  V30 2238 H 207.417 -1.66092 -3.70362 0
M  V30 2239 H 208.183 -3.9691 -2.78725 0
M  V30 2240 H 204.062 -2.98241 -3.5153 0
M  V30 2241 H 207.606 -6.36907 -2.84597 0
M  V30 2242 H 203.503 -5.37366 -3.57642 0
M  V30 2243 H 204.271 -7.44252 -3.40633 0
M  V30 2244 N 206.934 1.1197 -1.10907 0
M  V30 2245 C 208.211 1.79959 -0.766432 0
M  V30 2246 C 208.591 1.97466 0.746363 0
M  V30 2247 O 207.939 1.55491 1.67436 0
M  V30 2248 C 208.149 3.14009 -1.52314 0
M  V30 2249 C 209.497 3.89134 -1.69883 0
M  V30 2250 O 210.521 3.2368 -1.48692 0
M  V30 2251 O 209.38 5.06572 -2.05054 0
M  V30 2252 H 206.474 0.779208 -0.277062 0
M  V30 2253 H 209.02 1.18762 -1.21217 0
M  V30 2254 H 207.792 2.96587 -2.55249 0
M  V30 2255 H 207.415 3.82915 -1.07059 0
M  V30 2256 N 208.412 0.89855 1.29475 0
M  V30 2257 C 209.828 0.594483 1.48115 0
M  V30 2258 C 210.028 -0.86431 1.82022 0
M  V30 2259 O 209.084 -1.64457 1.91599 0
M  V30 2260 C 210.397 1.51932 2.59494 0
M  V30 2261 C 211.945 1.5244 2.7337 0
M  V30 2262 C 212.42 2.43548 3.87877 0
M  V30 2263 N 213.911 2.41589 3.95208 0
M  V30 2264 C 214.646 3.08789 4.83153 0
M  V30 2265 N 214.142 3.85265 5.75798 0
M  V30 2266 N 215.935 2.97952 4.76635 0
M  V30 2267 H 208.086 1.84207 1.05742 0
M  V30 2268 H 210.349 0.789251 0.525154 0
M  V30 2269 H 210.055 2.55865 2.41301 0
M  V30 2270 H 209.929 1.23899 3.56271 0
M  V30 2271 H 212.316 0.492518 2.90961 0
M  V30 2272 H 212.397 1.8451 1.77172 0
M  V30 2273 H 212.041 3.46829 3.71041 0
M  V30 2274 H 211.971 2.08788 4.83441 0
M  V30 2275 H 214.462 1.86025 3.28943 0
M  V30 2276 H 214.775 4.33598 6.39697 0
M  V30 2277 H 213.12 3.89371 5.75687 0
M  V30 2278 H 216.311 2.37723 4.03244 0
M  V30 2279 H 216.484 3.50599 5.44962 0
M  V30 2280 N 209.89 -1.43072 0.660911 0
M  V30 2281 C 210.837 -2.30785 -0.0259884 0
M  V30 2282 C 211.807 -1.45184 -0.806888 0
M  V30 2283 O 212.992 -1.74041 -0.781943 0
M  V30 2284 C 210.132 -3.30861 -0.981067 0
M  V30 2285 C 209.245 -4.31558 -0.195458 0
M  V30 2286 C 208.38 -5.18712 -1.14503 0
M  V30 2287 C 207.419 -6.11097 -0.350299 0
M  V30 2288 N 206.556 -6.90849 -1.25186 0
M  V30 2289 H 211.396 -2.88975 0.727846 0
M  V30 2290 H 208.933 -1.42353 0.370682 0
M  V30 2291 H 210.891 -3.87399 -1.54849 0
M  V30 2292 H 209.521 -2.74304 -1.70169 0
M  V30 2293 H 208.573 -3.77252 0.488374 0
M  V30 2294 H 209.885 -4.9701 0.422176 0
M  V30 2295 H 209.039 -5.79914 -1.78284 0
M  V30 2296 H 207.778 -4.53404 -1.79656 0
M  V30 2297 H 206.783 -5.48976 0.300808 0
M  V30 2298 H 208.008 -6.7845 0.296941 0
M  V30 2299 H 205.954 -6.28182 -1.89005 0
M  V30 2300 H 205.871 -7.52854 -0.688971 0
M  V30 2301 H 207.139 -7.5655 -1.87757 0
M  V30 2302 N 211.368 -0.403325 -1.52352 0
M  V30 2303 C 212.316 0.439752 -2.28405 0
M  V30 2304 C 213.31 1.05089 -1.32863 0
M  V30 2305 O 214.516 0.989759 -1.50345 0
M  V30 2306 H 210.891 0.160587 -0.734653 0
M  V30 2307 H 212.862 -0.222983 -2.97566 0
M  V30 2308 C 211.611 1.54736 -3.11371 0
M  V30 2309 H 210.934 1.08643 -3.84755 0
M  V30 2310 H 212.374 2.1112 -3.67701 0
M  V30 2311 C 210.833 2.51141 -2.24566 0
M  V30 2312 O 211.363 3.54887 -1.88196 0
M  V30 2313 N 209.569 2.21213 -1.8845 0
M  V30 2314 H 209.116 1.36878 -2.18225 0
M  V30 2315 H 209.074 2.85963 -1.30662 0
M  V30 2316 N 212.846 1.57033 -0.133567 0
M  V30 2317 C 213.779 2.11824 0.848872 0
M  V30 2318 C 214.757 1.03833 1.2513 0
M  V30 2319 O 215.941 1.31579 1.34978 0
M  V30 2320 C 213.068 2.62692 2.138 0
M  V30 2321 C 212.114 3.82705 1.88253 0
M  V30 2322 S 212.947 5.2438 1.08563 0
M  V30 2323 C 214.103 5.78627 2.38624 0
M  V30 2324 H 214.336 2.94824 0.38289 0
M  V30 2325 H 211.869 1.5419 0.0804796 0
M  V30 2326 H 213.827 2.92652 2.87863 0
M  V30 2327 H 212.488 1.79847 2.57515 0
M  V30 2328 H 211.681 4.16496 2.83809 0
M  V30 2329 H 211.283 3.53437 1.22305 0
M  V30 2330 H 213.575 5.8924 3.34369 0
M  V30 2331 H 214.518 6.76443 2.09358 0
M  V30 2332 H 214.926 5.06783 2.48658 0
M  V30 2333 N 214.325 -0.140222 1.56975 0
M  V30 2334 C 215.736 -0.699596 1.73097 0
M  V30 2335 C 216.087 -1.8134 0.749022 0
M  V30 2336 O 215.212 -2.16241 -0.0828503 0
M  V30 2337 C 215.807 -1.27582 3.1386 0
M  V30 2338 C 214.366 -1.78169 3.31561 0
M  V30 2339 C 213.513 -0.672855 2.69013 0
M  V30 2340 H 216.464 0.0855115 1.58469 0
M  V30 2341 H 216.485 -2.14561 3.14235 0
M  V30 2342 H 215.997 -0.464955 3.85305 0
M  V30 2343 H 214.098 -2.61801 2.65124 0
M  V30 2344 H 214.211 -1.90574 4.39566 0
M  V30 2345 H 212.575 -1.10118 2.29665 0
M  V30 2346 H 213.358 0.126679 3.43066 0
M  V30 2347 N 215.803 -1.52179 -0.40978 0
M  V30 2348 C 217.219 -1.40968 -0.74835 0
M  V30 2349 C 217.419 -0.513657 -1.94843 0
M  V30 2350 O 216.475 0.0208026 -2.52491 0
M  V30 2351 C 217.788 -2.83483 -1.0029 0
M  V30 2352 C 219.336 -2.92821 -1.10565 0
M  V30 2353 C 219.811 -4.36303 -1.39296 0
M  V30 2354 N 221.302 -4.39535 -1.46162 0
M  V30 2355 C 222.037 -5.47614 -1.70018 0
M  V30 2356 N 221.533 -6.65812 -1.91483 0
M  V30 2357 N 223.326 -5.35129 -1.72027 0
M  V30 2358 H 215.477 -2.0897 0.380186 0
M  V30 2359 H 217.74 -0.94185 0.107805 0
M  V30 2360 H 217.446 -3.51168 -0.193461 0
M  V30 2361 H 217.32 -3.24487 -1.92323 0
M  V30 2362 H 219.707 -2.25318 -1.90568 0
M  V30 2363 H 219.788 -2.55276 -0.16369 0
M  V30 2364 H 219.432 -5.04366 -0.598109 0
M  V30 2365 H 219.362 -4.71385 -2.34743 0
M  V30 2366 H 221.853 -3.54332 -1.31367 0
M  V30 2367 H 222.166 -7.43964 -2.09134 0
M  V30 2368 H 220.511 -6.68879 -1.88749 0
M  V30 2369 H 223.702 -4.41764 -1.54796 0
M  V30 2370 H 223.875 -6.19433 -1.9028 0
M  V30 2371 N 217.281 0.66697 -1.42791 0
M  V30 2372 C 218.521 1.43892 -1.4517 0
M  V30 2373 C 218.885 1.91877 -0.0687551 0
M  V30 2374 O 220.086 2.6878 0.0327455 0
M  V30 2375 C 218.357 2.59839 -2.45395 0
M  V30 2376 S 219.916 3.48572 -2.66539 0
M  V30 2377 H 216.734 0.491356 -0.513897 0
M  V30 2378 H 219.336 0.775656 -1.79454 0
M  V30 2379 H 218.04 2.22838 -3.44632 0
M  V30 2380 H 217.571 3.3103 -2.12562 0
M  V30 2381 H 219.586 4.56094 -1.95429 0
M  V30 2382 N 218.759 1.29093 0.90403 0
M  V30 2383 C 220.008 1.16187 1.64874 0
M  V30 2384 C 220.321 -0.286742 1.93487 0
M  V30 2385 O 221.527 -0.537062 2.66135 0
M  V30 2386 C 219.983 2.03177 2.97064 0
M  V30 2387 C 219.591 3.52836 2.76062 0
M  V30 2388 C 221.335 1.98984 3.74974 0
M  V30 2389 C 219.242 4.31945 4.03952 0
M  V30 2390 H 218.172 0.431246 0.618501 0
M  V30 2391 H 220.823 1.53699 1.00243 0
M  V30 2392 H 219.205 1.5853 3.62883 0
M  V30 2393 H 220.379 4.05507 2.18863 0
M  V30 2394 H 218.694 3.58656 2.11553 0
M  V30 2395 H 221.291 2.55351 4.69787 0
M  V30 2396 H 221.634 0.968815 4.0487 0
M  V30 2397 H 222.167 2.41652 3.15989 0
M  V30 2398 H 218.906 5.34667 3.79225 0
M  V30 2399 H 218.426 3.84045 4.60727 0
M  V30 2400 H 220.105 4.42379 4.72133 0
M  V30 2401 N 220.237 -1.11381 1.11499 0
M  V30 2402 C 221.467 -1.86663 0.885464 0
M  V30 2403 C 221.875 -1.80464 -0.568281 0
M  V30 2404 O 221.218 -1.18445 -1.40415 0
M  V30 2405 C 221.28 -3.36337 1.26956 0
M  V30 2406 C 220.944 -3.66304 2.73259 0
M  V30 2407 C 221.941 -3.63733 3.71476 0
M  V30 2408 C 219.626 -3.9529 3.09921 0
M  V30 2409 C 221.62 -3.89725 5.04374 0
M  V30 2410 C 219.307 -4.20941 4.43004 0
M  V30 2411 C 220.305 -4.18147 5.40039 0
M  V30 2412 O 219.993 -4.43153 6.70724 0
M  V30 2413 H 219.725 -0.597114 0.316908 0
M  V30 2414 H 222.279 -1.41782 1.48617 0
M  V30 2415 H 220.509 -3.81826 0.611999 0
M  V30 2416 H 222.198 -3.92986 1.01573 0
M  V30 2417 H 222.964 -3.41389 3.44498 0
M  V30 2418 H 218.843 -3.966 2.35009 0
M  V30 2419 H 222.387 -3.8746 5.80104 0
M  V30 2420 H 218.284 -4.42761 4.69716 0
M  V30 2421 H 219.052 -4.60717 6.76522 0
M  V30 2422 N 221.715 -0.905404 -1.28997 0
M  V30 2423 C 222.955 -0.541232 -1.97104 0
M  V30 2424 C 223.319 0.896841 -1.69767 0
M  V30 2425 O 224.52 1.36817 -2.31375 0
M  V30 2426 C 222.791 -0.832134 -3.47578 0
M  V30 2427 S 224.35 -0.573127 -4.35041 0
M  V30 2428 H 221.168 -0.200576 -0.682122 0
M  V30 2429 H 223.77 -1.16906 -1.56694 0
M  V30 2430 H 222.474 -1.87687 -3.64968 0
M  V30 2431 H 222.005 -0.192636 -3.92928 0
M  V30 2432 H 224.02 0.579297 -4.92807 0
M  V30 2433 N 223.193 1.4272 -0.668489 0
M  V30 2434 C 224.442 2.00846 -0.185389 0
M  V30 2435 C 224.755 1.53442 1.21305 0
M  V30 2436 O 225.961 2.03944 1.79218 0
M  V30 2437 C 224.417 3.58805 -0.280591 0
M  V30 2438 C 224.025 4.15198 -1.68268 0
M  V30 2439 C 225.769 4.24255 0.14412 0
M  V30 2440 C 223.676 5.655 -1.73099 0
M  V30 2441 H 222.606 0.751145 -0.0655475 0
M  V30 2442 H 225.257 1.63516 -0.832752 0
M  V30 2443 H 223.639 3.93608 0.434553 0
M  V30 2444 H 224.813 3.91866 -2.42441 0
M  V30 2445 H 223.128 3.62176 -2.05469 0
M  V30 2446 H 225.725 5.34547 0.128086 0
M  V30 2447 H 226.068 3.99277 1.17827 0
M  V30 2448 H 226.601 3.94389 -0.519798 0
M  V30 2449 H 223.34 5.95268 -2.74475 0
M  V30 2450 H 222.86 5.90842 -1.03274 0
M  V30 2451 H 224.539 6.29808 -1.48158 0
M  V30 2452 N 224.671 0.411399 1.52136 0
M  V30 2453 C 225.621 -0.430376 2.23901 0
M  V30 2454 C 226.605 -1.0116 1.25121 0
M  V30 2455 O 227.797 -0.934044 1.50348 0
M  V30 2456 C 224.926 -1.54527 3.06556 0
M  V30 2457 C 224.012 -0.9747 4.12747 0
M  V30 2458 N 224.403 -0.130991 5.0563 0
M  V30 2459 C 222.701 -1.24497 4.28271 0
M  V30 2460 C 223.402 0.186689 5.814 0
M  V30 2461 N 222.378 -0.42304 5.41951 0
M  V30 2462 H 226.18 0.220509 2.93072 0
M  V30 2463 H 223.694 0.221952 1.60876 0
M  V30 2464 H 225.691 -2.16093 3.56524 0
M  V30 2465 H 224.351 -2.19875 2.38925 0
M  V30 2466 H 225.362 0.23349 5.17373 0
M  V30 2467 H 222.039 -1.89787 3.7187 0
M  V30 2468 H 223.429 0.871673 6.66222 0
M  V30 2469 N 226.149 -1.5696 0.141893 0
M  V30 2470 C 227.112 -2.15316 -0.785587 0
M  V30 2471 C 228.112 -1.09366 -1.1788 0
M  V30 2472 O 229.302 -1.35031 -1.10056 0
M  V30 2473 C 226.434 -2.71211 -2.06537 0
M  V30 2474 H 227.627 -2.98608 -0.278041 0
M  V30 2475 H 225.18 -1.5593 -0.107519 0
M  V30 2476 H 225.915 -1.91571 -2.6167 0
M  V30 2477 H 225.7 -3.4872 -1.79268 0
M  V30 2478 H 227.19 -3.16189 -2.72789 0
M  V30 2479 N 227.627 0.131896 -1.57047 0
M  V30 2480 C 228.557 1.16384 -2.02428 0
M  V30 2481 C 229.538 1.43936 -0.90644 0
M  V30 2482 O 230.723 1.54599 -1.17528 0
M  V30 2483 C 227.853 2.49328 -2.4177 0
M  V30 2484 C 226.807 2.36266 -3.56879 0
M  V30 2485 C 226.133 3.74057 -3.8208 0
M  V30 2486 C 227.433 1.834 -4.89042 0
M  V30 2487 H 229.127 0.786433 -2.88887 0
M  V30 2488 H 226.673 0.376855 -1.38981 0
M  V30 2489 H 228.626 3.21759 -2.7212 0
M  V30 2490 H 227.35 2.88934 -1.52266 0
M  V30 2491 H 226.009 1.66286 -3.26718 0
M  V30 2492 H 225.657 4.11125 -2.89803 0
M  V30 2493 H 225.357 3.66174 -4.59554 0
M  V30 2494 H 226.881 4.48012 -4.1487 0
M  V30 2495 H 228.295 2.45636 -5.18011 0
M  V30 2496 H 226.692 1.8637 -5.70426 0
M  V30 2497 H 227.762 0.790662 -4.7841 0
M  V30 2498 N 229.106 1.52395 0.401703 0
M  V30 2499 C 230.331 1.70972 1.17403 0
M  V30 2500 C 230.756 0.421615 1.83314 0
M  V30 2501 O 230.114 -0.621564 1.70312 0
M  V30 2502 C 230.162 2.85151 2.20728 0
M  V30 2503 O 229.266 2.51238 3.27037 0
M  V30 2504 H 228.607 0.568927 0.342372 0
M  V30 2505 H 231.137 1.99131 0.469891 0
M  V30 2506 H 231.147 3.10279 2.64936 0
M  V30 2507 H 229.822 3.78603 1.7214 0
M  V30 2508 H 228.399 2.36808 2.88057 0
M  V30 2509 N 230.584 -0.659388 1.43143 0
M  V30 2510 C 231.514 -1.78422 1.50625 0
M  V30 2511 C 232.495 -1.66216 0.361443 0
M  V30 2512 O 233.68 -1.85404 0.577834 0
M  V30 2513 C 230.81 -3.16815 1.42287 0
M  V30 2514 C 229.764 -3.43777 2.54954 0
M  V30 2515 C 229.09 -4.81905 2.31671 0
M  V30 2516 C 230.39 -3.39134 3.97222 0
M  V30 2517 H 232.084 -1.72417 2.44771 0
M  V30 2518 H 229.63 -0.828084 1.17808 0
M  V30 2519 H 231.583 -3.95253 1.46127 0
M  V30 2520 H 230.307 -3.23534 0.446435 0
M  V30 2521 H 228.966 -2.67707 2.50457 0
M  V30 2522 H 228.614 -4.85294 1.32284 0
M  V30 2523 H 228.314 -5.00906 3.07192 0
M  V30 2524 H 229.838 -5.62609 2.37284 0
M  V30 2525 H 231.252 -4.07518 4.03239 0
M  V30 2526 H 229.649 -3.69671 4.72719 0
M  V30 2527 H 230.719 -2.37426 4.22797 0
M  V30 2528 N 232.062 -1.29571 -0.897171 0
M  V30 2529 C 233.292 -1.20408 -1.67886 0
M  V30 2530 C 233.7 0.237429 -1.87704 0
M  V30 2531 O 233.043 1.17048 -1.41582 0
M  V30 2532 C 233.105 -1.84887 -3.08314 0
M  V30 2533 C 232.769 -3.34189 -3.11716 0
M  V30 2534 C 233.766 -4.30374 -2.91675 0
M  V30 2535 C 231.451 -3.75431 -3.33701 0
M  V30 2536 C 233.445 -5.65776 -2.93557 0
M  V30 2537 C 231.132 -5.10955 -3.35214 0
M  V30 2538 C 232.13 -6.05938 -3.15164 0
M  V30 2539 O 231.818 -7.38987 -3.1647 0
M  V30 2540 H 231.55 -0.418289 -0.531046 0
M  V30 2541 H 234.104 -1.71514 -1.13014 0
M  V30 2542 H 232.334 -1.28295 -3.64798 0
M  V30 2543 H 234.023 -1.70011 -3.6858 0
M  V30 2544 H 234.789 -3.99844 -2.74499 0
M  V30 2545 H 230.668 -3.01953 -3.48347 0
M  V30 2546 H 234.212 -6.39889 -2.77826 0
M  V30 2547 H 230.109 -5.4113 -3.51922 0
M  V30 2548 H 230.877 -7.47823 -3.3272 0
M  V30 2549 N 233.54 1.10788 -1.12088 0
M  V30 2550 C 234.47 2.19083 -0.807755 0
M  V30 2551 C 235.451 1.6858 0.226859 0
M  V30 2552 O 236.636 1.93997 0.0888475 0
M  V30 2553 C 233.766 3.46344 -0.257576 0
M  V30 2554 C 232.72 4.101 -1.22483 0
M  V30 2555 C 232.046 5.32016 -0.535052 0
M  V30 2556 C 233.346 4.54236 -2.57811 0
M  V30 2557 H 235.04 2.45534 -1.71328 0
M  V30 2558 H 232.586 1.1801 -0.825205 0
M  V30 2559 H 234.539 4.21392 -0.0262679 0
M  V30 2560 H 233.263 3.19373 0.683278 0
M  V30 2561 H 231.922 3.37054 -1.44189 0
M  V30 2562 H 231.57 5.01319 0.410827 0
M  V30 2563 H 231.27 5.75625 -1.18024 0
M  V30 2564 H 232.794 6.09799 -0.312695 0
M  V30 2565 H 234.208 5.20575 -2.40155 0
M  V30 2566 H 232.605 5.08682 -3.18375 0
M  V30 2567 H 233.675 3.6734 -3.16528 0
M  V30 2568 N 235.018 0.912232 1.28515 0
M  V30 2569 C 236.265 0.544599 1.95039 0
M  V30 2570 C 236.593 -0.911435 1.71823 0
M  V30 2571 O 235.848 -1.66317 1.03137 0
M  V30 2572 C 236.147 0.798392 3.48368 0
M  V30 2573 C 235.813 2.23374 3.91682 0
M  V30 2574 C 234.475 2.62617 4.03219 0
M  V30 2575 C 236.827 3.16786 4.13879 0
M  V30 2576 C 234.155 3.94429 4.3433 0
M  V30 2577 C 236.507 4.48161 4.46469 0
M  V30 2578 C 235.171 4.8726 4.56217 0
M  V30 2579 H 234.441 0.199283 0.7137 0
M  V30 2580 H 237.088 1.15327 1.52879 0
M  V30 2581 H 235.393 0.106908 3.91654 0
M  V30 2582 H 237.09 0.493141 3.97956 0
M  V30 2583 H 233.68 1.91922 3.83228 0
M  V30 2584 H 237.864 2.87677 4.0442 0
M  V30 2585 H 233.12 4.24426 4.40082 0
M  V30 2586 H 237.294 5.20559 4.62592 0
M  V30 2587 H 234.921 5.89431 4.80078 0
M  V30 2588 N 236.496 -1.42363 0.676048 0
M  V30 2589 C 237.443 -2.308 -0.00150904 0
M  V30 2590 C 238.413 -1.46032 -0.791444 0
M  V30 2591 O 239.598 -1.74861 -0.76344 0
M  V30 2592 C 236.738 -3.31883 -0.945919 0
M  V30 2593 C 235.851 -4.31741 -0.149675 0
M  V30 2594 C 234.986 -5.19898 -1.08995 0
M  V30 2595 C 234.025 -6.11434 -0.285465 0
M  V30 2596 N 233.162 -6.92138 -1.17851 0
M  V30 2597 H 238.002 -2.88187 0.758455 0
M  V30 2598 H 235.539 -1.41952 0.38576 0
M  V30 2599 H 237.497 -3.89019 -1.50731 0
M  V30 2600 H 236.127 -2.76093 -1.6725 0
M  V30 2601 H 235.179 -3.76713 0.528359 0
M  V30 2602 H 236.491 -4.96534 0.474866 0
M  V30 2603 H 235.645 -5.81772 -1.72123 0
M  V30 2604 H 234.384 -4.55284 -1.74837 0
M  V30 2605 H 233.389 -5.48627 0.359018 0
M  V30 2606 H 234.614 -6.78097 0.368883 0
M  V30 2607 H 232.56 -6.30152 -1.82332 0
M  V30 2608 H 232.477 -7.53542 -0.609082 0
M  V30 2609 H 233.745 -7.58499 -1.79722 0
M  V30 2610 N 237.974 -0.419461 -1.51915 0
M  V30 2611 C 238.904 0.391813 -2.30189 0
M  V30 2612 C 239.885 1.03699 -1.34836 0
M  V30 2613 O 241.07 1.04403 -1.63748 0
M  V30 2614 C 238.2 1.50312 -3.13087 0
M  V30 2615 C 237.154 0.9824 -4.16573 0
M  V30 2616 C 236.48 2.18809 -4.8788 0
M  V30 2617 C 237.78 0.0292356 -5.22292 0
M  V30 2618 H 239.474 -0.26135 -2.98257 0
M  V30 2619 H 237.02 -0.127134 -1.43438 0
M  V30 2620 H 238.973 2.07773 -3.66617 0
M  V30 2621 H 237.697 2.18431 -2.42807 0
M  V30 2622 H 236.356 0.430119 -3.64068 0
M  V30 2623 H 236.004 2.85507 -4.14119 0
M  V30 2624 H 235.704 1.84615 -5.57845 0
M  V30 2625 H 237.228 2.76858 -5.44226 0
M  V30 2626 H 238.642 0.512976 -5.71 0
M  V30 2627 H 237.039 -0.2244 -5.9968 0
M  V30 2628 H 238.109 -0.912931 -4.76228 0
M  V30 2629 N 239.452 1.56882 -0.150215 0
M  V30 2630 C 240.7 1.9584 0.499105 0
M  V30 2631 C 241.021 1.03623 1.65188 0
M  V30 2632 O 240.291 0.0984084 1.95653 0
M  V30 2633 H 238.871 0.723119 0.187373 0
M  V30 2634 H 241.533 1.9358 -0.226466 0
M  V30 2635 H 240.629 2.99638 0.873122 0
M  V30 2636 N 240.93 -0.123565 1.57115 0
M  V30 2637 C 241.86 -1.15309 2.03042 0
M  V30 2638 C 242.841 -1.43454 0.914061 0
M  V30 2639 O 244.026 -1.53973 1.18347 0
M  V30 2640 C 241.156 -2.48043 2.43089 0
M  V30 2641 C 240.11 -2.3437 3.58127 0
M  V30 2642 C 239.436 -3.72026 3.84059 0
M  V30 2643 C 240.736 -1.80804 4.90007 0
M  V30 2644 H 242.43 -0.771102 2.893 0
M  V30 2645 H 239.976 -0.369479 1.39179 0
M  V30 2646 H 241.929 -3.20311 2.73823 0
M  V30 2647 H 240.653 -2.88122 1.53796 0
M  V30 2648 H 239.312 -1.64551 3.27595 0
M  V30 2649 H 238.96 -4.09582 2.91979 0
M  V30 2650 H 238.66 -3.63732 4.6149 0
M  V30 2651 H 240.184 -4.45806 4.1724 0
M  V30 2652 H 241.598 -2.42886 5.19307 0
M  V30 2653 H 239.995 -1.83343 5.71407 0
M  V30 2654 H 241.065 -0.76528 4.78823 0
M  V30 2655 N 242.408 -1.52605 -0.393616 0
M  V30 2656 C 243.371 -1.76415 -1.46323 0
M  V30 2657 C 244.371 -0.634126 -1.47768 0
M  V30 2658 O 245.561 -0.902142 -1.4902 0
M  V30 2659 C 242.693 -1.8607 -2.85641 0
M  V30 2660 H 243.886 -2.71916 -1.26498 0
M  V30 2661 H 241.439 -1.43257 -0.625073 0
M  V30 2662 H 242.174 -0.925378 -3.10817 0
M  V30 2663 H 241.959 -2.68235 -2.85993 0
M  V30 2664 H 243.449 -2.06179 -3.63153 0
M  V30 2665 N 243.887 0.651787 -1.4349 0
M  V30 2666 C 245.298 1.233 -1.40193 0
M  V30 2667 C 245.649 1.9591 -0.106727 0
M  V30 2668 O 244.774 2.01316 0.793773 0
M  V30 2669 C 245.369 2.24257 -2.53957 0
M  V30 2670 C 243.928 2.77852 -2.5392 0
M  V30 2671 C 243.075 1.52517 -2.3159 0
M  V30 2672 H 246.026 0.443717 -1.52371 0
M  V30 2673 H 246.047 3.0646 -2.25528 0
M  V30 2674 H 245.559 1.71382 -3.4821 0
M  V30 2675 H 243.66 3.34786 -1.63551 0
M  V30 2676 H 243.773 3.25299 -3.51735 0
M  V30 2677 H 242.137 1.79915 -1.80285 0
M  V30 2678 H 242.92 1.01574 -3.27929 0
M  V30 2679 N 245.365 1.30045 0.890287 0
M  V30 2680 C 246.297 1.11786 2.00091 0
M  V30 2681 C 247.31 0.0626307 1.62679 0
M  V30 2682 O 248.499 0.308112 1.75821 0
M  V30 2683 C 245.599 0.681527 3.31977 0
M  V30 2684 C 244.772 1.81735 3.97858 0
M  V30 2685 C 243.831 1.37045 5.08041 0
M  V30 2686 O 242.857 2.07677 5.29961 0
M  V30 2687 N 244.059 0.246525 5.79976 0
M  V30 2688 H 246.824 2.07441 2.16306 0
M  V30 2689 H 244.385 1.2211 1.06305 0
M  V30 2690 H 246.377 0.365675 4.03045 0
M  V30 2691 H 244.947 -0.182828 3.12065 0
M  V30 2692 H 244.167 2.30159 3.20032 0
M  V30 2693 H 245.455 2.57865 4.38615 0
M  V30 2694 H 244.853 -0.34215 5.64664 0
M  V30 2695 H 243.41 -0.00990438 6.51799 0
M  V30 2696 N 246.843 -1.10192 1.12674 0
M  V30 2697 C 248.092 -1.81573 0.8783 0
M  V30 2698 C 248.405 -1.86249 -0.597557 0
M  V30 2699 O 249.611 -2.5386 -0.962681 0
M  V30 2700 C 248.067 -3.26149 1.52167 0
M  V30 2701 C 247.675 -3.29763 3.03249 0
M  V30 2702 C 249.419 -4.0234 1.3536 0
M  V30 2703 C 247.326 -4.68815 3.60508 0
M  V30 2704 H 246.256 -0.680394 0.324931 0
M  V30 2705 H 248.907 -1.23902 1.35353 0
M  V30 2706 H 247.289 -3.83832 0.974104 0
M  V30 2707 H 248.463 -2.8189 3.6452 0
M  V30 2708 H 246.778 -2.67059 3.19481 0
M  V30 2709 H 249.375 -5.05058 1.75559 0
M  V30 2710 H 249.718 -4.15235 0.297554 0
M  V30 2711 H 250.251 -3.51079 1.87052 0
M  V30 2712 H 246.99 -4.61121 4.65884 0
M  V30 2713 H 246.51 -5.17045 3.04014 0
M  V30 2714 H 248.189 -5.37785 3.59717 0
M  V30 2715 N 248.321 -0.919034 -1.28029 0
M  V30 2716 C 249.253 -0.368762 -2.26214 0
M  V30 2717 C 250.266 0.495716 -1.55069 0
M  V30 2718 O 251.455 0.30974 -1.75792 0
M  V30 2719 C 248.555 0.491049 -3.35324 0
M  V30 2720 C 247.728 -0.352133 -4.3598 0
M  V30 2721 C 246.787 0.443622 -5.24327 0
M  V30 2722 O 245.813 -0.14566 -5.69014 0
M  V30 2723 N 247.015 1.74545 -5.53637 0
M  V30 2724 H 249.78 -1.21273 -2.74068 0
M  V30 2725 H 247.341 -0.785541 -1.41566 0
M  V30 2726 H 249.333 1.03026 -3.91366 0
M  V30 2727 H 247.903 1.23574 -2.87138 0
M  V30 2728 H 247.123 -1.07269 -3.79324 0
M  V30 2729 H 248.411 -0.928883 -5.00249 0
M  V30 2730 H 247.809 2.24666 -5.19174 0
M  V30 2731 H 246.366 2.23138 -6.12416 0
M  V30 2732 N 249.799 1.42003 -0.683588 0
M  V30 2733 C 251.076 1.95112 -0.138075 0
M  V30 2734 C 251.456 1.62359 1.34918 0
M  V30 2735 O 250.804 0.924311 2.08971 0
M  V30 2736 C 251.014 3.46505 -0.416581 0
M  V30 2737 C 252.362 4.23254 -0.337834 0
M  V30 2738 O 253.386 3.54468 -0.35082 0
M  V30 2739 O 252.245 5.45743 -0.287596 0
M  V30 2740 H 249.339 0.826961 -0.00797996 0
M  V30 2741 H 251.885 1.51784 -0.758924 0
M  V30 2742 H 250.657 3.63582 -1.4465 0
M  V30 2743 H 250.28 3.969 0.235839 0
M  V30 2744 N 251.277 0.427512 1.51691 0
M  V30 2745 C 252.207 -0.3796 2.30394 0
M  V30 2746 C 253.188 -1.02982 1.35384 0
M  V30 2747 O 254.373 -1.03534 1.643 0
M  V30 2748 C 251.503 -1.48649 3.1388 0
M  V30 2749 C 250.457 -0.960294 4.17088 0
M  V30 2750 C 249.783 -2.16219 4.89033 0
M  V30 2751 C 251.083 -0.00153679 5.223 0
M  V30 2752 H 252.777 0.277164 2.98114 0
M  V30 2753 H 250.323 0.134739 1.43368 0
M  V30 2754 H 252.276 -2.05826 3.67714 0
M  V30 2755 H 251 -2.1714 2.43962 0
M  V30 2756 H 249.659 -0.410806 3.64291 0
M  V30 2757 H 249.307 -2.83307 4.15628 0
M  V30 2758 H 249.007 -1.81654 5.58816 0
M  V30 2759 H 250.531 -2.73968 5.45687 0
M  V30 2760 H 251.945 -0.482687 5.71264 0
M  V30 2761 H 250.342 0.256199 5.99553 0
M  V30 2762 H 251.412 0.938174 4.75738 0
M  V30 2763 N 252.755 -1.56801 0.158532 0
M  V30 2764 C 253.985 -2.00568 -0.495583 0
M  V30 2765 C 254.393 -1.03774 -1.58201 0
M  V30 2766 O 253.736 -0.0285797 -1.83678 0
M  V30 2767 C 253.798 -3.40768 -1.14532 0
M  V30 2768 C 253.462 -4.56553 -0.202101 0
M  V30 2769 C 254.459 -5.16714 0.574675 0
M  V30 2770 C 252.144 -5.02197 -0.101648 0
M  V30 2771 C 254.138 -6.20939 1.43924 0
M  V30 2772 C 251.825 -6.06274 0.766508 0
M  V30 2773 C 252.823 -6.65515 1.53555 0
M  V30 2774 O 252.511 -7.67575 2.38922 0
M  V30 2775 H 252.243 -0.662893 -0.13247 0
M  V30 2776 H 254.797 -2.03829 0.253559 0
M  V30 2777 H 253.027 -3.34381 -1.94233 0
M  V30 2778 H 254.716 -3.6857 -1.70033 0
M  V30 2779 H 255.482 -4.82341 0.507167 0
M  V30 2780 H 251.361 -4.55807 -0.689994 0
M  V30 2781 H 254.905 -6.67107 2.03996 0
M  V30 2782 H 250.802 -6.40073 0.835266 0
M  V30 2783 H 251.57 -7.84844 2.32296 0
M  V30 2784 N 254.233 0.115231 -1.57178 0
M  V30 2785 C 255.481 0.820727 -1.84685 0
M  V30 2786 C 255.802 1.80237 -0.744279 0
M  V30 2787 O 255.072 1.94529 0.231375 0
M  V30 2788 H 253.652 0.306084 -0.681411 0
M  V30 2789 H 256.314 0.101656 -1.94635 0
M  V30 2790 H 255.41 1.36366 -2.80733 0
M  V30 2791 N 255.711 1.52812 0.385517 0
M  V30 2792 C 256.658 1.77838 1.47113 0
M  V30 2793 C 257.628 0.621757 1.54024 0
M  V30 2794 O 258.813 0.861846 1.70226 0
M  V30 2795 C 255.953 1.95618 2.84302 0
M  V30 2796 C 255.066 3.23316 2.86515 0
M  V30 2797 C 254.201 3.31394 4.15152 0
M  V30 2798 C 253.24 4.53201 4.1143 0
M  V30 2799 N 252.377 4.58542 5.3168 0
M  V30 2800 H 257.217 2.70482 1.25073 0
M  V30 2801 H 254.754 1.34006 0.606692 0
M  V30 2802 H 256.712 2.03912 3.63972 0
M  V30 2803 H 255.342 1.06331 3.04784 0
M  V30 2804 H 254.394 3.24076 1.99195 0
M  V30 2805 H 255.706 4.13045 2.79634 0
M  V30 2806 H 254.86 3.3889 5.03228 0
M  V30 2807 H 253.599 2.39645 4.24761 0
M  V30 2808 H 252.604 4.45827 3.21742 0
M  V30 2809 H 253.829 5.46271 4.03442 0
M  V30 2810 H 251.775 3.69686 5.41912 0
M  V30 2811 H 251.692 5.42148 5.26889 0
M  V30 2812 H 252.96 4.70296 6.21644 0
M  V30 2813 N 257.189 -0.644168 1.43834 0
M  V30 2814 C 258.435 -1.40603 1.46146 0
M  V30 2815 C 258.768 -1.93997 0.0887717 0
M  V30 2816 O 258.043 -1.72854 -0.891724 0
M  V30 2817 C 258.326 -2.58086 2.51124 0
M  V30 2818 C 258.179 -2.10126 3.97702 0
M  V30 2819 C 259.498 -3.60291 2.52742 0
M  V30 2820 H 256.617 -0.509905 0.532134 0
M  V30 2821 H 259.259 -0.729502 1.75437 0
M  V30 2822 H 257.409 -3.15801 2.26278 0
M  V30 2823 H 259.081 -1.57342 4.33637 0
M  V30 2824 H 257.324 -1.41419 4.10101 0
M  V30 2825 H 257.995 -2.94649 4.66783 0
M  V30 2826 H 260.471 -3.12352 2.7491 0
M  V30 2827 H 259.347 -4.40032 3.28121 0
M  V30 2828 H 259.608 -4.1349 1.56455 0
M  V30 2829 N 258.668 -1.30515 -0.883378 0
M  V30 2830 C 259.945 -1.10086 -1.6168 0
M  V30 2831 C 260.325 0.349269 -2.08191 0
M  V30 2832 O 259.673 1.34105 -1.85008 0
M  V30 2833 C 259.883 -2.10315 -2.78511 0
M  V30 2834 C 261.231 -2.42119 -3.48803 0
M  V30 2835 O 262.255 -2.08638 -2.88702 0
M  V30 2836 O 261.114 -2.99396 -4.57192 0
M  V30 2837 H 258.208 -0.422907 -0.710689 0
M  V30 2838 H 260.754 -1.41947 -0.930015 0
M  V30 2839 H 259.526 -3.07917 -2.41459 0
M  V30 2840 H 259.149 -1.79282 -3.54886 0
M  V30 2841 N 260.146 1.09593 -1.13257 0
M  V30 2842 C 261.393 1.81734 -0.893257 0
M  V30 2843 C 261.721 1.8563 0.580656 0
M  V30 2844 O 260.976 1.31906 1.44566 0
M  V30 2845 C 261.275 3.27802 -1.42411 0
M  V30 2846 C 260.941 3.44041 -2.91456 0
M  V30 2847 C 259.603 3.48181 -3.3215 0
M  V30 2848 C 261.955 3.48719 -3.87356 0
M  V30 2849 C 259.283 3.54575 -4.67433 0
M  V30 2850 C 261.635 3.56648 -5.2248 0
M  V30 2851 C 260.299 3.59055 -5.62704 0
M  V30 2852 H 259.569 0.665011 -0.326866 0
M  V30 2853 H 262.216 1.2912 -1.41422 0
M  V30 2854 H 260.521 3.83042 -0.823795 0
M  V30 2855 H 262.218 3.82149 -1.21503 0
M  V30 2856 H 258.808 3.41502 -2.58987 0
M  V30 2857 H 262.992 3.44763 -3.57004 0
M  V30 2858 H 258.248 3.54725 -4.97976 0
M  V30 2859 H 262.422 3.59212 -5.96607 0
M  V30 2860 H 260.049 3.63763 -6.67518 0
M  V30 2861 N 261.624 0.925811 1.2754 0
M  V30 2862 C 262.852 0.581509 1.9856 0
M  V30 2863 C 263.267 -0.840041 1.69082 0
M  V30 2864 O 262.624 -1.55805 0.950312 0
M  V30 2865 C 262.675 0.795589 3.52637 0
M  V30 2866 O 262.396 2.16121 3.81082 0
M  V30 2867 C 263.897 0.459744 4.4091 0
M  V30 2868 H 261.117 0.220538 0.633722 0
M  V30 2869 H 263.661 1.24232 1.6244 0
M  V30 2870 H 261.816 0.18161 3.86974 0
M  V30 2871 H 262.23 2.2098 4.75676 0
M  V30 2872 H 263.704 0.660244 5.48037 0
M  V30 2873 H 264.181 -0.604625 4.35018 0
M  V30 2874 H 264.787 1.05178 4.12089 0
M  V30 2875 N 263.102 -1.41638 0.69111 0
M  V30 2876 C 264.012 -2.34588 0.0233487 0
M  V30 2877 C 265.028 -1.55987 -0.770984 0
M  V30 2878 O 266.204 -1.88486 -0.709569 0
M  V30 2879 C 263.269 -3.34684 -0.904851 0
M  V30 2880 C 262.33 -4.29176 -0.103225 0
M  V30 2881 C 261.563 -5.2449 -0.987216 0
M  V30 2882 O 261.786 -5.2514 -2.22674 0
M  V30 2883 O 260.72 -6.00295 -0.439281 0
M  V30 2884 H 264.546 -2.93261 0.789416 0
M  V30 2885 H 262.131 -1.42417 0.45142 0
M  V30 2886 H 264.013 -3.96133 -1.43724 0
M  V30 2887 H 262.688 -2.78461 -1.65049 0
M  V30 2888 H 261.595 -3.71089 0.473655 0
M  V30 2889 H 262.928 -4.88484 0.60365 0
M  V30 2890 N 264.58 -0.43555 -1.51462 0
M  V30 2891 C 265.49 0.383001 -2.31453 0
M  V30 2892 C 266.506 1.02931 -1.4029 0
M  V30 2893 O 267.682 1.02507 -1.73362 0
M  V30 2894 C 264.747 1.47043 -3.13973 0
M  V30 2895 C 263.808 0.844433 -4.20913 0
M  V30 2896 C 263.041 1.88004 -4.9949 0
M  V30 2897 O 263.264 3.10199 -4.78678 0
M  V30 2898 O 262.198 1.47157 -5.83634 0
M  V30 2899 H 266.024 -0.269964 -3.02498 0
M  V30 2900 H 263.609 -0.19813 -1.4808 0
M  V30 2901 H 265.491 2.10113 -3.65281 0
M  V30 2902 H 264.166 2.10751 -2.45695 0
M  V30 2903 H 263.073 0.175729 -3.73687 0
M  V30 2904 H 264.406 0.250869 -4.9156 0
M  V30 2905 N 266.058 1.56714 -0.166846 0
M  V30 2906 C 266.968 2.21331 0.777791 0
M  V30 2907 C 267.984 1.20358 1.25658 0
M  V30 2908 O 269.16 1.53005 1.30964 0
M  V30 2909 C 266.225 2.83787 1.99163 0
M  V30 2910 C 265.286 3.99947 1.56016 0
M  V30 2911 C 264.519 4.59415 2.71613 0
M  V30 2912 O 264.742 4.17769 3.88362 0
M  V30 2913 O 263.676 5.49359 2.45945 0
M  V30 2914 H 267.502 3.02605 0.257636 0
M  V30 2915 H 265.087 1.49275 0.0611393 0
M  V30 2916 H 266.969 3.23405 2.70161 0
M  V30 2917 H 265.644 2.05513 2.50092 0
M  V30 2918 H 264.551 3.65007 0.819809 0
M  V30 2919 H 265.884 4.79801 1.09782 0
M  V30 2920 N 267.536 -0.106894 1.57237 0
M  V30 2921 C 268.785 -0.811163 1.8467 0
M  V30 2922 C 269.098 -1.80469 0.754342 0
M  V30 2923 O 270.304 -2.55601 0.915439 0
M  V30 2924 C 268.76 -1.49337 3.27454 0
M  V30 2925 C 268.368 -0.540217 4.44731 0
M  V30 2926 C 270.112 -2.18206 3.64124 0
M  V30 2927 C 268.019 -1.22634 5.78545 0
M  V30 2928 H 266.949 -0.306679 0.688813 0
M  V30 2929 H 269.6 -0.0639887 1.83388 0
M  V30 2930 H 267.982 -2.2876 3.23241 0
M  V30 2931 H 269.156 0.221659 4.60267 0
M  V30 2932 H 267.471 0.042146 4.16379 0
M  V30 2933 H 270.068 -2.70253 4.61376 0
M  V30 2934 H 270.411 -2.96562 2.92158 0
M  V30 2935 H 270.944 -1.45658 3.70174 0
M  V30 2936 H 267.683 -0.483832 6.53712 0
M  V30 2937 H 267.203 -1.95993 5.66874 0
M  V30 2938 H 268.882 -1.75615 6.2271 0
M  V30 2939 N 269.014 -1.53014 -0.377408 0
M  V30 2940 C 269.962 -1.7927 -1.48206 0
M  V30 2941 C 270.956 -0.661195 -1.55963 0
M  V30 2942 O 272.162 -0.843908 -1.58991 0
M  V30 2943 H 268.537 -0.567425 -0.493491 0
M  V30 2944 H 270.508 -2.71753 -1.2326 0
M  V30 2945 C 269.257 -1.98894 -2.85196 0
M  V30 2946 H 268.58 -2.85395 -2.79981 0
M  V30 2947 H 270.02 -2.21249 -3.61698 0
M  V30 2948 C 268.479 -0.764691 -3.28107 0
M  V30 2949 O 269.009 0.0523226 -4.01666 0
M  V30 2950 N 267.215 -0.591493 -2.84517 0
M  V30 2951 H 266.762 -1.25749 -2.24822 0
M  V30 2952 H 266.72 0.226253 -3.13585 0
M  V30 2953 N 270.492 0.636531 -1.44174 0
M  V30 2954 C 271.44 1.76995 -1.50915 0
M  V30 2955 C 272.434 1.65053 -0.381295 0
M  V30 2956 O 273.64 1.71197 -0.55601 0
M  V30 2957 H 270.015 0.584247 -0.473455 0
M  V30 2958 H 271.986 1.68432 -2.4632 0
M  V30 2959 C 270.735 3.15314 -1.46534 0
M  V30 2960 H 270.058 3.25149 -2.32633 0
M  V30 2961 H 271.498 3.9453 -1.55312 0
M  V30 2962 C 269.957 3.3639 -0.185305 0
M  V30 2963 O 270.487 3.94699 0.746688 0
M  V30 2964 N 268.693 2.9046 -0.0901606 0
M  V30 2965 H 268.24 2.43193 -0.849416 0
M  V30 2966 H 268.198 3.04937 0.765553 0
M  V30 2967 N 271.97 1.30982 0.876444 0
M  V30 2968 C 272.903 1.12414 1.98591 0
M  V30 2969 C 273.881 0.0294078 1.62573 0
M  V30 2970 O 275.065 0.184598 1.87594 0
M  V30 2971 C 272.192 0.716276 3.3104 0
M  V30 2972 C 271.238 1.81311 3.86042 0
M  V30 2973 S 272.071 3.41727 4.1229 0
M  V30 2974 C 273.227 3.02863 5.47745 0
M  V30 2975 H 273.46 2.06338 2.14037 0
M  V30 2976 H 270.993 1.15393 1.02586 0
M  V30 2977 H 272.951 0.487697 4.07593 0
M  V30 2978 H 271.612 -0.203749 3.13438 0
M  V30 2979 H 270.805 1.48021 4.81774 0
M  V30 2980 H 270.407 1.99641 3.16259 0
M  V30 2981 H 272.699 2.51353 6.29148 0
M  V30 2982 H 273.642 3.97533 5.8598 0
M  V30 2983 H 274.05 2.40487 5.10711 0
M  V30 2984 N 273.449 -1.08991 1.13837 0
M  V30 2985 C 274.396 -2.15748 0.819835 0
M  V30 2986 C 275.366 -1.64636 -0.220026 0
M  V30 2987 O 276.551 -1.90582 -0.0912757 0
M  V30 2988 C 273.691 -3.4382 0.296913 0
M  V30 2989 C 272.804 -4.0881 1.39636 0
M  V30 2990 C 271.939 -5.24655 0.831314 0
M  V30 2991 C 270.978 -5.81575 1.90886 0
M  V30 2992 N 270.115 -6.88774 1.36142 0
M  V30 2993 H 274.955 -2.42338 1.73426 0
M  V30 2994 H 272.492 -1.18935 0.865613 0
M  V30 2995 H 274.45 -4.17193 -0.0244339 0
M  V30 2996 H 273.08 -3.17535 -0.580628 0
M  V30 2997 H 272.132 -3.33258 1.83422 0
M  V30 2998 H 273.444 -4.47141 2.21058 0
M  V30 2999 H 272.598 -6.04942 0.461515 0
M  V30 3000 H 271.337 -4.87698 -0.013932 0
M  V30 3001 H 270.342 -4.99946 2.28767 0
M  V30 3002 H 271.567 -6.20592 2.75758 0
M  V30 3003 H 269.513 -6.53788 0.538254 0
M  V30 3004 H 269.43 -7.25898 2.11208 0
M  V30 3005 H 270.698 -7.72806 1.01933 0
M  V30 3006 N 274.927 -0.932562 -1.27047 0
M  V30 3007 C 276.155 -0.592031 -1.98249 0
M  V30 3008 C 276.57 0.831062 -1.69525 0
M  V30 3009 O 275.927 1.55299 -0.958561 0
M  V30 3010 C 275.978 -0.814279 -3.5221 0
M  V30 3011 O 275.699 -2.18139 -3.7993 0
M  V30 3012 C 277.2 -0.483121 -4.4066 0
M  V30 3013 H 274.42 -0.223896 -0.632544 0
M  V30 3014 H 276.964 -1.25091 -1.61779 0
M  V30 3015 H 275.119 -0.20213 -3.86872 0
M  V30 3016 H 275.533 -2.235 -4.74498 0
M  V30 3017 H 277.007 -0.689298 -5.47679 0
M  V30 3018 H 277.484 0.581546 -4.35333 0
M  V30 3019 H 278.09 -1.07362 -4.11526 0
M  V30 3020 N 276.405 1.4127 -0.698611 0
M  V30 3021 C 277.315 2.34573 -0.0357891 0
M  V30 3022 C 278.331 1.56393 0.762701 0
M  V30 3023 O 279.507 1.8886 0.699564 0
M  V30 3024 C 276.572 3.35159 0.887089 0
M  V30 3025 C 275.633 4.29225 0.0804634 0
M  V30 3026 C 274.866 5.25006 0.959387 0
M  V30 3027 O 275.089 5.26314 2.19886 0
M  V30 3028 O 274.023 6.00519 0.407439 0
M  V30 3029 H 277.849 2.92838 -0.804957 0
M  V30 3030 H 275.434 1.42175 -0.458966 0
M  V30 3031 H 277.316 3.9689 1.41621 0
M  V30 3032 H 275.991 2.79333 1.6357 0
M  V30 3033 H 274.898 3.70833 -0.493328 0
M  V30 3034 H 276.231 4.88157 -0.629547 0
M  V30 3035 N 277.883 0.443576 1.51229 0
M  V30 3036 C 278.813 -0.355142 2.30783 0
M  V30 3037 C 279.794 -1.0154 1.36468 0
M  V30 3038 O 280.979 -1.01785 1.65389 0
M  V30 3039 C 278.109 -1.45312 3.15439 0
M  V30 3040 C 277.063 -0.916002 4.18083 0
M  V30 3041 C 276.389 -2.1102 4.91299 0
M  V30 3042 C 277.689 0.0538602 5.22272 0
M  V30 3043 H 279.383 0.308767 2.97804 0
M  V30 3044 H 276.929 0.149937 1.43217 0
M  V30 3045 H 278.882 -2.01914 3.69876 0
M  V30 3046 H 277.606 -2.14541 2.46252 0
M  V30 3047 H 276.265 -0.372145 3.64706 0
M  V30 3048 H 275.913 -2.78882 4.18609 0
M  V30 3049 H 275.613 -1.75717 5.60712 0
M  V30 3050 H 277.137 -2.68164 5.48562 0
M  V30 3051 H 278.551 -0.422069 5.71744 0
M  V30 3052 H 276.948 0.319776 5.99247 0
M  V30 3053 H 278.018 0.98858 4.74716 0
M  V30 3054 N 279.361 -1.56624 0.175154 0
M  V30 3055 C 280.271 -2.21741 -0.766042 0
M  V30 3056 C 281.287 -1.21023 -1.25018 0
M  V30 3057 O 282.463 -1.53697 -1.3015 0
M  V30 3058 C 279.528 -2.84839 -1.97655 0
M  V30 3059 C 278.589 -4.00769 -1.53892 0
M  V30 3060 C 277.822 -4.60849 -2.69173 0
M  V30 3061 O 278.045 -4.19823 -3.86141 0
M  V30 3062 O 276.979 -5.50655 -2.43028 0
M  V30 3063 H 280.805 -3.02738 -0.241585 0
M  V30 3064 H 278.39 -1.49305 -0.053222 0
M  V30 3065 H 280.272 -3.24834 -2.68442 0
M  V30 3066 H 278.947 -2.06836 -2.48999 0
M  V30 3067 H 277.854 -3.65436 -0.80044 0
M  V30 3068 H 279.187 -4.80376 -1.07236 0
M  V30 3069 N 280.839 0.0985539 -1.57292 0
M  V30 3070 C 281.786 1.11981 -2.01814 0
M  V30 3071 C 282.756 1.39999 -0.89384 0
M  V30 3072 O 283.941 1.5152 -1.15958 0
M  V30 3073 C 281.081 2.43577 -2.44467 0
M  V30 3074 C 280.194 2.2232 -3.70402 0
M  V30 3075 C 279.329 3.4729 -4.01949 0
M  V30 3076 C 278.368 3.2128 -5.21005 0
M  V30 3077 N 277.505 4.38507 -5.48321 0
M  V30 3078 H 282.345 0.733149 -2.88841 0
M  V30 3079 H 279.882 0.350482 -1.42864 0
M  V30 3080 H 281.84 3.20373 -2.6724 0
M  V30 3081 H 280.47 2.80097 -1.60455 0
M  V30 3082 H 279.522 1.36343 -3.55126 0
M  V30 3083 H 280.834 1.99089 -4.57345 0
M  V30 3084 H 279.988 4.32495 -4.25479 0
M  V30 3085 H 278.727 3.73572 -3.13521 0
M  V30 3086 H 277.732 2.34468 -4.97298 0
M  V30 3087 H 278.957 2.96348 -6.11028 0
M  V30 3088 H 276.903 4.64871 -4.62851 0
M  V30 3089 H 276.82 4.18455 -6.29628 0
M  V30 3090 H 278.088 5.24787 -5.76385 0
M  V30 3091 N 282.317 1.53212 0.369288 0
M  V30 3092 C 283.547 1.72868 1.13139 0
M  V30 3093 C 283.955 0.455754 1.83629 0
M  V30 3094 O 283.298 -0.580861 1.74275 0
M  V30 3095 C 283.36 2.83667 2.20847 0
M  V30 3096 C 283.024 4.24142 1.70155 0
M  V30 3097 C 284.021 5.06619 1.16763 0
M  V30 3098 C 281.706 4.70539 1.7578 0
M  V30 3099 C 283.7 6.33581 0.696678 0
M  V30 3100 C 281.387 5.97481 1.28297 0
M  V30 3101 C 282.385 6.78833 0.753307 0
M  V30 3102 O 282.073 8.03393 0.285475 0
M  V30 3103 H 281.805 0.581707 0.344373 0
M  V30 3104 H 284.359 2.00736 0.435243 0
M  V30 3105 H 282.589 2.51265 2.93944 0
M  V30 3106 H 284.278 2.91536 2.82421 0
M  V30 3107 H 285.044 4.71948 1.11758 0
M  V30 3108 H 280.923 4.07293 2.15949 0
M  V30 3109 H 284.467 6.97027 0.282581 0
M  V30 3110 H 280.364 6.31651 1.32994 0
M  V30 3111 H 281.132 8.17497 0.405145 0
M  V30 3112 N 283.795 -0.628877 1.44509 0
M  V30 3113 C 285.043 -1.38565 1.4712 0
M  V30 3114 C 285.364 -1.94712 0.105899 0
M  V30 3115 O 284.634 -1.75912 -0.862079 0
M  V30 3116 H 283.214 -0.514333 0.541729 0
M  V30 3117 H 285.876 -0.740018 1.80305 0
M  V30 3118 H 284.972 -2.21583 2.19789 0
M  V30 3119 N 285.273 -1.31445 -0.869486 0
M  V30 3120 C 286.522 -1.20517 -1.61736 0
M  V30 3121 C 286.835 0.235341 -1.94179 0
M  V30 3122 O 288.041 0.466312 -2.67465 0
M  V30 3123 C 286.497 -2.10982 -2.91573 0
M  V30 3124 C 286.105 -3.60032 -2.66611 0
M  V30 3125 C 287.849 -2.08856 -3.69567 0
M  V30 3126 C 285.756 -4.42503 -3.92358 0
M  V30 3127 H 284.686 -0.447493 -0.606849 0
M  V30 3128 H 287.337 -1.56303 -0.96133 0
M  V30 3129 H 285.719 -1.68095 -3.58553 0
M  V30 3130 H 286.893 -4.11167 -2.08035 0
M  V30 3131 H 285.208 -3.64139 -2.0197 0
M  V30 3132 H 287.805 -2.67716 -4.62852 0
M  V30 3133 H 288.148 -1.07582 -4.02159 0
M  V30 3134 H 288.681 -2.49945 -3.09471 0
M  V30 3135 H 285.42 -5.44533 -3.64916 0
M  V30 3136 H 284.94 -3.96125 -4.50383 0
M  V30 3137 H 286.619 -4.54741 -4.60238 0
M  V30 3138 N 286.751 1.08385 -1.14413 0
M  V30 3139 C 287.683 2.1519 -0.789036 0
M  V30 3140 C 288.696 1.61638 0.19417 0
M  V30 3141 O 289.885 1.78479 -0.0275711 0
M  V30 3142 C 286.985 3.38565 -0.15058 0
M  V30 3143 C 286.158 4.21501 -1.16857 0
M  V30 3144 C 285.217 5.23277 -0.553832 0
M  V30 3145 O 284.243 5.56041 -1.21686 0
M  V30 3146 N 285.445 5.76629 0.669296 0
M  V30 3147 H 288.21 2.46257 -1.70814 0
M  V30 3148 H 285.771 1.24198 -1.03858 0
M  V30 3149 H 287.763 4.03777 0.273181 0
M  V30 3150 H 286.333 3.05299 0.671667 0
M  V30 3151 H 285.553 3.52265 -1.76926 0
M  V30 3152 H 286.841 4.73731 -1.85624 0
M  V30 3153 H 286.239 5.52243 1.22654 0
M  V30 3154 H 284.796 6.43521 1.03556 0
M  V30 3155 N 288.23 0.939286 1.26551 0
M  V30 3156 C 289.163 0.391702 2.24813 0
M  V30 3157 C 290.141 -0.518421 1.54114 0
M  V30 3158 O 291.325 -0.456299 1.82894 0
M  V30 3159 C 288.452 -0.437382 3.35864 0
M  V30 3160 C 287.498 0.410946 4.24516 0
M  V30 3161 S 288.331 1.83372 5.03125 0
M  V30 3162 C 289.487 1.01264 6.17654 0
M  V30 3163 H 289.72 1.22448 2.70913 0
M  V30 3164 H 287.253 0.742269 1.35387 0
M  V30 3165 H 289.211 -0.909837 4.0029 0
M  V30 3166 H 287.872 -1.24482 2.8838 0
M  V30 3167 H 287.065 -0.224191 5.03501 0
M  V30 3168 H 286.667 0.818014 3.64945 0
M  V30 3169 H 288.959 0.254023 6.77024 0
M  V30 3170 H 289.902 1.77589 6.85469 0
M  V30 3171 H 290.31 0.549532 5.61819 0
M  V30 3172 N 289.708 -1.40897 0.706093 0
M  V30 3173 C 291.119 -1.84023 0.315052 0
M  V30 3174 C 291.47 -1.5906 -1.14866 0
M  V30 3175 O 290.595 -1.06651 -1.88293 0
M  V30 3176 C 291.19 -3.34055 0.565038 0
M  V30 3177 C 289.749 -3.7571 0.227806 0
M  V30 3178 C 288.896 -2.64204 0.842122 0
M  V30 3179 H 291.847 -1.303 0.905963 0
M  V30 3180 H 291.868 -3.80107 -0.172843 0
M  V30 3181 H 291.38 -3.52192 1.63042 0
M  V30 3182 H 289.481 -3.63172 -0.832895 0
M  V30 3183 H 289.594 -4.74103 0.690174 0
M  V30 3184 H 287.958 -2.53255 0.270893 0
M  V30 3185 H 288.741 -2.85155 1.91158 0
M  V30 3186 N 291.186 -0.45159 -1.50991 0
M  V30 3187 C 292.149 0.341117 -2.26647 0
M  V30 3188 C 293.149 0.937422 -1.30649 0
M  V30 3189 O 294.339 0.809644 -1.54241 0
M  V30 3190 C 291.471 1.48398 -3.06905 0
M  V30 3191 H 292.664 -0.322117 -2.98165 0
M  V30 3192 H 290.217 -0.205122 -1.54948 0
M  V30 3193 H 290.952 2.18284 -2.39838 0
M  V30 3194 H 290.737 1.06241 -3.77432 0
M  V30 3195 H 292.227 2.04367 -3.64176 0
M  V30 3196 N 292.664 1.56529 -0.183458 0
M  V30 3197 C 293.911 1.97244 0.458357 0
M  V30 3198 C 294.239 1.06992 1.62428 0
M  V30 3199 O 293.494 0.106542 1.9541 0
M  V30 3200 C 293.793 3.43939 0.971637 0
M  V30 3201 C 293.459 4.5083 -0.0796784 0
M  V30 3202 C 292.121 4.79786 -0.368584 0
M  V30 3203 C 294.473 5.15138 -0.792638 0
M  V30 3204 C 291.801 5.70345 -1.37563 0
M  V30 3205 C 294.153 6.06784 -1.78875 0
M  V30 3206 C 292.817 6.34102 -2.08497 0
M  V30 3207 H 292.087 0.721768 0.167725 0
M  V30 3208 H 294.734 1.89472 -0.277976 0
M  V30 3209 H 293.039 3.48724 1.78602 0
M  V30 3210 H 294.736 3.72791 1.47744 0
M  V30 3211 H 291.326 4.28317 0.155668 0
M  V30 3212 H 295.51 4.92868 -0.582659 0
M  V30 3213 H 290.766 5.89789 -1.61118 0
M  V30 3214 H 294.94 6.55677 -2.3465 0
M  V30 3215 H 292.567 7.04074 -2.86678 0
M  V30 3216 N 294.142 -0.090211 1.57342 0
M  V30 3217 C 295.367 -0.810082 1.90925 0
M  V30 3218 C 295.792 -1.71248 0.778187 0
M  V30 3219 O 295.15 -1.79278 -0.269991 0
M  V30 3220 C 295.198 -1.59529 3.23393 0
M  V30 3221 O 294.302 -2.70461 3.11327 0
M  V30 3222 H 293.643 -0.222231 0.625707 0
M  V30 3223 H 296.173 -0.0639716 2.045 0
M  V30 3224 H 296.183 -1.97847 3.5682 0
M  V30 3225 H 294.858 -0.933055 4.05299 0
M  V30 3226 H 293.435 -2.35135 2.89423 0
M  V30 3227 N 295.62 -1.53406 -0.361157 0
M  V30 3228 C 296.567 -1.80156 -1.44265 0
M  V30 3229 C 297.537 -0.646183 -1.53015 0
M  V30 3230 O 298.722 -0.888818 -1.68833 0
M  V30 3231 C 295.862 -2.00116 -2.81154 0
M  V30 3232 C 294.975 -3.27833 -2.81335 0
M  V30 3233 C 294.11 -3.37957 -4.09828 0
M  V30 3234 C 293.149 -4.59689 -4.04168 0
M  V30 3235 N 292.286 -4.66942 -5.24318 0
M  V30 3236 H 297.126 -2.72438 -1.20754 0
M  V30 3237 H 294.663 -1.34954 -0.585296 0
M  V30 3238 H 296.621 -2.09677 -3.60682 0
M  V30 3239 H 295.251 -1.11167 -3.03054 0
M  V30 3240 H 294.303 -3.27204 -1.94014 0
M  V30 3241 H 295.615 -4.17442 -2.73027 0
M  V30 3242 H 294.769 -3.46853 -4.97773 0
M  V30 3243 H 293.508 -2.46372 -4.20894 0
M  V30 3244 H 292.513 -4.50889 -3.14609 0
M  V30 3245 H 293.738 -5.5262 -3.947 0
M  V30 3246 H 291.684 -3.7826 -5.35962 0
M  V30 3247 H 291.601 -5.50462 -5.18197 0
M  V30 3248 H 292.869 -4.80127 -6.14084 0
M  V30 3249 N 297.098 0.621204 -1.44841 0
M  V30 3250 C 298.347 1.37658 -1.47422 0
M  V30 3251 C 298.66 1.95264 -0.114629 0
M  V30 3252 O 299.866 2.71494 -0.0180199 0
M  V30 3253 C 298.322 2.49285 -2.59586 0
M  V30 3254 C 297.93 1.98149 -4.01797 0
M  V30 3255 C 299.674 3.26409 -2.71399 0
M  V30 3256 C 297.581 3.07178 -5.05367 0
M  V30 3257 H 296.511 0.517344 -0.548517 0
M  V30 3258 H 299.162 0.667257 -1.70938 0
M  V30 3259 H 297.544 3.22839 -2.29328 0
M  V30 3260 H 298.718 1.31395 -4.41669 0
M  V30 3261 H 297.033 1.33812 -3.94314 0
M  V30 3262 H 299.63 4.07706 -3.45948 0
M  V30 3263 H 299.973 3.76535 -1.77559 0
M  V30 3264 H 300.506 2.5995 -3.01116 0
M  V30 3265 H 297.245 2.61985 -6.00869 0
M  V30 3266 H 296.765 3.72542 -4.70077 0
M  V30 3267 H 298.444 3.71789 -5.29511 0
M  V30 3268 N 298.576 1.31904 0.862503 0
M  V30 3269 C 299.824 1.21776 1.61292 0
M  V30 3270 C 300.145 -0.222413 1.93727 0
M  V30 3271 O 299.415 -1.1451 1.58947 0
M  V30 3272 H 297.995 0.447717 0.597962 0
M  V30 3273 H 300.657 1.65326 1.03215 0
M  V30 3274 H 299.753 1.7948 2.5533 0
M  V30 3275 N 300.054 -1.07777 1.14986 0
M  V30 3276 C 301.302 -1.79934 0.920235 0
M  V30 3277 C 301.623 -1.86955 -0.554336 0
M  V30 3278 O 300.893 -1.36731 -1.40291 0
M  V30 3279 H 299.473 -0.666424 0.337473 0
M  V30 3280 H 302.135 -1.3027 1.44968 0
M  V30 3281 H 301.231 -2.82539 1.32583 0
M  V30 3282 N 301.532 -0.945985 -1.26051 0
M  V30 3283 C 302.781 -0.591836 -1.92822 0
M  V30 3284 C 303.094 0.873956 -1.7499 0
M  V30 3285 O 304.3 1.33769 -2.36259 0
M  V30 3286 C 302.756 -1.00776 -3.45503 0
M  V30 3287 C 302.364 -2.4955 -3.7206 0
M  V30 3288 C 304.108 -0.725735 -4.1825 0
M  V30 3289 C 302.015 -2.84988 -5.18205 0
M  V30 3290 H 300.945 -0.217635 -0.721908 0
M  V30 3291 H 303.596 -1.14927 -1.43052 0
M  V30 3292 H 301.978 -0.378812 -3.94184 0
M  V30 3293 H 303.152 -3.1739 -3.34066 0
M  V30 3294 H 301.467 -2.75133 -3.12555 0
M  V30 3295 H 304.064 -0.966771 -5.25887 0
M  V30 3296 H 304.407 0.337639 -4.14929 0
M  V30 3297 H 304.94 -1.31463 -3.7545 0
M  V30 3298 H 301.679 -3.90307 -5.26631 0
M  V30 3299 H 301.199 -2.21813 -5.57278 0
M  V30 3300 H 302.878 -2.73712 -5.86252 0
M  V30 3301 N 303.011 1.40521 -0.713556 0
M  V30 3302 C 303.941 2.33381 -0.0743864 0
M  V30 3303 C 304.922 1.52784 0.747735 0
M  V30 3304 O 306.107 1.81258 0.697071 0
M  V30 3305 C 303.237 3.36748 0.849598 0
M  V30 3306 C 302.191 4.27793 0.133247 0
M  V30 3307 C 301.517 5.21679 1.17281 0
M  V30 3308 C 302.817 5.12415 -1.01134 0
M  V30 3309 H 304.511 2.87081 -0.850007 0
M  V30 3310 H 302.057 1.38034 -0.410201 0
M  V30 3311 H 304.01 4.00648 1.30612 0
M  V30 3312 H 302.734 2.81439 1.65709 0
M  V30 3313 H 301.393 3.65342 -0.303426 0
M  V30 3314 H 301.041 4.62677 1.9733 0
M  V30 3315 H 300.741 5.83435 0.698397 0
M  V30 3316 H 302.265 5.88456 1.62947 0
M  V30 3317 H 303.679 5.69781 -0.634274 0
M  V30 3318 H 302.076 5.83203 -1.41399 0
M  V30 3319 H 303.146 4.48514 -1.84292 0
M  V30 3320 N 304.489 0.459591 1.5075 0
M  V30 3321 C 305.452 -0.329093 2.26825 0
M  V30 3322 C 306.452 -0.930481 1.31144 0
M  V30 3323 O 307.642 -0.801453 1.54669 0
M  V30 3324 C 304.774 -1.46768 3.07688 0
M  V30 3325 H 305.967 0.337924 2.9799 0
M  V30 3326 H 303.52 0.213336 1.54837 0
M  V30 3327 H 304.255 -2.17009 2.40993 0
M  V30 3328 H 304.04 -1.04238 3.77991 0
M  V30 3329 H 305.53 -2.02433 3.65254 0
M  V30 3330 N 305.967 -1.56429 0.191757 0
M  V30 3331 C 306.915 -2.20273 -0.747174 0
M  V30 3332 C 307.909 -1.17288 -1.22229 0
M  V30 3333 O 309.115 -1.35441 -1.18557 0
M  V30 3334 H 305.49 -0.705885 -0.259289 0
M  V30 3335 H 307.461 -2.97826 -0.184963 0
M  V30 3336 C 306.21 -2.87356 -1.95759 0
M  V30 3337 H 305.533 -3.66341 -1.60106 0
M  V30 3338 H 306.973 -3.3547 -2.59299 0
M  V30 3339 C 305.432 -1.88213 -2.79423 0
M  V30 3340 O 305.962 -1.38033 -3.7724 0
M  V30 3341 N 304.168 -1.56516 -2.44849 0
M  V30 3342 H 303.715 -1.97516 -1.65364 0
M  V30 3343 H 303.673 -0.904369 -3.01112 0
M  V30 3344 N 307.445 0.0818655 -1.57387 0
M  V30 3345 C 308.355 1.11642 -2.06333 0
M  V30 3346 C 309.371 1.43033 -0.99083 0
M  V30 3347 O 310.547 1.53411 -1.30488 0
M  V30 3348 C 307.612 2.41342 -2.48907 0
M  V30 3349 C 306.673 2.17014 -3.7041 0
M  V30 3350 C 305.906 3.4053 -4.10944 0
M  V30 3351 O 306.129 4.4927 -3.51444 0
M  V30 3352 O 305.063 3.29336 -5.03807 0
M  V30 3353 H 308.889 0.730657 -2.9478 0
M  V30 3354 H 306.474 0.295301 -1.46452 0
M  V30 3355 H 308.356 3.17691 -2.76858 0
M  V30 3356 H 307.031 2.79319 -1.63593 0
M  V30 3357 H 305.938 1.38403 -3.47556 0
M  V30 3358 H 307.271 1.83923 -4.56545 0
M  V30 3359 N 308.923 1.53595 0.353017 0
M  V30 3360 C 309.853 1.83902 1.43883 0
M  V30 3361 C 310.834 0.693421 1.55324 0
M  V30 3362 O 312.019 0.944452 1.69687 0
M  V30 3363 C 309.149 2.04016 2.8106 0
M  V30 3364 C 308.103 3.19814 2.84434 0
M  V30 3365 C 307.429 3.25244 4.24406 0
M  V30 3366 C 308.729 4.58133 2.50822 0
M  V30 3367 H 310.423 2.74835 1.1877 0
M  V30 3368 H 307.969 1.32242 0.569917 0
M  V30 3369 H 309.922 2.238 3.57059 0
M  V30 3370 H 308.646 1.09804 3.07588 0
M  V30 3371 H 307.305 2.9987 2.10887 0
M  V30 3372 H 306.953 2.28646 4.48029 0
M  V30 3373 H 306.653 4.03054 4.27576 0
M  V30 3374 H 308.177 3.47228 5.0226 0
M  V30 3375 H 309.591 4.77995 3.16534 0
M  V30 3376 H 307.988 5.38276 2.6529 0
M  V30 3377 H 309.058 4.62387 1.46034 0
M  V30 3378 N 310.401 -0.613514 1.45168 0
M  V30 3379 C 311.626 -1.40437 1.52618 0
M  V30 3380 C 312.051 -1.87438 0.157707 0
M  V30 3381 O 311.409 -1.59791 -0.856537 0
M  V30 3382 C 311.457 -2.58894 2.51011 0
M  V30 3383 O 310.561 -3.59326 2.02382 0
M  V30 3384 H 309.902 -0.419506 0.514695 0
M  V30 3385 H 312.432 -0.747215 1.90467 0
M  V30 3386 H 312.442 -3.06214 2.69624 0
M  V30 3387 H 311.117 -2.24032 3.50403 0
M  V30 3388 H 309.694 -3.18695 1.93618 0
M  V30 3389 N 311.879 -1.3236 -0.855495 0
M  V30 3390 C 313.125 -1.23054 -1.612 0
M  V30 3391 C 313.458 0.207404 -1.93089 0
M  V30 3392 O 312.733 1.14432 -1.57275 0
M  V30 3393 C 313.016 -2.08937 -2.93287 0
M  V30 3394 C 312.869 -3.61105 -2.68185 0
M  V30 3395 C 314.188 -1.94986 -3.94549 0
M  V30 3396 H 311.307 -0.448364 -0.584926 0
M  V30 3397 H 313.949 -1.62297 -0.987917 0
M  V30 3398 H 312.099 -1.75599 -3.46551 0
M  V30 3399 H 313.771 -4.04652 -2.21483 0
M  V30 3400 H 312.014 -3.83813 -2.02164 0
M  V30 3401 H 312.685 -4.16522 -3.62234 0
M  V30 3402 H 315.161 -2.24189 -3.5054 0
M  V30 3403 H 314.037 -2.57356 -4.84829 0
M  V30 3404 H 314.298 -0.917263 -4.3248 0
M  V30 3405 N 313.357 1.07166 -1.15556 0
M  V30 3406 C 314.634 1.76546 -0.842069 0
M  V30 3407 C 315.014 2.00453 0.661939 0
M  V30 3408 O 314.362 1.62452 1.60691 0
M  V30 3409 C 314.572 3.07266 -1.65495 0
M  V30 3410 C 315.92 3.81578 -1.86234 0
M  V30 3411 O 316.944 3.17083 -1.62287 0
M  V30 3412 O 315.803 4.97419 -2.26355 0
M  V30 3413 H 312.897 0.766756 -0.309862 0
M  V30 3414 H 315.443 1.13514 -1.26145 0
M  V30 3415 H 314.215 2.85494 -2.67598 0
M  V30 3416 H 313.838 3.7803 -1.23203 0
M  V30 3417 N 314.835 0.952656 1.25548 0
M  V30 3418 C 315.745 0.47782 2.29682 0
M  V30 3419 C 316.761 -0.453859 1.67977 0
M  V30 3420 O 317.937 -0.330587 1.98668 0
M  V30 3421 C 315.002 -0.238655 3.45878 0
M  V30 3422 C 314.063 0.730994 4.23031 0
M  V30 3423 C 313.296 0.0486165 5.33678 0
M  V30 3424 O 313.519 -1.16612 5.58353 0
M  V30 3425 O 312.453 0.733152 5.97418 0
M  V30 3426 H 316.279 1.34312 2.72386 0
M  V30 3427 H 313.864 0.719026 1.30959 0
M  V30 3428 H 315.746 -0.641774 4.16484 0
M  V30 3429 H 314.421 -1.07916 3.05181 0
M  V30 3430 H 313.328 1.18428 3.5486 0
M  V30 3431 H 314.661 1.53946 4.67506 0
M  V30 3432 N 316.313 -1.40141 0.720998 0
M  V30 3433 C 317.276 -2.29058 0.0805834 0
M  V30 3434 C 318.276 -1.45632 -0.681758 0
M  V30 3435 O 319.466 -1.6648 -0.512856 0
M  V30 3436 C 316.598 -3.28925 -0.895593 0
M  V30 3437 H 317.791 -2.87191 0.863793 0
M  V30 3438 H 315.344 -1.48553 0.485975 0
M  V30 3439 H 316.079 -2.75822 -1.70566 0
M  V30 3440 H 315.864 -3.90519 -0.351766 0
M  V30 3441 H 317.354 -3.95494 -1.34069 0
M  V30 3442 N 317.792 -0.46758 -1.50504 0
M  V30 3443 C 318.755 0.317059 -2.26996 0
M  V30 3444 C 319.755 0.923513 -1.31635 0
M  V30 3445 O 320.945 0.793239 -1.55091 0
M  V30 3446 C 318.077 1.45134 -3.08462 0
M  V30 3447 H 319.27 -0.353723 -2.97807 0
M  V30 3448 H 316.823 -0.221545 -1.54722 0
M  V30 3449 H 317.558 2.15728 -2.4214 0
M  V30 3450 H 317.343 1.02232 -3.78538 0
M  V30 3451 H 318.833 2.00493 -3.66323 0
M  V30 3452 N 319.27 1.56325 -0.20005 0
M  V30 3453 C 320.2 2.22318 0.713916 0
M  V30 3454 C 321.181 1.18788 1.21752 0
M  V30 3455 O 322.366 1.47309 1.26545 0
M  V30 3456 C 319.496 2.88639 1.93144 0
M  V30 3457 C 318.45 3.98457 1.56255 0
M  V30 3458 C 317.776 4.51967 2.85709 0
M  V30 3459 C 319.076 5.16612 0.768747 0
M  V30 3460 H 320.77 2.98952 0.163755 0
M  V30 3461 H 318.316 1.43792 0.0773219 0
M  V30 3462 H 320.269 3.33491 2.57608 0
M  V30 3463 H 318.993 2.09419 2.50621 0
M  V30 3464 H 317.652 3.54305 0.941471 0
M  V30 3465 H 317.3 3.69503 3.41287 0
M  V30 3466 H 317 5.26071 2.6177 0
M  V30 3467 H 318.524 4.99523 3.51154 0
M  V30 3468 H 319.938 5.57977 1.3166 0
M  V30 3469 H 318.335 5.96812 0.627286 0
M  V30 3470 H 319.405 4.84358 -0.229168 0
M  V30 3471 N 320.748 -0.0735177 1.57428 0
M  V30 3472 C 321.698 -1.09442 2.00016 0
M  V30 3473 C 322.682 -1.34575 0.881947 0
M  V30 3474 O 323.874 -1.34905 1.14585 0
M  V30 3475 C 321.003 -2.40865 2.4462 0
M  V30 3476 C 320.089 -2.19014 3.63172 0
M  V30 3477 N 320.48 -1.67087 4.77405 0
M  V30 3478 C 318.778 -2.49494 3.69688 0
M  V30 3479 C 319.479 -1.6001 5.5926 0
M  V30 3480 N 318.455 -2.05999 5.03056 0
M  V30 3481 H 322.257 -0.686227 2.85776 0
M  V30 3482 H 319.771 -0.280617 1.59957 0
M  V30 3483 H 321.768 -3.14763 2.73368 0
M  V30 3484 H 320.428 -2.82403 1.60246 0
M  V30 3485 H 321.439 -1.35975 4.99731 0
M  V30 3486 H 318.116 -2.94409 2.96023 0
M  V30 3487 H 319.506 -1.2073 6.60964 0
M  V30 3488 N 322.226 -1.5378 -0.344866 0
M  V30 3489 C 323.189 -1.80981 -1.40637 0
M  V30 3490 C 324.189 -0.680816 -1.45676 0
M  V30 3491 O 325.379 -0.949095 -1.46075 0
M  V30 3492 C 322.511 -1.95063 -2.79577 0
M  V30 3493 H 323.704 -2.75803 -1.17783 0
M  V30 3494 H 321.257 -1.45173 -0.579181 0
M  V30 3495 H 321.992 -1.02379 -3.07716 0
M  V30 3496 H 321.777 -2.77198 -2.77315 0
M  V30 3497 H 323.267 -2.17629 -3.56409 0
M  V30 3498 N 323.704 0.605807 -1.45491 0
M  V30 3499 C 324.667 1.69836 -1.5391 0
M  V30 3500 C 325.667 1.55261 -0.418424 0
M  V30 3501 O 326.857 1.60296 -0.681965 0
M  V30 3502 C 323.989 3.09117 -1.43734 0
M  V30 3503 H 325.182 1.63738 -2.51257 0
M  V30 3504 H 322.735 0.821689 -1.32959 0
M  V30 3505 H 323.47 3.20791 -0.475788 0
M  V30 3506 H 323.255 3.21104 -2.25021 0
M  V30 3507 H 324.745 3.88696 -1.52661 0
M  V30 3508 N 325.182 1.32811 0.848464 0
M  V30 3509 C 326.428 1.23907 1.60546 0
M  V30 3510 C 326.761 -0.197161 1.93197 0
M  V30 3511 O 326.036 -1.13596 1.5788 0
M  V30 3512 C 326.319 2.10489 2.92175 0
M  V30 3513 C 326.172 3.62522 2.66266 0
M  V30 3514 C 327.491 1.97075 3.93509 0
M  V30 3515 H 324.61 0.451459 0.58254 0
M  V30 3516 H 327.252 1.62818 0.979296 0
M  V30 3517 H 325.402 1.77434 3.45614 0
M  V30 3518 H 327.074 4.05821 2.19334 0
M  V30 3519 H 325.317 3.84879 2.00126 0
M  V30 3520 H 325.988 4.18437 3.6002 0
M  V30 3521 H 328.464 2.26045 3.49346 0
M  V30 3522 H 327.34 2.59923 4.83457 0
M  V30 3523 H 327.601 0.940186 4.31987 0
M  V30 3524 N 326.66 -1.06551 1.16123 0
M  V30 3525 C 327.909 -1.78687 0.935622 0
M  V30 3526 C 328.222 -1.88056 -0.538001 0
M  V30 3527 O 329.428 -2.56794 -0.88143 0
M  V30 3528 C 327.884 -3.21143 1.62466 0
M  V30 3529 C 327.492 -3.19949 3.13587 0
M  V30 3530 C 329.236 -3.9783 1.48092 0
M  V30 3531 C 327.143 -4.57108 3.75241 0
M  V30 3532 H 326.073 -0.669712 0.346412 0
M  V30 3533 H 328.724 -1.19534 1.39226 0
M  V30 3534 H 327.106 -3.80539 1.09572 0
M  V30 3535 H 328.28 -2.70151 3.73303 0
M  V30 3536 H 326.595 -2.5676 3.27816 0
M  V30 3537 H 329.192 -4.99217 1.91538 0
M  V30 3538 H 329.535 -4.14078 0.429507 0
M  V30 3539 H 330.068 -3.4495 1.98127 0
M  V30 3540 H 326.807 -4.46065 4.80319 0
M  V30 3541 H 326.327 -5.07111 3.20309 0
M  V30 3542 H 328.006 -5.26069 3.76644 0
M  V30 3543 N 328.138 -0.959301 -1.25041 0
M  V30 3544 C 329.101 -0.487677 -2.23952 0
M  V30 3545 C 330.101 0.41119 -1.55454 0
M  V30 3546 O 331.291 0.207825 -1.72956 0
M  V30 3547 C 328.423 0.294807 -3.39623 0
M  V30 3548 H 329.616 -1.36198 -2.67189 0
M  V30 3549 H 327.169 -0.743042 -1.37508 0
M  V30 3550 H 327.904 1.18658 -3.01813 0
M  V30 3551 H 327.689 -0.35012 -3.90534 0
M  V30 3552 H 329.179 0.614089 -4.1306 0
M  V30 3553 N 329.616 1.39756 -0.72842 0
M  V30 3554 C 330.865 1.99879 -0.270407 0
M  V30 3555 C 331.178 1.58449 1.14688 0
M  V30 3556 O 332.384 2.11362 1.70407 0
M  V30 3557 C 330.84 3.57292 -0.43252 0
M  V30 3558 C 330.448 4.07688 -1.85727 0
M  V30 3559 C 332.192 4.24485 -0.0359507 0
M  V30 3560 C 330.099 5.5765 -1.96928 0
M  V30 3561 H 329.029 0.747689 -0.0973472 0
M  V30 3562 H 331.68 1.59837 -0.901355 0
M  V30 3563 H 330.062 3.95097 0.267219 0
M  V30 3564 H 331.236 3.81231 -2.58843 0
M  V30 3565 H 329.551 3.53135 -2.20646 0
M  V30 3566 H 332.148 5.34609 -0.0987484 0
M  V30 3567 H 332.491 4.03915 1.00787 0
M  V30 3568 H 333.024 3.9183 -0.686604 0
M  V30 3569 H 329.763 5.8309 -2.99476 0
M  V30 3570 H 329.283 5.8593 -1.28241 0
M  V30 3571 H 330.962 6.22957 -1.74737 0
M  V30 3572 N 331.094 0.475555 1.50254 0
M  V30 3573 C 332.042 -0.330276 2.30243 0
M  V30 3574 C 333.036 -0.986306 1.37726 0
M  V30 3575 O 334.242 -0.9169 1.54897 0
M  V30 3576 H 330.617 -0.125353 0.741479 0
M  V30 3577 H 332.588 0.364702 2.96163 0
M  V30 3578 C 331.337 -1.39704 3.18399 0
M  V30 3579 H 330.66 -0.901621 3.89501 0
M  V30 3580 H 332.1 -1.93336 3.77355 0
M  V30 3581 C 330.559 -2.4014 2.36293 0
M  V30 3582 O 331.089 -3.45504 2.04914 0
M  V30 3583 N 329.295 -2.1197 1.98789 0
M  V30 3584 H 328.842 -1.2631 2.24507 0
M  V30 3585 H 328.8 -2.79403 1.44157 0
M  V30 3586 N 332.573 -1.56217 0.208337 0
M  V30 3587 C 333.483 -2.23316 -0.718836 0
M  V30 3588 C 334.499 -1.23648 -1.22422 0
M  V30 3589 O 335.675 -1.56423 -1.26861 0
M  V30 3590 C 332.74 -2.88968 -1.91568 0
M  V30 3591 C 331.801 -4.03943 -1.45357 0
M  V30 3592 C 331.034 -4.66455 -2.59337 0
M  V30 3593 O 331.257 -4.27919 -3.77149 0
M  V30 3594 O 330.191 -5.55686 -2.31293 0
M  V30 3595 H 334.017 -3.03182 -0.177315 0
M  V30 3596 H 331.602 -1.49384 -0.0215402 0
M  V30 3597 H 333.484 -3.30455 -2.61491 0
M  V30 3598 H 332.159 -2.12071 -2.44556 0
M  V30 3599 H 331.066 -3.67052 -0.722746 0
M  V30 3600 H 332.399 -4.82543 -0.970219 0
M  V30 3601 N 334.051 0.0651679 -1.57465 0
M  V30 3602 C 335.014 1.06117 -2.03155 0
M  V30 3603 C 336.014 1.31204 -0.929632 0
M  V30 3604 O 337.204 1.26813 -1.19432 0
M  V30 3605 C 334.336 2.4032 -2.41783 0
M  V30 3606 H 335.529 0.667231 -2.92383 0
M  V30 3607 H 333.082 0.311075 -1.53173 0
M  V30 3608 H 333.817 2.84532 -1.55601 0
M  V30 3609 H 333.602 2.23451 -3.22199 0
M  V30 3610 H 335.092 3.11898 -2.77685 0
M  V30 3611 N 335.529 1.53961 0.336706 0
M  V30 3612 C 336.778 1.70751 1.07363 0
M  V30 3613 C 337.091 0.481061 1.89592 0
M  V30 3614 O 338.297 0.530046 2.66276 0
M  V30 3615 C 336.753 3.01965 1.95818 0
M  V30 3616 C 336.361 4.31971 1.18764 0
M  V30 3617 C 338.105 3.28121 2.69327 0
M  V30 3618 C 336.012 5.54255 2.06289 0
M  V30 3619 H 334.942 0.636292 0.404535 0
M  V30 3620 H 337.593 1.80459 0.332681 0
M  V30 3621 H 335.975 2.86132 2.7376 0
M  V30 3622 H 337.149 4.5853 0.456849 0
M  V30 3623 H 335.464 4.12481 0.569946 0
M  V30 3624 H 338.061 4.16673 3.35094 0
M  V30 3625 H 338.404 2.45426 3.36261 0
M  V30 3626 H 338.937 3.44762 1.98454 0
M  V30 3627 H 335.676 6.39513 1.43885 0
M  V30 3628 H 335.196 5.31935 2.77138 0
M  V30 3629 H 336.875 5.90159 2.65182 0
M  V30 3630 N 337.007 -0.598083 1.45811 0
M  V30 3631 C 338.284 -1.35777 1.40797 0
M  V30 3632 C 338.664 -2.10935 0.083462 0
M  V30 3633 O 338.012 -2.08505 -0.934763 0
M  V30 3634 C 338.222 -2.29666 2.62783 0
M  V30 3635 C 339.57 -2.91977 3.08277 0
M  V30 3636 O 340.594 -2.39984 2.63223 0
M  V30 3637 O 339.453 -3.86376 3.86491 0
M  V30 3638 H 336.547 -0.609291 0.55919 0
M  V30 3639 H 339.093 -0.620379 1.57954 0
M  V30 3640 H 337.865 -1.73454 3.50756 0
M  V30 3641 H 337.488 -3.1077 2.48008 0
M  V30 3642 N 338.485 -1.33259 -0.841409 0
M  V30 3643 C 339.901 -1.12538 -1.13169 0
M  V30 3644 C 340.101 0.0854037 -2.01319 0
M  V30 3645 O 339.157 0.766417 -2.40587 0
M  V30 3646 C 340.47 -2.41156 -1.79623 0
M  V30 3647 C 342.018 -2.47038 -1.922 0
M  V30 3648 C 342.493 -3.7561 -2.6207 0
M  V30 3649 N 343.984 -3.76667 -2.69585 0
M  V30 3650 C 344.719 -4.72861 -3.2433 0
M  V30 3651 N 344.215 -5.79428 -3.79783 0
M  V30 3652 N 346.008 -4.6034 -3.22558 0
M  V30 3653 H 338.159 -2.10868 -0.254676 0
M  V30 3654 H 340.422 -0.931615 -0.175493 0
M  V30 3655 H 340.128 -3.29747 -1.22311 0
M  V30 3656 H 340.002 -2.53114 -2.79666 0
M  V30 3657 H 342.389 -1.58898 -2.48667 0
M  V30 3658 H 342.47 -2.39022 -0.911148 0
M  V30 3659 H 342.114 -4.64131 -2.06263 0
M  V30 3660 H 342.044 -3.80902 -3.63622 0
M  V30 3661 H 344.535 -2.99648 -2.30259 0
M  V30 3662 H 344.848 -6.48867 -4.19752 0
M  V30 3663 H 343.193 -5.83166 -3.78078 0
M  V30 3664 H 346.384 -3.76244 -2.78492 0
M  V30 3665 H 346.557 -5.35478 -3.64921 0
M  V30 3666 N 339.963 1.05934 -1.16686 0
M  V30 3667 C 341.379 1.30938 -0.912542 0
M  V30 3668 C 341.579 1.96803 0.432533 0
M  V30 3669 O 340.635 2.23693 1.17123 0
M  V30 3670 C 341.948 2.18649 -2.06429 0
M  V30 3671 C 343.496 2.32055 -2.10047 0
M  V30 3672 C 343.971 3.23122 -3.24586 0
M  V30 3673 N 345.462 3.30706 -3.24327 0
M  V30 3674 C 346.197 4.01273 -4.09594 0
M  V30 3675 N 345.693 4.74332 -5.04956 0
M  V30 3676 N 347.486 3.97361 -3.97569 0
M  V30 3677 H 339.637 0.615777 -2.03278 0
M  V30 3678 H 341.9 0.334077 -0.887185 0
M  V30 3679 H 341.606 1.77534 -3.03603 0
M  V30 3680 H 341.48 3.19252 -2.00894 0
M  V30 3681 H 343.867 2.72415 -1.13464 0
M  V30 3682 H 343.948 1.31107 -2.19647 0
M  V30 3683 H 343.592 2.83477 -4.2143 0
M  V30 3684 H 343.522 4.24057 -3.12223 0
M  V30 3685 H 346.013 2.78644 -2.55276 0
M  V30 3686 H 346.326 5.25716 -5.6643 0
M  V30 3687 H 344.671 4.733 -5.08933 0
M  V30 3688 H 347.862 3.39405 -3.22369 0
M  V30 3689 H 348.035 4.52089 -4.64241 0
M  V30 3690 N 341.441 0.965919 1.2453 0
M  V30 3691 C 342.69 0.622437 1.91856 0
M  V30 3692 C 343.003 -0.846006 1.76358 0
M  V30 3693 O 344.209 -1.29993 2.38357 0
M  V30 3694 C 342.665 1.0626 3.43856 0
M  V30 3695 C 342.273 2.55437 3.68043 0
M  V30 3696 C 344.017 0.792183 4.17043 0
M  V30 3697 C 341.924 2.93196 5.13605 0
M  V30 3698 H 340.854 0.229092 0.718354 0
M  V30 3699 H 343.505 1.17189 1.41206 0
M  V30 3700 H 341.887 0.441476 3.93531 0
M  V30 3701 H 343.061 3.22665 3.28974 0
M  V30 3702 H 341.376 2.8007 3.08139 0
M  V30 3703 H 343.973 1.05031 5.24283 0
M  V30 3704 H 344.316 -0.271584 4.15413 0
M  V30 3705 H 344.849 1.37419 3.73311 0
M  V30 3706 H 341.588 3.98636 5.20355 0
M  V30 3707 H 341.108 2.30651 5.53679 0
M  V30 3708 H 342.787 2.83004 5.81823 0
M  V30 3709 N 342.919 -1.39368 0.735821 0
M  V30 3710 C 344.33 -1.83313 0.354015 0
M  V30 3711 C 344.681 -1.61461 -1.11466 0
M  V30 3712 O 343.806 -1.10621 -1.85989 0
M  V30 3713 C 344.401 -3.32781 0.635769 0
M  V30 3714 C 342.96 -3.75142 0.307448 0
M  V30 3715 C 342.107 -2.62358 0.897974 0
M  V30 3716 H 345.058 -1.28349 0.933398 0
M  V30 3717 H 345.079 -3.80388 -0.0921773 0
M  V30 3718 H 344.591 -3.48654 1.70476 0
M  V30 3719 H 342.692 -3.64857 -0.755674 0
M  V30 3720 H 342.805 -4.72532 0.790583 0
M  V30 3721 H 341.169 -2.52624 0.324551 0
M  V30 3722 H 341.952 -2.81036 1.97164 0
M  V30 3723 N 344.397 -0.483516 -1.5 0
M  V30 3724 C 345.36 0.292965 -2.2732 0
M  V30 3725 C 346.36 0.909499 -1.32608 0
M  V30 3726 O 347.55 0.776745 -1.55924 0
M  V30 3727 C 344.682 1.41854 -3.09984 0
M  V30 3728 H 345.875 -0.385289 -2.97415 0
M  V30 3729 H 343.428 -0.237942 -1.54478 0
M  V30 3730 H 344.163 2.13148 -2.44414 0
M  V30 3731 H 343.948 0.982114 -3.79601 0
M  V30 3732 H 345.438 1.96597 -3.68429 0
M  V30 3733 N 345.875 1.56104 -0.216619 0
M  V30 3734 C 347.152 1.89988 0.465165 0
M  V30 3735 C 347.532 1.13326 1.78102 0
M  V30 3736 O 346.88 0.241033 2.27225 0
M  V30 3737 C 347.09 3.42646 0.662939 0
M  V30 3738 C 348.438 4.13311 0.972602 0
M  V30 3739 O 349.462 3.48217 0.749901 0
M  V30 3740 O 348.321 5.28396 1.39499 0
M  V30 3741 H 345.415 0.78979 0.245276 0
M  V30 3742 H 347.961 1.67721 -0.258436 0
M  V30 3743 H 346.733 3.90399 -0.26543 0
M  V30 3744 H 346.356 3.70677 1.43821 0
M  V30 3745 N 347.353 -0.0568162 1.57498 0
M  V30 3746 C 348.581 -0.765626 1.92213 0
M  V30 3747 C 348.996 -1.70353 0.813961 0
M  V30 3748 O 348.353 -1.81268 -0.211701 0
M  V30 3749 C 348.404 -1.5465 3.2675 0
M  V30 3750 O 348.125 -0.646278 4.33307 0
M  V30 3751 C 349.626 -2.35497 3.75574 0
M  V30 3752 H 346.846 -0.216835 0.634999 0
M  V30 3753 H 349.39 -0.0226146 2.04487 0
M  V30 3754 H 347.545 -2.24165 3.15957 0
M  V30 3755 H 347.959 -1.19093 5.108 0
M  V30 3756 H 349.433 -2.85722 4.72299 0
M  V30 3757 H 349.91 -3.15692 3.05344 0
M  V30 3758 H 350.516 -1.7111 3.8936 0
M  V30 3759 N 348.832 -1.54138 -0.328536 0
M  V30 3760 C 350.079 -1.72105 -1.06706 0
M  V30 3761 C 350.407 -0.492111 -1.88171 0
M  V30 3762 O 349.662 0.526153 -1.88494 0
M  V30 3763 C 349.961 -2.9457 -2.02393 0
M  V30 3764 C 349.627 -4.29544 -1.37122 0
M  V30 3765 C 348.289 -4.6624 -1.19052 0
M  V30 3766 C 350.641 -5.1333 -0.902331 0
M  V30 3767 C 347.969 -5.84325 -0.527331 0
M  V30 3768 C 350.321 -6.32094 -0.252988 0
M  V30 3769 C 348.985 -6.67473 -0.0600901 0
M  V30 3770 H 348.255 -0.629775 -0.390466 0
M  V30 3771 H 350.902 -1.88372 -0.34473 0
M  V30 3772 H 349.207 -2.72969 -2.81061 0
M  V30 3773 H 350.904 -3.05665 -2.59557 0
M  V30 3774 H 347.494 -4.0067 -1.52188 0
M  V30 3775 H 351.678 -4.855 -1.02974 0
M  V30 3776 H 346.934 -6.103 -0.366634 0
M  V30 3777 H 351.108 -6.96299 0.118366 0
M  V30 3778 H 348.735 -7.58832 0.455828 0
M  V30 3779 N 350.31 0.590341 -1.46126 0
M  V30 3780 C 351.273 1.68194 -1.55703 0
M  V30 3781 C 352.273 1.54808 -0.434868 0
M  V30 3782 O 353.463 1.59564 -0.698928 0
M  V30 3783 C 350.595 3.07575 -1.47005 0
M  V30 3784 H 351.788 1.61064 -2.52979 0
M  V30 3785 H 349.341 0.807541 -1.33823 0
M  V30 3786 H 350.076 3.20268 -0.509785 0
M  V30 3787 H 349.861 3.187 -2.28414 0
M  V30 3788 H 351.351 3.87055 -1.56776 0
M  V30 3789 N 351.788 1.33704 0.83433 0
M  V30 3790 C 352.751 1.24244 1.92603 0
M  V30 3791 C 353.751 0.160383 1.59998 0
M  V30 3792 O 354.941 0.412228 1.69252 0
M  V30 3793 C 352.073 0.91555 3.28376 0
M  V30 3794 H 353.266 2.21287 2.02416 0
M  V30 3795 H 350.819 1.17827 1.02696 0
M  V30 3796 H 351.554 -0.0521886 3.24258 0
M  V30 3797 H 351.339 1.69811 3.53422 0
M  V30 3798 H 352.829 0.874231 4.08347 0
M  V30 3799 N 353.266 -1.05314 1.17247 0
M  V30 3800 C 354.196 -2.1498 0.911362 0
M  V30 3801 C 355.177 -1.69471 -0.146169 0
M  V30 3802 O 356.362 -1.942 0.003812 0
M  V30 3803 C 353.492 -3.4472 0.422528 0
M  V30 3804 C 352.446 -4.03789 1.4191 0
M  V30 3805 C 351.772 -5.28858 0.788274 0
M  V30 3806 C 353.072 -4.41418 2.7919 0
M  V30 3807 H 354.766 -2.3708 1.82848 0
M  V30 3808 H 352.312 -1.13938 0.880569 0
M  V30 3809 H 354.265 -4.20787 0.227289 0
M  V30 3810 H 352.989 -3.22269 -0.530123 0
M  V30 3811 H 351.648 -3.2979 1.60106 0
M  V30 3812 H 351.296 -5.02709 -0.171173 0
M  V30 3813 H 350.996 -5.69338 1.45353 0
M  V30 3814 H 352.52 -6.07612 0.603282 0
M  V30 3815 H 353.934 -5.08524 2.64719 0
M  V30 3816 H 352.331 -4.92913 3.42282 0
M  V30 3817 H 353.401 -3.51819 3.33693 0
M  V30 3818 N 354.744 -0.972509 -1.24016 0
M  V30 3819 C 355.691 -0.505969 -2.25186 0
M  V30 3820 C 356.661 0.451009 -1.5986 0
M  V30 3821 O 357.846 0.360307 -1.87367 0
M  V30 3822 C 354.986 0.193089 -3.44559 0
M  V30 3823 C 354.099 -0.803222 -4.24467 0
M  V30 3824 C 353.234 -0.0797793 -5.3114 0
M  V30 3825 C 352.273 -1.06583 -6.02749 0
M  V30 3826 N 351.41 -0.372074 -7.01113 0
M  V30 3827 H 356.25 -1.37351 -2.64459 0
M  V30 3828 H 353.787 -0.688419 -1.29997 0
M  V30 3829 H 355.745 0.615125 -4.1264 0
M  V30 3830 H 354.375 1.02455 -3.06109 0
M  V30 3831 H 353.427 -1.34368 -3.55878 0
M  V30 3832 H 354.739 -1.55494 -4.73944 0
M  V30 3833 H 353.893 0.400015 -6.0538 0
M  V30 3834 H 352.632 0.704597 -4.82583 0
M  V30 3835 H 351.637 -1.55645 -5.27309 0
M  V30 3836 H 352.862 -1.85074 -6.53395 0
M  V30 3837 H 350.808 0.393238 -6.5482 0
M  V30 3838 H 350.725 -1.06258 -7.48495 0
M  V30 3839 H 351.993 0.0855932 -7.79453 0
M  V30 3840 N 356.222 1.38976 -0.743202 0
M  V30 3841 C 357.17 2.32394 -0.0978389 0
M  V30 3842 C 358.164 1.53486 0.716824 0
M  V30 3843 O 359.37 1.69092 0.617088 0
M  V30 3844 H 355.745 0.75189 -0.0128402 0
M  V30 3845 H 357.716 2.84441 -0.901981 0
M  V30 3846 C 356.465 3.38629 0.789036 0
M  V30 3847 H 355.788 3.99432 0.171559 0
M  V30 3848 H 357.228 4.06426 1.20807 0
M  V30 3849 C 355.687 2.76347 1.92702 0
M  V30 3850 O 356.217 2.64836 3.02034 0
M  V30 3851 N 354.423 2.34311 1.71891 0
M  V30 3852 H 353.97 2.43873 0.829675 0
M  V30 3853 H 353.928 1.9298 2.48205 0
M  V30 3854 N 357.7 0.491464 1.49741 0
M  V30 3855 C 359.111 0.0413169 1.86654 0
M  V30 3856 C 359.462 -1.36985 1.40462 0
M  V30 3857 O 358.587 -2.01917 0.778354 0
M  V30 3858 C 359.182 0.0682023 3.38731 0
M  V30 3859 C 357.741 -0.32656 3.74981 0
M  V30 3860 C 356.888 0.444888 2.73708 0
M  V30 3861 H 359.839 0.704733 1.42194 0
M  V30 3862 H 359.86 -0.729322 3.73445 0
M  V30 3863 H 359.372 1.09539 3.72321 0
M  V30 3864 H 357.473 -1.35734 3.46997 0
M  V30 3865 H 357.586 -0.013741 4.79098 0
M  V30 3866 H 355.95 -0.104062 2.54487 0
M  V30 3867 H 356.733 1.47197 3.10142 0
M  V30 3868 N 359.178 -1.55987 0.224894 0
M  V30 3869 C 360.126 -2.21808 -0.700283 0
M  V30 3870 C 361.12 -1.19854 -1.19714 0
M  V30 3871 O 362.326 -1.37925 -1.15658 0
M  V30 3872 H 358.701 -0.711226 -0.244258 0
M  V30 3873 H 360.672 -2.98152 -0.121749 0
M  V30 3874 C 359.421 -2.91444 -1.8962 0
M  V30 3875 H 358.744 -3.69655 -1.52299 0
M  V30 3876 H 360.184 -3.40894 -2.52125 0
M  V30 3877 C 358.643 -1.94098 -2.75368 0
M  V30 3878 O 359.173 -1.46004 -3.74227 0
M  V30 3879 N 357.379 -1.61675 -2.41474 0
M  V30 3880 H 356.926 -2.00979 -1.61137 0
M  V30 3881 H 356.884 -0.968036 -2.99126 0
M  V30 3882 N 360.656 0.0484629 -1.57525 0
M  V30 3883 C 361.619 1.03956 -2.04269 0
M  V30 3884 C 362.619 1.30211 -0.943496 0
M  V30 3885 O 363.809 1.25539 -1.20771 0
M  V30 3886 C 360.941 2.37742 -2.44319 0
M  V30 3887 H 362.134 0.636182 -2.93075 0
M  V30 3888 H 359.687 0.294811 -1.53494 0
M  V30 3889 H 360.422 2.82866 -1.5861 0
M  V30 3890 H 360.207 2.20021 -3.24551 0
M  V30 3891 H 361.697 3.08936 -2.80978 0
M  V30 3892 N 362.134 1.5431 0.320358 0
M  V30 3893 C 363.067 1.78769 1.41834 0
M  V30 3894 C 364.045 0.63783 1.49568 0
M  V30 3895 O 365.229 0.875628 1.66928 0
M  V30 3896 C 362.356 1.90712 2.79905 0
M  V30 3897 C 361.402 3.13023 2.89687 0
M  V30 3898 S 362.235 4.71554 2.53766 0
M  V30 3899 C 363.391 4.86408 3.93902 0
M  V30 3900 H 363.624 2.71619 1.20874 0
M  V30 3901 H 361.157 1.45474 0.517377 0
M  V30 3902 H 363.115 1.98279 3.59438 0
M  V30 3903 H 361.776 0.988343 2.98145 0
M  V30 3904 H 360.969 3.18124 3.90913 0
M  V30 3905 H 360.571 3.03803 2.18128 0
M  V30 3906 H 362.863 4.69241 4.88691 0
M  V30 3907 H 363.806 5.88508 3.93782 0
M  V30 3908 H 364.214 4.14689 3.83005 0
M  V30 3909 N 363.613 -0.582584 1.46437 0
M  V30 3910 C 364.543 -1.70187 1.59871 0
M  V30 3911 C 365.524 -1.64066 0.449042 0
M  V30 3912 O 366.709 -1.82081 0.6753 0
M  V30 3913 C 363.839 -3.08827 1.58881 0
M  V30 3914 C 362.793 -3.29779 2.72819 0
M  V30 3915 C 362.119 -4.68947 2.5689 0
M  V30 3916 C 363.419 -3.17601 4.1464 0
M  V30 3917 H 365.113 -1.592 2.53566 0
M  V30 3918 H 362.659 -0.764472 1.22032 0
M  V30 3919 H 364.612 -3.86951 1.66873 0
M  V30 3920 H 363.336 -3.20713 0.617306 0
M  V30 3921 H 361.995 -2.54054 2.64296 0
M  V30 3922 H 361.643 -4.77599 1.57823 0
M  V30 3923 H 361.343 -4.83919 3.33312 0
M  V30 3924 H 362.867 -5.4924 2.66773 0
M  V30 3925 H 364.281 -3.8557 4.24274 0
M  V30 3926 H 362.678 -3.44094 4.9165 0
M  V30 3927 H 363.748 -2.14681 4.34788 0
M  V30 3928 N 365.091 -1.34144 -0.827227 0
M  V30 3929 C 366.337 -1.26446 -1.58554 0
M  V30 3930 C 366.67 0.1664 -1.93486 0
M  V30 3931 O 365.945 1.1107 -1.59667 0
M  V30 3932 C 366.228 -2.15111 -2.8879 0
M  V30 3933 C 366.081 -3.66712 -2.60465 0
M  V30 3934 C 367.4 -2.03311 -3.90324 0
M  V30 3935 H 364.519 -0.46067 -0.575284 0
M  V30 3936 H 367.161 -1.64356 -0.953269 0
M  V30 3937 H 365.311 -1.8291 -3.42748 0
M  V30 3938 H 366.983 -4.09259 -2.1285 0
M  V30 3939 H 365.226 -3.88014 -1.93978 0
M  V30 3940 H 365.897 -4.24112 -3.53317 0
M  V30 3941 H 368.373 -2.31574 -3.45706 0
M  V30 3942 H 367.249 -2.67582 -4.79261 0
M  V30 3943 H 367.51 -1.00879 -4.30437 0
M  V30 3944 N 366.569 1.04691 -1.17803 0
M  V30 3945 C 367.517 2.14665 -0.895635 0
M  V30 3946 C 368.511 1.68806 0.141679 0
M  V30 3947 O 369.717 1.79999 -0.00587914 0
M  V30 3948 H 366.092 0.701038 -0.272121 0
M  V30 3949 H 368.063 2.35685 -1.83017 0
M  V30 3950 C 366.812 3.45019 -0.430962 0
M  V30 3951 H 366.135 3.8071 -1.22064 0
M  V30 3952 H 367.575 4.23125 -0.272301 0
M  V30 3953 C 366.034 3.25943 0.852207 0
M  V30 3954 O 366.564 3.5296 1.91786 0
M  V30 3955 N 364.77 2.79304 0.802346 0
M  V30 3956 H 364.317 2.57518 -0.0650788 0
M  V30 3957 H 364.275 2.66921 1.66134 0
M  V30 3958 N 368.047 0.979072 1.23499 0
M  V30 3959 C 368.977 0.537606 2.27227 0
M  V30 3960 C 369.958 -0.428539 1.64613 0
M  V30 3961 O 371.143 -0.322191 1.91509 0
M  V30 3962 C 368.273 -0.162052 3.46922 0
M  V30 3963 C 367.227 0.721242 4.21879 0
M  V30 3964 C 366.553 -0.110555 5.34586 0
M  V30 3965 C 367.853 2.01141 4.82016 0
M  V30 3966 H 369.547 1.40462 2.64406 0
M  V30 3967 H 367.093 0.67684 1.27102 0
M  V30 3968 H 369.046 -0.482192 4.18632 0
M  V30 3969 H 367.77 -1.06351 3.08799 0
M  V30 3970 H 366.429 1.02482 3.51984 0
M  V30 3971 H 366.077 -1.0125 4.92704 0
M  V30 3972 H 365.777 0.477325 5.85658 0
M  V30 3973 H 367.301 -0.425107 6.09118 0
M  V30 3974 H 368.715 1.75612 5.45741 0
M  V30 3975 H 367.112 2.54695 5.43369 0
M  V30 3976 H 368.182 2.69909 4.02836 0
M  V30 3977 N 369.525 -1.3858 0.750561 0
M  V30 3978 C 370.435 -2.34278 0.122825 0
M  V30 3979 C 371.451 -1.59116 -0.704131 0
M  V30 3980 O 372.627 -1.91326 -0.628987 0
M  V30 3981 C 369.692 -3.38221 -0.762086 0
M  V30 3982 C 368.753 -4.29227 0.078896 0
M  V30 3983 C 367.986 -5.28205 -0.763874 0
M  V30 3984 O 368.209 -5.34112 -2.00201 0
M  V30 3985 O 367.143 -6.01618 -0.18428 0
M  V30 3986 H 370.969 -2.89649 0.913088 0
M  V30 3987 H 368.554 -1.40374 0.511417 0
M  V30 3988 H 370.436 -4.01872 -1.26793 0
M  V30 3989 H 369.111 -2.85211 -1.5309 0
M  V30 3990 H 368.018 -3.68747 0.630621 0
M  V30 3991 H 369.351 -4.85484 0.810289 0
M  V30 3992 N 371.003 -0.499398 -1.49478 0
M  V30 3993 C 371.913 0.284489 -2.32869 0
M  V30 3994 C 372.929 0.968885 -1.44529 0
M  V30 3995 O 374.105 0.95062 -1.77553 0
M  V30 3996 C 371.17 1.33594 -3.19928 0
M  V30 3997 C 370.231 0.665149 -4.24116 0
M  V30 3998 C 369.464 1.6665 -5.07014 0
M  V30 3999 O 369.687 2.89618 -4.91404 0
M  V30 4000 O 368.621 1.22271 -5.8935 0
M  V30 4001 H 372.447 -0.39802 -3.01081 0
M  V30 4002 H 370.032 -0.260758 -1.47107 0
M  V30 4003 H 371.914 1.94431 -3.73864 0
M  V30 4004 H 370.589 2.0014 -2.54412 0
M  V30 4005 H 369.496 0.0170769 -3.74096 0
M  V30 4006 H 370.829 0.0421555 -4.92182 0
M  V30 4007 N 372.481 1.55866 -0.233164 0
M  V30 4008 C 373.892 1.847 0.272554 0
M  V30 4009 C 374.243 1.15477 1.58617 0
M  V30 4010 O 373.368 0.42841 2.12117 0
M  V30 4011 C 373.963 3.35071 0.501299 0
M  V30 4012 C 372.522 3.6418 0.951304 0
M  V30 4013 C 371.669 2.77292 0.0208209 0
M  V30 4014 H 374.62 1.52005 -0.456074 0
M  V30 4015 H 374.641 3.55906 1.34577 0
M  V30 4016 H 374.153 3.85424 -0.454936 0
M  V30 4017 H 372.254 3.19293 1.92049 0
M  V30 4018 H 372.367 4.72071 0.817675 0
M  V30 4019 H 370.731 2.49131 0.529723 0
M  V30 4020 H 371.514 3.30448 -0.93054 0
M  V30 4021 N 373.959 -0.0401083 1.57549 0
M  V30 4022 C 374.889 -1.04384 2.08869 0
M  V30 4023 C 375.87 -1.38407 0.988817 0
M  V30 4024 O 377.055 -1.47483 1.26342 0
M  V30 4025 C 374.185 -2.34808 2.55895 0
M  V30 4026 C 373.139 -2.15057 3.70047 0
M  V30 4027 C 372.465 -3.51145 4.03239 0
M  V30 4028 C 373.765 -1.54576 4.98902 0
M  V30 4029 H 375.459 -0.616666 2.92981 0
M  V30 4030 H 373.005 -0.295184 1.40942 0
M  V30 4031 H 374.958 -3.05346 2.90417 0
M  V30 4032 H 373.682 -2.79565 1.68853 0
M  V30 4033 H 372.341 -1.46954 3.35857 0
M  V30 4034 H 371.989 -3.93529 3.13279 0
M  V30 4035 H 371.689 -3.38758 4.80122 0
M  V30 4036 H 373.213 -4.23062 4.40285 0
M  V30 4037 H 374.627 -2.15017 5.31451 0
M  V30 4038 H 373.024 -1.52796 5.80322 0
M  V30 4039 H 374.094 -0.51039 4.82206 0
M  V30 4040 N 375.437 -1.54477 -0.31217 0
M  V30 4041 C 376.4 -1.83923 -1.36766 0
M  V30 4042 C 377.4 -0.711563 -1.44199 0
M  V30 4043 O 378.59 -0.979866 -1.44029 0
M  V30 4044 C 375.722 -2.0095 -2.75376 0
M  V30 4045 H 376.915 -2.78239 -1.11906 0
M  V30 4046 H 374.468 -1.46369 -0.548257 0
M  V30 4047 H 375.203 -1.08883 -3.05475 0
M  V30 4048 H 374.988 -2.83018 -2.71373 0
M  V30 4049 H 376.478 -2.2514 -3.51713 0
M  V30 4050 N 376.915 0.57481 -1.46744 0
M  V30 4051 C 378.14 1.36341 -1.56288 0
M  V30 4052 C 378.565 1.86954 -0.207347 0
M  V30 4053 O 377.923 1.62006 0.813871 0
M  V30 4054 C 377.971 2.52147 -2.57787 0
M  V30 4055 O 377.075 3.53834 -2.11838 0
M  V30 4056 H 376.416 0.405713 -0.525636 0
M  V30 4057 H 378.946 0.696453 -1.92382 0
M  V30 4058 H 378.956 2.98958 -2.77648 0
M  V30 4059 H 377.631 2.14663 -3.5622 0
M  V30 4060 H 376.208 3.1345 -2.01999 0
M  V30 4061 N 378.394 1.34581 0.820102 0
M  V30 4062 C 379.622 1.3018 1.60813 0
M  V30 4063 C 380.037 -0.123551 1.88395 0
M  V30 4064 O 379.394 -1.07148 1.47735 0
M  V30 4065 C 379.445 2.09312 2.94739 0
M  V30 4066 O 379.166 3.46288 2.68358 0
M  V30 4067 C 380.667 2.1234 3.89136 0
M  V30 4068 H 377.887 0.447726 0.499782 0
M  V30 4069 H 380.431 1.77237 1.02017 0
M  V30 4070 H 378.586 1.65889 3.50085 0
M  V30 4071 H 379 3.87227 3.53774 0
M  V30 4072 H 380.474 2.72126 4.80262 0
M  V30 4073 H 380.951 1.11854 4.24718 0
M  V30 4074 H 381.557 2.55864 3.39726 0
M  V30 4075 N 379.872 -1.04064 1.18357 0
M  V30 4076 C 381.102 -1.80654 1.00238 0
M  V30 4077 C 381.51 -1.83713 -0.452362 0
M  V30 4078 O 380.853 -1.27135 -1.32599 0
M  V30 4079 C 380.915 -3.27582 1.48088 0
M  V30 4080 C 380.579 -3.48184 2.96002 0
M  V30 4081 C 381.576 -3.39372 3.93856 0
M  V30 4082 C 379.261 -3.7478 3.34433 0
M  V30 4083 C 381.255 -3.5686 5.28138 0
M  V30 4084 C 378.942 -3.91915 4.68877 0
M  V30 4085 C 379.94 -3.82956 5.65539 0
M  V30 4086 O 379.628 -3.996 6.97549 0
M  V30 4087 H 379.36 -0.575751 0.354241 0
M  V30 4088 H 381.914 -1.32044 1.57333 0
M  V30 4089 H 380.144 -3.77161 0.853588 0
M  V30 4090 H 381.833 -3.8573 1.2636 0
M  V30 4091 H 382.599 -3.18789 3.65511 0
M  V30 4092 H 378.478 -3.80852 2.59756 0
M  V30 4093 H 382.022 -3.49783 6.03571 0
M  V30 4094 H 377.919 -4.11992 4.96923 0
M  V30 4095 H 378.687 -4.1676 7.04452 0
M  V30 4096 N 381.35 -0.985608 -1.22978 0
M  V30 4097 C 382.282 -0.488154 -2.23941 0
M  V30 4098 C 383.295 0.41282 -1.57479 0
M  V30 4099 O 384.484 0.216121 -1.77187 0
M  V30 4100 C 381.584 0.312611 -3.37455 0
M  V30 4101 C 380.757 -0.582741 -4.33501 0
M  V30 4102 C 379.816 0.165064 -5.25941 0
M  V30 4103 O 378.842 -0.447077 -5.67442 0
M  V30 4104 N 380.044 1.44953 -5.62111 0
M  V30 4105 H 382.809 -1.3563 -2.67254 0
M  V30 4106 H 380.37 -0.859477 -1.37203 0
M  V30 4107 H 382.362 0.821357 -3.96277 0
M  V30 4108 H 380.932 1.0818 -2.93285 0
M  V30 4109 H 380.152 -1.27225 -3.73105 0
M  V30 4110 H 381.44 -1.19275 -4.94622 0
M  V30 4111 H 380.838 1.9683 -5.30353 0
M  V30 4112 H 379.395 1.90361 -6.23383 0
M  V30 4113 N 382.828 1.3818 -0.7579 0
M  V30 4114 C 384.105 1.94106 -0.241306 0
M  V30 4115 C 384.485 1.69282 1.26122 0
M  V30 4116 O 383.833 1.03378 2.03777 0
M  V30 4117 C 384.043 3.43809 -0.59967 0
M  V30 4118 C 385.391 4.20868 -0.561717 0
M  V30 4119 O 386.415 3.5211 -0.538222 0
M  V30 4120 O 385.274 5.43451 -0.576478 0
M  V30 4121 H 382.368 0.825376 -0.0518042 0
M  V30 4122 H 384.914 1.47548 -0.838315 0
M  V30 4123 H 383.686 3.55403 -1.6372 0
M  V30 4124 H 383.309 3.97592 0.0251197 0
M  V30 4125 N 384.306 0.507319 1.49211 0
M  V30 4126 C 385.555 -0.0368315 2.01666 0
M  V30 4127 C 385.868 -1.37459 1.39156 0
M  V30 4128 O 387.074 -2.00579 1.82976 0
M  V30 4129 C 385.53 -0.116089 3.59713 0
M  V30 4130 C 385.138 1.2154 4.31198 0
M  V30 4131 C 386.882 -0.610268 4.2009 0
M  V30 4132 C 384.789 1.09796 5.81119 0
M  V30 4133 H 383.719 -0.0175376 0.753796 0
M  V30 4134 H 386.37 0.647691 1.71689 0
M  V30 4135 H 384.752 -0.8652 3.86433 0
M  V30 4136 H 385.926 1.9783 4.16173 0
M  V30 4137 H 384.241 1.64352 3.82593 0
M  V30 4138 H 386.838 -0.715742 5.29888 0
M  V30 4139 H 387.181 -1.61064 3.8388 0
M  V30 4140 H 387.714 0.0824916 3.97714 0
M  V30 4141 H 384.453 2.0728 6.21864 0
M  V30 4142 H 383.973 0.376058 5.9862 0
M  V30 4143 H 385.652 0.779281 6.4229 0
M  V30 4144 N 385.784 -1.5574 0.241426 0
M  V30 4145 C 386.714 -2.24133 -0.654722 0
M  V30 4146 C 387.695 -1.21974 -1.1856 0
M  V30 4147 O 388.88 -1.50612 -1.22595 0
M  V30 4148 C 386.01 -2.93659 -1.85423 0
M  V30 4149 C 384.964 -4.0246 -1.45636 0
M  V30 4150 C 384.29 -4.59383 -2.73626 0
M  V30 4151 C 385.59 -5.18468 -0.631506 0
M  V30 4152 H 387.284 -2.99281 -0.0844353 0
M  V30 4153 H 384.83 -1.43947 -0.0391707 0
M  V30 4154 H 386.783 -3.40203 -2.48676 0
M  V30 4155 H 385.507 -2.15991 -2.44981 0
M  V30 4156 H 384.166 -3.56676 -0.847202 0
M  V30 4157 H 383.814 -3.78422 -3.3137 0
M  V30 4158 H 383.514 -5.32826 -2.4773 0
M  V30 4159 H 385.038 -5.08658 -3.37786 0
M  V30 4160 H 386.452 -5.61272 -1.1682 0
M  V30 4161 H 384.849 -5.98266 -0.468831 0
M  V30 4162 H 385.919 -4.8358 0.357506 0
M  V30 4163 N 387.262 0.0317525 -1.57568 0
M  V30 4164 C 388.492 0.733884 -1.93126 0
M  V30 4165 C 388.9 1.69563 -0.839352 0
M  V30 4166 O 388.243 1.82681 0.193175 0
M  V30 4167 C 388.305 1.54798 -3.24465 0
M  V30 4168 C 387.969 0.751304 -4.50782 0
M  V30 4169 C 388.966 0.0527632 -5.19873 0
M  V30 4170 C 386.651 0.706639 -4.97305 0
M  V30 4171 C 388.645 -0.679774 -6.33765 0
M  V30 4172 C 386.332 -0.0296449 -6.11093 0
M  V30 4173 C 387.33 -0.721614 -6.79177 0
M  V30 4174 O 387.018 -1.44595 -7.90789 0
M  V30 4175 H 386.75 0.211459 -0.642076 0
M  V30 4176 H 389.304 -0.00585615 -2.05399 0
M  V30 4177 H 387.534 2.33147 -3.08512 0
M  V30 4178 H 389.223 2.13247 -3.4537 0
M  V30 4179 H 389.989 0.0783188 -4.84937 0
M  V30 4180 H 385.868 1.23474 -4.44157 0
M  V30 4181 H 389.412 -1.22042 -6.86842 0
M  V30 4182 H 385.309 -0.0571331 -6.45475 0
M  V30 4183 H 386.077 -1.35935 -8.07133 0
M  V30 4184 N 388.74 1.54641 0.303973 0
M  V30 4185 C 389.672 1.81754 1.39636 0
M  V30 4186 C 390.685 0.70035 1.46966 0
M  V30 4187 O 391.874 0.97778 1.49338 0
M  V30 4188 C 388.974 1.93785 2.7803 0
M  V30 4189 C 388.147 3.24156 2.93669 0
M  V30 4190 C 387.206 3.26641 4.12544 0
M  V30 4191 O 386.232 4.00187 4.04771 0
M  V30 4192 N 387.434 2.5182 5.23036 0
M  V30 4193 H 390.199 2.76031 1.16734 0
M  V30 4194 H 387.76 1.54178 0.494033 0
M  V30 4195 H 389.752 1.92852 3.55795 0
M  V30 4196 H 388.322 1.06515 2.93893 0
M  V30 4197 H 387.542 3.37887 2.03042 0
M  V30 4198 H 388.83 4.10195 3.01027 0
M  V30 4199 H 388.228 1.91692 5.32232 0
M  V30 4200 H 386.785 2.56644 5.99147 0
M  V30 4201 N 390.218 -0.567019 1.47046 0
M  V30 4202 C 391.181 -1.65696 1.58359 0
M  V30 4203 C 392.181 -1.54097 0.459441 0
M  V30 4204 O 393.371 -1.58432 0.724225 0
M  V30 4205 C 390.503 -3.05197 1.51879 0
M  V30 4206 H 391.696 -1.57019 2.5551 0
M  V30 4207 H 389.249 -0.786148 1.3509 0
M  V30 4208 H 389.984 -3.19417 0.560673 0
M  V30 4209 H 389.769 -3.15025 2.33455 0
M  V30 4210 H 391.259 -3.84511 1.62913 0
M  V30 4211 N 391.696 -1.35014 -0.812953 0
M  V30 4212 C 392.643 -1.27412 -1.92444 0
M  V30 4213 C 393.613 -0.14733 -1.65445 0
M  V30 4214 O 394.798 -0.329974 -1.87925 0
M  V30 4215 C 391.938 -1.04558 -3.28879 0
M  V30 4216 C 391.051 -2.26101 -3.68106 0
M  V30 4217 C 390.186 -1.96449 -4.9354 0
M  V30 4218 C 389.225 -3.14081 -5.25376 0
M  V30 4219 N 388.362 -2.84246 -6.41988 0
M  V30 4220 H 393.202 -2.22463 -1.98278 0
M  V30 4221 H 390.739 -1.10593 -0.969933 0
M  V30 4222 H 392.697 -0.893413 -4.07522 0
M  V30 4223 H 391.327 -0.131719 -3.22531 0
M  V30 4224 H 390.379 -2.52204 -2.84775 0
M  V30 4225 H 391.691 -3.13959 -3.87597 0
M  V30 4226 H 390.845 -1.78026 -5.79993 0
M  V30 4227 H 389.584 -1.05867 -4.76071 0
M  V30 4228 H 388.589 -3.33089 -4.37415 0
M  V30 4229 H 389.814 -4.05455 -5.44778 0
M  V30 4230 H 387.76 -1.96252 -6.25956 0
M  V30 4231 H 387.677 -3.65637 -6.61699 0
M  V30 4232 H 388.945 -2.6935 -7.31485 0
M  V30 4233 N 393.175 1.03435 -1.18907 0
M  V30 4234 C 394.107 2.1165 -0.879595 0
M  V30 4235 C 395.12 1.62316 0.125439 0
M  V30 4236 O 396.309 1.78201 -0.103245 0
M  V30 4237 C 393.409 3.37622 -0.294042 0
M  V30 4238 C 392.582 4.16166 -1.34629 0
M  V30 4239 C 391.641 5.20457 -0.775274 0
M  V30 4240 O 390.667 5.50379 -1.4516 0
M  V30 4241 N 391.869 5.78949 0.424126 0
M  V30 4242 H 394.634 2.38791 -1.81105 0
M  V30 4243 H 392.195 1.19681 -1.09032 0
M  V30 4244 H 394.187 4.04572 0.101679 0
M  V30 4245 H 392.757 3.07873 0.541575 0
M  V30 4246 H 391.977 3.44444 -1.91707 0
M  V30 4247 H 393.265 4.65432 -2.05549 0
M  V30 4248 H 392.663 5.56948 0.991209 0
M  V30 4249 H 391.22 6.47334 0.761691 0
M  V30 4250 N 394.653 0.992116 1.22453 0
M  V30 4251 C 395.93 0.583508 1.86694 0
M  V30 4252 C 396.31 -0.9392 1.89056 0
M  V30 4253 O 395.658 -1.82081 1.38053 0
M  V30 4254 C 395.868 1.20304 3.2761 0
M  V30 4255 C 397.216 1.30308 4.0411 0
M  V30 4256 O 398.24 1.15737 3.36873 0
M  V30 4257 O 397.099 1.53615 5.24466 0
M  V30 4258 H 394.193 0.198129 0.802916 0
M  V30 4259 H 396.739 1.08794 1.30238 0
M  V30 4260 H 395.511 2.24461 3.2052 0
M  V30 4261 H 395.134 0.684144 3.9167 0
M  V30 4262 N 396.131 -1.37776 0.765217 0
M  V30 4263 C 397.078 -2.30342 0.145274 0
M  V30 4264 C 398.048 -1.5077 -0.696971 0
M  V30 4265 O 399.233 -1.79362 -0.650689 0
M  V30 4266 C 396.373 -3.37227 -0.732939 0
M  V30 4267 C 395.486 -4.31819 0.125199 0
M  V30 4268 C 394.621 -5.25777 -0.757107 0
M  V30 4269 C 393.66 -6.12012 0.103963 0
M  V30 4270 N 392.797 -6.98232 -0.735953 0
M  V30 4271 H 397.637 -2.8278 0.940195 0
M  V30 4272 H 395.174 -1.39211 0.475255 0
M  V30 4273 H 397.132 -3.97818 -1.25686 0
M  V30 4274 H 395.762 -2.86171 -1.49353 0
M  V30 4275 H 394.814 -3.7259 0.766865 0
M  V30 4276 H 396.126 -4.92509 0.789683 0
M  V30 4277 H 395.28 -5.91541 -1.34776 0
M  V30 4278 H 394.019 -4.65481 -1.45529 0
M  V30 4279 H 393.024 -5.45233 0.707197 0
M  V30 4280 H 394.249 -6.74379 0.799381 0
M  V30 4281 H 392.195 -6.40472 -1.41887 0
M  V30 4282 H 392.112 -7.55891 -0.128624 0
M  V30 4283 H 393.38 -7.68393 -1.31121 0
M  V30 4284 N 397.609 -0.515225 -1.4894 0
M  V30 4285 C 398.542 0.302518 -2.26186 0
M  V30 4286 C 399.52 0.957895 -1.31389 0
M  V30 4287 O 400.704 0.985198 -1.60705 0
M  V30 4288 C 397.831 1.42719 -3.07163 0
M  V30 4289 C 396.877 0.884736 -4.17223 0
M  V30 4290 S 397.71 -0.235767 -5.34981 0
M  V30 4291 C 398.866 0.891731 -6.19515 0
M  V30 4292 H 399.099 -0.353076 -2.95196 0
M  V30 4293 H 396.632 -0.300753 -1.51443 0
M  V30 4294 H 398.59 2.07152 -3.54398 0
M  V30 4295 H 397.251 2.05445 -2.37595 0
M  V30 4296 H 396.444 1.72801 -4.73451 0
M  V30 4297 H 396.046 0.317362 -3.72651 0
M  V30 4298 H 398.338 1.79377 -6.53322 0
M  V30 4299 H 399.281 0.367751 -7.07144 0
M  V30 4300 H 399.689 1.16548 -5.52338 0
M  V30 4301 N 399.087 1.5561 -0.249682 0
M  V30 4302 C 400.315 2.03411 0.378352 0
M  V30 4303 C 400.73 1.12886 1.51335 0
M  V30 4304 O 400.087 0.143833 1.81932 0
M  V30 4305 C 400.138 3.50537 0.88351 0
M  V30 4306 O 399.859 4.37614 -0.20626 0
M  V30 4307 C 401.36 4.14113 1.58195 0
M  V30 4308 H 398.58 0.664994 0.08958 0
M  V30 4309 H 401.124 2.01044 -0.374357 0
M  V30 4310 H 399.279 3.5343 1.58639 0
M  V30 4311 H 399.693 5.24199 0.177782 0
M  V30 4312 H 401.167 5.18741 1.8871 0
M  V30 4313 H 401.644 3.60767 2.50487 0
M  V30 4314 H 402.25 4.15151 0.923573 0
M  V30 4315 N 400.565 -0.0233959 1.57583 0
M  V30 4316 C 401.513 -1.04063 2.08023 0
M  V30 4317 C 402.507 -1.37084 0.995204 0
M  V30 4318 O 403.713 -1.35923 1.18004 0
M  V30 4319 H 400.088 -0.353144 0.663922 0
M  V30 4320 H 402.059 -0.589453 2.9252 0
M  V30 4321 C 400.808 -2.33123 2.57971 0
M  V30 4322 H 400.131 -2.08577 3.4108 0
M  V30 4323 H 401.571 -3.02632 2.96967 0
M  V30 4324 C 400.03 -3.02483 1.48342 0
M  V30 4325 O 400.56 -3.92541 0.852898 0
M  V30 4326 N 398.766 -2.63909 1.21658 0
M  V30 4327 H 398.313 -1.90758 1.73116 0
M  V30 4328 H 398.271 -3.10633 0.485218 0
M  V30 4329 N 402.043 -1.548 -0.295768 0
M  V30 4330 C 403.006 -1.85363 -1.34808 0
M  V30 4331 C 404.006 -0.726817 -1.43436 0
M  V30 4332 O 405.196 -0.995088 -1.42981 0
M  V30 4333 C 402.328 -2.03859 -2.73229 0
M  V30 4334 H 403.521 -2.7941 -1.08949 0
M  V30 4335 H 401.074 -1.46942 -0.532702 0
M  V30 4336 H 401.809 -1.12117 -3.04303 0
M  V30 4337 H 401.594 -2.8588 -2.68356 0
M  V30 4338 H 403.084 -2.28857 -3.49305 0
M  V30 4339 N 403.521 0.559213 -1.47345 0
M  V30 4340 C 404.468 1.66645 -1.59682 0
M  V30 4341 C 405.438 1.60168 -0.43994 0
M  V30 4342 O 406.623 1.79031 -0.659736 0
M  V30 4343 C 403.763 3.04969 -1.61518 0
M  V30 4344 C 402.876 3.21897 -2.88108 0
M  V30 4345 C 402.011 4.50608 -2.81294 0
M  V30 4346 C 401.05 4.60961 -4.02717 0
M  V30 4347 N 400.187 5.81024 -3.94151 0
M  V30 4348 H 405.027 1.55439 -2.54249 0
M  V30 4349 H 402.564 0.757219 -1.26113 0
M  V30 4350 H 404.522 3.85064 -1.60566 0
M  V30 4351 H 403.152 3.15015 -0.704645 0
M  V30 4352 H 402.204 2.35248 -2.98936 0
M  V30 4353 H 403.516 3.25412 -3.78032 0
M  V30 4354 H 402.67 5.3896 -2.7858 0
M  V30 4355 H 401.409 4.49568 -1.89049 0
M  V30 4356 H 400.414 3.71021 -4.05738 0
M  V30 4357 H 401.639 4.63761 -4.96087 0
M  V30 4358 H 399.585 5.80938 -3.04708 0
M  V30 4359 H 399.502 5.85909 -4.77752 0
M  V30 4360 H 400.77 6.71744 -3.9545 0
M  V30 4361 N 404.999 1.35443 0.805782 0
M  V30 4362 C 405.947 1.28465 1.93906 0
M  V30 4363 C 406.941 0.17943 1.68447 0
M  V30 4364 O 408.147 0.345459 1.76654 0
M  V30 4365 H 404.522 0.399528 0.637088 0
M  V30 4366 H 406.493 2.24206 1.96912 0
M  V30 4367 C 405.242 1.07432 3.30687 0
M  V30 4368 H 404.565 1.91716 3.50835 0
M  V30 4369 H 406.005 1.06591 4.10383 0
M  V30 4370 C 404.464 -0.22179 3.36169 0
M  V30 4371 O 404.994 -1.21731 3.82811 0
M  V30 4372 N 403.2 -0.260841 2.89427 0
M  V30 4373 H 402.747 0.549884 2.51663 0
M  V30 4374 H 402.705 -1.12777 2.93477 0
M  V30 4375 N 406.477 -1.02803 1.19454 0
M  V30 4376 C 407.893 -1.28473 0.946937 0
M  V30 4377 C 408.093 -1.97881 -0.380202 0
M  V30 4378 O 407.149 -2.26719 -1.11151 0
M  V30 4379 C 408.462 -2.13099 2.12154 0
M  V30 4380 C 410.01 -2.26404 2.16126 0
M  V30 4381 C 410.485 -3.14402 3.33039 0
M  V30 4382 N 411.976 -3.21991 3.32981 0
M  V30 4383 C 412.711 -3.90272 4.20089 0
M  V30 4384 N 412.207 -4.60777 5.17355 0
M  V30 4385 N 414 -3.8668 4.07964 0
M  V30 4386 H 406.151 -0.561665 2.04839 0
M  V30 4387 H 408.414 -0.310438 0.89573 0
M  V30 4388 H 408.12 -1.69422 3.08203 0
M  V30 4389 H 407.994 -3.13813 2.09287 0
M  V30 4390 H 410.381 -2.69311 1.20647 0
M  V30 4391 H 410.462 -1.25237 2.23045 0
M  V30 4392 H 410.106 -2.72204 4.28798 0
M  V30 4393 H 410.036 -4.1563 3.23356 0
M  V30 4394 H 412.527 -2.71778 2.62574 0
M  V30 4395 H 412.84 -5.10513 5.80169 0
M  V30 4396 H 411.185 -4.5964 5.21302 0
M  V30 4397 H 414.376 -3.30739 3.31254 0
M  V30 4398 H 414.549 -4.39621 4.76064 0
M  V30 4399 N 407.956 -0.998596 -1.21925 0
M  V30 4400 C 409.184 -0.696286 -1.94832 0
M  V30 4401 C 409.599 0.740032 -1.73692 0
M  V30 4402 O 408.956 1.5 -1.03953 0
M  V30 4403 C 409.007 -0.999833 -3.47398 0
M  V30 4404 O 408.728 -2.37972 -3.67833 0
M  V30 4405 C 410.229 -0.716025 -4.37479 0
M  V30 4406 H 407.449 -0.257111 -0.619786 0
M  V30 4407 H 409.993 -1.33491 -1.54921 0
M  V30 4408 H 408.148 -0.406918 -3.85257 0
M  V30 4409 H 408.562 -2.48338 -4.61983 0
M  V30 4410 H 410.036 -0.978642 -5.43256 0
M  V30 4411 H 410.513 0.349968 -4.37803 0
M  V30 4412 H 411.119 -1.29025 -4.05256 0
M  V30 4413 N 409.434 1.37368 -0.772513 0
M  V30 4414 C 410.344 2.34053 -0.160081 0
M  V30 4415 C 411.36 1.60216 0.678728 0
M  V30 4416 O 412.536 1.92303 0.59847 0
M  V30 4417 C 409.601 3.3939 0.708182 0
M  V30 4418 C 408.662 4.29048 -0.147172 0
M  V30 4419 C 407.895 5.29354 0.679744 0
M  V30 4420 O 408.118 5.3723 1.91678 0
M  V30 4421 O 407.052 6.01835 0.0885444 0
M  V30 4422 H 410.878 2.88159 -0.959053 0
M  V30 4423 H 408.463 1.39543 -0.533685 0
M  V30 4424 H 410.345 4.03839 1.20384 0
M  V30 4425 H 409.02 2.8761 1.48533 0
M  V30 4426 H 407.927 3.67697 -0.689205 0
M  V30 4427 H 409.26 4.84134 -0.887423 0
M  V30 4428 N 410.912 0.523116 1.48665 0
M  V30 4429 C 411.86 -0.256859 2.31177 0
M  V30 4430 C 412.854 -0.94199 1.40794 0
M  V30 4431 O 414.06 -0.867157 1.57735 0
M  V30 4432 H 410.435 -0.1017 0.745091 0
M  V30 4433 H 412.406 0.458739 2.94853 0
M  V30 4434 C 411.155 -1.29503 3.22683 0
M  V30 4435 H 410.478 -0.777248 3.92172 0
M  V30 4436 H 411.918 -1.81233 3.83315 0
M  V30 4437 C 410.377 -2.32501 2.43813 0
M  V30 4438 O 410.907 -3.3881 2.15803 0
M  V30 4439 N 409.113 -2.05538 2.05432 0
M  V30 4440 H 408.66 -1.19104 2.28412 0
M  V30 4441 H 408.618 -2.74676 1.52973 0
M  V30 4442 N 412.39 -1.55475 0.257931 0
M  V30 4443 C 413.615 -2.04064 -0.370488 0
M  V30 4444 C 414.04 -1.13565 -1.49948 0
M  V30 4445 O 413.398 -0.130781 -1.80828 0
M  V30 4446 C 413.446 -3.50554 -0.845237 0
M  V30 4447 O 412.55 -3.63173 -1.95394 0
M  V30 4448 H 411.891 -0.659257 -0.0792243 0
M  V30 4449 H 414.421 -2.00903 0.387212 0
M  V30 4450 H 414.431 -3.91588 -1.14555 0
M  V30 4451 H 413.106 -4.15896 -0.0191259 0
M  V30 4452 H 411.683 -3.34039 -1.65748 0
M  V30 4453 N 413.868 0.0150385 -1.57593 0
M  V30 4454 C 414.778 1.02791 -2.10882 0
M  V30 4455 C 415.794 1.38702 -1.0506 0
M  V30 4456 O 416.97 1.47739 -1.36877 0
M  V30 4457 C 414.035 2.30568 -2.58919 0
M  V30 4458 C 413.096 2.01108 -3.79281 0
M  V30 4459 C 412.329 3.22794 -4.25018 0
M  V30 4460 O 412.552 4.33959 -3.70183 0
M  V30 4461 O 411.486 3.07672 -5.17322 0
M  V30 4462 H 415.312 0.604973 -2.97613 0
M  V30 4463 H 412.897 0.23292 -1.47573 0
M  V30 4464 H 414.779 3.05662 -2.90084 0
M  V30 4465 H 413.454 2.72129 -1.75293 0
M  V30 4466 H 412.361 1.23537 -3.53114 0
M  V30 4467 H 413.694 1.64394 -4.63935 0
M  V30 4468 N 415.346 1.54954 0.287554 0
M  V30 4469 C 416.762 1.46469 0.633964 0
M  V30 4470 C 416.962 0.666865 1.90145 0
M  V30 4471 O 416.018 0.179906 2.51858 0
M  V30 4472 C 417.331 2.90556 0.774454 0
M  V30 4473 C 418.879 3.00681 0.869462 0
M  V30 4474 C 419.354 4.45993 1.04184 0
M  V30 4475 N 420.845 4.4976 1.10772 0
M  V30 4476 C 421.58 5.59393 1.25964 0
M  V30 4477 N 421.076 6.78923 1.37968 0
M  V30 4478 N 422.869 5.47107 1.28959 0
M  V30 4479 H 415.02 2.05288 -0.545041 0
M  V30 4480 H 417.283 0.930305 -0.182308 0
M  V30 4481 H 416.989 3.51594 -0.086207 0
M  V30 4482 H 416.863 3.38743 1.6593 0
M  V30 4483 H 419.25 2.39749 1.7206 0
M  V30 4484 H 419.331 2.55769 -0.0396831 0
M  V30 4485 H 418.975 5.07524 0.195422 0
M  V30 4486 H 418.905 4.88548 1.96542 0
M  V30 4487 H 421.396 3.63651 1.02794 0
M  V30 4488 H 421.709 7.58231 1.49353 0
M  V30 4489 H 420.054 6.81763 1.34999 0
M  V30 4490 H 423.245 4.52668 1.19202 0
M  V30 4491 H 423.418 6.32595 1.40455 0
M  V30 4492 N 416.824 -0.551391 1.4764 0
M  V30 4493 C 417.734 -1.68525 1.63207 0
M  V30 4494 C 418.75 -1.6621 0.514815 0
M  V30 4495 O 419.926 -1.85551 0.783113 0
M  V30 4496 C 416.991 -3.05025 1.64805 0
M  V30 4497 C 416.052 -3.18362 2.88 0
M  V30 4498 C 415.285 -4.4835 2.89513 0
M  V30 4499 O 415.508 -5.34163 2.00065 0
M  V30 4500 O 414.442 -4.65602 3.81443 0
M  V30 4501 H 418.268 -1.58333 2.59161 0
M  V30 4502 H 415.853 -0.722063 1.30792 0
M  V30 4503 H 417.735 -3.86245 1.68502 0
M  V30 4504 H 416.41 -3.15587 0.720197 0
M  V30 4505 H 415.317 -2.36518 2.89845 0
M  V30 4506 H 416.65 -3.12707 3.80099 0
M  V30 4507 N 418.302 -1.35869 -0.798587 0
M  V30 4508 C 419.718 -1.16082 -1.09532 0
M  V30 4509 C 419.918 0.0213124 -2.01489 0
M  V30 4510 O 418.974 0.689488 -2.42904 0
M  V30 4511 C 420.287 -2.46748 -1.7186 0
M  V30 4512 C 421.835 -2.53028 -1.84244 0
M  V30 4513 C 422.31 -3.83758 -2.49988 0
M  V30 4514 N 423.801 -3.85053 -2.57465 0
M  V30 4515 C 424.536 -4.8294 -3.09122 0
M  V30 4516 N 424.032 -5.91217 -3.61157 0
M  V30 4517 N 425.825 -4.70369 -3.0775 0
M  V30 4518 H 417.976 -2.11571 -0.187461 0
M  V30 4519 H 420.239 -0.936726 -0.145765 0
M  V30 4520 H 419.945 -3.33471 -1.11759 0
M  V30 4521 H 419.819 -2.61883 -2.71472 0
M  V30 4522 H 422.206 -1.66729 -2.43486 0
M  V30 4523 H 422.287 -2.418 -0.834643 0
M  V30 4524 H 421.931 -4.70459 -1.91393 0
M  V30 4525 H 421.861 -3.92278 -3.5132 0
M  V30 4526 H 424.352 -3.06822 -2.20609 0
M  V30 4527 H 424.665 -6.61892 -3.98896 0
M  V30 4528 H 423.01 -5.94899 -3.59333 0
M  V30 4529 H 426.201 -3.84914 -2.66381 0
M  V30 4530 H 426.374 -5.46816 -3.47701 0
M  V30 4531 N 419.78 1.02168 -1.19998 0
M  V30 4532 C 421.057 1.72816 -0.916191 0
M  V30 4533 C 421.437 2.03081 0.576325 0
M  V30 4534 O 420.785 1.69122 1.53656 0
M  V30 4535 C 420.995 2.9997 -1.78378 0
M  V30 4536 C 422.343 3.73336 -2.02251 0
M  V30 4537 O 423.367 3.09914 -1.75589 0
M  V30 4538 O 422.226 4.87371 -2.47249 0
M  V30 4539 H 419.32 0.752924 -0.342103 0
M  V30 4540 H 421.866 1.08062 -1.30846 0
M  V30 4541 H 420.638 2.73888 -2.79466 0
M  V30 4542 H 420.261 3.72464 -1.39126 0
M  V30 4543 N 421.258 1.00505 1.21394 0
M  V30 4544 C 422.504 0.688793 1.90745 0
M  V30 4545 C 422.837 -0.778486 1.77914 0
M  V30 4546 O 422.112 -1.56433 1.15581 0
M  V30 4547 C 422.395 1.11063 3.42545 0
M  V30 4548 C 422.248 2.63737 3.64367 0
M  V30 4549 C 423.567 0.673059 4.34923 0
M  V30 4550 H 420.686 0.251702 0.692687 0
M  V30 4551 H 423.328 1.25074 1.43026 0
M  V30 4552 H 421.478 0.632508 3.83317 0
M  V30 4553 H 423.15 3.19313 3.32922 0
M  V30 4554 H 421.393 3.05248 3.08231 0
M  V30 4555 H 422.064 2.88305 4.70727 0
M  V30 4556 H 424.54 1.08392 4.01734 0
M  V30 4557 H 423.416 0.996383 5.39781 0
M  V30 4558 H 423.677 -0.425808 4.40045 0
M  V30 4559 N 422.737 -1.36956 0.779787 0
M  V30 4560 C 423.967 -2.03459 0.358877 0
M  V30 4561 C 424.375 -1.58939 -1.02641 0
M  V30 4562 O 423.718 -0.769777 -1.66794 0
M  V30 4563 C 423.78 -3.5796 0.332393 0
M  V30 4564 C 423.444 -4.25644 1.66362 0
M  V30 4565 C 424.441 -4.49205 2.61746 0
M  V30 4566 C 422.126 -4.63313 1.94027 0
M  V30 4567 C 424.12 -5.09503 3.82996 0
M  V30 4568 C 421.807 -5.2333 3.15546 0
M  V30 4569 C 422.805 -5.46363 4.0985 0
M  V30 4570 O 422.493 -6.05122 5.29228 0
M  V30 4571 H 422.225 -0.659767 0.147254 0
M  V30 4572 H 424.779 -1.76111 1.05708 0
M  V30 4573 H 423.009 -3.84388 -0.422237 0
M  V30 4574 H 424.698 -4.05852 -0.0625389 0
M  V30 4575 H 425.464 -4.20508 2.41657 0
M  V30 4576 H 421.343 -4.44715 1.21448 0
M  V30 4577 H 424.887 -5.27397 4.56617 0
M  V30 4578 H 420.784 -5.51451 3.35517 0
M  V30 4579 H 421.552 -6.23595 5.30161 0
M  V30 4580 N 424.215 -0.530993 -1.48385 0
M  V30 4581 C 425.125 0.23503 -2.3342 0
M  V30 4582 C 426.141 0.93801 -1.46552 0
M  V30 4583 O 427.317 0.912745 -1.7953 0
M  V30 4584 C 424.382 1.26778 -3.22689 0
M  V30 4585 C 423.443 0.575038 -4.25431 0
M  V30 4586 C 422.676 1.55858 -5.10435 0
M  V30 4587 O 422.899 2.79129 -4.97437 0
M  V30 4588 O 421.833 1.09742 -5.91811 0
M  V30 4589 H 425.659 -0.461794 -3.00169 0
M  V30 4590 H 423.244 -0.291903 -1.46521 0
M  V30 4591 H 425.126 1.86457 -3.77904 0
M  V30 4592 H 423.801 1.94699 -2.586 0
M  V30 4593 H 422.708 -0.0622782 -3.74048 0
M  V30 4594 H 424.041 -0.062253 -4.92161 0
M  V30 4595 N 425.693 1.55336 -0.266172 0
M  V30 4596 C 426.603 2.2583 0.635458 0
M  V30 4597 C 427.619 1.28106 1.17749 0
M  V30 4598 O 428.795 1.61024 1.20968 0
M  V30 4599 C 425.86 2.95879 1.80712 0
M  V30 4600 C 424.921 4.09059 1.30265 0
M  V30 4601 C 424.154 4.75759 2.41846 0
M  V30 4602 O 424.377 4.41622 3.61007 0
M  V30 4603 O 423.311 5.63888 2.1051 0
M  V30 4604 H 427.137 3.03631 0.0646693 0
M  V30 4605 H 424.722 1.49361 -0.0339177 0
M  V30 4606 H 426.604 3.39932 2.49047 0
M  V30 4607 H 425.279 2.21002 2.36516 0
M  V30 4608 H 424.186 3.69482 0.586019 0
M  V30 4609 H 425.519 4.85811 0.790458 0
M  V30 4610 N 427.171 -0.0066808 1.57599 0
M  V30 4611 C 428.101 -0.999296 2.11036 0
M  V30 4612 C 429.082 -1.36278 1.01795 0
M  V30 4613 O 430.267 -1.4477 1.29442 0
M  V30 4614 C 427.397 -2.29328 2.60818 0
M  V30 4615 C 426.351 -2.07159 3.74525 0
M  V30 4616 C 425.677 -3.42512 4.10596 0
M  V30 4617 C 426.977 -1.43959 5.02069 0
M  V30 4618 H 428.671 -0.554382 2.94223 0
M  V30 4619 H 426.217 -0.265221 1.41536 0
M  V30 4620 H 428.17 -2.99117 2.96828 0
M  V30 4621 H 426.894 -2.7592 1.74745 0
M  V30 4622 H 425.553 -1.39797 3.38899 0
M  V30 4623 H 425.201 -3.86795 3.21556 0
M  V30 4624 H 424.901 -3.28498 4.87199 0
M  V30 4625 H 426.425 -4.13628 4.4916 0
M  V30 4626 H 427.839 -2.03696 5.35893 0
M  V30 4627 H 426.236 -1.40452 5.83432 0
M  V30 4628 H 427.306 -0.407992 4.83181 0
M  V30 4629 N 428.649 -1.55105 -0.279332 0
M  V30 4630 C 429.579 -1.90557 -1.34945 0
M  V30 4631 C 430.56 -0.766738 -1.51839 0
M  V30 4632 O 431.745 -1.02434 -1.64988 0
M  V30 4633 C 428.875 -2.17193 -2.71006 0
M  V30 4634 C 427.829 -3.33021 -2.68851 0
M  V30 4635 C 427.155 -3.45123 -4.08405 0
M  V30 4636 C 428.455 -4.69578 -2.28678 0
M  V30 4637 H 430.149 -2.80188 -1.05522 0
M  V30 4638 H 427.695 -1.34811 -0.506173 0
M  V30 4639 H 429.648 -2.40581 -3.45975 0
M  V30 4640 H 428.372 -1.24355 -3.01999 0
M  V30 4641 H 427.031 -3.0959 -1.9634 0
M  V30 4642 H 426.679 -2.49762 -4.3661 0
M  V30 4643 H 426.379 -4.22995 -4.07859 0
M  V30 4644 H 427.903 -3.70796 -4.85121 0
M  V30 4645 H 429.317 -4.92553 -2.93368 0
M  V30 4646 H 427.714 -5.5032 -2.39306 0
M  V30 4647 H 428.784 -4.68828 -1.23807 0
M  V30 4648 N 430.127 0.543554 -1.4793 0
M  V30 4649 C 431.355 1.32516 -1.58894 0
M  V30 4650 C 431.77 1.87215 -0.244131 0
M  V30 4651 O 431.127 1.65709 0.764652 0
M  V30 4652 C 431.178 2.48554 -2.62494 0
M  V30 4653 O 430.899 1.96112 -3.91755 0
M  V30 4654 C 432.4 3.40572 -2.8377 0
M  V30 4655 H 429.62 0.403472 -0.536145 0
M  V30 4656 H 432.164 0.657106 -1.93655 0
M  V30 4657 H 430.319 3.1127 -2.30629 0
M  V30 4658 H 430.733 2.71967 -4.4848 0
M  V30 4659 H 432.207 4.18375 -3.60093 0
M  V30 4660 H 432.684 3.94965 -1.92092 0
M  V30 4661 H 433.29 2.8366 -3.16887 0
M  V30 4662 N 431.605 1.3629 0.791371 0
M  V30 4663 C 432.537 1.26321 1.91248 0
M  V30 4664 C 433.55 0.18313 1.61767 0
M  V30 4665 O 434.739 0.437682 1.73051 0
M  V30 4666 C 431.839 0.925901 3.26007 0
M  V30 4667 C 431.012 2.10746 3.83281 0
M  V30 4668 C 430.071 1.74352 4.96475 0
M  V30 4669 O 429.097 2.46416 5.13096 0
M  V30 4670 N 430.299 0.676058 5.7655 0
M  V30 4671 H 433.064 2.22915 2.00323 0
M  V30 4672 H 430.625 1.29659 0.969546 0
M  V30 4673 H 432.617 0.663636 3.99222 0
M  V30 4674 H 431.187 0.0491581 3.12561 0
M  V30 4675 H 430.407 2.53264 3.02077 0
M  V30 4676 H 431.695 2.8969 4.18279 0
M  V30 4677 H 431.093 0.0776467 5.65647 0
M  V30 4678 H 429.65 0.473612 6.50077 0
M  V30 4679 N 433.083 -1.0153 1.20538 0
M  V30 4680 C 434.046 -2.0826 0.957098 0
M  V30 4681 C 435.046 -1.60657 -0.0678655 0
M  V30 4682 O 436.236 -1.73385 0.168332 0
M  V30 4683 C 433.368 -3.38033 0.441188 0
M  V30 4684 H 434.561 -2.31719 1.90384 0
M  V30 4685 H 432.114 -1.1835 1.02093 0
M  V30 4686 H 432.849 -3.20249 -0.510961 0
M  V30 4687 H 432.634 -3.73911 1.18038 0
M  V30 4688 H 434.124 -4.16613 0.287009 0
M  V30 4689 N 434.561 -1.01147 -1.20859 0
M  V30 4690 C 435.471 -0.58686 -2.27141 0
M  V30 4691 C 436.487 0.373198 -1.69951 0
M  V30 4692 O 437.663 0.235423 -2.00019 0
M  V30 4693 C 434.728 0.0733602 -3.46622 0
M  V30 4694 C 433.789 -0.931995 -4.19061 0
M  V30 4695 C 433.022 -0.303186 -5.32838 0
M  V30 4696 O 433.245 0.898395 -5.63281 0
M  V30 4697 O 432.179 -1.01735 -5.9324 0
M  V30 4698 H 436.005 -1.47155 -2.65667 0
M  V30 4699 H 433.59 -0.780689 -1.2738 0
M  V30 4700 H 435.472 0.442333 -4.19072 0
M  V30 4701 H 434.147 0.932329 -3.09983 0
M  V30 4702 H 433.054 -1.35224 -3.48805 0
M  V30 4703 H 434.387 -1.76076 -4.59628 0
M  V30 4704 N 436.039 1.36541 -0.78704 0
M  V30 4705 C 437.288 1.98552 -0.35494 0
M  V30 4706 C 437.601 1.63171 1.07864 0
M  V30 4707 O 438.807 2.18399 1.61289 0
M  V30 4708 C 437.263 3.55136 -0.583671 0
M  V30 4709 C 436.871 3.99444 -2.02851 0
M  V30 4710 C 438.615 4.2395 -0.215957 0
M  V30 4711 C 436.522 5.48796 -2.20403 0
M  V30 4712 H 435.452 0.742888 -0.128972 0
M  V30 4713 H 438.103 1.5587 -0.968337 0
M  V30 4714 H 436.485 3.95875 0.0994046 0
M  V30 4715 H 437.659 3.6991 -2.74779 0
M  V30 4716 H 435.974 3.43459 -2.35425 0
M  V30 4717 H 438.571 5.33709 -0.325405 0
M  V30 4718 H 438.914 4.07827 0.835646 0
M  V30 4719 H 439.447 3.88565 -0.852175 0
M  V30 4720 H 436.186 5.69864 -3.23937 0
M  V30 4721 H 435.706 5.79964 -1.52977 0
M  V30 4722 H 437.385 6.14986 -2.01002 0
M  V30 4723 N 437.518 0.538854 1.48102 0
M  V30 4724 C 438.45 -0.256278 2.27763 0
M  V30 4725 C 439.463 -0.89633 1.35904 0
M  V30 4726 O 440.652 -0.773275 1.60881 0
M  V30 4727 C 437.752 -1.37896 3.09577 0
M  V30 4728 C 436.925 -0.839159 4.29275 0
M  V30 4729 C 435.984 -1.84405 4.9283 0
M  V30 4730 O 435.01 -1.39746 5.51779 0
M  V30 4731 N 436.212 -3.17666 4.85869 0
M  V30 4732 H 438.977 0.426968 2.96643 0
M  V30 4733 H 436.538 0.373747 1.57527 0
M  V30 4734 H 438.53 -2.04955 3.48963 0
M  V30 4735 H 437.1 -1.96572 2.4306 0
M  V30 4736 H 436.32 0.00769287 3.94199 0
M  V30 4737 H 437.608 -0.457548 5.06739 0
M  V30 4738 H 437.006 -3.56609 4.39143 0
M  V30 4739 H 435.563 -3.80334 5.29329 0
M  V30 4740 N 438.996 -1.55193 0.274407 0
M  V30 4741 C 440.244 -1.99187 -0.341902 0
M  V30 4742 C 440.565 -1.16422 -1.56431 0
M  V30 4743 O 439.835 -0.253573 -1.94252 0
M  V30 4744 H 438.415 -0.735721 -0.129317 0
M  V30 4745 H 441.077 -1.91168 0.379578 0
M  V30 4746 H 440.173 -3.05629 -0.632253 0
M  V30 4747 N 440.474 -0.00167713 -1.576 0
M  V30 4748 C 441.422 1.0074 -2.09652 0
M  V30 4749 C 442.416 1.35483 -1.01689 0
M  V30 4750 O 443.622 1.34028 -1.20152 0
M  V30 4751 H 439.997 0.342537 -0.669457 0
M  V30 4752 H 441.968 0.542841 -2.93421 0
M  V30 4753 C 440.717 2.2899 -2.61647 0
M  V30 4754 H 440.04 2.03124 -3.44355 0
M  V30 4755 H 441.48 2.9787 -3.01744 0
M  V30 4756 C 439.939 3.00085 -1.53136 0
M  V30 4757 O 440.469 3.91135 -0.91524 0
M  V30 4758 N 438.675 2.6194 -1.25841 0
M  V30 4759 H 438.222 1.8798 -1.76129 0
M  V30 4760 H 438.18 3.09822 -0.534576 0
M  V30 4761 N 441.952 1.55251 0.271103 0
M  V30 4762 C 443.201 1.75151 1.00025 0
M  V30 4763 C 443.514 0.561041 1.87381 0
M  V30 4764 O 444.72 0.642506 2.63788 0
M  V30 4765 C 443.176 3.09999 1.82835 0
M  V30 4766 C 442.784 4.3662 1.00336 0
M  V30 4767 C 444.528 3.39249 2.55168 0
M  V30 4768 C 442.435 5.62506 1.82595 0
M  V30 4769 H 441.365 0.652877 0.377183 0
M  V30 4770 H 444.016 1.81708 0.255843 0
M  V30 4771 H 442.398 2.97485 2.61378 0
M  V30 4772 H 443.572 4.60055 0.261959 0
M  V30 4773 H 441.887 4.14527 0.394486 0
M  V30 4774 H 444.484 4.3051 3.1712 0
M  V30 4775 H 444.827 2.59467 3.2555 0
M  V30 4776 H 445.36 3.52869 1.83653 0
M  V30 4777 H 442.099 6.45041 1.16631 0
M  V30 4778 H 441.619 5.43211 2.54327 0
M  V30 4779 H 443.298 6.00875 2.39913 0
M  V30 4780 N 443.43 -0.535701 1.48216 0
M  V30 4781 C 444.378 -1.66179 1.62749 0
M  V30 4782 C 445.372 -1.62034 0.49409 0
M  V30 4783 O 446.578 -1.6696 0.672624 0
M  V30 4784 H 442.953 -0.550244 0.512578 0
M  V30 4785 H 444.924 -1.51063 2.57337 0
M  V30 4786 C 443.673 -3.04471 1.67907 0
M  V30 4787 H 442.996 -3.08351 2.54479 0
M  V30 4788 H 444.436 -3.82894 1.82121 0
M  V30 4789 C 442.895 -3.34314 0.416596 0
M  V30 4790 O 443.425 -3.98905 -0.473014 0
M  V30 4791 N 441.631 -2.89149 0.290038 0
M  V30 4792 H 441.178 -2.36764 1.01493 0
M  V30 4793 H 441.136 -3.09486 -0.55367 0
M  V30 4794 N 444.908 -1.36708 -0.784132 0
M  V30 4795 C 445.855 -1.31466 -1.89698 0
M  V30 4796 C 446.825 -0.18239 -1.65096 0
M  V30 4797 O 448.01 -0.369762 -1.87183 0
M  V30 4798 C 445.15 -1.1151 -3.26588 0
M  V30 4799 C 444.263 -2.33859 -3.63227 0
M  V30 4800 C 443.398 -2.06873 -4.89262 0
M  V30 4801 C 442.437 -3.25154 -5.18595 0
M  V30 4802 N 441.574 -2.978 -6.35814 0
M  V30 4803 H 446.414 -2.26619 -1.93515 0
M  V30 4804 H 443.951 -1.12625 -0.946256 0
M  V30 4805 H 445.909 -0.979653 -4.05535 0
M  V30 4806 H 444.539 -0.200103 -3.22179 0
M  V30 4807 H 443.591 -2.58188 -2.79362 0
M  V30 4808 H 444.903 -3.22109 -3.8085 0
M  V30 4809 H 444.057 -1.90289 -5.76086 0
M  V30 4810 H 442.796 -1.15942 -4.73718 0
M  V30 4811 H 441.801 -3.42292 -4.30251 0
M  V30 4812 H 443.026 -4.1692 -5.36055 0
M  V30 4813 H 440.972 -2.09485 -6.21653 0
M  V30 4814 H 440.889 -3.7959 -6.53794 0
M  V30 4815 H 442.157 -2.84805 -7.25607 0
M  V30 4816 N 446.386 1.0089 -1.21074 0
M  V30 4817 C 447.632 1.74866 -1.02712 0
M  V30 4818 C 447.965 1.89178 0.438787 0
M  V30 4819 O 447.24 1.42325 1.32567 0
M  V30 4820 C 447.523 3.16347 -1.72036 0
M  V30 4821 C 447.376 3.09782 -3.26121 0
M  V30 4822 C 448.695 4.15187 -1.45973 0
M  V30 4823 H 445.814 0.634736 -0.374539 0
M  V30 4824 H 448.456 1.17646 -1.49196 0
M  V30 4825 H 446.606 3.65201 -1.32517 0
M  V30 4826 H 448.278 2.68673 -3.74983 0
M  V30 4827 H 446.521 2.46982 -3.56626 0
M  V30 4828 H 447.192 4.09829 -3.6979 0
M  V30 4829 H 449.668 3.75022 -1.80272 0
M  V30 4830 H 448.544 5.12331 -1.96999 0
M  V30 4831 H 448.805 4.40386 -0.388924 0
M  V30 4832 N 447.864 1.01787 1.20321 0
M  V30 4833 C 448.812 0.58254 2.25187 0
M  V30 4834 C 449.806 -0.379359 1.65098 0
M  V30 4835 O 451.012 -0.249142 1.78267 0
M  V30 4836 H 447.387 0.170078 0.732514 0
M  V30 4837 H 449.358 1.47788 2.59232 0
M  V30 4838 C 448.107 -0.0620885 3.47645 0
M  V30 4839 H 447.43 0.669069 3.94162 0
M  V30 4840 H 448.87 -0.329784 4.22716 0
M  V30 4841 C 447.329 -1.3053 3.10586 0
M  V30 4842 O 447.859 -2.39848 3.22236 0
M  V30 4843 N 446.065 -1.18988 2.65123 0
M  V30 4844 H 445.612 -0.300341 2.55843 0
M  V30 4845 H 445.57 -2.02267 2.40698 0
M  V30 4846 N 449.342 -1.36122 0.79427 0
M  V30 4847 C 450.57 -2.03362 0.380989 0
M  V30 4848 C 450.985 -1.59881 -1.00416 0
M  V30 4849 O 450.342 -0.790515 -1.6449 0
M  V30 4850 C 450.393 -3.58804 0.440649 0
M  V30 4851 O 450.114 -4.007 1.77118 0
M  V30 4852 C 451.615 -4.43296 0.0186117 0
M  V30 4853 H 448.835 -0.652526 0.156367 0
M  V30 4854 H 451.379 -1.73998 1.07447 0
M  V30 4855 H 449.534 -3.8686 -0.204458 0
M  V30 4856 H 449.948 -4.95309 1.72538 0
M  V30 4857 H 451.422 -5.51887 0.111488 0
M  V30 4858 H 451.899 -4.2684 -1.03461 0
M  V30 4859 H 452.505 -4.20512 0.636395 0
M  V30 4860 N 450.82 -0.546701 -1.47814 0
M  V30 4861 C 452.067 -0.0187407 -2.02491 0
M  V30 4862 C 452.395 1.32685 -1.42215 0
M  V30 4863 O 451.65 1.87413 -0.563454 0
M  V30 4864 C 451.949 0.134869 -3.57145 0
M  V30 4865 C 451.615 -1.13849 -4.3629 0
M  V30 4866 C 450.277 -1.48743 -4.57634 0
M  V30 4867 C 452.629 -1.98277 -4.82012 0
M  V30 4868 C 449.957 -2.67932 -5.21948 0
M  V30 4869 C 452.309 -3.16659 -5.4764 0
M  V30 4870 C 450.973 -3.51879 -5.67219 0
M  V30 4871 H 450.243 -0.0068577 -0.740968 0
M  V30 4872 H 452.89 -0.716097 -1.77607 0
M  V30 4873 H 451.195 0.915118 -3.80963 0
M  V30 4874 H 452.892 0.558556 -3.97091 0
M  V30 4875 H 449.482 -0.856767 -4.19949 0
M  V30 4876 H 453.666 -1.72628 -4.6531 0
M  V30 4877 H 448.922 -2.95401 -5.35302 0
M  V30 4878 H 453.096 -3.82374 -5.82033 0
M  V30 4879 H 450.723 -4.44331 -6.16825 0
M  V30 4880 N 452.299 1.55045 -0.282633 0
M  V30 4881 C 453.524 2.04628 0.337977 0
M  V30 4882 C 453.949 1.15937 1.48123 0
M  V30 4883 O 453.307 0.159532 1.80597 0
M  V30 4884 C 453.355 3.51854 0.78936 0
M  V30 4885 O 452.459 3.66236 1.89592 0
M  V30 4886 H 451.8 0.660434 0.0687261 0
M  V30 4887 H 454.33 2.00261 -0.419124 0
M  V30 4888 H 454.34 3.93361 1.08311 0
M  V30 4889 H 453.015 4.15873 -0.0470419 0
M  V30 4890 H 451.592 3.36633 1.60413 0
M  V30 4891 N 453.777 0.010035 1.57597 0
M  V30 4892 C 454.74 -0.963029 2.07986 0
M  V30 4893 C 455.74 -1.26619 0.991173 0
M  V30 4894 O 456.93 -1.2097 1.25347 0
M  V30 4895 C 454.062 -2.2851 2.52974 0
M  V30 4896 H 455.255 -0.526971 2.95234 0
M  V30 4897 H 452.808 -0.237639 1.54483 0
M  V30 4898 H 453.543 -2.76784 1.69 0
M  V30 4899 H 453.328 -2.07824 3.32493 0
M  V30 4900 H 454.818 -2.98294 2.9225 0
M  V30 4901 N 455.255 -1.55392 -0.262866 0
M  V30 4902 C 456.185 -1.91978 -1.32917 0
M  V30 4903 C 457.166 -0.7828 -1.51017 0
M  V30 4904 O 458.351 -1.04178 -1.63892 0
M  V30 4905 C 455.481 -2.20055 -2.68687 0
M  V30 4906 C 454.435 -3.35854 -2.65304 0
M  V30 4907 C 453.761 -3.49435 -4.04721 0
M  V30 4908 C 455.061 -4.71977 -2.23685 0
M  V30 4909 H 456.755 -2.81292 -1.02544 0
M  V30 4910 H 454.301 -1.3534 -0.491846 0
M  V30 4911 H 456.254 -2.44237 -3.43404 0
M  V30 4912 H 454.978 -1.27551 -3.00663 0
M  V30 4913 H 453.637 -3.11655 -1.93045 0
M  V30 4914 H 453.285 -2.54379 -4.33936 0
M  V30 4915 H 452.985 -4.27297 -4.0335 0
M  V30 4916 H 454.509 -3.7592 -4.81161 0
M  V30 4917 H 455.923 -4.95637 -2.88127 0
M  V30 4918 H 454.32 -5.52828 -2.33456 0
M  V30 4919 H 455.39 -4.70115 -1.18827 0
M  V30 4920 N 456.733 0.527833 -1.48498 0
M  V30 4921 C 457.696 1.61439 -1.62696 0
M  V30 4922 C 458.696 1.52824 -0.500136 0
M  V30 4923 O 459.886 1.56456 -0.765976 0
M  V30 4924 C 457.018 3.01063 -1.59918 0
M  V30 4925 H 458.211 1.50189 -2.59583 0
M  V30 4926 H 455.764 0.750055 -1.37127 0
M  V30 4927 H 456.499 3.17818 -0.645163 0
M  V30 4928 H 456.284 3.08725 -2.41726 0
M  V30 4929 H 457.774 3.80057 -1.73051 0
M  V30 4930 N 458.211 1.37122 0.776871 0
M  V30 4931 C 459.159 1.32549 1.91138 0
M  V30 4932 C 460.153 0.215119 1.68029 0
M  V30 4933 O 461.359 0.382852 1.75881 0
M  V30 4934 H 457.734 0.412952 0.62847 0
M  V30 4935 H 459.705 2.28332 1.92112 0
M  V30 4936 C 458.454 1.14422 3.28333 0
M  V30 4937 H 457.777 1.99115 3.46689 0
M  V30 4938 H 459.217 1.15272 4.0803 0
M  V30 4939 C 457.676 -0.150434 3.36564 0
M  V30 4940 O 458.206 -1.13584 3.85307 0
M  V30 4941 N 456.412 -0.19939 2.89915 0
M  V30 4942 H 455.959 0.603142 2.5044 0
M  V30 4943 H 455.917 -1.06526 2.95803 0
M  V30 4944 N 459.689 -1.00246 1.21608 0
M  V30 4945 C 460.938 -1.73476 1.02902 0
M  V30 4946 C 461.251 -1.90643 -0.437561 0
M  V30 4947 O 462.457 -2.61105 -0.74407 0
M  V30 4948 C 460.913 -3.12079 1.79261 0
M  V30 4949 C 460.521 -3.02877 3.30106 0
M  V30 4950 C 462.265 -3.89421 1.68972 0
M  V30 4951 C 460.172 -4.36575 3.98944 0
M  V30 4952 H 459.102 -0.650408 0.381425 0
M  V30 4953 H 461.753 -1.11985 1.45367 0
M  V30 4954 H 460.135 -3.74196 1.2959 0
M  V30 4955 H 461.309 -2.49983 3.87098 0
M  V30 4956 H 459.624 -2.39022 3.40965 0
M  V30 4957 H 462.221 -4.88362 2.17731 0
M  V30 4958 H 462.564 -4.1122 0.648397 0
M  V30 4959 H 463.097 -3.33963 2.16133 0
M  V30 4960 H 459.836 -4.19978 5.03288 0
M  V30 4961 H 459.356 -4.8942 3.4674 0
M  V30 4962 H 461.035 -5.05364 4.04 0
M  V30 4963 N 461.167 -1.02423 -1.1978 0
M  V30 4964 C 462.444 -0.632802 -1.85081 0
M  V30 4965 C 462.824 0.888745 -1.9148 0
M  V30 4966 O 462.172 1.78357 -1.42832 0
M  V30 4967 C 462.382 -1.28947 -3.24305 0
M  V30 4968 C 463.73 -1.40976 -4.00513 0
M  V30 4969 O 464.754 -1.24628 -3.33686 0
M  V30 4970 O 463.613 -1.67467 -5.20209 0
M  V30 4971 H 460.707 -0.219348 -0.79738 0
M  V30 4972 H 463.253 -1.12209 -1.27307 0
M  V30 4973 H 462.025 -2.3288 -3.14456 0
M  V30 4974 H 461.648 -0.787748 -3.89718 0
M  V30 4975 N 462.645 1.35699 -0.801477 0
M  V30 4976 C 463.575 2.32436 -0.222658 0
M  V30 4977 C 464.556 1.5723 0.649057 0
M  V30 4978 O 465.741 1.85324 0.580387 0
M  V30 4979 C 462.871 3.41469 0.633719 0
M  V30 4980 C 461.825 4.27774 -0.139083 0
M  V30 4981 C 461.151 5.28082 0.838666 0
M  V30 4982 C 462.451 5.04946 -1.33517 0
M  V30 4983 H 464.145 2.81094 -1.03086 0
M  V30 4984 H 461.691 1.35146 -0.497155 0
M  V30 4985 H 463.644 4.08143 1.04868 0
M  V30 4986 H 462.368 2.91408 1.47475 0
M  V30 4987 H 461.027 3.62673 -0.535156 0
M  V30 4988 H 460.675 4.7429 1.67506 0
M  V30 4989 H 460.375 5.86695 0.32594 0
M  V30 4990 H 461.899 5.97628 1.25194 0
M  V30 4991 H 463.313 5.64593 -0.995349 0
M  V30 4992 H 461.71 5.7303 -1.78202 0
M  V30 4993 H 462.78 4.35886 -2.12442 0
M  V30 4994 N 464.123 0.554532 1.47522 0
M  V30 4995 C 465.086 -0.184174 2.28459 0
M  V30 4996 C 466.086 -0.845195 1.36796 0
M  V30 4997 O 467.276 -0.701467 1.59452 0
M  V30 4998 C 464.408 -1.26903 3.16399 0
M  V30 4999 H 465.601 0.526751 2.95238 0
M  V30 5000 H 463.154 0.311375 1.53167 0
M  V30 5001 H 463.889 -2.01244 2.54306 0
M  V30 5002 H 463.674 -0.799883 3.83854 0
M  V30 5003 H 465.164 -1.78794 3.77389 0
M  V30 5004 N 465.601 -1.54893 0.290851 0
M  V30 5005 C 466.531 -2.26103 -0.583084 0
M  V30 5006 C 467.512 -1.25684 -1.14619 0
M  V30 5007 O 468.697 -1.54436 -1.17741 0
M  V30 5008 C 465.827 -2.99409 -1.75987 0
M  V30 5009 C 464.781 -4.0689 -1.32758 0
M  V30 5010 C 464.107 -4.67856 -2.58872 0
M  V30 5011 C 465.407 -5.20215 -0.46624 0
M  V30 5012 H 467.101 -2.99398 0.0108214 0
M  V30 5013 H 464.647 -1.43998 0.00664468 0
M  V30 5014 H 466.6 -3.47943 -2.37727 0
M  V30 5015 H 465.324 -2.23675 -2.37985 0
M  V30 5016 H 463.983 -3.59191 -0.733299 0
M  V30 5017 H 463.631 -3.88772 -3.19163 0
M  V30 5018 H 463.331 -5.40438 -2.30653 0
M  V30 5019 H 464.855 -5.19147 -3.21433 0
M  V30 5020 H 466.269 -5.64704 -0.989047 0
M  V30 5021 H 464.666 -5.99455 -0.27826 0
M  V30 5022 H 465.736 -4.82198 0.511173 0
M  V30 5023 N 467.08 -0.0183926 -1.57589 0
M  V30 5024 C 467.99 0.982943 -2.13015 0
M  V30 5025 C 469.006 1.36443 -1.07979 0
M  V30 5026 O 470.182 1.44802 -1.3998 0
M  V30 5027 C 467.247 2.25024 -2.63752 0
M  V30 5028 C 466.308 1.93018 -3.83461 0
M  V30 5029 C 465.541 3.13706 -4.31769 0
M  V30 5030 O 465.764 4.2601 -3.79305 0
M  V30 5031 O 464.698 2.96629 -5.23732 0
M  V30 5032 H 468.524 0.541709 -2.9883 0
M  V30 5033 H 466.109 0.201565 -1.48034 0
M  V30 5034 H 467.991 2.99441 -2.96502 0
M  V30 5035 H 466.666 2.68349 -1.81026 0
M  V30 5036 H 465.573 1.16019 -3.55655 0
M  V30 5037 H 466.906 1.54516 -4.67317 0
M  V30 5038 N 468.558 1.5553 0.254621 0
M  V30 5039 C 469.49 1.86104 1.33783 0
M  V30 5040 C 470.503 0.746752 1.44663 0
M  V30 5041 O 471.692 1.0248 1.46151 0
M  V30 5042 C 468.792 2.02532 2.71724 0
M  V30 5043 C 467.965 3.33335 2.83208 0
M  V30 5044 C 467.024 3.396 4.01943 0
M  V30 5045 O 466.05 4.12862 3.91834 0
M  V30 5046 N 467.252 2.68332 5.1476 0
M  V30 5047 H 470.017 2.79605 1.07893 0
M  V30 5048 H 467.578 1.55672 0.444732 0
M  V30 5049 H 469.57 2.04074 3.4948 0
M  V30 5050 H 468.14 1.15811 2.90356 0
M  V30 5051 H 467.36 3.44176 1.92189 0
M  V30 5052 H 468.648 4.19565 2.87824 0
M  V30 5053 H 468.046 2.08528 5.25864 0
M  V30 5054 H 466.603 2.75575 5.90679 0
M  V30 5055 N 470.036 -0.519951 1.48776 0
M  V30 5056 C 471.284 -1.2727 1.56993 0
M  V30 5057 C 471.605 -1.9339 0.25004 0
M  V30 5058 O 470.875 -1.81822 -0.729216 0
M  V30 5059 H 469.455 -0.472732 0.578389 0
M  V30 5060 H 472.117 -0.604234 1.85297 0
M  V30 5061 H 471.213 -2.04669 2.3562 0
M  V30 5062 N 471.514 -1.37532 -0.769588 0
M  V30 5063 C 472.791 -1.23392 -1.51768 0
M  V30 5064 C 473.171 0.17157 -2.10402 0
M  V30 5065 O 472.519 1.17943 -1.95708 0
M  V30 5066 C 472.729 -2.33163 -2.59685 0
M  V30 5067 C 474.077 -2.70809 -3.27028 0
M  V30 5068 O 475.101 -2.32355 -2.69981 0
M  V30 5069 O 473.96 -3.37066 -4.30173 0
M  V30 5070 H 471.054 -0.481617 -0.67229 0
M  V30 5071 H 473.6 -1.49318 -0.806368 0
M  V30 5072 H 472.372 -3.27273 -2.14494 0
M  V30 5073 H 471.995 -2.08713 -3.38415 0
M  V30 5074 N 472.992 0.995999 -1.22138 0
M  V30 5075 C 473.955 2.06711 -0.990109 0
M  V30 5076 C 474.955 1.60744 0.0422978 0
M  V30 5077 O 476.145 1.73095 -0.195895 0
M  V30 5078 C 473.277 3.37288 -0.49491 0
M  V30 5079 H 474.47 2.28661 -1.94047 0
M  V30 5080 H 472.023 1.16711 -1.03963 0
M  V30 5081 H 472.758 3.21022 0.459948 0
M  V30 5082 H 472.543 3.71986 -1.23971 0
M  V30 5083 H 474.033 4.16103 -0.353253 0
M  V30 5084 N 474.47 1.03057 1.19235 0
M  V30 5085 C 475.4 0.633497 2.24742 0
M  V30 5086 C 476.381 -0.358335 1.66283 0
M  V30 5087 O 477.566 -0.240676 1.92703 0
M  V30 5088 C 474.696 -0.0147648 3.47297 0
M  V30 5089 C 473.65 0.899527 4.18441 0
M  V30 5090 C 472.976 0.116281 5.34574 0
M  V30 5091 C 474.276 2.21404 4.73051 0
M  V30 5092 H 475.97 1.5155 2.58211 0
M  V30 5093 H 473.516 0.73014 1.24117 0
M  V30 5094 H 475.469 -0.304202 4.20301 0
M  V30 5095 H 474.193 -0.931577 3.13032 0
M  V30 5096 H 472.852 1.17319 3.47321 0
M  V30 5097 H 472.5 -0.802619 4.96555 0
M  V30 5098 H 472.2 0.725293 5.83107 0
M  V30 5099 H 473.724 -0.166376 6.10373 0
M  V30 5100 H 475.138 1.98601 5.37802 0
M  V30 5101 H 473.535 2.77512 5.32078 0
M  V30 5102 H 474.605 2.86752 3.91026 0
M  V30 5103 N 475.948 -1.35272 0.808662 0
M  V30 5104 C 476.911 -2.28082 0.226093 0
M  V30 5105 C 477.911 -1.49673 -0.587762 0
M  V30 5106 O 479.101 -1.69404 -0.405943 0
M  V30 5107 C 476.233 -3.33955 -0.684596 0
M  V30 5108 H 477.426 -2.81116 1.04469 0
M  V30 5109 H 474.979 -1.45162 0.579466 0
M  V30 5110 H 475.714 -2.86111 -1.5268 0
M  V30 5111 H 475.499 -3.91965 -0.102699 0
M  V30 5112 H 476.989 -4.03219 -1.08646 0
M  V30 5113 N 477.426 -0.562348 -1.47226 0
M  V30 5114 C 478.356 0.170627 -2.32876 0
M  V30 5115 C 479.337 0.903748 -1.44106 0
M  V30 5116 O 480.522 0.883206 -1.72954 0
M  V30 5117 C 477.652 1.19786 -3.25989 0
M  V30 5118 C 476.606 0.580875 -4.2404 0
M  V30 5119 C 475.932 1.71311 -5.06514 0
M  V30 5120 C 477.232 -0.468714 -5.20193 0
M  V30 5121 H 478.926 -0.544441 -2.94408 0
M  V30 5122 H 476.472 -0.263271 -1.41573 0
M  V30 5123 H 478.425 1.71884 -3.84752 0
M  V30 5124 H 477.149 1.94294 -2.62521 0
M  V30 5125 H 475.808 0.0811538 -3.6651 0
M  V30 5126 H 475.456 2.44736 -4.39447 0
M  V30 5127 H 475.156 1.30604 -5.72902 0
M  V30 5128 H 476.68 2.23725 -5.68137 0
M  V30 5129 H 478.094 -0.0336028 -5.7329 0
M  V30 5130 H 476.491 -0.794957 -5.94811 0
M  V30 5131 H 477.561 -1.36269 -4.65359 0
M  V30 5132 N 478.904 1.54736 -0.299062 0
M  V30 5133 C 480.151 2.00101 0.310784 0
M  V30 5134 C 480.479 1.18746 1.54045 0
M  V30 5135 O 479.734 0.251198 1.94081 0
M  V30 5136 C 480.033 3.50199 0.713835 0
M  V30 5137 C 479.699 4.48997 -0.413873 0
M  V30 5138 C 478.361 4.7573 -0.723462 0
M  V30 5139 C 480.713 5.07839 -1.17257 0
M  V30 5140 C 478.041 5.5857 -1.79491 0
M  V30 5141 C 480.393 5.91844 -2.23392 0
M  V30 5142 C 479.057 6.16889 -2.54959 0
M  V30 5143 H 478.327 0.732221 0.113724 0
M  V30 5144 H 480.974 1.86888 -0.417756 0
M  V30 5145 H 479.279 3.61012 1.52243 0
M  V30 5146 H 480.976 3.82723 1.19684 0
M  V30 5147 H 477.566 4.28292 -0.162476 0
M  V30 5148 H 481.75 4.87188 -0.946651 0
M  V30 5149 H 477.006 5.76213 -2.04423 0
M  V30 5150 H 481.18 6.36465 -2.8264 0
M  V30 5151 H 478.807 6.80869 -3.38114 0
M  V30 5152 N 480.382 0.0267497 1.57577 0
M  V30 5153 C 481.798 -0.32962 1.56159 0
M  V30 5154 C 481.998 -1.73059 1.03213 0
M  V30 5155 O 481.054 -2.43233 0.677804 0
M  V30 5156 C 482.367 -0.18039 3.00158 0
M  V30 5157 C 483.915 -0.253334 3.11973 0
M  V30 5158 C 484.39 -0.132921 4.57807 0
M  V30 5159 N 485.881 -0.189979 4.6281 0
M  V30 5160 C 486.616 -0.120554 5.73273 0
M  V30 5161 N 486.112 -0.000180315 6.928 0
M  V30 5162 N 487.905 -0.174369 5.61829 0
M  V30 5163 H 480.056 0.942896 1.90324 0
M  V30 5164 H 482.319 0.3639 0.875375 0
M  V30 5165 H 482.025 0.784576 3.42837 0
M  V30 5166 H 481.899 -0.951565 3.65 0
M  V30 5167 H 484.286 -1.20876 2.69208 0
M  V30 5168 H 484.367 0.548177 2.49857 0
M  V30 5169 H 484.011 0.819073 5.01252 0
M  V30 5170 H 483.941 -0.953264 5.179 0
M  V30 5171 H 486.432 -0.283257 3.76837 0
M  V30 5172 H 486.745 0.0461666 7.72786 0
M  V30 5173 H 485.09 0.034569 6.94991 0
M  V30 5174 H 488.281 -0.266794 4.67339 0
M  V30 5175 H 488.454 -0.116802 6.47895 0
M  V30 5176 N 481.861 -1.55662 -0.24637 0
M  V30 5177 C 482.824 -1.89558 -1.28842 0
M  V30 5178 C 483.824 -0.772082 -1.41052 0
M  V30 5179 O 485.014 -1.04007 -1.39743 0
M  V30 5180 C 482.146 -2.12449 -2.66605 0
M  V30 5181 H 483.339 -2.82735 -1.00004 0
M  V30 5182 H 480.892 -1.48562 -0.485684 0
M  V30 5183 H 481.627 -1.21742 -3.00582 0
M  V30 5184 H 481.412 -2.94273 -2.59125 0
M  V30 5185 H 482.902 -2.39854 -3.41847 0
M  V30 5186 N 483.339 0.512053 -1.4905 0
M  V30 5187 C 484.269 1.62365 -1.67809 0
M  V30 5188 C 485.25 1.61737 -0.526809 0
M  V30 5189 O 486.435 1.78651 -0.761404 0
M  V30 5190 C 483.565 3.00895 -1.73435 0
M  V30 5191 C 482.519 3.16387 -2.88242 0
M  V30 5192 C 481.845 4.56157 -2.78971 0
M  V30 5193 C 483.145 2.97457 -4.29321 0
M  V30 5194 H 484.839 1.46921 -2.60873 0
M  V30 5195 H 482.385 0.705379 -1.2554 0
M  V30 5196 H 484.338 3.78549 -1.85145 0
M  V30 5197 H 483.062 3.17403 -0.769619 0
M  V30 5198 H 481.721 2.41155 -2.76116 0
M  V30 5199 H 481.369 4.69525 -1.8043 0
M  V30 5200 H 481.069 4.67465 -3.5602 0
M  V30 5201 H 482.593 5.35886 -2.92675 0
M  V30 5202 H 484.007 3.64888 -4.42187 0
M  V30 5203 H 482.404 3.20245 -5.07507 0
M  V30 5204 H 483.474 1.93692 -4.44535 0
M  V30 5205 N 484.817 1.37938 0.762283 0
M  V30 5206 C 485.749 1.30349 1.88525 0
M  V30 5207 C 486.762 0.217402 1.61342 0
M  V30 5208 O 487.951 0.474291 1.72084 0
M  V30 5209 C 485.051 0.994844 3.23969 0
M  V30 5210 C 484.224 2.18829 3.78725 0
M  V30 5211 C 483.283 1.84844 4.92665 0
M  V30 5212 O 482.309 2.57244 5.07754 0
M  V30 5213 N 483.511 0.798201 5.74986 0
M  V30 5214 H 486.276 2.27114 1.95549 0
M  V30 5215 H 483.837 1.31686 0.941825 0
M  V30 5216 H 485.829 0.748168 3.97724 0
M  V30 5217 H 484.399 0.115446 3.12387 0
M  V30 5218 H 483.619 2.59615 2.96637 0
M  V30 5219 H 484.907 2.98497 4.1204 0
M  V30 5220 H 484.305 0.197611 5.65355 0
M  V30 5221 H 482.862 0.611396 6.48926 0
M  V30 5222 N 486.295 -0.989507 1.22664 0
M  V30 5223 C 487.52 -1.77031 1.08051 0
M  V30 5224 C 487.945 -1.84535 -0.364483 0
M  V30 5225 O 487.303 -1.3003 -1.2634 0
M  V30 5226 C 487.351 -3.18 1.70024 0
M  V30 5227 O 486.455 -4.01161 0.956216 0
M  V30 5228 H 485.796 -0.545008 0.379292 0
M  V30 5229 H 488.326 -1.24277 1.62531 0
M  V30 5230 H 488.336 -3.68616 1.74888 0
M  V30 5231 H 487.011 -3.11853 2.75174 0
M  V30 5232 H 485.588 -3.59687 0.98384 0
M  V30 5233 N 487.773 -1.03688 -1.18687 0
M  V30 5234 C 489.184 -0.766488 -1.70241 0
M  V30 5235 C 489.535 0.713052 -1.82784 0
M  V30 5236 O 488.66 1.55529 -1.50465 0
M  V30 5237 C 489.255 -1.38475 -3.09209 0
M  V30 5238 C 487.814 -1.16276 -3.5799 0
M  V30 5239 C 486.961 -1.4778 -2.34641 0
M  V30 5240 H 489.912 -1.20378 -1.03415 0
M  V30 5241 H 489.933 -0.785939 -3.72295 0
M  V30 5242 H 489.445 -2.46157 -3.00048 0
M  V30 5243 H 487.546 -0.104508 -3.72453 0
M  V30 5244 H 487.659 -1.8571 -4.41643 0
M  V30 5245 H 486.023 -0.897366 -2.38368 0
M  V30 5246 H 486.806 -2.56562 -2.28102 0
M  V30 5247 N 489.251 1.34841 -0.815825 0
M  V30 5248 C 490.214 2.27959 -0.238185 0
M  V30 5249 C 491.214 1.49983 0.579816 0
M  V30 5250 O 492.404 1.69617 0.396953 0
M  V30 5251 C 489.536 3.34314 0.666876 0
M  V30 5252 H 490.729 2.80558 -1.05958 0
M  V30 5253 H 488.282 1.44852 -0.587156 0
M  V30 5254 H 489.017 2.86916 1.5116 0
M  V30 5255 H 488.802 3.92014 0.0819106 0
M  V30 5256 H 490.292 4.0379 1.06506 0
M  V30 5257 N 490.729 0.570148 1.46925 0
M  V30 5258 C 491.659 -0.158274 2.32963 0
M  V30 5259 C 492.64 -0.896093 1.44583 0
M  V30 5260 O 493.825 -0.874022 1.7342 0
M  V30 5261 C 490.955 -1.18055 3.26619 0
M  V30 5262 C 489.909 -0.558379 4.24342 0
M  V30 5263 C 489.235 -1.68623 5.07415 0
M  V30 5264 C 490.535 0.496295 5.19937 0
M  V30 5265 H 492.229 0.560046 2.94115 0
M  V30 5266 H 489.775 0.270775 1.41431 0
M  V30 5267 H 491.728 -1.69841 3.85658 0
M  V30 5268 H 490.452 -1.92899 2.63548 0
M  V30 5269 H 489.111 -0.0617157 3.66548 0
M  V30 5270 H 488.759 -2.42402 4.40738 0
M  V30 5271 H 488.459 -1.27564 5.73586 0
M  V30 5272 H 489.983 -2.20709 5.69315 0
M  V30 5273 H 491.397 0.0640052 5.73264 0
M  V30 5274 H 489.794 0.82649 5.94381 0
M  V30 5275 H 490.864 1.38735 4.6463 0
M  V30 5276 N 492.207 -1.54576 0.307264 0
M  V30 5277 C 493.455 -1.99867 -0.299574 0
M  V30 5278 C 493.776 -1.19714 -1.53927 0
M  V30 5279 O 493.046 -0.29472 -1.9367 0
M  V30 5280 H 491.626 -0.738299 -0.113683 0
M  V30 5281 H 494.288 -1.9032 0.420042 0
M  V30 5282 H 493.384 -3.06901 -0.567283 0
M  V30 5283 N 493.685 -0.035106 -1.57561 0
M  V30 5284 C 494.615 0.942993 -2.13612 0
M  V30 5285 C 495.596 1.33531 -1.05373 0
M  V30 5286 O 496.781 1.41287 -1.33235 0
M  V30 5287 C 493.911 2.22332 -2.66807 0
M  V30 5288 C 492.865 1.97156 -3.79886 0
M  V30 5289 C 492.191 3.31506 -4.19533 0
M  V30 5290 C 493.491 1.30596 -5.05709 0
M  V30 5291 H 495.185 0.476179 -2.95589 0
M  V30 5292 H 492.731 0.227602 -1.4219 0
M  V30 5293 H 494.684 2.91142 -3.04654 0
M  V30 5294 H 493.408 2.7119 -1.81999 0
M  V30 5295 H 492.067 1.30763 -3.42486 0
M  V30 5296 H 491.715 3.78134 -3.31698 0
M  V30 5297 H 491.415 3.15465 -4.95738 0
M  V30 5298 H 492.939 4.01574 -4.59968 0
M  V30 5299 H 494.353 1.89416 -5.41105 0
M  V30 5300 H 492.75 1.24934 -5.86951 0
M  V30 5301 H 493.82 0.279742 -4.84092 0
M  V30 5302 N 495.163 1.55791 0.238111 0
M  V30 5303 C 496.579 1.48411 0.587045 0
M  V30 5304 C 496.779 0.72702 1.87927 0
M  V30 5305 O 495.835 0.259942 2.51158 0
M  V30 5306 C 497.148 2.92873 0.681623 0
M  V30 5307 C 498.696 3.03295 0.773363 0
M  V30 5308 C 499.171 4.49082 0.899428 0
M  V30 5309 N 500.662 4.53056 0.964075 0
M  V30 5310 C 501.397 5.63117 1.08104 0
M  V30 5311 N 500.893 6.82969 1.16299 0
M  V30 5312 N 502.686 5.50933 1.11488 0
M  V30 5313 H 494.837 2.0345 -0.610076 0
M  V30 5314 H 497.1 0.924034 -0.211813 0
M  V30 5315 H 496.806 3.51142 -0.19802 0
M  V30 5316 H 496.68 3.43851 1.55069 0
M  V30 5317 H 499.067 2.45101 1.64346 0
M  V30 5318 H 499.148 2.55513 -0.121034 0
M  V30 5319 H 498.792 5.07889 0.0338586 0
M  V30 5320 H 498.722 4.94553 1.809 0
M  V30 5321 H 501.213 3.66737 0.91173 0
M  V30 5322 H 501.526 7.62598 1.25155 0
M  V30 5323 H 499.871 6.85712 1.13241 0
M  V30 5324 H 503.062 4.56231 1.0474 0
M  V30 5325 H 503.235 6.36743 1.20259 0
M  V30 5326 N 496.642 -0.504142 1.49319 0
M  V30 5327 C 497.89 -1.25598 1.58334 0
M  V30 5328 C 498.211 -1.93114 0.270538 0
M  V30 5329 O 497.481 -1.82585 -0.709891 0
M  V30 5330 H 496.061 -0.466571 0.58337 0
M  V30 5331 H 498.723 -0.584547 1.85928 0
M  V30 5332 H 497.819 -2.02159 2.37778 0
M  V30 5333 N 498.12 -1.38341 -0.754957 0
M  V30 5334 C 499.05 -1.38176 -1.88227 0
M  V30 5335 C 500.031 -0.247873 -1.68284 0
M  V30 5336 O 501.216 -0.45075 -1.88896 0
M  V30 5337 C 498.346 -1.20471 -3.25736 0
M  V30 5338 C 497.3 -2.3105 -3.60278 0
M  V30 5339 C 496.626 -1.98452 -4.96509 0
M  V30 5340 C 497.926 -3.73305 -3.65295 0
M  V30 5341 H 499.62 -2.32512 -1.88622 0
M  V30 5342 H 497.166 -1.1192 -0.906082 0
M  V30 5343 H 499.119 -1.18982 -4.04254 0
M  V30 5344 H 497.843 -0.225965 -3.25817 0
M  V30 5345 H 496.502 -2.31723 -2.84078 0
M  V30 5346 H 496.15 -0.990641 -4.93148 0
M  V30 5347 H 495.85 -2.7251 -5.20588 0
M  V30 5348 H 497.374 -1.98578 -5.77407 0
M  V30 5349 H 498.788 -3.7467 -4.3393 0
M  V30 5350 H 497.185 -4.46557 -4.00883 0
M  V30 5351 H 498.255 -4.05719 -2.65556 0
M  V30 5352 N 499.598 0.982988 -1.23187 0
M  V30 5353 C 500.53 2.07729 -0.968572 0
M  V30 5354 C 501.543 1.62702 0.0564821 0
M  V30 5355 O 502.732 1.77603 -0.178733 0
M  V30 5356 C 499.832 3.36071 -0.436974 0
M  V30 5357 C 499.005 4.10081 -1.52159 0
M  V30 5358 C 498.064 5.16701 -0.99532 0
M  V30 5359 O 497.09 5.43727 -1.68373 0
M  V30 5360 N 498.292 5.80226 0.178192 0
M  V30 5361 H 501.057 2.30894 -1.9107 0
M  V30 5362 H 498.618 1.14949 -1.1401 0
M  V30 5363 H 500.61 4.04639 -0.0700051 0
M  V30 5364 H 499.18 3.09893 0.410509 0
M  V30 5365 H 498.4 3.36004 -2.06144 0
M  V30 5366 H 499.688 4.56295 -2.25105 0
M  V30 5367 H 499.086 5.60651 0.754096 0
M  V30 5368 H 497.643 6.49982 0.486449 0
M  V30 5369 N 501.076 1.04316 1.18135 0
M  V30 5370 C 502.008 0.594444 2.21357 0
M  V30 5371 C 503.021 -0.337215 1.59269 0
M  V30 5372 O 504.21 -0.131337 1.78016 0
M  V30 5373 C 501.31 -0.151251 3.38562 0
M  V30 5374 C 500.483 0.788907 4.30227 0
M  V30 5375 C 499.542 0.0860572 5.2613 0
M  V30 5376 O 498.568 0.717302 5.64662 0
M  V30 5377 N 499.77 -1.17969 5.68387 0
M  V30 5378 H 502.535 1.48227 2.60478 0
M  V30 5379 H 500.096 0.92396 1.32946 0
M  V30 5380 H 502.088 -0.631352 3.99745 0
M  V30 5381 H 500.658 -0.940639 2.98112 0
M  V30 5382 H 499.878 1.44882 3.6661 0
M  V30 5383 H 501.166 1.42738 4.88368 0
M  V30 5384 H 500.564 -1.71302 5.3914 0
M  V30 5385 H 499.121 -1.60402 6.31755 0
M  V30 5386 N 502.554 -1.34406 0.822964 0
M  V30 5387 C 503.486 -2.28305 0.202375 0
M  V30 5388 C 504.499 -1.5103 -0.60777 0
M  V30 5389 O 505.688 -1.73057 -0.437444 0
M  V30 5390 C 502.788 -3.30836 -0.734911 0
M  V30 5391 C 501.961 -4.37388 0.0324177 0
M  V30 5392 C 501.02 -5.1968 -0.825803 0
M  V30 5393 O 500.046 -5.68556 -0.270771 0
M  V30 5394 N 501.248 -5.39393 -2.14558 0
M  V30 5395 H 504.013 -2.82201 1.00909 0
M  V30 5396 H 501.574 -1.4693 0.67993 0
M  V30 5397 H 503.566 -3.82786 -1.31365 0
M  V30 5398 H 502.136 -2.77334 -1.44238 0
M  V30 5399 H 501.356 -3.86152 0.792469 0
M  V30 5400 H 502.644 -5.05702 0.560633 0
M  V30 5401 H 502.042 -5.01357 -2.62025 0
M  V30 5402 H 500.599 -5.94461 -2.67318 0
M  V30 5403 N 504.032 -0.577932 -1.46621 0
M  V30 5404 C 504.98 0.170882 -2.31971 0
M  V30 5405 C 505.974 0.889086 -1.44193 0
M  V30 5406 O 507.18 0.808017 -1.60845 0
M  V30 5407 H 503.555 0.0739763 -0.748353 0
M  V30 5408 H 505.526 -0.567856 -2.92947 0
M  V30 5409 C 504.275 1.17438 -3.27267 0
M  V30 5410 H 503.598 0.63116 -3.94787 0
M  V30 5411 H 505.038 1.66882 -3.89778 0
M  V30 5412 C 503.497 2.23292 -2.52274 0
M  V30 5413 O 504.027 3.30567 -2.28229 0
M  V30 5414 N 502.233 1.97772 -2.12919 0
M  V30 5415 H 501.78 1.10545 -2.32675 0
M  V30 5416 H 501.738 2.68809 -1.63062 0
M  V30 5417 N 505.51 1.54411 -0.315457 0
M  V30 5418 C 506.735 2.05299 0.294496 0
M  V30 5419 C 507.16 1.19052 1.4563 0
M  V30 5420 O 506.518 0.197804 1.80218 0
M  V30 5421 C 506.566 3.5345 0.714549 0
M  V30 5422 O 505.67 3.70175 1.81781 0
M  V30 5423 H 505.011 0.661743 0.0547019 0
M  V30 5424 H 507.541 1.99327 -0.461508 0
M  V30 5425 H 507.551 3.9557 0.999426 0
M  V30 5426 H 506.226 4.1568 -0.135244 0
M  V30 5427 H 504.803 3.3996 1.53236 0
M  V30 5428 N 506.988 0.0434614 1.5754 0
M  V30 5429 C 508.265 -0.671479 1.83713 0
M  V30 5430 C 508.645 -1.89495 0.930315 0
M  V30 5431 O 507.993 -2.28498 -0.0105639 0
M  V30 5432 C 508.203 -1.0361 3.33266 0
M  V30 5433 C 509.551 -1.42167 4.00092 0
M  V30 5434 O 510.575 -1.12866 3.37846 0
M  V30 5435 O 509.434 -1.96817 5.09829 0
M  V30 5436 H 506.528 -0.330726 0.75799 0
M  V30 5437 H 509.074 0.0722373 1.69546 0
M  V30 5438 H 507.846 -0.165938 3.90948 0
M  V30 5439 H 507.469 -1.83751 3.52592 0
M  V30 5440 N 508.466 -1.55915 -0.229846 0
M  V30 5441 C 509.712 -1.79718 -0.952517 0
M  V30 5442 C 510.067 -0.61514 -1.82301 0
M  V30 5443 O 509.36 0.391098 -1.87566 0
M  V30 5444 C 509.554 -3.06845 -1.8325 0
M  V30 5445 C 509.383 -4.37302 -1.04868 0
M  V30 5446 C 508.153 -4.99749 -0.746932 0
M  V30 5447 C 510.351 -5.12599 -0.417989 0
M  V30 5448 N 508.333 -6.13871 0.0591596 0
M  V30 5449 C 509.704 -6.19488 0.251879 0
M  V30 5450 C 511.759 -4.96804 -0.33018 0
M  V30 5451 C 510.462 -7.12299 1.00115 0
M  V30 5452 C 512.488 -5.90007 0.4056 0
M  V30 5453 C 511.85 -6.96317 1.06404 0
M  V30 5454 H 507.949 -0.709382 -0.329091 0
M  V30 5455 H 510.533 -1.93406 -0.224114 0
M  V30 5456 H 508.704 -2.94456 -2.53279 0
M  V30 5457 H 510.436 -3.18874 -2.49202 0
M  V30 5458 H 507.191 -4.61518 -1.06292 0
M  V30 5459 H 507.615 -6.75497 0.450798 0
M  V30 5460 H 512.257 -4.14675 -0.824898 0
M  V30 5461 H 509.975 -7.93916 1.50741 0
M  V30 5462 H 513.561 -5.79862 0.474436 0
M  V30 5463 H 512.441 -7.67194 1.62429 0
M  V30 5464 N 509.944 0.496216 -1.49584 0
M  V30 5465 C 511.174 1.27209 -1.62793 0
M  V30 5466 C 511.582 1.86799 -0.300476 0
M  V30 5467 O 510.925 1.68802 0.724674 0
M  V30 5468 C 510.987 2.43812 -2.64189 0
M  V30 5469 C 510.651 2.05055 -4.08414 0
M  V30 5470 C 511.648 1.58752 -4.9507 0
M  V30 5471 C 509.333 2.14543 -4.54177 0
M  V30 5472 C 511.327 1.22448 -6.25528 0
M  V30 5473 C 509.014 1.77851 -5.84647 0
M  V30 5474 C 510.012 1.31878 -6.70147 0
M  V30 5475 O 509.7 0.956834 -7.98185 0
M  V30 5476 H 509.432 0.391848 -0.550846 0
M  V30 5477 H 511.986 0.601712 -1.96389 0
M  V30 5478 H 510.216 3.13941 -2.25783 0
M  V30 5479 H 511.905 3.05829 -2.66877 0
M  V30 5480 H 512.671 1.50863 -4.60939 0
M  V30 5481 H 508.55 2.49277 -3.87791 0
M  V30 5482 H 512.094 0.864933 -6.92217 0
M  V30 5483 H 507.991 1.8539 -6.18305 0
M  V30 5484 H 508.759 1.08789 -8.11238 0
M  V30 5485 N 511.423 1.38739 0.74761 0
M  V30 5486 C 512.353 1.39173 1.87492 0
M  V30 5487 C 513.334 0.256794 1.6815 0
M  V30 5488 O 514.519 0.460762 1.88655 0
M  V30 5489 C 511.649 1.22197 3.25093 0
M  V30 5490 C 510.603 2.32957 3.59047 0
M  V30 5491 C 509.929 2.01082 4.95449 0
M  V30 5492 C 511.229 3.75237 3.6331 0
M  V30 5493 H 512.923 2.3351 1.87386 0
M  V30 5494 H 510.469 1.12399 0.900134 0
M  V30 5495 H 512.422 1.21124 4.03617 0
M  V30 5496 H 511.146 0.243241 3.25693 0
M  V30 5497 H 509.805 2.33226 2.82845 0
M  V30 5498 H 509.453 1.01678 4.92616 0
M  V30 5499 H 509.153 2.75267 5.19136 0
M  V30 5500 H 510.677 2.01638 5.76346 0
M  V30 5501 H 512.091 3.76966 4.31937 0
M  V30 5502 H 510.488 4.48677 3.98509 0
M  V30 5503 H 511.558 4.07122 2.634 0
M  V30 5504 N 512.901 -0.976442 1.23707 0
M  V30 5505 C 513.848 -2.06952 1.02174 0
M  V30 5506 C 514.818 -1.65984 -0.0621034 0
M  V30 5507 O 516.003 -1.90584 0.0907906 0
M  V30 5508 C 513.143 -3.39425 0.62327 0
M  V30 5509 C 512.256 -3.9364 1.77966 0
M  V30 5510 C 511.391 -5.14343 1.3276 0
M  V30 5511 C 510.43 -5.60733 2.45449 0
M  V30 5512 N 509.567 -6.72662 2.01172 0
M  V30 5513 H 514.407 -2.24704 1.95734 0
M  V30 5514 H 511.944 -1.10143 0.975034 0
M  V30 5515 H 513.902 -4.15526 0.37332 0
M  V30 5516 H 512.532 -3.21624 -0.275329 0
M  V30 5517 H 511.584 -3.14258 2.14351 0
M  V30 5518 H 512.896 -4.24035 2.62671 0
M  V30 5519 H 512.05 -5.97789 1.03601 0
M  V30 5520 H 510.789 -4.8561 0.450975 0
M  V30 5521 H 509.794 -4.75865 2.75378 0
M  V30 5522 H 511.019 -5.91483 3.33654 0
M  V30 5523 H 508.965 -6.45681 1.15895 0
M  V30 5524 H 508.882 -7.02462 2.79434 0
M  V30 5525 H 510.15 -7.59572 1.75129 0
M  V30 5526 N 514.379 -1.04941 -1.1758 0
M  V30 5527 C 515.311 -0.606174 -2.21039 0
M  V30 5528 C 516.324 0.328763 -1.59446 0
M  V30 5529 O 517.513 0.121895 -1.78083 0
M  V30 5530 C 514.613 0.133294 -3.38638 0
M  V30 5531 C 513.786 -0.811711 -4.29802 0
M  V30 5532 C 512.845 -0.113958 -5.26077 0
M  V30 5533 O 511.871 -0.747237 -5.64274 0
M  V30 5534 N 513.073 1.14953 -5.69004 0
M  V30 5535 H 515.838 -1.49606 -2.59689 0
M  V30 5536 H 513.399 -0.930997 -1.32454 0
M  V30 5537 H 515.391 0.610144 -4.00074 0
M  V30 5538 H 513.961 0.924816 -2.98607 0
M  V30 5539 H 513.181 -1.46824 -3.65837 0
M  V30 5540 H 514.469 -1.45326 -4.87604 0
M  V30 5541 H 513.867 1.68441 -5.40041 0
M  V30 5542 H 512.424 1.57049 -6.32597 0
M  V30 5543 N 515.857 1.33968 -0.830081 0
M  V30 5544 C 516.787 2.31911 -0.271911 0
M  V30 5545 C 517.768 1.58571 0.61556 0
M  V30 5546 O 518.953 1.86514 0.540946 0
M  V30 5547 C 516.083 3.42737 0.561146 0
M  V30 5548 C 515.037 4.27383 -0.229789 0
M  V30 5549 C 514.363 5.29742 0.726463 0
M  V30 5550 C 515.663 5.02 -1.44197 0
M  V30 5551 H 517.357 2.78844 -1.09025 0
M  V30 5552 H 514.903 1.34061 -0.52571 0
M  V30 5553 H 516.856 4.10276 0.961867 0
M  V30 5554 H 515.58 2.94471 1.41261 0
M  V30 5555 H 514.239 3.61456 -0.611964 0
M  V30 5556 H 513.887 4.77736 1.57408 0
M  V30 5557 H 513.587 5.87255 0.20142 0
M  V30 5558 H 515.111 6.00149 1.12489 0
M  V30 5559 H 516.525 5.62355 -1.11488 0
M  V30 5560 H 514.922 5.69122 -1.90317 0
M  V30 5561 H 515.992 4.31281 -2.2164 0
M  V30 5562 N 517.335 0.585699 1.46312 0
M  V30 5563 C 518.265 -0.133556 2.33118 0
M  V30 5564 C 519.246 -0.880707 1.45525 0
M  V30 5565 O 520.431 -0.855579 1.74337 0
M  V30 5566 C 517.561 -1.14585 3.27853 0
M  V30 5567 C 516.515 -0.513341 4.2491 0
M  V30 5568 C 515.841 -1.63231 5.09175 0
M  V30 5569 C 517.141 0.551413 5.19381 0
M  V30 5570 H 518.835 0.59121 2.93505 0
M  V30 5571 H 516.381 0.285761 1.41136 0
M  V30 5572 H 518.334 -1.65741 3.87438 0
M  V30 5573 H 517.058 -1.90093 2.65579 0
M  V30 5574 H 515.717 -0.0228349 3.66593 0
M  V30 5575 H 515.365 -2.37713 4.43285 0
M  V30 5576 H 515.065 -1.21473 5.74907 0
M  V30 5577 H 516.589 -2.14658 5.71624 0
M  V30 5578 H 518.003 0.124804 5.73164 0
M  V30 5579 H 516.4 0.889486 5.93471 0
M  V30 5580 H 517.47 1.43655 4.63132 0
M  V30 5581 N 518.813 -1.54241 0.323641 0
M  V30 5582 C 520.038 -2.05452 -0.283605 0
M  V30 5583 C 520.463 -1.19823 -1.44997 0
M  V30 5584 O 519.821 -0.207358 -1.8011 0
M  V30 5585 C 519.869 -3.53823 -0.695795 0
M  V30 5586 O 518.973 -3.71134 -1.79815 0
M  V30 5587 H 518.314 -0.662024 -0.0511917 0
M  V30 5588 H 520.844 -1.99079 0.472073 0
M  V30 5589 H 520.854 -3.96094 -0.978434 0
M  V30 5590 H 519.529 -4.15602 0.157287 0
M  V30 5591 H 518.106 -3.40768 -1.51431 0
M  V30 5592 N 520.291 -0.0518155 -1.57515 0
M  V30 5593 C 521.568 0.661727 -1.84067 0
M  V30 5594 C 521.948 1.88999 -0.940351 0
M  V30 5595 O 521.296 2.285 -0.00155404 0
M  V30 5596 C 521.506 1.01841 -3.3381 0
M  V30 5597 C 522.854 1.40043 -4.00841 0
M  V30 5598 O 523.878 1.11073 -3.38439 0
M  V30 5599 O 522.737 1.94111 -5.10865 0
M  V30 5600 H 519.831 0.326702 -0.759733 0
M  V30 5601 H 522.377 -0.0812277 -1.69505 0
M  V30 5602 H 521.149 0.145202 -3.91031 0
M  V30 5603 H 520.772 1.81879 -3.53562 0
M  V30 5604 N 521.769 1.56035 0.221574 0
M  V30 5605 C 522.716 1.92413 1.27459 0
M  V30 5606 C 523.686 0.781323 1.46576 0
M  V30 5607 O 524.871 1.03721 1.60145 0
M  V30 5608 C 522.011 2.24617 2.61995 0
M  V30 5609 C 521.124 3.51831 2.50677 0
M  V30 5610 C 520.259 3.73482 3.77736 0
M  V30 5611 C 519.298 4.94211 3.6114 0
M  V30 5612 N 518.435 5.12252 4.80148 0
M  V30 5613 H 523.275 2.82203 0.957355 0
M  V30 5614 H 520.812 1.39676 0.461415 0
M  V30 5615 H 522.77 2.41298 3.40339 0
M  V30 5616 H 521.4 1.38 2.91815 0
M  V30 5617 H 520.452 3.43343 1.63767 0
M  V30 5618 H 521.764 4.40328 2.34334 0
M  V30 5619 H 520.918 3.9026 4.64523 0
M  V30 5620 H 519.657 2.83266 3.97003 0
M  V30 5621 H 518.662 4.77384 2.72736 0
M  V30 5622 H 519.887 5.85912 3.43343 0
M  V30 5623 H 517.833 4.24978 4.99729 0
M  V30 5624 H 517.75 5.94881 4.66532 0
M  V30 5625 H 519.018 5.33465 5.68362 0
M  V30 5626 N 523.247 -0.488276 1.49845 0
M  V30 5627 C 524.179 -1.60539 1.63584 0
M  V30 5628 C 525.192 -1.5434 0.517972 0
M  V30 5629 O 526.381 -1.60041 0.790516 0
M  V30 5630 C 523.481 -2.99374 1.58835 0
M  V30 5631 C 522.654 -3.30624 2.86368 0
M  V30 5632 C 521.713 -4.4893 2.74496 0
M  V30 5633 O 520.739 -4.50085 3.48443 0
M  V30 5634 N 521.941 -5.49591 1.86894 0
M  V30 5635 H 524.706 -1.49176 2.59936 0
M  V30 5636 H 522.267 -0.67639 1.47094 0
M  V30 5637 H 524.259 -3.76459 1.48529 0
M  V30 5638 H 522.829 -3.04595 0.702892 0
M  V30 5639 H 522.049 -2.42314 3.1093 0
M  V30 5640 H 523.337 -3.48305 3.70892 0
M  V30 5641 H 522.735 -5.51467 1.26097 0
M  V30 5642 H 521.292 -6.25728 1.82503 0
M  V30 5643 N 524.725 -1.39134 -0.740242 0
M  V30 5644 C 525.657 -1.33332 -1.86428 0
M  V30 5645 C 526.67 -0.243042 -1.60976 0
M  V30 5646 O 527.859 -0.501608 -1.71307 0
M  V30 5647 C 524.959 -1.04626 -3.22346 0
M  V30 5648 C 524.132 -2.24826 -3.75196 0
M  V30 5649 C 523.191 -1.92659 -4.89662 0
M  V30 5650 O 522.217 -2.6529 -5.03597 0
M  V30 5651 N 523.419 -0.889575 -5.73643 0
M  V30 5652 H 526.184 -2.30196 -1.91911 0
M  V30 5653 H 523.745 -1.33168 -0.920756 0
M  V30 5654 H 525.737 -0.811347 -3.96484 0
M  V30 5655 H 524.307 -0.165129 -3.12164 0
M  V30 5656 H 523.527 -2.64301 -2.9247 0
M  V30 5657 H 524.815 -3.05015 -4.07239 0
M  V30 5658 H 524.213 -0.287529 -5.64969 0
M  V30 5659 H 522.77 -0.714557 -6.47871 0
M  V30 5660 N 526.204 0.969867 -1.24223 0
M  V30 5661 C 527.151 2.06407 -1.0327 0
M  V30 5662 C 528.121 1.66014 0.0533 0
M  V30 5663 O 529.306 1.90533 -0.100896 0
M  V30 5664 C 526.446 3.3909 -0.641262 0
M  V30 5665 C 525.559 3.9269 -1.80051 0
M  V30 5666 C 524.694 5.13631 -1.35486 0
M  V30 5667 C 523.733 5.59423 -2.48419 0
M  V30 5668 N 522.87 6.71586 -2.04737 0
M  V30 5669 H 527.71 2.23663 -1.96923 0
M  V30 5670 H 525.247 1.09624 -0.980862 0
M  V30 5671 H 527.205 4.15323 -0.395351 0
M  V30 5672 H 525.835 3.21765 0.258269 0
M  V30 5673 H 524.887 3.13116 -2.16014 0
M  V30 5674 H 526.199 4.22636 -2.64916 0
M  V30 5675 H 525.353 5.97231 -1.0677 0
M  V30 5676 H 524.092 4.85364 -0.476722 0
M  V30 5677 H 523.097 4.74398 -2.77897 0
M  V30 5678 H 524.322 5.89705 -3.36786 0
M  V30 5679 H 522.268 6.45058 -1.19318 0
M  V30 5680 H 522.185 7.0097 -2.83156 0
M  V30 5681 H 523.453 7.58633 -1.79154 0
M  V30 5682 N 527.682 1.05563 1.17022 0
M  V30 5683 C 529.098 0.777684 1.39371 0
M  V30 5684 C 529.298 -0.626269 1.91521 0
M  V30 5685 O 528.354 -1.38806 2.10924 0
M  V30 5686 C 529.667 1.83642 2.3811 0
M  V30 5687 C 531.215 1.85907 2.51809 0
M  V30 5688 C 531.69 2.90813 3.53824 0
M  V30 5689 N 533.181 2.898 3.61345 0
M  V30 5690 C 533.916 3.6762 4.40049 0
M  V30 5691 N 533.412 4.55237 5.22237 0
M  V30 5692 N 535.205 3.56044 4.34959 0
M  V30 5693 H 527.356 1.9614 0.815047 0
M  V30 5694 H 529.619 0.849527 0.420722 0
M  V30 5695 H 529.325 2.84425 2.06871 0
M  V30 5696 H 529.199 1.6812 3.37662 0
M  V30 5697 H 531.586 0.857865 2.82356 0
M  V30 5698 H 531.667 2.05506 1.52318 0
M  V30 5699 H 531.311 3.91122 3.24015 0
M  V30 5700 H 531.241 2.68465 4.53028 0
M  V30 5701 H 533.732 2.26274 3.02669 0
M  V30 5702 H 534.045 5.11291 5.79484 0
M  V30 5703 H 532.39 4.59296 5.21605 0
M  V30 5704 H 535.581 2.86986 3.69806 0
M  V30 5705 H 535.754 4.16938 4.96051 0
M  V30 5706 N 529.16 -1.33526 0.837174 0
M  V30 5707 C 530.092 -2.28077 0.226579 0
M  V30 5708 C 531.105 -1.51666 -0.591717 0
M  V30 5709 O 532.294 -1.73511 -0.419064 0
M  V30 5710 C 529.394 -3.31597 -0.69978 0
M  V30 5711 C 528.567 -4.37329 0.0788067 0
M  V30 5712 C 527.626 -5.20526 -0.770637 0
M  V30 5713 O 526.652 -5.68811 -0.210453 0
M  V30 5714 N 527.854 -5.41639 -2.08825 0
M  V30 5715 H 530.619 -2.81115 1.03897 0
M  V30 5716 H 528.18 -1.46201 0.695476 0
M  V30 5717 H 530.172 -3.84158 -1.27298 0
M  V30 5718 H 528.742 -2.78848 -1.41288 0
M  V30 5719 H 527.962 -3.8529 0.833381 0
M  V30 5720 H 529.25 -5.05079 0.614238 0
M  V30 5721 H 528.648 -5.04108 -2.56693 0
M  V30 5722 H 527.205 -5.97263 -2.60998 0
M  V30 5723 N 530.638 -0.59345 -1.46 0
M  V30 5724 C 531.863 -0.0872365 -2.07216 0
M  V30 5725 C 532.288 1.2131 -1.43755 0
M  V30 5726 O 531.646 1.73528 -0.525152 0
M  V30 5727 C 531.694 0.0538197 -3.6056 0
M  V30 5728 O 530.798 1.10765 -3.97247 0
M  V30 5729 H 530.139 -0.0676598 -0.660544 0
M  V30 5730 H 532.669 -0.819445 -1.87473 0
M  V30 5731 H 532.679 0.256567 -4.07193 0
M  V30 5732 H 531.354 -0.895739 -4.0614 0
M  V30 5733 H 529.931 0.882501 -3.62307 0
M  V30 5734 N 532.116 1.54067 -0.331816 0
M  V30 5735 C 533.364 2.00319 0.267739 0
M  V30 5736 C 533.685 1.22148 1.52003 0
M  V30 5737 O 532.955 0.325494 1.93177 0
M  V30 5738 H 531.535 0.740014 0.101922 0
M  V30 5739 H 534.197 1.89628 -0.450267 0
M  V30 5740 H 533.293 3.07765 0.518385 0
M  V30 5741 N 533.594 0.0601682 1.57485 0
M  V30 5742 C 534.526 -0.94047 2.09016 0
M  V30 5743 C 535.539 -1.26897 1.01985 0
M  V30 5744 O 536.728 -1.22819 1.29529 0
M  V30 5745 C 533.828 -2.25955 2.52582 0
M  V30 5746 C 533.001 -2.11163 3.83052 0
M  V30 5747 C 532.06 -3.26273 4.12835 0
M  V30 5748 O 531.086 -3.01779 4.82616 0
M  V30 5749 N 532.288 -4.51022 3.65458 0
M  V30 5750 H 535.053 -0.500578 2.9549 0
M  V30 5751 H 532.614 -0.125852 1.6141 0
M  V30 5752 H 534.606 -3.01846 2.69575 0
M  V30 5753 H 533.176 -2.61481 1.71308 0
M  V30 5754 H 532.396 -1.19808 3.75552 0
M  V30 5755 H 533.684 -1.98517 4.68475 0
M  V30 5756 H 533.082 -4.73811 3.09062 0
M  V30 5757 H 531.639 -5.23978 3.87673 0
M  V30 5758 N 535.072 -1.5615 -0.213296 0
M  V30 5759 C 536.3 -1.83638 -0.953139 0
M  V30 5760 C 536.715 -0.640362 -1.77609 0
M  V30 5761 O 536.072 0.391071 -1.78261 0
M  V30 5762 C 536.123 -3.09735 -1.86405 0
M  V30 5763 O 535.844 -4.24723 -1.07435 0
M  V30 5764 C 537.345 -3.5027 -2.71709 0
M  V30 5765 H 534.565 -0.610263 -0.278962 0
M  V30 5766 H 537.109 -2.03247 -0.226035 0
M  V30 5767 H 535.264 -2.92077 -2.545 0
M  V30 5768 H 535.678 -4.9641 -1.69343 0
M  V30 5769 H 537.152 -4.41515 -3.31313 0
M  V30 5770 H 537.629 -2.72406 -3.44516 0
M  V30 5771 H 538.235 -3.70396 -2.09015 0
M  V30 5772 N 536.55 0.480323 -1.50102 0
M  V30 5773 C 537.827 1.24159 -1.51142 0
M  V30 5774 C 538.207 2.09605 -0.250818 0
M  V30 5775 O 537.555 2.15274 0.766118 0
M  V30 5776 C 537.765 2.08057 -2.80202 0
M  V30 5777 C 539.113 2.66556 -3.30504 0
M  V30 5778 O 540.137 2.18308 -2.81461 0
M  V30 5779 O 538.996 3.54442 -4.15973 0
M  V30 5780 H 536.09 0.562928 -0.605839 0
M  V30 5781 H 538.636 0.492899 -1.62384 0
M  V30 5782 H 537.408 1.45032 -3.6343 0
M  V30 5783 H 537.031 2.90079 -2.71919 0
M  V30 5784 N 538.028 1.39524 0.732853 0
M  V30 5785 C 539.439 1.32905 1.31122 0
M  V30 5786 C 539.79 -0.00558708 1.96199 0
M  V30 5787 O 538.915 -0.907706 1.96443 0
M  V30 5788 C 539.51 2.40704 2.38426 0
M  V30 5789 C 538.069 2.37599 2.91931 0
M  V30 5790 C 537.216 2.2248 1.65523 0
M  V30 5791 H 540.167 1.49581 0.530207 0
M  V30 5792 H 540.188 2.07616 3.18867 0
M  V30 5793 H 539.7 3.37829 1.91033 0
M  V30 5794 H 537.801 1.44119 3.43599 0
M  V30 5795 H 537.914 3.32538 3.44899 0
M  V30 5796 H 536.278 1.69691 1.8994 0
M  V30 5797 H 537.061 3.21577 1.20178 0
M  V30 5798 N 539.506 -0.963266 1.24736 0
M  V30 5799 C 540.436 -2.07628 1.06832 0
M  V30 5800 C 541.417 -1.70088 -0.0200566 0
M  V30 5801 O 542.602 -1.93636 0.147854 0
M  V30 5802 C 539.732 -3.40636 0.677069 0
M  V30 5803 C 538.686 -3.9215 1.71471 0
M  V30 5804 C 538.012 -5.21553 1.1784 0
M  V30 5805 C 539.312 -4.19493 3.11164 0
M  V30 5806 H 541.006 -2.22864 1.9993 0
M  V30 5807 H 538.552 -1.07093 0.96266 0
M  V30 5808 H 540.505 -4.17941 0.538792 0
M  V30 5809 H 539.229 -3.25313 -0.289612 0
M  V30 5810 H 537.888 -3.17005 1.84128 0
M  V30 5811 H 537.536 -5.02593 0.202195 0
M  V30 5812 H 537.236 -5.56988 1.87185 0
M  V30 5813 H 538.76 -6.01463 1.05233 0
M  V30 5814 H 540.174 -4.87487 3.01711 0
M  V30 5815 H 538.571 -4.66165 3.77902 0
M  V30 5816 H 539.641 -3.26097 3.58871 0
M  V30 5817 N 540.985 -1.06182 -1.16461 0
M  V30 5818 C 541.917 -0.629584 -2.20383 0
M  V30 5819 C 542.93 0.311834 -1.59786 0
M  V30 5820 O 544.119 0.103 -1.78203 0
M  V30 5821 C 541.219 0.0973695 -3.3876 0
M  V30 5822 C 540.392 -0.857252 -4.28917 0
M  V30 5823 C 539.451 -0.169749 -5.25926 0
M  V30 5824 O 538.477 -0.807044 -5.6345 0
M  V30 5825 N 539.679 1.08911 -5.70192 0
M  V30 5826 H 542.444 -1.52352 -2.58087 0
M  V30 5827 H 540.005 -0.944993 -1.31459 0
M  V30 5828 H 541.997 0.567676 -4.00699 0
M  V30 5829 H 540.567 0.893093 -2.99571 0
M  V30 5830 H 539.787 -1.50696 -3.64259 0
M  V30 5831 H 541.075 -1.50489 -4.86035 0
M  V30 5832 H 540.473 1.62703 -5.41797 0
M  V30 5833 H 539.03 1.50331 -6.34227 0
M  V30 5834 N 542.463 1.3308 -0.844243 0
M  V30 5835 C 543.41 2.29104 -0.279323 0
M  V30 5836 C 544.38 1.54577 0.607882 0
M  V30 5837 O 545.565 1.8285 0.545009 0
M  V30 5838 C 542.705 3.40927 0.53508 0
M  V30 5839 C 541.818 4.30354 -0.376749 0
M  V30 5840 C 540.953 5.29297 0.449276 0
M  V30 5841 C 539.992 6.10365 -0.460606 0
M  V30 5842 N 539.129 7.01335 0.327612 0
M  V30 5843 H 543.969 2.76817 -1.10346 0
M  V30 5844 H 541.506 1.36203 -0.555611 0
M  V30 5845 H 543.464 4.04469 1.02278 0
M  V30 5846 H 542.094 2.94391 1.32414 0
M  V30 5847 H 541.146 3.67485 -0.982791 0
M  V30 5848 H 542.458 4.87067 -1.07549 0
M  V30 5849 H 541.612 5.98392 1.00058 0
M  V30 5850 H 540.351 4.73174 1.18143 0
M  V30 5851 H 539.356 5.40182 -1.02388 0
M  V30 5852 H 540.581 6.68571 -1.1912 0
M  V30 5853 H 538.527 6.47655 1.04305 0
M  V30 5854 H 538.444 7.55355 -0.3123 0
M  V30 5855 H 539.712 7.74731 0.86098 0
M  V30 5856 N 543.941 0.601185 1.45683 0
M  V30 5857 C 544.851 -0.123395 2.34275 0
M  V30 5858 C 545.867 -0.86702 1.5086 0
M  V30 5859 O 547.043 -0.826049 1.8368 0
M  V30 5860 C 544.108 -1.11237 3.2837 0
M  V30 5861 C 543.169 -0.371405 4.2769 0
M  V30 5862 C 542.402 -1.31327 5.1729 0
M  V30 5863 O 542.625 -2.55078 5.10188 0
M  V30 5864 O 541.559 -0.813811 5.96373 0
M  V30 5865 H 545.385 0.604483 2.97623 0
M  V30 5866 H 542.97 0.361477 1.44961 0
M  V30 5867 H 544.852 -1.68214 3.8637 0
M  V30 5868 H 543.527 -1.82139 2.67595 0
M  V30 5869 H 542.434 0.24067 3.73325 0
M  V30 5870 H 543.767 0.296998 4.91303 0
M  V30 5871 N 545.419 -1.53889 0.339982 0
M  V30 5872 C 546.329 -2.28604 -0.526988 0
M  V30 5873 C 547.345 -1.33578 -1.11503 0
M  V30 5874 O 548.521 -1.66612 -1.13148 0
M  V30 5875 C 545.586 -3.04164 -1.66389 0
M  V30 5876 C 544.647 -4.14809 -1.10599 0
M  V30 5877 C 543.88 -4.86756 -2.18871 0
M  V30 5878 O 544.103 -4.58343 -3.39526 0
M  V30 5879 O 543.037 -5.73289 -1.83366 0
M  V30 5880 H 546.863 -3.03594 0.0802707 0
M  V30 5881 H 544.448 -1.4903 0.105141 0
M  V30 5882 H 546.33 -3.51427 -2.32544 0
M  V30 5883 H 545.005 -2.32035 -2.25703 0
M  V30 5884 H 543.912 -3.71857 -0.409067 0
M  V30 5885 H 545.245 -4.89029 -0.557771 0
M  V30 5886 N 546.897 -0.0685191 -1.57451 0
M  V30 5887 C 547.827 0.89747 -2.15564 0
M  V30 5888 C 548.808 1.31266 -1.08181 0
M  V30 5889 O 549.993 1.38429 -1.36202 0
M  V30 5890 C 547.123 2.16623 -2.71463 0
M  V30 5891 C 546.077 1.89054 -3.83982 0
M  V30 5892 C 545.403 3.22532 -4.26471 0
M  V30 5893 C 546.703 1.1984 -5.08366 0
M  V30 5894 H 548.397 0.413373 -2.96533 0
M  V30 5895 H 545.943 0.197391 -1.42641 0
M  V30 5896 H 547.896 2.84614 -3.10761 0
M  V30 5897 H 546.62 2.67269 -1.8771 0
M  V30 5898 H 545.279 1.23469 -3.45183 0
M  V30 5899 H 544.927 3.71013 -3.39644 0
M  V30 5900 H 544.627 3.04879 -5.02317 0
M  V30 5901 H 546.151 3.91727 -4.68383 0
M  V30 5902 H 547.565 1.77896 -5.45001 0
M  V30 5903 H 545.962 1.12456 -5.89469 0
M  V30 5904 H 547.032 0.176996 -4.84577 0
M  V30 5905 N 548.375 1.56261 0.205012 0
M  V30 5906 C 549.307 1.90266 1.27795 0
M  V30 5907 C 550.32 0.792397 1.42214 0
M  V30 5908 O 551.509 1.07077 1.42817 0
M  V30 5909 C 548.609 2.11074 2.65143 0
M  V30 5910 C 547.782 3.42176 2.7246 0
M  V30 5911 C 546.841 3.52216 3.90936 0
M  V30 5912 O 545.867 4.25119 3.78501 0
M  V30 5913 N 547.069 2.84573 5.05963 0
M  V30 5914 H 549.834 2.82896 0.989434 0
M  V30 5915 H 547.395 1.57008 0.394981 0
M  V30 5916 H 549.387 2.15089 3.4281 0
M  V30 5917 H 547.957 1.2499 2.86524 0
M  V30 5918 H 547.177 3.50116 1.81142 0
M  V30 5919 H 548.465 4.28509 2.74331 0
M  V30 5920 H 547.863 2.25152 5.18963 0
M  V30 5921 H 546.42 2.94228 5.81613 0
M  V30 5922 N 549.853 -0.472356 1.50355 0
M  V30 5923 C 551.078 -1.25251 1.65309 0
M  V30 5924 C 551.503 -1.85081 0.335643 0
M  V30 5925 O 550.861 -1.67227 -0.700335 0
M  V30 5926 C 550.909 -2.3379 2.74544 0
M  V30 5927 O 550.013 -3.38401 2.35709 0
M  V30 5928 H 549.354 -0.368539 0.552336 0
M  V30 5929 H 551.884 -0.562271 1.96722 0
M  V30 5930 H 551.894 -2.79121 2.97583 0
M  V30 5931 H 550.569 -1.89614 3.70161 0
M  V30 5932 H 549.146 -2.9879 2.23112 0
M  V30 5933 N 551.331 -1.39911 -0.725443 0
M  V30 5934 C 552.579 -1.37382 -1.48224 0
M  V30 5935 C 552.9 0.0264107 -1.94982 0
M  V30 5936 O 552.17 0.979408 -1.6966 0
M  V30 5937 H 550.75 -0.505596 -0.549892 0
M  V30 5938 H 553.412 -1.7487 -0.860608 0
M  V30 5939 H 552.508 -2.04254 -2.3598 0
M  V30 5940 N 552.809 0.956637 -1.25245 0
M  V30 5941 C 554.055 1.70352 -1.10036 0
M  V30 5942 C 554.388 1.90869 0.358156 0
M  V30 5943 O 553.663 1.47819 1.26411 0
M  V30 5944 C 553.946 3.08766 -1.85298 0
M  V30 5945 C 553.799 2.95672 -3.38966 0
M  V30 5946 C 555.118 4.08622 -1.63451 0
M  V30 5947 H 552.237 0.618279 -0.401123 0
M  V30 5948 H 554.879 1.11212 -1.54051 0
M  V30 5949 H 553.029 3.59252 -1.47887 0
M  V30 5950 H 554.701 2.52527 -3.86041 0
M  V30 5951 H 552.944 2.31634 -3.6678 0
M  V30 5952 H 553.615 3.93776 -3.86839 0
M  V30 5953 H 556.091 3.67038 -1.96015 0
M  V30 5954 H 554.967 5.03514 -2.18551 0
M  V30 5955 H 555.228 4.3834 -0.575357 0
M  V30 5956 N 554.287 1.06798 1.15896 0
M  V30 5957 C 555.564 0.701057 1.82605 0
M  V30 5958 C 555.944 -0.817066 1.94646 0
M  V30 5959 O 555.292 -1.72933 1.49353 0
M  V30 5960 C 555.502 1.40895 3.19296 0
M  V30 5961 C 556.85 1.55744 3.95005 0
M  V30 5962 O 557.874 1.36927 3.28831 0
M  V30 5963 O 556.733 1.86658 5.13635 0
M  V30 5964 H 553.827 0.248791 0.78869 0
M  V30 5965 H 556.373 1.16857 1.23055 0
M  V30 5966 H 555.145 2.4439 3.05596 0
M  V30 5967 H 554.768 0.931847 3.86526 0
M  V30 5968 N 555.766 -1.3263 0.851289 0
M  V30 5969 C 556.729 -2.27247 0.298541 0
M  V30 5970 C 557.729 -1.51467 -0.539847 0
M  V30 5971 O 558.919 -1.7061 -0.351843 0
M  V30 5972 C 556.051 -3.35964 -0.578004 0
M  V30 5973 H 557.244 -2.7765 1.13359 0
M  V30 5974 H 554.797 -1.43245 0.625354 0
M  V30 5975 H 555.532 -2.90823 -1.435 0
M  V30 5976 H 555.317 -3.92094 0.0220539 0
M  V30 5977 H 556.807 -4.06472 -0.957626 0
M  V30 5978 N 557.244 -0.608902 -1.45362 0
M  V30 5979 C 558.207 0.0992563 -2.28985 0
M  V30 5980 C 559.207 0.793841 -1.39838 0
M  V30 5981 O 560.397 0.641804 -1.61946 0
M  V30 5982 C 557.529 1.15073 -3.20891 0
M  V30 5983 H 558.722 -0.635964 -2.93079 0
M  V30 5984 H 556.275 -0.368007 -1.51906 0
M  V30 5985 H 557.01 1.91667 -2.616 0
M  V30 5986 H 556.795 0.656867 -3.86559 0
M  V30 5987 H 558.285 1.64665 -3.83765 0
M  V30 5988 N 558.722 1.53707 -0.348139 0
M  V30 5989 C 559.67 2.26671 0.521808 0
M  V30 5990 C 560.664 1.28988 1.09811 0
M  V30 5991 O 561.87 1.4668 1.04332 0
M  V30 5992 H 558.245 0.728387 0.186968 0
M  V30 5993 H 560.216 2.98176 -0.115563 0
M  V30 5994 C 558.965 3.05591 1.6586 0
M  V30 5995 H 558.288 3.80589 1.22443 0
M  V30 5996 H 559.728 3.59851 2.24239 0
M  V30 5997 C 558.187 2.15366 2.59073 0
M  V30 5998 O 558.717 1.7528 3.61441 0
M  V30 5999 N 556.923 1.80352 2.27863 0
M  V30 6000 H 556.47 2.13149 1.44656 0
M  V30 6001 H 556.428 1.20268 2.90488 0
M  V30 6002 N 560.2 0.0768682 1.57412 0
M  V30 6003 C 561.425 -0.603404 1.98428 0
M  V30 6004 C 561.85 -1.62047 0.955108 0
M  V30 6005 O 561.208 -1.81129 -0.0786778 0
M  V30 6006 C 561.256 -1.24396 3.38464 0
M  V30 6007 O 560.36 -2.35982 3.3821 0
M  V30 6008 H 559.701 -0.154741 0.645718 0
M  V30 6009 H 562.231 0.152885 2.04028 0
M  V30 6010 H 562.241 -1.5896 3.7576 0
M  V30 6011 H 560.916 -0.498735 4.12899 0
M  V30 6012 H 559.493 -2.03173 3.1269 0
M  V30 6013 N 561.678 -1.56367 -0.196722 0
M  V30 6014 C 562.641 -1.93561 -1.22746 0
M  V30 6015 C 563.641 -0.816566 -1.38524 0
M  V30 6016 O 564.831 -1.084 -1.36363 0
M  V30 6017 C 561.963 -2.20823 -2.59712 0
M  V30 6018 H 563.156 -2.85774 -0.909586 0
M  V30 6019 H 560.709 -1.50032 -0.438174 0
M  V30 6020 H 561.444 -1.31243 -2.96557 0
M  V30 6021 H 561.229 -3.02368 -2.49632 0
M  V30 6022 H 562.719 -2.50608 -3.34044 0
M  V30 6023 N 563.156 0.464375 -1.50603 0
M  V30 6024 C 564.119 1.54393 -1.69397 0
M  V30 6025 C 565.119 1.50566 -0.564504 0
M  V30 6026 O 566.309 1.53066 -0.831645 0
M  V30 6027 C 563.441 2.9401 -1.72543 0
M  V30 6028 H 564.634 1.39044 -2.65719 0
M  V30 6029 H 562.187 0.69122 -1.40185 0
M  V30 6030 H 562.922 3.14795 -0.77938 0
M  V30 6031 H 562.707 2.98195 -2.54602 0
M  V30 6032 H 564.197 3.72375 -1.89015 0
M  V30 6033 N 564.634 1.40294 0.718013 0
M  V30 6034 C 565.566 1.36281 1.84283 0
M  V30 6035 C 566.579 0.268621 1.60569 0
M  V30 6036 O 567.768 0.528798 1.70487 0
M  V30 6037 C 564.868 1.09741 3.2064 0
M  V30 6038 C 564.041 2.30767 3.71571 0
M  V30 6039 C 563.1 2.00424 4.86535 0
M  V30 6040 O 562.126 2.73268 4.99313 0
M  V30 6041 N 563.328 0.980724 5.72156 0
M  V30 6042 H 566.093 2.3322 1.88225 0
M  V30 6043 H 563.654 1.34616 0.899453 0
M  V30 6044 H 565.646 0.874322 3.95143 0
M  V30 6045 H 564.216 0.214771 3.11861 0
M  V30 6046 H 563.436 2.68921 2.88228 0
M  V30 6047 H 564.724 3.11455 4.02335 0
M  V30 6048 H 564.122 0.377375 5.6444 0
M  V30 6049 H 562.679 0.817538 6.46653 0
M  V30 6050 N 566.112 -0.949982 1.2575 0
M  V30 6051 C 567.044 -2.05088 1.02331 0
M  V30 6052 C 568.057 -1.62795 -0.0133247 0
M  V30 6053 O 569.246 -1.77067 0.225759 0
M  V30 6054 C 566.346 -3.34794 0.525924 0
M  V30 6055 C 565.519 -4.05903 1.62978 0
M  V30 6056 C 564.578 -5.1388 1.13196 0
M  V30 6057 O 563.604 -5.39072 1.82729 0
M  V30 6058 N 564.806 -5.80495 -0.0242926 0
M  V30 6059 H 567.571 -2.25747 1.97125 0
M  V30 6060 H 565.132 -1.11886 1.17018 0
M  V30 6061 H 567.124 -4.04312 0.177263 0
M  V30 6062 H 565.694 -3.10872 -0.328202 0
M  V30 6063 H 564.914 -3.3042 2.1498 0
M  V30 6064 H 566.202 -4.50166 2.37124 0
M  V30 6065 H 565.6 -5.62454 -0.605184 0
M  V30 6066 H 564.157 -6.51043 -0.313947 0
M  V30 6067 N 567.59 -1.07411 -1.15328 0
M  V30 6068 C 568.82 -0.817595 -1.89734 0
M  V30 6069 C 569.228 0.63297 -1.78298 0
M  V30 6070 O 568.571 1.44594 -1.13306 0
M  V30 6071 C 568.633 -1.14748 -3.40695 0
M  V30 6072 C 568.297 -2.59876 -3.75917 0
M  V30 6073 C 569.294 -3.58122 -3.76888 0
M  V30 6074 C 566.979 -2.95469 -4.06206 0
M  V30 6075 C 568.973 -4.89996 -4.07655 0
M  V30 6076 C 566.66 -4.2754 -4.36638 0
M  V30 6077 C 567.658 -5.24614 -4.37344 0
M  V30 6078 O 567.346 -6.54312 -4.67045 0
M  V30 6079 H 567.078 -0.295175 -0.608151 0
M  V30 6080 H 569.632 -1.43409 -1.47048 0
M  V30 6081 H 567.862 -0.47395 -3.83785 0
M  V30 6082 H 569.551 -0.873397 -3.96392 0
M  V30 6083 H 570.317 -3.31966 -3.53587 0
M  V30 6084 H 566.196 -2.20558 -4.04815 0
M  V30 6085 H 569.74 -5.65759 -4.08121 0
M  V30 6086 H 565.637 -4.53449 -4.59407 0
M  V30 6087 H 566.405 -6.59473 -4.84807 0
M  V30 6088 N 569.068 1.32177 -0.85831 0
M  V30 6089 C 570 2.27688 -0.262835 0
M  V30 6090 C 571.013 1.52588 0.567513 0
M  V30 6091 O 572.202 1.74156 0.391407 0
M  V30 6092 C 569.302 3.32668 0.646937 0
M  V30 6093 C 568.475 4.37148 -0.148372 0
M  V30 6094 C 567.534 5.21686 0.687728 0
M  V30 6095 O 566.56 5.69074 0.119934 0
M  V30 6096 N 567.762 5.44892 2.00182 0
M  V30 6097 H 570.527 2.79426 -1.08356 0
M  V30 6098 H 568.088 1.45076 -0.718647 0
M  V30 6099 H 570.08 3.86134 1.2117 0
M  V30 6100 H 568.65 2.81061 1.36834 0
M  V30 6101 H 567.87 3.83915 -0.894572 0
M  V30 6102 H 569.158 5.04038 -0.694514 0
M  V30 6103 H 568.556 5.08128 2.4864 0
M  V30 6104 H 567.113 6.0134 2.51463 0
M  V30 6105 N 570.547 0.616602 1.45037 0
M  V30 6106 C 571.963 0.280994 1.57107 0
M  V30 6107 C 572.163 -1.21627 1.60653 0
M  V30 6108 O 571.219 -1.9997 1.54169 0
M  V30 6109 C 572.532 0.960116 2.8496 0
M  V30 6110 C 574.08 0.936884 2.98649 0
M  V30 6111 C 574.555 1.59619 4.29285 0
M  V30 6112 N 576.046 1.5621 4.36065 0
M  V30 6113 C 576.781 2.04131 5.35834 0
M  V30 6114 N 576.277 2.60177 6.4209 0
M  V30 6115 N 578.07 1.94845 5.27249 0
M  V30 6116 H 570.221 1.58867 1.40979 0
M  V30 6117 H 572.484 0.666024 0.674623 0
M  V30 6118 H 572.19 2.01473 2.88273 0
M  V30 6119 H 572.064 0.488921 3.74018 0
M  V30 6120 H 574.451 -0.109209 2.94898 0
M  V30 6121 H 574.532 1.44643 2.10979 0
M  V30 6122 H 574.176 2.64166 4.33796 0
M  V30 6123 H 574.106 1.06159 5.15789 0
M  V30 6124 H 576.597 1.15276 3.59889 0
M  V30 6125 H 576.91 2.94513 7.1448 0
M  V30 6126 H 575.255 2.64221 6.42816 0
M  V30 6127 H 578.446 1.50792 4.43147 0
M  V30 6128 H 578.619 2.32504 6.04852 0
M  V30 6129 N 572.025 -1.5352 0.356285 0
M  V30 6130 C 573.441 -1.59599 0.00485267 0
M  V30 6131 C 573.641 -1.37179 -1.47595 0
M  V30 6132 O 572.697 -1.17234 -2.23635 0
M  V30 6133 C 574.01 -2.97277 0.452454 0
M  V30 6134 C 575.558 -3.10357 0.405881 0
M  V30 6135 C 576.033 -4.50432 0.829148 0
M  V30 6136 N 577.524 -4.5652 0.783838 0
M  V30 6137 C 578.259 -5.63077 1.08315 0
M  V30 6138 N 577.755 -6.77429 1.45126 0
M  V30 6139 N 579.548 -5.53014 1.00655 0
M  V30 6140 H 571.699 -1.66346 1.32071 0
M  V30 6141 H 573.962 -0.77971 0.539218 0
M  V30 6142 H 573.668 -3.18792 1.48542 0
M  V30 6143 H 573.542 -3.76836 -0.165762 0
M  V30 6144 H 575.929 -2.88558 -0.617934 0
M  V30 6145 H 576.01 -2.32828 1.05947 0
M  V30 6146 H 575.654 -4.72968 1.85103 0
M  V30 6147 H 575.584 -5.26378 0.152906 0
M  V30 6148 H 578.075 -3.74408 0.512513 0
M  V30 6149 H 578.388 -7.54669 1.66415 0
M  V30 6150 H 576.733 -6.78844 1.48983 0
M  V30 6151 H 579.924 -4.62557 0.718215 0
M  V30 6152 H 580.097 -6.35964 1.24315 0
M  V30 6153 N 573.503 -0.0852151 -1.57369 0
M  V30 6154 C 574.433 0.874556 -2.16503 0
M  V30 6155 C 575.414 1.30111 -1.09568 0
M  V30 6156 O 576.599 1.36977 -1.37662 0
M  V30 6157 C 573.729 2.13731 -2.73745 0
M  V30 6158 C 572.683 1.84971 -3.85966 0
M  V30 6159 C 572.009 3.17991 -4.29867 0
M  V30 6160 C 573.309 1.14442 -5.09608 0
M  V30 6161 H 575.003 0.381899 -2.96954 0
M  V30 6162 H 572.549 0.18225 -1.42842 0
M  V30 6163 H 574.502 2.81302 -3.13763 0
M  V30 6164 H 573.226 2.65263 -1.90534 0
M  V30 6165 H 571.885 1.19801 -3.46473 0
M  V30 6166 H 571.533 3.6739 -3.4356 0
M  V30 6167 H 571.233 2.99534 -5.05523 0
M  V30 6168 H 572.757 3.86737 -4.72511 0
M  V30 6169 H 574.171 1.72105 -5.46857 0
M  V30 6170 H 572.568 1.06197 -5.90629 0
M  V30 6171 H 573.638 0.12559 -4.84737 0
M  V30 6172 N 574.981 1.5647 0.188427 0
M  V30 6173 C 575.944 1.9421 1.21718 0
M  V30 6174 C 576.944 0.823901 1.38089 0
M  V30 6175 O 578.134 1.09122 1.35787 0
M  V30 6176 C 575.266 2.22197 2.58537 0
M  V30 6177 H 576.459 2.86252 0.894418 0
M  V30 6178 H 574.012 1.50263 0.430211 0
M  V30 6179 H 574.747 1.32814 2.95856 0
M  V30 6180 H 574.532 3.03688 2.48025 0
M  V30 6181 H 576.022 2.52376 3.3271 0
M  V30 6182 N 576.459 -0.456382 1.50847 0
M  V30 6183 C 577.422 -1.53493 1.70213 0
M  V30 6184 C 578.422 -1.50264 0.572481 0
M  V30 6185 O 579.612 -1.52623 0.839751 0
M  V30 6186 C 576.744 -2.93091 1.741 0
M  V30 6187 H 577.937 -1.37633 2.66453 0
M  V30 6188 H 575.49 -0.683776 1.4055 0
M  V30 6189 H 576.225 -3.14378 0.796063 0
M  V30 6190 H 576.01 -2.9684 2.5618 0
M  V30 6191 H 577.5 -3.71368 1.90987 0
M  V30 6192 N 577.937 -1.40673 -0.710563 0
M  V30 6193 C 579.183 -1.39428 -1.47267 0
M  V30 6194 C 579.516 0.00182129 -1.942 0
M  V30 6195 O 578.791 0.971387 -1.68506 0
M  V30 6196 C 579.074 -2.38812 -2.6952 0
M  V30 6197 C 578.927 -3.87467 -2.28449 0
M  V30 6198 C 580.246 -2.3566 -3.71689 0
M  V30 6199 H 577.365 -0.507768 -0.534173 0
M  V30 6200 H 580.007 -1.71843 -0.810547 0
M  V30 6201 H 578.157 -2.113 -3.26013 0
M  V30 6202 H 579.829 -4.25825 -1.77399 0
M  V30 6203 H 578.072 -4.03058 -1.60395 0
M  V30 6204 H 578.743 -4.5253 -3.16103 0
M  V30 6205 H 581.219 -2.6004 -3.24836 0
M  V30 6206 H 580.095 -3.07237 -4.54859 0
M  V30 6207 H 580.356 -1.36996 -4.20339 0
M  V30 6208 N 579.415 0.9433 -1.26252 0
M  V30 6209 C 580.378 2.02326 -1.07689 0
M  V30 6210 C 581.378 1.60779 -0.0259174 0
M  V30 6211 O 582.568 1.72108 -0.269134 0
M  V30 6212 C 579.7 3.34886 -0.63752 0
M  V30 6213 H 580.893 2.20225 -2.0357 0
M  V30 6214 H 578.446 1.12197 -1.08819 0
M  V30 6215 H 579.181 3.22684 0.323377 0
M  V30 6216 H 578.966 3.66393 -1.39637 0
M  V30 6217 H 580.456 4.14231 -0.529418 0
M  V30 6218 N 580.893 1.08022 1.14757 0
M  V30 6219 C 581.823 0.728248 2.21853 0
M  V30 6220 C 582.804 -0.287486 1.67653 0
M  V30 6221 O 583.989 -0.158727 1.9355 0
M  V30 6222 C 581.119 0.132549 3.47047 0
M  V30 6223 C 580.073 1.07619 4.14249 0
M  V30 6224 C 579.399 0.342907 5.33599 0
M  V30 6225 C 580.699 2.41268 4.63235 0
M  V30 6226 H 582.393 1.62365 2.51551 0
M  V30 6227 H 579.939 0.782125 1.20908 0
M  V30 6228 H 581.892 -0.125665 4.21213 0
M  V30 6229 H 580.616 -0.797971 3.16702 0
M  V30 6230 H 579.275 1.31944 3.42033 0
M  V30 6231 H 578.923 -0.59129 4.99513 0
M  V30 6232 H 578.623 0.971955 5.79506 0
M  V30 6233 H 580.147 0.0926538 6.1053 0
M  V30 6234 H 581.561 2.21232 5.28894 0
M  V30 6235 H 579.958 2.9983 5.19829 0
M  V30 6236 H 581.028 3.03079 3.78512 0
M  V30 6237 N 582.371 -1.3172 0.865308 0
M  V30 6238 C 583.62 -1.96145 0.470098 0
M  V30 6239 C 583.933 -1.69182 -0.981674 0
M  V30 6240 O 585.139 -2.27431 -1.48281 0
M  V30 6241 C 583.595 -3.51129 0.789732 0
M  V30 6242 C 583.203 -3.86938 2.25795 0
M  V30 6243 C 584.947 -4.2197 0.462765 0
M  V30 6244 C 582.854 -5.35012 2.52024 0
M  V30 6245 H 581.784 -0.734105 0.172065 0
M  V30 6246 H 584.435 -1.49959 1.05757 0
M  V30 6247 H 582.817 -3.95781 0.131571 0
M  V30 6248 H 583.991 -3.5326 2.95879 0
M  V30 6249 H 582.306 -3.29149 2.55049 0
M  V30 6250 H 584.903 -5.30904 0.636019 0
M  V30 6251 H 585.246 -4.12005 -0.59645 0
M  V30 6252 H 585.779 -3.82936 1.07727 0
M  V30 6253 H 582.518 -5.50008 3.56611 0
M  V30 6254 H 582.038 -5.70058 1.8653 0
M  V30 6255 H 583.717 -6.0222 2.36515 0
M  V30 6256 N 583.85 -0.624285 -1.44708 0
M  V30 6257 C 584.798 0.0969952 -2.32398 0
M  V30 6258 C 585.792 0.842762 -1.46949 0
M  V30 6259 O 586.998 0.756436 -1.63334 0
M  V30 6260 H 583.373 0.0501306 -0.750327 0
M  V30 6261 H 585.344 -0.660767 -2.90992 0
M  V30 6262 C 584.093 1.06967 -3.30837 0
M  V30 6263 H 583.416 0.505242 -3.96595 0
M  V30 6264 H 584.856 1.54397 -3.94889 0
M  V30 6265 C 583.315 2.15153 -2.5925 0
M  V30 6266 O 583.845 3.23139 -2.3863 0
M  V30 6267 N 582.051 1.90898 -2.19103 0
M  V30 6268 H 581.598 1.03086 -2.36074 0
M  V30 6269 H 581.556 2.63485 -1.71531 0
M  V30 6270 N 585.328 1.53329 -0.364422 0
M  V30 6271 C 586.291 2.24323 0.470292 0
M  V30 6272 C 587.291 1.25068 1.01067 0
M  V30 6273 O 588.481 1.49354 0.896605 0
M  V30 6274 C 585.613 2.97908 1.65722 0
M  V30 6275 H 586.806 2.9952 -0.150917 0
M  V30 6276 H 584.359 1.55868 -0.116092 0
M  V30 6277 H 585.094 2.2695 2.31655 0
M  V30 6278 H 584.879 3.70732 1.27671 0
M  V30 6279 H 586.369 3.5188 2.24878 0
M  V30 6280 N 586.806 0.0935595 1.57322 0
M  V30 6281 C 587.769 -0.851426 2.12799 0
M  V30 6282 C 588.769 -1.21187 1.0569 0
M  V30 6283 O 589.959 -1.14156 1.31583 0
M  V30 6284 C 587.091 -2.14779 2.64731 0
M  V30 6285 H 588.284 -0.369733 2.97612 0
M  V30 6286 H 585.837 -0.155417 1.55525 0
M  V30 6287 H 586.572 -2.67437 1.83434 0
M  V30 6288 H 586.357 -1.89907 3.43042 0
M  V30 6289 H 587.847 -2.82383 3.07651 0
M  V30 6290 N 588.284 -1.56567 -0.180126 0
M  V30 6291 C 589.533 -1.80685 -0.896426 0
M  V30 6292 C 589.846 -0.669335 -1.83791 0
M  V30 6293 O 591.052 -0.795209 -2.59593 0
M  V30 6294 C 589.508 -3.20132 -1.6445 0
M  V30 6295 C 589.116 -4.41727 -0.747088 0
M  V30 6296 C 590.86 -3.53549 -2.34955 0
M  V30 6297 C 588.767 -5.72195 -1.49489 0
M  V30 6298 H 587.697 -0.673758 -0.338477 0
M  V30 6299 H 590.348 -1.8289 -0.149467 0
M  V30 6300 H 588.73 -3.12218 -2.43589 0
M  V30 6301 H 589.904 -4.608 0.00671129 0
M  V30 6302 H 588.219 -4.16122 -0.152134 0
M  V30 6303 H 590.816 -4.48267 -2.91481 0
M  V30 6304 H 591.159 -2.78006 -3.09868 0
M  V30 6305 H 591.692 -3.62976 -1.62768 0
M  V30 6306 H 588.431 -6.50743 -0.788251 0
M  V30 6307 H 587.951 -5.57115 -2.22224 0
M  V30 6308 H 589.63 -6.1384 -2.04472 0
M  V30 6309 N 589.762 0.448376 -1.51087 0
M  V30 6310 C 590.694 1.56146 -1.67783 0
M  V30 6311 C 591.707 1.52913 -0.55871 0
M  V30 6312 O 592.896 1.57889 -0.83267 0
M  V30 6313 C 589.996 2.95057 -1.66716 0
M  V30 6314 C 589.169 3.22915 -2.95033 0
M  V30 6315 C 588.228 4.41495 -2.86302 0
M  V30 6316 O 587.254 4.40688 -3.60254 0
M  V30 6317 N 588.456 5.44443 -2.014 0
M  V30 6318 H 591.221 1.42232 -2.638 0
M  V30 6319 H 588.782 0.637153 -1.48835 0
M  V30 6320 H 590.774 3.72388 -1.58458 0
M  V30 6321 H 589.344 3.02624 -0.783403 0
M  V30 6322 H 588.564 2.33985 -3.17245 0
M  V30 6323 H 589.852 3.38349 -3.79996 0
M  V30 6324 H 589.25 5.4793 -1.40674 0
M  V30 6325 H 587.807 6.2067 -1.99029 0
M  V30 6326 N 591.24 1.41047 0.703093 0
M  V30 6327 C 592.187 1.42302 1.81711 0
M  V30 6328 C 593.157 0.278336 1.63751 0
M  V30 6329 O 594.342 0.478266 1.84709 0
M  V30 6330 C 591.482 1.30362 3.19531 0
M  V30 6331 C 590.595 2.54638 3.48975 0
M  V30 6332 C 589.73 2.35047 4.76368 0
M  V30 6333 C 588.769 3.54837 4.98756 0
M  V30 6334 N 587.906 3.34363 6.1737 0
M  V30 6335 H 592.746 2.37516 1.79973 0
M  V30 6336 H 590.283 1.1795 0.878983 0
M  V30 6337 H 592.241 1.21443 3.99134 0
M  V30 6338 H 590.871 0.387602 3.20464 0
M  V30 6339 H 589.923 2.74037 2.63833 0
M  V30 6340 H 591.235 3.43766 3.61423 0
M  V30 6341 H 590.389 2.23552 5.64012 0
M  V30 6342 H 589.128 1.43363 4.66153 0
M  V30 6343 H 588.133 3.66795 4.09563 0
M  V30 6344 H 589.358 4.47464 5.10835 0
M  V30 6345 H 587.304 2.45373 6.08382 0
M  V30 6346 H 587.221 4.17063 6.30551 0
M  V30 6347 H 588.489 3.26626 7.07768 0
M  V30 6348 N 592.718 -0.936591 1.26751 0
M  V30 6349 C 593.966 -1.67998 1.12343 0
M  V30 6350 C 594.287 -1.92137 -0.332938 0
M  V30 6351 O 593.557 -1.52132 -1.23421 0
M  V30 6352 H 592.137 -0.622609 0.412756 0
M  V30 6353 H 594.799 -1.12509 1.59147 0
M  V30 6354 H 593.895 -2.65185 1.64571 0
M  V30 6355 N 594.196 -1.08629 -1.14182 0
M  V30 6356 C 595.442 -0.818556 -1.85546 0
M  V30 6357 C 595.775 0.654076 -1.82854 0
M  V30 6358 O 595.05 1.48099 -1.26083 0
M  V30 6359 C 595.333 -1.34397 -3.3408 0
M  V30 6360 C 595.186 -2.8821 -3.45333 0
M  V30 6361 C 596.505 -0.971069 -4.29253 0
M  V30 6362 H 593.624 -0.298821 -0.673702 0
M  V30 6363 H 596.266 -1.34629 -1.34071 0
M  V30 6364 H 594.416 -0.895064 -3.78049 0
M  V30 6365 H 596.088 -3.41488 -3.10134 0
M  V30 6366 H 594.331 -3.25756 -2.86471 0
M  V30 6367 H 595.002 -3.20047 -4.49749 0
M  V30 6368 H 597.478 -1.35809 -3.93313 0
M  V30 6369 H 596.354 -1.36586 -5.31635 0
M  V30 6370 H 596.615 0.121659 -4.41933 0
M  V30 6371 N 595.674 1.31259 -0.872281 0
M  V30 6372 C 596.637 2.26744 -0.334656 0
M  V30 6373 C 597.637 1.52307 0.515681 0
M  V30 6374 O 598.827 1.71148 0.324656 0
M  V30 6375 C 595.959 3.36841 0.524482 0
M  V30 6376 H 597.152 2.75812 -1.17762 0
M  V30 6377 H 594.705 1.42232 -0.648064 0
M  V30 6378 H 595.44 2.93069 1.38855 0
M  V30 6379 H 595.225 3.92009 -0.0844299 0
M  V30 6380 H 596.715 4.07944 0.892838 0
M  V30 6381 N 597.152 0.631951 1.44375 0
M  V30 6382 C 598.062 -0.073674 2.34484 0
M  V30 6383 C 599.078 -0.834825 1.52665 0
M  V30 6384 O 600.254 -0.786902 1.85391 0
M  V30 6385 C 597.319 -1.04247 3.30656 0
M  V30 6386 C 596.38 -0.280602 4.28382 0
M  V30 6387 C 595.613 -1.20325 5.19959 0
M  V30 6388 O 595.836 -2.44199 5.15484 0
M  V30 6389 O 594.77 -0.687128 5.97965 0
M  V30 6390 H 598.596 0.667477 2.96274 0
M  V30 6391 H 596.181 0.392144 1.44162 0
M  V30 6392 H 598.063 -1.59981 3.89851 0
M  V30 6393 H 596.738 -1.76422 2.71398 0
M  V30 6394 H 595.645 0.319804 3.72731 0
M  V30 6395 H 596.978 0.401144 4.90563 0
M  V30 6396 N 598.631 -1.53133 0.372548 0
M  V30 6397 C 599.578 -2.25951 -0.470631 0
M  V30 6398 C 600.548 -1.26895 -1.07176 0
M  V30 6399 O 601.733 -1.55691 -1.10294 0
M  V30 6400 C 598.873 -3.05726 -1.6008 0
M  V30 6401 C 597.986 -4.19684 -1.02416 0
M  V30 6402 C 597.121 -4.86888 -2.124 0
M  V30 6403 C 596.16 -5.92866 -1.52238 0
M  V30 6404 N 595.297 -6.53732 -2.56084 0
M  V30 6405 H 600.137 -2.97587 0.156816 0
M  V30 6406 H 597.674 -1.4683 0.0891571 0
M  V30 6407 H 599.632 -3.50258 -2.26661 0
M  V30 6408 H 598.262 -2.36331 -2.1988 0
M  V30 6409 H 597.314 -3.79588 -0.248426 0
M  V30 6410 H 598.626 -4.95821 -0.544366 0
M  V30 6411 H 597.78 -5.34638 -2.86787 0
M  V30 6412 H 596.519 -4.10239 -2.63734 0
M  V30 6413 H 595.524 -5.4447 -0.763685 0
M  V30 6414 H 596.749 -6.71439 -1.0172 0
M  V30 6415 H 594.695 -5.79932 -3.06618 0
M  V30 6416 H 594.612 -7.25429 -2.12811 0
M  V30 6417 H 595.88 -7.0613 -3.30152 0
M  V30 6418 N 600.109 -0.101901 -1.5727 0
M  V30 6419 C 601.337 0.568392 -1.98939 0
M  V30 6420 C 601.752 1.61301 -0.981194 0
M  V30 6421 O 601.109 1.82478 0.0282869 0
M  V30 6422 C 601.16 1.20997 -3.40649 0
M  V30 6423 O 600.881 0.207129 -4.3761 0
M  V30 6424 C 602.382 1.96523 -3.97358 0
M  V30 6425 H 599.602 0.15186 -0.65359 0
M  V30 6426 H 602.146 -0.183198 -2.03678 0
M  V30 6427 H 600.301 1.91245 -3.36904 0
M  V30 6428 H 600.715 0.671071 -5.20189 0
M  V30 6429 H 602.189 2.36764 -4.98645 0
M  V30 6430 H 602.666 2.83376 -3.35552 0
M  V30 6431 H 603.272 1.31076 -4.04598 0
M  V30 6432 N 601.587 1.56661 0.17182 0
M  V30 6433 C 602.833 1.82235 0.889845 0
M  V30 6434 C 603.166 0.679673 1.81918 0
M  V30 6435 O 602.441 -0.318404 1.91876 0
M  V30 6436 C 602.724 3.18195 1.68595 0
M  V30 6437 C 602.577 4.42989 0.779773 0
M  V30 6438 C 603.896 3.5109 2.65375 0
M  V30 6439 H 601.015 0.66291 0.322056 0
M  V30 6440 H 603.657 1.89358 0.15608 0
M  V30 6441 H 601.807 3.12253 2.3115 0
M  V30 6442 H 603.479 4.60997 0.16714 0
M  V30 6443 H 601.722 4.33711 0.0877964 0
M  V30 6444 H 602.393 5.3467 1.3723 0
M  V30 6445 H 604.869 3.57482 2.12946 0
M  V30 6446 H 603.745 4.47298 3.18144 0
M  V30 6447 H 604.006 2.75768 3.45549 0
M  V30 6448 N 603.065 -0.440357 1.51323 0
M  V30 6449 C 603.995 -1.54174 1.75364 0
M  V30 6450 C 604.976 -1.59039 0.603375 0
M  V30 6451 O 606.161 -1.74815 0.845774 0
M  V30 6452 C 603.291 -2.92277 1.87593 0
M  V30 6453 C 602.245 -3.02274 3.03009 0
M  V30 6454 C 601.571 -4.42327 3.00418 0
M  V30 6455 C 602.871 -2.76634 4.43024 0
M  V30 6456 H 604.565 -1.34307 2.67585 0
M  V30 6457 H 602.111 -0.644678 1.28763 0
M  V30 6458 H 604.064 -3.69284 2.02995 0
M  V30 6459 H 602.788 -3.13369 0.920179 0
M  V30 6460 H 601.447 -2.27706 2.87307 0
M  V30 6461 H 601.095 -4.60382 2.02626 0
M  V30 6462 H 600.795 -4.49946 3.77918 0
M  V30 6463 H 602.319 -5.21312 3.17909 0
M  V30 6464 H 603.733 -3.43376 4.59093 0
M  V30 6465 H 602.13 -2.95666 5.22208 0
M  V30 6466 H 603.2 -1.72262 4.5327 0
M  V30 6467 N 604.543 -1.41418 -0.695603 0
M  V30 6468 C 605.453 -1.45622 -1.83933 0
M  V30 6469 C 606.469 -0.346825 -1.70508 0
M  V30 6470 O 607.645 -0.59454 -1.92424 0
M  V30 6471 C 604.71 -1.33627 -3.19914 0
M  V30 6472 C 603.771 -2.54882 -3.45447 0
M  V30 6473 C 603.004 -2.43449 -4.7494 0
M  V30 6474 O 603.227 -1.45905 -5.51424 0
M  V30 6475 O 602.161 -3.33206 -5.01256 0
M  V30 6476 H 605.987 -2.42114 -1.83342 0
M  V30 6477 H 603.572 -1.22956 -0.848658 0
M  V30 6478 H 605.454 -1.29221 -4.01098 0
M  V30 6479 H 604.129 -0.402508 -3.21188 0
M  V30 6480 H 603.036 -2.64865 -2.64192 0
M  V30 6481 H 604.369 -3.47087 -3.48987 0
M  V30 6482 N 606.021 0.929856 -1.27246 0
M  V30 6483 C 606.951 2.04722 -1.12299 0
M  V30 6484 C 607.932 1.70082 -0.0250464 0
M  V30 6485 O 609.117 1.93176 -0.199141 0
M  V30 6486 C 606.247 3.38721 -0.767145 0
M  V30 6487 C 605.201 3.87466 -1.81808 0
M  V30 6488 C 604.527 5.18246 -1.31626 0
M  V30 6489 C 605.827 4.11095 -3.22177 0
M  V30 6490 H 607.521 2.17485 -2.05769 0
M  V30 6491 H 605.067 1.04503 -0.990715 0
M  V30 6492 H 607.02 4.16366 -0.649413 0
M  V30 6493 H 605.744 3.25967 0.203259 0
M  V30 6494 H 604.403 3.12012 -1.92468 0
M  V30 6495 H 604.051 5.01881 -0.335378 0
M  V30 6496 H 603.751 5.51829 -2.01887 0
M  V30 6497 H 605.275 5.98462 -1.21143 0
M  V30 6498 H 606.689 4.79316 -3.1453 0
M  V30 6499 H 605.086 4.55982 -3.90129 0
M  V30 6500 H 606.156 3.16468 -3.67391 0
M  V30 6501 N 607.499 1.09233 1.13605 0
M  V30 6502 C 608.432 0.6739 2.18023 0
M  V30 6503 C 609.41 -0.318603 1.59448 0
M  V30 6504 O 610.594 -0.220452 1.87206 0
M  V30 6505 C 607.721 -0.00751458 3.38699 0
M  V30 6506 C 606.767 0.946481 4.15865 0
M  V30 6507 S 607.6 2.45753 4.75779 0
M  V30 6508 C 608.756 1.78846 5.99804 0
M  V30 6509 H 608.989 1.55846 2.53178 0
M  V30 6510 H 606.522 0.908118 1.2487 0
M  V30 6511 H 608.48 -0.394368 4.08601 0
M  V30 6512 H 607.141 -0.868693 3.01849 0
M  V30 6513 H 606.334 0.416742 5.02274 0
M  V30 6514 H 605.936 1.27464 3.51609 0
M  V30 6515 H 608.228 1.11135 6.68323 0
M  V30 6516 H 609.171 2.63163 6.57382 0
M  V30 6517 H 609.579 1.25823 5.50299 0
M  V30 6518 N 608.977 -1.30795 0.87923 0
M  V30 6519 C 609.925 -2.30231 0.331112 0
M  V30 6520 C 610.919 -1.59918 -0.558794 0
M  V30 6521 O 612.125 -1.74441 -0.443866 0
M  V30 6522 H 608.5 -0.746785 0.088409 0
M  V30 6523 H 610.471 -2.73925 1.18353 0
M  V30 6524 C 609.22 -3.44848 -0.444401 0
M  V30 6525 H 608.543 -3.99131 0.231106 0
M  V30 6526 H 609.983 -4.16516 -0.793109 0
M  V30 6527 C 608.442 -2.94329 -1.63926 0
M  V30 6528 O 608.972 -2.93875 -2.73862 0
M  V30 6529 N 607.178 -2.50413 -1.4745 0
M  V30 6530 H 606.725 -2.50982 -0.58015 0
M  V30 6531 H 606.683 -2.16969 -2.27534 0
M  V30 6532 N 610.455 -0.639598 -1.44038 0
M  V30 6533 C 611.866 -0.228866 -1.85292 0
M  V30 6534 C 612.217 1.22161 -1.53529 0
M  V30 6535 O 611.342 1.93064 -0.977518 0
M  V30 6536 C 611.937 -0.408592 -3.36327 0
M  V30 6537 C 610.496 -0.0522953 -3.76364 0
M  V30 6538 C 609.643 -0.717959 -2.67844 0
M  V30 6539 H 612.594 -0.844194 -1.34384 0
M  V30 6540 H 612.615 0.349968 -3.78887 0
M  V30 6541 H 612.127 -1.46435 -3.59414 0
M  V30 6542 H 610.228 1.0014 -3.58891 0
M  V30 6543 H 610.341 -0.468261 -4.76806 0
M  V30 6544 H 608.705 -0.152459 -2.54243 0
M  V30 6545 H 609.488 -1.77648 -2.93762 0
M  V30 6546 N 611.933 1.52934 -0.380664 0
M  V30 6547 C 612.843 2.29921 0.466192 0
M  V30 6548 C 613.859 1.36488 1.07922 0
M  V30 6549 O 615.035 1.69553 1.0869 0
M  V30 6550 C 612.1 3.08468 1.58266 0
M  V30 6551 C 611.161 4.17595 0.995627 0
M  V30 6552 C 610.394 4.92387 2.05889 0
M  V30 6553 O 610.617 4.67184 3.27254 0
M  V30 6554 O 609.551 5.77949 1.68102 0
M  V30 6555 H 613.377 3.03274 -0.160735 0
M  V30 6556 H 610.962 1.48698 -0.144617 0
M  V30 6557 H 612.844 3.57469 2.23145 0
M  V30 6558 H 611.519 2.37937 2.19471 0
M  V30 6559 H 610.426 3.72811 0.310332 0
M  V30 6560 H 611.759 4.90336 0.427918 0
M  V30 6561 N 613.412 0.11024 1.57214 0
M  V30 6562 C 614.375 -0.828808 2.1369 0
M  V30 6563 C 615.375 -1.20059 1.06969 0
M  V30 6564 O 616.565 -1.12754 1.32786 0
M  V30 6565 C 613.697 -2.11959 2.66994 0
M  V30 6566 H 614.89 -0.338146 2.97988 0
M  V30 6567 H 612.443 -0.138913 1.55681 0
M  V30 6568 H 613.178 -2.65476 1.8626 0
M  V30 6569 H 612.963 -1.86258 3.45037 0
M  V30 6570 H 614.453 -2.79105 3.10629 0
M  V30 6571 N 614.89 -1.56749 -0.16351 0
M  V30 6572 C 615.822 -1.93587 -1.22705 0
M  V30 6573 C 616.835 -0.829824 -1.40063 0
M  V30 6574 O 618.024 -1.10826 -1.39928 0
M  V30 6575 C 615.124 -2.1803 -2.59454 0
M  V30 6576 C 614.297 -3.4928 -2.63292 0
M  V30 6577 C 613.356 -3.62457 -3.8146 0
M  V30 6578 O 612.382 -4.35004 -3.67096 0
M  V30 6579 N 613.584 -2.97888 -4.9824 0
M  V30 6580 H 616.349 -2.8542 -0.914081 0
M  V30 6581 H 613.91 -1.58 -0.353214 0
M  V30 6582 H 615.902 -2.24102 -3.36987 0
M  V30 6583 H 614.472 -1.32543 -2.8311 0
M  V30 6584 H 613.692 -3.54795 -1.71796 0
M  V30 6585 H 614.98 -4.35632 -2.62873 0
M  V30 6586 H 614.378 -2.38833 -5.12811 0
M  V30 6587 H 612.935 -3.09545 -5.73607 0
M  V30 6588 N 616.368 0.432326 -1.51554 0
M  V30 6589 C 617.298 1.53242 -1.76179 0
M  V30 6590 C 618.279 1.58717 -0.611801 0
M  V30 6591 O 619.464 1.74364 -0.855033 0
M  V30 6592 C 616.594 2.91278 -1.89141 0
M  V30 6593 C 615.548 3.00663 -3.04608 0
M  V30 6594 C 614.874 4.40728 -3.02759 0
M  V30 6595 C 616.174 2.74281 -4.44485 0
M  V30 6596 H 617.868 1.32886 -2.68294 0
M  V30 6597 H 615.414 0.637841 -1.29103 0
M  V30 6598 H 617.367 3.68203 -2.04951 0
M  V30 6599 H 616.091 3.12877 -0.936785 0
M  V30 6600 H 614.75 2.26179 -2.88511 0
M  V30 6601 H 614.398 4.59301 -2.05065 0
M  V30 6602 H 614.098 4.47936 -3.80299 0
M  V30 6603 H 615.622 5.19619 -3.20669 0
M  V30 6604 H 617.036 3.40936 -4.60907 0
M  V30 6605 H 615.433 2.92893 -5.23769 0
M  V30 6606 H 616.503 1.69856 -4.54177 0
M  V30 6607 N 617.846 1.41785 0.688094 0
M  V30 6608 C 619.257 1.3701 1.26828 0
M  V30 6609 C 619.608 0.056835 1.96118 0
M  V30 6610 O 618.733 -0.84475 1.99231 0
M  V30 6611 C 619.328 2.48168 2.30648 0
M  V30 6612 C 617.887 2.46766 2.84224 0
M  V30 6613 C 617.034 2.27633 1.58361 0
M  V30 6614 H 619.985 1.51192 0.482351 0
M  V30 6615 H 620.006 2.17655 3.121 0
M  V30 6616 H 619.518 3.43735 1.80188 0
M  V30 6617 H 617.619 1.54978 3.3884 0
M  V30 6618 H 617.732 3.43342 3.34145 0
M  V30 6619 H 616.096 1.75648 1.84445 0
M  V30 6620 H 616.879 3.25238 1.09887 0
M  V30 6621 N 619.324 -0.923095 1.27737 0
M  V30 6622 C 620.256 -2.02871 1.06658 0
M  V30 6623 C 621.269 -1.62786 0.0212095 0
M  V30 6624 O 622.458 -1.76548 0.263267 0
M  V30 6625 C 619.558 -3.33603 0.59682 0
M  V30 6626 C 618.731 -4.02354 1.71551 0
M  V30 6627 C 617.79 -5.11364 1.24071 0
M  V30 6628 O 616.816 -5.35075 1.94123 0
M  V30 6629 N 618.018 -5.80416 0.0988444 0
M  V30 6630 H 620.783 -2.21515 2.01869 0
M  V30 6631 H 618.344 -1.09378 1.19365 0
M  V30 6632 H 620.336 -4.03845 0.262984 0
M  V30 6633 H 618.906 -3.11499 -0.262187 0
M  V30 6634 H 618.126 -3.25786 2.2194 0
M  V30 6635 H 619.414 -4.45035 2.46619 0
M  V30 6636 H 618.812 -5.63611 -0.485743 0
M  V30 6637 H 617.369 -6.51563 -0.17578 0
M  V30 6638 N 620.802 -1.09834 -1.13024 0
M  V30 6639 C 622.048 -0.83819 -1.84668 0
M  V30 6640 C 622.381 0.634645 -1.83537 0
M  V30 6641 O 621.656 1.46753 -1.27647 0
M  V30 6642 C 621.939 -1.37933 -3.32636 0
M  V30 6643 C 621.792 -2.91857 -3.42257 0
M  V30 6644 C 623.111 -1.01654 -4.28199 0
M  V30 6645 H 620.23 -0.30595 -0.670495 0
M  V30 6646 H 622.872 -1.36044 -1.32635 0
M  V30 6647 H 621.022 -0.935111 -3.77078 0
M  V30 6648 H 622.694 -3.44759 -3.06495 0
M  V30 6649 H 620.937 -3.28776 -2.83 0
M  V30 6650 H 621.608 -3.24799 -4.46329 0
M  V30 6651 H 624.084 -1.39973 -3.9185 0
M  V30 6652 H 622.96 -1.42217 -5.30156 0
M  V30 6653 H 623.221 0.0747794 -4.42037 0
M  V30 6654 N 622.28 1.30327 -0.886154 0
M  V30 6655 C 623.51 1.99964 -0.519421 0
M  V30 6656 C 623.918 1.66593 0.89686 0
M  V30 6657 O 623.261 0.899886 1.60149 0
M  V30 6658 C 623.323 3.54187 -0.615795 0
M  V30 6659 C 622.987 4.11078 -1.9966 0
M  V30 6660 C 623.984 4.26985 -2.96614 0
M  V30 6661 C 621.669 4.46429 -2.30231 0
M  V30 6662 C 623.663 4.77456 -4.22273 0
M  V30 6663 C 621.35 4.966 -3.56135 0
M  V30 6664 C 622.348 5.12066 -4.5197 0
M  V30 6665 O 622.036 5.61154 -5.7564 0
M  V30 6666 H 621.768 0.645979 -0.199217 0
M  V30 6667 H 624.322 1.67154 -1.19368 0
M  V30 6668 H 622.552 3.86528 0.115448 0
M  V30 6669 H 624.241 4.05065 -0.26017 0
M  V30 6670 H 625.007 3.99975 -2.74308 0
M  V30 6671 H 620.886 4.33658 -1.56404 0
M  V30 6672 H 624.43 4.89444 -4.97082 0
M  V30 6673 H 620.327 5.23045 -3.78277 0
M  V30 6674 H 621.095 5.79494 -5.78039 0
M  V30 6675 N 623.758 0.647228 1.43697 0
M  V30 6676 C 625.169 0.238689 1.85168 0
M  V30 6677 C 625.52 -1.21345 1.54175 0
M  V30 6678 O 624.645 -1.92542 0.987743 0
M  V30 6679 C 625.24 0.426422 3.36106 0
M  V30 6680 C 623.799 0.0722541 3.76331 0
M  V30 6681 C 622.946 0.732153 2.6746 0
M  V30 6682 H 625.897 0.851309 1.33934 0
M  V30 6683 H 625.918 -0.32987 3.79067 0
M  V30 6684 H 625.43 1.48339 3.58632 0
M  V30 6685 H 623.531 -0.982355 3.59417 0
M  V30 6686 H 623.644 0.493541 4.76551 0
M  V30 6687 H 622.008 0.16594 2.54159 0
M  V30 6688 H 622.791 1.79204 2.92816 0
M  V30 6689 N 625.236 -1.5273 0.388769 0
M  V30 6690 C 626.483 -2.01573 -0.19359 0
M  V30 6691 C 626.811 -1.27525 -1.46859 0
M  V30 6692 O 626.066 -0.363926 -1.92286 0
M  V30 6693 C 626.365 -3.53765 -0.508445 0
M  V30 6694 C 626.031 -4.4582 0.674947 0
M  V30 6695 C 624.693 -4.70703 0.999596 0
M  V30 6696 C 627.045 -5.00138 1.46666 0
M  V30 6697 C 624.373 -5.47155 2.11751 0
M  V30 6698 C 626.725 -5.77812 2.57518 0
M  V30 6699 C 625.389 -6.00975 2.90492 0
M  V30 6700 H 624.659 -0.737606 -0.0708397 0
M  V30 6701 H 627.306 -1.84134 0.526006 0
M  V30 6702 H 625.611 -3.69274 -1.30936 0
M  V30 6703 H 627.308 -3.8905 -0.971664 0
M  V30 6704 H 623.898 -4.26616 0.411906 0
M  V30 6705 H 628.082 -4.8084 1.22909 0
M  V30 6706 H 623.338 -5.63314 2.3767 0
M  V30 6707 H 627.512 -6.18904 3.19267 0
M  V30 6708 H 625.139 -6.59998 3.77236 0
M  V30 6709 N 626.714 -0.118576 -1.57153 0
M  V30 6710 C 627.677 0.817464 -2.14127 0
M  V30 6711 C 628.677 1.1949 -1.07604 0
M  V30 6712 O 629.867 1.12048 -1.33382 0
M  V30 6713 C 626.999 2.10541 -2.68115 0
M  V30 6714 H 628.192 0.322339 -2.98163 0
M  V30 6715 H 625.745 0.130655 -1.55753 0
M  V30 6716 H 626.48 2.64485 -1.87665 0
M  V30 6717 H 626.265 1.84425 -3.4602 0
M  V30 6718 H 627.755 2.77453 -3.12105 0
M  V30 6719 N 628.193 1.56834 0.155195 0
M  V30 6720 C 629.156 1.96748 1.17571 0
M  V30 6721 C 630.156 0.853006 1.3631 0
M  V30 6722 O 631.346 1.11978 1.33441 0
M  V30 6723 C 628.478 2.27631 2.53765 0
M  V30 6724 H 629.671 2.88085 0.833498 0
M  V30 6725 H 627.224 1.51141 0.398242 0
M  V30 6726 H 627.959 1.39059 2.92973 0
M  V30 6727 H 627.744 3.0888 2.41527 0
M  V30 6728 H 629.234 2.59377 3.27282 0
M  V30 6729 N 629.671 -0.424282 1.51781 0
M  V30 6730 C 630.948 -1.18464 1.55646 0
M  V30 6731 C 631.328 -2.08529 0.328438 0
M  V30 6732 O 630.676 -2.17969 -0.685693 0
M  V30 6733 C 630.886 -1.97514 2.87731 0
M  V30 6734 C 632.234 -2.54106 3.40169 0
M  V30 6735 O 633.258 -2.07711 2.89369 0
M  V30 6736 O 632.117 -3.38759 4.28841 0
M  V30 6737 H 629.211 -0.540055 0.626314 0
M  V30 6738 H 631.757 -0.432291 1.64102 0
M  V30 6739 H 630.529 -1.31444 3.68562 0
M  V30 6740 H 630.152 -2.79787 2.82498 0
M  V30 6741 N 631.149 -1.42148 -0.680565 0
M  V30 6742 C 632.079 -1.4796 -1.80638 0
M  V30 6743 C 633.06 -0.336728 -1.66734 0
M  V30 6744 O 634.245 -0.550247 -1.86242 0
M  V30 6745 C 631.375 -1.37569 -3.18892 0
M  V30 6746 C 630.329 -2.49823 -3.47524 0
M  V30 6747 C 629.655 -2.24491 -4.85291 0
M  V30 6748 C 630.955 -3.92144 -3.44994 0
M  V30 6749 H 632.649 -2.42184 -1.76032 0
M  V30 6750 H 630.195 -1.16566 -0.845481 0
M  V30 6751 H 632.148 -1.40243 -3.97379 0
M  V30 6752 H 630.872 -0.398357 -3.24162 0
M  V30 6753 H 629.531 -2.46455 -2.71395 0
M  V30 6754 H 629.179 -1.25066 -4.87204 0
M  V30 6755 H 628.879 -2.99722 -5.05411 0
M  V30 6756 H 630.403 -2.28906 -5.66069 0
M  V30 6757 H 631.817 -3.97145 -4.13459 0
M  V30 6758 H 630.214 -4.67179 -3.76648 0
M  V30 6759 H 631.284 -4.19225 -2.43676 0
M  V30 6760 N 632.627 0.916307 -1.28225 0
M  V30 6761 C 633.857 1.69654 -1.17902 0
M  V30 6762 C 634.265 1.87331 0.265268 0
M  V30 6763 O 633.608 1.39828 1.19137 0
M  V30 6764 C 633.67 3.11024 -1.80289 0
M  V30 6765 C 633.334 3.16643 -3.29525 0
M  V30 6766 C 634.331 2.98032 -4.25997 0
M  V30 6767 C 632.016 3.39238 -3.70436 0
M  V30 6768 C 634.01 3.01924 -5.61356 0
M  V30 6769 C 631.697 3.42762 -5.05922 0
M  V30 6770 C 632.695 3.24125 -6.01192 0
M  V30 6771 O 632.383 3.27406 -7.34208 0
M  V30 6772 H 632.115 0.537197 -0.41036 0
M  V30 6773 H 634.669 1.15547 -1.69817 0
M  V30 6774 H 632.899 3.66662 -1.22865 0
M  V30 6775 H 634.588 3.71063 -1.6452 0
M  V30 6776 H 635.354 2.80405 -3.95725 0
M  V30 6777 H 631.233 3.52791 -2.96749 0
M  V30 6778 H 634.777 2.87295 -6.35694 0
M  V30 6779 H 630.674 3.59916 -5.35846 0
M  V30 6780 H 631.442 3.43784 -7.42802 0
M  V30 6781 N 634.105 1.10431 1.1244 0
M  V30 6782 C 635.037 0.710945 2.17895 0
M  V30 6783 C 636.05 -0.252315 1.60833 0
M  V30 6784 O 637.239 -0.03679 1.78462 0
M  V30 6785 C 634.339 0.0284262 3.38888 0
M  V30 6786 C 633.512 1.01585 4.2544 0
M  V30 6787 C 632.571 0.364826 5.24934 0
M  V30 6788 O 631.597 1.01561 5.60066 0
M  V30 6789 N 632.799 -0.87674 5.73841 0
M  V30 6790 H 635.564 1.61826 2.52255 0
M  V30 6791 H 633.125 0.993132 1.27861 0
M  V30 6792 H 635.117 -0.418568 4.0253 0
M  V30 6793 H 633.687 -0.781294 3.02679 0
M  V30 6794 H 632.907 1.64111 3.58415 0
M  V30 6795 H 634.195 1.68425 4.80115 0
M  V30 6796 H 633.593 -1.42483 5.47462 0
M  V30 6797 H 632.15 -1.26688 6.39369 0
M  V30 6798 N 635.583 -1.29855 0.893053 0
M  V30 6799 C 636.53 -2.27909 0.364161 0
M  V30 6800 C 637.5 -1.56726 -0.550093 0
M  V30 6801 O 638.685 -1.84747 -0.47677 0
M  V30 6802 C 635.825 -3.42678 -0.408178 0
M  V30 6803 C 634.938 -4.28659 0.536212 0
M  V30 6804 C 634.073 -5.30599 -0.252521 0
M  V30 6805 C 633.112 -6.08234 0.686822 0
M  V30 6806 N 632.249 -7.02068 -0.0670902 0
M  V30 6807 H 637.089 -2.72531 1.20544 0
M  V30 6808 H 634.626 -1.34047 0.605779 0
M  V30 6809 H 636.584 -4.07986 -0.871962 0
M  V30 6810 H 635.214 -2.99103 -1.21397 0
M  V30 6811 H 634.266 -3.63584 1.1185 0
M  V30 6812 H 635.578 -4.8274 1.25552 0
M  V30 6813 H 634.732 -6.01694 -0.777801 0
M  V30 6814 H 633.471 -4.77233 -1.005 0
M  V30 6815 H 632.476 -5.3601 1.22366 0
M  V30 6816 H 633.701 -6.63689 1.43852 0
M  V30 6817 H 631.647 -6.5108 -0.801955 0
M  V30 6818 H 631.564 -7.53675 0.59243 0
M  V30 6819 H 632.832 -7.77392 -0.572851 0
M  V30 6820 N 637.061 -0.65484 -1.43351 0
M  V30 6821 C 637.971 0.0363603 -2.34572 0
M  V30 6822 C 638.987 0.810432 -1.53974 0
M  V30 6823 O 640.163 0.757308 -1.86619 0
M  V30 6824 C 637.228 0.989733 -3.32273 0
M  V30 6825 C 636.289 0.212414 -4.28774 0
M  V30 6826 C 635.522 1.12038 -5.21808 0
M  V30 6827 O 635.745 2.35967 -5.19303 0
M  V30 6828 O 634.679 0.59191 -5.98982 0
M  V30 6829 H 638.505 -0.714527 -2.95175 0
M  V30 6830 H 636.09 -0.415029 -1.4352 0
M  V30 6831 H 637.972 1.53759 -3.92347 0
M  V30 6832 H 636.647 1.72082 -2.74171 0
M  V30 6833 H 635.554 -0.379062 -3.72175 0
M  V30 6834 H 636.887 -0.479138 -4.89862 0
M  V30 6835 N 638.539 1.52521 -0.396863 0
M  V30 6836 C 639.469 2.29582 0.425941 0
M  V30 6837 C 640.45 1.33281 1.05689 0
M  V30 6838 O 641.635 1.62181 1.06823 0
M  V30 6839 C 638.765 3.10821 1.54943 0
M  V30 6840 C 637.719 4.15069 1.04413 0
M  V30 6841 C 637.045 4.84578 2.26028 0
M  V30 6842 C 638.345 5.22191 0.106767 0
M  V30 6843 H 640.039 2.98612 -0.217045 0
M  V30 6844 H 637.585 1.43611 -0.105826 0
M  V30 6845 H 639.538 3.63492 2.13193 0
M  V30 6846 H 638.262 2.39538 2.22011 0
M  V30 6847 H 636.921 3.63389 0.484118 0
M  V30 6848 H 636.569 4.09835 2.91623 0
M  V30 6849 H 636.269 5.55043 1.92876 0
M  V30 6850 H 637.793 5.40056 2.84906 0
M  V30 6851 H 639.207 5.70176 0.597685 0
M  V30 6852 H 637.604 5.99947 -0.135352 0
M  V30 6853 H 638.674 4.77531 -0.842134 0
M  V30 6854 N 640.017 0.126909 1.57088 0
M  V30 6855 C 640.98 -0.806097 2.14557 0
M  V30 6856 C 641.98 -1.18918 1.08236 0
M  V30 6857 O 643.17 -1.11339 1.33975 0
M  V30 6858 C 640.302 -2.09116 2.69227 0
M  V30 6859 H 641.495 -0.306522 2.98329 0
M  V30 6860 H 639.048 -0.122393 1.5582 0
M  V30 6861 H 639.783 -2.63486 1.89065 0
M  V30 6862 H 639.568 -1.82588 3.46993 0
M  V30 6863 H 641.058 -2.75794 3.13572 0
M  V30 6864 N 641.495 -1.56914 -0.146875 0
M  V30 6865 C 642.723 -1.87515 -0.874394 0
M  V30 6866 C 643.138 -0.715116 -1.74733 0
M  V30 6867 O 642.495 0.315113 -1.79759 0
M  V30 6868 C 642.546 -3.17362 -1.731 0
M  V30 6869 O 642.267 -4.28897 -0.893245 0
M  V30 6870 C 643.768 -3.61479 -2.56609 0
M  V30 6871 H 640.988 -0.621546 -0.252827 0
M  V30 6872 H 643.532 -2.04023 -0.139627 0
M  V30 6873 H 641.687 -3.02608 -2.41883 0
M  V30 6874 H 642.101 -5.03146 -1.48137 0
M  V30 6875 H 643.575 -4.5517 -3.12289 0
M  V30 6876 H 644.052 -2.86773 -3.32653 0
M  V30 6877 H 644.658 -3.78927 -1.93117 0
M  V30 6878 N 642.974 0.416227 -1.52004 0
M  V30 6879 C 643.904 1.51365 -1.77795 0
M  V30 6880 C 644.885 1.58059 -0.628601 0
M  V30 6881 O 646.07 1.73447 -0.873478 0
M  V30 6882 C 643.2 2.89256 -1.92219 0
M  V30 6883 C 642.154 2.97415 -3.0778 0
M  V30 6884 C 641.48 4.37492 -3.07417 0
M  V30 6885 C 642.78 2.69551 -4.47369 0
M  V30 6886 H 644.474 1.30033 -2.69688 0
M  V30 6887 H 642.02 0.624112 -1.29772 0
M  V30 6888 H 643.973 3.66008 -2.08845 0
M  V30 6889 H 642.697 3.11866 -0.969917 0
M  V30 6890 H 641.356 2.23107 -2.90893 0
M  V30 6891 H 641.004 4.571 -2.09925 0
M  V30 6892 H 640.704 4.43877 -3.85029 0
M  V30 6893 H 642.228 5.16188 -3.26162 0
M  V30 6894 H 643.642 3.36028 -4.64497 0
M  V30 6895 H 642.039 2.87321 -5.26846 0
M  V30 6896 H 643.109 1.65029 -4.55953 0
M  V30 6897 N 644.452 1.42507 0.673017 0
M  V30 6898 C 645.384 1.42074 1.79854 0
M  V30 6899 C 646.397 0.319569 1.59633 0
M  V30 6900 O 647.586 0.582769 1.68719 0
M  V30 6901 C 644.686 1.19886 3.16987 0
M  V30 6902 C 643.859 2.42471 3.64042 0
M  V30 6903 C 642.918 2.15802 4.79913 0
M  V30 6904 O 641.944 2.89015 4.90366 0
M  V30 6905 N 643.146 1.16225 5.68746 0
M  V30 6906 H 645.911 2.3909 1.8071 0
M  V30 6907 H 643.472 1.37409 0.856171 0
M  V30 6908 H 645.464 0.999591 3.92161 0
M  V30 6909 H 644.034 0.313879 3.1102 0
M  V30 6910 H 643.254 2.77954 2.79526 0
M  V30 6911 H 644.542 3.24097 3.92223 0
M  V30 6912 H 643.94 0.556756 5.62954 0
M  V30 6913 H 642.497 1.02285 6.43724 0
M  V30 6914 N 645.93 -0.909495 1.28709 0
M  V30 6915 C 647.346 -1.18862 1.06508 0
M  V30 6916 C 647.546 -2.00604 -0.189864 0
M  V30 6917 O 646.602 -2.36281 -0.890355 0
M  V30 6918 C 647.915 -1.91908 2.31499 0
M  V30 6919 C 649.463 -2.04773 2.36721 0
M  V30 6920 C 649.938 -2.81228 3.6149 0
M  V30 6921 N 651.429 -2.88787 3.62155 0
M  V30 6922 C 652.164 -3.48455 4.55375 0
M  V30 6923 N 651.66 -4.09369 5.58918 0
M  V30 6924 N 653.453 -3.46035 4.42963 0
M  V30 6925 H 645.604 -0.363867 2.0926 0
M  V30 6926 H 647.867 -0.223649 0.921241 0
M  V30 6927 H 647.573 -1.39275 3.22948 0
M  V30 6928 H 647.447 -2.92436 2.38245 0
M  V30 6929 H 649.834 -2.56585 1.45767 0
M  V30 6930 H 649.915 -1.03408 2.33967 0
M  V30 6931 H 649.559 -2.30094 4.5279 0
M  V30 6932 H 649.489 -3.82917 3.61499 0
M  V30 6933 H 651.98 -2.45514 2.87283 0
M  V30 6934 H 652.293 -4.52891 6.26187 0
M  V30 6935 H 650.638 -4.0786 5.62739 0
M  V30 6936 H 653.829 -2.9766 3.6127 0
M  V30 6937 H 654.002 -3.92244 5.15799 0
M  V30 6938 N 647.408 -1.11026 -1.11852 0
M  V30 6939 C 648.34 -0.72249 -2.17515 0
M  V30 6940 C 649.353 0.243782 -1.60964 0
M  V30 6941 O 650.542 0.0273252 -1.78479 0
M  V30 6942 C 647.642 -0.0463979 -3.38868 0
M  V30 6943 C 646.815 -1.0384 -4.24895 0
M  V30 6944 C 645.874 -0.392659 -5.24733 0
M  V30 6945 O 644.9 -1.0453 -5.5952 0
M  V30 6946 N 646.102 0.846296 -5.74298 0
M  V30 6947 H 648.867 -1.63161 -2.51393 0
M  V30 6948 H 646.428 -0.999899 -1.27333 0
M  V30 6949 H 648.42 0.397215 -4.02746 0
M  V30 6950 H 646.99 0.765231 -3.03089 0
M  V30 6951 H 646.21 -1.6601 -3.57539 0
M  V30 6952 H 647.498 -1.70968 -4.79215 0
M  V30 6953 H 646.896 1.39578 -5.4821 0
M  V30 6954 H 645.453 1.23296 -6.40032 0
M  V30 6955 N 648.886 1.2938 -0.899927 0
M  V30 6956 C 650.111 2.00228 -0.540692 0
M  V30 6957 C 650.536 1.66909 0.867359 0
M  V30 6958 O 649.894 0.893824 1.57735 0
M  V30 6959 C 649.942 3.52921 -0.740232 0
M  V30 6960 O 649.046 4.11879 0.207154 0
M  V30 6961 H 648.387 0.629505 -0.211233 0
M  V30 6962 H 650.917 1.6487 -1.21158 0
M  V30 6963 H 650.927 4.0287 -0.644973 0
M  V30 6964 H 649.602 3.76508 -1.76677 0
M  V30 6965 H 648.179 3.72845 0.0643315 0
M  V30 6966 N 650.364 0.662433 1.43002 0
M  V30 6967 C 651.775 0.258315 1.84904 0
M  V30 6968 C 652.126 -1.19703 1.55453 0
M  V30 6969 O 651.251 -1.91484 1.00811 0
M  V30 6970 C 651.846 0.462047 3.35635 0
M  V30 6971 C 650.405 0.112165 3.76233 0
M  V30 6972 C 649.552 0.760479 2.66668 0
M  V30 6973 H 652.503 0.865467 1.33024 0
M  V30 6974 H 652.524 -0.289646 3.79396 0
M  V30 6975 H 652.036 1.52135 3.57039 0
M  V30 6976 H 650.137 -0.944179 3.60439 0
M  V30 6977 H 650.25 0.544058 4.76001 0
M  V30 6978 H 648.614 0.192887 2.53969 0
M  V30 6979 H 649.397 1.82299 2.90898 0
M  V30 6980 N 651.842 -1.52309 0.404946 0
M  V30 6981 C 652.752 -2.30634 -0.429555 0
M  V30 6982 C 653.768 -1.38187 -1.05737 0
M  V30 6983 O 654.944 -1.71261 -1.05979 0
M  V30 6984 C 652.009 -3.10947 -1.53339 0
M  V30 6985 C 651.07 -4.19126 -0.929065 0
M  V30 6986 C 650.303 -4.95601 -1.9803 0
M  V30 6987 O 650.526 -4.72331 -3.1978 0
M  V30 6988 O 649.46 -5.80551 -1.58886 0
M  V30 6989 H 653.286 -3.0298 0.208963 0
M  V30 6990 H 650.871 -1.4845 0.168255 0
M  V30 6991 H 652.753 -3.60974 -2.1743 0
M  V30 6992 H 651.428 -2.41399 -2.15658 0
M  V30 6993 H 650.335 -3.73257 -0.250982 0
M  V30 6994 H 651.668 -4.90955 -0.349855 0
M  V30 6995 N 653.32 -0.135238 -1.57019 0
M  V30 6996 C 654.27 0.820408 -2.12728 0
M  V30 6997 C 655.254 1.21735 -1.05211 0
M  V30 6998 O 656.446 1.18574 -1.31413 0
M  V30 6999 C 653.575 2.06414 -2.74314 0
M  V30 7000 C 652.661 1.69083 -3.88937 0
M  V30 7001 N 653.052 1.0251 -4.95303 0
M  V30 7002 C 651.35 1.98434 -3.99425 0
M  V30 7003 C 652.051 0.846749 -5.75504 0
M  V30 7004 N 651.027 1.3769 -5.25873 0
M  V30 7005 H 654.829 0.302426 -2.9234 0
M  V30 7006 H 652.343 0.0667009 -1.62263 0
M  V30 7007 H 654.34 2.75863 -3.12579 0
M  V30 7008 H 653 2.58741 -1.96171 0
M  V30 7009 H 654.011 0.687207 -5.1332 0
M  V30 7010 H 650.688 2.52693 -3.32344 0
M  V30 7011 H 652.078 0.322949 -6.71123 0
M  V30 7012 N 654.798 1.5699 0.138552 0
M  V30 7013 C 655.746 1.99858 1.18994 0
M  V30 7014 C 656.74 0.89231 1.43994 0
M  V30 7015 O 657.946 1.0775 1.44187 0
M  V30 7016 H 654.321 0.636325 0.400743 0
M  V30 7017 H 656.292 2.87427 0.801755 0
M  V30 7018 C 655.041 2.40235 2.51361 0
M  V30 7019 H 654.364 3.24917 2.32957 0
M  V30 7020 H 655.804 2.74045 3.23535 0
M  V30 7021 C 654.263 1.25829 3.1252 0
M  V30 7022 O 654.793 0.563604 3.97727 0
M  V30 7023 N 652.999 1.02036 2.72097 0
M  V30 7024 H 652.546 1.58705 2.02905 0
M  V30 7025 H 652.504 0.256796 3.1335 0
M  V30 7026 N 656.276 -0.40816 1.52223 0
M  V30 7027 C 657.206 -1.5042 1.78595 0
M  V30 7028 C 658.187 -1.57723 0.636974 0
M  V30 7029 O 659.372 -1.72982 0.882664 0
M  V30 7030 C 656.502 -2.88232 1.93751 0
M  V30 7031 C 655.456 -2.95779 3.09352 0
M  V30 7032 C 654.782 -4.35855 3.09732 0
M  V30 7033 C 656.082 -2.67175 4.48793 0
M  V30 7034 H 657.776 -1.28601 2.70374 0
M  V30 7035 H 655.322 -0.617221 1.30101 0
M  V30 7036 H 657.275 -3.64895 2.10783 0
M  V30 7037 H 655.999 -3.11347 0.986443 0
M  V30 7038 H 654.658 -2.21561 2.92072 0
M  V30 7039 H 654.306 -4.55981 2.12346 0
M  V30 7040 H 654.006 -4.41829 3.87377 0
M  V30 7041 H 655.53 -5.14451 3.28895 0
M  V30 7042 H 656.944 -3.3356 4.66273 0
M  V30 7043 H 655.341 -2.84523 5.28362 0
M  V30 7044 H 656.411 -1.62609 4.56822 0
M  V30 7045 N 657.755 -1.42862 -0.66545 0
M  V30 7046 C 658.983 -1.47246 -1.45349 0
M  V30 7047 C 659.398 -0.0865944 -1.88601 0
M  V30 7048 O 658.755 0.900652 -1.58728 0
M  V30 7049 C 658.806 -2.40772 -2.6965 0
M  V30 7050 O 658.527 -3.73968 -2.2821 0
M  V30 7051 C 660.028 -2.54272 -3.63126 0
M  V30 7052 H 657.248 -0.500497 -0.446927 0
M  V30 7053 H 659.792 -1.87477 -0.816871 0
M  V30 7054 H 657.947 -2.0377 -3.29479 0
M  V30 7055 H 658.361 -4.24146 -3.08546 0
M  V30 7056 H 659.835 -3.23815 -4.47043 0
M  V30 7057 H 660.312 -1.58364 -4.09656 0
M  V30 7058 H 660.918 -2.92036 -3.09185 0
M  V30 7059 N 659.233 0.902656 -1.29189 0
M  V30 7060 C 660.183 1.99326 -1.10695 0
M  V30 7061 C 661.167 1.60877 -0.0272521 0
M  V30 7062 O 662.359 1.75245 -0.248635 0
M  V30 7063 C 659.488 3.34265 -0.78244 0
M  V30 7064 C 658.574 3.79081 -1.90153 0
M  V30 7065 N 658.965 3.96162 -3.14466 0
M  V30 7066 C 657.263 4.08333 -1.79389 0
M  V30 7067 C 657.964 4.3388 -3.87458 0
M  V30 7068 N 656.94 4.42759 -3.15381 0
M  V30 7069 H 660.742 2.10597 -2.05003 0
M  V30 7070 H 658.256 1.09127 -1.20271 0
M  V30 7071 H 660.253 4.12097 -0.630996 0
M  V30 7072 H 658.913 3.2434 0.152754 0
M  V30 7073 H 659.924 3.81775 -3.49954 0
M  V30 7074 H 656.601 4.06982 -0.931217 0
M  V30 7075 H 657.991 4.54965 -4.94425 0
M  V30 7076 N 660.711 1.11618 1.11262 0
M  V30 7077 C 662.122 0.881942 1.64556 0
M  V30 7078 C 662.473 -0.585442 1.87262 0
M  V30 7079 O 661.598 -1.44795 1.60821 0
M  V30 7080 C 662.193 1.59446 2.98935 0
M  V30 7081 C 660.752 1.40661 3.4913 0
M  V30 7082 C 659.899 1.63593 2.23903 0
M  V30 7083 H 662.85 1.27217 0.94877 0
M  V30 7084 H 662.871 1.04054 3.65996 0
M  V30 7085 H 662.383 2.66241 2.82378 0
M  V30 7086 H 660.484 0.360835 3.70849 0
M  V30 7087 H 660.597 2.15693 4.27801 0
M  V30 7088 H 658.961 1.05944 2.3162 0
M  V30 7089 H 659.744 2.71666 2.09886 0
M  V30 7090 N 662.189 -1.289 0.906776 0
M  V30 7091 C 663.099 -2.31256 0.394707 0
M  V30 7092 C 664.115 -1.66231 -0.514121 0
M  V30 7093 O 665.291 -1.97347 -0.401994 0
M  V30 7094 C 662.356 -3.44792 -0.363191 0
M  V30 7095 C 661.417 -4.25391 0.578012 0
M  V30 7096 C 660.65 -5.33506 -0.143811 0
M  V30 7097 O 660.873 -5.53786 -1.36665 0
M  V30 7098 O 659.807 -5.99673 0.5173 0
M  V30 7099 H 663.633 -2.77051 1.24405 0
M  V30 7100 H 661.218 -1.33466 0.671346 0
M  V30 7101 H 663.1 -4.139 -0.791503 0
M  V30 7102 H 661.775 -3.01093 -1.18848 0
M  V30 7103 H 660.682 -3.58899 1.05558 0
M  V30 7104 H 662.015 -4.72752 1.36992 0
M  V30 7105 N 663.667 -0.670007 -1.42649 0
M  V30 7106 C 664.597 -0.00258501 -2.335 0
M  V30 7107 C 665.578 0.794364 -1.50412 0
M  V30 7108 O 666.763 0.75248 -1.79029 0
M  V30 7109 C 663.893 0.952748 -3.33976 0
M  V30 7110 C 662.847 0.264733 -4.2718 0
M  V30 7111 C 662.173 1.33267 -5.17826 0
M  V30 7112 C 663.473 -0.853289 -5.15283 0
M  V30 7113 H 665.167 -0.761326 -2.89559 0
M  V30 7114 H 662.713 -0.367561 -1.3923 0
M  V30 7115 H 664.666 1.4287 -3.96442 0
M  V30 7116 H 663.39 1.74285 -2.7621 0
M  V30 7117 H 662.049 -0.190938 -3.66102 0
M  V30 7118 H 661.697 2.11464 -4.5639 0
M  V30 7119 H 661.397 0.877476 -5.81011 0
M  V30 7120 H 662.921 1.80965 -5.83167 0
M  V30 7121 H 664.335 -0.458763 -5.71462 0
M  V30 7122 H 662.732 -1.23398 -5.87276 0
M  V30 7123 H 663.802 -1.70412 -4.53969 0
M  V30 7124 N 665.145 1.52092 -0.413018 0
M  V30 7125 C 666.37 2.06756 0.163338 0
M  V30 7126 C 666.795 1.28073 1.37764 0
M  V30 7127 O 666.153 0.312015 1.78595 0
M  V30 7128 C 666.201 3.57278 0.488322 0
M  V30 7129 O 665.305 3.80986 1.57871 0
M  V30 7130 H 664.646 0.663882 0.0125068 0
M  V30 7131 H 667.176 1.95988 -0.587339 0
M  V30 7132 H 667.186 4.01125 0.745836 0
M  V30 7133 H 665.861 4.13978 -0.399327 0
M  V30 7134 H 664.438 3.49017 1.31306 0
M  V30 7135 N 666.623 0.143563 1.56945 0
M  V30 7136 C 667.869 -0.50916 1.96304 0
M  V30 7137 C 668.202 -1.64741 1.0283 0
M  V30 7138 O 667.477 -1.94374 0.0700361 0
M  V30 7139 C 667.76 -1.0186 3.45393 0
M  V30 7140 C 667.613 0.117923 4.49645 0
M  V30 7141 C 668.932 -1.90151 3.96901 0
M  V30 7142 H 666.051 -0.183608 0.713763 0
M  V30 7143 H 668.693 0.224095 1.88674 0
M  V30 7144 H 666.843 -1.64345 3.52027 0
M  V30 7145 H 668.515 0.754145 4.55094 0
M  V30 7146 H 666.758 0.777568 4.26774 0
M  V30 7147 H 667.429 -0.280187 5.51288 0
M  V30 7148 H 669.905 -1.375 3.92725 0
M  V30 7149 H 668.781 -2.22707 5.0169 0
M  V30 7150 H 669.042 -2.83718 3.39052 0
M  V30 7151 N 668.101 -1.57061 -0.130224 0
M  V30 7152 C 669.064 -1.98593 -1.14426 0
M  V30 7153 C 670.064 -0.874584 -1.34936 0
M  V30 7154 O 671.254 -1.14086 -1.31643 0
M  V30 7155 C 668.386 -2.31639 -2.50112 0
M  V30 7156 H 669.579 -2.89374 -0.787561 0
M  V30 7157 H 667.132 -1.51756 -0.374146 0
M  V30 7158 H 667.867 -1.43703 -2.90723 0
M  V30 7159 H 667.652 -3.12684 -2.36583 0
M  V30 7160 H 669.142 -2.64551 -3.23114 0
M  V30 7161 N 669.579 0.400081 -1.52437 0
M  V30 7162 C 670.825 1.14788 -1.67187 0
M  V30 7163 C 671.158 1.89928 -0.405074 0
M  V30 7164 O 670.433 1.85118 0.596804 0
M  V30 7165 C 670.716 2.13507 -2.89977 0
M  V30 7166 C 670.569 1.42204 -4.2673 0
M  V30 7167 C 671.888 3.14069 -3.083 0
M  V30 7168 H 669.007 0.415939 -0.608411 0
M  V30 7169 H 671.649 0.432542 -1.85011 0
M  V30 7170 H 669.799 2.7451 -2.74912 0
M  V30 7171 H 671.471 0.842503 -4.53541 0
M  V30 7172 H 669.714 0.723939 -4.27717 0
M  V30 7173 H 670.385 2.14281 -5.08712 0
M  V30 7174 H 672.861 2.63148 -3.22323 0
M  V30 7175 H 671.737 3.80398 -3.95713 0
M  V30 7176 H 671.998 3.82309 -2.22018 0
M  V30 7177 N 671.057 1.43213 0.657864 0
M  V30 7178 C 671.967 1.50448 1.80007 0
M  V30 7179 C 672.983 0.39191 1.69529 0
M  V30 7180 O 674.159 0.645349 1.90781 0
M  V30 7181 C 671.224 1.42062 3.16258 0
M  V30 7182 C 670.285 2.63951 3.38568 0
M  V30 7183 C 669.518 2.55956 4.68318 0
M  V30 7184 O 669.741 1.60473 5.47361 0
M  V30 7185 O 668.675 3.46378 4.92245 0
M  V30 7186 H 672.501 2.4689 1.76858 0
M  V30 7187 H 670.086 1.25163 0.81576 0
M  V30 7188 H 671.968 1.3981 3.97531 0
M  V30 7189 H 670.643 0.487524 3.20008 0
M  V30 7190 H 669.55 2.71776 2.57077 0
M  V30 7191 H 670.883 3.56217 3.39662 0
M  V30 7192 N 672.536 -0.895792 1.29666 0
M  V30 7193 C 673.469 -2.00238 1.09453 0
M  V30 7194 C 674.447 -1.62599 0.00527044 0
M  V30 7195 O 675.631 -1.87847 0.156729 0
M  V30 7196 C 672.758 -3.32066 0.667054 0
M  V30 7197 C 671.804 -3.88691 1.7556 0
M  V30 7198 S 672.637 -4.17317 3.35569 0
M  V30 7199 C 673.793 -5.52181 2.94698 0
M  V30 7200 H 674.026 -2.17076 2.03138 0
M  V30 7201 H 671.559 -1.04287 1.13858 0
M  V30 7202 H 673.517 -4.08272 0.427136 0
M  V30 7203 H 672.178 -3.13101 -0.250256 0
M  V30 7204 H 671.371 -4.83918 1.40853 0
M  V30 7205 H 670.973 -3.19187 1.94924 0
M  V30 7206 H 673.265 -6.3281 2.41986 0
M  V30 7207 H 674.208 -5.91817 3.88791 0
M  V30 7208 H 674.616 -5.14225 2.32879 0
M  V30 7209 N 674.014 -1.12206 -1.10668 0
M  V30 7210 C 674.944 -0.810086 -2.18997 0
M  V30 7211 C 675.925 0.225065 -1.68604 0
M  V30 7212 O 677.11 0.086783 -1.94006 0
M  V30 7213 C 674.24 -0.261262 -3.46316 0
M  V30 7214 C 673.194 -1.2292 -4.09969 0
M  V30 7215 C 672.52 -0.540713 -5.31959 0
M  V30 7216 C 673.82 -2.58295 -4.53962 0
M  V30 7217 H 675.514 -1.7159 -2.45352 0
M  V30 7218 H 673.06 -0.82646 -1.17922 0
M  V30 7219 H 675.013 -0.0307522 -4.21389 0
M  V30 7220 H 673.737 0.679879 -3.19445 0
M  V30 7221 H 672.396 -1.44548 -3.369 0
M  V30 7222 H 672.044 0.405492 -5.01363 0
M  V30 7223 H 671.744 -1.18637 -5.75499 0
M  V30 7224 H 673.268 -0.319184 -6.09765 0
M  V30 7225 H 674.682 -2.40709 -5.20319 0
M  V30 7226 H 673.079 -3.18916 -5.08343 0
M  V30 7227 H 674.149 -3.16918 -3.67002 0
M  V30 7228 N 675.492 1.28418 -0.913599 0
M  V30 7229 C 676.717 1.99643 -0.561899 0
M  V30 7230 C 677.142 1.67819 0.849608 0
M  V30 7231 O 676.5 0.910503 1.56779 0
M  V30 7232 C 676.548 3.52116 -0.777622 0
M  V30 7233 O 675.652 4.12076 0.163457 0
M  V30 7234 H 674.993 0.627229 -0.217898 0
M  V30 7235 H 677.523 1.63575 -1.229 0
M  V30 7236 H 677.533 4.02163 -0.687666 0
M  V30 7237 H 676.208 3.74613 -1.8066 0
M  V30 7238 H 674.785 3.72892 0.0247827 0
M  V30 7239 N 676.97 0.677563 1.42291 0
M  V30 7240 C 678.195 0.207901 2.06355 0
M  V30 7241 C 678.62 -1.12723 1.50583 0
M  V30 7242 O 677.978 -1.70171 0.62543 0
M  V30 7243 C 678.026 0.156489 3.6026 0
M  V30 7244 O 677.13 -0.874162 4.03029 0
M  V30 7245 H 676.471 0.106056 0.655475 0
M  V30 7246 H 679.001 0.927354 1.82377 0
M  V30 7247 H 679.011 -0.0187258 4.07996 0
M  V30 7248 H 677.686 1.13101 4.00226 0
M  V30 7249 H 676.263 -0.669764 3.66836 0
M  V30 7250 N 678.448 -1.51871 0.421078 0
M  V30 7251 C 679.694 -2.02237 -0.151014 0
M  V30 7252 C 680.027 -1.30554 -1.43768 0
M  V30 7253 O 679.302 -0.41546 -1.90011 0
M  V30 7254 C 679.585 -3.5802 -0.386482 0
M  V30 7255 C 679.438 -4.40339 0.9177 0
M  V30 7256 C 680.757 -4.24444 -1.16342 0
M  V30 7257 H 677.876 -0.735062 -0.0534102 0
M  V30 7258 H 680.518 -1.81656 0.556888 0
M  V30 7259 H 678.668 -3.75688 -0.989494 0
M  V30 7260 H 680.34 -4.34357 1.55344 0
M  V30 7261 H 678.583 -4.06073 1.526 0
M  V30 7262 H 679.254 -5.47451 0.707187 0
M  V30 7263 H 681.73 -4.10948 -0.652788 0
M  V30 7264 H 680.606 -5.33358 -1.29693 0
M  V30 7265 H 680.867 -3.84204 -2.18724 0
M  V30 7266 N 679.926 -0.151884 -1.56866 0
M  V30 7267 C 680.889 0.771861 -2.15812 0
M  V30 7268 C 681.889 1.17181 -1.10115 0
M  V30 7269 O 683.079 1.09194 -1.35729 0
M  V30 7270 C 680.211 2.04806 -2.7252 0
M  V30 7271 H 681.404 0.259021 -2.98779 0
M  V30 7272 H 678.957 0.097588 -1.55995 0
M  V30 7273 H 679.692 2.60445 -1.93233 0
M  V30 7274 H 679.477 1.77044 -3.49854 0
M  V30 7275 H 680.967 2.70771 -3.1792 0
M  V30 7276 N 681.404 1.57128 0.121893 0
M  V30 7277 C 682.334 2.03165 1.15092 0
M  V30 7278 C 683.315 0.915587 1.43356 0
M  V30 7279 O 684.5 1.1851 1.53847 0
M  V30 7280 C 681.63 2.43352 2.47784 0
M  V30 7281 C 680.584 3.58376 2.33989 0
M  V30 7282 C 679.91 3.84454 3.71617 0
M  V30 7283 C 681.21 4.90199 1.80283 0
M  V30 7284 H 682.904 2.89382 0.768023 0
M  V30 7285 H 680.45 1.39218 0.367998 0
M  V30 7286 H 682.403 2.74163 3.20019 0
M  V30 7287 H 681.127 1.54103 2.87958 0
M  V30 7288 H 679.786 3.2777 1.64202 0
M  V30 7289 H 679.434 2.92414 4.09271 0
M  V30 7290 H 679.134 4.61877 3.6324 0
M  V30 7291 H 680.658 4.17714 4.45362 0
M  V30 7292 H 682.072 5.19565 2.42333 0
M  V30 7293 H 680.469 5.71601 1.82735 0
M  V30 7294 H 681.539 4.78904 0.760184 0
M  V30 7295 N 682.882 -0.391992 1.52647 0
M  V30 7296 C 684.131 -1.13449 1.6677 0
M  V30 7297 C 684.444 -1.91203 0.412399 0
M  V30 7298 O 685.65 -2.68013 0.433707 0
M  V30 7299 C 684.106 -2.06577 2.9471 0
M  V30 7300 C 683.714 -1.3426 4.27409 0
M  V30 7301 C 685.458 -2.80981 3.18198 0
M  V30 7302 C 683.365 -2.26136 5.46458 0
M  V30 7303 H 682.295 -0.427211 0.621295 0
M  V30 7304 H 684.946 -0.397522 1.79142 0
M  V30 7305 H 683.328 -2.83898 2.76076 0
M  V30 7306 H 684.502 -0.621856 4.56585 0
M  V30 7307 H 682.817 -0.718279 4.10158 0
M  V30 7308 H 685.414 -3.49898 4.04321 0
M  V30 7309 H 685.757 -3.44891 2.33144 0
M  V30 7310 H 686.29 -2.10754 3.37383 0
M  V30 7311 H 683.029 -1.66846 6.33911 0
M  V30 7312 H 682.549 -2.96134 5.21598 0
M  V30 7313 H 684.228 -2.86286 5.80215 0
M  V30 7314 N 684.36 -1.4356 -0.65026 0
M  V30 7315 C 685.308 -1.49219 -1.78427 0
M  V30 7316 C 686.302 -0.365528 -1.65409 0
M  V30 7317 O 687.508 -0.539649 -1.7172 0
M  V30 7318 H 683.883 -0.467858 -0.588738 0
M  V30 7319 H 685.854 -2.44701 -1.70774 0
M  V30 7320 C 684.603 -1.43519 -3.16698 0
M  V30 7321 H 683.926 -2.2952 -3.27354 0
M  V30 7322 H 685.366 -1.5154 -3.95995 0
M  V30 7323 C 683.825 -0.153197 -3.36552 0
M  V30 7324 O 684.355 0.784317 -3.93969 0
M  V30 7325 N 682.561 -0.0624402 -2.90533 0
M  V30 7326 H 682.108 -0.826172 -2.43992 0
M  V30 7327 H 682.066 0.794616 -3.04193 0
M  V30 7328 N 685.838 0.888903 -1.30139 0
M  V30 7329 C 687.254 1.17153 -1.08385 0
M  V30 7330 C 687.454 2.0088 0.157925 0
M  V30 7331 O 686.51 2.37668 0.852652 0
M  V30 7332 C 687.823 1.882 -2.34523 0
M  V30 7333 C 689.371 2.00981 -2.39949 0
M  V30 7334 C 689.846 2.75441 -3.65918 0
M  V30 7335 N 691.337 2.82989 -3.66704 0
M  V30 7336 C 692.072 3.41167 -4.60861 0
M  V30 7337 N 691.568 4.00425 -5.6536 0
M  V30 7338 N 693.361 3.38944 -4.48412 0
M  V30 7339 H 685.512 0.33053 -2.09812 0
M  V30 7340 H 687.775 0.208964 -0.924683 0
M  V30 7341 H 687.481 1.34119 -3.25123 0
M  V30 7342 H 687.355 2.88609 -2.42868 0
M  V30 7343 H 689.742 2.54234 -1.4983 0
M  V30 7344 H 689.823 0.996725 -2.35582 0
M  V30 7345 H 689.467 2.22861 -4.56394 0
M  V30 7346 H 689.397 3.77118 -3.67546 0
M  V30 7347 H 691.888 2.40912 -2.91153 0
M  V30 7348 H 692.201 4.42871 -6.33313 0
M  V30 7349 H 690.546 3.98856 -5.69157 0
M  V30 7350 H 693.737 2.91875 -3.6596 0
M  V30 7351 H 693.91 3.83989 -5.21974 0
M  V30 7352 N 687.317 1.12792 1.10072 0
M  V30 7353 C 688.28 0.802264 2.14701 0
M  V30 7354 C 689.28 -0.18515 1.59731 0
M  V30 7355 O 690.47 0.041109 1.74151 0
M  V30 7356 C 687.602 0.19285 3.40354 0
M  V30 7357 H 688.795 1.72932 2.45019 0
M  V30 7358 H 686.348 0.931662 1.25498 0
M  V30 7359 H 687.083 -0.743748 3.15656 0
M  V30 7360 H 686.868 0.903827 3.81541 0
M  V30 7361 H 688.358 -0.0183704 4.17596 0
M  V30 7362 N 688.795 -1.27931 0.920396 0
M  V30 7363 C 689.725 -2.29487 0.431024 0
M  V30 7364 C 690.706 -1.62435 -0.504861 0
M  V30 7365 O 691.891 -1.89797 -0.411176 0
M  V30 7366 C 689.021 -3.45788 -0.323709 0
M  V30 7367 C 687.975 -4.24784 0.523658 0
M  V30 7368 C 687.301 -5.33488 -0.359809 0
M  V30 7369 C 688.601 -4.90874 1.78437 0
M  V30 7370 H 690.295 -2.70671 1.27975 0
M  V30 7371 H 687.841 -1.30121 0.616813 0
M  V30 7372 H 689.794 -4.15927 -0.676952 0
M  V30 7373 H 688.518 -3.03502 -1.2064 0
M  V30 7374 H 687.177 -3.56382 0.85951 0
M  V30 7375 H 686.825 -4.87445 -1.24124 0
M  V30 7376 H 686.525 -5.87247 0.203605 0
M  V30 7377 H 688.049 -6.06472 -0.708787 0
M  V30 7378 H 689.463 -5.53339 1.49963 0
M  V30 7379 H 687.86 -5.54659 2.29071 0
M  V30 7380 H 688.93 -4.14988 2.50824 0
M  V30 7381 N 690.273 -0.685099 -1.4193 0
M  V30 7382 C 691.183 -0.013404 -2.34596 0
M  V30 7383 C 692.199 0.777589 -1.55658 0
M  V30 7384 O 693.375 0.717553 -1.88184 0
M  V30 7385 C 690.44 0.919031 -3.34297 0
M  V30 7386 C 689.501 0.121417 -4.29128 0
M  V30 7387 C 688.734 1.00944 -5.24067 0
M  V30 7388 O 688.957 2.24898 -5.24192 0
M  V30 7389 O 687.891 0.464724 -6.00103 0
M  V30 7390 H 691.717 -0.776978 -2.93593 0
M  V30 7391 H 689.302 -0.445379 -1.42607 0
M  V30 7392 H 691.184 1.45402 -3.9552 0
M  V30 7393 H 689.859 1.66228 -2.77759 0
M  V30 7394 H 688.766 -0.45792 -3.71287 0
M  V30 7395 H 690.099 -0.582937 -4.88736 0
M  V30 7396 N 691.751 1.51645 -0.429126 0
M  V30 7397 C 692.976 2.06917 0.141399 0
M  V30 7398 C 693.401 1.29527 1.36398 0
M  V30 7399 O 692.759 0.33094 1.78254 0
M  V30 7400 C 692.807 3.57776 0.4504 0
M  V30 7401 O 691.911 3.82639 1.53821 0
M  V30 7402 H 691.252 0.663978 0.0054647 0
M  V30 7403 H 693.782 1.95355 -0.608093 0
M  V30 7404 H 693.792 4.01894 0.703249 0
M  V30 7405 H 692.467 4.13532 -0.443213 0
M  V30 7406 H 691.044 3.5039 1.27597 0
M  V30 7407 N 693.229 0.160201 1.56784 0
M  V30 7408 C 694.477 -0.486625 1.96154 0
M  V30 7409 C 694.798 -1.64525 1.04673 0
M  V30 7410 O 694.068 -1.95586 0.110864 0
M  V30 7411 H 692.648 -0.182764 0.724297 0
M  V30 7412 H 695.31 0.238787 1.93432 0
M  V30 7413 H 694.406 -0.854025 3.00188 0
M  V30 7414 N 694.707 -1.5719 -0.113559 0
M  V30 7415 C 695.984 -1.76117 -0.850999 0
M  V30 7416 C 696.364 -0.737085 -1.97814 0
M  V30 7417 O 695.712 0.237942 -2.27258 0
M  V30 7418 C 695.922 -3.21298 -1.36266 0
M  V30 7419 C 697.27 -3.83955 -1.81283 0
M  V30 7420 O 698.294 -3.24934 -1.45933 0
M  V30 7421 O 697.153 -4.87707 -2.46585 0
M  V30 7422 H 694.247 -0.721308 -0.404529 0
M  V30 7423 H 696.793 -1.69423 -0.0968756 0
M  V30 7424 H 695.565 -3.87355 -0.554235 0
M  V30 7425 H 695.188 -3.32552 -2.17933 0
M  V30 7426 N 696.185 0.383891 -1.52853 0
M  V30 7427 C 697.431 1.13009 -1.68395 0
M  V30 7428 C 697.764 1.89488 -0.425195 0
M  V30 7429 O 697.039 1.8574 0.577136 0
M  V30 7430 C 697.322 2.10419 -2.92226 0
M  V30 7431 C 697.175 1.3767 -4.28214 0
M  V30 7432 C 698.494 3.10781 -3.11614 0
M  V30 7433 H 695.613 0.409463 -0.612788 0
M  V30 7434 H 698.255 0.412895 -1.85459 0
M  V30 7435 H 696.405 2.71579 -2.77808 0
M  V30 7436 H 698.077 0.794352 -4.54409 0
M  V30 7437 H 696.32 0.678533 -4.2846 0
M  V30 7438 H 696.991 2.08874 -5.10956 0
M  V30 7439 H 699.467 2.59715 -3.25096 0
M  V30 7440 H 698.343 3.76179 -3.99725 0
M  V30 7441 H 698.604 3.79933 -2.2606 0
M  V30 7442 N 697.663 1.43903 0.642637 0
M  V30 7443 C 698.611 1.50164 1.77634 0
M  V30 7444 C 699.605 0.374294 1.65213 0
M  V30 7445 O 700.811 0.548748 1.71431 0
M  V30 7446 H 697.186 0.470974 0.586249 0
M  V30 7447 H 699.157 2.45603 1.69474 0
M  V30 7448 C 697.906 1.45196 3.15933 0
M  V30 7449 H 697.229 2.31253 3.26132 0
M  V30 7450 H 698.669 1.53638 3.95185 0
M  V30 7451 C 697.128 0.171043 3.36466 0
M  V30 7452 O 697.658 -0.763413 3.94379 0
M  V30 7453 N 695.864 0.077847 2.90496 0
M  V30 7454 H 695.411 0.8391 2.43551 0
M  V30 7455 H 695.369 -0.778473 3.0461 0
M  V30 7456 N 699.141 -0.881989 1.30609 0
M  V30 7457 C 700.369 -1.66711 1.22536 0
M  V30 7458 C 700.784 -1.87614 -0.2113 0
M  V30 7459 O 700.141 -1.42576 -1.13923 0
M  V30 7460 C 700.192 -3.04182 1.95335 0
M  V30 7461 O 699.913 -2.8422 3.33393 0
M  V30 7462 C 701.414 -3.98617 1.93956 0
M  V30 7463 H 698.634 -0.520124 0.423925 0
M  V30 7464 H 701.178 -1.10174 1.72285 0
M  V30 7465 H 699.333 -3.57442 1.49378 0
M  V30 7466 H 699.747 -3.71452 3.70302 0
M  V30 7467 H 701.221 -4.92433 2.49426 0
M  V30 7468 H 701.698 -4.29473 0.919198 0
M  V30 7469 H 702.304 -3.51292 2.39738 0
M  V30 7470 N 700.619 -1.13374 -1.09472 0
M  V30 7471 C 701.865 -0.896516 -1.81908 0
M  V30 7472 C 702.198 0.575933 -1.85463 0
M  V30 7473 O 701.473 1.42618 -1.32251 0
M  V30 7474 C 701.756 -1.48445 -3.28079 0
M  V30 7475 C 701.609 -3.02598 -3.32798 0
M  V30 7476 C 702.928 -1.15226 -4.24748 0
M  V30 7477 H 700.047 -0.327127 -0.660422 0
M  V30 7478 H 702.689 -1.40195 -1.2824 0
M  V30 7479 H 700.839 -1.0546 -3.73912 0
M  V30 7480 H 702.511 -3.54335 -2.95372 0
M  V30 7481 H 700.754 -3.37613 -2.72397 0
M  V30 7482 H 701.425 -3.38835 -4.3577 0
M  V30 7483 H 703.901 -1.52369 -3.87199 0
M  V30 7484 H 702.777 -1.59012 -5.25363 0
M  V30 7485 H 703.038 -0.0658891 -4.42051 0
M  V30 7486 N 702.098 1.27442 -0.927168 0
M  V30 7487 C 703.344 1.95025 -0.577651 0
M  V30 7488 C 703.699 1.71534 0.871421 0
M  V30 7489 O 702.992 1.03354 1.61333 0
M  V30 7490 C 703.186 3.47413 -0.838994 0
M  V30 7491 C 703.015 3.85721 -2.31192 0
M  V30 7492 C 701.785 4.09199 -2.96452 0
M  V30 7493 C 703.983 3.95352 -3.28939 0
M  V30 7494 N 701.965 4.34283 -4.33903 0
M  V30 7495 C 703.336 4.24805 -4.51598 0
M  V30 7496 C 705.391 3.77926 -3.24155 0
M  V30 7497 C 704.094 4.38645 -5.70073 0
M  V30 7498 C 706.12 3.9299 -4.41942 0
M  V30 7499 C 705.482 4.22829 -5.63379 0
M  V30 7500 H 701.581 0.736983 -0.261495 0
M  V30 7501 H 704.165 1.53816 -1.19368 0
M  V30 7502 H 702.336 3.87581 -0.252129 0
M  V30 7503 H 704.068 4.02166 -0.452158 0
M  V30 7504 H 700.823 4.04013 -2.47125 0
M  V30 7505 H 701.247 4.50883 -5.05008 0
M  V30 7506 H 705.889 3.53897 -2.31337 0
M  V30 7507 H 703.607 4.615 -6.63358 0
M  V30 7508 H 707.193 3.80926 -4.39757 0
M  V30 7509 H 706.073 4.34234 -6.53001 0
M  V30 7510 N 703.576 0.692616 1.41565 0
M  V30 7511 C 704.523 0.0254264 2.30786 0
M  V30 7512 C 705.493 -0.774347 1.46946 0
M  V30 7513 O 706.678 -0.742981 1.7574 0
M  V30 7514 C 703.818 -0.907123 3.32964 0
M  V30 7515 C 702.931 -0.0992784 4.31886 0
M  V30 7516 C 702.066 -1.0292 5.21134 0
M  V30 7517 C 701.105 -0.214088 6.11725 0
M  V30 7518 N 700.242 -1.09766 6.93467 0
M  V30 7519 H 705.082 0.792036 2.87282 0
M  V30 7520 H 702.619 0.4023 1.41492 0
M  V30 7521 H 704.577 -1.46181 3.90752 0
M  V30 7522 H 703.207 -1.64016 2.78026 0
M  V30 7523 H 702.259 0.572287 3.76071 0
M  V30 7524 H 703.571 0.532782 4.95946 0
M  V30 7525 H 702.725 -1.65321 5.83741 0
M  V30 7526 H 701.464 -1.69512 4.57293 0
M  V30 7527 H 700.469 0.42302 5.4817 0
M  V30 7528 H 701.694 0.447995 6.77621 0
M  V30 7529 H 699.64 -1.74965 6.32237 0
M  V30 7530 H 699.557 -0.521099 7.54202 0
M  V30 7531 H 700.825 -1.70858 7.60544 0
M  V30 7532 N 705.054 -1.51416 0.437162 0
M  V30 7533 C 705.986 -2.255 -0.410171 0
M  V30 7534 C 706.999 -1.29511 -0.986444 0
M  V30 7535 O 708.188 -1.55266 -0.880614 0
M  V30 7536 C 705.288 -2.99511 -1.58575 0
M  V30 7537 C 704.461 -4.22595 -1.12839 0
M  V30 7538 C 703.52 -4.79187 -2.17407 0
M  V30 7539 O 702.546 -5.4103 -1.76849 0
M  V30 7540 N 703.748 -4.63204 -3.49889 0
M  V30 7541 H 706.513 -2.98856 0.224783 0
M  V30 7542 H 704.074 -1.59699 0.266041 0
M  V30 7543 H 706.066 -3.34258 -2.28152 0
M  V30 7544 H 704.636 -2.29167 -2.12606 0
M  V30 7545 H 703.856 -3.93344 -0.259695 0
M  V30 7546 H 705.144 -5.02468 -0.800196 0
M  V30 7547 H 704.542 -4.13945 -3.85573 0
M  V30 7548 H 703.099 -5.02313 -4.15361 0
M  V30 7549 N 706.532 -0.168513 -1.56696 0
M  V30 7550 C 707.462 0.758563 -2.20835 0
M  V30 7551 C 708.443 1.24121 -1.1631 0
M  V30 7552 O 709.628 1.29487 -1.4473 0
M  V30 7553 C 706.758 1.9892 -2.8469 0
M  V30 7554 C 705.712 1.64252 -3.95228 0
M  V30 7555 C 705.038 2.94757 -4.46119 0
M  V30 7556 C 706.338 0.872675 -5.14958 0
M  V30 7557 H 708.032 0.223953 -2.98561 0
M  V30 7558 H 705.578 0.106277 -1.43607 0
M  V30 7559 H 707.531 2.64275 -3.28233 0
M  V30 7560 H 706.255 2.5479 -2.04327 0
M  V30 7561 H 704.914 1.01266 -3.52336 0
M  V30 7562 H 704.562 3.48662 -3.62552 0
M  V30 7563 H 704.262 2.72316 -5.2069 0
M  V30 7564 H 705.786 3.61147 -4.92347 0
M  V30 7565 H 707.2 1.42875 -5.55211 0
M  V30 7566 H 705.597 0.747402 -5.95428 0
M  V30 7567 H 706.667 -0.131535 -4.84722 0
M  V30 7568 N 708.01 1.57248 0.105221 0
M  V30 7569 C 709.235 1.90143 0.828264 0
M  V30 7570 C 709.66 0.761811 1.71983 0
M  V30 7571 O 709.018 -0.287086 1.79013 0
M  V30 7572 C 709.066 3.21856 1.62608 0
M  V30 7573 O 708.17 3.08732 2.7342 0
M  V30 7574 H 707.511 0.623558 0.228192 0
M  V30 7575 H 710.041 2.0443 0.0834826 0
M  V30 7576 H 710.051 3.54916 2.01243 0
M  V30 7577 H 708.726 4.0439 0.971687 0
M  V30 7578 H 707.303 2.87167 2.37886 0
M  V30 7579 N 709.488 -0.375779 1.53054 0
M  V30 7580 C 710.713 -1.14484 1.7294 0
M  V30 7581 C 711.138 -1.82572 0.452668 0
M  V30 7582 O 710.496 -1.71343 -0.592567 0
M  V30 7583 C 710.544 -2.15857 2.88857 0
M  V30 7584 O 709.648 -3.22725 2.56753 0
M  V30 7585 H 708.989 -0.332666 0.574656 0
M  V30 7586 H 711.519 -0.436025 1.999 0
M  V30 7587 H 711.529 -2.59631 3.14731 0
M  V30 7588 H 710.204 -1.65689 3.81471 0
M  V30 7589 H 708.781 -2.83996 2.41663 0
M  V30 7590 N 710.966 -1.44241 -0.634997 0
M  V30 7591 C 712.191 -1.50516 -1.42687 0
M  V30 7592 C 712.616 -0.129864 -1.87651 0
M  V30 7593 O 711.974 0.880164 -1.58502 0
M  V30 7594 C 712.022 -2.4714 -2.62591 0
M  V30 7595 O 711.126 -1.97025 -3.62291 0
M  V30 7596 H 710.467 -0.50841 -0.427101 0
M  V30 7597 H 712.997 -1.89337 -0.775408 0
M  V30 7598 H 713.007 -2.65048 -3.10183 0
M  V30 7599 H 711.682 -3.47039 -2.29209 0
M  V30 7600 H 710.259 -1.88866 -3.21534 0
M  V30 7601 N 712.444 0.87505 -1.31075 0
M  V30 7602 C 713.69 1.63009 -1.20647 0
M  V30 7603 C 714.023 1.9276 0.236045 0
M  V30 7604 O 713.298 1.55559 1.16754 0
M  V30 7605 C 713.581 2.96357 -2.0456 0
M  V30 7606 C 713.434 2.73516 -3.57084 0
M  V30 7607 C 714.753 3.974 -1.89107 0
M  V30 7608 H 711.872 0.591518 -0.439631 0
M  V30 7609 H 714.514 1.0119 -1.60812 0
M  V30 7610 H 712.664 3.49119 -1.70435 0
M  V30 7611 H 714.336 2.27465 -4.01319 0
M  V30 7612 H 712.579 2.0784 -3.80769 0
M  V30 7613 H 713.25 3.68377 -4.11099 0
M  V30 7614 H 715.726 3.5383 -2.18961 0
M  V30 7615 H 714.602 4.88596 -2.5013 0
M  V30 7616 H 714.863 4.33794 -0.85296 0
M  V30 7617 N 713.922 1.13953 1.08869 0
M  V30 7618 C 715.15 0.92817 1.84912 0
M  V30 7619 C 715.565 -0.523197 1.81406 0
M  V30 7620 O 714.922 -1.36237 1.21432 0
M  V30 7621 C 714.973 1.41509 3.32652 0
M  V30 7622 O 714.694 2.80959 3.36145 0
M  V30 7623 C 716.195 1.243 4.25517 0
M  V30 7624 H 713.415 0.330612 0.583898 0
M  V30 7625 H 715.959 1.51349 1.37527 0
M  V30 7626 H 714.114 0.872648 3.77444 0
M  V30 7627 H 714.528 3.02704 4.28335 0
M  V30 7628 H 716.002 1.63237 5.27312 0
M  V30 7629 H 716.479 0.18532 4.38809 0
M  V30 7630 H 717.085 1.77375 3.86546 0
M  V30 7631 N 715.4 -1.26948 0.933913 0
M  V30 7632 C 716.648 -1.93704 0.576484 0
M  V30 7633 C 716.969 -1.73702 -0.886145 0
M  V30 7634 O 716.239 -1.08838 -1.62884 0
M  V30 7635 H 714.819 -0.716812 0.210214 0
M  V30 7636 H 717.481 -1.54534 1.18766 0
M  V30 7637 H 716.577 -3.01987 0.788055 0
M  V30 7638 N 716.879 -0.700114 -1.41195 0
M  V30 7639 C 717.809 -0.0521132 -2.33442 0
M  V30 7640 C 718.79 0.76228 -1.52063 0
M  V30 7641 O 719.975 0.714336 -1.80585 0
M  V30 7642 C 717.105 0.881693 -3.35922 0
M  V30 7643 C 716.059 0.174062 -4.27646 0
M  V30 7644 C 715.385 1.22254 -5.20536 0
M  V30 7645 C 716.685 -0.962396 -5.13357 0
M  V30 7646 H 718.379 -0.822574 -2.87879 0
M  V30 7647 H 715.925 -0.397011 -1.38419 0
M  V30 7648 H 717.878 1.34429 -3.99383 0
M  V30 7649 H 716.602 1.68387 -2.79845 0
M  V30 7650 H 715.261 -0.268551 -3.65615 0
M  V30 7651 H 714.909 2.01736 -4.60773 0
M  V30 7652 H 714.609 0.754038 -5.82742 0
M  V30 7653 H 716.133 1.68555 -5.86874 0
M  V30 7654 H 717.547 -0.579875 -5.7036 0
M  V30 7655 H 715.944 -1.35828 -5.84526 0
M  V30 7656 H 717.014 -1.80003 -4.50252 0
M  V30 7657 N 718.357 1.51182 -0.445186 0
M  V30 7658 C 719.585 2.06568 0.117091 0
M  V30 7659 C 720 1.31182 1.35781 0
M  V30 7660 O 719.357 0.373605 1.78635 0
M  V30 7661 C 719.408 3.58917 0.431408 0
M  V30 7662 O 719.129 4.31456 -0.760078 0
M  V30 7663 C 720.63 4.30843 1.0435 0
M  V30 7664 H 717.85 0.670985 0.00444436 0
M  V30 7665 H 720.394 1.94666 -0.626525 0
M  V30 7666 H 718.549 3.70708 1.12493 0
M  V30 7667 H 718.963 5.22215 -0.489048 0
M  V30 7668 H 720.437 5.38499 1.21337 0
M  V30 7669 H 720.914 3.89644 2.02667 0
M  V30 7670 H 721.52 4.23516 0.38913 0
M  V30 7671 N 719.835 0.176821 1.56605 0
M  V30 7672 C 720.783 -0.768159 2.1955 0
M  V30 7673 C 721.777 -1.23343 1.16116 0
M  V30 7674 O 722.983 -1.19844 1.34303 0
M  V30 7675 H 719.358 -0.266013 0.703378 0
M  V30 7676 H 721.329 -0.213374 2.97636 0
M  V30 7677 C 720.078 -1.98492 2.85475 0
M  V30 7678 H 719.401 -1.63595 3.64797 0
M  V30 7679 H 720.841 -2.62489 3.3298 0
M  V30 7680 C 719.3 -2.81207 1.85538 0
M  V30 7681 O 719.83 -3.7854 1.34427 0
M  V30 7682 N 718.036 -2.46331 1.54173 0
M  V30 7683 H 717.583 -1.67241 1.95929 0
M  V30 7684 H 717.541 -3.01961 0.875595 0
M  V30 7685 N 721.313 -1.57302 -0.09688 0
M  V30 7686 C 722.562 -1.85183 -0.799388 0
M  V30 7687 C 722.875 -0.765818 -1.79985 0
M  V30 7688 O 724.081 -0.931696 -2.55013 0
M  V30 7689 C 722.537 -3.28399 -1.47249 0
M  V30 7690 C 722.145 -4.45066 -0.511888 0
M  V30 7691 C 723.889 -3.65506 -2.15883 0
M  V30 7692 C 721.796 -5.79315 -1.18948 0
M  V30 7693 H 720.726 -0.690752 -0.302287 0
M  V30 7694 H 723.377 -1.83425 -0.0523104 0
M  V30 7695 H 721.759 -3.24692 -2.26697 0
M  V30 7696 H 722.933 -4.60116 0.250962 0
M  V30 7697 H 721.248 -4.16343 0.0686576 0
M  V30 7698 H 723.845 -4.63087 -2.67309 0
M  V30 7699 H 724.188 -2.94041 -2.94696 0
M  V30 7700 H 724.721 -3.71094 -1.43298 0
M  V30 7701 H 721.46 -6.54007 -0.442198 0
M  V30 7702 H 720.98 -5.68111 -1.9238 0
M  V30 7703 H 722.659 -6.23816 -1.71646 0
M  V30 7704 N 722.791 0.367657 -1.53252 0
M  V30 7705 C 723.701 1.47415 -1.82499 0
M  V30 7706 C 724.717 1.58711 -0.713222 0
M  V30 7707 O 725.893 1.74644 -1.00306 0
M  V30 7708 C 722.958 2.82706 -2.00694 0
M  V30 7709 C 722.019 2.80955 -3.24596 0
M  V30 7710 C 721.252 4.09793 -3.41914 0
M  V30 7711 O 721.475 5.05852 -2.63572 0
M  V30 7712 O 720.409 4.15731 -4.3526 0
M  V30 7713 H 724.235 1.25624 -2.765 0
M  V30 7714 H 721.82 0.557559 -1.38606 0
M  V30 7715 H 723.702 3.62873 -2.14246 0
M  V30 7716 H 722.377 3.04479 -1.09883 0
M  V30 7717 H 721.284 1.99494 -3.16469 0
M  V30 7718 H 722.617 2.64136 -4.15323 0
M  V30 7719 N 724.269 1.44576 0.627338 0
M  V30 7720 C 725.179 1.54232 1.76776 0
M  V30 7721 C 726.195 0.427782 1.6866 0
M  V30 7722 O 727.371 0.685671 1.89369 0
M  V30 7723 C 724.436 1.48738 3.13174 0
M  V30 7724 C 723.497 2.71074 3.32893 0
M  V30 7725 C 722.73 2.65832 4.62784 0
M  V30 7726 O 722.953 1.72048 5.43834 0
M  V30 7727 O 721.887 3.56742 4.84787 0
M  V30 7728 H 725.713 2.50586 1.71582 0
M  V30 7729 H 723.298 1.26865 0.789028 0
M  V30 7730 H 725.18 1.48211 3.94476 0
M  V30 7731 H 723.855 0.555292 3.18902 0
M  V30 7732 H 722.762 2.77168 2.51254 0
M  V30 7733 H 724.095 3.63342 3.32029 0
M  V30 7734 N 725.747 -0.868086 1.31537 0
M  V30 7735 C 726.657 -2.00801 1.21311 0
M  V30 7736 C 727.673 -1.73518 0.129431 0
M  V30 7737 O 728.849 -1.98378 0.347588 0
M  V30 7738 C 725.914 -3.3419 0.922935 0
M  V30 7739 C 724.975 -3.74783 2.0937 0
M  V30 7740 C 724.208 -5.01807 1.81728 0
M  V30 7741 O 724.431 -5.65404 0.753313 0
M  V30 7742 O 723.365 -5.39213 2.67457 0
M  V30 7743 H 727.191 -2.12361 2.17109 0
M  V30 7744 H 724.776 -0.996684 1.11295 0
M  V30 7745 H 726.658 -4.14174 0.777033 0
M  V30 7746 H 725.333 -3.237 -0.00500301 0
M  V30 7747 H 724.24 -2.95432 2.29501 0
M  V30 7748 H 725.573 -3.89902 3.00396 0
M  V30 7749 N 727.225 -1.14528 -1.08264 0
M  V30 7750 C 728.173 -0.829201 -2.17318 0
M  V30 7751 C 729.167 0.193521 -1.68291 0
M  V30 7752 O 730.373 0.0494744 -1.79932 0
M  V30 7753 H 726.748 -0.250435 -0.709074 0
M  V30 7754 H 728.719 -1.75683 -2.41201 0
M  V30 7755 C 727.468 -0.324663 -3.46181 0
M  V30 7756 H 726.791 -1.10299 -3.84284 0
M  V30 7757 H 728.231 -0.142059 -4.23762 0
M  V30 7758 C 726.69 0.952033 -3.23169 0
M  V30 7759 O 727.22 2.02549 -3.46896 0
M  V30 7760 N 725.426 0.887854 -2.76705 0
M  V30 7761 H 724.973 0.0141402 -2.57596 0
M  V30 7762 H 724.931 1.74263 -2.61686 0
M  V30 7763 N 728.703 1.26451 -0.940633 0
M  V30 7764 C 729.943 1.95537 -0.595381 0
M  V30 7765 C 730.307 1.72175 0.849683 0
M  V30 7766 O 731.508 2.3506 1.30384 0
M  V30 7767 C 729.779 3.45151 -0.927669 0
M  V30 7768 S 731.338 4.33295 -0.69288 0
M  V30 7769 H 728.156 0.676331 -0.219311 0
M  V30 7770 H 730.758 1.53411 -1.21183 0
M  V30 7771 H 729.462 3.59654 -1.9768 0
M  V30 7772 H 728.993 3.92247 -0.300921 0
M  V30 7773 H 731.008 4.94217 0.443175 0
M  V30 7774 N 730.181 0.707592 1.40822 0
M  V30 7775 C 731.113 0.0105968 2.29198 0
M  V30 7776 C 732.126 -0.732035 1.45414 0
M  V30 7777 O 733.315 -0.580741 1.68789 0
M  V30 7778 C 730.415 -1.00921 3.23525 0
M  V30 7779 C 729.588 -0.333747 4.36125 0
M  V30 7780 C 728.647 -1.25783 5.10945 0
M  V30 7781 O 727.673 -0.745646 5.64295 0
M  V30 7782 N 728.875 -2.58947 5.19545 0
M  V30 7783 H 731.64 0.76938 2.89656 0
M  V30 7784 H 729.201 0.554579 1.52105 0
M  V30 7785 H 731.193 -1.6294 3.70449 0
M  V30 7786 H 729.763 -1.66942 2.6429 0
M  V30 7787 H 728.983 0.466518 3.9143 0
M  V30 7788 H 730.271 0.135444 5.0862 0
M  V30 7789 H 729.669 -3.03065 4.7767 0
M  V30 7790 H 728.226 -3.16131 5.70004 0
M  V30 7791 N 731.66 -1.50943 0.453197 0
M  V30 7792 C 733.076 -1.59245 0.106342 0
M  V30 7793 C 733.276 -1.46287 -1.38572 0
M  V30 7794 O 732.332 -1.31219 -2.15726 0
M  V30 7795 C 733.645 -2.93797 0.640595 0
M  V30 7796 C 735.193 -3.07148 0.602435 0
M  V30 7797 C 735.668 -4.44247 1.11393 0
M  V30 7798 N 737.159 -4.50611 1.07258 0
M  V30 7799 C 737.894 -5.55049 1.43905 0
M  V30 7800 N 737.39 -6.66828 1.87914 0
M  V30 7801 N 739.183 -5.45494 1.35621 0
M  V30 7802 H 731.334 -1.5761 1.42382 0
M  V30 7803 H 733.597 -0.74384 0.587713 0
M  V30 7804 H 733.303 -3.087 1.68515 0
M  V30 7805 H 733.177 -3.77127 0.0742272 0
M  V30 7806 H 735.564 -2.91903 -0.433171 0
M  V30 7807 H 735.645 -2.25619 1.20539 0
M  V30 7808 H 735.289 -4.60239 2.14808 0
M  V30 7809 H 735.219 -5.2434 0.487353 0
M  V30 7810 H 737.71 -3.70391 0.749585 0
M  V30 7811 H 738.023 -7.42558 2.14072 0
M  V30 7812 H 736.368 -6.67995 1.91853 0
M  V30 7813 H 739.559 -4.57053 1.01093 0
M  V30 7814 H 739.732 -6.2677 1.64508 0
M  V30 7815 N 733.138 -0.185124 -1.56509 0
M  V30 7816 C 734.368 0.461469 -2.0138 0
M  V30 7817 C 734.776 1.56417 -1.06445 0
M  V30 7818 O 734.119 1.83603 -0.0597515 0
M  V30 7819 C 734.181 1.08731 -3.42663 0
M  V30 7820 C 733.845 0.124581 -4.5683 0
M  V30 7821 C 734.842 -0.662295 -5.15664 0
M  V30 7822 C 732.527 0.0163947 -5.02297 0
M  V30 7823 C 734.521 -1.54442 -6.18406 0
M  V30 7824 C 732.208 -0.869301 -6.04885 0
M  V30 7825 C 733.206 -1.64828 -6.62813 0
M  V30 7826 O 732.894 -2.51915 -7.63409 0
M  V30 7827 H 732.626 0.1212 -0.665046 0
M  V30 7828 H 735.18 -0.288119 -2.03369 0
M  V30 7829 H 733.41 1.8853 -3.37629 0
M  V30 7830 H 735.099 1.63753 -3.71403 0
M  V30 7831 H 735.865 -0.588963 -4.81411 0
M  V30 7832 H 731.744 0.61253 -4.56913 0
M  V30 7833 H 735.288 -2.15289 -6.63548 0
M  V30 7834 H 731.185 -0.943786 -6.38563 0
M  V30 7835 H 731.953 -2.45584 -7.80789 0
M  V30 7836 N 734.616 1.57351 0.0885366 0
M  V30 7837 C 735.546 2.05561 1.10757 0
M  V30 7838 C 736.527 0.945789 1.41382 0
M  V30 7839 O 737.712 1.21747 1.51299 0
M  V30 7840 C 734.842 2.48554 2.42566 0
M  V30 7841 C 733.796 3.63259 2.26334 0
M  V30 7842 C 733.122 3.9225 3.63378 0
M  V30 7843 C 734.422 4.93913 1.69844 0
M  V30 7844 H 736.116 2.90946 0.706468 0
M  V30 7845 H 733.662 1.39968 0.338385 0
M  V30 7846 H 735.615 2.8089 3.14132 0
M  V30 7847 H 734.339 1.60176 2.84625 0
M  V30 7848 H 732.998 3.31179 1.57213 0
M  V30 7849 H 732.646 3.0103 4.02976 0
M  V30 7850 H 732.346 4.69478 3.53362 0
M  V30 7851 H 733.87 4.27067 4.36401 0
M  V30 7852 H 735.284 5.24588 2.31258 0
M  V30 7853 H 733.681 5.75349 1.70569 0
M  V30 7854 H 734.751 4.80409 0.65843 0
M  V30 7855 N 736.094 -0.359525 1.53444 0
M  V30 7856 C 737.371 -1.11756 1.6053 0
M  V30 7857 C 737.751 -2.06949 0.416587 0
M  V30 7858 O 737.099 -2.20681 -0.592628 0
M  V30 7859 C 737.309 -1.85133 2.95849 0
M  V30 7860 C 738.657 -2.3945 3.50641 0
M  V30 7861 O 739.681 -1.95251 2.97918 0
M  V30 7862 O 738.54 -3.20266 4.42823 0
M  V30 7863 H 735.634 -0.513005 0.648656 0
M  V30 7864 H 738.18 -0.362301 1.65787 0
M  V30 7865 H 736.952 -1.15694 3.73806 0
M  V30 7866 H 736.575 -2.67554 2.9411 0
M  V30 7867 N 737.572 -1.44907 -0.619662 0
M  V30 7868 C 738.482 -1.55168 -1.75955 0
M  V30 7869 C 739.498 -0.43672 -1.6843 0
M  V30 7870 O 740.674 -0.695704 -1.89002 0
M  V30 7871 C 737.739 -1.50397 -3.12381 0
M  V30 7872 C 736.8 -2.72835 -3.31451 0
M  V30 7873 C 736.033 -2.68283 -4.61368 0
M  V30 7874 O 736.256 -1.74929 -5.42914 0
M  V30 7875 O 735.19 -3.59308 -4.82889 0
M  V30 7876 H 739.016 -2.51493 -1.7025 0
M  V30 7877 H 736.601 -1.27282 -0.782289 0
M  V30 7878 H 738.483 -1.50301 -3.93685 0
M  V30 7879 H 737.158 -0.572197 -3.18603 0
M  V30 7880 H 736.065 -2.78496 -2.49781 0
M  V30 7881 H 737.398 -3.65098 -3.30098 0
M  V30 7882 N 739.05 0.861098 -1.31996 0
M  V30 7883 C 739.98 1.98482 -1.22993 0
M  V30 7884 C 740.961 1.6971 -0.115168 0
M  V30 7885 O 742.146 1.91849 -0.30126 0
M  V30 7886 C 739.276 3.34179 -0.945615 0
M  V30 7887 C 738.23 3.77284 -2.02091 0
M  V30 7888 C 737.556 5.1054 -1.58912 0
M  V30 7889 C 738.856 3.93439 -3.43515 0
M  V30 7890 H 740.55 2.06271 -2.17008 0
M  V30 7891 H 738.096 0.991043 -1.04472 0
M  V30 7892 H 740.049 4.12338 -0.869206 0
M  V30 7893 H 738.773 3.26586 0.0301849 0
M  V30 7894 H 737.432 3.01371 -2.08737 0
M  V30 7895 H 737.08 4.99397 -0.600942 0
M  V30 7896 H 736.78 5.40352 -2.30854 0
M  V30 7897 H 738.304 5.91199 -1.52696 0
M  V30 7898 H 739.718 4.6197 -3.39495 0
M  V30 7899 H 738.115 4.34661 -4.13751 0
M  V30 7900 H 739.185 2.96548 -3.8365 0
M  V30 7901 N 740.528 1.15101 1.07655 0
M  V30 7902 C 741.461 0.788522 2.14144 0
M  V30 7903 C 742.439 -0.233635 1.60913 0
M  V30 7904 O 743.623 -0.120908 1.88112 0
M  V30 7905 C 740.75 0.172033 3.38263 0
M  V30 7906 C 739.796 1.16559 4.10264 0
M  V30 7907 S 740.629 2.70627 4.62084 0
M  V30 7908 C 741.785 2.10389 5.8948 0
M  V30 7909 H 742.018 1.69047 2.44561 0
M  V30 7910 H 739.551 0.973033 1.19881 0
M  V30 7911 H 741.509 -0.177223 4.10117 0
M  V30 7912 H 740.17 -0.707468 3.06029 0
M  V30 7913 H 739.363 0.6824 4.99359 0
M  V30 7914 H 738.965 1.45923 3.44358 0
M  V30 7915 H 741.257 1.46405 6.61492 0
M  V30 7916 H 742.2 2.97639 6.42508 0
M  V30 7917 H 742.608 1.54816 5.42856 0
M  V30 7918 N 742.006 -1.2595 0.947325 0
M  V30 7919 C 742.953 -2.26159 0.460497 0
M  V30 7920 C 743.923 -1.58919 -0.483125 0
M  V30 7921 O 745.108 -1.86603 -0.397983 0
M  V30 7922 C 742.248 -3.441 -0.26247 0
M  V30 7923 C 741.361 -4.25999 0.717539 0
M  V30 7924 C 740.496 -5.31193 -0.0272486 0
M  V30 7925 C 739.535 -6.04774 0.944177 0
M  V30 7926 N 738.672 -7.01721 0.230741 0
M  V30 7927 H 743.512 -2.67173 1.31995 0
M  V30 7928 H 741.049 -1.31358 0.662088 0
M  V30 7929 H 743.007 -4.11317 -0.698137 0
M  V30 7930 H 741.637 -3.03983 -1.08602 0
M  V30 7931 H 740.689 -3.58513 1.27171 0
M  V30 7932 H 742.001 -4.76981 1.45913 0
M  V30 7933 H 741.155 -6.04451 -0.521903 0
M  V30 7934 H 739.894 -4.81066 -0.801682 0
M  V30 7935 H 738.899 -5.30338 1.4499 0
M  V30 7936 H 740.124 -6.56991 1.71872 0
M  V30 7937 H 738.07 -6.53895 -0.525088 0
M  V30 7938 H 737.987 -7.50484 0.911556 0
M  V30 7939 H 739.255 -7.79122 -0.242616 0
M  V30 7940 N 743.484 -0.715051 -1.40445 0
M  V30 7941 C 744.414 -0.0768699 -2.33373 0
M  V30 7942 C 745.395 0.746109 -1.52863 0
M  V30 7943 O 746.58 0.695142 -1.81332 0
M  V30 7944 C 743.71 0.846014 -3.36838 0
M  V30 7945 C 742.664 0.128694 -4.27806 0
M  V30 7946 C 741.99 1.16726 -5.21804 0
M  V30 7947 C 743.29 -1.01679 -5.12307 0
M  V30 7948 H 744.984 -0.853061 -2.8699 0
M  V30 7949 H 742.53 -0.41167 -1.3799 0
M  V30 7950 H 744.483 1.30185 -4.00786 0
M  V30 7951 H 743.207 1.6541 -2.81615 0
M  V30 7952 H 741.866 -0.307314 -3.6531 0
M  V30 7953 H 741.514 1.96838 -4.62887 0
M  V30 7954 H 741.214 0.692188 -5.83509 0
M  V30 7955 H 742.738 1.62321 -5.88629 0
M  V30 7956 H 744.152 -0.640337 -5.69713 0
M  V30 7957 H 742.549 -1.4202 -5.83053 0
M  V30 7958 H 743.619 -1.84769 -4.48317 0
M  V30 7959 N 744.962 1.50701 -0.461195 0
M  V30 7960 C 745.909 2.2831 0.338094 0
M  V30 7961 C 746.879 1.32928 0.995957 0
M  V30 7962 O 748.064 1.61857 1.0103 0
M  V30 7963 C 745.204 3.14539 1.41983 0
M  V30 7964 C 744.317 4.24942 0.77773 0
M  V30 7965 C 743.452 4.98443 1.83652 0
M  V30 7966 C 742.491 6.00733 1.17413 0
M  V30 7967 N 741.628 6.6755 2.17533 0
M  V30 7968 H 746.468 2.96167 -0.330051 0
M  V30 7969 H 744.005 1.4606 -0.174611 0
M  V30 7970 H 745.963 3.62877 2.05855 0
M  V30 7971 H 744.593 2.48749 2.05727 0
M  V30 7972 H 743.645 3.80391 0.0266924 0
M  V30 7973 H 744.957 4.98151 0.254362 0
M  V30 7974 H 744.111 5.50449 2.55129 0
M  V30 7975 H 742.85 4.24917 2.39367 0
M  V30 7976 H 741.855 5.47997 0.444944 0
M  V30 7977 H 743.08 6.76227 0.624006 0
M  V30 7978 H 741.026 5.96823 2.72284 0
M  V30 7979 H 740.943 7.36603 1.70154 0
M  V30 7980 H 742.211 7.24178 2.88421 0
M  V30 7981 N 746.441 0.193421 1.56409 0
M  V30 7982 C 747.404 -0.714371 2.17783 0
M  V30 7983 C 748.404 -1.1422 1.13183 0
M  V30 7984 O 749.594 -1.05557 1.38576 0
M  V30 7985 C 746.726 -1.97509 2.77855 0
M  V30 7986 H 747.919 -0.179714 2.99361 0
M  V30 7987 H 745.472 -0.0561944 1.56199 0
M  V30 7988 H 746.207 -2.5523 2.0007 0
M  V30 7989 H 745.992 -1.67706 3.54425 0
M  V30 7990 H 747.482 -2.62246 3.24987 0
M  V30 7991 N 747.919 -1.57396 -0.0801906 0
M  V30 7992 C 748.851 -1.9982 -1.12271 0
M  V30 7993 C 749.864 -0.902902 -1.35468 0
M  V30 7994 O 751.053 -1.18088 -1.33856 0
M  V30 7995 C 748.153 -2.31476 -2.47532 0
M  V30 7996 C 747.326 -3.62745 -2.44407 0
M  V30 7997 C 746.385 -3.82168 -3.6171 0
M  V30 7998 O 745.411 -4.53852 -3.43522 0
M  V30 7999 N 746.613 -3.2388 -4.81749 0
M  V30 8000 H 749.378 -2.89864 -0.761501 0
M  V30 8001 H 746.939 -1.5965 -0.268965 0
M  V30 8002 H 748.931 -2.4165 -3.24634 0
M  V30 8003 H 747.501 -1.47364 -2.75686 0
M  V30 8004 H 746.721 -3.63403 -1.52747 0
M  V30 8005 H 748.009 -4.48954 -2.39412 0
M  V30 8006 H 747.407 -2.6568 -4.9943 0
M  V30 8007 H 745.964 -3.39515 -5.56392 0
M  V30 8008 N 749.397 0.351382 -1.53633 0
M  V30 8009 C 750.36 1.41403 -1.80383 0
M  V30 8010 C 751.36 1.45963 -0.674635 0
M  V30 8011 O 752.55 1.46476 -0.942895 0
M  V30 8012 C 749.682 2.80401 -1.93876 0
M  V30 8013 H 750.875 1.18951 -2.75301 0
M  V30 8014 H 748.428 0.58533 -1.44926 0
M  V30 8015 H 749.163 3.08147 -1.01074 0
M  V30 8016 H 748.948 2.78488 -2.7602 0
M  V30 8017 H 750.438 3.57329 -2.16116 0
M  V30 8018 N 750.875 1.45233 0.611969 0
M  V30 8019 C 751.825 1.49997 1.71711 0
M  V30 8020 C 752.809 0.363689 1.56736 0
M  V30 8021 O 754.001 0.610261 1.66147 0
M  V30 8022 C 751.13 1.46537 3.10454 0
M  V30 8023 C 750.216 2.65351 3.30831 0
M  V30 8024 N 750.607 3.90485 3.21489 0
M  V30 8025 C 748.905 2.60955 3.61688 0
M  V30 8026 C 749.606 4.69758 3.43078 0
M  V30 8027 N 748.582 4.01141 3.66861 0
M  V30 8028 H 752.384 2.44574 1.62975 0
M  V30 8029 H 749.898 1.40464 0.815082 0
M  V30 8030 H 751.895 1.48035 3.89732 0
M  V30 8031 H 750.555 0.530139 3.20343 0
M  V30 8032 H 751.566 4.22171 2.99987 0
M  V30 8033 H 748.243 1.76319 3.78441 0
M  V30 8034 H 749.633 5.7877 3.41285 0
M  V30 8035 N 752.353 -0.854086 1.3245 0
M  V30 8036 C 753.316 -1.94427 1.21371 0
M  V30 8037 C 754.316 -1.60219 0.136613 0
M  V30 8038 O 755.506 -1.69846 0.387057 0
M  V30 8039 C 752.638 -3.29698 0.866701 0
M  V30 8040 H 753.831 -2.05679 2.18257 0
M  V30 8041 H 751.384 -1.04434 1.1629 0
M  V30 8042 H 752.119 -3.24145 -0.100319 0
M  V30 8043 H 751.904 -3.55903 1.64545 0
M  V30 8044 H 753.394 -4.09599 0.813515 0
M  V30 8045 N 753.831 -1.1567 -1.07043 0
M  V30 8046 C 754.741 -0.870435 -2.17855 0
M  V30 8047 C 755.757 0.154452 -1.73313 0
M  V30 8048 O 756.933 -0.0203759 -2.0139 0
M  V30 8049 C 753.998 -0.367219 -3.4475 0
M  V30 8050 C 753.059 -1.45639 -4.03841 0
M  V30 8051 C 752.292 -0.977092 -5.2468 0
M  V30 8052 O 752.515 0.176127 -5.70128 0
M  V30 8053 O 751.449 -1.76215 -5.75527 0
M  V30 8054 H 755.275 -1.79687 -2.44839 0
M  V30 8055 H 752.86 -0.936064 -1.1644 0
M  V30 8056 H 754.742 -0.0931947 -4.21297 0
M  V30 8057 H 753.417 0.53131 -3.1931 0
M  V30 8058 H 752.324 -1.78406 -3.28819 0
M  V30 8059 H 753.657 -2.32995 -4.3356 0
M  V30 8060 N 755.309 1.25446 -0.953992 0
M  V30 8061 C 756.257 2.27909 -0.46478 0
M  V30 8062 C 757.251 1.62904 0.464607 0
M  V30 8063 O 758.457 1.76733 0.341407 0
M  V30 8064 H 754.832 0.74036 -0.131798 0
M  V30 8065 H 756.803 2.66559 -1.34122 0
M  V30 8066 C 755.552 3.46853 0.242589 0
M  V30 8067 H 754.875 3.97105 -0.463418 0
M  V30 8068 H 756.315 4.20432 0.548919 0
M  V30 8069 C 754.774 3.03386 1.46487 0
M  V30 8070 O 755.304 3.09342 2.56262 0
M  V30 8071 N 753.51 2.58584 1.32599 0
M  V30 8072 H 753.057 2.53938 0.432834 0
M  V30 8073 H 753.015 2.29866 2.14497 0
M  V30 8074 N 756.787 0.722489 1.40064 0
M  V30 8075 C 757.735 0.063329 2.32514 0
M  V30 8076 C 758.729 -0.73953 1.52405 0
M  V30 8077 O 759.935 -0.642122 1.68157 0
M  V30 8078 H 756.31 0.00167692 0.751998 0
M  V30 8079 H 758.281 0.859656 2.85749 0
M  V30 8080 C 757.03 -0.839219 3.3742 0
M  V30 8081 H 756.353 -0.230836 3.99133 0
M  V30 8082 H 757.793 -1.26827 4.04587 0
M  V30 8083 C 756.252 -1.96783 2.73456 0
M  V30 8084 O 756.782 -3.05933 2.60323 0
M  V30 8085 N 754.988 -1.75351 2.31734 0
M  V30 8086 H 754.535 -0.865787 2.42615 0
M  V30 8087 H 754.493 -2.51043 1.89275 0
M  V30 8088 N 758.265 -1.50454 0.469181 0
M  V30 8089 C 759.175 -2.32248 -0.331349 0
M  V30 8090 C 760.191 -1.42548 -0.997807 0
M  V30 8091 O 761.367 -1.75602 -0.9862 0
M  V30 8092 C 758.432 -3.17171 -1.40012 0
M  V30 8093 C 757.493 -4.2269 -0.750463 0
M  V30 8094 C 756.726 -5.03554 -1.76831 0
M  V30 8095 O 756.949 -4.85469 -2.99459 0
M  V30 8096 O 755.883 -5.86767 -1.3412 0
M  V30 8097 H 759.709 -3.01821 0.337279 0
M  V30 8098 H 757.294 -1.47602 0.231066 0
M  V30 8099 H 759.176 -3.69871 -2.01924 0
M  V30 8100 H 757.851 -2.50328 -2.05226 0
M  V30 8101 H 756.758 -3.73986 -0.0924446 0
M  V30 8102 H 758.091 -4.91997 -0.14131 0
M  V30 8103 N 759.743 -0.201713 -1.56304 0
M  V30 8104 C 760.99 0.435307 -1.97766 0
M  V30 8105 C 761.318 1.61169 -1.0888 0
M  V30 8106 O 760.573 1.95272 -0.12934 0
M  V30 8107 C 760.872 0.931432 -3.45049 0
M  V30 8108 C 760.538 -0.132287 -4.50706 0
M  V30 8109 C 759.2 -0.424552 -4.79323 0
M  V30 8110 C 761.552 -0.852703 -5.14177 0
M  V30 8111 C 758.88 -1.4421 -5.68701 0
M  V30 8112 C 761.232 -1.85944 -6.04655 0
M  V30 8113 C 759.896 -2.15884 -6.31625 0
M  V30 8114 H 759.166 0.15929 -0.723676 0
M  V30 8115 H 761.813 -0.300069 -1.89134 0
M  V30 8116 H 760.118 1.7452 -3.50785 0
M  V30 8117 H 761.815 1.43383 -3.74489 0
M  V30 8118 H 758.405 0.105671 -4.2847 0
M  V30 8119 H 762.589 -0.640139 -4.92154 0
M  V30 8120 H 757.845 -1.6799 -5.87869 0
M  V30 8121 H 762.019 -2.42286 -6.52894 0
M  V30 8122 H 759.646 -2.94875 -7.0068 0
M  V30 8123 N 761.222 1.57436 0.0718424 0
M  V30 8124 C 762.471 1.86431 0.769826 0
M  V30 8125 C 762.784 0.794355 1.78744 0
M  V30 8126 O 763.99 0.972148 2.53499 0
M  V30 8127 C 762.446 3.307 1.42006 0
M  V30 8128 C 762.054 4.45824 0.441017 0
M  V30 8129 C 763.798 3.68894 2.10041 0
M  V30 8130 C 761.705 5.81134 1.09717 0
M  V30 8131 H 760.635 0.695474 0.291259 0
M  V30 8132 H 763.286 1.83485 0.0231224 0
M  V30 8133 H 761.668 3.28257 2.21502 0
M  V30 8134 H 762.842 4.59659 -0.32413 0
M  V30 8135 H 761.157 4.16181 -0.134886 0
M  V30 8136 H 763.754 4.67281 2.59908 0
M  V30 8137 H 764.097 2.98692 2.89981 0
M  V30 8138 H 764.63 3.73326 1.37376 0
M  V30 8139 H 761.369 6.54628 0.338095 0
M  V30 8140 H 760.889 5.711 1.83317 0
M  V30 8141 H 762.568 6.26468 1.617 0
M  V30 8142 N 762.7 -0.34323 1.53817 0
M  V30 8143 C 763.928 -1.10348 1.75017 0
M  V30 8144 C 764.343 -1.82345 0.489475 0
M  V30 8145 O 763.7 -1.74362 -0.538886 0
M  V30 8146 C 763.751 -2.11672 2.93048 0
M  V30 8147 O 763.472 -1.42603 4.14241 0
M  V30 8148 C 764.973 -3.0007 3.26301 0
M  V30 8149 H 762.193 -0.329056 0.584776 0
M  V30 8150 H 764.737 -0.395339 2.00642 0
M  V30 8151 H 762.892 -2.78051 2.69753 0
M  V30 8152 H 763.306 -2.10294 4.80496 0
M  V30 8153 H 764.78 -3.67101 4.12239 0
M  V30 8154 H 765.257 -3.66105 2.42618 0
M  V30 8155 H 765.863 -2.3928 3.51604 0
M  V30 8156 N 764.178 -1.45556 -0.604258 0
M  V30 8157 C 765.424 -1.50958 -1.3632 0
M  V30 8158 C 765.779 -0.15051 -1.9181 0
M  V30 8159 O 765.072 0.838035 -1.72301 0
M  V30 8160 C 765.266 -2.52697 -2.52743 0
M  V30 8161 C 765.095 -3.98364 -2.08654 0
M  V30 8162 C 763.865 -4.66295 -1.94671 0
M  V30 8163 C 766.063 -4.86801 -1.6592 0
M  V30 8164 N 764.045 -5.96669 -1.44428 0
M  V30 8165 C 765.416 -6.06829 -1.27115 0
M  V30 8166 C 767.471 -4.73634 -1.53542 0
M  V30 8167 C 766.174 -7.15149 -0.771676 0
M  V30 8168 C 768.2 -5.82005 -1.04998 0
M  V30 8169 C 767.562 -7.01191 -0.671599 0
M  V30 8170 H 763.661 -0.607329 -0.492621 0
M  V30 8171 H 766.245 -1.82048 -0.69041 0
M  V30 8172 H 764.416 -2.23554 -3.17614 0
M  V30 8173 H 766.148 -2.48227 -3.19633 0
M  V30 8174 H 762.903 -4.21496 -2.15959 0
M  V30 8175 H 763.327 -6.66003 -1.21528 0
M  V30 8176 H 767.969 -3.81898 -1.81421 0
M  V30 8177 H 765.687 -8.06671 -0.480442 0
M  V30 8178 H 769.273 -5.73851 -0.958423 0
M  V30 8179 H 768.153 -7.83619 -0.301752 0
M  V30 8180 N 765.656 0.84705 -1.32902 0
M  V30 8181 C 766.604 1.97765 -1.22441 0
M  V30 8182 C 767.598 1.68919 -0.127546 0
M  V30 8183 O 768.804 1.77633 -0.290973 0
M  V30 8184 H 765.179 0.649072 -0.379748 0
M  V30 8185 H 767.15 2.03713 -2.18044 0
M  V30 8186 C 765.899 3.33834 -0.972125 0
M  V30 8187 H 765.222 3.56564 -1.80837 0
M  V30 8188 H 766.662 4.13467 -0.939209 0
M  V30 8189 C 765.121 3.35328 0.325059 0
M  V30 8190 O 765.651 3.78887 1.33445 0
M  V30 8191 N 763.857 2.88488 0.349718 0
M  V30 8192 H 763.404 2.53234 -0.472236 0
M  V30 8193 H 763.362 2.8987 1.21748 0
M  V30 8194 N 767.134 1.16236 1.06428 0
M  V30 8195 C 768.411 0.853294 1.76006 0
M  V30 8196 C 768.791 -0.649162 2.00871 0
M  V30 8197 O 768.139 -1.59653 1.63472 0
M  V30 8198 C 768.349 1.67448 3.06206 0
M  V30 8199 C 769.697 1.8866 3.80385 0
M  V30 8200 O 770.721 1.64303 3.16043 0
M  V30 8201 O 769.58 2.29518 4.95968 0
M  V30 8202 H 766.674 0.314737 0.764767 0
M  V30 8203 H 769.22 1.26865 1.12709 0
M  V30 8204 H 767.992 2.69411 2.83784 0
M  V30 8205 H 767.615 1.25608 3.77238 0
M  V30 8206 N 768.612 -1.24939 0.960631 0
M  V30 8207 C 769.861 -1.92118 0.614298 0
M  V30 8208 C 770.174 -1.75998 -0.853474 0
M  V30 8209 O 771.38 -2.37804 -1.31003 0
M  V30 8210 C 769.836 -3.44303 1.04801 0
M  V30 8211 C 769.444 -3.69123 2.53875 0
M  V30 8212 C 771.188 -4.17375 0.774497 0
M  V30 8213 C 769.095 -5.14843 2.91016 0
M  V30 8214 H 768.025 -0.719319 0.226045 0
M  V30 8215 H 770.676 -1.41701 1.16589 0
M  V30 8216 H 769.058 -3.93715 0.42479 0
M  V30 8217 H 770.232 -3.30339 3.21267 0
M  V30 8218 H 768.547 -3.09323 2.78762 0
M  V30 8219 H 771.144 -5.24723 1.02808 0
M  V30 8220 H 771.487 -4.15294 -0.289192 0
M  V30 8221 H 772.02 -3.7389 1.35835 0
M  V30 8222 H 768.759 -5.2204 3.96427 0
M  V30 8223 H 768.279 -5.54652 2.28302 0
M  V30 8224 H 769.958 -5.83017 2.80535 0
M  V30 8225 N 770.09 -0.729906 -1.39679 0
M  V30 8226 C 771.022 -0.0470588 -2.29152 0
M  V30 8227 C 772.035 0.708808 -1.4656 0
M  V30 8228 O 773.224 0.553815 -1.69691 0
M  V30 8229 C 770.324 0.957612 -3.25089 0
M  V30 8230 C 769.497 0.264321 -4.36601 0
M  V30 8231 C 768.556 1.17638 -5.12882 0
M  V30 8232 O 767.582 0.655777 -5.6541 0
M  V30 8233 N 768.784 2.50649 -5.23598 0
M  V30 8234 H 771.549 -0.815364 -2.88395 0
M  V30 8235 H 769.11 -0.578707 -1.51204 0
M  V30 8236 H 771.102 1.57026 -3.72995 0
M  V30 8237 H 769.672 1.62716 -2.66912 0
M  V30 8238 H 768.892 -0.528732 -3.90638 0
M  V30 8239 H 770.18 -0.216344 -5.0834 0
M  V30 8240 H 769.578 2.95427 -4.82431 0
M  V30 8241 H 768.135 3.07022 -5.74961 0
M  V30 8242 N 771.568 1.50203 -0.477153 0
M  V30 8243 C 772.531 2.27194 0.302599 0
M  V30 8244 C 773.531 1.32221 0.915112 0
M  V30 8245 O 774.721 1.55593 0.783348 0
M  V30 8246 C 771.853 3.0938 1.43167 0
M  V30 8247 H 773.046 2.97575 -0.372678 0
M  V30 8248 H 770.599 1.54578 -0.231392 0
M  V30 8249 H 771.334 2.43509 2.14182 0
M  V30 8250 H 771.119 3.79181 0.998197 0
M  V30 8251 H 772.609 3.67592 1.98157 0
M  V30 8252 N 773.046 0.209999 1.56195 0
M  V30 8253 C 774.286 -0.4268 1.99894 0
M  V30 8254 C 774.65 -1.57763 1.0943 0
M  V30 8255 O 775.851 -2.27964 1.42428 0
M  V30 8256 C 774.122 -0.861188 3.46869 0
M  V30 8257 S 775.681 -1.49372 4.12593 0
M  V30 8258 H 772.499 -0.135922 0.697887 0
M  V30 8259 H 775.101 0.316573 1.9292 0
M  V30 8260 H 773.805 -0.0137653 4.10398 0
M  V30 8261 H 773.336 -1.63766 3.57693 0
M  V30 8262 H 775.351 -2.7827 4.10829 0
M  V30 8263 N 774.524 -1.57472 -0.0634922 0
M  V30 8264 C 775.77 -1.87932 -0.762194 0
M  V30 8265 C 776.103 -0.803377 -1.76804 0
M  V30 8266 O 775.378 0.185468 -1.93614 0
M  V30 8267 C 775.661 -3.29053 -1.46275 0
M  V30 8268 C 775.514 -4.47309 -0.472755 0
M  V30 8269 C 776.833 -3.68537 -2.40558 0
M  V30 8270 H 773.952 -0.683521 -0.275624 0
M  V30 8271 H 776.594 -1.89983 -0.0252651 0
M  V30 8272 H 774.744 -3.27435 -2.0909 0
M  V30 8273 H 776.416 -4.61053 0.150828 0
M  V30 8274 H 774.659 -4.33286 0.211187 0
M  V30 8275 H 775.33 -5.42853 -1.00072 0
M  V30 8276 H 777.806 -3.71302 -1.87814 0
M  V30 8277 H 776.682 -4.68152 -2.86574 0
M  V30 8278 H 776.943 -2.98917 -3.25731 0
M  V30 8279 N 776.003 0.335068 -1.53997 0
M  V30 8280 C 777.28 1.09188 -1.62288 0
M  V30 8281 C 777.66 2.0626 -0.449458 0
M  V30 8282 O 777.008 2.21596 0.557444 0
M  V30 8283 C 777.218 1.80403 -2.98757 0
M  V30 8284 C 778.566 2.33841 -3.54406 0
M  V30 8285 O 779.59 1.90487 -3.00987 0
M  V30 8286 O 778.449 3.1318 -4.47862 0
M  V30 8287 H 775.543 0.502621 -0.656736 0
M  V30 8288 H 778.089 0.33588 -1.66343 0
M  V30 8289 H 776.861 1.09732 -3.75599 0
M  V30 8290 H 776.484 2.62841 -2.9833 0
M  V30 8291 N 777.481 1.45874 0.596531 0
M  V30 8292 C 778.431 1.5181 1.70111 0
M  V30 8293 C 779.415 0.380293 1.56341 0
M  V30 8294 O 780.607 0.627849 1.6549 0
M  V30 8295 C 777.736 1.49822 3.08883 0
M  V30 8296 C 776.822 2.68845 3.27998 0
M  V30 8297 N 777.213 3.93873 3.17329 0
M  V30 8298 C 775.511 2.64777 3.589 0
M  V30 8299 C 776.212 4.73371 3.38076 0
M  V30 8300 N 775.188 4.0501 3.62585 0
M  V30 8301 H 778.99 2.46289 1.60372 0
M  V30 8302 H 776.504 1.41321 0.800138 0
M  V30 8303 H 778.501 1.5216 3.8814 0
M  V30 8304 H 777.161 0.564086 3.19763 0
M  V30 8305 H 778.172 4.25329 2.95492 0
M  V30 8306 H 774.849 1.80323 3.7655 0
M  V30 8307 H 776.239 5.82357 3.35127 0
M  V30 8308 N 778.959 -0.83999 1.33349 0
M  V30 8309 C 780.205 -1.59753 1.24927 0
M  V30 8310 C 780.538 -1.93318 -0.184855 0
M  V30 8311 O 779.813 -1.586 -1.12589 0
M  V30 8312 C 780.096 -2.90829 2.12345 0
M  V30 8313 C 779.949 -2.63953 3.6421 0
M  V30 8314 C 781.268 -3.92246 1.99577 0
M  V30 8315 H 778.387 -0.579654 0.45516 0
M  V30 8316 H 781.029 -0.968909 1.63439 0
M  V30 8317 H 779.179 -3.44478 1.79631 0
M  V30 8318 H 780.851 -2.16745 4.07209 0
M  V30 8319 H 779.094 -1.97671 3.86146 0
M  V30 8320 H 779.765 -3.57348 4.20721 0
M  V30 8321 H 782.241 -3.479 2.28265 0
M  V30 8322 H 781.117 -4.81793 2.62996 0
M  V30 8323 H 781.378 -4.3138 0.967673 0
M  V30 8324 N 780.437 -1.16799 -1.0581 0
M  V30 8325 C 781.385 -0.875111 -2.1551 0
M  V30 8326 C 782.379 0.157781 -1.68664 0
M  V30 8327 O 783.585 0.011297 -1.79996 0
M  V30 8328 H 779.96 -0.26542 -0.703602 0
M  V30 8329 H 781.931 -1.8076 -2.37421 0
M  V30 8330 C 780.68 -0.39802 -3.45414 0
M  V30 8331 H 780.003 -1.18425 -3.81858 0
M  V30 8332 H 781.443 -0.231913 -4.23365 0
M  V30 8333 C 779.902 0.88327 -3.25115 0
M  V30 8334 O 780.432 1.95145 -3.51114 0
M  V30 8335 N 778.638 0.828961 -2.78526 0
M  V30 8336 H 778.185 -0.0405029 -2.57568 0
M  V30 8337 H 778.143 1.68673 -2.65324 0
M  V30 8338 N 781.915 1.24427 -0.967243 0
M  V30 8339 C 782.845 2.2773 -0.515899 0
M  V30 8340 C 783.826 1.64197 0.444227 0
M  V30 8341 O 785.011 1.91193 0.340451 0
M  V30 8342 C 782.141 3.46751 0.195149 0
M  V30 8343 C 781.095 4.22548 -0.680953 0
M  V30 8344 C 780.421 5.34456 0.161561 0
M  V30 8345 C 781.721 4.83914 -1.96532 0
M  V30 8346 H 783.415 2.65735 -1.37933 0
M  V30 8347 H 780.961 1.27742 -0.664681 0
M  V30 8348 H 782.914 4.18153 0.522117 0
M  V30 8349 H 781.638 3.07771 1.09292 0
M  V30 8350 H 780.297 3.52946 -0.991186 0
M  V30 8351 H 779.945 4.91716 1.05947 0
M  V30 8352 H 779.645 5.86087 -0.421418 0
M  V30 8353 H 781.169 6.08685 0.483211 0
M  V30 8354 H 782.583 5.47392 -1.70396 0
M  V30 8355 H 780.98 5.45775 -2.49499 0
M  V30 8356 H 782.05 4.05393 -2.66053 0
M  V30 8357 N 783.393 0.737304 1.3929 0
M  V30 8358 C 784.639 0.286681 2.00763 0
M  V30 8359 C 784.972 -1.12388 1.58375 0
M  V30 8360 O 784.247 -1.76661 0.813699 0
M  V30 8361 C 784.53 0.391147 3.57969 0
M  V30 8362 C 784.383 1.84165 4.1037 0
M  V30 8363 C 785.702 -0.225072 4.39524 0
M  V30 8364 H 782.821 0.105642 0.729389 0
M  V30 8365 H 785.463 0.933892 1.65464 0
M  V30 8366 H 783.613 -0.159875 3.88171 0
M  V30 8367 H 785.285 2.44972 3.90879 0
M  V30 8368 H 783.528 2.3622 3.63844 0
M  V30 8369 H 784.199 1.866 5.19504 0
M  V30 8370 H 786.675 0.244677 4.1538 0
M  V30 8371 H 785.551 -0.121646 5.48765 0
M  V30 8372 H 785.812 -1.31141 4.22202 0
M  V30 8373 N 784.871 -1.49948 0.485112 0
M  V30 8374 C 786.117 -2.02695 -0.0651022 0
M  V30 8375 C 786.45 -1.36534 -1.38102 0
M  V30 8376 O 785.725 -0.495677 -1.88078 0
M  V30 8377 C 786.008 -3.59337 -0.234285 0
M  V30 8378 C 785.861 -4.3605 1.10364 0
M  V30 8379 C 787.18 -4.28996 -0.982351 0
M  V30 8380 H 784.299 -0.736666 -0.0221856 0
M  V30 8381 H 786.941 -1.7913 0.633433 0
M  V30 8382 H 785.091 -3.79546 -0.829262 0
M  V30 8383 H 786.763 -4.27377 1.73627 0
M  V30 8384 H 785.006 -3.99236 1.69686 0
M  V30 8385 H 785.677 -5.43959 0.938743 0
M  V30 8386 H 788.153 -4.13346 -0.477904 0
M  V30 8387 H 787.029 -5.38379 -1.06955 0
M  V30 8388 H 787.29 -3.93135 -2.02231 0
M  V30 8389 N 786.349 -0.21828 -1.56081 0
M  V30 8390 C 787.281 0.725447 -2.17416 0
M  V30 8391 C 788.294 1.15995 -1.14233 0
M  V30 8392 O 789.483 1.09166 -1.41227 0
M  V30 8393 C 786.583 1.99401 -2.7403 0
M  V30 8394 C 785.756 1.7156 -4.02351 0
M  V30 8395 C 784.815 2.8309 -4.43561 0
M  V30 8396 O 783.841 2.51701 -5.10525 0
M  V30 8397 N 785.043 4.11972 -4.08973 0
M  V30 8398 H 787.808 0.200801 -2.99027 0
M  V30 8399 H 785.369 -0.0371514 -1.61857 0
M  V30 8400 H 787.361 2.73198 -2.98571 0
M  V30 8401 H 785.931 2.42923 -1.96742 0
M  V30 8402 H 785.151 0.814233 -3.85699 0
M  V30 8403 H 786.439 1.50385 -4.86068 0
M  V30 8404 H 785.837 4.40319 -3.55156 0
M  V30 8405 H 784.394 4.82323 -4.38415 0
M  V30 8406 N 787.827 1.57504 0.0551401 0
M  V30 8407 C 788.737 2.08198 1.08124 0
M  V30 8408 C 789.753 1.01496 1.41331 0
M  V30 8409 O 790.929 1.33073 1.51174 0
M  V30 8410 C 787.994 2.52968 2.37083 0
M  V30 8411 C 787.055 3.7404 2.10696 0
M  V30 8412 C 786.288 4.16665 3.33505 0
M  V30 8413 O 786.511 3.59019 4.4324 0
M  V30 8414 O 785.445 5.09324 3.20737 0
M  V30 8415 H 789.271 2.95977 0.680518 0
M  V30 8416 H 786.856 1.46933 0.270401 0
M  V30 8417 H 788.738 2.82211 3.12946 0
M  V30 8418 H 787.413 1.6831 2.76502 0
M  V30 8419 H 786.32 3.49855 1.32484 0
M  V30 8420 H 787.653 4.59601 1.76148 0
M  V30 8421 N 789.305 -0.326896 1.54172 0
M  V30 8422 C 790.215 -1.42525 1.86343 0
M  V30 8423 C 791.231 -1.56764 0.75505 0
M  V30 8424 O 792.407 -1.71924 1.04901 0
M  V30 8425 C 789.472 -2.77286 2.08119 0
M  V30 8426 C 788.533 -2.7225 3.31931 0
M  V30 8427 C 787.766 -4.00584 3.52659 0
M  V30 8428 O 787.989 -4.98686 2.76891 0
M  V30 8429 O 786.923 -4.04045 4.46129 0
M  V30 8430 H 790.749 -1.18249 2.79734 0
M  V30 8431 H 788.334 -0.520614 1.40036 0
M  V30 8432 H 790.216 -3.57065 2.23791 0
M  V30 8433 H 788.891 -3.01459 1.17917 0
M  V30 8434 H 787.798 -1.91033 3.21647 0
M  V30 8435 H 789.131 -2.53032 4.2218 0
M  V30 8436 N 790.784 -1.46188 -0.588786 0
M  V30 8437 C 791.734 -1.5271 -1.69303 0
M  V30 8438 C 792.718 -0.388578 -1.56137 0
M  V30 8439 O 793.91 -0.636616 -1.65155 0
M  V30 8440 C 791.039 -1.51457 -3.08084 0
M  V30 8441 C 790.125 -2.70581 -3.26568 0
M  V30 8442 N 790.516 -3.9555 -3.15236 0
M  V30 8443 C 788.814 -2.66676 -3.57491 0
M  V30 8444 C 789.515 -4.75157 -3.35561 0
M  V30 8445 N 788.491 -4.06927 -3.60432 0
M  V30 8446 H 792.293 -2.47136 -1.59063 0
M  V30 8447 H 789.807 -1.41743 -0.792632 0
M  V30 8448 H 791.804 -1.54216 -3.87328 0
M  V30 8449 H 790.464 -0.581036 -3.19459 0
M  V30 8450 H 791.475 -4.2689 -2.93232 0
M  V30 8451 H 788.152 -1.82317 -3.75588 0
M  V30 8452 H 789.542 -5.84126 -3.32034 0
M  V30 8453 N 792.262 0.832906 -1.33792 0
M  V30 8454 C 793.172 1.97514 -1.26592 0
M  V30 8455 C 794.188 1.73114 -0.175391 0
M  V30 8456 O 795.364 1.97387 -0.400062 0
M  V30 8457 C 792.429 3.31625 -1.01121 0
M  V30 8458 C 791.49 3.69101 -2.19233 0
M  V30 8459 C 790.723 4.96813 -1.94968 0
M  V30 8460 O 790.946 5.63208 -0.902955 0
M  V30 8461 O 789.88 5.31932 -2.8166 0
M  V30 8462 H 793.706 2.0653 -2.22664 0
M  V30 8463 H 791.291 0.966826 -1.13898 0
M  V30 8464 H 793.173 4.11968 -0.886571 0
M  V30 8465 H 791.848 3.23599 -0.080822 0
M  V30 8466 H 790.755 2.89243 -2.37253 0
M  V30 8467 H 792.088 3.818 -3.10628 0
M  V30 8468 N 793.74 1.17359 1.05189 0
M  V30 8469 C 795.156 0.920861 1.30355 0
M  V30 8470 C 795.356 -0.419993 1.97074 0
M  V30 8471 O 794.412 -1.15696 2.24434 0
M  V30 8472 C 795.725 2.07818 2.1733 0
M  V30 8473 C 797.273 2.1152 2.30712 0
M  V30 8474 C 797.748 3.26637 3.21048 0
M  V30 8475 N 799.239 3.26426 3.28634 0
M  V30 8476 C 799.974 4.12141 3.98657 0
M  V30 8477 N 799.47 5.07966 4.71107 0
M  V30 8478 N 801.263 4.00091 3.94821 0
M  V30 8479 H 793.414 2.03666 0.602821 0
M  V30 8480 H 795.677 0.889294 0.328421 0
M  V30 8481 H 795.383 3.04727 1.75597 0
M  V30 8482 H 795.257 2.02922 3.17966 0
M  V30 8483 H 797.644 1.15196 2.71687 0
M  V30 8484 H 797.725 2.20477 1.29706 0
M  V30 8485 H 797.369 4.23227 2.80788 0
M  V30 8486 H 797.299 3.14917 4.2206 0
M  V30 8487 H 799.79 2.57045 2.77013 0
M  V30 8488 H 800.103 5.69766 5.22099 0
M  V30 8489 H 798.448 5.11936 4.7005 0
M  V30 8490 H 801.639 3.24523 3.37346 0
M  V30 8491 H 801.812 4.6711 4.49123 0
M  V30 8492 N 795.218 -1.23913 0.973828 0
M  V30 8493 C 796.467 -1.91455 0.63464 0
M  V30 8494 C 796.78 -1.76893 -0.834759 0
M  V30 8495 O 797.986 -2.3918 -1.28473 0
M  V30 8496 C 796.442 -3.43172 1.08447 0
M  V30 8497 C 796.05 -3.66409 2.57776 0
M  V30 8498 C 797.794 -4.1653 0.818721 0
M  V30 8499 C 795.701 -5.11728 2.9646 0
M  V30 8500 H 794.631 -0.716881 0.233661 0
M  V30 8501 H 797.282 -1.40457 1.18085 0
M  V30 8502 H 795.664 -3.93242 0.466524 0
M  V30 8503 H 796.838 -3.26913 3.24753 0
M  V30 8504 H 795.153 -3.06349 2.82027 0
M  V30 8505 H 797.75 -5.23603 1.08367 0
M  V30 8506 H 798.093 -4.15578 -0.245128 0
M  V30 8507 H 798.626 -3.72428 1.39793 0
M  V30 8508 H 795.365 -5.17806 4.01941 0
M  V30 8509 H 794.885 -5.52199 2.34172 0
M  V30 8510 H 796.564 -5.80009 2.86703 0
M  V30 8511 N 796.696 -0.74468 -1.38897 0
M  V30 8512 C 797.626 -0.126355 -2.33158 0
M  V30 8513 C 798.607 0.713517 -1.54412 0
M  V30 8514 O 799.792 0.656523 -1.82766 0
M  V30 8515 C 796.922 0.774375 -3.38557 0
M  V30 8516 C 795.876 0.0379214 -4.27983 0
M  V30 8517 C 795.202 1.05631 -5.24162 0
M  V30 8518 C 796.502 -1.12523 -5.10035 0
M  V30 8519 H 798.196 -0.913744 -2.85116 0
M  V30 8520 H 795.742 -0.440847 -1.37086 0
M  V30 8521 H 797.695 1.21655 -4.03458 0
M  V30 8522 H 796.419 1.59399 -2.85061 0
M  V30 8523 H 795.078 -0.384733 -3.64576 0
M  V30 8524 H 794.726 1.86975 -4.66958 0
M  V30 8525 H 794.426 0.568261 -5.84846 0
M  V30 8526 H 795.95 1.49799 -5.9194 0
M  V30 8527 H 797.364 -0.761037 -5.68226 0
M  V30 8528 H 795.761 -1.54355 -5.79909 0
M  V30 8529 H 796.831 -1.94237 -4.44297 0
M  V30 8530 N 798.174 1.49689 -0.493057 0
M  V30 8531 C 799.137 2.27502 0.278485 0
M  V30 8532 C 800.137 1.33184 0.901037 0
M  V30 8533 O 801.327 1.56415 0.766801 0
M  V30 8534 C 798.459 3.10881 1.39878 0
M  V30 8535 H 799.652 2.97163 -0.404219 0
M  V30 8536 H 797.205 1.54324 -0.247774 0
M  V30 8537 H 797.94 2.45767 2.11587 0
M  V30 8538 H 797.725 3.80219 0.957924 0
M  V30 8539 H 799.215 3.69673 1.94247 0
M  V30 8540 N 799.652 0.226554 1.55963 0
M  V30 8541 C 800.901 -0.40417 1.97609 0
M  V30 8542 C 801.214 -1.60541 1.1174 0
M  V30 8543 O 802.42 -2.30598 1.43307 0
M  V30 8544 C 800.876 -0.770466 3.51556 0
M  V30 8545 C 800.484 0.408244 4.46136 0
M  V30 8546 C 802.228 -1.36651 4.01904 0
M  V30 8547 C 800.135 0.0192347 5.91397 0
M  V30 8548 H 799.065 -0.15478 0.737943 0
M  V30 8549 H 801.716 0.323558 1.80625 0
M  V30 8550 H 800.098 -1.55575 3.6416 0
M  V30 8551 H 801.272 1.18575 4.45283 0
M  V30 8552 H 799.587 0.917859 4.06158 0
M  V30 8553 H 802.184 -1.67055 5.07934 0
M  V30 8554 H 802.527 -2.28403 3.48049 0
M  V30 8555 H 803.06 -0.644556 3.92543 0
M  V30 8556 H 799.799 0.90336 6.49245 0
M  V30 8557 H 799.319 -0.722485 5.95433 0
M  V30 8558 H 800.998 -0.405711 6.45727 0
M  V30 8559 N 801.13 -1.57531 -0.0467866 0
M  V30 8560 C 802.378 -1.88078 -0.739656 0
M  V30 8561 C 802.699 -0.821936 -1.76831 0
M  V30 8562 O 801.969 0.146582 -1.95351 0
M  V30 8563 H 800.549 -0.694075 -0.276169 0
M  V30 8564 H 803.211 -1.94893 -0.0169391 0
M  V30 8565 H 802.307 -2.86396 -1.24031 0
M  V30 8566 N 802.608 0.318715 -1.54344 0
M  V30 8567 C 803.538 1.39751 -1.87061 0
M  V30 8568 C 804.519 1.53741 -0.727848 0
M  V30 8569 O 805.704 1.67541 -0.982016 0
M  V30 8570 C 802.834 2.76446 -2.10226 0
M  V30 8571 C 801.788 2.77239 -3.26071 0
M  V30 8572 C 801.114 4.17056 -3.34617 0
M  V30 8573 C 802.414 2.40555 -4.63606 0
M  V30 8574 H 804.108 1.12619 -2.77412 0
M  V30 8575 H 801.654 0.540318 -1.33479 0
M  V30 8576 H 803.607 3.51985 -2.31699 0
M  V30 8577 H 802.331 3.05066 -1.16629 0
M  V30 8578 H 800.99 2.04155 -3.04493 0
M  V30 8579 H 800.638 4.42824 -2.3857 0
M  V30 8580 H 800.338 4.18492 -4.12478 0
M  V30 8581 H 801.862 4.94401 -3.5833 0
M  V30 8582 H 803.276 3.05808 -4.84927 0
M  V30 8583 H 801.673 2.53234 -5.44052 0
M  V30 8584 H 802.743 1.35698 -4.65526 0
M  V30 8585 N 804.086 1.46499 0.581025 0
M  V30 8586 C 805.335 1.51162 1.3354 0
M  V30 8587 C 805.648 0.168433 1.94873 0
M  V30 8588 O 806.854 0.092883 2.71341 0
M  V30 8589 C 805.31 2.66362 2.42032 0
M  V30 8590 C 804.918 4.07109 1.86994 0
M  V30 8591 C 806.662 2.80297 3.188 0
M  V30 8592 C 804.569 5.13645 2.93125 0
M  V30 8593 H 803.499 0.562576 0.502021 0
M  V30 8594 H 806.15 1.72713 0.619863 0
M  V30 8595 H 804.532 2.38143 3.16392 0
M  V30 8596 H 805.706 4.45125 1.19166 0
M  V30 8597 H 804.021 3.97854 1.22887 0
M  V30 8598 H 806.618 3.5706 3.9801 0
M  V30 8599 H 806.961 1.87875 3.71495 0
M  V30 8600 H 807.494 3.0817 2.51547 0
M  V30 8601 H 804.233 6.07866 2.45315 0
M  V30 8602 H 803.753 4.80172 3.59437 0
M  V30 8603 H 805.432 5.39562 3.57046 0
M  V30 8604 N 805.565 -0.825799 1.34232 0
M  V30 8605 C 806.513 -1.95792 1.25572 0
M  V30 8606 C 807.507 -1.68695 0.154404 0
M  V30 8607 O 808.713 -1.77147 0.319196 0
M  V30 8608 H 805.088 -0.642949 0.390027 0
M  V30 8609 H 807.059 -2.00219 2.21258 0
M  V30 8610 C 805.808 -3.32245 1.02511 0
M  V30 8611 H 805.131 -3.53642 1.86487 0
M  V30 8612 H 806.571 -4.1192 1.00487 0
M  V30 8613 C 805.03 -3.35803 -0.27167 0
M  V30 8614 O 805.56 -3.80962 -1.274 0
M  V30 8615 N 803.766 -2.89008 -0.303778 0
M  V30 8616 H 803.313 -2.52451 0.512464 0
M  V30 8617 H 803.271 -2.9177 -1.17121 0
M  V30 8618 N 807.043 -1.17915 -1.04565 0
M  V30 8619 C 807.953 -0.916449 -2.15959 0
M  V30 8620 C 808.969 0.117655 -1.73602 0
M  V30 8621 O 810.145 -0.063089 -2.01301 0
M  V30 8622 C 807.21 -0.440262 -3.43893 0
M  V30 8623 C 806.271 -1.54172 -4.00661 0
M  V30 8624 C 805.504 -1.08816 -5.22489 0
M  V30 8625 O 805.727 0.0551547 -5.70373 0
M  V30 8626 O 804.661 -1.88383 -5.7166 0
M  V30 8627 H 808.487 -1.8484 -2.40972 0
M  V30 8628 H 806.072 -0.960552 -1.14428 0
M  V30 8629 H 807.954 -0.182537 -4.21004 0
M  V30 8630 H 806.629 0.46346 -3.20365 0
M  V30 8631 H 805.536 -1.85341 -3.24961 0
M  V30 8632 H 806.869 -2.42139 -4.2852 0
M  V30 8633 N 808.521 1.23394 -0.980386 0
M  V30 8634 C 809.484 2.23092 -0.525619 0
M  V30 8635 C 810.484 1.56129 0.384745 0
M  V30 8636 O 811.674 1.73284 0.178439 0
M  V30 8637 C 808.806 3.40074 0.23712 0
M  V30 8638 H 809.999 2.64839 -1.40714 0
M  V30 8639 H 807.552 1.36227 -0.766275 0
M  V30 8640 H 808.287 3.03783 1.13518 0
M  V30 8641 H 808.072 3.89883 -0.416356 0
M  V30 8642 H 809.562 4.14043 0.543892 0
M  V30 8643 N 809.999 0.752036 1.385 0
M  V30 8644 C 810.929 0.138718 2.33088 0
M  V30 8645 C 811.91 -0.705318 1.54788 0
M  V30 8646 O 813.095 -0.646821 1.83112 0
M  V30 8647 C 810.225 -0.75641 3.38963 0
M  V30 8648 C 809.179 -0.0152239 4.27997 0
M  V30 8649 C 808.505 -1.0285 5.24715 0
M  V30 8650 C 809.805 1.15226 5.09431 0
M  V30 8651 H 811.499 0.928852 2.84627 0
M  V30 8652 H 809.045 0.448111 1.3685 0
M  V30 8653 H 810.998 -1.19513 4.04097 0
M  V30 8654 H 809.722 -1.57885 2.85902 0
M  V30 8655 H 808.381 0.404061 3.64366 0
M  V30 8656 H 808.029 -1.84496 4.67943 0
M  V30 8657 H 807.729 -0.537238 5.85139 0
M  V30 8658 H 809.253 -1.46657 5.92726 0
M  V30 8659 H 810.667 0.791161 5.67815 0
M  V30 8660 H 809.064 1.57428 5.79082 0
M  V30 8661 H 810.134 1.9659 4.43261 0
M  V30 8662 N 811.477 -1.49425 0.500989 0
M  V30 8663 C 812.754 -1.9531 -0.106551 0
M  V30 8664 C 813.134 -1.44248 -1.54129 0
M  V30 8665 O 812.482 -0.656237 -2.18874 0
M  V30 8666 C 812.692 -3.48995 -0.0191972 0
M  V30 8667 C 814.04 -4.24161 -0.193129 0
M  V30 8668 O 815.064 -3.56075 -0.0943843 0
M  V30 8669 O 813.923 -5.45064 -0.395869 0
M  V30 8670 H 811.017 -0.82149 -0.0953068 0
M  V30 8671 H 813.563 -1.6007 0.563526 0
M  V30 8672 H 812.335 -3.78794 0.981353 0
M  V30 8673 H 811.958 -3.90852 -0.72942 0
M  V30 8674 N 812.955 -0.234822 -1.55841 0
M  V30 8675 C 813.865 0.680828 -2.24504 0
M  V30 8676 C 814.881 1.20306 -1.25708 0
M  V30 8677 O 816.057 1.24188 -1.58554 0
M  V30 8678 C 813.122 1.86636 -2.92178 0
M  V30 8679 C 812.183 1.3848 -4.06352 0
M  V30 8680 C 811.416 2.51382 -4.70789 0
M  V30 8681 O 811.639 3.69831 -4.34259 0
M  V30 8682 O 810.573 2.21828 -5.59532 0
M  V30 8683 H 814.399 0.12583 -3.03439 0
M  V30 8684 H 811.984 -0.00381817 -1.494 0
M  V30 8685 H 813.866 2.55845 -3.34845 0
M  V30 8686 H 812.541 2.40921 -2.16192 0
M  V30 8687 H 811.448 0.660341 -3.68226 0
M  V30 8688 H 812.781 0.888177 -4.8412 0
M  V30 8689 N 814.433 1.57553 0.0384317 0
M  V30 8690 C 815.681 1.88468 0.729672 0
M  V30 8691 C 816.002 0.831302 1.76393 0
M  V30 8692 O 815.272 -0.13622 1.95426 0
M  V30 8693 H 813.852 0.695529 0.272485 0
M  V30 8694 H 816.514 1.94899 0.0066032 0
M  V30 8695 H 815.61 2.8705 1.22511 0
M  V30 8696 N 815.911 -0.310526 1.54511 0
M  V30 8697 C 817.188 -1.06593 1.64004 0
M  V30 8698 C 817.568 -2.05519 0.482216 0
M  V30 8699 O 816.916 -2.22455 -0.52212 0
M  V30 8700 C 817.126 -1.75627 3.01589 0
M  V30 8701 C 818.474 -2.28173 3.58081 0
M  V30 8702 O 819.498 -1.85674 3.03979 0
M  V30 8703 O 818.357 -3.06015 4.52788 0
M  V30 8704 H 815.451 -0.492109 0.664649 0
M  V30 8705 H 817.997 -0.309374 1.66856 0
M  V30 8706 H 816.769 -1.03743 3.77297 0
M  V30 8707 H 816.392 -2.58061 3.02473 0
M  V30 8708 N 817.389 -1.46805 -0.573248 0
M  V30 8709 C 818.352 -1.57655 -1.66366 0
M  V30 8710 C 819.352 -0.452905 -1.5429 0
M  V30 8711 O 820.542 -0.717502 -1.58737 0
M  V30 8712 C 817.674 -1.50584 -3.05839 0
M  V30 8713 H 818.867 -2.54842 -1.581 0
M  V30 8714 H 816.42 -1.34756 -0.791868 0
M  V30 8715 H 817.155 -0.547127 -3.19651 0
M  V30 8716 H 816.94 -2.32118 -3.16012 0
M  V30 8717 H 818.43 -1.61282 -3.85199 0
M  V30 8718 N 818.867 0.818669 -1.34668 0
M  V30 8719 C 819.799 1.93754 -1.22442 0
M  V30 8720 C 820.812 1.62103 -0.150501 0
M  V30 8721 O 822.001 1.73898 -0.402728 0
M  V30 8722 C 819.101 3.27806 -0.860031 0
M  V30 8723 C 818.274 3.8745 -2.02981 0
M  V30 8724 C 817.333 4.99887 -1.64314 0
M  V30 8725 O 816.359 5.17957 -2.36029 0
M  V30 8726 N 817.561 5.77795 -0.55976 0
M  V30 8727 H 820.326 2.04773 -2.18833 0
M  V30 8728 H 817.887 0.995472 -1.27679 0
M  V30 8729 H 819.879 4.00478 -0.583068 0
M  V30 8730 H 818.449 3.12597 0.0138253 0
M  V30 8731 H 817.669 3.07119 -2.47127 0
M  V30 8732 H 818.957 4.2403 -2.81204 0
M  V30 8733 H 818.355 5.65688 0.0363329 0
M  V30 8734 H 816.912 6.50899 -0.342541 0
M  V30 8735 N 820.346 1.18468 1.03938 0
M  V30 8736 C 821.293 0.912859 2.1198 0
M  V30 8737 C 822.263 -0.14824 1.65437 0
M  V30 8738 O 823.448 -0.008331 1.90798 0
M  V30 8739 C 820.588 0.446114 3.42204 0
M  V30 8740 C 819.701 1.57278 4.02353 0
M  V30 8741 C 818.836 1.05863 5.20544 0
M  V30 8742 C 817.875 2.1599 5.72726 0
M  V30 8743 N 817.012 1.65959 6.82204 0
M  V30 8744 H 821.852 1.83798 2.34569 0
M  V30 8745 H 819.389 0.916504 1.15059 0
M  V30 8746 H 821.347 0.15697 4.16905 0
M  V30 8747 H 819.977 -0.442025 3.19759 0
M  V30 8748 H 819.029 1.97737 3.24968 0
M  V30 8749 H 820.341 2.40289 4.37107 0
M  V30 8750 H 819.495 0.724087 6.02364 0
M  V30 8751 H 818.234 0.198116 4.87297 0
M  V30 8752 H 817.239 2.50287 4.89527 0
M  V30 8753 H 818.464 3.02479 6.08016 0
M  V30 8754 H 816.41 0.82199 6.5083 0
M  V30 8755 H 816.327 2.42567 7.16029 0
M  V30 8756 H 817.595 1.35436 7.67644 0
M  V30 8757 N 821.824 -1.22873 0.986916 0
M  V30 8758 C 823.052 -1.95487 0.677663 0
M  V30 8759 C 823.467 -1.72978 -0.756572 0
M  V30 8760 O 822.824 -1.02517 -1.50985 0
M  V30 8761 C 822.875 -3.48337 0.966638 0
M  V30 8762 O 822.596 -3.70087 2.34451 0
M  V30 8763 C 824.097 -4.38142 0.674248 0
M  V30 8764 H 821.317 -0.622211 0.251185 0
M  V30 8765 H 823.861 -1.56187 1.32007 0
M  V30 8766 H 822.016 -3.85628 0.370137 0
M  V30 8767 H 822.43 -4.64332 2.43918 0
M  V30 8768 H 823.904 -5.44165 0.926759 0
M  V30 8769 H 824.381 -4.3745 -0.391728 0
M  V30 8770 H 824.987 -4.06469 1.25152 0
M  V30 8771 N 823.302 -0.75937 -1.38099 0
M  V30 8772 C 824.232 -0.151077 -2.33011 0
M  V30 8773 C 825.213 0.697099 -1.5516 0
M  V30 8774 O 826.398 0.637101 -1.83452 0
M  V30 8775 C 823.528 0.738423 -3.39359 0
M  V30 8776 C 822.482 -0.0074741 -4.27999 0
M  V30 8777 C 821.808 1.00066 -5.25253 0
M  V30 8778 C 823.108 -1.17926 -5.08813 0
M  V30 8779 H 824.802 -0.943933 -2.84131 0
M  V30 8780 H 822.348 -0.455362 -1.36611 0
M  V30 8781 H 824.301 1.17369 -4.04725 0
M  V30 8782 H 823.025 1.56366 -2.86735 0
M  V30 8783 H 821.684 -0.423379 -3.64147 0
M  V30 8784 H 821.332 1.82012 -4.68914 0
M  V30 8785 H 821.032 0.506199 -5.85416 0
M  V30 8786 H 822.556 1.43512 -5.93495 0
M  V30 8787 H 823.97 -0.821262 -5.67387 0
M  V30 8788 H 822.367 -1.60497 -5.78239 0
M  V30 8789 H 823.437 -1.98938 -4.42212 0
M  V30 8790 N 824.78 1.49157 -0.508906 0
M  V30 8791 C 825.712 2.272 0.302115 0
M  V30 8792 C 826.725 1.3407 0.923529 0
M  V30 8793 O 827.914 1.5929 0.805532 0
M  V30 8794 C 825.014 3.06736 1.44105 0
M  V30 8795 C 824.187 4.27497 0.925477 0
M  V30 8796 C 823.246 4.89014 1.94297 0
M  V30 8797 O 822.272 5.48851 1.50834 0
M  V30 8798 N 823.474 4.7937 3.2739 0
M  V30 8799 H 826.239 2.97443 -0.367115 0
M  V30 8800 H 823.8 1.58248 -0.341933 0
M  V30 8801 H 825.792 3.44763 2.11944 0
M  V30 8802 H 824.362 2.3905 2.0143 0
M  V30 8803 H 823.582 3.94135 0.0717301 0
M  V30 8804 H 824.87 5.05714 0.55955 0
M  V30 8805 H 824.268 4.31869 3.65384 0
M  V30 8806 H 822.825 5.21559 3.90922 0
M  V30 8807 N 826.258 0.243083 1.55714 0
M  V30 8808 C 827.221 -0.644723 2.19945 0
M  V30 8809 C 828.221 -1.10562 1.16759 0
M  V30 8810 O 829.411 -1.01095 1.41865 0
M  V30 8811 C 826.543 -1.88569 2.83997 0
M  V30 8812 H 827.736 -0.0843839 2.99781 0
M  V30 8813 H 825.289 -0.00647246 1.56299 0
M  V30 8814 H 826.024 -2.48736 2.08089 0
M  V30 8815 H 825.809 -1.56345 3.59581 0
M  V30 8816 H 827.299 -2.51774 3.33166 0
M  V30 8817 N 827.736 -1.57571 -0.0300757 0
M  V30 8818 C 828.666 -2.0953 -1.03051 0
M  V30 8819 C 829.647 -0.99761 -1.37774 0
M  V30 8820 O 830.832 -1.27279 -1.46676 0
M  V30 8821 C 827.962 -2.57385 -2.33174 0
M  V30 8822 C 826.916 -3.71409 -2.12696 0
M  V30 8823 C 826.242 -4.05467 -3.4857 0
M  V30 8824 C 827.542 -4.99877 -1.51396 0
M  V30 8825 H 829.236 -2.93367 -0.597999 0
M  V30 8826 H 826.782 -1.41127 -0.286203 0
M  V30 8827 H 828.735 -2.92355 -3.03491 0
M  V30 8828 H 827.459 -1.70629 -2.78484 0
M  V30 8829 H 826.118 -3.36786 -1.44813 0
M  V30 8830 H 825.766 -3.15779 -3.91526 0
M  V30 8831 H 825.466 -4.82269 -3.35694 0
M  V30 8832 H 826.99 -4.4297 -4.2025 0
M  V30 8833 H 828.404 -5.3281 -2.11629 0
M  V30 8834 H 826.801 -5.81283 -1.49098 0
M  V30 8835 H 827.871 -4.82522 -0.479676 0
M  V30 8836 N 829.214 0.302327 -1.54673 0
M  V30 8837 C 830.146 1.39443 -1.81902 0
M  V30 8838 C 831.159 1.46891 -0.701914 0
M  V30 8839 O 832.348 1.49233 -0.979369 0
M  V30 8840 C 829.448 2.77824 -1.9408 0
M  V30 8841 C 828.621 2.93324 -3.24468 0
M  V30 8842 C 827.68 4.12196 -3.27079 0
M  V30 8843 O 826.706 4.04344 -4.00617 0
M  V30 8844 N 827.908 5.22768 -2.52376 0
M  V30 8845 H 830.673 1.1644 -2.76155 0
M  V30 8846 H 828.234 0.492392 -1.54231 0
M  V30 8847 H 830.226 3.5559 -1.9323 0
M  V30 8848 H 828.796 2.9378 -1.06828 0
M  V30 8849 H 828.016 2.02682 -3.38103 0
M  V30 8850 H 829.304 3.0059 -4.10516 0
M  V30 8851 H 828.702 5.32027 -1.92259 0
M  V30 8852 H 827.259 5.98874 -2.57281 0
M  V30 8853 N 830.692 1.47107 0.565454 0
M  V30 8854 C 831.941 1.5257 1.31929 0
M  V30 8855 C 832.254 0.189092 1.94684 0
M  V30 8856 O 833.46 0.121657 2.71227 0
M  V30 8857 C 831.916 2.68914 2.39193 0
M  V30 8858 C 831.524 4.09069 1.82665 0
M  V30 8859 C 833.268 2.83663 3.1581 0
M  V30 8860 C 831.175 5.16726 2.87661 0
M  V30 8861 H 830.105 0.567869 0.496025 0
M  V30 8862 H 832.756 1.73361 0.60151 0
M  V30 8863 H 831.138 2.41486 3.13848 0
M  V30 8864 H 832.312 4.46364 1.14438 0
M  V30 8865 H 830.627 3.99135 1.1866 0
M  V30 8866 H 833.224 3.61261 3.94201 0
M  V30 8867 H 833.567 1.91804 3.69482 0
M  V30 8868 H 834.1 3.10821 2.48265 0
M  V30 8869 H 830.839 6.10433 2.38854 0
M  V30 8870 H 830.359 4.83957 3.54324 0
M  V30 8871 H 832.038 5.43319 3.51303 0
M  V30 8872 N 832.17 -0.811516 1.35101 0
M  V30 8873 C 833.581 -1.38515 1.25182 0
M  V30 8874 C 833.932 -1.95846 -0.117883 0
M  V30 8875 O 833.057 -1.90925 -1.01866 0
M  V30 8876 C 833.652 -2.51813 2.26662 0
M  V30 8877 C 832.211 -3.05052 2.20499 0
M  V30 8878 C 831.358 -1.77987 2.12641 0
M  V30 8879 H 834.309 -0.614959 1.46301 0
M  V30 8880 H 834.33 -3.30228 1.89023 0
M  V30 8881 H 833.842 -2.10057 3.2634 0
M  V30 8882 H 831.943 -3.51285 1.24215 0
M  V30 8883 H 832.056 -3.63368 3.1225 0
M  V30 8884 H 830.42 -1.99342 1.5854 0
M  V30 8885 H 831.203 -1.38389 3.14171 0
M  V30 8886 N 833.648 -1.19017 -1.03309 0
M  V30 8887 C 834.611 -0.926076 -2.09658 0
M  V30 8888 C 835.611 0.0917077 -1.60538 0
M  V30 8889 O 836.801 -0.142574 -1.73616 0
M  V30 8890 C 833.933 -0.390958 -3.38651 0
M  V30 8891 H 835.126 -1.86923 -2.3452 0
M  V30 8892 H 832.679 -1.00325 -1.19853 0
M  V30 8893 H 833.414 0.558446 -3.19456 0
M  V30 8894 H 833.199 -1.12474 -3.75622 0
M  V30 8895 H 834.689 -0.225131 -4.16993 0
M  V30 8896 N 835.127 1.22348 -0.993418 0
M  V30 8897 C 836.09 2.22522 -0.549251 0
M  V30 8898 C 837.09 1.56529 0.368164 0
M  V30 8899 O 838.28 1.73463 0.16005 0
M  V30 8900 C 835.412 3.40307 0.201037 0
M  V30 8901 H 836.605 2.63332 -1.43515 0
M  V30 8902 H 834.158 1.35407 -0.78068 0
M  V30 8903 H 834.893 3.0497 1.10289 0
M  V30 8904 H 834.678 3.8942 -0.457685 0
M  V30 8905 H 836.168 4.14597 0.499946 0
M  V30 8906 N 836.605 0.766683 1.37694 0
M  V30 8907 C 837.552 0.147725 2.30327 0
M  V30 8908 C 838.522 -0.695366 1.50844 0
M  V30 8909 O 839.707 -0.64878 1.79431 0
M  V30 8910 C 836.847 -0.72935 3.37305 0
M  V30 8911 C 835.96 0.129795 4.31805 0
M  V30 8912 C 835.095 -0.751511 5.25857 0
M  V30 8913 C 834.134 0.110475 6.12 0
M  V30 8914 N 833.271 -0.728522 6.9831 0
M  V30 8915 H 838.111 0.943204 2.82679 0
M  V30 8916 H 835.648 0.476736 1.3916 0
M  V30 8917 H 837.606 -1.25263 3.97951 0
M  V30 8918 H 836.236 -1.49048 2.86329 0
M  V30 8919 H 835.288 0.770829 3.72508 0
M  V30 8920 H 836.6 0.794923 4.92425 0
M  V30 8921 H 835.754 -1.34146 5.91684 0
M  V30 8922 H 834.493 -1.45034 4.65636 0
M  V30 8923 H 833.498 0.712999 5.45157 0
M  V30 8924 H 834.723 0.806557 6.74293 0
M  V30 8925 H 832.669 -1.41206 6.40622 0
M  V30 8926 H 832.586 -0.12058 7.55904 0
M  V30 8927 H 833.854 -1.30303 7.68532 0
M  V30 8928 N 838.083 -1.48885 0.516809 0
M  V30 8929 C 839.013 -2.32241 -0.242157 0
M  V30 8930 C 839.994 -1.41258 -0.947633 0
M  V30 8931 O 841.179 -1.70156 -0.935973 0
M  V30 8932 C 838.309 -3.22151 -1.29754 0
M  V30 8933 C 837.263 -4.22053 -0.710995 0
M  V30 8934 C 836.589 -5.01007 -1.86806 0
M  V30 8935 C 837.889 -5.21388 0.30853 0
M  V30 8936 H 839.583 -2.95943 0.453651 0
M  V30 8937 H 837.129 -1.42316 0.219612 0
M  V30 8938 H 839.082 -3.79284 -1.83634 0
M  V30 8939 H 837.806 -2.56423 -2.02274 0
M  V30 8940 H 836.465 -3.66087 -0.193819 0
M  V30 8941 H 836.113 -4.31713 -2.58133 0
M  V30 8942 H 835.813 -5.68615 -1.48159 0
M  V30 8943 H 837.337 -5.60989 -2.4109 0
M  V30 8944 H 838.751 -5.73122 -0.142703 0
M  V30 8945 H 837.148 -5.96975 0.611673 0
M  V30 8946 H 838.218 -4.69329 1.21894 0
M  V30 8947 N 839.561 -0.251338 -1.55583 0
M  V30 8948 C 840.471 0.656978 -2.25213 0
M  V30 8949 C 841.487 1.18966 -1.26977 0
M  V30 8950 O 842.663 1.22499 -1.59862 0
M  V30 8951 C 839.728 1.83527 -2.94141 0
M  V30 8952 C 838.789 1.34162 -4.07798 0
M  V30 8953 C 838.022 2.46375 -4.73429 0
M  V30 8954 O 838.245 3.65205 -4.38157 0
M  V30 8955 O 837.179 2.15881 -5.61853 0
M  V30 8956 H 841.005 0.0936395 -3.03556 0
M  V30 8957 H 838.59 -0.0196638 -1.49387 0
M  V30 8958 H 840.472 2.52279 -3.3754 0
M  V30 8959 H 839.147 2.38614 -2.18735 0
M  V30 8960 H 838.054 0.621249 -3.68906 0
M  V30 8961 H 839.387 0.836779 -4.85035 0
M  V30 8962 N 841.039 1.57585 0.0217189 0
M  V30 8963 C 842.287 1.89231 0.709641 0
M  V30 8964 C 842.608 0.849964 1.75501 0
M  V30 8965 O 841.878 -0.115485 1.95559 0
M  V30 8966 H 840.458 0.69838 0.265092 0
M  V30 8967 H 843.12 1.94895 -0.0140688 0
M  V30 8968 H 842.216 2.88333 1.19459 0
M  V30 8969 N 842.517 -0.29412 1.54831 0
M  V30 8970 C 843.763 -1.02999 1.74697 0
M  V30 8971 C 844.096 -1.86687 0.534949 0
M  V30 8972 O 843.371 -1.88789 -0.467863 0
M  V30 8973 C 843.654 -1.93024 3.03996 0
M  V30 8974 C 843.507 -1.1247 4.35512 0
M  V30 8975 C 844.826 -2.92085 3.29203 0
M  V30 8976 H 841.945 -0.373039 0.635618 0
M  V30 8977 H 844.587 -0.304065 1.87551 0
M  V30 8978 H 842.737 -2.5492 2.93169 0
M  V30 8979 H 844.409 -0.528067 4.58268 0
M  V30 8980 H 842.652 -0.427574 4.31688 0
M  V30 8981 H 843.323 -1.78728 5.22265 0
M  V30 8982 H 845.799 -2.40319 3.39685 0
M  V30 8983 H 844.675 -3.52234 4.20978 0
M  V30 8984 H 844.936 -3.66107 2.47827 0
M  V30 8985 N 843.995 -1.47404 -0.557645 0
M  V30 8986 C 844.925 -1.62736 -1.67449 0
M  V30 8987 C 845.906 -0.476824 -1.6328 0
M  V30 8988 O 847.091 -0.706108 -1.80908 0
M  V30 8989 C 844.221 -1.641 -3.06086 0
M  V30 8990 C 843.175 -2.78377 -3.25101 0
M  V30 8991 C 842.501 -2.64812 -4.6452 0
M  V30 8992 C 843.801 -4.19971 -3.10518 0
M  V30 8993 H 845.495 -2.56232 -1.54873 0
M  V30 8994 H 843.041 -1.23312 -0.743649 0
M  V30 8995 H 844.994 -1.73417 -3.84063 0
M  V30 8996 H 843.718 -0.671652 -3.19619 0
M  V30 8997 H 842.377 -2.6857 -2.49531 0
M  V30 8998 H 842.025 -1.65906 -4.74852 0
M  V30 8999 H 841.725 -3.41477 -4.78191 0
M  V30 9000 H 843.249 -2.76057 -5.44633 0
M  V30 9001 H 844.663 -4.30757 -3.78313 0
M  V30 9002 H 843.06 -4.97419 -3.35699 0
M  V30 9003 H 844.13 -4.38369 -2.0727 0
M  V30 9004 N 845.473 0.80434 -1.35529 0
M  V30 9005 C 846.436 1.89788 -1.28503 0
M  V30 9006 C 847.436 1.59601 -0.195983 0
M  V30 9007 O 848.626 1.68292 -0.449827 0
M  V30 9008 C 845.758 3.26255 -0.98847 0
M  V30 9009 H 846.951 1.97436 -2.25741 0
M  V30 9010 H 844.504 1.00046 -1.20086 0
M  V30 9011 H 845.239 3.24294 -0.0200541 0
M  V30 9012 H 845.024 3.49551 -1.77641 0
M  V30 9013 H 846.514 4.06298 -0.964975 0
M  V30 9014 N 846.951 1.19563 1.02676 0
M  V30 9015 C 847.861 0.950691 2.14474 0
M  V30 9016 C 848.877 -0.0900219 1.73767 0
M  V30 9017 O 850.053 0.0951063 2.01175 0
M  V30 9018 C 847.118 0.494917 3.43149 0
M  V30 9019 C 846.179 1.60527 3.98158 0
M  V30 9020 C 845.412 1.17115 5.20692 0
M  V30 9021 O 845.635 0.0355937 5.70389 0
M  V30 9022 O 844.569 1.97454 5.68591 0
M  V30 9023 H 848.395 1.88651 2.38001 0
M  V30 9024 H 845.98 0.978635 1.12885 0
M  V30 9025 H 847.862 0.249492 4.20661 0
M  V30 9026 H 846.537 -0.412434 3.21062 0
M  V30 9027 H 845.444 1.90487 3.21971 0
M  V30 9028 H 846.777 2.48925 4.24614 0
M  V30 9029 N 848.429 -1.21819 0.999893 0
M  V30 9030 C 849.675 -1.91035 0.680701 0
M  V30 9031 C 850.008 -1.77582 -0.786021 0
M  V30 9032 O 849.283 -1.14917 -1.56921 0
M  V30 9033 C 849.566 -3.43013 1.0961 0
M  V30 9034 C 849.419 -3.65481 2.6219 0
M  V30 9035 C 850.738 -4.35204 0.654616 0
M  V30 9036 H 847.857 -0.693748 0.248763 0
M  V30 9037 H 850.499 -1.43555 1.24466 0
M  V30 9038 H 848.649 -3.83581 0.616253 0
M  V30 9039 H 850.321 -3.34273 3.17899 0
M  V30 9040 H 848.564 -3.09522 3.03938 0
M  V30 9041 H 849.235 -4.71945 2.86307 0
M  V30 9042 H 851.711 -4.0219 1.06688 0
M  V30 9043 H 850.587 -5.40198 0.973492 0
M  V30 9044 H 850.848 -4.3986 -0.444458 0
M  V30 9045 N 849.908 -0.773975 -1.37286 0
M  V30 9046 C 850.871 -0.167974 -2.28584 0
M  V30 9047 C 851.871 0.625662 -1.48129 0
M  V30 9048 O 853.061 0.448924 -1.68316 0
M  V30 9049 C 850.193 0.769364 -3.32105 0
M  V30 9050 H 851.386 -0.972806 -2.83684 0
M  V30 9051 H 848.939 -0.542335 -1.46589 0
M  V30 9052 H 849.674 1.59912 -2.82132 0
M  V30 9053 H 849.459 0.202419 -3.91577 0
M  V30 9054 H 850.949 1.18872 -4.00324 0
M  V30 9055 N 851.386 1.48609 -0.524698 0
M  V30 9056 C 852.318 2.27508 0.278 0
M  V30 9057 C 853.331 1.35042 0.909258 0
M  V30 9058 O 854.52 1.60136 0.788592 0
M  V30 9059 C 851.62 3.08247 1.40843 0
M  V30 9060 C 850.793 4.28455 0.880083 0
M  V30 9061 C 849.852 4.91048 1.891 0
M  V30 9062 O 848.878 5.5042 1.45005 0
M  V30 9063 N 850.08 4.82816 3.22288 0
M  V30 9064 H 852.845 2.97037 -0.398642 0
M  V30 9065 H 850.406 1.57876 -0.358698 0
M  V30 9066 H 852.398 3.46992 2.08276 0
M  V30 9067 H 850.968 2.41173 1.98883 0
M  V30 9068 H 850.188 3.94189 0.0299228 0
M  V30 9069 H 851.476 5.06279 0.505881 0
M  V30 9070 H 850.874 4.3572 3.60783 0
M  V30 9071 H 849.431 5.25676 3.85368 0
M  V30 9072 N 852.864 0.259585 1.55447 0
M  V30 9073 C 853.814 -0.648769 2.18575 0
M  V30 9074 C 854.798 -1.1299 1.14552 0
M  V30 9075 O 855.99 -1.07756 1.4042 0
M  V30 9076 C 853.119 -1.83963 2.89849 0
M  V30 9077 C 852.205 -1.37641 4.01143 0
M  V30 9078 N 852.596 -0.628269 5.01883 0
M  V30 9079 C 850.894 -1.66066 4.1393 0
M  V30 9080 C 851.595 -0.386746 5.80413 0
M  V30 9081 N 850.571 -0.954665 5.35151 0
M  V30 9082 H 854.373 -0.0691616 2.93819 0
M  V30 9083 H 851.887 0.0624525 1.6228 0
M  V30 9084 H 853.884 -2.50151 3.33512 0
M  V30 9085 H 852.544 -2.42334 2.16112 0
M  V30 9086 H 853.555 -0.277123 5.17158 0
M  V30 9087 H 850.232 -2.25484 3.51373 0
M  V30 9088 H 851.622 0.211382 6.71567 0
M  V30 9089 N 854.342 -1.57594 -0.0133615 0
M  V30 9090 C 855.572 -1.93969 -0.711295 0
M  V30 9091 C 855.98 -0.859084 -1.68572 0
M  V30 9092 O 855.323 0.171842 -1.82894 0
M  V30 9093 C 855.385 -3.2625 -1.51001 0
M  V30 9094 C 855.049 -4.51628 -0.698645 0
M  V30 9095 C 856.046 -5.19899 0.00791185 0
M  V30 9096 C 853.731 -4.98095 -0.648553 0
M  V30 9097 C 855.725 -6.32928 0.753691 0
M  V30 9098 C 853.412 -6.11017 0.10096 0
M  V30 9099 C 854.41 -6.78289 0.800828 0
M  V30 9100 O 854.098 -7.89048 1.53814 0
M  V30 9101 H 853.83 -0.6445 -0.203951 0
M  V30 9102 H 856.384 -2.05378 0.0298267 0
M  V30 9103 H 854.614 -3.11211 -2.29531 0
M  V30 9104 H 856.303 -3.47835 -2.09202 0
M  V30 9105 H 857.069 -4.84995 -0.0217192 0
M  V30 9106 H 852.948 -4.45568 -1.18282 0
M  V30 9107 H 856.492 -6.85371 1.3005 0
M  V30 9108 H 852.389 -6.45364 0.132459 0
M  V30 9109 H 853.157 -8.05492 1.45345 0
M  V30 9110 N 855.82 0.285905 -1.54985 0
M  V30 9111 C 856.752 1.37505 -1.83371 0
M  V30 9112 C 857.765 1.46138 -0.717454 0
M  V30 9113 O 858.954 1.48186 -0.995142 0
M  V30 9114 C 856.054 2.7575 -1.97016 0
M  V30 9115 C 855.227 2.89866 -3.27561 0
M  V30 9116 C 854.286 4.08704 -3.31433 0
M  V30 9117 O 853.312 4.00073 -4.04883 0
M  V30 9118 N 854.514 5.20062 -2.57907 0
M  V30 9119 H 857.279 1.13505 -2.77375 0
M  V30 9120 H 854.84 0.476006 -1.54744 0
M  V30 9121 H 856.832 3.5352 -1.96991 0
M  V30 9122 H 855.402 2.9263 -1.09938 0
M  V30 9123 H 854.622 1.99085 -3.40234 0
M  V30 9124 H 855.91 2.96219 -4.13681 0
M  V30 9125 H 855.308 5.29958 -1.97891 0
M  V30 9126 H 853.865 5.96111 -2.63619 0
M  V30 9127 N 857.298 1.47698 0.54982 0
M  V30 9128 C 858.575 1.45185 1.31075 0
M  V30 9129 C 858.955 0.152768 2.10547 0
M  V30 9130 O 858.303 -0.865706 2.11466 0
M  V30 9131 C 858.513 2.70192 2.20902 0
M  V30 9132 C 859.861 3.1771 2.81683 0
M  V30 9133 O 860.885 2.70971 2.312 0
M  V30 9134 O 859.744 3.98986 3.7346 0
M  V30 9135 H 856.838 0.57892 0.590577 0
M  V30 9136 H 859.384 1.59908 0.568112 0
M  V30 9137 H 858.156 3.56269 1.61828 0
M  V30 9138 H 857.779 2.58091 3.02448 0
M  V30 9139 N 858.776 -0.797141 1.35954 0
M  V30 9140 C 860.004 -1.5858 1.32891 0
M  V30 9141 C 860.419 -1.88578 -0.0915564 0
M  V30 9142 O 859.776 -1.49532 -1.04625 0
M  V30 9143 C 859.827 -2.91143 2.14284 0
M  V30 9144 O 859.548 -2.62442 3.50793 0
M  V30 9145 C 861.049 -3.85476 2.18914 0
M  V30 9146 H 858.269 -0.492111 0.456144 0
M  V30 9147 H 860.813 -0.98994 1.78943 0
M  V30 9148 H 858.968 -3.47219 1.71807 0
M  V30 9149 H 859.382 -3.4715 3.93175 0
M  V30 9150 H 860.856 -4.75574 2.80238 0
M  V30 9151 H 861.333 -4.22758 1.19047 0
M  V30 9152 H 861.939 -3.35334 2.61593 0
M  V30 9153 N 860.254 -1.20106 -1.0204 0
M  V30 9154 C 861.184 -0.970301 -2.12385 0
M  V30 9155 C 862.165 0.099378 -1.69809 0
M  V30 9156 O 863.35 -0.057365 -1.94115 0
M  V30 9157 C 860.48 -0.517431 -3.43424 0
M  V30 9158 C 859.434 -1.52992 -3.99722 0
M  V30 9159 C 858.76 -0.933817 -5.26483 0
M  V30 9160 C 860.06 -2.91257 -4.33551 0
M  V30 9161 H 861.754 -1.89316 -2.31948 0
M  V30 9162 H 859.3 -0.911655 -1.11467 0
M  V30 9163 H 861.253 -0.343243 -4.2 0
M  V30 9164 H 859.977 0.441049 -3.23608 0
M  V30 9165 H 858.636 -1.6914 -3.2525 0
M  V30 9166 H 858.284 0.0324763 -5.0299 0
M  V30 9167 H 857.984 -1.60999 -5.65113 0
M  V30 9168 H 859.508 -0.770614 -6.05718 0
M  V30 9169 H 860.922 -2.78642 -5.0103 0
M  V30 9170 H 859.319 -3.55745 -4.83286 0
M  V30 9171 H 860.389 -3.43269 -3.42483 0
M  V30 9172 N 861.732 1.21287 -1.00634 0
M  V30 9173 C 862.981 1.89706 -0.685178 0
M  V30 9174 C 863.294 1.79044 0.787566 0
M  V30 9175 O 864.5 2.42502 1.22086 0
M  V30 9176 C 862.956 3.40176 -1.17508 0
M  V30 9177 C 862.564 3.59446 -2.674 0
M  V30 9178 C 864.308 4.14213 -0.928869 0
M  V30 9179 C 862.215 5.03688 -3.09923 0
M  V30 9180 H 861.145 0.710434 -0.252586 0
M  V30 9181 H 863.796 1.37277 -1.21768 0
M  V30 9182 H 862.178 3.91867 -0.570622 0
M  V30 9183 H 863.352 3.18188 -3.33306 0
M  V30 9184 H 861.667 2.98764 -2.9005 0
M  V30 9185 H 864.264 5.20546 -1.22212 0
M  V30 9186 H 864.607 4.16082 0.134859 0
M  V30 9187 H 865.14 3.68591 -1.49619 0
M  V30 9188 H 861.879 5.06968 -4.15529 0
M  V30 9189 H 861.399 5.45796 -2.4873 0
M  V30 9190 H 863.078 5.72204 -3.0198 0
M  V30 9191 N 863.21 0.781244 1.36873 0
M  V30 9192 C 864.626 0.461968 1.52768 0
M  V30 9193 C 864.826 -1.02099 1.73719 0
M  V30 9194 O 863.882 -1.80665 1.76399 0
M  V30 9195 C 865.195 1.2853 2.71846 0
M  V30 9196 C 866.743 1.27817 2.85713 0
M  V30 9197 C 867.218 2.08506 4.07786 0
M  V30 9198 N 868.709 2.05909 4.14917 0
M  V30 9199 C 869.444 2.65118 5.08429 0
M  V30 9200 N 868.94 3.33152 6.07438 0
M  V30 9201 N 870.733 2.54896 5.00983 0
M  V30 9202 H 862.884 1.74198 1.21527 0
M  V30 9203 H 865.147 0.740027 0.592506 0
M  V30 9204 H 864.853 2.3366 2.62861 0
M  V30 9205 H 864.727 0.920981 3.65784 0
M  V30 9206 H 867.114 0.234817 2.94164 0
M  V30 9207 H 867.195 1.68219 1.92707 0
M  V30 9208 H 866.839 3.12867 4.00096 0
M  V30 9209 H 866.769 1.65479 4.99924 0
M  V30 9210 H 869.26 1.56386 3.44023 0
M  V30 9211 H 869.573 3.75681 6.75339 0
M  V30 9212 H 867.918 3.37253 6.07689 0
M  V30 9213 H 871.109 2.01352 4.22581 0
M  V30 9214 H 871.282 3.01332 5.73675 0
M  V30 9215 N 864.689 -1.48329 0.532571 0
M  V30 9216 C 865.652 -2.2816 -0.218069 0
M  V30 9217 C 866.652 -1.35526 -0.865409 0
M  V30 9218 O 867.842 -1.58394 -0.725061 0
M  V30 9219 C 864.974 -3.1448 -1.31586 0
M  V30 9220 H 866.167 -2.95987 0.482865 0
M  V30 9221 H 863.72 -1.53612 0.288603 0
M  V30 9222 H 864.455 -2.5129 -2.04997 0
M  V30 9223 H 864.24 -3.82625 -0.856779 0
M  V30 9224 H 865.73 -3.74693 -1.84377 0
M  V30 9225 N 866.167 -0.267825 -1.55308 0
M  V30 9226 C 867.114 0.6228 -2.22238 0
M  V30 9227 C 868.084 1.15536 -1.19334 0
M  V30 9228 O 869.269 1.206 -1.47852 0
M  V30 9229 C 866.409 1.80447 -2.94164 0
M  V30 9230 C 865.522 1.30646 -4.11771 0
M  V30 9231 C 864.657 2.44935 -4.7136 0
M  V30 9232 C 863.696 1.92099 -5.81175 0
M  V30 9233 N 862.833 2.99834 -6.34857 0
M  V30 9234 H 867.673 0.0453874 -2.97965 0
M  V30 9235 H 865.21 0.0106371 -1.47096 0
M  V30 9236 H 867.168 2.49896 -3.34078 0
M  V30 9237 H 865.798 2.35403 -2.20874 0
M  V30 9238 H 864.85 0.505314 -3.77029 0
M  V30 9239 H 866.162 0.879409 -4.90987 0
M  V30 9240 H 865.316 3.2239 -5.13955 0
M  V30 9241 H 864.055 2.90951 -3.91406 0
M  V30 9242 H 863.06 1.13122 -5.38037 0
M  V30 9243 H 864.285 1.47027 -6.62993 0
M  V30 9244 H 862.231 3.45246 -5.578 0
M  V30 9245 H 862.148 2.61524 -7.09324 0
M  V30 9246 H 863.416 3.77286 -6.82111 0
M  V30 9247 N 867.645 1.57599 0.00500368 0
M  V30 9248 C 869.061 1.55463 0.361015 0
M  V30 9249 C 869.261 0.997051 1.75103 0
M  V30 9250 O 868.317 0.628661 2.44549 0
M  V30 9251 C 869.63 2.99734 0.240828 0
M  V30 9252 C 871.178 3.11399 0.316138 0
M  V30 9253 C 871.653 4.57446 0.22513 0
M  V30 9254 N 873.144 4.62334 0.283186 0
M  V30 9255 C 873.879 5.72914 0.23603 0
M  V30 9256 N 873.375 6.92659 0.139762 0
M  V30 9257 N 875.168 5.61364 0.287529 0
M  V30 9258 H 867.319 1.92185 -0.904359 0
M  V30 9259 H 869.582 0.882529 -0.34619 0
M  V30 9260 H 869.288 3.44348 -0.715343 0
M  V30 9261 H 869.162 3.63009 1.02491 0
M  V30 9262 H 871.549 2.66718 1.26275 0
M  V30 9263 H 871.63 2.50911 -0.497725 0
M  V30 9264 H 871.274 5.02801 -0.717917 0
M  V30 9265 H 871.204 5.15874 1.05742 0
M  V30 9266 H 873.695 3.7619 0.359123 0
M  V30 9267 H 874.008 7.72722 0.10954 0
M  V30 9268 H 872.353 6.9492 0.105462 0
M  V30 9269 H 875.544 4.66707 0.360897 0
M  V30 9270 H 875.717 6.47528 0.247313 0
M  V30 9271 N 869.123 -0.277682 1.55134 0
M  V30 9272 C 870.033 -1.36524 1.90783 0
M  V30 9273 C 871.049 -1.54283 0.804542 0
M  V30 9274 O 872.225 -1.68499 1.10318 0
M  V30 9275 C 869.29 -2.70524 2.16835 0
M  V30 9276 C 868.351 -2.61552 3.40424 0
M  V30 9277 C 867.584 -3.89162 3.65224 0
M  V30 9278 O 867.807 -4.89624 2.92616 0
M  V30 9279 O 866.741 -3.89647 4.58758 0
M  V30 9280 H 870.567 -1.0929 2.83354 0
M  V30 9281 H 868.152 -0.475799 1.41621 0
M  V30 9282 H 870.034 -3.49765 2.35038 0
M  V30 9283 H 868.709 -2.97555 1.27448 0
M  V30 9284 H 867.616 -1.80704 3.27562 0
M  V30 9285 H 868.949 -2.39472 4.30016 0
M  V30 9286 N 870.601 -1.47988 -0.541979 0
M  V30 9287 C 871.548 -1.61615 -1.6477 0
M  V30 9288 C 872.518 -0.458602 -1.59644 0
M  V30 9289 O 873.703 -0.680585 -1.78249 0
M  V30 9290 C 870.843 -1.65066 -3.03063 0
M  V30 9291 C 869.956 -2.91845 -3.18513 0
M  V30 9292 C 869.091 -2.86534 -4.47294 0
M  V30 9293 C 868.13 -4.0807 -4.5623 0
M  V30 9294 N 867.267 -4.00905 -5.76385 0
M  V30 9295 H 872.107 -2.56046 -1.52461 0
M  V30 9296 H 869.644 -1.26989 -0.742449 0
M  V30 9297 H 871.602 -1.65049 -3.83164 0
M  V30 9298 H 870.232 -0.74136 -3.14171 0
M  V30 9299 H 869.284 -3.01661 -2.31743 0
M  V30 9300 H 870.596 -3.81804 -3.20978 0
M  V30 9301 H 869.75 -2.84851 -5.35672 0
M  V30 9302 H 868.489 -1.94283 -4.47332 0
M  V30 9303 H 867.494 -4.10041 -3.66261 0
M  V30 9304 H 868.719 -5.01465 -4.5794 0
M  V30 9305 H 866.665 -3.11467 -5.77342 0
M  V30 9306 H 866.582 -4.84557 -5.80293 0
M  V30 9307 H 867.85 -4.03263 -6.67083 0
M  V30 9308 N 872.079 0.78992 -1.36375 0
M  V30 9309 C 873.042 1.88414 -1.30509 0
M  V30 9310 C 874.042 1.59384 -0.2129 0
M  V30 9311 O 875.232 1.67805 -0.467651 0
M  V30 9312 C 872.364 3.25188 -1.02302 0
M  V30 9313 H 873.557 1.95031 -2.27822 0
M  V30 9314 H 871.11 0.987664 -1.2114 0
M  V30 9315 H 871.845 3.24254 -0.0544486 0
M  V30 9316 H 871.63 3.47647 -1.81338 0
M  V30 9317 H 873.12 4.05252 -1.00801 0
M  V30 9318 N 873.557 1.20646 1.01402 0
M  V30 9319 C 874.489 0.915392 2.10127 0
M  V30 9320 C 875.502 -0.0978705 1.62506 0
M  V30 9321 O 876.691 0.133477 1.78 0
M  V30 9322 C 873.791 0.351304 3.37074 0
M  V30 9323 C 872.964 1.41673 4.13821 0
M  V30 9324 C 872.023 0.8635 5.19067 0
M  V30 9325 O 871.049 1.54481 5.47836 0
M  V30 9326 N 872.251 -0.325799 5.79585 0
M  V30 9327 H 875.016 1.85132 2.35682 0
M  V30 9328 H 872.577 1.11048 1.17813 0
M  V30 9329 H 874.569 -0.032996 4.04687 0
M  V30 9330 H 873.139 -0.489242 3.08748 0
M  V30 9331 H 872.359 1.97526 3.41141 0
M  V30 9332 H 873.647 2.1342 4.61876 0
M  V30 9333 H 873.045 -0.896534 5.58551 0
M  V30 9334 H 871.602 -0.651708 6.48534 0
M  V30 9335 N 875.035 -1.20752 1.01276 0
M  V30 9336 C 875.945 -2.27079 0.589277 0
M  V30 9337 C 876.961 -1.6999 -0.371389 0
M  V30 9338 O 878.137 -2.00044 -0.233294 0
M  V30 9339 C 875.202 -3.4663 -0.0696715 0
M  V30 9340 C 874.263 -4.18962 0.936454 0
M  V30 9341 C 873.496 -5.32806 0.308856 0
M  V30 9342 O 873.719 -5.63376 -0.8924 0
M  V30 9343 O 872.653 -5.93131 1.02367 0
M  V30 9344 H 876.479 -2.6551 1.47438 0
M  V30 9345 H 874.064 -1.27297 0.782045 0
M  V30 9346 H 875.946 -4.19119 -0.437873 0
M  V30 9347 H 874.621 -3.10082 -0.929029 0
M  V30 9348 H 873.528 -3.48661 1.35595 0
M  V30 9349 H 874.861 -4.59441 1.76565 0
M  V30 9350 N 876.513 -0.788492 -1.36457 0
M  V30 9351 C 877.762 -0.357052 -1.98515 0
M  V30 9352 C 878.075 1.0769 -1.63285 0
M  V30 9353 O 879.281 1.61057 -2.1857 0
M  V30 9354 C 877.737 -0.587449 -3.55073 0
M  V30 9355 C 877.345 -2.03276 -3.99228 0
M  V30 9356 C 879.089 -0.220468 -4.23927 0
M  V30 9357 C 876.996 -2.20987 -5.48561 0
M  V30 9358 H 875.926 -0.129762 -0.74275 0
M  V30 9359 H 878.577 -0.969995 -1.55767 0
M  V30 9360 H 876.959 0.0951918 -3.95886 0
M  V30 9361 H 878.133 -2.75173 -3.69617 0
M  V30 9362 H 876.448 -2.3579 -3.43208 0
M  V30 9363 H 879.045 -0.331085 -5.33674 0
M  V30 9364 H 879.388 0.831306 -4.07915 0
M  V30 9365 H 879.921 -0.856309 -3.88474 0
M  V30 9366 H 876.66 -3.24543 -5.69519 0
M  V30 9367 H 876.18 -1.53594 -5.79801 0
M  V30 9368 H 877.859 -2.01656 -6.14771 0
M  V30 9369 N 877.991 1.48044 -0.54043 0
M  V30 9370 C 878.923 2.2779 0.253854 0
M  V30 9371 C 879.936 1.35999 0.894883 0
M  V30 9372 O 881.125 1.60963 0.771563 0
M  V30 9373 C 878.225 3.09724 1.37566 0
M  V30 9374 C 877.398 4.29364 0.83459 0
M  V30 9375 C 876.457 4.93026 1.83881 0
M  V30 9376 O 875.483 5.51927 1.39159 0
M  V30 9377 N 876.685 4.86207 3.17149 0
M  V30 9378 H 879.45 2.96597 -0.430125 0
M  V30 9379 H 877.011 1.57487 -0.375423 0
M  V30 9380 H 879.003 3.49181 2.04584 0
M  V30 9381 H 877.573 2.43269 1.96314 0
M  V30 9382 H 876.793 3.94198 -0.0118878 0
M  V30 9383 H 878.081 5.06787 0.452155 0
M  V30 9384 H 877.479 4.39523 3.56141 0
M  V30 9385 H 876.036 5.29733 3.79771 0
M  V30 9386 N 879.47 0.276058 1.55163 0
M  V30 9387 C 880.747 -0.392292 1.91626 0
M  V30 9388 C 881.127 -1.73646 1.20043 0
M  V30 9389 O 880.475 -2.26139 0.327606 0
M  V30 9390 C 880.685 -0.531641 3.44927 0
M  V30 9391 C 882.033 -0.8141 4.16722 0
M  V30 9392 O 883.057 -0.616413 3.50826 0
M  V30 9393 O 881.916 -1.19224 5.33337 0
M  V30 9394 H 879.01 -0.214945 0.798579 0
M  V30 9395 H 881.556 0.32228 1.66612 0
M  V30 9396 H 880.328 0.414282 3.89101 0
M  V30 9397 H 879.951 -1.29564 3.75897 0
M  V30 9398 N 880.948 -1.576 0.00335426 0
M  V30 9399 C 881.858 -2.12067 -1.00322 0
M  V30 9400 C 882.874 -1.06672 -1.37467 0
M  V30 9401 O 884.05 -1.38592 -1.46131 0
M  V30 9402 C 881.115 -2.61593 -2.27531 0
M  V30 9403 C 880.176 -3.81602 -1.96668 0
M  V30 9404 C 879.409 -4.28756 -3.17811 0
M  V30 9405 O 879.632 -3.75222 -4.2961 0
M  V30 9406 O 878.566 -5.20877 -3.01613 0
M  V30 9407 H 882.392 -2.98299 -0.570199 0
M  V30 9408 H 879.977 -1.47835 -0.215682 0
M  V30 9409 H 881.859 -2.93631 -3.02256 0
M  V30 9410 H 880.534 -1.78457 -2.70065 0
M  V30 9411 H 879.441 -3.54531 -1.19408 0
M  V30 9412 H 880.774 -4.65822 -1.58968 0
M  V30 9413 N 882.426 0.269451 -1.5528 0
M  V30 9414 C 883.651 1.02299 -1.80415 0
M  V30 9415 C 884.076 1.7902 -0.577363 0
M  V30 9416 O 883.434 1.75018 0.473125 0
M  V30 9417 C 883.482 1.95445 -3.0304 0
M  V30 9418 O 882.586 3.04271 -2.78375 0
M  V30 9419 H 881.927 0.292289 -0.596207 0
M  V30 9420 H 884.457 0.297282 -2.02429 0
M  V30 9421 H 884.467 2.37333 -3.31869 0
M  V30 9422 H 883.142 1.39017 -3.91978 0
M  V30 9423 H 881.719 2.66673 -2.60653 0
M  V30 9424 N 883.904 1.48273 0.534124 0
M  V30 9425 C 884.867 1.6201 1.62127 0
M  V30 9426 C 885.867 0.493653 1.53035 0
M  V30 9427 O 887.057 0.759337 1.56779 0
M  V30 9428 C 884.189 1.5864 3.01739 0
M  V30 9429 H 885.382 2.58944 1.51288 0
M  V30 9430 H 882.935 1.36808 0.755861 0
M  V30 9431 H 883.67 0.631685 3.18088 0
M  V30 9432 H 883.455 2.40415 3.09747 0
M  V30 9433 H 884.945 1.71438 3.80787 0
M  V30 9434 N 885.382 -0.782676 1.36792 0
M  V30 9435 C 886.628 -1.54311 1.3159 0
M  V30 9436 C 886.961 -1.93928 -0.102696 0
M  V30 9437 O 886.236 -1.63233 -1.05761 0
M  V30 9438 C 886.519 -2.81561 2.24489 0
M  V30 9439 C 886.372 -2.48268 3.75078 0
M  V30 9440 C 887.691 -3.83428 2.16034 0
M  V30 9441 H 884.81 -0.559828 0.479335 0
M  V30 9442 H 887.452 -0.898717 1.67401 0
M  V30 9443 H 885.602 -3.36549 1.9408 0
M  V30 9444 H 887.274 -1.99279 4.16036 0
M  V30 9445 H 885.517 -1.81116 3.94182 0
M  V30 9446 H 886.188 -3.39183 4.35499 0
M  V30 9447 H 888.664 -3.37905 2.42815 0
M  V30 9448 H 887.54 -4.70204 2.83194 0
M  V30 9449 H 887.801 -4.26887 1.14976 0
M  V30 9450 N 886.86 -1.21182 -1.00761 0
M  V30 9451 C 887.79 -0.992773 -2.11344 0
M  V30 9452 C 888.771 0.0813618 -1.69905 0
M  V30 9453 O 889.956 -0.0779503 -1.94043 0
M  V30 9454 C 887.086 -0.553826 -3.42856 0
M  V30 9455 C 886.04 -1.57223 -3.98077 0
M  V30 9456 C 885.366 -0.989605 -5.25463 0
M  V30 9457 C 886.666 -2.95839 -4.30438 0
M  V30 9458 H 888.36 -1.91766 -2.29927 0
M  V30 9459 H 885.906 -0.923426 -1.10494 0
M  V30 9460 H 887.859 -0.387771 -4.19612 0
M  V30 9461 H 886.583 0.406702 -3.24058 0
M  V30 9462 H 885.242 -1.7258 -3.23437 0
M  V30 9463 H 884.89 -0.0208743 -5.02996 0
M  V30 9464 H 884.59 -1.66984 -5.63374 0
M  V30 9465 H 886.114 -0.834815 -6.04866 0
M  V30 9466 H 887.528 -2.8394 -4.98047 0
M  V30 9467 H 885.925 -3.60851 -4.79486 0
M  V30 9468 H 886.995 -3.46882 -3.38823 0
M  V30 9469 N 888.338 1.20213 -1.01915 0
M  V30 9470 C 889.584 1.90203 -0.720724 0
M  V30 9471 C 889.939 1.77526 0.74178 0
M  V30 9472 O 889.232 1.15037 1.53222 0
M  V30 9473 C 889.426 3.40232 -1.09438 0
M  V30 9474 C 889.255 3.67509 -2.59167 0
M  V30 9475 C 888.025 3.86082 -3.25989 0
M  V30 9476 C 890.223 3.69863 -3.5736 0
M  V30 9477 N 888.205 4.009 -4.64922 0
M  V30 9478 C 889.576 3.90136 -4.81865 0
M  V30 9479 C 891.631 3.52839 -3.51296 0
M  V30 9480 C 890.334 3.9515 -6.0104 0
M  V30 9481 C 892.36 3.59125 -4.69875 0
M  V30 9482 C 891.722 3.79874 -5.93191 0
M  V30 9483 H 887.821 0.715556 -0.315442 0
M  V30 9484 H 890.405 1.44538 -1.30449 0
M  V30 9485 H 888.576 3.84643 -0.538933 0
M  V30 9486 H 890.308 3.97704 -0.74923 0
M  V30 9487 H 887.063 3.84569 -2.76413 0
M  V30 9488 H 887.487 4.12181 -5.37062 0
M  V30 9489 H 892.129 3.35762 -2.56951 0
M  V30 9490 H 889.847 4.11022 -6.95763 0
M  V30 9491 H 893.433 3.47257 -4.66802 0
M  V30 9492 H 892.313 3.846 -6.83412 0
M  V30 9493 N 889.816 0.795718 1.36037 0
M  V30 9494 C 890.746 0.212803 2.32528 0
M  V30 9495 C 891.727 -0.655716 1.56953 0
M  V30 9496 O 892.912 -0.588238 1.85077 0
M  V30 9497 C 890.042 -0.648189 3.41198 0
M  V30 9498 C 888.996 0.120948 4.27829 0
M  V30 9499 C 888.322 -0.861044 5.27722 0
M  V30 9500 C 889.622 1.31375 5.05508 0
M  V30 9501 H 891.316 1.01893 2.81528 0
M  V30 9502 H 888.862 0.491422 1.35355 0
M  V30 9503 H 890.815 -1.06597 4.07695 0
M  V30 9504 H 889.539 -1.48709 2.9078 0
M  V30 9505 H 888.198 0.519777 3.62897 0
M  V30 9506 H 887.846 -1.69515 4.73575 0
M  V30 9507 H 887.546 -0.350808 5.86552 0
M  V30 9508 H 889.07 -1.27726 5.97092 0
M  V30 9509 H 890.484 0.971406 5.6501 0
M  V30 9510 H 888.881 1.75772 5.73781 0
M  V30 9511 H 889.951 2.10593 4.36782 0
M  V30 9512 N 891.294 -1.47756 0.548274 0
M  V30 9513 C 892.571 -1.9555 -0.0443603 0
M  V30 9514 C 892.951 -1.49079 -1.49462 0
M  V30 9515 O 892.299 -0.725538 -2.16675 0
M  V30 9516 C 892.509 -3.48879 0.0918425 0
M  V30 9517 C 893.857 -4.2456 -0.0580879 0
M  V30 9518 O 894.881 -3.56195 0.018946 0
M  V30 9519 O 893.74 -5.46048 -0.222261 0
M  V30 9520 H 890.834 -0.824106 -0.0691235 0
M  V30 9521 H 893.38 -1.58196 0.614166 0
M  V30 9522 H 892.152 -3.7548 1.10137 0
M  V30 9523 H 891.775 -3.92975 -0.604704 0
M  V30 9524 N 892.772 -0.284283 -1.55015 0
M  V30 9525 C 893.682 0.60906 -2.26556 0
M  V30 9526 C 894.698 1.16246 -1.29472 0
M  V30 9527 O 895.874 1.1908 -1.62425 0
M  V30 9528 C 892.939 1.77246 -2.97968 0
M  V30 9529 C 892 1.25482 -4.10552 0
M  V30 9530 C 891.233 2.36277 -4.78549 0
M  V30 9531 O 891.456 3.55829 -4.45805 0
M  V30 9532 O 890.39 2.03914 -5.66306 0
M  V30 9533 H 894.216 0.0292298 -3.03686 0
M  V30 9534 H 891.801 -0.0513466 -1.49312 0
M  V30 9535 H 893.683 2.45062 -3.42815 0
M  V30 9536 H 892.358 2.33921 -2.23747 0
M  V30 9537 H 891.265 0.542859 -3.7014 0
M  V30 9538 H 892.598 0.733708 -4.86701 0
M  V30 9539 N 894.251 1.57596 -0.0117121 0
M  V30 9540 C 895.5 1.9025 0.669921 0
M  V30 9541 C 895.813 0.887986 1.74282 0
M  V30 9542 O 897.019 1.10516 2.47989 0
M  V30 9543 C 895.475 3.37762 1.24277 0
M  V30 9544 C 895.083 4.47535 0.204076 0
M  V30 9545 C 896.827 3.79509 1.90192 0
M  V30 9546 C 894.734 5.86132 0.787577 0
M  V30 9547 H 893.664 0.709935 0.253984 0
M  V30 9548 H 896.315 1.8335 -0.0741718 0
M  V30 9549 H 894.697 3.39537 2.03791 0
M  V30 9550 H 895.871 4.57294 -0.56733 0
M  V30 9551 H 894.186 4.14881 -0.355305 0
M  V30 9552 H 896.783 4.80402 2.34773 0
M  V30 9553 H 897.126 3.13643 2.7374 0
M  V30 9554 H 897.659 3.80084 1.17394 0
M  V30 9555 H 894.398 6.55499 -0.00938418 0
M  V30 9556 H 893.918 5.80014 1.52787 0
M  V30 9557 H 895.597 6.34158 1.28265 0
M  V30 9558 N 895.729 -0.261212 1.5542 0
M  V30 9559 C 896.661 -1.34571 1.85535 0
M  V30 9560 C 897.674 -1.44979 0.740612 0
M  V30 9561 O 898.863 -1.46584 1.01859 0
M  V30 9562 C 895.963 -2.7258 2.01378 0
M  V30 9563 C 895.136 -2.84618 3.32131 0
M  V30 9564 C 894.195 -4.03379 3.37893 0
M  V30 9565 O 893.221 -3.93581 4.11197 0
M  V30 9566 N 894.423 -5.15893 2.66148 0
M  V30 9567 H 897.188 -1.09078 2.79145 0
M  V30 9568 H 894.749 -0.451327 1.55482 0
M  V30 9569 H 896.741 -3.50342 2.0259 0
M  V30 9570 H 895.311 -2.90844 1.14579 0
M  V30 9571 H 894.531 -1.93647 3.43358 0
M  V30 9572 H 895.819 -2.896 4.18341 0
M  V30 9573 H 895.217 -5.26743 2.06297 0
M  V30 9574 H 893.774 -5.91842 2.73069 0
M  V30 9575 N 897.207 -1.48554 -0.526253 0
M  V30 9576 C 898.455 -1.56452 -1.27935 0
M  V30 9577 C 898.776 -0.24184 -1.93495 0
M  V30 9578 O 898.046 0.736917 -1.81511 0
M  V30 9579 H 896.626 -0.576379 -0.47518 0
M  V30 9580 H 899.288 -1.85039 -0.612083 0
M  V30 9581 H 898.384 -2.34751 -2.05666 0
M  V30 9582 N 898.685 0.775411 -1.37205 0
M  V30 9583 C 899.933 1.53081 -1.3195 0
M  V30 9584 C 900.254 1.9476 0.0966864 0
M  V30 9585 O 899.524 1.66019 1.03993 0
M  V30 9586 H 898.104 0.567762 -0.485444 0
M  V30 9587 H 900.766 0.92309 -1.71654 0
M  V30 9588 H 899.862 2.4319 -1.95614 0
M  V30 9589 N 900.163 1.21714 1.00117 0
M  V30 9590 C 901.412 1.03087 1.73367 0
M  V30 9591 C 901.725 -0.435532 1.90689 0
M  V30 9592 O 902.931 -0.741291 2.61184 0
M  V30 9593 C 901.387 1.79593 3.11888 0
M  V30 9594 C 900.995 3.30428 3.02525 0
M  V30 9595 C 902.739 1.69386 3.89241 0
M  V30 9596 C 900.646 3.99408 4.3615 0
M  V30 9597 H 899.576 0.382117 0.650002 0
M  V30 9598 H 902.227 1.45486 1.11831 0
M  V30 9599 H 900.609 1.29988 3.74058 0
M  V30 9600 H 901.783 3.87364 2.49571 0
M  V30 9601 H 900.098 3.4122 2.38659 0
M  V30 9602 H 902.695 2.18251 4.8813 0
M  V30 9603 H 903.038 0.652773 4.1115 0
M  V30 9604 H 903.571 2.16489 3.33733 0
M  V30 9605 H 900.31 5.03735 4.19442 0
M  V30 9606 H 899.83 3.47261 4.8905 0
M  V30 9607 H 901.509 4.04537 5.04934 0
M  V30 9608 N 901.641 -1.19671 1.02551 0
M  V30 9609 C 902.887 -1.89818 0.730801 0
M  V30 9610 C 903.242 -1.77917 -0.732355 0
M  V30 9611 O 902.535 -1.15848 -1.5261 0
M  V30 9612 C 902.729 -3.39647 1.11241 0
M  V30 9613 C 902.558 -3.66129 2.61112 0
M  V30 9614 C 901.328 -3.84348 3.28032 0
M  V30 9615 C 903.526 -3.67963 3.59316 0
M  V30 9616 N 901.508 -3.98429 4.67041 0
M  V30 9617 C 902.879 -3.87575 4.83927 0
M  V30 9618 C 904.934 -3.50971 3.53162 0
M  V30 9619 C 903.637 -3.91957 6.03127 0
M  V30 9620 C 905.663 -3.56629 4.71773 0
M  V30 9621 C 905.025 -3.76722 5.95197 0
M  V30 9622 H 901.124 -0.713873 0.319232 0
M  V30 9623 H 903.708 -1.43844 1.31213 0
M  V30 9624 H 901.879 -3.84352 0.559324 0
M  V30 9625 H 903.611 -3.97301 0.77031 0
M  V30 9626 H 900.366 -3.83097 2.78448 0
M  V30 9627 H 900.79 -4.09327 5.39241 0
M  V30 9628 H 905.432 -3.34395 2.58728 0
M  V30 9629 H 903.15 -4.07326 6.97933 0
M  V30 9630 H 906.736 -3.44777 4.68637 0
M  V30 9631 H 905.616 -3.8097 6.85442 0
M  V30 9632 N 903.119 -0.802921 -1.35613 0
M  V30 9633 C 904.051 -0.168461 -2.2858 0
M  V30 9634 C 905.064 0.630123 -1.50111 0
M  V30 9635 O 906.253 0.463086 -1.72388 0
M  V30 9636 C 903.353 0.783943 -3.29708 0
M  V30 9637 C 902.526 0.0325165 -4.37388 0
M  V30 9638 C 901.585 0.902859 -5.18396 0
M  V30 9639 O 900.611 0.355144 -5.68091 0
M  V30 9640 N 901.813 2.22542 -5.36149 0
M  V30 9641 H 904.578 -0.96709 -2.83668 0
M  V30 9642 H 902.139 -0.658043 -1.47924 0
M  V30 9643 H 904.131 1.37034 -3.80794 0
M  V30 9644 H 902.701 1.48339 -2.75162 0
M  V30 9645 H 901.921 -0.735057 -3.87286 0
M  V30 9646 H 903.209 -0.485499 -5.06478 0
M  V30 9647 H 902.607 2.69439 -4.97412 0
M  V30 9648 H 901.164 2.76113 -5.90428 0
M  V30 9649 N 904.597 1.47463 -0.556102 0
M  V30 9650 C 905.822 2.07371 -0.0344729 0
M  V30 9651 C 906.247 1.40621 1.2493 0
M  V30 9652 O 905.605 0.48082 1.74808 0
M  V30 9653 C 905.653 3.60306 0.145563 0
M  V30 9654 O 904.757 3.94299 1.20839 0
M  V30 9655 H 904.098 0.662052 -0.0508274 0
M  V30 9656 H 906.628 1.89498 -0.771469 0
M  V30 9657 H 906.638 4.06408 0.360112 0
M  V30 9658 H 905.313 4.08288 -0.792089 0
M  V30 9659 H 903.89 3.59944 0.97442 0
M  V30 9660 N 906.075 0.2925 1.54862 0
M  V30 9661 C 907.023 -0.603186 2.24643 0
M  V30 9662 C 908.017 -1.1439 1.24946 0
M  V30 9663 O 909.223 -1.09552 1.42823 0
M  V30 9664 H 905.598 -0.213105 0.721173 0
M  V30 9665 H 907.569 0.00799278 2.98399 0
M  V30 9666 C 906.318 -1.76769 2.99413 0
M  V30 9667 H 905.641 -1.36084 3.75927 0
M  V30 9668 H 907.081 -2.37066 3.51533 0
M  V30 9669 C 905.54 -2.66669 2.05886 0
M  V30 9670 O 906.07 -3.67525 1.62136 0
M  V30 9671 N 904.276 -2.34216 1.7202 0
M  V30 9672 H 903.823 -1.52246 2.07795 0
M  V30 9673 H 903.781 -2.94635 1.09717 0
M  V30 9674 N 907.553 -1.57587 0.0200696 0
M  V30 9675 C 908.5 -2.09667 -0.964791 0
M  V30 9676 C 909.47 -0.99664 -1.32877 0
M  V30 9677 O 910.655 -1.2703 -1.42366 0
M  V30 9678 C 907.795 -2.62101 -2.24493 0
M  V30 9679 C 906.908 -3.8608 -1.93821 0
M  V30 9680 C 906.043 -4.26939 -3.16064 0
M  V30 9681 C 905.082 -5.43701 -2.81169 0
M  V30 9682 N 904.219 -5.79759 -3.9601 0
M  V30 9683 H 909.059 -2.93538 -0.513751 0
M  V30 9684 H 906.596 -1.45096 -0.242 0
M  V30 9685 H 908.554 -2.90587 -2.99358 0
M  V30 9686 H 907.184 -1.81074 -2.6723 0
M  V30 9687 H 906.236 -3.64378 -1.09237 0
M  V30 9688 H 907.548 -4.71028 -1.64115 0
M  V30 9689 H 906.702 -4.56814 -3.99257 0
M  V30 9690 H 905.441 -3.40739 -3.48924 0
M  V30 9691 H 904.446 -5.13529 -1.96387 0
M  V30 9692 H 905.671 -6.31593 -2.49535 0
M  V30 9693 H 903.617 -4.96516 -4.28729 0
M  V30 9694 H 903.534 -6.59327 -3.69896 0
M  V30 9695 H 904.802 -6.14235 -4.79933 0
M  V30 9696 N 909.032 0.252966 -1.55557 0
M  V30 9697 C 910.309 1.00432 -1.67847 0
M  V30 9698 C 910.689 2.03587 -0.55816 0
M  V30 9699 O 910.037 2.24239 0.439197 0
M  V30 9700 C 910.247 1.64313 -3.079 0
M  V30 9701 C 911.595 2.14726 -3.66303 0
M  V30 9702 O 912.619 1.74264 -3.10661 0
M  V30 9703 O 911.478 2.89 -4.63833 0
M  V30 9704 H 908.572 0.467102 -0.682455 0
M  V30 9705 H 911.118 0.247233 -1.67889 0
M  V30 9706 H 909.89 0.896681 -3.80888 0
M  V30 9707 H 909.513 2.46657 -3.11843 0
M  V30 9708 N 910.51 1.48831 0.518367 0
M  V30 9709 C 911.738 1.6112 1.298 0
M  V30 9710 C 912.153 0.275872 1.86774 0
M  V30 9711 O 911.51 -0.736416 1.66983 0
M  V30 9712 C 911.561 2.66675 2.44063 0
M  V30 9713 O 911.282 3.95027 1.89434 0
M  V30 9714 C 912.783 2.8951 3.35706 0
M  V30 9715 H 910.003 0.542916 0.394314 0
M  V30 9716 H 912.547 1.94743 0.624142 0
M  V30 9717 H 910.702 2.35879 3.07311 0
M  V30 9718 H 911.116 4.53031 2.64316 0
M  V30 9719 H 912.59 3.67142 4.12202 0
M  V30 9720 H 913.067 1.98768 3.91648 0
M  V30 9721 H 913.673 3.21656 2.7824 0
M  V30 9722 N 911.988 -0.768124 1.37614 0
M  V30 9723 C 912.92 -1.89076 1.29548 0
M  V30 9724 C 913.933 -1.61433 0.21056 0
M  V30 9725 O 915.122 -1.72283 0.466992 0
M  V30 9726 C 912.222 -3.24388 0.981102 0
M  V30 9727 C 911.395 -3.79649 2.17222 0
M  V30 9728 C 910.454 -4.93444 1.82754 0
M  V30 9729 O 909.48 -5.0884 2.5509 0
M  V30 9730 N 910.682 -5.75319 0.773819 0
M  V30 9731 H 913.447 -1.9651 2.26283 0
M  V30 9732 H 911.008 -0.947399 1.31286 0
M  V30 9733 H 913 -3.98038 0.731301 0
M  V30 9734 H 911.57 -3.12433 0.102203 0
M  V30 9735 H 910.79 -2.97735 2.58355 0
M  V30 9736 H 912.078 -4.13302 2.96748 0
M  V30 9737 H 911.476 -5.65433 0.173644 0
M  V30 9738 H 910.033 -6.4918 0.583882 0
M  V30 9739 N 913.466 -1.22244 -0.994698 0
M  V30 9740 C 914.376 -1.00722 -2.11878 0
M  V30 9741 C 915.392 0.043919 -1.73945 0
M  V30 9742 O 916.568 -0.148411 -2.00852 0
M  V30 9743 C 913.633 -0.585723 -3.41717 0
M  V30 9744 C 912.694 -1.71027 -3.93762 0
M  V30 9745 C 911.927 -1.30879 -5.17403 0
M  V30 9746 O 912.15 -0.18681 -5.70094 0
M  V30 9747 O 911.084 -2.1246 -5.63156 0
M  V30 9748 H 914.91 -1.94894 -2.32916 0
M  V30 9749 H 912.495 -1.00822 -1.10251 0
M  V30 9750 H 914.377 -0.360935 -4.19851 0
M  V30 9751 H 913.052 0.327166 -3.22042 0
M  V30 9752 H 911.959 -1.98956 -3.16808 0
M  V30 9753 H 913.292 -2.60096 -4.17865 0
M  V30 9754 N 914.944 1.19125 -1.03184 0
M  V30 9755 C 915.907 2.20662 -0.619766 0
M  V30 9756 C 916.907 1.57621 0.318179 0
M  V30 9757 O 918.097 1.73885 0.104783 0
M  V30 9758 C 915.229 3.40774 0.0926696 0
M  V30 9759 H 916.422 2.58633 -1.5182 0
M  V30 9760 H 913.975 1.32855 -0.823364 0
M  V30 9761 H 914.71 3.08324 1.00531 0
M  V30 9762 H 914.495 3.87766 -0.581344 0
M  V30 9763 H 915.985 4.15977 0.367792 0
M  V30 9764 N 916.422 0.810101 1.35185 0
M  V30 9765 C 917.354 0.180581 2.28488 0
M  V30 9766 C 918.367 -0.622154 1.50443 0
M  V30 9767 O 919.556 -0.453938 1.72632 0
M  V30 9768 C 916.656 -0.766447 3.30119 0
M  V30 9769 C 915.829 -0.00932028 4.37399 0
M  V30 9770 C 914.888 -0.875354 5.18868 0
M  V30 9771 O 913.914 -0.325012 5.68271 0
M  V30 9772 N 915.116 -2.19695 5.37321 0
M  V30 9773 H 917.881 0.98212 2.83151 0
M  V30 9774 H 915.442 0.665879 1.47573 0
M  V30 9775 H 917.434 -1.35012 3.81515 0
M  V30 9776 H 916.004 -1.46878 2.75945 0
M  V30 9777 H 915.224 0.755585 3.86891 0
M  V30 9778 H 916.512 0.512352 5.06214 0
M  V30 9779 H 915.91 -2.66797 4.98834 0
M  V30 9780 H 914.467 -2.72978 5.91884 0
M  V30 9781 N 917.9 -1.47166 0.563914 0
M  V30 9782 C 918.847 -2.30097 -0.180013 0
M  V30 9783 C 919.817 -1.39473 -0.902019 0
M  V30 9784 O 921.002 -1.68432 -0.896396 0
M  V30 9785 C 918.142 -3.23573 -1.19978 0
M  V30 9786 C 917.255 -4.2929 -0.483149 0
M  V30 9787 C 916.39 -5.0991 -1.48879 0
M  V30 9788 C 915.429 -6.07395 -0.757513 0
M  V30 9789 N 914.566 -6.8095 -1.71031 0
M  V30 9790 H 919.406 -2.93189 0.53329 0
M  V30 9791 H 916.943 -1.4451 0.274814 0
M  V30 9792 H 918.901 -3.76196 -1.80368 0
M  V30 9793 H 917.531 -2.6233 -1.88103 0
M  V30 9794 H 916.583 -3.79671 0.235414 0
M  V30 9795 H 917.895 -4.9872 0.0894075 0
M  V30 9796 H 917.049 -5.66717 -2.16603 0
M  V30 9797 H 915.788 -4.40397 -2.09527 0
M  V30 9798 H 914.793 -5.4976 -0.0663841 0
M  V30 9799 H 916.018 -6.78919 -0.156685 0
M  V30 9800 H 913.964 -6.14162 -2.30524 0
M  V30 9801 H 913.881 -7.46574 -1.19007 0
M  V30 9802 H 915.149 -7.42326 -2.37849 0
M  V30 9803 N 919.378 -0.300708 -1.54705 0
M  V30 9804 C 920.625 0.308654 -2.00134 0
M  V30 9805 C 920.953 1.53918 -1.1891 0
M  V30 9806 O 920.208 1.94054 -0.253263 0
M  V30 9807 C 920.507 0.710108 -3.50275 0
M  V30 9808 C 920.173 -0.418651 -4.48952 0
M  V30 9809 C 918.835 -0.728524 -4.75653 0
M  V30 9810 C 921.187 -1.17797 -5.07714 0
M  V30 9811 C 918.515 -1.80085 -5.58378 0
M  V30 9812 C 920.867 -2.24022 -5.91606 0
M  V30 9813 C 919.531 -2.55616 -6.16617 0
M  V30 9814 H 918.801 0.112945 -0.732342 0
M  V30 9815 H 921.448 -0.419744 -1.86843 0
M  V30 9816 H 919.753 1.51859 -3.61173 0
M  V30 9817 H 921.45 1.19277 -3.8285 0
M  V30 9818 H 918.04 -0.167034 -4.28274 0
M  V30 9819 H 922.224 -0.951835 -4.87087 0
M  V30 9820 H 917.48 -2.05036 -5.75995 0
M  V30 9821 H 921.654 -2.83317 -6.36164 0
M  V30 9822 H 919.281 -3.38839 -6.80509 0
M  V30 9823 N 920.856 1.57574 -0.0284266 0
M  V30 9824 C 921.819 2.09096 0.938691 0
M  V30 9825 C 922.819 1.00588 1.25454 0
M  V30 9826 O 924.009 1.2675 1.19499 0
M  V30 9827 C 921.141 2.55624 2.25542 0
M  V30 9828 H 922.334 2.95829 0.49248 0
M  V30 9829 H 919.887 1.5475 0.219594 0
M  V30 9830 H 920.622 1.72218 2.74793 0
M  V30 9831 H 920.407 3.34896 2.03929 0
M  V30 9832 H 921.897 2.95712 2.94863 0
M  V30 9833 N 922.334 -0.244713 1.55689 0
M  V30 9834 C 923.264 -1.30667 1.93516 0
M  V30 9835 C 924.245 -1.50094 0.800371 0
M  V30 9836 O 925.43 -1.62665 1.06083 0
M  V30 9837 C 922.56 -2.66101 2.23176 0
M  V30 9838 C 921.514 -2.61366 3.38927 0
M  V30 9839 C 920.84 -4.00616 3.54134 0
M  V30 9840 C 922.14 -2.18161 4.74555 0
M  V30 9841 H 923.834 -0.992546 2.82469 0
M  V30 9842 H 921.38 -0.476018 1.35905 0
M  V30 9843 H 923.333 -3.4053 2.48228 0
M  V30 9844 H 922.057 -2.99154 1.31051 0
M  V30 9845 H 920.716 -1.89395 3.13887 0
M  V30 9846 H 920.364 -4.30938 2.59426 0
M  V30 9847 H 920.064 -3.98335 4.31975 0
M  V30 9848 H 921.588 -4.76741 3.8151 0
M  V30 9849 H 923.002 -2.82323 4.98965 0
M  V30 9850 H 921.399 -2.26988 5.55515 0
M  V30 9851 H 922.469 -1.13333 4.7147 0
M  V30 9852 N 923.813 -1.49104 -0.510467 0
M  V30 9853 C 925.061 -1.578 -1.26268 0
M  V30 9854 C 925.382 -0.262349 -1.93227 0
M  V30 9855 O 924.652 0.717624 -1.82283 0
M  V30 9856 H 923.232 -0.581387 -0.46904 0
M  V30 9857 H 925.894 -1.85678 -0.592423 0
M  V30 9858 H 924.99 -2.36919 -2.03165 0
M  V30 9859 N 925.291 0.760815 -1.38019 0
M  V30 9860 C 926.54 1.51506 -1.3315 0
M  V30 9861 C 926.853 1.95444 0.0782124 0
M  V30 9862 O 928.059 2.70352 0.249418 0
M  V30 9863 C 926.515 2.73636 -2.33776 0
M  V30 9864 C 926.123 2.36753 -3.80332 0
M  V30 9865 C 927.867 3.51548 -2.37937 0
M  V30 9866 C 925.774 3.55451 -4.72661 0
M  V30 9867 H 924.704 0.568844 -0.494907 0
M  V30 9868 H 927.355 0.832343 -1.63537 0
M  V30 9869 H 925.737 3.43852 -1.96422 0
M  V30 9870 H 926.911 1.7425 -4.26584 0
M  V30 9871 H 925.226 1.71991 -3.7922 0
M  V30 9872 H 927.823 4.39791 -3.04119 0
M  V30 9873 H 928.166 3.9219 -1.39617 0
M  V30 9874 H 928.699 2.88339 -2.74054 0
M  V30 9875 H 925.438 3.19882 -5.7215 0
M  V30 9876 H 924.958 4.17022 -4.31107 0
M  V30 9877 H 926.637 4.22125 -4.90326 0
M  V30 9878 N 926.769 1.22769 0.988202 0
M  V30 9879 C 928.016 1.05509 1.72841 0
M  V30 9880 C 928.344 -0.409145 1.90148 0
M  V30 9881 O 927.599 -1.3195 1.44526 0
M  V30 9882 C 927.898 1.71679 3.13466 0
M  V30 9883 C 927.564 3.21584 3.16061 0
M  V30 9884 C 926.226 3.62486 3.16476 0
M  V30 9885 C 928.578 4.17511 3.11984 0
M  V30 9886 C 925.906 4.97789 3.10521 0
M  V30 9887 C 928.258 5.52796 3.0757 0
M  V30 9888 C 926.922 5.93072 3.06304 0
M  V30 9889 H 926.192 0.386085 0.632471 0
M  V30 9890 H 928.839 1.52596 1.157 0
M  V30 9891 H 927.144 1.1693 3.73945 0
M  V30 9892 H 928.841 1.55809 3.69492 0
M  V30 9893 H 925.431 2.89019 3.1649 0
M  V30 9894 H 929.615 3.86926 3.10809 0
M  V30 9895 H 924.871 5.28218 3.07888 0
M  V30 9896 H 929.045 6.26848 3.03372 0
M  V30 9897 H 926.672 6.97879 3.01444 0
M  V30 9898 N 928.247 -1.18576 1.03814 0
M  V30 9899 C 929.21 -2.2033 0.63146 0
M  V30 9900 C 930.21 -1.57787 -0.309816 0
M  V30 9901 O 931.4 -1.73938 -0.0955598 0
M  V30 9902 C 928.532 -3.40818 -0.0745963 0
M  V30 9903 H 929.725 -2.57824 1.53189 0
M  V30 9904 H 927.278 -1.32416 0.830398 0
M  V30 9905 H 928.013 -3.08853 -0.988947 0
M  V30 9906 H 927.798 -3.87453 0.6019 0
M  V30 9907 H 929.288 -4.16166 -0.345727 0
M  V30 9908 N 929.725 -0.817259 -1.34754 0
M  V30 9909 C 930.974 -0.39908 -1.97713 0
M  V30 9910 C 931.287 1.04203 -1.65533 0
M  V30 9911 O 932.493 1.56384 -2.21937 0
M  V30 9912 C 930.949 -0.662634 -3.53747 0
M  V30 9913 C 930.557 -2.11699 -3.94826 0
M  V30 9914 C 932.301 -0.31034 -4.23364 0
M  V30 9915 C 930.208 -2.32573 -5.4375 0
M  V30 9916 H 929.138 -0.145488 -0.739831 0
M  V30 9917 H 931.789 -1.00282 -1.53674 0
M  V30 9918 H 930.171 0.0111972 -3.95998 0
M  V30 9919 H 931.345 -2.82951 -3.63697 0
M  V30 9920 H 929.66 -2.43017 -3.3813 0
M  V30 9921 H 932.257 -0.44421 -5.32852 0
M  V30 9922 H 932.6 0.744594 -4.09587 0
M  V30 9923 H 933.133 -0.938518 -3.8657 0
M  V30 9924 H 929.872 -3.36551 -5.62507 0
M  V30 9925 H 929.392 -1.65858 -5.76412 0
M  V30 9926 H 931.071 -2.14651 -6.10356 0
M  V30 9927 N 931.203 1.46865 -0.571711 0
M  V30 9928 C 932.151 2.31897 0.180714 0
M  V30 9929 C 933.145 1.43815 0.895191 0
M  V30 9930 O 934.351 1.60501 0.814828 0
M  V30 9931 H 930.726 0.748032 0.077148 0
M  V30 9932 H 932.697 2.93185 -0.555432 0
M  V30 9933 C 931.446 3.26766 1.18824 0
M  V30 9934 H 930.769 3.94515 0.64789 0
M  V30 9935 H 932.209 3.89067 1.68532 0
M  V30 9936 C 930.668 2.51325 2.2436 0
M  V30 9937 O 931.198 2.26825 3.31532 0
M  V30 9938 N 929.404 2.12079 1.98673 0
M  V30 9939 H 928.951 2.32204 1.1153 0
M  V30 9940 H 928.909 1.61921 2.69498 0
M  V30 9941 N 932.681 0.308908 1.54543 0
M  V30 9942 C 933.591 -0.572939 2.27496 0
M  V30 9943 C 934.607 -1.14171 1.31305 0
M  V30 9944 O 935.783 -1.16481 1.64299 0
M  V30 9945 C 932.848 -1.72483 3.0075 0
M  V30 9946 C 931.909 -1.18934 4.12496 0
M  V30 9947 C 931.142 -2.28634 4.82247 0
M  V30 9948 O 931.365 -3.48691 4.5141 0
M  V30 9949 O 930.299 -1.94879 5.69478 0
M  V30 9950 H 934.125 0.0190877 3.03694 0
M  V30 9951 H 931.71 0.0750943 1.49211 0
M  V30 9952 H 933.592 -2.39578 3.46671 0
M  V30 9953 H 932.267 -2.30332 2.2744 0
M  V30 9954 H 931.174 -0.483904 3.70957 0
M  V30 9955 H 932.507 -0.656185 4.87806 0
M  V30 9956 N 934.159 -1.57557 0.0367827 0
M  V30 9957 C 935.122 -2.09591 -0.927589 0
M  V30 9958 C 936.122 -1.01252 -1.24919 0
M  V30 9959 O 937.312 -1.27382 -1.18825 0
M  V30 9960 C 934.444 -2.56816 -2.24184 0
M  V30 9961 H 935.637 -2.96086 -0.476784 0
M  V30 9962 H 933.19 -1.54864 -0.211385 0
M  V30 9963 H 933.925 -1.73673 -2.73876 0
M  V30 9964 H 933.71 -3.35973 -2.0215 0
M  V30 9965 H 935.2 -2.97271 -2.93291 0
M  V30 9966 N 935.637 0.236453 -1.55816 0
M  V30 9967 C 936.883 0.964439 -1.784 0
M  V30 9968 C 937.216 1.84573 -0.603868 0
M  V30 9969 O 936.491 1.90395 0.397473 0
M  V30 9970 C 936.774 1.81608 -3.10951 0
M  V30 9971 C 936.627 0.962283 -4.39386 0
M  V30 9972 C 937.946 2.79665 -3.39817 0
M  V30 9973 H 935.065 0.349192 -0.649026 0
M  V30 9974 H 937.707 0.234247 -1.8855 0
M  V30 9975 H 935.857 2.43864 -3.02428 0
M  V30 9976 H 937.529 0.35762 -4.59912 0
M  V30 9977 H 935.772 0.267062 -4.32977 0
M  V30 9978 H 936.443 1.59222 -5.28538 0
M  V30 9979 H 938.919 2.27546 -3.4837 0
M  V30 9980 H 937.795 3.36367 -4.33761 0
M  V30 9981 H 938.056 3.56657 -2.61244 0
M  V30 9982 N 937.115 1.49373 0.502552 0
M  V30 9983 C 938.025 1.68659 1.63068 0
M  V30 9984 C 939.041 0.569182 1.64427 0
M  V30 9985 O 940.217 0.843695 1.82876 0
M  V30 9986 C 937.282 1.74745 2.99441 0
M  V30 9987 C 936.343 2.98311 3.08721 0
M  V30 9988 C 935.576 3.04097 4.38589 0
M  V30 9989 O 935.799 2.17519 5.27297 0
M  V30 9990 O 934.733 3.96544 4.52809 0
M  V30 9991 H 938.559 2.64226 1.49727 0
M  V30 9992 H 936.144 1.33096 0.67867 0
M  V30 9993 H 938.026 1.8111 3.80496 0
M  V30 9994 H 936.701 0.823565 3.13048 0
M  V30 9995 H 935.608 2.97465 2.2686 0
M  V30 9996 H 936.941 3.90174 3.00041 0
M  V30 9997 N 938.594 -0.753485 1.38421 0
M  V30 9998 C 939.819 -1.54783 1.38047 0
M  V30 9999 C 940.244 -1.8808 -0.0276371 0
M  V30 10000 O 939.602 -1.5058 -1.00973 0
M  V30 10001 C 939.65 -2.82353 2.24297 0
M  V30 10002 O 938.754 -3.77509 1.66014 0
M  V30 10003 H 938.095 -0.468151 0.470883 0
M  V30 10004 H 940.625 -0.931144 1.82184 0
M  V30 10005 H 940.635 -3.31277 2.38159 0
M  V30 10006 H 939.31 -2.57449 3.26639 0
M  V30 10007 H 937.887 -3.36212 1.61294 0
M  V30 10008 N 940.072 -1.23292 -0.981677 0
M  V30 10009 C 941.32 -1.06214 -1.71939 0
M  V30 10010 C 941.641 0.401989 -1.90812 0
M  V30 10011 O 940.911 1.28825 -1.47584 0
M  V30 10012 H 939.491 -0.390042 -0.637084 0
M  V30 10013 H 942.153 -1.54988 -1.18173 0
M  V30 10014 H 941.249 -1.54904 -2.70945 0
M  V30 10015 N 941.55 1.18024 -1.04442 0
M  V30 10016 C 942.827 1.8398 -0.664125 0
M  V30 10017 C 943.207 1.92961 0.856116 0
M  V30 10018 O 942.555 1.45839 1.75907 0
M  V30 10019 C 942.765 3.22069 -1.34433 0
M  V30 10020 C 944.113 3.98063 -1.47754 0
M  V30 10021 O 945.137 3.31523 -1.30274 0
M  V30 10022 O 943.996 5.17291 -1.76272 0
M  V30 10023 H 941.09 0.793543 -0.23285 0
M  V30 10024 H 943.636 1.25385 -1.14354 0
M  V30 10025 H 942.408 3.10458 -2.38184 0
M  V30 10026 H 942.031 3.88325 -0.853782 0
M  V30 10027 N 943.028 0.824394 1.34319 0
M  V30 10028 C 944.274 0.413779 1.98534 0
M  V30 10029 C 944.607 -1.02089 1.65201 0
M  V30 10030 O 943.882 -1.71129 0.924402 0
M  V30 10031 C 944.165 0.61801 3.54757 0
M  V30 10032 C 944.018 2.0989 3.97827 0
M  V30 10033 C 945.337 0.0549041 4.40066 0
M  V30 10034 H 942.456 0.151815 0.721194 0
M  V30 10035 H 945.098 1.03723 1.5919 0
M  V30 10036 H 943.248 0.0873107 3.88402 0
M  V30 10037 H 944.92 2.69335 3.74508 0
M  V30 10038 H 943.163 2.58881 3.48085 0
M  V30 10039 H 943.834 2.1926 5.06586 0
M  V30 10040 H 946.31 0.508348 4.12983 0
M  V30 10041 H 945.186 0.227595 5.48428 0
M  V30 10042 H 945.447 -1.04025 4.29687 0
M  V30 10043 N 944.506 -1.46559 0.579492 0
M  V30 10044 C 945.754 -2.02 0.0637157 0
M  V30 10045 C 946.075 -1.45378 -1.29962 0
M  V30 10046 O 945.345 -0.637262 -1.85245 0
M  V30 10047 H 943.925 -0.746717 0.0205638 0
M  V30 10048 H 946.587 -1.79702 0.754544 0
M  V30 10049 H 945.683 -3.12099 -0.00770254 0
M  V30 10050 N 945.984 -0.3171 -1.54377 0
M  V30 10051 C 946.931 0.551782 -2.24107 0
M  V30 10052 C 947.901 1.11681 -1.22949 0
M  V30 10053 O 949.086 1.15836 -1.51614 0
M  V30 10054 C 946.226 1.70997 -2.99756 0
M  V30 10055 C 945.339 1.17479 -4.15719 0
M  V30 10056 C 944.474 2.29815 -4.78914 0
M  V30 10057 C 943.513 1.73513 -5.86992 0
M  V30 10058 N 942.65 2.79485 -6.44075 0
M  V30 10059 H 947.49 -0.049431 -2.97959 0
M  V30 10060 H 945.027 -0.0361658 -1.47056 0
M  V30 10061 H 946.985 2.39141 -3.41859 0
M  V30 10062 H 945.615 2.28257 -2.28251 0
M  V30 10063 H 944.667 0.385109 -3.78446 0
M  V30 10064 H 945.979 0.72276 -4.93536 0
M  V30 10065 H 945.133 3.05875 -5.23952 0
M  V30 10066 H 943.872 2.78352 -4.00464 0
M  V30 10067 H 942.877 0.959475 -5.41363 0
M  V30 10068 H 944.102 1.2586 -6.67335 0
M  V30 10069 H 942.048 3.27325 -5.68502 0
M  V30 10070 H 941.965 2.38825 -7.17286 0
M  V30 10071 H 943.233 3.55394 -6.93769 0
M  V30 10072 N 947.462 1.57535 -0.0451378 0
M  V30 10073 C 948.69 1.96761 0.639742 0
M  V30 10074 C 949.105 0.922405 1.64734 0
M  V30 10075 O 948.462 -0.0940535 1.82257 0
M  V30 10076 C 948.513 3.36066 1.33199 0
M  V30 10077 O 948.234 4.36579 0.364757 0
M  V30 10078 C 949.735 3.90015 2.1072 0
M  V30 10079 H 946.955 0.64769 0.175324 0
M  V30 10080 H 949.499 2.04206 -0.109651 0
M  V30 10081 H 947.654 3.2979 2.03266 0
M  V30 10082 H 948.068 5.17432 0.858168 0
M  V30 10083 H 949.542 4.89785 2.54586 0
M  V30 10084 H 950.019 3.25117 2.95288 0
M  V30 10085 H 950.625 3.99609 1.45577 0
M  V30 10086 N 948.94 -0.228186 1.55939 0
M  V30 10087 C 949.87 -1.28607 1.94891 0
M  V30 10088 C 950.851 -1.49236 0.816245 0
M  V30 10089 O 952.036 -1.61531 1.07803 0
M  V30 10090 C 949.166 -2.63719 2.25986 0
M  V30 10091 C 948.12 -2.57757 3.4168 0
M  V30 10092 C 947.446 -3.96837 3.58364 0
M  V30 10093 C 948.746 -2.13116 4.76843 0
M  V30 10094 H 950.44 -0.962531 2.83506 0
M  V30 10095 H 947.986 -0.461577 1.36402 0
M  V30 10096 H 949.939 -3.37878 2.51826 0
M  V30 10097 H 948.663 -2.97747 1.34217 0
M  V30 10098 H 947.322 -1.86055 3.15878 0
M  V30 10099 H 946.97 -4.28162 2.63982 0
M  V30 10100 H 946.67 -3.93731 4.36176 0
M  V30 10101 H 948.194 -4.72668 3.86545 0
M  V30 10102 H 949.608 -2.77015 5.01932 0
M  V30 10103 H 948.005 -2.21083 5.57891 0
M  V30 10104 H 949.075 -1.08326 4.72645 0
M  V30 10105 N 950.418 -1.49637 -0.494624 0
M  V30 10106 C 951.643 -1.63431 -1.27691 0
M  V30 10107 C 952.068 -0.30813 -1.85559 0
M  V30 10108 O 951.426 0.725083 -1.66169 0
M  V30 10109 C 951.474 -2.71043 -2.3784 0
M  V30 10110 O 950.578 -2.3066 -3.41862 0
M  V30 10111 H 949.919 -0.546804 -0.376698 0
M  V30 10112 H 952.449 -1.95866 -0.591413 0
M  V30 10113 H 952.459 -2.93406 -2.83508 0
M  V30 10114 H 951.134 -3.67306 -1.95088 0
M  V30 10115 H 949.711 -2.18652 -3.02069 0
M  V30 10116 N 951.896 0.746133 -1.38819 0
M  V30 10117 C 952.859 1.84167 -1.36437 0
M  V30 10118 C 953.859 1.58626 -0.263499 0
M  V30 10119 O 955.049 1.66233 -0.520801 0
M  V30 10120 C 952.181 3.21769 -1.12596 0
M  V30 10121 H 953.374 1.87684 -2.33912 0
M  V30 10122 H 950.927 0.948625 -1.24221 0
M  V30 10123 H 951.662 3.23917 -0.15758 0
M  V30 10124 H 951.447 3.41702 -1.92307 0
M  V30 10125 H 952.937 4.0184 -1.13643 0
M  V30 10126 N 953.375 1.23811 0.975125 0
M  V30 10127 C 954.305 1.04846 2.08638 0
M  V30 10128 C 955.286 -0.0362859 1.70061 0
M  V30 10129 O 956.471 0.12937 1.93769 0
M  V30 10130 C 953.601 0.644534 3.41267 0
M  V30 10131 C 952.555 1.67722 3.93768 0
M  V30 10132 C 951.881 1.12857 5.22654 0
M  V30 10133 C 953.181 3.07147 4.22443 0
M  V30 10134 H 954.875 1.97795 2.24761 0
M  V30 10135 H 952.421 0.952397 1.08006 0
M  V30 10136 H 954.374 0.498887 4.18436 0
M  V30 10137 H 953.098 -0.320641 3.25022 0
M  V30 10138 H 951.757 1.81095 3.18748 0
M  V30 10139 H 951.405 0.154227 5.02764 0
M  V30 10140 H 951.105 1.81862 5.58749 0
M  V30 10141 H 952.629 0.994891 6.0244 0
M  V30 10142 H 954.043 2.97045 4.90344 0
M  V30 10143 H 952.44 3.73437 4.6975 0
M  V30 10144 H 953.51 3.55743 3.29507 0
M  V30 10145 N 954.853 -1.17469 1.05066 0
M  V30 10146 C 956.269 -1.39699 0.771769 0
M  V30 10147 C 956.469 -1.91253 -0.634382 0
M  V30 10148 O 955.525 -2.10334 -1.39699 0
M  V30 10149 C 956.838 -2.38886 1.82631 0
M  V30 10150 C 958.386 -2.52595 1.84838 0
M  V30 10151 C 958.861 -3.55054 2.89311 0
M  V30 10152 N 960.352 -3.6257 2.88266 0
M  V30 10153 C 961.087 -4.41603 3.65752 0
M  V30 10154 N 960.583 -5.24162 4.53019 0
M  V30 10155 N 962.376 -4.36464 3.54197 0
M  V30 10156 H 954.527 -0.823355 1.95792 0
M  V30 10157 H 956.79 -0.42432 0.847736 0
M  V30 10158 H 956.496 -2.08075 2.83545 0
M  V30 10159 H 956.37 -3.38371 1.66687 0
M  V30 10160 H 958.757 -2.82717 0.845888 0
M  V30 10161 H 958.838 -1.53188 2.04859 0
M  V30 10162 H 958.482 -3.2567 3.89745 0
M  V30 10163 H 958.412 -4.54162 2.66542 0
M  V30 10164 H 960.903 -3.03625 2.24989 0
M  V30 10165 H 961.216 -5.81646 5.0883 0
M  V30 10166 H 959.561 -5.23547 4.57081 0
M  V30 10167 H 962.752 -3.7102 2.85416 0
M  V30 10168 H 962.925 -4.97814 4.14832 0
M  V30 10169 N 956.331 -0.831506 -1.3388 0
M  V30 10170 C 957.556 -0.435954 -2.02766 0
M  V30 10171 C 957.981 0.952889 -1.62178 0
M  V30 10172 O 957.339 1.62166 -0.810681 0
M  V30 10173 C 957.387 -0.555907 -3.56289 0
M  V30 10174 O 956.491 0.420826 -4.10247 0
M  V30 10175 H 955.832 -0.178248 -0.639628 0
M  V30 10176 H 958.362 -1.1243 -1.70941 0
M  V30 10177 H 958.372 -0.434831 -4.05676 0
M  V30 10178 H 957.047 -1.56881 -3.85177 0
M  V30 10179 H 955.624 0.257919 -3.72007 0
M  V30 10180 N 957.809 1.4625 -0.587256 0
M  V30 10181 C 959.22 1.85997 -0.161918 0
M  V30 10182 C 959.571 1.49025 1.27616 0
M  V30 10183 O 958.696 0.907282 1.96462 0
M  V30 10184 C 959.291 3.37582 -0.287077 0
M  V30 10185 C 957.85 3.76308 0.0834211 0
M  V30 10186 C 956.997 2.70259 -0.620932 0
M  V30 10187 H 959.948 1.3734 -0.795199 0
M  V30 10188 H 959.969 3.77379 0.486333 0
M  V30 10189 H 959.481 3.64459 -1.33383 0
M  V30 10190 H 957.582 3.55047 1.13013 0
M  V30 10191 H 957.695 4.78184 -0.296064 0
M  V30 10192 H 956.059 2.54628 -0.0607027 0
M  V30 10193 H 956.842 2.99975 -1.66942 0
M  V30 10194 N 959.287 0.325282 1.54207 0
M  V30 10195 C 960.564 -0.33113 1.92777 0
M  V30 10196 C 960.944 -1.69739 1.25506 0
M  V30 10197 O 960.292 -2.24983 0.399385 0
M  V30 10198 C 960.502 -0.421636 3.46444 0
M  V30 10199 C 961.85 -0.681111 4.19101 0
M  V30 10200 O 962.874 -0.504488 3.52609 0
M  V30 10201 O 961.733 -1.02196 5.3686 0
M  V30 10202 H 958.827 -0.18943 0.805013 0
M  V30 10203 H 961.373 0.375123 1.65502 0
M  V30 10204 H 960.145 0.537862 3.87586 0
M  V30 10205 H 959.768 -1.1754 3.79829 0
M  V30 10206 N 960.765 -1.57509 0.0534917 0
M  V30 10207 C 962.011 -1.93068 -0.62069 0
M  V30 10208 C 962.344 -0.932313 -1.70357 0
M  V30 10209 O 961.619 0.0413393 -1.94456 0
M  V30 10210 C 961.902 -3.38997 -1.21463 0
M  V30 10211 C 961.755 -4.49583 -0.13965 0
M  V30 10212 C 963.074 -3.85366 -2.12558 0
M  V30 10213 H 960.193 -0.702083 -0.224163 0
M  V30 10214 H 962.835 -1.89647 0.115729 0
M  V30 10215 H 960.985 -3.42043 -1.84226 0
M  V30 10216 H 962.657 -4.58664 0.492411 0
M  V30 10217 H 960.9 -4.30525 0.532006 0
M  V30 10218 H 961.571 -5.48781 -0.595287 0
M  V30 10219 H 964.047 -3.8421 -1.59755 0
M  V30 10220 H 962.923 -4.8812 -2.51058 0
M  V30 10221 H 963.184 -3.22256 -3.02661 0
M  V30 10222 N 962.243 0.219913 -1.56058 0
M  V30 10223 C 963.491 0.942199 -1.78793 0
M  V30 10224 C 963.812 1.84804 -0.622284 0
M  V30 10225 O 963.082 1.9255 0.360735 0
M  V30 10226 H 961.662 0.350895 -0.659455 0
M  V30 10227 H 964.324 0.231376 -1.93522 0
M  V30 10228 H 963.42 1.54804 -2.71002 0
M  V30 10229 N 963.721 1.49897 0.486681 0
M  V30 10230 C 964.651 1.7054 1.59494 0
M  V30 10231 C 965.632 0.554184 1.60819 0
M  V30 10232 O 966.817 0.791617 1.77333 0
M  V30 10233 C 963.947 1.78517 2.97908 0
M  V30 10234 C 962.901 2.93571 3.11449 0
M  V30 10235 C 962.227 2.86674 4.51356 0
M  V30 10236 C 963.527 4.34308 2.90127 0
M  V30 10237 H 965.221 2.63329 1.42472 0
M  V30 10238 H 962.767 1.2672 0.683969 0
M  V30 10239 H 964.72 1.91544 3.75352 0
M  V30 10240 H 963.444 0.823381 3.16051 0
M  V30 10241 H 962.103 2.80169 2.36433 0
M  V30 10242 H 961.751 1.88373 4.66395 0
M  V30 10243 H 961.451 3.63903 4.61355 0
M  V30 10244 H 962.975 3.01728 5.30841 0
M  V30 10245 H 964.389 4.48317 3.57331 0
M  V30 10246 H 962.786 5.12869 3.11585 0
M  V30 10247 H 963.856 4.47759 1.86119 0
M  V30 10248 N 965.199 -0.738761 1.39212 0
M  V30 10249 C 966.429 -1.5258 1.39295 0
M  V30 10250 C 966.837 -1.89194 -0.0153 0
M  V30 10251 O 966.18 -1.5435 -0.996073 0
M  V30 10252 C 966.242 -2.84462 2.19822 0
M  V30 10253 C 965.906 -2.70303 3.68491 0
M  V30 10254 C 966.903 -2.39102 4.61656 0
M  V30 10255 C 964.588 -2.87291 4.1203 0
M  V30 10256 C 966.582 -2.25066 5.96342 0
M  V30 10257 C 964.269 -2.72874 5.46793 0
M  V30 10258 C 965.267 -2.41807 6.38763 0
M  V30 10259 O 964.955 -2.27475 7.71045 0
M  V30 10260 H 964.687 -0.478236 0.477772 0
M  V30 10261 H 967.241 -0.920846 1.83602 0
M  V30 10262 H 965.471 -3.47202 1.70257 0
M  V30 10263 H 967.16 -3.46058 2.12129 0
M  V30 10264 H 967.926 -2.25632 4.2932 0
M  V30 10265 H 963.805 -3.10466 3.40781 0
M  V30 10266 H 967.349 -2.00739 6.68094 0
M  V30 10267 H 963.246 -2.85922 5.78722 0
M  V30 10268 H 964.014 -2.42574 7.81729 0
M  V30 10269 N 966.677 -1.24326 -0.968545 0
M  V30 10270 C 967.925 -1.08032 -1.70803 0
M  V30 10271 C 968.246 0.381728 -1.91227 0
M  V30 10272 O 967.516 1.27253 -1.48942 0
M  V30 10273 H 966.096 -0.396777 -0.632912 0
M  V30 10274 H 968.758 -1.56232 -1.16523 0
M  V30 10275 H 967.854 -1.57769 -2.69287 0
M  V30 10276 N 968.156 1.1691 -1.05688 0
M  V30 10277 C 969.402 1.8757 -0.771071 0
M  V30 10278 C 969.735 1.8113 0.700399 0
M  V30 10279 O 969.01 1.22273 1.5126 0
M  V30 10280 C 969.293 3.37392 -1.25851 0
M  V30 10281 C 969.146 3.52556 -2.79329 0
M  V30 10282 C 970.465 4.31585 -0.861512 0
M  V30 10283 H 967.584 0.681089 -0.281579 0
M  V30 10284 H 970.226 1.37453 -1.31174 0
M  V30 10285 H 968.376 3.80204 -0.798563 0
M  V30 10286 H 970.048 3.18725 -3.33485 0
M  V30 10287 H 968.291 2.94668 -3.1836 0
M  V30 10288 H 968.962 4.57748 -3.08498 0
M  V30 10289 H 971.438 3.96642 -1.25756 0
M  V30 10290 H 970.314 5.34939 -1.23012 0
M  V30 10291 H 970.575 4.4148 0.234089 0
M  V30 10292 N 969.634 0.838594 1.33437 0
M  V30 10293 C 970.883 0.430484 1.97053 0
M  V30 10294 C 971.196 -1.01556 1.6717 0
M  V30 10295 O 972.402 -1.52834 2.24397 0
M  V30 10296 C 970.858 0.718828 3.52648 0
M  V30 10297 C 970.466 2.17953 3.91408 0
M  V30 10298 C 972.21 0.377654 4.22817 0
M  V30 10299 C 970.117 2.41194 5.39981 0
M  V30 10300 H 969.047 0.157239 0.737422 0
M  V30 10301 H 971.698 1.02714 1.5206 0
M  V30 10302 H 970.08 0.0518042 3.95966 0
M  V30 10303 H 971.254 2.88701 3.59149 0
M  V30 10304 H 969.569 2.48366 3.34221 0
M  V30 10305 H 972.166 0.528926 5.32077 0
M  V30 10306 H 972.509 -0.679338 4.1072 0
M  V30 10307 H 973.042 0.999899 3.85028 0
M  V30 10308 H 969.781 3.45457 5.57081 0
M  V30 10309 H 969.301 1.75007 5.73701 0
M  V30 10310 H 970.98 2.24334 6.06863 0
M  V30 10311 N 971.112 -1.45937 0.595003 0
M  V30 10312 C 972.523 -1.85908 0.171779 0
M  V30 10313 C 972.874 -1.497 -1.26824 0
M  V30 10314 O 971.999 -0.917688 -1.95978 0
M  V30 10315 C 972.594 -3.37425 0.304976 0
M  V30 10316 C 971.153 -3.76346 -0.0634635 0
M  V30 10317 C 970.3 -2.69926 0.635255 0
M  V30 10318 H 973.251 -1.36916 0.802471 0
M  V30 10319 H 973.272 -3.77632 -0.466313 0
M  V30 10320 H 972.784 -3.63747 1.35314 0
M  V30 10321 H 970.885 -3.55642 -1.11129 0
M  V30 10322 H 970.998 -4.78021 0.321419 0
M  V30 10323 H 969.362 -2.54592 0.0742054 0
M  V30 10324 H 970.145 -2.99086 1.68531 0
M  V30 10325 N 972.59 -0.333456 -1.54032 0
M  V30 10326 C 973.5 0.536674 -2.28379 0
M  V30 10327 C 974.516 1.12068 -1.33104 0
M  V30 10328 O 975.692 1.13853 -1.66131 0
M  V30 10329 C 972.757 1.67677 -3.03456 0
M  V30 10330 C 971.818 1.12357 -4.14336 0
M  V30 10331 C 971.051 2.20933 -4.85823 0
M  V30 10332 O 971.274 3.41466 -4.569 0
M  V30 10333 O 970.208 1.85795 -5.72507 0
M  V30 10334 H 974.034 -0.0674003 -3.03625 0
M  V30 10335 H 971.619 -0.098823 -1.49073 0
M  V30 10336 H 973.501 2.34032 -3.50438 0
M  V30 10337 H 972.176 2.26684 -2.31076 0
M  V30 10338 H 971.083 0.424827 -3.7168 0
M  V30 10339 H 972.416 0.578497 -4.88789 0
M  V30 10340 N 974.068 1.57479 -0.061844 0
M  V30 10341 C 975.308 1.94982 0.613309 0
M  V30 10342 C 975.672 0.940729 1.67375 0
M  V30 10343 O 976.873 1.20307 2.40374 0
M  V30 10344 C 975.144 3.37208 1.18429 0
M  V30 10345 S 976.703 3.96678 1.87596 0
M  V30 10346 H 973.521 0.681969 0.201096 0
M  V30 10347 H 976.123 1.95045 -0.133328 0
M  V30 10348 H 974.827 4.08441 0.400522 0
M  V30 10349 H 974.358 3.40665 1.96751 0
M  V30 10350 H 976.373 3.82772 3.15754 0
M  V30 10351 N 975.546 -0.211634 1.56173 0
M  V30 10352 C 976.794 -0.932704 1.7929 0
M  V30 10353 C 977.115 -1.84472 0.632076 0
M  V30 10354 O 976.385 -1.92739 -0.350519 0
M  V30 10355 H 974.965 -0.347393 0.661307 0
M  V30 10356 H 977.627 -0.22111 1.93642 0
M  V30 10357 H 976.723 -1.53365 2.71819 0
M  V30 10358 N 977.024 -1.50153 -0.478725 0
M  V30 10359 C 977.934 -1.71232 -1.60364 0
M  V30 10360 C 978.95 -0.595269 -1.63501 0
M  V30 10361 O 980.126 -0.872683 -1.81511 0
M  V30 10362 C 977.191 -1.79487 -2.96623 0
M  V30 10363 C 976.252 -3.03185 -3.03937 0
M  V30 10364 C 975.485 -3.11036 -4.33696 0
M  V30 10365 O 975.708 -2.2588 -5.23769 0
M  V30 10366 O 974.642 -4.03698 -4.46443 0
M  V30 10367 H 978.468 -2.66575 -1.45505 0
M  V30 10368 H 976.053 -1.34158 -0.65741 0
M  V30 10369 H 977.935 -1.8714 -3.77567 0
M  V30 10370 H 976.61 -0.873264 -3.11698 0
M  V30 10371 H 975.517 -3.01036 -2.22099 0
M  V30 10372 H 976.85 -3.94898 -2.93796 0
M  V30 10373 N 978.502 0.731368 -1.39602 0
M  V30 10374 C 979.73 1.52059 -1.40305 0
M  V30 10375 C 980.145 1.888 0.00147921 0
M  V30 10376 O 979.502 1.54354 0.973715 0
M  V30 10377 C 979.553 2.80588 -2.27931 0
M  V30 10378 O 979.274 2.45406 -3.62915 0
M  V30 10379 C 980.775 3.74592 -2.37056 0
M  V30 10380 H 977.995 0.469787 -0.479104 0
M  V30 10381 H 980.539 0.903436 -1.83462 0
M  V30 10382 H 978.694 3.38626 -1.88178 0
M  V30 10383 H 979.108 3.27996 -4.09291 0
M  V30 10384 H 980.582 4.61662 -3.02609 0
M  V30 10385 H 981.059 4.16597 -1.39081 0
M  V30 10386 H 981.665 3.22471 -2.77295 0
M  V30 10387 N 979.98 1.24838 0.961938 0
M  V30 10388 C 981.21 1.11709 1.73795 0
M  V30 10389 C 981.618 -0.33263 1.86253 0
M  V30 10390 O 980.961 -1.24101 1.35443 0
M  V30 10391 C 981.023 1.68959 3.17322 0
M  V30 10392 C 980.687 3.17895 3.28316 0
M  V30 10393 C 981.684 4.14975 3.13196 0
M  V30 10394 C 979.369 3.57966 3.52372 0
M  V30 10395 C 981.363 5.50107 3.21965 0
M  V30 10396 C 979.05 4.93237 3.60778 0
M  V30 10397 C 980.048 5.89116 3.45588 0
M  V30 10398 O 979.736 7.21927 3.53662 0
M  V30 10399 H 979.468 0.390726 0.551642 0
M  V30 10400 H 982.022 1.65541 1.21594 0
M  V30 10401 H 980.252 1.09567 3.70853 0
M  V30 10402 H 981.941 1.51036 3.76753 0
M  V30 10403 H 982.707 3.85359 2.94489 0
M  V30 10404 H 978.586 2.83837 3.63259 0
M  V30 10405 H 982.13 6.24924 3.10025 0
M  V30 10406 H 978.027 5.22522 3.79 0
M  V30 10407 H 978.795 7.29925 3.7034 0
M  V30 10408 N 981.458 -1.16348 1.06306 0
M  V30 10409 C 982.408 -2.18717 0.643947 0
M  V30 10410 C 983.392 -1.57574 -0.325445 0
M  V30 10411 O 984.584 -1.76439 -0.140868 0
M  V30 10412 C 981.713 -3.43285 0.0320266 0
M  V30 10413 C 980.799 -4.11504 1.02592 0
M  V30 10414 N 981.19 -4.55374 2.20155 0
M  V30 10415 C 979.488 -4.37691 0.856887 0
M  V30 10416 C 980.189 -5.08149 2.83124 0
M  V30 10417 N 979.165 -5.01042 2.10851 0
M  V30 10418 H 982.967 -2.50353 1.53951 0
M  V30 10419 H 980.481 -1.328 0.934763 0
M  V30 10420 H 982.478 -4.15917 -0.286064 0
M  V30 10421 H 981.138 -3.13137 -0.858786 0
M  V30 10422 H 982.149 -4.49101 2.57931 0
M  V30 10423 H 978.826 -4.17496 0.0180742 0
M  V30 10424 H 980.216 -5.52131 3.82885 0
M  V30 10425 N 982.937 -0.845659 -1.3299 0
M  V30 10426 C 984.162 -0.457435 -2.02293 0
M  V30 10427 C 984.587 0.935634 -1.63179 0
M  V30 10428 O 983.945 1.61297 -0.827835 0
M  V30 10429 C 983.993 -0.593665 -3.5568 0
M  V30 10430 O 983.097 0.37729 -4.10671 0
M  V30 10431 H 982.438 -0.185022 -0.637701 0
M  V30 10432 H 984.968 -1.14237 -1.69738 0
M  V30 10433 H 984.978 -0.477834 -4.05192 0
M  V30 10434 H 983.653 -1.60957 -3.83491 0
M  V30 10435 H 982.23 0.218448 -3.7226 0
M  V30 10436 N 984.415 1.45619 -0.602734 0
M  V30 10437 C 985.692 1.9558 -0.0282472 0
M  V30 10438 C 986.072 1.54523 1.43826 0
M  V30 10439 O 985.42 0.805456 2.13833 0
M  V30 10440 C 985.63 3.48298 -0.221263 0
M  V30 10441 C 986.978 4.24483 -0.0995249 0
M  V30 10442 O 988.002 3.55879 -0.151132 0
M  V30 10443 O 986.861 5.46497 0.0194454 0
M  V30 10444 H 983.955 0.826104 0.0384897 0
M  V30 10445 H 986.501 1.55808 -0.672456 0
M  V30 10446 H 985.273 3.71134 -1.23997 0
M  V30 10447 H 984.896 3.94948 0.458437 0
M  V30 10448 N 985.893 0.34162 1.53853 0
M  V30 10449 C 986.823 -0.508431 2.27897 0
M  V30 10450 C 987.804 -1.10425 1.29384 0
M  V30 10451 O 988.989 -1.126 1.58224 0
M  V30 10452 C 986.119 -1.66048 3.05034 0
M  V30 10453 C 985.073 -1.19309 4.11035 0
M  V30 10454 C 984.399 -2.4335 4.76114 0
M  V30 10455 C 985.699 -0.294952 5.21467 0
M  V30 10456 H 987.393 0.109251 2.99201 0
M  V30 10457 H 984.939 0.0539847 1.43899 0
M  V30 10458 H 986.892 -2.26158 3.5557 0
M  V30 10459 H 985.616 -2.30503 2.31379 0
M  V30 10460 H 984.275 -0.614809 3.61408 0
M  V30 10461 H 983.923 -3.06208 3.99056 0
M  V30 10462 H 983.623 -2.1276 5.47729 0
M  V30 10463 H 985.147 -3.0419 5.29434 0
M  V30 10464 H 986.561 -0.80285 5.67651 0
M  V30 10465 H 984.958 -0.0810221 6.00045 0
M  V30 10466 H 986.028 0.669433 4.80257 0
M  V30 10467 N 987.371 -1.57444 0.0701946 0
M  V30 10468 C 988.334 -2.11511 -0.882923 0
M  V30 10469 C 989.334 -1.03879 -1.22743 0
M  V30 10470 O 990.524 -1.29874 -1.16097 0
M  V30 10471 C 987.656 -2.61514 -2.18686 0
M  V30 10472 H 988.849 -2.9703 -0.413873 0
M  V30 10473 H 986.402 -1.55278 -0.178488 0
M  V30 10474 H 987.137 -1.79443 -2.70131 0
M  V30 10475 H 986.922 -3.40185 -1.94978 0
M  V30 10476 H 988.412 -3.03425 -2.86919 0
M  V30 10477 N 988.849 0.203349 -1.56283 0
M  V30 10478 C 989.759 1.27266 -1.9708 0
M  V30 10479 C 990.775 1.50268 -0.877236 0
M  V30 10480 O 991.951 1.63044 -1.18231 0
M  V30 10481 C 989.016 2.59871 -2.29495 0
M  V30 10482 C 988.077 2.45012 -3.52516 0
M  V30 10483 C 987.31 3.71293 -3.83376 0
M  V30 10484 O 987.533 4.75106 -3.15643 0
M  V30 10485 O 986.467 3.67316 -4.76826 0
M  V30 10486 H 990.293 0.956461 -2.88246 0
M  V30 10487 H 987.878 0.407688 -1.4373 0
M  V30 10488 H 989.76 3.38152 -2.51458 0
M  V30 10489 H 988.435 2.91135 -1.415 0
M  V30 10490 H 987.342 1.6487 -3.35811 0
M  V30 10491 H 988.675 2.18683 -4.40952 0
M  V30 10492 N 990.327 1.50405 0.470755 0
M  V30 10493 C 991.29 1.68741 1.5511 0
M  V30 10494 C 992.29 0.558116 1.50804 0
M  V30 10495 O 993.48 0.825149 1.53418 0
M  V30 10496 C 990.612 1.71295 2.94739 0
M  V30 10497 H 991.805 2.65127 1.40169 0
M  V30 10498 H 989.358 1.39891 0.697156 0
M  V30 10499 H 990.093 0.766029 3.15123 0
M  V30 10500 H 989.878 2.53336 2.99271 0
M  V30 10501 H 991.368 1.87434 3.73173 0
M  V30 10502 N 991.805 -0.723954 1.39988 0
M  V30 10503 C 992.752 -1.83803 1.39589 0
M  V30 10504 C 993.722 -1.64146 0.253996 0
M  V30 10505 O 994.907 -1.85398 0.450793 0
M  V30 10506 C 992.047 -3.21431 1.25604 0
M  V30 10507 C 991.16 -3.52717 2.49429 0
M  V30 10508 C 990.295 -4.79805 2.27949 0
M  V30 10509 C 989.334 -5.03968 3.47394 0
M  V30 10510 N 988.471 -6.22266 3.25161 0
M  V30 10511 H 993.311 -1.83479 2.34818 0
M  V30 10512 H 990.848 -0.896396 1.16633 0
M  V30 10513 H 992.806 -4.00892 1.15504 0
M  V30 10514 H 991.436 -3.21005 0.339986 0
M  V30 10515 H 990.488 -2.67872 2.7009 0
M  V30 10516 H 991.8 -3.66486 3.38363 0
M  V30 10517 H 990.954 -5.67268 2.15155 0
M  V30 10518 H 989.693 -4.68229 1.36428 0
M  V30 10519 H 988.698 -4.14963 3.60674 0
M  V30 10520 H 989.923 -5.17422 4.39831 0
M  V30 10521 H 987.869 -6.11957 2.36314 0
M  V30 10522 H 987.786 -6.36673 4.07656 0
M  V30 10523 H 989.054 -7.12539 3.16083 0
M  V30 10524 N 993.283 -1.25346 -0.955304 0
M  V30 10525 C 994.23 -1.05672 -2.05188 0
M  V30 10526 C 995.2 0.0339217 -1.66065 0
M  V30 10527 O 996.385 -0.123126 -1.90402 0
M  V30 10528 C 993.525 -0.680791 -3.38318 0
M  V30 10529 C 992.638 -1.84622 -3.90562 0
M  V30 10530 C 991.773 -1.41471 -5.12015 0
M  V30 10531 C 990.812 -2.54931 -5.56486 0
M  V30 10532 N 989.949 -2.1256 -6.69151 0
M  V30 10533 H 994.789 -1.9952 -2.2135 0
M  V30 10534 H 992.326 -0.993588 -1.08472 0
M  V30 10535 H 994.284 -0.443794 -4.14833 0
M  V30 10536 H 992.914 0.2207 -3.22045 0
M  V30 10537 H 991.966 -2.19654 -3.10574 0
M  V30 10538 H 993.278 -2.6983 -4.19515 0
M  V30 10539 H 992.432 -1.13732 -5.95945 0
M  V30 10540 H 991.171 -0.533334 -4.84775 0
M  V30 10541 H 990.176 -2.83415 -4.71122 0
M  V30 10542 H 991.401 -3.43645 -5.85734 0
M  V30 10543 H 989.347 -1.26838 -6.43621 0
M  V30 10544 H 989.264 -2.91317 -6.97618 0
M  V30 10545 H 990.532 -1.87996 -7.5649 0
M  V30 10546 N 994.761 1.15782 -1.06922 0
M  V30 10547 C 995.708 2.2038 -0.685659 0
M  V30 10548 C 996.678 1.62972 0.320816 0
M  V30 10549 O 997.863 1.8966 0.208258 0
M  V30 10550 C 995.003 3.44995 -0.084998 0
M  V30 10551 C 994.116 4.16621 -1.14242 0
M  V30 10552 C 993.251 5.28773 -0.507226 0
M  V30 10553 C 992.29 5.92209 -1.54774 0
M  V30 10554 N 991.427 6.9584 -0.935443 0
M  V30 10555 H 996.267 2.5254 -1.58201 0
M  V30 10556 H 993.804 1.24031 -0.790864 0
M  V30 10557 H 995.762 4.16254 0.280845 0
M  V30 10558 H 994.392 3.13365 0.774725 0
M  V30 10559 H 993.444 3.43903 -1.62589 0
M  V30 10560 H 994.756 4.59884 -1.93154 0
M  V30 10561 H 993.91 6.06635 -0.0887719 0
M  V30 10562 H 992.649 4.8669 0.313704 0
M  V30 10563 H 991.654 5.13063 -1.97602 0
M  V30 10564 H 992.879 6.3637 -2.37088 0
M  V30 10565 H 990.825 6.5586 -0.135339 0
M  V30 10566 H 990.742 7.37508 -1.66186 0
M  V30 10567 H 992.01 7.77611 -0.542346 0
M  V30 10568 N 996.239 0.8527 1.3254 0
M  V30 10569 C 997.186 0.293905 2.28921 0
M  V30 10570 C 998.156 -0.598027 1.54961 0
M  V30 10571 O 999.341 -0.533355 1.83194 0
M  V30 10572 C 996.481 -0.513361 3.4126 0
M  V30 10573 C 995.594 0.404144 4.30105 0
M  V30 10574 C 994.729 -0.415564 5.29572 0
M  V30 10575 C 993.768 0.499461 6.10059 0
M  V30 10576 N 992.905 -0.282949 7.0153 0
M  V30 10577 H 997.745 1.12107 2.76109 0
M  V30 10578 H 995.282 0.564272 1.35847 0
M  V30 10579 H 997.24 -0.997008 4.05112 0
M  V30 10580 H 995.87 -1.30537 2.95229 0
M  V30 10581 H 994.922 1.00617 3.66852 0
M  V30 10582 H 996.234 1.10648 4.86373 0
M  V30 10583 H 995.388 -0.962458 5.99017 0
M  V30 10584 H 994.127 -1.15127 4.73917 0
M  V30 10585 H 993.132 1.05825 5.39519 0
M  V30 10586 H 994.357 1.23375 6.67799 0
M  V30 10587 H 992.303 -1.00179 6.48306 0
M  V30 10588 H 992.22 0.36039 7.55141 0
M  V30 10589 H 993.488 -0.811632 7.75263 0
M  V30 10590 N 997.718 -1.45297 0.610449 0
M  V30 10591 C 998.648 -2.33311 -0.0939698 0
M  V30 10592 C 999.629 -1.46999 -0.85588 0
M  V30 10593 O 1000.81 -1.75764 -0.825865 0
M  V30 10594 C 997.944 -3.29751 -1.09003 0
M  V30 10595 C 996.898 -4.2572 -0.441146 0
M  V30 10596 C 996.224 -5.11873 -1.54566 0
M  V30 10597 C 997.524 -5.1837 0.639489 0
M  V30 10598 H 999.218 -2.92459 0.640941 0
M  V30 10599 H 996.764 -1.40631 0.309675 0
M  V30 10600 H 998.717 -3.90195 -1.59141 0
M  V30 10601 H 997.441 -2.68768 -1.85557 0
M  V30 10602 H 996.1 -3.66579 0.0393908 0
M  V30 10603 H 995.748 -4.47256 -2.30155 0
M  V30 10604 H 995.448 -5.76886 -1.11698 0
M  V30 10605 H 996.972 -5.75185 -2.04925 0
M  V30 10606 H 998.386 -5.7287 0.22207 0
M  V30 10607 H 996.783 -5.91876 0.990089 0
M  V30 10608 H 997.853 -4.60627 1.51495 0
M  V30 10609 N 999.196 -0.349774 -1.5367 0
M  V30 10610 C 1000.16 0.491676 -2.23864 0
M  V30 10611 C 1001.16 1.02256 -1.24098 0
M  V30 10612 O 1002.35 0.910816 -1.48492 0
M  V30 10613 C 999.481 1.68557 -2.96313 0
M  V30 10614 H 1000.67 -0.12233 -2.9965 0
M  V30 10615 H 998.227 -0.101214 -1.55972 0
M  V30 10616 H 998.962 2.3381 -2.2473 0
M  V30 10617 H 998.747 1.31203 -3.69497 0
M  V30 10618 H 1000.24 2.28225 -3.49718 0
M  V30 10619 N 1000.67 1.57404 -0.0785433 0
M  V30 10620 C 1001.92 1.94031 0.589896 0
M  V30 10621 C 1002.25 0.959297 1.68852 0
M  V30 10622 O 1001.53 -0.0103978 1.94497 0
M  V30 10623 C 1001.81 3.40886 1.16055 0
M  V30 10624 C 1001.66 4.49748 0.0681072 0
M  V30 10625 C 1002.98 3.88699 2.06401 0
M  V30 10626 H 1000.1 0.70556 0.212965 0
M  V30 10627 H 1002.74 1.89439 -0.145886 0
M  V30 10628 H 1000.89 3.4493 1.78761 0
M  V30 10629 H 1002.57 4.57823 -0.565318 0
M  V30 10630 H 1000.81 4.29625 -0.600431 0
M  V30 10631 H 1001.48 5.49658 0.507906 0
M  V30 10632 H 1003.96 3.86703 1.53622 0
M  V30 10633 H 1002.83 4.92052 2.43261 0
M  V30 10634 H 1003.09 3.2703 2.97496 0
M  V30 10635 N 1002.15 -0.195058 1.56388 0
M  V30 10636 C 1003.4 -0.913636 1.8027 0
M  V30 10637 C 1003.72 -1.83791 0.651606 0
M  V30 10638 O 1002.99 -1.931 -0.330057 0
M  V30 10639 H 1001.57 -0.34036 0.664954 0
M  V30 10640 H 1004.23 -0.200559 1.93865 0
M  V30 10641 H 1003.33 -1.50473 2.7343 0
M  V30 10642 N 1003.63 -1.50653 -0.462772 0
M  V30 10643 C 1004.91 -1.5258 -1.22387 0
M  V30 10644 C 1005.29 -0.275263 -2.09298 0
M  V30 10645 O 1004.63 0.740943 -2.16153 0
M  V30 10646 C 1004.84 -2.82611 -2.04773 0
M  V30 10647 C 1006.19 -3.33592 -2.62681 0
M  V30 10648 O 1007.22 -2.83989 -2.15008 0
M  V30 10649 O 1006.08 -4.20081 -3.49563 0
M  V30 10650 H 1003.17 -0.612367 -0.55582 0
M  V30 10651 H 1005.72 -1.62948 -0.473914 0
M  V30 10652 H 1004.49 -3.65098 -1.40781 0
M  V30 10653 H 1004.11 -2.75286 -2.86886 0
M  V30 10654 N 1005.11 0.71652 -1.4037 0
M  V30 10655 C 1006.06 1.85194 -1.40734 0
M  V30 10656 C 1007.05 1.66934 -0.287969 0
M  V30 10657 O 1008.26 1.74051 -0.458957 0
M  V30 10658 H 1004.63 0.609922 -0.439885 0
M  V30 10659 H 1006.6 1.82003 -2.36468 0
M  V30 10660 C 1005.35 3.23048 -1.28589 0
M  V30 10661 H 1004.67 3.37704 -2.13999 0
M  V30 10662 H 1006.11 4.02633 -1.32902 0
M  V30 10663 C 1004.57 3.369 0.00396512 0
M  V30 10664 O 1005.1 3.89881 0.967243 0
M  V30 10665 N 1003.31 2.90508 0.0731565 0
M  V30 10666 H 1002.86 2.4758 -0.711454 0
M  V30 10667 H 1002.81 3.00155 0.935652 0
M  V30 10668 N 1006.59 1.25851 0.948643 0
M  V30 10669 C 1007.53 1.06559 2.06756 0
M  V30 10670 C 1008.53 -0.00528632 1.69399 0
M  V30 10671 O 1009.73 0.150806 1.79367 0
M  V30 10672 H 1006.11 0.327689 0.676848 0
M  V30 10673 H 1008.08 2.01401 2.20182 0
M  V30 10674 C 1006.83 0.707392 3.40428 0
M  V30 10675 H 1006.15 1.52324 3.69645 0
M  V30 10676 H 1007.59 0.612142 4.19558 0
M  V30 10677 C 1006.05 -0.58697 3.31747 0
M  V30 10678 O 1006.58 -1.62741 3.67258 0
M  V30 10679 N 1004.79 -0.574828 2.84858 0
M  V30 10680 H 1004.33 0.272236 2.56157 0
M  V30 10681 H 1004.29 -1.441 2.79432 0
M  V30 10682 N 1008.06 -1.15214 1.07534 0
M  V30 10683 C 1009.29 -1.90463 0.820883 0
M  V30 10684 C 1009.71 -1.77578 -0.620305 0
M  V30 10685 O 1009.07 -1.10976 -1.43366 0
M  V30 10686 C 1009.12 -3.38746 1.23627 0
M  V30 10687 O 1008.22 -4.1062 0.382715 0
M  V30 10688 H 1007.57 -0.59292 0.298901 0
M  V30 10689 H 1010.1 -1.45893 1.43445 0
M  V30 10690 H 1010.11 -3.89543 1.21327 0
M  V30 10691 H 1008.78 -3.47443 2.28596 0
M  V30 10692 H 1007.36 -3.69947 0.468374 0
M  V30 10693 N 1009.54 -0.859717 -1.32086 0
M  V30 10694 C 1010.49 -0.306042 -2.28762 0
M  V30 10695 C 1011.46 0.589801 -1.55276 0
M  V30 10696 O 1012.64 0.523633 -1.83474 0
M  V30 10697 C 1009.78 0.495256 -3.41528 0
M  V30 10698 C 1008.9 -0.426947 -4.29885 0
M  V30 10699 C 1008.03 0.387474 -5.29785 0
M  V30 10700 C 1007.07 -0.531807 -6.09785 0
M  V30 10701 N 1006.21 0.245741 -7.0167 0
M  V30 10702 H 1011.05 -1.1357 -2.7551 0
M  V30 10703 H 1008.59 -0.571468 -1.35546 0
M  V30 10704 H 1010.54 0.97551 -4.05635 0
M  V30 10705 H 1009.17 1.28969 -2.95917 0
M  V30 10706 H 1008.23 -1.02561 -3.66313 0
M  V30 10707 H 1009.54 -1.13226 -4.85779 0
M  V30 10708 H 1008.69 0.930677 -5.99519 0
M  V30 10709 H 1007.43 1.12612 -4.74521 0
M  V30 10710 H 1006.44 -1.08685 -5.3895 0
M  V30 10711 H 1007.66 -1.26915 -6.67135 0
M  V30 10712 H 1005.61 0.967391 -6.48828 0
M  V30 10713 H 1005.52 -0.400432 -7.54939 0
M  V30 10714 H 1006.79 0.770507 -7.75683 0
M  V30 10715 N 1011.02 1.44971 -0.618145 0
M  V30 10716 C 1012.27 2.03009 -0.126125 0
M  V30 10717 C 1012.62 1.47656 1.23351 0
M  V30 10718 O 1011.91 0.645901 1.80385 0
M  V30 10719 C 1012.11 3.57378 -0.0394861 0
M  V30 10720 C 1011.94 4.27706 -1.38918 0
M  V30 10721 C 1010.71 4.65206 -1.97261 0
M  V30 10722 C 1012.91 4.58987 -2.32024 0
M  V30 10723 N 1010.89 5.2044 -3.256 0
M  V30 10724 C 1012.26 5.15167 -3.44969 0
M  V30 10725 C 1014.31 4.40932 -2.31265 0
M  V30 10726 C 1013.02 5.55193 -4.57333 0
M  V30 10727 C 1015.04 4.81997 -3.42684 0
M  V30 10728 C 1014.4 5.38279 -4.54352 0
M  V30 10729 H 1010.5 0.77683 -0.0897695 0
M  V30 10730 H 1013.09 1.76646 -0.818805 0
M  V30 10731 H 1011.26 3.8338 0.622441 0
M  V30 10732 H 1012.99 4.02075 0.460165 0
M  V30 10733 H 1009.75 4.49102 -1.50348 0
M  V30 10734 H 1010.17 5.52546 -3.9118 0
M  V30 10735 H 1014.81 3.96723 -1.46187 0
M  V30 10736 H 1012.53 5.98362 -5.43128 0
M  V30 10737 H 1016.12 4.69751 -3.43257 0
M  V30 10738 H 1015 5.6947 -5.39142 0
M  V30 10739 N 1012.5 0.357919 1.53482 0
M  V30 10740 C 1013.74 -0.23451 2.0144 0
M  V30 10741 C 1014.08 -1.49044 1.24497 0
M  V30 10742 O 1013.35 -1.91566 0.336535 0
M  V30 10743 C 1013.64 -0.534193 3.56116 0
M  V30 10744 C 1013.49 0.734834 4.43757 0
M  V30 10745 C 1014.81 -1.33793 4.1927 0
M  V30 10746 H 1011.93 -0.0837595 0.732225 0
M  V30 10747 H 1014.57 0.481297 1.83803 0
M  V30 10748 H 1012.72 -1.144 3.71275 0
M  V30 10749 H 1014.39 1.37251 4.40409 0
M  V30 10750 H 1012.63 1.35678 4.12036 0
M  V30 10751 H 1013.3 0.48021 5.49907 0
M  V30 10752 H 1015.78 -0.822158 4.07897 0
M  V30 10753 H 1014.66 -1.51636 5.27539 0
M  V30 10754 H 1014.92 -2.34423 3.74831 0
M  V30 10755 N 1013.98 -1.5736 0.0868897 0
M  V30 10756 C 1014.92 -2.13571 -0.874996 0
M  V30 10757 C 1015.89 -1.0521 -1.2853 0
M  V30 10758 O 1017.08 -1.32954 -1.3685 0
M  V30 10759 C 1014.22 -2.71386 -2.13175 0
M  V30 10760 C 1013.33 -3.93953 -1.77272 0
M  V30 10761 C 1012.47 -4.3996 -2.97671 0
M  V30 10762 C 1011.51 -5.55137 -2.57856 0
M  V30 10763 N 1010.64 -5.96034 -3.71064 0
M  V30 10764 H 1015.48 -2.95453 -0.388789 0
M  V30 10765 H 1013.02 -1.45992 -0.180242 0
M  V30 10766 H 1014.98 -3.03022 -2.86764 0
M  V30 10767 H 1013.61 -1.92245 -2.5931 0
M  V30 10768 H 1012.66 -3.68683 -0.936845 0
M  V30 10769 H 1013.97 -4.77565 -1.43989 0
M  V30 10770 H 1013.13 -4.73337 -3.79522 0
M  V30 10771 H 1011.86 -3.55232 -3.34158 0
M  V30 10772 H 1010.87 -5.21397 -1.7443 0
M  V30 10773 H 1012.09 -6.41608 -2.22522 0
M  V30 10774 H 1010.04 -5.14253 -4.07284 0
M  V30 10775 H 1009.96 -6.74423 -3.41599 0
M  V30 10776 H 1011.23 -6.34038 -4.53449 0
M  V30 10777 N 1015.45 0.186762 -1.56489 0
M  V30 10778 C 1016.4 1.2357 -1.9161 0
M  V30 10779 C 1017.39 1.4058 -0.782686 0
M  V30 10780 O 1018.58 1.42811 -1.04566 0
M  V30 10781 C 1015.71 2.57865 -2.26628 0
M  V30 10782 C 1014.8 2.44613 -3.46447 0
M  V30 10783 N 1015.19 2.01052 -4.64125 0
M  V30 10784 C 1013.48 2.75483 -3.50749 0
M  V30 10785 C 1014.19 1.99891 -5.46277 0
M  V30 10786 N 1013.16 2.41711 -4.86905 0
M  V30 10787 H 1016.96 0.890359 -2.80089 0
M  V30 10788 H 1014.48 0.395144 -1.57519 0
M  V30 10789 H 1016.47 3.33642 -2.49977 0
M  V30 10790 H 1015.13 2.93215 -1.39481 0
M  V30 10791 H 1016.15 1.7163 -4.88634 0
M  V30 10792 H 1012.82 3.14974 -2.7404 0
M  V30 10793 H 1014.21 1.68042 -6.50547 0
M  V30 10794 N 1016.93 1.50896 0.454776 0
M  V30 10795 C 1018.18 1.63905 1.20444 0
M  V30 10796 C 1018.53 0.342692 1.89323 0
M  V30 10797 O 1017.83 -0.660465 1.79857 0
M  V30 10798 C 1018.02 2.76839 2.26042 0
M  V30 10799 C 1017.85 4.17332 1.67524 0
M  V30 10800 C 1016.62 4.83512 1.46779 0
M  V30 10801 C 1018.82 5.01022 1.1611 0
M  V30 10802 N 1016.8 6.08171 0.83675 0
M  V30 10803 C 1018.17 6.16538 0.654283 0
M  V30 10804 C 1020.23 4.86677 1.05119 0
M  V30 10805 C 1018.93 7.19284 0.0483821 0
M  V30 10806 C 1020.95 5.89614 0.459211 0
M  V30 10807 C 1020.32 7.0439 -0.0371476 0
M  V30 10808 H 1016.42 0.653802 0.42903 0
M  V30 10809 H 1019 1.88069 0.503783 0
M  V30 10810 H 1017.17 2.54369 2.93515 0
M  V30 10811 H 1018.9 2.7912 2.93043 0
M  V30 10812 H 1015.66 4.41082 1.72464 0
M  V30 10813 H 1016.08 6.7485 0.539176 0
M  V30 10814 H 1020.72 3.98211 1.42085 0
M  V30 10815 H 1018.44 8.07412 -0.333438 0
M  V30 10816 H 1022.03 5.80582 0.376315 0
M  V30 10817 H 1020.91 7.8268 -0.488035 0
M  V30 10818 N 1018.41 -0.709066 1.40748 0
M  V30 10819 C 1019.66 -1.47119 1.39585 0
M  V30 10820 C 1019.99 -1.942 0.000245323 0
M  V30 10821 O 1019.26 -1.68609 -0.969593 0
M  V30 10822 C 1019.55 -2.69266 2.39099 0
M  V30 10823 C 1019.4 -2.28037 3.8771 0
M  V30 10824 C 1020.72 -3.71438 2.36055 0
M  V30 10825 H 1017.84 -0.533632 0.508336 0
M  V30 10826 H 1020.48 -0.808718 1.7193 0
M  V30 10827 H 1018.63 -3.25788 2.11647 0
M  V30 10828 H 1020.3 -1.76946 4.26014 0
M  V30 10829 H 1018.55 -1.59966 4.03229 0
M  V30 10830 H 1019.22 -3.15621 4.52866 0
M  V30 10831 H 1021.69 -3.24559 2.60385 0
M  V30 10832 H 1020.57 -4.54532 3.07721 0
M  V30 10833 H 1020.83 -4.20193 1.37443 0
M  V30 10834 N 1019.89 -1.26353 -0.941956 0
M  V30 10835 C 1020.84 -1.07842 -2.04056 0
M  V30 10836 C 1021.81 0.0163064 -1.66092 0
M  V30 10837 O 1022.99 -0.143313 -1.90261 0
M  V30 10838 C 1020.13 -0.716636 -3.37577 0
M  V30 10839 C 1019.24 -1.88754 -3.88582 0
M  V30 10840 C 1018.38 -1.46893 -5.10486 0
M  V30 10841 C 1017.42 -2.60819 -5.53751 0
M  V30 10842 N 1016.56 -2.19646 -6.66858 0
M  V30 10843 H 1021.4 -2.01856 -2.19221 0
M  V30 10844 H 1018.93 -1.00504 -1.07412 0
M  V30 10845 H 1020.89 -0.487768 -4.14339 0
M  V30 10846 H 1019.52 0.18653 -3.22261 0
M  V30 10847 H 1018.57 -2.22936 -3.08227 0
M  V30 10848 H 1019.88 -2.74264 -4.1663 0
M  V30 10849 H 1019.04 -1.20047 -5.94705 0
M  V30 10850 H 1017.78 -0.584721 -4.84182 0
M  V30 10851 H 1016.78 -2.88396 -4.6809 0
M  V30 10852 H 1018.01 -3.49838 -5.82057 0
M  V30 10853 H 1015.95 -1.33657 -6.4224 0
M  V30 10854 H 1015.87 -2.987 -6.94489 0
M  V30 10855 H 1017.14 -1.96009 -7.54454 0
M  V30 10856 N 1021.37 1.14642 -1.08144 0
M  V30 10857 C 1022.62 1.8525 -0.807885 0
M  V30 10858 C 1022.94 1.83194 0.668213 0
M  V30 10859 O 1022.21 1.27848 1.48431 0
M  V30 10860 H 1020.79 0.685909 -0.295868 0
M  V30 10861 H 1023.45 1.38935 -1.36686 0
M  V30 10862 H 1022.54 2.90155 -1.14964 0
M  V30 10863 N 1022.85 0.866709 1.31628 0
M  V30 10864 C 1024.09 0.475086 1.96437 0
M  V30 10865 C 1024.41 -0.975179 1.68865 0
M  V30 10866 O 1023.68 -1.68317 1.0023 0
M  V30 10867 H 1022.26 0.172695 0.726764 0
M  V30 10868 H 1024.93 1.10578 1.60494 0
M  V30 10869 H 1024.02 0.630123 3.05673 0
M  V30 10870 N 1024.32 -1.44642 0.625825 0
M  V30 10871 C 1025.55 -2.06159 0.13492 0
M  V30 10872 C 1025.96 -1.46801 -1.19357 0
M  V30 10873 O 1025.3 -0.583345 -1.74192 0
M  V30 10874 C 1025.37 -3.5945 -0.0598481 0
M  V30 10875 C 1025.03 -4.41244 1.18965 0
M  V30 10876 C 1026.03 -4.75064 2.11212 0
M  V30 10877 C 1023.71 -4.81705 1.42359 0
M  V30 10878 C 1025.71 -5.48221 3.25165 0
M  V30 10879 C 1023.39 -5.54612 2.5661 0
M  V30 10880 C 1024.39 -5.87789 3.4784 0
M  V30 10881 O 1024.08 -6.59213 4.60101 0
M  V30 10882 H 1023.81 -0.671888 0.0744464 0
M  V30 10883 H 1026.37 -1.86586 0.858775 0
M  V30 10884 H 1024.6 -3.77493 -0.838792 0
M  V30 10885 H 1026.28 -4.02751 -0.504639 0
M  V30 10886 H 1027.05 -4.44348 1.94371 0
M  V30 10887 H 1022.93 -4.55305 0.722401 0
M  V30 10888 H 1026.47 -5.74035 3.96396 0
M  V30 10889 H 1022.37 -5.84743 2.73396 0
M  V30 10890 H 1023.14 -6.77678 4.59015 0
M  V30 10891 N 1025.8 -0.366053 -1.5329 0
M  V30 10892 C 1027.03 0.22391 -2.05383 0
M  V30 10893 C 1027.44 1.42962 -1.23929 0
M  V30 10894 O 1026.78 1.81659 -0.273072 0
M  V30 10895 C 1026.84 0.681038 -3.5299 0
M  V30 10896 C 1026.51 -0.40805 -4.55175 0
M  V30 10897 C 1027.51 -1.25806 -5.04449 0
M  V30 10898 C 1025.19 -0.568428 -4.99073 0
M  V30 10899 C 1027.18 -2.25379 -5.96224 0
M  V30 10900 C 1024.87 -1.56752 -5.90654 0
M  V30 10901 C 1025.87 -2.40864 -6.39119 0
M  V30 10902 O 1025.56 -3.39069 -7.28895 0
M  V30 10903 H 1025.29 0.0429593 -0.674634 0
M  V30 10904 H 1027.84 -0.522897 -1.98633 0
M  V30 10905 H 1026.07 1.47945 -3.5728 0
M  V30 10906 H 1027.76 1.19406 -3.8794 0
M  V30 10907 H 1028.53 -1.14536 -4.71282 0
M  V30 10908 H 1024.41 0.0764858 -4.60937 0
M  V30 10909 H 1027.95 -2.91068 -6.33976 0
M  V30 10910 H 1023.85 -1.6807 -6.23236 0
M  V30 10911 H 1024.62 -3.34804 -7.46893 0
M  V30 10912 N 1027.28 1.57312 -0.0952337 0
M  V30 10913 C 1028.51 1.98409 0.575984 0
M  V30 10914 C 1028.92 0.973168 1.62253 0
M  V30 10915 O 1028.26 -0.0454416 1.83644 0
M  V30 10916 C 1028.32 3.35877 1.28167 0
M  V30 10917 C 1027.99 4.55368 0.385868 0
M  V30 10918 C 1028.98 5.1861 -0.366041 0
M  V30 10919 C 1026.67 5.0138 0.303885 0
M  V30 10920 C 1028.66 6.26233 -1.18791 0
M  V30 10921 C 1026.35 6.0887 -0.521637 0
M  V30 10922 C 1027.35 6.71161 -1.26618 0
M  V30 10923 O 1027.04 7.76577 -2.07804 0
M  V30 10924 H 1026.77 0.657018 0.159068 0
M  V30 10925 H 1029.32 2.04685 -0.171237 0
M  V30 10926 H 1027.55 3.26284 2.07547 0
M  V30 10927 H 1029.24 3.6142 1.84744 0
M  V30 10928 H 1030.01 4.83993 -0.312435 0
M  V30 10929 H 1025.89 4.52657 0.873065 0
M  V30 10930 H 1029.43 6.74784 -1.76955 0
M  V30 10931 H 1025.33 6.42918 -0.576722 0
M  V30 10932 H 1026.09 7.93566 -2.00489 0
M  V30 10933 N 1028.76 -0.17846 1.56586 0
M  V30 10934 C 1029.99 -0.910674 1.85446 0
M  V30 10935 C 1030.4 -1.76647 0.677675 0
M  V30 10936 O 1029.74 -1.80086 -0.362584 0
M  V30 10937 C 1029.8 -1.84363 3.08627 0
M  V30 10938 C 1029.46 -1.16814 4.41818 0
M  V30 10939 C 1030.46 -0.53703 5.17119 0
M  V30 10940 C 1028.15 -1.16703 4.88555 0
M  V30 10941 C 1030.14 0.0861778 6.37342 0
M  V30 10942 C 1027.83 -0.539992 6.0871 0
M  V30 10943 C 1028.83 0.0855135 6.82946 0
M  V30 10944 O 1028.51 0.70268 8.00823 0
M  V30 10945 H 1028.25 -0.270377 0.619574 0
M  V30 10946 H 1030.8 -0.185591 2.0456 0
M  V30 10947 H 1029.03 -2.60884 2.85441 0
M  V30 10948 H 1030.72 -2.44506 3.23993 0
M  V30 10949 H 1031.48 -0.529915 4.82096 0
M  V30 10950 H 1027.36 -1.64329 4.30717 0
M  V30 10951 H 1030.91 0.575011 6.95226 0
M  V30 10952 H 1026.8 -0.544666 6.43198 0
M  V30 10953 H 1027.57 0.601224 8.16289 0
M  V30 10954 N 1030.24 -1.51135 -0.446768 0
M  V30 10955 C 1031.19 -1.68152 -1.53977 0
M  V30 10956 C 1032.17 -0.53563 -1.51723 0
M  V30 10957 O 1033.36 -0.791134 -1.58335 0
M  V30 10958 C 1030.49 -1.80133 -2.92245 0
M  V30 10959 C 1029.58 -3.00476 -2.99291 0
M  V30 10960 N 1029.97 -4.23796 -2.76099 0
M  V30 10961 C 1028.27 -2.99536 -3.30445 0
M  V30 10962 C 1028.97 -5.04977 -2.88744 0
M  V30 10963 N 1027.94 -4.39428 -3.20006 0
M  V30 10964 H 1031.74 -2.61172 -1.34784 0
M  V30 10965 H 1029.26 -1.48653 -0.653923 0
M  V30 10966 H 1031.26 -1.90432 -3.70866 0
M  V30 10967 H 1029.92 -0.882879 -3.12467 0
M  V30 10968 H 1030.93 -4.52896 -2.51209 0
M  V30 10969 H 1027.6 -2.17286 -3.56501 0
M  V30 10970 H 1028.99 -6.13114 -2.74847 0
M  V30 10971 N 1031.71 0.701592 -1.41122 0
M  V30 10972 C 1032.66 1.83691 -1.4269 0
M  V30 10973 C 1033.66 1.6662 -0.305658 0
M  V30 10974 O 1034.86 1.73554 -0.477392 0
M  V30 10975 H 1031.24 0.605222 -0.44633 0
M  V30 10976 H 1033.21 1.79485 -2.38386 0
M  V30 10977 C 1031.96 3.21666 -1.32008 0
M  V30 10978 H 1031.28 3.35416 -2.17569 0
M  V30 10979 H 1032.72 4.012 -1.37165 0
M  V30 10980 C 1031.18 3.36885 -0.0317678 0
M  V30 10981 O 1031.71 3.90885 0.925836 0
M  V30 10982 N 1029.91 2.90569 0.0423401 0
M  V30 10983 H 1029.46 2.46812 -0.737673 0
M  V30 10984 H 1029.42 3.0113 0.903764 0
M  V30 10985 N 1033.19 1.2685 0.935242 0
M  V30 10986 C 1034.12 1.1143 2.05196 0
M  V30 10987 C 1035.1 0.0178362 1.70091 0
M  V30 10988 O 1036.29 0.190951 1.93259 0
M  V30 10989 C 1033.42 0.752779 3.39044 0
M  V30 10990 C 1032.37 1.80164 3.88233 0
M  V30 10991 C 1031.7 1.29428 5.18799 0
M  V30 10992 C 1033 3.20431 4.12457 0
M  V30 10993 H 1034.69 2.04845 2.18355 0
M  V30 10994 H 1032.24 0.986276 1.04922 0
M  V30 10995 H 1034.19 0.631757 4.16637 0
M  V30 10996 H 1032.91 -0.217075 3.25878 0
M  V30 10997 H 1031.57 1.91144 3.12825 0
M  V30 10998 H 1031.22 0.3141 5.02018 0
M  V30 10999 H 1030.92 1.99546 5.5268 0
M  V30 11000 H 1032.45 1.18605 5.9897 0
M  V30 11001 H 1033.86 3.12495 4.80645 0
M  V30 11002 H 1032.26 3.88193 4.57631 0
M  V30 11003 H 1033.33 3.66046 3.18023 0
M  V30 11004 N 1034.67 -1.14067 1.0875 0
M  V30 11005 C 1035.58 -2.22871 0.732498 0
M  V30 11006 C 1036.6 -1.72008 -0.26253 0
M  V30 11007 O 1037.77 -2.01123 -0.105601 0
M  V30 11008 C 1034.84 -3.46371 0.150913 0
M  V30 11009 C 1033.9 -4.12158 1.201 0
M  V30 11010 C 1033.13 -5.29763 0.647075 0
M  V30 11011 O 1033.35 -5.67911 -0.532307 0
M  V30 11012 O 1032.29 -5.8542 1.3988 0
M  V30 11013 H 1036.11 -2.55596 1.64025 0
M  V30 11014 H 1033.7 -1.22065 0.861417 0
M  V30 11015 H 1035.58 -4.21055 -0.170442 0
M  V30 11016 H 1034.26 -3.15362 -0.729948 0
M  V30 11017 H 1033.16 -3.39332 1.57494 0
M  V30 11018 H 1034.5 -4.47282 2.05426 0
M  V30 11019 N 1036.15 -0.873678 -1.31166 0
M  V30 11020 C 1037.38 -0.501043 -2.00742 0
M  V30 11021 C 1037.79 0.907477 -1.65561 0
M  V30 11022 O 1037.15 1.59507 -0.886771 0
M  V30 11023 C 1037.2 -0.652877 -3.55556 0
M  V30 11024 O 1036.92 -2.00593 -3.89479 0
M  V30 11025 C 1038.42 -0.281742 -4.42404 0
M  V30 11026 H 1035.64 -0.194829 -0.642092 0
M  V30 11027 H 1038.19 -1.17587 -1.67313 0
M  V30 11028 H 1036.34 -0.0255627 -3.87392 0
M  V30 11029 H 1036.75 -2.01638 -4.84193 0
M  V30 11030 H 1038.23 -0.43892 -5.50252 0
M  V30 11031 H 1038.71 0.779389 -4.32229 0
M  V30 11032 H 1039.31 -0.88491 -4.15992 0
M  V30 11033 N 1037.63 1.44308 -0.633487 0
M  V30 11034 C 1038.56 2.28943 0.108474 0
M  V30 11035 C 1039.57 1.41415 0.806582 0
M  V30 11036 O 1040.76 1.65544 0.667634 0
M  V30 11037 C 1037.86 3.17845 1.1759 0
M  V30 11038 C 1037.03 4.33802 0.559842 0
M  V30 11039 C 1036.09 5.03722 1.52154 0
M  V30 11040 O 1035.12 5.5966 1.03776 0
M  V30 11041 N 1036.32 5.05392 2.85586 0
M  V30 11042 H 1039.09 2.93262 -0.617879 0
M  V30 11043 H 1036.65 1.54781 -0.474819 0
M  V30 11044 H 1038.64 3.61485 1.81963 0
M  V30 11045 H 1037.21 2.55261 1.80445 0
M  V30 11046 H 1036.43 3.93325 -0.262559 0
M  V30 11047 H 1037.72 5.08637 0.128942 0
M  V30 11048 H 1037.11 4.61282 3.27468 0
M  V30 11049 H 1035.67 5.52813 3.45313 0
M  V30 11050 N 1039.1 0.374177 1.53094 0
M  V30 11051 C 1040.01 -0.475935 2.29722 0
M  V30 11052 C 1041.03 -1.085 1.36029 0
M  V30 11053 O 1042.21 -1.09408 1.69091 0
M  V30 11054 C 1039.27 -1.59572 3.07795 0
M  V30 11055 C 1038.33 -1.01332 4.17169 0
M  V30 11056 C 1037.57 -2.07975 4.9151 0
M  V30 11057 O 1037.79 -3.29232 4.65793 0
M  V30 11058 O 1036.72 -1.7055 5.77232 0
M  V30 11059 H 1040.55 0.147877 3.0334 0
M  V30 11060 H 1038.13 0.138312 1.48758 0
M  V30 11061 H 1040.02 -2.24658 3.5652 0
M  V30 11062 H 1038.69 -2.20478 2.37005 0
M  V30 11063 H 1037.6 -0.326133 3.72676 0
M  V30 11064 H 1038.93 -0.4487 4.90151 0
M  V30 11065 N 1040.58 -1.57259 0.103575 0
M  V30 11066 C 1041.83 -1.94272 -0.557024 0
M  V30 11067 C 1042.15 -0.986739 -1.68192 0
M  V30 11068 O 1041.42 -0.0402818 -1.95859 0
M  V30 11069 H 1040 -0.717237 -0.208757 0
M  V30 11070 H 1042.66 -1.94167 0.168898 0
M  V30 11071 H 1041.76 -2.96914 -0.961691 0
M  V30 11072 N 1042.06 0.170153 -1.56679 0
M  V30 11073 C 1043.31 0.884841 -1.817 0
M  V30 11074 C 1043.63 1.82731 -0.680763 0
M  V30 11075 O 1042.9 1.936 0.299294 0
M  V30 11076 H 1041.48 0.329738 -0.670285 0
M  V30 11077 H 1044.14 0.169691 -1.9416 0
M  V30 11078 H 1043.24 1.46104 -2.7579 0
M  V30 11079 N 1043.54 1.5137 0.438746 0
M  V30 11080 C 1044.78 1.65173 1.18698 0
M  V30 11081 C 1045.14 0.362753 1.88949 0
M  V30 11082 O 1044.43 -0.641351 1.80547 0
M  V30 11083 C 1044.63 2.79221 2.23093 0
M  V30 11084 C 1044.46 4.19085 1.63088 0
M  V30 11085 C 1043.23 4.85042 1.41642 0
M  V30 11086 C 1045.42 5.02225 1.10789 0
M  V30 11087 N 1043.41 6.09024 0.772198 0
M  V30 11088 C 1044.78 6.17197 0.588854 0
M  V30 11089 C 1046.83 4.87764 0.999516 0
M  V30 11090 C 1045.53 7.19295 -0.0279103 0
M  V30 11091 C 1047.56 5.90068 0.396648 0
M  V30 11092 C 1046.92 7.04311 -0.111855 0
M  V30 11093 H 1043.02 0.658316 0.422071 0
M  V30 11094 H 1045.61 1.88593 0.483808 0
M  V30 11095 H 1043.78 2.57468 2.908 0
M  V30 11096 H 1045.51 2.82213 2.90066 0
M  V30 11097 H 1042.26 4.42886 1.67776 0
M  V30 11098 H 1042.69 6.75383 0.467568 0
M  V30 11099 H 1047.33 3.99695 1.37853 0
M  V30 11100 H 1045.05 8.07013 -0.419056 0
M  V30 11101 H 1048.63 5.80948 0.314715 0
M  V30 11102 H 1047.51 7.82118 -0.571021 0
M  V30 11103 N 1045.02 -0.694098 1.41492 0
M  V30 11104 C 1046.29 -1.44875 1.31418 0
M  V30 11105 C 1046.67 -2.11022 -0.0575538 0
M  V30 11106 O 1046.02 -2.01799 -1.07188 0
M  V30 11107 C 1046.23 -2.46698 2.46863 0
M  V30 11108 C 1047.58 -3.11907 2.88095 0
M  V30 11109 O 1048.6 -2.57022 2.46613 0
M  V30 11110 O 1047.46 -4.11318 3.59833 0
M  V30 11111 H 1044.56 -0.645266 0.517263 0
M  V30 11112 H 1047.1 -0.724452 1.53459 0
M  V30 11113 H 1045.87 -1.96485 3.38392 0
M  V30 11114 H 1045.5 -3.26634 2.26706 0
M  V30 11115 N 1046.49 -1.27344 -0.928501 0
M  V30 11116 C 1047.4 -1.11812 -2.06241 0
M  V30 11117 C 1048.42 -0.048347 -1.73933 0
M  V30 11118 O 1049.6 -0.25467 -1.99783 0
M  V30 11119 C 1046.66 -0.766036 -3.38131 0
M  V30 11120 C 1045.72 -1.91659 -3.84142 0
M  V30 11121 C 1044.96 -1.58121 -5.09738 0
M  V30 11122 O 1045.18 -0.488742 -5.68302 0
M  V30 11123 O 1044.11 -2.42013 -5.51102 0
M  V30 11124 H 1047.94 -2.06967 -2.22258 0
M  V30 11125 H 1045.52 -1.06524 -1.04752 0
M  V30 11126 H 1047.41 -0.582982 -4.17348 0
M  V30 11127 H 1046.08 0.155998 -3.23324 0
M  V30 11128 H 1044.99 -2.1547 -3.05816 0
M  V30 11129 H 1046.32 -2.8188 -4.0349 0
M  V30 11130 N 1047.97 1.13488 -1.09353 0
M  V30 11131 C 1049.38 1.66299 -0.848609 0
M  V30 11132 C 1049.73 1.86044 0.623051 0
M  V30 11133 O 1048.86 1.57871 1.48005 0
M  V30 11134 C 1049.45 3.02087 -1.53391 0
M  V30 11135 C 1048.01 3.51893 -1.33598 0
M  V30 11136 C 1047.16 2.27154 -1.59048 0
M  V30 11137 H 1050.11 0.974208 -1.25279 0
M  V30 11138 H 1050.13 3.68018 -0.966587 0
M  V30 11139 H 1049.64 2.87684 -2.60498 0
M  V30 11140 H 1047.75 3.715 -0.286045 0
M  V30 11141 H 1047.86 4.32059 -2.0703 0
M  V30 11142 H 1046.22 2.33708 -1.01256 0
M  V30 11143 H 1047.01 2.15317 -2.67383 0
M  V30 11144 N 1049.45 0.880621 1.30701 0
M  V30 11145 C 1050.86 0.547993 1.78477 0
M  V30 11146 C 1051.21 -0.935633 1.72454 0
M  V30 11147 O 1050.34 -1.73094 1.29874 0
M  V30 11148 C 1050.93 0.98795 3.24076 0
M  V30 11149 C 1049.49 0.706805 3.69704 0
M  V30 11150 C 1048.64 1.17335 2.51252 0
M  V30 11151 H 1051.59 1.06528 1.17633 0
M  V30 11152 H 1051.61 0.31508 3.79193 0
M  V30 11153 H 1051.12 2.06778 3.28427 0
M  V30 11154 H 1049.22 -0.36122 3.70845 0
M  V30 11155 H 1049.34 1.2913 4.6137 0
M  V30 11156 H 1047.7 0.592808 2.47705 0
M  V30 11157 H 1048.48 2.26083 2.58343 0
M  V30 11158 N 1050.93 -1.4397 0.641131 0
M  V30 11159 C 1051.88 -2.32495 -0.0698668 0
M  V30 11160 C 1052.87 -1.47922 -0.825555 0
M  V30 11161 O 1054.08 -1.64206 -0.737323 0
M  V30 11162 H 1050.45 -0.750861 -0.0413706 0
M  V30 11163 H 1052.42 -2.90201 0.694682 0
M  V30 11164 C 1051.17 -3.32063 -1.03098 0
M  V30 11165 H 1050.5 -3.97157 -0.458923 0
M  V30 11166 H 1051.94 -3.96664 -1.49778 0
M  V30 11167 C 1050.39 -2.61743 -2.12113 0
M  V30 11168 O 1050.92 -2.42385 -3.20332 0
M  V30 11169 N 1049.13 -2.21316 -1.88328 0
M  V30 11170 H 1048.68 -2.37261 -1.00324 0
M  V30 11171 H 1048.64 -1.74594 -2.61465 0
M  V30 11172 N 1052.41 -0.382291 -1.52893 0
M  V30 11173 C 1053.65 0.202133 -2.01489 0
M  V30 11174 C 1053.98 1.47399 -1.26901 0
M  V30 11175 O 1053.24 1.92439 -0.355771 0
M  V30 11176 C 1053.54 0.523437 -3.53546 0
M  V30 11177 C 1053.2 -0.656042 -4.46102 0
M  V30 11178 C 1051.86 -0.979633 -4.71123 0
M  V30 11179 C 1054.22 -1.44545 -5.00756 0
M  V30 11180 C 1051.54 -2.0943 -5.48047 0
M  V30 11181 C 1053.9 -2.55066 -5.78899 0
M  V30 11182 C 1052.56 -2.87942 -6.02201 0
M  V30 11183 H 1051.83 0.0739659 -0.737299 0
M  V30 11184 H 1054.48 -0.518196 -1.84356 0
M  V30 11185 H 1052.78 1.325 -3.68715 0
M  V30 11186 H 1054.48 0.988148 -3.88634 0
M  V30 11187 H 1051.07 -0.393818 -4.26787 0
M  V30 11188 H 1055.25 -1.20869 -4.81357 0
M  V30 11189 H 1050.51 -2.3528 -5.64317 0
M  V30 11190 H 1054.68 -3.1664 -6.20252 0
M  V30 11191 H 1052.31 -3.74435 -6.61591 0
M  V30 11192 N 1053.89 1.57202 -0.111913 0
M  V30 11193 C 1055.13 1.95239 0.548607 0
M  V30 11194 C 1055.46 0.994897 1.6678 0
M  V30 11195 O 1054.74 0.0308603 1.94476 0
M  V30 11196 C 1055.02 3.43271 1.08798 0
M  V30 11197 C 1054.88 4.49792 -0.0273064 0
M  V30 11198 C 1056.19 3.92989 1.98109 0
M  V30 11199 H 1053.31 0.709919 0.197951 0
M  V30 11200 H 1055.96 1.89087 -0.186036 0
M  V30 11201 H 1054.11 3.48644 1.71404 0
M  V30 11202 H 1055.78 4.56521 -0.662302 0
M  V30 11203 H 1054.02 4.28254 -0.691426 0
M  V30 11204 H 1054.69 5.50612 0.391201 0
M  V30 11205 H 1057.17 3.89875 1.45385 0
M  V30 11206 H 1056.04 4.97101 2.32769 0
M  V30 11207 H 1056.3 3.33267 2.90492 0
M  V30 11208 N 1055.36 -0.161842 1.56767 0
M  V30 11209 C 1056.3 -1.22499 1.93718 0
M  V30 11210 C 1057.31 -1.39975 0.831314 0
M  V30 11211 O 1058.5 -1.3981 1.10975 0
M  V30 11212 C 1055.6 -2.59222 2.18306 0
M  V30 11213 C 1054.77 -2.6292 3.4956 0
M  V30 11214 C 1053.83 -3.81074 3.62863 0
M  V30 11215 O 1052.86 -3.66633 4.35395 0
M  V30 11216 N 1054.06 -4.97923 2.98418 0
M  V30 11217 H 1056.82 -0.911043 2.85517 0
M  V30 11218 H 1054.38 -0.351533 1.58038 0
M  V30 11219 H 1056.38 -3.36749 2.24461 0
M  V30 11220 H 1054.95 -2.82969 1.32844 0
M  V30 11221 H 1054.17 -1.71418 3.54978 0
M  V30 11222 H 1055.45 -2.62409 4.35911 0
M  V30 11223 H 1054.85 -5.12557 2.39378 0
M  V30 11224 H 1053.41 -5.73277 3.10155 0
M  V30 11225 N 1056.84 -1.516 -0.430713 0
M  V30 11226 C 1057.79 -1.73975 -1.54387 0
M  V30 11227 C 1058.78 -0.606222 -1.58181 0
M  V30 11228 O 1059.99 -0.787764 -1.61846 0
M  V30 11229 H 1056.36 -0.549811 -0.513041 0
M  V30 11230 H 1058.34 -2.67274 -1.32692 0
M  V30 11231 C 1057.08 -1.88794 -2.9198 0
M  V30 11232 H 1056.41 -2.75425 -2.89795 0
M  V30 11233 H 1057.85 -2.08458 -3.69217 0
M  V30 11234 C 1056.31 -0.649427 -3.30581 0
M  V30 11235 O 1056.84 0.192823 -4.01237 0
M  V30 11236 N 1055.04 -0.491586 -2.86412 0
M  V30 11237 H 1054.59 -1.17806 -2.29084 0
M  V30 11238 H 1054.55 0.33583 -3.12601 0
M  V30 11239 N 1058.32 0.686584 -1.41858 0
M  V30 11240 C 1059.54 1.4802 -1.45275 0
M  V30 11241 C 1059.97 1.87997 -0.0621297 0
M  V30 11242 O 1059.33 1.55226 0.936733 0
M  V30 11243 C 1059.38 2.7133 -2.37513 0
M  V30 11244 O 1058.48 3.69159 -1.83836 0
M  V30 11245 H 1057.82 0.445152 -0.492682 0
M  V30 11246 H 1060.35 0.843161 -1.86419 0
M  V30 11247 H 1060.36 3.19537 -2.53693 0
M  V30 11248 H 1059.04 2.41571 -3.3855 0
M  V30 11249 H 1057.61 3.28134 -1.77151 0
M  V30 11250 N 1059.8 1.27835 0.921735 0
M  V30 11251 C 1060.73 1.05397 2.02402 0
M  V30 11252 C 1061.71 -0.0274904 1.62577 0
M  V30 11253 O 1062.89 0.11885 1.88125 0
M  V30 11254 C 1060.02 0.600016 3.33343 0
M  V30 11255 C 1059.07 1.67693 3.9215 0
M  V30 11256 S 1059.9 3.27093 4.23994 0
M  V30 11257 C 1061.05 2.83513 5.58006 0
M  V30 11258 H 1061.29 1.98723 2.21125 0
M  V30 11259 H 1058.82 1.11733 1.0656 0
M  V30 11260 H 1060.78 0.344793 4.09049 0
M  V30 11261 H 1059.44 -0.313288 3.12534 0
M  V30 11262 H 1058.63 1.31074 4.86658 0
M  V30 11263 H 1058.23 1.88454 3.2305 0
M  V30 11264 H 1060.53 2.29187 6.37557 0
M  V30 11265 H 1061.47 3.76788 5.9953 0
M  V30 11266 H 1061.88 2.22472 5.18813 0
M  V30 11267 N 1061.28 -1.12907 1.09954 0
M  V30 11268 C 1062.21 -2.18194 0.701701 0
M  V30 11269 C 1063.22 -1.60724 -0.259131 0
M  V30 11270 O 1064.41 -1.78445 -0.0443549 0
M  V30 11271 C 1061.51 -3.38897 0.0140602 0
M  V30 11272 C 1060.68 -4.25867 0.997807 0
M  V30 11273 C 1059.74 -5.25084 0.34257 0
M  V30 11274 O 1058.77 -5.60492 0.991857 0
M  V30 11275 N 1059.97 -5.73464 -0.901058 0
M  V30 11276 H 1062.73 -2.52939 1.60755 0
M  V30 11277 H 1060.3 -1.28281 0.987703 0
M  V30 11278 H 1062.29 -4.02349 -0.435628 0
M  V30 11279 H 1060.86 -3.02345 -0.794118 0
M  V30 11280 H 1060.08 -3.59107 1.6259 0
M  V30 11281 H 1061.37 -4.80825 1.66388 0
M  V30 11282 H 1060.76 -5.46854 -1.44802 0
M  V30 11283 H 1059.32 -6.38827 -1.29398 0
M  V30 11284 N 1062.75 -0.88754 -1.30232 0
M  V30 11285 C 1063.68 -0.372481 -2.3051 0
M  V30 11286 C 1064.66 0.546037 -1.61098 0
M  V30 11287 O 1065.85 0.459345 -1.88689 0
M  V30 11288 C 1062.98 0.411605 -3.44852 0
M  V30 11289 C 1061.93 -0.415383 -4.2598 0
M  V30 11290 C 1061.26 0.495463 -5.324 0
M  V30 11291 C 1062.56 -1.65886 -4.95257 0
M  V30 11292 H 1064.25 -1.21045 -2.7384 0
M  V30 11293 H 1061.8 -0.583498 -1.31648 0
M  V30 11294 H 1063.75 0.782584 -4.1407 0
M  V30 11295 H 1062.48 1.28325 -3.00334 0
M  V30 11296 H 1061.14 -0.768534 -3.58454 0
M  V30 11297 H 1060.78 1.36489 -4.84128 0
M  V30 11298 H 1060.48 -0.0540885 -5.87575 0
M  V30 11299 H 1062.01 0.862901 -6.04472 0
M  V30 11300 H 1063.42 -1.35832 -5.56976 0
M  V30 11301 H 1061.82 -2.14881 -5.60309 0
M  V30 11302 H 1062.89 -2.40181 -4.21237 0
M  V30 11303 N 1064.23 1.43628 -0.648757 0
M  V30 11304 C 1065.46 2.06732 -0.166284 0
M  V30 11305 C 1065.88 1.48281 1.15734 0
M  V30 11306 O 1065.24 0.591018 1.71396 0
M  V30 11307 C 1065.29 3.60502 -0.0838732 0
M  V30 11308 O 1064.39 4.01186 0.955185 0
M  V30 11309 H 1063.73 0.657479 -0.0928285 0
M  V30 11310 H 1066.26 1.84208 -0.890421 0
M  V30 11311 H 1066.27 4.07875 0.100923 0
M  V30 11312 H 1064.95 4.02424 -1.05014 0
M  V30 11313 H 1063.53 3.65412 0.743537 0
M  V30 11314 N 1065.71 0.390394 1.52688 0
M  V30 11315 C 1067.13 0.0404028 1.59549 0
M  V30 11316 C 1067.33 -1.44503 1.40432 0
M  V30 11317 O 1066.38 -2.20968 1.22187 0
M  V30 11318 C 1067.7 0.518561 2.96195 0
M  V30 11319 C 1069.24 0.474913 3.09376 0
M  V30 11320 C 1069.72 0.929278 4.48473 0
M  V30 11321 N 1071.21 0.885335 4.5466 0
M  V30 11322 C 1071.94 1.2083 5.60524 0
M  V30 11323 N 1071.44 1.6018 6.74028 0
M  V30 11324 N 1073.23 1.12949 5.50635 0
M  V30 11325 H 1065.38 1.35743 1.63363 0
M  V30 11326 H 1067.65 0.556453 0.767505 0
M  V30 11327 H 1067.35 1.55606 3.15404 0
M  V30 11328 H 1067.23 -0.081779 3.77111 0
M  V30 11329 H 1069.61 -0.553503 2.89863 0
M  V30 11330 H 1069.7 1.11107 2.3041 0
M  V30 11331 H 1069.34 1.95593 4.68728 0
M  V30 11332 H 1069.27 0.270121 5.25907 0
M  V30 11333 H 1071.76 0.595787 3.73174 0
M  V30 11334 H 1072.07 1.83184 7.50775 0
M  V30 11335 H 1070.42 1.64067 6.75357 0
M  V30 11336 H 1073.61 0.821074 4.60843 0
M  V30 11337 H 1073.78 1.3845 6.33037 0
M  V30 11338 N 1067.19 -1.57141 0.120249 0
M  V30 11339 C 1068.1 -2.18925 -0.843155 0
M  V30 11340 C 1069.11 -1.16575 -1.29175 0
M  V30 11341 O 1070.29 -1.4905 -1.35448 0
M  V30 11342 C 1067.36 -2.7775 -2.075 0
M  V30 11343 C 1066.42 -3.95139 -1.6782 0
M  V30 11344 C 1065.65 -4.51149 -2.85132 0
M  V30 11345 O 1065.87 -4.06056 -4.00593 0
M  V30 11346 O 1064.81 -5.41815 -2.62145 0
M  V30 11347 H 1068.63 -3.01707 -0.347357 0
M  V30 11348 H 1066.22 -1.49028 -0.105427 0
M  V30 11349 H 1068.1 -3.15243 -2.79643 0
M  V30 11350 H 1066.77 -1.97998 -2.56083 0
M  V30 11351 H 1065.68 -3.62412 -0.927807 0
M  V30 11352 H 1067.01 -4.7633 -1.23977 0
M  V30 11353 N 1068.67 0.153526 -1.5685 0
M  V30 11354 C 1069.58 1.20932 -2.01029 0
M  V30 11355 C 1070.59 1.47401 -0.924598 0
M  V30 11356 O 1071.77 1.592 -1.23359 0
M  V30 11357 C 1068.83 2.52438 -2.37647 0
M  V30 11358 C 1067.89 2.33673 -3.60132 0
M  V30 11359 C 1067.13 3.58909 -3.94994 0
M  V30 11360 O 1067.35 4.64823 -3.30599 0
M  V30 11361 O 1066.28 3.5196 -4.8827 0
M  V30 11362 H 1070.11 0.864273 -2.91143 0
M  V30 11363 H 1067.7 0.361755 -1.44954 0
M  V30 11364 H 1069.58 3.29981 -2.62088 0
M  V30 11365 H 1068.25 2.86486 -1.5069 0
M  V30 11366 H 1067.16 1.54102 -3.40886 0
M  V30 11367 H 1068.49 2.04544 -4.47686 0
M  V30 11368 N 1070.14 1.51827 0.422667 0
M  V30 11369 C 1071.39 1.6445 1.16786 0
M  V30 11370 C 1071.71 0.373792 1.91995 0
M  V30 11371 O 1072.91 0.379621 2.68833 0
M  V30 11372 C 1071.37 2.90488 2.12473 0
M  V30 11373 C 1070.98 4.24617 1.42844 0
M  V30 11374 C 1072.72 3.12472 2.87335 0
M  V30 11375 C 1070.63 5.41791 2.371 0
M  V30 11376 H 1069.56 0.612561 0.439641 0
M  V30 11377 H 1072.21 1.78305 0.433534 0
M  V30 11378 H 1070.59 2.703 2.89402 0
M  V30 11379 H 1071.76 4.55239 0.71372 0
M  V30 11380 H 1070.08 4.08628 0.800769 0
M  V30 11381 H 1072.68 3.9719 3.57973 0
M  V30 11382 H 1073.02 2.26148 3.49518 0
M  V30 11383 H 1073.55 3.33069 2.17509 0
M  V30 11384 H 1070.29 6.3042 1.79584 0
M  V30 11385 H 1069.81 5.15526 3.06583 0
M  V30 11386 H 1071.49 5.74329 2.97918 0
M  V30 11387 N 1071.62 -0.679052 1.4222 0
M  V30 11388 C 1072.55 -1.80455 1.41311 0
M  V30 11389 C 1073.57 -1.59767 0.312799 0
M  V30 11390 O 1074.76 -1.68964 0.575612 0
M  V30 11391 C 1071.86 -3.17492 1.18541 0
M  V30 11392 C 1071.03 -3.65066 2.40926 0
M  V30 11393 C 1070.09 -4.80823 2.13765 0
M  V30 11394 O 1069.11 -4.91587 2.86934 0
M  V30 11395 N 1070.32 -5.69233 1.13813 0
M  V30 11396 H 1073.08 -1.81722 2.38322 0
M  V30 11397 H 1070.64 -0.861988 1.37045 0
M  V30 11398 H 1072.63 -3.92581 0.982958 0
M  V30 11399 H 1071.2 -3.1115 0.300691 0
M  V30 11400 H 1070.42 -2.80702 2.76767 0
M  V30 11401 H 1071.71 -3.93593 3.22431 0
M  V30 11402 H 1071.11 -5.63185 0.532887 0
M  V30 11403 H 1069.67 -6.44152 0.995554 0
M  V30 11404 N 1073.1 -1.28322 -0.914942 0
M  V30 11405 C 1074.33 -1.1837 -1.70304 0
M  V30 11406 C 1074.75 0.254291 -1.86373 0
M  V30 11407 O 1074.11 1.18398 -1.37301 0
M  V30 11408 C 1074.16 -1.88603 -3.07346 0
M  V30 11409 O 1073.26 -1.19268 -3.94777 0
M  V30 11410 H 1072.6 -0.410978 -0.52153 0
M  V30 11411 H 1075.13 -1.69622 -1.14409 0
M  V30 11412 H 1075.14 -1.96463 -3.57584 0
M  V30 11413 H 1073.82 -2.93201 -2.94967 0
M  V30 11414 H 1072.39 -1.19563 -3.53212 0
M  V30 11415 N 1074.58 1.12322 -1.10551 0
M  V30 11416 C 1075.8 1.8822 -0.871093 0
M  V30 11417 C 1076.23 1.7916 0.573005 0
M  V30 11418 O 1075.59 1.14738 1.40374 0
M  V30 11419 C 1075.63 3.35349 -1.32565 0
M  V30 11420 O 1074.74 4.09461 -0.49145 0
M  V30 11421 H 1074.08 0.584787 -0.314516 0
M  V30 11422 H 1076.61 1.42039 -1.47262 0
M  V30 11423 H 1076.62 3.86189 -1.31612 0
M  V30 11424 H 1075.29 3.4126 -2.37728 0
M  V30 11425 H 1073.87 3.68575 -0.566294 0
M  V30 11426 N 1076.06 0.894434 1.2976 0
M  V30 11427 C 1077.31 0.513673 1.95049 0
M  V30 11428 C 1077.62 -0.943744 1.71327 0
M  V30 11429 O 1078.82 -1.43179 2.30678 0
M  V30 11430 C 1077.28 0.867751 3.49282 0
M  V30 11431 C 1076.89 2.34358 3.81812 0
M  V30 11432 C 1078.63 0.556645 4.20835 0
M  V30 11433 C 1076.54 2.63879 5.29265 0
M  V30 11434 H 1075.47 0.188375 0.73009 0
M  V30 11435 H 1078.12 1.09071 1.47566 0
M  V30 11436 H 1076.5 0.2197 3.9539 0
M  V30 11437 H 1077.68 3.03674 3.46581 0
M  V30 11438 H 1075.99 2.62318 3.23386 0
M  V30 11439 H 1078.59 0.754123 5.29355 0
M  V30 11440 H 1078.93 -0.504526 4.13231 0
M  V30 11441 H 1079.46 1.1623 3.80441 0
M  V30 11442 H 1076.2 3.68774 5.41928 0
M  V30 11443 H 1075.72 1.99182 5.65762 0
M  V30 11444 H 1077.4 2.49871 5.96803 0
M  V30 11445 N 1077.53 -1.43282 0.656365 0
M  V30 11446 C 1078.76 -2.06641 0.177245 0
M  V30 11447 C 1079.18 -1.48893 -1.14946 0
M  V30 11448 O 1078.54 -0.600099 -1.7108 0
M  V30 11449 C 1078.59 -3.60453 0.10299 0
M  V30 11450 O 1077.69 -4.01687 -0.933895 0
M  V30 11451 H 1077.04 -0.656978 0.096314 0
M  V30 11452 H 1079.57 -1.83733 0.900178 0
M  V30 11453 H 1079.58 -4.07923 -0.079291 0
M  V30 11454 H 1078.25 -4.01861 1.07147 0
M  V30 11455 H 1076.83 -3.65801 -0.724148 0
M  V30 11456 N 1079.01 -0.398486 -1.52479 0
M  V30 11457 C 1080.26 0.180394 -2.01293 0
M  V30 11458 C 1080.58 1.46548 -1.28641 0
M  V30 11459 O 1079.85 1.91579 -0.409173 0
M  V30 11460 H 1078.43 0.0696528 -0.743746 0
M  V30 11461 H 1081.09 -0.532285 -1.87491 0
M  V30 11462 H 1080.19 0.38409 -3.09728 0
M  V30 11463 N 1080.49 1.57075 -0.12858 0
M  V30 11464 C 1081.74 1.9581 0.527868 0
M  V30 11465 C 1082.07 1.01253 1.65715 0
M  V30 11466 O 1081.35 0.0514853 1.94432 0
M  V30 11467 C 1081.63 3.44406 1.05151 0
M  V30 11468 C 1081.48 4.49737 -0.0750113 0
M  V30 11469 C 1082.8 3.95069 1.9393 0
M  V30 11470 H 1079.92 0.711978 0.19041 0
M  V30 11471 H 1082.56 1.88879 -0.206081 0
M  V30 11472 H 1080.71 3.50443 1.67697 0
M  V30 11473 H 1082.38 4.55793 -0.710685 0
M  V30 11474 H 1080.63 4.27497 -0.736809 0
M  V30 11475 H 1081.3 5.50996 0.332779 0
M  V30 11476 H 1083.77 3.91395 1.41241 0
M  V30 11477 H 1082.65 4.99542 2.27484 0
M  V30 11478 H 1082.91 3.36329 2.86941 0
M  V30 11479 N 1081.97 -0.145205 1.5693 0
M  V30 11480 C 1083.2 -0.872398 1.87608 0
M  V30 11481 C 1083.61 -1.74657 0.716975 0
M  V30 11482 O 1082.97 -1.79792 -0.3132 0
M  V30 11483 C 1083.02 -1.72762 3.17546 0
M  V30 11484 O 1082.74 -0.888681 4.28992 0
M  V30 11485 C 1084.24 -2.56224 3.61751 0
M  V30 11486 H 1081.46 -0.252166 0.621815 0
M  V30 11487 H 1084.01 -0.137456 2.04038 0
M  V30 11488 H 1082.16 -2.41561 3.02865 0
M  V30 11489 H 1082.58 -1.47601 5.03303 0
M  V30 11490 H 1084.05 -3.11804 4.55502 0
M  V30 11491 H 1084.53 -3.32347 2.87127 0
M  V30 11492 H 1085.13 -1.92714 3.79133 0
M  V30 11493 N 1083.45 -1.52049 -0.414609 0
M  V30 11494 C 1084.41 -1.74382 -1.4874 0
M  V30 11495 C 1085.41 -0.613701 -1.48628 0
M  V30 11496 O 1086.6 -0.88152 -1.50249 0
M  V30 11497 C 1083.73 -1.82116 -2.88178 0
M  V30 11498 H 1084.93 -2.70147 -1.30233 0
M  V30 11499 H 1082.48 -1.42382 -0.644756 0
M  V30 11500 H 1083.21 -0.882457 -3.12063 0
M  V30 11501 H 1083 -2.64268 -2.89663 0
M  V30 11502 H 1084.49 -2.01155 -3.65959 0
M  V30 11503 N 1084.93 0.6715 -1.42579 0
M  V30 11504 C 1085.89 1.76676 -1.46008 0
M  V30 11505 C 1086.89 1.57007 -0.347213 0
M  V30 11506 O 1088.08 1.63238 -0.608185 0
M  V30 11507 C 1085.21 3.15348 -1.29494 0
M  V30 11508 H 1086.4 1.75021 -2.43531 0
M  V30 11509 H 1083.96 0.881444 -1.29075 0
M  V30 11510 H 1084.69 3.22626 -0.32906 0
M  V30 11511 H 1084.48 3.31028 -2.10149 0
M  V30 11512 H 1085.97 3.95251 -1.34784 0
M  V30 11513 N 1086.4 1.28806 0.908124 0
M  V30 11514 C 1087.63 1.1898 1.689 0
M  V30 11515 C 1088.04 -0.253334 1.87496 0
M  V30 11516 O 1087.38 -1.18245 1.40584 0
M  V30 11517 C 1087.45 1.82266 3.0987 0
M  V30 11518 C 1087.11 3.31534 3.14538 0
M  V30 11519 C 1088.11 4.27886 2.95313 0
M  V30 11520 C 1085.79 3.72589 3.36872 0
M  V30 11521 C 1087.79 5.63267 2.98343 0
M  V30 11522 C 1085.47 5.08095 3.39534 0
M  V30 11523 C 1086.47 6.03244 3.2029 0
M  V30 11524 O 1086.16 7.36277 3.22724 0
M  V30 11525 H 1085.89 0.413772 0.534574 0
M  V30 11526 H 1088.45 1.7055 1.14464 0
M  V30 11527 H 1086.68 1.25197 3.65872 0
M  V30 11528 H 1088.36 1.6688 3.70008 0
M  V30 11529 H 1089.13 3.97502 2.77879 0
M  V30 11530 H 1085.01 2.98989 3.50894 0
M  V30 11531 H 1088.55 6.37511 2.83241 0
M  V30 11532 H 1084.45 5.38126 3.56497 0
M  V30 11533 H 1085.22 7.44976 3.39048 0
M  V30 11534 N 1087.88 -1.11734 1.11145 0
M  V30 11535 C 1088.83 -2.19765 0.761982 0
M  V30 11536 C 1089.82 -1.67616 -0.24518 0
M  V30 11537 O 1091.03 -1.79695 -0.104781 0
M  V30 11538 H 1087.4 -0.71644 0.228513 0
M  V30 11539 H 1089.38 -2.4649 1.68183 0
M  V30 11540 C 1088.12 -3.47016 0.218057 0
M  V30 11541 H 1087.45 -3.87494 0.984299 0
M  V30 11542 H 1088.89 -4.23998 0.0116825 0
M  V30 11543 C 1087.35 -3.20088 -1.05096 0
M  V30 11544 O 1087.88 -3.40503 -2.1312 0
M  V30 11545 N 1086.08 -2.73844 -0.972523 0
M  V30 11546 H 1085.63 -2.57431 -0.0933459 0
M  V30 11547 H 1085.59 -2.56204 -1.82228 0
M  V30 11548 N 1089.36 -0.901303 -1.29284 0
M  V30 11549 C 1090.78 -0.597634 -1.47988 0
M  V30 11550 C 1090.98 0.860434 -1.82205 0
M  V30 11551 O 1090.03 1.64049 -1.91948 0
M  V30 11552 C 1091.34 -1.52484 -2.5917 0
M  V30 11553 C 1092.89 -1.53021 -2.73045 0
M  V30 11554 C 1093.37 -2.44373 -3.87357 0
M  V30 11555 N 1094.86 -2.42429 -3.94693 0
M  V30 11556 C 1095.59 -3.09817 -4.82495 0
M  V30 11557 N 1095.09 -3.86489 -5.74976 0
M  V30 11558 N 1096.88 -2.98966 -4.76 0
M  V30 11559 H 1089.03 -1.84432 -1.0535 0
M  V30 11560 H 1091.3 -0.790367 -0.523473 0
M  V30 11561 H 1091 -2.56378 -2.40756 0
M  V30 11562 H 1090.88 -1.24657 -3.56006 0
M  V30 11563 H 1093.26 -0.498709 -2.90855 0
M  V30 11564 H 1093.34 -1.84886 -1.76779 0
M  V30 11565 H 1092.99 -3.47618 -3.70302 0
M  V30 11566 H 1092.92 -2.09817 -4.82995 0
M  V30 11567 H 1095.41 -1.86724 -3.28546 0
M  V30 11568 H 1095.72 -4.34959 -6.38773 0
M  V30 11569 H 1094.07 -3.90596 -5.74857 0
M  V30 11570 H 1097.26 -2.38581 -4.02737 0
M  V30 11571 H 1097.43 -3.51758 -5.44215 0
M  V30 11572 N 1090.84 1.42931 -0.663954 0
M  V30 11573 C 1091.75 2.3459 0.0214234 0
M  V30 11574 C 1092.76 1.54487 0.800611 0
M  V30 11575 O 1093.94 1.87098 0.74541 0
M  V30 11576 C 1091 3.32896 0.968556 0
M  V30 11577 C 1090.07 4.28901 0.185108 0
M  V30 11578 C 1089.3 5.2251 1.08713 0
M  V30 11579 O 1089.52 5.20795 2.32655 0
M  V30 11580 O 1088.46 5.99347 0.553758 0
M  V30 11581 H 1092.28 2.94714 -0.733308 0
M  V30 11582 H 1089.87 1.43252 -0.424159 0
M  V30 11583 H 1091.75 3.93318 1.51257 0
M  V30 11584 H 1090.42 2.75261 1.70333 0
M  V30 11585 H 1089.33 3.71926 -0.402752 0
M  V30 11586 H 1090.66 4.89547 -0.510319 0
M  V30 11587 N 1092.32 0.406567 1.52266 0
M  V30 11588 C 1093.25 -0.45552 2.24628 0
M  V30 11589 C 1094.26 -1.01234 1.27497 0
M  V30 11590 O 1095.45 -0.911718 1.5346 0
M  V30 11591 C 1092.55 -1.64578 2.96256 0
M  V30 11592 C 1091.72 -1.2133 4.20235 0
M  V30 11593 C 1090.78 -2.27018 4.7471 0
M  V30 11594 O 1089.81 -1.87714 5.37357 0
M  V30 11595 N 1091.01 -3.5915 4.56061 0
M  V30 11596 H 1093.77 0.164525 2.99248 0
M  V30 11597 H 1091.34 0.233812 1.60203 0
M  V30 11598 H 1093.33 -2.3484 3.29594 0
M  V30 11599 H 1091.9 -2.1718 2.24837 0
M  V30 11600 H 1091.12 -0.338892 3.92741 0
M  V30 11601 H 1092.41 -0.901268 5.00754 0
M  V30 11602 H 1091.8 -3.93834 4.06092 0
M  V30 11603 H 1090.36 -4.25397 4.93843 0
M  V30 11604 N 1093.79 -1.57004 0.136909 0
M  V30 11605 C 1094.72 -2.19262 -0.802902 0
M  V30 11606 C 1095.71 -1.13786 -1.26439 0
M  V30 11607 O 1096.89 -1.42091 -1.32377 0
M  V30 11608 C 1094.02 -2.80624 -2.04615 0
M  V30 11609 C 1092.97 -3.91839 -1.72181 0
M  V30 11610 C 1092.3 -4.4009 -3.03686 0
M  V30 11611 C 1093.6 -5.13095 -0.976249 0
M  V30 11612 H 1095.29 -2.98049 -0.28406 0
M  V30 11613 H 1092.84 -1.43364 -0.135189 0
M  V30 11614 H 1094.79 -3.22842 -2.70834 0
M  V30 11615 H 1093.52 -1.99153 -2.58855 0
M  V30 11616 H 1092.18 -3.50224 -1.08344 0
M  V30 11617 H 1091.82 -3.55454 -3.55896 0
M  V30 11618 H 1091.52 -5.15098 -2.82751 0
M  V30 11619 H 1093.05 -4.84971 -3.70993 0
M  V30 11620 H 1094.46 -5.5222 -1.54033 0
M  V30 11621 H 1092.86 -5.93801 -0.867214 0
M  V30 11622 H 1093.93 -4.84888 0.0338488 0
M  V30 11623 N 1095.27 0.136881 -1.57004 0
M  V30 11624 C 1096.52 0.844147 -1.85056 0
M  V30 11625 C 1096.87 1.78328 -0.722278 0
M  V30 11626 O 1096.17 1.89557 0.279059 0
M  V30 11627 C 1096.36 1.64711 -3.17183 0
M  V30 11628 C 1096.19 0.787229 -4.42756 0
M  V30 11629 C 1094.96 0.448938 -5.03302 0
M  V30 11630 C 1097.16 0.112947 -5.14176 0
M  V30 11631 N 1095.14 -0.423481 -6.12438 0
M  V30 11632 C 1096.51 -0.619195 -6.169 0
M  V30 11633 C 1098.57 0.0346687 -4.97888 0
M  V30 11634 C 1097.27 -1.42224 -7.05099 0
M  V30 11635 C 1099.29 -0.755143 -5.86559 0
M  V30 11636 C 1098.66 -1.47553 -6.88772 0
M  V30 11637 H 1094.76 0.286398 -0.727668 0
M  V30 11638 H 1097.34 0.108903 -1.94395 0
M  V30 11639 H 1095.51 2.35352 -3.08972 0
M  V30 11640 H 1097.24 2.29833 -3.33105 0
M  V30 11641 H 1094 0.787068 -4.67014 0
M  V30 11642 H 1094.42 -0.851013 -6.7163 0
M  V30 11643 H 1099.06 0.577271 -4.18841 0
M  V30 11644 H 1096.78 -1.97606 -7.83567 0
M  V30 11645 H 1100.37 -0.817835 -5.76023 0
M  V30 11646 H 1099.25 -2.07687 -7.56198 0
M  V30 11647 N 1096.75 1.52266 0.40654 0
M  V30 11648 C 1097.68 1.78755 1.50229 0
M  V30 11649 C 1098.66 0.638652 1.57655 0
M  V30 11650 O 1099.85 0.884505 1.72888 0
M  V30 11651 C 1096.98 1.94057 2.88026 0
M  V30 11652 C 1095.93 3.09667 2.95449 0
M  V30 11653 C 1095.26 3.10196 4.35526 0
M  V30 11654 C 1096.56 4.49077 2.66697 0
M  V30 11655 H 1098.25 2.70511 1.28313 0
M  V30 11656 H 1095.8 1.30167 0.615836 0
M  V30 11657 H 1097.75 2.11171 3.64671 0
M  V30 11658 H 1096.47 0.989755 3.11242 0
M  V30 11659 H 1095.13 2.92308 2.2125 0
M  V30 11660 H 1094.78 2.12831 4.55754 0
M  V30 11661 H 1094.48 3.87847 4.41416 0
M  V30 11662 H 1096 3.29443 5.14101 0
M  V30 11663 H 1097.42 4.66628 3.33064 0
M  V30 11664 H 1095.82 5.28665 2.8396 0
M  V30 11665 H 1096.89 4.56995 1.62122 0
M  V30 11666 N 1098.23 -0.663929 1.42933 0
M  V30 11667 C 1099.19 -1.75899 1.46943 0
M  V30 11668 C 1100.19 -1.5682 0.355535 0
M  V30 11669 O 1101.38 -1.62914 0.616833 0
M  V30 11670 C 1098.51 -3.14657 1.31164 0
M  V30 11671 H 1099.71 -1.73727 2.44456 0
M  V30 11672 H 1097.26 -0.874587 1.2954 0
M  V30 11673 H 1097.99 -3.22447 0.346165 0
M  V30 11674 H 1097.78 -3.29909 2.11902 0
M  V30 11675 H 1099.27 -3.9453 1.36878 0
M  V30 11676 N 1099.71 -1.29285 -0.901281 0
M  V30 11677 C 1100.65 -1.14159 -2.02659 0
M  V30 11678 C 1101.65 -0.0575887 -1.69302 0
M  V30 11679 O 1102.85 -0.217273 -1.78684 0
M  V30 11680 H 1099.23 -0.352584 -0.66422 0
M  V30 11681 H 1101.2 -2.09434 -2.12555 0
M  V30 11682 C 1099.95 -0.833253 -3.37568 0
M  V30 11683 H 1099.27 -1.65939 -3.63737 0
M  V30 11684 H 1100.71 -0.767436 -4.16997 0
M  V30 11685 C 1099.17 0.46344 -3.33697 0
M  V30 11686 O 1099.7 1.48998 -3.73045 0
M  V30 11687 N 1097.91 0.468709 -2.86795 0
M  V30 11688 H 1097.45 -0.36712 -2.54971 0
M  V30 11689 H 1097.41 1.3363 -2.84588 0
M  V30 11690 N 1101.18 1.11143 -1.11736 0
M  V30 11691 C 1102.09 2.20851 -0.791331 0
M  V30 11692 C 1103.11 1.72644 0.216833 0
M  V30 11693 O 1104.29 2.01332 0.0522401 0
M  V30 11694 C 1101.35 3.4585 -0.242694 0
M  V30 11695 C 1100.41 4.08829 -1.30986 0
M  V30 11696 C 1099.65 5.27861 -0.787305 0
M  V30 11697 O 1099.87 5.69122 0.381549 0
M  V30 11698 O 1098.8 5.81506 -1.55352 0
M  V30 11699 H 1102.63 2.51158 -1.70744 0
M  V30 11700 H 1100.21 1.19739 -0.893478 0
M  V30 11701 H 1102.1 4.21359 0.0587472 0
M  V30 11702 H 1100.77 3.17187 0.646079 0
M  V30 11703 H 1099.68 3.35037 -1.66436 0
M  V30 11704 H 1101.01 4.41678 -2.17213 0
M  V30 11705 N 1102.66 0.908147 1.28804 0
M  V30 11706 C 1103.91 0.53734 1.94826 0
M  V30 11707 C 1104.23 -0.920962 1.71882 0
M  V30 11708 O 1103.5 -1.65043 1.05534 0
M  V30 11709 H 1102.08 0.195729 0.720902 0
M  V30 11710 H 1104.74 1.15628 1.56895 0
M  V30 11711 H 1103.84 0.727052 3.03513 0
M  V30 11712 N 1104.14 -1.42577 0.671525 0
M  V30 11713 C 1105.07 -2.33499 0.00506984 0
M  V30 11714 C 1106.05 -1.50497 -0.792763 0
M  V30 11715 O 1107.24 -1.79109 -0.750574 0
M  V30 11716 C 1104.37 -3.34077 -0.949194 0
M  V30 11717 C 1103.32 -4.27208 -0.260187 0
M  V30 11718 C 1102.65 -5.17968 -1.32716 0
M  V30 11719 C 1103.95 -5.15192 0.858772 0
M  V30 11720 H 1105.64 -2.89477 0.764407 0
M  V30 11721 H 1103.19 -1.39191 0.369043 0
M  V30 11722 H 1105.14 -3.96594 -1.42448 0
M  V30 11723 H 1103.86 -2.76396 -1.73991 0
M  V30 11724 H 1102.52 -3.66082 0.194834 0
M  V30 11725 H 1102.17 -4.56615 -2.10979 0
M  V30 11726 H 1101.87 -5.81104 -0.871293 0
M  V30 11727 H 1103.39 -5.83359 -1.80345 0
M  V30 11728 H 1104.81 -5.71412 0.464844 0
M  V30 11729 H 1103.21 -5.87144 1.24023 0
M  V30 11730 H 1104.28 -4.53787 1.70895 0
M  V30 11731 N 1105.62 -0.414636 -1.52048 0
M  V30 11732 C 1106.87 0.16073 -2.01059 0
M  V30 11733 C 1107.18 1.45753 -1.30443 0
M  V30 11734 O 1108.39 2.11448 -1.703 0
M  V30 11735 C 1106.84 0.336993 -3.58319 0
M  V30 11736 C 1106.45 -0.948037 -4.37854 0
M  V30 11737 C 1108.19 0.867353 -4.15545 0
M  V30 11738 C 1106.1 -0.738662 -5.86769 0
M  V30 11739 H 1105.03 0.0638419 -0.751292 0
M  V30 11740 H 1107.68 -0.540925 -1.75346 0
M  V30 11741 H 1106.06 1.10111 -3.80383 0
M  V30 11742 H 1107.24 -1.71873 -4.27547 0
M  V30 11743 H 1105.55 -1.40522 -3.91972 0
M  V30 11744 H 1108.15 1.04012 -5.24486 0
M  V30 11745 H 1108.49 1.84358 -3.73253 0
M  V30 11746 H 1109.03 0.162148 -3.97469 0
M  V30 11747 H 1105.77 -1.6866 -6.3343 0
M  V30 11748 H 1105.29 -0.00736294 -5.998 0
M  V30 11749 H 1106.96 -0.382978 -6.45866 0
M  V30 11750 N 1107.1 1.56929 -0.145233 0
M  V30 11751 C 1108.32 2.00431 0.513314 0
M  V30 11752 C 1108.74 1.0253 1.58534 0
M  V30 11753 O 1108.1 0.0220459 1.82487 0
M  V30 11754 C 1108.15 3.43856 1.11557 0
M  V30 11755 O 1107.87 4.38015 0.0863707 0
M  V30 11756 C 1109.37 4.02627 1.8549 0
M  V30 11757 H 1106.59 0.657529 0.133778 0
M  V30 11758 H 1109.13 2.03095 -0.239296 0
M  V30 11759 H 1107.29 3.4205 1.81881 0
M  V30 11760 H 1107.7 5.21842 0.527363 0
M  V30 11761 H 1109.18 5.04985 2.22923 0
M  V30 11762 H 1109.65 3.43239 2.74014 0
M  V30 11763 H 1110.26 4.08058 1.19869 0
M  V30 11764 N 1108.58 -0.128553 1.57075 0
M  V30 11765 C 1109.99 -0.481794 1.52154 0
M  V30 11766 C 1110.19 -1.82381 0.856694 0
M  V30 11767 O 1109.25 -2.48725 0.434989 0
M  V30 11768 C 1110.56 -0.475091 2.96923 0
M  V30 11769 C 1112.11 -0.559315 3.07962 0
M  V30 11770 C 1112.58 -0.583095 4.54273 0
M  V30 11771 N 1114.07 -0.644803 4.5869 0
M  V30 11772 C 1114.81 -0.684493 5.693 0
M  V30 11773 N 1114.31 -0.682407 6.89431 0
M  V30 11774 N 1116.1 -0.726777 5.57382 0
M  V30 11775 H 1108.25 0.750894 1.98684 0
M  V30 11776 H 1110.51 0.27593 0.906955 0
M  V30 11777 H 1110.22 0.443157 3.48897 0
M  V30 11778 H 1110.09 -1.30637 3.53856 0
M  V30 11779 H 1112.48 -1.46798 2.55997 0
M  V30 11780 H 1112.56 0.299468 2.54041 0
M  V30 11781 H 1112.2 0.32149 5.06881 0
M  V30 11782 H 1112.13 -1.45863 5.05996 0
M  V30 11783 H 1114.63 -0.652967 3.72216 0
M  V30 11784 H 1114.94 -0.715051 7.69485 0
M  V30 11785 H 1113.28 -0.649984 6.91954 0
M  V30 11786 H 1116.47 -0.725704 4.6244 0
M  V30 11787 H 1116.65 -0.754242 6.43596 0
M  V30 11788 N 1110.05 -1.5248 -0.398459 0
M  V30 11789 C 1110.98 -1.79549 -1.49279 0
M  V30 11790 C 1111.96 -0.647004 -1.57315 0
M  V30 11791 O 1113.15 -0.893661 -1.72416 0
M  V30 11792 C 1110.28 -1.95582 -2.86993 0
M  V30 11793 C 1109.23 -3.1123 -2.93803 0
M  V30 11794 C 1108.56 -3.12501 -4.33874 0
M  V30 11795 C 1109.86 -4.50485 -2.64312 0
M  V30 11796 H 1111.55 -2.71187 -1.26877 0
M  V30 11797 H 1109.1 -1.30492 -0.608924 0
M  V30 11798 H 1111.05 -2.13102 -3.63546 0
M  V30 11799 H 1109.78 -1.00625 -3.10712 0
M  V30 11800 H 1108.44 -2.93477 -2.19697 0
M  V30 11801 H 1108.08 -2.15245 -4.54619 0
M  V30 11802 H 1107.78 -3.90183 -4.39353 0
M  V30 11803 H 1109.31 -3.32164 -5.12347 0
M  V30 11804 H 1110.72 -4.68387 -3.30585 0
M  V30 11805 H 1109.12 -5.30163 -2.81153 0
M  V30 11806 H 1110.19 -4.57848 -1.59696 0
M  V30 11807 N 1111.53 0.65634 -1.43283 0
M  V30 11808 C 1112.46 1.78184 -1.44164 0
M  V30 11809 C 1113.48 1.59249 -0.338177 0
M  V30 11810 O 1114.67 1.68027 -0.60242 0
M  V30 11811 C 1111.77 3.15566 -1.23577 0
M  V30 11812 C 1110.94 3.61187 -2.46704 0
M  V30 11813 C 1110 4.77361 -2.21388 0
M  V30 11814 O 1109.02 4.8696 -2.94718 0
M  V30 11815 N 1110.23 5.67351 -1.22855 0
M  V30 11816 H 1112.99 1.77907 -2.41183 0
M  V30 11817 H 1110.55 0.840076 -1.38399 0
M  V30 11818 H 1112.54 3.90968 -1.04529 0
M  V30 11819 H 1111.11 3.10633 -0.350155 0
M  V30 11820 H 1110.33 2.76263 -2.81198 0
M  V30 11821 H 1111.62 3.88413 -3.28652 0
M  V30 11822 H 1111.02 5.62265 -0.622417 0
M  V30 11823 H 1109.58 6.42487 -1.09791 0
M  V30 11824 N 1113.01 1.29761 0.894412 0
M  V30 11825 C 1113.97 1.15335 1.98067 0
M  V30 11826 C 1114.97 0.0872804 1.60563 0
M  V30 11827 O 1116.16 0.334645 1.70955 0
M  V30 11828 C 1113.29 0.764907 3.32208 0
M  V30 11829 H 1114.49 2.11829 2.12293 0
M  V30 11830 H 1112.04 1.13023 1.0796 0
M  V30 11831 H 1112.78 -0.199948 3.23683 0
M  V30 11832 H 1112.56 1.53523 3.60795 0
M  V30 11833 H 1114.05 0.687176 4.11907 0
M  V30 11834 N 1114.49 -1.10549 1.12324 0
M  V30 11835 C 1115.9 -1.34508 0.85905 0
M  V30 11836 C 1116.1 -1.94901 -0.511468 0
M  V30 11837 O 1115.16 -2.18793 -1.2604 0
M  V30 11838 C 1116.47 -2.26788 1.97453 0
M  V30 11839 C 1118.02 -2.40328 2.00528 0
M  V30 11840 C 1118.5 -3.35936 3.11305 0
M  V30 11841 N 1119.99 -3.43504 3.1074 0
M  V30 11842 C 1120.72 -4.17449 3.93096 0
M  V30 11843 N 1120.22 -4.9429 4.85437 0
M  V30 11844 N 1122.01 -4.13055 3.81237 0
M  V30 11845 H 1114.16 -0.697171 2.00632 0
M  V30 11846 H 1116.42 -0.369548 0.873005 0
M  V30 11847 H 1116.13 -1.89621 2.96204 0
M  V30 11848 H 1116 -3.27086 1.87869 0
M  V30 11849 H 1118.39 -2.76765 1.02397 0
M  V30 11850 H 1118.47 -1.39849 2.14186 0
M  V30 11851 H 1118.12 -3.00225 4.09667 0
M  V30 11852 H 1118.05 -4.36291 2.94886 0
M  V30 11853 H 1120.54 -2.88702 2.43843 0
M  V30 11854 H 1120.85 -5.48109 5.4479 0
M  V30 11855 H 1119.2 -4.93419 4.89452 0
M  V30 11856 H 1122.39 -3.52117 3.08433 0
M  V30 11857 H 1122.56 -4.70424 4.45651 0
M  V30 11858 N 1115.97 -0.914965 -1.28321 0
M  V30 11859 C 1117.21 -0.555865 -1.96696 0
M  V30 11860 C 1117.57 0.8842 -1.70429 0
M  V30 11861 O 1118.77 1.35094 -2.32386 0
M  V30 11862 C 1117.04 -0.857942 -3.4695 0
M  V30 11863 S 1118.6 -0.605441 -4.34603 0
M  V30 11864 H 1115.42 -0.20564 -0.680612 0
M  V30 11865 H 1118.02 -1.18068 -1.55821 0
M  V30 11866 H 1116.72 -1.90394 -3.63563 0
M  V30 11867 H 1116.26 -0.221831 -3.92774 0
M  V30 11868 H 1118.27 0.542657 -4.93224 0
M  V30 11869 N 1117.44 1.42219 -0.679077 0
M  V30 11870 C 1118.86 1.55737 -0.349034 0
M  V30 11871 C 1119.06 1.65789 1.14527 0
M  V30 11872 O 1118.12 1.62717 1.93079 0
M  V30 11873 C 1119.43 2.80516 -1.0831 0
M  V30 11874 C 1120.98 2.94294 -1.06584 0
M  V30 11875 C 1121.45 4.2194 -1.78132 0
M  V30 11876 N 1122.94 4.28861 -1.75021 0
M  V30 11877 C 1123.68 5.26453 -2.27234 0
M  V30 11878 N 1123.17 6.30171 -2.87847 0
M  V30 11879 N 1124.97 5.1828 -2.17584 0
M  V30 11880 H 1117.12 1.33939 -1.64846 0
M  V30 11881 H 1119.38 0.645029 -0.694725 0
M  V30 11882 H 1119.09 2.79241 -2.13816 0
M  V30 11883 H 1118.96 3.71539 -0.651069 0
M  V30 11884 H 1121.35 2.95094 -0.0191061 0
M  V30 11885 H 1121.43 2.04491 -1.53679 0
M  V30 11886 H 1121.07 4.21901 -2.82776 0
M  V30 11887 H 1121 5.10685 -1.28483 0
M  V30 11888 H 1123.49 3.54537 -1.30814 0
M  V30 11889 H 1123.81 7.01 -3.25298 0
M  V30 11890 H 1122.15 6.30721 -2.91918 0
M  V30 11891 H 1125.34 4.36172 -1.69916 0
M  V30 11892 H 1125.52 5.94172 -2.58581 0
M  V30 11893 N 1118.92 0.422693 1.51826 0
M  V30 11894 C 1120.17 -0.148348 2.01555 0
M  V30 11895 C 1120.49 -1.44483 1.30956 0
M  V30 11896 O 1119.76 -1.90904 0.439599 0
M  V30 11897 H 1118.34 -0.0578116 0.74476 0
M  V30 11898 H 1121 0.562046 1.8662 0
M  V30 11899 H 1120.1 -0.334766 3.10299 0
M  V30 11900 N 1120.4 -1.5685 0.153553 0
M  V30 11901 C 1121.63 -2.0041 -0.501949 0
M  V30 11902 C 1122.04 -1.03272 -1.58529 0
M  V30 11903 O 1121.38 -0.0227479 -1.83686 0
M  V30 11904 C 1121.44 -3.40402 -1.15613 0
M  V30 11905 C 1121.11 -4.56486 -0.216596 0
M  V30 11906 C 1122.1 -5.16894 0.558267 0
M  V30 11907 C 1119.79 -5.02162 -0.117592 0
M  V30 11908 C 1121.78 -6.21392 1.41951 0
M  V30 11909 C 1119.47 -6.06514 0.747255 0
M  V30 11910 C 1120.47 -6.65999 1.51441 0
M  V30 11911 O 1120.16 -7.6833 2.36483 0
M  V30 11912 H 1119.89 -0.66247 -0.134574 0
M  V30 11913 H 1122.44 -2.03908 0.247086 0
M  V30 11914 H 1120.67 -3.33762 -1.95294 0
M  V30 11915 H 1122.36 -3.68028 -1.71202 0
M  V30 11916 H 1123.13 -4.825 0.491851 0
M  V30 11917 H 1119.01 -4.55586 -0.704462 0
M  V30 11918 H 1122.55 -6.67751 2.01877 0
M  V30 11919 H 1118.45 -6.40335 0.81494 0
M  V30 11920 H 1119.21 -7.85578 2.29803 0
M  V30 11921 N 1121.88 0.120221 -1.57141 0
M  V30 11922 C 1122.81 1.14876 -2.03287 0
M  V30 11923 C 1123.79 1.43259 -0.917112 0
M  V30 11924 O 1124.97 1.53721 -1.18674 0
M  V30 11925 C 1122.1 2.47525 -2.43616 0
M  V30 11926 C 1121.06 2.33607 -3.58625 0
M  V30 11927 C 1120.38 3.71207 -3.84849 0
M  V30 11928 C 1121.68 1.79761 -4.90391 0
M  V30 11929 H 1123.38 0.764943 -2.89463 0
M  V30 11930 H 1120.92 0.366516 -1.39258 0
M  V30 11931 H 1122.88 3.19728 -2.74504 0
M  V30 11932 H 1121.6 2.87794 -1.54409 0
M  V30 11933 H 1120.26 1.63853 -3.27945 0
M  V30 11934 H 1119.91 4.0896 -2.9285 0
M  V30 11935 H 1119.61 3.62749 -4.62263 0
M  V30 11936 H 1121.13 4.44917 -4.18188 0
M  V30 11937 H 1122.55 2.4178 -5.19822 0
M  V30 11938 H 1120.94 1.82126 -5.71795 0
M  V30 11939 H 1122.01 0.755087 -4.78985 0
M  V30 11940 N 1123.36 1.52689 0.390367 0
M  V30 11941 C 1124.6 1.67914 1.13722 0
M  V30 11942 C 1124.94 0.417159 1.89667 0
M  V30 11943 O 1124.21 -0.585005 1.85494 0
M  V30 11944 C 1124.49 2.91331 2.11656 0
M  V30 11945 C 1124.35 4.27626 1.39484 0
M  V30 11946 C 1125.67 3.10293 3.12099 0
M  V30 11947 H 1122.78 0.611047 0.412057 0
M  V30 11948 H 1125.43 1.85283 0.420753 0
M  V30 11949 H 1123.58 2.76654 2.72754 0
M  V30 11950 H 1125.25 4.54068 0.813607 0
M  V30 11951 H 1123.49 4.28169 0.69669 0
M  V30 11952 H 1124.16 5.10066 2.11038 0
M  V30 11953 H 1126.64 3.23992 2.6109 0
M  V30 11954 H 1125.51 3.98127 3.7787 0
M  V30 11955 H 1125.78 2.24448 3.80888 0
M  V30 11956 N 1124.83 -0.648732 1.43629 0
M  V30 11957 C 1126.25 -0.964917 1.27128 0
M  V30 11958 C 1126.45 -2.00561 0.194251 0
M  V30 11959 O 1125.51 -2.48884 -0.42581 0
M  V30 11960 C 1126.82 -1.44491 2.6371 0
M  V30 11961 C 1128.37 -1.56133 2.71278 0
M  V30 11962 C 1128.84 -2.07521 4.08288 0
M  V30 11963 N 1130.33 -2.14817 4.10375 0
M  V30 11964 C 1131.07 -2.55712 5.13224 0
M  V30 11965 N 1130.56 -2.9587 6.26444 0
M  V30 11966 N 1132.36 -2.55691 5.00578 0
M  V30 11967 H 1124.51 0.0398357 2.12363 0
M  V30 11968 H 1126.77 -0.0447705 0.946942 0
M  V30 11969 H 1126.48 -0.754616 3.43509 0
M  V30 11970 H 1126.35 -2.41914 2.89409 0
M  V30 11971 H 1128.74 -2.24263 1.91808 0
M  V30 11972 H 1128.82 -0.571314 2.49338 0
M  V30 11973 H 1128.46 -1.39992 4.88226 0
M  V30 11974 H 1128.39 -3.07362 4.27594 0
M  V30 11975 H 1130.88 -1.86538 3.28652 0
M  V30 11976 H 1131.2 -3.25837 7.0075 0
M  V30 11977 H 1129.54 -2.93664 6.2991 0
M  V30 11978 H 1132.73 -2.23697 4.1119 0
M  V30 11979 H 1132.91 -2.87239 5.80859 0
M  V30 11980 N 1126.31 -1.30234 -0.887518 0
M  V30 11981 C 1127.24 -1.12212 -1.99853 0
M  V30 11982 C 1128.26 -0.0660929 -1.62666 0
M  V30 11983 O 1129.45 -0.311853 -1.75755 0
M  V30 11984 C 1126.55 -0.688591 -3.31831 0
M  V30 11985 C 1125.72 -1.82581 -3.97471 0
M  V30 11986 C 1124.78 -1.38126 -5.07748 0
M  V30 11987 O 1123.8 -2.08805 -5.29518 0
M  V30 11988 N 1125.01 -0.258868 -5.79923 0
M  V30 11989 H 1127.77 -2.07901 -2.15864 0
M  V30 11990 H 1125.33 -1.22336 -1.06045 0
M  V30 11991 H 1127.32 -0.374252 -4.02966 0
M  V30 11992 H 1125.89 0.176185 -3.12103 0
M  V30 11993 H 1125.11 -2.3084 -3.19541 0
M  V30 11994 H 1126.4 -2.58798 -4.38065 0
M  V30 11995 H 1125.8 0.330131 -5.64736 0
M  V30 11996 H 1124.36 -0.00396813 -6.518 0
M  V30 11997 N 1127.79 1.09952 -1.12909 0
M  V30 11998 C 1128.7 2.19999 -0.81471 0
M  V30 11999 C 1129.72 1.72864 0.19851 0
M  V30 12000 O 1130.89 2.01376 0.0308832 0
M  V30 12001 C 1127.96 3.45573 -0.279363 0
M  V30 12002 C 1127.02 4.07417 -1.35314 0
M  V30 12003 C 1126.25 5.26996 -0.843247 0
M  V30 12004 O 1126.47 5.69495 0.321164 0
M  V30 12005 O 1125.41 5.79826 -1.61511 0
M  V30 12006 H 1129.23 2.49333 -1.73398 0
M  V30 12007 H 1126.82 1.18784 -0.906128 0
M  V30 12008 H 1128.7 4.21398 0.0140531 0
M  V30 12009 H 1127.38 3.17854 0.612401 0
M  V30 12010 H 1126.28 3.33253 -1.6998 0
M  V30 12011 H 1127.62 4.39349 -2.21885 0
M  V30 12012 N 1129.27 0.921757 1.27833 0
M  V30 12013 C 1130.52 0.559078 1.94629 0
M  V30 12014 C 1130.84 -0.898641 1.72495 0
M  V30 12015 O 1130.1 -1.65546 1.0437 0
M  V30 12016 C 1130.4 0.824259 3.47765 0
M  V30 12017 C 1130.06 2.26278 3.90011 0
M  V30 12018 C 1128.73 2.65607 4.01256 0
M  V30 12019 C 1131.08 3.19853 4.11513 0
M  V30 12020 C 1128.41 3.97646 4.31387 0
M  V30 12021 C 1130.76 4.51467 4.43126 0
M  V30 12022 C 1129.42 4.90637 4.52583 0
M  V30 12023 H 1128.69 0.204581 0.712199 0
M  V30 12024 H 1131.34 1.1646 1.52018 0
M  V30 12025 H 1129.64 0.136011 3.91564 0
M  V30 12026 H 1131.34 0.522701 3.97579 0
M  V30 12027 H 1127.93 1.94765 3.81791 0
M  V30 12028 H 1132.11 2.90674 4.02271 0
M  V30 12029 H 1127.37 4.27685 4.36916 0
M  V30 12030 H 1131.54 5.23982 4.58711 0
M  V30 12031 H 1129.17 5.92982 4.75685 0
M  V30 12032 N 1130.75 -1.41857 0.686609 0
M  V30 12033 C 1132.16 -1.55549 0.357288 0
M  V30 12034 C 1132.36 -1.66394 -1.13646 0
M  V30 12035 O 1131.42 -1.63739 -1.92213 0
M  V30 12036 C 1132.73 -2.79938 1.09796 0
M  V30 12037 C 1134.28 -2.93724 1.08143 0
M  V30 12038 C 1134.75 -4.20989 1.80367 0
M  V30 12039 N 1136.25 -4.27927 1.77293 0
M  V30 12040 C 1136.98 -5.2524 2.30022 0
M  V30 12041 N 1136.48 -6.28636 2.91185 0
M  V30 12042 N 1138.27 -5.17118 2.20329 0
M  V30 12043 H 1130.42 -1.33063 1.65554 0
M  V30 12044 H 1132.68 -0.641335 0.698135 0
M  V30 12045 H 1132.39 -2.78104 2.15293 0
M  V30 12046 H 1132.26 -3.71188 0.670763 0
M  V30 12047 H 1134.65 -2.9508 0.0347554 0
M  V30 12048 H 1134.73 -2.03673 1.54761 0
M  V30 12049 H 1134.38 -4.20395 2.85009 0
M  V30 12050 H 1134.31 -5.09997 1.3119 0
M  V30 12051 H 1136.8 -3.53838 1.32692 0
M  V30 12052 H 1137.11 -6.99265 3.29011 0
M  V30 12053 H 1135.45 -6.29164 2.95259 0
M  V30 12054 H 1138.65 -4.35265 1.72226 0
M  V30 12055 H 1138.82 -5.92792 2.61728 0
M  V30 12056 N 1132.22 -0.430739 -1.51599 0
M  V30 12057 C 1133.45 0.139197 -2.06932 0
M  V30 12058 C 1133.87 1.3626 -1.29672 0
M  V30 12059 O 1133.23 1.78219 -0.332836 0
M  V30 12060 C 1133.28 0.446593 -3.57824 0
M  V30 12061 O 1132.38 1.53414 -3.82803 0
M  V30 12062 H 1131.73 0.00475812 -0.663983 0
M  V30 12063 H 1134.26 -0.610171 -1.9529 0
M  V30 12064 H 1134.27 0.698972 -4.01968 0
M  V30 12065 H 1132.94 -0.447613 -4.13484 0
M  V30 12066 H 1131.52 1.27224 -3.50526 0
M  V30 12067 N 1133.7 1.56767 -0.161869 0
M  V30 12068 C 1135.12 1.58412 0.194403 0
M  V30 12069 C 1135.32 1.17682 1.63564 0
M  V30 12070 O 1134.37 0.884024 2.36519 0
M  V30 12071 C 1135.69 3.00599 -0.0778438 0
M  V30 12072 C 1137.24 3.12996 -0.015307 0
M  V30 12073 C 1137.71 4.57259 -0.260418 0
M  V30 12074 N 1139.2 4.62733 -0.207863 0
M  V30 12075 C 1139.94 5.72193 -0.371821 0
M  V30 12076 N 1139.43 6.90246 -0.594318 0
M  V30 12077 N 1141.23 5.61253 -0.308384 0
M  V30 12078 H 1133.38 1.81531 -1.10274 0
M  V30 12079 H 1135.64 0.840919 -0.437675 0
M  V30 12080 H 1135.35 3.3484 -1.07587 0
M  V30 12081 H 1135.22 3.71819 0.634845 0
M  V30 12082 H 1137.61 2.78588 0.97329 0
M  V30 12083 H 1137.69 2.44232 -0.760559 0
M  V30 12084 H 1137.33 4.92375 -1.24618 0
M  V30 12085 H 1137.26 5.2417 0.505334 0
M  V30 12086 H 1139.75 3.77878 -0.0411541 0
M  V30 12087 H 1140.07 7.6954 -0.70913 0
M  V30 12088 H 1138.41 6.92131 -0.630819 0
M  V30 12089 H 1141.6 4.67905 -0.135217 0
M  V30 12090 H 1141.77 6.46507 -0.439592 0
M  V30 12091 N 1135.18 -0.111886 1.57202 0
M  V30 12092 C 1136.11 -1.16749 1.96074 0
M  V30 12093 C 1137.09 -1.39735 0.831438 0
M  V30 12094 O 1138.28 -1.53772 1.09025 0
M  V30 12095 C 1135.4 -2.51996 2.26308 0
M  V30 12096 C 1134.45 -2.45394 3.48832 0
M  V30 12097 S 1135.28 -1.8867 5.01163 0
M  V30 12098 C 1136.44 -3.25576 5.34557 0
M  V30 12099 H 1136.67 -0.836033 2.85303 0
M  V30 12100 H 1134.2 -0.318922 1.5107 0
M  V30 12101 H 1136.16 -3.29813 2.44405 0
M  V30 12102 H 1134.82 -2.82317 1.3768 0
M  V30 12103 H 1134.02 -3.45038 3.67376 0
M  V30 12104 H 1133.62 -1.75702 3.30159 0
M  V30 12105 H 1135.91 -4.21807 5.30174 0
M  V30 12106 H 1136.85 -3.11853 6.35731 0
M  V30 12107 H 1137.26 -3.24333 4.62026 0
M  V30 12108 N 1136.66 -1.52894 -0.382264 0
M  V30 12109 C 1137.61 -1.78799 -1.48774 0
M  V30 12110 C 1138.6 -0.65624 -1.56173 0
M  V30 12111 O 1139.81 -0.838856 -1.59258 0
M  V30 12112 H 1136.18 -0.565855 -0.49529 0
M  V30 12113 H 1138.15 -2.7136 -1.24122 0
M  V30 12114 C 1136.9 -1.97987 -2.85826 0
M  V30 12115 H 1136.22 -2.84505 -2.80886 0
M  V30 12116 H 1137.66 -2.20099 -3.62398 0
M  V30 12117 C 1136.12 -0.75427 -3.28348 0
M  V30 12118 O 1136.65 0.0650749 -4.01647 0
M  V30 12119 N 1134.86 -0.582457 -2.84703 0
M  V30 12120 H 1134.41 -1.25034 -2.2522 0
M  V30 12121 H 1134.36 0.236208 -3.13511 0
M  V30 12122 N 1138.14 0.641106 -1.43971 0
M  V30 12123 C 1139.38 1.40084 -1.46228 0
M  V30 12124 C 1139.71 1.94287 -0.0911011 0
M  V30 12125 O 1138.97 1.73481 0.905688 0
M  V30 12126 C 1139.27 2.59092 -2.46183 0
M  V30 12127 C 1138.93 2.23237 -3.9176 0
M  V30 12128 C 1137.59 2.13171 -4.31407 0
M  V30 12129 C 1139.95 1.94746 -4.83449 0
M  V30 12130 C 1137.27 1.72788 -5.60679 0
M  V30 12131 C 1139.63 1.55858 -6.13099 0
M  V30 12132 C 1138.29 1.44326 -6.5171 0
M  V30 12133 H 1137.56 0.512603 -0.535088 0
M  V30 12134 H 1140.21 0.727956 -1.77124 0
M  V30 12135 H 1138.51 3.31568 -2.08734 0
M  V30 12136 H 1140.21 3.17313 -2.4518 0
M  V30 12137 H 1136.8 2.31986 -3.60389 0
M  V30 12138 H 1140.98 2.01438 -4.53582 0
M  V30 12139 H 1136.24 1.62455 -5.89422 0
M  V30 12140 H 1140.41 1.32848 -6.83611 0
M  V30 12141 H 1138.04 1.12806 -7.51784 0
M  V30 12142 N 1139.62 1.30703 0.880598 0
M  V30 12143 C 1140.55 1.20033 2.00286 0
M  V30 12144 C 1141.53 0.0899614 1.69862 0
M  V30 12145 O 1142.71 0.272747 1.92275 0
M  V30 12146 C 1139.84 0.895902 3.35546 0
M  V30 12147 C 1138.8 1.96468 3.80242 0
M  V30 12148 C 1138.12 1.51316 5.12843 0
M  V30 12149 C 1139.42 3.37637 3.98496 0
M  V30 12150 H 1141.12 2.13922 2.0947 0
M  V30 12151 H 1138.66 1.02989 1.00644 0
M  V30 12152 H 1140.61 0.807899 4.13583 0
M  V30 12153 H 1139.34 -0.0786636 3.26505 0
M  V30 12154 H 1138 2.0424 3.04437 0
M  V30 12155 H 1137.65 0.52674 5.00234 0
M  V30 12156 H 1137.35 2.22807 5.43719 0
M  V30 12157 H 1138.87 1.43903 5.93401 0
M  V30 12158 H 1140.28 3.326 4.66959 0
M  V30 12159 H 1138.68 4.07253 4.40755 0
M  V30 12160 H 1139.75 3.79205 3.02211 0
M  V30 12161 N 1141.09 -1.09351 1.1349 0
M  V30 12162 C 1142.04 -2.16008 0.812981 0
M  V30 12163 C 1143.01 -1.64566 -0.225252 0
M  V30 12164 O 1144.2 -1.90552 -0.0973261 0
M  V30 12165 C 1141.34 -3.43913 0.285996 0
M  V30 12166 C 1140.45 -4.09251 1.38338 0
M  V30 12167 C 1139.58 -5.24916 0.814652 0
M  V30 12168 C 1138.62 -5.82178 1.89038 0
M  V30 12169 N 1137.76 -6.89203 1.33955 0
M  V30 12170 H 1142.6 -2.42887 1.72655 0
M  V30 12171 H 1140.14 -1.19209 0.861833 0
M  V30 12172 H 1142.09 -4.17183 -0.0376794 0
M  V30 12173 H 1140.72 -3.17349 -0.590707 0
M  V30 12174 H 1139.78 -3.33838 1.82363 0
M  V30 12175 H 1141.09 -4.4784 2.19638 0
M  V30 12176 H 1140.24 -6.05086 0.442306 0
M  V30 12177 H 1138.98 -4.87691 -0.029416 0
M  V30 12178 H 1137.99 -5.00669 2.27179 0
M  V30 12179 H 1139.21 -6.21464 2.73787 0
M  V30 12180 H 1137.16 -6.53956 0.517494 0
M  V30 12181 H 1137.07 -7.26565 2.08902 0
M  V30 12182 H 1138.34 -7.73126 0.994793 0
M  V30 12183 N 1142.57 -0.928524 -1.27343 0
M  V30 12184 C 1143.52 -0.426873 -2.26818 0
M  V30 12185 C 1144.49 0.506663 -1.58184 0
M  V30 12186 O 1145.67 0.425641 -1.85992 0
M  V30 12187 C 1142.81 0.313523 -3.43673 0
M  V30 12188 C 1141.93 -0.65422 -4.27018 0
M  V30 12189 C 1141.06 0.106102 -5.31094 0
M  V30 12190 C 1140.1 -0.854293 -6.06109 0
M  V30 12191 N 1139.24 -0.126545 -7.01986 0
M  V30 12192 H 1144.08 -1.28014 -2.69103 0
M  V30 12193 H 1141.61 -0.642515 -1.32326 0
M  V30 12194 H 1143.57 0.75912 -4.10236 0
M  V30 12195 H 1142.2 1.13102 -3.02337 0
M  V30 12196 H 1141.25 -1.21834 -3.60362 0
M  V30 12197 H 1142.57 -1.38817 -4.79094 0
M  V30 12198 H 1141.72 0.611577 -6.0361 0
M  V30 12199 H 1140.46 0.873009 -4.79823 0
M  V30 12200 H 1139.46 -1.37101 -5.32432 0
M  V30 12201 H 1140.69 -1.621 -6.5947 0
M  V30 12202 H 1138.64 0.622102 -6.53044 0
M  V30 12203 H 1138.55 -0.800046 -7.51755 0
M  V30 12204 H 1139.82 0.358251 -7.78676 0
M  V30 12205 N 1144.05 1.41491 -0.694123 0
M  V30 12206 C 1144.98 2.29197 0.0112742 0
M  V30 12207 C 1145.99 1.44708 0.745877 0
M  V30 12208 O 1147.18 1.68227 0.596821 0
M  V30 12209 C 1144.28 3.22547 1.04004 0
M  V30 12210 C 1143.46 4.35787 0.375347 0
M  V30 12211 C 1142.52 5.09722 1.30652 0
M  V30 12212 O 1141.54 5.63558 0.799459 0
M  V30 12213 N 1142.74 5.1705 2.63893 0
M  V30 12214 H 1145.51 2.90377 -0.741705 0
M  V30 12215 H 1143.07 1.52628 -0.540039 0
M  V30 12216 H 1145.06 3.68878 1.66468 0
M  V30 12217 H 1143.63 2.62685 1.69456 0
M  V30 12218 H 1142.85 3.91857 -0.429145 0
M  V30 12219 H 1144.14 5.08726 -0.0869041 0
M  V30 12220 H 1143.54 4.74756 3.07609 0
M  V30 12221 H 1142.09 5.66962 3.21555 0
M  V30 12222 N 1145.53 0.438773 1.51369 0
M  V30 12223 C 1146.78 -0.128723 2.01289 0
M  V30 12224 C 1147.09 -1.43659 1.32745 0
M  V30 12225 O 1148.3 -2.08712 1.73642 0
M  V30 12226 C 1146.75 -0.279945 3.5881 0
M  V30 12227 C 1146.36 1.01758 4.3629 0
M  V30 12228 C 1148.1 -0.801133 4.16872 0
M  V30 12229 C 1146.01 0.831918 5.85519 0
M  V30 12230 H 1144.94 -0.0518814 0.752213 0
M  V30 12231 H 1147.59 0.568753 1.74463 0
M  V30 12232 H 1145.97 -1.04046 3.82087 0
M  V30 12233 H 1147.15 1.78653 4.24758 0
M  V30 12234 H 1145.46 1.46741 3.89687 0
M  V30 12235 H 1148.06 -0.956548 5.26074 0
M  V30 12236 H 1148.4 -1.78396 3.76139 0
M  V30 12237 H 1148.94 -0.0988934 3.97677 0
M  V30 12238 H 1145.67 1.78716 6.30667 0
M  V30 12239 H 1145.19 0.102785 5.99712 0
M  V30 12240 H 1146.87 0.485681 6.45174 0
M  V30 12241 N 1147.01 -1.56678 0.170181 0
M  V30 12242 C 1148.42 -1.83452 -0.346742 0
M  V30 12243 C 1148.77 -1.08993 -1.63141 0
M  V30 12244 O 1147.89 -0.342607 -2.13671 0
M  V30 12245 C 1148.49 -3.32779 -0.635882 0
M  V30 12246 C 1147.05 -3.60052 -1.09725 0
M  V30 12247 C 1146.19 -2.76983 -0.132516 0
M  V30 12248 H 1149.14 -1.53719 0.394465 0
M  V30 12249 H 1149.17 -3.50195 -1.48806 0
M  V30 12250 H 1148.68 -3.86944 0.299291 0
M  V30 12251 H 1146.78 -3.11297 -2.04756 0
M  V30 12252 H 1146.89 -4.68393 -1.00719 0
M  V30 12253 H 1145.26 -2.46794 -0.62966 0
M  V30 12254 H 1146.04 -3.33929 0.796658 0
M  V30 12255 N 1148.48 0.103547 -1.57259 0
M  V30 12256 C 1149.45 1.11039 -2.00507 0
M  V30 12257 C 1150.45 1.33432 -0.897361 0
M  V30 12258 O 1151.64 1.29688 -1.16304 0
M  V30 12259 C 1148.77 2.46144 -2.35851 0
M  V30 12260 H 1149.96 0.738332 -2.90669 0
M  V30 12261 H 1147.51 0.348334 -1.52369 0
M  V30 12262 H 1148.25 2.88242 -1.48617 0
M  V30 12263 H 1148.03 2.31241 -3.16654 0
M  V30 12264 H 1149.52 3.18577 -2.69997 0
M  V30 12265 N 1149.96 1.53094 0.37415 0
M  V30 12266 C 1151.21 1.68082 1.11495 0
M  V30 12267 C 1151.52 0.434685 1.90709 0
M  V30 12268 O 1152.73 0.464956 2.67489 0
M  V30 12269 C 1151.19 2.97101 2.03124 0
M  V30 12270 C 1150.79 4.28947 1.29262 0
M  V30 12271 C 1152.54 3.21456 2.77248 0
M  V30 12272 C 1150.44 5.4906 2.19743 0
M  V30 12273 H 1149.37 0.626238 0.419931 0
M  V30 12274 H 1152.03 1.79594 0.376588 0
M  V30 12275 H 1150.41 2.79371 2.80656 0
M  V30 12276 H 1151.58 4.57279 0.568528 0
M  V30 12277 H 1149.9 4.10968 0.670362 0
M  V30 12278 H 1152.49 4.08377 3.45155 0
M  V30 12279 H 1152.84 2.37153 3.42146 0
M  V30 12280 H 1153.37 3.3982 2.06803 0
M  V30 12281 H 1150.11 6.35815 1.59437 0
M  V30 12282 H 1149.63 5.25019 2.90027 0
M  V30 12283 H 1151.31 5.83517 2.79495 0
M  V30 12284 N 1151.44 -0.633461 1.44309 0
M  V30 12285 C 1152.67 -1.42033 1.50447 0
M  V30 12286 C 1153.08 -1.88362 0.128585 0
M  V30 12287 O 1152.44 -1.60695 -0.865071 0
M  V30 12288 C 1152.49 -2.6422 2.46719 0
M  V30 12289 O 1152.21 -2.19823 3.78958 0
M  V30 12290 C 1153.71 -3.57372 2.62298 0
M  V30 12291 H 1150.93 -0.435667 0.510329 0
M  V30 12292 H 1153.48 -0.774907 1.8925 0
M  V30 12293 H 1151.63 -3.24859 2.11058 0
M  V30 12294 H 1152.05 -2.99022 4.30913 0
M  V30 12295 H 1153.52 -4.39719 3.33693 0
M  V30 12296 H 1154 -4.06026 1.67449 0
M  V30 12297 H 1154.6 -3.02603 2.9885 0
M  V30 12298 N 1152.92 -1.31168 -0.873655 0
M  V30 12299 C 1154.16 -1.21938 -1.64044 0
M  V30 12300 C 1154.52 0.219903 -1.90737 0
M  V30 12301 O 1155.72 0.435635 -2.65246 0
M  V30 12302 C 1153.99 -2.03633 -2.93715 0
M  V30 12303 S 1155.55 -2.11224 -3.84616 0
M  V30 12304 H 1152.37 -0.43436 -0.562896 0
M  V30 12305 H 1154.97 -1.65786 -1.03612 0
M  V30 12306 H 1153.68 -3.07298 -2.72022 0
M  V30 12307 H 1153.21 -1.6049 -3.59175 0
M  V30 12308 H 1155.22 -1.24787 -4.80253 0
M  V30 12309 N 1154.4 1.08748 -1.14068 0
M  V30 12310 C 1155.65 1.8044 -0.901352 0
M  V30 12311 C 1155.96 1.86995 0.573791 0
M  V30 12312 O 1157.16 2.55065 0.930275 0
M  V30 12313 C 1155.62 3.24185 -1.56308 0
M  V30 12314 C 1155.23 3.25875 -3.07424 0
M  V30 12315 C 1156.97 4.00584 -1.40473 0
M  V30 12316 C 1154.88 4.64186 -3.66449 0
M  V30 12317 H 1153.81 0.676201 -0.333569 0
M  V30 12318 H 1156.46 1.22169 -1.3692 0
M  V30 12319 H 1154.84 3.82561 -1.0229 0
M  V30 12320 H 1156.02 2.77225 -3.6808 0
M  V30 12321 H 1154.33 2.62969 -3.22856 0
M  V30 12322 H 1156.93 5.02781 -1.81976 0
M  V30 12323 H 1157.27 4.14823 -0.350408 0
M  V30 12324 H 1157.8 3.48668 -1.91508 0
M  V30 12325 H 1154.54 4.5515 -4.71719 0
M  V30 12326 H 1154.06 5.13132 -3.10574 0
M  V30 12327 H 1155.74 5.33161 -3.66536 0
M  V30 12328 N 1155.87 0.935264 1.26849 0
M  V30 12329 C 1156.81 0.397539 2.25726 0
M  V30 12330 C 1157.82 -0.475928 1.55688 0
M  V30 12331 O 1159.01 -0.287329 1.76172 0
M  V30 12332 C 1156.11 -0.448308 3.35922 0
M  V30 12333 C 1155.28 0.407624 4.35496 0
M  V30 12334 C 1154.34 -0.376815 5.24849 0
M  V30 12335 O 1153.37 0.218109 5.68782 0
M  V30 12336 N 1154.57 -1.67481 5.55815 0
M  V30 12337 H 1157.33 1.24753 2.72501 0
M  V30 12338 H 1154.89 0.803505 1.40554 0
M  V30 12339 H 1156.89 -0.980338 3.92647 0
M  V30 12340 H 1155.46 -1.19908 2.88688 0
M  V30 12341 H 1154.68 1.12091 3.77928 0
M  V30 12342 H 1155.96 0.992512 4.99026 0
M  V30 12343 H 1155.36 -2.18037 5.21993 0
M  V30 12344 H 1153.92 -2.15321 6.15207 0
M  V30 12345 N 1157.35 -1.41121 0.701616 0
M  V30 12346 C 1158.58 -2.05973 0.242896 0
M  V30 12347 C 1159 -1.52474 -1.10151 0
M  V30 12348 O 1158.36 -0.654224 -1.69085 0
M  V30 12349 C 1158.41 -3.59943 0.217614 0
M  V30 12350 O 1157.51 -4.04454 -0.805629 0
M  V30 12351 H 1156.85 -0.653581 0.117166 0
M  V30 12352 H 1159.38 -1.80777 0.958175 0
M  V30 12353 H 1159.39 -4.07969 0.0505267 0
M  V30 12354 H 1158.07 -3.98249 1.19877 0
M  V30 12355 H 1156.65 -3.6792 -0.607404 0
M  V30 12356 N 1158.83 -0.446794 -1.51134 0
M  V30 12357 C 1159.76 0.395804 -2.25757 0
M  V30 12358 C 1160.78 0.978178 -1.30137 0
M  V30 12359 O 1161.96 0.87071 -1.55823 0
M  V30 12360 C 1159.06 1.56665 -3.00515 0
M  V30 12361 C 1158.24 1.10146 -4.23305 0
M  V30 12362 C 1157.3 2.14352 -4.80562 0
M  V30 12363 O 1156.32 1.73401 -5.42145 0
M  V30 12364 N 1157.52 3.46932 -4.65423 0
M  V30 12365 H 1160.29 -0.243808 -2.98707 0
M  V30 12366 H 1157.85 -0.276205 -1.59527 0
M  V30 12367 H 1159.84 2.26019 -3.35704 0
M  V30 12368 H 1158.41 2.11142 -2.30516 0
M  V30 12369 H 1157.63 0.234644 -3.93501 0
M  V30 12370 H 1158.92 0.768185 -5.02968 0
M  V30 12371 H 1158.32 3.82929 -4.16391 0
M  V30 12372 H 1156.88 4.12154 -5.04948 0
M  V30 12373 N 1160.31 1.56586 -0.178487 0
M  V30 12374 C 1161.55 1.98159 0.45876 0
M  V30 12375 C 1161.91 1.0629 1.60375 0
M  V30 12376 O 1161.2 0.103975 1.91318 0
M  V30 12377 C 1161.4 3.43629 0.982552 0
M  V30 12378 C 1161.23 4.49565 -0.110152 0
M  V30 12379 C 1160 5.02162 -0.562228 0
M  V30 12380 C 1162.19 5.06129 -0.913143 0
M  V30 12381 N 1160.18 5.91741 -1.63449 0
M  V30 12382 C 1161.55 5.92217 -1.83517 0
M  V30 12383 C 1163.6 4.88608 -0.957421 0
M  V30 12384 C 1162.3 6.6266 -2.79775 0
M  V30 12385 C 1164.33 5.59777 -1.90798 0
M  V30 12386 C 1163.69 6.45599 -2.81747 0
M  V30 12387 H 1159.79 0.770124 0.13577 0
M  V30 12388 H 1162.38 1.92671 -0.280358 0
M  V30 12389 H 1160.55 3.49649 1.69117 0
M  V30 12390 H 1162.28 3.72199 1.58902 0
M  V30 12391 H 1159.03 4.73334 -0.158612 0
M  V30 12392 H 1159.46 6.41235 -2.17132 0
M  V30 12393 H 1164.1 4.21948 -0.268285 0
M  V30 12394 H 1161.82 7.28529 -3.49673 0
M  V30 12395 H 1165.4 5.48204 -1.94844 0
M  V30 12396 H 1164.28 6.99701 -3.54102 0
M  V30 12397 N 1161.79 -0.095206 1.57312 0
M  V30 12398 C 1163.2 -0.449411 1.53142 0
M  V30 12399 C 1163.4 -1.80523 0.895187 0
M  V30 12400 O 1162.46 -2.47746 0.487649 0
M  V30 12401 C 1163.77 -0.412002 2.97864 0
M  V30 12402 C 1165.32 -0.493866 3.09079 0
M  V30 12403 C 1165.79 -0.486606 4.55408 0
M  V30 12404 N 1167.29 -0.547363 4.59955 0
M  V30 12405 C 1168.02 -0.563582 5.70624 0
M  V30 12406 N 1167.52 -0.536015 6.90723 0
M  V30 12407 N 1169.31 -0.608385 5.58798 0
M  V30 12408 H 1161.46 0.792869 1.97047 0
M  V30 12409 H 1163.72 0.295106 0.900898 0
M  V30 12410 H 1163.43 0.517064 3.47878 0
M  V30 12411 H 1163.3 -1.23102 3.56547 0
M  V30 12412 H 1165.69 -1.41335 2.59053 0
M  V30 12413 H 1165.77 0.353286 2.53349 0
M  V30 12414 H 1165.42 0.428935 5.06086 0
M  V30 12415 H 1165.35 -1.35097 5.08976 0
M  V30 12416 H 1167.84 -0.573867 3.73517 0
M  V30 12417 H 1168.15 -0.551671 7.70828 0
M  V30 12418 H 1166.49 -0.503064 6.93177 0
M  V30 12419 H 1169.69 -0.627451 4.63876 0
M  V30 12420 H 1169.86 -0.617556 6.45051 0
M  V30 12421 N 1163.26 -1.53291 -0.366026 0
M  V30 12422 C 1164.51 -1.69117 -1.10653 0
M  V30 12423 C 1164.83 -0.445327 -1.89847 0
M  V30 12424 O 1164.1 0.540616 -1.88293 0
M  V30 12425 H 1162.68 -0.623446 -0.41149 0
M  V30 12426 H 1165.35 -1.90479 -0.412749 0
M  V30 12427 H 1164.44 -2.55205 -1.79658 0
M  V30 12428 N 1164.74 0.6258 -1.44643 0
M  V30 12429 C 1165.97 1.41028 -1.50979 0
M  V30 12430 C 1166.38 1.88717 -0.135092 0
M  V30 12431 O 1165.72 1.61778 0.870268 0
M  V30 12432 C 1165.79 2.66094 -2.41732 0
M  V30 12433 C 1165.45 2.40166 -3.88805 0
M  V30 12434 C 1166.45 2.01661 -4.79196 0
M  V30 12435 C 1164.13 2.53641 -4.33557 0
M  V30 12436 C 1166.13 1.76966 -6.12341 0
M  V30 12437 C 1163.81 2.2856 -5.66748 0
M  V30 12438 C 1164.81 1.90282 -6.55959 0
M  V30 12439 O 1164.5 1.65484 -7.86683 0
M  V30 12440 H 1164.23 0.438757 -0.514265 0
M  V30 12441 H 1166.78 0.772034 -1.90339 0
M  V30 12442 H 1165.01 3.32575 -1.97309 0
M  V30 12443 H 1166.7 3.28107 -2.38957 0
M  V30 12444 H 1167.47 1.90802 -4.45892 0
M  V30 12445 H 1163.35 2.82404 -3.64375 0
M  V30 12446 H 1166.89 1.47014 -6.81933 0
M  V30 12447 H 1162.79 2.3903 -5.99612 0
M  V30 12448 H 1163.56 1.79686 -7.98533 0
M  V30 12449 N 1166.22 1.31629 0.866686 0
M  V30 12450 C 1167.17 1.19556 1.97421 0
M  V30 12451 C 1168.14 0.0805578 1.65905 0
M  V30 12452 O 1169.32 0.253997 1.89102 0
M  V30 12453 C 1166.46 0.912234 3.32825 0
M  V30 12454 C 1165.58 2.11088 3.76916 0
M  V30 12455 C 1164.71 1.76406 5.01053 0
M  V30 12456 C 1163.75 2.9266 5.37602 0
M  V30 12457 N 1162.89 2.58152 6.52918 0
M  V30 12458 H 1167.73 2.14294 2.0708 0
M  V30 12459 H 1165.26 1.06595 1.0137 0
M  V30 12460 H 1167.22 0.72851 4.1079 0
M  V30 12461 H 1165.85 0.00167404 3.228 0
M  V30 12462 H 1164.9 2.40527 2.94705 0
M  V30 12463 H 1166.22 2.98089 3.99931 0
M  V30 12464 H 1165.37 1.54515 5.86694 0
M  V30 12465 H 1164.11 0.866018 4.79949 0
M  V30 12466 H 1163.11 3.15196 4.50479 0
M  V30 12467 H 1164.34 3.83179 5.6067 0
M  V30 12468 H 1162.28 1.70874 6.33355 0
M  V30 12469 H 1162.2 3.38682 6.75892 0
M  V30 12470 H 1163.47 2.39662 7.41743 0
M  V30 12471 N 1167.7 -1.08142 1.14644 0
M  V30 12472 C 1168.63 -2.15022 0.793614 0
M  V30 12473 C 1169.64 -1.61679 -0.190729 0
M  V30 12474 O 1170.83 -1.78472 0.0313696 0
M  V30 12475 C 1167.93 -3.38532 0.157785 0
M  V30 12476 C 1167.11 -4.21252 1.17753 0
M  V30 12477 C 1166.17 -5.23158 0.564968 0
M  V30 12478 O 1165.19 -5.5578 1.22869 0
M  V30 12479 N 1166.39 -5.7677 -0.657022 0
M  V30 12480 H 1169.16 -2.45893 1.71338 0
M  V30 12481 H 1166.72 -1.23976 1.04122 0
M  V30 12482 H 1168.71 -4.03834 -0.264586 0
M  V30 12483 H 1167.28 -3.05441 -0.665168 0
M  V30 12484 H 1166.5 -3.51888 1.77675 0
M  V30 12485 H 1167.79 -4.73335 1.86632 0
M  V30 12486 H 1167.19 -5.52503 -1.21478 0
M  V30 12487 H 1165.74 -6.4374 -1.02186 0
M  V30 12488 N 1169.18 -0.941978 -1.26351 0
M  V30 12489 C 1170.12 -0.450906 -2.26353 0
M  V30 12490 C 1171.09 0.489857 -1.58712 0
M  V30 12491 O 1172.28 0.40589 -1.86433 0
M  V30 12492 C 1169.42 0.277054 -3.43986 0
M  V30 12493 C 1168.53 -0.699474 -4.263 0
M  V30 12494 C 1167.67 0.0497661 -5.31177 0
M  V30 12495 C 1166.71 -0.918531 -6.05169 0
M  V30 12496 N 1165.84 -0.200993 -7.01812 0
M  V30 12497 H 1170.68 -1.30861 -2.6773 0
M  V30 12498 H 1168.22 -0.656514 -1.31637 0
M  V30 12499 H 1170.18 0.715567 -4.11018 0
M  V30 12500 H 1168.81 1.09889 -3.0352 0
M  V30 12501 H 1167.86 -1.2565 -3.59049 0
M  V30 12502 H 1169.17 -1.4389 -4.77595 0
M  V30 12503 H 1168.33 0.547521 -6.04224 0
M  V30 12504 H 1167.07 0.822068 -4.80722 0
M  V30 12505 H 1166.07 -1.4274 -5.30947 0
M  V30 12506 H 1167.3 -1.69085 -6.57713 0
M  V30 12507 H 1165.24 0.552803 -6.53667 0
M  V30 12508 H 1165.16 -0.879735 -7.50864 0
M  V30 12509 H 1166.43 0.275642 -7.79012 0
M  V30 12510 N 1170.66 1.40747 -0.709091 0
M  V30 12511 C 1171.6 2.30741 -0.0523584 0
M  V30 12512 C 1172.57 1.4784 0.757145 0
M  V30 12513 O 1173.76 1.76595 0.72242 0
M  V30 12514 C 1170.9 3.34 0.868203 0
M  V30 12515 C 1170.01 4.31972 0.0488686 0
M  V30 12516 C 1169.15 5.223 0.968311 0
M  V30 12517 C 1168.18 6.11934 0.142682 0
M  V30 12518 N 1167.32 6.947 1.01665 0
M  V30 12519 H 1172.16 2.86338 -0.825509 0
M  V30 12520 H 1169.7 1.41013 -0.418785 0
M  V30 12521 H 1171.66 3.92431 1.41611 0
M  V30 12522 H 1170.29 2.79921 1.6076 0
M  V30 12523 H 1169.34 3.75377 -0.616137 0
M  V30 12524 H 1170.65 4.95291 -0.590625 0
M  V30 12525 H 1169.8 5.85631 1.58498 0
M  V30 12526 H 1168.54 4.5924 1.64164 0
M  V30 12527 H 1167.55 5.47639 -0.486965 0
M  V30 12528 H 1168.77 6.77052 -0.527046 0
M  V30 12529 H 1166.72 6.34236 1.67575 0
M  V30 12530 H 1166.64 7.54759 0.433045 0
M  V30 12531 H 1167.9 7.62487 1.6197 0
M  V30 12532 N 1172.13 0.454803 1.50895 0
M  V30 12533 C 1173.1 -0.336293 2.26719 0
M  V30 12534 C 1174.1 -0.93464 1.30848 0
M  V30 12535 O 1175.29 -0.80636 1.54413 0
M  V30 12536 C 1172.42 -1.47744 3.07221 0
M  V30 12537 H 1173.61 0.328462 2.98096 0
M  V30 12538 H 1171.16 0.208419 1.54904 0
M  V30 12539 H 1171.9 -2.17773 2.40302 0
M  V30 12540 H 1171.68 -1.05438 3.77658 0
M  V30 12541 H 1173.17 -2.03592 3.6461 0
M  V30 12542 N 1173.61 -1.56489 0.186789 0
M  V30 12543 C 1174.84 -2.01429 -0.459326 0
M  V30 12544 C 1175.25 -1.06611 -1.56303 0
M  V30 12545 O 1174.59 -0.0617053 -1.83596 0
M  V30 12546 C 1174.65 -3.42778 -1.08367 0
M  V30 12547 C 1174.32 -4.56843 -0.119719 0
M  V30 12548 C 1175.32 -5.15594 0.667782 0
M  V30 12549 C 1173 -5.02299 -0.0110494 0
M  V30 12550 C 1174.99 -6.18242 1.551 0
M  V30 12551 C 1172.68 -6.04793 0.875738 0
M  V30 12552 C 1173.68 -6.62637 1.65534 0
M  V30 12553 O 1173.37 -7.63141 2.52728 0
M  V30 12554 H 1173.1 -0.665175 -0.120492 0
M  V30 12555 H 1175.65 -2.03338 0.290283 0
M  V30 12556 H 1173.88 -3.3783 -1.8817 0
M  V30 12557 H 1175.57 -3.71577 -1.63357 0
M  V30 12558 H 1176.34 -4.81348 0.594085 0
M  V30 12559 H 1172.22 -4.56977 -0.607667 0
M  V30 12560 H 1175.76 -6.63319 2.15995 0
M  V30 12561 H 1171.66 -6.38462 0.950581 0
M  V30 12562 H 1172.43 -7.80527 2.46415 0
M  V30 12563 N 1175.09 0.086862 -1.5736 0
M  V30 12564 C 1176.02 1.13117 -1.99342 0
M  V30 12565 C 1177.03 1.35849 -0.897151 0
M  V30 12566 O 1178.22 1.34356 -1.17519 0
M  V30 12567 C 1175.32 2.48511 -2.30425 0
M  V30 12568 C 1174.5 2.45942 -3.61706 0
M  V30 12569 C 1173.56 3.63327 -3.80631 0
M  V30 12570 O 1172.58 3.45443 -4.52392 0
M  V30 12571 N 1173.78 4.83118 -3.21835 0
M  V30 12572 H 1176.55 0.773782 -2.89539 0
M  V30 12573 H 1174.11 0.275731 -1.59535 0
M  V30 12574 H 1176.1 3.25656 -2.40272 0
M  V30 12575 H 1174.67 2.76308 -1.46194 0
M  V30 12576 H 1173.89 1.54287 -3.62752 0
M  V30 12577 H 1175.18 2.41313 -4.47935 0
M  V30 12578 H 1174.58 5.00552 -2.6356 0
M  V30 12579 H 1173.13 5.57827 -3.37154 0
M  V30 12580 N 1176.57 1.53483 0.357892 0
M  V30 12581 C 1177.84 1.60649 1.11585 0
M  V30 12582 C 1178.22 0.418789 2.06904 0
M  V30 12583 O 1177.57 -0.590279 2.20744 0
M  V30 12584 C 1177.78 2.96046 1.84818 0
M  V30 12585 C 1179.13 3.50895 2.39076 0
M  V30 12586 O 1180.15 2.98126 1.94934 0
M  V30 12587 O 1179.01 4.43163 3.19794 0
M  V30 12588 H 1176.11 0.649202 0.512315 0
M  V30 12589 H 1178.65 1.65826 0.360537 0
M  V30 12590 H 1177.43 3.73929 1.15296 0
M  V30 12591 H 1177.05 2.94395 2.6724 0
M  V30 12592 N 1178.05 -0.61812 1.44973 0
M  V30 12593 C 1179.46 -0.937734 1.29146 0
M  V30 12594 C 1179.66 -2.00104 0.236749 0
M  V30 12595 O 1178.72 -2.49731 -0.372923 0
M  V30 12596 C 1180.03 -1.38865 2.66715 0
M  V30 12597 C 1181.58 -1.50343 2.74529 0
M  V30 12598 C 1182.05 -1.98814 4.12598 0
M  V30 12599 N 1183.54 -2.06064 4.14839 0
M  V30 12600 C 1184.28 -2.44768 5.18533 0
M  V30 12601 N 1183.78 -2.82516 6.32579 0
M  V30 12602 N 1185.57 -2.45016 5.05889 0
M  V30 12603 H 1177.72 0.084872 2.1223 0
M  V30 12604 H 1179.98 -0.0246744 0.947679 0
M  V30 12605 H 1179.69 -0.681583 3.45032 0
M  V30 12606 H 1179.56 -2.3572 2.94475 0
M  V30 12607 H 1181.95 -2.20144 1.96522 0
M  V30 12608 H 1182.03 -0.518297 2.50494 0
M  V30 12609 H 1181.67 -1.29604 4.91086 0
M  V30 12610 H 1181.6 -2.98223 4.34017 0
M  V30 12611 H 1184.1 -1.79525 3.32535 0
M  V30 12612 H 1184.41 -3.109 7.07504 0
M  V30 12613 H 1182.75 -2.80237 6.35997 0
M  V30 12614 H 1185.94 -2.14925 4.15842 0
M  V30 12615 H 1186.12 -2.74854 5.86821 0
M  V30 12616 N 1179.52 -1.32087 -0.859693 0
M  V30 12617 C 1180.45 -1.23204 -1.98351 0
M  V30 12618 C 1181.43 -0.116974 -1.69697 0
M  V30 12619 O 1182.62 -0.303301 -1.91817 0
M  V30 12620 C 1179.75 -0.949171 -3.34078 0
M  V30 12621 C 1178.7 -2.02493 -3.77069 0
M  V30 12622 C 1178.03 -1.59455 -5.1037 0
M  V30 12623 C 1179.33 -3.43934 -3.93074 0
M  V30 12624 H 1181.02 -2.17227 -2.0604 0
M  V30 12625 H 1178.57 -1.04577 -0.989931 0
M  V30 12626 H 1180.52 -0.873594 -4.12245 0
M  V30 12627 H 1179.25 0.0267095 -3.26589 0
M  V30 12628 H 1177.91 -2.09057 -3.01149 0
M  V30 12629 H 1177.55 -0.606256 -4.99333 0
M  V30 12630 H 1177.25 -2.31429 -5.40106 0
M  V30 12631 H 1178.78 -1.53325 -5.91036 0
M  V30 12632 H 1180.19 -3.39986 -4.61608 0
M  V30 12633 H 1178.59 -4.14214 -4.3422 0
M  V30 12634 H 1179.66 -3.83965 -2.9614 0
M  V30 12635 N 1181 1.07532 -1.15215 0
M  V30 12636 C 1181.96 2.1286 -0.84989 0
M  V30 12637 C 1182.96 1.60103 0.149524 0
M  V30 12638 O 1184.15 1.74017 -0.0798918 0
M  V30 12639 C 1181.29 3.3984 -0.268617 0
M  V30 12640 H 1182.48 2.41106 -1.78347 0
M  V30 12641 H 1180.03 1.23392 -0.959386 0
M  V30 12642 H 1180.77 3.17235 0.67325 0
M  V30 12643 H 1180.55 3.79433 -0.988592 0
M  V30 12644 H 1182.04 4.17533 -0.0746554 0
M  V30 12645 N 1182.48 0.948665 1.2585 0
M  V30 12646 C 1183.71 0.616334 1.97193 0
M  V30 12647 C 1184.12 -0.814538 1.70769 0
M  V30 12648 O 1183.46 -1.55569 0.976926 0
M  V30 12649 C 1183.52 0.787814 3.50762 0
M  V30 12650 C 1183.19 2.19472 4.0085 0
M  V30 12651 C 1184.18 3.17087 4.12009 0
M  V30 12652 C 1181.87 2.51731 4.34669 0
M  V30 12653 C 1183.86 4.45058 4.56292 0
M  V30 12654 C 1181.55 3.79932 4.78639 0
M  V30 12655 C 1182.55 4.76408 4.89412 0
M  V30 12656 O 1182.24 6.02325 5.32409 0
M  V30 12657 H 1181.97 0.230487 0.635493 0
M  V30 12658 H 1184.52 1.27379 1.61133 0
M  V30 12659 H 1182.75 0.0732154 3.86631 0
M  V30 12660 H 1184.44 0.457427 4.03314 0
M  V30 12661 H 1185.21 2.9349 3.8612 0
M  V30 12662 H 1181.09 1.77369 4.25513 0
M  V30 12663 H 1184.63 5.20363 4.64616 0
M  V30 12664 H 1180.53 4.03338 5.03973 0
M  V30 12665 H 1181.3 6.05615 5.50611 0
M  V30 12666 N 1183.96 -1.40369 0.716545 0
M  V30 12667 C 1184.89 -2.33365 0.0793533 0
M  V30 12668 C 1185.87 -1.52943 -0.744482 0
M  V30 12669 O 1187.05 -1.81406 -0.693212 0
M  V30 12670 C 1184.18 -3.36928 -0.842429 0
M  V30 12671 C 1183.14 -4.2782 -0.124142 0
M  V30 12672 C 1182.46 -5.21928 -1.1617 0
M  V30 12673 C 1183.76 -5.12199 1.02224 0
M  V30 12674 H 1185.46 -2.86899 0.856115 0
M  V30 12675 H 1183 -1.37946 0.413138 0
M  V30 12676 H 1184.96 -4.00925 -1.29759 0
M  V30 12677 H 1183.68 -2.81791 -1.6511 0
M  V30 12678 H 1182.34 -3.65277 0.311201 0
M  V30 12679 H 1181.99 -4.63096 -1.96345 0
M  V30 12680 H 1181.69 -5.83582 -0.685978 0
M  V30 12681 H 1183.21 -5.88802 -1.61694 0
M  V30 12682 H 1184.63 -5.69644 0.646399 0
M  V30 12683 H 1183.02 -5.82901 1.4264 0
M  V30 12684 H 1184.09 -4.4812 1.85246 0
M  V30 12685 N 1185.44 -0.462799 -1.50652 0
M  V30 12686 C 1186.85 -0.11648 -1.59174 0
M  V30 12687 C 1187.05 1.37638 -1.47167 0
M  V30 12688 O 1186.11 2.14886 -1.3259 0
M  V30 12689 C 1187.42 -0.659289 -2.93383 0
M  V30 12690 C 1188.97 -0.62198 -3.06758 0
M  V30 12691 C 1189.44 -1.14219 -4.43529 0
M  V30 12692 N 1190.94 -1.10125 -4.49919 0
M  V30 12693 C 1191.67 -1.47436 -5.54121 0
M  V30 12694 N 1191.17 -1.92156 -6.65618 0
M  V30 12695 N 1192.96 -1.39091 -5.44619 0
M  V30 12696 H 1185.11 -1.43383 -1.56701 0
M  V30 12697 H 1187.37 -0.592438 -0.740082 0
M  V30 12698 H 1187.08 -1.70477 -3.07621 0
M  V30 12699 H 1186.95 -0.0982388 -3.77072 0
M  V30 12700 H 1189.34 0.414576 -2.92173 0
M  V30 12701 H 1189.42 -1.21974 -2.24847 0
M  V30 12702 H 1189.07 -2.17734 -4.58862 0
M  V30 12703 H 1189 -0.52073 -5.24019 0
M  V30 12704 H 1191.49 -0.773154 -3.69906 0
M  V30 12705 H 1191.8 -2.18796 -7.4118 0
M  V30 12706 H 1190.14 -1.96103 -6.6676 0
M  V30 12707 H 1193.34 -1.04001 -4.564 0
M  V30 12708 H 1193.51 -1.68496 -6.2571 0
M  V30 12709 N 1186.91 1.56388 -0.195085 0
M  V30 12710 C 1188.14 2.02406 0.452399 0
M  V30 12711 C 1188.56 1.07432 1.54402 0
M  V30 12712 O 1187.92 0.0578246 1.81208 0
M  V30 12713 C 1187.97 3.46864 0.985778 0
M  V30 12714 O 1187.07 3.55007 2.09867 0
M  V30 12715 H 1186.42 0.65553 0.105719 0
M  V30 12716 H 1188.95 2.02299 -0.30596 0
M  V30 12717 H 1188.96 3.86655 1.30238 0
M  V30 12718 H 1187.63 4.15481 0.186662 0
M  V30 12719 H 1186.21 3.2709 1.79071 0
M  V30 12720 N 1188.39 -0.0785156 1.57404 0
M  V30 12721 C 1189.34 -1.10077 1.99668 0
M  V30 12722 C 1190.33 -1.34855 0.87767 0
M  V30 12723 O 1191.52 -1.35268 1.14156 0
M  V30 12724 C 1188.65 -2.41641 2.43854 0
M  V30 12725 C 1187.73 -2.20166 3.62475 0
M  V30 12726 N 1188.12 -1.68602 4.76872 0
M  V30 12727 C 1186.42 -2.50666 3.68894 0
M  V30 12728 C 1187.12 -1.61785 5.58749 0
M  V30 12729 N 1186.1 -2.07595 5.02399 0
M  V30 12730 H 1189.9 -0.695297 2.85557 0
M  V30 12731 H 1187.42 -0.285694 1.59867 0
M  V30 12732 H 1189.41 -3.15629 2.72367 0
M  V30 12733 H 1188.07 -2.8291 1.59348 0
M  V30 12734 H 1189.08 -1.37561 4.99297 0
M  V30 12735 H 1185.76 -2.95348 2.95087 0
M  V30 12736 H 1187.15 -1.22828 6.60578 0
M  V30 12737 N 1189.87 -1.5367 -0.349747 0
M  V30 12738 C 1190.82 -1.81223 -1.42922 0
M  V30 12739 C 1191.79 -0.657536 -1.52531 0
M  V30 12740 O 1192.97 -0.90134 -1.68168 0
M  V30 12741 C 1190.11 -2.022 -2.79659 0
M  V30 12742 C 1189.23 -3.29915 -2.78891 0
M  V30 12743 C 1188.36 -3.40993 -4.07305 0
M  V30 12744 C 1187.4 -4.6268 -4.00741 0
M  V30 12745 N 1186.54 -4.70826 -5.20833 0
M  V30 12746 H 1191.38 -2.73328 -1.18727 0
M  V30 12747 H 1188.91 -1.35386 -0.57525 0
M  V30 12748 H 1190.87 -2.12351 -3.59114 0
M  V30 12749 H 1189.5 -1.13416 -3.0222 0
M  V30 12750 H 1188.55 -3.28637 -1.91577 0
M  V30 12751 H 1189.87 -4.19459 -2.69917 0
M  V30 12752 H 1189.02 -3.50542 -4.95182 0
M  V30 12753 H 1187.76 -2.49493 -4.19052 0
M  V30 12754 H 1186.76 -4.53215 -3.11249 0
M  V30 12755 H 1187.99 -5.55538 -3.90582 0
M  V30 12756 H 1185.93 -3.82233 -5.33136 0
M  V30 12757 H 1185.85 -5.54297 -5.14092 0
M  V30 12758 H 1187.12 -4.84677 -6.10499 0
M  V30 12759 N 1191.35 0.610423 -1.45298 0
M  V30 12760 C 1192.63 1.36966 -1.39641 0
M  V30 12761 C 1193.01 2.10998 -0.0655757 0
M  V30 12762 O 1192.35 2.07705 0.952407 0
M  V30 12763 C 1192.56 2.31885 -2.60826 0
M  V30 12764 C 1193.91 2.9458 -3.05791 0
M  V30 12765 O 1194.94 2.42207 -2.61179 0
M  V30 12766 O 1193.79 3.89639 -3.83202 0
M  V30 12767 H 1190.89 0.61401 -0.554004 0
M  V30 12768 H 1193.43 0.633748 -1.57422 0
M  V30 12769 H 1192.21 1.76421 -3.49272 0
M  V30 12770 H 1191.83 3.12861 -2.45364 0
M  V30 12771 N 1192.83 1.32541 0.852676 0
M  V30 12772 C 1193.74 1.23646 1.99371 0
M  V30 12773 C 1194.75 0.149673 1.73355 0
M  V30 12774 O 1195.93 0.370716 1.97959 0
M  V30 12775 C 1192.99 0.961873 3.3309 0
M  V30 12776 C 1192.05 2.1373 3.72315 0
M  V30 12777 C 1191.29 1.87572 4.99652 0
M  V30 12778 O 1191.51 0.819247 5.64486 0
M  V30 12779 O 1190.44 2.73732 5.36054 0
M  V30 12780 H 1194.27 2.19573 2.09813 0
M  V30 12781 H 1191.86 1.12451 0.983627 0
M  V30 12782 H 1193.74 0.825316 4.13239 0
M  V30 12783 H 1192.41 0.0327745 3.23683 0
M  V30 12784 H 1191.32 2.32933 2.92733 0
M  V30 12785 H 1192.65 3.04925 3.86369 0
M  V30 12786 N 1194.3 -1.0692 1.15784 0
M  V30 12787 C 1195.55 -1.79866 0.936815 0
M  V30 12788 C 1195.88 -1.867 -0.534477 0
M  V30 12789 O 1195.16 -1.35395 -1.39637 0
M  V30 12790 C 1195.44 -3.24691 1.55717 0
M  V30 12791 C 1195.29 -3.25975 3.09936 0
M  V30 12792 C 1196.61 -4.22076 1.24658 0
M  V30 12793 H 1193.73 -0.652971 0.341756 0
M  V30 12794 H 1196.37 -1.25085 1.43016 0
M  V30 12795 H 1194.52 -3.7147 1.13763 0
M  V30 12796 H 1196.2 -2.87405 3.60827 0
M  V30 12797 H 1194.44 -2.64808 3.43597 0
M  V30 12798 H 1195.11 -4.28114 3.48458 0
M  V30 12799 H 1197.59 -3.83709 1.60956 0
M  V30 12800 H 1196.46 -5.21691 1.70675 0
M  V30 12801 H 1196.72 -4.41794 0.164341 0
M  V30 12802 N 1195.78 -0.955326 -1.25345 0
M  V30 12803 C 1197.03 -0.611388 -1.93365 0
M  V30 12804 C 1197.36 0.84953 -1.74633 0
M  V30 12805 O 1196.64 1.60962 -1.09185 0
M  V30 12806 C 1196.92 -0.971732 -3.46741 0
M  V30 12807 C 1196.77 -2.48843 -3.74696 0
M  V30 12808 C 1198.09 -0.497295 -4.37281 0
M  V30 12809 H 1195.21 -0.223591 -0.702265 0
M  V30 12810 H 1197.85 -1.1921 -1.47949 0
M  V30 12811 H 1196 -0.477568 -3.85554 0
M  V30 12812 H 1197.67 -3.05641 -3.45516 0
M  V30 12813 H 1195.92 -2.92582 -3.20278 0
M  V30 12814 H 1196.59 -2.69107 -4.8196 0
M  V30 12815 H 1199.06 -0.921196 -4.05775 0
M  V30 12816 H 1197.94 -0.778113 -5.43357 0
M  V30 12817 H 1198.2 0.602743 -4.37972 0
M  V30 12818 N 1197.26 1.39987 -0.723979 0
M  V30 12819 C 1198.21 2.30672 -0.0768286 0
M  V30 12820 C 1199.18 1.48634 0.741422 0
M  V30 12821 O 1200.36 1.77351 0.703649 0
M  V30 12822 C 1197.5 3.34902 0.832729 0
M  V30 12823 C 1196.62 4.32 0.00304942 0
M  V30 12824 C 1195.75 5.23298 0.91286 0
M  V30 12825 C 1194.79 6.12051 0.0777706 0
M  V30 12826 N 1193.93 6.9574 0.942912 0
M  V30 12827 H 1198.77 2.85446 -0.855832 0
M  V30 12828 H 1196.3 1.40561 -0.433718 0
M  V30 12829 H 1198.26 3.93911 1.37441 0
M  V30 12830 H 1196.89 2.81611 1.57782 0
M  V30 12831 H 1195.94 3.74702 -0.655916 0
M  V30 12832 H 1197.26 4.94637 -0.643124 0
M  V30 12833 H 1196.41 5.87279 1.52277 0
M  V30 12834 H 1195.15 4.60956 1.59284 0
M  V30 12835 H 1194.15 5.47092 -0.545022 0
M  V30 12836 H 1195.38 6.76455 -0.598827 0
M  V30 12837 H 1193.33 6.35977 1.60838 0
M  V30 12838 H 1193.24 7.55176 0.352968 0
M  V30 12839 H 1194.51 7.64162 1.53874 0
M  V30 12840 N 1198.74 0.470782 1.50404 0
M  V30 12841 C 1199.99 -0.0859981 2.01517 0
M  V30 12842 C 1200.3 -1.40811 1.35763 0
M  V30 12843 O 1201.51 -2.04982 1.7803 0
M  V30 12844 C 1199.96 -0.203773 3.59323 0
M  V30 12845 C 1199.57 1.10989 4.34034 0
M  V30 12846 C 1201.32 -0.712528 4.18477 0
M  V30 12847 C 1199.22 0.955928 5.83623 0
M  V30 12848 H 1198.15 -0.0359142 0.753144 0
M  V30 12849 H 1200.8 0.605631 1.73218 0
M  V30 12850 H 1199.19 -0.959177 3.84208 0
M  V30 12851 H 1200.36 1.87623 4.20873 0
M  V30 12852 H 1198.67 1.54973 3.86487 0
M  V30 12853 H 1201.27 -0.844745 5.27985 0
M  V30 12854 H 1201.61 -1.70377 3.79838 0
M  V30 12855 H 1202.15 -0.0145179 3.97797 0
M  V30 12856 H 1198.89 1.92054 6.26734 0
M  V30 12857 H 1198.41 0.22997 5.99359 0
M  V30 12858 H 1200.09 0.622423 6.43999 0
M  V30 12859 N 1200.22 -1.56282 0.203376 0
M  V30 12860 C 1201.15 -2.16714 -0.74616 0
M  V30 12861 C 1202.16 -1.13121 -1.17079 0
M  V30 12862 O 1203.35 -1.40179 -1.10509 0
M  V30 12863 C 1200.45 -2.72115 -2.02007 0
M  V30 12864 C 1199.62 -4.00695 -1.75391 0
M  V30 12865 C 1198.68 -4.40839 -2.8731 0
M  V30 12866 O 1197.71 -5.081 -2.56561 0
M  V30 12867 N 1198.91 -4.05024 -4.15856 0
M  V30 12868 H 1201.68 -2.98821 -0.229326 0
M  V30 12869 H 1199.24 -1.61885 0.0217049 0
M  V30 12870 H 1201.23 -2.95951 -2.76035 0
M  V30 12871 H 1199.8 -1.94415 -2.44789 0
M  V30 12872 H 1199.02 -3.84905 -0.851 0
M  V30 12873 H 1200.31 -4.8461 -1.55017 0
M  V30 12874 H 1199.71 -3.50938 -4.43688 0
M  V30 12875 H 1198.26 -4.33792 -4.86485 0
M  V30 12876 N 1201.7 0.070167 -1.57444 0
M  V30 12877 C 1202.92 0.785703 -1.91941 0
M  V30 12878 C 1203.35 1.70243 -0.799932 0
M  V30 12879 O 1202.7 1.79608 0.247139 0
M  V30 12880 C 1202.75 1.55398 -3.25398 0
M  V30 12881 O 1201.86 2.66475 -3.14746 0
M  V30 12882 H 1201.2 0.214245 -0.628486 0
M  V30 12883 H 1203.73 0.0379243 -2.04565 0
M  V30 12884 H 1203.74 1.93287 -3.5931 0
M  V30 12885 H 1202.41 0.881366 -4.06454 0
M  V30 12886 H 1200.99 2.3143 -2.92394 0
M  V30 12887 N 1203.17 1.53854 0.341593 0
M  V30 12888 C 1204.1 1.84966 1.42513 0
M  V30 12889 C 1205.08 0.704944 1.54805 0
M  V30 12890 O 1206.27 0.957036 1.68981 0
M  V30 12891 C 1203.4 2.06099 2.79536 0
M  V30 12892 C 1202.35 3.21919 2.82049 0
M  V30 12893 C 1201.68 3.28389 4.21977 0
M  V30 12894 C 1202.98 4.59984 2.4741 0
M  V30 12895 H 1204.67 2.7571 1.16724 0
M  V30 12896 H 1202.22 1.32662 0.560073 0
M  V30 12897 H 1204.17 2.26448 3.55386 0
M  V30 12898 H 1202.9 1.12087 3.06764 0
M  V30 12899 H 1201.56 3.01429 2.08653 0
M  V30 12900 H 1201.2 2.3197 4.46317 0
M  V30 12901 H 1200.9 4.0622 4.24569 0
M  V30 12902 H 1202.43 3.50951 4.99666 0
M  V30 12903 H 1203.84 4.80334 3.12973 0
M  V30 12904 H 1202.24 5.40233 2.61282 0
M  V30 12905 H 1203.31 4.6346 1.42594 0
M  V30 12906 N 1204.65 -0.602709 1.4562 0
M  V30 12907 C 1205.61 -1.69508 1.54271 0
M  V30 12908 C 1206.61 -1.55171 0.421727 0
M  V30 12909 O 1207.8 -1.60151 0.685375 0
M  V30 12910 C 1204.94 -3.0881 1.44392 0
M  V30 12911 H 1206.13 -1.63203 2.51605 0
M  V30 12912 H 1203.68 -0.818857 1.33133 0
M  V30 12913 H 1204.42 -3.20689 0.482614 0
M  V30 12914 H 1204.2 -3.20625 2.25704 0
M  V30 12915 H 1205.69 -3.8837 1.53488 0
M  V30 12916 N 1206.13 -1.32992 -0.845635 0
M  V30 12917 C 1207.55 -1.12179 -1.13526 0
M  V30 12918 C 1207.75 0.091795 -2.01291 0
M  V30 12919 O 1206.8 0.774051 -2.40343 0
M  V30 12920 C 1208.11 -2.40584 -1.80388 0
M  V30 12921 C 1209.66 -2.46427 -1.92984 0
M  V30 12922 C 1210.14 -3.74776 -2.63261 0
M  V30 12923 N 1211.63 -3.75809 -2.7078 0
M  V30 12924 C 1212.36 -4.71829 -3.2583 0
M  V30 12925 N 1211.86 -5.78219 -3.81621 0
M  V30 12926 N 1213.65 -4.59313 -3.24018 0
M  V30 12927 H 1205.8 -2.10786 -0.261369 0
M  V30 12928 H 1208.07 -0.931053 -0.17845 0
M  V30 12929 H 1207.77 -3.29357 -1.23357 0
M  V30 12930 H 1207.65 -2.52225 -2.80468 0
M  V30 12931 H 1210.03 -1.58108 -2.4917 0
M  V30 12932 H 1210.11 -2.38732 -0.918732 0
M  V30 12933 H 1209.76 -4.63474 -2.07736 0
M  V30 12934 H 1209.69 -3.79746 -3.6483 0
M  V30 12935 H 1212.18 -2.98916 -2.31209 0
M  V30 12936 H 1212.49 -6.47531 -4.2181 0
M  V30 12937 H 1210.84 -5.81962 -3.79927 0
M  V30 12938 H 1214.03 -3.75358 -2.79685 0
M  V30 12939 H 1214.2 -5.34316 -3.6662 0
M  V30 12940 N 1207.61 1.06304 -1.1635 0
M  V30 12941 C 1208.54 2.13209 -0.81346 0
M  V30 12942 C 1209.52 1.61174 0.21484 0
M  V30 12943 O 1210.7 1.8824 0.0989458 0
M  V30 12944 C 1207.83 3.38039 -0.211498 0
M  V30 12945 C 1206.88 4.08875 -1.21339 0
M  V30 12946 S 1207.71 4.58894 -2.76001 0
M  V30 12947 C 1208.86 5.86985 -2.17254 0
M  V30 12948 H 1209.1 2.42572 -1.7189 0
M  V30 12949 H 1206.63 1.18737 -0.986957 0
M  V30 12950 H 1208.59 4.10296 0.129349 0
M  V30 12951 H 1207.25 3.06834 0.671705 0
M  V30 12952 H 1206.44 4.98528 -0.740631 0
M  V30 12953 H 1206.04 3.42632 -1.49932 0
M  V30 12954 H 1208.34 6.59738 -1.54115 0
M  V30 12955 H 1209.28 6.38991 -3.05117 0
M  V30 12956 H 1209.69 5.41012 -1.61141 0
M  V30 12957 N 1209.09 0.96196 1.24836 0
M  V30 12958 C 1210.04 0.458643 2.23339 0
M  V30 12959 C 1211.02 -0.456178 1.54298 0
M  V30 12960 O 1212.21 -0.288036 1.74641 0
M  V30 12961 C 1209.34 -0.255381 3.42349 0
M  V30 12962 C 1208.43 0.677934 4.18646 0
M  V30 12963 N 1208.82 1.81273 4.72201 0
M  V30 12964 C 1207.12 0.487577 4.43327 0
M  V30 12965 C 1207.82 2.39604 5.30061 0
M  V30 12966 N 1206.79 1.68179 5.1693 0
M  V30 12967 H 1210.59 1.32459 2.62358 0
M  V30 12968 H 1208.11 0.820343 1.40158 0
M  V30 12969 H 1210.11 -0.633142 4.12064 0
M  V30 12970 H 1208.77 -1.11784 3.04852 0
M  V30 12971 H 1209.78 2.19441 4.69112 0
M  V30 12972 H 1206.45 -0.331392 4.16183 0
M  V30 12973 H 1207.84 3.35334 5.82237 0
M  V30 12974 N 1210.56 -1.39601 0.731392 0
M  V30 12975 C 1211.5 -2.29147 0.0494974 0
M  V30 12976 C 1212.51 -1.46635 -0.707248 0
M  V30 12977 O 1213.7 -1.6975 -0.552008 0
M  V30 12978 C 1210.8 -3.25191 -0.954152 0
M  V30 12979 C 1209.97 -4.36629 -0.259674 0
M  V30 12980 C 1209.03 -5.13007 -1.17092 0
M  V30 12981 O 1208.06 -5.65479 -0.64976 0
M  V30 12982 N 1209.26 -5.23865 -2.50092 0
M  V30 12983 H 1212.02 -2.88308 0.818433 0
M  V30 12984 H 1209.58 -1.51142 0.580316 0
M  V30 12985 H 1211.58 -3.73161 -1.56629 0
M  V30 12986 H 1210.15 -2.67085 -1.62432 0
M  V30 12987 H 1209.37 -3.90582 0.532888 0
M  V30 12988 H 1210.65 -5.08317 0.221753 0
M  V30 12989 H 1210.05 -4.82745 -2.94913 0
M  V30 12990 H 1208.61 -5.75288 -3.0641 0
M  V30 12991 N 1212.04 -0.478751 -1.50152 0
M  V30 12992 C 1213.01 0.300181 -2.27226 0
M  V30 12993 C 1214.01 0.913705 -1.32318 0
M  V30 12994 O 1215.2 0.781692 -1.55677 0
M  V30 12995 C 1212.33 1.42838 -3.09532 0
M  V30 12996 H 1213.52 -0.375845 -2.97536 0
M  V30 12997 H 1211.07 -0.233037 -1.54553 0
M  V30 12998 H 1211.81 2.13923 -2.43737 0
M  V30 12999 H 1211.59 0.994161 -3.79287 0
M  V30 13000 H 1213.08 1.97765 -3.67802 0
M  V30 13001 N 1213.52 1.56172 -0.211661 0
M  V30 13002 C 1214.94 1.5895 0.143907 0
M  V30 13003 C 1215.14 1.22826 1.59737 0
M  V30 13004 O 1214.19 0.958823 2.33587 0
M  V30 13005 C 1215.51 3.00199 -0.173438 0
M  V30 13006 C 1217.05 3.12789 -0.114877 0
M  V30 13007 C 1217.53 4.56199 -0.405759 0
M  V30 13008 N 1219.02 4.61838 -0.354973 0
M  V30 13009 C 1219.75 5.70721 -0.553671 0
M  V30 13010 N 1219.25 6.88006 -0.813613 0
M  V30 13011 N 1221.04 5.59988 -0.486787 0
M  V30 13012 H 1213.19 1.77931 -1.15993 0
M  V30 13013 H 1215.46 0.826569 -0.464206 0
M  V30 13014 H 1215.16 3.31248 -1.18186 0
M  V30 13015 H 1215.04 3.73651 0.516232 0
M  V30 13016 H 1217.42 2.81543 0.884166 0
M  V30 13017 H 1217.51 2.41688 -0.837875 0
M  V30 13018 H 1217.15 4.88161 -1.40219 0
M  V30 13019 H 1217.08 5.25512 0.338318 0
M  V30 13020 H 1219.57 3.77555 -0.161352 0
M  V30 13021 H 1219.88 7.66894 -0.953594 0
M  V30 13022 H 1218.23 6.89774 -0.850696 0
M  V30 13023 H 1221.42 4.67238 -0.284009 0
M  V30 13024 H 1221.59 6.44781 -0.645051 0
M  V30 13025 N 1215 -0.0618163 1.57479 0
M  V30 13026 C 1215.95 -1.0724 2.04373 0
M  V30 13027 C 1216.92 -1.37875 0.926271 0
M  V30 13028 O 1218.1 -1.48772 1.19463 0
M  V30 13029 C 1215.24 -2.37805 2.50085 0
M  V30 13030 C 1214.35 -2.13614 3.7549 0
M  V30 13031 C 1213.49 -3.37814 4.09945 0
M  V30 13032 C 1212.53 -3.09032 5.28361 0
M  V30 13033 N 1211.66 -4.25591 5.58406 0
M  V30 13034 H 1216.5 -0.665536 2.90473 0
M  V30 13035 H 1214.04 -0.317043 1.43643 0
M  V30 13036 H 1216 -3.14048 2.74644 0
M  V30 13037 H 1214.63 -2.76275 1.66948 0
M  V30 13038 H 1213.68 -1.28017 3.58212 0
M  V30 13039 H 1214.99 -1.88361 4.61867 0
M  V30 13040 H 1214.15 -4.22447 4.35458 0
M  V30 13041 H 1212.89 -3.66153 3.22154 0
M  V30 13042 H 1211.89 -2.22797 5.02635 0
M  V30 13043 H 1213.12 -2.82006 6.17778 0
M  V30 13044 H 1211.06 -4.53941 4.73575 0
M  V30 13045 H 1210.98 -4.03646 6.39223 0
M  V30 13046 H 1212.25 -5.11191 5.88476 0
M  V30 13047 N 1216.48 -1.54033 -0.333429 0
M  V30 13048 C 1217.89 -1.44522 -0.677166 0
M  V30 13049 C 1218.09 -0.610122 -1.92041 0
M  V30 13050 O 1217.15 -0.105058 -2.52281 0
M  V30 13051 C 1218.46 -2.88129 -0.860369 0
M  V30 13052 C 1220.01 -2.97968 -0.958342 0
M  V30 13053 C 1220.48 -4.42703 -1.17379 0
M  V30 13054 N 1221.98 -4.46273 -1.24075 0
M  V30 13055 C 1222.71 -5.55407 -1.42515 0
M  V30 13056 N 1222.21 -6.74528 -1.58062 0
M  V30 13057 N 1224 -5.43037 -1.45144 0
M  V30 13058 H 1216.15 -2.06815 0.483858 0
M  V30 13059 H 1218.41 -0.935307 0.15461 0
M  V30 13060 H 1218.12 -3.51695 -0.0182085 0
M  V30 13061 H 1217.99 -3.33668 -1.75913 0
M  V30 13062 H 1220.38 -2.34535 -1.79102 0
M  V30 13063 H 1220.46 -2.55774 -0.0362643 0
M  V30 13064 H 1220.11 -5.0672 -0.346004 0
M  V30 13065 H 1220.04 -4.82498 -2.10959 0
M  V30 13066 H 1222.53 -3.60439 -1.13545 0
M  V30 13067 H 1222.84 -7.53462 -1.71797 0
M  V30 13068 H 1221.18 -6.77454 -1.55179 0
M  V30 13069 H 1224.38 -4.4893 -1.32588 0
M  V30 13070 H 1224.55 -6.28146 -1.59173 0
M  V30 13071 N 1217.95 0.594978 -1.45938 0
M  V30 13072 C 1219.18 1.37794 -1.53936 0
M  V30 13073 C 1219.59 1.88388 -0.175091 0
M  V30 13074 O 1218.94 1.63587 0.835757 0
M  V30 13075 C 1219 2.60906 -2.47322 0
M  V30 13076 C 1218.66 2.31865 -3.93812 0
M  V30 13077 C 1219.66 1.91451 -4.83366 0
M  V30 13078 C 1217.34 2.44387 -4.3884 0
M  V30 13079 C 1219.34 1.63938 -6.15957 0
M  V30 13080 C 1217.02 2.16487 -5.71469 0
M  V30 13081 C 1218.02 1.76326 -6.59847 0
M  V30 13082 O 1217.71 1.4876 -7.90016 0
M  V30 13083 H 1217.44 0.42775 -0.523456 0
M  V30 13084 H 1220 0.731487 -1.91933 0
M  V30 13085 H 1218.23 3.28315 -2.04319 0
M  V30 13086 H 1219.92 3.22964 -2.45863 0
M  V30 13087 H 1220.68 1.81301 -4.49839 0
M  V30 13088 H 1216.56 2.74612 -3.70283 0
M  V30 13089 H 1220.1 1.32516 -6.84898 0
M  V30 13090 H 1216 2.26257 -6.04548 0
M  V30 13091 H 1216.77 1.62708 -8.02165 0
M  V30 13092 N 1219.43 1.33438 0.838571 0
M  V30 13093 C 1220.85 1.12779 1.12929 0
M  V30 13094 C 1221.05 -0.0811188 2.01337 0
M  V30 13095 O 1220.1 -0.761294 2.4075 0
M  V30 13096 C 1221.42 2.41537 1.7911 0
M  V30 13097 C 1222.97 2.47447 1.91674 0
M  V30 13098 C 1223.44 3.76167 2.6127 0
M  V30 13099 N 1224.93 3.7724 2.68783 0
M  V30 13100 C 1225.67 4.7355 3.23323 0
M  V30 13101 N 1225.16 5.80235 3.78549 0
M  V30 13102 N 1226.96 4.61025 3.21578 0
M  V30 13103 H 1219.11 2.10921 0.250187 0
M  V30 13104 H 1221.37 0.931986 0.17351 0
M  V30 13105 H 1221.08 3.30006 1.21609 0
M  V30 13106 H 1220.95 2.53709 2.79127 0
M  V30 13107 H 1223.34 1.59427 2.48328 0
M  V30 13108 H 1223.42 2.39216 0.906058 0
M  V30 13109 H 1223.06 4.64569 2.05275 0
M  V30 13110 H 1222.99 3.81675 3.62811 0
M  V30 13111 H 1225.48 3.00138 2.29621 0
M  V30 13112 H 1225.8 6.49759 4.1837 0
M  V30 13113 H 1224.14 5.83969 3.76836 0
M  V30 13114 H 1227.33 3.76836 2.77691 0
M  V30 13115 H 1227.5 5.36253 3.63781 0
M  V30 13116 N 1220.91 -1.05686 1.16912 0
M  V30 13117 C 1222.19 -1.7546 0.864483 0
M  V30 13118 C 1222.57 -2.0128 -0.636359 0
M  V30 13119 O 1221.92 -1.64485 -1.58609 0
M  V30 13120 C 1222.13 -3.05134 1.69395 0
M  V30 13121 C 1223.47 -3.79176 1.91079 0
M  V30 13122 O 1224.5 -3.1499 1.66312 0
M  V30 13123 O 1223.36 -4.94496 2.32671 0
M  V30 13124 H 1220.45 -0.762748 0.319601 0
M  V30 13125 H 1223 -1.11899 1.27581 0
M  V30 13126 H 1221.77 -2.82063 2.71212 0
M  V30 13127 H 1221.39 -3.76431 1.28007 0
M  V30 13128 N 1222.39 -0.968567 -1.24324 0
M  V30 13129 C 1223.8 -0.675239 -1.44612 0
M  V30 13130 C 1224 0.762641 -1.8651 0
M  V30 13131 O 1223.06 1.53644 -2.00374 0
M  V30 13132 C 1224.37 -1.66007 -2.50723 0
M  V30 13133 C 1225.92 -1.6728 -2.6455 0
M  V30 13134 C 1226.4 -2.64563 -3.73859 0
M  V30 13135 N 1227.89 -2.6301 -3.81287 0
M  V30 13136 C 1228.62 -3.34957 -4.65394 0
M  V30 13137 N 1228.12 -4.16424 -5.53681 0
M  V30 13138 N 1229.91 -3.23778 -4.59483 0
M  V30 13139 H 1222.06 -1.89757 -0.954257 0
M  V30 13140 H 1224.33 -0.817004 -0.480841 0
M  V30 13141 H 1224.03 -2.68779 -2.26827 0
M  V30 13142 H 1223.91 -1.43353 -3.48898 0
M  V30 13143 H 1226.29 -0.652184 -2.87803 0
M  V30 13144 H 1226.37 -1.93997 -1.6673 0
M  V30 13145 H 1226.02 -3.66759 -3.51355 0
M  V30 13146 H 1225.95 -2.35124 -4.71194 0
M  V30 13147 H 1228.44 -2.03877 -3.18186 0
M  V30 13148 H 1228.75 -4.68207 -6.14818 0
M  V30 13149 H 1227.1 -4.20518 -5.53344 0
M  V30 13150 H 1230.29 -2.59594 -3.89524 0
M  V30 13151 H 1230.46 -3.80112 -5.24804 0
M  V30 13152 N 1223.87 1.39211 -0.738786 0
M  V30 13153 C 1224.8 2.33209 -0.11647 0
M  V30 13154 C 1225.78 1.54108 0.720056 0
M  V30 13155 O 1226.96 1.82486 0.664264 0
M  V30 13156 C 1224.09 3.38226 0.78872 0
M  V30 13157 C 1223.05 4.27963 0.0560636 0
M  V30 13158 C 1222.37 5.2371 1.07852 0
M  V30 13159 C 1223.67 5.10508 -1.1036 0
M  V30 13160 H 1225.37 2.85501 -0.901649 0
M  V30 13161 H 1222.91 1.37272 -0.435032 0
M  V30 13162 H 1224.87 4.02938 1.23364 0
M  V30 13163 H 1223.59 2.84382 1.60606 0
M  V30 13164 H 1222.25 3.64735 -0.369274 0
M  V30 13165 H 1221.9 4.66161 1.88953 0
M  V30 13166 H 1221.6 5.846 0.593048 0
M  V30 13167 H 1223.12 5.91299 1.52307 0
M  V30 13168 H 1224.53 5.68544 -0.736943 0
M  V30 13169 H 1222.93 5.80558 -1.51895 0
M  V30 13170 H 1224 4.45117 -1.92352 0
M  V30 13171 N 1225.34 0.486708 1.49896 0
M  V30 13172 C 1226.28 -0.335809 2.26727 0
M  V30 13173 C 1227.29 -0.94333 1.32684 0
M  V30 13174 O 1228.48 -0.82909 1.58077 0
M  V30 13175 C 1225.58 -1.48642 3.04563 0
M  V30 13176 C 1224.75 -0.988837 4.26076 0
M  V30 13177 C 1223.81 -2.01535 4.86076 0
M  V30 13178 O 1222.84 -1.58966 5.46552 0
M  V30 13179 N 1224.04 -3.34471 4.74457 0
M  V30 13180 H 1226.8 0.322919 2.97955 0
M  V30 13181 H 1224.36 0.318403 1.58738 0
M  V30 13182 H 1226.36 -2.17039 3.41579 0
M  V30 13183 H 1224.93 -2.04956 2.36033 0
M  V30 13184 H 1224.15 -0.130232 3.93985 0
M  V30 13185 H 1225.43 -0.634562 5.04827 0
M  V30 13186 H 1224.83 -3.71755 4.26398 0
M  V30 13187 H 1223.39 -3.98621 5.15698 0
M  V30 13188 N 1226.82 -1.56058 0.219941 0
M  V30 13189 C 1228.05 -2.02358 -0.416497 0
M  V30 13190 C 1228.46 -1.09903 -1.54007 0
M  V30 13191 O 1227.8 -0.100635 -1.83424 0
M  V30 13192 C 1227.87 -3.45 -1.01072 0
M  V30 13193 C 1227.53 -4.56994 -0.0227891 0
M  V30 13194 C 1228.53 -5.14061 0.776997 0
M  V30 13195 C 1226.21 -5.02209 0.0954981 0
M  V30 13196 C 1228.21 -6.14813 1.68179 0
M  V30 13197 C 1225.89 -6.02799 1.00383 0
M  V30 13198 C 1226.89 -6.58977 1.79552 0
M  V30 13199 O 1226.58 -7.57608 2.68858 0
M  V30 13200 H 1226.31 -0.667581 -0.106355 0
M  V30 13201 H 1228.87 -2.02677 0.333348 0
M  V30 13202 H 1227.1 -3.41745 -1.80962 0
M  V30 13203 H 1228.78 -3.74958 -1.55439 0
M  V30 13204 H 1229.55 -4.79979 0.696053 0
M  V30 13205 H 1225.43 -4.58164 -0.510599 0
M  V30 13206 H 1228.97 -6.58588 2.30017 0
M  V30 13207 H 1224.87 -6.36302 1.08579 0
M  V30 13208 H 1225.64 -7.75124 2.62915 0
M  V30 13209 N 1228.3 0.053464 -1.57509 0
M  V30 13210 C 1229.55 0.749102 -1.88135 0
M  V30 13211 C 1229.88 1.76642 -0.814111 0
M  V30 13212 O 1229.13 1.94796 0.187845 0
M  V30 13213 C 1229.43 1.47666 -3.25468 0
M  V30 13214 C 1229.1 0.597619 -4.46922 0
M  V30 13215 C 1227.76 0.355429 -4.79886 0
M  V30 13216 C 1230.11 -0.0107869 -5.21199 0
M  V30 13217 C 1227.44 -0.504347 -5.84528 0
M  V30 13218 C 1229.79 -0.858123 -6.26753 0
M  V30 13219 C 1228.45 -1.11001 -6.58206 0
M  V30 13220 H 1227.72 0.274116 -0.688434 0
M  V30 13221 H 1230.37 0.00944162 -1.91498 0
M  V30 13222 H 1228.68 2.28901 -3.1798 0
M  V30 13223 H 1230.37 2.02002 -3.46404 0
M  V30 13224 H 1226.96 0.796526 -4.21134 0
M  V30 13225 H 1231.15 0.163404 -4.96031 0
M  V30 13226 H 1226.4 -0.708057 -6.07286 0
M  V30 13227 H 1230.58 -1.3362 -6.83461 0
M  V30 13228 H 1228.2 -1.77798 -7.39116 0
M  V30 13229 N 1229.78 1.54207 0.325255 0
M  V30 13230 C 1231.2 1.44879 0.669492 0
M  V30 13231 C 1231.4 0.620298 1.91715 0
M  V30 13232 O 1230.45 0.118435 2.52222 0
M  V30 13233 C 1231.76 2.88581 0.845077 0
M  V30 13234 C 1233.31 2.98472 0.942527 0
M  V30 13235 C 1233.79 4.4332 1.15029 0
M  V30 13236 N 1235.28 4.46925 1.21707 0
M  V30 13237 C 1236.01 5.56155 1.39568 0
M  V30 13238 N 1235.51 6.75357 1.54483 0
M  V30 13239 N 1237.3 5.43799 1.42263 0
M  V30 13240 H 1229.45 2.06556 -0.494819 0
M  V30 13241 H 1231.72 0.934474 -0.159568 0
M  V30 13242 H 1231.42 3.517 -0.000442996 0
M  V30 13243 H 1231.3 3.34596 1.74141 0
M  V30 13244 H 1233.68 2.35481 1.77855 0
M  V30 13245 H 1233.76 2.5579 0.0226995 0
M  V30 13246 H 1233.41 5.06896 0.319127 0
M  V30 13247 H 1233.34 4.8361 2.08397 0
M  V30 13248 H 1235.83 3.61036 1.11632 0
M  V30 13249 H 1236.14 7.54363 1.67799 0
M  V30 13250 H 1234.49 6.78268 1.51584 0
M  V30 13251 H 1237.68 4.49627 1.30205 0
M  V30 13252 H 1237.85 6.28982 1.5584 0
M  V30 13253 N 1231.26 -0.58723 1.46251 0
M  V30 13254 C 1232.53 -1.34727 1.41802 0
M  V30 13255 C 1232.91 -2.10867 0.0991354 0
M  V30 13256 O 1232.26 -2.09194 -0.919242 0
M  V30 13257 C 1232.47 -2.27706 2.64482 0
M  V30 13258 C 1233.82 -2.89678 3.10438 0
M  V30 13259 O 1234.84 -2.38021 2.64999 0
M  V30 13260 O 1233.7 -3.83493 3.89352 0
M  V30 13261 H 1230.8 -0.605119 0.563702 0
M  V30 13262 H 1233.34 -0.608623 1.5841 0
M  V30 13263 H 1232.12 -1.70842 3.52035 0
M  V30 13264 H 1231.74 -3.08918 2.50311 0
M  V30 13265 N 1232.74 -1.33881 -0.831482 0
M  V30 13266 C 1233.69 -1.2131 -1.93049 0
M  V30 13267 C 1234.67 -0.114199 -1.60494 0
M  V30 13268 O 1235.86 -0.343027 -1.73644 0
M  V30 13269 C 1232.99 -0.962034 -3.29545 0
M  V30 13270 C 1232.08 -2.10372 -3.68245 0
M  V30 13271 N 1232.47 -3.35427 -3.78579 0
M  V30 13272 C 1230.77 -2.01206 -3.98036 0
M  V30 13273 C 1231.47 -4.10351 -4.12295 0
M  V30 13274 N 1230.44 -3.3886 -4.25059 0
M  V30 13275 H 1234.24 -2.1609 -1.99204 0
M  V30 13276 H 1231.76 -1.25995 -1.02464 0
M  V30 13277 H 1233.76 -0.852895 -4.08082 0
M  V30 13278 H 1232.42 -0.0228423 -3.24692 0
M  V30 13279 H 1233.43 -3.70085 -3.62295 0
M  V30 13280 H 1230.1 -1.14991 -4.01352 0
M  V30 13281 H 1231.49 -5.18302 -4.27566 0
M  V30 13282 N 1234.21 1.05064 -1.1747 0
M  V30 13283 C 1235.46 1.77481 -0.958301 0
M  V30 13284 C 1235.78 1.88725 0.51401 0
M  V30 13285 O 1236.98 2.57895 0.848657 0
M  V30 13286 C 1235.44 3.19048 -1.66543 0
M  V30 13287 C 1235.05 3.1593 -3.17636 0
M  V30 13288 C 1236.79 3.95912 -1.53146 0
M  V30 13289 C 1234.7 4.52293 -3.81032 0
M  V30 13290 H 1233.63 0.665247 -0.354913 0
M  V30 13291 H 1236.28 1.17751 -1.40737 0
M  V30 13292 H 1234.66 3.79113 -1.1441 0
M  V30 13293 H 1235.83 2.65375 -3.76713 0
M  V30 13294 H 1234.15 2.52564 -3.31059 0
M  V30 13295 H 1236.75 4.96737 -1.9788 0
M  V30 13296 H 1237.09 4.13498 -0.482203 0
M  V30 13297 H 1237.62 3.42399 -2.02504 0
M  V30 13298 H 1234.36 4.39913 -4.8596 0
M  V30 13299 H 1233.88 5.02991 -3.26741 0
M  V30 13300 H 1235.56 5.2123 -3.83312 0
M  V30 13301 N 1235.69 0.975146 1.23809 0
M  V30 13302 C 1236.64 0.503396 2.27087 0
M  V30 13303 C 1237.63 -0.43689 1.63669 0
M  V30 13304 O 1238.84 -0.31136 1.77287 0
M  V30 13305 H 1235.21 0.144346 0.738017 0
M  V30 13306 H 1237.19 1.38627 2.64244 0
M  V30 13307 C 1235.93 -0.183682 3.47214 0
M  V30 13308 H 1235.26 0.530753 3.96261 0
M  V30 13309 H 1236.7 -0.477479 4.21303 0
M  V30 13310 C 1235.16 -1.41317 3.05829 0
M  V30 13311 O 1235.69 -2.50975 3.13647 0
M  V30 13312 N 1233.89 -1.28191 2.60798 0
M  V30 13313 H 1233.44 -0.38967 2.54636 0
M  V30 13314 H 1233.4 -2.10565 2.33473 0
M  V30 13315 N 1237.17 -1.38817 0.746158 0
M  V30 13316 C 1238.45 -1.94303 0.224841 0
M  V30 13317 C 1238.83 -1.68207 -1.27552 0
M  V30 13318 O 1238.17 -1.01647 -2.04646 0
M  V30 13319 C 1238.38 -3.44306 0.5705 0
M  V30 13320 C 1239.73 -4.21329 0.526015 0
M  V30 13321 O 1240.76 -3.52554 0.508351 0
M  V30 13322 O 1239.62 -5.4392 0.530383 0
M  V30 13323 H 1236.71 -0.825785 0.0448047 0
M  V30 13324 H 1239.26 -1.48253 0.825775 0
M  V30 13325 H 1238.03 -3.56779 1.60701 0
M  V30 13326 H 1237.65 -3.97556 -0.0588271 0
M  V30 13327 N 1238.65 -0.49465 -1.49636 0
M  V30 13328 C 1239.9 0.0539277 -2.01628 0
M  V30 13329 C 1240.21 1.38634 -1.37986 0
M  V30 13330 O 1241.42 2.02123 -1.81269 0
M  V30 13331 C 1239.87 0.146582 -3.59601 0
M  V30 13332 C 1239.48 -1.1788 -4.32213 0
M  V30 13333 C 1241.22 0.645862 -4.19558 0
M  V30 13334 C 1239.13 -1.04866 -5.82028 0
M  V30 13335 H 1238.06 0.0239278 -0.75362 0
M  V30 13336 H 1240.71 -0.633112 -1.72232 0
M  V30 13337 H 1239.09 0.897931 -3.85685 0
M  V30 13338 H 1240.27 -1.94295 -4.17835 0
M  V30 13339 H 1238.58 -1.61102 -3.83973 0
M  V30 13340 H 1241.18 0.76064 -5.29262 0
M  V30 13341 H 1241.52 1.64313 -3.82501 0
M  V30 13342 H 1242.06 -0.04877 -3.9777 0
M  V30 13343 H 1238.79 -2.02 -6.23599 0
M  V30 13344 H 1238.31 -0.325293 -5.98917 0
M  V30 13345 H 1239.99 -0.724799 -6.42927 0
M  V30 13346 N 1240.13 1.55939 -0.228214 0
M  V30 13347 C 1241.37 1.97652 0.402067 0
M  V30 13348 C 1241.69 1.11911 1.60422 0
M  V30 13349 O 1242.89 1.43552 2.30445 0
M  V30 13350 C 1241.35 3.51638 0.766724 0
M  V30 13351 C 1240.96 4.46092 -0.412991 0
M  V30 13352 C 1242.7 4.02049 1.36224 0
M  V30 13353 C 1240.61 5.91394 -0.0255281 0
M  V30 13354 H 1239.54 0.738107 0.153994 0
M  V30 13355 H 1242.19 1.8059 -0.32548 0
M  V30 13356 H 1240.57 3.64325 1.55188 0
M  V30 13357 H 1241.75 4.45156 -1.19049 0
M  V30 13358 H 1240.06 4.0606 -0.92218 0
M  V30 13359 H 1242.66 5.08111 1.66514 0
M  V30 13360 H 1243 3.48292 2.28032 0
M  V30 13361 H 1243.53 3.92612 0.640378 0
M  V30 13362 H 1240.27 6.49149 -0.910269 0
M  V30 13363 H 1239.79 5.95509 0.716149 0
M  V30 13364 H 1241.47 6.4577 0.398839 0
M  V30 13365 N 1241.6 -0.0451101 1.57535 0
M  V30 13366 C 1242.55 -1.05066 2.05499 0
M  V30 13367 C 1243.52 -1.36884 0.940843 0
M  V30 13368 O 1244.71 -1.47497 1.21034 0
M  V30 13369 C 1241.85 -2.35139 2.52594 0
M  V30 13370 C 1240.96 -2.0962 3.77735 0
M  V30 13371 C 1240.09 -3.33447 4.13505 0
M  V30 13372 C 1239.13 -3.03411 5.31609 0
M  V30 13373 N 1238.27 -4.19644 5.62888 0
M  V30 13374 H 1243.11 -0.63469 2.91163 0
M  V30 13375 H 1240.65 -0.30179 1.43971 0
M  V30 13376 H 1242.61 -3.11118 2.7796 0
M  V30 13377 H 1241.24 -2.74489 1.69869 0
M  V30 13378 H 1240.29 -1.24211 3.59549 0
M  V30 13379 H 1241.6 -1.83452 4.63839 0
M  V30 13380 H 1240.75 -4.17805 4.39914 0
M  V30 13381 H 1239.49 -3.62715 3.2602 0
M  V30 13382 H 1238.5 -2.17453 5.04969 0
M  V30 13383 H 1239.72 -2.75438 6.20734 0
M  V30 13384 H 1237.67 -4.48893 4.78363 0
M  V30 13385 H 1237.59 -3.96843 6.43468 0
M  V30 13386 H 1238.85 -5.04921 5.93865 0
M  V30 13387 N 1243.08 -1.54377 -0.317073 0
M  V30 13388 C 1244.33 -1.72105 -1.0518 0
M  V30 13389 C 1244.64 -0.505166 -1.88964 0
M  V30 13390 O 1245.85 -0.563912 -2.65579 0
M  V30 13391 C 1244.31 -3.04435 -1.91957 0
M  V30 13392 C 1243.91 -4.33449 -1.13253 0
M  V30 13393 C 1245.66 -3.31524 -2.65127 0
M  V30 13394 C 1243.57 -5.56837 -1.99214 0
M  V30 13395 H 1242.5 -0.641392 -0.396399 0
M  V30 13396 H 1245.15 -1.80868 -0.309673 0
M  V30 13397 H 1243.53 -2.89595 -2.70094 0
M  V30 13398 H 1244.7 -4.59074 -0.39842 0
M  V30 13399 H 1243.02 -4.13173 -0.517372 0
M  V30 13400 H 1245.61 -4.20906 -3.29761 0
M  V30 13401 H 1245.96 -2.49688 -3.33109 0
M  V30 13402 H 1246.49 -3.47261 -1.94048 0
M  V30 13403 H 1243.23 -6.41294 -1.35729 0
M  V30 13404 H 1242.75 -5.35421 -2.70341 0
M  V30 13405 H 1244.43 -5.93488 -2.57646 0
M  V30 13406 N 1244.56 0.579466 -1.4656 0
M  V30 13407 C 1245.49 1.70291 -1.53406 0
M  V30 13408 C 1246.51 1.57232 -0.422116 0
M  V30 13409 O 1247.69 1.64598 -0.69064 0
M  V30 13410 C 1244.79 3.08572 -1.40131 0
M  V30 13411 C 1243.97 3.47602 -2.65502 0
M  V30 13412 C 1243.03 4.64955 -2.4638 0
M  V30 13413 O 1242.05 4.70653 -3.20116 0
M  V30 13414 N 1243.25 5.60041 -1.52756 0
M  V30 13415 H 1246.02 1.64873 -2.50274 0
M  V30 13416 H 1243.58 0.765533 -1.42658 0
M  V30 13417 H 1245.57 3.84877 -1.25106 0
M  V30 13418 H 1244.14 3.0834 -0.514322 0
M  V30 13419 H 1243.36 2.60969 -2.95446 0
M  V30 13420 H 1244.65 3.70446 -3.48779 0
M  V30 13421 H 1244.05 5.58176 -0.919587 0
M  V30 13422 H 1242.61 6.35764 -1.43693 0
M  V30 13423 N 1246.04 1.3432 0.824371 0
M  V30 13424 C 1247 1.25672 1.91675 0
M  V30 13425 C 1248 0.172269 1.59875 0
M  V30 13426 O 1249.19 0.424794 1.68941 0
M  V30 13427 C 1246.32 0.939928 3.27686 0
M  V30 13428 H 1247.52 2.22785 2.00766 0
M  V30 13429 H 1245.07 1.18587 1.01817 0
M  V30 13430 H 1245.8 -0.0280898 3.24288 0
M  V30 13431 H 1245.59 1.72432 3.5215 0
M  V30 13432 H 1247.08 0.904553 4.07686 0
M  V30 13433 N 1247.52 -1.0444 1.18026 0
M  V30 13434 C 1248.76 -1.77575 0.973314 0
M  V30 13435 C 1249.09 -1.88032 -0.4974 0
M  V30 13436 O 1248.35 -1.38214 -1.38548 0
M  V30 13437 C 1248.65 -3.21134 1.56869 0
M  V30 13438 C 1248.31 -3.30718 3.0649 0
M  V30 13439 C 1246.97 -3.33041 3.47328 0
M  V30 13440 C 1249.33 -3.3112 4.02503 0
M  V30 13441 C 1246.65 -3.33404 4.82762 0
M  V30 13442 C 1249.01 -3.33023 5.37846 0
M  V30 13443 C 1247.67 -3.33636 5.78138 0
M  V30 13444 H 1246.94 -0.649793 0.356161 0
M  V30 13445 H 1249.59 -1.22693 1.47033 0
M  V30 13446 H 1247.89 -3.78992 0.993584 0
M  V30 13447 H 1249.59 -3.76358 1.38404 0
M  V30 13448 H 1246.18 -3.29628 2.7394 0
M  V30 13449 H 1250.36 -3.2852 3.72006 0
M  V30 13450 H 1245.62 -3.32194 5.13281 0
M  V30 13451 H 1249.79 -3.32283 6.12014 0
M  V30 13452 H 1247.42 -3.33671 6.83058 0
M  V30 13453 N 1248.99 -0.981699 -1.2329 0
M  V30 13454 C 1250.24 -0.646818 -1.91048 0
M  V30 13455 C 1250.56 0.823479 -1.77421 0
M  V30 13456 O 1251.76 1.26948 -2.39993 0
M  V30 13457 C 1250.22 -1.1063 -3.42475 0
M  V30 13458 C 1249.83 -2.60103 -3.6476 0
M  V30 13459 C 1251.57 -0.845227 -4.16 0
M  V30 13460 C 1249.48 -2.99712 -5.0983 0
M  V30 13461 H 1248.41 -0.238221 -0.715379 0
M  V30 13462 H 1251.06 -1.18977 -1.39702 0
M  V30 13463 H 1249.44 -0.491554 -3.92937 0
M  V30 13464 H 1250.61 -3.26828 -3.24839 0
M  V30 13465 H 1248.93 -2.83972 -3.04547 0
M  V30 13466 H 1251.53 -1.11699 -5.22903 0
M  V30 13467 H 1251.87 0.218661 -4.15725 0
M  V30 13468 H 1252.4 -1.42162 -3.7153 0
M  V30 13469 H 1249.14 -4.0523 -5.15237 0
M  V30 13470 H 1248.66 -2.37683 -5.50697 0
M  V30 13471 H 1250.34 -2.9039 -5.78172 0
M  V30 13472 N 1250.47 1.3842 -0.753509 0
M  V30 13473 C 1251.89 1.53668 -0.431095 0
M  V30 13474 C 1252.09 1.71626 1.05578 0
M  V30 13475 O 1251.14 1.72723 1.84182 0
M  V30 13476 C 1252.46 2.74381 -1.23027 0
M  V30 13477 C 1254.01 2.8823 -1.22034 0
M  V30 13478 C 1254.48 4.11904 -2.00248 0
M  V30 13479 N 1255.97 4.18981 -1.97508 0
M  V30 13480 C 1256.71 5.13667 -2.5482 0
M  V30 13481 N 1256.2 6.14027 -3.20846 0
M  V30 13482 N 1258 5.06017 -2.44751 0
M  V30 13483 H 1250.15 1.25012 -1.71714 0
M  V30 13484 H 1252.41 0.607296 -0.727939 0
M  V30 13485 H 1252.12 2.67515 -2.28317 0
M  V30 13486 H 1251.99 3.67565 -0.847098 0
M  V30 13487 H 1254.38 2.94578 -0.175502 0
M  V30 13488 H 1254.46 1.96057 -1.64303 0
M  V30 13489 H 1254.1 4.06318 -3.04742 0
M  V30 13490 H 1254.03 5.03157 -1.55373 0
M  V30 13491 H 1256.52 3.47104 -1.49423 0
M  V30 13492 H 1256.84 6.82771 -3.61999 0
M  V30 13493 H 1255.18 6.1436 -3.24941 0
M  V30 13494 H 1258.37 4.26552 -1.92797 0
M  V30 13495 H 1258.54 5.7963 -2.89713 0
M  V30 13496 N 1251.95 0.502579 1.49372 0
M  V30 13497 C 1252.91 -0.263993 2.27675 0
M  V30 13498 C 1253.91 -0.892538 1.33755 0
M  V30 13499 O 1255.1 -0.756826 1.56901 0
M  V30 13500 C 1252.24 -1.37895 3.11765 0
M  V30 13501 H 1253.43 0.423132 2.969 0
M  V30 13502 H 1250.98 0.257595 1.54163 0
M  V30 13503 H 1251.72 -2.10018 2.47109 0
M  V30 13504 H 1251.5 -0.933694 3.80821 0
M  V30 13505 H 1252.99 -1.91889 3.70902 0
M  V30 13506 N 1253.43 -1.55816 0.23648 0
M  V30 13507 C 1254.38 -2.22322 -0.68378 0
M  V30 13508 C 1255.37 -1.2074 -1.1882 0
M  V30 13509 O 1256.58 -1.38781 -1.14629 0
M  V30 13510 H 1252.95 -0.713021 -0.238966 0
M  V30 13511 H 1254.92 -2.98234 -0.0995879 0
M  V30 13512 C 1253.67 -2.92845 -1.87449 0
M  V30 13513 H 1252.99 -3.70777 -1.49548 0
M  V30 13514 H 1254.43 -3.42758 -2.49585 0
M  V30 13515 C 1252.89 -1.96139 -2.73918 0
M  V30 13516 O 1253.42 -1.48781 -3.73132 0
M  V30 13517 N 1251.63 -1.63465 -2.40266 0
M  V30 13518 H 1251.18 -2.02171 -1.59639 0
M  V30 13519 H 1251.13 -0.990239 -2.98398 0
M  V30 13520 N 1254.91 0.036755 -1.57557 0
M  V30 13521 C 1255.85 1.03975 -2.06053 0
M  V30 13522 C 1256.82 1.36384 -0.948089 0
M  V30 13523 O 1258.01 1.46853 -1.21815 0
M  V30 13524 C 1255.15 2.33796 -2.53837 0
M  V30 13525 C 1254.26 2.07614 -3.78841 0
M  V30 13526 C 1253.4 3.3125 -4.15267 0
M  V30 13527 C 1252.44 3.00587 -5.33211 0
M  V30 13528 N 1251.57 4.16653 -5.65106 0
M  V30 13529 H 1256.41 0.61924 -2.91495 0
M  V30 13530 H 1253.95 0.294151 -1.44129 0
M  V30 13531 H 1255.91 3.09639 -2.79606 0
M  V30 13532 H 1254.54 2.73584 -1.71323 0
M  V30 13533 H 1253.59 1.22302 -3.60203 0
M  V30 13534 H 1254.9 1.80989 -4.64806 0
M  V30 13535 H 1254.06 4.15466 -4.42123 0
M  V30 13536 H 1252.79 3.60981 -3.27939 0
M  V30 13537 H 1251.8 2.14772 -5.06115 0
M  V30 13538 H 1253.02 2.72142 -6.22186 0
M  V30 13539 H 1250.97 4.4635 -4.80737 0
M  V30 13540 H 1250.89 3.93425 -6.45564 0
M  V30 13541 H 1252.16 5.01764 -5.96534 0
M  V30 13542 N 1256.39 1.54543 0.308881 0
M  V30 13543 C 1257.35 1.84214 1.36374 0
M  V30 13544 C 1258.35 0.71463 1.44047 0
M  V30 13545 O 1259.54 0.98293 1.4382 0
M  V30 13546 C 1256.67 2.01535 2.74948 0
M  V30 13547 H 1257.86 2.78477 1.11314 0
M  V30 13548 H 1255.42 1.46485 0.545141 0
M  V30 13549 H 1256.15 1.09533 3.05242 0
M  V30 13550 H 1255.94 2.83595 2.7077 0
M  V30 13551 H 1257.43 2.25888 3.51233 0
M  V30 13552 N 1257.86 -0.571685 1.46866 0
M  V30 13553 C 1259.28 -0.896172 1.32064 0
M  V30 13554 C 1259.48 -1.9925 0.300291 0
M  V30 13555 O 1258.54 -2.50791 -0.293284 0
M  V30 13556 C 1259.85 -1.3031 2.70998 0
M  V30 13557 C 1261.4 -1.41533 2.79173 0
M  V30 13558 C 1261.87 -1.85587 4.18714 0
M  V30 13559 N 1263.36 -1.92762 4.21185 0
M  V30 13560 C 1264.1 -2.28148 5.26057 0
M  V30 13561 N 1263.59 -2.62248 6.41247 0
M  V30 13562 N 1265.39 -2.28797 5.13428 0
M  V30 13563 H 1257.54 0.152349 2.11853 0
M  V30 13564 H 1259.8 0.00548777 0.947984 0
M  V30 13565 H 1259.51 -0.571469 3.47026 0
M  V30 13566 H 1259.38 -2.26233 3.01826 0
M  V30 13567 H 1261.77 -2.1378 2.03426 0
M  V30 13568 H 1261.85 -0.438342 2.52016 0
M  V30 13569 H 1261.49 -1.13915 4.9496 0
M  V30 13570 H 1261.42 -2.84264 4.43285 0
M  V30 13571 H 1263.91 -1.68854 3.38078 0
M  V30 13572 H 1264.23 -2.88234 7.17036 0
M  V30 13573 H 1262.57 -2.59861 6.44591 0
M  V30 13574 H 1265.76 -2.01587 4.22469 0
M  V30 13575 H 1265.94 -2.56045 5.95269 0
M  V30 13576 N 1259.34 -1.34755 -0.817236 0
M  V30 13577 C 1260.62 -1.18007 -1.55993 0
M  V30 13578 C 1261 0.245079 -2.09673 0
M  V30 13579 O 1260.35 1.24718 -1.91462 0
M  V30 13580 C 1260.56 -2.23934 -2.67684 0
M  V30 13581 C 1261.9 -2.59201 -3.36303 0
M  V30 13582 O 1262.93 -2.22767 -2.77945 0
M  V30 13583 O 1261.79 -3.21809 -4.41702 0
M  V30 13584 H 1258.88 -0.4578 -0.688729 0
M  V30 13585 H 1261.43 -1.46405 -0.858117 0
M  V30 13586 H 1260.2 -3.19568 -2.25813 0
M  V30 13587 H 1259.82 -1.96745 -3.4551 0
M  V30 13588 N 1260.82 1.03812 -1.18578 0
M  V30 13589 C 1262.1 1.74062 -0.892288 0
M  V30 13590 C 1262.48 2.02267 0.604256 0
M  V30 13591 O 1261.82 1.66988 1.55972 0
M  V30 13592 C 1262.03 3.024 -1.74228 0
M  V30 13593 C 1263.38 3.76088 -1.97087 0
M  V30 13594 O 1264.41 3.12305 -1.71302 0
M  V30 13595 O 1263.27 4.90732 -2.40509 0
M  V30 13596 H 1260.36 0.757567 -0.331695 0
M  V30 13597 H 1262.91 1.09855 -1.29345 0
M  V30 13598 H 1261.68 2.77713 -2.75665 0
M  V30 13599 H 1261.3 3.74346 -1.3398 0
M  V30 13600 N 1262.3 0.988223 1.22768 0
M  V30 13601 C 1263.53 0.678757 1.95132 0
M  V30 13602 C 1263.94 -0.759797 1.73274 0
M  V30 13603 O 1263.28 -1.52383 1.02592 0
M  V30 13604 C 1263.34 0.899007 3.48078 0
M  V30 13605 C 1263 2.32114 3.93665 0
M  V30 13606 C 1264 3.30034 4.01713 0
M  V30 13607 C 1261.69 2.65432 4.2644 0
M  V30 13608 C 1263.68 4.59349 4.41902 0
M  V30 13609 C 1261.37 3.94967 4.66309 0
M  V30 13610 C 1262.37 4.91737 4.74008 0
M  V30 13611 O 1262.05 6.18958 5.12977 0
M  V30 13612 H 1261.79 0.250588 0.627839 0
M  V30 13613 H 1264.34 1.32441 1.56999 0
M  V30 13614 H 1262.57 0.196182 3.86202 0
M  V30 13615 H 1264.26 0.585507 4.01655 0
M  V30 13616 H 1265.02 3.05626 3.76587 0
M  V30 13617 H 1260.9 1.90816 4.19655 0
M  V30 13618 H 1264.45 5.34881 4.47826 0
M  V30 13619 H 1260.34 4.19168 4.90886 0
M  V30 13620 H 1261.11 6.22826 5.31065 0
M  V30 13621 N 1263.78 -1.38018 0.760839 0
M  V30 13622 C 1264.72 -2.30387 0.13796 0
M  V30 13623 C 1265.69 -1.50548 -0.701754 0
M  V30 13624 O 1266.88 -1.79154 -0.656381 0
M  V30 13625 C 1264.02 -3.36993 -0.743642 0
M  V30 13626 C 1263.13 -4.31856 0.111489 0
M  V30 13627 C 1262.27 -5.25534 -0.773796 0
M  V30 13628 C 1261.3 -6.12042 0.0845311 0
M  V30 13629 N 1260.44 -6.97995 -0.758118 0
M  V30 13630 H 1265.28 -2.83077 0.931212 0
M  V30 13631 H 1262.82 -1.39361 0.470833 0
M  V30 13632 H 1264.78 -3.97417 -1.26948 0
M  V30 13633 H 1263.41 -2.85695 -1.50261 0
M  V30 13634 H 1262.46 -3.72832 0.755031 0
M  V30 13635 H 1263.77 -4.92758 0.774042 0
M  V30 13636 H 1262.92 -5.9111 -1.36653 0
M  V30 13637 H 1261.66 -4.65017 -1.47006 0
M  V30 13638 H 1260.67 -5.45455 0.689883 0
M  V30 13639 H 1261.89 -6.74629 0.777966 0
M  V30 13640 H 1259.84 -6.40018 -1.4392 0
M  V30 13641 H 1259.76 -7.55846 -0.152623 0
M  V30 13642 H 1261.02 -7.67973 -1.33559 0
M  V30 13643 N 1265.25 -0.510493 -1.49103 0
M  V30 13644 C 1266.48 0.0271718 -2.06882 0
M  V30 13645 C 1266.9 1.2995 -1.36962 0
M  V30 13646 O 1266.25 1.76842 -0.450916 0
M  V30 13647 C 1266.3 0.274956 -3.60453 0
M  V30 13648 O 1266.03 -0.946941 -4.27744 0
M  V30 13649 C 1267.53 0.855197 -4.34973 0
M  V30 13650 H 1264.75 -0.024732 -0.670544 0
M  V30 13651 H 1267.29 -0.710567 -1.91758 0
M  V30 13652 H 1265.45 0.962696 -3.75248 0
M  V30 13653 H 1265.86 -0.715627 -5.19595 0
M  V30 13654 H 1267.33 0.978103 -5.43265 0
M  V30 13655 H 1267.81 1.85535 -3.98087 0
M  V30 13656 H 1268.42 0.204632 -4.24807 0
M  V30 13657 N 1266.73 1.55688 -0.24474 0
M  V30 13658 C 1267.66 2.24272 0.64995 0
M  V30 13659 C 1268.64 1.22226 1.183 0
M  V30 13660 O 1269.83 1.50873 1.22274 0
M  V30 13661 C 1266.96 2.94053 1.84798 0
M  V30 13662 C 1265.91 4.02769 1.44779 0
M  V30 13663 C 1265.24 4.59965 2.72647 0
M  V30 13664 C 1266.54 5.18601 0.62047 0
M  V30 13665 H 1268.23 2.99298 0.0780654 0
M  V30 13666 H 1265.78 1.43955 0.0361069 0
M  V30 13667 H 1267.73 3.40732 2.47951 0
M  V30 13668 H 1266.45 2.16511 2.44521 0
M  V30 13669 H 1265.11 3.56856 0.839609 0
M  V30 13670 H 1264.76 3.79126 3.30564 0
M  V30 13671 H 1264.46 5.33352 2.46596 0
M  V30 13672 H 1265.99 5.09376 3.36703 0
M  V30 13673 H 1267.4 5.61519 1.15625 0
M  V30 13674 H 1265.8 5.98364 0.456097 0
M  V30 13675 H 1266.87 4.83503 -0.367798 0
M  V30 13676 N 1268.21 -0.0283989 1.57574 0
M  V30 13677 C 1269.46 -0.718121 1.88483 0
M  V30 13678 C 1269.77 -1.76485 0.843345 0
M  V30 13679 O 1270.98 -2.50721 1.04169 0
M  V30 13680 C 1269.43 -1.32832 3.3449 0
M  V30 13681 C 1269.04 -0.317905 4.46871 0
M  V30 13682 C 1270.79 -1.99788 3.74546 0
M  V30 13683 C 1268.69 -0.936489 5.83938 0
M  V30 13684 H 1267.62 -0.271969 0.703242 0
M  V30 13685 H 1270.27 0.0274862 1.83479 0
M  V30 13686 H 1268.66 -2.12366 3.34241 0
M  V30 13687 H 1269.83 0.450767 4.5859 0
M  V30 13688 H 1268.14 0.249605 4.15651 0
M  V30 13689 H 1270.74 -2.46923 4.74271 0
M  V30 13690 H 1271.08 -2.81633 3.06575 0
M  V30 13691 H 1271.62 -1.27029 3.76973 0
M  V30 13692 H 1268.36 -0.15744 6.55311 0
M  V30 13693 H 1267.88 -1.67499 5.75938 0
M  V30 13694 H 1269.56 -1.44363 6.30689 0
M  V30 13695 N 1269.69 -1.54705 -0.300681 0
M  V30 13696 C 1270.64 -1.86433 -1.39087 0
M  V30 13697 C 1271.63 -0.738101 -1.52474 0
M  V30 13698 O 1272.84 -0.922096 -1.54588 0
M  V30 13699 H 1269.21 -0.591314 -0.464599 0
M  V30 13700 H 1271.18 -2.77558 -1.09563 0
M  V30 13701 C 1269.93 -2.1286 -2.74929 0
M  V30 13702 H 1269.25 -2.98994 -2.6541 0
M  V30 13703 H 1270.69 -2.39 -3.50222 0
M  V30 13704 C 1269.15 -0.92726 -3.23888 0
M  V30 13705 O 1269.68 -0.147921 -4.01428 0
M  V30 13706 N 1267.89 -0.732553 -2.81215 0
M  V30 13707 H 1267.44 -1.36797 -2.18276 0
M  V30 13708 H 1267.39 0.0696902 -3.14323 0
M  V30 13709 N 1271.17 0.563888 -1.47167 0
M  V30 13710 C 1272.13 1.65359 -1.58711 0
M  V30 13711 C 1273.13 1.53999 -0.46272 0
M  V30 13712 O 1274.32 1.58277 -0.727595 0
M  V30 13713 C 1271.45 3.04874 -1.52529 0
M  V30 13714 H 1272.64 1.56475 -2.55843 0
M  V30 13715 H 1270.2 0.783271 -1.35257 0
M  V30 13716 H 1270.93 3.19297 -0.56747 0
M  V30 13717 H 1270.72 3.14528 -2.34125 0
M  V30 13718 H 1272.21 3.84164 -1.63731 0
M  V30 13719 N 1272.64 1.35187 0.810078 0
M  V30 13720 C 1273.55 1.29926 1.95337 0
M  V30 13721 C 1274.57 0.204748 1.72791 0
M  V30 13722 O 1275.75 0.433507 1.96679 0
M  V30 13723 C 1272.81 1.06736 3.29861 0
M  V30 13724 C 1271.87 2.25466 3.65326 0
M  V30 13725 C 1271.11 2.03373 4.93432 0
M  V30 13726 O 1271.33 0.998419 5.61594 0
M  V30 13727 O 1270.26 2.90648 5.27075 0
M  V30 13728 H 1274.09 2.26137 2.02721 0
M  V30 13729 H 1271.67 1.15523 0.947354 0
M  V30 13730 H 1273.56 0.956367 4.10404 0
M  V30 13731 H 1272.23 0.135735 3.23415 0
M  V30 13732 H 1271.14 2.42129 2.85175 0
M  V30 13733 H 1272.47 3.17063 3.76473 0
M  V30 13734 N 1274.12 -1.03182 1.19127 0
M  V30 13735 C 1275.4 -1.73586 0.901507 0
M  V30 13736 C 1275.78 -2.02585 -0.593521 0
M  V30 13737 O 1275.13 -1.67813 -1.55084 0
M  V30 13738 C 1275.34 -3.01472 1.75829 0
M  V30 13739 C 1276.69 -3.75037 1.99078 0
M  V30 13740 O 1277.71 -3.11392 1.72956 0
M  V30 13741 O 1276.57 -4.8945 2.43108 0
M  V30 13742 H 1273.66 -0.755797 0.335708 0
M  V30 13743 H 1276.21 -1.09167 1.29925 0
M  V30 13744 H 1274.98 -2.76247 2.77134 0
M  V30 13745 H 1274.6 -3.73631 1.35963 0
M  V30 13746 N 1275.6 -0.99472 -1.22242 0
M  V30 13747 C 1277.01 -0.706456 -1.72818 0
M  V30 13748 C 1277.36 0.776566 -1.80177 0
M  V30 13749 O 1276.49 1.60698 -1.44931 0
M  V30 13750 C 1277.08 -1.27571 -3.13865 0
M  V30 13751 C 1275.64 -1.03679 -3.61839 0
M  V30 13752 C 1274.79 -1.3948 -2.39668 0
M  V30 13753 H 1277.74 -1.16687 -1.07564 0
M  V30 13754 H 1277.76 -0.655202 -3.74816 0
M  V30 13755 H 1277.27 -2.35508 -3.08476 0
M  V30 13756 H 1275.37 0.0258679 -3.72591 0
M  V30 13757 H 1275.49 -1.70145 -4.4787 0
M  V30 13758 H 1273.85 -0.813418 -2.41362 0
M  V30 13759 H 1274.63 -2.48425 -2.36939 0
M  V30 13760 N 1277.08 1.37613 -0.768148 0
M  V30 13761 C 1278.49 1.82437 -0.396703 0
M  V30 13762 C 1278.84 1.64019 1.07668 0
M  V30 13763 O 1277.97 1.14932 1.83356 0
M  V30 13764 C 1278.56 3.31207 -0.713265 0
M  V30 13765 C 1277.12 3.74323 -0.39492 0
M  V30 13766 C 1276.27 2.60191 -0.958962 0
M  V30 13767 H 1279.22 1.26135 -0.963099 0
M  V30 13768 H 1279.24 3.805 0.00337228 0
M  V30 13769 H 1278.75 3.4458 -1.78567 0
M  V30 13770 H 1276.85 3.66521 0.670313 0
M  V30 13771 H 1276.96 4.70558 -0.900653 0
M  V30 13772 H 1275.33 2.51797 -0.383423 0
M  V30 13773 H 1276.11 2.76358 -2.03669 0
M  V30 13774 N 1278.56 0.518393 1.4883 0
M  V30 13775 C 1279.49 -0.297703 2.2625 0
M  V30 13776 C 1280.47 -0.955096 1.31593 0
M  V30 13777 O 1281.65 -0.981776 1.60914 0
M  V30 13778 C 1278.78 -1.42065 3.07466 0
M  V30 13779 C 1277.82 -0.875854 4.1741 0
M  V30 13780 S 1278.66 0.247153 5.34929 0
M  V30 13781 C 1279.81 -0.878544 6.19703 0
M  V30 13782 H 1280.05 0.359358 2.9512 0
M  V30 13783 H 1277.58 0.303976 1.51378 0
M  V30 13784 H 1279.54 -2.06398 3.54838 0
M  V30 13785 H 1278.2 -2.04939 2.38031 0
M  V30 13786 H 1277.39 -1.71793 4.73818 0
M  V30 13787 H 1276.99 -0.30943 3.72718 0
M  V30 13788 H 1279.29 -1.77986 6.53703 0
M  V30 13789 H 1280.23 -0.3527 7.07221 0
M  V30 13790 H 1280.64 -1.15372 5.52584 0
M  V30 13791 N 1280.03 -1.55556 0.252993 0
M  V30 13792 C 1281.28 -1.99385 -0.370599 0
M  V30 13793 C 1281.61 -1.14101 -1.57145 0
M  V30 13794 O 1280.89 -0.205828 -1.93408 0
M  V30 13795 C 1281.17 -3.51672 -0.774503 0
M  V30 13796 C 1281.02 -4.47719 0.432159 0
M  V30 13797 C 1282.34 -4.0923 -1.61923 0
M  V30 13798 H 1279.46 -0.724858 -0.133231 0
M  V30 13799 H 1282.1 -1.86644 0.355522 0
M  V30 13800 H 1280.25 -3.62661 -1.39318 0
M  V30 13801 H 1281.93 -4.48704 1.07063 0
M  V30 13802 H 1280.17 -4.2029 1.07419 0
M  V30 13803 H 1280.84 -5.51898 0.106123 0
M  V30 13804 H 1283.32 -4.01381 -1.09693 0
M  V30 13805 H 1282.19 -5.16039 -1.87068 0
M  V30 13806 H 1282.45 -3.58067 -2.59307 0
M  V30 13807 N 1281.51 0.0200419 -1.57587 0
M  V30 13808 C 1282.76 0.710078 -1.89962 0
M  V30 13809 C 1283.09 1.74521 -0.851829 0
M  V30 13810 O 1282.37 1.94052 0.132005 0
M  V30 13811 C 1282.65 1.37145 -3.32961 0
M  V30 13812 C 1282.5 0.349221 -4.48442 0
M  V30 13813 C 1283.82 2.30304 -3.75031 0
M  V30 13814 H 1280.94 0.25667 -0.690862 0
M  V30 13815 H 1283.58 -0.0271362 -1.89981 0
M  V30 13816 H 1281.73 1.99981 -3.33076 0
M  V30 13817 H 1283.4 -0.277916 -4.60462 0
M  V30 13818 H 1281.65 -0.330594 -4.32538 0
M  V30 13819 H 1282.32 0.850636 -5.45406 0
M  V30 13820 H 1284.79 1.77503 -3.7634 0
M  V30 13821 H 1283.67 2.73555 -4.75877 0
M  V30 13822 H 1283.93 3.17364 -3.07786 0
M  V30 13823 N 1282.99 1.54862 0.292472 0
M  V30 13824 C 1284.24 1.74807 1.02813 0
M  V30 13825 C 1284.57 0.536935 1.8663 0
M  V30 13826 O 1283.84 -0.465854 1.88839 0
M  V30 13827 C 1284.13 3.04202 1.927 0
M  V30 13828 C 1283.98 4.35631 1.12006 0
M  V30 13829 C 1285.3 3.29514 2.91734 0
M  V30 13830 H 1282.42 0.636015 0.372362 0
M  V30 13831 H 1285.06 1.87583 0.302069 0
M  V30 13832 H 1283.21 2.9344 2.54608 0
M  V30 13833 H 1284.88 4.58323 0.52319 0
M  V30 13834 H 1283.13 4.31733 0.42298 0
M  V30 13835 H 1283.8 5.22454 1.78172 0
M  V30 13836 H 1286.27 3.39941 2.39957 0
M  V30 13837 H 1285.15 4.21352 3.51786 0
M  V30 13838 H 1285.41 2.48216 3.65843 0
M  V30 13839 N 1284.47 -0.556076 1.47464 0
M  V30 13840 C 1285.88 -0.882115 1.33007 0
M  V30 13841 C 1286.08 -1.9892 0.321407 0
M  V30 13842 O 1285.14 -2.51088 -0.266668 0
M  V30 13843 C 1286.45 -1.27428 2.72365 0
M  V30 13844 C 1288 -1.38564 2.80658 0
M  V30 13845 C 1288.48 -1.81136 4.20659 0
M  V30 13846 N 1289.97 -1.88284 4.23206 0
M  V30 13847 C 1290.7 -2.22555 5.28447 0
M  V30 13848 N 1290.2 -2.55432 6.43993 0
M  V30 13849 N 1291.99 -2.23339 5.15826 0
M  V30 13850 H 1284.14 0.17481 2.11679 0
M  V30 13851 H 1286.41 0.0155421 0.947873 0
M  V30 13852 H 1286.11 -0.53463 3.47613 0
M  V30 13853 H 1285.99 -2.23019 3.04208 0
M  V30 13854 H 1288.37 -2.1161 2.05682 0
M  V30 13855 H 1288.45 -0.411588 2.52467 0
M  V30 13856 H 1288.1 -1.08659 4.96141 0
M  V30 13857 H 1288.03 -2.79546 4.46275 0
M  V30 13858 H 1290.52 -1.65259 3.3985 0
M  V30 13859 H 1290.83 -2.80612 7.20053 0
M  V30 13860 H 1289.18 -2.5301 6.47311 0
M  V30 13861 H 1292.37 -1.97094 4.24584 0
M  V30 13862 H 1292.54 -2.49717 5.97951 0
M  V30 13863 N 1285.95 -1.35615 -0.802897 0
M  V30 13864 C 1286.89 -1.28839 -1.91492 0
M  V30 13865 C 1287.86 -0.159621 -1.65331 0
M  V30 13866 O 1289.05 -0.343931 -1.87675 0
M  V30 13867 C 1286.19 -1.06999 -3.28093 0
M  V30 13868 C 1285.3 -2.28831 -3.66416 0
M  V30 13869 C 1284.44 -2.00111 -4.92066 0
M  V30 13870 C 1283.48 -3.17977 -5.23027 0
M  V30 13871 N 1282.61 -2.89009 -6.39858 0
M  V30 13872 H 1287.45 -2.2393 -1.96619 0
M  V30 13873 H 1284.99 -1.1131 -0.961687 0
M  V30 13874 H 1286.95 -0.923673 -4.06847 0
M  V30 13875 H 1285.58 -0.155684 -3.22424 0
M  V30 13876 H 1284.63 -2.54314 -2.82893 0
M  V30 13877 H 1285.94 -3.1683 -3.85253 0
M  V30 13878 H 1285.1 -1.82331 -5.78654 0
M  V30 13879 H 1283.84 -1.09402 -4.75271 0
M  V30 13880 H 1282.84 -3.3633 -4.34928 0
M  V30 13881 H 1284.07 -4.09493 -5.41749 0
M  V30 13882 H 1282.01 -2.00898 -6.24481 0
M  V30 13883 H 1281.93 -3.70544 -6.58964 0
M  V30 13884 H 1283.2 -2.74779 -7.29463 0
M  V30 13885 N 1287.43 1.02549 -1.19673 0
M  V30 13886 C 1288.67 1.76004 -1.00144 0
M  V30 13887 C 1289 1.888 0.467423 0
M  V30 13888 O 1288.26 1.404 1.36331 0
M  V30 13889 C 1288.55 3.18597 -1.61959 0
M  V30 13890 C 1288.22 3.258 -3.11713 0
M  V30 13891 C 1286.88 3.27473 -3.52583 0
M  V30 13892 C 1289.23 3.24675 -4.0772 0
M  V30 13893 C 1286.56 3.25681 -4.88005 0
M  V30 13894 C 1288.91 3.24424 -5.43076 0
M  V30 13895 C 1287.58 3.24396 -5.83372 0
M  V30 13896 H 1286.85 0.644044 -0.366453 0
M  V30 13897 H 1289.5 1.20338 -1.48966 0
M  V30 13898 H 1287.8 3.77364 -1.05375 0
M  V30 13899 H 1289.5 3.74109 -1.44374 0
M  V30 13900 H 1286.09 3.25228 -2.7915 0
M  V30 13901 H 1290.27 3.2256 -3.77185 0
M  V30 13902 H 1285.53 3.23986 -5.18501 0
M  V30 13903 H 1289.7 3.22504 -6.17223 0
M  V30 13904 H 1287.33 3.22762 -6.8828 0
M  V30 13905 N 1288.9 1.00119 1.21713 0
M  V30 13906 C 1290.15 0.682733 1.90962 0
M  V30 13907 C 1290.48 -0.784131 1.77665 0
M  V30 13908 O 1289.76 -1.56799 1.15084 0
M  V30 13909 C 1290.04 1.09975 3.42896 0
M  V30 13910 C 1289.89 2.62578 3.65202 0
M  V30 13911 C 1291.21 0.659247 4.35134 0
M  V30 13912 H 1288.33 0.249501 0.693483 0
M  V30 13913 H 1290.97 1.24619 1.43423 0
M  V30 13914 H 1289.12 0.620334 3.83515 0
M  V30 13915 H 1290.8 3.18254 3.33934 0
M  V30 13916 H 1289.04 3.04268 3.09198 0
M  V30 13917 H 1289.71 2.86809 4.7164 0
M  V30 13918 H 1292.19 1.07116 4.02076 0
M  V30 13919 H 1291.06 0.979241 5.40095 0
M  V30 13920 H 1291.32 -0.439777 4.39907 0
M  V30 13921 N 1290.38 -1.37203 0.775435 0
M  V30 13922 C 1291.33 -2.27584 0.137667 0
M  V30 13923 C 1292.32 -1.46281 -0.670135 0
M  V30 13924 O 1293.51 -1.688 -0.532503 0
M  V30 13925 C 1290.64 -3.3528 -0.73773 0
M  V30 13926 C 1289.72 -4.24028 0.078102 0
M  V30 13927 N 1290.11 -4.93117 1.1256 0
M  V30 13928 C 1288.41 -4.45763 -0.145295 0
M  V30 13929 C 1289.11 -5.58656 1.62107 0
M  V30 13930 N 1288.09 -5.3554 0.932622 0
M  V30 13931 H 1291.89 -2.78475 0.93961 0
M  V30 13932 H 1289.4 -1.50364 0.613544 0
M  V30 13933 H 1291.4 -3.98941 -1.21043 0
M  V30 13934 H 1290.06 -2.85944 -1.53838 0
M  V30 13935 H 1291.07 -4.95465 1.50781 0
M  V30 13936 H 1287.75 -4.07292 -0.917557 0
M  V30 13937 H 1289.14 -6.23866 2.49482 0
M  V30 13938 N 1291.86 -0.526279 -1.48553 0
M  V30 13939 C 1292.79 0.227364 -2.3239 0
M  V30 13940 C 1293.77 0.93862 -1.41859 0
M  V30 13941 O 1294.96 0.925119 -1.70749 0
M  V30 13942 C 1292.09 1.277 -3.22971 0
M  V30 13943 C 1291.04 0.684107 -4.22497 0
M  V30 13944 C 1290.37 1.83612 -5.02186 0
M  V30 13945 C 1291.67 -0.341723 -5.21181 0
M  V30 13946 H 1293.36 -0.472486 -2.95648 0
M  V30 13947 H 1290.91 -0.228669 -1.42173 0
M  V30 13948 H 1292.86 1.81215 -3.80446 0
M  V30 13949 H 1291.58 2.00638 -2.57705 0
M  V30 13950 H 1290.24 0.170505 -3.66203 0
M  V30 13951 H 1289.89 2.55379 -4.33348 0
M  V30 13952 H 1289.59 1.44536 -5.69547 0
M  V30 13953 H 1291.11 2.37513 -5.62512 0
M  V30 13954 H 1292.53 0.106207 -5.73202 0
M  V30 13955 H 1290.92 -0.649673 -5.96573 0
M  V30 13956 H 1291.99 -1.2488 -4.68543 0
M  V30 13957 N 1293.34 1.5542 -0.261239 0
M  V30 13958 C 1294.27 2.24949 0.626126 0
M  V30 13959 C 1295.25 1.23474 1.16997 0
M  V30 13960 O 1296.43 1.52161 1.20667 0
M  V30 13961 C 1293.56 2.95996 1.81669 0
M  V30 13962 C 1292.52 4.04282 1.40499 0
M  V30 13963 C 1291.84 4.62831 2.67753 0
M  V30 13964 C 1293.14 5.1923 0.56543 0
M  V30 13965 H 1294.84 2.99364 0.0463164 0
M  V30 13966 H 1292.38 1.43985 0.0208366 0
M  V30 13967 H 1294.34 3.43343 2.44323 0
M  V30 13968 H 1293.06 2.19093 2.42211 0
M  V30 13969 H 1291.72 3.57726 0.801712 0
M  V30 13970 H 1291.37 3.82611 3.26524 0
M  V30 13971 H 1291.07 5.35938 2.40925 0
M  V30 13972 H 1292.59 5.12918 3.31281 0
M  V30 13973 H 1294.01 5.62714 1.09663 0
M  V30 13974 H 1292.4 5.98814 0.392607 0
M  V30 13975 H 1293.47 4.83086 -0.419059 0
M  V30 13976 N 1294.82 -0.0116844 1.57596 0
M  V30 13977 C 1296.09 -0.735344 1.81251 0
M  V30 13978 C 1296.47 -1.92634 0.863446 0
M  V30 13979 O 1295.82 -2.28321 -0.0905028 0
M  V30 13980 C 1296.03 -1.15206 3.29437 0
M  V30 13981 C 1297.38 -1.56078 3.94873 0
M  V30 13982 O 1298.4 -1.24618 3.3369 0
M  V30 13983 O 1297.26 -2.14534 5.0263 0
M  V30 13984 H 1294.36 -0.357044 0.745955 0
M  V30 13985 H 1296.9 0.0128733 1.69695 0
M  V30 13986 H 1295.67 -0.302619 3.90128 0
M  V30 13987 H 1295.3 -1.95975 3.45947 0
M  V30 13988 N 1296.29 -1.55015 -0.284256 0
M  V30 13989 C 1297.23 -1.83517 -1.3731 0
M  V30 13990 C 1298.24 -0.719009 -1.46062 0
M  V30 13991 O 1299.43 -0.996719 -1.4808 0
M  V30 13992 C 1296.53 -1.97309 -2.7554 0
M  V30 13993 C 1295.7 -3.2787 -2.89517 0
M  V30 13994 C 1294.76 -3.31868 -4.08351 0
M  V30 13995 O 1293.79 -4.05309 -3.99642 0
M  V30 13996 N 1294.99 -2.5846 -5.19787 0
M  V30 13997 H 1297.75 -2.77495 -1.1321 0
M  V30 13998 H 1295.31 -1.54795 -0.474359 0
M  V30 13999 H 1297.31 -1.97367 -3.53311 0
M  V30 14000 H 1295.88 -1.10249 -2.92513 0
M  V30 14001 H 1295.1 -3.40445 -1.98722 0
M  V30 14002 H 1296.38 -4.13996 -2.95779 0
M  V30 14003 H 1295.78 -1.98455 -5.29747 0
M  V30 14004 H 1294.34 -2.64253 -5.9583 0
M  V30 14005 N 1297.77 0.548248 -1.47757 0
M  V30 14006 C 1299 1.335 -1.58722 0
M  V30 14007 C 1299.42 1.86549 -0.241034 0
M  V30 14008 O 1298.78 1.63447 0.784517 0
M  V30 14009 C 1298.83 2.47457 -2.62293 0
M  V30 14010 O 1297.93 3.49956 -2.18185 0
M  V30 14011 H 1297.27 0.396166 -0.532868 0
M  V30 14012 H 1299.8 0.66164 -1.93607 0
M  V30 14013 H 1299.81 2.93901 -2.82995 0
M  V30 14014 H 1298.49 2.08203 -3.60034 0
M  V30 14015 H 1297.06 3.09755 -2.0762 0
M  V30 14016 N 1299.25 1.36039 0.795694 0
M  V30 14017 C 1300.53 1.20474 1.54096 0
M  V30 14018 C 1300.91 -0.211691 2.10036 0
M  V30 14019 O 1300.25 -1.21656 1.93422 0
M  V30 14020 C 1300.46 2.28164 2.64087 0
M  V30 14021 C 1301.81 2.64519 3.32137 0
M  V30 14022 O 1302.84 2.2716 2.74366 0
M  V30 14023 O 1301.7 3.28796 4.36527 0
M  V30 14024 H 1298.79 0.468699 0.681359 0
M  V30 14025 H 1301.34 1.47752 0.834716 0
M  V30 14026 H 1300.11 3.23121 2.20701 0
M  V30 14027 H 1299.73 2.02217 3.42336 0
M  V30 14028 N 1300.73 -1.01913 1.20215 0
M  V30 14029 C 1301.66 -2.10513 0.906476 0
M  V30 14030 C 1302.67 -1.62463 -0.104758 0
M  V30 14031 O 1303.86 -1.78055 0.12593 0
M  V30 14032 C 1300.96 -3.3722 0.337012 0
M  V30 14033 C 1300.14 -4.14417 1.39917 0
M  V30 14034 C 1299.19 -5.19428 0.841489 0
M  V30 14035 O 1298.22 -5.48486 1.52157 0
M  V30 14036 N 1299.42 -5.79442 -0.350365 0
M  V30 14037 H 1302.19 -2.36465 1.84132 0
M  V30 14038 H 1299.75 -1.18283 1.10548 0
M  V30 14039 H 1301.74 -4.04669 -0.0501507 0
M  V30 14040 H 1300.31 -3.08538 -0.502325 0
M  V30 14041 H 1299.53 -3.41975 1.96078 0
M  V30 14042 H 1300.82 -4.62777 2.1146 0
M  V30 14043 H 1300.22 -5.58166 -0.920204 0
M  V30 14044 H 1298.77 -6.48252 -0.679194 0
M  V30 14045 N 1302.21 -1.00763 -1.2118 0
M  V30 14046 C 1303.48 -0.607236 -1.85935 0
M  V30 14047 C 1303.86 0.915048 -1.90237 0
M  V30 14048 O 1303.21 1.80308 -1.40361 0
M  V30 14049 C 1303.42 -1.24466 -3.26051 0
M  V30 14050 C 1304.77 -1.35443 -4.02418 0
M  V30 14051 O 1305.79 -1.20018 -3.35372 0
M  V30 14052 O 1304.65 -1.60282 -5.22467 0
M  V30 14053 H 1301.75 -0.208338 -0.800328 0
M  V30 14054 H 1304.29 -1.10444 -1.28842 0
M  V30 14055 H 1303.06 -2.28524 -3.17635 0
M  V30 14056 H 1302.69 -0.733966 -3.90767 0
M  V30 14057 N 1303.68 1.3679 -0.7827 0
M  V30 14058 C 1304.93 1.99417 -0.352011 0
M  V30 14059 C 1305.26 1.62127 1.07448 0
M  V30 14060 O 1304.51 0.864449 1.75573 0
M  V30 14061 C 1304.81 3.54489 -0.455232 0
M  V30 14062 C 1304.48 4.11579 -1.84156 0
M  V30 14063 C 1303.14 4.26884 -2.22089 0
M  V30 14064 C 1305.49 4.4277 -2.74962 0
M  V30 14065 C 1302.82 4.70688 -3.50243 0
M  V30 14066 C 1305.17 4.88003 -4.02537 0
M  V30 14067 C 1303.84 5.01513 -4.40501 0
M  V30 14068 H 1303.11 0.729718 -0.12881 0
M  V30 14069 H 1305.75 1.63386 -0.998856 0
M  V30 14070 H 1304.06 3.90833 0.275129 0
M  V30 14071 H 1305.76 4.00867 -0.103127 0
M  V30 14072 H 1302.35 4.00102 -1.53677 0
M  V30 14073 H 1306.53 4.30521 -2.46912 0
M  V30 14074 H 1301.79 4.79335 -3.79537 0
M  V30 14075 H 1305.96 5.11102 -4.73019 0
M  V30 14076 H 1303.59 5.35214 -5.39861 0
M  V30 14077 N 1305.16 0.53415 1.48272 0
M  V30 14078 C 1306.09 -0.263508 2.2768 0
M  V30 14079 C 1307.11 -0.90064 1.35618 0
M  V30 14080 O 1308.3 -0.778379 1.60635 0
M  V30 14081 C 1305.4 -1.38878 3.09138 0
M  V30 14082 C 1304.57 -0.852784 4.29006 0
M  V30 14083 C 1303.63 -1.85969 4.92242 0
M  V30 14084 O 1302.65 -1.41497 5.51332 0
M  V30 14085 N 1303.86 -3.19207 4.84858 0
M  V30 14086 H 1306.62 0.417548 2.96777 0
M  V30 14087 H 1304.18 0.368743 1.57645 0
M  V30 14088 H 1306.17 -2.06062 3.48311 0
M  V30 14089 H 1304.74 -1.97343 2.42434 0
M  V30 14090 H 1303.96 -0.0048227 3.942 0
M  V30 14091 H 1305.25 -0.473634 5.06591 0
M  V30 14092 H 1304.65 -3.58001 4.38009 0
M  V30 14093 H 1303.21 -3.82013 5.28119 0
M  V30 14094 N 1306.64 -1.55279 0.269478 0
M  V30 14095 C 1307.55 -2.25965 -0.63065 0
M  V30 14096 C 1308.57 -1.28357 -1.17476 0
M  V30 14097 O 1309.74 -1.61281 -1.20625 0
M  V30 14098 C 1306.81 -2.96263 -1.80081 0
M  V30 14099 C 1305.87 -4.09336 -1.29394 0
M  V30 14100 C 1305.1 -4.76272 -2.40833 0
M  V30 14101 O 1305.32 -4.42389 -3.60066 0
M  V30 14102 O 1304.26 -5.64334 -2.09309 0
M  V30 14103 H 1308.08 -3.03644 -0.0582069 0
M  V30 14104 H 1305.67 -1.49354 0.0370966 0
M  V30 14105 H 1307.55 -3.40461 -2.48322 0
M  V30 14106 H 1306.23 -2.21505 -2.36045 0
M  V30 14107 H 1305.13 -3.69605 -0.578154 0
M  V30 14108 H 1306.47 -4.85978 -0.780117 0
M  V30 14109 N 1308.12 0.00332656 -1.576 0
M  V30 14110 C 1309.03 1.01221 -2.1164 0
M  V30 14111 C 1310.04 1.37918 -1.06088 0
M  V30 14112 O 1311.22 1.46717 -1.37971 0
M  V30 14113 C 1308.29 2.28638 -2.60626 0
M  V30 14114 C 1307.35 1.98284 -3.80765 0
M  V30 14115 C 1306.58 3.19626 -4.27405 0
M  V30 14116 O 1306.8 4.31196 -3.73398 0
M  V30 14117 O 1305.74 3.03819 -5.19594 0
M  V30 14118 H 1309.56 0.582839 -2.98055 0
M  V30 14119 H 1307.15 0.221947 -1.47742 0
M  V30 14120 H 1309.03 3.03498 -2.92347 0
M  V30 14121 H 1307.7 2.70819 -1.7731 0
M  V30 14122 H 1306.61 1.2091 -3.54022 0
M  V30 14123 H 1307.94 1.60942 -4.65144 0
M  V30 14124 N 1309.6 1.55164 0.276031 0
M  V30 14125 C 1310.53 1.90844 1.34539 0
M  V30 14126 C 1311.51 0.769968 1.51676 0
M  V30 14127 O 1312.69 1.02785 1.64769 0
M  V30 14128 C 1309.82 2.17769 2.70543 0
M  V30 14129 C 1308.78 3.33592 2.68142 0
M  V30 14130 C 1308.1 3.45991 4.07669 0
M  V30 14131 C 1309.4 4.70064 2.27678 0
M  V30 14132 H 1311.1 2.80412 1.04926 0
M  V30 14133 H 1308.64 1.34918 0.503303 0
M  V30 14134 H 1310.6 2.41317 3.45462 0
M  V30 14135 H 1309.32 1.24997 3.01734 0
M  V30 14136 H 1307.98 3.10007 1.95681 0
M  V30 14137 H 1307.63 2.50691 4.36077 0
M  V30 14138 H 1307.33 4.23862 4.06958 0
M  V30 14139 H 1308.85 3.71828 4.84331 0
M  V30 14140 H 1310.26 4.93176 2.92319 0
M  V30 14141 H 1308.66 5.50829 2.38134 0
M  V30 14142 H 1309.73 4.69091 1.22808 0
M  V30 14143 N 1311.07 -0.540404 1.48045 0
M  V30 14144 C 1312.35 -1.30148 1.46017 0
M  V30 14145 C 1312.73 -2.10445 0.166171 0
M  V30 14146 O 1312.08 -2.12013 -0.852223 0
M  V30 14147 C 1312.29 -2.19177 2.71593 0
M  V30 14148 C 1313.64 -2.79655 3.19497 0
M  V30 14149 O 1314.66 -2.2947 2.72437 0
M  V30 14150 O 1313.52 -3.70912 4.01356 0
M  V30 14151 H 1310.61 -0.586879 0.582668 0
M  V30 14152 H 1313.16 -0.557918 1.60267 0
M  V30 14153 H 1311.93 -1.59556 3.57292 0
M  V30 14154 H 1311.56 -3.00798 2.60012 0
M  V30 14155 N 1312.55 -1.36459 -0.788468 0
M  V30 14156 C 1313.48 -1.33545 -1.91541 0
M  V30 14157 C 1314.46 -0.206762 -1.68839 0
M  V30 14158 O 1315.65 -0.404553 -1.89939 0
M  V30 14159 C 1312.78 -1.12492 -3.28577 0
M  V30 14160 C 1311.73 -2.22196 -3.65805 0
M  V30 14161 C 1311.06 -1.86285 -5.01201 0
M  V30 14162 C 1312.36 -3.64286 -3.7429 0
M  V30 14163 H 1314.05 -2.27844 -1.94236 0
M  V30 14164 H 1311.6 -1.09677 -0.933105 0
M  V30 14165 H 1313.55 -1.09089 -4.07035 0
M  V30 14166 H 1312.28 -0.146446 -3.26272 0
M  V30 14167 H 1310.93 -2.24727 -2.89644 0
M  V30 14168 H 1310.58 -0.87009 -4.95417 0
M  V30 14169 H 1310.28 -2.59734 -5.27079 0
M  V30 14170 H 1311.81 -1.84439 -5.82078 0
M  V30 14171 H 1313.22 -3.63977 -4.42937 0
M  V30 14172 H 1311.62 -4.36648 -4.11653 0
M  V30 14173 H 1312.69 -3.99123 -2.75371 0
M  V30 14174 N 1314.03 1.01274 -1.20754 0
M  V30 14175 C 1314.96 2.09567 -0.903157 0
M  V30 14176 C 1315.94 1.61941 0.146287 0
M  V30 14177 O 1317.13 1.8849 0.0190177 0
M  V30 14178 C 1314.25 3.36838 -0.354682 0
M  V30 14179 C 1313.3 4.03361 -1.38572 0
M  V30 14180 S 1314.13 4.46775 -2.95216 0
M  V30 14181 C 1315.29 5.77242 -2.41955 0
M  V30 14182 H 1315.52 2.35063 -1.82024 0
M  V30 14183 H 1313.05 1.14444 -1.03643 0
M  V30 14184 H 1315.01 4.10476 -0.0447882 0
M  V30 14185 H 1313.67 3.09407 0.540962 0
M  V30 14186 H 1312.87 4.94939 -0.951408 0
M  V30 14187 H 1312.47 3.35964 -1.64329 0
M  V30 14188 H 1314.76 6.52608 -1.81958 0
M  V30 14189 H 1315.7 6.25475 -3.31944 0
M  V30 14190 H 1316.11 5.3369 -1.83942 0
M  V30 14191 N 1315.51 1.01404 1.20644 0
M  V30 14192 C 1316.46 0.582109 2.23339 0
M  V30 14193 C 1317.43 -0.39649 1.61298 0
M  V30 14194 O 1318.61 -0.296504 1.88482 0
M  V30 14195 C 1315.75 -0.076029 3.45016 0
M  V30 14196 C 1314.86 0.946829 4.21496 0
M  V30 14197 C 1314 0.26001 5.30563 0
M  V30 14198 C 1313.04 1.2698 5.98784 0
M  V30 14199 N 1312.18 0.609827 6.99447 0
M  V30 14200 H 1317.02 1.46248 2.59645 0
M  V30 14201 H 1314.55 0.732145 1.27585 0
M  V30 14202 H 1316.51 -0.474714 4.1449 0
M  V30 14203 H 1315.14 -0.920062 3.0941 0
M  V30 14204 H 1314.19 1.4637 3.51113 0
M  V30 14205 H 1315.5 1.71491 4.68393 0
M  V30 14206 H 1314.66 -0.19431 6.06389 0
M  V30 14207 H 1313.4 -0.540395 4.84697 0
M  V30 14208 H 1312.4 1.73453 5.21722 0
M  V30 14209 H 1313.63 2.07144 6.46737 0
M  V30 14210 H 1311.57 -0.170756 6.55778 0
M  V30 14211 H 1311.49 1.31601 7.44458 0
M  V30 14212 H 1312.76 0.179014 7.79294 0
M  V30 14213 N 1316.99 -1.36373 0.789944 0
M  V30 14214 C 1317.92 -2.27803 0.134613 0
M  V30 14215 C 1318.9 -1.47252 -0.689599 0
M  V30 14216 O 1320.08 -1.76551 -0.660466 0
M  V30 14217 C 1317.21 -3.28751 -0.814888 0
M  V30 14218 C 1316.26 -4.26439 -0.0724012 0
M  V30 14219 S 1317.09 -5.20654 1.2522 0
M  V30 14220 C 1318.24 -6.25148 0.306715 0
M  V30 14221 H 1318.48 -2.83036 0.909837 0
M  V30 14222 H 1316.01 -1.42922 0.584187 0
M  V30 14223 H 1317.97 -3.87413 -1.35726 0
M  V30 14224 H 1316.63 -2.72429 -1.56336 0
M  V30 14225 H 1315.82 -4.97724 -0.792894 0
M  V30 14226 H 1315.42 -3.7186 0.399504 0
M  V30 14227 H 1317.72 -6.75546 -0.514246 0
M  V30 14228 H 1318.66 -7.0117 0.98827 0
M  V30 14229 H 1319.07 -5.64428 -0.0901834 0
M  V30 14230 N 1318.47 -0.542005 -1.47987 0
M  V30 14231 C 1319.88 -0.200691 -1.58333 0
M  V30 14232 C 1320.08 1.29643 -1.54256 0
M  V30 14233 O 1319.14 2.07556 -1.43794 0
M  V30 14234 C 1320.45 -0.813878 -2.89476 0
M  V30 14235 C 1322 -0.783711 -3.0303 0
M  V30 14236 C 1322.47 -1.37569 -4.36851 0
M  V30 14237 N 1323.96 -1.33819 -4.43449 0
M  V30 14238 C 1324.7 -1.76602 -5.45527 0
M  V30 14239 N 1324.2 -2.27169 -6.54497 0
M  V30 14240 N 1325.99 -1.67765 -5.3648 0
M  V30 14241 H 1318.14 -1.51488 -1.4888 0
M  V30 14242 H 1320.4 -0.630835 -0.707638 0
M  V30 14243 H 1320.11 -1.86544 -2.98151 0
M  V30 14244 H 1319.98 -0.297978 -3.76021 0
M  V30 14245 H 1322.37 0.259118 -2.9396 0
M  V30 14246 H 1322.45 -1.33721 -2.18065 0
M  V30 14247 H 1322.09 -2.41751 -4.46675 0
M  V30 14248 H 1322.02 -0.797769 -5.20522 0
M  V30 14249 H 1324.52 -0.968147 -3.65288 0
M  V30 14250 H 1324.83 -2.57777 -7.2854 0
M  V30 14251 H 1323.17 -2.31171 -6.55427 0
M  V30 14252 H 1326.36 -1.28048 -4.50246 0
M  V30 14253 H 1326.54 -2.01426 -6.15899 0
M  V30 14254 N 1319.94 1.55134 -0.277709 0
M  V30 14255 C 1320.85 2.26296 0.618658 0
M  V30 14256 C 1321.87 1.28978 1.16794 0
M  V30 14257 O 1323.05 1.61918 1.19768 0
M  V30 14258 C 1320.11 2.97214 1.78508 0
M  V30 14259 C 1319.17 4.10016 1.27221 0
M  V30 14260 C 1318.4 4.77543 2.38304 0
M  V30 14261 O 1318.63 4.44293 3.57715 0
M  V30 14262 O 1317.56 5.65437 2.06313 0
M  V30 14263 H 1321.39 3.03671 0.0421031 0
M  V30 14264 H 1318.97 1.49332 -0.0450166 0
M  V30 14265 H 1320.85 3.41773 2.46513 0
M  V30 14266 H 1319.53 2.22753 2.34867 0
M  V30 14267 H 1318.44 3.69907 0.558544 0
M  V30 14268 H 1319.77 4.86385 0.754333 0
M  V30 14269 N 1321.42 0.00503138 1.57599 0
M  V30 14270 C 1322.33 -1.00097 2.12174 0
M  V30 14271 C 1323.35 -1.37353 1.06818 0
M  V30 14272 O 1324.52 -1.45984 1.38747 0
M  V30 14273 C 1321.59 -2.27252 2.61835 0
M  V30 14274 C 1320.65 -1.96262 3.81811 0
M  V30 14275 C 1319.88 -3.17355 4.29094 0
M  V30 14276 O 1320.11 -4.2921 3.75679 0
M  V30 14277 O 1319.04 -3.01059 5.21198 0
M  V30 14278 H 1322.87 -0.567024 2.9836 0
M  V30 14279 H 1320.45 -0.214109 1.47858 0
M  V30 14280 H 1322.33 -3.01944 2.93952 0
M  V30 14281 H 1321.01 -2.69875 1.78744 0
M  V30 14282 H 1319.91 -1.19031 3.54658 0
M  V30 14283 H 1321.25 -1.58473 4.65991 0
M  V30 14284 N 1322.9 -1.55308 -0.267798 0
M  V30 14285 C 1324.15 -1.7642 -1.00019 0
M  V30 14286 C 1324.48 -0.566559 -1.85752 0
M  V30 14287 O 1323.75 0.435752 -1.89556 0
M  V30 14288 C 1324.04 -3.07229 -1.87836 0
M  V30 14289 C 1323.89 -4.37358 -1.05061 0
M  V30 14290 C 1325.21 -3.34113 -2.86455 0
M  V30 14291 H 1322.33 -0.641859 -0.362197 0
M  V30 14292 H 1324.97 -1.8804 -0.272188 0
M  V30 14293 H 1323.12 -2.97454 -2.49907 0
M  V30 14294 H 1324.79 -4.59098 -0.450208 0
M  V30 14295 H 1323.03 -4.32351 -0.354242 0
M  V30 14296 H 1323.71 -5.25223 -1.69838 0
M  V30 14297 H 1326.18 -3.43715 -2.34519 0
M  V30 14298 H 1325.06 -4.26896 -3.45038 0
M  V30 14299 H 1325.32 -2.54005 -3.61848 0
M  V30 14300 N 1324.38 0.532545 -1.4833 0
M  V30 14301 C 1325.63 1.28498 -1.55471 0
M  V30 14302 C 1325.94 1.94214 -0.232412 0
M  V30 14303 O 1327.15 2.70889 -0.182044 0
M  V30 14304 C 1325.6 2.33144 -2.74175 0
M  V30 14305 C 1325.21 1.73508 -4.13036 0
M  V30 14306 C 1326.95 3.09413 -2.90627 0
M  V30 14307 C 1324.86 2.76079 -5.23005 0
M  V30 14308 H 1323.79 0.483253 -0.578777 0
M  V30 14309 H 1326.44 0.562744 -1.74658 0
M  V30 14310 H 1324.82 3.08391 -2.48417 0
M  V30 14311 H 1326 1.04466 -4.48802 0
M  V30 14312 H 1324.31 1.0974 -4.01679 0
M  V30 14313 H 1326.91 3.86056 -3.69953 0
M  V30 14314 H 1327.25 3.65118 -1.99987 0
M  V30 14315 H 1327.79 2.4128 -3.16274 0
M  V30 14316 H 1324.52 2.25197 -6.15602 0
M  V30 14317 H 1324.04 3.43456 -4.9173 0
M  V30 14318 H 1325.72 3.39113 -5.51009 0
M  V30 14319 N 1325.86 1.36875 0.78122 0
M  V30 14320 C 1327.08 1.34732 1.57019 0
M  V30 14321 C 1327.5 -0.0695423 1.88672 0
M  V30 14322 O 1326.86 -1.02873 1.50743 0
M  V30 14323 C 1326.91 2.17668 2.88623 0
M  V30 14324 O 1326.63 3.53832 2.5833 0
M  V30 14325 C 1328.13 2.23398 3.82895 0
M  V30 14326 H 1325.35 0.461857 0.486754 0
M  V30 14327 H 1327.89 1.80086 0.968989 0
M  V30 14328 H 1326.05 1.75848 3.4519 0
M  V30 14329 H 1326.46 3.972 3.42538 0
M  V30 14330 H 1327.94 2.85769 4.72271 0
M  V30 14331 H 1328.41 1.23972 4.2134 0
M  V30 14332 H 1329.02 2.65489 3.32258 0
M  V30 14333 N 1327.33 -1.00632 1.21289 0
M  V30 14334 C 1328.26 -2.11238 0.995021 0
M  V30 14335 C 1329.24 -1.69914 -0.0795537 0
M  V30 14336 O 1330.43 -1.94035 0.0800152 0
M  V30 14337 C 1327.56 -3.42797 0.557475 0
M  V30 14338 C 1326.51 -3.97909 1.57646 0
M  V30 14339 C 1325.84 -5.25357 0.995197 0
M  V30 14340 C 1327.14 -4.30123 2.96297 0
M  V30 14341 H 1328.83 -2.29722 1.9201 0
M  V30 14342 H 1326.38 -1.10395 0.924602 0
M  V30 14343 H 1328.33 -4.19571 0.392236 0
M  V30 14344 H 1327.06 -3.24101 -0.403253 0
M  V30 14345 H 1325.72 -3.23254 1.72924 0
M  V30 14346 H 1325.36 -5.02993 0.026227 0
M  V30 14347 H 1325.06 -5.63196 1.67583 0
M  V30 14348 H 1326.59 -6.04777 0.841251 0
M  V30 14349 H 1328 -4.97744 2.8447 0
M  V30 14350 H 1326.4 -4.79101 3.61361 0
M  V30 14351 H 1327.47 -3.38454 3.47242 0
M  V30 14352 N 1328.81 -1.02043 -1.20104 0
M  V30 14353 C 1330.06 -0.707271 -1.88893 0
M  V30 14354 C 1330.37 0.766617 -1.79951 0
M  V30 14355 O 1331.58 1.19248 -2.4391 0
M  V30 14356 C 1330.04 -1.2147 -3.38782 0
M  V30 14357 C 1329.64 -2.71576 -3.56301 0
M  V30 14358 C 1331.39 -0.977146 -4.13101 0
M  V30 14359 C 1329.29 -3.15781 -5.00037 0
M  V30 14360 H 1328.22 -0.26086 -0.707438 0
M  V30 14361 H 1330.88 -1.23361 -1.35846 0
M  V30 14362 H 1329.26 -0.616315 -3.91175 0
M  V30 14363 H 1330.43 -3.36997 -3.14276 0
M  V30 14364 H 1328.75 -2.93517 -2.95359 0
M  V30 14365 H 1331.34 -1.28278 -5.19085 0
M  V30 14366 H 1331.69 0.0862909 -4.16211 0
M  V30 14367 H 1332.22 -1.5391 -3.6682 0
M  V30 14368 H 1328.96 -4.21417 -5.02084 0
M  V30 14369 H 1328.48 -2.55083 -5.42856 0
M  V30 14370 H 1330.16 -3.08637 -5.6864 0
M  V30 14371 N 1330.29 1.35952 -0.797165 0
M  V30 14372 C 1331.71 1.52218 -0.479765 0
M  V30 14373 C 1331.91 1.74898 1.00064 0
M  V30 14374 O 1330.96 1.78495 1.78594 0
M  V30 14375 C 1332.28 2.70328 -1.31694 0
M  V30 14376 C 1333.82 2.84202 -1.31142 0
M  V30 14377 C 1334.3 4.05325 -2.13251 0
M  V30 14378 N 1335.79 4.12485 -2.10737 0
M  V30 14379 C 1336.52 5.053 -2.71033 0
M  V30 14380 N 1336.02 6.03509 -3.40219 0
M  V30 14381 N 1337.81 4.97975 -2.60725 0
M  V30 14382 H 1329.96 1.19486 -1.75604 0
M  V30 14383 H 1332.23 0.58383 -0.746892 0
M  V30 14384 H 1331.93 2.60116 -2.36712 0
M  V30 14385 H 1331.81 3.64684 -0.963607 0
M  V30 14386 H 1334.19 2.9387 -0.269131 0
M  V30 14387 H 1334.28 1.9073 -1.70457 0
M  V30 14388 H 1333.92 3.96417 -3.17515 0
M  V30 14389 H 1333.85 4.97959 -1.71302 0
M  V30 14390 H 1336.34 3.42174 -1.6039 0
M  V30 14391 H 1336.65 6.70909 -3.83537 0
M  V30 14392 H 1335 6.03711 -3.44322 0
M  V30 14393 H 1338.19 4.20203 -2.0627 0
M  V30 14394 H 1338.36 5.70119 -3.08007 0
M  V30 14395 N 1331.77 0.549846 1.47697 0
M  V30 14396 C 1332.99 0.0256819 2.07384 0
M  V30 14397 C 1333.42 -1.25525 1.4009 0
M  V30 14398 O 1332.78 -1.7501 0.473406 0
M  V30 14399 C 1332.82 -0.160835 3.60241 0
M  V30 14400 O 1331.93 -1.22509 3.93783 0
M  V30 14401 H 1331.27 0.0480204 0.662261 0
M  V30 14402 H 1333.8 0.763429 1.89823 0
M  V30 14403 H 1333.81 -0.377337 4.06251 0
M  V30 14404 H 1332.48 0.774774 4.0862 0
M  V30 14405 H 1331.06 -0.98967 3.59527 0
M  V30 14406 N 1333.25 -1.54984 0.285932 0
M  V30 14407 C 1334.19 -2.24385 -0.612703 0
M  V30 14408 C 1335.19 -1.24459 -1.14918 0
M  V30 14409 O 1336.39 -1.42357 -1.10156 0
M  V30 14410 H 1332.77 -0.720263 -0.21616 0
M  V30 14411 H 1334.74 -2.984 -0.00465668 0
M  V30 14412 C 1333.49 -2.98661 -1.78037 0
M  V30 14413 H 1332.81 -3.75347 -1.37676 0
M  V30 14414 H 1334.25 -3.50525 -2.38554 0
M  V30 14415 C 1332.71 -2.04754 -2.67539 0
M  V30 14416 O 1333.24 -1.60577 -3.68209 0
M  V30 14417 N 1331.45 -1.71026 -2.34944 0
M  V30 14418 H 1330.99 -2.07148 -1.53126 0
M  V30 14419 H 1330.95 -1.08467 -2.95097 0
M  V30 14420 N 1334.72 -0.0133892 -1.57594 0
M  V30 14421 C 1335.66 1.00211 -2.06132 0
M  V30 14422 C 1336.67 1.29869 -0.98173 0
M  V30 14423 O 1337.86 1.2661 -1.25826 0
M  V30 14424 C 1334.96 2.33354 -2.45763 0
M  V30 14425 C 1334.13 2.22441 -3.76615 0
M  V30 14426 C 1333.19 3.38385 -4.02967 0
M  V30 14427 O 1332.22 3.15973 -4.73445 0
M  V30 14428 N 1333.42 4.61672 -3.51908 0
M  V30 14429 H 1336.18 0.588079 -2.93874 0
M  V30 14430 H 1333.74 0.173714 -1.60965 0
M  V30 14431 H 1335.74 3.09716 -2.60496 0
M  V30 14432 H 1334.31 2.66451 -1.6347 0
M  V30 14433 H 1333.53 1.30905 -3.7183 0
M  V30 14434 H 1334.81 2.12337 -4.62375 0
M  V30 14435 H 1334.21 4.82777 -2.9486 0
M  V30 14436 H 1332.77 5.35256 -3.71947 0
M  V30 14437 N 1336.2 1.55448 0.259558 0
M  V30 14438 C 1337.13 1.85678 1.34373 0
M  V30 14439 C 1338.15 0.742155 1.449 0
M  V30 14440 O 1339.34 1.02015 1.46476 0
M  V30 14441 C 1336.44 2.01668 2.72366 0
M  V30 14442 C 1335.61 3.32434 2.84265 0
M  V30 14443 C 1334.67 3.38322 4.03019 0
M  V30 14444 O 1333.69 4.11616 3.93143 0
M  V30 14445 N 1334.9 2.66697 5.1561 0
M  V30 14446 H 1337.66 2.79261 1.08781 0
M  V30 14447 H 1335.22 1.5553 0.449672 0
M  V30 14448 H 1337.21 2.02963 3.50126 0
M  V30 14449 H 1335.78 1.14889 2.90722 0
M  V30 14450 H 1335 3.43564 1.93281 0
M  V30 14451 H 1336.29 4.18649 2.89155 0
M  V30 14452 H 1335.69 2.06857 5.26523 0
M  V30 14453 H 1334.25 2.73699 5.91551 0
M  V30 14454 N 1337.68 -0.524672 1.4861 0
M  V30 14455 C 1338.61 -1.63782 1.66426 0
M  V30 14456 C 1339.59 -1.62177 0.513077 0
M  V30 14457 O 1340.78 -1.7929 0.74623 0
M  V30 14458 C 1337.91 -3.02354 1.70877 0
M  V30 14459 C 1336.86 -3.18819 2.85549 0
M  V30 14460 C 1336.19 -4.58506 2.75094 0
M  V30 14461 C 1337.49 -3.01086 4.26784 0
M  V30 14462 H 1339.18 -1.49127 2.59618 0
M  V30 14463 H 1336.73 -0.715997 1.24938 0
M  V30 14464 H 1338.68 -3.80105 1.81929 0
M  V30 14465 H 1337.4 -3.18044 0.742682 0
M  V30 14466 H 1336.06 -2.43487 2.74061 0
M  V30 14467 H 1335.71 -4.71038 1.76443 0
M  V30 14468 H 1335.41 -4.70466 3.52044 0
M  V30 14469 H 1336.93 -5.38348 2.88121 0
M  V30 14470 H 1338.35 -3.68624 4.39077 0
M  V30 14471 H 1336.75 -3.24536 5.04774 0
M  V30 14472 H 1337.82 -1.97454 4.42877 0
M  V30 14473 N 1339.16 -1.37287 -0.77395 0
M  V30 14474 C 1340.07 -1.35059 -1.91823 0
M  V30 14475 C 1341.08 -0.250489 -1.72188 0
M  V30 14476 O 1342.26 -0.485501 -1.95461 0
M  V30 14477 C 1339.33 -1.15444 -3.26915 0
M  V30 14478 C 1338.39 -2.35073 -3.5922 0
M  V30 14479 C 1337.62 -2.16384 -4.87867 0
M  V30 14480 O 1337.84 -1.14696 -5.58749 0
M  V30 14481 O 1336.78 -3.0452 -5.19183 0
M  V30 14482 H 1340.6 -2.31432 -1.96654 0
M  V30 14483 H 1338.19 -1.17994 -0.916392 0
M  V30 14484 H 1340.07 -1.06484 -4.07724 0
M  V30 14485 H 1338.74 -0.221435 -3.22942 0
M  V30 14486 H 1337.65 -2.49604 -2.78655 0
M  V30 14487 H 1338.98 -3.26933 -3.67934 0
M  V30 14488 N 1340.64 0.999871 -1.21821 0
M  V30 14489 C 1341.58 2.10985 -0.979183 0
M  V30 14490 C 1342.58 1.69232 0.0753287 0
M  V30 14491 O 1343.78 1.79837 -0.0765083 0
M  V30 14492 H 1340.16 0.689819 -0.299421 0
M  V30 14493 H 1342.13 2.28322 -1.92124 0
M  V30 14494 C 1340.88 3.43062 -0.56602 0
M  V30 14495 H 1340.2 3.75627 -1.36909 0
M  V30 14496 H 1341.64 4.2173 -0.43813 0
M  V30 14497 C 1340.1 3.29036 0.723647 0
M  V30 14498 O 1340.63 3.60214 1.77788 0
M  V30 14499 N 1338.84 2.82237 0.692126 0
M  V30 14500 H 1338.38 2.57064 -0.166082 0
M  V30 14501 H 1338.34 2.73235 1.55532 0
M  V30 14502 N 1342.11 1.02678 1.19562 0
M  V30 14503 C 1343.39 0.63674 1.84946 0
M  V30 14504 C 1343.77 -0.884667 1.91669 0
M  V30 14505 O 1343.12 -1.78053 1.43211 0
M  V30 14506 C 1343.33 1.29637 3.2403 0
M  V30 14507 C 1344.68 1.41828 4.00212 0
M  V30 14508 O 1345.7 1.25338 3.3342 0
M  V30 14509 O 1344.56 1.68573 5.19851 0
M  V30 14510 H 1341.65 0.221044 0.796912 0
M  V30 14511 H 1344.2 1.1248 1.27068 0
M  V30 14512 H 1342.97 2.33549 3.1396 0
M  V30 14513 H 1342.6 0.796041 3.8955 0
M  V30 14514 N 1343.59 -1.35528 0.804364 0
M  V30 14515 C 1344.52 -2.32388 0.227604 0
M  V30 14516 C 1345.5 -1.57368 -0.645709 0
M  V30 14517 O 1346.69 -1.85448 -0.576441 0
M  V30 14518 C 1343.82 -3.41603 -0.62645 0
M  V30 14519 C 1342.77 -4.27743 0.148187 0
M  V30 14520 C 1342.1 -5.28259 -0.827425 0
M  V30 14521 C 1343.4 -5.04661 1.34591 0
M  V30 14522 H 1345.09 -2.80874 1.03684 0
M  V30 14523 H 1342.64 -1.3504 0.500031 0
M  V30 14524 H 1344.59 -4.08365 -1.03999 0
M  V30 14525 H 1343.32 -2.91721 -1.46855 0
M  V30 14526 H 1341.97 -3.62558 0.542874 0
M  V30 14527 H 1341.62 -4.74645 -1.66496 0
M  V30 14528 H 1341.32 -5.86763 -0.313453 0
M  V30 14529 H 1342.85 -5.97893 -1.23921 0
M  V30 14530 H 1344.26 -5.6438 1.00736 0
M  V30 14531 H 1342.66 -5.7265 1.79422 0
M  V30 14532 H 1343.73 -4.35432 2.1337 0
M  V30 14533 N 1345.07 -0.557671 -1.47404 0
M  V30 14534 C 1346.02 0.202834 -2.31714 0
M  V30 14535 C 1347.01 0.908873 -1.42954 0
M  V30 14536 O 1348.22 0.830106 -1.59716 0
M  V30 14537 H 1344.59 0.0842824 -0.747262 0
M  V30 14538 H 1346.57 -0.527431 -2.93702 0
M  V30 14539 C 1345.31 1.21937 -3.25617 0
M  V30 14540 H 1344.64 0.685506 -3.93879 0
M  V30 14541 H 1346.08 1.72237 -3.87441 0
M  V30 14542 C 1344.54 2.26748 -2.49173 0
M  V30 14543 O 1345.07 3.33681 -2.23651 0
M  V30 14544 N 1343.27 2.00687 -2.10174 0
M  V30 14545 H 1342.82 1.13741 -2.3113 0
M  V30 14546 H 1342.78 2.71031 -1.59342 0
M  V30 14547 N 1346.55 1.54831 -0.294147 0
M  V30 14548 C 1347.48 2.26226 0.57827 0
M  V30 14549 C 1348.46 1.25928 1.14351 0
M  V30 14550 O 1349.65 1.54687 1.17412 0
M  V30 14551 C 1346.78 2.99783 1.75349 0
M  V30 14552 C 1345.73 4.07171 1.31892 0
M  V30 14553 C 1345.06 4.68406 2.57876 0
M  V30 14554 C 1346.36 5.20313 0.455167 0
M  V30 14555 H 1348.05 2.99395 -0.0171936 0
M  V30 14556 H 1345.6 1.43997 -0.00970944 0
M  V30 14557 H 1347.55 3.48448 2.36986 0
M  V30 14558 H 1346.27 2.24181 2.37509 0
M  V30 14559 H 1344.93 3.59346 0.725653 0
M  V30 14560 H 1344.58 3.89451 3.18335 0
M  V30 14561 H 1344.28 5.40927 2.29502 0
M  V30 14562 H 1345.8 5.1983 3.20327 0
M  V30 14563 H 1347.22 5.64913 0.977026 0
M  V30 14564 H 1345.61 5.99512 0.265501 0
M  V30 14565 H 1346.68 4.82088 -0.521434 0
M  V30 14566 N 1348.03 0.0217466 1.57585 0
M  V30 14567 C 1348.96 -0.997112 2.05263 0
M  V30 14568 C 1349.94 -1.32186 0.946873 0
M  V30 14569 O 1351.12 -1.43979 1.21665 0
M  V30 14570 C 1348.25 -2.3191 2.46851 0
M  V30 14571 C 1347.3 -2.14948 3.68375 0
M  V30 14572 S 1348.13 -1.45517 5.15349 0
M  V30 14573 C 1349.28 -2.79101 5.60226 0
M  V30 14574 H 1349.52 -0.591229 2.91362 0
M  V30 14575 H 1347.05 -0.189741 1.5323 0
M  V30 14576 H 1349.01 -3.07913 2.71477 0
M  V30 14577 H 1347.67 -2.69633 1.61112 0
M  V30 14578 H 1346.86 -3.12661 3.95296 0
M  V30 14579 H 1346.46 -1.47088 3.43862 0
M  V30 14580 H 1348.76 -3.75357 5.64015 0
M  V30 14581 H 1349.7 -2.56853 6.59873 0
M  V30 14582 H 1350.11 -2.84009 4.87851 0
M  V30 14583 N 1349.51 -1.55583 -0.251311 0
M  V30 14584 C 1350.78 -1.67954 -1.00254 0
M  V30 14585 C 1351.16 -0.560326 -2.03528 0
M  V30 14586 O 1350.51 0.436811 -2.24286 0
M  V30 14587 C 1350.72 -3.08075 -1.63985 0
M  V30 14588 C 1352.07 -3.66531 -2.14336 0
M  V30 14589 O 1353.09 -3.10846 -1.73934 0
M  V30 14590 O 1351.95 -4.64141 -2.88506 0
M  V30 14591 H 1349.05 -0.682952 -0.466375 0
M  V30 14592 H 1351.59 -1.67916 -0.245447 0
M  V30 14593 H 1350.36 -3.80983 -0.892627 0
M  V30 14594 H 1349.99 -3.12105 -2.46325 0
M  V30 14595 N 1350.98 0.516783 -1.48886 0
M  V30 14596 C 1352.23 1.26841 -1.56825 0
M  V30 14597 C 1352.55 1.93957 -0.252998 0
M  V30 14598 O 1353.75 2.70681 -0.210765 0
M  V30 14599 C 1352.21 2.30223 -2.76633 0
M  V30 14600 C 1351.82 1.69117 -4.14853 0
M  V30 14601 C 1353.56 3.06313 -2.93893 0
M  V30 14602 C 1351.47 2.70516 -5.25904 0
M  V30 14603 H 1350.4 0.477087 -0.58387 0
M  V30 14604 H 1353.05 0.544187 -1.75245 0
M  V30 14605 H 1351.43 3.05739 -2.51674 0
M  V30 14606 H 1352.6 0.997003 -4.49885 0
M  V30 14607 H 1350.92 1.05473 -4.0282 0
M  V30 14608 H 1353.52 3.8211 -3.74027 0
M  V30 14609 H 1353.86 3.62976 -2.03848 0
M  V30 14610 H 1354.39 2.37911 -3.18815 0
M  V30 14611 H 1351.13 2.18655 -6.17956 0
M  V30 14612 H 1350.65 3.38221 -4.95345 0
M  V30 14613 H 1352.33 3.3325 -5.54575 0
M  V30 14614 N 1352.46 1.37696 0.766659 0
M  V30 14615 C 1353.41 1.33871 1.88009 0
M  V30 14616 C 1354.38 0.2034 1.6485 0
M  V30 14617 O 1355.56 0.393569 1.86697 0
M  V30 14618 C 1352.7 1.1566 3.25141 0
M  V30 14619 C 1351.82 2.38465 3.6022 0
M  V30 14620 C 1350.95 2.13087 4.86587 0
M  V30 14621 C 1349.99 3.31732 5.14413 0
M  V30 14622 N 1349.13 3.05872 6.3197 0
M  V30 14623 H 1353.97 2.29065 1.90613 0
M  V30 14624 H 1351.5 1.13821 0.931837 0
M  V30 14625 H 1353.46 1.03122 4.04255 0
M  V30 14626 H 1352.09 0.241115 3.21898 0
M  V30 14627 H 1351.14 2.61725 2.76051 0
M  V30 14628 H 1352.46 3.26933 3.76718 0
M  V30 14629 H 1351.61 1.97609 5.73616 0
M  V30 14630 H 1350.35 1.21965 4.72203 0
M  V30 14631 H 1349.35 3.47743 4.25858 0
M  V30 14632 H 1350.58 4.23712 5.30702 0
M  V30 14633 H 1348.53 2.17384 6.18935 0
M  V30 14634 H 1348.44 3.87885 6.48908 0
M  V30 14635 H 1349.71 2.94023 7.21922 0
M  V30 14636 N 1353.94 -0.993397 1.22349 0
M  V30 14637 C 1355.19 -1.72707 1.04189 0
M  V30 14638 C 1355.5 -1.90963 -0.423381 0
M  V30 14639 O 1356.71 -2.61651 -0.724645 0
M  V30 14640 C 1355.16 -3.10739 1.81575 0
M  V30 14641 C 1354.77 -3.00415 3.32347 0
M  V30 14642 C 1356.52 -3.88155 1.71861 0
M  V30 14643 C 1354.42 -4.33598 4.02177 0
M  V30 14644 H 1353.35 -0.647556 0.386248 0
M  V30 14645 H 1356 -1.10902 1.46195 0
M  V30 14646 H 1354.39 -3.73222 1.32367 0
M  V30 14647 H 1355.56 -2.47099 3.88946 0
M  V30 14648 H 1353.87 -2.36482 3.42732 0
M  V30 14649 H 1356.47 -4.8673 2.21354 0
M  V30 14650 H 1356.81 -4.10726 0.678939 0
M  V30 14651 H 1357.35 -3.32347 2.18609 0
M  V30 14652 H 1354.09 -4.16226 5.06395 0
M  V30 14653 H 1353.61 -4.86829 3.50367 0
M  V30 14654 H 1355.29 -5.02348 4.07744 0
M  V30 14655 N 1355.42 -1.03311 -1.19015 0
M  V30 14656 C 1356.67 -0.730593 -1.88432 0
M  V30 14657 C 1356.99 0.743392 -1.80274 0
M  V30 14658 O 1356.26 1.5359 -1.21601 0
M  V30 14659 H 1354.84 -0.267253 -0.697556 0
M  V30 14660 H 1357.5 -1.30824 -1.44468 0
M  V30 14661 H 1356.59 -1.02867 -2.9466 0
M  V30 14662 N 1356.9 1.35099 -0.81154 0
M  V30 14663 C 1357.83 2.32264 -0.239925 0
M  V30 14664 C 1358.81 1.57708 0.637354 0
M  V30 14665 O 1359.99 1.85751 0.566598 0
M  V30 14666 C 1357.12 3.41931 0.608325 0
M  V30 14667 C 1356.08 4.27659 -0.170869 0
M  V30 14668 C 1355.4 5.28691 0.799398 0
M  V30 14669 C 1356.7 5.0394 -1.37266 0
M  V30 14670 H 1358.4 2.8032 -1.05172 0
M  V30 14671 H 1355.94 1.34773 -0.507185 0
M  V30 14672 H 1357.89 4.08911 1.01832 0
M  V30 14673 H 1356.62 2.92496 1.45306 0
M  V30 14674 H 1355.28 3.62265 -0.562094 0
M  V30 14675 H 1354.93 4.75521 1.63977 0
M  V30 14676 H 1354.63 5.86921 0.282331 0
M  V30 14677 H 1356.15 5.98542 1.20749 0
M  V30 14678 H 1357.56 5.63838 -1.03728 0
M  V30 14679 H 1355.96 5.7169 -1.82456 0
M  V30 14680 H 1357.03 4.34295 -2.15676 0
M  V30 14681 N 1358.37 0.56548 1.47106 0
M  V30 14682 C 1359.3 -0.16567 2.32912 0
M  V30 14683 C 1360.28 -0.900678 1.44298 0
M  V30 14684 O 1361.47 -0.879523 1.73142 0
M  V30 14685 C 1358.6 -1.19092 3.26243 0
M  V30 14686 C 1357.55 -0.571849 4.24163 0
M  V30 14687 C 1356.88 -1.70233 5.06878 0
M  V30 14688 C 1358.18 0.479785 5.20092 0
M  V30 14689 H 1359.87 0.550705 2.94292 0
M  V30 14690 H 1357.42 0.266284 1.41517 0
M  V30 14691 H 1359.37 -1.71064 3.85117 0
M  V30 14692 H 1358.1 -1.93734 2.62934 0
M  V30 14693 H 1356.76 -0.073353 3.66527 0
M  V30 14694 H 1356.4 -2.438 4.39967 0
M  V30 14695 H 1356.1 -1.29384 5.73178 0
M  V30 14696 H 1357.63 -2.22515 5.68612 0
M  V30 14697 H 1359.04 0.0458042 5.73282 0
M  V30 14698 H 1357.44 0.807615 5.94641 0
M  V30 14699 H 1358.51 1.37259 4.65068 0
M  V30 14700 N 1359.85 -1.54672 0.302354 0
M  V30 14701 C 1361.1 -2.00463 -0.306978 0
M  V30 14702 C 1361.43 -1.19043 -1.53435 0
M  V30 14703 O 1360.71 -0.267255 -1.92655 0
M  V30 14704 C 1360.99 -3.53958 -0.662229 0
M  V30 14705 C 1360.84 -4.46118 0.574378 0
M  V30 14706 C 1362.16 -4.14174 -1.48821 0
M  V30 14707 H 1359.28 -0.728729 -0.110102 0
M  V30 14708 H 1361.92 -1.85419 0.414722 0
M  V30 14709 H 1360.07 -3.66909 -1.2771 0
M  V30 14710 H 1361.74 -4.45071 1.21284 0
M  V30 14711 H 1359.99 -4.1666 1.20736 0
M  V30 14712 H 1360.66 -5.51281 0.281651 0
M  V30 14713 H 1363.13 -4.04668 -0.968674 0
M  V30 14714 H 1362.01 -5.2173 -1.70556 0
M  V30 14715 H 1362.27 -3.66136 -2.47784 0
M  V30 14716 N 1361.33 -0.0301034 -1.57571 0
M  V30 14717 C 1362.28 0.951421 -2.10277 0
M  V30 14718 C 1363.25 1.3224 -1.00508 0
M  V30 14719 O 1364.43 1.41554 -1.27934 0
M  V30 14720 C 1361.57 2.2282 -2.63525 0
M  V30 14721 C 1360.69 1.91359 -3.87306 0
M  V30 14722 C 1359.82 3.13339 -4.28943 0
M  V30 14723 C 1358.86 2.77701 -5.4548 0
M  V30 14724 N 1358 3.9231 -5.82269 0
M  V30 14725 H 1362.84 0.495049 -2.93859 0
M  V30 14726 H 1360.37 0.232756 -1.45247 0
M  V30 14727 H 1362.33 2.97502 -2.92487 0
M  V30 14728 H 1360.96 2.66072 -1.82772 0
M  V30 14729 H 1360.01 1.06915 -3.65066 0
M  V30 14730 H 1361.33 1.61112 -4.72064 0
M  V30 14731 H 1360.48 3.9634 -4.59347 0
M  V30 14732 H 1359.22 3.46747 -3.42954 0
M  V30 14733 H 1358.22 1.93113 -5.14769 0
M  V30 14734 H 1359.45 2.45508 -6.33169 0
M  V30 14735 H 1357.39 4.25559 -4.99235 0
M  V30 14736 H 1357.31 3.65691 -6.61669 0
M  V30 14737 H 1358.58 4.76012 -6.17279 0
M  V30 14738 N 1362.81 1.55714 0.243056 0
M  V30 14739 C 1363.76 1.91467 1.32072 0
M  V30 14740 C 1364.75 0.794182 1.4963 0
M  V30 14741 O 1365.96 0.978835 1.51059 0
M  V30 14742 H 1362.33 0.60815 0.442333 0
M  V30 14743 H 1364.3 2.81433 0.991865 0
M  V30 14744 C 1363.05 2.22917 2.6684 0
M  V30 14745 H 1362.37 3.08639 2.5413 0
M  V30 14746 H 1363.81 2.51833 3.4111 0
M  V30 14747 C 1362.27 1.04683 3.20223 0
M  V30 14748 O 1362.8 0.296806 4.00602 0
M  V30 14749 N 1361.01 0.836419 2.78303 0
M  V30 14750 H 1360.56 1.44804 2.13048 0
M  V30 14751 H 1360.51 0.0470167 3.14365 0
M  V30 14752 N 1364.29 -0.50888 1.49158 0
M  V30 14753 C 1365.23 -1.61129 1.65246 0
M  V30 14754 C 1366.2 -1.58582 0.49405 0
M  V30 14755 O 1367.39 -1.76689 0.720122 0
M  V30 14756 C 1364.53 -2.99311 1.71776 0
M  V30 14757 C 1363.64 -3.11933 2.98868 0
M  V30 14758 C 1362.78 -4.408 2.96426 0
M  V30 14759 C 1361.82 -4.47027 4.18131 0
M  V30 14760 N 1360.95 -5.67311 4.13645 0
M  V30 14761 H 1365.79 -1.4672 2.59379 0
M  V30 14762 H 1363.33 -0.713978 1.28611 0
M  V30 14763 H 1365.29 -3.79392 1.73543 0
M  V30 14764 H 1363.92 -3.12442 0.811159 0
M  V30 14765 H 1362.97 -2.24966 3.06748 0
M  V30 14766 H 1364.28 -3.12393 3.8886 0
M  V30 14767 H 1363.44 -5.29194 2.96712 0
M  V30 14768 H 1362.17 -4.42893 2.04199 0
M  V30 14769 H 1361.18 -3.57036 4.18097 0
M  V30 14770 H 1362.4 -4.46656 5.11542 0
M  V30 14771 H 1360.35 -5.70261 3.2425 0
M  V30 14772 H 1360.27 -5.69355 4.97364 0
M  V30 14773 H 1361.54 -6.57934 4.18022 0
M  V30 14774 N 1365.76 -1.381 -0.759346 0
M  V30 14775 C 1367.01 -1.33311 -1.51364 0
M  V30 14776 C 1367.33 0.0761325 -1.95452 0
M  V30 14777 O 1368.53 0.246541 -2.70378 0
M  V30 14778 C 1366.99 -2.34067 -2.73387 0
M  V30 14779 C 1366.6 -3.80583 -2.36348 0
M  V30 14780 C 1368.34 -2.38311 -3.51295 0
M  V30 14781 C 1366.25 -4.73039 -3.54948 0
M  V30 14782 H 1365.18 -0.495512 -0.568317 0
M  V30 14783 H 1367.83 -1.63625 -0.830602 0
M  V30 14784 H 1366.21 -1.96788 -3.43643 0
M  V30 14785 H 1367.38 -4.26769 -1.73796 0
M  V30 14786 H 1365.7 -3.79403 -1.71587 0
M  V30 14787 H 1368.3 -3.04586 -4.39467 0
M  V30 14788 H 1368.64 -1.40034 -3.92041 0
M  V30 14789 H 1369.17 -2.74361 -2.88047 0
M  V30 14790 H 1365.91 -5.7249 -3.19273 0
M  V30 14791 H 1365.43 -4.3155 -4.16563 0
M  V30 14792 H 1367.11 -4.90775 -4.21603 0
M  V30 14793 N 1367.24 0.986894 -1.22875 0
M  V30 14794 C 1368.47 1.76266 -1.08342 0
M  V30 14795 C 1368.89 1.85226 0.365602 0
M  V30 14796 O 1368.24 1.32675 1.25314 0
M  V30 14797 C 1368.29 3.19282 -1.69533 0
M  V30 14798 O 1368.01 3.10796 -3.08768 0
M  V30 14799 C 1369.52 4.13281 -1.60355 0
M  V30 14800 H 1366.74 0.553374 -0.379497 0
M  V30 14801 H 1369.28 1.24033 -1.62592 0
M  V30 14802 H 1367.43 3.68563 -1.19332 0
M  V30 14803 H 1367.85 4.0078 -3.38343 0
M  V30 14804 H 1369.32 5.11359 -2.07884 0
M  V30 14805 H 1369.8 4.356 -0.561182 0
M  V30 14806 H 1370.41 3.699 -2.09891 0
M  V30 14807 N 1368.72 1.0394 1.18466 0
M  V30 14808 C 1369.65 0.650182 2.24265 0
M  V30 14809 C 1370.63 -0.345968 1.66545 0
M  V30 14810 O 1371.82 -0.226348 1.92876 0
M  V30 14811 C 1368.95 0.0110451 3.47298 0
M  V30 14812 C 1367.9 0.930599 4.17761 0
M  V30 14813 C 1367.23 0.156005 5.34472 0
M  V30 14814 C 1368.53 2.24913 4.71393 0
M  V30 14815 H 1370.22 1.53465 2.57078 0
M  V30 14816 H 1367.77 0.739343 1.23571 0
M  V30 14817 H 1369.72 -0.272959 4.20515 0
M  V30 14818 H 1368.44 -0.908288 3.13716 0
M  V30 14819 H 1367.1 1.19897 3.4644 0
M  V30 14820 H 1366.75 -0.765695 4.97138 0
M  V30 14821 H 1366.45 0.768606 5.82551 0
M  V30 14822 H 1367.97 -0.121011 6.1048 0
M  V30 14823 H 1369.39 2.02592 5.36311 0
M  V30 14824 H 1367.79 2.81459 5.30001 0
M  V30 14825 H 1368.86 2.8965 3.88884 0
M  V30 14826 N 1370.2 -1.34667 0.818693 0
M  V30 14827 C 1371.13 -2.28368 0.195126 0
M  V30 14828 C 1372.14 -1.50836 -0.612562 0
M  V30 14829 O 1373.33 -1.72917 -0.442936 0
M  V30 14830 C 1370.43 -3.30601 -0.745411 0
M  V30 14831 C 1369.61 -4.37396 0.0185308 0
M  V30 14832 C 1368.66 -5.19415 -0.842298 0
M  V30 14833 O 1367.69 -5.68467 -0.288821 0
M  V30 14834 N 1368.89 -5.38709 -2.1627 0
M  V30 14835 H 1371.66 -2.8252 1.00013 0
M  V30 14836 H 1369.22 -1.47146 0.675262 0
M  V30 14837 H 1371.21 -3.82367 -1.3258 0
M  V30 14838 H 1369.78 -2.76875 -1.45118 0
M  V30 14839 H 1369 -3.86402 0.780205 0
M  V30 14840 H 1370.29 -5.05877 0.544575 0
M  V30 14841 H 1369.69 -5.00523 -2.63616 0
M  V30 14842 H 1368.24 -5.9361 -2.69204 0
M  V30 14843 N 1371.68 -0.573274 -1.46804 0
M  V30 14844 C 1372.95 0.011163 -1.95597 0
M  V30 14845 C 1373.33 1.4691 -1.51594 0
M  V30 14846 O 1372.68 2.15413 -0.76221 0
M  V30 14847 C 1372.89 -0.151045 -3.48673 0
M  V30 14848 C 1374.24 -0.0139817 -4.24598 0
M  V30 14849 O 1375.26 -0.0794008 -3.56111 0
M  V30 14850 O 1374.12 0.129547 -5.46346 0
M  V30 14851 H 1371.22 0.0551258 -0.825161 0
M  V30 14852 H 1373.76 -0.640928 -1.57131 0
M  V30 14853 H 1372.53 -1.16494 -3.73557 0
M  V30 14854 H 1372.16 0.537917 -3.93944 0
M  V30 14855 N 1373.15 1.5451 -0.310553 0
M  V30 14856 C 1374.4 2.00623 0.296343 0
M  V30 14857 C 1374.73 1.19855 1.52802 0
M  V30 14858 O 1374.01 0.277468 1.92511 0
M  V30 14859 C 1374.29 3.54305 0.643448 0
M  V30 14860 C 1374.14 4.45807 -0.598029 0
M  V30 14861 C 1375.46 4.14958 1.46623 0
M  V30 14862 H 1372.58 0.729303 0.106236 0
M  V30 14863 H 1375.22 1.85196 -0.424549 0
M  V30 14864 H 1373.37 3.67581 1.25762 0
M  V30 14865 H 1375.05 4.44421 -1.23643 0
M  V30 14866 H 1373.29 4.16014 -1.22944 0
M  V30 14867 H 1373.96 5.51124 -0.310883 0
M  V30 14868 H 1376.44 4.05176 0.947199 0
M  V30 14869 H 1375.31 5.22627 1.67787 0
M  V30 14870 H 1375.57 3.67445 2.45839 0
M  V30 14871 N 1374.63 0.0384594 1.57553 0
M  V30 14872 C 1375.88 -0.639085 1.92467 0
M  V30 14873 C 1376.21 -1.71239 0.916014 0
M  V30 14874 O 1375.49 -1.94408 -0.0598928 0
M  V30 14875 C 1375.77 -1.24693 3.37822 0
M  V30 14876 C 1375.62 -0.182544 4.49429 0
M  V30 14877 C 1376.94 -2.16226 3.8332 0
M  V30 14878 H 1374.06 -0.230852 0.699912 0
M  V30 14879 H 1376.7 0.0976276 1.89749 0
M  V30 14880 H 1374.85 -1.87481 3.40269 0
M  V30 14881 H 1376.53 0.448622 4.59113 0
M  V30 14882 H 1374.77 0.4909 4.31013 0
M  V30 14883 H 1375.44 -0.647626 5.48188 0
M  V30 14884 H 1377.92 -1.63413 3.82669 0
M  V30 14885 H 1376.79 -2.55705 4.85702 0
M  V30 14886 H 1377.05 -3.05722 3.19353 0
M  V30 14887 N 1376.11 -1.55841 -0.234795 0
M  V30 14888 C 1377.34 -1.82649 -0.982547 0
M  V30 14889 C 1377.76 -0.617097 -1.77689 0
M  V30 14890 O 1377.12 0.434022 -1.76028 0
M  V30 14891 C 1377.17 -3.07319 -1.88646 0
M  V30 14892 O 1376.27 -2.85084 -2.97995 0
M  V30 14893 H 1375.61 -0.60257 -0.278936 0
M  V30 14894 H 1378.14 -2.03041 -0.252117 0
M  V30 14895 H 1378.15 -3.37073 -2.29882 0
M  V30 14896 H 1376.83 -3.94978 -1.30251 0
M  V30 14897 H 1375.4 -2.66528 -2.60801 0
M  V30 14898 N 1377.59 0.500963 -1.49426 0
M  V30 14899 C 1378.54 1.59939 -1.62492 0
M  V30 14900 C 1379.52 1.53555 -0.480584 0
M  V30 14901 O 1380.72 1.61085 -0.733538 0
M  V30 14902 C 1377.84 2.98549 -1.6948 0
M  V30 14903 C 1376.93 3.09929 -2.89491 0
M  V30 14904 N 1377.32 2.91198 -4.13567 0
M  V30 14905 C 1375.62 3.41029 -2.87428 0
M  V30 14906 C 1376.32 3.06761 -4.94239 0
M  V30 14907 N 1375.3 3.35639 -4.27606 0
M  V30 14908 H 1379.1 1.44111 -2.56143 0
M  V30 14909 H 1376.61 0.707088 -1.46199 0
M  V30 14910 H 1378.61 3.7749 -1.76938 0
M  V30 14911 H 1377.27 3.15446 -0.769658 0
M  V30 14912 H 1378.28 2.67373 -4.43545 0
M  V30 14913 H 1374.96 3.64103 -2.04293 0
M  V30 14914 H 1376.35 2.96772 -6.02807 0
M  V30 14915 N 1379.07 1.38501 0.752011 0
M  V30 14916 C 1380.29 1.38212 1.54636 0
M  V30 14917 C 1380.72 -0.0256356 1.88083 0
M  V30 14918 O 1380.08 -1.00812 1.50687 0
M  V30 14919 C 1380.12 2.24597 2.82114 0
M  V30 14920 O 1379.23 1.66415 3.77332 0
M  V30 14921 H 1378.57 0.47138 0.46765 0
M  V30 14922 H 1381.1 1.82283 0.929205 0
M  V30 14923 H 1381.11 2.38511 3.31023 0
M  V30 14924 H 1379.78 3.26913 2.57101 0
M  V30 14925 H 1378.36 1.61651 3.36041 0
M  V30 14926 N 1380.55 -0.980364 1.23396 0
M  V30 14927 C 1381.49 -2.07275 1.01516 0
M  V30 14928 C 1382.46 -1.65963 -0.0673729 0
M  V30 14929 O 1383.65 -1.90612 0.0847392 0
M  V30 14930 C 1380.79 -3.39621 0.61249 0
M  V30 14931 C 1379.9 -3.94203 1.76715 0
M  V30 14932 C 1379.04 -5.14761 1.31126 0
M  V30 14933 C 1378.07 -5.61509 2.43667 0
M  V30 14934 N 1377.21 -6.73297 1.99035 0
M  V30 14935 H 1382.05 -2.25325 1.9502 0
M  V30 14936 H 1379.59 -1.10452 0.971532 0
M  V30 14937 H 1381.55 -4.15643 0.360126 0
M  V30 14938 H 1380.18 -3.21535 -0.285539 0
M  V30 14939 H 1379.23 -3.14937 2.13352 0
M  V30 14940 H 1380.54 -4.24867 2.61323 0
M  V30 14941 H 1379.69 -5.98115 1.01702 0
M  V30 14942 H 1378.43 -4.85751 0.435555 0
M  V30 14943 H 1377.44 -4.76737 2.73865 0
M  V30 14944 H 1378.66 -5.92539 3.31774 0
M  V30 14945 H 1376.61 -6.46046 1.13845 0
M  V30 14946 H 1376.53 -7.03345 2.77203 0
M  V30 14947 H 1377.79 -7.60125 1.72716 0
M  V30 14948 N 1382.02 -1.04567 -1.17913 0
M  V30 14949 C 1382.97 -0.641119 -2.21717 0
M  V30 14950 C 1383.94 0.353585 -1.62293 0
M  V30 14951 O 1385.13 0.246427 -1.89202 0
M  V30 14952 C 1382.27 -0.0154726 -3.45097 0
M  V30 14953 C 1381.38 -1.05825 -4.18838 0
M  V30 14954 C 1380.51 -0.400588 -5.29687 0
M  V30 14955 C 1379.55 -1.42811 -5.95207 0
M  V30 14956 N 1378.69 -0.795059 -6.97584 0
M  V30 14957 H 1383.53 -1.5308 -2.55676 0
M  V30 14958 H 1381.07 -0.765715 -1.25599 0
M  V30 14959 H 1383.02 0.364653 -4.15603 0
M  V30 14960 H 1381.65 0.837704 -3.11741 0
M  V30 14961 H 1380.71 -1.55627 -3.47109 0
M  V30 14962 H 1382.02 -1.83849 -4.63682 0
M  V30 14963 H 1381.17 0.0334682 -6.06691 0
M  V30 14964 H 1379.91 0.411696 -4.85959 0
M  V30 14965 H 1378.92 -1.87225 -5.1694 0
M  V30 14966 H 1380.14 -2.24218 -6.41017 0
M  V30 14967 H 1378.09 -0.00317202 -6.56 0
M  V30 14968 H 1378 -1.51293 -7.40707 0
M  V30 14969 H 1379.27 -0.385567 -7.78546 0
M  V30 14970 N 1383.5 1.34231 -0.825823 0
M  V30 14971 C 1384.43 2.31997 -0.264546 0
M  V30 14972 C 1385.41 1.58375 0.620592 0
M  V30 14973 O 1386.6 1.86341 0.546865 0
M  V30 14974 C 1383.73 3.42557 0.572025 0
M  V30 14975 C 1382.68 4.27454 -0.216219 0
M  V30 14976 C 1382.01 5.29509 0.743279 0
M  V30 14977 C 1383.31 5.02456 -1.42603 0
M  V30 14978 H 1385 2.79189 -1.08139 0
M  V30 14979 H 1382.55 1.34227 -0.521451 0
M  V30 14980 H 1384.5 4.09968 0.974889 0
M  V30 14981 H 1383.22 2.94021 1.42195 0
M  V30 14982 H 1381.88 3.61649 -0.600485 0
M  V30 14983 H 1381.53 4.77234 1.58924 0
M  V30 14984 H 1381.23 5.87188 0.220064 0
M  V30 14985 H 1382.76 5.99789 1.14394 0
M  V30 14986 H 1384.17 5.62706 -1.09702 0
M  V30 14987 H 1382.57 5.69723 -1.88509 0
M  V30 14988 H 1383.64 4.31983 -2.2027 0
M  V30 14989 N 1384.98 0.581051 1.46498 0
M  V30 14990 C 1386.21 0.0715652 2.06776 0
M  V30 14991 C 1386.62 -1.23267 1.43006 0
M  V30 14992 O 1385.98 -1.74489 0.534776 0
M  V30 14993 C 1386.03 -0.102666 3.61354 0
M  V30 14994 O 1385.75 1.14995 4.22739 0
M  V30 14995 C 1387.25 -0.646692 4.38558 0
M  V30 14996 H 1384.47 0.0566964 0.6686 0
M  V30 14997 H 1387.02 0.801248 1.8815 0
M  V30 14998 H 1385.17 -0.782564 3.79414 0
M  V30 14999 H 1385.59 0.962718 5.15589 0
M  V30 15000 H 1387.06 -0.717791 5.47313 0
M  V30 15001 H 1387.54 -1.6633 4.06486 0
M  V30 15002 H 1388.14 -0.00171739 4.253 0
M  V30 15003 N 1386.46 -1.54343 0.318742 0
M  V30 15004 C 1387.4 -2.24166 -0.549397 0
M  V30 15005 C 1388.37 -1.23068 -1.1155 0
M  V30 15006 O 1389.56 -1.51737 -1.15674 0
M  V30 15007 C 1386.7 -2.99938 -1.70678 0
M  V30 15008 C 1385.81 -4.15844 -1.17037 0
M  V30 15009 C 1384.95 -4.79158 -2.29305 0
M  V30 15010 C 1383.99 -5.87176 -1.72888 0
M  V30 15011 N 1383.12 -6.44372 -2.78799 0
M  V30 15012 H 1387.96 -2.97954 0.0526018 0
M  V30 15013 H 1385.5 -1.47052 0.0377307 0
M  V30 15014 H 1387.46 -3.42113 -2.38777 0
M  V30 15015 H 1386.09 -2.28494 -2.28014 0
M  V30 15016 H 1385.14 -3.78486 -0.381082 0
M  V30 15017 H 1386.45 -4.93612 -0.717507 0
M  V30 15018 H 1385.61 -5.24277 -3.05317 0
M  V30 15019 H 1384.35 -4.0076 -2.77926 0
M  V30 15020 H 1383.35 -5.41465 -0.953714 0
M  V30 15021 H 1384.58 -6.67469 -1.2515 0
M  V30 15022 H 1382.52 -5.6885 -3.2672 0
M  V30 15023 H 1382.44 -7.17539 -2.38062 0
M  V30 15024 H 1383.71 -6.94147 -3.54655 0
M  V30 15025 N 1387.94 -0.0468143 -1.5753 0
M  V30 15026 C 1388.88 0.929065 -2.11275 0
M  V30 15027 C 1389.85 1.31166 -1.01905 0
M  V30 15028 O 1391.04 1.40189 -1.29428 0
M  V30 15029 C 1388.18 2.20012 -2.65873 0
M  V30 15030 C 1387.29 1.8724 -3.89314 0
M  V30 15031 C 1386.43 3.08772 -4.32242 0
M  V30 15032 C 1385.46 2.719 -5.48395 0
M  V30 15033 N 1384.6 3.86112 -5.86397 0
M  V30 15034 H 1389.44 0.463854 -2.94368 0
M  V30 15035 H 1386.98 0.217338 -1.45486 0
M  V30 15036 H 1388.94 2.94383 -2.95626 0
M  V30 15037 H 1387.57 2.64118 -1.85584 0
M  V30 15038 H 1386.62 1.03037 -3.6618 0
M  V30 15039 H 1387.93 1.56096 -4.73746 0
M  V30 15040 H 1387.08 3.91446 -4.63525 0
M  V30 15041 H 1385.82 3.4309 -3.46613 0
M  V30 15042 H 1384.83 1.87642 -5.16789 0
M  V30 15043 H 1386.05 2.38779 -6.35737 0
M  V30 15044 H 1384 4.2024 -5.03721 0
M  V30 15045 H 1383.92 3.58652 -6.65511 0
M  V30 15046 H 1385.18 4.69438 -6.22293 0
M  V30 15047 N 1389.41 1.55964 0.226527 0
M  V30 15048 C 1390.36 1.92857 1.30034 0
M  V30 15049 C 1391.36 0.810008 1.48779 0
M  V30 15050 O 1392.56 0.994801 1.50012 0
M  V30 15051 H 1388.94 0.612807 0.435857 0
M  V30 15052 H 1390.91 2.82469 0.96196 0
M  V30 15053 C 1389.66 2.25735 2.6446 0
M  V30 15054 H 1388.98 3.11317 2.50842 0
M  V30 15055 H 1390.42 2.55437 3.3842 0
M  V30 15056 C 1388.88 1.08074 3.19095 0
M  V30 15057 O 1389.41 0.339279 4.00265 0
M  V30 15058 N 1387.62 0.86589 2.774 0
M  V30 15059 H 1387.16 1.47055 2.11501 0
M  V30 15060 H 1387.12 0.0803566 3.14297 0
M  V30 15061 N 1390.89 -0.493031 1.4969 0
M  V30 15062 C 1391.84 -1.59367 1.66945 0
M  V30 15063 C 1392.81 -1.58049 0.510842 0
M  V30 15064 O 1393.99 -1.75915 0.738822 0
M  V30 15065 C 1391.13 -2.97472 1.74941 0
M  V30 15066 C 1390.25 -3.08745 3.02159 0
M  V30 15067 C 1389.38 -4.37632 3.01085 0
M  V30 15068 C 1388.42 -4.42567 4.22849 0
M  V30 15069 N 1387.56 -5.62892 4.19639 0
M  V30 15070 H 1392.4 -1.4396 2.6092 0
M  V30 15071 H 1389.94 -0.700297 1.29361 0
M  V30 15072 H 1391.89 -3.7753 1.77558 0
M  V30 15073 H 1390.52 -3.11564 0.844252 0
M  V30 15074 H 1389.58 -2.217 3.09117 0
M  V30 15075 H 1390.89 -3.08251 3.92151 0
M  V30 15076 H 1390.04 -5.26018 3.02309 0
M  V30 15077 H 1388.78 -4.40702 2.08885 0
M  V30 15078 H 1387.79 -3.52581 4.21861 0
M  V30 15079 H 1389.01 -4.41205 5.1625 0
M  V30 15080 H 1386.96 -5.6679 3.30281 0
M  V30 15081 H 1386.87 -5.64048 5.03374 0
M  V30 15082 H 1388.14 -6.53464 4.24977 0
M  V30 15083 N 1392.37 -1.38898 -0.744656 0
M  V30 15084 C 1393.28 -1.39098 -1.88915 0
M  V30 15085 C 1394.3 -0.286956 -1.71617 0
M  V30 15086 O 1395.47 -0.526852 -1.94387 0
M  V30 15087 C 1392.54 -1.22352 -3.24393 0
M  V30 15088 C 1391.6 -2.4264 -3.54153 0
M  V30 15089 C 1390.83 -2.26683 -4.83167 0
M  V30 15090 O 1391.05 -1.26523 -5.56191 0
M  V30 15091 O 1389.99 -3.15464 -5.12607 0
M  V30 15092 H 1393.81 -2.35551 -1.91701 0
M  V30 15093 H 1391.4 -1.19911 -0.891158 0
M  V30 15094 H 1393.28 -1.15109 -4.05374 0
M  V30 15095 H 1391.96 -0.289886 -3.22399 0
M  V30 15096 H 1390.86 -2.55459 -2.73298 0
M  V30 15097 H 1392.2 -3.34664 -3.60917 0
M  V30 15098 N 1393.85 0.973806 -1.23914 0
M  V30 15099 C 1394.78 2.07003 -0.983982 0
M  V30 15100 C 1395.79 1.62739 0.0443893 0
M  V30 15101 O 1396.98 1.77465 -0.191927 0
M  V30 15102 C 1394.08 3.35737 -0.461937 0
M  V30 15103 C 1393.26 4.08939 -1.55202 0
M  V30 15104 C 1392.31 5.15947 -1.03369 0
M  V30 15105 O 1391.34 5.42461 -1.72409 0
M  V30 15106 N 1392.54 5.80343 0.135067 0
M  V30 15107 H 1395.31 2.29468 -1.92781 0
M  V30 15108 H 1392.87 1.14098 -1.14861 0
M  V30 15109 H 1394.86 4.04576 -0.100074 0
M  V30 15110 H 1393.43 3.10189 0.387467 0
M  V30 15111 H 1392.65 3.34462 -2.08635 0
M  V30 15112 H 1393.94 4.5461 -2.2849 0
M  V30 15113 H 1393.34 5.61196 0.71241 0
M  V30 15114 H 1391.89 6.50326 0.438132 0
M  V30 15115 N 1395.33 1.05191 1.17357 0
M  V30 15116 C 1396.26 0.673931 2.23563 0
M  V30 15117 C 1397.24 -0.328284 1.66902 0
M  V30 15118 O 1398.42 -0.205878 1.93106 0
M  V30 15119 C 1395.55 0.0478801 3.47267 0
M  V30 15120 C 1394.51 0.974855 4.1675 0
M  V30 15121 C 1393.83 0.212684 5.34277 0
M  V30 15122 C 1395.13 2.299 4.68981 0
M  V30 15123 H 1396.83 1.56183 2.55436 0
M  V30 15124 H 1394.37 0.752408 1.2278 0
M  V30 15125 H 1396.33 -0.228343 4.20781 0
M  V30 15126 H 1395.05 -0.874963 3.14662 0
M  V30 15127 H 1393.71 1.23564 3.45148 0
M  V30 15128 H 1393.36 -0.712924 4.97922 0
M  V30 15129 H 1393.06 0.830351 5.81703 0
M  V30 15130 H 1394.58 -0.056255 6.10574 0
M  V30 15131 H 1395.99 2.08269 5.34132 0
M  V30 15132 H 1394.39 2.87064 5.26986 0
M  V30 15133 H 1395.46 2.93759 3.8579 0
M  V30 15134 N 1396.8 -1.33791 0.83293 0
M  V30 15135 C 1398.03 -2.0272 0.438111 0
M  V30 15136 C 1398.45 -1.62279 -0.951163 0
M  V30 15137 O 1397.81 -0.812406 -1.62079 0
M  V30 15138 C 1397.86 -3.5623 0.559698 0
M  V30 15139 O 1396.96 -4.10292 -0.41646 0
M  V30 15140 H 1396.31 -0.639438 0.178928 0
M  V30 15141 H 1398.84 -1.70821 1.12612 0
M  V30 15142 H 1398.85 -4.0563 0.439148 0
M  V30 15143 H 1397.52 -3.8501 1.5729 0
M  V30 15144 H 1396.1 -3.72034 -0.25396 0
M  V30 15145 N 1398.28 -0.588812 -1.46187 0
M  V30 15146 C 1399.56 -0.00958331 -1.95598 0
M  V30 15147 C 1399.94 1.45294 -1.53144 0
M  V30 15148 O 1399.29 2.14592 -0.785015 0
M  V30 15149 C 1399.5 -0.188018 -3.48493 0
M  V30 15150 C 1400.85 -0.0590152 -4.24559 0
M  V30 15151 O 1401.87 -0.117167 -3.56007 0
M  V30 15152 O 1400.73 0.0715924 -5.46453 0
M  V30 15153 H 1397.82 0.0463708 -0.825699 0
M  V30 15154 H 1400.37 -0.657558 -1.56443 0
M  V30 15155 H 1399.14 -1.20449 -3.723 0
M  V30 15156 H 1398.76 0.496103 -3.94493 0
M  V30 15157 N 1399.76 1.54172 -0.326923 0
M  V30 15158 C 1400.69 2.20703 0.580137 0
M  V30 15159 C 1401.67 1.18523 1.11315 0
M  V30 15160 O 1402.86 1.47276 1.17652 0
M  V30 15161 C 1399.98 2.87137 1.79638 0
M  V30 15162 C 1399.03 4.03064 1.39432 0
M  V30 15163 S 1399.86 5.33785 0.428179 0
M  V30 15164 C 1401.02 6.03715 1.65163 0
M  V30 15165 H 1401.25 2.97296 0.0149964 0
M  V30 15166 H 1398.78 1.54 -0.111004 0
M  V30 15167 H 1400.74 3.26035 2.49423 0
M  V30 15168 H 1399.4 2.1034 2.33272 0
M  V30 15169 H 1398.6 4.48424 2.3007 0
M  V30 15170 H 1398.2 3.65858 0.776144 0
M  V30 15171 H 1400.49 6.26098 2.58858 0
M  V30 15172 H 1401.43 6.97156 1.24014 0
M  V30 15173 H 1401.84 5.33666 1.84014 0
M  V30 15174 N 1401.24 0.0551678 1.57503 0
M  V30 15175 C 1402.17 -0.953348 2.07332 0
M  V30 15176 C 1403.15 -1.30148 0.974699 0
M  V30 15177 O 1404.33 -1.41366 1.24692 0
M  V30 15178 C 1401.46 -2.26622 2.51715 0
M  V30 15179 C 1400.51 -2.07085 3.72851 0
M  V30 15180 S 1401.34 -1.34553 5.1832 0
M  V30 15181 C 1402.5 -2.67155 5.6602 0
M  V30 15182 H 1402.73 -0.529294 2.9255 0
M  V30 15183 H 1400.26 -0.157196 1.53598 0
M  V30 15184 H 1402.22 -3.02085 2.77948 0
M  V30 15185 H 1400.88 -2.66155 1.66795 0
M  V30 15186 H 1400.07 -3.04206 4.01839 0
M  V30 15187 H 1399.68 -1.39761 3.46905 0
M  V30 15188 H 1401.97 -3.63309 5.7185 0
M  V30 15189 H 1402.91 -2.42798 6.65173 0
M  V30 15190 H 1403.32 -2.73597 4.93766 0
M  V30 15191 N 1402.72 -1.56081 -0.218252 0
M  V30 15192 C 1403.65 -1.87704 -1.29779 0
M  V30 15193 C 1404.63 -0.734747 -1.45053 0
M  V30 15194 O 1405.81 -0.98344 -1.60813 0
M  V30 15195 C 1402.94 -2.08695 -2.66766 0
M  V30 15196 C 1401.98 -3.31385 -2.68489 0
M  V30 15197 S 1402.82 -4.87212 -2.22227 0
M  V30 15198 C 1403.97 -5.11243 -3.61083 0
M  V30 15199 H 1404.21 -2.78975 -1.02762 0
M  V30 15200 H 1401.74 -1.48559 -0.420653 0
M  V30 15201 H 1403.7 -2.21472 -3.4563 0
M  V30 15202 H 1402.36 -1.18215 -2.91005 0
M  V30 15203 H 1401.55 -3.43127 -3.69161 0
M  V30 15204 H 1401.15 -3.17482 -1.9769 0
M  V30 15205 H 1403.45 -5.00344 -4.56796 0
M  V30 15206 H 1404.39 -6.13115 -3.54254 0
M  V30 15207 H 1404.8 -4.38964 -3.54924 0
M  V30 15208 N 1404.2 0.485086 -1.49949 0
M  V30 15209 C 1405.44 1.23486 -1.5948 0
M  V30 15210 C 1405.76 1.93377 -0.294082 0
M  V30 15211 O 1406.96 2.70173 -0.268133 0
M  V30 15212 C 1405.42 2.24303 -2.81454 0
M  V30 15213 C 1405.03 1.60279 -4.18347 0
M  V30 15214 C 1406.77 3.0001 -3.00324 0
M  V30 15215 C 1404.68 2.593 -5.31524 0
M  V30 15216 H 1403.61 0.464595 -0.593858 0
M  V30 15217 H 1406.26 0.506893 -1.7636 0
M  V30 15218 H 1404.64 3.00332 -2.58102 0
M  V30 15219 H 1405.82 0.901352 -4.51899 0
M  V30 15220 H 1404.13 0.969053 -4.04967 0
M  V30 15221 H 1406.73 3.74091 -3.82048 0
M  V30 15222 H 1407.07 3.5857 -2.11502 0
M  V30 15223 H 1407.6 2.31095 -3.2379 0
M  V30 15224 H 1404.34 2.05498 -6.22455 0
M  V30 15225 H 1403.86 3.27638 -5.02408 0
M  V30 15226 H 1405.54 3.21411 -5.61519 0
M  V30 15227 N 1405.67 1.39291 0.737279 0
M  V30 15228 C 1406.62 1.37969 1.87263 0
M  V30 15229 C 1407.62 0.263156 1.67344 0
M  V30 15230 O 1408.82 0.433069 1.74713 0
M  V30 15231 H 1405.2 0.430782 0.616385 0
M  V30 15232 H 1407.17 2.33741 1.85494 0
M  V30 15233 C 1405.92 1.23779 3.24922 0
M  V30 15234 H 1405.24 2.08963 3.40844 0
M  V30 15235 H 1406.68 1.26911 4.04561 0
M  V30 15236 C 1405.14 -0.0539778 3.36857 0
M  V30 15237 O 1405.67 -1.02501 3.88402 0
M  V30 15238 N 1403.87 -0.116275 2.90367 0
M  V30 15239 H 1403.42 0.674622 2.48609 0
M  V30 15240 H 1403.38 -0.980107 2.98733 0
M  V30 15241 N 1407.15 -0.967221 1.24429 0
M  V30 15242 C 1408.1 -2.06187 1.03709 0
M  V30 15243 C 1409.07 -1.66025 -0.0497665 0
M  V30 15244 O 1410.25 -1.90511 0.104951 0
M  V30 15245 C 1407.39 -3.38952 0.648477 0
M  V30 15246 C 1406.51 -3.92306 1.80886 0
M  V30 15247 C 1405.64 -5.13342 1.36579 0
M  V30 15248 C 1404.68 -5.58893 2.49609 0
M  V30 15249 N 1403.82 -6.71148 2.06165 0
M  V30 15250 H 1408.66 -2.23244 1.97399 0
M  V30 15251 H 1406.19 -1.09415 0.983192 0
M  V30 15252 H 1408.15 -4.15237 0.40419 0
M  V30 15253 H 1406.78 -3.21819 -0.25142 0
M  V30 15254 H 1405.83 -3.12656 2.1668 0
M  V30 15255 H 1407.15 -4.22071 2.65815 0
M  V30 15256 H 1406.3 -5.97003 1.0804 0
M  V30 15257 H 1405.04 -4.85262 0.487051 0
M  V30 15258 H 1404.04 -4.73805 2.78906 0
M  V30 15259 H 1405.27 -5.88987 3.3804 0
M  V30 15260 H 1403.22 -6.44802 1.20691 0
M  V30 15261 H 1403.13 -7.00366 2.84647 0
M  V30 15262 H 1404.4 -7.5825 1.80769 0
M  V30 15263 N 1408.63 -1.05812 -1.16797 0
M  V30 15264 C 1409.56 -0.622584 -2.20582 0
M  V30 15265 C 1410.57 0.316905 -1.59686 0
M  V30 15266 O 1411.76 0.108657 -1.78169 0
M  V30 15267 C 1408.86 0.108124 -3.38727 0
M  V30 15268 C 1408.04 -0.84363 -4.29187 0
M  V30 15269 C 1407.1 -0.15305 -5.25977 0
M  V30 15270 O 1406.12 -0.78915 -5.63703 0
M  V30 15271 N 1407.32 1.10721 -5.69843 0
M  V30 15272 H 1410.09 -1.51532 -2.5857 0
M  V30 15273 H 1407.65 -0.940815 -1.31758 0
M  V30 15274 H 1409.64 0.580395 -4.00517 0
M  V30 15275 H 1408.21 0.902599 -2.99286 0
M  V30 15276 H 1407.43 -1.49538 -3.64735 0
M  V30 15277 H 1408.72 -1.48946 -4.86511 0
M  V30 15278 H 1408.12 1.64423 -5.41278 0
M  V30 15279 H 1406.67 1.52344 -6.33746 0
M  V30 15280 N 1410.11 1.33347 -0.840014 0
M  V30 15281 C 1411.05 2.29191 -0.272048 0
M  V30 15282 C 1412.02 1.54383 0.612787 0
M  V30 15283 O 1413.21 1.82676 0.550812 0
M  V30 15284 C 1410.35 3.40755 0.545901 0
M  V30 15285 C 1409.46 4.30471 -0.363084 0
M  V30 15286 C 1408.6 5.29151 0.466078 0
M  V30 15287 C 1407.64 6.10508 -0.441225 0
M  V30 15288 N 1406.77 7.01228 0.349877 0
M  V30 15289 H 1411.61 2.77166 -1.09467 0
M  V30 15290 H 1409.15 1.36379 -0.551284 0
M  V30 15291 H 1411.11 4.04142 1.03562 0
M  V30 15292 H 1409.74 2.9397 1.33348 0
M  V30 15293 H 1408.79 3.67795 -0.971119 0
M  V30 15294 H 1410.1 4.87406 -1.06002 0
M  V30 15295 H 1409.26 5.98072 1.01957 0
M  V30 15296 H 1408 4.72796 1.19644 0
M  V30 15297 H 1407 5.40504 -1.00672 0
M  V30 15298 H 1408.23 6.68946 -1.16997 0
M  V30 15299 H 1406.17 6.4732 1.0636 0
M  V30 15300 H 1406.09 7.5545 -0.288317 0
M  V30 15301 H 1407.36 7.74453 0.885573 0
M  V30 15302 N 1411.59 0.596556 1.45873 0
M  V30 15303 C 1412.83 0.0872856 2.01911 0
M  V30 15304 C 1413.15 -1.28257 1.46885 0
M  V30 15305 O 1412.42 -1.84489 0.658837 0
M  V30 15306 H 1411 0.0292769 0.746426 0
M  V30 15307 H 1413.67 0.775464 1.78809 0
M  V30 15308 H 1412.76 0.0287213 3.12087 0
M  V30 15309 N 1413.06 -1.53996 0.335095 0
M  V30 15310 C 1414.31 -2.00375 -0.263475 0
M  V30 15311 C 1414.63 -1.22471 -1.51742 0
M  V30 15312 O 1413.9 -0.329604 -1.93107 0
M  V30 15313 H 1412.48 -0.740229 -0.100347 0
M  V30 15314 H 1415.14 -1.89531 0.454302 0
M  V30 15315 H 1414.24 -3.07874 -0.511834 0
M  V30 15316 N 1414.54 -0.0635198 -1.57472 0
M  V30 15317 C 1415.47 0.90431 -2.15278 0
M  V30 15318 C 1416.45 1.31609 -1.07764 0
M  V30 15319 O 1417.64 1.38861 -1.35762 0
M  V30 15320 C 1414.77 2.17483 -2.70774 0
M  V30 15321 C 1413.72 1.90272 -3.8338 0
M  V30 15322 C 1413.05 3.23885 -4.25444 0
M  V30 15323 C 1414.35 1.21454 -5.07983 0
M  V30 15324 H 1416.04 0.422786 -2.964 0
M  V30 15325 H 1413.59 0.201918 -1.42577 0
M  V30 15326 H 1415.54 2.856 -3.09856 0
M  V30 15327 H 1414.26 2.67863 -1.86861 0
M  V30 15328 H 1412.92 1.24564 -3.44789 0
M  V30 15329 H 1412.57 3.72089 -3.38465 0
M  V30 15330 H 1412.27 3.06472 -5.01347 0
M  V30 15331 H 1413.8 3.93212 -4.67137 0
M  V30 15332 H 1415.21 1.79625 -5.44433 0
M  V30 15333 H 1413.61 1.14327 -5.89109 0
M  V30 15334 H 1414.68 0.19238 -4.84518 0
M  V30 15335 N 1416.02 1.56195 0.209972 0
M  V30 15336 C 1416.97 1.93355 1.26026 0
M  V30 15337 C 1417.94 0.792195 1.45991 0
M  V30 15338 O 1419.12 1.04909 1.5937 0
M  V30 15339 C 1416.26 2.26558 2.60318 0
M  V30 15340 C 1415.37 3.53685 2.48055 0
M  V30 15341 C 1414.51 3.76279 3.7495 0
M  V30 15342 C 1413.55 4.96881 3.57457 0
M  V30 15343 N 1412.69 5.15806 4.76328 0
M  V30 15344 H 1417.53 2.82907 0.936357 0
M  V30 15345 H 1415.06 1.40015 0.451022 0
M  V30 15346 H 1417.02 2.43821 3.38537 0
M  V30 15347 H 1415.65 1.40165 2.90781 0
M  V30 15348 H 1414.7 3.44551 1.61211 0
M  V30 15349 H 1416.01 4.42057 2.31056 0
M  V30 15350 H 1415.17 3.93702 4.6161 0
M  V30 15351 H 1413.91 2.86209 3.94887 0
M  V30 15352 H 1412.91 4.79397 2.69181 0
M  V30 15353 H 1414.14 5.88447 3.38979 0
M  V30 15354 H 1412.08 4.28681 4.96557 0
M  V30 15355 H 1412 5.98332 4.62099 0
M  V30 15356 H 1413.27 5.37674 5.64382 0
M  V30 15357 N 1417.5 -0.477127 1.50204 0
M  V30 15358 C 1418.46 -1.55824 1.68082 0
M  V30 15359 C 1419.46 -1.51039 0.551719 0
M  V30 15360 O 1420.65 -1.53766 0.818638 0
M  V30 15361 C 1417.78 -2.95462 1.70044 0
M  V30 15362 H 1418.98 -1.41292 2.64531 0
M  V30 15363 H 1416.53 -0.70308 1.39594 0
M  V30 15364 H 1417.26 -3.15445 0.752663 0
M  V30 15365 H 1417.05 -3.00343 2.52065 0
M  V30 15366 H 1418.54 -3.73964 1.85851 0
M  V30 15367 N 1418.98 -1.3968 -0.729882 0
M  V30 15368 C 1419.91 -1.41549 -1.85704 0
M  V30 15369 C 1420.89 -0.278186 -1.6781 0
M  V30 15370 O 1422.07 -0.484749 -1.88053 0
M  V30 15371 C 1419.2 -1.26327 -3.2351 0
M  V30 15372 C 1418.16 -2.37511 -3.56051 0
M  V30 15373 C 1417.48 -2.07375 -4.92849 0
M  V30 15374 C 1418.78 -3.79833 -3.58502 0
M  V30 15375 H 1420.48 -2.35877 -1.84398 0
M  V30 15376 H 1418.02 -1.13536 -0.885747 0
M  V30 15377 H 1419.98 -1.26254 -4.02042 0
M  V30 15378 H 1418.7 -0.284697 -3.25357 0
M  V30 15379 H 1417.36 -2.36809 -2.79852 0
M  V30 15380 H 1417.01 -1.07943 -4.91281 0
M  V30 15381 H 1416.71 -2.81855 -5.15588 0
M  V30 15382 H 1418.23 -2.08961 -5.73731 0
M  V30 15383 H 1419.64 -3.82436 -4.27101 0
M  V30 15384 H 1418.04 -4.53715 -3.92763 0
M  V30 15385 H 1419.11 -4.10443 -2.58195 0
M  V30 15386 N 1420.45 0.960609 -1.2494 0
M  V30 15387 C 1421.68 1.7446 -1.12153 0
M  V30 15388 C 1422.1 1.85335 0.321315 0
M  V30 15389 O 1421.46 1.32944 1.23271 0
M  V30 15390 C 1421.51 3.13945 -1.774 0
M  V30 15391 O 1420.61 3.9882 -1.04958 0
M  V30 15392 H 1419.96 0.536007 -0.391909 0
M  V30 15393 H 1422.49 1.2045 -1.65388 0
M  V30 15394 H 1422.5 3.64434 -1.83444 0
M  V30 15395 H 1421.17 3.05346 -2.82377 0
M  V30 15396 H 1419.75 3.57293 -1.06752 0
M  V30 15397 N 1421.93 1.0643 1.16234 0
M  V30 15398 C 1422.88 0.676311 2.20669 0
M  V30 15399 C 1423.85 -0.327721 1.62835 0
M  V30 15400 O 1425.03 -0.216296 1.8957 0
M  V30 15401 C 1422.17 0.0703726 3.45028 0
M  V30 15402 C 1421.29 1.12475 4.17101 0
M  V30 15403 C 1420.42 0.484806 5.28983 0
M  V30 15404 C 1419.46 1.52262 5.9286 0
M  V30 15405 N 1418.6 0.905938 6.96231 0
M  V30 15406 H 1423.44 1.57129 2.53209 0
M  V30 15407 H 1420.98 0.7856 1.24365 0
M  V30 15408 H 1422.93 -0.298488 4.16131 0
M  V30 15409 H 1421.56 -0.788002 3.13034 0
M  V30 15410 H 1420.62 1.6113 3.44589 0
M  V30 15411 H 1421.93 1.91202 4.60698 0
M  V30 15412 H 1421.08 0.0630553 6.06667 0
M  V30 15413 H 1419.82 -0.334332 4.86553 0
M  V30 15414 H 1418.83 1.95425 5.13896 0
M  V30 15415 H 1420.05 2.34388 6.37369 0
M  V30 15416 H 1418 0.107536 6.55912 0
M  V30 15417 H 1417.91 1.63058 7.38206 0
M  V30 15418 H 1419.18 0.509378 7.77834 0
M  V30 15419 N 1423.41 -1.329 0.847073 0
M  V30 15420 C 1424.32 -2.32815 0.288878 0
M  V30 15421 C 1425.34 -1.63715 -0.589363 0
M  V30 15422 O 1426.51 -1.9531 -0.491537 0
M  V30 15423 C 1423.58 -3.42778 -0.519988 0
M  V30 15424 C 1422.64 -4.27584 0.383496 0
M  V30 15425 C 1421.87 -5.32296 -0.386862 0
M  V30 15426 O 1422.09 -5.4698 -1.61768 0
M  V30 15427 O 1421.03 -6.01408 0.2434 0
M  V30 15428 H 1424.85 -2.82434 1.11647 0
M  V30 15429 H 1422.44 -1.36388 0.609807 0
M  V30 15430 H 1424.32 -4.09862 -0.979357 0
M  V30 15431 H 1423 -2.95362 -1.3245 0
M  V30 15432 H 1421.9 -3.63338 0.890879 0
M  V30 15433 H 1423.24 -4.78505 1.15299 0
M  V30 15434 N 1424.89 -0.604284 -1.45555 0
M  V30 15435 C 1425.84 0.116491 -2.30506 0
M  V30 15436 C 1426.81 0.863214 -1.41908 0
M  V30 15437 O 1427.99 0.849606 -1.7084 0
M  V30 15438 C 1425.13 1.11009 -3.26758 0
M  V30 15439 C 1424.24 0.36458 -4.30459 0
M  V30 15440 C 1423.38 1.34761 -5.13822 0
M  V30 15441 C 1422.42 0.589724 -6.09253 0
M  V30 15442 N 1421.55 1.52187 -6.85408 0
M  V30 15443 H 1426.39 -0.61394 -2.91607 0
M  V30 15444 H 1423.93 -0.314561 -1.43697 0
M  V30 15445 H 1425.89 1.69925 -3.81027 0
M  V30 15446 H 1424.52 1.80797 -2.67418 0
M  V30 15447 H 1423.57 -0.340026 -3.78877 0
M  V30 15448 H 1424.88 -0.226906 -4.98284 0
M  V30 15449 H 1424.04 2.00893 -5.72474 0
M  V30 15450 H 1422.78 1.97302 -4.46008 0
M  V30 15451 H 1421.78 -0.0852486 -5.49734 0
M  V30 15452 H 1423.01 -0.0306001 -6.79093 0
M  V30 15453 H 1420.95 2.13499 -6.20286 0
M  V30 15454 H 1420.87 0.983737 -7.49572 0
M  V30 15455 H 1422.14 2.17287 -7.48603 0
M  V30 15456 N 1426.37 1.53816 -0.343257 0
M  V30 15457 C 1427.78 1.59598 0.00867849 0
M  V30 15458 C 1427.98 1.35922 1.48753 0
M  V30 15459 O 1427.04 1.15334 2.2462 0
M  V30 15460 C 1428.35 2.97649 -0.427234 0
M  V30 15461 C 1429.9 3.1069 -0.379554 0
M  V30 15462 C 1430.37 4.51119 -0.79093 0
M  V30 15463 N 1431.87 4.57168 -0.745105 0
M  V30 15464 C 1432.6 5.63975 -1.03537 0
M  V30 15465 N 1432.1 6.78635 -1.39377 0
M  V30 15466 N 1433.89 5.53848 -0.959628 0
M  V30 15467 H 1426.04 1.6746 -1.30656 0
M  V30 15468 H 1428.3 0.784254 -0.532588 0
M  V30 15469 H 1428.01 3.2004 -1.45834 0
M  V30 15470 H 1427.88 3.76682 0.197704 0
M  V30 15471 H 1430.27 2.88024 0.642376 0
M  V30 15472 H 1430.35 2.33718 -1.03969 0
M  V30 15473 H 1430 4.74521 -1.81087 0
M  V30 15474 H 1429.93 5.26489 -0.108274 0
M  V30 15475 H 1432.42 3.7483 -0.480752 0
M  V30 15476 H 1432.73 7.56053 -1.60011 0
M  V30 15477 H 1431.07 6.80083 -1.43222 0
M  V30 15478 H 1434.27 4.6315 -0.678974 0
M  V30 15479 H 1434.44 6.36995 -1.18919 0
M  V30 15480 N 1427.84 0.0718701 1.57436 0
M  V30 15481 C 1428.75 -0.910077 2.16229 0
M  V30 15482 C 1429.77 -1.32699 1.12548 0
M  V30 15483 O 1430.95 -1.39967 1.44814 0
M  V30 15484 C 1428.01 -2.15942 2.71238 0
M  V30 15485 C 1427.07 -1.79891 3.89792 0
M  V30 15486 C 1426.31 -2.9887 4.42168 0
M  V30 15487 O 1426.53 -4.1289 3.93545 0
M  V30 15488 O 1425.46 -2.78682 5.33498 0
M  V30 15489 H 1429.29 -0.439969 3.00496 0
M  V30 15490 H 1426.87 -0.151204 1.48633 0
M  V30 15491 H 1428.76 -2.89204 3.06494 0
M  V30 15492 H 1427.43 -2.62051 1.90029 0
M  V30 15493 H 1426.34 -1.03881 3.59388 0
M  V30 15494 H 1427.67 -1.38566 4.72293 0
M  V30 15495 N 1429.32 -1.56304 -0.201686 0
M  V30 15496 C 1430.27 -1.94021 -1.24999 0
M  V30 15497 C 1431.24 -0.799926 -1.45569 0
M  V30 15498 O 1432.42 -1.05752 -1.58811 0
M  V30 15499 C 1429.56 -2.27935 -2.59113 0
M  V30 15500 C 1428.68 -3.54995 -2.46176 0
M  V30 15501 C 1427.81 -3.78262 -3.72949 0
M  V30 15502 C 1426.85 -4.9877 -3.54817 0
M  V30 15503 N 1425.99 -5.18325 -4.73586 0
M  V30 15504 H 1430.83 -2.834 -0.92134 0
M  V30 15505 H 1428.37 -1.40252 -0.44359 0
M  V30 15506 H 1430.32 -2.45613 -3.37239 0
M  V30 15507 H 1428.95 -1.41705 -2.90034 0
M  V30 15508 H 1428.01 -3.45401 -1.59381 0
M  V30 15509 H 1429.32 -4.43277 -2.28708 0
M  V30 15510 H 1428.47 -3.96144 -4.59516 0
M  V30 15511 H 1427.21 -2.88299 -3.93364 0
M  V30 15512 H 1426.22 -4.80818 -2.66635 0
M  V30 15513 H 1427.44 -5.90237 -3.35854 0
M  V30 15514 H 1425.39 -4.31308 -4.94277 0
M  V30 15515 H 1425.3 -6.00774 -4.58919 0
M  V30 15516 H 1426.57 -5.40659 -5.61523 0
M  V30 15517 N 1430.8 0.469154 -1.50455 0
M  V30 15518 C 1431.73 1.57493 -1.7239 0
M  V30 15519 C 1432.71 1.60161 -0.572915 0
M  V30 15520 O 1433.9 1.76397 -0.812259 0
M  V30 15521 C 1431.03 2.95804 -1.81981 0
M  V30 15522 C 1429.98 3.08001 -2.97185 0
M  V30 15523 C 1429.31 4.4798 -2.91922 0
M  V30 15524 C 1430.61 2.85039 -4.37665 0
M  V30 15525 H 1432.3 1.39389 -2.64974 0
M  V30 15526 H 1429.85 0.669133 -1.27509 0
M  V30 15527 H 1431.8 3.73091 -1.95911 0
M  V30 15528 H 1430.52 3.15068 -0.86021 0
M  V30 15529 H 1429.18 2.33148 -2.82909 0
M  V30 15530 H 1428.83 4.64165 -1.93803 0
M  V30 15531 H 1428.53 4.57076 -3.69263 0
M  V30 15532 H 1430.05 5.27284 -3.07903 0
M  V30 15533 H 1431.47 3.52074 -4.52456 0
M  V30 15534 H 1429.87 3.05578 -5.16471 0
M  V30 15535 H 1430.94 1.8088 -4.499 0
M  V30 15536 N 1432.28 1.40065 0.722464 0
M  V30 15537 C 1433.19 1.42086 1.86678 0
M  V30 15538 C 1434.2 0.314223 1.71139 0
M  V30 15539 O 1435.38 0.55771 1.93524 0
M  V30 15540 C 1432.45 1.27498 3.22405 0
M  V30 15541 C 1431.51 2.48243 3.50248 0
M  V30 15542 C 1430.74 2.34342 4.79499 0
M  V30 15543 O 1430.96 1.35355 5.54108 0
M  V30 15544 O 1429.9 3.23579 5.07523 0
M  V30 15545 H 1433.72 2.38571 1.87929 0
M  V30 15546 H 1431.31 1.21314 0.871968 0
M  V30 15547 H 1433.19 1.21543 4.03491 0
M  V30 15548 H 1431.86 0.341141 3.21897 0
M  V30 15549 H 1430.77 2.59775 2.69199 0
M  V30 15550 H 1432.1 3.40364 3.55547 0
M  V30 15551 N 1433.76 -0.95397 1.25448 0
M  V30 15552 C 1434.72 -2.03231 1.0597 0
M  V30 15553 C 1435.72 -1.60795 0.0122855 0
M  V30 15554 O 1436.91 -1.7233 0.254533 0
M  V30 15555 C 1434.04 -3.35414 0.609105 0
M  V30 15556 H 1435.24 -2.21943 2.01696 0
M  V30 15557 H 1432.79 -1.13115 1.07864 0
M  V30 15558 H 1433.52 -3.22398 -0.350723 0
M  V30 15559 H 1433.31 -3.67564 1.36526 0
M  V30 15560 H 1434.8 -4.14664 0.49428 0
M  V30 15561 N 1435.24 -1.07045 -1.15668 0
M  V30 15562 C 1436.47 -0.811567 -1.89992 0
M  V30 15563 C 1436.87 0.638628 -1.78096 0
M  V30 15564 O 1436.22 1.44953 -1.12846 0
M  V30 15565 C 1436.28 -1.13665 -3.41058 0
M  V30 15566 C 1435.94 -2.58681 -3.7674 0
M  V30 15567 C 1436.94 -3.56923 -3.78023 0
M  V30 15568 C 1434.62 -2.94178 -4.07142 0
M  V30 15569 C 1436.62 -4.88699 -4.09209 0
M  V30 15570 C 1434.31 -4.26152 -4.37993 0
M  V30 15571 C 1435.3 -5.23222 -4.39007 0
M  V30 15572 O 1434.99 -6.52826 -4.6912 0
M  V30 15573 H 1434.72 -0.293243 -0.609085 0
M  V30 15574 H 1437.28 -1.42941 -1.47502 0
M  V30 15575 H 1435.51 -0.461762 -3.83933 0
M  V30 15576 H 1437.2 -0.860808 -3.96667 0
M  V30 15577 H 1437.96 -3.30842 -3.54639 0
M  V30 15578 H 1433.84 -2.19272 -4.05513 0
M  V30 15579 H 1437.39 -5.6446 -4.09915 0
M  V30 15580 H 1433.28 -4.51988 -4.60844 0
M  V30 15581 H 1434.05 -6.5793 -4.86898 0
M  V30 15582 N 1436.71 1.32449 -0.85411 0
M  V30 15583 C 1437.65 2.2777 -0.255605 0
M  V30 15584 C 1438.66 1.52407 0.572355 0
M  V30 15585 O 1439.85 1.74031 0.396935 0
M  V30 15586 C 1436.95 3.32461 0.657496 0
M  V30 15587 C 1436.12 4.37193 -0.134492 0
M  V30 15588 C 1435.18 5.21465 0.704288 0
M  V30 15589 O 1434.21 5.69033 0.138001 0
M  V30 15590 N 1435.41 5.44254 2.01911 0
M  V30 15591 H 1438.17 2.79769 -1.07468 0
M  V30 15592 H 1435.73 1.45304 -0.714038 0
M  V30 15593 H 1437.73 3.85748 1.22396 0
M  V30 15594 H 1436.3 2.80625 1.37726 0
M  V30 15595 H 1435.52 3.84198 -0.882378 0
M  V30 15596 H 1436.8 5.04256 -0.678508 0
M  V30 15597 H 1436.2 5.07336 2.50252 0
M  V30 15598 H 1434.76 6.00538 2.53371 0
M  V30 15599 N 1438.19 0.611994 1.45232 0
M  V30 15600 C 1439.14 -0.125771 2.27653 0
M  V30 15601 C 1440.13 -0.834397 1.37574 0
M  V30 15602 O 1441.32 -0.72366 1.61531 0
M  V30 15603 C 1438.45 -1.11955 3.24532 0
M  V30 15604 C 1437.53 -0.411537 4.22099 0
M  V30 15605 N 1437.92 0.549272 5.02809 0
M  V30 15606 C 1436.22 -0.658514 4.41112 0
M  V30 15607 C 1436.92 0.965836 5.73626 0
M  V30 15608 N 1435.9 0.308649 5.42723 0
M  V30 15609 H 1439.7 0.612115 2.87455 0
M  V30 15610 H 1437.21 0.436003 1.56438 0
M  V30 15611 H 1439.21 -1.66253 3.82316 0
M  V30 15612 H 1437.87 -1.85795 2.6629 0
M  V30 15613 H 1438.88 0.926222 5.0955 0
M  V30 15614 H 1435.56 -1.38125 3.9399 0
M  V30 15615 H 1436.95 1.75853 6.48479 0
M  V30 15616 N 1439.67 -1.53632 0.351409 0
M  V30 15617 C 1440.6 -2.28217 -0.49391 0
M  V30 15618 C 1441.58 -1.30085 -1.09599 0
M  V30 15619 O 1442.77 -1.58938 -1.1159 0
M  V30 15620 C 1439.9 -3.06085 -1.64102 0
M  V30 15621 C 1438.85 -4.11786 -1.16689 0
M  V30 15622 C 1438.18 -4.77654 -2.40314 0
M  V30 15623 C 1439.48 -5.21644 -0.261742 0
M  V30 15624 H 1441.17 -2.99125 0.1283 0
M  V30 15625 H 1438.72 -1.43861 0.0631462 0
M  V30 15626 H 1440.67 -3.57003 -2.2389 0
M  V30 15627 H 1439.39 -2.32842 -2.29025 0
M  V30 15628 H 1438.05 -3.61792 -0.591784 0
M  V30 15629 H 1437.7 -4.00997 -3.03661 0
M  V30 15630 H 1437.4 -5.49072 -2.09268 0
M  V30 15631 H 1438.92 -5.3136 -3.00813 0
M  V30 15632 H 1440.34 -5.6815 -0.766689 0
M  V30 15633 H 1438.73 -6.00085 -0.0428132 0
M  V30 15634 H 1439.8 -4.79821 0.699999 0
M  V30 15635 N 1441.15 -0.0802183 -1.57396 0
M  V30 15636 C 1442.39 0.586962 -1.93807 0
M  V30 15637 C 1442.72 1.69107 -0.960887 0
M  V30 15638 O 1441.98 1.95688 0.0220779 0
M  V30 15639 C 1442.28 1.19551 -3.36812 0
M  V30 15640 C 1441.94 0.216701 -4.50379 0
M  V30 15641 C 1440.6 -0.0525552 -4.81171 0
M  V30 15642 C 1442.96 -0.452467 -5.19232 0
M  V30 15643 C 1440.28 -0.997923 -5.78151 0
M  V30 15644 C 1442.64 -1.38621 -6.17225 0
M  V30 15645 C 1441.3 -1.66385 -6.4643 0
M  V30 15646 H 1440.57 0.214785 -0.709189 0
M  V30 15647 H 1443.22 -0.152888 -1.90889 0
M  V30 15648 H 1441.52 2.01129 -3.36236 0
M  V30 15649 H 1443.22 1.71918 -3.62278 0
M  V30 15650 H 1439.81 0.436747 -4.26369 0
M  V30 15651 H 1443.99 -0.257573 -4.95631 0
M  V30 15652 H 1439.25 -1.22019 -5.991 0
M  V30 15653 H 1443.42 -1.91063 -6.69677 0
M  V30 15654 H 1441.05 -2.39799 -7.21388 0
M  V30 15655 N 1442.63 1.56409 0.193394 0
M  V30 15656 C 1443.86 1.84569 0.928328 0
M  V30 15657 C 1444.26 0.660788 1.77286 0
M  V30 15658 O 1443.61 -0.379752 1.79732 0
M  V30 15659 C 1443.67 3.06854 1.87299 0
M  V30 15660 C 1443.33 4.40684 1.21025 0
M  V30 15661 C 1444.33 5.16583 0.58635 0
M  V30 15662 C 1442.01 4.87419 1.21359 0
M  V30 15663 C 1444.01 6.37395 -0.0253573 0
M  V30 15664 C 1441.7 6.08167 0.598052 0
M  V30 15665 C 1442.69 6.82997 -0.0203414 0
M  V30 15666 O 1442.38 8.01457 -0.626232 0
M  V30 15667 H 1442.11 0.616966 0.276277 0
M  V30 15668 H 1444.67 2.04373 0.205102 0
M  V30 15669 H 1442.9 2.82938 2.63596 0
M  V30 15670 H 1444.59 3.21645 2.47587 0
M  V30 15671 H 1445.35 4.81569 0.575894 0
M  V30 15672 H 1441.23 4.29129 1.68432 0
M  V30 15673 H 1444.78 6.95743 -0.508644 0
M  V30 15674 H 1440.67 6.42649 0.606017 0
M  V30 15675 H 1441.44 8.16825 -0.523305 0
M  V30 15676 N 1444.1 -0.461169 1.50702 0
M  V30 15677 C 1445.03 -1.56576 1.73223 0
M  V30 15678 C 1446.01 -1.59855 0.581401 0
M  V30 15679 O 1447.2 -1.75964 0.821602 0
M  V30 15680 C 1444.33 -2.94835 1.83548 0
M  V30 15681 C 1443.28 -3.06421 2.98815 0
M  V30 15682 C 1442.61 -4.46425 2.94293 0
M  V30 15683 C 1443.91 -2.82714 4.3917 0
M  V30 15684 H 1445.6 -1.37982 2.65709 0
M  V30 15685 H 1443.15 -0.662362 1.27862 0
M  V30 15686 H 1445.1 -3.72047 1.97887 0
M  V30 15687 H 1443.83 -3.14608 0.876906 0
M  V30 15688 H 1442.49 -2.31644 2.84142 0
M  V30 15689 H 1442.13 -4.63131 1.96262 0
M  V30 15690 H 1441.83 -4.55111 3.71682 0
M  V30 15691 H 1443.36 -5.25644 3.10695 0
M  V30 15692 H 1444.77 -3.4967 4.54317 0
M  V30 15693 H 1443.17 -3.02835 5.18084 0
M  V30 15694 H 1444.24 -1.78492 4.50853 0
M  V30 15695 N 1445.58 -1.40446 -0.715026 0
M  V30 15696 C 1446.51 -1.43511 -1.84193 0
M  V30 15697 C 1447.49 -0.295969 -1.67505 0
M  V30 15698 O 1448.68 -0.504667 -1.87528 0
M  V30 15699 C 1445.81 -1.29751 -3.22152 0
M  V30 15700 C 1444.76 -2.41274 -3.53512 0
M  V30 15701 C 1444.09 -2.12591 -4.90621 0
M  V30 15702 C 1445.39 -3.83614 -3.54454 0
M  V30 15703 H 1447.08 -2.37819 -1.81885 0
M  V30 15704 H 1444.63 -1.14469 -0.873655 0
M  V30 15705 H 1446.58 -1.30511 -4.0068 0
M  V30 15706 H 1445.3 -0.319189 -3.25037 0
M  V30 15707 H 1443.96 -2.39764 -2.77324 0
M  V30 15708 H 1443.61 -1.13148 -4.90109 0
M  V30 15709 H 1443.31 -2.87308 -5.1257 0
M  V30 15710 H 1444.84 -2.15034 -5.71483 0
M  V30 15711 H 1446.25 -3.86945 -4.23021 0
M  V30 15712 H 1444.65 -4.57855 -3.87929 0
M  V30 15713 H 1445.72 -4.13159 -2.53827 0
M  V30 15714 N 1447.06 0.947303 -1.25952 0
M  V30 15715 C 1447.99 2.0487 -1.02767 0
M  V30 15716 C 1449 1.62797 0.00985984 0
M  V30 15717 O 1450.19 1.77018 -0.229527 0
M  V30 15718 C 1447.29 3.34682 -0.533048 0
M  V30 15719 C 1446.47 4.05555 -1.63841 0
M  V30 15720 C 1445.53 5.13638 -1.1429 0
M  V30 15721 O 1444.55 5.38682 -1.83876 0
M  V30 15722 N 1445.75 5.80499 0.0119377 0
M  V30 15723 H 1448.52 2.25327 -1.97605 0
M  V30 15724 H 1446.08 1.11636 -1.17256 0
M  V30 15725 H 1448.07 4.04273 -0.185868 0
M  V30 15726 H 1446.64 3.10941 0.321585 0
M  V30 15727 H 1445.86 3.29962 -2.15683 0
M  V30 15728 H 1447.15 4.49661 -2.38081 0
M  V30 15729 H 1446.55 5.62581 0.593212 0
M  V30 15730 H 1445.1 6.51109 0.30009 0
M  V30 15731 N 1448.54 1.07657 1.15099 0
M  V30 15732 C 1449.77 0.822825 1.89835 0
M  V30 15733 C 1450.18 -0.624281 1.7818 0
M  V30 15734 O 1449.54 -1.42844 1.13587 0
M  V30 15735 C 1449.59 1.22598 3.40076 0
M  V30 15736 O 1449.31 2.61631 3.51398 0
M  V30 15737 C 1450.81 1.00199 4.31828 0
M  V30 15738 H 1448.03 0.297288 0.601549 0
M  V30 15739 H 1450.58 1.43384 1.45813 0
M  V30 15740 H 1448.73 0.65923 3.8175 0
M  V30 15741 H 1449.14 2.78163 4.44664 0
M  V30 15742 H 1450.62 1.33355 5.35649 0
M  V30 15743 H 1451.1 -0.0614865 4.39157 0
M  V30 15744 H 1451.7 1.5538 3.959 0
M  V30 15745 N 1450.02 -1.31994 0.861122 0
M  V30 15746 C 1450.96 -2.30666 0.299352 0
M  V30 15747 C 1451.96 -1.59133 -0.580779 0
M  V30 15748 O 1453.16 -1.73813 -0.467864 0
M  V30 15749 H 1449.54 -0.747932 0.0781091 0
M  V30 15750 H 1451.51 -2.7553 1.14567 0
M  V30 15751 C 1450.26 -3.44203 -0.491883 0
M  V30 15752 H 1449.58 -3.99412 0.17608 0
M  V30 15753 H 1451.02 -4.15384 -0.850434 0
M  V30 15754 C 1449.48 -2.92042 -1.67967 0
M  V30 15755 O 1450.01 -2.90073 -2.77886 0
M  V30 15756 N 1448.22 -2.48358 -1.50887 0
M  V30 15757 H 1447.76 -2.50159 -0.614683 0
M  V30 15758 H 1447.72 -2.13813 -2.30503 0
M  V30 15759 N 1451.49 -0.619688 -1.44906 0
M  V30 15760 C 1452.91 -0.203309 -1.8559 0
M  V30 15761 C 1453.26 1.24265 -1.51831 0
M  V30 15762 O 1452.38 1.94392 -0.950819 0
M  V30 15763 C 1452.98 -0.362204 -3.36858 0
M  V30 15764 C 1451.54 -0.000423575 -3.764 0
M  V30 15765 C 1450.68 -0.680979 -2.68808 0
M  V30 15766 H 1453.63 -0.825595 -1.35535 0
M  V30 15767 H 1453.65 0.402149 -3.78369 0
M  V30 15768 H 1453.17 -1.41468 -3.61398 0
M  V30 15769 H 1451.27 1.05077 -3.57477 0
M  V30 15770 H 1451.38 -0.402508 -4.77406 0
M  V30 15771 H 1449.74 -0.117407 -2.54429 0
M  V30 15772 H 1450.53 -1.73583 -2.96182 0
M  V30 15773 N 1452.97 1.53444 -0.359552 0
M  V30 15774 C 1454.2 2.05584 0.232953 0
M  V30 15775 C 1454.62 1.23347 1.42937 0
M  V30 15776 O 1453.97 0.272662 1.80452 0
M  V30 15777 C 1454.02 3.55926 0.632359 0
M  V30 15778 O 1453.74 4.35045 -0.516494 0
M  V30 15779 C 1455.25 4.24301 1.28389 0
M  V30 15780 H 1452.47 0.669676 0.042132 0
M  V30 15781 H 1455.01 1.97878 -0.516176 0
M  V30 15782 H 1453.16 3.63802 1.33141 0
M  V30 15783 H 1453.58 5.24138 -0.194906 0
M  V30 15784 H 1455.05 5.30832 1.51397 0
M  V30 15785 H 1455.53 3.77644 2.24236 0
M  V30 15786 H 1456.14 4.20661 0.626438 0
M  V30 15787 N 1454.45 0.0885642 1.57351 0
M  V30 15788 C 1455.68 -0.584389 1.98163 0
M  V30 15789 C 1456.09 -1.62664 0.966281 0
M  V30 15790 O 1455.43 -1.83623 -0.053226 0
M  V30 15791 C 1455.49 -1.2959 3.35331 0
M  V30 15792 C 1455.16 -0.405168 4.552 0
M  V30 15793 C 1456.15 0.344053 5.1876 0
M  V30 15794 C 1453.84 -0.325136 5.01247 0
M  V30 15795 C 1455.83 1.16135 6.26731 0
M  V30 15796 C 1453.52 0.495821 6.09085 0
M  V30 15797 C 1454.52 1.23772 6.71691 0
M  V30 15798 O 1454.21 2.04511 7.77451 0
M  V30 15799 H 1453.94 -0.161852 0.656338 0
M  V30 15800 H 1456.49 0.162558 2.04756 0
M  V30 15801 H 1454.72 -2.08928 3.25401 0
M  V30 15802 H 1456.41 -1.86274 3.60634 0
M  V30 15803 H 1457.18 0.291916 4.84121 0
M  V30 15804 H 1453.06 -0.892245 4.52283 0
M  V30 15805 H 1456.6 1.74093 6.75528 0
M  V30 15806 H 1452.5 0.549463 6.43157 0
M  V30 15807 H 1453.27 1.97123 7.94409 0
M  V30 15808 N 1455.93 -1.56509 -0.185096 0
M  V30 15809 C 1456.86 -1.98363 -1.23184 0
M  V30 15810 C 1457.84 -0.85709 -1.46929 0
M  V30 15811 O 1459.02 -1.12216 -1.58497 0
M  V30 15812 C 1456.15 -2.33172 -2.57387 0
M  V30 15813 C 1455.11 -3.48658 -2.48236 0
M  V30 15814 C 1454.43 -3.69171 -3.86804 0
M  V30 15815 C 1455.73 -4.82538 -1.99885 0
M  V30 15816 H 1457.43 -2.86053 -0.883982 0
M  V30 15817 H 1454.97 -1.37623 -0.423786 0
M  V30 15818 H 1456.93 -2.61048 -3.30805 0
M  V30 15819 H 1455.65 -1.42377 -2.93933 0
M  V30 15820 H 1454.31 -3.20889 -1.77273 0
M  V30 15821 H 1453.96 -2.75689 -4.20719 0
M  V30 15822 H 1453.66 -4.46868 -3.81553 0
M  V30 15823 H 1455.18 -3.99433 -4.61829 0
M  V30 15824 H 1456.6 -5.0938 -2.63068 0
M  V30 15825 H 1454.99 -5.63775 -2.05614 0
M  V30 15826 H 1456.06 -4.75453 -0.952503 0
M  V30 15827 N 1457.41 0.45317 -1.50944 0
M  V30 15828 C 1458.37 1.5313 -1.7054 0
M  V30 15829 C 1459.37 1.50142 -0.575678 0
M  V30 15830 O 1460.56 1.52444 -0.842997 0
M  V30 15831 C 1457.69 2.92719 -1.74723 0
M  V30 15832 H 1458.88 1.37066 -2.66745 0
M  V30 15833 H 1456.44 0.680783 -1.40695 0
M  V30 15834 H 1457.17 3.14208 -0.802753 0
M  V30 15835 H 1456.96 2.96295 -2.56811 0
M  V30 15836 H 1458.45 3.7096 -1.91777 0
M  V30 15837 N 1458.88 1.40823 0.707568 0
M  V30 15838 C 1459.83 1.41724 1.82162 0
M  V30 15839 C 1460.8 0.273135 1.63839 0
M  V30 15840 O 1461.99 0.472399 1.84859 0
M  V30 15841 C 1459.13 1.29347 3.19943 0
M  V30 15842 C 1458.24 2.53529 3.49782 0
M  V30 15843 C 1457.37 2.33533 4.77112 0
M  V30 15844 C 1456.41 3.53252 4.9988 0
M  V30 15845 N 1455.55 3.32401 6.18429 0
M  V30 15846 H 1460.39 2.36943 1.80726 0
M  V30 15847 H 1457.93 1.17671 0.882723 0
M  V30 15848 H 1459.89 1.20175 3.99517 0
M  V30 15849 H 1458.52 0.377426 3.20586 0
M  V30 15850 H 1457.57 2.73198 2.64702 0
M  V30 15851 H 1458.88 3.42617 3.62512 0
M  V30 15852 H 1458.03 2.2176 5.64719 0
M  V30 15853 H 1456.77 1.41883 4.66605 0
M  V30 15854 H 1455.78 3.65492 4.10725 0
M  V30 15855 H 1457 4.4584 5.12253 0
M  V30 15856 H 1454.95 2.4344 6.09158 0
M  V30 15857 H 1454.87 4.15059 6.31872 0
M  V30 15858 H 1456.13 3.24377 7.08802 0
M  V30 15859 N 1460.36 -0.94061 1.26453 0
M  V30 15860 C 1461.29 -2.05667 1.10559 0
M  V30 15861 C 1462.27 -1.70097 0.0106258 0
M  V30 15862 O 1463.46 -1.93338 0.182756 0
M  V30 15863 C 1460.59 -3.3936 0.7384 0
M  V30 15864 C 1459.54 -3.88993 1.78517 0
M  V30 15865 C 1458.87 -5.19343 1.27228 0
M  V30 15866 C 1460.17 -4.13812 3.1868 0
M  V30 15867 H 1461.86 -2.19221 2.03918 0
M  V30 15868 H 1459.41 -1.05339 0.98182 0
M  V30 15869 H 1461.36 -4.16902 0.61409 0
M  V30 15870 H 1460.09 -3.25783 -0.230887 0
M  V30 15871 H 1458.74 -3.13633 1.89816 0
M  V30 15872 H 1458.39 -5.02147 0.292816 0
M  V30 15873 H 1458.09 -5.53521 1.97201 0
M  V30 15874 H 1459.62 -5.99468 1.16065 0
M  V30 15875 H 1461.03 -4.81966 3.10455 0
M  V30 15876 H 1459.43 -4.59273 3.86249 0
M  V30 15877 H 1460.5 -3.19571 3.64695 0
M  V30 15878 N 1461.84 -1.08266 -1.14527 0
M  V30 15879 C 1463.09 -0.806405 -1.84878 0
M  V30 15880 C 1463.4 0.670151 -1.83762 0
M  V30 15881 O 1464.61 1.06151 -2.49888 0
M  V30 15882 C 1463.06 -1.39257 -3.31867 0
M  V30 15883 C 1462.67 -2.90081 -3.41404 0
M  V30 15884 C 1464.42 -1.19475 -4.0734 0
M  V30 15885 C 1462.32 -3.41842 -4.82595 0
M  V30 15886 H 1461.25 -0.297993 -0.692615 0
M  V30 15887 H 1463.9 -1.30389 -1.29116 0
M  V30 15888 H 1462.29 -0.822802 -3.87358 0
M  V30 15889 H 1463.46 -3.53182 -2.95971 0
M  V30 15890 H 1461.78 -3.08761 -2.79385 0
M  V30 15891 H 1464.37 -1.55614 -5.11555 0
M  V30 15892 H 1464.72 -0.134455 -4.16083 0
M  V30 15893 H 1465.25 -1.73138 -3.58145 0
M  V30 15894 H 1461.99 -4.47439 -4.79039 0
M  V30 15895 H 1461.51 -2.835 -5.28572 0
M  V30 15896 H 1463.19 -3.38346 -5.51481 0
M  V30 15897 N 1463.32 1.31536 -0.86811 0
M  V30 15898 C 1464.57 1.96775 -0.47812 0
M  V30 15899 C 1464.89 1.68632 0.9692 0
M  V30 15900 O 1464.15 0.974357 1.6972 0
M  V30 15901 C 1464.45 3.50876 -0.679752 0
M  V30 15902 C 1464.11 3.99034 -2.09958 0
M  V30 15903 C 1462.78 4.11896 -2.48787 0
M  V30 15904 C 1465.13 4.24387 -3.02564 0
M  V30 15905 C 1462.46 4.47461 -3.79468 0
M  V30 15906 C 1464.81 4.61415 -4.32757 0
M  V30 15907 C 1463.47 4.72484 -4.71503 0
M  V30 15908 H 1462.74 0.720049 -0.174957 0
M  V30 15909 H 1465.39 1.56703 -1.10074 0
M  V30 15910 H 1463.69 3.91791 0.0260174 0
M  V30 15911 H 1465.39 3.994 -0.357855 0
M  V30 15912 H 1461.98 3.89518 -1.78811 0
M  V30 15913 H 1466.17 4.13947 -2.73791 0
M  V30 15914 H 1461.42 4.54227 -4.09252 0
M  V30 15915 H 1465.6 4.79985 -5.04566 0
M  V30 15916 H 1463.22 4.99798 -5.72806 0
M  V30 15917 N 1464.8 0.627364 1.44575 0
M  V30 15918 C 1465.73 -0.118179 2.28895 0
M  V30 15919 C 1466.74 -0.812569 1.41071 0
M  V30 15920 O 1467.93 -0.674646 1.6526 0
M  V30 15921 C 1465.03 -1.18937 3.17344 0
M  V30 15922 C 1464.2 -0.578226 4.33561 0
M  V30 15923 C 1463.26 -1.54288 5.03072 0
M  V30 15924 O 1462.29 -1.06148 5.59215 0
M  V30 15925 N 1463.49 -2.87725 5.04177 0
M  V30 15926 H 1466.26 0.605442 2.93521 0
M  V30 15927 H 1463.82 0.468253 1.54981 0
M  V30 15928 H 1465.81 -1.83494 3.60711 0
M  V30 15929 H 1464.38 -1.81526 2.54494 0
M  V30 15930 H 1463.6 0.245883 3.93432 0
M  V30 15931 H 1464.89 -0.150502 5.08577 0
M  V30 15932 H 1464.29 -3.29421 4.5989 0
M  V30 15933 H 1462.84 -3.47653 5.51344 0
M  V30 15934 N 1466.28 -1.53251 0.367684 0
M  V30 15935 C 1467.21 -2.22163 -0.521418 0
M  V30 15936 C 1468.19 -1.21433 -1.08133 0
M  V30 15937 O 1469.37 -1.50343 -1.13706 0
M  V30 15938 C 1466.5 -2.91799 -1.71962 0
M  V30 15939 C 1465.54 -4.0662 -1.28696 0
M  V30 15940 S 1466.38 -5.34733 -0.286505 0
M  V30 15941 C 1467.53 -6.07882 -1.49099 0
M  V30 15942 H 1467.77 -2.97231 0.0638317 0
M  V30 15943 H 1465.3 -1.53652 0.151795 0
M  V30 15944 H 1467.26 -3.32533 -2.40691 0
M  V30 15945 H 1465.92 -2.16451 -2.27613 0
M  V30 15946 H 1465.11 -4.54366 -2.181 0
M  V30 15947 H 1464.71 -3.67787 -0.67887 0
M  V30 15948 H 1467 -6.32741 -2.42167 0
M  V30 15949 H 1467.95 -7.00199 -1.05487 0
M  V30 15950 H 1468.36 -5.38357 -1.698 0
M  V30 15951 N 1467.75 -0.0969077 -1.57302 0
M  V30 15952 C 1469.16 0.431942 -1.81635 0
M  V30 15953 C 1469.52 1.68047 -1.01264 0
M  V30 15954 O 1468.64 2.15036 -0.24256 0
M  V30 15955 C 1469.24 0.790426 -3.29451 0
M  V30 15956 C 1467.79 1.26401 -3.54542 0
M  V30 15957 C 1466.94 0.26158 -2.76063 0
M  V30 15958 H 1469.89 -0.322328 -1.55392 0
M  V30 15959 H 1469.91 1.64981 -3.42873 0
M  V30 15960 H 1469.43 -0.118463 -3.87919 0
M  V30 15961 H 1467.53 2.19055 -3.01406 0
M  V30 15962 H 1467.64 1.22459 -4.63185 0
M  V30 15963 H 1466 0.7441 -2.43588 0
M  V30 15964 H 1466.79 -0.640018 -3.37281 0
M  V30 15965 N 1469.23 1.56605 0.176793 0
M  V30 15966 C 1470.16 1.9254 1.24342 0
M  V30 15967 C 1471.18 0.81792 1.40762 0
M  V30 15968 O 1472.37 1.09636 1.40862 0
M  V30 15969 C 1469.47 2.15822 2.61293 0
M  V30 15970 C 1468.64 3.47035 2.66243 0
M  V30 15971 C 1467.7 3.5921 3.84519 0
M  V30 15972 O 1466.72 4.31876 3.70771 0
M  V30 15973 N 1467.93 2.93653 5.00748 0
M  V30 15974 H 1470.69 2.84635 0.938246 0
M  V30 15975 H 1468.25 1.57695 0.366597 0
M  V30 15976 H 1470.24 2.21237 3.38875 0
M  V30 15977 H 1468.81 1.30138 2.84223 0
M  V30 15978 H 1468.03 3.53326 1.74798 0
M  V30 15979 H 1469.32 4.33388 2.66557 0
M  V30 15980 H 1468.72 2.34476 5.14818 0
M  V30 15981 H 1467.28 3.04671 5.76211 0
M  V30 15982 N 1470.71 -0.445159 1.51182 0
M  V30 15983 C 1471.66 -1.5604 1.72494 0
M  V30 15984 C 1472.65 -1.58753 0.591101 0
M  V30 15985 O 1473.86 -1.62591 0.772285 0
M  V30 15986 H 1470.23 -0.518265 0.544891 0
M  V30 15987 H 1472.2 -1.35237 2.65995 0
M  V30 15988 C 1470.95 -2.93768 1.85999 0
M  V30 15989 H 1470.28 -2.9241 2.72647 0
M  V30 15990 H 1471.72 -3.71189 2.04926 0
M  V30 15991 C 1470.17 -3.31186 0.617853 0
M  V30 15992 O 1470.7 -4.01035 -0.231101 0
M  V30 15993 N 1468.91 -2.86868 0.464234 0
M  V30 15994 H 1468.46 -2.30198 1.15614 0
M  V30 15995 H 1468.42 -3.12267 -0.365643 0
M  V30 15996 N 1472.19 -1.41197 -0.700089 0
M  V30 15997 C 1473.13 -1.42688 -1.81407 0
M  V30 15998 C 1474.1 -0.28182 -1.63692 0
M  V30 15999 O 1475.29 -0.482196 -1.84606 0
M  V30 16000 C 1472.43 -1.31041 -3.19252 0
M  V30 16001 C 1471.54 -2.5538 -3.48432 0
M  V30 16002 C 1470.68 -2.3606 -4.75867 0
M  V30 16003 C 1469.72 -3.55898 -4.97999 0
M  V30 16004 N 1468.85 -3.35676 -6.16657 0
M  V30 16005 H 1473.69 -2.37898 -1.79467 0
M  V30 16006 H 1471.23 -1.18137 -0.87647 0
M  V30 16007 H 1473.19 -1.22292 -3.98874 0
M  V30 16008 H 1471.82 -0.394422 -3.20381 0
M  V30 16009 H 1470.87 -2.74598 -2.6325 0
M  V30 16010 H 1472.18 -3.44535 -3.6069 0
M  V30 16011 H 1471.34 -2.24752 -5.63535 0
M  V30 16012 H 1470.08 -1.44355 -4.65846 0
M  V30 16013 H 1469.08 -3.67665 -4.08781 0
M  V30 16014 H 1470.31 -4.4855 -5.09882 0
M  V30 16015 H 1468.25 -2.46667 -6.07858 0
M  V30 16016 H 1468.17 -4.18404 -6.29662 0
M  V30 16017 H 1469.44 -3.28132 -7.07071 0
M  V30 16018 N 1473.67 0.933891 -1.2695 0
M  V30 16019 C 1474.89 1.72042 -1.15828 0
M  V30 16020 C 1475.32 1.85975 0.28193 0
M  V30 16021 O 1474.67 1.35528 1.20423 0
M  V30 16022 C 1474.72 3.10112 -1.84019 0
M  V30 16023 O 1473.83 3.96504 -1.13394 0
M  V30 16024 H 1473.17 0.527573 -0.40319 0
M  V30 16025 H 1475.7 1.16914 -1.67905 0
M  V30 16026 H 1475.71 3.60461 -1.91133 0
M  V30 16027 H 1474.38 2.99287 -2.8879 0
M  V30 16028 H 1472.96 3.54948 -1.14307 0
M  V30 16029 N 1475.14 1.08871 1.13951 0
M  V30 16030 C 1476.37 0.842913 1.88951 0
M  V30 16031 C 1476.79 -0.605348 1.78832 0
M  V30 16032 O 1476.14 -1.41631 1.15095 0
M  V30 16033 C 1476.19 1.26198 3.38757 0
M  V30 16034 O 1475.92 2.65344 3.48603 0
M  V30 16035 C 1477.42 1.04773 4.30741 0
M  V30 16036 H 1474.64 0.303651 0.598362 0
M  V30 16037 H 1477.18 1.44922 1.44284 0
M  V30 16038 H 1475.34 0.699682 3.81029 0
M  V30 16039 H 1475.75 2.82863 4.41688 0
M  V30 16040 H 1477.22 1.39029 5.34205 0
M  V30 16041 H 1477.7 -0.0149046 4.39197 0
M  V30 16042 H 1478.31 1.5957 3.9423 0
M  V30 16043 N 1476.62 -1.31073 0.875073 0
M  V30 16044 C 1477.57 -2.28389 0.332718 0
M  V30 16045 C 1478.54 -1.55954 -0.571639 0
M  V30 16046 O 1479.72 -1.84073 -0.502185 0
M  V30 16047 C 1476.86 -3.42083 -0.455364 0
M  V30 16048 C 1475.98 -4.29358 0.477088 0
M  V30 16049 C 1475.11 -5.30201 -0.325619 0
M  V30 16050 C 1474.15 -6.09123 0.602935 0
M  V30 16051 N 1473.29 -7.01909 -0.163836 0
M  V30 16052 H 1478.13 -2.74166 1.16777 0
M  V30 16053 H 1475.66 -1.3487 0.587248 0
M  V30 16054 H 1477.62 -4.06746 -0.928104 0
M  V30 16055 H 1476.25 -2.97402 -1.25507 0
M  V30 16056 H 1475.3 -3.65091 1.06829 0
M  V30 16057 H 1476.62 -4.84425 1.18887 0
M  V30 16058 H 1475.77 -6.00565 -0.860647 0
M  V30 16059 H 1474.51 -4.75802 -1.07067 0
M  V30 16060 H 1473.51 -5.37645 1.14968 0
M  V30 16061 H 1474.74 -6.65609 1.34692 0
M  V30 16062 H 1472.69 -6.49913 -0.891604 0
M  V30 16063 H 1472.6 -7.5442 0.48851 0
M  V30 16064 H 1473.87 -7.76529 -0.679929 0
M  V30 16065 N 1478.1 -0.635022 -1.4424 0
M  V30 16066 C 1479.35 -0.141067 -2.02008 0
M  V30 16067 C 1479.68 1.23849 -1.49973 0
M  V30 16068 O 1478.93 1.83666 -0.675673 0
M  V30 16069 C 1479.23 -0.081191 -3.57308 0
M  V30 16070 C 1478.9 -1.40004 -4.28614 0
M  V30 16071 C 1477.56 -1.76125 -4.4781 0
M  V30 16072 C 1479.91 -2.27041 -4.6915 0
M  V30 16073 C 1477.24 -2.98982 -5.04804 0
M  V30 16074 C 1479.59 -3.49173 -5.27504 0
M  V30 16075 C 1478.25 -3.85512 -5.44919 0
M  V30 16076 H 1477.52 -0.05162 -0.7392 0
M  V30 16077 H 1480.17 -0.822112 -1.72955 0
M  V30 16078 H 1478.48 0.68324 -3.85797 0
M  V30 16079 H 1480.17 0.317584 -3.9974 0
M  V30 16080 H 1476.76 -1.10897 -4.14005 0
M  V30 16081 H 1480.95 -2.0043 -4.54028 0
M  V30 16082 H 1476.2 -3.27208 -5.16473 0
M  V30 16083 H 1480.38 -4.16847 -5.57864 0
M  V30 16084 H 1478 -4.80793 -5.88848 0
M  V30 16085 N 1479.58 1.53054 -0.375806 0
M  V30 16086 C 1480.51 2.22437 0.509628 0
M  V30 16087 C 1481.49 1.22005 1.07488 0
M  V30 16088 O 1482.67 1.50944 1.12907 0
M  V30 16089 C 1479.8 2.92707 1.70412 0
M  V30 16090 C 1478.85 4.07296 1.26538 0
M  V30 16091 S 1479.68 5.34877 0.258143 0
M  V30 16092 C 1480.84 6.08664 1.45873 0
M  V30 16093 H 1481.07 2.97193 -0.0795937 0
M  V30 16094 H 1478.6 1.53569 -0.159942 0
M  V30 16095 H 1480.56 3.33805 2.38924 0
M  V30 16096 H 1479.22 2.17655 2.26462 0
M  V30 16097 H 1478.41 4.55516 2.15687 0
M  V30 16098 H 1478.02 3.68142 0.659356 0
M  V30 16099 H 1480.31 6.34016 2.38808 0
M  V30 16100 H 1481.25 7.00748 1.01772 0
M  V30 16101 H 1481.66 5.3925 1.66942 0
M  V30 16102 N 1481.06 0.105248 1.57248 0
M  V30 16103 C 1482.33 -0.598871 1.86207 0
M  V30 16104 C 1482.71 -1.85698 1.00396 0
M  V30 16105 O 1482.06 -2.28363 0.0791093 0
M  V30 16106 C 1482.27 -0.904522 3.37075 0
M  V30 16107 C 1483.62 -1.26357 4.05363 0
M  V30 16108 O 1484.64 -0.99522 3.42014 0
M  V30 16109 O 1483.5 -1.76659 5.17159 0
M  V30 16110 H 1480.6 -0.300727 0.770384 0
M  V30 16111 H 1483.14 0.138713 1.69132 0
M  V30 16112 H 1481.91 -0.0123974 3.91298 0
M  V30 16113 H 1481.54 -1.69774 3.59531 0
M  V30 16114 N 1482.53 -1.56697 -0.168486 0
M  V30 16115 C 1483.76 -1.86652 -0.904195 0
M  V30 16116 C 1484.18 -0.691906 -1.74912 0
M  V30 16117 O 1483.54 0.358971 -1.77711 0
M  V30 16118 C 1483.59 -3.15043 -1.75442 0
M  V30 16119 O 1482.69 -2.97466 -2.85636 0
M  V30 16120 H 1482.04 -0.613859 -0.253128 0
M  V30 16121 H 1484.57 -2.03927 -0.165773 0
M  V30 16122 H 1484.58 -3.4652 -2.15378 0
M  V30 16123 H 1483.25 -4.00147 -1.13381 0
M  V30 16124 H 1481.83 -2.7735 -2.49262 0
M  V30 16125 N 1484.01 0.437135 -1.51416 0
M  V30 16126 C 1485.26 1.18831 -1.64338 0
M  V30 16127 C 1485.59 1.9086 -0.358638 0
M  V30 16128 O 1484.87 1.83607 0.641769 0
M  V30 16129 C 1485.15 2.20515 -2.84685 0
M  V30 16130 C 1485 1.52568 -4.23135 0
M  V30 16131 C 1486.32 3.21494 -3.00549 0
M  V30 16132 H 1483.44 0.430652 -0.598087 0
M  V30 16133 H 1486.08 0.47753 -1.83901 0
M  V30 16134 H 1484.23 2.81132 -2.68136 0
M  V30 16135 H 1485.9 0.952851 -4.51352 0
M  V30 16136 H 1484.15 0.828025 -4.25824 0
M  V30 16137 H 1484.82 2.26623 -5.03335 0
M  V30 16138 H 1487.29 2.7093 -3.1581 0
M  V30 16139 H 1486.17 3.89934 -3.86319 0
M  V30 16140 H 1486.43 3.8761 -2.12629 0
M  V30 16141 N 1485.49 1.41566 0.692592 0
M  V30 16142 C 1486.74 1.40381 1.44831 0
M  V30 16143 C 1487.05 0.0172068 1.95592 0
M  V30 16144 O 1488.26 -0.11726 2.71247 0
M  V30 16145 C 1486.71 2.46844 2.61908 0
M  V30 16146 C 1486.32 3.91426 2.17921 0
M  V30 16147 C 1488.07 2.548 3.39525 0
M  V30 16148 C 1485.97 4.89436 3.31974 0
M  V30 16149 H 1484.9 0.522062 0.544028 0
M  V30 16150 H 1487.55 1.67402 0.751589 0
M  V30 16151 H 1485.94 2.12959 3.33863 0
M  V30 16152 H 1487.11 4.34575 1.53236 0
M  V30 16153 H 1485.43 3.87158 1.5329 0
M  V30 16154 H 1488.02 3.25207 4.24434 0
M  V30 16155 H 1488.37 1.58579 3.84913 0
M  V30 16156 H 1488.9 2.87791 2.74629 0
M  V30 16157 H 1485.64 5.87071 2.91595 0
M  V30 16158 H 1485.16 4.50933 3.95499 0
M  V30 16159 H 1486.84 5.10331 3.97708 0
M  V30 16160 N 1486.97 -0.927146 1.27443 0
M  V30 16161 C 1488.22 -1.67489 1.13814 0
M  V30 16162 C 1488.54 -1.91917 -0.315914 0
M  V30 16163 O 1487.8 -1.5079 -1.24743 0
M  V30 16164 C 1488.1 -3.0472 1.86764 0
M  V30 16165 C 1487.76 -3 3.36617 0
M  V30 16166 C 1486.43 -2.9842 3.77491 0
M  V30 16167 C 1488.78 -2.91249 4.32231 0
M  V30 16168 C 1486.11 -2.85872 5.12342 0
M  V30 16169 C 1488.46 -2.80242 5.67139 0
M  V30 16170 C 1487.12 -2.77013 6.07306 0
M  V30 16171 H 1486.39 -0.612887 0.416474 0
M  V30 16172 H 1489.04 -1.0812 1.58058 0
M  V30 16173 H 1487.34 -3.67797 1.35029 0
M  V30 16174 H 1489.04 -3.61453 1.73646 0
M  V30 16175 H 1485.63 -3.02017 3.04111 0
M  V30 16176 H 1489.81 -2.91567 4.01625 0
M  V30 16177 H 1485.07 -2.81758 5.42607 0
M  V30 16178 H 1489.24 -2.72437 6.40899 0
M  V30 16179 H 1486.87 -2.67047 7.11751 0
M  V30 16180 N 1488.45 -1.09474 -1.13372 0
M  V30 16181 C 1489.67 -0.852921 -1.88502 0
M  V30 16182 C 1490.09 0.595855 -1.79151 0
M  V30 16183 O 1489.45 1.41019 -1.15845 0
M  V30 16184 C 1489.5 -1.27993 -3.38083 0
M  V30 16185 O 1489.22 -2.67189 -3.47191 0
M  V30 16186 C 1490.72 -1.07056 -4.30179 0
M  V30 16187 H 1487.94 -0.30682 -0.596743 0
M  V30 16188 H 1490.48 -1.45685 -1.43513 0
M  V30 16189 H 1488.64 -0.719879 -3.80653 0
M  V30 16190 H 1489.05 -2.85202 -4.40182 0
M  V30 16191 H 1490.53 -1.4186 -5.3346 0
M  V30 16192 H 1491 -0.00838732 -4.39199 0
M  V30 16193 H 1491.61 -1.61659 -3.93378 0
M  V30 16194 N 1489.92 1.30607 -0.882012 0
M  V30 16195 C 1490.85 2.30666 -0.362706 0
M  V30 16196 C 1491.84 1.60865 0.552861 0
M  V30 16197 O 1493.02 1.88493 0.467339 0
M  V30 16198 C 1490.15 3.44675 0.42622 0
M  V30 16199 C 1489.1 4.26152 -0.397322 0
M  V30 16200 C 1488.43 5.32185 0.518027 0
M  V30 16201 C 1489.73 4.95955 -1.63785 0
M  V30 16202 H 1491.42 2.74351 -1.19883 0
M  V30 16203 H 1488.97 1.31895 -0.577912 0
M  V30 16204 H 1490.92 4.13734 0.80013 0
M  V30 16205 H 1489.65 2.99787 1.29597 0
M  V30 16206 H 1488.31 3.58776 -0.753332 0
M  V30 16207 H 1487.95 4.83545 1.3854 0
M  V30 16208 H 1487.65 5.87593 -0.0291802 0
M  V30 16209 H 1489.18 6.04101 0.888518 0
M  V30 16210 H 1490.59 5.57547 -1.3347 0
M  V30 16211 H 1488.99 5.61215 -2.12504 0
M  V30 16212 H 1490.06 4.22252 -2.38394 0
M  V30 16213 N 1491.4 0.642663 1.43901 0
M  V30 16214 C 1492.63 0.158971 2.05987 0
M  V30 16215 C 1493.04 -1.17635 1.48184 0
M  V30 16216 O 1492.38 -1.73499 0.603634 0
M  V30 16217 C 1492.45 -0.0178946 3.59496 0
M  V30 16218 C 1492.11 1.24107 4.39826 0
M  V30 16219 C 1493.11 2.16742 4.72566 0
M  V30 16220 C 1490.79 1.47971 4.8001 0
M  V30 16221 C 1492.79 3.31541 5.44389 0
M  V30 16222 C 1490.47 2.63065 5.5158 0
M  V30 16223 C 1491.47 3.54676 5.8369 0
M  V30 16224 O 1491.16 4.67763 6.53799 0
M  V30 16225 H 1490.89 0.0822826 0.670974 0
M  V30 16226 H 1493.44 0.880492 1.85571 0
M  V30 16227 H 1491.67 -0.79468 3.78446 0
M  V30 16228 H 1493.36 -0.457601 4.03312 0
M  V30 16229 H 1494.13 1.99543 4.42049 0
M  V30 16230 H 1490.01 0.775488 4.54431 0
M  V30 16231 H 1493.55 4.03069 5.69369 0
M  V30 16232 H 1489.45 2.80202 5.81513 0
M  V30 16233 H 1490.22 4.66892 6.72275 0
M  V30 16234 N 1492.88 -1.52852 0.383918 0
M  V30 16235 C 1493.83 -2.27828 -0.468762 0
M  V30 16236 C 1494.82 -1.31516 -1.0677 0
M  V30 16237 O 1496.03 -1.49075 -1.0088 0
M  V30 16238 H 1492.4 -0.732552 -0.169917 0
M  V30 16239 H 1494.38 -2.97825 0.185124 0
M  V30 16240 C 1493.12 -3.09378 -1.58683 0
M  V30 16241 H 1492.45 -3.83343 -1.13527 0
M  V30 16242 H 1493.89 -3.64987 -2.15779 0
M  V30 16243 C 1492.35 -2.21354 -2.53976 0
M  V30 16244 O 1492.88 -1.83668 -3.57252 0
M  V30 16245 N 1491.08 -1.85621 -2.23591 0
M  V30 16246 H 1490.63 -2.16467 -1.39642 0
M  V30 16247 H 1490.59 -1.27015 -2.87602 0
M  V30 16248 N 1494.36 -0.113586 -1.5719 0
M  V30 16249 C 1495.59 0.552789 -1.99067 0
M  V30 16250 C 1496 1.61106 -0.992038 0
M  V30 16251 O 1495.34 1.83684 0.0240065 0
M  V30 16252 C 1495.4 1.24239 -3.3735 0
M  V30 16253 C 1495.07 0.332699 -4.55787 0
M  V30 16254 C 1496.06 -0.42654 -5.18147 0
M  V30 16255 C 1493.75 0.245351 -5.017 0
M  V30 16256 C 1495.74 -1.26091 -6.24804 0
M  V30 16257 C 1493.43 -0.592659 -6.08219 0
M  V30 16258 C 1494.43 -1.34443 -6.69637 0
M  V30 16259 O 1494.12 -2.16853 -7.74099 0
M  V30 16260 H 1493.85 0.15139 -0.65883 0
M  V30 16261 H 1496.4 -0.195113 -2.04471 0
M  V30 16262 H 1494.63 2.03725 -3.28684 0
M  V30 16263 H 1496.32 1.80513 -3.63552 0
M  V30 16264 H 1497.09 -0.368898 -4.83595 0
M  V30 16265 H 1492.97 0.820178 -4.53645 0
M  V30 16266 H 1496.51 -1.84818 -6.72672 0
M  V30 16267 H 1492.41 -0.651714 -6.42202 0
M  V30 16268 H 1493.17 -2.09736 -7.91172 0
M  V30 16269 N 1495.84 1.56784 0.160173 0
M  V30 16270 C 1496.8 1.96373 1.18195 0
M  V30 16271 C 1497.8 0.848674 1.3658 0
M  V30 16272 O 1498.99 1.11553 1.33796 0
M  V30 16273 C 1496.12 2.26824 2.54487 0
M  V30 16274 H 1497.32 2.87819 0.842641 0
M  V30 16275 H 1494.87 1.51014 0.403038 0
M  V30 16276 H 1495.6 1.38129 2.93413 0
M  V30 16277 H 1495.39 3.08112 2.42507 0
M  V30 16278 H 1496.88 2.58337 3.28104 0
M  V30 16279 N 1497.32 -0.429099 1.51646 0
M  V30 16280 C 1498.54 -1.20465 1.68828 0
M  V30 16281 C 1498.97 -1.84044 0.388514 0
M  V30 16282 O 1498.32 -1.69165 -0.652152 0
M  V30 16283 C 1498.37 -2.25831 2.81128 0
M  V30 16284 O 1497.48 -3.31511 2.45305 0
M  V30 16285 H 1496.82 -0.352568 0.562665 0
M  V30 16286 H 1499.35 -0.505698 1.98252 0
M  V30 16287 H 1499.36 -2.70484 3.05455 0
M  V30 16288 H 1498.03 -1.78934 3.7544 0
M  V30 16289 H 1496.61 -2.92277 2.31579 0
M  V30 16290 N 1498.79 -1.41931 -0.685074 0
M  V30 16291 C 1499.74 -1.44824 -1.82013 0
M  V30 16292 C 1500.74 -0.325083 -1.66252 0
M  V30 16293 O 1501.94 -0.497614 -1.72985 0
M  V30 16294 H 1498.32 -0.453362 -0.599972 0
M  V30 16295 H 1500.29 -2.40464 -1.76691 0
M  V30 16296 C 1499.04 -1.35753 -3.20104 0
M  V30 16297 H 1498.36 -2.21469 -3.32854 0
M  V30 16298 H 1499.8 -1.41838 -3.99572 0
M  V30 16299 C 1498.26 -0.0710816 -3.36825 0
M  V30 16300 O 1498.79 0.880155 -3.91939 0
M  V30 16301 N 1496.99 0.00842652 -2.90599 0
M  V30 16302 H 1496.54 -0.766427 -2.45934 0
M  V30 16303 H 1496.5 0.868559 -3.02165 0
M  V30 16304 N 1500.27 0.920374 -1.27933 0
M  V30 16305 C 1501.2 2.02644 -1.07089 0
M  V30 16306 C 1502.22 1.62781 -0.024674 0
M  V30 16307 O 1503.41 1.76491 -0.267023 0
M  V30 16308 C 1500.51 3.33476 -0.603919 0
M  V30 16309 C 1499.68 4.01988 -1.72407 0
M  V30 16310 C 1498.74 5.11098 -1.25159 0
M  V30 16311 O 1497.76 5.3466 -1.95261 0
M  V30 16312 N 1498.97 5.80393 -0.111197 0
M  V30 16313 H 1501.73 2.21085 -2.0234 0
M  V30 16314 H 1499.29 1.09124 -1.19597 0
M  V30 16315 H 1501.28 4.03788 -0.271579 0
M  V30 16316 H 1499.85 3.11554 0.255557 0
M  V30 16317 H 1499.07 3.25312 -2.22633 0
M  V30 16318 H 1500.36 4.4451 -2.47566 0
M  V30 16319 H 1499.76 5.63713 0.473746 0
M  V30 16320 H 1498.32 6.51599 0.161912 0
M  V30 16321 N 1501.75 1.10074 1.1279 0
M  V30 16322 C 1503.17 0.831776 1.36212 0
M  V30 16323 C 1503.37 -0.550632 1.93831 0
M  V30 16324 O 1502.42 -1.30422 2.16209 0
M  V30 16325 C 1503.73 1.92844 2.3072 0
M  V30 16326 C 1505.28 1.95645 2.4432 0
M  V30 16327 C 1505.76 3.04474 3.4214 0
M  V30 16328 N 1507.25 3.03756 3.49695 0
M  V30 16329 C 1507.98 3.84605 4.25284 0
M  V30 16330 N 1507.48 4.7538 5.0397 0
M  V30 16331 N 1509.27 3.72838 4.20652 0
M  V30 16332 H 1501.42 1.99187 0.737452 0
M  V30 16333 H 1503.69 0.865383 0.387062 0
M  V30 16334 H 1503.39 2.92323 1.9555 0
M  V30 16335 H 1503.27 1.81241 3.30805 0
M  V30 16336 H 1505.65 0.968004 2.78772 0
M  V30 16337 H 1505.73 2.11325 1.44136 0
M  V30 16338 H 1505.38 4.03536 3.08418 0
M  V30 16339 H 1505.31 2.86036 4.42144 0
M  V30 16340 H 1507.8 2.37977 2.93556 0
M  V30 16341 H 1508.11 5.33637 5.58974 0
M  V30 16342 H 1506.46 4.79411 5.0318 0
M  V30 16343 H 1509.65 3.01276 3.5826 0
M  V30 16344 H 1509.82 4.36083 4.79308 0
M  V30 16345 N 1503.23 -1.30138 0.888926 0
M  V30 16346 C 1504.14 -2.31778 0.3628 0
M  V30 16347 C 1505.15 -1.65507 -0.53698 0
M  V30 16348 O 1506.33 -1.96775 -0.429152 0
M  V30 16349 C 1503.39 -3.44259 -0.410673 0
M  V30 16350 C 1502.46 -4.26147 0.519334 0
M  V30 16351 C 1501.69 -5.33257 -0.21732 0
M  V30 16352 O 1501.91 -5.5185 -1.44284 0
M  V30 16353 O 1500.85 -6.00329 0.43461 0
M  V30 16354 H 1504.67 -2.78739 1.20575 0
M  V30 16355 H 1502.26 -1.34379 0.65289 0
M  V30 16356 H 1504.14 -4.1277 -0.848467 0
M  V30 16357 H 1502.81 -2.99426 -1.22986 0
M  V30 16358 H 1501.72 -3.60319 1.00602 0
M  V30 16359 H 1503.05 -4.74595 1.30464 0
M  V30 16360 N 1504.71 -0.650285 -1.43559 0
M  V30 16361 C 1505.62 0.0438076 -2.34559 0
M  V30 16362 C 1506.63 0.815316 -1.53716 0
M  V30 16363 O 1507.81 0.76323 -1.86378 0
M  V30 16364 C 1504.87 1.00028 -3.31957 0
M  V30 16365 C 1503.93 0.226027 -4.28705 0
M  V30 16366 C 1503.17 1.13694 -5.21449 0
M  V30 16367 O 1503.39 2.37614 -5.18551 0
M  V30 16368 O 1502.32 0.610924 -5.98792 0
M  V30 16369 H 1506.15 -0.705152 -2.954 0
M  V30 16370 H 1503.73 -0.410471 -1.43651 0
M  V30 16371 H 1505.62 1.55004 -3.91857 0
M  V30 16372 H 1504.29 1.72952 -2.73623 0
M  V30 16373 H 1503.2 -0.367244 -3.72293 0
M  V30 16374 H 1504.53 -0.463582 -4.90012 0
M  V30 16375 N 1506.18 1.52647 -0.392018 0
M  V30 16376 C 1507.41 2.05734 0.189018 0
M  V30 16377 C 1507.82 1.26338 1.40838 0
M  V30 16378 O 1507.16 0.303866 1.81169 0
M  V30 16379 C 1507.23 3.54095 0.621026 0
M  V30 16380 C 1506.89 4.54416 -0.485249 0
M  V30 16381 C 1507.89 5.02241 -1.3435 0
M  V30 16382 C 1505.57 4.98037 -0.653055 0
M  V30 16383 C 1507.57 5.92313 -2.35467 0
M  V30 16384 C 1505.25 5.87908 -1.66755 0
M  V30 16385 C 1506.25 6.34939 -2.51677 0
M  V30 16386 O 1505.94 7.23034 -3.51392 0
M  V30 16387 H 1505.67 0.675266 0.0315024 0
M  V30 16388 H 1508.23 1.97717 -0.556535 0
M  V30 16389 H 1506.46 3.5974 1.4186 0
M  V30 16390 H 1508.14 3.8991 1.12804 0
M  V30 16391 H 1508.91 4.6927 -1.22518 0
M  V30 16392 H 1504.79 4.61 -0.00176071 0
M  V30 16393 H 1508.33 6.28944 -3.01786 0
M  V30 16394 H 1504.23 6.20293 -1.78624 0
M  V30 16395 H 1505 7.41102 -3.47433 0
M  V30 16396 N 1507.66 0.121921 1.57128 0
M  V30 16397 C 1508.59 -0.823788 2.18486 0
M  V30 16398 C 1509.57 -1.27519 1.12574 0
M  V30 16399 O 1510.76 -1.33727 1.40822 0
M  V30 16400 C 1507.89 -2.07284 2.78659 0
M  V30 16401 C 1506.84 -1.75912 3.90178 0
M  V30 16402 C 1506.17 -3.07871 4.37172 0
M  V30 16403 C 1507.47 -1.02517 5.1214 0
M  V30 16404 H 1509.16 -0.312488 2.97765 0
M  V30 16405 H 1506.71 -0.148862 1.43228 0
M  V30 16406 H 1508.66 -2.73903 3.20242 0
M  V30 16407 H 1507.39 -2.60743 1.96673 0
M  V30 16408 H 1506.04 -1.11681 3.49174 0
M  V30 16409 H 1505.69 -3.59271 3.52041 0
M  V30 16410 H 1505.39 -2.87653 5.12376 0
M  V30 16411 H 1506.92 -3.75604 4.81409 0
M  V30 16412 H 1508.33 -1.59295 5.50725 0
M  V30 16413 H 1506.73 -0.923836 5.92946 0
M  V30 16414 H 1507.8 -0.0124219 4.84898 0
M  V30 16415 N 1509.14 -1.56867 -0.151857 0
M  V30 16416 C 1510.07 -2.00932 -1.18949 0
M  V30 16417 C 1511.05 -0.888062 -1.45077 0
M  V30 16418 O 1512.24 -1.15553 -1.56081 0
M  V30 16419 C 1509.37 -2.3858 -2.52383 0
M  V30 16420 C 1508.32 -3.53845 -2.40785 0
M  V30 16421 C 1507.65 -3.77292 -3.78886 0
M  V30 16422 C 1508.95 -4.8667 -1.89605 0
M  V30 16423 H 1510.64 -2.87863 -0.823107 0
M  V30 16424 H 1508.19 -1.38491 -0.394499 0
M  V30 16425 H 1510.14 -2.68006 -3.25193 0
M  V30 16426 H 1508.86 -1.48579 -2.90847 0
M  V30 16427 H 1507.52 -3.24577 -1.70427 0
M  V30 16428 H 1507.17 -2.84551 -4.14777 0
M  V30 16429 H 1506.87 -4.54861 -3.71989 0
M  V30 16430 H 1508.39 -4.09139 -4.53252 0
M  V30 16431 H 1509.81 -5.14846 -2.52204 0
M  V30 16432 H 1508.21 -5.6801 -1.93609 0
M  V30 16433 H 1509.28 -4.77366 -0.851438 0
M  V30 16434 N 1510.62 0.421051 -1.51871 0
M  V30 16435 C 1511.55 1.51928 -1.77313 0
M  V30 16436 C 1512.53 1.58258 -0.623579 0
M  V30 16437 O 1513.71 1.73724 -0.867967 0
M  V30 16438 C 1510.84 2.89865 -1.913 0
M  V30 16439 C 1509.8 2.98391 -3.06834 0
M  V30 16440 C 1509.12 4.38466 -3.06026 0
M  V30 16441 C 1510.42 2.7097 -4.46511 0
M  V30 16442 H 1512.12 1.30889 -2.69274 0
M  V30 16443 H 1509.66 0.628229 -1.29573 0
M  V30 16444 H 1511.62 3.66669 -2.07682 0
M  V30 16445 H 1510.34 3.12172 -0.960011 0
M  V30 16446 H 1509 2.24029 -2.90184 0
M  V30 16447 H 1508.65 4.57764 -2.08472 0
M  V30 16448 H 1508.35 4.45097 -3.83618 0
M  V30 16449 H 1509.87 5.17221 -3.24522 0
M  V30 16450 H 1511.29 3.37501 -4.63428 0
M  V30 16451 H 1509.68 2.88992 -5.25931 0
M  V30 16452 H 1510.75 1.66476 -4.55427 0
M  V30 16453 N 1512.1 1.42293 0.677538 0
M  V30 16454 C 1513.51 1.25158 0.990334 0
M  V30 16455 C 1513.71 0.153803 2.00912 0
M  V30 16456 O 1512.77 -0.475868 2.47975 0
M  V30 16457 C 1514.08 2.60745 1.49775 0
M  V30 16458 C 1515.63 2.68077 1.61566 0
M  V30 16459 C 1516.1 4.04024 2.15705 0
M  V30 16460 N 1517.6 4.05964 2.23042 0
M  V30 16461 C 1518.33 5.07968 2.66 0
M  V30 16462 N 1517.83 6.20356 3.08432 0
M  V30 16463 N 1519.62 4.95325 2.65725 0
M  V30 16464 H 1511.77 2.124 0.00295822 0
M  V30 16465 H 1514.03 0.945848 0.06384 0
M  V30 16466 H 1513.74 3.41919 0.823672 0
M  V30 16467 H 1513.61 2.84476 2.47695 0
M  V30 16468 H 1516 1.87251 2.28082 0
M  V30 16469 H 1516.08 2.48137 0.621434 0
M  V30 16470 H 1515.73 4.85306 1.498 0
M  V30 16471 H 1515.66 4.21314 3.15914 0
M  V30 16472 H 1518.15 3.24827 1.93122 0
M  V30 16473 H 1518.46 6.94043 3.39889 0
M  V30 16474 H 1516.8 6.23865 3.06296 0
M  V30 16475 H 1520 4.06599 2.31936 0
M  V30 16476 H 1520.17 5.74954 2.98884 0
M  V30 16477 N 1513.57 -0.913576 1.28419 0
M  V30 16478 C 1514.5 -2.03275 1.14897 0
M  V30 16479 C 1515.49 -1.70036 0.0467034 0
M  V30 16480 O 1516.67 -1.92907 0.223725 0
M  V30 16481 C 1513.8 -3.37717 0.810217 0
M  V30 16482 C 1512.75 -3.85119 1.86728 0
M  V30 16483 C 1512.08 -5.16527 1.38215 0
M  V30 16484 C 1513.38 -4.06959 3.27386 0
M  V30 16485 H 1515.07 -2.14847 2.08522 0
M  V30 16486 H 1512.62 -1.03233 1.00394 0
M  V30 16487 H 1514.57 -4.15505 0.702382 0
M  V30 16488 H 1513.3 -3.26199 -0.161732 0
M  V30 16489 H 1511.96 -3.09536 1.96426 0
M  V30 16490 H 1511.6 -5.01413 0.399263 0
M  V30 16491 H 1511.3 -5.49213 2.08898 0
M  V30 16492 H 1512.83 -5.96871 1.28754 0
M  V30 16493 H 1514.24 -4.75272 3.20608 0
M  V30 16494 H 1512.64 -4.50977 3.95904 0
M  V30 16495 H 1513.71 -3.11764 3.71391 0
M  V30 16496 N 1515.05 -1.1067 -1.12204 0
M  V30 16497 C 1516.3 -0.85063 -1.83768 0
M  V30 16498 C 1516.63 0.62379 -1.84226 0
M  V30 16499 O 1515.88 1.47603 -1.28498 0
M  V30 16500 C 1516.18 -1.34727 -3.31034 0
M  V30 16501 C 1515.85 -2.83353 -3.50745 0
M  V30 16502 C 1514.51 -3.2394 -3.55832 0
M  V30 16503 C 1516.86 -3.79118 -3.57658 0
M  V30 16504 C 1514.19 -4.59036 -3.6538 0
M  V30 16505 C 1516.54 -5.1402 -3.68736 0
M  V30 16506 C 1515.21 -5.54177 -3.72081 0
M  V30 16507 H 1514.48 -0.311268 -0.672453 0
M  V30 16508 H 1517.12 -1.38373 -1.32383 0
M  V30 16509 H 1515.43 -0.73424 -3.84859 0
M  V30 16510 H 1517.12 -1.12558 -3.84879 0
M  V30 16511 H 1513.71 -2.50952 -3.47449 0
M  V30 16512 H 1517.9 -3.48867 -3.52995 0
M  V30 16513 H 1513.15 -4.89568 -3.66243 0
M  V30 16514 H 1517.33 -5.88067 -3.73028 0
M  V30 16515 H 1514.96 -6.58853 -3.79232 0
M  V30 16516 N 1516.53 1.29665 -0.895815 0
M  V30 16517 C 1517.48 2.27831 -0.369011 0
M  V30 16518 C 1518.45 1.56843 0.546756 0
M  V30 16519 O 1519.63 1.84848 0.472837 0
M  V30 16520 C 1516.77 3.42764 0.400884 0
M  V30 16521 C 1515.89 4.28544 -0.545335 0
M  V30 16522 C 1515.02 5.30652 0.241228 0
M  V30 16523 C 1514.06 6.08087 -0.699765 0
M  V30 16524 N 1513.2 7.02081 0.0521477 0
M  V30 16525 H 1518.04 2.72274 -1.21124 0
M  V30 16526 H 1515.57 1.33918 -0.608631 0
M  V30 16527 H 1517.53 4.08171 0.863277 0
M  V30 16528 H 1516.16 2.99361 1.2076 0
M  V30 16529 H 1515.21 3.63346 -1.12624 0
M  V30 16530 H 1516.53 4.82472 -1.26579 0
M  V30 16531 H 1515.68 6.01858 0.764994 0
M  V30 16532 H 1514.42 4.77446 0.994838 0
M  V30 16533 H 1513.42 5.35748 -1.23507 0
M  V30 16534 H 1514.65 6.63382 -1.45264 0
M  V30 16535 H 1512.59 6.51249 0.788096 0
M  V30 16536 H 1512.51 7.53547 -0.60847 0
M  V30 16537 H 1513.78 7.77512 0.556304 0
M  V30 16538 N 1518.01 0.657889 1.43212 0
M  V30 16539 C 1519.24 0.181072 2.06106 0
M  V30 16540 C 1519.65 -1.15513 1.49339 0
M  V30 16541 O 1519.01 -1.71409 0.626517 0
M  V30 16542 C 1519.06 0.0890244 3.6139 0
M  V30 16543 O 1518.78 1.37241 4.16049 0
M  V30 16544 C 1520.28 -0.413313 4.41369 0
M  V30 16545 H 1517.5 0.0920577 0.664655 0
M  V30 16546 H 1520.05 0.899855 1.83638 0
M  V30 16547 H 1518.2 -0.580345 3.83028 0
M  V30 16548 H 1518.61 1.23467 5.09761 0
M  V30 16549 H 1520.09 -0.426663 5.50349 0
M  V30 16550 H 1520.57 -1.44549 4.14731 0
M  V30 16551 H 1521.17 0.223727 4.24711 0
M  V30 16552 N 1519.49 -1.52437 0.400108 0
M  V30 16553 C 1520.45 -2.2536 -0.417808 0
M  V30 16554 C 1521.45 -1.27393 -0.981204 0
M  V30 16555 O 1522.64 -1.51406 -0.861503 0
M  V30 16556 C 1519.77 -3.01695 -1.58724 0
M  V30 16557 H 1520.96 -2.99086 0.220782 0
M  V30 16558 H 1518.52 -1.55555 0.152439 0
M  V30 16559 H 1519.25 -2.32295 -2.26295 0
M  V30 16560 H 1519.04 -3.73611 -1.18984 0
M  V30 16561 H 1520.53 -3.57033 -2.16604 0
M  V30 16562 N 1520.96 -0.130252 -1.57061 0
M  V30 16563 C 1521.89 0.812189 -2.18919 0
M  V30 16564 C 1522.88 1.2692 -1.13249 0
M  V30 16565 O 1524.06 1.32978 -1.41529 0
M  V30 16566 C 1521.19 2.05803 -2.79754 0
M  V30 16567 C 1520.14 1.73841 -3.91105 0
M  V30 16568 C 1519.47 3.05549 -4.38799 0
M  V30 16569 C 1520.77 0.997991 -5.12677 0
M  V30 16570 H 1522.46 0.296692 -2.97926 0
M  V30 16571 H 1520.01 0.141265 -1.43305 0
M  V30 16572 H 1521.96 2.72201 -3.21691 0
M  V30 16573 H 1520.69 2.59697 -1.98053 0
M  V30 16574 H 1519.35 1.09828 -3.49762 0
M  V30 16575 H 1518.99 3.57399 -3.53942 0
M  V30 16576 H 1518.69 2.84932 -5.13894 0
M  V30 16577 H 1520.22 3.73045 -4.83394 0
M  V30 16578 H 1521.63 1.56372 -5.51562 0
M  V30 16579 H 1520.03 0.892378 -5.93428 0
M  V30 16580 H 1521.1 -0.0132936 -4.84898 0
M  V30 16581 N 1522.44 1.56945 0.143535 0
M  V30 16582 C 1523.38 1.95134 1.2023 0
M  V30 16583 C 1524.39 0.847593 1.38995 0
M  V30 16584 O 1525.58 1.12599 1.38505 0
M  V30 16585 C 1522.68 2.21316 2.56656 0
M  V30 16586 C 1521.85 3.52604 2.58822 0
M  V30 16587 C 1520.91 3.67285 3.76813 0
M  V30 16588 O 1519.94 4.39644 3.61527 0
M  V30 16589 N 1521.14 3.04208 4.94406 0
M  V30 16590 H 1523.9 2.86561 0.87766 0
M  V30 16591 H 1521.46 1.58437 0.333065 0
M  V30 16592 H 1523.46 2.28375 3.34106 0
M  V30 16593 H 1522.03 1.36137 2.81399 0
M  V30 16594 H 1521.25 3.56954 1.67264 0
M  V30 16595 H 1522.53 4.38944 2.57304 0
M  V30 16596 H 1521.93 2.45344 5.09728 0
M  V30 16597 H 1520.49 3.16824 5.69619 0
M  V30 16598 N 1523.92 -0.412991 1.52093 0
M  V30 16599 C 1524.83 -1.52768 1.78042 0
M  V30 16600 C 1525.85 -1.60758 0.665791 0
M  V30 16601 O 1527.02 -1.77545 0.950772 0
M  V30 16602 C 1524.09 -2.8854 1.92213 0
M  V30 16603 C 1523.15 -2.90468 3.16112 0
M  V30 16604 C 1522.38 -4.19763 3.29598 0
M  V30 16605 O 1522.61 -5.13454 2.48438 0
M  V30 16606 O 1521.54 -4.2847 4.22726 0
M  V30 16607 H 1525.37 -1.33777 2.72649 0
M  V30 16608 H 1522.95 -0.598461 1.3689 0
M  V30 16609 H 1524.83 -3.69073 2.03379 0
M  V30 16610 H 1523.51 -3.07607 1.00795 0
M  V30 16611 H 1522.41 -2.08801 3.10408 0
M  V30 16612 H 1523.75 -2.76349 4.07298 0
M  V30 16613 N 1525.4 -1.4265 -0.669982 0
M  V30 16614 C 1526.31 -1.48916 -1.81276 0
M  V30 16615 C 1527.33 -0.377523 -1.69855 0
M  V30 16616 O 1528.5 -0.629151 -1.91321 0
M  V30 16617 C 1525.57 -1.39376 -3.17451 0
M  V30 16618 C 1524.63 -2.61072 -3.40793 0
M  V30 16619 C 1523.86 -2.51976 -4.70472 0
M  V30 16620 O 1524.08 -1.55827 -5.48702 0
M  V30 16621 O 1523.02 -3.42193 -4.95164 0
M  V30 16622 H 1526.84 -2.45382 -1.78945 0
M  V30 16623 H 1524.43 -1.24467 -0.826342 0
M  V30 16624 H 1526.31 -1.36435 -3.98702 0
M  V30 16625 H 1524.99 -0.460376 -3.20409 0
M  V30 16626 H 1523.89 -2.69587 -2.59372 0
M  V30 16627 H 1525.23 -3.53325 -3.42669 0
M  V30 16628 N 1526.88 0.906753 -1.28902 0
M  V30 16629 C 1528.13 1.65119 -1.15839 0
M  V30 16630 C 1528.44 1.93426 0.290825 0
M  V30 16631 O 1529.65 2.66021 0.542678 0
M  V30 16632 C 1528.1 2.97492 -2.0255 0
M  V30 16633 C 1527.71 2.76807 -3.52253 0
M  V30 16634 C 1529.45 3.75393 -1.98192 0
M  V30 16635 C 1527.36 4.04863 -4.31091 0
M  V30 16636 H 1526.29 0.619409 -0.429939 0
M  V30 16637 H 1528.94 1.00567 -1.53488 0
M  V30 16638 H 1527.32 3.63217 -1.57763 0
M  V30 16639 H 1528.5 2.19719 -4.05044 0
M  V30 16640 H 1526.81 2.1231 -3.58209 0
M  V30 16641 H 1529.41 4.70325 -2.54358 0
M  V30 16642 H 1529.75 4.05074 -0.960267 0
M  V30 16643 H 1530.29 3.16498 -2.40985 0
M  V30 16644 H 1527.02 3.80353 -5.33865 0
M  V30 16645 H 1526.54 4.61537 -3.83072 0
M  V30 16646 H 1528.22 4.73066 -4.41381 0
M  V30 16647 N 1528.36 1.11264 1.11616 0
M  V30 16648 C 1529.3 0.769295 2.17602 0
M  V30 16649 C 1530.27 -0.258362 1.64078 0
M  V30 16650 O 1531.46 -0.135698 1.90317 0
M  V30 16651 C 1528.6 0.216647 3.44419 0
M  V30 16652 C 1527.71 1.30064 4.11955 0
M  V30 16653 C 1526.85 0.708729 5.26451 0
M  V30 16654 C 1525.88 1.7727 5.85868 0
M  V30 16655 N 1525.02 1.20042 6.91762 0
M  V30 16656 H 1529.86 1.67727 2.46316 0
M  V30 16657 H 1527.4 0.83764 1.20921 0
M  V30 16658 H 1529.36 -0.121724 4.17022 0
M  V30 16659 H 1527.99 -0.654525 3.16095 0
M  V30 16660 H 1527.04 1.756 3.37445 0
M  V30 16661 H 1528.35 2.1057 4.52174 0
M  V30 16662 H 1527.5 0.320307 6.05854 0
M  V30 16663 H 1526.24 -0.127668 4.87533 0
M  V30 16664 H 1525.25 2.17046 5.05145 0
M  V30 16665 H 1526.47 2.6121 6.26854 0
M  V30 16666 H 1524.42 0.385633 6.54866 0
M  V30 16667 H 1524.34 1.94221 7.30626 0
M  V30 16668 H 1525.6 0.838825 7.74974 0
M  V30 16669 N 1529.83 -1.29188 0.902679 0
M  V30 16670 C 1531.06 -2.00113 0.544953 0
M  V30 16671 C 1531.48 -1.67093 -0.863805 0
M  V30 16672 O 1530.84 -0.897179 -1.57545 0
M  V30 16673 C 1530.89 -3.52762 0.747741 0
M  V30 16674 O 1529.99 -4.11923 -0.198388 0
M  V30 16675 H 1529.33 -0.629054 0.212572 0
M  V30 16676 H 1531.86 -1.64611 1.21508 0
M  V30 16677 H 1531.87 -4.02732 0.653546 0
M  V30 16678 H 1530.55 -3.76131 1.77478 0
M  V30 16679 H 1529.13 -3.72857 -0.0563959 0
M  V30 16680 N 1531.31 -0.665475 -1.42861 0
M  V30 16681 C 1532.26 0.0186204 -2.30792 0
M  V30 16682 C 1533.23 0.802249 -1.45441 0
M  V30 16683 O 1534.41 0.776383 -1.7429 0
M  V30 16684 C 1531.55 0.970499 -3.31173 0
M  V30 16685 C 1530.67 0.18168 -4.31618 0
M  V30 16686 C 1529.8 1.12846 -5.19075 0
M  V30 16687 C 1528.84 0.330788 -6.11206 0
M  V30 16688 N 1527.98 1.2298 -6.91246 0
M  V30 16689 H 1532.82 -0.737068 -2.88741 0
M  V30 16690 H 1530.35 -0.375225 -1.42234 0
M  V30 16691 H 1532.31 1.53611 -3.87891 0
M  V30 16692 H 1530.94 1.69292 -2.74845 0
M  V30 16693 H 1529.99 -0.500415 -3.77094 0
M  V30 16694 H 1531.31 -0.438041 -4.96873 0
M  V30 16695 H 1530.46 1.76431 -5.8048 0
M  V30 16696 H 1529.2 1.78208 -4.53975 0
M  V30 16697 H 1528.2 -0.318333 -5.48878 0
M  V30 16698 H 1529.43 -0.318599 -6.78352 0
M  V30 16699 H 1527.38 1.86999 -6.28783 0
M  V30 16700 H 1527.29 0.664933 -7.5307 0
M  V30 16701 H 1528.56 1.85341 -7.57145 0
M  V30 16702 N 1532.79 1.52222 -0.408187 0
M  V30 16703 C 1534.04 2.02102 0.168154 0
M  V30 16704 C 1534.37 1.2933 1.4487 0
M  V30 16705 O 1533.64 0.399336 1.90356 0
M  V30 16706 C 1533.93 3.57679 0.416821 0
M  V30 16707 C 1533.78 4.41101 -0.880335 0
M  V30 16708 C 1535.1 4.23442 1.19936 0
M  V30 16709 H 1532.22 0.734583 0.0596402 0
M  V30 16710 H 1534.86 1.82121 -0.541467 0
M  V30 16711 H 1533.01 3.74835 1.02131 0
M  V30 16712 H 1534.68 4.35658 -1.51656 0
M  V30 16713 H 1532.92 4.07353 -1.49152 0
M  V30 16714 H 1533.6 5.48031 -0.660748 0
M  V30 16715 H 1536.07 4.10379 0.687605 0
M  V30 16716 H 1534.95 5.32239 1.3421 0
M  V30 16717 H 1535.21 3.82335 2.21973 0
M  V30 16718 N 1534.27 0.138579 1.5699 0
M  V30 16719 C 1535.54 -0.559239 1.87435 0
M  V30 16720 C 1535.92 -1.83527 1.04312 0
M  V30 16721 O 1535.27 -2.28144 0.127531 0
M  V30 16722 C 1535.48 -0.83282 3.38918 0
M  V30 16723 C 1536.83 -1.1773 4.07952 0
M  V30 16724 O 1537.85 -0.92245 3.44048 0
M  V30 16725 O 1536.71 -1.6565 5.2079 0
M  V30 16726 H 1533.81 -0.284318 0.77659 0
M  V30 16727 H 1536.35 0.174558 1.688 0
M  V30 16728 H 1535.13 0.0706054 3.91236 0
M  V30 16729 H 1534.75 -1.62109 3.63051 0
M  V30 16730 N 1535.75 -1.57019 -0.13521 0
M  V30 16731 C 1536.68 -1.95769 -1.19193 0
M  V30 16732 C 1537.69 -0.854953 -1.38544 0
M  V30 16733 O 1538.88 -1.13332 -1.37906 0
M  V30 16734 C 1535.98 -2.22674 -2.55479 0
M  V30 16735 C 1535.15 -3.53972 -2.56949 0
M  V30 16736 C 1534.21 -3.69278 -3.7486 0
M  V30 16737 O 1533.24 -4.41555 -3.59191 0
M  V30 16738 N 1534.44 -3.06826 -4.92786 0
M  V30 16739 H 1537.2 -2.87022 -0.862451 0
M  V30 16740 H 1534.77 -1.58611 -0.324658 0
M  V30 16741 H 1536.76 -2.30144 -3.3289 0
M  V30 16742 H 1535.33 -1.37628 -2.80673 0
M  V30 16743 H 1534.55 -3.57836 -1.65368 0
M  V30 16744 H 1535.84 -4.40303 -2.54973 0
M  V30 16745 H 1535.23 -2.48043 -5.0842 0
M  V30 16746 H 1533.79 -3.19841 -5.67931 0
M  V30 16747 N 1537.22 0.404919 -1.52309 0
M  V30 16748 C 1538.47 1.14859 -1.65802 0
M  V30 16749 C 1538.79 1.91546 -0.396174 0
M  V30 16750 O 1539.99 2.68372 -0.410969 0
M  V30 16751 C 1538.45 2.09068 -2.92948 0
M  V30 16752 C 1538.06 1.37878 -4.26255 0
M  V30 16753 C 1539.8 2.83669 -3.15804 0
M  V30 16754 C 1537.71 2.30761 -5.44521 0
M  V30 16755 H 1536.64 0.432463 -0.61765 0
M  V30 16756 H 1539.29 0.412695 -1.78799 0
M  V30 16757 H 1537.67 2.86228 -2.7366 0
M  V30 16758 H 1538.84 0.660543 -4.56041 0
M  V30 16759 H 1537.16 0.753026 -4.09534 0
M  V30 16760 H 1539.76 3.53313 -4.0134 0
M  V30 16761 H 1540.1 3.46855 -2.30212 0
M  V30 16762 H 1540.63 2.13607 -3.35584 0
M  V30 16763 H 1537.37 1.72214 -6.32473 0
M  V30 16764 H 1536.89 3.00546 -5.19069 0
M  V30 16765 H 1538.57 2.91195 -5.77767 0
M  V30 16766 N 1538.7 1.43003 0.662408 0
M  V30 16767 C 1539.63 1.43407 1.78793 0
M  V30 16768 C 1540.65 0.331423 1.59391 0
M  V30 16769 O 1541.84 0.595291 1.68281 0
M  V30 16770 C 1538.94 1.22239 3.16087 0
M  V30 16771 C 1538.11 2.4517 3.6223 0
M  V30 16772 C 1537.17 2.19362 4.78296 0
M  V30 16773 O 1536.19 2.92651 4.88205 0
M  V30 16774 N 1537.4 1.20449 5.67866 0
M  V30 16775 H 1540.16 2.40426 1.78928 0
M  V30 16776 H 1537.72 1.38042 0.845936 0
M  V30 16777 H 1539.71 1.02871 3.91407 0
M  V30 16778 H 1538.28 0.336983 3.10778 0
M  V30 16779 H 1537.5 2.80024 2.77453 0
M  V30 16780 H 1538.79 3.27003 3.89803 0
M  V30 16781 H 1538.19 0.598577 5.62524 0
M  V30 16782 H 1536.75 1.07066 6.42946 0
M  V30 16783 N 1540.18 -0.899904 1.29381 0
M  V30 16784 C 1541.09 -2.03699 1.16378 0
M  V30 16785 C 1542.11 -1.73782 0.0870792 0
M  V30 16786 O 1543.28 -1.99167 0.299109 0
M  V30 16787 C 1540.35 -3.36341 0.841166 0
M  V30 16788 C 1539.41 -3.79778 2.00168 0
M  V30 16789 C 1538.64 -5.0609 1.69437 0
M  V30 16790 O 1538.86 -5.67073 0.615212 0
M  V30 16791 O 1537.8 -5.45574 2.54229 0
M  V30 16792 H 1541.62 -2.17592 2.11866 0
M  V30 16793 H 1539.21 -1.02353 1.08831 0
M  V30 16794 H 1541.09 -4.15946 0.675803 0
M  V30 16795 H 1539.77 -3.23591 -0.0839376 0
M  V30 16796 H 1538.67 -3.00941 2.22229 0
M  V30 16797 H 1540.01 -3.97111 2.90798 0
M  V30 16798 N 1541.66 -1.11854 -1.11024 0
M  V30 16799 C 1542.91 -0.864814 -1.82219 0
M  V30 16800 C 1543.22 0.611349 -1.85801 0
M  V30 16801 O 1544.43 0.981475 -2.53139 0
M  V30 16802 C 1542.88 -1.49745 -3.27268 0
M  V30 16803 C 1542.49 -3.00796 -3.32003 0
M  V30 16804 C 1544.23 -1.32374 -4.03333 0
M  V30 16805 C 1542.14 -3.57023 -4.71475 0
M  V30 16806 H 1541.07 -0.319877 -0.682784 0
M  V30 16807 H 1543.72 -1.34431 -1.24903 0
M  V30 16808 H 1542.1 -0.94562 -3.84544 0
M  V30 16809 H 1543.28 -3.6242 -2.84585 0
M  V30 16810 H 1541.59 -3.17493 -2.6942 0
M  V30 16811 H 1544.19 -1.7181 -5.06345 0
M  V30 16812 H 1544.53 -0.26676 -4.15444 0
M  V30 16813 H 1545.07 -1.84444 -3.52456 0
M  V30 16814 H 1541.81 -4.62453 -4.64562 0
M  V30 16815 H 1541.33 -3.00172 -5.19285 0
M  V30 16816 H 1543 -3.5572 -5.40437 0
M  V30 16817 N 1543.14 1.28707 -0.909517 0
M  V30 16818 C 1544.38 1.95443 -0.541281 0
M  V30 16819 C 1544.72 1.71457 0.911934 0
M  V30 16820 O 1543.99 1.03312 1.64794 0
M  V30 16821 C 1544.27 3.50019 -0.846097 0
M  V30 16822 C 1544.13 3.83423 -2.35173 0
M  V30 16823 C 1545.45 4.3879 -0.339328 0
M  V30 16824 H 1542.56 0.709869 -0.198128 0
M  V30 16825 H 1545.21 1.52151 -1.13799 0
M  V30 16826 H 1543.36 3.87025 -0.338262 0
M  V30 16827 H 1545.03 3.5631 -2.92986 0
M  V30 16828 H 1543.27 3.30618 -2.80846 0
M  V30 16829 H 1543.94 4.91348 -2.51557 0
M  V30 16830 H 1546.42 4.08832 -0.774312 0
M  V30 16831 H 1545.29 5.45809 -0.581722 0
M  V30 16832 H 1545.56 4.35514 0.760244 0
M  V30 16833 N 1544.61 0.673042 1.42506 0
M  V30 16834 C 1545.84 0.202922 2.05902 0
M  V30 16835 C 1546.26 -1.13923 1.50556 0
M  V30 16836 O 1545.61 -1.70735 0.644662 0
M  V30 16837 C 1545.67 0.12735 3.61276 0
M  V30 16838 O 1545.39 1.41646 4.1457 0
M  V30 16839 C 1546.89 -0.366477 4.41783 0
M  V30 16840 H 1544.11 0.0991021 0.663641 0
M  V30 16841 H 1546.65 0.919282 1.82673 0
M  V30 16842 H 1544.81 -0.539687 3.83622 0
M  V30 16843 H 1545.22 1.28866 5.08423 0
M  V30 16844 H 1546.69 -0.368267 5.5077 0
M  V30 16845 H 1547.17 -1.40142 4.16241 0
M  V30 16846 H 1547.78 0.268761 4.2445 0
M  V30 16847 N 1546.09 -1.52004 0.416254 0
M  V30 16848 C 1547.34 -2.0149 -0.15689 0
M  V30 16849 C 1547.66 -1.30343 -1.45037 0
M  V30 16850 O 1546.93 -0.431503 -1.91089 0
M  V30 16851 H 1545.51 -0.744508 -0.0609682 0
M  V30 16852 H 1548.17 -1.86857 0.55413 0
M  V30 16853 H 1547.27 -3.10155 -0.347917 0
M  V30 16854 N 1547.57 -0.146903 -1.56914 0
M  V30 16855 C 1548.52 0.809917 -2.18044 0
M  V30 16856 C 1549.51 1.25536 -1.13741 0
M  V30 16857 O 1550.72 1.22385 -1.31992 0
M  V30 16858 H 1547.09 0.279387 -0.698174 0
M  V30 16859 H 1549.06 0.270135 -2.97175 0
M  V30 16860 C 1547.81 2.03904 -2.81635 0
M  V30 16861 H 1547.14 1.70526 -3.61609 0
M  V30 16862 H 1548.58 2.68795 -3.2791 0
M  V30 16863 C 1547.04 2.84696 -1.80138 0
M  V30 16864 O 1547.57 3.81036 -1.27179 0
M  V30 16865 N 1545.77 2.49229 -1.49444 0
M  V30 16866 H 1545.32 1.70949 -1.92702 0
M  V30 16867 H 1545.28 3.03577 -0.817811 0
M  V30 16868 N 1549.05 1.57088 0.126881 0
M  V30 16869 C 1550.46 1.73685 0.684865 0
M  V30 16870 C 1550.81 0.764401 1.80697 0
M  V30 16871 O 1549.94 -0.0644761 2.16304 0
M  V30 16872 C 1550.53 3.14933 1.24911 0
M  V30 16873 C 1549.09 3.33063 1.75346 0
M  V30 16874 C 1548.24 2.69575 0.649976 0
M  V30 16875 H 1551.19 1.58391 -0.0989715 0
M  V30 16876 H 1551.21 3.16047 2.11884 0
M  V30 16877 H 1550.72 3.85686 0.432204 0
M  V30 16878 H 1548.82 2.67339 2.59539 0
M  V30 16879 H 1548.93 4.41169 1.86833 0
M  V30 16880 H 1547.3 2.30592 1.08163 0
M  V30 16881 H 1548.08 3.42946 -0.15582 0
M  V30 16882 N 1550.53 -0.396836 1.52522 0
M  V30 16883 C 1551.75 -1.16404 1.71049 0
M  V30 16884 C 1552.17 -1.83946 0.425378 0
M  V30 16885 O 1551.53 -1.7237 -0.599561 0
M  V30 16886 C 1551.58 -2.21796 2.85463 0
M  V30 16887 O 1551.3 -1.57009 4.08998 0
M  V30 16888 C 1552.8 -3.11303 3.15603 0
M  V30 16889 H 1550.02 -0.349314 0.572905 0
M  V30 16890 H 1552.56 -0.465297 1.99136 0
M  V30 16891 H 1550.72 -2.87318 2.59859 0
M  V30 16892 H 1551.13 -2.26977 4.72844 0
M  V30 16893 H 1552.61 -3.81299 3.99143 0
M  V30 16894 H 1553.08 -3.7437 2.2966 0
M  V30 16895 H 1553.69 -2.51435 3.43017 0
M  V30 16896 N 1552.01 -1.43353 -0.654814 0
M  V30 16897 C 1553.25 -1.451 -1.41682 0
M  V30 16898 C 1553.58 -0.0743864 -1.94057 0
M  V30 16899 O 1552.86 0.904515 -1.72188 0
M  V30 16900 C 1553.14 -2.49204 -2.59941 0
M  V30 16901 C 1553 -3.96134 -2.13069 0
M  V30 16902 C 1554.31 -2.50064 -3.62155 0
M  V30 16903 H 1551.43 -0.528339 -0.513836 0
M  V30 16904 H 1554.08 -1.74892 -0.742489 0
M  V30 16905 H 1552.23 -2.2393 -3.1747 0
M  V30 16906 H 1553.9 -4.32459 -1.60552 0
M  V30 16907 H 1552.14 -4.09042 -1.44455 0
M  V30 16908 H 1552.81 -4.64585 -2.98101 0
M  V30 16909 H 1555.29 -2.72587 -3.14382 0
M  V30 16910 H 1554.16 -3.24849 -4.42452 0
M  V30 16911 H 1554.42 -1.53385 -4.14639 0
M  V30 16912 N 1553.48 0.89303 -1.29857 0
M  V30 16913 C 1554.73 1.63881 -1.17583 0
M  V30 16914 C 1555.05 1.93723 0.270293 0
M  V30 16915 O 1556.25 2.66582 0.514432 0
M  V30 16916 C 1554.71 2.95327 -2.05694 0
M  V30 16917 C 1554.32 2.73055 -3.55169 0
M  V30 16918 C 1556.06 3.7327 -2.02162 0
M  V30 16919 C 1553.97 4.00268 -4.35361 0
M  V30 16920 H 1552.9 0.614815 -0.436485 0
M  V30 16921 H 1555.55 0.989339 -1.54546 0
M  V30 16922 H 1553.93 3.61523 -1.61607 0
M  V30 16923 H 1555.1 2.1541 -4.07351 0
M  V30 16924 H 1553.42 2.08498 -3.6044 0
M  V30 16925 H 1556.02 4.67601 -2.59333 0
M  V30 16926 H 1556.36 4.04032 -1.00318 0
M  V30 16927 H 1556.89 3.13925 -2.44328 0
M  V30 16928 H 1553.63 3.74669 -5.37869 0
M  V30 16929 H 1553.15 4.57448 -3.87945 0
M  V30 16930 H 1554.83 4.68358 -4.46374 0
M  V30 16931 N 1554.96 1.12442 1.10429 0
M  V30 16932 C 1555.91 0.792332 2.16773 0
M  V30 16933 C 1556.88 -0.240945 1.64343 0
M  V30 16934 O 1558.06 -0.115504 1.9045 0
M  V30 16935 C 1555.2 0.253166 3.4417 0
M  V30 16936 C 1554.32 1.34426 4.10553 0
M  V30 16937 C 1553.45 0.764527 5.2567 0
M  V30 16938 C 1552.49 1.83474 5.83955 0
M  V30 16939 N 1551.63 1.27372 6.9045 0
M  V30 16940 H 1556.47 1.7033 2.44524 0
M  V30 16941 H 1554 0.850418 1.20026 0
M  V30 16942 H 1555.96 -0.0774862 4.17128 0
M  V30 16943 H 1554.59 -0.620962 3.16771 0
M  V30 16944 H 1553.64 1.79169 3.35563 0
M  V30 16945 H 1554.96 2.15354 4.49916 0
M  V30 16946 H 1554.11 0.384548 6.0548 0
M  V30 16947 H 1552.85 -0.0759512 4.87641 0
M  V30 16948 H 1551.85 2.22391 5.02814 0
M  V30 16949 H 1553.08 2.67844 6.24048 0
M  V30 16950 H 1551.03 0.455069 6.5442 0
M  V30 16951 H 1550.94 2.01959 7.28525 0
M  V30 16952 H 1552.21 0.920975 7.7404 0
M  V30 16953 N 1556.44 -1.28223 0.91633 0
M  V30 16954 C 1557.37 -2.25482 0.351128 0
M  V30 16955 C 1558.35 -1.53155 -0.546108 0
M  V30 16956 O 1559.53 -1.82042 -0.489182 0
M  V30 16957 C 1556.66 -3.35021 -0.497832 0
M  V30 16958 C 1555.71 -4.25187 0.334384 0
M  V30 16959 S 1556.54 -5.06348 1.74276 0
M  V30 16960 C 1557.7 -6.19378 0.901172 0
M  V30 16961 H 1557.93 -2.73075 1.17547 0
M  V30 16962 H 1555.46 -1.36703 0.717752 0
M  V30 16963 H 1557.42 -3.98586 -0.98182 0
M  V30 16964 H 1556.08 -2.8609 -1.29658 0
M  V30 16965 H 1555.27 -5.03015 -0.314884 0
M  V30 16966 H 1554.88 -3.66359 0.75212 0
M  V30 16967 H 1557.17 -6.77371 0.131985 0
M  V30 16968 H 1558.11 -6.88558 1.65208 0
M  V30 16969 H 1558.52 -5.62718 0.448206 0
M  V30 16970 N 1557.92 -0.68059 -1.42147 0
M  V30 16971 C 1559.16 -0.205567 -2.01755 0
M  V30 16972 C 1559.5 1.18677 -1.53718 0
M  V30 16973 O 1558.77 1.79796 -0.741867 0
M  V30 16974 C 1559.05 -0.246615 -3.59255 0
M  V30 16975 C 1558.91 -1.67483 -4.17456 0
M  V30 16976 C 1560.23 0.40196 -4.38261 0
M  V30 16977 H 1557.35 -0.0761717 -0.733053 0
M  V30 16978 H 1559.99 -0.866473 -1.69092 0
M  V30 16979 H 1558.14 0.316127 -3.87212 0
M  V30 16980 H 1559.81 -2.29026 -4.00431 0
M  V30 16981 H 1558.05 -2.2137 -3.73065 0
M  V30 16982 H 1558.72 -1.65519 -5.266 0
M  V30 16983 H 1561.2 -0.077135 -4.16028 0
M  V30 16984 H 1560.08 0.342627 -5.4783 0
M  V30 16985 H 1560.34 1.48044 -4.16576 0
M  V30 16986 N 1559.4 1.51781 -0.424309 0
M  V30 16987 C 1560.64 2.02269 0.146709 0
M  V30 16988 C 1560.97 1.30859 1.4349 0
M  V30 16989 O 1560.25 0.419504 1.89922 0
M  V30 16990 C 1560.53 3.58101 0.378861 0
M  V30 16991 C 1560.39 4.40143 -0.92707 0
M  V30 16992 C 1561.7 4.2469 1.15438 0
M  V30 16993 H 1558.82 0.735174 0.0518456 0
M  V30 16994 H 1561.47 1.81537 -0.560753 0
M  V30 16995 H 1559.62 3.75897 0.981496 0
M  V30 16996 H 1561.29 4.34025 -1.56268 0
M  V30 16997 H 1559.53 4.05748 -1.53464 0
M  V30 16998 H 1560.2 5.47299 -0.718837 0
M  V30 16999 H 1562.68 4.11086 0.644041 0
M  V30 17000 H 1561.55 5.33633 1.28557 0
M  V30 17001 H 1561.81 3.84668 2.17905 0
M  V30 17002 N 1560.87 0.155222 1.56834 0
M  V30 17003 C 1562.1 -0.503763 2.01189 0
M  V30 17004 C 1562.52 -1.57086 1.03468 0
M  V30 17005 O 1561.88 -1.81296 0.0116895 0
M  V30 17006 C 1561.93 -1.07373 3.44243 0
M  V30 17007 O 1561.03 -2.18834 3.49551 0
M  V30 17008 H 1560.37 -0.122368 0.652627 0
M  V30 17009 H 1562.9 0.254377 2.03013 0
M  V30 17010 H 1562.91 -1.40036 3.83215 0
M  V30 17011 H 1561.59 -0.292339 4.14871 0
M  V30 17012 H 1560.17 -1.87337 3.22427 0
M  V30 17013 N 1562.35 -1.57153 -0.118549 0
M  V30 17014 C 1563.6 -1.84876 -0.826255 0
M  V30 17015 C 1563.93 -0.740373 -1.79858 0
M  V30 17016 O 1563.18 0.268233 -1.93853 0
M  V30 17017 C 1563.48 -3.19084 -1.60998 0
M  V30 17018 C 1563.15 -4.44069 -0.781911 0
M  V30 17019 C 1561.81 -4.78005 -0.553559 0
M  V30 17020 C 1564.16 -5.20798 -0.204739 0
M  V30 17021 C 1561.49 -5.86114 0.262212 0
M  V30 17022 C 1563.84 -6.29765 0.598225 0
M  V30 17023 C 1562.5 -6.62233 0.83689 0
M  V30 17024 H 1561.77 -0.676511 -0.302348 0
M  V30 17025 H 1564.42 -1.91295 -0.0886182 0
M  V30 17026 H 1562.73 -3.08243 -2.41854 0
M  V30 17027 H 1564.42 -3.37755 -2.16153 0
M  V30 17028 H 1561.01 -4.1748 -0.969984 0
M  V30 17029 H 1565.2 -4.94931 -0.368374 0
M  V30 17030 H 1560.45 -6.09695 0.456338 0
M  V30 17031 H 1564.63 -6.88401 1.05244 0
M  V30 17032 H 1562.25 -7.45835 1.47083 0
M  V30 17033 N 1563.83 0.388742 -1.5273 0
M  V30 17034 C 1564.78 1.49531 -1.78166 0
M  V30 17035 C 1565.77 1.56449 -0.649613 0
M  V30 17036 O 1566.98 1.59612 -0.832097 0
M  V30 17037 H 1563.35 0.497684 -0.56375 0
M  V30 17038 H 1565.32 1.25271 -2.70831 0
M  V30 17039 C 1564.07 2.86663 -1.96774 0
M  V30 17040 H 1563.4 2.82089 -2.83312 0
M  V30 17041 H 1564.84 3.63328 -2.18561 0
M  V30 17042 C 1563.29 3.28665 -0.740345 0
M  V30 17043 O 1563.82 4.01616 0.0821005 0
M  V30 17044 N 1562.03 2.84947 -0.570383 0
M  V30 17045 H 1561.58 2.25748 -1.24078 0
M  V30 17046 H 1561.54 3.13408 0.249496 0
M  V30 17047 N 1565.31 1.43698 0.647203 0
M  V30 17048 C 1566.72 1.27231 0.963563 0
M  V30 17049 C 1566.92 0.196385 2.00541 0
M  V30 17050 O 1565.98 -0.423162 2.48929 0
M  V30 17051 C 1567.29 2.63863 1.44211 0
M  V30 17052 C 1568.84 2.71444 1.55844 0
M  V30 17053 C 1569.32 4.08508 2.07087 0
M  V30 17054 N 1570.81 4.10603 2.14381 0
M  V30 17055 C 1571.54 5.13496 2.55166 0
M  V30 17056 N 1571.04 6.26759 2.95203 0
M  V30 17057 N 1572.83 5.0085 2.55158 0
M  V30 17058 H 1564.98 2.12358 -0.0420956 0
M  V30 17059 H 1567.24 0.946989 0.0437628 0
M  V30 17060 H 1566.95 3.43589 0.75096 0
M  V30 17061 H 1566.82 2.89666 2.41605 0
M  V30 17062 H 1569.21 1.92046 2.24058 0
M  V30 17063 H 1569.29 2.49399 0.56866 0
M  V30 17064 H 1568.94 4.88375 1.39472 0
M  V30 17065 H 1568.87 4.2792 3.06907 0
M  V30 17066 H 1571.36 3.2885 1.86188 0
M  V30 17067 H 1571.67 7.01096 3.25091 0
M  V30 17068 H 1570.02 6.30222 2.92993 0
M  V30 17069 H 1573.21 4.11428 2.2326 0
M  V30 17070 H 1573.38 5.81165 2.86621 0
M  V30 17071 N 1566.79 -0.886131 1.30328 0
M  V30 17072 C 1568.03 -1.6346 1.18849 0
M  V30 17073 C 1568.36 -1.93295 -0.257285 0
M  V30 17074 O 1567.63 -1.56858 -1.17356 0
M  V30 17075 H 1566.21 -0.605932 0.43687 0
M  V30 17076 H 1568.87 -1.06177 1.63439 0
M  V30 17077 H 1567.96 -2.58522 1.7485 0
M  V30 17078 N 1568.26 -1.13026 -1.09832 0
M  V30 17079 C 1569.23 -0.806832 -2.14529 0
M  V30 17080 C 1570.23 0.18175 -1.5977 0
M  V30 17081 O 1571.42 -0.0448155 -1.74142 0
M  V30 17082 C 1568.55 -0.200093 -3.40312 0
M  V30 17083 H 1569.74 -1.73453 -2.44651 0
M  V30 17084 H 1567.3 -0.934331 -1.25299 0
M  V30 17085 H 1568.03 0.737028 -3.15814 0
M  V30 17086 H 1567.82 -0.911945 -3.81348 0
M  V30 17087 H 1569.31 0.00948247 -4.17599 0
M  V30 17088 N 1569.74 1.27735 -0.923117 0
M  V30 17089 C 1571.16 1.46952 -0.622666 0
M  V30 17090 C 1571.36 1.8364 0.829384 0
M  V30 17091 O 1570.41 1.94705 1.60767 0
M  V30 17092 C 1571.73 2.56545 -1.56861 0
M  V30 17093 C 1573.28 2.70408 -1.57634 0
M  V30 17094 C 1573.75 3.83154 -2.50913 0
M  V30 17095 N 1575.24 3.90521 -2.49093 0
M  V30 17096 C 1575.98 4.77167 -3.17962 0
M  V30 17097 N 1575.47 5.68334 -3.96193 0
M  V30 17098 N 1577.27 4.70857 -3.07002 0
M  V30 17099 H 1569.42 1.02205 -1.86193 0
M  V30 17100 H 1571.68 0.509982 -0.799138 0
M  V30 17101 H 1571.39 2.3637 -2.60427 0
M  V30 17102 H 1571.26 3.53839 -1.30681 0
M  V30 17103 H 1573.65 2.89967 -0.548005 0
M  V30 17104 H 1573.73 1.73615 -1.8786 0
M  V30 17105 H 1573.37 3.64349 -3.53853 0
M  V30 17106 H 1573.3 4.79365 -2.17984 0
M  V30 17107 H 1575.79 3.25329 -1.92274 0
M  V30 17108 H 1576.11 6.31298 -4.45738 0
M  V30 17109 H 1574.45 5.68144 -4.00297 0
M  V30 17110 H 1577.64 3.98629 -2.45382 0
M  V30 17111 H 1577.81 5.38166 -3.60945 0
M  V30 17112 N 1571.22 0.688118 1.41784 0
M  V30 17113 C 1572.47 0.215517 2.00948 0
M  V30 17114 C 1572.79 -1.18656 1.54744 0
M  V30 17115 O 1572.06 -1.79925 0.774831 0
M  V30 17116 H 1570.64 0.0766876 0.743053 0
M  V30 17117 H 1573.3 0.88761 1.73515 0
M  V30 17118 H 1572.4 0.227139 3.11272 0
M  V30 17119 N 1572.7 -1.51554 0.432352 0
M  V30 17120 C 1573.63 -2.25369 -0.417328 0
M  V30 17121 C 1574.64 -1.29197 -0.990551 0
M  V30 17122 O 1575.83 -1.54985 -0.885539 0
M  V30 17123 C 1572.93 -2.99006 -1.59526 0
M  V30 17124 C 1572.11 -4.22234 -1.1418 0
M  V30 17125 C 1571.16 -4.78495 -2.18928 0
M  V30 17126 O 1570.19 -5.40465 -1.78566 0
M  V30 17127 N 1571.39 -4.62091 -3.51358 0
M  V30 17128 H 1574.16 -2.98926 0.215294 0
M  V30 17129 H 1571.72 -1.59783 0.26097 0
M  V30 17130 H 1573.71 -3.33532 -2.29212 0
M  V30 17131 H 1572.28 -2.28491 -2.13332 0
M  V30 17132 H 1571.5 -3.93259 -0.272182 0
M  V30 17133 H 1572.79 -5.02212 -0.816145 0
M  V30 17134 H 1572.19 -4.12718 -3.86885 0
M  V30 17135 H 1570.74 -5.00992 -4.16953 0
M  V30 17136 N 1574.18 -0.163538 -1.56749 0
M  V30 17137 C 1575.12 0.786745 -2.18891 0
M  V30 17138 C 1576.12 1.24323 -1.15066 0
M  V30 17139 O 1577.32 1.20979 -1.33282 0
M  V30 17140 H 1573.7 0.271967 -0.701098 0
M  V30 17141 H 1575.67 0.2386 -2.97445 0
M  V30 17142 C 1574.42 2.00905 -2.83782 0
M  V30 17143 H 1573.74 1.66681 -3.63397 0
M  V30 17144 H 1575.18 2.65302 -3.30743 0
M  V30 17145 C 1573.64 2.8277 -1.83148 0
M  V30 17146 O 1574.17 3.79666 -1.31213 0
M  V30 17147 N 1572.38 2.47629 -1.52079 0
M  V30 17148 H 1571.92 1.68896 -1.94504 0
M  V30 17149 H 1571.88 3.02693 -0.849963 0
M  V30 17150 N 1575.65 1.57214 0.110213 0
M  V30 17151 C 1576.62 2.00034 1.11888 0
M  V30 17152 C 1577.62 0.891697 1.33811 0
M  V30 17153 O 1578.81 1.15754 1.3018 0
M  V30 17154 C 1575.94 2.34806 2.47142 0
M  V30 17155 H 1577.13 2.90354 0.750647 0
M  V30 17156 H 1574.69 1.5222 0.35479 0
M  V30 17157 H 1575.42 1.47393 2.8887 0
M  V30 17158 H 1575.21 3.15671 2.32581 0
M  V30 17159 H 1576.7 2.68644 3.19719 0
M  V30 17160 N 1577.13 -0.380637 1.52934 0
M  V30 17161 C 1578.06 -1.47174 1.81279 0
M  V30 17162 C 1579.04 -1.56549 0.665319 0
M  V30 17163 O 1580.23 -1.71362 0.913722 0
M  V30 17164 C 1577.36 -2.84691 1.98918 0
M  V30 17165 C 1576.31 -2.90151 3.14637 0
M  V30 17166 C 1575.64 -4.30198 3.17544 0
M  V30 17167 C 1576.94 -2.59037 4.53539 0
M  V30 17168 H 1578.63 -1.23703 2.7265 0
M  V30 17169 H 1576.18 -0.593654 1.31194 0
M  V30 17170 H 1578.13 -3.61034 2.1733 0
M  V30 17171 H 1576.86 -3.09517 1.04244 0
M  V30 17172 H 1575.51 -2.16257 2.96021 0
M  V30 17173 H 1575.16 -4.52076 2.20536 0
M  V30 17174 H 1574.86 -4.3477 3.95284 0
M  V30 17175 H 1576.39 -5.08435 3.38121 0
M  V30 17176 H 1577.8 -3.25096 4.72214 0
M  V30 17177 H 1576.2 -2.74946 5.33408 0
M  V30 17178 H 1577.27 -1.54342 4.59681 0
M  V30 17179 N 1578.61 -1.44039 -0.639573 0
M  V30 17180 C 1580.03 -1.2774 -0.956802 0
M  V30 17181 C 1580.23 -0.207018 -2.00434 0
M  V30 17182 O 1579.28 0.409954 -2.4915 0
M  V30 17183 C 1580.6 -2.64624 -1.42809 0
M  V30 17184 C 1582.14 -2.72266 -1.54402 0
M  V30 17185 C 1582.62 -4.09601 -2.04918 0
M  V30 17186 N 1584.11 -4.11735 -2.122 0
M  V30 17187 C 1584.84 -5.14842 -2.52439 0
M  V30 17188 N 1584.34 -6.28316 -2.91875 0
M  V30 17189 N 1586.13 -5.02196 -2.52499 0
M  V30 17190 H 1578.28 -2.12333 0.0533569 0
M  V30 17191 H 1580.55 -0.947208 -0.0387401 0
M  V30 17192 H 1580.25 -3.43983 -0.732728 0
M  V30 17193 H 1580.13 -2.90944 -2.40066 0
M  V30 17194 H 1582.51 -1.93232 -2.23037 0
M  V30 17195 H 1582.6 -2.49697 -0.555426 0
M  V30 17196 H 1582.24 -4.89108 -1.3688 0
M  V30 17197 H 1582.17 -4.29542 -3.04633 0
M  V30 17198 H 1584.66 -3.29833 -1.84441 0
M  V30 17199 H 1584.97 -7.0281 -3.21368 0
M  V30 17200 H 1583.32 -6.31767 -2.89647 0
M  V30 17201 H 1586.51 -4.12606 -2.21075 0
M  V30 17202 H 1586.68 -5.82677 -2.83535 0
M  V30 17203 N 1580.09 0.879207 -1.30796 0
M  V30 17204 C 1581.02 1.99134 -1.13482 0
M  V30 17205 C 1582.03 1.6262 -0.0764492 0
M  V30 17206 O 1583.22 1.75553 -0.323038 0
M  V30 17207 C 1580.32 3.31386 -0.709706 0
M  V30 17208 C 1579.5 3.963 -1.85108 0
M  V30 17209 C 1578.55 5.06858 -1.41356 0
M  V30 17210 O 1577.58 5.28178 -2.12172 0
M  V30 17211 N 1578.78 5.79746 -0.295789 0
M  V30 17212 H 1581.55 2.14536 -2.09271 0
M  V30 17213 H 1579.11 1.05264 -1.23009 0
M  V30 17214 H 1581.1 4.02719 -0.399903 0
M  V30 17215 H 1579.67 3.12209 0.156309 0
M  V30 17216 H 1578.89 3.18065 -2.3287 0
M  V30 17217 H 1580.18 4.36408 -2.61582 0
M  V30 17218 H 1579.58 5.64935 0.294166 0
M  V30 17219 H 1578.13 6.51784 -0.0454707 0
M  V30 17220 N 1581.57 1.13606 1.09231 0
M  V30 17221 C 1582.82 0.893694 1.8082 0
M  V30 17222 C 1583.13 -0.581713 1.8675 0
M  V30 17223 O 1584.34 -0.941079 2.54668 0
M  V30 17224 C 1582.79 1.54932 3.24845 0
M  V30 17225 C 1582.4 3.0604 3.27175 0
M  V30 17226 C 1584.14 1.38773 4.01176 0
M  V30 17227 C 1582.05 3.64478 4.65735 0
M  V30 17228 H 1580.98 0.330699 0.677609 0
M  V30 17229 H 1583.63 1.36401 1.22748 0
M  V30 17230 H 1582.01 1.00668 3.82991 0
M  V30 17231 H 1583.19 3.66901 2.78783 0
M  V30 17232 H 1581.5 3.21739 2.64335 0
M  V30 17233 H 1584.1 1.79843 5.03548 0
M  V30 17234 H 1584.44 0.33282 4.14967 0
M  V30 17235 H 1584.98 1.90028 3.49477 0
M  V30 17236 H 1581.71 4.69785 4.57146 0
M  V30 17237 H 1581.23 3.08396 5.14444 0
M  V30 17238 H 1582.91 3.64272 5.3471 0
M  V30 17239 N 1583.05 -1.27244 0.929878 0
M  V30 17240 C 1583.98 -2.29161 0.448066 0
M  V30 17241 C 1584.96 -1.62806 -0.492776 0
M  V30 17242 O 1586.14 -1.90098 -0.39706 0
M  V30 17243 C 1583.27 -3.46019 -0.298002 0
M  V30 17244 C 1582.23 -4.24384 0.555211 0
M  V30 17245 C 1581.55 -5.33741 -0.320153 0
M  V30 17246 C 1582.85 -4.89535 1.8208 0
M  V30 17247 H 1584.55 -2.69712 1.29983 0
M  V30 17248 H 1582.09 -1.29659 0.626466 0
M  V30 17249 H 1584.04 -4.16419 -0.646024 0
M  V30 17250 H 1582.77 -3.0439 -1.18381 0
M  V30 17251 H 1581.43 -3.55733 0.885971 0
M  V30 17252 H 1581.08 -4.88354 -1.20498 0
M  V30 17253 H 1580.78 -5.8708 0.247241 0
M  V30 17254 H 1582.3 -6.06982 -0.663697 0
M  V30 17255 H 1583.71 -5.52209 1.54071 0
M  V30 17256 H 1582.11 -5.52941 2.33186 0
M  V30 17257 H 1583.18 -4.13113 2.53901 0
M  V30 17258 N 1584.52 -0.695628 -1.41417 0
M  V30 17259 C 1585.49 -0.0392949 -2.29166 0
M  V30 17260 C 1586.49 0.70789 -1.4438 0
M  V30 17261 O 1587.68 0.542771 -1.65528 0
M  V30 17262 C 1584.81 0.954719 -3.27258 0
M  V30 17263 H 1586 -0.811902 -2.88701 0
M  V30 17264 H 1583.55 -0.459128 -1.49405 0
M  V30 17265 H 1584.29 1.75509 -2.72703 0
M  V30 17266 H 1584.07 0.422079 -3.89822 0
M  V30 17267 H 1585.56 1.41174 -3.93014 0
M  V30 17268 N 1586 1.51322 -0.440383 0
M  V30 17269 C 1587.41 1.86687 0.0220272 0
M  V30 17270 C 1587.76 1.35734 1.41671 0
M  V30 17271 O 1586.89 0.709408 2.04442 0
M  V30 17272 C 1587.48 3.38768 0.0467477 0
M  V30 17273 C 1586.04 3.73657 0.45358 0
M  V30 17274 C 1585.19 2.7506 -0.351779 0
M  V30 17275 H 1588.14 1.44503 -0.65609 0
M  V30 17276 H 1588.16 3.70756 0.855589 0
M  V30 17277 H 1587.67 3.75823 -0.968451 0
M  V30 17278 H 1585.77 3.42193 1.47427 0
M  V30 17279 H 1585.89 4.78776 0.176262 0
M  V30 17280 H 1584.25 2.53988 0.190334 0
M  V30 17281 H 1585.03 3.14957 -1.36591 0
M  V30 17282 N 1587.48 0.171848 1.5666 0
M  V30 17283 C 1588.73 -0.473669 1.97191 0
M  V30 17284 C 1589.06 -1.6286 1.05784 0
M  V30 17285 O 1588.33 -1.94216 0.105084 0
M  V30 17286 C 1588.62 -0.956134 3.47174 0
M  V30 17287 C 1588.47 0.199007 4.4936 0
M  V30 17288 C 1589.79 -1.82962 4.00266 0
M  V30 17289 H 1586.91 -0.170704 0.716958 0
M  V30 17290 H 1589.55 0.25809 1.88239 0
M  V30 17291 H 1587.7 -1.57969 3.54934 0
M  V30 17292 H 1589.37 0.836109 4.53659 0
M  V30 17293 H 1587.61 0.85442 4.25302 0
M  V30 17294 H 1588.29 -0.180704 5.51704 0
M  V30 17295 H 1590.76 -1.30394 3.95141 0
M  V30 17296 H 1589.64 -2.13621 5.05625 0
M  V30 17297 H 1589.9 -2.77557 3.44114 0
M  V30 17298 N 1588.96 -1.5727 -0.101874 0
M  V30 17299 C 1590.2 -1.86017 -0.807795 0
M  V30 17300 C 1590.54 -0.760024 -1.7871 0
M  V30 17301 O 1589.81 0.232627 -1.93104 0
M  V30 17302 C 1590.09 -3.25388 -1.54255 0
M  V30 17303 C 1589.95 -4.46023 -0.581693 0
M  V30 17304 C 1591.27 -3.62561 -2.49474 0
M  V30 17305 H 1588.39 -0.676596 -0.29221 0
M  V30 17306 H 1591.03 -1.89865 -0.0715861 0
M  V30 17307 H 1589.18 -3.22239 -2.17013 0
M  V30 17308 H 1590.85 -4.61284 0.0383529 0
M  V30 17309 H 1589.09 -4.33672 0.105465 0
M  V30 17310 H 1589.76 -5.40251 -1.1328 0
M  V30 17311 H 1592.24 -3.66611 -1.96813 0
M  V30 17312 H 1591.12 -4.61025 -2.97905 0
M  V30 17313 H 1591.38 -2.90885 -3.32924 0
M  V30 17314 N 1590.44 0.372521 -1.53134 0
M  V30 17315 C 1591.38 1.45597 -1.79082 0
M  V30 17316 C 1592.35 1.5349 -0.63482 0
M  V30 17317 O 1593.54 1.69488 -0.876276 0
M  V30 17318 C 1590.68 2.8263 -1.98026 0
M  V30 17319 C 1589.79 2.83758 -3.25738 0
M  V30 17320 C 1588.93 4.12322 -3.34909 0
M  V30 17321 C 1587.96 4.07565 -4.5668 0
M  V30 17322 N 1587.1 5.27766 -4.63042 0
M  V30 17323 H 1591.94 1.22771 -2.71535 0
M  V30 17324 H 1589.48 0.595285 -1.34517 0
M  V30 17325 H 1591.44 3.62227 -2.06997 0
M  V30 17326 H 1590.07 3.0387 -1.08917 0
M  V30 17327 H 1589.12 1.96435 -3.25757 0
M  V30 17328 H 1590.43 2.76114 -4.15406 0
M  V30 17329 H 1589.58 5.00331 -3.43153 0
M  V30 17330 H 1588.32 4.22709 -2.43245 0
M  V30 17331 H 1587.33 3.17943 -4.48545 0
M  V30 17332 H 1588.55 3.98786 -5.49678 0
M  V30 17333 H 1586.5 5.38752 -3.74276 0
M  V30 17334 H 1586.42 5.22264 -5.46605 0
M  V30 17335 H 1587.68 6.17626 -4.75561 0
M  V30 17336 N 1591.91 1.44376 0.631925 0
M  V30 17337 C 1592.82 1.5367 1.77264 0
M  V30 17338 C 1593.84 0.422425 1.68794 0
M  V30 17339 O 1595.02 0.679656 1.89585 0
M  V30 17340 C 1592.08 1.47743 3.13644 0
M  V30 17341 C 1591.14 2.70015 3.33752 0
M  V30 17342 C 1590.37 2.64362 4.63626 0
M  V30 17343 O 1590.6 1.7032 5.44378 0
M  V30 17344 O 1589.53 3.55201 4.85918 0
M  V30 17345 H 1593.36 2.5004 1.72376 0
M  V30 17346 H 1590.94 1.26614 0.793052 0
M  V30 17347 H 1592.82 1.46958 3.94945 0
M  V30 17348 H 1591.5 0.545165 3.19076 0
M  V30 17349 H 1590.41 2.76369 2.52133 0
M  V30 17350 H 1591.74 3.62286 3.33181 0
M  V30 17351 N 1593.39 -0.872258 1.31261 0
M  V30 17352 C 1594.64 -1.6199 1.20176 0
M  V30 17353 C 1594.95 -1.94129 -0.239439 0
M  V30 17354 O 1596.16 -2.67366 -0.471956 0
M  V30 17355 C 1594.62 -2.92017 2.10366 0
M  V30 17356 C 1594.22 -2.6737 3.59468 0
M  V30 17357 C 1595.97 -3.70007 2.08075 0
M  V30 17358 C 1593.87 -3.93291 4.41674 0
M  V30 17359 H 1592.8 -0.607793 0.446211 0
M  V30 17360 H 1595.46 -0.964627 1.561 0
M  V30 17361 H 1593.84 -3.58907 1.67338 0
M  V30 17362 H 1595.01 -2.08902 4.10727 0
M  V30 17363 H 1593.33 -2.02738 3.63712 0
M  V30 17364 H 1595.92 -4.63416 2.66739 0
M  V30 17365 H 1596.27 -4.02385 1.06733 0
M  V30 17366 H 1596.8 -3.09998 2.49291 0
M  V30 17367 H 1593.54 -3.66064 5.43762 0
M  V30 17368 H 1593.06 -4.51218 3.95174 0
M  V30 17369 H 1594.74 -4.61197 4.53769 0
M  V30 17370 N 1594.87 -1.14184 -1.08627 0
M  V30 17371 C 1595.8 -0.770338 -2.14805 0
M  V30 17372 C 1596.78 0.247269 -1.60709 0
M  V30 17373 O 1597.96 0.136851 -1.88003 0
M  V30 17374 C 1595.09 -0.143349 -3.38397 0
M  V30 17375 C 1594.14 -1.13077 -4.11237 0
M  V30 17376 S 1594.97 -2.667 -4.64361 0
M  V30 17377 C 1596.13 -2.05384 -5.91243 0
M  V30 17378 H 1596.36 -1.66968 -2.45986 0
M  V30 17379 H 1593.89 -0.962834 -1.20702 0
M  V30 17380 H 1595.85 0.211987 -4.09952 0
M  V30 17381 H 1594.51 0.733388 -3.05418 0
M  V30 17382 H 1593.7 -0.64004 -4.99919 0
M  V30 17383 H 1593.31 -1.42998 -3.45583 0
M  V30 17384 H 1595.6 -1.40791 -6.6271 0
M  V30 17385 H 1596.54 -2.92181 -6.45008 0
M  V30 17386 H 1596.95 -1.50209 -5.44149 0
M  V30 17387 N 1596.35 1.26749 -0.936613 0
M  V30 17388 C 1597.63 1.89106 -0.49981 0
M  V30 17389 C 1598.01 1.84687 1.02244 0
M  V30 17390 O 1597.35 1.2981 1.88047 0
M  V30 17391 C 1597.56 3.32641 -1.05598 0
M  V30 17392 C 1598.91 4.09511 -1.12187 0
M  V30 17393 O 1599.94 3.41692 -1.00624 0
M  V30 17394 O 1598.79 5.30785 -1.30113 0
M  V30 17395 H 1595.89 0.810941 -0.162185 0
M  V30 17396 H 1598.43 1.34952 -1.02888 0
M  V30 17397 H 1597.21 3.30196 -2.09968 0
M  V30 17398 H 1596.83 3.94327 -0.509086 0
M  V30 17399 N 1597.83 0.703118 1.41046 0
M  V30 17400 C 1599.1 0.164985 1.94903 0
M  V30 17401 C 1599.48 -1.32665 1.64205 0
M  V30 17402 O 1598.83 -2.07675 0.953058 0
M  V30 17403 C 1599.04 0.464354 3.45897 0
M  V30 17404 C 1600.39 0.396205 4.22747 0
M  V30 17405 O 1601.41 0.399698 3.5395 0
M  V30 17406 O 1600.27 0.362874 5.45294 0
M  V30 17407 H 1597.37 0.0193901 0.826773 0
M  V30 17408 H 1599.91 0.779796 1.50722 0
M  V30 17409 H 1598.68 1.49653 3.61552 0
M  V30 17410 H 1598.31 -0.18105 3.97188 0
M  V30 17411 N 1599.3 -1.51086 0.448402 0
M  V30 17412 C 1600.25 -2.28015 -0.357438 0
M  V30 17413 C 1601.22 -1.32079 -1.00719 0
M  V30 17414 O 1602.41 -1.60995 -1.02398 0
M  V30 17415 C 1599.55 -3.13324 -1.44644 0
M  V30 17416 C 1598.66 -4.24267 -0.813729 0
M  V30 17417 C 1597.79 -4.96868 -1.87871 0
M  V30 17418 C 1596.83 -5.99716 -1.22502 0
M  V30 17419 N 1595.97 -6.65682 -2.23185 0
M  V30 17420 H 1600.81 -2.96436 0.30493 0
M  V30 17421 H 1598.35 -1.46203 0.162222 0
M  V30 17422 H 1600.31 -3.61119 -2.08924 0
M  V30 17423 H 1598.94 -2.46996 -2.07829 0
M  V30 17424 H 1597.99 -3.80354 -0.0589414 0
M  V30 17425 H 1599.3 -4.97917 -0.296587 0
M  V30 17426 H 1598.45 -5.48266 -2.59786 0
M  V30 17427 H 1597.19 -4.22873 -2.42961 0
M  V30 17428 H 1596.2 -5.476 -0.491388 0
M  V30 17429 H 1597.42 -6.75674 -0.681315 0
M  V30 17430 H 1595.37 -5.94493 -2.77334 0
M  V30 17431 H 1595.29 -7.35134 -1.76393 0
M  V30 17432 H 1596.55 -7.21707 -2.9455 0
M  V30 17433 N 1600.78 -0.180154 -1.56567 0
M  V30 17434 C 1602.01 0.471692 -2.01965 0
M  V30 17435 C 1602.43 1.5542 -1.05954 0
M  V30 17436 O 1601.79 1.81255 -0.0405307 0
M  V30 17437 C 1601.84 1.01883 -3.45908 0
M  V30 17438 O 1600.94 2.13245 -3.52988 0
M  V30 17439 H 1600.28 0.11197 -0.654491 0
M  V30 17440 H 1602.81 -0.286642 -2.02582 0
M  V30 17441 H 1602.82 1.33922 -3.85395 0
M  V30 17442 H 1601.5 0.226299 -4.15284 0
M  V30 17443 H 1600.08 1.82184 -3.25367 0
M  V30 17444 N 1602.26 1.57322 0.0935319 0
M  V30 17445 C 1603.19 2.05208 1.11409 0
M  V30 17446 C 1604.17 0.941295 1.41681 0
M  V30 17447 O 1605.36 1.21266 1.51684 0
M  V30 17448 C 1602.49 2.47782 2.43354 0
M  V30 17449 C 1601.44 3.62538 2.27486 0
M  V30 17450 C 1600.77 3.91095 3.64622 0
M  V30 17451 C 1602.07 4.93371 1.71412 0
M  V30 17452 H 1603.76 2.9072 0.715702 0
M  V30 17453 H 1601.31 1.3986 0.342827 0
M  V30 17454 H 1603.26 2.79891 3.15022 0
M  V30 17455 H 1601.98 1.59272 2.85132 0
M  V30 17456 H 1600.64 3.30679 1.58263 0
M  V30 17457 H 1600.29 2.99749 4.0393 0
M  V30 17458 H 1599.99 4.68353 3.5485 0
M  V30 17459 H 1601.51 4.25679 4.37755 0
M  V30 17460 H 1602.93 5.23851 2.32922 0
M  V30 17461 H 1601.33 5.74804 1.72395 0
M  V30 17462 H 1602.4 4.80197 0.67368 0
M  V30 17463 N 1603.74 -0.364395 1.53329 0
M  V30 17464 C 1604.69 -1.46678 1.80523 0
M  V30 17465 C 1605.68 -1.55396 0.674421 0
M  V30 17466 O 1606.89 -1.58268 0.857385 0
M  V30 17467 H 1603.26 -0.488652 0.571597 0
M  V30 17468 H 1605.23 -1.20947 2.7279 0
M  V30 17469 C 1603.98 -2.83496 2.01309 0
M  V30 17470 H 1603.3 -2.77546 2.87764 0
M  V30 17471 H 1604.74 -3.59805 2.24313 0
M  V30 17472 C 1603.2 -3.27445 0.792539 0
M  V30 17473 O 1603.73 -4.01696 -0.0181965 0
M  V30 17474 N 1601.94 -2.84004 0.615643 0
M  V30 17475 H 1601.49 -2.23746 1.27654 0
M  V30 17476 H 1601.44 -3.13766 -0.199604 0
M  V30 17477 N 1605.22 -1.44709 -0.62426 0
M  V30 17478 C 1606.47 -1.47131 -1.37968 0
M  V30 17479 C 1606.78 -0.110507 -1.95288 0
M  V30 17480 O 1607.98 -0.0122892 -2.71497 0
M  V30 17481 C 1606.44 -2.59059 -2.49833 0
M  V30 17482 C 1606.05 -4.01378 -1.98997 0
M  V30 17483 C 1607.79 -2.70709 -3.26981 0
M  V30 17484 C 1605.7 -5.04717 -3.08244 0
M  V30 17485 H 1604.63 -0.547424 -0.5185 0
M  V30 17486 H 1607.28 -1.70797 -0.670863 0
M  V30 17487 H 1605.66 -2.28646 -3.23322 0
M  V30 17488 H 1606.84 -4.41391 -1.32327 0
M  V30 17489 H 1605.15 -3.9403 -1.34644 0
M  V30 17490 H 1607.75 -3.45087 -4.08435 0
M  V30 17491 H 1608.09 -1.76763 -3.76909 0
M  V30 17492 H 1608.62 -3.00566 -2.60585 0
M  V30 17493 H 1605.36 -6.00315 -2.63253 0
M  V30 17494 H 1604.88 -4.6929 -3.73534 0
M  V30 17495 H 1606.56 -5.28725 -3.72906 0
M  V30 17496 N 1606.69 0.865285 -1.31722 0
M  V30 17497 C 1607.64 1.97294 -1.19766 0
M  V30 17498 C 1608.61 1.65896 -0.0823232 0
M  V30 17499 O 1609.8 1.89075 -0.256009 0
M  V30 17500 C 1606.94 3.32727 -0.915776 0
M  V30 17501 C 1606.05 3.76691 -2.11489 0
M  V30 17502 C 1605.18 5.00865 -1.76939 0
M  V30 17503 C 1604.22 5.37291 -2.93232 0
M  V30 17504 N 1603.36 6.52643 -2.58846 0
M  V30 17505 H 1608.2 2.06851 -2.14515 0
M  V30 17506 H 1605.74 1.01256 -1.06703 0
M  V30 17507 H 1607.7 4.10712 -0.732881 0
M  V30 17508 H 1606.33 3.228 -0.00510917 0
M  V30 17509 H 1605.38 2.94449 -2.4084 0
M  V30 17510 H 1606.69 3.99613 -2.98514 0
M  V30 17511 H 1605.84 5.86529 -1.5514 0
M  V30 17512 H 1604.58 4.79857 -0.871125 0
M  V30 17513 H 1603.59 4.50143 -3.15675 0
M  V30 17514 H 1604.81 5.60262 -3.83775 0
M  V30 17515 H 1602.76 6.33172 -1.71548 0
M  V30 17516 H 1602.68 6.75531 -3.39401 0
M  V30 17517 H 1603.94 7.41487 -2.40451 0
M  V30 17518 N 1608.17 1.14759 1.0802 0
M  V30 17519 C 1609.4 0.941887 1.84218 0
M  V30 17520 C 1609.82 -0.509702 1.8179 0
M  V30 17521 O 1609.17 -1.35331 1.22441 0
M  V30 17522 C 1609.22 1.43978 3.31591 0
M  V30 17523 O 1608.94 2.83449 3.34048 0
M  V30 17524 C 1610.45 1.27459 4.24581 0
M  V30 17525 H 1607.67 0.334942 0.581425 0
M  V30 17526 H 1610.21 1.52367 1.36399 0
M  V30 17527 H 1608.36 0.900674 3.76785 0
M  V30 17528 H 1608.78 3.05878 4.26073 0
M  V30 17529 H 1610.25 1.67151 5.26084 0
M  V30 17530 H 1610.73 0.217925 4.38659 0
M  V30 17531 H 1611.34 1.80243 3.85217 0
M  V30 17532 N 1609.65 -1.26251 0.943322 0
M  V30 17533 C 1610.93 -1.88839 0.509831 0
M  V30 17534 C 1611.31 -1.85227 -1.01263 0
M  V30 17535 O 1610.66 -1.30805 -1.87356 0
M  V30 17536 C 1610.87 -3.32076 1.07361 0
M  V30 17537 C 1612.21 -4.0891 1.14357 0
M  V30 17538 O 1613.24 -3.41153 1.02435 0
M  V30 17539 O 1612.1 -5.30088 1.32926 0
M  V30 17540 H 1609.19 -0.810069 0.166484 0
M  V30 17541 H 1611.74 -1.34405 1.03602 0
M  V30 17542 H 1610.51 -3.29077 2.11716 0
M  V30 17543 H 1610.13 -3.94052 0.529991 0
M  V30 17544 N 1611.13 -0.710588 -1.40671 0
M  V30 17545 C 1612.54 -0.320926 -1.83921 0
M  V30 17546 C 1612.89 1.14358 -1.59426 0
M  V30 17547 O 1612.02 1.87952 -1.07252 0
M  V30 17548 C 1612.61 -0.5757 -3.33873 0
M  V30 17549 C 1611.17 -0.239799 -3.75635 0
M  V30 17550 C 1610.32 -0.850552 -2.63934 0
M  V30 17551 H 1613.27 -0.910118 -1.3001 0
M  V30 17552 H 1613.29 0.160707 -3.8016 0
M  V30 17553 H 1612.8 -1.64166 -3.51669 0
M  V30 17554 H 1610.9 0.821297 -3.63436 0
M  V30 17555 H 1611.02 -0.705306 -4.7388 0
M  V30 17556 H 1609.38 -0.278977 -2.53168 0
M  V30 17557 H 1610.16 -1.92068 -2.84543 0
M  V30 17558 N 1612.61 1.50847 -0.456408 0
M  V30 17559 C 1613.85 2.02534 0.103772 0
M  V30 17560 C 1614.19 1.33874 1.40682 0
M  V30 17561 O 1613.46 0.459695 1.8899 0
M  V30 17562 C 1613.74 3.58825 0.302817 0
M  V30 17563 C 1613.6 4.38077 -1.02022 0
M  V30 17564 C 1614.92 4.27044 1.06404 0
M  V30 17565 H 1612.04 0.736108 0.0362398 0
M  V30 17566 H 1614.68 1.80306 -0.599134 0
M  V30 17567 H 1612.83 3.77895 0.901542 0
M  V30 17568 H 1614.5 4.30613 -1.6544 0
M  V30 17569 H 1612.74 4.02401 -1.62036 0
M  V30 17570 H 1613.41 5.45652 -0.834766 0
M  V30 17571 H 1615.89 4.12359 0.556698 0
M  V30 17572 H 1614.77 5.3624 1.17209 0
M  V30 17573 H 1615.03 3.89204 2.09697 0
M  V30 17574 N 1614.09 0.188454 1.56469 0
M  V30 17575 C 1615.36 -0.499324 1.89119 0
M  V30 17576 C 1615.74 -1.80116 1.10098 0
M  V30 17577 O 1615.09 -2.27623 0.200048 0
M  V30 17578 C 1615.3 -0.724574 3.41396 0
M  V30 17579 C 1616.65 -1.04692 4.11491 0
M  V30 17580 O 1617.67 -0.812526 3.46809 0
M  V30 17581 O 1616.53 -1.48998 5.25797 0
M  V30 17582 H 1613.63 -0.259468 0.785242 0
M  V30 17583 H 1616.17 0.228172 1.68159 0
M  V30 17584 H 1614.94 0.195039 3.90814 0
M  V30 17585 H 1614.57 -1.50477 3.68025 0
M  V30 17586 N 1615.56 -1.5737 -0.0851874 0
M  V30 17587 C 1616.81 -1.85772 -0.785604 0
M  V30 17588 C 1617.13 -0.779172 -1.79411 0
M  V30 17589 O 1618.33 -0.950621 -2.54314 0
M  V30 17590 C 1616.79 -3.29484 -1.44805 0
M  V30 17591 C 1616.4 -4.45434 -0.478799 0
M  V30 17592 C 1618.14 -3.671 -2.13161 0
M  V30 17593 C 1616.05 -5.80183 -1.1464 0
M  V30 17594 H 1614.98 -0.69298 -0.297145 0
M  V30 17595 H 1617.63 -1.83459 -0.0386776 0
M  V30 17596 H 1616.01 -3.26367 -2.24278 0
M  V30 17597 H 1617.18 -4.59917 0.285148 0
M  V30 17598 H 1615.5 -4.16281 0.0995964 0
M  V30 17599 H 1618.1 -4.65061 -2.6386 0
M  V30 17600 H 1618.44 -2.96223 -2.92503 0
M  V30 17601 H 1618.97 -3.72148 -1.40536 0
M  V30 17602 H 1615.71 -6.54317 -0.393583 0
M  V30 17603 H 1615.23 -5.69525 -1.88153 0
M  V30 17604 H 1616.91 -6.25074 -1.67006 0
M  V30 17605 N 1617.04 0.356258 -1.53521 0
M  V30 17606 C 1618.27 1.11666 -1.73823 0
M  V30 17607 C 1618.68 1.83235 -0.471338 0
M  V30 17608 O 1618.02 1.74762 0.566035 0
M  V30 17609 C 1618.08 2.18429 -2.85533 0
M  V30 17610 C 1617.75 1.66545 -4.25572 0
M  V30 17611 C 1618.75 1.12454 -5.07592 0
M  V30 17612 C 1616.43 1.71776 -4.72015 0
M  V30 17613 C 1618.42 0.642826 -6.3415 0
M  V30 17614 C 1616.11 1.23217 -5.98549 0
M  V30 17615 C 1617.11 0.695609 -6.79449 0
M  V30 17616 O 1616.8 0.217211 -8.03606 0
M  V30 17617 H 1616.53 0.339418 -0.584612 0
M  V30 17618 H 1619.08 0.418173 -2.01098 0
M  V30 17619 H 1617.31 2.91798 -2.53753 0
M  V30 17620 H 1619 2.79934 -2.93925 0
M  V30 17621 H 1619.77 1.07745 -4.72881 0
M  V30 17622 H 1615.65 2.12481 -4.09112 0
M  V30 17623 H 1619.19 0.223354 -6.97242 0
M  V30 17624 H 1615.09 1.27623 -6.32758 0
M  V30 17625 H 1615.86 0.335679 -8.17811 0
M  V30 17626 N 1618.52 1.45038 0.616577 0
M  V30 17627 C 1619.47 1.53022 1.7278 0
M  V30 17628 C 1620.44 0.376778 1.6177 0
M  V30 17629 O 1621.62 0.589006 1.81481 0
M  V30 17630 C 1618.76 1.49432 3.11069 0
M  V30 17631 C 1617.87 2.7526 3.3295 0
M  V30 17632 C 1617.01 2.63403 4.61294 0
M  V30 17633 C 1616.05 3.84327 4.76402 0
M  V30 17634 N 1615.19 3.71058 5.96037 0
M  V30 17635 H 1620.03 2.47957 1.65292 0
M  V30 17636 H 1617.56 1.23046 0.806102 0
M  V30 17637 H 1619.52 1.45339 3.91066 0
M  V30 17638 H 1618.15 0.580542 3.17537 0
M  V30 17639 H 1617.2 2.89479 2.46792 0
M  V30 17640 H 1618.51 3.64978 3.39989 0
M  V30 17641 H 1617.67 2.57226 5.49472 0
M  V30 17642 H 1616.41 1.7127 4.56638 0
M  V30 17643 H 1615.41 3.90873 3.8665 0
M  V30 17644 H 1616.64 4.77515 4.82863 0
M  V30 17645 H 1614.58 2.81687 5.92443 0
M  V30 17646 H 1614.5 4.54403 6.04197 0
M  V30 17647 H 1615.77 3.68798 6.86738 0
M  V30 17648 N 1620 -0.858287 1.32179 0
M  V30 17649 C 1621.22 -1.64997 1.25662 0
M  V30 17650 C 1621.65 -1.87303 -0.173021 0
M  V30 17651 O 1621.01 -1.42319 -1.12317 0
M  V30 17652 C 1621.05 -2.98855 2.01787 0
M  V30 17653 O 1620.16 -3.89218 1.36319 0
M  V30 17654 H 1619.5 -0.503169 0.433264 0
M  V30 17655 H 1622.03 -1.06926 1.74436 0
M  V30 17656 H 1622.04 -3.48704 2.11824 0
M  V30 17657 H 1620.71 -2.81941 3.05748 0
M  V30 17658 H 1619.29 -3.4768 1.34807 0
M  V30 17659 N 1621.48 -1.1533 -1.07409 0
M  V30 17660 C 1622.72 -0.939155 -1.8042 0
M  V30 17661 C 1623.08 0.528116 -1.8501 0
M  V30 17662 O 1622.37 1.38649 -1.32239 0
M  V30 17663 C 1622.56 -1.48646 -3.25022 0
M  V30 17664 C 1622.39 -3.00542 -3.34522 0
M  V30 17665 C 1621.16 -3.69083 -3.45117 0
M  V30 17666 C 1623.36 -3.98331 -3.25326 0
M  V30 17667 N 1621.34 -5.08794 -3.43513 0
M  V30 17668 C 1622.71 -5.24356 -3.30833 0
M  V30 17669 C 1624.77 -3.9031 -3.09132 0
M  V30 17670 C 1623.47 -6.43295 -3.21813 0
M  V30 17671 C 1625.5 -5.08807 -3.01446 0
M  V30 17672 C 1624.86 -6.33706 -3.07565 0
M  V30 17673 H 1620.96 -0.397311 -0.673549 0
M  V30 17674 H 1623.54 -1.46524 -1.28214 0
M  V30 17675 H 1621.71 -0.987019 -3.75649 0
M  V30 17676 H 1623.45 -1.2112 -3.8615 0
M  V30 17677 H 1620.2 -3.19672 -3.49438 0
M  V30 17678 H 1620.62 -5.81761 -3.46242 0
M  V30 17679 H 1625.27 -2.94612 -3.03255 0
M  V30 17680 H 1622.98 -7.39227 -3.26449 0
M  V30 17681 H 1626.57 -5.0436 -2.9002 0
M  V30 17682 H 1625.45 -7.23858 -3.01661 0
M  V30 17683 N 1622.95 1.25748 -0.950004 0
M  V30 17684 C 1624.2 1.93622 -0.603186 0
M  V30 17685 C 1624.53 1.74271 0.856925 0
M  V30 17686 O 1623.81 1.08502 1.61423 0
M  V30 17687 C 1624.09 3.4715 -0.957024 0
M  V30 17688 C 1623.94 3.75747 -2.47253 0
M  V30 17689 C 1625.26 4.37488 -0.478754 0
M  V30 17690 H 1622.38 0.703206 -0.220612 0
M  V30 17691 H 1625.02 1.48453 -1.18582 0
M  V30 17692 H 1623.17 3.85753 -0.46122 0
M  V30 17693 H 1624.85 3.46808 -3.04174 0
M  V30 17694 H 1623.09 3.21516 -2.91222 0
M  V30 17695 H 1623.76 4.83097 -2.67061 0
M  V30 17696 H 1626.24 4.06162 -0.903987 0
M  V30 17697 H 1625.11 5.43682 -0.755073 0
M  V30 17698 H 1625.37 4.37712 0.621303 0
M  V30 17699 N 1624.43 0.718038 1.40292 0
M  V30 17700 C 1625.38 0.0559466 2.32533 0
M  V30 17701 C 1626.37 -0.744365 1.5217 0
M  V30 17702 O 1627.58 -0.647458 1.67952 0
M  V30 17703 H 1623.95 -0.000710627 0.752 0
M  V30 17704 H 1625.93 0.850579 2.8602 0
M  V30 17705 C 1624.67 -0.849927 3.37152 0
M  V30 17706 H 1624 -0.243507 3.99058 0
M  V30 17707 H 1625.44 -1.28111 4.04183 0
M  V30 17708 C 1623.9 -1.9765 2.7283 0
M  V30 17709 O 1624.43 -3.06757 2.59351 0
M  V30 17710 N 1622.63 -1.76086 2.31176 0
M  V30 17711 H 1622.18 -0.873485 2.42339 0
M  V30 17712 H 1622.14 -2.51643 1.88477 0
M  V30 17713 N 1625.91 -1.50602 0.464402 0
M  V30 17714 C 1626.84 -2.26203 -0.36943 0
M  V30 17715 C 1627.86 -1.31269 -0.962924 0
M  V30 17716 O 1629.04 -1.56829 -0.852465 0
M  V30 17717 C 1626.14 -3.02323 -1.53147 0
M  V30 17718 C 1625.32 -4.24561 -1.05198 0
M  V30 17719 C 1624.38 -4.83031 -2.08729 0
M  V30 17720 O 1623.4 -5.44131 -1.67062 0
M  V30 17721 N 1624.6 -4.6944 -3.41477 0
M  V30 17722 H 1627.37 -2.98402 0.278652 0
M  V30 17723 H 1624.93 -1.59193 0.294803 0
M  V30 17724 H 1626.92 -3.38319 -2.22086 0
M  V30 17725 H 1625.49 -2.32965 -2.08438 0
M  V30 17726 H 1624.71 -3.93748 -0.188705 0
M  V30 17727 H 1626 -5.0383 -0.709434 0
M  V30 17728 H 1625.4 -4.20832 -3.78044 0
M  V30 17729 H 1623.96 -5.09724 -4.06233 0
M  V30 17730 N 1627.39 -0.19675 -1.56367 0
M  V30 17731 C 1628.32 0.762808 -2.15073 0
M  V30 17732 C 1629.3 1.20843 -1.08792 0
M  V30 17733 O 1630.48 1.29565 -1.36913 0
M  V30 17734 C 1627.61 2.03039 -2.71096 0
M  V30 17735 C 1626.66 1.72675 -3.89981 0
M  V30 17736 S 1627.49 0.873403 -5.28329 0
M  V30 17737 C 1628.65 2.15109 -5.87775 0
M  V30 17738 H 1628.88 0.263751 -2.96128 0
M  V30 17739 H 1626.41 0.0182687 -1.54389 0
M  V30 17740 H 1628.37 2.75834 -3.04017 0
M  V30 17741 H 1627.03 2.50057 -1.9008 0
M  V30 17742 H 1626.22 2.66792 -4.27596 0
M  V30 17743 H 1625.83 1.07961 -3.58079 0
M  V30 17744 H 1628.12 3.10348 -6.02238 0
M  V30 17745 H 1629.06 1.81924 -6.84331 0
M  V30 17746 H 1629.47 2.28031 -5.16394 0
M  V30 17747 N 1628.87 1.57413 0.0768405 0
M  V30 17748 C 1629.78 2.06688 1.10983 0
M  V30 17749 C 1630.79 0.995392 1.42716 0
M  V30 17750 O 1631.97 1.30977 1.52994 0
M  V30 17751 C 1629.03 2.49676 2.40546 0
M  V30 17752 C 1628.09 3.71101 2.1583 0
M  V30 17753 C 1627.33 4.1203 3.39216 0
M  V30 17754 O 1627.55 3.52877 4.48145 0
M  V30 17755 O 1626.48 5.04856 3.27726 0
M  V30 17756 H 1630.31 2.95012 0.721242 0
M  V30 17757 H 1627.9 1.46546 0.290624 0
M  V30 17758 H 1629.78 2.77871 3.16805 0
M  V30 17759 H 1628.45 1.64484 2.78795 0
M  V30 17760 H 1627.36 3.47996 1.37293 0
M  V30 17761 H 1628.69 4.5713 1.82465 0
M  V30 17762 N 1630.34 -0.348112 1.53707 0
M  V30 17763 C 1631.57 -1.11346 1.74976 0
M  V30 17764 C 1631.99 -1.81726 0.485525 0
M  V30 17765 O 1631.35 -1.72384 -0.561565 0
M  V30 17766 C 1631.4 -2.10611 2.92703 0
M  V30 17767 O 1630.5 -3.18042 2.62532 0
M  V30 17768 H 1629.85 -0.322247 0.580563 0
M  V30 17769 H 1632.38 -0.399898 2.00654 0
M  V30 17770 H 1632.39 -2.53912 3.19363 0
M  V30 17771 H 1631.06 -1.58782 3.84397 0
M  V30 17772 H 1629.64 -2.79591 2.46746 0
M  V30 17773 N 1631.82 -1.45363 -0.608876 0
M  V30 17774 C 1632.75 -1.49944 -1.73348 0
M  V30 17775 C 1633.77 -0.390352 -1.58051 0
M  V30 17776 O 1634.96 -0.657338 -1.65956 0
M  V30 17777 C 1632.06 -1.33886 -3.11332 0
M  V30 17778 C 1631.23 -2.58445 -3.52881 0
M  V30 17779 C 1630.29 -2.36963 -4.69825 0
M  V30 17780 O 1629.31 -3.10569 -4.77007 0
M  V30 17781 N 1630.52 -1.41442 -5.63005 0
M  V30 17782 H 1633.28 -2.46902 -1.69882 0
M  V30 17783 H 1630.84 -1.41086 -0.794119 0
M  V30 17784 H 1632.83 -1.17327 -3.8732 0
M  V30 17785 H 1631.4 -0.452095 -3.09314 0
M  V30 17786 H 1630.62 -2.90129 -2.66869 0
M  V30 17787 H 1631.91 -3.41245 -3.77398 0
M  V30 17788 H 1631.31 -0.806941 -5.59915 0
M  V30 17789 H 1629.87 -1.30855 -6.3853 0
M  V30 17790 N 1633.3 0.851265 -1.32632 0
M  V30 17791 C 1634.53 1.63805 -1.26394 0
M  V30 17792 C 1634.94 1.88056 0.167454 0
M  V30 17793 O 1634.3 1.45196 1.10564 0
M  V30 17794 C 1634.35 2.9954 -2.02381 0
M  V30 17795 O 1634.07 2.76361 -3.39935 0
M  V30 17796 C 1635.57 3.93982 -2.03207 0
M  V30 17797 H 1632.79 0.510088 -0.435948 0
M  V30 17798 H 1635.34 1.06123 -1.74809 0
M  V30 17799 H 1633.49 3.53859 -1.5768 0
M  V30 17800 H 1633.91 3.62708 -3.78871 0
M  V30 17801 H 1635.38 4.86478 -2.60851 0
M  V30 17802 H 1635.86 4.27211 -1.01918 0
M  V30 17803 H 1636.46 3.45601 -2.47871 0
M  V30 17804 N 1634.78 1.15898 1.06796 0
M  V30 17805 C 1636.03 0.935488 1.79145 0
M  V30 17806 C 1636.35 -0.538433 1.87419 0
M  V30 17807 O 1635.62 -1.39124 1.37917 0
M  V30 17808 H 1634.2 0.343123 0.663533 0
M  V30 17809 H 1636.86 1.4607 1.29034 0
M  V30 17810 H 1635.96 1.34978 2.81402 0
M  V30 17811 N 1636.26 -1.25243 0.956659 0
M  V30 17812 C 1637.17 -2.29529 0.48515 0
M  V30 17813 C 1638.18 -1.68121 -0.448494 0
M  V30 17814 O 1639.36 -1.98773 -0.324243 0
M  V30 17815 C 1636.42 -3.45952 -0.227611 0
M  V30 17816 C 1635.48 -4.22795 0.744495 0
M  V30 17817 C 1634.72 -5.3366 0.0656539 0
M  V30 17818 O 1634.94 -5.58722 -1.14829 0
M  V30 17819 O 1633.87 -5.97181 0.75222 0
M  V30 17820 H 1637.7 -2.71955 1.35181 0
M  V30 17821 H 1635.29 -1.30729 0.723203 0
M  V30 17822 H 1637.17 -4.16687 -0.628474 0
M  V30 17823 H 1635.84 -3.05524 -1.06942 0
M  V30 17824 H 1634.75 -3.5448 1.1956 0
M  V30 17825 H 1636.08 -4.67012 1.55438 0
M  V30 17826 N 1637.73 -0.725468 -1.3991 0
M  V30 17827 C 1638.7 -0.0878956 -2.29031 0
M  V30 17828 C 1639.7 0.677105 -1.45849 0
M  V30 17829 O 1640.89 0.507538 -1.66642 0
M  V30 17830 C 1638.02 0.885087 -3.2921 0
M  V30 17831 H 1639.21 -0.872957 -2.86914 0
M  V30 17832 H 1636.77 -0.490715 -1.48397 0
M  V30 17833 H 1637.5 1.69685 -2.76365 0
M  V30 17834 H 1637.29 0.339297 -3.90629 0
M  V30 17835 H 1638.78 1.32806 -3.9592 0
M  V30 17836 N 1639.21 1.50354 -0.472382 0
M  V30 17837 C 1640.44 2.07238 0.0820787 0
M  V30 17838 C 1640.86 1.3338 1.32632 0
M  V30 17839 O 1640.22 0.381857 1.77233 0
M  V30 17840 C 1640.27 3.58919 0.347746 0
M  V30 17841 O 1639.37 3.86888 1.42799 0
M  V30 17842 H 1638.71 0.663862 -0.0135544 0
M  V30 17843 H 1641.24 1.93533 -0.663795 0
M  V30 17844 H 1641.25 4.03743 0.587855 0
M  V30 17845 H 1639.93 4.12093 -0.56147 0
M  V30 17846 H 1638.51 3.53901 1.17509 0
M  V30 17847 N 1640.69 0.205039 1.56261 0
M  V30 17848 C 1641.64 -0.711828 2.19549 0
M  V30 17849 C 1642.61 -1.2025 1.14582 0
M  V30 17850 O 1643.79 -1.26459 1.42873 0
M  V30 17851 C 1640.93 -1.92152 2.86656 0
M  V30 17852 C 1640.05 -1.47129 4.06174 0
M  V30 17853 C 1639.18 -2.63726 4.6111 0
M  V30 17854 C 1638.22 -2.15357 5.72964 0
M  V30 17855 N 1637.36 -3.25167 6.22263 0
M  V30 17856 H 1642.2 -0.165392 2.97541 0
M  V30 17857 H 1639.73 -0.0698889 1.46934 0
M  V30 17858 H 1641.69 -2.63152 3.23739 0
M  V30 17859 H 1640.32 -2.4411 2.11211 0
M  V30 17860 H 1639.37 -0.656797 3.74687 0
M  V30 17861 H 1640.69 -1.0765 4.87045 0
M  V30 17862 H 1639.84 -3.42833 5.0055 0
M  V30 17863 H 1638.58 -3.06484 3.79367 0
M  V30 17864 H 1637.58 -1.34706 5.33043 0
M  V30 17865 H 1638.81 -1.73618 6.56532 0
M  V30 17866 H 1636.76 -3.67438 5.43439 0
M  V30 17867 H 1636.67 -2.89888 6.98213 0
M  V30 17868 H 1637.94 -4.0446 6.66358 0
M  V30 17869 N 1642.17 -1.57451 -0.0684915 0
M  V30 17870 C 1643.1 -2.06954 -1.0813 0
M  V30 17871 C 1644.08 -0.963716 -1.40166 0
M  V30 17872 O 1645.27 -1.23664 -1.49736 0
M  V30 17873 C 1642.4 -2.51622 -2.39381 0
M  V30 17874 C 1641.35 -3.66111 -2.2169 0
M  V30 17875 C 1640.68 -3.96846 -3.58354 0
M  V30 17876 C 1641.98 -4.96036 -1.63541 0
M  V30 17877 H 1643.67 -2.91822 -0.66936 0
M  V30 17878 H 1641.22 -1.40387 -0.320533 0
M  V30 17879 H 1643.17 -2.84867 -3.1053 0
M  V30 17880 H 1641.89 -1.63788 -2.82562 0
M  V30 17881 H 1640.55 -3.33155 -1.52982 0
M  V30 17882 H 1640.2 -3.06137 -3.9911 0
M  V30 17883 H 1639.9 -4.73939 -3.47354 0
M  V30 17884 H 1641.42 -4.3259 -4.30927 0
M  V30 17885 H 1642.84 -5.27491 -2.24559 0
M  V30 17886 H 1641.23 -5.77474 -1.63228 0
M  V30 17887 H 1642.3 -4.81208 -0.597199 0
M  V30 17888 N 1643.65 0.339955 -1.5389 0
M  V30 17889 C 1645.06 0.915362 -1.62721 0
M  V30 17890 C 1645.41 1.89434 -0.510798 0
M  V30 17891 O 1644.53 2.13403 0.3589 0
M  V30 17892 C 1645.13 1.66699 -2.94953 0
M  V30 17893 C 1643.69 2.19135 -3.06034 0
M  V30 17894 C 1642.84 1.01159 -2.5819 0
M  V30 17895 H 1645.79 0.11799 -1.58261 0
M  V30 17896 H 1645.81 2.53011 -2.84193 0
M  V30 17897 H 1645.32 0.954219 -3.76186 0
M  V30 17898 H 1643.42 2.93577 -2.29441 0
M  V30 17899 H 1643.53 2.4526 -4.11563 0
M  V30 17900 H 1641.9 1.38604 -2.13685 0
M  V30 17901 H 1642.68 0.313396 -3.41867 0
M  V30 17902 N 1645.13 1.45684 0.601159 0
M  V30 17903 C 1646.36 1.53351 1.38445 0
M  V30 17904 C 1646.76 0.167103 1.88461 0
M  V30 17905 O 1646.11 -0.842684 1.63231 0
M  V30 17906 C 1646.17 2.46214 2.61952 0
M  V30 17907 C 1645.83 3.92826 2.33532 0
M  V30 17908 C 1646.83 4.8255 1.93498 0
M  V30 17909 C 1644.51 4.378 2.46245 0
M  V30 17910 C 1646.51 6.15257 1.66547 0
M  V30 17911 C 1644.2 5.70546 2.18908 0
M  V30 17912 C 1645.19 6.59094 1.79121 0
M  V30 17913 O 1644.88 7.89378 1.52108 0
M  V30 17914 H 1644.61 0.521638 0.429965 0
M  V30 17915 H 1647.17 1.91622 0.739617 0
M  V30 17916 H 1645.4 2.02926 3.29178 0
M  V30 17917 H 1647.09 2.44492 3.24004 0
M  V30 17918 H 1647.85 4.49066 1.83207 0
M  V30 17919 H 1643.73 3.69115 2.76179 0
M  V30 17920 H 1647.28 6.8433 1.35418 0
M  V30 17921 H 1643.17 6.03583 2.28818 0
M  V30 17922 H 1643.94 8.01468 1.66107 0
M  V30 17923 N 1646.6 -0.84422 1.33082 0
M  V30 17924 C 1647.88 -1.58339 1.1484 0
M  V30 17925 C 1648.26 -2.09136 -0.287273 0
M  V30 17926 O 1647.61 -1.8891 -1.2855 0
M  V30 17927 C 1647.82 -2.72141 2.18496 0
M  V30 17928 C 1649.17 -3.41457 2.52373 0
M  V30 17929 O 1650.19 -2.82377 2.17122 0
M  V30 17930 O 1649.05 -4.48096 3.12845 0
M  V30 17931 H 1646.14 -0.697813 0.443831 0
M  V30 17932 H 1648.69 -0.88744 1.44646 0
M  V30 17933 H 1647.46 -2.32206 3.14954 0
M  V30 17934 H 1647.08 -3.49404 1.89744 0
M  V30 17935 N 1648.08 -1.16463 -1.0618 0
M  V30 17936 C 1649.33 -0.948248 -1.79265 0
M  V30 17937 C 1649.66 0.522578 -1.87037 0
M  V30 17938 O 1648.94 1.38772 -1.36282 0
M  V30 17939 C 1649.22 -1.57781 -3.23693 0
M  V30 17940 C 1649.07 -3.12005 -3.23995 0
M  V30 17941 C 1650.39 -1.27343 -4.21274 0
M  V30 17942 H 1647.51 -0.345907 -0.650782 0
M  V30 17943 H 1650.15 -1.4381 -1.24172 0
M  V30 17944 H 1648.3 -1.16126 -3.70738 0
M  V30 17945 H 1649.97 -3.62649 -2.85102 0
M  V30 17946 H 1648.22 -3.45276 -2.62615 0
M  V30 17947 H 1648.89 -3.51176 -4.25886 0
M  V30 17948 H 1651.36 -1.63396 -3.82676 0
M  V30 17949 H 1650.24 -1.73993 -5.20594 0
M  V30 17950 H 1650.5 -0.192469 -4.41681 0
M  V30 17951 N 1649.56 1.24734 -0.963288 0
M  V30 17952 C 1650.79 1.96745 -0.640234 0
M  V30 17953 C 1651.2 1.71503 0.789445 0
M  V30 17954 O 1650.56 0.996174 1.52914 0
M  V30 17955 C 1650.61 3.50118 -0.899987 0
M  V30 17956 O 1650.33 3.74494 -2.27346 0
M  V30 17957 C 1651.83 4.39349 -0.590511 0
M  V30 17958 H 1649.05 0.626892 -0.239266 0
M  V30 17959 H 1651.6 1.58678 -1.29002 0
M  V30 17960 H 1649.75 3.86264 -0.296478 0
M  V30 17961 H 1650.17 4.68902 -2.35013 0
M  V30 17962 H 1651.64 5.45834 -0.822744 0
M  V30 17963 H 1652.12 4.36622 0.475138 0
M  V30 17964 H 1652.72 4.08783 -1.17373 0
M  V30 17965 N 1651.04 0.732878 1.39523 0
M  V30 17966 C 1652.45 0.350145 1.83387 0
M  V30 17967 C 1652.8 -1.11807 1.61225 0
M  V30 17968 O 1651.92 -1.86222 1.10229 0
M  V30 17969 C 1652.52 0.628743 3.32915 0
M  V30 17970 C 1651.08 0.299529 3.75206 0
M  V30 17971 C 1650.23 0.892434 2.62547 0
M  V30 17972 H 1653.18 0.930687 1.28545 0
M  V30 17973 H 1653.2 -0.100206 3.80368 0
M  V30 17974 H 1652.71 1.6974 3.49013 0
M  V30 17975 H 1650.81 -0.763373 3.64696 0
M  V30 17976 H 1650.92 0.780607 4.72698 0
M  V30 17977 H 1649.29 0.319218 2.52692 0
M  V30 17978 H 1650.07 1.9657 2.81452 0
M  V30 17979 N 1652.52 -1.50101 0.480349 0
M  V30 17980 C 1653.43 -2.32488 -0.31408 0
M  V30 17981 C 1654.44 -1.43285 -0.987186 0
M  V30 17982 O 1655.62 -1.7633 -0.973123 0
M  V30 17983 C 1652.68 -3.18203 -1.37651 0
M  V30 17984 C 1651.74 -4.23236 -0.71903 0
M  V30 17985 C 1650.98 -5.04854 -1.73084 0
M  V30 17986 O 1651.2 -4.87681 -2.95843 0
M  V30 17987 O 1650.13 -5.87748 -1.29755 0
M  V30 17988 H 1653.96 -3.01562 0.3597 0
M  V30 17989 H 1651.54 -1.47427 0.242029 0
M  V30 17990 H 1653.43 -3.71362 -1.9917 0
M  V30 17991 H 1652.1 -2.51846 -2.0336 0
M  V30 17992 H 1651.01 -3.74044 -0.0646492 0
M  V30 17993 H 1652.34 -4.92089 -0.104743 0
M  V30 17994 N 1653.99 -0.213323 -1.5615 0
M  V30 17995 C 1654.93 0.732346 -2.17185 0
M  V30 17996 C 1655.94 1.16357 -1.13864 0
M  V30 17997 O 1657.13 1.09614 -1.40879 0
M  V30 17998 C 1654.23 2.0027 -2.73395 0
M  V30 17999 C 1653.4 1.72836 -4.01804 0
M  V30 18000 C 1652.46 2.84497 -4.4266 0
M  V30 18001 O 1651.49 2.5332 -5.09723 0
M  V30 18002 N 1652.69 4.13268 -4.07663 0
M  V30 18003 H 1655.45 0.210294 -2.98961 0
M  V30 18004 H 1653.01 -0.0320124 -1.61868 0
M  V30 18005 H 1655.01 2.74145 -2.97702 0
M  V30 18006 H 1653.58 2.43546 -1.9597 0
M  V30 18007 H 1652.8 0.826474 -3.85439 0
M  V30 18008 H 1654.08 1.51928 -4.85588 0
M  V30 18009 H 1653.48 4.41444 -3.53756 0
M  V30 18010 H 1652.04 4.83713 -4.36881 0
M  V30 18011 N 1655.47 1.57485 0.0601405 0
M  V30 18012 C 1656.44 2.03493 1.05467 0
M  V30 18013 C 1657.44 0.933816 1.30907 0
M  V30 18014 O 1658.63 1.19837 1.26431 0
M  V30 18015 C 1655.76 2.42549 2.39547 0
M  V30 18016 H 1656.95 2.92595 0.657893 0
M  V30 18017 H 1654.5 1.53272 0.306183 0
M  V30 18018 H 1655.24 1.56509 2.84034 0
M  V30 18019 H 1655.02 3.22911 2.22421 0
M  V30 18020 H 1656.51 2.7868 3.1101 0
M  V30 18021 N 1656.95 -0.331789 1.54068 0
M  V30 18022 C 1657.88 -1.41332 1.8587 0
M  V30 18023 C 1658.86 -1.54353 0.714787 0
M  V30 18024 O 1660.05 -1.68368 0.967777 0
M  V30 18025 C 1657.18 -2.78218 2.07875 0
M  V30 18026 C 1656.13 -2.79994 3.23709 0
M  V30 18027 C 1655.46 -4.19878 3.31069 0
M  V30 18028 C 1656.76 -2.44476 4.6155 0
M  V30 18029 H 1658.45 -1.14966 2.76447 0
M  V30 18030 H 1656 -0.551615 1.33016 0
M  V30 18031 H 1657.95 -3.53937 2.28706 0
M  V30 18032 H 1656.67 -3.06044 1.14038 0
M  V30 18033 H 1655.33 -2.0673 3.02751 0
M  V30 18034 H 1654.98 -4.44831 2.34807 0
M  V30 18035 H 1654.68 -4.21974 4.08915 0
M  V30 18036 H 1656.2 -4.97421 3.54125 0
M  V30 18037 H 1657.62 -3.09908 4.82317 0
M  V30 18038 H 1656.02 -2.57837 5.41886 0
M  V30 18039 H 1657.09 -1.3964 4.64358 0
M  V30 18040 N 1658.43 -1.46001 -0.593424 0
M  V30 18041 C 1659.39 -1.55347 -1.68523 0
M  V30 18042 C 1660.39 -0.431599 -1.549 0
M  V30 18043 O 1661.58 -0.695559 -1.59711 0
M  V30 18044 C 1658.71 -1.46355 -3.07885 0
M  V30 18045 H 1659.91 -2.52639 -1.61597 0
M  V30 18046 H 1657.46 -1.33652 -0.810363 0
M  V30 18047 H 1658.19 -0.503024 -3.20375 0
M  V30 18048 H 1657.98 -2.27741 -3.19181 0
M  V30 18049 H 1659.47 -1.55958 -3.87385 0
M  V30 18050 N 1659.91 0.83715 -1.33527 0
M  V30 18051 C 1660.86 1.93561 -1.20491 0
M  V30 18052 C 1661.84 1.60541 -0.107395 0
M  V30 18053 O 1663.03 1.73788 -0.335663 0
M  V30 18054 C 1660.16 3.2995 -0.948055 0
M  V30 18055 C 1659.25 3.69134 -2.08809 0
M  V30 18056 N 1659.64 3.79998 -3.33819 0
M  V30 18057 C 1657.94 3.98885 -1.99516 0
M  V30 18058 C 1658.64 4.14031 -4.08599 0
M  V30 18059 N 1657.61 4.26492 -3.37055 0
M  V30 18060 H 1661.42 2.00119 -2.15243 0
M  V30 18061 H 1658.93 1.02997 -1.2556 0
M  V30 18062 H 1660.93 4.0844 -0.835589 0
M  V30 18063 H 1659.59 3.24699 -0.00907808 0
M  V30 18064 H 1660.6 3.6386 -3.68546 0
M  V30 18065 H 1657.27 4.01836 -1.13289 0
M  V30 18066 H 1658.66 4.29759 -5.16485 0
M  V30 18067 N 1661.38 1.17024 1.05561 0
M  V30 18068 C 1662.29 0.898107 2.16728 0
M  V30 18069 C 1663.31 -0.132369 1.73496 0
M  V30 18070 O 1664.49 0.0460203 2.01347 0
M  V30 18071 C 1661.55 0.411091 3.44254 0
M  V30 18072 C 1660.61 1.5077 4.01954 0
M  V30 18073 C 1659.85 1.04383 5.23393 0
M  V30 18074 O 1660.07 -0.10351 5.70306 0
M  V30 18075 O 1659 1.8353 5.73237 0
M  V30 18076 H 1662.83 1.82791 2.42531 0
M  V30 18077 H 1660.41 0.950816 1.15238 0
M  V30 18078 H 1662.3 0.146837 4.21144 0
M  V30 18079 H 1660.97 -0.490605 3.19961 0
M  V30 18080 H 1659.88 1.82579 3.26521 0
M  V30 18081 H 1661.21 2.38497 4.30558 0
M  V30 18082 N 1662.86 -1.24221 0.969889 0
M  V30 18083 C 1663.77 -2.29001 0.509467 0
M  V30 18084 C 1664.79 -1.68587 -0.430637 0
M  V30 18085 O 1665.96 -1.99106 -0.303142 0
M  V30 18086 C 1663.03 -3.46174 -0.190906 0
M  V30 18087 C 1662.09 -4.21982 0.789296 0
M  V30 18088 C 1661.32 -5.3356 0.122252 0
M  V30 18089 O 1661.55 -5.59909 -1.08896 0
M  V30 18090 O 1660.48 -5.9635 0.815517 0
M  V30 18091 H 1664.31 -2.70506 1.38058 0
M  V30 18092 H 1661.89 -1.29955 0.737028 0
M  V30 18093 H 1663.77 -4.1733 -0.584244 0
M  V30 18094 H 1662.45 -3.06642 -1.03695 0
M  V30 18095 H 1661.36 -3.53192 1.23313 0
M  V30 18096 H 1662.69 -4.65337 1.60382 0
M  V30 18097 N 1664.34 -0.740267 -1.39132 0
M  V30 18098 C 1665.59 -0.290953 -2.00702 0
M  V30 18099 C 1665.92 1.12051 -1.58613 0
M  V30 18100 O 1665.19 1.76488 -0.817457 0
M  V30 18101 C 1665.48 -0.398765 -3.57885 0
M  V30 18102 C 1665.33 -1.85038 -4.09977 0
M  V30 18103 C 1666.65 0.215717 -4.39571 0
M  V30 18104 H 1663.77 -0.107194 -0.729163 0
M  V30 18105 H 1666.41 -0.937411 -1.65265 0
M  V30 18106 H 1664.56 0.151613 -3.88204 0
M  V30 18107 H 1666.23 -2.45804 -3.90357 0
M  V30 18108 H 1664.48 -2.36994 -3.63341 0
M  V30 18109 H 1665.15 -1.87705 -5.19106 0
M  V30 18110 H 1667.62 -0.253518 -4.15327 0
M  V30 18111 H 1666.5 0.109966 -5.4879 0
M  V30 18112 H 1666.76 1.30242 -4.2248 0
M  V30 18113 N 1665.82 1.49844 -0.488302 0
M  V30 18114 C 1666.77 2.28883 0.296859 0
M  V30 18115 C 1667.74 1.34703 0.971818 0
M  V30 18116 O 1668.92 1.63653 0.980937 0
M  V30 18117 C 1666.06 3.17049 1.36286 0
M  V30 18118 C 1665.17 4.26275 0.700956 0
M  V30 18119 C 1664.31 5.01674 1.74632 0
M  V30 18120 C 1663.35 6.02753 1.06559 0
M  V30 18121 N 1662.48 6.71366 2.05457 0
M  V30 18122 H 1667.32 2.95523 -0.383417 0
M  V30 18123 H 1664.86 1.45721 -0.200928 0
M  V30 18124 H 1666.82 3.66531 1.99276 0
M  V30 18125 H 1665.45 2.52419 2.01207 0
M  V30 18126 H 1664.5 3.80377 -0.0419236 0
M  V30 18127 H 1665.81 4.98529 0.164469 0
M  V30 18128 H 1664.97 5.54961 2.45159 0
M  V30 18129 H 1663.71 4.29166 2.31664 0
M  V30 18130 H 1662.71 5.4871 0.346029 0
M  V30 18131 H 1663.94 6.77243 0.501932 0
M  V30 18132 H 1661.88 6.01637 2.61475 0
M  V30 18133 H 1661.8 7.39552 1.56841 0
M  V30 18134 H 1663.07 7.29262 2.75312 0
M  V30 18135 N 1667.3 0.221601 1.56034 0
M  V30 18136 C 1668.52 -0.414945 2.02696 0
M  V30 18137 C 1668.94 -1.53344 1.10141 0
M  V30 18138 O 1668.3 -1.82162 0.111026 0
M  V30 18139 C 1668.35 -0.946532 3.48888 0
M  V30 18140 O 1668.07 0.12737 4.37915 0
M  V30 18141 C 1669.57 -1.65631 4.11195 0
M  V30 18142 H 1666.79 -0.101548 0.663271 0
M  V30 18143 H 1669.33 0.338069 2.01686 0
M  V30 18144 H 1667.49 -1.64982 3.50514 0
M  V30 18145 H 1667.9 -0.272211 5.23793 0
M  V30 18146 H 1669.38 -1.98027 5.15257 0
M  V30 18147 H 1669.85 -2.56947 3.56195 0
M  V30 18148 H 1670.46 -0.998231 4.13419 0
M  V30 18149 N 1668.77 -1.57515 -0.0517878 0
M  V30 18150 C 1670.19 -1.54323 -0.407009 0
M  V30 18151 C 1670.39 -0.944629 -1.77986 0
M  V30 18152 O 1669.45 -0.555785 -2.46307 0
M  V30 18153 C 1670.76 -2.98887 -0.329703 0
M  V30 18154 C 1672.31 -3.10324 -0.408443 0
M  V30 18155 C 1672.78 -4.56576 -0.360833 0
M  V30 18156 N 1674.27 -4.61289 -0.420313 0
M  V30 18157 C 1675.01 -5.71961 -0.406007 0
M  V30 18158 N 1674.5 -6.91939 -0.34533 0
M  V30 18159 N 1676.3 -5.60263 -0.454054 0
M  V30 18160 H 1668.45 -1.94785 0.846907 0
M  V30 18161 H 1670.71 -0.892417 0.319838 0
M  V30 18162 H 1670.42 -3.4632 0.612802 0
M  V30 18163 H 1670.29 -3.59806 -1.13222 0
M  V30 18164 H 1672.68 -2.62852 -1.34138 0
M  V30 18165 H 1672.76 -2.52278 0.423018 0
M  V30 18166 H 1672.4 -5.0471 0.568335 0
M  V30 18167 H 1672.33 -5.12508 -1.2101 0
M  V30 18168 H 1674.82 -3.74958 -0.470644 0
M  V30 18169 H 1675.14 -7.72057 -0.338889 0
M  V30 18170 H 1673.48 -6.94301 -0.311715 0
M  V30 18171 H 1676.67 -4.6543 -0.499289 0
M  V30 18172 H 1676.85 -6.46508 -0.439435 0
M  V30 18173 N 1670.25 0.323614 -1.54242 0
M  V30 18174 C 1671.18 1.40344 -1.86616 0
M  V30 18175 C 1672.16 1.53972 -0.722963 0
M  V30 18176 O 1673.35 1.67852 -0.976692 0
M  V30 18177 C 1670.48 2.77112 -2.09347 0
M  V30 18178 C 1669.43 2.78273 -3.25189 0
M  V30 18179 C 1668.76 4.18116 -3.33291 0
M  V30 18180 C 1670.06 2.42025 -4.6284 0
M  V30 18181 H 1671.75 1.13499 -2.77053 0
M  V30 18182 H 1669.3 0.544553 -1.33306 0
M  V30 18183 H 1671.25 3.52719 -2.3058 0
M  V30 18184 H 1669.98 3.05435 -1.1566 0
M  V30 18185 H 1668.64 2.05121 -3.03844 0
M  V30 18186 H 1668.28 4.4358 -2.37163 0
M  V30 18187 H 1667.98 4.19799 -4.11147 0
M  V30 18188 H 1669.51 4.95536 -3.56758 0
M  V30 18189 H 1670.92 3.07346 -4.83954 0
M  V30 18190 H 1669.32 2.5496 -5.43245 0
M  V30 18191 H 1670.39 1.37175 -4.65092 0
M  V30 18192 N 1671.73 1.46313 0.585673 0
M  V30 18193 C 1673.01 1.41946 1.34576 0
M  V30 18194 C 1673.39 0.101379 2.10856 0
M  V30 18195 O 1672.74 -0.917016 2.09292 0
M  V30 18196 C 1672.95 2.64724 2.27425 0
M  V30 18197 C 1674.29 3.10746 2.89347 0
M  V30 18198 O 1675.32 2.65252 2.37739 0
M  V30 18199 O 1674.18 3.8976 3.83079 0
M  V30 18200 H 1671.27 0.564346 0.604519 0
M  V30 18201 H 1673.82 1.58475 0.606937 0
M  V30 18202 H 1672.59 3.52217 1.70467 0
M  V30 18203 H 1672.21 2.50639 3.08652 0
M  V30 18204 N 1673.21 -0.830057 1.33969 0
M  V30 18205 C 1674.43 -1.62294 1.29133 0
M  V30 18206 C 1674.86 -1.87627 -0.133253 0
M  V30 18207 O 1674.22 -1.44669 -1.09272 0
M  V30 18208 C 1674.27 -2.94508 2.0808 0
M  V30 18209 O 1673.37 -3.86239 1.44544 0
M  V30 18210 H 1672.71 -0.493865 0.443839 0
M  V30 18211 H 1675.24 -1.03202 1.76665 0
M  V30 18212 H 1675.25 -3.44133 2.19173 0
M  V30 18213 H 1673.93 -2.75392 3.1166 0
M  V30 18214 H 1672.5 -3.44743 1.42151 0
M  V30 18215 N 1674.69 -1.17582 -1.04939 0
M  V30 18216 C 1675.91 -0.99097 -1.82194 0
M  V30 18217 C 1676.34 0.455965 -1.8249 0
M  V30 18218 O 1675.7 1.32661 -1.23575 0
M  V30 18219 C 1675.74 -1.53971 -3.26076 0
M  V30 18220 O 1674.85 -0.755172 -4.05427 0
M  V30 18221 H 1674.19 -0.351669 -0.563227 0
M  V30 18222 H 1676.72 -1.56138 -1.3222 0
M  V30 18223 H 1676.73 -1.56307 -3.76872 0
M  V30 18224 H 1675.4 -2.59295 -3.25175 0
M  V30 18225 H 1673.98 -0.803423 -3.64142 0
M  V30 18226 N 1676.17 1.23705 -0.976463 0
M  V30 18227 C 1677.41 1.9132 -0.638714 0
M  V30 18228 C 1677.73 1.7707 0.830993 0
M  V30 18229 O 1678.93 2.39453 1.27964 0
M  V30 18230 C 1677.39 3.42941 -1.09178 0
M  V30 18231 C 1677 3.6586 -2.58555 0
M  V30 18232 C 1678.74 4.16355 -0.827585 0
M  V30 18233 C 1676.65 5.11096 -2.97549 0
M  V30 18234 H 1675.58 0.716382 -0.235187 0
M  V30 18235 H 1678.23 1.40205 -1.18384 0
M  V30 18236 H 1676.61 3.93142 -0.474893 0
M  V30 18237 H 1677.79 3.26221 -3.25448 0
M  V30 18238 H 1676.1 3.05748 -2.82678 0
M  V30 18239 H 1678.7 5.23372 -1.09482 0
M  V30 18240 H 1679.04 4.15629 0.236282 0
M  V30 18241 H 1679.57 3.7213 -1.40586 0
M  V30 18242 H 1676.31 5.1695 -4.03042 0
M  V30 18243 H 1675.83 5.51699 -2.35346 0
M  V30 18244 H 1677.51 5.79397 -2.87937 0
M  V30 18245 N 1677.64 0.747635 1.38738 0
M  V30 18246 C 1679.06 0.424577 1.53849 0
M  V30 18247 C 1679.26 -1.06304 1.71177 0
M  V30 18248 O 1678.32 -1.84912 1.71941 0
M  V30 18249 C 1679.63 1.21863 2.749 0
M  V30 18250 C 1681.18 1.20811 2.88745 0
M  V30 18251 C 1681.65 1.985 4.12749 0
M  V30 18252 N 1683.14 1.9573 4.19814 0
M  V30 18253 C 1683.88 2.52641 5.14743 0
M  V30 18254 N 1683.37 3.18241 6.15382 0
M  V30 18255 N 1685.17 2.42604 5.0705 0
M  V30 18256 H 1677.32 1.71182 1.25739 0
M  V30 18257 H 1679.58 0.725358 0.610376 0
M  V30 18258 H 1679.29 2.27181 2.6848 0
M  V30 18259 H 1679.16 0.831509 3.67921 0
M  V30 18260 H 1681.55 0.163013 2.94649 0
M  V30 18261 H 1681.63 1.6347 1.96752 0
M  V30 18262 H 1681.27 3.03017 4.07606 0
M  V30 18263 H 1681.2 1.53239 5.03811 0
M  V30 18264 H 1683.69 1.4795 3.47734 0
M  V30 18265 H 1684.01 3.59101 6.843 0
M  V30 18266 H 1682.35 3.22334 6.15732 0
M  V30 18267 H 1685.54 1.90987 4.27366 0
M  V30 18268 H 1685.72 2.87253 5.80852 0
M  V30 18269 N 1679.12 -1.49583 0.496242 0
M  V30 18270 C 1680.07 -2.30677 -0.298474 0
M  V30 18271 C 1681.06 -1.39074 -0.967207 0
M  V30 18272 O 1682.27 -1.56147 -0.895439 0
M  V30 18273 H 1678.64 -0.743138 -0.11511 0
M  V30 18274 H 1680.62 -2.95632 0.405533 0
M  V30 18275 C 1679.36 -3.20297 -1.35297 0
M  V30 18276 H 1678.69 -3.90708 -0.847789 0
M  V30 18277 H 1680.13 -3.79987 -1.88111 0
M  V30 18278 C 1678.59 -2.39584 -2.36857 0
M  V30 18279 O 1679.12 -2.09662 -3.42644 0
M  V30 18280 N 1677.32 -2.01695 -2.09206 0
M  V30 18281 H 1676.87 -2.26229 -1.23201 0
M  V30 18282 H 1676.83 -1.47998 -2.77388 0
M  V30 18283 N 1680.6 -0.229873 -1.55915 0
M  V30 18284 C 1681.53 0.717016 -2.16643 0
M  V30 18285 C 1682.51 1.18509 -1.1133 0
M  V30 18286 O 1683.69 1.26632 -1.3963 0
M  V30 18287 C 1680.82 1.97243 -2.75342 0
M  V30 18288 C 1679.87 1.64364 -3.93556 0
M  V30 18289 S 1680.7 0.76114 -5.30063 0
M  V30 18290 C 1681.86 2.02593 -5.92205 0
M  V30 18291 H 1682.09 0.200879 -2.96621 0
M  V30 18292 H 1679.62 -0.0144837 -1.54393 0
M  V30 18293 H 1681.58 2.69323 -3.09799 0
M  V30 18294 H 1680.24 2.45969 -1.95341 0
M  V30 18295 H 1679.43 2.57662 -4.33159 0
M  V30 18296 H 1679.04 1.00341 -3.60288 0
M  V30 18297 H 1681.33 2.97504 -6.08685 0
M  V30 18298 H 1682.27 1.67367 -6.88036 0
M  V30 18299 H 1682.68 2.17026 -5.21114 0
M  V30 18300 N 1682.08 1.5754 0.0434337 0
M  V30 18301 C 1683.49 1.54537 0.398819 0
M  V30 18302 C 1683.69 0.954055 1.77483 0
M  V30 18303 O 1682.75 0.568839 2.46009 0
M  V30 18304 C 1684.06 2.99058 0.313848 0
M  V30 18305 C 1685.61 3.10536 0.39198 0
M  V30 18306 C 1686.09 4.56761 0.336614 0
M  V30 18307 N 1687.58 4.61505 0.395844 0
M  V30 18308 C 1688.31 5.72168 0.375669 0
M  V30 18309 N 1687.81 6.92112 0.30863 0
M  V30 18310 N 1689.6 5.60496 0.424335 0
M  V30 18311 H 1681.75 1.94333 -0.857225 0
M  V30 18312 H 1684.01 0.890708 -0.324566 0
M  V30 18313 H 1683.72 3.4599 -0.631159 0
M  V30 18314 H 1683.59 3.60402 1.11313 0
M  V30 18315 H 1685.98 2.6356 1.32742 0
M  V30 18316 H 1686.06 2.5205 -0.436391 0
M  V30 18317 H 1685.71 5.04402 -0.595093 0
M  V30 18318 H 1685.64 5.13142 1.1829 0
M  V30 18319 H 1688.13 3.75202 0.450753 0
M  V30 18320 H 1688.44 7.72225 0.29794 0
M  V30 18321 H 1686.79 6.94456 0.274891 0
M  V30 18322 H 1689.98 4.65688 0.474599 0
M  V30 18323 H 1690.15 6.46732 0.405143 0
M  V30 18324 N 1683.56 -0.31543 1.54411 0
M  V30 18325 C 1684.52 -1.37154 1.83634 0
M  V30 18326 C 1685.52 -1.44349 0.708518 0
M  V30 18327 O 1686.71 -1.44235 0.976824 0
M  V30 18328 C 1683.84 -2.758 2.00368 0
M  V30 18329 H 1685.03 -1.12493 2.78002 0
M  V30 18330 H 1682.59 -0.551346 1.46253 0
M  V30 18331 H 1683.32 -3.05704 1.08238 0
M  V30 18332 H 1683.11 -2.7197 2.82445 0
M  V30 18333 H 1684.6 -3.52187 2.24397 0
M  V30 18334 N 1685.03 -1.46622 -0.577906 0
M  V30 18335 C 1686.28 -1.52406 -1.33792 0
M  V30 18336 C 1686.61 -0.177147 -1.9339 0
M  V30 18337 O 1685.89 0.81197 -1.76741 0
M  V30 18338 C 1686.17 -2.62633 -2.46366 0
M  V30 18339 C 1686.02 -4.06871 -1.91771 0
M  V30 18340 C 1687.34 -2.68909 -3.4839 0
M  V30 18341 H 1684.46 -0.554833 -0.485107 0
M  V30 18342 H 1687.1 -1.78582 -0.648739 0
M  V30 18343 H 1685.25 -2.40444 -3.05154 0
M  V30 18344 H 1686.93 -4.40361 -1.37403 0
M  V30 18345 H 1685.17 -4.16124 -1.2257 0
M  V30 18346 H 1685.84 -4.79734 -2.73056 0
M  V30 18347 H 1688.32 -2.88868 -2.9949 0
M  V30 18348 H 1687.19 -3.47846 -4.24611 0
M  V30 18349 H 1687.45 -1.75148 -4.05925 0
M  V30 18350 N 1686.51 0.822941 -1.34408 0
M  V30 18351 C 1687.74 1.61087 -1.2984 0
M  V30 18352 C 1688.16 1.88369 0.127527 0
M  V30 18353 O 1687.51 1.47508 1.0746 0
M  V30 18354 C 1687.56 2.9518 -2.08689 0
M  V30 18355 O 1687.28 2.69089 -3.45721 0
M  V30 18356 C 1688.79 3.89583 -2.11518 0
M  V30 18357 H 1686.01 0.500726 -0.44667 0
M  V30 18358 H 1688.55 1.02391 -1.77021 0
M  V30 18359 H 1686.7 3.50434 -1.6515 0
M  V30 18360 H 1687.12 3.5459 -3.86479 0
M  V30 18361 H 1688.59 4.80835 -2.71111 0
M  V30 18362 H 1689.07 4.24953 -1.10957 0
M  V30 18363 H 1689.68 3.40265 -2.55146 0
M  V30 18364 N 1687.99 1.18137 1.04314 0
M  V30 18365 C 1689.27 0.884901 1.74439 0
M  V30 18366 C 1689.65 -0.612825 2.02009 0
M  V30 18367 O 1689 -1.56679 1.66325 0
M  V30 18368 C 1689.21 1.72944 3.03136 0
M  V30 18369 C 1690.55 1.95491 3.7692 0
M  V30 18370 O 1691.58 1.69976 3.13028 0
M  V30 18371 O 1690.44 2.38426 4.91747 0
M  V30 18372 H 1687.53 0.328481 0.758966 0
M  V30 18373 H 1690.08 1.28878 1.10402 0
M  V30 18374 H 1688.85 2.74485 2.78879 0
M  V30 18375 H 1688.47 1.32392 3.74911 0
M  V30 18376 N 1689.47 -1.23186 0.98301 0
M  V30 18377 C 1690.42 -2.24748 0.525082 0
M  V30 18378 C 1691.39 -1.60237 -0.437411 0
M  V30 18379 O 1692.57 -1.87666 -0.344376 0
M  V30 18380 C 1689.71 -3.44711 -0.163809 0
M  V30 18381 C 1688.82 -4.23769 0.839254 0
M  V30 18382 C 1687.96 -5.31053 0.1249 0
M  V30 18383 C 1687 -6.01822 1.117 0
M  V30 18384 N 1686.13 -7.00772 0.431625 0
M  V30 18385 H 1690.97 -2.63283 1.39593 0
M  V30 18386 H 1688.51 -1.29407 0.699438 0
M  V30 18387 H 1690.47 -4.13148 -0.580046 0
M  V30 18388 H 1689.1 -3.06969 -0.998507 0
M  V30 18389 H 1688.15 -3.54724 1.37386 0
M  V30 18390 H 1689.46 -4.72606 1.59515 0
M  V30 18391 H 1688.62 -6.05698 -0.348569 0
M  V30 18392 H 1687.36 -4.83165 -0.663573 0
M  V30 18393 H 1686.36 -5.25967 1.6012 0
M  V30 18394 H 1687.59 -6.51799 1.90618 0
M  V30 18395 H 1685.53 -6.55131 -0.337592 0
M  V30 18396 H 1685.45 -7.47566 1.12613 0
M  V30 18397 H 1686.72 -7.79498 -0.0193703 0
M  V30 18398 N 1690.95 -0.754982 -1.38339 0
M  V30 18399 C 1692.19 -0.311762 -2.00086 0
M  V30 18400 C 1692.52 1.10693 -1.59929 0
M  V30 18401 O 1691.78 1.77279 -0.8289 0
M  V30 18402 C 1692.08 -0.383719 -3.55334 0
M  V30 18403 C 1691.74 -1.75826 -4.15206 0
M  V30 18404 C 1690.4 -2.13443 -4.31272 0
M  V30 18405 C 1692.76 -2.65985 -4.4822 0
M  V30 18406 C 1690.08 -3.40689 -4.77649 0
M  V30 18407 C 1692.44 -3.92623 -4.96014 0
M  V30 18408 C 1691.1 -4.30307 -5.10286 0
M  V30 18409 H 1690.37 -0.114082 -0.732166 0
M  V30 18410 H 1693.02 -0.965735 -1.65366 0
M  V30 18411 H 1691.32 0.353817 -3.90199 0
M  V30 18412 H 1693.02 -0.022341 -4.00994 0
M  V30 18413 H 1689.61 -1.45585 -4.03117 0
M  V30 18414 H 1693.79 -2.38188 -4.35408 0
M  V30 18415 H 1689.05 -3.69802 -4.86884 0
M  V30 18416 H 1693.22 -4.62626 -5.20529 0
M  V30 18417 H 1690.85 -5.28968 -5.45982 0
M  V30 18418 N 1692.42 1.49318 -0.504168 0
M  V30 18419 C 1693.35 2.32027 0.261837 0
M  V30 18420 C 1694.34 1.4045 0.959575 0
M  V30 18421 O 1695.52 1.69357 0.950365 0
M  V30 18422 C 1692.65 3.21039 1.3248 0
M  V30 18423 C 1691.6 4.21435 0.746752 0
M  V30 18424 C 1690.93 4.99405 1.91047 0
M  V30 18425 C 1692.23 5.21631 -0.264315 0
M  V30 18426 H 1693.92 2.96317 -0.428544 0
M  V30 18427 H 1691.47 1.42497 -0.207539 0
M  V30 18428 H 1693.42 3.77714 1.86843 0
M  V30 18429 H 1692.15 2.54699 2.04441 0
M  V30 18430 H 1690.81 3.6591 0.22485 0
M  V30 18431 H 1690.45 4.29509 2.61784 0
M  V30 18432 H 1690.15 5.67338 1.52975 0
M  V30 18433 H 1691.68 5.58924 2.45837 0
M  V30 18434 H 1693.09 5.72981 0.191288 0
M  V30 18435 H 1691.49 5.97472 -0.561039 0
M  V30 18436 H 1692.56 4.70346 -1.17911 0
M  V30 18437 N 1693.9 0.238138 1.5579 0
M  V30 18438 C 1695.13 -0.396409 2.03576 0
M  V30 18439 C 1695.55 -1.5138 1.11649 0
M  V30 18440 O 1694.91 -1.80979 0.107774 0
M  V30 18441 C 1694.96 -0.889749 3.49451 0
M  V30 18442 O 1694.06 -1.99997 3.60659 0
M  V30 18443 H 1693.4 -0.0876017 0.658196 0
M  V30 18444 H 1695.93 0.361632 2.01379 0
M  V30 18445 H 1695.94 -1.19526 3.901 0
M  V30 18446 H 1694.62 -0.0720136 4.15838 0
M  V30 18447 H 1693.2 -1.69983 3.31904 0
M  V30 18448 N 1695.38 -1.57561 -0.0350783 0
M  V30 18449 C 1696.34 -2.05145 -1.02217 0
M  V30 18450 C 1697.34 -0.954524 -1.29404 0
M  V30 18451 O 1698.53 -1.21833 -1.24509 0
M  V30 18452 C 1695.67 -2.4633 -2.35658 0
M  V30 18453 H 1696.86 -2.93605 -0.61126 0
M  V30 18454 H 1694.41 -1.53739 -0.28176 0
M  V30 18455 H 1695.15 -1.61008 -2.81508 0
M  V30 18456 H 1694.93 -3.26408 -2.17256 0
M  V30 18457 H 1696.42 -2.83592 -3.06537 0
M  V30 18458 N 1696.86 0.307236 -1.54576 0
M  V30 18459 C 1698.11 1.04082 -1.72771 0
M  V30 18460 C 1698.42 1.88639 -0.517188 0
M  V30 18461 O 1699.63 2.65215 -0.580811 0
M  V30 18462 C 1698.08 1.90015 -3.05651 0
M  V30 18463 C 1697.69 1.10491 -4.34161 0
M  V30 18464 C 1699.43 2.6301 -3.33205 0
M  V30 18465 C 1697.34 1.95664 -5.58094 0
M  V30 18466 H 1696.27 0.392307 -0.643903 0
M  V30 18467 H 1698.92 0.29815 -1.81062 0
M  V30 18468 H 1697.3 2.68245 -2.91309 0
M  V30 18469 H 1698.48 0.369181 -4.59319 0
M  V30 18470 H 1696.79 0.491053 -4.13494 0
M  V30 18471 H 1699.39 3.27074 -4.22997 0
M  V30 18472 H 1699.73 3.31512 -2.51804 0
M  V30 18473 H 1700.27 1.91833 -3.4849 0
M  V30 18474 H 1697.01 1.31643 -6.42145 0
M  V30 18475 H 1696.53 2.66927 -5.37131 0
M  V30 18476 H 1698.2 2.53861 -5.95116 0
M  V30 18477 N 1698.34 1.46926 0.570122 0
M  V30 18478 C 1699.58 1.53113 1.32982 0
M  V30 18479 C 1699.92 0.187401 1.93294 0
M  V30 18480 O 1699.19 -0.802585 1.77169 0
M  V30 18481 C 1699.47 2.63936 2.44969 0
M  V30 18482 C 1699.33 4.07882 1.8961 0
M  V30 18483 C 1700.65 2.70753 3.46959 0
M  V30 18484 H 1697.76 0.557398 0.482158 0
M  V30 18485 H 1700.41 1.78923 0.639259 0
M  V30 18486 H 1698.56 2.42059 3.03874 0
M  V30 18487 H 1700.23 4.41084 1.35066 0
M  V30 18488 H 1698.47 4.16768 1.20361 0
M  V30 18489 H 1699.14 4.81175 2.70508 0
M  V30 18490 H 1701.62 2.90452 2.97954 0
M  V30 18491 H 1700.49 3.50093 4.2276 0
M  V30 18492 H 1700.76 1.77299 4.04991 0
M  V30 18493 N 1699.82 -0.815801 1.34842 0
M  V30 18494 C 1701.04 -1.60915 1.30848 0
M  V30 18495 C 1701.47 -1.87758 -0.113345 0
M  V30 18496 O 1700.82 -1.4582 -1.07732 0
M  V30 18497 C 1700.87 -2.92284 2.11192 0
M  V30 18498 O 1699.98 -3.84685 1.48632 0
M  V30 18499 H 1699.32 -0.48913 0.449052 0
M  V30 18500 H 1701.85 -1.01322 1.7775 0
M  V30 18501 H 1701.86 -3.41789 2.2281 0
M  V30 18502 H 1700.53 -2.72071 3.14563 0
M  V30 18503 H 1699.11 -3.43215 1.458 0
M  V30 18504 N 1701.29 -1.18689 -1.03686 0
M  V30 18505 C 1702.52 -1.01024 -1.81132 0
M  V30 18506 C 1702.94 0.436584 -1.82963 0
M  V30 18507 O 1702.3 1.31343 -1.24975 0
M  V30 18508 C 1702.35 -1.5742 -3.24424 0
M  V30 18509 O 1701.45 -0.79813 -4.04603 0
M  V30 18510 H 1700.79 -0.357623 -0.559465 0
M  V30 18511 H 1703.32 -1.57532 -1.30556 0
M  V30 18512 H 1703.33 -1.60295 -3.75193 0
M  V30 18513 H 1702.01 -2.6273 -3.22406 0
M  V30 18514 H 1700.59 -0.842 -3.6327 0
M  V30 18515 N 1702.77 1.22662 -0.989529 0
M  V30 18516 C 1704.02 1.91605 -0.66448 0
M  V30 18517 C 1704.35 1.76909 0.801048 0
M  V30 18518 O 1703.63 1.13583 1.5789 0
M  V30 18519 C 1703.91 3.43929 -1.06698 0
M  V30 18520 C 1703.76 3.67691 -2.59082 0
M  V30 18521 C 1705.08 4.35744 -0.617695 0
M  V30 18522 H 1702.2 0.695832 -0.242872 0
M  V30 18523 H 1704.84 1.44605 -1.23245 0
M  V30 18524 H 1702.99 3.8409 -0.58371 0
M  V30 18525 H 1704.66 3.36956 -3.15053 0
M  V30 18526 H 1702.91 3.12088 -3.01303 0
M  V30 18527 H 1703.58 4.74356 -2.82295 0
M  V30 18528 H 1706.05 4.0308 -1.03275 0
M  V30 18529 H 1704.93 5.41004 -0.927659 0
M  V30 18530 H 1705.19 4.39468 0.481734 0
M  V30 18531 N 1704.25 0.762308 1.37937 0
M  V30 18532 C 1705.53 0.247502 1.94028 0
M  V30 18533 C 1705.91 -1.25581 1.69684 0
M  V30 18534 O 1705.25 -2.03446 1.04028 0
M  V30 18535 C 1705.46 0.610643 3.43616 0
M  V30 18536 C 1706.81 0.57515 4.20687 0
M  V30 18537 O 1707.84 0.549461 3.51937 0
M  V30 18538 O 1706.7 0.593825 5.43264 0
M  V30 18539 H 1703.79 0.0544389 0.825206 0
M  V30 18540 H 1706.34 0.843021 1.47279 0
M  V30 18541 H 1705.11 1.64853 3.54879 0
M  V30 18542 H 1704.73 -0.0124265 3.97598 0
M  V30 18543 N 1705.73 -1.49049 0.51208 0
M  V30 18544 C 1706.67 -2.29326 -0.260408 0
M  V30 18545 C 1707.64 -1.36232 -0.950265 0
M  V30 18546 O 1708.83 -1.65193 -0.954777 0
M  V30 18547 C 1705.97 -3.19177 -1.31225 0
M  V30 18548 C 1705.08 -4.27336 -0.63305 0
M  V30 18549 C 1704.22 -5.04389 -1.66628 0
M  V30 18550 C 1703.26 -6.04372 -0.969561 0
M  V30 18551 N 1702.39 -6.74549 -1.94751 0
M  V30 18552 H 1707.23 -2.94876 0.430384 0
M  V30 18553 H 1704.77 -1.45383 0.224086 0
M  V30 18554 H 1706.73 -3.69655 -1.9342 0
M  V30 18555 H 1705.36 -2.55588 -1.97166 0
M  V30 18556 H 1704.41 -3.80262 0.102433 0
M  V30 18557 H 1705.72 -4.98727 -0.0851363 0
M  V30 18558 H 1704.88 -5.58791 -2.36299 0
M  V30 18559 H 1703.62 -4.32797 -2.24807 0
M  V30 18560 H 1702.62 -5.49191 -0.25869 0
M  V30 18561 H 1703.85 -6.77955 -0.394125 0
M  V30 18562 H 1701.79 -6.0572 -2.5187 0
M  V30 18563 H 1701.71 -7.41954 -1.45055 0
M  V30 18564 H 1702.98 -7.3355 -2.63675 0
M  V30 18565 N 1707.21 -0.246397 -1.55662 0
M  V30 18566 C 1708.45 0.378973 -1.98108 0
M  V30 18567 C 1708.77 1.59106 -1.13775 0
M  V30 18568 O 1709.97 2.28754 -1.46232 0
M  V30 18569 C 1708.43 0.725634 -3.52509 0
M  V30 18570 C 1708.04 -0.465024 -4.4558 0
M  V30 18571 C 1709.78 1.31522 -4.03611 0
M  V30 18572 C 1707.69 -0.0945447 -5.91324 0
M  V30 18573 H 1706.62 0.14537 -0.739854 0
M  V30 18574 H 1709.27 -0.346533 -1.80198 0
M  V30 18575 H 1707.65 1.50925 -3.66111 0
M  V30 18576 H 1708.83 -1.24236 -4.43736 0
M  V30 18577 H 1707.14 -0.969507 -4.04956 0
M  V30 18578 H 1709.74 1.60573 -5.1002 0
M  V30 18579 H 1710.08 2.23952 -3.50929 0
M  V30 18580 H 1710.61 0.594515 -3.93332 0
M  V30 18581 H 1707.35 -0.985965 -6.48042 0
M  V30 18582 H 1706.87 0.646601 -5.96305 0
M  V30 18583 H 1708.55 0.323447 -6.46191 0
M  V30 18584 N 1708.68 1.57577 0.026722 0
M  V30 18585 C 1710.09 1.77689 0.573022 0
M  V30 18586 C 1710.45 0.877771 1.7547 0
M  V30 18587 O 1709.57 0.0732156 2.16276 0
M  V30 18588 C 1710.17 3.22239 1.0463 0
M  V30 18589 C 1708.72 3.4354 1.5381 0
M  V30 18590 C 1707.87 2.73163 0.47722 0
M  V30 18591 H 1710.82 1.57441 -0.199502 0
M  V30 18592 H 1710.84 3.28882 1.91355 0
M  V30 18593 H 1710.36 3.87654 0.186047 0
M  V30 18594 H 1708.46 2.83304 2.42012 0
M  V30 18595 H 1708.57 4.52158 1.58398 0
M  V30 18596 H 1706.93 2.37004 0.932793 0
M  V30 18597 H 1707.72 3.41261 -0.373605 0
M  V30 18598 N 1710.16 -0.299034 1.54737 0
M  V30 18599 C 1711.39 -1.05138 1.77847 0
M  V30 18600 C 1711.8 -1.81359 0.53902 0
M  V30 18601 O 1711.14 -1.76742 -0.500783 0
M  V30 18602 C 1711.2 -2.07681 2.93443 0
M  V30 18603 C 1710.87 -1.50636 4.3146 0
M  V30 18604 C 1711.87 -0.935378 5.11416 0
M  V30 18605 C 1709.55 -1.5414 4.78065 0
M  V30 18606 C 1711.54 -0.407022 6.36099 0
M  V30 18607 C 1709.23 -1.00917 6.0271 0
M  V30 18608 C 1710.23 -0.442956 6.81562 0
M  V30 18609 O 1709.92 0.081192 8.03859 0
M  V30 18610 H 1709.65 -0.317487 0.596807 0
M  V30 18611 H 1712.2 -0.343249 2.02512 0
M  V30 18612 H 1710.43 -2.82179 2.64408 0
M  V30 18613 H 1712.12 -2.68832 3.04112 0
M  V30 18614 H 1712.89 -0.901197 4.76554 0
M  V30 18615 H 1708.77 -1.9715 4.16717 0
M  V30 18616 H 1712.31 0.035577 6.97591 0
M  V30 18617 H 1708.21 -1.04051 6.37059 0
M  V30 18618 H 1708.98 -0.031922 8.18494 0
M  V30 18619 N 1711.64 -1.47227 -0.562322 0
M  V30 18620 C 1712.89 -1.53286 -1.31712 0
M  V30 18621 C 1713.21 -0.194583 -1.94027 0
M  V30 18622 O 1712.48 0.780961 -1.7966 0
M  V30 18623 H 1711.06 -0.564621 -0.489094 0
M  V30 18624 H 1713.72 -1.83492 -0.657024 0
M  V30 18625 H 1712.82 -2.29665 -2.1133 0
M  V30 18626 N 1713.12 0.808639 -1.35273 0
M  V30 18627 C 1714.05 1.92612 -1.22376 0
M  V30 18628 C 1715.03 1.62213 -0.112119 0
M  V30 18629 O 1716.21 1.86411 -0.279844 0
M  V30 18630 C 1713.34 3.26965 -0.883847 0
M  V30 18631 C 1712.39 3.76313 -2.00725 0
M  V30 18632 S 1713.22 3.94362 -3.62269 0
M  V30 18633 C 1714.37 5.3162 -3.3035 0
M  V30 18634 H 1714.61 2.03257 -2.16965 0
M  V30 18635 H 1712.14 0.96579 -1.20465 0
M  V30 18636 H 1714.1 4.04582 -0.69453 0
M  V30 18637 H 1712.76 3.14069 0.0439446 0
M  V30 18638 H 1711.95 4.73615 -1.72351 0
M  V30 18639 H 1711.55 3.05687 -2.1548 0
M  V30 18640 H 1713.85 6.15539 -2.83051 0
M  V30 18641 H 1714.79 5.64986 -4.26844 0
M  V30 18642 H 1715.2 4.97809 -2.66171 0
M  V30 18643 N 1714.6 1.19237 1.03055 0
M  V30 18644 C 1716.01 0.944224 1.28672 0
M  V30 18645 C 1716.21 -0.384378 1.978 0
M  V30 18646 O 1715.27 -1.11629 2.26484 0
M  V30 18647 C 1716.58 2.11704 2.13546 0
M  V30 18648 C 1718.13 2.15647 2.2686 0
M  V30 18649 C 1718.6 3.32375 3.15105 0
M  V30 18650 N 1720.1 3.323 3.22693 0
M  V30 18651 C 1720.83 4.19265 3.91158 0
M  V30 18652 N 1720.33 5.16381 4.61868 0
M  V30 18653 N 1722.12 4.07147 3.87541 0
M  V30 18654 H 1714.27 2.0472 0.565987 0
M  V30 18655 H 1716.53 0.895073 0.312328 0
M  V30 18656 H 1716.24 3.07845 1.70072 0
M  V30 18657 H 1716.11 2.08624 3.14254 0
M  V30 18658 H 1718.5 1.20078 2.69565 0
M  V30 18659 H 1718.58 2.22781 1.25708 0
M  V30 18660 H 1718.23 4.28222 2.73108 0
M  V30 18661 H 1718.16 3.22478 4.16312 0
M  V30 18662 H 1720.65 2.62 2.72331 0
M  V30 18663 H 1720.96 5.7909 5.11737 0
M  V30 18664 H 1719.3 5.20331 4.60739 0
M  V30 18665 H 1722.5 3.30555 3.31438 0
M  V30 18666 H 1722.67 4.75135 4.40625 0
M  V30 18667 N 1716.07 -1.22136 0.99602 0
M  V30 18668 C 1717.32 -1.90967 0.673634 0
M  V30 18669 C 1717.65 -1.77526 -0.794654 0
M  V30 18670 O 1716.9 -1.14014 -1.59058 0
M  V30 18671 C 1717.2 -3.42259 1.02926 0
M  V30 18672 C 1716.87 -3.75891 2.49032 0
M  V30 18673 C 1715.53 -3.84781 2.88959 0
M  V30 18674 C 1717.88 -3.91799 3.43719 0
M  V30 18675 C 1715.21 -4.0702 4.22554 0
M  V30 18676 C 1717.56 -4.15543 4.76977 0
M  V30 18677 C 1716.23 -4.22658 5.1664 0
M  V30 18678 H 1715.5 -0.698798 0.2465 0
M  V30 18679 H 1718.14 -1.44836 1.25279 0
M  V30 18680 H 1716.45 -3.90066 0.368224 0
M  V30 18681 H 1718.15 -3.93774 0.757803 0
M  V30 18682 H 1714.74 -3.69556 2.17086 0
M  V30 18683 H 1718.92 -3.84306 3.14042 0
M  V30 18684 H 1714.18 -4.10756 4.52868 0
M  V30 18685 H 1718.35 -4.26796 5.50289 0
M  V30 18686 H 1715.98 -4.39643 6.20176 0
M  V30 18687 N 1717.55 -0.769612 -1.37531 0
M  V30 18688 C 1718.8 -0.329661 -1.98988 0
M  V30 18689 C 1719.11 1.0993 -1.61786 0
M  V30 18690 O 1720.32 1.64053 -2.1633 0
M  V30 18691 C 1718.78 -0.538461 -3.55849 0
M  V30 18692 C 1718.38 -1.97755 -4.01991 0
M  V30 18693 C 1720.13 -0.162026 -4.24191 0
M  V30 18694 C 1718.04 -2.13406 -5.51554 0
M  V30 18695 H 1716.97 -0.119514 -0.744468 0
M  V30 18696 H 1719.62 -0.948436 -1.57089 0
M  V30 18697 H 1718 0.14974 -3.95717 0
M  V30 18698 H 1719.17 -2.70053 -3.73374 0
M  V30 18699 H 1717.49 -2.31038 -3.46425 0
M  V30 18700 H 1720.08 -0.257508 -5.3408 0
M  V30 18701 H 1720.43 0.887442 -4.06731 0
M  V30 18702 H 1720.96 -0.802692 -3.89617 0
M  V30 18703 H 1717.7 -3.16664 -5.73937 0
M  V30 18704 H 1717.22 -1.45589 -5.81862 0
M  V30 18705 H 1718.9 -1.93165 -6.17492 0
M  V30 18706 N 1719.03 1.48775 -0.519977 0
M  V30 18707 C 1719.99 2.27967 0.237405 0
M  V30 18708 C 1720.99 1.34787 0.876868 0
M  V30 18709 O 1722.18 1.57773 0.738463 0
M  V30 18710 C 1719.32 3.13353 1.34248 0
M  V30 18711 H 1720.51 2.96386 -0.457753 0
M  V30 18712 H 1718.06 1.53852 -0.275569 0
M  V30 18713 H 1718.8 2.49543 2.0712 0
M  V30 18714 H 1718.58 3.81885 0.889187 0
M  V30 18715 H 1720.07 3.73116 1.87547 0
M  V30 18716 N 1720.51 0.254649 1.55529 0
M  V30 18717 C 1721.46 -0.64162 2.21702 0
M  V30 18718 C 1722.43 -1.16544 1.1835 0
M  V30 18719 O 1723.61 -1.2185 1.46824 0
M  V30 18720 C 1720.75 -1.82935 2.92624 0
M  V30 18721 C 1719.86 -1.34132 4.10649 0
M  V30 18722 C 1719 -2.48922 4.69267 0
M  V30 18723 C 1718.04 -1.9702 5.79525 0
M  V30 18724 N 1717.17 -3.05206 6.32293 0
M  V30 18725 H 1722.01 -0.0706476 2.97916 0
M  V30 18726 H 1719.55 -0.0231077 1.47082 0
M  V30 18727 H 1721.51 -2.52719 3.31947 0
M  V30 18728 H 1720.14 -2.37267 2.1887 0
M  V30 18729 H 1719.19 -0.53726 3.76587 0
M  V30 18730 H 1720.5 -0.921003 4.90223 0
M  V30 18731 H 1719.66 -3.26735 5.11203 0
M  V30 18732 H 1718.4 -2.94259 3.88925 0
M  V30 18733 H 1717.4 -1.17679 5.37058 0
M  V30 18734 H 1718.63 -1.52643 6.61723 0
M  V30 18735 H 1716.57 -3.49963 5.54853 0
M  V30 18736 H 1716.49 -2.67528 7.07082 0
M  V30 18737 H 1717.76 -3.83055 6.78888 0
M  V30 18738 N 1721.99 -1.57589 -0.0183649 0
M  V30 18739 C 1723.23 -1.90038 -0.708056 0
M  V30 18740 C 1723.57 -0.853686 -1.7443 0
M  V30 18741 O 1722.84 0.12994 -1.94065 0
M  V30 18742 C 1723.12 -3.33107 -1.3679 0
M  V30 18743 C 1722.98 -4.48479 -0.344448 0
M  V30 18744 C 1724.3 -3.75276 -2.29904 0
M  V30 18745 H 1721.41 -0.691134 -0.255934 0
M  V30 18746 H 1724.06 -1.89978 0.0291579 0
M  V30 18747 H 1722.21 -3.33289 -1.99626 0
M  V30 18748 H 1723.88 -4.60432 0.282816 0
M  V30 18749 H 1722.12 -4.32503 0.335196 0
M  V30 18750 H 1722.79 -5.45497 -0.844832 0
M  V30 18751 H 1725.27 -3.76529 -1.77103 0
M  V30 18752 H 1724.14 -4.76168 -2.73049 0
M  V30 18753 H 1724.41 -3.08124 -3.17036 0
M  V30 18754 N 1723.46 0.290824 -1.54893 0
M  V30 18755 C 1724.39 1.36354 -1.89551 0
M  V30 18756 C 1725.38 1.52403 -0.75546 0
M  V30 18757 O 1726.56 1.65743 -1.01208 0
M  V30 18758 C 1723.69 2.72609 -2.15178 0
M  V30 18759 C 1722.64 2.71313 -3.31019 0
M  V30 18760 C 1721.97 4.10952 -3.42085 0
M  V30 18761 C 1723.27 2.32153 -4.6787 0
M  V30 18762 H 1724.96 1.07597 -2.79398 0
M  V30 18763 H 1722.51 0.516154 -1.34432 0
M  V30 18764 H 1724.46 3.47749 -2.3801 0
M  V30 18765 H 1723.19 3.02913 -1.22112 0
M  V30 18766 H 1721.85 1.9863 -3.08126 0
M  V30 18767 H 1721.49 4.38449 -2.46518 0
M  V30 18768 H 1721.19 4.10984 -4.1996 0
M  V30 18769 H 1722.72 4.87857 -3.67189 0
M  V30 18770 H 1724.13 2.97011 -4.90364 0
M  V30 18771 H 1722.53 2.4338 -5.48531 0
M  V30 18772 H 1723.6 1.27279 -4.67897 0
M  V30 18773 N 1724.94 1.47523 0.554506 0
M  V30 18774 C 1725.89 1.60213 1.66134 0
M  V30 18775 C 1726.86 0.445051 1.60027 0
M  V30 18776 O 1728.04 0.665449 1.7882 0
M  V30 18777 C 1725.18 1.62491 3.04452 0
M  V30 18778 C 1724.3 2.89134 3.20976 0
M  V30 18779 C 1723.43 2.82731 4.49707 0
M  V30 18780 C 1722.47 4.04187 4.59673 0
M  V30 18781 N 1721.61 3.96004 5.79763 0
M  V30 18782 H 1726.45 2.54744 1.54626 0
M  V30 18783 H 1723.99 1.26355 0.753189 0
M  V30 18784 H 1725.94 1.61795 3.84549 0
M  V30 18785 H 1724.57 0.714698 3.14789 0
M  V30 18786 H 1723.63 2.99685 2.34292 0
M  V30 18787 H 1724.94 3.79069 3.24203 0
M  V30 18788 H 1724.09 2.80299 5.38068 0
M  V30 18789 H 1722.83 1.90483 4.48963 0
M  V30 18790 H 1721.84 4.06921 3.69724 0
M  V30 18791 H 1723.06 4.97565 4.62175 0
M  V30 18792 H 1721.01 3.06561 5.79962 0
M  V30 18793 H 1720.92 4.7962 5.8438 0
M  V30 18794 H 1722.19 3.97593 6.70478 0
M  V30 18795 N 1726.42 -0.801453 1.357 0
M  V30 18796 C 1727.7 -1.54605 1.19819 0
M  V30 18797 C 1728.08 -2.09944 -0.220593 0
M  V30 18798 O 1727.43 -1.92904 -1.22475 0
M  V30 18799 C 1727.64 -2.65052 2.27043 0
M  V30 18800 C 1728.98 -3.33255 2.63109 0
M  V30 18801 O 1730.01 -2.75326 2.25995 0
M  V30 18802 O 1728.87 -4.37917 3.26942 0
M  V30 18803 H 1725.96 -0.68334 0.465807 0
M  V30 18804 H 1728.51 -0.840972 1.47397 0
M  V30 18805 H 1727.28 -2.22068 3.22182 0
M  V30 18806 H 1726.9 -3.4319 2.00764 0
M  V30 18807 N 1727.9 -1.19782 -1.02421 0
M  V30 18808 C 1729.12 -1.02939 -1.80051 0
M  V30 18809 C 1729.55 0.417153 -1.83416 0
M  V30 18810 O 1728.91 1.3001 -1.26361 0
M  V30 18811 C 1728.95 -1.60853 -3.22736 0
M  V30 18812 O 1728.06 -0.840999 -4.03734 0
M  V30 18813 H 1727.4 -0.363537 -0.555641 0
M  V30 18814 H 1729.93 -1.58908 -1.28878 0
M  V30 18815 H 1729.94 -1.64266 -3.73471 0
M  V30 18816 H 1728.61 -2.66135 -3.19602 0
M  V30 18817 H 1727.19 -0.880482 -3.62356 0
M  V30 18818 N 1729.38 1.21606 -1.00248 0
M  V30 18819 C 1730.31 2.26159 -0.580911 0
M  V30 18820 C 1731.29 1.65402 0.397017 0
M  V30 18821 O 1732.47 1.92089 0.285552 0
M  V30 18822 C 1729.6 3.47168 0.0957564 0
M  V30 18823 C 1728.56 4.20425 -0.801695 0
M  V30 18824 C 1727.88 5.34699 0.00842241 0
M  V30 18825 C 1729.18 4.78086 -2.10311 0
M  V30 18826 H 1730.88 2.61675 -1.45487 0
M  V30 18827 H 1728.42 1.25786 -0.700995 0
M  V30 18828 H 1730.38 4.19477 0.402141 0
M  V30 18829 H 1729.1 3.10775 1.00433 0
M  V30 18830 H 1727.76 3.49963 -1.09187 0
M  V30 18831 H 1727.41 4.94548 0.918206 0
M  V30 18832 H 1727.11 5.84639 -0.589105 0
M  V30 18833 H 1728.63 6.09819 0.30868 0
M  V30 18834 H 1730.05 5.42287 -1.86004 0
M  V30 18835 H 1728.44 5.38405 -2.65028 0
M  V30 18836 H 1729.51 3.97607 -2.77555 0
M  V30 18837 N 1730.86 0.776895 1.37121 0
M  V30 18838 C 1731.81 0.140089 2.27569 0
M  V30 18839 C 1732.79 -0.668578 1.46352 0
M  V30 18840 O 1733.98 -0.530707 1.68856 0
M  V30 18841 C 1731.11 -0.734162 3.35358 0
M  V30 18842 C 1730.2 0.0826144 4.2402 0
M  V30 18843 N 1730.59 1.13084 4.92997 0
M  V30 18844 C 1728.89 -0.140551 4.45778 0
M  V30 18845 C 1729.59 1.62701 5.58483 0
M  V30 18846 N 1728.56 0.93832 5.3544 0
M  V30 18847 H 1732.36 0.942573 2.78375 0
M  V30 18848 H 1729.88 0.615144 1.50299 0
M  V30 18849 H 1731.88 -1.20618 3.9907 0
M  V30 18850 H 1730.54 -1.53533 2.86108 0
M  V30 18851 H 1731.55 1.51308 4.95304 0
M  V30 18852 H 1728.22 -0.913223 4.0739 0
M  V30 18853 H 1729.61 2.50145 6.236 0
M  V30 18854 N 1732.33 -1.48497 0.527859 0
M  V30 18855 C 1733.24 -2.3337 -0.239957 0
M  V30 18856 C 1734.26 -1.46353 -0.941101 0
M  V30 18857 O 1735.44 -1.79337 -0.916532 0
M  V30 18858 C 1732.5 -3.22421 -1.27458 0
M  V30 18859 C 1731.56 -4.25309 -0.584017 0
M  V30 18860 C 1730.79 -5.10105 -1.56935 0
M  V30 18861 O 1731.02 -4.96846 -2.80178 0
M  V30 18862 O 1729.95 -5.91578 -1.10991 0
M  V30 18863 H 1733.78 -3.00265 0.455458 0
M  V30 18864 H 1731.36 -1.46582 0.288809 0
M  V30 18865 H 1733.24 -3.7751 -1.87254 0
M  V30 18866 H 1731.92 -2.58189 -1.95244 0
M  V30 18867 H 1730.83 -3.7406 0.0543828 0
M  V30 18868 H 1732.16 -4.92173 0.0518646 0
M  V30 18869 N 1733.81 -0.262893 -1.55392 0
M  V30 18870 C 1734.76 0.629853 -2.22039 0
M  V30 18871 C 1735.73 1.15915 -1.18966 0
M  V30 18872 O 1736.91 1.21069 -1.47468 0
M  V30 18873 C 1734.05 1.8138 -2.9359 0
M  V30 18874 C 1733.17 1.31952 -4.11355 0
M  V30 18875 C 1732.3 2.4643 -4.7058 0
M  V30 18876 C 1731.34 1.93944 -5.80562 0
M  V30 18877 N 1730.48 3.01848 -6.33902 0
M  V30 18878 H 1735.32 0.0548473 -2.9795 0
M  V30 18879 H 1732.85 0.0153072 -1.47092 0
M  V30 18880 H 1734.81 2.50955 -3.33283 0
M  V30 18881 H 1733.44 2.36103 -2.20125 0
M  V30 18882 H 1732.49 0.517281 -3.76866 0
M  V30 18883 H 1733.81 0.894993 -4.90705 0
M  V30 18884 H 1732.96 3.2402 -5.12929 0
M  V30 18885 H 1731.7 2.92193 -3.9048 0
M  V30 18886 H 1730.7 1.1483 -5.37675 0
M  V30 18887 H 1731.93 1.49132 -6.62523 0
M  V30 18888 H 1729.88 3.47015 -5.56701 0
M  V30 18889 H 1729.79 2.63775 -7.08491 0
M  V30 18890 H 1731.06 3.79449 -6.8091 0
M  V30 18891 N 1735.29 1.57597 0.0100073 0
M  V30 18892 C 1736.54 1.90129 0.696935 0
M  V30 18893 C 1736.86 0.862514 1.7433 0
M  V30 18894 O 1736.12 -0.134054 1.9524 0
M  V30 18895 C 1736.42 3.29416 1.38635 0
M  V30 18896 C 1736.08 4.484 0.474144 0
M  V30 18897 C 1734.75 4.80683 0.222956 0
M  V30 18898 C 1737.1 5.20971 -0.154514 0
M  V30 18899 C 1734.43 5.82915 -0.665351 0
M  V30 18900 C 1736.78 6.24148 -1.03064 0
M  V30 18901 C 1735.44 6.54895 -1.2911 0
M  V30 18902 H 1734.71 0.695732 0.255027 0
M  V30 18903 H 1737.36 1.91451 -0.0433713 0
M  V30 18904 H 1735.66 3.24172 2.20045 0
M  V30 18905 H 1737.36 3.51843 1.92373 0
M  V30 18906 H 1733.95 4.2317 0.680087 0
M  V30 18907 H 1738.14 4.96293 0.0265512 0
M  V30 18908 H 1733.39 6.05103 -0.875259 0
M  V30 18909 H 1737.57 6.79516 -1.52417 0
M  V30 18910 H 1735.19 7.33931 -1.98113 0
M  V30 18911 N 1736.77 -0.282606 1.55045 0
M  V30 18912 C 1738.18 -0.854338 1.66006 0
M  V30 18913 C 1738.53 -1.87408 0.580753 0
M  V30 18914 O 1737.65 -2.14588 -0.279449 0
M  V30 18915 C 1738.25 -1.55637 3.00936 0
M  V30 18916 C 1736.81 -2.07626 3.13956 0
M  V30 18917 C 1735.96 -0.915064 2.61767 0
M  V30 18918 H 1738.91 -0.0591711 1.5859 0
M  V30 18919 H 1738.93 -2.42289 2.93388 0
M  V30 18920 H 1738.44 -0.813942 3.79469 0
M  V30 18921 H 1736.54 -2.84859 2.40179 0
M  V30 18922 H 1736.65 -2.29816 4.20382 0
M  V30 18923 H 1735.02 -1.30577 2.18682 0
M  V30 18924 H 1735.8 -0.186298 3.42794 0
M  V30 18925 N 1738.25 -1.47815 -0.546675 0
M  V30 18926 C 1739.52 -1.45464 -1.30765 0
M  V30 18927 C 1739.9 -0.157249 -2.10514 0
M  V30 18928 O 1739.25 0.861203 -2.1165 0
M  V30 18929 C 1739.46 -2.70661 -2.20326 0
M  V30 18930 C 1740.81 -3.18309 -2.81007 0
M  V30 18931 O 1741.83 -2.71462 -2.30623 0
M  V30 18932 O 1740.69 -3.9978 -3.7261 0
M  V30 18933 H 1737.79 -0.580175 -0.589343 0
M  V30 18934 H 1740.33 -1.60029 -0.564707 0
M  V30 18935 H 1739.1 -3.56612 -1.61069 0
M  V30 18936 H 1738.73 -2.58734 -3.01898 0
M  V30 18937 N 1739.72 0.794246 -1.36123 0
M  V30 18938 C 1740.69 1.88828 -1.2991 0
M  V30 18939 C 1741.69 1.59451 -0.207839 0
M  V30 18940 O 1742.88 1.67953 -0.462321 0
M  V30 18941 C 1740.01 3.25511 -1.01269 0
M  V30 18942 H 1741.2 1.95753 -2.27202 0
M  V30 18943 H 1738.75 0.991505 -1.20826 0
M  V30 18944 H 1739.49 3.2427 -0.0441535 0
M  V30 18945 H 1739.27 3.48221 -1.80234 0
M  V30 18946 H 1740.76 4.0557 -0.995142 0
M  V30 18947 N 1741.2 1.20323 1.01785 0
M  V30 18948 C 1742.45 1.01063 1.75016 0
M  V30 18949 C 1742.77 -0.458458 1.89534 0
M  V30 18950 O 1742.04 -1.3315 1.43694 0
M  V30 18951 H 1740.62 0.370957 0.648383 0
M  V30 18952 H 1743.28 1.51411 1.22722 0
M  V30 18953 H 1742.38 1.46792 2.75424 0
M  V30 18954 N 1742.68 -1.21073 1.00892 0
M  V30 18955 C 1743.59 -2.27265 0.582065 0
M  V30 18956 C 1744.61 -1.69872 -0.376785 0
M  V30 18957 O 1745.78 -1.99969 -0.239644 0
M  V30 18958 C 1742.85 -3.46606 -0.0806764 0
M  V30 18959 C 1741.91 -4.19257 0.923147 0
M  V30 18960 C 1741.14 -5.32901 0.291938 0
M  V30 18961 O 1741.36 -5.6309 -0.910282 0
M  V30 18962 O 1740.3 -5.93453 1.00483 0
M  V30 18963 H 1744.12 -2.65977 1.46594 0
M  V30 18964 H 1741.71 -1.27544 0.777999 0
M  V30 18965 H 1743.59 -4.18978 -0.451177 0
M  V30 18966 H 1742.27 -3.09785 -0.93887 0
M  V30 18967 H 1741.17 -3.4909 1.34488 0
M  V30 18968 H 1742.51 -4.59999 1.75106 0
M  V30 18969 N 1744.16 -0.784156 -1.36707 0
M  V30 18970 C 1745.44 -0.278338 -1.93609 0
M  V30 18971 C 1745.82 1.22865 -1.71661 0
M  V30 18972 O 1745.16 2.01765 -1.07252 0
M  V30 18973 C 1745.37 -0.665232 -3.42601 0
M  V30 18974 C 1746.72 -0.642005 -4.19718 0
M  V30 18975 O 1747.75 -0.605381 -3.51018 0
M  V30 18976 O 1746.6 -0.680178 -5.42251 0
M  V30 18977 H 1743.7 -0.0675603 -0.824236 0
M  V30 18978 H 1746.24 -0.866345 -1.4592 0
M  V30 18979 H 1745.02 -1.70478 -3.52211 0
M  V30 18980 H 1744.64 -0.0508295 -3.97568 0
M  V30 18981 N 1745.64 1.48215 -0.535727 0
M  V30 18982 C 1746.55 2.33494 0.227577 0
M  V30 18983 C 1747.56 1.4685 0.933327 0
M  V30 18984 O 1748.74 1.7982 0.907008 0
M  V30 18985 C 1745.8 3.23092 1.25747 0
M  V30 18986 C 1744.86 4.25613 0.561454 0
M  V30 18987 C 1744.1 5.1093 1.54228 0
M  V30 18988 O 1744.32 4.98325 2.77539 0
M  V30 18989 O 1743.25 5.92158 1.07852 0
M  V30 18990 H 1747.08 3.0002 -0.471375 0
M  V30 18991 H 1744.67 1.46427 -0.296579 0
M  V30 18992 H 1746.55 3.78498 1.8525 0
M  V30 18993 H 1745.22 2.5922 1.93872 0
M  V30 18994 H 1744.13 3.74026 -0.0742194 0
M  V30 18995 H 1745.46 4.92138 -0.0779649 0
M  V30 18996 N 1747.11 0.27113 1.5525 0
M  V30 18997 C 1748.04 -0.61179 2.25343 0
M  V30 18998 C 1749.03 -1.16208 1.24216 0
M  V30 18999 O 1750.21 -1.19696 1.52927 0
M  V30 19000 C 1747.34 -1.7978 2.97147 0
M  V30 19001 C 1746.29 -1.37922 4.05169 0
M  V30 19002 C 1745.62 -2.64801 4.64526 0
M  V30 19003 C 1746.92 -0.532357 5.1958 0
M  V30 19004 H 1748.61 -0.0272538 2.99388 0
M  V30 19005 H 1746.16 -0.0116681 1.43995 0
M  V30 19006 H 1748.11 -2.42132 3.44891 0
M  V30 19007 H 1746.84 -2.40811 2.20631 0
M  V30 19008 H 1745.5 -0.778918 3.5823 0
M  V30 19009 H 1745.14 -3.24081 3.84682 0
M  V30 19010 H 1744.84 -2.37507 5.37461 0
M  V30 19011 H 1746.37 -3.28009 5.15017 0
M  V30 19012 H 1747.78 -1.06078 5.63401 0
M  V30 19013 H 1746.18 -0.35447 5.99052 0
M  V30 19014 H 1747.25 0.44981 4.82809 0
M  V30 19015 N 1748.59 -1.576 -0.00164943 0
M  V30 19016 C 1749.52 -2.11354 -0.992554 0
M  V30 19017 C 1750.5 -1.0223 -1.35952 0
M  V30 19018 O 1751.69 -1.29904 -1.44356 0
M  V30 19019 C 1748.82 -2.61549 -2.28494 0
M  V30 19020 C 1747.77 -3.75185 -2.05962 0
M  V30 19021 C 1747.1 -4.11688 -3.412 0
M  V30 19022 C 1748.4 -5.02526 -1.42355 0
M  V30 19023 H 1750.09 -2.94398 -0.544986 0
M  V30 19024 H 1747.64 -1.4162 -0.260702 0
M  V30 19025 H 1749.59 -2.97782 -2.98168 0
M  V30 19026 H 1748.32 -1.75625 -2.75361 0
M  V30 19027 H 1746.97 -3.39343 -1.38714 0
M  V30 19028 H 1746.62 -3.22789 -3.85767 0
M  V30 19029 H 1746.32 -4.88246 -3.2694 0
M  V30 19030 H 1747.85 -4.50478 -4.12192 0
M  V30 19031 H 1749.26 -5.3654 -2.01984 0
M  V30 19032 H 1747.66 -5.83878 -1.38589 0
M  V30 19033 H 1748.73 -4.83308 -0.392565 0
M  V30 19034 N 1750.07 0.274379 -1.55193 0
M  V30 19035 C 1751.02 1.33913 -1.87978 0
M  V30 19036 C 1751.99 1.49142 -0.731149 0
M  V30 19037 O 1753.17 1.63572 -0.98229 0
M  V30 19038 C 1750.31 2.69464 -2.156 0
M  V30 19039 C 1749.43 2.62468 -3.43125 0
M  V30 19040 C 1748.56 3.90188 -3.60453 0
M  V30 19041 C 1747.6 3.77697 -4.81675 0
M  V30 19042 N 1746.74 4.97249 -4.95669 0
M  V30 19043 H 1751.58 1.05254 -2.78793 0
M  V30 19044 H 1749.11 0.508532 -1.3803 0
M  V30 19045 H 1751.07 3.48329 -2.29614 0
M  V30 19046 H 1749.7 2.96328 -1.28021 0
M  V30 19047 H 1748.75 1.7532 -3.3759 0
M  V30 19048 H 1750.07 2.49137 -4.32125 0
M  V30 19049 H 1749.22 4.77495 -3.74277 0
M  V30 19050 H 1747.96 4.06384 -2.69635 0
M  V30 19051 H 1746.96 2.88774 -4.67857 0
M  V30 19052 H 1748.19 3.63022 -5.73927 0
M  V30 19053 H 1746.13 5.13858 -4.07781 0
M  V30 19054 H 1746.05 4.86444 -5.78712 0
M  V30 19055 H 1747.32 5.86132 -5.13877 0
M  V30 19056 N 1751.55 1.48103 0.538828 0
M  V30 19057 C 1752.8 1.54925 1.29156 0
M  V30 19058 C 1753.11 0.224177 1.94311 0
M  V30 19059 O 1754.32 0.170559 2.70964 0
M  V30 19060 C 1752.77 2.73184 2.34304 0
M  V30 19061 C 1752.38 4.12297 1.75257 0
M  V30 19062 C 1754.12 2.89313 3.10642 0
M  V30 19063 C 1752.03 5.2183 2.78294 0
M  V30 19064 H 1750.96 0.576723 0.485702 0
M  V30 19065 H 1753.61 1.74418 0.570142 0
M  V30 19066 H 1751.99 2.47107 3.09441 0
M  V30 19067 H 1753.17 4.48355 1.06368 0
M  V30 19068 H 1751.48 4.0121 1.11442 0
M  V30 19069 H 1754.08 3.68313 3.87621 0
M  V30 19070 H 1754.42 1.98438 3.65962 0
M  V30 19071 H 1754.96 3.15248 2.42618 0
M  V30 19072 H 1751.7 6.14642 2.27805 0
M  V30 19073 H 1751.22 4.90269 3.45537 0
M  V30 19074 H 1752.89 5.49567 3.41446 0
M  V30 19075 N 1753.03 -0.787016 1.36542 0
M  V30 19076 C 1754.28 -1.54019 1.30234 0
M  V30 19077 C 1754.59 -1.95259 -0.115496 0
M  V30 19078 O 1755.79 -2.69827 -0.300966 0
M  V30 19079 C 1754.25 -2.78048 2.28512 0
M  V30 19080 C 1753.86 -2.43968 3.75744 0
M  V30 19081 C 1755.6 -3.56025 2.31185 0
M  V30 19082 C 1753.51 -3.64406 4.65792 0
M  V30 19083 H 1752.44 -0.578185 0.483961 0
M  V30 19084 H 1755.09 -0.8634 1.61919 0
M  V30 19085 H 1753.47 -3.47538 1.89824 0
M  V30 19086 H 1754.65 -1.82359 4.23181 0
M  V30 19087 H 1752.96 -1.79197 3.75869 0
M  V30 19088 H 1755.56 -4.45514 2.9567 0
M  V30 19089 H 1755.9 -3.94783 1.32107 0
M  V30 19090 H 1756.43 -2.93516 2.68502 0
M  V30 19091 H 1753.17 -3.30742 5.65942 0
M  V30 19092 H 1752.69 -4.25173 4.2307 0
M  V30 19093 H 1754.37 -4.31406 4.82181 0
M  V30 19094 N 1754.5 -1.20861 -1.01145 0
M  V30 19095 C 1755.75 -1.0199 -1.74478 0
M  V30 19096 C 1756.07 0.4484 -1.89775 0
M  V30 19097 O 1755.34 1.32386 -1.44398 0
M  V30 19098 H 1753.92 -0.37439 -0.646406 0
M  V30 19099 H 1756.59 -1.5206 -1.21917 0
M  V30 19100 H 1755.68 -1.48251 -2.74642 0
M  V30 19101 N 1755.98 1.20536 -1.01532 0
M  V30 19102 C 1756.93 2.2531 -0.577786 0
M  V30 19103 C 1757.92 1.65017 0.382843 0
M  V30 19104 O 1759.13 1.78214 0.252904 0
M  V30 19105 H 1755.51 0.732872 -0.168532 0
M  V30 19106 H 1757.48 2.59544 -1.4724 0
M  V30 19107 C 1756.23 3.47631 0.0694263 0
M  V30 19108 H 1755.55 3.94302 -0.660748 0
M  V30 19109 H 1756.99 4.22645 0.338706 0
M  V30 19110 C 1755.45 3.1031 1.31185 0
M  V30 19111 O 1755.98 3.21729 2.40527 0
M  V30 19112 N 1754.18 2.64871 1.19547 0
M  V30 19113 H 1753.73 2.55779 0.305741 0
M  V30 19114 H 1753.69 2.4027 2.02775 0
M  V30 19115 N 1757.46 0.791395 1.36289 0
M  V30 19116 C 1758.39 0.205419 2.32595 0
M  V30 19117 C 1759.37 -0.660696 1.56744 0
M  V30 19118 O 1760.56 -0.594111 1.84889 0
M  V30 19119 C 1757.69 -0.659018 3.4099 0
M  V30 19120 C 1756.64 0.107364 4.27865 0
M  V30 19121 C 1755.97 -0.877795 5.27446 0
M  V30 19122 C 1757.27 1.29769 5.05922 0
M  V30 19123 H 1758.96 1.00999 2.8185 0
M  V30 19124 H 1756.51 0.487122 1.35511 0
M  V30 19125 H 1758.46 -1.07891 4.07354 0
M  V30 19126 H 1757.18 -1.49632 2.90307 0
M  V30 19127 H 1755.84 0.508253 3.6306 0
M  V30 19128 H 1755.49 -1.71018 4.73035 0
M  V30 19129 H 1755.19 -0.369429 5.86438 0
M  V30 19130 H 1756.71 -1.29621 5.96683 0
M  V30 19131 H 1758.13 0.953463 5.65316 0
M  V30 19132 H 1756.53 1.73949 5.74336 0
M  V30 19133 H 1757.6 2.09205 4.37449 0
M  V30 19134 N 1758.94 -1.47929 0.54358 0
M  V30 19135 C 1759.87 -2.3264 -0.200228 0
M  V30 19136 C 1760.85 -1.42945 -0.922 0
M  V30 19137 O 1762.04 -1.71817 -0.905129 0
M  V30 19138 C 1759.17 -3.24439 -1.23922 0
M  V30 19139 C 1758.12 -4.23267 -0.634753 0
M  V30 19140 C 1757.45 -5.04295 -1.77739 0
M  V30 19141 C 1758.75 -5.20747 0.402524 0
M  V30 19142 H 1760.44 -2.95077 0.506957 0
M  V30 19143 H 1757.99 -1.41896 0.245246 0
M  V30 19144 H 1759.94 -3.82535 -1.76763 0
M  V30 19145 H 1758.66 -2.60029 -1.97616 0
M  V30 19146 H 1757.32 -3.66377 -0.127756 0
M  V30 19147 H 1756.97 -4.36299 -2.50304 0
M  V30 19148 H 1756.67 -5.71195 -1.37879 0
M  V30 19149 H 1758.19 -5.65246 -2.30932 0
M  V30 19150 H 1759.61 -5.73287 -0.039305 0
M  V30 19151 H 1758 -5.95774 0.719251 0
M  V30 19152 H 1759.07 -4.67054 1.3034 0
M  V30 19153 N 1760.42 -0.27936 -1.55104 0
M  V30 19154 C 1761.65 0.338937 -2.03801 0
M  V30 19155 C 1762.06 1.49699 -1.15702 0
M  V30 19156 O 1761.4 1.82906 -0.170589 0
M  V30 19157 C 1761.46 0.878265 -3.48607 0
M  V30 19158 C 1761.12 -0.151698 -4.56748 0
M  V30 19159 C 1762.12 -0.972688 -5.1072 0
M  V30 19160 C 1759.81 -0.287161 -5.01478 0
M  V30 19161 C 1761.8 -1.91529 -6.07944 0
M  V30 19162 C 1759.49 -1.23323 -5.98527 0
M  V30 19163 C 1760.49 -2.04579 -6.51641 0
M  V30 19164 O 1760.17 -2.97586 -7.46792 0
M  V30 19165 H 1759.91 0.080791 -0.671155 0
M  V30 19166 H 1762.46 -0.410483 -2.01257 0
M  V30 19167 H 1760.69 1.67783 -3.48405 0
M  V30 19168 H 1762.38 1.41011 -3.80619 0
M  V30 19169 H 1763.14 -0.878791 -4.76972 0
M  V30 19170 H 1759.02 0.33531 -4.59779 0
M  V30 19171 H 1762.57 -2.54993 -6.49326 0
M  V30 19172 H 1758.46 -1.32793 -6.31693 0
M  V30 19173 H 1759.23 -2.92316 -7.64522 0
M  V30 19174 N 1761.9 1.57599 -0.0067085 0
M  V30 19175 C 1763.13 1.9486 0.686536 0
M  V30 19176 C 1763.53 0.880481 1.67464 0
M  V30 19177 O 1762.88 -0.148537 1.83098 0
M  V30 19178 C 1762.94 3.28146 1.46834 0
M  V30 19179 C 1762.6 4.52481 0.641076 0
M  V30 19180 C 1763.6 5.19847 -0.0741179 0
M  V30 19181 C 1761.28 4.98881 0.585071 0
M  V30 19182 C 1763.28 6.31917 -0.83423 0
M  V30 19183 C 1760.97 6.10838 -0.178762 0
M  V30 19184 C 1761.96 6.77214 -0.887139 0
M  V30 19185 O 1761.65 7.87025 -1.6385 0
M  V30 19186 H 1761.38 0.647045 0.195727 0
M  V30 19187 H 1763.94 2.05324 -0.0559783 0
M  V30 19188 H 1762.17 3.14109 2.25549 0
M  V30 19189 H 1763.86 3.50471 2.04756 0
M  V30 19190 H 1764.62 4.84983 -0.0400444 0
M  V30 19191 H 1760.5 4.47038 1.12598 0
M  V30 19192 H 1764.05 6.83659 -1.38767 0
M  V30 19193 H 1759.94 6.45143 -0.214632 0
M  V30 19194 H 1760.71 8.03576 -1.55591 0
M  V30 19195 N 1763.37 -0.266145 1.55336 0
M  V30 19196 C 1764.79 -0.613693 1.47329 0
M  V30 19197 C 1764.99 -1.89207 0.693038 0
M  V30 19198 O 1764.05 -2.51586 0.214642 0
M  V30 19199 C 1765.36 -0.734287 2.91597 0
M  V30 19200 C 1766.91 -0.82789 3.01853 0
M  V30 19201 C 1767.38 -0.980205 4.47388 0
M  V30 19202 N 1768.87 -1.04556 4.51245 0
M  V30 19203 C 1769.61 -1.18233 5.61078 0
M  V30 19204 N 1769.1 -1.28587 6.80762 0
M  V30 19205 N 1770.9 -1.21398 5.48834 0
M  V30 19206 H 1763.05 0.573316 2.04516 0
M  V30 19207 H 1765.31 0.195128 0.927701 0
M  V30 19208 H 1765.02 0.134714 3.51442 0
M  V30 19209 H 1764.89 -1.6124 3.41001 0
M  V30 19210 H 1767.28 -1.68735 2.421 0
M  V30 19211 H 1767.36 0.0749719 2.5569 0
M  V30 19212 H 1767 -0.125373 5.07745 0
M  V30 19213 H 1766.93 -1.89782 4.91213 0
M  V30 19214 H 1769.42 -0.977667 3.65034 0
M  V30 19215 H 1769.74 -1.38876 7.60219 0
M  V30 19216 H 1768.08 -1.25579 6.8356 0
M  V30 19217 H 1771.27 -1.12944 4.5427 0
M  V30 19218 H 1771.45 -1.31713 6.34473 0
M  V30 19219 N 1764.85 -1.48386 -0.530967 0
M  V30 19220 C 1766.08 -1.59782 -1.30971 0
M  V30 19221 C 1766.49 -0.25683 -1.87449 0
M  V30 19222 O 1765.83 0.763845 -1.67066 0
M  V30 19223 C 1765.89 -2.58431 -2.49907 0
M  V30 19224 C 1765.56 -4.0352 -2.14524 0
M  V30 19225 C 1766.56 -4.91233 -1.70255 0
M  V30 19226 C 1764.24 -4.4905 -2.25077 0
M  V30 19227 C 1766.23 -6.22502 -1.37003 0
M  V30 19228 C 1763.92 -5.8034 -1.91437 0
M  V30 19229 C 1764.92 -6.66889 -1.47471 0
M  V30 19230 O 1764.61 -7.95737 -1.14272 0
M  V30 19231 H 1764.34 -0.541558 -0.404588 0
M  V30 19232 H 1766.89 -1.94932 -0.647349 0
M  V30 19233 H 1765.12 -2.184 -3.19121 0
M  V30 19234 H 1766.81 -2.59672 -3.1197 0
M  V30 19235 H 1767.58 -4.57296 -1.61572 0
M  V30 19236 H 1763.46 -3.81872 -2.58254 0
M  V30 19237 H 1767 -6.90012 -1.02613 0
M  V30 19238 H 1762.9 -6.13813 -1.9976 0
M  V30 19239 H 1763.67 -8.0848 -1.27679 0
M  V30 19240 N 1766.33 0.779763 -1.36958 0
M  V30 19241 C 1767.26 1.89973 -1.26434 0
M  V30 19242 C 1768.24 1.61939 -0.146502 0
M  V30 19243 O 1769.42 1.85776 -0.319321 0
M  V30 19244 C 1766.55 3.25016 -0.953002 0
M  V30 19245 C 1765.6 3.71971 -2.08662 0
M  V30 19246 S 1766.43 3.86589 -3.70553 0
M  V30 19247 C 1767.59 5.24493 -3.41552 0
M  V30 19248 H 1767.82 1.98609 -2.21228 0
M  V30 19249 H 1765.35 0.940021 -1.22487 0
M  V30 19250 H 1767.31 4.03018 -0.780191 0
M  V30 19251 H 1765.97 3.14092 -0.0226841 0
M  V30 19252 H 1765.16 4.69853 -1.82358 0
M  V30 19253 H 1764.77 3.01048 -2.21915 0
M  V30 19254 H 1767.06 6.09397 -2.96044 0
M  V30 19255 H 1768 5.55805 -4.38733 0
M  V30 19256 H 1768.41 4.92051 -2.7667 0
M  V30 19257 N 1767.81 1.21396 1.00503 0
M  V30 19258 C 1768.76 0.97023 2.11398 0
M  V30 19259 C 1769.75 -0.0825019 1.69199 0
M  V30 19260 O 1770.96 0.0688841 1.79868 0
M  V30 19261 H 1767.33 0.296494 0.691083 0
M  V30 19262 H 1769.3 1.91155 2.29134 0
M  V30 19263 C 1768.05 0.551472 3.43299 0
M  V30 19264 H 1767.37 1.35316 3.76204 0
M  V30 19265 H 1768.81 0.420249 4.21912 0
M  V30 19266 C 1767.27 -0.737588 3.28727 0
M  V30 19267 O 1767.8 -1.79313 3.59458 0
M  V30 19268 N 1766.01 -0.704084 2.81942 0
M  V30 19269 H 1765.56 0.155183 2.57132 0
M  V30 19270 H 1765.51 -1.56689 2.72573 0
M  V30 19271 N 1769.29 -1.19996 1.0217 0
M  V30 19272 C 1770.7 -1.71202 0.744777 0
M  V30 19273 C 1771.05 -1.81862 -0.736238 0
M  V30 19274 O 1770.17 -1.48475 -1.5743 0
M  V30 19275 C 1770.77 -3.10945 1.34531 0
M  V30 19276 C 1769.33 -3.5944 1.11714 0
M  V30 19277 C 1768.47 -2.36501 1.44784 0
M  V30 19278 H 1771.42 -1.04938 1.19054 0
M  V30 19279 H 1771.45 -3.73264 0.738531 0
M  V30 19280 H 1770.96 -3.03154 2.42321 0
M  V30 19281 H 1769.06 -3.72556 0.0571346 0
M  V30 19282 H 1769.17 -4.43969 1.80079 0
M  V30 19283 H 1767.54 -2.3949 0.866981 0
M  V30 19284 H 1768.32 -2.31347 2.53641 0
M  V30 19285 N 1770.76 -0.798611 -1.35867 0
M  V30 19286 C 1771.73 -0.209177 -2.28243 0
M  V30 19287 C 1772.73 0.598842 -1.49233 0
M  V30 19288 O 1773.92 0.418491 -1.69098 0
M  V30 19289 C 1771.05 0.709336 -3.33438 0
M  V30 19290 H 1772.24 -1.02382 -2.81883 0
M  V30 19291 H 1769.79 -0.568687 -1.45587 0
M  V30 19292 H 1770.53 1.54797 -2.84971 0
M  V30 19293 H 1770.31 0.131756 -3.91879 0
M  V30 19294 H 1771.8 1.11632 -4.02403 0
M  V30 19295 N 1772.24 1.47639 -0.551417 0
M  V30 19296 C 1773.49 2.01687 -0.0230887 0
M  V30 19297 C 1773.8 1.43178 1.33265 0
M  V30 19298 O 1775.01 1.88853 1.95056 0
M  V30 19299 C 1773.47 3.59899 0.00918719 0
M  V30 19300 C 1773.07 4.27398 -1.34295 0
M  V30 19301 C 1774.82 4.21718 0.485213 0
M  V30 19302 C 1772.72 5.77601 -1.2701 0
M  V30 19303 H 1771.65 0.753984 -0.00486122 0
M  V30 19304 H 1774.31 1.6969 -0.698405 0
M  V30 19305 H 1772.69 3.88832 0.75003 0
M  V30 19306 H 1773.86 4.10113 -2.10105 0
M  V30 19307 H 1772.18 3.77542 -1.75644 0
M  V30 19308 H 1774.77 5.3178 0.558025 0
M  V30 19309 H 1775.12 3.88495 1.4959 0
M  V30 19310 H 1775.65 3.97294 -0.200594 0
M  V30 19311 H 1772.39 6.15433 -2.2566 0
M  V30 19312 H 1771.91 5.97239 -0.553709 0
M  V30 19313 H 1773.59 6.39692 -0.969726 0
M  V30 19314 N 1773.72 0.287581 1.54954 0
M  V30 19315 C 1774.97 -0.326093 2.00161 0
M  V30 19316 C 1775.3 -1.54564 1.17574 0
M  V30 19317 O 1774.57 -1.92901 0.248859 0
M  V30 19318 C 1774.86 -0.695974 3.5331 0
M  V30 19319 C 1774.71 0.531783 4.46645 0
M  V30 19320 C 1776.03 -1.52767 4.12735 0
M  V30 19321 H 1773.15 -0.117051 0.727646 0
M  V30 19322 H 1775.79 0.39701 1.85806 0
M  V30 19323 H 1773.94 -1.31205 3.65674 0
M  V30 19324 H 1775.61 1.17032 4.46208 0
M  V30 19325 H 1773.86 1.16754 4.17793 0
M  V30 19326 H 1774.53 0.229034 5.51525 0
M  V30 19327 H 1777 -1.00724 4.03725 0
M  V30 19328 H 1775.88 -1.75527 5.20078 0
M  V30 19329 H 1776.14 -2.51267 3.63755 0
M  V30 19330 N 1775.2 -1.57593 0.0150662 0
M  V30 19331 C 1776.16 -2.08293 -0.956385 0
M  V30 19332 C 1777.16 -0.99521 -1.26302 0
M  V30 19333 O 1778.35 -1.25732 -1.2057 0
M  V30 19334 C 1775.48 -2.53702 -2.27701 0
M  V30 19335 H 1776.68 -2.95401 -0.517543 0
M  V30 19336 H 1774.23 -1.54558 -0.232706 0
M  V30 19337 H 1774.96 -1.69882 -2.76244 0
M  V30 19338 H 1774.75 -3.33155 -2.06761 0
M  V30 19339 H 1776.24 -2.93201 -2.9736 0
M  V30 19340 N 1776.68 0.257904 -1.55475 0
M  V30 19341 C 1778.09 0.82782 -1.67344 0
M  V30 19342 C 1778.44 1.8646 -0.610494 0
M  V30 19343 O 1777.56 2.15005 0.245275 0
M  V30 19344 C 1778.16 1.5083 -3.03374 0
M  V30 19345 C 1776.72 2.02605 -3.17219 0
M  V30 19346 C 1775.86 0.873303 -2.63189 0
M  V30 19347 H 1778.82 0.0339334 -1.58664 0
M  V30 19348 H 1778.84 2.3759 -2.97205 0
M  V30 19349 H 1778.35 0.753469 -3.80716 0
M  V30 19350 H 1776.45 2.81002 -2.4468 0
M  V30 19351 H 1776.56 2.23099 -4.23985 0
M  V30 19352 H 1774.93 1.27082 -2.20731 0
M  V30 19353 H 1775.71 0.131739 -3.43047 0
M  V30 19354 N 1778.15 1.48666 0.52309 0
M  V30 19355 C 1779.43 1.47526 1.28435 0
M  V30 19356 C 1779.81 0.190719 2.10237 0
M  V30 19357 O 1779.16 -0.827423 2.12993 0
M  V30 19358 C 1779.37 2.74132 2.15992 0
M  V30 19359 C 1780.72 3.22739 2.75907 0
M  V30 19360 O 1781.74 2.75097 2.26275 0
M  V30 19361 O 1780.6 4.05657 3.66203 0
M  V30 19362 H 1777.69 0.589478 0.580039 0
M  V30 19363 H 1780.24 1.60907 0.539176 0
M  V30 19364 H 1779.01 3.5913 1.55375 0
M  V30 19365 H 1778.64 2.63505 2.97743 0
M  V30 19366 N 1779.63 -0.772489 1.37369 0
M  V30 19367 C 1780.6 -1.86737 1.32898 0
M  V30 19368 C 1781.6 -1.591 0.23318 0
M  V30 19369 O 1782.79 -1.67196 0.488983 0
M  V30 19370 C 1779.92 -3.23859 1.06435 0
M  V30 19371 H 1781.11 -1.92114 2.30287 0
M  V30 19372 H 1778.66 -0.972158 1.22388 0
M  V30 19373 H 1779.4 -3.24159 0.0957365 0
M  V30 19374 H 1779.18 -3.4531 1.85751 0
M  V30 19375 H 1780.67 -4.03935 1.05954 0
M  V30 19376 N 1781.11 -1.21927 -0.998575 0
M  V30 19377 C 1782.36 -1.0404 -1.7373 0
M  V30 19378 C 1782.69 0.425251 -1.89794 0
M  V30 19379 O 1781.94 1.3317 -1.43402 0
M  V30 19380 C 1782.24 -1.69015 -3.1491 0
M  V30 19381 C 1781.91 -3.18893 -3.18776 0
M  V30 19382 C 1780.57 -3.5979 -3.19538 0
M  V30 19383 C 1782.92 -4.14851 -3.15512 0
M  V30 19384 C 1780.25 -4.95138 -3.1473 0
M  V30 19385 C 1782.6 -5.50168 -3.12246 0
M  V30 19386 C 1781.26 -5.90454 -3.11321 0
M  V30 19387 H 1780.53 -0.380709 -0.635721 0
M  V30 19388 H 1783.18 -1.5161 -1.1699 0
M  V30 19389 H 1781.49 -1.13755 -3.74923 0
M  V30 19390 H 1783.18 -1.52671 -3.708 0
M  V30 19391 H 1779.77 -2.86325 -3.18929 0
M  V30 19392 H 1783.96 -3.84277 -3.14078 0
M  V30 19393 H 1779.21 -5.25589 -3.12356 0
M  V30 19394 H 1783.39 -6.24254 -3.08675 0
M  V30 19395 H 1781.01 -6.95299 -3.0735 0
M  V30 19396 N 1782.59 1.19452 -1.02805 0
M  V30 19397 C 1783.87 1.84878 -0.638707 0
M  V30 19398 C 1784.25 1.91763 0.882627 0
M  V30 19399 O 1783.59 1.43401 1.779 0
M  V30 19400 C 1783.8 3.23891 -1.29982 0
M  V30 19401 C 1785.15 4.00061 -1.42254 0
M  V30 19402 O 1786.18 3.33286 -1.25693 0
M  V30 19403 O 1785.03 5.19671 -1.69127 0
M  V30 19404 H 1782.13 0.796676 -0.221892 0
M  V30 19405 H 1784.67 1.26949 -1.12615 0
M  V30 19406 H 1783.45 3.13711 -2.33883 0
M  V30 19407 H 1783.07 3.89465 -0.800186 0
M  V30 19408 N 1784.07 0.805805 1.35442 0
M  V30 19409 C 1785.32 0.382303 1.98044 0
M  V30 19410 C 1785.63 -1.05602 1.64644 0
M  V30 19411 O 1786.83 -1.5826 2.20604 0
M  V30 19412 C 1785.29 0.632619 3.54296 0
M  V30 19413 C 1784.9 2.08344 3.96607 0
M  V30 19414 C 1786.64 0.274435 4.23612 0
M  V30 19415 C 1784.55 2.27954 5.45702 0
M  V30 19416 H 1783.48 0.13921 0.741037 0
M  V30 19417 H 1786.13 0.989752 1.54519 0
M  V30 19418 H 1784.51 -0.0447699 3.95975 0
M  V30 19419 H 1785.69 2.79857 3.66083 0
M  V30 19420 H 1784 2.40142 3.40178 0
M  V30 19421 H 1786.6 0.399019 5.33209 0
M  V30 19422 H 1786.94 -0.779292 4.08941 0
M  V30 19423 H 1787.47 0.90571 3.87352 0
M  V30 19424 H 1784.21 3.3177 5.6534 0
M  V30 19425 H 1783.73 1.60965 5.77798 0
M  V30 19426 H 1785.41 2.09469 6.12153 0
M  V30 19427 N 1785.54 -1.47344 0.559239 0
M  V30 19428 C 1786.79 -2.01672 0.0337843 0
M  V30 19429 C 1787.11 -1.43883 -1.32503 0
M  V30 19430 O 1788.31 -1.89885 -1.94051 0
M  V30 19431 C 1786.77 -3.59899 0.00989925 0
M  V30 19432 C 1786.38 -4.2668 1.3656 0
M  V30 19433 C 1788.12 -4.21969 -0.462842 0
M  V30 19434 C 1786.03 -5.76919 1.30071 0
M  V30 19435 H 1784.96 -0.753948 0.00885972 0
M  V30 19436 H 1787.61 -1.69317 0.707394 0
M  V30 19437 H 1785.99 -3.89225 -0.729399 0
M  V30 19438 H 1787.16 -4.08993 2.12277 0
M  V30 19439 H 1785.48 -3.76605 1.77644 0
M  V30 19440 H 1788.08 -5.32069 -0.529816 0
M  V30 19441 H 1788.42 -3.89283 -1.47528 0
M  V30 19442 H 1788.95 -3.97182 0.221661 0
M  V30 19443 H 1785.69 -6.14227 2.28921 0
M  V30 19444 H 1785.21 -5.96937 0.585375 0
M  V30 19445 H 1786.89 -6.39168 1.00364 0
M  V30 19446 N 1787.02 -0.295795 -1.54799 0
M  V30 19447 C 1788.3 0.367858 -1.9211 0
M  V30 19448 C 1788.68 1.72103 -1.22244 0
M  V30 19449 O 1788.03 2.25704 -0.356377 0
M  V30 19450 C 1788.24 0.487673 -3.45576 0
M  V30 19451 C 1789.59 0.760966 -4.17725 0
M  V30 19452 O 1790.61 0.571687 -3.51582 0
M  V30 19453 O 1789.47 1.12423 -5.34812 0
M  V30 19454 H 1786.56 0.204758 -0.801251 0
M  V30 19455 H 1789.11 -0.343471 -1.66188 0
M  V30 19456 H 1787.88 -0.463798 -3.88542 0
M  V30 19457 H 1787.5 1.24767 -3.77517 0
M  V30 19458 N 1788.5 1.57583 -0.0234236 0
M  V30 19459 C 1789.43 2.12907 0.958804 0
M  V30 19460 C 1790.41 1.0438 1.34309 0
M  V30 19461 O 1791.6 1.32184 1.42271 0
M  V30 19462 C 1788.73 2.65151 2.24304 0
M  V30 19463 C 1787.68 3.78414 1.99967 0
M  V30 19464 C 1787.01 4.17064 3.34607 0
M  V30 19465 C 1788.31 5.04727 1.34342 0
M  V30 19466 H 1790 2.95228 0.498081 0
M  V30 19467 H 1787.55 1.42017 0.238138 0
M  V30 19468 H 1789.5 3.02487 2.93393 0
M  V30 19469 H 1788.22 1.79983 2.72532 0
M  V30 19470 H 1786.88 3.41507 1.33298 0
M  V30 19471 H 1786.53 3.28886 3.80583 0
M  V30 19472 H 1786.23 4.93385 3.19132 0
M  V30 19473 H 1787.76 4.56978 4.04973 0
M  V30 19474 H 1789.17 5.39686 1.93422 0
M  V30 19475 H 1787.57 5.86009 1.29282 0
M  V30 19476 H 1788.64 4.83872 0.315625 0
M  V30 19477 N 1789.98 -0.249655 1.5561 0
M  V30 19478 C 1791.2 -0.999931 1.81703 0
M  V30 19479 C 1791.63 -1.7827 0.600113 0
M  V30 19480 O 1790.99 -1.75606 -0.450799 0
M  V30 19481 C 1791.04 -1.9157 3.05505 0
M  V30 19482 O 1790.14 -3.00702 2.82227 0
M  V30 19483 H 1789.48 -0.284673 0.599881 0
M  V30 19484 H 1792.01 -0.27148 2.02791 0
M  V30 19485 H 1792.02 -2.33088 3.34864 0
M  V30 19486 H 1790.7 -1.34014 3.93717 0
M  V30 19487 H 1789.27 -2.63332 2.64027 0
M  V30 19488 N 1791.46 -1.48941 -0.515198 0
M  V30 19489 C 1792.42 -1.64062 -1.60051 0
M  V30 19490 C 1793.42 -0.513101 -1.52394 0
M  V30 19491 O 1794.61 -0.77924 -1.558 0
M  V30 19492 C 1791.74 -1.6247 -2.99694 0
M  V30 19493 H 1792.94 -2.60849 -1.47978 0
M  V30 19494 H 1790.49 -1.37759 -0.738378 0
M  V30 19495 H 1791.22 -0.672141 -3.17258 0
M  V30 19496 H 1791.01 -2.4434 -3.0666 0
M  V30 19497 H 1792.5 -1.76273 -3.78573 0
M  V30 19498 N 1792.94 0.765193 -1.37777 0
M  V30 19499 C 1794.18 1.52096 -1.33084 0
M  V30 19500 C 1794.5 1.94827 0.08221 0
M  V30 19501 O 1793.77 1.66787 1.02757 0
M  V30 19502 H 1792.35 0.564139 -0.489649 0
M  V30 19503 H 1795.02 0.910308 -1.72335 0
M  V30 19504 H 1794.11 2.4173 -1.97416 0
M  V30 19505 N 1794.41 1.22455 0.992094 0
M  V30 19506 C 1795.66 1.04752 1.72833 0
M  V30 19507 C 1795.98 -0.418152 1.90464 0
M  V30 19508 O 1795.25 -1.30072 1.46486 0
M  V30 19509 H 1793.83 0.384626 0.640368 0
M  V30 19510 H 1796.49 1.5398 1.19483 0
M  V30 19511 H 1795.59 1.52601 2.72249 0
M  V30 19512 N 1795.89 -1.18905 1.03437 0
M  V30 19513 C 1796.82 -2.21792 0.578016 0
M  V30 19514 C 1797.84 -1.59015 -0.349014 0
M  V30 19515 O 1799.03 -1.77914 -0.144532 0
M  V30 19516 C 1796.13 -3.38441 -0.176348 0
M  V30 19517 C 1795.3 -4.308 0.756988 0
M  V30 19518 C 1794.36 -5.26179 0.0470478 0
M  V30 19519 O 1793.38 -5.65179 0.675418 0
M  V30 19520 N 1794.59 -5.67497 -1.2218 0
M  V30 19521 H 1797.35 -2.6157 1.46291 0
M  V30 19522 H 1794.91 -1.33627 0.914078 0
M  V30 19523 H 1796.9 -3.99266 -0.660972 0
M  V30 19524 H 1795.47 -2.97406 -0.962715 0
M  V30 19525 H 1794.69 -3.67674 1.4216 0
M  V30 19526 H 1795.98 -4.89413 1.39113 0
M  V30 19527 H 1795.38 -5.37855 -1.75295 0
M  V30 19528 H 1793.94 -6.30548 -1.65081 0
M  V30 19529 N 1797.37 -0.812977 -1.35013 0
M  V30 19530 C 1798.3 -0.242397 -2.32238 0
M  V30 19531 C 1799.28 0.635676 -1.57776 0
M  V30 19532 O 1800.47 0.564621 -1.85811 0
M  V30 19533 C 1797.6 0.604686 -3.41995 0
M  V30 19534 C 1796.55 -0.17542 -4.2764 0
M  V30 19535 C 1795.88 0.793772 -5.28775 0
M  V30 19536 C 1797.18 -1.37802 -5.03794 0
M  V30 19537 H 1798.87 -1.0547 -2.80208 0
M  V30 19538 H 1796.42 -0.508619 -1.34718 0
M  V30 19539 H 1798.37 1.01396 -4.09019 0
M  V30 19540 H 1797.09 1.44994 -2.9265 0
M  V30 19541 H 1795.75 -0.565948 -3.62205 0
M  V30 19542 H 1795.4 1.63471 -4.75696 0
M  V30 19543 H 1795.1 0.276085 -5.86951 0
M  V30 19544 H 1796.62 1.20112 -5.9867 0
M  V30 19545 H 1798.04 -1.04328 -5.63727 0
M  V30 19546 H 1796.43 -1.83064 -5.71496 0
M  V30 19547 H 1797.5 -2.16138 -4.34065 0
M  V30 19548 N 1798.85 1.47045 -0.567045 0
M  V30 19549 C 1800.08 2.06835 -0.0518309 0
M  V30 19550 C 1800.49 1.41823 1.24626 0
M  V30 19551 O 1799.85 0.518102 1.74991 0
M  V30 19552 C 1799.9 3.6124 0.137142 0
M  V30 19553 O 1799.62 4.23817 -1.10955 0
M  V30 19554 C 1801.12 4.37921 0.688511 0
M  V30 19555 H 1798.34 0.669111 -0.0503138 0
M  V30 19556 H 1800.88 1.88906 -0.783258 0
M  V30 19557 H 1799.04 3.7865 0.818733 0
M  V30 19558 H 1799.45 5.16484 -0.913475 0
M  V30 19559 H 1800.93 5.46603 0.769984 0
M  V30 19560 H 1801.4 4.0488 1.70201 0
M  V30 19561 H 1802.01 4.25279 0.0423004 0
M  V30 19562 N 1800.33 0.304 1.5464 0
M  V30 19563 C 1801.55 -0.306916 2.04611 0
M  V30 19564 C 1801.97 -1.4729 1.18114 0
M  V30 19565 O 1801.33 -1.81317 0.20743 0
M  V30 19566 C 1801.38 -0.760263 3.53415 0
M  V30 19567 O 1801.1 0.359321 4.36624 0
M  V30 19568 C 1802.6 -1.43602 4.19396 0
M  V30 19569 H 1799.82 -0.066247 0.667722 0
M  V30 19570 H 1802.36 0.444504 1.99611 0
M  V30 19571 H 1800.52 -1.4617 3.58766 0
M  V30 19572 H 1800.93 0.00582275 5.245 0
M  V30 19573 H 1802.41 -1.70436 5.25029 0
M  V30 19574 H 1802.88 -2.37705 3.69314 0
M  V30 19575 H 1803.49 -0.777683 4.18129 0
M  V30 19576 N 1801.8 -1.57568 0.0317802 0
M  V30 19577 C 1803.08 -1.8321 -0.685081 0
M  V30 19578 C 1803.46 -0.91624 -1.9018 0
M  V30 19579 O 1802.81 0.0275043 -2.28483 0
M  V30 19580 C 1803.02 -3.32488 -1.06078 0
M  V30 19581 C 1804.37 -3.99027 -1.45129 0
M  V30 19582 O 1805.39 -3.36999 -1.15368 0
M  V30 19583 O 1804.25 -5.08355 -2.00592 0
M  V30 19584 H 1801.34 -0.755517 -0.336337 0
M  V30 19585 H 1803.89 -1.69595 0.0596652 0
M  V30 19586 H 1802.66 -3.90814 -0.194918 0
M  V30 19587 H 1802.28 -3.5122 -1.8636 0
M  V30 19588 N 1803.28 0.241399 -1.5574 0
M  V30 19589 C 1804.21 1.32197 -1.87234 0
M  V30 19590 C 1805.23 1.44024 -0.759015 0
M  V30 19591 O 1806.42 1.45275 -1.03718 0
M  V30 19592 C 1803.52 2.69994 -2.04833 0
M  V30 19593 C 1802.69 2.80366 -3.35729 0
M  V30 19594 C 1801.75 3.99043 -3.43003 0
M  V30 19595 O 1800.77 3.88312 -4.16176 0
M  V30 19596 N 1801.98 5.12462 -2.72696 0
M  V30 19597 H 1804.74 1.05514 -2.80512 0
M  V30 19598 H 1802.3 0.431491 -1.56044 0
M  V30 19599 H 1804.29 3.47733 -2.07035 0
M  V30 19600 H 1802.86 2.89361 -1.18274 0
M  V30 19601 H 1802.08 1.89258 -3.45796 0
M  V30 19602 H 1803.37 2.8425 -4.21995 0
M  V30 19603 H 1802.77 5.24073 -2.12988 0
M  V30 19604 H 1801.33 5.88316 -2.80584 0
M  V30 19605 N 1804.76 1.49212 0.507292 0
M  V30 19606 C 1806.18 1.35835 0.837908 0
M  V30 19607 C 1806.38 0.386634 1.97756 0
M  V30 19608 O 1805.43 -0.183971 2.51829 0
M  V30 19609 C 1806.75 2.76407 1.18404 0
M  V30 19610 C 1808.29 2.85062 1.29262 0
M  V30 19611 C 1808.77 4.26387 1.67208 0
M  V30 19612 N 1810.26 4.29168 1.74268 0
M  V30 19613 C 1810.99 5.35479 2.05061 0
M  V30 19614 N 1810.49 6.52042 2.34121 0
M  V30 19615 N 1812.28 5.2289 2.06259 0
M  V30 19616 H 1804.43 2.1099 -0.244311 0
M  V30 19617 H 1806.7 0.946849 -0.0466977 0
M  V30 19618 H 1806.4 3.49183 0.420053 0
M  V30 19619 H 1806.28 3.11376 2.12896 0
M  V30 19620 H 1808.66 2.12528 2.04734 0
M  V30 19621 H 1808.75 2.53684 0.328359 0
M  V30 19622 H 1808.39 4.99445 0.922884 0
M  V30 19623 H 1808.32 4.55225 2.64723 0
M  V30 19624 H 1810.81 3.45099 1.53996 0
M  V30 19625 H 1811.12 7.2889 2.56787 0
M  V30 19626 H 1809.47 6.55279 2.31591 0
M  V30 19627 H 1812.66 4.30834 1.83028 0
M  V30 19628 H 1812.83 6.05838 2.29923 0
M  V30 19629 N 1806.24 -0.757876 1.38181 0
M  V30 19630 C 1807.65 -1.06035 1.19284 0
M  V30 19631 C 1807.85 -2.01463 0.0385482 0
M  V30 19632 O 1806.91 -2.44845 -0.61703 0
M  V30 19633 C 1808.22 -1.64455 2.51744 0
M  V30 19634 C 1809.77 -1.76646 2.58389 0
M  V30 19635 C 1810.25 -2.38478 3.91014 0
M  V30 19636 N 1811.74 -2.45914 3.92531 0
M  V30 19637 C 1812.47 -2.94641 4.91909 0
M  V30 19638 N 1811.97 -3.43435 6.01684 0
M  V30 19639 N 1813.76 -2.93642 4.79303 0
M  V30 19640 H 1805.91 -0.124532 2.12035 0
M  V30 19641 H 1808.18 -0.117876 0.940643 0
M  V30 19642 H 1807.88 -1.01804 3.36644 0
M  V30 19643 H 1807.76 -2.63573 2.69832 0
M  V30 19644 H 1810.14 -2.38426 1.73888 0
M  V30 19645 H 1810.22 -0.762449 2.44173 0
M  V30 19646 H 1809.87 -1.77334 4.75936 0
M  V30 19647 H 1809.8 -3.39513 4.0254 0
M  V30 19648 H 1812.29 -2.11398 3.1324 0
M  V30 19649 H 1812.6 -3.79059 6.73449 0
M  V30 19650 H 1810.95 -3.41504 6.0531 0
M  V30 19651 H 1814.14 -2.5483 3.92657 0
M  V30 19652 H 1814.31 -3.31304 5.56903 0
M  V30 19653 N 1807.72 -1.22979 -0.985586 0
M  V30 19654 C 1808.66 -1.00374 -2.09828 0
M  V30 19655 C 1809.66 0.0555734 -1.69309 0
M  V30 19656 O 1810.86 -0.0974909 -1.79736 0
M  V30 19657 H 1807.24 -0.307451 -0.686278 0
M  V30 19658 H 1809.21 -1.94776 -2.26064 0
M  V30 19659 C 1807.96 -0.606018 -3.42378 0
M  V30 19660 H 1807.28 -1.41284 -3.74004 0
M  V30 19661 H 1808.72 -0.487318 -4.2119 0
M  V30 19662 C 1807.18 0.685197 -3.29859 0
M  V30 19663 O 1807.71 1.73572 -3.62265 0
M  V30 19664 N 1805.92 0.65914 -2.83026 0
M  V30 19665 H 1805.46 -0.196071 -2.56853 0
M  V30 19666 H 1805.42 1.52332 -2.75031 0
M  V30 19667 N 1809.19 1.18355 -1.04066 0
M  V30 19668 C 1810.12 2.24196 -0.652568 0
M  V30 19669 C 1811.11 1.66581 0.344195 0
M  V30 19670 O 1812.29 1.929 0.224296 0
M  V30 19671 C 1809.42 3.47297 -0.0147409 0
M  V30 19672 C 1808.37 4.17661 -0.935044 0
M  V30 19673 C 1807.7 5.34455 -0.161692 0
M  V30 19674 C 1809 4.71153 -2.25415 0
M  V30 19675 H 1810.69 2.56914 -1.53738 0
M  V30 19676 H 1808.24 1.23492 -0.740658 0
M  V30 19677 H 1810.19 4.20544 0.268484 0
M  V30 19678 H 1808.92 3.13812 0.904949 0
M  V30 19679 H 1807.58 3.46312 -1.20265 0
M  V30 19680 H 1807.22 4.97219 0.760404 0
M  V30 19681 H 1806.92 5.82469 -0.774805 0
M  V30 19682 H 1808.45 6.10493 0.114515 0
M  V30 19683 H 1809.86 5.36095 -2.03163 0
M  V30 19684 H 1808.26 5.29701 -2.82022 0
M  V30 19685 H 1809.33 3.88576 -2.90064 0
M  V30 19686 N 1810.67 0.820125 1.3458 0
M  V30 19687 C 1811.92 0.406067 1.97979 0
M  V30 19688 C 1812.24 -1.03366 1.65349 0
M  V30 19689 O 1811.51 -1.71721 0.942798 0
M  V30 19690 H 1810.09 0.147162 0.732361 0
M  V30 19691 H 1812.75 1.04895 1.64265 0
M  V30 19692 H 1811.85 0.52279 3.0769 0
M  V30 19693 N 1812.15 -1.46743 0.574835 0
M  V30 19694 C 1813.38 -2.07311 0.0608779 0
M  V30 19695 C 1813.8 -1.422 -1.23129 0
M  V30 19696 O 1813.16 -0.503042 -1.74181 0
M  V30 19697 C 1813.21 -3.60462 -0.0996676 0
M  V30 19698 O 1812.31 -3.95806 -1.15808 0
M  V30 19699 H 1811.65 -0.661351 0.0592542 0
M  V30 19700 H 1814.18 -1.885 0.795538 0
M  V30 19701 H 1814.19 -4.06833 -0.308329 0
M  V30 19702 H 1812.87 -4.07246 0.844018 0
M  V30 19703 H 1811.44 -3.61155 -0.928504 0
M  V30 19704 N 1813.63 -0.312197 -1.54477 0
M  V30 19705 C 1814.88 0.294607 -1.99537 0
M  V30 19706 C 1815.19 1.54137 -1.20421 0
M  V30 19707 O 1816.4 2.22346 -1.55803 0
M  V30 19708 C 1814.85 0.57547 -3.55269 0
M  V30 19709 C 1814.46 -0.653591 -4.43207 0
M  V30 19710 C 1816.2 1.14285 -4.08827 0
M  V30 19711 C 1814.11 -0.345261 -5.90391 0
M  V30 19712 H 1813.04 0.113859 -0.745354 0
M  V30 19713 H 1815.69 -0.42265 -1.78566 0
M  V30 19714 H 1814.07 1.35262 -3.72183 0
M  V30 19715 H 1815.25 -1.42945 -4.38068 0
M  V30 19716 H 1813.56 -1.14039 -4.0048 0
M  V30 19717 H 1816.16 1.38797 -5.16371 0
M  V30 19718 H 1816.5 2.08866 -3.60112 0
M  V30 19719 H 1817.04 0.427154 -3.955 0
M  V30 19720 H 1813.78 -1.25994 -6.43277 0
M  V30 19721 H 1813.3 0.393106 -5.9851 0
M  V30 19722 H 1814.97 0.0490847 -6.46981 0
M  V30 19723 N 1815.11 1.57549 -0.040136 0
M  V30 19724 C 1816.07 2.09788 0.923126 0
M  V30 19725 C 1817.07 1.01518 1.24703 0
M  V30 19726 O 1818.26 1.27635 1.18554 0
M  V30 19727 C 1815.39 2.57293 2.23636 0
M  V30 19728 H 1816.58 2.96187 0.470482 0
M  V30 19729 H 1814.14 1.54909 0.208088 0
M  V30 19730 H 1814.87 1.74256 2.73506 0
M  V30 19731 H 1814.66 3.36402 2.01435 0
M  V30 19732 H 1816.15 2.97895 2.92658 0
M  V30 19733 N 1816.58 -0.233136 1.55866 0
M  V30 19734 C 1817.53 -1.28882 1.91463 0
M  V30 19735 C 1818.5 -1.47151 0.770435 0
M  V30 19736 O 1819.69 -1.6091 1.02531 0
M  V30 19737 C 1816.83 -2.63653 2.22668 0
M  V30 19738 C 1815.94 -2.53278 3.49963 0
M  V30 19739 C 1815.07 -3.80494 3.70672 0
M  V30 19740 C 1814.11 -3.64794 4.9152 0
M  V30 19741 N 1813.25 -4.83933 5.08678 0
M  V30 19742 H 1818.09 -0.978251 2.81486 0
M  V30 19743 H 1815.63 -0.471757 1.3933 0
M  V30 19744 H 1817.59 -3.42119 2.38769 0
M  V30 19745 H 1816.22 -2.9283 1.35833 0
M  V30 19746 H 1815.27 -1.66308 3.4212 0
M  V30 19747 H 1816.58 -2.37592 4.38579 0
M  V30 19748 H 1815.73 -4.67404 3.86806 0
M  V30 19749 H 1814.47 -3.99092 2.80315 0
M  V30 19750 H 1813.48 -2.76268 4.75348 0
M  V30 19751 H 1814.7 -3.47677 5.8335 0
M  V30 19752 H 1812.65 -5.02866 4.21262 0
M  V30 19753 H 1812.57 -4.7093 5.91406 0
M  V30 19754 H 1813.83 -5.72302 5.29236 0
M  V30 19755 N 1818.06 -1.49479 -0.499372 0
M  V30 19756 C 1819 -1.60874 -1.61848 0
M  V30 19757 C 1819.97 -0.457753 -1.56024 0
M  V30 19758 O 1821.16 -0.673516 -1.76057 0
M  V30 19759 C 1818.29 -1.56518 -3.00366 0
M  V30 19760 C 1817.33 -2.76834 -3.24446 0
M  V30 19761 S 1818.16 -4.38486 -3.07392 0
M  V30 19762 C 1819.32 -4.36779 -4.48303 0
M  V30 19763 H 1819.55 -2.55543 -1.51938 0
M  V30 19764 H 1817.09 -1.3839 -0.68465 0
M  V30 19765 H 1819.04 -1.54691 -3.80238 0
M  V30 19766 H 1817.71 -0.631341 -3.0769 0
M  V30 19767 H 1816.9 -2.70011 -4.2557 0
M  V30 19768 H 1816.5 -2.76082 -2.52299 0
M  V30 19769 H 1818.79 -4.08599 -5.4042 0
M  V30 19770 H 1819.74 -5.38186 -4.60175 0
M  V30 19771 H 1820.14 -3.66837 -4.29058 0
M  V30 19772 N 1819.54 0.750537 -1.38581 0
M  V30 19773 C 1820.47 1.87785 -1.38777 0
M  V30 19774 C 1821.45 1.68204 -0.253244 0
M  V30 19775 O 1822.64 1.88752 -0.456779 0
M  V30 19776 C 1819.77 3.2535 -1.21511 0
M  V30 19777 C 1818.72 3.59538 -2.32199 0
M  V30 19778 C 1818.05 4.95873 -2.00036 0
M  V30 19779 C 1819.35 3.64102 -3.74469 0
M  V30 19780 H 1821.04 1.87879 -2.33113 0
M  V30 19781 H 1818.59 0.902504 -1.12209 0
M  V30 19782 H 1820.54 4.03872 -1.20272 0
M  V30 19783 H 1819.26 3.25744 -0.236366 0
M  V30 19784 H 1817.92 2.83336 -2.32629 0
M  V30 19785 H 1817.57 4.9283 -1.00638 0
M  V30 19786 H 1817.27 5.19716 -2.7417 0
M  V30 19787 H 1818.8 5.7677 -2.00421 0
M  V30 19788 H 1820.21 4.32731 -3.76054 0
M  V30 19789 H 1818.61 3.99455 -4.47834 0
M  V30 19790 H 1819.68 2.64259 -4.06565 0
M  V30 19791 N 1821.02 1.235 0.979051 0
M  V30 19792 C 1821.95 0.975198 2.07419 0
M  V30 19793 C 1822.96 -0.0512875 1.62719 0
M  V30 19794 O 1824.15 0.184403 1.77545 0
M  V30 19795 C 1821.25 0.447701 3.3593 0
M  V30 19796 C 1820.43 1.53467 4.09593 0
M  V30 19797 C 1819.49 1.01181 5.16381 0
M  V30 19798 O 1818.51 1.70108 5.43187 0
M  V30 19799 N 1819.71 -0.159667 5.8028 0
M  V30 19800 H 1822.48 1.91806 2.30283 0
M  V30 19801 H 1820.04 1.14377 1.14584 0
M  V30 19802 H 1822.03 0.0829228 4.04615 0
M  V30 19803 H 1820.6 -0.400613 3.10022 0
M  V30 19804 H 1819.82 2.07215 3.35344 0
M  V30 19805 H 1821.11 2.2656 4.55574 0
M  V30 19806 H 1820.51 -0.736193 5.60889 0
M  V30 19807 H 1819.06 -0.465696 6.50134 0
M  V30 19808 N 1822.5 -1.17802 1.04693 0
M  V30 19809 C 1823.45 -2.19584 0.613744 0
M  V30 19810 C 1824.43 -1.57111 -0.34713 0
M  V30 19811 O 1825.62 -1.76228 -0.16517 0
M  V30 19812 C 1822.75 -3.43297 -0.0152847 0
M  V30 19813 C 1821.84 -4.12879 0.969114 0
M  V30 19814 N 1822.23 -4.58364 2.13859 0
M  V30 19815 C 1820.53 -4.3883 0.796487 0
M  V30 19816 C 1821.23 -5.12003 2.76094 0
M  V30 19817 N 1820.2 -5.039 2.03926 0
M  V30 19818 H 1824.01 -2.5245 1.50486 0
M  V30 19819 H 1821.52 -1.34076 0.916373 0
M  V30 19820 H 1823.52 -4.15484 -0.343354 0
M  V30 19821 H 1822.18 -3.11924 -0.901858 0
M  V30 19822 H 1823.19 -4.52613 2.51718 0
M  V30 19823 H 1819.87 -4.17481 -0.0394627 0
M  V30 19824 H 1821.26 -5.57355 3.7524 0
M  V30 19825 N 1823.98 -0.827251 -1.34143 0
M  V30 19826 C 1824.94 -0.257543 -2.27748 0
M  V30 19827 C 1825.94 0.567053 -1.5047 0
M  V30 19828 O 1827.13 0.382529 -1.69948 0
M  V30 19829 C 1824.26 0.638449 -3.34868 0
M  V30 19830 H 1825.45 -1.08338 -2.79648 0
M  V30 19831 H 1823.01 -0.599441 -1.44348 0
M  V30 19832 H 1823.74 1.48717 -2.8819 0
M  V30 19833 H 1823.53 0.0486033 -3.9207 0
M  V30 19834 H 1825.02 1.03071 -4.0468 0
M  V30 19835 N 1825.45 1.46436 -0.582609 0
M  V30 19836 C 1826.42 2.28769 0.140502 0
M  V30 19837 C 1827.42 1.38385 0.818911 0
M  V30 19838 O 1828.61 1.60763 0.670882 0
M  V30 19839 C 1825.74 3.18765 1.20836 0
M  V30 19840 H 1826.93 2.94178 -0.583049 0
M  V30 19841 H 1824.48 1.52544 -0.340575 0
M  V30 19842 H 1825.22 2.58103 1.9635 0
M  V30 19843 H 1825 3.85312 0.726417 0
M  V30 19844 H 1826.49 3.80735 1.71553 0
M  V30 19845 N 1826.93 0.320385 1.54309 0
M  V30 19846 C 1828.16 -0.28794 2.05391 0
M  V30 19847 C 1828.58 -1.45249 1.19517 0
M  V30 19848 O 1827.94 -1.80154 0.203556 0
M  V30 19849 C 1827.99 -0.703261 3.53676 0
M  V30 19850 O 1827.09 -1.80598 3.70753 0
M  V30 19851 H 1826.43 -0.052589 0.661914 0
M  V30 19852 H 1828.96 0.46787 1.99179 0
M  V30 19853 H 1828.97 -0.986793 3.95887 0
M  V30 19854 H 1827.65 0.148514 4.15635 0
M  V30 19855 H 1826.22 -1.5215 3.40448 0
M  V30 19856 N 1828.41 -1.57525 0.0484906 0
M  V30 19857 C 1829.36 -2.12552 -0.944684 0
M  V30 19858 C 1830.35 -1.05668 -1.32403 0
M  V30 19859 O 1831.56 -1.2408 -1.304 0
M  V30 19860 H 1827.93 -0.679336 -0.3225 0
M  V30 19861 H 1829.9 -2.94904 -0.455442 0
M  V30 19862 C 1828.65 -2.68333 -2.21117 0
M  V30 19863 H 1827.98 -3.50237 -1.92806 0
M  V30 19864 H 1829.42 -3.10459 -2.88775 0
M  V30 19865 C 1827.87 -1.61982 -2.95404 0
M  V30 19866 O 1828.4 -1.03102 -3.88243 0
M  V30 19867 N 1826.61 -1.33566 -2.58086 0
M  V30 19868 H 1826.16 -1.81635 -1.82665 0
M  V30 19869 H 1826.12 -0.626371 -3.08097 0
M  V30 19870 N 1829.89 0.224867 -1.55988 0
M  V30 19871 C 1830.83 1.27865 -1.92144 0
M  V30 19872 C 1831.8 1.46741 -0.778228 0
M  V30 19873 O 1832.99 1.60364 -1.03383 0
M  V30 19874 C 1830.13 2.62468 -2.24063 0
M  V30 19875 C 1829.24 2.51419 -3.51301 0
M  V30 19876 C 1828.38 3.78523 -3.72684 0
M  V30 19877 C 1827.42 3.62182 -4.93448 0
M  V30 19878 N 1826.55 4.81228 -5.11237 0
M  V30 19879 H 1831.39 0.96331 -2.82001 0
M  V30 19880 H 1828.93 0.464362 -1.39578 0
M  V30 19881 H 1830.89 3.40848 -2.4058 0
M  V30 19882 H 1829.52 2.92105 -1.37384 0
M  V30 19883 H 1828.57 1.64491 -3.42997 0
M  V30 19884 H 1829.88 2.35263 -4.39833 0
M  V30 19885 H 1829.04 4.65346 -3.89279 0
M  V30 19886 H 1827.78 3.976 -2.82428 0
M  V30 19887 H 1826.78 2.73743 -4.76807 0
M  V30 19888 H 1828.01 3.44579 -5.85186 0
M  V30 19889 H 1825.95 5.00625 -4.23923 0
M  V30 19890 H 1825.87 4.67787 -5.93895 0
M  V30 19891 H 1827.14 5.69487 -5.32264 0
M  V30 19892 N 1831.37 1.49742 0.491438 0
M  V30 19893 C 1832.3 1.6173 1.60993 0
M  V30 19894 C 1833.28 0.466021 1.55779 0
M  V30 19895 O 1834.46 0.682843 1.75697 0
M  V30 19896 C 1831.59 1.58109 2.99532 0
M  V30 19897 C 1830.63 2.78551 3.22973 0
M  V30 19898 S 1831.47 4.4011 3.05063 0
M  V30 19899 C 1832.62 4.3915 4.4598 0
M  V30 19900 H 1832.86 2.56345 1.50581 0
M  V30 19901 H 1830.39 1.38752 0.677301 0
M  V30 19902 H 1832.35 1.56706 3.79412 0
M  V30 19903 H 1831.01 0.64765 3.0735 0
M  V30 19904 H 1830.2 2.72264 4.24133 0
M  V30 19905 H 1829.8 2.77416 2.50831 0
M  V30 19906 H 1832.09 4.11459 5.38245 0
M  V30 19907 H 1833.04 5.40619 4.57315 0
M  V30 19908 H 1833.45 3.69107 4.27107 0
M  V30 19909 N 1832.84 -0.743177 1.38977 0
M  V30 19910 C 1834.09 -1.50256 1.35755 0
M  V30 19911 C 1834.42 -1.94438 -0.0491287 0
M  V30 19912 O 1833.67 -1.66505 -1.02834 0
M  V30 19913 C 1833.97 -2.76157 2.26874 0
M  V30 19914 C 1833.64 -2.50885 3.74657 0
M  V30 19915 C 1832.3 -2.43702 4.14925 0
M  V30 19916 C 1834.65 -2.29075 4.6816 0
M  V30 19917 C 1831.98 -2.12738 5.46772 0
M  V30 19918 C 1834.33 -1.9963 6.00275 0
M  V30 19919 C 1833 -1.9091 6.39617 0
M  V30 19920 H 1832.27 -0.549827 0.496761 0
M  V30 19921 H 1834.91 -0.85369 1.71419 0
M  V30 19922 H 1833.22 -3.45746 1.84301 0
M  V30 19923 H 1834.92 -3.34155 2.21679 0
M  V30 19924 H 1831.51 -2.57351 3.42737 0
M  V30 19925 H 1835.69 -2.33597 4.37888 0
M  V30 19926 H 1830.95 -2.04504 5.76184 0
M  V30 19927 H 1835.12 -1.8176 6.72262 0
M  V30 19928 H 1832.75 -1.66683 7.41701 0
M  V30 19929 N 1834.32 -1.24018 -0.972487 0
M  V30 19930 C 1835.25 -1.0529 -2.08414 0
M  V30 19931 C 1836.23 0.0326663 -1.70069 0
M  V30 19932 O 1837.42 -0.133494 -1.93741 0
M  V30 19933 C 1834.55 -0.651796 -3.41129 0
M  V30 19934 C 1833.5 -1.68559 -3.9341 0
M  V30 19935 C 1832.83 -1.1397 -5.22413 0
M  V30 19936 C 1834.13 -3.08046 -4.21788 0
M  V30 19937 H 1835.82 -1.98272 -2.2434 0
M  V30 19938 H 1833.37 -0.954694 -1.07804 0
M  V30 19939 H 1835.32 -0.507792 -4.18329 0
M  V30 19940 H 1834.05 0.313722 -3.2509 0
M  V30 19941 H 1832.7 -1.81773 -3.18362 0
M  V30 19942 H 1832.35 -0.164928 -5.0273 0
M  V30 19943 H 1832.05 -1.83051 -5.5836 0
M  V30 19944 H 1833.58 -1.00771 -6.02227 0
M  V30 19945 H 1834.99 -2.98088 -4.8971 0
M  V30 19946 H 1833.39 -3.74436 -4.68954 0
M  V30 19947 H 1834.46 -3.56444 -3.28749 0
M  V30 19948 N 1835.8 1.17245 -1.05316 0
M  V30 19949 C 1837.05 1.87165 -0.762471 0
M  V30 19950 C 1837.37 1.8151 0.712687 0
M  V30 19951 O 1836.64 1.2419 1.51504 0
M  V30 19952 H 1835.22 0.69292 -0.279054 0
M  V30 19953 H 1837.88 1.42227 -1.33257 0
M  V30 19954 H 1836.98 2.92872 -1.07854 0
M  V30 19955 N 1837.28 0.834353 1.33702 0
M  V30 19956 C 1838.56 0.350003 1.92443 0
M  V30 19957 C 1838.94 -1.1641 1.76102 0
M  V30 19958 O 1838.28 -1.97646 1.14666 0
M  V30 19959 C 1838.49 0.791928 3.39896 0
M  V30 19960 C 1839.84 0.797338 4.17046 0
M  V30 19961 O 1840.87 0.735242 3.48529 0
M  V30 19962 O 1839.72 0.880963 5.39353 0
M  V30 19963 H 1836.82 0.0981048 0.82116 0
M  V30 19964 H 1839.36 0.919905 1.42604 0
M  V30 19965 H 1838.14 1.83433 3.45641 0
M  V30 19966 H 1837.76 0.198349 3.97105 0
M  V30 19967 N 1838.76 -1.46125 0.590367 0
M  V30 19968 C 1839.7 -2.32108 -0.151168 0
M  V30 19969 C 1840.7 -1.44943 -0.876804 0
M  V30 19970 O 1841.9 -1.61526 -0.794323 0
M  V30 19971 H 1838.28 -0.748954 -0.0676159 0
M  V30 19972 H 1840.25 -2.92454 0.592723 0
M  V30 19973 C 1839 -3.28253 -1.14653 0
M  V30 19974 H 1838.32 -3.95309 -0.597597 0
M  V30 19975 H 1839.76 -3.91181 -1.63564 0
M  V30 19976 C 1838.22 -2.54162 -2.21141 0
M  V30 19977 O 1838.75 -2.31029 -3.28616 0
M  V30 19978 N 1836.96 -2.14592 -1.95956 0
M  V30 19979 H 1836.5 -2.33606 -1.08564 0
M  V30 19980 H 1836.46 -1.65339 -2.67414 0
M  V30 19981 N 1840.23 -0.328564 -1.54137 0
M  V30 19982 C 1841.2 0.52248 -2.23165 0
M  V30 19983 C 1842.2 1.03956 -1.22677 0
M  V30 19984 O 1843.39 0.931193 -1.47222 0
M  V30 19985 C 1840.52 1.72624 -2.93962 0
M  V30 19986 H 1841.71 -0.081023 -2.99791 0
M  V30 19987 H 1839.27 -0.0797096 -1.56097 0
M  V30 19988 H 1840 2.36885 -2.21486 0
M  V30 19989 H 1839.79 1.36283 -3.67654 0
M  V30 19990 H 1841.28 2.33023 -3.4654 0
M  V30 19991 N 1841.71 1.57497 -0.0568439 0
M  V30 19992 C 1842.66 2.08377 0.925369 0
M  V30 19993 C 1843.65 0.990152 1.26826 0
M  V30 19994 O 1844.84 1.25342 1.24973 0
M  V30 19995 C 1841.97 2.6369 2.19824 0
M  V30 19996 C 1841.05 3.8003 1.88249 0
M  V30 19997 N 1841.44 4.89581 1.27059 0
M  V30 19998 C 1839.74 3.89043 2.18087 0
M  V30 19999 C 1840.44 5.70571 1.13241 0
M  V30 20000 N 1839.42 5.1836 1.63718 0
M  V30 20001 H 1843.22 2.9047 0.447693 0
M  V30 20002 H 1840.74 1.61729 0.147457 0
M  V30 20003 H 1842.73 2.98447 2.91093 0
M  V30 20004 H 1841.39 1.83037 2.68193 0
M  V30 20005 H 1842.4 5.09259 0.942087 0
M  V30 20006 H 1839.08 3.19342 2.68937 0
M  V30 20007 H 1840.47 6.68681 0.656898 0
M  V30 20008 N 1843.19 -0.216591 1.56105 0
M  V30 20009 C 1844.12 -1.27155 1.95841 0
M  V30 20010 C 1845.1 -1.48626 0.827313 0
M  V30 20011 O 1846.29 -1.60725 1.09 0
M  V30 20012 C 1843.42 -2.62032 2.27939 0
M  V30 20013 C 1842.37 -2.55211 3.43586 0
M  V30 20014 C 1841.7 -3.94163 3.61303 0
M  V30 20015 C 1843 -2.09566 4.78413 0
M  V30 20016 H 1844.69 -0.941435 2.84214 0
M  V30 20017 H 1842.24 -0.451427 1.36741 0
M  V30 20018 H 1844.19 -3.35997 2.5433 0
M  V30 20019 H 1842.91 -2.96742 1.36426 0
M  V30 20020 H 1841.57 -1.83703 3.17252 0
M  V30 20021 H 1841.22 -4.26188 2.67156 0
M  V30 20022 H 1840.92 -3.90479 4.3909 0
M  V30 20023 H 1842.44 -4.69782 3.90047 0
M  V30 20024 H 1843.86 -2.73277 5.03977 0
M  V30 20025 H 1842.26 -2.16931 5.59518 0
M  V30 20026 H 1843.33 -1.0481 4.73437 0
M  V30 20027 N 1844.67 -1.5 -0.48349 0
M  V30 20028 C 1845.89 -1.64376 -1.26473 0
M  V30 20029 C 1846.32 -0.321912 -1.85325 0
M  V30 20030 O 1845.68 0.712714 -1.66704 0
M  V30 20031 C 1845.72 -2.72803 -2.35819 0
M  V30 20032 O 1844.83 -2.33194 -3.40139 0
M  V30 20033 H 1844.17 -0.549589 -0.372624 0
M  V30 20034 H 1846.7 -1.963 -0.57684 0
M  V30 20035 H 1846.71 -2.95505 -2.8132 0
M  V30 20036 H 1845.38 -3.68745 -1.92353 0
M  V30 20037 H 1843.96 -2.20891 -3.00436 0
M  V30 20038 N 1846.15 0.735796 -1.39369 0
M  V30 20039 C 1847.4 1.49079 -1.35861 0
M  V30 20040 C 1847.71 1.95553 0.0429472 0
M  V30 20041 O 1848.91 2.70758 0.200614 0
M  V30 20042 C 1847.37 2.69375 -2.38674 0
M  V30 20043 C 1846.98 2.29854 -3.8454 0
M  V30 20044 C 1848.72 3.47199 -2.44239 0
M  V30 20045 C 1846.63 3.46868 -4.78996 0
M  V30 20046 H 1845.56 0.559825 -0.505086 0
M  V30 20047 H 1848.21 0.80271 -1.65012 0
M  V30 20048 H 1846.59 3.40253 -2.02592 0
M  V30 20049 H 1847.77 1.66527 -4.29657 0
M  V30 20050 H 1846.08 1.65123 -3.82261 0
M  V30 20051 H 1848.68 4.34234 -3.12002 0
M  V30 20052 H 1849.02 3.89608 -1.46668 0
M  V30 20053 H 1849.55 2.83349 -2.7921 0
M  V30 20054 H 1846.29 3.0951 -5.77827 0
M  V30 20055 H 1845.81 4.09178 -4.38558 0
M  V30 20056 H 1847.49 4.13213 -4.9786 0
M  V30 20057 N 1847.63 1.24532 0.965897 0
M  V30 20058 C 1848.87 1.0801 1.70343 0
M  V30 20059 C 1849.19 -0.380738 1.91859 0
M  V30 20060 O 1850.39 -0.666181 2.632 0
M  V30 20061 C 1848.85 1.88452 3.06617 0
M  V30 20062 C 1848.46 3.38957 2.92937 0
M  V30 20063 C 1850.2 1.80465 3.8423 0
M  V30 20064 C 1848.11 4.11736 4.24532 0
M  V30 20065 H 1847.04 0.400577 0.638791 0
M  V30 20066 H 1849.69 1.48629 1.07618 0
M  V30 20067 H 1848.07 1.40648 3.70181 0
M  V30 20068 H 1849.25 3.94353 2.38374 0
M  V30 20069 H 1847.56 3.47915 2.28788 0
M  V30 20070 H 1850.16 2.32142 4.81679 0
M  V30 20071 H 1850.5 0.770262 4.09112 0
M  V30 20072 H 1851.03 2.25958 3.27395 0
M  V30 20073 H 1847.77 5.15541 4.04842 0
M  V30 20074 H 1847.29 3.61125 4.78904 0
M  V30 20075 H 1848.97 4.18833 4.93141 0
M  V30 20076 N 1849.1 -1.16685 1.05936 0
M  V30 20077 C 1850.05 -2.2301 0.66101 0
M  V30 20078 C 1851.05 -1.66324 -0.321334 0
M  V30 20079 O 1852.25 -1.7903 -0.186587 0
M  V30 20080 H 1848.63 -0.726112 0.195616 0
M  V30 20081 H 1850.6 -2.539 1.56772 0
M  V30 20082 C 1849.35 -3.47649 0.0596424 0
M  V30 20083 H 1848.67 -3.91578 0.806635 0
M  V30 20084 H 1850.11 -4.23611 -0.18161 0
M  V30 20085 C 1848.57 -3.14965 -1.19578 0
M  V30 20086 O 1849.1 -3.30434 -2.28421 0
M  V30 20087 N 1847.3 -2.69126 -1.09634 0
M  V30 20088 H 1846.85 -2.56738 -0.210599 0
M  V30 20089 H 1846.81 -2.4763 -1.93718 0
M  V30 20090 N 1850.58 -0.841432 -1.33258 0
M  V30 20091 C 1851.49 -0.279006 -2.32935 0
M  V30 20092 C 1852.51 0.596298 -1.63463 0
M  V30 20093 O 1853.68 0.499812 -1.951 0
M  V30 20094 C 1850.75 0.534514 -3.42555 0
M  V30 20095 C 1849.81 -0.365366 -4.27742 0
M  V30 20096 C 1849.04 0.409423 -5.32127 0
M  V30 20097 O 1849.27 1.64085 -5.4629 0
M  V30 20098 O 1848.2 -0.217904 -6.01505 0
M  V30 20099 H 1852.03 -1.10448 -2.82904 0
M  V30 20100 H 1849.61 -0.60402 -1.36645 0
M  V30 20101 H 1851.49 0.996723 -4.09443 0
M  V30 20102 H 1850.17 1.33701 -2.94798 0
M  V30 20103 H 1849.07 -0.875469 -3.63712 0
M  V30 20104 H 1850.41 -1.1327 -4.78989 0
M  V30 20105 N 1852.06 1.4581 -0.598108 0
M  V30 20106 C 1853.29 2.06379 -0.0955533 0
M  V30 20107 C 1853.7 1.44497 1.22137 0
M  V30 20108 O 1853.04 0.549997 1.75273 0
M  V30 20109 C 1853.1 3.59271 0.128433 0
M  V30 20110 C 1852.77 4.43434 -1.10523 0
M  V30 20111 C 1853.76 4.79008 -2.02107 0
M  V30 20112 C 1851.45 4.84334 -1.3314 0
M  V30 20113 C 1853.44 5.54326 -3.14644 0
M  V30 20114 C 1851.13 5.59408 -2.45979 0
M  V30 20115 C 1852.13 5.9432 -3.3656 0
M  V30 20116 O 1851.82 6.67874 -4.47437 0
M  V30 20117 H 1851.55 0.673187 -0.0616108 0
M  V30 20118 H 1854.1 1.88191 -0.823012 0
M  V30 20119 H 1852.33 3.75824 0.910679 0
M  V30 20120 H 1854.02 4.01714 0.581406 0
M  V30 20121 H 1854.79 4.47976 -1.85856 0
M  V30 20122 H 1850.67 4.566 -0.635381 0
M  V30 20123 H 1854.21 5.81495 -3.8537 0
M  V30 20124 H 1850.11 5.89854 -2.62187 0
M  V30 20125 H 1850.87 6.86314 -4.45999 0
M  V30 20126 N 1853.54 0.336733 1.53961 0
M  V30 20127 C 1854.47 -0.515664 2.27735 0
M  V30 20128 C 1855.45 -1.10835 1.29033 0
M  V30 20129 O 1856.63 -1.13102 1.57866 0
M  V30 20130 C 1853.76 -1.67015 3.04505 0
M  V30 20131 C 1852.72 -1.20613 4.10654 0
M  V30 20132 C 1852.04 -2.44861 4.75339 0
M  V30 20133 C 1853.34 -0.311507 5.2137 0
M  V30 20134 H 1855.04 0.0997513 2.99234 0
M  V30 20135 H 1852.58 0.0494157 1.43915 0
M  V30 20136 H 1854.54 -2.27286 3.54851 0
M  V30 20137 H 1853.26 -2.31236 2.30646 0
M  V30 20138 H 1851.92 -0.62628 3.61211 0
M  V30 20139 H 1851.57 -3.07474 3.98081 0
M  V30 20140 H 1851.27 -2.14498 5.47051 0
M  V30 20141 H 1852.79 -3.0587 5.28466 0
M  V30 20142 H 1854.21 -0.820868 5.67393 0
M  V30 20143 H 1852.6 -0.100073 6.00017 0
M  V30 20144 H 1853.67 0.654181 4.80467 0
M  V30 20145 N 1855.02 -1.57465 0.0651956 0
M  V30 20146 C 1856.24 -1.97975 -0.618099 0
M  V30 20147 C 1856.67 -0.943068 -1.62751 0
M  V30 20148 O 1856.02 0.0921045 -1.81066 0
M  V30 20149 C 1856.07 -3.37533 -1.26902 0
M  V30 20150 O 1855.18 -3.36451 -2.38483 0
M  V30 20151 H 1854.52 -0.644553 -0.159524 0
M  V30 20152 H 1857.05 -2.04136 0.137754 0
M  V30 20153 H 1857.06 -3.74571 -1.61742 0
M  V30 20154 H 1855.73 -4.12518 -0.529334 0
M  V30 20155 H 1854.31 -3.11175 -2.05486 0
M  V30 20156 N 1856.49 0.20831 -1.56217 0
M  V30 20157 C 1857.43 1.28196 -1.89996 0
M  V30 20158 C 1858.44 1.42381 -0.789394 0
M  V30 20159 O 1859.63 1.43043 -1.06776 0
M  V30 20160 C 1856.73 2.65588 -2.10514 0
M  V30 20161 C 1855.9 2.73181 -3.416 0
M  V30 20162 C 1854.96 3.91678 -3.5139 0
M  V30 20163 O 1853.99 3.79397 -4.24319 0
M  V30 20164 N 1855.19 5.06562 -2.83505 0
M  V30 20165 H 1857.95 0.995403 -2.82687 0
M  V30 20166 H 1855.51 0.398294 -1.56924 0
M  V30 20167 H 1857.51 3.43264 -2.14365 0
M  V30 20168 H 1856.08 2.86788 -1.24385 0
M  V30 20169 H 1855.3 1.81881 -3.49733 0
M  V30 20170 H 1856.58 2.75234 -4.27929 0
M  V30 20171 H 1855.98 5.19437 -2.24056 0
M  V30 20172 H 1854.54 5.82232 -2.93 0
M  V30 20173 N 1857.97 1.50255 0.475528 0
M  V30 20174 C 1859.2 1.65044 1.25599 0
M  V30 20175 C 1859.62 0.331736 1.85152 0
M  V30 20176 O 1858.98 -0.703863 1.67079 0
M  V30 20177 C 1859.03 2.7405 2.34369 0
M  V30 20178 O 1858.13 2.34994 3.38897 0
M  V30 20179 H 1857.47 0.551557 0.369704 0
M  V30 20180 H 1860 1.96603 0.566422 0
M  V30 20181 H 1860.01 2.96993 2.79749 0
M  V30 20182 H 1858.69 3.6976 1.90395 0
M  V30 20183 H 1857.26 2.22481 2.9926 0
M  V30 20184 N 1859.45 -0.728395 1.39758 0
M  V30 20185 C 1860.68 -1.5154 1.40425 0
M  V30 20186 C 1861.09 -1.892 -0.00123953 0
M  V30 20187 O 1860.43 -1.55086 -0.984575 0
M  V30 20188 C 1860.49 -2.8282 2.2193 0
M  V30 20189 C 1860.16 -2.67557 3.70489 0
M  V30 20190 C 1861.15 -2.35665 4.6342 0
M  V30 20191 C 1858.84 -2.84221 4.14154 0
M  V30 20192 C 1860.83 -2.20628 5.97998 0
M  V30 20193 C 1858.52 -2.68803 5.48806 0
M  V30 20194 C 1859.52 -2.37053 6.40543 0
M  V30 20195 O 1859.21 -2.21738 7.72714 0
M  V30 20196 H 1858.94 -0.474672 0.481313 0
M  V30 20197 H 1861.49 -0.907176 1.84281 0
M  V30 20198 H 1859.72 -3.45927 1.72833 0
M  V30 20199 H 1861.41 -3.44472 2.14695 0
M  V30 20200 H 1862.18 -2.22435 4.30985 0
M  V30 20201 H 1858.06 -3.07925 3.43079 0
M  V30 20202 H 1861.6 -1.95768 6.69567 0
M  V30 20203 H 1857.5 -2.81614 5.8083 0
M  V30 20204 H 1858.26 -2.36758 7.8351 0
M  V30 20205 N 1860.93 -1.25042 -0.959279 0
M  V30 20206 C 1861.86 -1.00807 -2.05841 0
M  V30 20207 C 1862.87 0.0253938 -1.6278 0
M  V30 20208 O 1864.06 -0.212625 -1.77229 0
M  V30 20209 C 1861.16 -0.501088 -3.35175 0
M  V30 20210 C 1860.33 -1.59964 -4.071 0
M  V30 20211 C 1859.39 -1.09383 -5.14705 0
M  V30 20212 O 1858.42 -1.78728 -5.40412 0
M  V30 20213 N 1859.62 0.0673296 -5.80461 0
M  V30 20214 H 1862.39 -1.95446 -2.27203 0
M  V30 20215 H 1859.95 -1.16185 -1.1275 0
M  V30 20216 H 1861.94 -0.147283 -4.04432 0
M  V30 20217 H 1860.51 0.351241 -3.1062 0
M  V30 20218 H 1859.73 -2.12524 -3.32005 0
M  V30 20219 H 1861.02 -2.3378 -4.51912 0
M  V30 20220 H 1860.42 0.646867 -5.61989 0
M  V30 20221 H 1858.97 0.362206 -6.50793 0
M  V30 20222 N 1862.41 1.16121 -1.06553 0
M  V30 20223 C 1863.35 2.20597 -0.678659 0
M  V30 20224 C 1864.32 1.6287 0.325988 0
M  V30 20225 O 1865.51 1.89593 0.214278 0
M  V30 20226 C 1862.65 3.45021 -0.0740442 0
M  V30 20227 C 1861.76 4.16981 -1.12919 0
M  V30 20228 C 1860.9 5.28931 -0.490435 0
M  V30 20229 C 1859.94 5.92697 -1.52893 0
M  V30 20230 N 1859.07 6.96134 -0.913346 0
M  V30 20231 H 1863.91 2.53041 -1.57398 0
M  V30 20232 H 1861.45 1.24282 -0.786923 0
M  V30 20233 H 1863.41 4.16162 0.294059 0
M  V30 20234 H 1862.04 3.13118 0.784671 0
M  V30 20235 H 1861.09 3.44417 -1.61496 0
M  V30 20236 H 1862.4 4.60495 -1.91693 0
M  V30 20237 H 1861.56 6.0666 -0.0695112 0
M  V30 20238 H 1860.29 4.86588 0.329154 0
M  V30 20239 H 1859.3 5.13688 -1.95972 0
M  V30 20240 H 1860.52 6.37119 -2.35066 0
M  V30 20241 H 1858.47 6.559 -0.114515 0
M  V30 20242 H 1858.39 7.38032 -1.63843 0
M  V30 20243 H 1859.66 7.77779 -0.517655 0
M  V30 20244 N 1863.88 0.848487 1.3281 0
M  V30 20245 C 1865.13 0.448856 1.97463 0
M  V30 20246 C 1865.46 -0.994126 1.67175 0
M  V30 20247 O 1864.71 -1.71147 0.949054 0
M  V30 20248 C 1865.01 0.62759 3.51847 0
M  V30 20249 C 1864.68 2.04011 4.02107 0
M  V30 20250 C 1863.34 2.42645 4.15544 0
M  V30 20251 C 1865.69 2.9623 4.28832 0
M  V30 20252 C 1863.02 3.72783 4.53045 0
M  V30 20253 C 1865.37 4.2586 4.67789 0
M  V30 20254 C 1864.04 4.64437 4.79431 0
M  V30 20255 H 1863.31 0.164248 0.722567 0
M  V30 20256 H 1865.95 1.07736 1.5832 0
M  V30 20257 H 1864.26 -0.0841763 3.9171 0
M  V30 20258 H 1865.96 0.298524 3.99887 0
M  V30 20259 H 1862.55 1.73009 3.9213 0
M  V30 20260 H 1866.73 2.67616 4.17966 0
M  V30 20261 H 1861.99 4.02464 4.60253 0
M  V30 20262 H 1866.16 4.97385 4.87423 0
M  V30 20263 H 1863.79 5.65323 5.08246 0
M  V30 20264 N 1865.36 -1.4549 0.605832 0
M  V30 20265 C 1866.78 -1.57311 0.269339 0
M  V30 20266 C 1866.98 -1.59746 -1.22814 0
M  V30 20267 O 1866.03 -1.52682 -2.01108 0
M  V30 20268 C 1867.35 -2.85664 0.938963 0
M  V30 20269 C 1868.9 -2.99336 0.914717 0
M  V30 20270 C 1869.37 -4.30457 1.56432 0
M  V30 20271 N 1870.86 -4.37211 1.52973 0
M  V30 20272 C 1871.6 -5.37333 2.00152 0
M  V30 20273 N 1871.09 -6.44001 2.5541 0
M  V30 20274 N 1872.89 -5.28679 1.90931 0
M  V30 20275 H 1865.04 -1.42153 1.57817 0
M  V30 20276 H 1867.3 -0.679542 0.661004 0
M  V30 20277 H 1867.01 -2.89759 1.9933 0
M  V30 20278 H 1866.88 -3.7437 0.461178 0
M  V30 20279 H 1869.27 -2.94809 -0.131069 0
M  V30 20280 H 1869.35 -2.12045 1.43075 0
M  V30 20281 H 1868.99 -4.35742 2.60942 0
M  V30 20282 H 1868.92 -5.16561 1.02332 0
M  V30 20283 H 1871.41 -3.60733 1.12605 0
M  V30 20284 H 1871.73 -7.16644 2.89208 0
M  V30 20285 H 1870.07 -6.44757 2.59448 0
M  V30 20286 H 1873.26 -4.44253 1.47502 0
M  V30 20287 H 1873.43 -6.06559 2.28013 0
M  V30 20288 N 1866.84 -0.344893 -1.5378 0
M  V30 20289 C 1868.26 0.00698009 -1.59598 0
M  V30 20290 C 1868.46 1.48608 -1.36081 0
M  V30 20291 O 1867.51 2.24498 -1.15573 0
M  V30 20292 C 1868.83 -0.430402 -2.97604 0
M  V30 20293 C 1870.37 -0.38286 -3.1065 0
M  V30 20294 C 1870.85 -0.795731 -4.51035 0
M  V30 20295 N 1872.34 -0.74997 -4.57088 0
M  V30 20296 C 1873.07 -1.04137 -5.63864 0
M  V30 20297 N 1872.57 -1.401 -6.78487 0
M  V30 20298 N 1874.36 -0.965521 -5.53746 0
M  V30 20299 H 1866.51 -1.30834 -1.67321 0
M  V30 20300 H 1868.78 -0.533422 -0.783686 0
M  V30 20301 H 1868.48 -1.46174 -3.19884 0
M  V30 20302 H 1868.36 0.193696 -3.76702 0
M  V30 20303 H 1870.74 0.639311 -2.88092 0
M  V30 20304 H 1870.83 -1.04218 -2.33607 0
M  V30 20305 H 1870.47 -1.81592 -4.74328 0
M  V30 20306 H 1870.4 -0.113876 -5.26477 0
M  V30 20307 H 1872.89 -0.48474 -3.74778 0
M  V30 20308 H 1873.2 -1.60815 -7.55882 0
M  V30 20309 H 1871.55 -1.43946 -6.7993 0
M  V30 20310 H 1874.74 -0.683902 -4.63077 0
M  V30 20311 H 1874.91 -1.19596 -6.36868 0
M  V30 20312 N 1868.32 1.57428 -0.0735454 0
M  V30 20313 C 1869.57 1.93556 0.595172 0
M  V30 20314 C 1869.89 0.95371 1.69513 0
M  V30 20315 O 1869.15 -0.0303731 1.95676 0
M  V30 20316 C 1869.45 3.36302 1.20978 0
M  V30 20317 C 1869.11 4.50283 0.235791 0
M  V30 20318 C 1867.78 4.81189 -0.0321575 0
M  V30 20319 C 1870.13 5.19419 -0.430452 0
M  V30 20320 C 1867.46 5.78569 -0.973406 0
M  V30 20321 C 1869.81 6.17807 -1.36003 0
M  V30 20322 C 1868.47 6.4713 -1.63643 0
M  V30 20323 H 1867.74 0.708272 0.217789 0
M  V30 20324 H 1870.39 1.90952 -0.144794 0
M  V30 20325 H 1868.69 3.3538 2.02552 0
M  V30 20326 H 1870.39 3.61546 1.73452 0
M  V30 20327 H 1866.98 4.2618 0.454817 0
M  V30 20328 H 1871.16 4.95736 -0.23656 0
M  V30 20329 H 1866.42 5.99612 -1.19478 0
M  V30 20330 H 1870.59 6.70481 -1.88222 0
M  V30 20331 H 1868.22 7.22398 -2.36738 0
M  V30 20332 N 1869.8 -0.200022 1.56326 0
M  V30 20333 C 1871.04 -0.921174 1.80335 0
M  V30 20334 C 1871.37 -1.83461 0.645946 0
M  V30 20335 O 1870.63 -1.92198 -0.368568 0
M  V30 20336 C 1870.93 -1.77356 3.1029 0
M  V30 20337 C 1870.59 -1.01153 4.39407 0
M  V30 20338 C 1869.25 -0.801112 4.74485 0
M  V30 20339 C 1871.61 -0.474992 5.19031 0
M  V30 20340 C 1868.93 -0.0425991 5.86685 0
M  V30 20341 C 1871.29 0.270286 6.32022 0
M  V30 20342 C 1869.95 0.491763 6.65686 0
M  V30 20343 H 1869.22 -0.337082 0.659892 0
M  V30 20344 H 1871.87 -0.187867 1.90576 0
M  V30 20345 H 1870.17 -2.57539 2.95264 0
M  V30 20346 H 1871.87 -2.33406 3.26071 0
M  V30 20347 H 1868.46 -1.18553 4.11877 0
M  V30 20348 H 1872.64 -0.624969 4.92349 0
M  V30 20349 H 1867.9 0.139015 6.11242 0
M  V30 20350 H 1872.07 0.693432 6.92939 0
M  V30 20351 H 1869.7 1.08142 7.52469 0
M  V30 20352 N 1871.27 -1.50505 -0.467553 0
M  V30 20353 C 1872.21 -1.65784 -1.58267 0
M  V30 20354 C 1873.22 -0.539219 -1.53611 0
M  V30 20355 O 1874.41 -0.812524 -1.58935 0
M  V30 20356 C 1871.51 -1.62951 -2.97154 0
M  V30 20357 C 1870.68 -2.90903 -3.26641 0
M  V30 20358 C 1869.74 -2.80665 -4.451 0
M  V30 20359 O 1868.77 -3.5462 -4.45234 0
M  V30 20360 N 1869.97 -1.9446 -5.4696 0
M  V30 20361 H 1872.73 -2.6197 -1.45575 0
M  V30 20362 H 1870.29 -1.48013 -0.656029 0
M  V30 20363 H 1872.29 -1.53709 -3.74373 0
M  V30 20364 H 1870.86 -0.744855 -3.03596 0
M  V30 20365 H 1870.08 -3.14244 -2.38001 0
M  V30 20366 H 1871.36 -3.75663 -3.43155 0
M  V30 20367 H 1870.76 -1.33694 -5.49675 0
M  V30 20368 H 1869.32 -1.9112 -6.2315 0
M  V30 20369 N 1872.75 0.720973 -1.40142 0
M  V30 20370 C 1873.98 1.51012 -1.41431 0
M  V30 20371 C 1874.4 1.88796 -0.0125516 0
M  V30 20372 O 1873.75 1.55073 0.962217 0
M  V30 20373 C 1873.8 2.78886 -2.3001 0
M  V30 20374 O 1873.52 2.42703 -3.64729 0
M  V30 20375 C 1875.03 3.7282 -2.39834 0
M  V30 20376 H 1872.25 0.466214 -0.482582 0
M  V30 20377 H 1874.79 0.889777 -1.84128 0
M  V30 20378 H 1872.94 3.37219 -1.90689 0
M  V30 20379 H 1873.36 3.24945 -4.11717 0
M  V30 20380 H 1874.83 4.594 -3.06032 0
M  V30 20381 H 1875.31 4.15552 -1.42173 0
M  V30 20382 H 1875.92 3.20402 -2.79684 0
M  V30 20383 N 1874.23 1.25549 0.952634 0
M  V30 20384 C 1875.19 1.06186 2.03119 0
M  V30 20385 C 1876.19 0.0139966 1.60794 0
M  V30 20386 O 1877.38 0.256367 1.72303 0
M  V30 20387 C 1874.52 0.612674 3.35349 0
M  V30 20388 H 1875.71 2.01932 2.21729 0
M  V30 20389 H 1873.26 1.07984 1.13 0
M  V30 20390 H 1874 -0.347292 3.22435 0
M  V30 20391 H 1873.78 1.36917 3.67418 0
M  V30 20392 H 1875.27 0.498693 4.14612 0
M  V30 20393 N 1875.71 -1.15554 1.07168 0
M  V30 20394 C 1876.95 -1.87964 0.803046 0
M  V30 20395 C 1877.31 -1.80344 -0.658795 0
M  V30 20396 O 1878.51 -2.47765 -1.0424 0
M  V30 20397 C 1876.78 -3.33115 1.29495 0
M  V30 20398 S 1878.34 -4.2328 1.15671 0
M  V30 20399 H 1875.16 -0.648695 0.29106 0
M  V30 20400 H 1877.76 -1.39428 1.3704 0
M  V30 20401 H 1876.47 -3.36205 2.35361 0
M  V30 20402 H 1876 -3.86704 0.722721 0
M  V30 20403 H 1878.01 -4.96113 0.0930855 0
M  V30 20404 N 1877.19 -0.855519 -1.32358 0
M  V30 20405 C 1878.46 -0.380575 -1.91862 0
M  V30 20406 C 1878.84 1.13593 -1.77932 0
M  V30 20407 O 1878.19 1.95797 -1.17796 0
M  V30 20408 C 1878.4 -0.845902 -3.38593 0
M  V30 20409 C 1879.75 -0.863586 -4.15725 0
M  V30 20410 O 1880.77 -0.790597 -3.47315 0
M  V30 20411 O 1879.63 -0.966658 -5.37883 0
M  V30 20412 H 1876.73 -0.111156 -0.819496 0
M  V30 20413 H 1879.27 -0.942476 -1.41122 0
M  V30 20414 H 1878.05 -1.88909 -3.42679 0
M  V30 20415 H 1877.67 -0.2615 -3.96739 0
M  V30 20416 N 1878.67 1.45167 -0.61354 0
M  V30 20417 C 1879.91 2.02495 -0.111227 0
M  V30 20418 C 1880.24 1.48015 1.25719 0
M  V30 20419 O 1879.52 0.657188 1.83061 0
M  V30 20420 C 1879.8 3.60014 -0.07876 0
M  V30 20421 C 1879.66 4.24814 -1.47827 0
M  V30 20422 C 1880.97 4.35908 0.605964 0
M  V30 20423 H 1878.09 0.735808 -0.0418931 0
M  V30 20424 H 1880.74 1.7295 -0.786651 0
M  V30 20425 H 1878.89 3.85315 0.496411 0
M  V30 20426 H 1880.56 4.10678 -2.10097 0
M  V30 20427 H 1878.8 3.82986 -2.03726 0
M  V30 20428 H 1879.47 5.33748 -1.40774 0
M  V30 20429 H 1881.95 4.15935 0.117019 0
M  V30 20430 H 1880.82 5.45635 0.597808 0
M  V30 20431 H 1881.08 4.09216 1.67315 0
M  V30 20432 N 1880.14 0.353044 1.53595 0
M  V30 20433 C 1881.55 -0.128852 1.86255 0
M  V30 20434 C 1881.91 -1.49209 1.27402 0
M  V30 20435 O 1881.03 -2.08167 0.591222 0
M  V30 20436 C 1881.63 -0.240583 3.37945 0
M  V30 20437 C 1880.18 -0.66672 3.70448 0
M  V30 20438 C 1879.33 0.193757 2.76622 0
M  V30 20439 H 1882.28 0.5723 1.48022 0
M  V30 20440 H 1882.3 -1.06641 3.65251 0
M  V30 20441 H 1881.82 0.75174 3.8075 0
M  V30 20442 H 1879.92 -1.66773 3.33193 0
M  V30 20443 H 1880.03 -0.450026 4.76982 0
M  V30 20444 H 1878.39 -0.335406 2.52482 0
M  V30 20445 H 1879.18 1.18339 3.22259 0
M  V30 20446 N 1881.62 -1.57387 0.0818932 0
M  V30 20447 C 1882.53 -2.16804 -0.89629 0
M  V30 20448 C 1883.55 -1.1339 -1.3198 0
M  V30 20449 O 1884.72 -1.45702 -1.39042 0
M  V30 20450 C 1881.79 -2.72607 -2.14211 0
M  V30 20451 C 1880.85 -3.90929 -1.77406 0
M  V30 20452 C 1880.08 -4.44062 -2.96049 0
M  V30 20453 O 1880.31 -3.96166 -4.10376 0
M  V30 20454 O 1879.24 -5.35261 -2.75279 0
M  V30 20455 H 1883.07 -3.0077 -0.420827 0
M  V30 20456 H 1880.65 -1.48726 -0.141737 0
M  V30 20457 H 1882.53 -3.0833 -2.87247 0
M  V30 20458 H 1881.21 -1.91694 -2.60835 0
M  V30 20459 H 1880.11 -3.60042 -1.01591 0
M  V30 20460 H 1881.45 -4.73165 -1.35556 0
M  V30 20461 N 1883.1 0.191729 -1.56429 0
M  V30 20462 C 1884.03 1.24024 -1.97839 0
M  V30 20463 C 1885.01 1.47291 -0.850853 0
M  V30 20464 O 1886.2 1.58971 -1.11543 0
M  V30 20465 C 1883.33 2.58373 -2.32079 0
M  V30 20466 C 1882.28 2.49712 -3.47603 0
M  V30 20467 C 1881.61 3.88365 -3.67528 0
M  V30 20468 C 1882.91 2.01929 -4.81687 0
M  V30 20469 H 1884.6 0.8961 -2.85675 0
M  V30 20470 H 1882.15 0.429616 -1.37442 0
M  V30 20471 H 1884.1 3.31908 -2.59643 0
M  V30 20472 H 1882.82 2.94534 -1.41129 0
M  V30 20473 H 1881.48 1.78632 -3.20135 0
M  V30 20474 H 1881.13 4.21884 -2.73903 0
M  V30 20475 H 1880.83 3.83444 -4.45246 0
M  V30 20476 H 1882.35 4.63518 -3.97472 0
M  V30 20477 H 1883.77 2.65225 -5.0826 0
M  V30 20478 H 1882.16 2.08002 -5.62899 0
M  V30 20479 H 1883.23 0.972649 -4.75045 0
M  V30 20480 N 1884.58 1.50751 0.459565 0
M  V30 20481 C 1885.51 1.66621 1.57385 0
M  V30 20482 C 1886.52 0.547358 1.53323 0
M  V30 20483 O 1887.71 0.820941 1.58502 0
M  V30 20484 C 1884.81 1.64524 2.96285 0
M  V30 20485 C 1883.98 2.92631 3.25093 0
M  V30 20486 C 1883.04 2.83021 4.43605 0
M  V30 20487 O 1882.07 3.56977 4.43347 0
M  V30 20488 N 1883.27 1.97358 5.45921 0
M  V30 20489 H 1886.04 2.62738 1.44184 0
M  V30 20490 H 1883.6 1.48359 0.64817 0
M  V30 20491 H 1885.59 1.55693 3.73553 0
M  V30 20492 H 1884.16 0.760945 3.03197 0
M  V30 20493 H 1883.38 3.15502 2.36331 0
M  V30 20494 H 1884.67 3.77477 3.41157 0
M  V30 20495 H 1884.07 1.36608 5.48958 0
M  V30 20496 H 1882.62 1.94422 6.22128 0
M  V30 20497 N 1886.06 -0.713531 1.40522 0
M  V30 20498 C 1887.33 -1.46672 1.29409 0
M  V30 20499 C 1887.71 -2.10922 -0.0866293 0
M  V30 20500 O 1887.06 -2.00303 -1.09959 0
M  V30 20501 C 1887.27 -2.50076 2.4344 0
M  V30 20502 C 1888.62 -3.15848 2.8377 0
M  V30 20503 O 1889.64 -2.60396 2.43048 0
M  V30 20504 O 1888.5 -4.16238 3.5413 0
M  V30 20505 H 1885.6 -0.652333 0.508322 0
M  V30 20506 H 1888.14 -0.745531 1.52446 0
M  V30 20507 H 1886.91 -2.01129 3.35653 0
M  V30 20508 H 1886.54 -3.29728 2.22183 0
M  V30 20509 N 1887.53 -1.26053 -0.945962 0
M  V30 20510 C 1888.48 -1.07194 -2.04397 0
M  V30 20511 C 1889.45 0.0215796 -1.66086 0
M  V30 20512 O 1890.64 -0.137272 -1.90306 0
M  V30 20513 C 1887.78 -0.705915 -3.37803 0
M  V30 20514 C 1886.89 -1.87519 -3.89179 0
M  V30 20515 C 1886.02 -1.45272 -5.1095 0
M  V30 20516 C 1885.06 -2.59059 -5.54576 0
M  V30 20517 N 1884.2 -2.17527 -6.67552 0
M  V30 20518 H 1889.04 -2.01159 -2.19861 0
M  V30 20519 H 1886.58 -1.00162 -1.07731 0
M  V30 20520 H 1888.53 -0.474611 -4.14492 0
M  V30 20521 H 1887.16 0.196761 -3.222 0
M  V30 20522 H 1886.22 -2.21956 -3.08933 0
M  V30 20523 H 1887.53 -2.7294 -4.17499 0
M  V30 20524 H 1886.68 -1.18158 -5.95083 0
M  V30 20525 H 1885.42 -0.569345 -4.84365 0
M  V30 20526 H 1884.43 -2.86908 -4.69003 0
M  V30 20527 H 1885.65 -3.47989 -5.83164 0
M  V30 20528 H 1883.6 -1.31618 -6.42661 0
M  V30 20529 H 1883.51 -2.96493 -6.95433 0
M  V30 20530 H 1884.78 -1.93612 -7.55073 0
M  V30 20531 N 1889.01 1.14984 -1.07779 0
M  V30 20532 C 1890.26 1.85873 -0.803587 0
M  V30 20533 C 1890.59 1.82579 0.670472 0
M  V30 20534 O 1889.84 1.247 1.50826 0
M  V30 20535 C 1890.14 3.34355 -1.26259 0
M  V30 20536 C 1889.81 3.57842 -2.74335 0
M  V30 20537 C 1888.47 3.63961 -3.14779 0
M  V30 20538 C 1890.82 3.67191 -3.69893 0
M  V30 20539 C 1888.15 3.76944 -4.49589 0
M  V30 20540 C 1890.5 3.81698 -5.04469 0
M  V30 20541 C 1889.16 3.86064 -5.44528 0
M  V30 20542 H 1888.43 0.680157 -0.294053 0
M  V30 20543 H 1891.08 1.35862 -1.34959 0
M  V30 20544 H 1889.39 3.86603 -0.636057 0
M  V30 20545 H 1891.08 3.87619 -1.02727 0
M  V30 20546 H 1887.67 3.53723 -2.42028 0
M  V30 20547 H 1891.86 3.61759 -3.3977 0
M  V30 20548 H 1887.11 3.78583 -4.80088 0
M  V30 20549 H 1891.29 3.87873 -5.78383 0
M  V30 20550 H 1888.91 3.95876 -6.48989 0
M  V30 20551 N 1890.49 0.862526 1.31902 0
M  V30 20552 C 1891.44 0.301807 2.30634 0
M  V30 20553 C 1892.43 -0.579086 1.59195 0
M  V30 20554 O 1893.64 -0.466014 1.73863 0
M  V30 20555 H 1890.01 0.078905 0.747849 0
M  V30 20556 H 1891.98 1.1486 2.75408 0
M  V30 20557 C 1890.73 -0.48822 3.44255 0
M  V30 20558 H 1890.06 0.18033 3.99393 0
M  V30 20559 H 1891.5 -0.846013 4.15474 0
M  V30 20560 C 1889.95 -1.67656 2.92221 0
M  V30 20561 O 1890.48 -2.77577 2.90369 0
M  V30 20562 N 1888.69 -1.50622 2.48518 0
M  V30 20563 H 1888.24 -0.612021 2.50224 0
M  V30 20564 H 1888.2 -2.30275 2.14058 0
M  V30 20565 N 1891.97 -1.4484 0.62123 0
M  V30 20566 C 1893.21 -2.02433 0.121965 0
M  V30 20567 C 1893.55 -1.48679 -1.24932 0
M  V30 20568 O 1892.82 -0.666887 -1.8271 0
M  V30 20569 C 1893.11 -3.59967 0.0978513 0
M  V30 20570 C 1892.96 -4.24025 1.50077 0
M  V30 20571 C 1894.28 -4.36224 -0.582838 0
M  V30 20572 H 1891.4 -0.735576 0.0457947 0
M  V30 20573 H 1894.04 -1.72531 0.795812 0
M  V30 20574 H 1892.19 -3.85573 -0.47597 0
M  V30 20575 H 1893.86 -4.09558 2.12272 0
M  V30 20576 H 1892.1 -3.819 2.05754 0
M  V30 20577 H 1892.77 -5.32994 1.43602 0
M  V30 20578 H 1895.25 -4.15992 -0.0949595 0
M  V30 20579 H 1894.13 -5.45944 -0.568863 0
M  V30 20580 H 1894.39 -4.10098 -1.65142 0
M  V30 20581 N 1893.45 -0.361184 -1.53405 0
M  V30 20582 C 1894.72 0.286047 -1.93497 0
M  V30 20583 C 1895.1 1.66764 -1.29434 0
M  V30 20584 O 1894.45 2.23989 -0.451785 0
M  V30 20585 C 1894.66 0.340663 -3.47333 0
M  V30 20586 C 1896.01 0.58311 -4.20577 0
M  V30 20587 O 1897.03 0.422054 -3.53691 0
M  V30 20588 O 1895.89 0.896383 -5.39099 0
M  V30 20589 H 1892.99 0.17059 -0.809215 0
M  V30 20590 H 1895.53 -0.413648 -1.64581 0
M  V30 20591 H 1894.3 -0.628175 -3.86225 0
M  V30 20592 H 1893.93 1.08643 -3.82469 0
M  V30 20593 N 1894.92 1.57341 -0.0902386 0
M  V30 20594 C 1895.83 2.17276 0.88478 0
M  V30 20595 C 1896.85 1.14089 1.31376 0
M  V30 20596 O 1898.03 1.46438 1.38268 0
M  V30 20597 C 1895.09 2.73739 2.12762 0
M  V30 20598 C 1894.15 3.91865 1.7533 0
M  V30 20599 C 1893.39 4.45626 2.93689 0
M  V30 20600 O 1893.61 3.98337 4.08269 0
M  V30 20601 O 1892.54 5.36714 2.72437 0
M  V30 20602 H 1896.37 3.00989 0.40487 0
M  V30 20603 H 1893.95 1.48799 0.133848 0
M  V30 20604 H 1895.84 3.09849 2.85608 0
M  V30 20605 H 1894.51 1.93075 2.59815 0
M  V30 20606 H 1893.42 3.60576 0.996799 0
M  V30 20607 H 1894.75 4.73878 1.33045 0
M  V30 20608 N 1896.4 -0.183431 1.56529 0
M  V30 20609 C 1897.63 -0.916557 1.85156 0
M  V30 20610 C 1898.04 -1.76861 0.672063 0
M  V30 20611 O 1897.38 -1.7997 -0.3683 0
M  V30 20612 C 1897.45 -1.85342 3.0804 0
M  V30 20613 C 1897.11 -1.18216 4.41445 0
M  V30 20614 C 1898.11 -0.553445 5.16946 0
M  V30 20615 C 1895.79 -1.18253 4.88182 0
M  V30 20616 C 1897.79 0.0659422 6.37366 0
M  V30 20617 C 1895.47 -0.559316 6.08535 0
M  V30 20618 C 1896.47 0.0638301 6.8297 0
M  V30 20619 O 1896.16 0.677251 8.01042 0
M  V30 20620 H 1895.89 -0.272343 0.618713 0
M  V30 20621 H 1898.44 -0.192085 2.045 0
M  V30 20622 H 1896.67 -2.61789 2.84611 0
M  V30 20623 H 1898.36 -2.45533 3.23215 0
M  V30 20624 H 1899.13 -0.545219 4.81926 0
M  V30 20625 H 1895.01 -1.65696 4.30193 0
M  V30 20626 H 1898.55 0.552935 6.95405 0
M  V30 20627 H 1894.45 -0.565084 6.43022 0
M  V30 20628 H 1895.22 0.575305 8.16476 0
M  V30 20629 N 1897.88 -1.50992 -0.451564 0
M  V30 20630 C 1899.11 -1.67021 -1.22958 0
M  V30 20631 C 1899.53 -0.36115 -1.846 0
M  V30 20632 O 1898.89 0.677193 -1.68178 0
M  V30 20633 C 1898.94 -2.77744 -2.29979 0
M  V30 20634 O 1898.04 -2.40356 -3.35116 0
M  V30 20635 H 1897.38 -0.557369 -0.360882 0
M  V30 20636 H 1899.91 -1.97479 -0.535073 0
M  V30 20637 H 1899.92 -3.01406 -2.74988 0
M  V30 20638 H 1898.6 -3.72742 -1.84488 0
M  V30 20639 H 1897.17 -2.27214 -2.95683 0
M  V30 20640 N 1899.36 0.706069 -1.40899 0
M  V30 20641 C 1900.64 1.45984 -1.30185 0
M  V30 20642 C 1901.02 2.10965 0.0754423 0
M  V30 20643 O 1900.36 2.00883 1.08896 0
M  V30 20644 C 1900.57 2.48782 -2.44762 0
M  V30 20645 C 1901.92 3.14339 -2.85441 0
M  V30 20646 O 1902.95 2.59104 -2.44425 0
M  V30 20647 O 1901.8 4.14354 -3.56333 0
M  V30 20648 H 1898.9 0.649628 -0.511774 0
M  V30 20649 H 1901.44 0.737436 -1.5284 0
M  V30 20650 H 1900.22 1.99346 -3.36715 0
M  V30 20651 H 1899.84 3.28545 -2.23929 0
M  V30 20652 N 1900.84 1.26553 0.939264 0
M  V30 20653 C 1901.77 1.10778 2.05549 0
M  V30 20654 C 1902.75 0.0124359 1.70095 0
M  V30 20655 O 1903.93 0.184814 1.93319 0
M  V30 20656 C 1901.06 0.742011 3.39281 0
M  V30 20657 C 1900.02 1.78931 3.88803 0
M  V30 20658 C 1899.34 1.2778 5.19207 0
M  V30 20659 C 1900.64 3.1912 4.13473 0
M  V30 20660 H 1902.34 2.04151 2.19004 0
M  V30 20661 H 1899.88 0.98294 1.05234 0
M  V30 20662 H 1901.84 0.618526 4.16836 0
M  V30 20663 H 1900.56 -0.22742 3.25807 0
M  V30 20664 H 1899.22 1.9015 3.13431 0
M  V30 20665 H 1898.87 0.298159 5.02116 0
M  V30 20666 H 1898.57 1.9779 5.53311 0
M  V30 20667 H 1900.09 1.16703 5.99344 0
M  V30 20668 H 1901.5 3.10967 4.81635 0
M  V30 20669 H 1899.9 3.86738 4.58862 0
M  V30 20670 H 1900.97 3.65034 3.19183 0
M  V30 20671 N 1902.31 -1.14411 1.08387 0
M  V30 20672 C 1903.56 -1.85719 0.814638 0
M  V30 20673 C 1903.89 -1.82715 -0.657934 0
M  V30 20674 O 1903.17 -1.2577 -1.48365 0
M  V30 20675 C 1903.45 -3.34363 1.33691 0
M  V30 20676 C 1903.3 -3.4594 2.87481 0
M  V30 20677 C 1904.62 -4.29457 0.962006 0
M  V30 20678 H 1901.74 -0.674332 0.297399 0
M  V30 20679 H 1904.38 -1.34354 1.34346 0
M  V30 20680 H 1902.53 -3.78237 0.887082 0
M  V30 20681 H 1904.21 -3.10854 3.40833 0
M  V30 20682 H 1902.45 -2.87158 3.25151 0
M  V30 20683 H 1903.12 -4.50423 3.19097 0
M  V30 20684 H 1905.6 -3.93599 1.34979 0
M  V30 20685 H 1904.47 -5.31922 1.35464 0
M  V30 20686 H 1904.73 -4.41906 -0.130987 0
M  V30 20687 N 1903.79 -0.869509 -1.31443 0
M  V30 20688 C 1905.02 -0.494667 -2.009 0
M  V30 20689 C 1905.44 0.912728 -1.65272 0
M  V30 20690 O 1904.79 1.59788 -0.881702 0
M  V30 20691 C 1904.84 -0.641585 -3.55761 0
M  V30 20692 O 1904.56 -1.99356 -3.90114 0
M  V30 20693 C 1906.07 -0.267695 -4.42491 0
M  V30 20694 H 1903.29 -0.192789 -0.642708 0
M  V30 20695 H 1905.83 -1.17055 -1.67686 0
M  V30 20696 H 1903.98 -0.0132632 -3.87398 0
M  V30 20697 H 1904.4 -2.00099 -4.8483 0
M  V30 20698 H 1905.87 -0.421448 -5.50389 0
M  V30 20699 H 1906.35 0.793108 -4.3198 0
M  V30 20700 H 1906.96 -0.871698 -4.16271 0
M  V30 20701 N 1905.27 1.44508 -0.628902 0
M  V30 20702 C 1906.2 2.33412 0.0642512 0
M  V30 20703 C 1907.18 1.48077 0.837091 0
M  V30 20704 O 1908.37 1.76802 0.803415 0
M  V30 20705 C 1905.5 3.31112 1.04795 0
M  V30 20706 C 1904.45 4.26248 0.386897 0
M  V30 20707 C 1903.78 5.13799 1.48035 0
M  V30 20708 C 1905.08 5.17514 -0.705449 0
M  V30 20709 H 1906.77 2.91619 -0.678133 0
M  V30 20710 H 1904.32 1.40225 -0.327558 0
M  V30 20711 H 1906.27 3.9219 1.54159 0
M  V30 20712 H 1904.99 2.71109 1.8212 0
M  V30 20713 H 1903.65 3.66499 -0.0860697 0
M  V30 20714 H 1903.3 4.5015 2.24441 0
M  V30 20715 H 1903 5.78262 1.04342 0
M  V30 20716 H 1904.52 5.77748 1.97583 0
M  V30 20717 H 1905.94 5.7254 -0.295004 0
M  V30 20718 H 1904.34 5.90567 -1.06538 0
M  V30 20719 H 1905.41 4.5866 -1.57349 0
M  V30 20720 N 1906.75 0.369315 1.53212 0
M  V30 20721 C 1907.98 -0.219858 2.05729 0
M  V30 20722 C 1908.39 -1.42148 1.24255 0
M  V30 20723 O 1907.75 -1.80274 0.284146 0
M  V30 20724 C 1907.8 -0.609683 3.56322 0
M  V30 20725 O 1907.52 0.544184 4.34707 0
M  V30 20726 C 1909.02 -1.25685 4.2511 0
M  V30 20727 H 1906.24 -0.037867 0.669931 0
M  V30 20728 H 1908.79 0.528765 1.97546 0
M  V30 20729 H 1906.94 -1.30822 3.64643 0
M  V30 20730 H 1907.36 0.228276 5.24003 0
M  V30 20731 H 1908.83 -1.48014 5.31785 0
M  V30 20732 H 1909.31 -2.21827 3.79064 0
M  V30 20733 H 1909.91 -0.59964 4.21052 0
M  V30 20734 N 1908.23 -1.57291 0.0985816 0
M  V30 20735 C 1909.17 -2.14215 -0.8591 0
M  V30 20736 C 1910.14 -1.06162 -1.27745 0
M  V30 20737 O 1911.33 -1.33967 -1.35858 0
M  V30 20738 C 1908.47 -2.72963 -2.11152 0
M  V30 20739 C 1907.58 -3.95259 -1.74339 0
M  V30 20740 C 1906.72 -4.4216 -2.94394 0
M  V30 20741 C 1905.76 -5.57038 -2.53723 0
M  V30 20742 N 1904.89 -5.98775 -3.66624 0
M  V30 20743 H 1909.73 -2.95734 -0.366821 0
M  V30 20744 H 1907.27 -1.46121 -0.169388 0
M  V30 20745 H 1909.23 -3.05145 -2.84504 0
M  V30 20746 H 1907.86 -1.94167 -2.57874 0
M  V30 20747 H 1906.91 -3.69369 -0.90942 0
M  V30 20748 H 1908.22 -4.78622 -1.40436 0
M  V30 20749 H 1907.38 -4.76144 -3.75994 0
M  V30 20750 H 1906.12 -3.57705 -3.31509 0
M  V30 20751 H 1905.12 -5.22678 -1.7055 0
M  V30 20752 H 1906.35 -6.43244 -2.17748 0
M  V30 20753 H 1904.29 -5.17265 -4.03451 0
M  V30 20754 H 1904.21 -6.76943 -3.36578 0
M  V30 20755 H 1905.48 -6.3739 -4.48725 0
M  V30 20756 N 1909.71 0.175127 -1.56624 0
M  V30 20757 C 1911.12 0.737951 -1.71497 0
M  V30 20758 C 1911.47 1.82962 -0.708475 0
M  V30 20759 O 1910.59 2.16003 0.13096 0
M  V30 20760 C 1911.19 1.34536 -3.10943 0
M  V30 20761 C 1909.75 1.85505 -3.27513 0
M  V30 20762 C 1908.89 0.732564 -2.67449 0
M  V30 20763 H 1911.84 -0.0502185 -1.58621 0
M  V30 20764 H 1911.87 2.21502 -3.09382 0
M  V30 20765 H 1911.38 0.5506 -3.84174 0
M  V30 20766 H 1909.48 2.67637 -2.59232 0
M  V30 20767 H 1909.59 2.00311 -4.35215 0
M  V30 20768 H 1907.96 1.15203 -2.27157 0
M  V30 20769 H 1908.74 -0.050288 -3.43263 0
M  V30 20770 N 1911.18 1.5123 0.44355 0
M  V30 20771 C 1912.43 1.63833 1.19527 0
M  V30 20772 C 1912.76 0.350544 1.9101 0
M  V30 20773 O 1912.04 -0.649546 1.83333 0
M  V30 20774 C 1912.32 2.83747 2.21719 0
M  V30 20775 C 1912.17 4.22484 1.5436 0
M  V30 20776 C 1913.49 2.99184 3.22765 0
M  V30 20777 H 1910.61 0.596256 0.433184 0
M  V30 20778 H 1913.25 1.83697 0.485321 0
M  V30 20779 H 1911.4 2.66942 2.82267 0
M  V30 20780 H 1913.08 4.50944 0.971976 0
M  V30 20781 H 1911.32 4.25469 0.846069 0
M  V30 20782 H 1911.99 5.0237 2.28754 0
M  V30 20783 H 1914.47 3.14659 2.72266 0
M  V30 20784 H 1913.34 3.84663 3.91569 0
M  V30 20785 H 1913.6 2.10984 3.88508 0
M  V30 20786 N 1912.66 -0.698586 1.41271 0
M  V30 20787 C 1913.91 -1.45425 1.39766 0
M  V30 20788 C 1914.22 -1.95598 0.00891528 0
M  V30 20789 O 1915.43 -2.71195 -0.128757 0
M  V30 20790 C 1913.89 -2.62952 2.45732 0
M  V30 20791 C 1913.49 -2.19578 3.90499 0
M  V30 20792 C 1915.24 -3.40602 2.53359 0
M  V30 20793 C 1913.14 -3.34046 4.88024 0
M  V30 20794 H 1912.07 -0.546236 0.519752 0
M  V30 20795 H 1914.73 -0.758678 1.67082 0
M  V30 20796 H 1913.11 -3.34762 2.11542 0
M  V30 20797 H 1914.28 -1.55077 4.33921 0
M  V30 20798 H 1912.6 -1.5493 3.86504 0
M  V30 20799 H 1915.19 -4.25809 3.23405 0
M  V30 20800 H 1915.54 -3.85582 1.56946 0
M  V30 20801 H 1916.07 -2.75846 2.86625 0
M  V30 20802 H 1912.81 -2.94081 5.8583 0
M  V30 20803 H 1912.33 -3.97407 4.49253 0
M  V30 20804 H 1914.01 -3.99867 5.0864 0
M  V30 20805 N 1914.14 -1.27049 -0.93254 0
M  V30 20806 C 1915.37 -1.15735 -1.7114 0
M  V30 20807 C 1915.78 0.289069 -1.86979 0
M  V30 20808 O 1915.12 1.20906 -1.38302 0
M  V30 20809 C 1915.18 -1.76319 -3.13292 0
M  V30 20810 C 1914.85 -3.25471 -3.20808 0
M  V30 20811 C 1915.84 -4.22172 -3.03425 0
M  V30 20812 C 1913.53 -3.66092 -3.43921 0
M  V30 20813 C 1915.52 -5.57471 -3.09038 0
M  V30 20814 C 1913.21 -5.01522 -3.49168 0
M  V30 20815 C 1914.21 -5.97022 -3.31744 0
M  V30 20816 O 1913.9 -7.29985 -3.36716 0
M  V30 20817 H 1913.63 -0.403495 -0.542372 0
M  V30 20818 H 1916.18 -1.68334 -1.17698 0
M  V30 20819 H 1914.41 -1.18192 -3.68195 0
M  V30 20820 H 1916.1 -1.59788 -3.73125 0
M  V30 20821 H 1916.87 -3.92127 -2.85415 0
M  V30 20822 H 1912.75 -2.92238 -3.56536 0
M  V30 20823 H 1916.29 -6.3199 -2.95356 0
M  V30 20824 H 1912.19 -5.31225 -3.66702 0
M  V30 20825 H 1912.95 -7.3837 -3.53203 0
M  V30 20826 N 1915.62 1.13835 -1.08993 0
M  V30 20827 C 1916.87 1.84361 -0.818161 0
M  V30 20828 C 1917.18 1.84185 0.658437 0
M  V30 20829 O 1918.39 2.50559 1.04558 0
M  V30 20830 C 1916.84 3.30973 -1.41367 0
M  V30 20831 C 1916.45 3.3955 -2.92249 0
M  V30 20832 C 1918.19 4.06571 -1.22066 0
M  V30 20833 C 1916.1 4.80408 -3.44908 0
M  V30 20834 H 1915.03 0.690704 -0.302397 0
M  V30 20835 H 1917.68 1.28283 -1.31208 0
M  V30 20836 H 1916.06 3.86826 -0.84745 0
M  V30 20837 H 1917.24 2.93716 -3.5506 0
M  V30 20838 H 1915.55 2.77413 -3.10533 0
M  V30 20839 H 1918.15 5.10554 -1.58868 0
M  V30 20840 H 1918.49 4.15989 -0.160946 0
M  V30 20841 H 1919.03 3.57036 -1.75415 0
M  V30 20842 H 1915.76 4.76181 -4.5048 0
M  V30 20843 H 1915.28 5.26756 -2.86859 0
M  V30 20844 H 1916.96 5.49315 -3.4185 0
M  V30 20845 N 1917.1 0.876467 1.3098 0
M  V30 20846 C 1918.32 0.504524 2.0117 0
M  V30 20847 C 1918.75 -0.897295 1.65319 0
M  V30 20848 O 1918.1 -1.59321 0.865255 0
M  V30 20849 C 1918.15 0.676516 3.54197 0
M  V30 20850 O 1917.26 -0.28134 4.11439 0
M  V30 20851 H 1916.6 0.199855 0.633209 0
M  V30 20852 H 1919.13 1.18167 1.67026 0
M  V30 20853 H 1919.14 0.572273 4.03967 0
M  V30 20854 H 1917.81 1.69864 3.7963 0
M  V30 20855 H 1916.39 -0.131506 3.72668 0
M  V30 20856 N 1918.57 -1.44173 0.636557 0
M  V30 20857 C 1919.82 -2.01209 0.140639 0
M  V30 20858 C 1920.14 -1.50704 -1.2469 0
M  V30 20859 O 1921.34 -1.99904 -1.83713 0
M  V30 20860 C 1919.8 -3.5934 0.20066 0
M  V30 20861 C 1919.41 -4.18841 1.58985 0
M  V30 20862 C 1921.15 -4.23829 -0.238514 0
M  V30 20863 C 1919.06 -5.69213 1.60469 0
M  V30 20864 H 1917.99 -0.752418 0.0488124 0
M  V30 20865 H 1920.64 -1.65329 0.796151 0
M  V30 20866 H 1919.02 -3.92544 -0.522054 0
M  V30 20867 H 1920.19 -3.97165 2.33658 0
M  V30 20868 H 1918.51 -3.66659 1.97357 0
M  V30 20869 H 1921.11 -5.34129 -0.247033 0
M  V30 20870 H 1921.45 -3.96556 -1.26685 0
M  V30 20871 H 1921.98 -3.95449 0.431887 0
M  V30 20872 H 1918.72 -6.01229 2.61158 0
M  V30 20873 H 1918.24 -5.92995 0.900975 0
M  V30 20874 H 1919.92 -6.3295 1.34104 0
M  V30 20875 N 1920.05 -0.377435 -1.53014 0
M  V30 20876 C 1921.3 0.208118 -2.01026 0
M  V30 20877 C 1921.62 1.48307 -1.26609 0
M  V30 20878 O 1920.89 1.92125 -0.382732 0
M  V30 20879 H 1919.47 0.0798957 -0.742715 0
M  V30 20880 H 1922.13 -0.506396 -1.88206 0
M  V30 20881 H 1921.23 0.426737 -3.09169 0
M  V30 20882 N 1921.53 1.57237 -0.106922 0
M  V30 20883 C 1922.44 2.18202 0.861685 0
M  V30 20884 C 1923.46 1.15476 1.30159 0
M  V30 20885 O 1924.63 1.47896 1.36707 0
M  V30 20886 C 1921.7 2.7598 2.09847 0
M  V30 20887 C 1920.76 3.93702 1.71164 0
M  V30 20888 C 1919.99 4.48716 2.88946 0
M  V30 20889 O 1920.21 4.02645 4.04021 0
M  V30 20890 O 1919.15 5.39573 2.66729 0
M  V30 20891 H 1922.97 3.01402 0.372924 0
M  V30 20892 H 1920.56 1.48933 0.118058 0
M  V30 20893 H 1922.44 3.12861 2.82305 0
M  V30 20894 H 1921.12 1.9582 2.57753 0
M  V30 20895 H 1920.02 3.61613 0.958499 0
M  V30 20896 H 1921.36 4.75262 1.28011 0
M  V30 20897 N 1923.01 -0.166818 1.56715 0
M  V30 20898 C 1924.26 -0.881043 1.8144 0
M  V30 20899 C 1924.57 -1.83216 0.684925 0
M  V30 20900 O 1925.78 -2.58908 0.817234 0
M  V30 20901 C 1924.23 -1.61724 3.21517 0
M  V30 20902 C 1923.84 -0.709534 4.42346 0
M  V30 20903 C 1925.58 -2.31943 3.55532 0
M  V30 20904 C 1923.49 -1.44622 5.73444 0
M  V30 20905 H 1922.42 -0.332741 0.676609 0
M  V30 20906 H 1925.07 -0.133924 1.83011 0
M  V30 20907 H 1923.45 -2.40928 3.14277 0
M  V30 20908 H 1924.63 0.0458591 4.60777 0
M  V30 20909 H 1922.94 -0.116776 4.16236 0
M  V30 20910 H 1925.54 -2.87662 4.50727 0
M  V30 20911 H 1925.88 -3.07495 2.80629 0
M  V30 20912 H 1926.42 -1.59678 3.64346 0
M  V30 20913 H 1923.16 -0.732937 6.51389 0
M  V30 20914 H 1922.68 -2.17483 5.58982 0
M  V30 20915 H 1924.35 -1.9925 6.15555 0
M  V30 20916 N 1924.49 -1.51463 -0.435524 0
M  V30 20917 C 1925.74 -1.63454 -1.18176 0
M  V30 20918 C 1926.05 -0.357501 -1.92305 0
M  V30 20919 O 1927.25 -0.356815 -2.69145 0
M  V30 20920 C 1925.71 -2.88676 -2.14928 0
M  V30 20921 C 1925.32 -4.23391 -1.46438 0
M  V30 20922 C 1927.06 -3.10025 -2.89974 0
M  V30 20923 C 1924.97 -5.39761 -2.41685 0
M  V30 20924 H 1923.9 -0.608812 -0.444819 0
M  V30 20925 H 1926.55 -1.77931 -0.448635 0
M  V30 20926 H 1924.93 -2.67837 -2.91683 0
M  V30 20927 H 1926.11 -4.54618 -0.75229 0
M  V30 20928 H 1924.42 -4.07934 -0.835385 0
M  V30 20929 H 1927.02 -3.9414 -3.61327 0
M  V30 20930 H 1927.36 -2.23177 -3.51423 0
M  V30 20931 H 1927.89 -3.31213 -2.20325 0
M  V30 20932 H 1924.63 -6.28875 -1.84922 0
M  V30 20933 H 1924.15 -5.12908 -3.10943 0
M  V30 20934 H 1925.83 -5.71783 -3.02776 0
M  V30 20935 N 1925.96 0.691085 -1.4164 0
M  V30 20936 C 1926.91 1.82625 -1.44051 0
M  V30 20937 C 1927.91 1.66388 -0.318032 0
M  V30 20938 O 1929.11 1.73194 -0.490276 0
M  V30 20939 H 1925.49 0.601889 -0.450815 0
M  V30 20940 H 1927.46 1.77709 -2.39713 0
M  V30 20941 C 1926.21 3.20676 -1.34395 0
M  V30 20942 H 1925.53 3.3379 -2.20056 0
M  V30 20943 H 1926.97 4.0017 -1.40143 0
M  V30 20944 C 1925.43 3.36852 -0.0568027 0
M  V30 20945 O 1925.96 3.91562 0.896762 0
M  V30 20946 N 1924.17 2.90593 0.0207452 0
M  V30 20947 H 1923.71 2.46257 -0.755995 0
M  V30 20948 H 1923.67 3.01794 0.88136 0
M  V30 20949 N 1927.44 1.27542 0.925789 0
M  V30 20950 C 1928.67 1.1681 1.70772 0
M  V30 20951 C 1929.09 -0.274824 1.86789 0
M  V30 20952 O 1928.44 -1.18694 1.38629 0
M  V30 20953 C 1928.49 1.84904 3.10633 0
M  V30 20954 O 1928.21 3.23559 2.95366 0
M  V30 20955 C 1929.72 1.80322 4.04968 0
M  V30 20956 H 1926.94 0.406036 0.534206 0
M  V30 20957 H 1929.48 1.68448 1.15955 0
M  V30 20958 H 1927.63 1.37166 3.62304 0
M  V30 20959 H 1928.05 3.57488 3.838 0
M  V30 20960 H 1929.52 2.32577 5.00611 0
M  V30 20961 H 1930 0.772975 4.32344 0
M  V30 20962 H 1930.61 2.27683 3.59222 0
M  V30 20963 N 1928.92 -1.13255 1.09595 0
M  V30 20964 C 1929.87 -2.16783 0.706325 0
M  V30 20965 C 1930.85 -1.58442 -0.280181 0
M  V30 20966 O 1932.05 -1.7677 -0.0902771 0
M  V30 20967 C 1929.18 -3.43053 0.130333 0
M  V30 20968 C 1928.26 -4.08397 1.14336 0
M  V30 20969 N 1928.65 -4.48881 2.33107 0
M  V30 20970 C 1926.95 -4.35057 0.981893 0
M  V30 20971 C 1927.65 -4.99832 2.97562 0
M  V30 20972 N 1926.63 -4.94797 2.25115 0
M  V30 20973 H 1930.43 -2.45841 1.61058 0
M  V30 20974 H 1927.94 -1.30069 0.972415 0
M  V30 20975 H 1929.94 -4.16566 -0.166824 0
M  V30 20976 H 1928.6 -3.15468 -0.768749 0
M  V30 20977 H 1929.61 -4.4153 2.70688 0
M  V30 20978 H 1926.29 -4.17273 0.137641 0
M  V30 20979 H 1927.68 -5.40938 3.98542 0
M  V30 20980 N 1930.4 -0.883401 -1.30514 0
M  V30 20981 C 1931.63 -0.515948 -2.00364 0
M  V30 20982 C 1932.04 0.895148 -1.6623 0
M  V30 20983 O 1931.4 1.58844 -0.898601 0
M  V30 20984 C 1931.45 -0.679282 -3.55061 0
M  V30 20985 O 1931.17 -2.03482 -3.87978 0
M  V30 20986 C 1932.67 -0.314612 -4.42182 0
M  V30 20987 H 1929.89 -0.199595 -0.640627 0
M  V30 20988 H 1932.44 -1.18827 -1.66435 0
M  V30 20989 H 1930.59 -0.0543511 -3.87362 0
M  V30 20990 H 1931 -2.0523 -4.82681 0
M  V30 20991 H 1932.48 -0.4798 -5.49911 0
M  V30 20992 H 1932.96 0.747247 -4.32797 0
M  V30 20993 H 1933.56 -0.9158 -4.15323 0
M  V30 20994 N 1931.88 1.43833 -0.644194 0
M  V30 20995 C 1932.81 2.33467 0.0394911 0
M  V30 20996 C 1933.79 1.48957 0.821339 0
M  V30 20997 O 1934.97 1.77644 0.784618 0
M  V30 20998 C 1932.1 3.32205 1.01277 0
M  V30 20999 C 1931.06 4.26634 0.341666 0
M  V30 21000 C 1930.38 5.15341 1.42577 0
M  V30 21001 C 1931.68 5.16737 -0.760299 0
M  V30 21002 H 1933.38 2.90883 -0.709025 0
M  V30 21003 H 1930.92 1.3987 -0.342413 0
M  V30 21004 H 1932.88 3.93803 1.49991 0
M  V30 21005 H 1931.6 2.73025 1.79234 0
M  V30 21006 H 1930.26 3.66387 -0.124937 0
M  V30 21007 H 1929.91 4.52505 2.19654 0
M  V30 21008 H 1929.61 5.79336 0.98203 0
M  V30 21009 H 1931.13 5.79811 1.91444 0
M  V30 21010 H 1932.54 5.72195 -0.355713 0
M  V30 21011 H 1930.94 5.89404 -1.12796 0
M  V30 21012 H 1932.01 4.56966 -1.62204 0
M  V30 21013 N 1933.35 0.385544 1.52811 0
M  V30 21014 C 1934.28 -0.442951 2.2926 0
M  V30 21015 C 1935.27 -1.06674 1.32494 0
M  V30 21016 O 1936.45 -1.08022 1.61384 0
M  V30 21017 C 1933.58 -1.57243 3.09664 0
M  V30 21018 C 1932.53 -1.07488 4.14283 0
M  V30 21019 C 1931.86 -2.29614 4.82889 0
M  V30 21020 C 1933.16 -0.145479 5.22097 0
M  V30 21021 H 1934.85 0.1949 2.98765 0
M  V30 21022 H 1932.4 0.0951762 1.43685 0
M  V30 21023 H 1934.35 -2.15882 3.61902 0
M  V30 21024 H 1933.08 -2.23781 2.37885 0
M  V30 21025 H 1931.74 -0.511047 3.6302 0
M  V30 21026 H 1931.38 -2.94653 4.07662 0
M  V30 21027 H 1931.08 -1.96985 5.53598 0
M  V30 21028 H 1932.61 -2.88902 5.37929 0
M  V30 21029 H 1934.02 -0.639941 5.69717 0
M  V30 21030 H 1932.42 0.0908687 6.00031 0
M  V30 21031 H 1933.49 0.806707 4.78142 0
M  V30 21032 N 1934.83 -1.57178 0.115259 0
M  V30 21033 C 1935.76 -2.18134 -0.833042 0
M  V30 21034 C 1936.74 -1.12033 -1.27995 0
M  V30 21035 O 1937.93 -1.40254 -1.34323 0
M  V30 21036 C 1935.06 -2.77778 -2.08463 0
M  V30 21037 C 1934.01 -3.89429 -1.77565 0
M  V30 21038 C 1933.34 -4.35863 -3.09722 0
M  V30 21039 C 1934.64 -5.11701 -1.04687 0
M  V30 21040 H 1936.33 -2.9763 -0.325107 0
M  V30 21041 H 1933.88 -1.43164 -0.154933 0
M  V30 21042 H 1935.83 -3.19079 -2.75258 0
M  V30 21043 H 1934.56 -1.95566 -2.61575 0
M  V30 21044 H 1933.21 -3.48698 -1.13161 0
M  V30 21045 H 1932.86 -3.50515 -3.6076 0
M  V30 21046 H 1932.56 -5.11152 -2.89823 0
M  V30 21047 H 1934.09 -4.79812 -3.77641 0
M  V30 21048 H 1935.5 -5.50045 -1.61628 0
M  V30 21049 H 1933.9 -5.92549 -0.948964 0
M  V30 21050 H 1934.97 -4.84889 -0.032977 0
M  V30 21051 N 1936.31 0.158505 -1.56801 0
M  V30 21052 C 1937.59 0.901061 -1.73609 0
M  V30 21053 C 1937.97 1.99842 -0.680163 0
M  V30 21054 O 1937.32 2.26484 0.302892 0
M  V30 21055 C 1937.53 1.45407 -3.17266 0
M  V30 21056 C 1938.87 1.92199 -3.78609 0
M  V30 21057 O 1939.9 1.55173 -3.20624 0
M  V30 21058 O 1938.76 2.60443 -4.80449 0
M  V30 21059 H 1935.85 0.425009 -0.709434 0
M  V30 21060 H 1938.4 0.14533 -1.69077 0
M  V30 21061 H 1937.17 0.664882 -3.8561 0
M  V30 21062 H 1936.79 2.27363 -3.26178 0
M  V30 21063 N 1937.79 1.51692 0.427485 0
M  V30 21064 C 1938.74 1.70099 1.51823 0
M  V30 21065 C 1939.72 0.554908 1.51028 0
M  V30 21066 O 1940.92 0.811233 1.57315 0
M  V30 21067 C 1938.04 1.8384 2.89927 0
M  V30 21068 C 1937.13 3.04263 2.9544 0
M  V30 21069 N 1937.52 4.27277 2.7068 0
M  V30 21070 C 1935.82 3.0372 3.26604 0
M  V30 21071 C 1936.52 5.08613 2.8229 0
M  V30 21072 N 1935.5 4.43468 3.14384 0
M  V30 21073 H 1939.3 2.62867 1.31447 0
M  V30 21074 H 1936.81 1.49473 0.63494 0
M  V30 21075 H 1938.81 1.95139 3.6841 0
M  V30 21076 H 1937.47 0.922599 3.11317 0
M  V30 21077 H 1938.48 4.56058 2.45421 0
M  V30 21078 H 1935.16 2.21808 3.53705 0
M  V30 21079 H 1936.55 6.16564 2.67017 0
M  V30 21080 N 1939.27 -0.683564 1.42004 0
M  V30 21081 C 1940.2 -1.80902 1.40737 0
M  V30 21082 C 1941.21 -1.59865 0.307725 0
M  V30 21083 O 1942.4 -1.69146 0.570244 0
M  V30 21084 C 1939.5 -3.17867 1.17533 0
M  V30 21085 C 1938.67 -3.65829 2.39766 0
M  V30 21086 C 1937.73 -4.81499 2.12238 0
M  V30 21087 O 1936.76 -4.92495 2.85371 0
M  V30 21088 N 1937.96 -5.69592 1.12006 0
M  V30 21089 H 1940.73 -1.82478 2.37744 0
M  V30 21090 H 1938.29 -0.866335 1.36771 0
M  V30 21091 H 1940.28 -3.92891 0.970489 0
M  V30 21092 H 1938.85 -3.11244 0.290811 0
M  V30 21093 H 1938.07 -2.81579 2.75874 0
M  V30 21094 H 1939.36 -3.94615 3.2118 0
M  V30 21095 H 1938.76 -5.63351 0.515003 0
M  V30 21096 H 1937.31 -6.44465 0.975098 0
M  V30 21097 N 1940.75 -1.28031 -0.919012 0
M  V30 21098 C 1942.02 -1.05588 -1.64653 0
M  V30 21099 C 1942.4 0.406513 -2.07149 0
M  V30 21100 O 1941.75 1.39153 -1.81242 0
M  V30 21101 C 1941.96 -2.0256 -2.84202 0
M  V30 21102 C 1943.31 -2.32414 -3.55343 0
M  V30 21103 O 1944.33 -2.00602 -2.94342 0
M  V30 21104 O 1943.19 -2.86683 -4.65269 0
M  V30 21105 H 1940.29 -0.40316 -0.722074 0
M  V30 21106 H 1942.83 -1.3933 -0.968781 0
M  V30 21107 H 1941.6 -3.01146 -2.49853 0
M  V30 21108 H 1941.23 -1.69433 -3.59692 0
M  V30 21109 N 1942.22 1.12672 -1.10194 0
M  V30 21110 C 1943.19 2.16513 -0.751974 0
M  V30 21111 C 1944.19 1.59255 0.222352 0
M  V30 21112 O 1945.38 1.742 -0.000482744 0
M  V30 21113 C 1942.51 3.40711 -0.113421 0
M  V30 21114 H 1943.7 2.48986 -1.67171 0
M  V30 21115 H 1941.25 1.27637 -0.90214 0
M  V30 21116 H 1941.99 3.13836 0.817162 0
M  V30 21117 H 1941.77 3.83545 -0.814599 0
M  V30 21118 H 1943.26 4.1744 0.115756 0
M  V30 21119 N 1943.7 0.89031 1.30043 0
M  V30 21120 C 1944.95 0.507478 1.95212 0
M  V30 21121 C 1945.26 -0.949179 1.71026 0
M  V30 21122 O 1946.47 -1.4391 2.30222 0
M  V30 21123 C 1944.93 0.856657 3.49556 0
M  V30 21124 C 1944.53 2.33145 3.82554 0
M  V30 21125 C 1946.28 0.543281 4.21009 0
M  V30 21126 C 1944.18 2.62198 5.301 0
M  V30 21127 H 1943.11 0.186056 0.730684 0
M  V30 21128 H 1945.77 1.08602 1.47912 0
M  V30 21129 H 1944.15 0.207146 3.95458 0
M  V30 21130 H 1945.32 3.02572 3.47544 0
M  V30 21131 H 1943.64 2.61289 3.24217 0
M  V30 21132 H 1946.23 0.737312 5.29592 0
M  V30 21133 H 1946.58 -0.517644 4.13069 0
M  V30 21134 H 1947.11 1.15022 3.80808 0
M  V30 21135 H 1943.85 3.67052 5.43096 0
M  V30 21136 H 1943.37 1.97385 5.66392 0
M  V30 21137 H 1945.05 2.47975 5.97593 0
M  V30 21138 N 1945.18 -1.43489 0.651812 0
M  V30 21139 C 1946.14 -2.29179 -0.0311937 0
M  V30 21140 C 1947.14 -1.42135 -0.751953 0
M  V30 21141 O 1948.33 -1.63781 -0.593416 0
M  V30 21142 C 1945.46 -3.24168 -1.0549 0
M  V30 21143 H 1946.66 -2.91061 0.722741 0
M  V30 21144 H 1944.21 -1.50746 0.412968 0
M  V30 21145 H 1944.95 -2.67177 -1.83812 0
M  V30 21146 H 1944.73 -3.88339 -0.541752 0
M  V30 21147 H 1946.22 -3.88487 -1.53193 0
M  V30 21148 N 1946.66 -0.393643 -1.52605 0
M  V30 21149 C 1948.07 0.0794242 -1.86531 0
M  V30 21150 C 1948.42 1.45778 -1.31313 0
M  V30 21151 O 1947.54 2.06526 -0.646206 0
M  V30 21152 C 1948.14 0.150899 -3.38464 0
M  V30 21153 C 1946.7 0.568268 -3.72086 0
M  V30 21154 C 1945.85 -0.267031 -2.76011 0
M  V30 21155 H 1948.8 -0.611344 -1.46452 0
M  V30 21156 H 1948.82 0.969194 -3.6795 0
M  V30 21157 H 1948.33 -0.852425 -3.78623 0
M  V30 21158 H 1946.43 1.5788 -3.37498 0
M  V30 21159 H 1946.54 0.323405 -4.78007 0
M  V30 21160 H 1944.91 0.268347 -2.53282 0
M  V30 21161 H 1945.69 -1.26841 -3.19008 0
M  V30 21162 N 1948.14 1.57115 -0.123593 0
M  V30 21163 C 1949.05 2.19104 0.838493 0
M  V30 21164 C 1950.06 1.1685 1.28927 0
M  V30 21165 O 1951.24 1.49337 1.35131 0
M  V30 21166 C 1948.3 2.78191 2.06908 0
M  V30 21167 C 1947.36 3.95495 1.66979 0
M  V30 21168 C 1946.6 4.51755 2.84171 0
M  V30 21169 O 1946.82 4.06908 3.99728 0
M  V30 21170 O 1945.75 5.42372 2.60991 0
M  V30 21171 H 1949.58 3.0178 0.340935 0
M  V30 21172 H 1947.16 1.4905 0.102255 0
M  V30 21173 H 1949.05 3.15837 2.78971 0
M  V30 21174 H 1947.72 1.98542 2.55661 0
M  V30 21175 H 1946.63 3.62609 0.920091 0
M  V30 21176 H 1947.96 4.76593 1.22963 0
M  V30 21177 N 1949.61 -0.150187 1.56883 0
M  V30 21178 C 1950.56 -1.19064 1.94442 0
M  V30 21179 C 1951.55 -1.38715 0.815284 0
M  V30 21180 O 1952.74 -1.40331 1.07871 0
M  V30 21181 C 1949.87 -2.52506 2.32585 0
M  V30 21182 C 1948.95 -2.3646 3.52062 0
M  V30 21183 N 1949.35 -1.90165 4.68691 0
M  V30 21184 C 1947.64 -2.67222 3.57083 0
M  V30 21185 C 1948.34 -1.87087 5.50793 0
M  V30 21186 N 1947.32 -2.30281 4.92414 0
M  V30 21187 H 1951.12 -0.824746 2.82091 0
M  V30 21188 H 1948.64 -0.358273 1.58399 0
M  V30 21189 H 1950.63 -3.27717 2.57696 0
M  V30 21190 H 1949.29 -2.8988 1.46286 0
M  V30 21191 H 1950.3 -1.60179 4.92507 0
M  V30 21192 H 1946.98 -3.08492 2.81316 0
M  V30 21193 H 1948.37 -1.52813 6.54292 0
M  V30 21194 N 1951.09 -1.51916 -0.419434 0
M  V30 21195 C 1952.04 -1.75117 -1.5309 0
M  V30 21196 C 1953.03 -0.617961 -1.57726 0
M  V30 21197 O 1954.24 -0.79977 -1.61257 0
M  V30 21198 H 1950.62 -0.553609 -0.508941 0
M  V30 21199 H 1952.59 -2.68253 -1.30702 0
M  V30 21200 C 1951.34 -1.90958 -2.90569 0
M  V30 21201 H 1950.66 -2.77571 -2.8774 0
M  V30 21202 H 1952.1 -2.11196 -3.67658 0
M  V30 21203 C 1950.56 -0.673977 -3.3009 0
M  V30 21204 O 1951.09 0.163 -4.01369 0
M  V30 21205 N 1949.29 -0.512857 -2.86039 0
M  V30 21206 H 1948.84 -1.19505 -2.28202 0
M  V30 21207 H 1948.8 0.312589 -3.12842 0
M  V30 21208 N 1952.57 0.676023 -1.42365 0
M  V30 21209 C 1953.85 1.43189 -1.33252 0
M  V30 21210 C 1954.23 2.11078 0.0306765 0
M  V30 21211 O 1953.58 2.03148 1.0461 0
M  V30 21212 C 1953.79 2.43534 -2.49984 0
M  V30 21213 C 1955.13 3.08213 -2.92044 0
M  V30 21214 O 1956.16 2.53861 -2.49866 0
M  V30 21215 O 1955.02 4.06702 -3.65042 0
M  V30 21216 H 1952.11 0.638626 -0.525438 0
M  V30 21217 H 1954.66 0.704851 -1.5437 0
M  V30 21218 H 1953.43 1.92159 -3.40867 0
M  V30 21219 H 1953.05 3.23721 -2.30847 0
M  V30 21220 N 1954.05 1.28517 0.912209 0
M  V30 21221 C 1955.46 1.14251 1.4766 0
M  V30 21222 C 1955.81 -0.266935 1.94376 0
M  V30 21223 O 1954.94 -1.16134 1.82598 0
M  V30 21224 C 1955.53 2.06792 2.6837 0
M  V30 21225 C 1954.09 1.96587 3.20984 0
M  V30 21226 C 1953.24 1.98444 1.93689 0
M  V30 21227 H 1956.19 1.41184 0.724769 0
M  V30 21228 H 1956.21 1.63282 3.43685 0
M  V30 21229 H 1955.72 3.09365 2.34339 0
M  V30 21230 H 1953.82 0.970565 3.59737 0
M  V30 21231 H 1953.93 2.83622 3.86129 0
M  V30 21232 H 1952.3 1.42872 2.10855 0
M  V30 21233 H 1953.08 3.02699 1.61951 0
M  V30 21234 N 1955.53 -1.12086 1.1079 0
M  V30 21235 C 1956.78 -1.83036 0.847387 0
M  V30 21236 C 1957.09 -1.85209 -0.629051 0
M  V30 21237 O 1958.29 -2.52191 -1.00559 0
M  V30 21238 C 1956.75 -3.28682 1.46615 0
M  V30 21239 C 1956.36 -3.34858 2.97614 0
M  V30 21240 C 1958.1 -4.04578 1.28519 0
M  V30 21241 C 1956.01 -4.7486 3.52508 0
M  V30 21242 H 1954.94 -0.685806 0.313347 0
M  V30 21243 H 1957.59 -1.2618 1.33233 0
M  V30 21244 H 1955.97 -3.85429 0.908883 0
M  V30 21245 H 1957.15 -2.8803 3.59688 0
M  V30 21246 H 1955.46 -2.72438 3.14907 0
M  V30 21247 H 1958.06 -5.07962 1.6697 0
M  V30 21248 H 1958.4 -4.1568 0.227105 0
M  V30 21249 H 1958.93 -3.542 1.81073 0
M  V30 21250 H 1955.67 -4.68954 4.57999 0
M  V30 21251 H 1955.19 -5.22125 2.95203 0
M  V30 21252 H 1956.87 -5.43807 3.50546 0
M  V30 21253 N 1957 -0.897194 -1.29569 0
M  V30 21254 C 1957.95 -0.344408 -2.25384 0
M  V30 21255 C 1958.94 0.534097 -1.51777 0
M  V30 21256 O 1960.13 0.376524 -1.72949 0
M  V30 21257 C 1957.26 0.429246 -3.40606 0
M  V30 21258 C 1956.35 -0.464038 -4.21554 0
M  V30 21259 N 1956.74 -1.57011 -4.80813 0
M  V30 21260 C 1955.03 -0.26137 -4.45233 0
M  V30 21261 C 1955.74 -2.12323 -5.41566 0
M  V30 21262 N 1954.71 -1.41659 -5.24818 0
M  V30 21263 H 1958.51 -1.18938 -2.68758 0
M  V30 21264 H 1956.03 -0.747965 -1.4415 0
M  V30 21265 H 1958.02 0.84199 -4.08309 0
M  V30 21266 H 1956.68 1.27151 -2.98769 0
M  V30 21267 H 1957.7 -1.95287 -4.7967 0
M  V30 21268 H 1954.37 0.542726 -4.13957 0
M  V30 21269 H 1955.76 -3.05274 -5.98546 0
M  V30 21270 N 1958.48 1.43142 -0.659413 0
M  V30 21271 C 1959.39 2.34582 0.0288714 0
M  V30 21272 C 1960.41 1.54232 0.805512 0
M  V30 21273 O 1961.58 1.8686 0.751347 0
M  V30 21274 C 1958.65 3.32587 0.97912 0
M  V30 21275 C 1957.71 4.2884 0.198725 0
M  V30 21276 C 1956.94 5.22163 1.10371 0
M  V30 21277 O 1957.17 5.20054 2.34308 0
M  V30 21278 O 1956.1 5.99168 0.572785 0
M  V30 21279 H 1959.93 2.94945 -0.723947 0
M  V30 21280 H 1957.51 1.43386 -0.419609 0
M  V30 21281 H 1959.39 3.92836 1.52505 0
M  V30 21282 H 1958.07 2.74719 1.71206 0
M  V30 21283 H 1956.98 3.72052 -0.390942 0
M  V30 21284 H 1958.31 4.89707 -0.494774 0
M  V30 21285 N 1959.96 0.40173 1.52394 0
M  V30 21286 C 1960.89 -0.41861 2.29717 0
M  V30 21287 C 1961.87 -1.05263 1.33618 0
M  V30 21288 O 1963.06 -1.06304 1.62521 0
M  V30 21289 C 1960.19 -1.5395 3.11314 0
M  V30 21290 C 1959.14 -1.03088 4.154 0
M  V30 21291 C 1958.47 -2.2448 4.85297 0
M  V30 21292 C 1959.77 -0.0900956 5.22222 0
M  V30 21293 H 1961.46 0.226577 2.98541 0
M  V30 21294 H 1959.01 0.110411 1.43576 0
M  V30 21295 H 1960.96 -2.12031 3.64171 0
M  V30 21296 H 1959.68 -2.21246 2.40246 0
M  V30 21297 H 1958.34 -0.472515 3.63542 0
M  V30 21298 H 1957.99 -2.90313 4.10764 0
M  V30 21299 H 1957.69 -1.91103 5.55656 0
M  V30 21300 H 1959.21 -2.83181 5.40963 0
M  V30 21301 H 1960.63 -0.579479 5.70364 0
M  V30 21302 H 1959.03 0.154505 5.99901 0
M  V30 21303 H 1960.1 0.857375 4.7726 0
M  V30 21304 N 1961.44 -1.57047 0.131923 0
M  V30 21305 C 1962.37 -2.19006 -0.809859 0
M  V30 21306 C 1963.35 -1.13384 -1.26799 0
M  V30 21307 O 1964.53 -1.4167 -1.32827 0
M  V30 21308 C 1961.66 -2.79973 -2.05505 0
M  V30 21309 C 1960.62 -3.9129 -1.73424 0
M  V30 21310 C 1959.94 -4.39123 -3.05081 0
M  V30 21311 C 1961.24 -5.12783 -0.992535 0
M  V30 21312 H 1962.94 -2.97958 -0.293522 0
M  V30 21313 H 1960.48 -1.4332 -0.13974 0
M  V30 21314 H 1962.44 -3.2198 -2.71858 0
M  V30 21315 H 1961.16 -1.9833 -2.59486 0
M  V30 21316 H 1959.82 -3.49879 -1.09456 0
M  V30 21317 H 1959.47 -3.54322 -3.57022 0
M  V30 21318 H 1959.17 -5.14197 -2.84385 0
M  V30 21319 H 1960.69 -4.8379 -3.72531 0
M  V30 21320 H 1962.11 -5.51728 -1.55785 0
M  V30 21321 H 1960.5 -5.93522 -0.886062 0
M  V30 21322 H 1961.57 -4.84896 0.0184538 0
M  V30 21323 N 1962.92 0.141865 -1.5696 0
M  V30 21324 C 1964.19 0.882597 -1.74555 0
M  V30 21325 C 1964.57 1.9911 -0.701321 0
M  V30 21326 O 1963.92 2.26792 0.278854 0
M  V30 21327 C 1964.13 1.42034 -3.18791 0
M  V30 21328 C 1965.48 1.88172 -3.80626 0
M  V30 21329 O 1966.5 1.51764 -3.22252 0
M  V30 21330 O 1965.36 2.55333 -4.83185 0
M  V30 21331 H 1962.46 0.417461 -0.713902 0
M  V30 21332 H 1965 0.127389 -1.69221 0
M  V30 21333 H 1963.77 0.623945 -3.86293 0
M  V30 21334 H 1963.4 2.2389 -3.28571 0
M  V30 21335 N 1964.39 1.52136 0.411372 0
M  V30 21336 C 1965.67 1.56646 1.17138 0
M  V30 21337 C 1966.05 0.346143 2.08243 0
M  V30 21338 O 1965.4 -0.66715 2.18544 0
M  V30 21339 C 1965.61 2.89399 1.95063 0
M  V30 21340 C 1966.96 3.42316 2.51207 0
M  V30 21341 O 1967.98 2.91123 2.05245 0
M  V30 21342 O 1966.84 4.31703 3.35104 0
M  V30 21343 H 1963.93 0.63088 0.534715 0
M  V30 21344 H 1966.48 1.64463 0.418334 0
M  V30 21345 H 1965.25 3.69666 1.28308 0
M  V30 21346 H 1964.88 2.84864 2.77377 0
M  V30 21347 N 1965.87 -0.668464 1.42721 0
M  V30 21348 C 1966.8 -1.79375 1.49489 0
M  V30 21349 C 1967.78 -1.66442 0.350881 0
M  V30 21350 O 1968.97 -1.85767 0.566049 0
M  V30 21351 C 1966.1 -3.17712 1.40273 0
M  V30 21352 C 1965.05 -3.45389 2.52766 0
M  V30 21353 C 1964.38 -4.83367 2.28606 0
M  V30 21354 C 1965.68 -3.4165 3.95061 0
M  V30 21355 H 1967.37 -1.73968 2.43671 0
M  V30 21356 H 1964.92 -0.835548 1.1728 0
M  V30 21357 H 1966.87 -3.96173 1.43614 0
M  V30 21358 H 1965.6 -3.23811 0.425882 0
M  V30 21359 H 1964.26 -2.69292 2.48752 0
M  V30 21360 H 1963.9 -4.86124 1.292 0
M  V30 21361 H 1963.6 -5.02847 3.04005 0
M  V30 21362 H 1965.13 -5.64104 2.33707 0
M  V30 21363 H 1966.54 -4.1007 4.00644 0
M  V30 21364 H 1964.94 -3.72666 4.70362 0
M  V30 21365 H 1966.01 -2.40106 4.2128 0
M  V30 21366 N 1967.35 -1.28999 -0.905381 0
M  V30 21367 C 1968.6 -1.1641 -1.65207 0
M  V30 21368 C 1968.92 0.285952 -1.92892 0
M  V30 21369 O 1968.19 1.19672 -1.55098 0
M  V30 21370 H 1966.77 -0.427826 -0.612351 0
M  V30 21371 H 1969.43 -1.61845 -1.08592 0
M  V30 21372 H 1968.53 -1.70993 -2.6109 0
M  V30 21373 N 1968.83 1.11497 -1.11383 0
M  V30 21374 C 1969.74 2.21101 -0.784315 0
M  V30 21375 C 1970.76 1.72574 0.222313 0
M  V30 21376 O 1971.93 2.01315 0.058632 0
M  V30 21377 C 1969 3.45925 -0.231713 0
M  V30 21378 C 1968.06 4.09243 -1.29687 0
M  V30 21379 C 1967.29 5.28108 -0.770542 0
M  V30 21380 O 1967.51 5.68998 0.399616 0
M  V30 21381 O 1966.45 5.81996 -1.53505 0
M  V30 21382 H 1970.27 2.51699 -1.69946 0
M  V30 21383 H 1967.86 1.20022 -0.889672 0
M  V30 21384 H 1969.74 4.21338 0.0721248 0
M  V30 21385 H 1968.42 3.1698 0.656146 0
M  V30 21386 H 1967.32 3.35564 -1.65371 0
M  V30 21387 H 1968.66 4.42365 -2.1581 0
M  V30 21388 N 1970.31 0.904053 1.29092 0
M  V30 21389 C 1971.55 0.532992 1.95671 0
M  V30 21390 C 1971.89 -0.919194 1.71069 0
M  V30 21391 O 1971.16 -1.6523 1.02612 0
M  V30 21392 C 1971.44 0.831252 3.50374 0
M  V30 21393 C 1971.3 2.33546 3.84417 0
M  V30 21394 C 1972.62 0.320724 4.3893 0
M  V30 21395 H 1969.74 0.195117 0.710703 0
M  V30 21396 H 1972.38 1.13153 1.52632 0
M  V30 21397 H 1970.53 0.321853 3.87165 0
M  V30 21398 H 1972.2 2.91473 3.57549 0
M  V30 21399 H 1970.44 2.79442 3.31805 0
M  V30 21400 H 1971.11 2.49471 4.9241 0
M  V30 21401 H 1973.59 0.756974 4.09157 0
M  V30 21402 H 1972.47 0.55858 5.4605 0
M  V30 21403 H 1972.73 -0.778699 4.35188 0
M  V30 21404 N 1971.79 -1.4279 0.666995 0
M  V30 21405 C 1973.2 -1.84821 0.264217 0
M  V30 21406 C 1973.55 -1.55834 -1.19206 0
M  V30 21407 O 1972.67 -1.01422 -1.91161 0
M  V30 21408 C 1973.27 -3.35485 0.47276 0
M  V30 21409 C 1971.83 -3.76195 0.124176 0
M  V30 21410 C 1970.97 -2.66424 0.768989 0
M  V30 21411 H 1973.92 -1.32747 0.869709 0
M  V30 21412 H 1973.95 -3.79487 -0.277532 0
M  V30 21413 H 1973.46 -3.56551 1.53274 0
M  V30 21414 H 1971.56 -3.60738 -0.932667 0
M  V30 21415 H 1971.67 -4.75825 0.559251 0
M  V30 21416 H 1970.04 -2.53906 0.200994 0
M  V30 21417 H 1970.82 -2.90315 1.83227 0
M  V30 21418 N 1973.26 -0.409806 -1.52179 0
M  V30 21419 C 1974.49 0.165235 -2.06239 0
M  V30 21420 C 1974.91 1.38804 -1.2798 0
M  V30 21421 O 1974.26 1.79458 -0.331843 0
M  V30 21422 C 1974.31 0.514997 -3.57813 0
M  V30 21423 O 1974.04 -0.659248 -4.33111 0
M  V30 21424 C 1975.54 1.1437 -4.28293 0
M  V30 21425 H 1972.76 0.0200917 -0.670699 0
M  V30 21426 H 1975.3 -0.580955 -1.96074 0
M  V30 21427 H 1973.46 1.21108 -3.67983 0
M  V30 21428 H 1973.87 -0.367126 -5.23214 0
M  V30 21429 H 1975.34 1.33863 -5.35523 0
M  V30 21430 H 1975.82 2.11699 -3.84812 0
M  V30 21431 H 1976.43 0.487795 -4.22493 0
M  V30 21432 N 1974.74 1.56975 -0.14025 0
M  V30 21433 C 1975.99 1.95081 0.512469 0
M  V30 21434 C 1976.3 1.02722 1.66456 0
M  V30 21435 O 1977.51 1.3038 2.38146 0
M  V30 21436 C 1975.97 3.46775 0.963057 0
M  V30 21437 C 1975.57 4.47708 -0.161733 0
M  V30 21438 C 1977.32 3.93761 1.58595 0
M  V30 21439 C 1975.22 5.90604 0.306746 0
M  V30 21440 H 1974.15 0.72829 0.195216 0
M  V30 21441 H 1976.81 1.82134 -0.223514 0
M  V30 21442 H 1975.19 3.55032 1.7541 0
M  V30 21443 H 1976.36 4.51141 -0.938529 0
M  V30 21444 H 1974.68 4.10599 -0.692608 0
M  V30 21445 H 1977.27 4.97954 1.94796 0
M  V30 21446 H 1977.62 3.34931 2.47238 0
M  V30 21447 H 1978.15 3.88394 0.859928 0
M  V30 21448 H 1974.89 6.53238 -0.544152 0
M  V30 21449 H 1974.41 5.90546 1.04956 0
M  V30 21450 H 1976.09 6.42509 0.760989 0
M  V30 21451 N 1976.22 -0.133539 1.57033 0
M  V30 21452 C 1977.13 -1.18362 2.02553 0
M  V30 21453 C 1978.15 -1.46212 0.943294 0
M  V30 21454 O 1979.32 -1.57616 1.25376 0
M  V30 21455 C 1976.39 -2.49391 2.40842 0
M  V30 21456 C 1975.45 -2.29068 3.63079 0
M  V30 21457 C 1974.68 -3.53849 3.99533 0
M  V30 21458 O 1974.9 -4.60576 3.36491 0
M  V30 21459 O 1973.84 -3.45713 4.92713 0
M  V30 21460 H 1977.66 -0.827128 2.9222 0
M  V30 21461 H 1975.25 -0.343267 1.45403 0
M  V30 21462 H 1977.13 -3.26617 2.66269 0
M  V30 21463 H 1975.81 -2.84544 1.54326 0
M  V30 21464 H 1974.71 -1.49749 3.42821 0
M  V30 21465 H 1976.05 -1.98826 4.50254 0
M  V30 21466 N 1977.7 -1.52352 -0.403298 0
M  V30 21467 C 1978.92 -1.70849 -1.17582 0
M  V30 21468 C 1979.35 -0.419696 -1.83358 0
M  V30 21469 O 1978.71 0.623346 -1.70247 0
M  V30 21470 C 1978.75 -2.8492 -2.21027 0
M  V30 21471 O 1977.86 -2.50896 -3.273 0
M  V30 21472 H 1977.2 -0.568568 -0.342967 0
M  V30 21473 H 1979.73 -1.99082 -0.471975 0
M  V30 21474 H 1979.74 -3.10002 -2.6526 0
M  V30 21475 H 1978.41 -3.78423 -1.72536 0
M  V30 21476 H 1976.99 -2.36506 -2.88304 0
M  V30 21477 N 1979.18 0.660885 -1.43074 0
M  V30 21478 C 1980.11 1.78579 -1.50438 0
M  V30 21479 C 1981.09 1.66253 -0.359703 0
M  V30 21480 O 1982.27 1.85465 -0.575893 0
M  V30 21481 C 1979.4 3.16963 -1.41956 0
M  V30 21482 C 1978.36 3.44043 -2.54594 0
M  V30 21483 C 1977.68 4.82147 -2.31166 0
M  V30 21484 C 1978.98 3.3955 -3.96867 0
M  V30 21485 H 1980.68 1.72673 -2.4459 0
M  V30 21486 H 1978.22 0.829317 -1.17721 0
M  V30 21487 H 1980.17 3.95406 -1.45713 0
M  V30 21488 H 1978.9 3.23581 -0.443048 0
M  V30 21489 H 1977.56 2.67969 -2.50177 0
M  V30 21490 H 1977.21 4.85432 -1.31776 0
M  V30 21491 H 1976.91 5.01228 -3.06667 0
M  V30 21492 H 1978.43 5.62857 -2.36695 0
M  V30 21493 H 1979.84 4.0794 -4.02813 0
M  V30 21494 H 1978.24 3.70166 -4.72332 0
M  V30 21495 H 1979.31 2.37868 -4.22548 0
M  V30 21496 N 1980.65 1.29477 0.898527 0
M  V30 21497 C 1981.9 1.16888 1.64378 0
M  V30 21498 C 1982.22 -0.278503 1.93607 0
M  V30 21499 O 1983.42 -0.525728 2.66361 0
M  V30 21500 C 1981.88 2.0444 2.96196 0
M  V30 21501 C 1981.49 3.54008 2.74558 0
M  V30 21502 C 1983.23 2.00578 3.74124 0
M  V30 21503 C 1981.14 4.33661 4.0211 0
M  V30 21504 H 1980.07 0.433875 0.616659 0
M  V30 21505 H 1982.72 1.54125 0.995881 0
M  V30 21506 H 1981.1 1.60073 3.62205 0
M  V30 21507 H 1982.27 4.06435 2.17135 0
M  V30 21508 H 1980.59 3.59553 2.10025 0
M  V30 21509 H 1983.19 2.57348 4.68696 0
M  V30 21510 H 1983.53 0.98604 4.04454 0
M  V30 21511 H 1984.06 2.42995 3.14957 0
M  V30 21512 H 1980.8 5.36276 3.76946 0
M  V30 21513 H 1980.32 3.86003 4.59088 0
M  V30 21514 H 1982 4.44385 4.70246 0
M  V30 21515 N 1982.13 -1.10905 1.11972 0
M  V30 21516 C 1983.38 -1.82401 0.870296 0
M  V30 21517 C 1983.7 -1.85356 -0.605649 0
M  V30 21518 O 1982.97 -1.32812 -1.44006 0
M  V30 21519 H 1981.55 -0.675471 0.318979 0
M  V30 21520 H 1984.21 -1.34216 1.41323 0
M  V30 21521 H 1983.31 -2.86086 1.24746 0
M  V30 21522 N 1983.61 -0.910886 -1.2861 0
M  V30 21523 C 1984.52 -0.402088 -2.31129 0
M  V30 21524 C 1985.54 0.508811 -1.66394 0
M  V30 21525 O 1986.71 0.395691 -1.97475 0
M  V30 21526 C 1983.78 0.352182 -3.44907 0
M  V30 21527 C 1982.84 -0.59159 -4.25204 0
M  V30 21528 C 1982.07 0.126778 -5.33549 0
M  V30 21529 O 1982.29 1.34897 -5.54219 0
M  V30 21530 O 1981.23 -0.536442 -5.99505 0
M  V30 21531 H 1985.05 -1.25289 -2.76652 0
M  V30 21532 H 1982.64 -0.675604 -1.33251 0
M  V30 21533 H 1984.52 0.778285 -4.14151 0
M  V30 21534 H 1983.2 1.17886 -3.01471 0
M  V30 21535 H 1982.1 -1.06703 -3.5856 0
M  V30 21536 H 1983.44 -1.38501 -4.72312 0
M  V30 21537 N 1985.09 1.42434 -0.674558 0
M  V30 21538 C 1986.31 2.06399 -0.203545 0
M  V30 21539 C 1986.74 1.50345 1.1304 0
M  V30 21540 O 1986.1 0.621837 1.70302 0
M  V30 21541 C 1986.14 3.60293 -0.148884 0
M  V30 21542 O 1985.25 4.02843 0.882667 0
M  V30 21543 H 1984.59 0.655698 -0.104672 0
M  V30 21544 H 1987.12 1.82572 -0.923502 0
M  V30 21545 H 1987.13 4.07991 0.0273375 0
M  V30 21546 H 1985.8 4.00464 -1.12256 0
M  V30 21547 H 1984.38 3.66694 0.677506 0
M  V30 21548 N 1986.57 0.417871 1.51959 0
M  V30 21549 C 1987.79 -0.156736 2.06807 0
M  V30 21550 C 1988.22 -1.37354 1.28512 0
M  V30 21551 O 1987.57 -1.78494 0.317715 0
M  V30 21552 C 1987.62 -0.476913 3.57432 0
M  V30 21553 O 1986.73 -1.56654 3.81488 0
M  V30 21554 H 1986.07 -0.0103873 0.663919 0
M  V30 21555 H 1988.6 0.593593 1.958 0
M  V30 21556 H 1988.61 -0.733026 4.01361 0
M  V30 21557 H 1987.28 0.412542 4.13849 0
M  V30 21558 H 1985.86 -1.30191 3.49435 0
M  V30 21559 N 1988.04 -1.56898 0.148573 0
M  V30 21560 C 1989.29 -1.95788 -0.501154 0
M  V30 21561 C 1989.61 -1.03451 -1.65297 0
M  V30 21562 O 1988.88 -0.0963607 -1.95663 0
M  V30 21563 H 1987.46 -0.722922 -0.188129 0
M  V30 21564 H 1990.13 -1.93603 0.224439 0
M  V30 21565 H 1989.22 -2.99547 -0.876258 0
M  V30 21566 N 1989.52 0.125209 -1.57102 0
M  V30 21567 C 1990.47 1.17292 -2.00861 0
M  V30 21568 C 1991.46 1.4323 -0.904511 0
M  V30 21569 O 1992.67 1.43266 -1.08972 0
M  V30 21570 H 1989.05 0.395322 -0.639706 0
M  V30 21571 H 1991.02 0.777307 -2.88098 0
M  V30 21572 C 1989.77 2.49311 -2.42362 0
M  V30 21573 H 1989.09 2.30188 -3.26884 0
M  V30 21574 H 1990.53 3.21196 -2.76784 0
M  V30 21575 C 1988.99 3.1144 -1.2848 0
M  V30 21576 O 1989.52 3.97233 -0.597373 0
M  V30 21577 N 1987.72 2.71221 -1.04344 0
M  V30 21578 H 1987.27 2.0155 -1.60423 0
M  V30 21579 H 1987.23 3.1312 -0.283408 0
M  V30 21580 N 1991 1.52564 0.395213 0
M  V30 21581 C 1991.93 1.79867 1.48897 0
M  V30 21582 C 1992.91 0.650351 1.57176 0
M  V30 21583 O 1994.1 0.897328 1.72226 0
M  V30 21584 C 1991.23 1.96192 2.86576 0
M  V30 21585 C 1990.18 3.11854 2.9314 0
M  V30 21586 C 1989.51 3.13424 4.33208 0
M  V30 21587 C 1990.81 4.51046 2.63353 0
M  V30 21588 H 1992.5 2.71457 1.26299 0
M  V30 21589 H 1990.05 1.30621 0.606145 0
M  V30 21590 H 1992 2.13875 3.63091 0
M  V30 21591 H 1990.72 1.01286 3.10498 0
M  V30 21592 H 1989.38 2.93944 2.19072 0
M  V30 21593 H 1989.03 2.16212 4.5416 0
M  V30 21594 H 1988.73 3.91117 4.38522 0
M  V30 21595 H 1990.25 3.33254 5.11639 0
M  V30 21596 H 1991.67 4.6909 3.29587 0
M  V30 21597 H 1990.07 5.3076 2.80024 0
M  V30 21598 H 1991.14 4.58187 1.58722 0
M  V30 21599 N 1992.48 -0.653289 1.43422 0
M  V30 21600 C 1993.43 -1.78742 1.48842 0
M  V30 21601 C 1994.42 -1.65486 0.362035 0
M  V30 21602 O 1995.63 -1.71834 0.536023 0
M  V30 21603 H 1992 -0.589724 0.466614 0
M  V30 21604 H 1993.97 -1.7129 2.4434 0
M  V30 21605 C 1992.72 -3.17 1.4285 0
M  V30 21606 H 1992.04 -3.27838 2.28828 0
M  V30 21607 H 1993.48 -3.96314 1.50704 0
M  V30 21608 C 1991.94 -3.36583 0.146093 0
M  V30 21609 O 1992.47 -3.93802 -0.792631 0
M  V30 21610 N 1990.68 -2.90545 0.0563076 0
M  V30 21611 H 1990.23 -2.44166 0.82102 0
M  V30 21612 H 1990.18 -3.04024 -0.801035 0
M  V30 21613 N 1993.96 -1.29952 -0.891648 0
M  V30 21614 C 1995.23 -1.09057 -1.62376 0
M  V30 21615 C 1995.61 0.362482 -2.07965 0
M  V30 21616 O 1994.96 1.35277 -1.84153 0
M  V30 21617 C 1995.17 -2.08543 -2.79841 0
M  V30 21618 C 1996.52 -2.39899 -3.50333 0
M  V30 21619 O 1997.54 -2.06801 -2.90021 0
M  V30 21620 O 1996.4 -2.96487 -4.59083 0
M  V30 21621 H 1993.5 -0.418386 -0.71336 0
M  V30 21622 H 1996.04 -1.41353 -0.939009 0
M  V30 21623 H 1994.81 -3.06378 -2.43409 0
M  V30 21624 H 1994.44 -1.77024 -3.56017 0
M  V30 21625 N 1995.44 1.1031 -1.12559 0
M  V30 21626 C 1996.85 1.63801 -0.895891 0
M  V30 21627 C 1997.2 1.87753 0.569511 0
M  V30 21628 O 1996.32 1.62046 1.43423 0
M  V30 21629 C 1996.92 2.9757 -1.6198 0
M  V30 21630 C 1995.48 3.47922 -1.43622 0
M  V30 21631 C 1994.62 2.22506 -1.65489 0
M  V30 21632 H 1997.57 0.937927 -1.28018 0
M  V30 21633 H 1997.6 3.65099 -1.07159 0
M  V30 21634 H 1997.11 2.80105 -2.68631 0
M  V30 21635 H 1995.21 3.70529 -0.392328 0
M  V30 21636 H 1995.32 4.25953 -2.1932 0
M  V30 21637 H 1993.69 2.30712 -1.07908 0
M  V30 21638 H 1994.47 2.07571 -2.7344 0
M  V30 21639 N 1996.91 0.917694 1.28125 0
M  V30 21640 C 1997.86 0.399355 2.29146 0
M  V30 21641 C 1998.86 -0.511045 1.61508 0
M  V30 21642 O 2000.06 -0.391853 1.75683 0
M  V30 21643 H 1996.44 0.110553 0.743829 0
M  V30 21644 H 1998.41 1.26438 2.70289 0
M  V30 21645 C 1997.16 -0.34177 3.46016 0
M  V30 21646 H 1996.48 0.349564 3.98269 0
M  V30 21647 H 1997.92 -0.669035 4.18688 0
M  V30 21648 C 1996.38 -1.55111 2.99069 0
M  V30 21649 O 1996.91 -2.65012 3.0188 0
M  V30 21650 N 1995.11 -1.39946 2.54683 0
M  V30 21651 H 1994.66 -0.505341 2.52595 0
M  V30 21652 H 1994.62 -2.20989 2.23632 0
M  V30 21653 N 1998.39 -1.42074 0.682102 0
M  V30 21654 C 1999.34 -2.30799 0.00831535 0
M  V30 21655 C 2000.31 -1.46368 -0.785221 0
M  V30 21656 O 2001.49 -1.75184 -0.755989 0
M  V30 21657 C 1998.63 -3.32283 -0.931784 0
M  V30 21658 C 1997.75 -4.318 -0.131295 0
M  V30 21659 C 1996.88 -5.20357 -1.06781 0
M  V30 21660 C 1995.92 -6.1155 -0.259435 0
M  V30 21661 N 1995.06 -6.92634 -1.14904 0
M  V30 21662 H 1999.9 -2.87861 0.770715 0
M  V30 21663 H 1997.43 -1.41786 0.391799 0
M  V30 21664 H 1999.39 -3.89657 -1.49074 0
M  V30 21665 H 1998.02 -2.76802 -1.66073 0
M  V30 21666 H 1997.07 -3.76484 0.54439 0
M  V30 21667 H 1998.39 -4.96328 0.495998 0
M  V30 21668 H 1997.54 -5.82499 -1.69645 0
M  V30 21669 H 1996.28 -4.56024 -1.72898 0
M  V30 21670 H 1995.28 -5.48469 0.382368 0
M  V30 21671 H 1996.51 -6.77934 0.397744 0
M  V30 21672 H 1994.46 -6.30922 -1.79648 0
M  V30 21673 H 1994.37 -7.53795 -0.577001 0
M  V30 21674 H 1995.64 -7.59257 -1.76492 0
M  V30 21675 N 1999.87 -0.425924 -1.51735 0
M  V30 21676 C 2000.78 0.39769 -2.31205 0
M  V30 21677 C 2001.8 1.0382 -1.39633 0
M  V30 21678 O 2002.97 1.03606 -1.72707 0
M  V30 21679 C 2000.04 1.49033 -3.13033 0
M  V30 21680 C 1999.1 0.871143 -4.20368 0
M  V30 21681 C 1998.33 1.91172 -4.98286 0
M  V30 21682 O 1998.55 3.13232 -4.76699 0
M  V30 21683 O 1997.49 1.5086 -5.82688 0
M  V30 21684 H 2001.31 -0.25075 -3.02663 0
M  V30 21685 H 1998.9 -0.188723 -1.48203 0
M  V30 21686 H 2000.78 2.12428 -3.6394 0
M  V30 21687 H 1999.46 2.12307 -2.44351 0
M  V30 21688 H 1998.36 0.199453 -3.73568 0
M  V30 21689 H 1999.7 0.282077 -4.91391 0
M  V30 21690 N 2001.35 1.56817 -0.156891 0
M  V30 21691 C 2002.31 2.16058 0.764967 0
M  V30 21692 C 2003.31 1.10488 1.16829 0
M  V30 21693 O 2004.5 1.36077 1.0876 0
M  V30 21694 C 2001.63 2.73173 2.03935 0
M  V30 21695 H 2002.83 2.98861 0.249482 0
M  V30 21696 H 2000.38 1.56025 0.0926074 0
M  V30 21697 H 2001.11 1.94064 2.59827 0
M  V30 21698 H 2000.9 3.50417 1.75926 0
M  V30 21699 H 2002.39 3.18783 2.69754 0
M  V30 21700 N 2002.83 -0.116876 1.57166 0
M  V30 21701 C 2003.76 -1.14443 2.03531 0
M  V30 21702 C 2004.74 -1.43063 0.920159 0
M  V30 21703 O 2005.92 -1.53468 1.19001 0
M  V30 21704 C 2003.05 -2.47006 2.44142 0
M  V30 21705 C 2002.01 -2.32843 3.59121 0
M  V30 21706 C 2001.33 -3.70388 3.85639 0
M  V30 21707 C 2002.63 -1.78717 4.90772 0
M  V30 21708 H 2004.33 -0.75878 2.89625 0
M  V30 21709 H 2001.87 -0.363551 1.39335 0
M  V30 21710 H 2003.82 -3.19143 2.75184 0
M  V30 21711 H 2002.55 -2.87465 1.55021 0
M  V30 21712 H 2001.21 -1.63155 3.28293 0
M  V30 21713 H 2000.86 -4.08335 2.9372 0
M  V30 21714 H 2000.56 -3.61764 4.63034 0
M  V30 21715 H 2002.08 -4.44026 4.19134 0
M  V30 21716 H 2003.49 -2.40673 5.20336 0
M  V30 21717 H 2001.89 -1.80909 5.72182 0
M  V30 21718 H 2002.96 -0.744891 4.79144 0
M  V30 21719 N 2004.3 -1.52772 -0.387116 0
M  V30 21720 C 2005.27 -1.77036 -1.45571 0
M  V30 21721 C 2006.27 -0.64041 -1.47497 0
M  V30 21722 O 2007.46 -0.908478 -1.48635 0
M  V30 21723 C 2004.59 -1.87284 -2.84846 0
M  V30 21724 H 2005.78 -2.72452 -1.25339 0
M  V30 21725 H 2003.33 -1.43522 -0.61897 0
M  V30 21726 H 2004.07 -0.9386 -3.1042 0
M  V30 21727 H 2003.85 -2.6945 -2.84849 0
M  V30 21728 H 2005.34 -2.07723 -3.62272 0
M  V30 21729 N 2005.78 0.645673 -1.43767 0
M  V30 21730 C 2006.73 1.75828 -1.4951 0
M  V30 21731 C 2007.7 1.62496 -0.344109 0
M  V30 21732 O 2008.88 1.82631 -0.552323 0
M  V30 21733 C 2006.02 3.14017 -1.43134 0
M  V30 21734 C 2005.14 3.38428 -2.68496 0
M  V30 21735 C 2004.27 4.66507 -2.54056 0
M  V30 21736 C 2003.31 4.84049 -3.74651 0
M  V30 21737 N 2002.45 6.03392 -3.58974 0
M  V30 21738 H 2007.29 1.70254 -2.44576 0
M  V30 21739 H 2004.82 0.830729 -1.21397 0
M  V30 21740 H 2006.78 3.93915 -1.37431 0
M  V30 21741 H 2005.41 3.18642 -0.516449 0
M  V30 21742 H 2004.46 2.52574 -2.84448 0
M  V30 21743 H 2005.78 3.47274 -3.58054 0
M  V30 21744 H 2004.93 5.54543 -2.46103 0
M  V30 21745 H 2003.67 4.59996 -1.62035 0
M  V30 21746 H 2002.67 3.94447 -3.83004 0
M  V30 21747 H 2003.9 4.92385 -4.67689 0
M  V30 21748 H 2001.85 5.97998 -2.69694 0
M  V30 21749 H 2001.76 6.13229 -4.42138 0
M  V30 21750 H 2003.03 6.94029 -3.54887 0
M  V30 21751 N 2007.26 1.30423 0.884744 0
M  V30 21752 C 2008.49 1.22184 1.66969 0
M  V30 21753 C 2008.9 -0.215259 1.87569 0
M  V30 21754 O 2008.26 -1.14224 1.42335 0
M  V30 21755 C 2008.31 1.94692 3.04593 0
M  V30 21756 O 2008.03 3.32792 2.84923 0
M  V30 21757 C 2009.53 1.93114 3.99026 0
M  V30 21758 H 2006.75 0.422826 0.521018 0
M  V30 21759 H 2009.3 1.72052 1.10537 0
M  V30 21760 H 2007.45 1.48623 3.57757 0
M  V30 21761 H 2007.87 3.69517 3.72233 0
M  V30 21762 H 2009.34 2.48386 4.92959 0
M  V30 21763 H 2009.82 0.91013 4.29666 0
M  V30 21764 H 2010.42 2.38996 3.51797 0
M  V30 21765 N 2008.74 -1.09711 1.13142 0
M  V30 21766 C 2009.65 -2.19825 0.819391 0
M  V30 21767 C 2010.66 -1.72906 -0.19483 0
M  V30 21768 O 2011.84 -2.01382 -0.0265972 0
M  V30 21769 C 2008.9 -3.45512 0.286717 0
M  V30 21770 C 2007.97 -4.07128 1.36181 0
M  V30 21771 C 2007.2 -5.26816 0.854462 0
M  V30 21772 O 2007.42 -5.69562 -0.309043 0
M  V30 21773 O 2006.36 -5.79481 1.62745 0
M  V30 21774 H 2010.18 -2.48963 1.73928 0
M  V30 21775 H 2007.77 -1.18591 0.908654 0
M  V30 21776 H 2009.65 -4.214 -0.00508436 0
M  V30 21777 H 2008.32 -3.17984 -0.605634 0
M  V30 21778 H 2007.23 -3.32891 1.70689 0
M  V30 21779 H 2008.56 -4.38876 2.2282 0
M  V30 21780 N 2010.22 -0.924476 -1.27637 0
M  V30 21781 C 2011.46 -0.564054 -1.94798 0
M  V30 21782 C 2011.8 0.891863 -1.72509 0
M  V30 21783 O 2011.07 1.63577 -1.05228 0
M  V30 21784 C 2011.35 -0.886888 -3.49008 0
M  V30 21785 C 2011.21 -2.39632 -3.80653 0
M  V30 21786 C 2012.53 -0.390514 -4.38364 0
M  V30 21787 H 2009.64 -0.206399 -0.707509 0
M  V30 21788 H 2012.29 -1.15567 -1.50812 0
M  V30 21789 H 2010.44 -0.383406 -3.86603 0
M  V30 21790 H 2012.11 -2.97125 -3.52866 0
M  V30 21791 H 2010.35 -2.84685 -3.27318 0
M  V30 21792 H 2011.02 -2.57274 -4.88379 0
M  V30 21793 H 2013.5 -0.821972 -4.07901 0
M  V30 21794 H 2012.37 -0.645381 -5.45093 0
M  V30 21795 H 2012.64 0.709365 -4.36372 0
M  V30 21796 N 2011.69 1.41711 -0.689627 0
M  V30 21797 C 2012.92 2.06171 -0.225425 0
M  V30 21798 C 2013.34 1.51535 1.11439 0
M  V30 21799 O 2012.7 0.639865 1.69633 0
M  V30 21800 C 2012.75 3.60114 -0.187089 0
M  V30 21801 O 2011.85 4.03757 0.83989 0
M  V30 21802 H 2011.2 0.654551 -0.111621 0
M  V30 21803 H 2013.73 1.81582 -0.942814 0
M  V30 21804 H 2013.74 4.07997 -0.0159369 0
M  V30 21805 H 2012.41 3.99251 -1.16497 0
M  V30 21806 H 2010.99 3.67392 0.638575 0
M  V30 21807 N 2013.17 0.433965 1.51507 0
M  V30 21808 C 2014.1 -0.369789 2.30553 0
M  V30 21809 C 2015.08 -1.02405 1.35821 0
M  V30 21810 O 2016.27 -1.02833 1.64739 0
M  V30 21811 C 2013.4 -1.47312 3.1451 0
M  V30 21812 C 2012.35 -0.942531 4.17493 0
M  V30 21813 C 2011.68 -2.14135 4.89949 0
M  V30 21814 C 2012.98 0.0206958 5.22296 0
M  V30 21815 H 2014.67 0.289851 2.97994 0
M  V30 21816 H 2012.22 0.14084 1.4331 0
M  V30 21817 H 2014.17 -2.04259 3.68587 0
M  V30 21818 H 2012.9 -2.161 2.44884 0
M  V30 21819 H 2011.55 -0.395296 3.64463 0
M  V30 21820 H 2011.2 -2.81535 4.1683 0
M  V30 21821 H 2010.9 -1.79273 5.59584 0
M  V30 21822 H 2012.43 -2.71642 5.46848 0
M  V30 21823 H 2013.84 -0.458366 5.71465 0
M  V30 21824 H 2012.24 0.281718 5.99438 0
M  V30 21825 H 2013.31 0.958416 4.75334 0
M  V30 21826 N 2014.65 -1.56732 0.165206 0
M  V30 21827 C 2015.88 -2.01069 -0.487749 0
M  V30 21828 C 2016.29 -1.04541 -1.57215 0
M  V30 21829 O 2015.65 -0.0452829 -1.82444 0
M  V30 21830 C 2015.7 -3.45249 -1.07169 0
M  V30 21831 O 2015.42 -4.38089 -0.0305845 0
M  V30 21832 C 2016.92 -4.04956 -1.80348 0
M  V30 21833 H 2014.14 -0.659179 -0.125394 0
M  V30 21834 H 2016.69 -2.02774 0.26514 0
M  V30 21835 H 2014.84 -3.44338 -1.77511 0
M  V30 21836 H 2015.26 -5.22471 -0.460866 0
M  V30 21837 H 2016.73 -5.07783 -2.16474 0
M  V30 21838 H 2017.21 -3.467 -2.69621 0
M  V30 21839 H 2017.81 -4.09552 -1.14662 0
M  V30 21840 N 2016.13 0.10854 -1.57226 0
M  V30 21841 C 2017.06 1.13362 -2.04135 0
M  V30 21842 C 2018.04 1.42573 -0.927733 0
M  V30 21843 O 2019.22 1.52835 -1.19813 0
M  V30 21844 C 2016.35 2.45708 -2.45449 0
M  V30 21845 C 2015.31 2.30935 -3.60351 0
M  V30 21846 C 2014.63 3.68337 -3.87597 0
M  V30 21847 C 2015.93 1.76112 -4.91713 0
M  V30 21848 H 2017.63 0.74341 -2.90024 0
M  V30 21849 H 2015.17 0.356157 -1.39526 0
M  V30 21850 H 2017.13 3.17679 -2.76872 0
M  V30 21851 H 2015.85 2.86639 -1.56544 0
M  V30 21852 H 2014.51 1.61411 -3.29153 0
M  V30 21853 H 2014.16 4.06772 -2.95881 0
M  V30 21854 H 2013.86 3.59303 -4.64946 0
M  V30 21855 H 2015.38 4.41797 -4.21483 0
M  V30 21856 H 2016.8 2.3791 -5.21605 0
M  V30 21857 H 2015.19 1.77872 -5.73133 0
M  V30 21858 H 2016.26 0.71947 -4.79533 0
M  V30 21859 N 2017.61 1.52975 0.379009 0
M  V30 21860 C 2018.83 1.72396 1.144 0
M  V30 21861 C 2019.25 0.446816 1.83437 0
M  V30 21862 O 2018.61 -0.579403 1.73058 0
M  V30 21863 C 2018.66 2.88032 2.18449 0
M  V30 21864 O 2018.38 4.10803 1.52225 0
M  V30 21865 C 2019.88 3.19215 3.07599 0
M  V30 21866 H 2017.1 0.576943 0.342605 0
M  V30 21867 H 2019.64 1.99666 0.442025 0
M  V30 21868 H 2017.8 2.63195 2.84266 0
M  V30 21869 H 2018.21 4.75461 2.21443 0
M  V30 21870 H 2019.69 4.03565 3.76615 0
M  V30 21871 H 2020.16 2.34014 3.71664 0
M  V30 21872 H 2020.77 3.45928 2.47415 0
M  V30 21873 N 2019.08 -0.63804 1.44107 0
M  V30 21874 C 2020.03 -1.77153 1.5073 0
M  V30 21875 C 2021.03 -1.65093 0.379567 0
M  V30 21876 O 2022.23 -1.71255 0.554218 0
M  V30 21877 H 2018.61 -0.584742 0.472843 0
M  V30 21878 H 2020.58 -1.68689 2.46143 0
M  V30 21879 C 2019.33 -3.15467 1.46204 0
M  V30 21880 H 2018.65 -3.25392 2.32293 0
M  V30 21881 H 2020.09 -3.94693 1.54899 0
M  V30 21882 C 2018.55 -3.36409 0.181784 0
M  V30 21883 O 2019.08 -3.94621 -0.750818 0
M  V30 21884 N 2017.29 -2.90469 0.0871207 0
M  V30 21885 H 2016.83 -2.43281 0.846871 0
M  V30 21886 H 2016.79 -3.04857 -0.768744 0
M  V30 21887 N 2020.56 -1.3089 -0.877815 0
M  V30 21888 C 2021.51 -1.17878 -1.98427 0
M  V30 21889 C 2022.48 -0.0664893 -1.65967 0
M  V30 21890 O 2023.66 -0.237956 -1.8931 0
M  V30 21891 C 2020.8 -0.883984 -3.33586 0
M  V30 21892 C 2019.92 -2.07885 -3.78692 0
M  V30 21893 C 2019.05 -1.72152 -5.02531 0
M  V30 21894 C 2018.09 -2.88092 -5.40064 0
M  V30 21895 N 2017.23 -2.52607 -6.55083 0
M  V30 21896 H 2022.07 -2.12531 -2.08889 0
M  V30 21897 H 2019.61 -1.05732 -1.0227 0
M  V30 21898 H 2021.56 -0.693656 -4.11393 0
M  V30 21899 H 2020.19 0.0256933 -3.2279 0
M  V30 21900 H 2019.25 -2.3802 -2.96733 0
M  V30 21901 H 2020.56 -2.94687 -4.02444 0
M  V30 21902 H 2019.71 -1.49536 -5.87983 0
M  V30 21903 H 2018.45 -0.825297 -4.80666 0
M  V30 21904 H 2017.46 -3.11366 -4.53135 0
M  V30 21905 H 2018.68 -3.78412 -5.63898 0
M  V30 21906 H 2016.63 -1.65499 -6.3478 0
M  V30 21907 H 2016.54 -3.3294 -6.78739 0
M  V30 21908 H 2017.81 -2.33365 -7.43748 0
M  V30 21909 N 2022.04 1.0911 -1.13723 0
M  V30 21910 C 2023.29 1.81352 -0.900984 0
M  V30 21911 C 2023.62 1.85876 0.572749 0
M  V30 21912 O 2022.87 1.3252 1.44003 0
M  V30 21913 C 2023.17 3.27193 -1.43805 0
M  V30 21914 C 2022.84 3.42797 -2.92918 0
M  V30 21915 C 2021.5 3.46763 -3.33629 0
M  V30 21916 C 2023.85 3.47067 -3.88837 0
M  V30 21917 C 2021.18 3.52582 -4.68938 0
M  V30 21918 C 2023.53 3.5442 -5.23993 0
M  V30 21919 C 2022.19 3.56657 -5.64227 0
M  V30 21920 H 2021.46 0.663614 -0.329694 0
M  V30 21921 H 2024.11 1.28517 -1.41971 0
M  V30 21922 H 2022.42 3.82687 -0.840093 0
M  V30 21923 H 2024.11 3.81628 -1.23129 0
M  V30 21924 H 2020.7 3.40397 -2.60438 0
M  V30 21925 H 2024.89 3.4324 -3.58469 0
M  V30 21926 H 2020.14 3.52602 -4.99481 0
M  V30 21927 H 2024.32 3.56669 -5.9813 0
M  V30 21928 H 2021.94 3.60918 -6.69061 0
M  V30 21929 N 2023.52 0.931232 1.27145 0
M  V30 21930 C 2024.8 0.491789 1.89317 0
M  V30 21931 C 2025.18 -1.03026 1.84252 0
M  V30 21932 O 2024.52 -1.88596 1.29011 0
M  V30 21933 C 2024.73 1.04187 3.33086 0
M  V30 21934 C 2026.08 1.1045 4.09983 0
M  V30 21935 O 2027.11 0.991747 3.42115 0
M  V30 21936 O 2025.96 1.27861 5.31332 0
M  V30 21937 H 2023.06 0.158746 0.811621 0
M  V30 21938 H 2025.6 1.02315 1.35387 0
M  V30 21939 H 2024.38 2.08566 3.31083 0
M  V30 21940 H 2024 0.492365 3.9454 0
M  V30 21941 N 2025 -1.41343 0.697132 0
M  V30 21942 C 2026.24 -2.01502 0.229099 0
M  V30 21943 C 2026.58 -1.55093 -1.16875 0
M  V30 21944 O 2025.85 -0.7628 -1.78918 0
M  V30 21945 C 2026.13 -3.58942 0.288524 0
M  V30 21946 C 2025.99 -4.15473 1.72343 0
M  V30 21947 C 2027.31 -4.387 -0.350786 0
M  V30 21948 H 2024.43 -0.732114 0.0847216 0
M  V30 21949 H 2027.07 -1.6807 0.886148 0
M  V30 21950 H 2025.22 -3.87554 -0.270916 0
M  V30 21951 H 2026.89 -3.97731 2.33684 0
M  V30 21952 H 2025.13 -3.70456 2.25709 0
M  V30 21953 H 2025.8 -5.24632 1.71653 0
M  V30 21954 H 2028.28 -4.1591 0.125682 0
M  V30 21955 H 2027.16 -5.48192 -0.27867 0
M  V30 21956 H 2027.42 -4.18275 -1.43172 0
M  V30 21957 N 2026.48 -0.441993 -1.51275 0
M  V30 21958 C 2027.89 0.0200405 -1.86689 0
M  V30 21959 C 2028.24 1.41527 -1.35885 0
M  V30 21960 O 2027.36 2.04366 -0.711583 0
M  V30 21961 C 2027.96 0.0431426 -3.38773 0
M  V30 21962 C 2026.52 0.449604 -3.73705 0
M  V30 21963 C 2025.66 -0.354706 -2.75022 0
M  V30 21964 H 2028.61 -0.657627 -1.44433 0
M  V30 21965 H 2028.64 0.851643 -3.70847 0
M  V30 21966 H 2028.15 -0.97245 -3.75719 0
M  V30 21967 H 2026.25 1.47063 -3.4235 0
M  V30 21968 H 2026.36 0.171167 -4.78794 0
M  V30 21969 H 2024.73 0.187631 -2.54008 0
M  V30 21970 H 2025.51 -1.36926 -3.14811 0
M  V30 21971 N 2027.95 1.56642 -0.173515 0
M  V30 21972 C 2029.2 1.9656 0.469943 0
M  V30 21973 C 2029.52 1.06067 1.6363 0
M  V30 21974 O 2028.79 0.127477 1.95485 0
M  V30 21975 H 2027.37 0.725824 0.176604 0
M  V30 21976 H 2030.03 1.93222 -0.255212 0
M  V30 21977 H 2029.13 3.00903 0.828491 0
M  V30 21978 N 2029.43 -0.1002 1.57281 0
M  V30 21979 C 2030.71 -0.836006 1.76834 0
M  V30 21980 C 2031.09 -1.9718 0.753864 0
M  V30 21981 O 2030.44 -2.27452 -0.218626 0
M  V30 21982 C 2030.65 -1.33532 3.22444 0
M  V30 21983 C 2031.99 -1.78015 3.85481 0
M  V30 21984 O 2033.02 -1.43167 3.26162 0
M  V30 21985 O 2031.88 -2.42432 4.89784 0
M  V30 21986 H 2028.97 -0.398386 0.724719 0
M  V30 21987 H 2031.52 -0.0824784 1.69499 0
M  V30 21988 H 2030.29 -0.521307 3.87812 0
M  V30 21989 H 2029.91 -2.151 3.34391 0
M  V30 21990 N 2030.91 -1.53174 -0.370891 0
M  V30 21991 C 2031.82 -1.82187 -1.478 0
M  V30 21992 C 2032.84 -0.70987 -1.58861 0
M  V30 21993 O 2034.01 -0.999372 -1.74856 0
M  V30 21994 C 2031.08 -2.00097 -2.83129 0
M  V30 21995 C 2030.14 -3.24002 -2.8164 0
M  V30 21996 C 2029.37 -3.41048 -4.10514 0
M  V30 21997 O 2029.59 -2.62503 -5.06407 0
M  V30 21998 O 2028.53 -4.34381 -4.16649 0
M  V30 21999 H 2032.35 -2.76234 -1.26207 0
M  V30 22000 H 2029.94 -1.38488 -0.560483 0
M  V30 22001 H 2031.82 -2.13479 -3.63324 0
M  V30 22002 H 2030.5 -1.0924 -3.0471 0
M  V30 22003 H 2029.4 -3.16048 -2.00162 0
M  V30 22004 H 2030.74 -4.14764 -2.65012 0
M  V30 22005 N 2032.39 0.630389 -1.44443 0
M  V30 22006 C 2033.34 1.76351 -1.51667 0
M  V30 22007 C 2034.33 1.64889 -0.388317 0
M  V30 22008 O 2035.54 1.70959 -0.563293 0
M  V30 22009 H 2031.91 0.582226 -0.475937 0
M  V30 22010 H 2033.88 1.67382 -2.47034 0
M  V30 22011 C 2032.63 3.14688 -1.47875 0
M  V30 22012 H 2031.95 3.24156 -2.34015 0
M  V30 22013 H 2033.39 3.93866 -1.5699 0
M  V30 22014 C 2031.85 3.36308 -0.199622 0
M  V30 22015 O 2032.38 3.95013 0.72988 0
M  V30 22016 N 2030.59 2.90419 -0.102524 0
M  V30 22017 H 2030.14 2.42829 -0.859761 0
M  V30 22018 H 2030.09 3.0526 0.752566 0
M  V30 22019 N 2033.87 1.31354 0.870861 0
M  V30 22020 C 2034.83 1.18889 1.95954 0
M  V30 22021 C 2035.83 0.116227 1.60379 0
M  V30 22022 O 2037.02 0.365426 1.70324 0
M  V30 22023 C 2034.15 0.824704 3.30774 0
M  V30 22024 H 2035.34 2.15624 2.08438 0
M  V30 22025 H 2032.9 1.14952 1.05904 0
M  V30 22026 H 2033.63 -0.141533 3.23991 0
M  V30 22027 H 2033.42 1.60006 3.57967 0
M  V30 22028 H 2034.91 0.761361 4.10601 0
M  V30 22029 N 2035.34 -1.08505 1.143 0
M  V30 22030 C 2036.25 -2.18944 0.84266 0
M  V30 22031 C 2037.27 -1.73103 -0.17648 0
M  V30 22032 O 2038.45 -2.01399 -0.0052364 0
M  V30 22033 C 2035.51 -3.45189 0.323347 0
M  V30 22034 C 2034.57 -4.05661 1.40492 0
M  V30 22035 C 2033.8 -5.2588 0.910289 0
M  V30 22036 O 2034.03 -5.69858 -0.248616 0
M  V30 22037 O 2032.96 -5.77722 1.68882 0
M  V30 22038 H 2036.79 -2.47104 1.76559 0
M  V30 22039 H 2034.37 -1.17621 0.921181 0
M  V30 22040 H 2036.25 -4.21381 0.039611 0
M  V30 22041 H 2034.93 -3.18608 -0.571874 0
M  V30 22042 H 2033.84 -3.31061 1.7421 0
M  V30 22043 H 2035.17 -4.36488 2.27462 0
M  V30 22044 N 2036.82 -0.937962 -1.26649 0
M  V30 22045 C 2037.75 -0.389349 -2.24854 0
M  V30 22046 C 2038.73 0.520034 -1.5406 0
M  V30 22047 O 2039.92 0.458213 -1.82846 0
M  V30 22048 C 2037.04 0.440897 -3.35818 0
M  V30 22049 C 2036.09 -0.406503 -4.24558 0
M  V30 22050 S 2036.92 -1.82845 -5.03317 0
M  V30 22051 C 2038.08 -1.00617 -6.1776 0
M  V30 22052 H 2038.31 -1.22165 -2.71041 0
M  V30 22053 H 2035.84 -0.740851 -1.35465 0
M  V30 22054 H 2037.8 0.914026 -4.00195 0
M  V30 22055 H 2036.46 1.24784 -2.8825 0
M  V30 22056 H 2035.66 0.229461 -5.03477 0
M  V30 22057 H 2035.26 -0.814194 -3.6503 0
M  V30 22058 H 2037.55 -0.246937 -6.7705 0
M  V30 22059 H 2038.49 -1.76871 -6.85655 0
M  V30 22060 H 2038.9 -0.543652 -5.61876 0
M  V30 22061 N 2038.3 1.40971 -0.704618 0
M  V30 22062 C 2039.58 1.94885 -0.167059 0
M  V30 22063 C 2039.96 1.64346 1.3249 0
M  V30 22064 O 2039.3 0.955268 2.07574 0
M  V30 22065 C 2039.51 3.45847 -0.468035 0
M  V30 22066 C 2040.86 4.22705 -0.400704 0
M  V30 22067 O 2041.89 3.53908 -0.403464 0
M  V30 22068 O 2040.75 5.45255 -0.368676 0
M  V30 22069 H 2037.84 0.826752 -0.0202699 0
M  V30 22070 H 2040.39 1.50639 -0.7814 0
M  V30 22071 H 2039.16 3.61392 -1.50038 0
M  V30 22072 H 2038.78 3.97207 0.176823 0
M  V30 22073 N 2039.78 0.45001 1.51039 0
M  V30 22074 C 2040.74 -0.343489 2.26612 0
M  V30 22075 C 2041.74 -0.938789 1.3055 0
M  V30 22076 O 2042.93 -0.811258 1.54157 0
M  V30 22077 C 2040.06 -1.48719 3.0675 0
M  V30 22078 H 2041.26 0.318996 2.98199 0
M  V30 22079 H 2038.81 0.2035 1.5497 0
M  V30 22080 H 2039.54 -2.18535 2.3961 0
M  V30 22081 H 2039.33 -1.06636 3.77321 0
M  V30 22082 H 2040.82 -2.04748 3.63961 0
M  V30 22083 N 2041.26 -1.56548 0.18182 0
M  V30 22084 C 2042.67 -1.58646 -0.174214 0
M  V30 22085 C 2042.87 -1.19756 -1.62052 0
M  V30 22086 O 2041.93 -0.914071 -2.35374 0
M  V30 22087 C 2043.24 -3.00476 0.116117 0
M  V30 22088 C 2044.79 -3.12951 0.0551643 0
M  V30 22089 C 2045.26 -4.5689 0.318626 0
M  V30 22090 N 2046.76 -4.62431 0.266773 0
M  V30 22091 C 2047.49 -5.71673 0.444657 0
M  V30 22092 N 2046.99 -6.89433 0.682169 0
M  V30 22093 N 2048.78 -5.60815 0.379832 0
M  V30 22094 H 2040.93 -1.80112 1.12576 0
M  V30 22095 H 2043.19 -0.835277 0.448348 0
M  V30 22096 H 2042.9 -3.33443 1.11843 0
M  V30 22097 H 2042.77 -3.72598 -0.587444 0
M  V30 22098 H 2045.16 -2.79805 -0.937734 0
M  V30 22099 H 2045.24 -2.43243 0.791599 0
M  V30 22100 H 2044.89 -4.90748 1.30878 0
M  V30 22101 H 2044.82 -5.24771 -0.438543 0
M  V30 22102 H 2047.31 -3.77795 0.0892717 0
M  V30 22103 H 2047.62 -7.68574 0.80707 0
M  V30 22104 H 2045.96 -6.91272 0.718908 0
M  V30 22105 H 2049.16 -4.67695 0.194792 0
M  V30 22106 H 2049.33 -6.45895 0.521886 0
M  V30 22107 N 2042.73 0.0918577 -1.57332 0
M  V30 22108 C 2043.96 0.808218 -1.90461 0
M  V30 22109 C 2044.38 1.72122 -0.775843 0
M  V30 22110 O 2043.73 1.80752 0.251995 0
M  V30 22111 C 2043.79 1.61885 -3.23227 0
M  V30 22112 O 2043.51 0.742563 -4.31761 0
M  V30 22113 C 2045.01 2.43798 -3.7024 0
M  V30 22114 H 2042.23 0.230915 -0.630015 0
M  V30 22115 H 2044.77 0.0681235 -2.04387 0
M  V30 22116 H 2042.93 2.31142 -3.1089 0
M  V30 22117 H 2043.34 1.30433 -5.08023 0
M  V30 22118 H 2044.81 2.96164 -4.65823 0
M  V30 22119 H 2045.29 3.2241 -2.98242 0
M  V30 22120 H 2045.9 1.79734 -3.85455 0
M  V30 22121 N 2044.21 1.53368 0.362763 0
M  V30 22122 C 2045.46 1.68906 1.10243 0
M  V30 22123 C 2045.77 0.448846 1.90381 0
M  V30 22124 O 2046.98 0.484821 2.67136 0
M  V30 22125 C 2045.44 2.98602 2.0091 0
M  V30 22126 C 2045.04 4.29895 1.26071 0
M  V30 22127 C 2046.79 3.23507 2.74852 0
M  V30 22128 C 2044.7 5.50678 2.15657 0
M  V30 22129 H 2043.63 0.629342 0.415265 0
M  V30 22130 H 2046.28 1.79869 0.363231 0
M  V30 22131 H 2044.66 2.81449 2.78572 0
M  V30 22132 H 2045.83 4.57689 0.534529 0
M  V30 22133 H 2044.15 4.11455 0.639803 0
M  V30 22134 H 2046.74 4.10931 3.42111 0
M  V30 22135 H 2047.09 2.39689 3.40374 0
M  V30 22136 H 2047.62 3.41347 2.04271 0
M  V30 22137 H 2044.36 6.36982 1.54707 0
M  V30 22138 H 2043.88 5.27159 2.86117 0
M  V30 22139 H 2045.56 5.85578 2.75151 0
M  V30 22140 N 2045.69 -0.62272 1.44776 0
M  V30 22141 C 2046.62 -1.74528 1.5512 0
M  V30 22142 C 2047.6 -1.65241 0.403656 0
M  V30 22143 O 2048.79 -1.83873 0.624863 0
M  V30 22144 C 2045.92 -3.13088 1.5031 0
M  V30 22145 C 2044.87 -3.37172 2.63626 0
M  V30 22146 C 2044.2 -4.75849 2.43868 0
M  V30 22147 C 2045.5 -3.28908 4.0573 0
M  V30 22148 H 2047.19 -1.66128 2.49082 0
M  V30 22149 H 2044.74 -0.797813 1.19879 0
M  V30 22150 H 2046.69 -3.91403 1.56146 0
M  V30 22151 H 2045.41 -3.22293 0.528684 0
M  V30 22152 H 2044.07 -2.61241 2.57194 0
M  V30 22153 H 2043.72 -4.81767 1.446 0
M  V30 22154 H 2043.42 -4.92921 3.19849 0
M  V30 22155 H 2044.94 -5.56383 2.51535 0
M  V30 22156 H 2046.36 -3.97117 4.13487 0
M  V30 22157 H 2044.76 -3.57513 4.8198 0
M  V30 22158 H 2045.83 -2.26581 4.28706 0
M  V30 22159 N 2047.17 -1.31814 -0.863883 0
M  V30 22160 C 2048.1 -1.22574 -1.98741 0
M  V30 22161 C 2049.08 -0.111585 -1.69734 0
M  V30 22162 O 2050.26 -0.29721 -1.91912 0
M  V30 22163 C 2047.39 -0.938559 -3.34378 0
M  V30 22164 C 2046.35 -2.01295 -3.7771 0
M  V30 22165 C 2045.67 -1.57834 -5.10874 0
M  V30 22166 C 2046.97 -3.42684 -3.94164 0
M  V30 22167 H 2048.67 -2.16572 -2.06729 0
M  V30 22168 H 2046.21 -1.04262 -0.993246 0
M  V30 22169 H 2048.17 -0.860501 -4.12521 0
M  V30 22170 H 2046.89 0.0370783 -3.26579 0
M  V30 22171 H 2045.55 -2.081 -3.01811 0
M  V30 22172 H 2045.2 -0.5904 -4.99523 0
M  V30 22173 H 2044.9 -2.29713 -5.40838 0
M  V30 22174 H 2046.42 -1.51448 -5.9152 0
M  V30 22175 H 2047.84 -3.38519 -4.62685 0
M  V30 22176 H 2046.23 -4.12833 -4.35533 0
M  V30 22177 H 2047.3 -3.83023 -2.97358 0
M  V30 22178 N 2048.65 1.07897 -1.14873 0
M  V30 22179 C 2049.59 2.17052 -0.836135 0
M  V30 22180 C 2050.59 1.68352 0.188148 0
M  V30 22181 O 2051.79 1.79947 0.0437298 0
M  V30 22182 H 2048.17 0.708271 -0.252698 0
M  V30 22183 H 2050.14 2.40639 -1.76452 0
M  V30 22184 C 2048.89 3.46076 -0.335713 0
M  V30 22185 H 2048.21 3.8393 -1.11525 0
M  V30 22186 H 2049.65 4.23714 -0.155587 0
M  V30 22187 C 2048.11 3.23471 0.941711 0
M  V30 22188 O 2048.64 3.47541 2.0144 0
M  V30 22189 N 2046.85 2.76987 0.879016 0
M  V30 22190 H 2046.39 2.57599 0.00591639 0
M  V30 22191 H 2046.35 2.62241 1.73427 0
M  V30 22192 N 2050.12 0.944665 1.2615 0
M  V30 22193 C 2051.35 0.610956 1.97674 0
M  V30 22194 C 2051.77 -0.814818 1.70312 0
M  V30 22195 O 2051.12 -1.54376 0.973364 0
M  V30 22196 C 2051.18 0.847912 3.51415 0
M  V30 22197 O 2050.9 2.21761 3.77827 0
M  V30 22198 C 2052.4 0.525225 4.40178 0
M  V30 22199 H 2049.62 0.229933 0.630374 0
M  V30 22200 H 2052.16 1.26632 1.60576 0
M  V30 22201 H 2050.32 0.239105 3.86661 0
M  V30 22202 H 2050.73 2.28026 4.72339 0
M  V30 22203 H 2052.2 0.741624 5.46995 0
M  V30 22204 H 2052.68 -0.539903 4.35869 0
M  V30 22205 H 2053.29 1.11291 4.10481 0
M  V30 22206 N 2051.6 -1.40596 0.712085 0
M  V30 22207 C 2052.55 -2.30729 0.0572693 0
M  V30 22208 C 2053.52 -1.48 -0.753997 0
M  V30 22209 O 2054.7 -1.76748 -0.71866 0
M  V30 22210 C 2051.84 -3.34184 -0.861092 0
M  V30 22211 C 2050.96 -4.31982 -0.0396747 0
M  V30 22212 C 2050.09 -5.22505 -0.957193 0
M  V30 22213 C 2049.13 -6.11963 -0.129658 0
M  V30 22214 N 2048.27 -6.94915 -1.00186 0
M  V30 22215 H 2053.11 -2.86161 0.831601 0
M  V30 22216 H 2050.65 -1.40923 0.421786 0
M  V30 22217 H 2052.6 -3.92732 -1.40775 0
M  V30 22218 H 2051.23 -2.80263 -1.60164 0
M  V30 22219 H 2050.29 -3.75245 0.624125 0
M  V30 22220 H 2051.6 -4.95164 0.601165 0
M  V30 22221 H 2050.75 -5.85967 -1.57251 0
M  V30 22222 H 2049.49 -4.59589 -1.63186 0
M  V30 22223 H 2048.5 -5.47534 0.49862 0
M  V30 22224 H 2049.72 -6.76938 0.541455 0
M  V30 22225 H 2047.67 -6.34591 -1.66225 0
M  V30 22226 H 2047.58 -7.54849 -0.41698 0
M  V30 22227 H 2048.85 -7.6283 -1.60347 0
M  V30 22228 N 2053.08 -0.458013 -1.50798 0
M  V30 22229 C 2054.5 -0.111425 -1.59211 0
M  V30 22230 C 2054.7 1.38104 -1.46729 0
M  V30 22231 O 2053.75 2.15306 -1.31907 0
M  V30 22232 C 2055.07 -0.649971 -2.93591 0
M  V30 22233 C 2056.61 -0.612237 -3.06954 0
M  V30 22234 C 2057.09 -1.1281 -4.43889 0
M  V30 22235 N 2058.58 -1.08696 -4.50266 0
M  V30 22236 C 2059.31 -1.45676 -5.54586 0
M  V30 22237 N 2058.81 -1.90042 -6.66225 0
M  V30 22238 N 2060.6 -1.37362 -5.45058 0
M  V30 22239 H 2052.75 -1.42885 -1.57155 0
M  V30 22240 H 2055.02 -0.590085 -0.741959 0
M  V30 22241 H 2054.72 -1.695 -3.0816 0
M  V30 22242 H 2054.6 -0.0862666 -3.77101 0
M  V30 22243 H 2056.98 0.42385 -2.9204 0
M  V30 22244 H 2057.07 -1.21259 -2.25233 0
M  V30 22245 H 2056.71 -2.16276 -4.59551 0
M  V30 22246 H 2056.64 -0.50409 -5.24182 0
M  V30 22247 H 2059.13 -0.761406 -3.7015 0
M  V30 22248 H 2059.44 -2.16442 -7.41871 0
M  V30 22249 H 2057.79 -1.93985 -6.67379 0
M  V30 22250 H 2060.98 -1.02552 -4.56728 0
M  V30 22251 H 2061.15 -1.66508 -6.26242 0
M  V30 22252 N 2054.56 1.56449 -0.190119 0
M  V30 22253 C 2055.49 2.21861 0.728019 0
M  V30 22254 C 2056.47 1.18012 1.22504 0
M  V30 22255 O 2057.66 1.46503 1.27478 0
M  V30 22256 C 2054.79 2.87407 1.94973 0
M  V30 22257 C 2053.74 3.97457 1.58782 0
M  V30 22258 C 2053.07 4.50144 2.88573 0
M  V30 22259 C 2054.37 5.16113 0.801535 0
M  V30 22260 H 2056.06 2.98842 0.182734 0
M  V30 22261 H 2053.61 1.4374 0.0864508 0
M  V30 22262 H 2055.56 3.31848 2.59721 0
M  V30 22263 H 2054.28 2.07824 2.51946 0
M  V30 22264 H 2052.94 3.537 0.96395 0
M  V30 22265 H 2052.59 3.67328 3.43626 0
M  V30 22266 H 2052.29 5.24398 2.65105 0
M  V30 22267 H 2053.81 4.97283 3.54318 0
M  V30 22268 H 2055.23 5.5713 1.35201 0
M  V30 22269 H 2053.62 5.96402 0.66517 0
M  V30 22270 H 2054.69 4.84494 -0.198407 0
M  V30 22271 N 2056.04 -0.0835127 1.57379 0
M  V30 22272 C 2057.29 -0.783627 1.85855 0
M  V30 22273 C 2057.6 -1.79328 0.781081 0
M  V30 22274 O 2058.81 -2.54212 0.953327 0
M  V30 22275 C 2057.26 -1.44454 3.29638 0
M  V30 22276 C 2056.87 -0.474058 4.45485 0
M  V30 22277 C 2058.61 -2.1277 3.67327 0
M  V30 22278 C 2056.52 -1.14022 5.80304 0
M  V30 22279 H 2055.45 -0.296407 0.693295 0
M  V30 22280 H 2058.1 -0.0367253 1.83463 0
M  V30 22281 H 2056.48 -2.2393 3.26606 0
M  V30 22282 H 2057.66 0.290043 4.59886 0
M  V30 22283 H 2055.97 0.104026 4.1627 0
M  V30 22284 H 2058.57 -2.63365 4.65342 0
M  V30 22285 H 2058.91 -2.92187 2.96534 0
M  V30 22286 H 2059.45 -1.4014 3.72298 0
M  V30 22287 H 2056.18 -0.386619 6.54359 0
M  V30 22288 H 2055.7 -1.87547 5.69725 0
M  V30 22289 H 2057.38 -1.66341 6.25252 0
M  V30 22290 N 2057.52 -1.53558 -0.354624 0
M  V30 22291 C 2058.76 -1.70523 -1.09772 0
M  V30 22292 C 2059.09 -0.461312 -1.88641 0
M  V30 22293 O 2058.37 0.541553 -1.86809 0
M  V30 22294 C 2058.65 -2.96191 -2.04799 0
M  V30 22295 C 2058.51 -4.30765 -1.29465 0
M  V30 22296 C 2059.82 -3.17493 -3.04772 0
M  V30 22297 H 2056.94 -0.620497 -0.397683 0
M  V30 22298 H 2059.59 -1.86214 -0.377395 0
M  V30 22299 H 2057.74 -2.82944 -2.66223 0
M  V30 22300 H 2059.41 -4.55844 -0.707409 0
M  V30 22301 H 2057.65 -4.29678 -0.596569 0
M  V30 22302 H 2058.32 -5.14852 -1.99076 0
M  V30 22303 H 2060.8 -3.29998 -2.53458 0
M  V30 22304 H 2059.67 -4.06838 -3.68476 0
M  V30 22305 H 2059.93 -2.33276 -3.75546 0
M  V30 22306 N 2058.99 0.615033 -1.45104 0
M  V30 22307 C 2060.27 1.37409 -1.39206 0
M  V30 22308 C 2060.65 2.11018 -0.0588763 0
M  V30 22309 O 2060 2.07402 0.958997 0
M  V30 22310 C 2060.21 2.32712 -2.60089 0
M  V30 22311 C 2061.56 2.95549 -3.04854 0
M  V30 22312 O 2062.58 2.43035 -2.60408 0
M  V30 22313 O 2061.44 3.90854 -3.81963 0
M  V30 22314 H 2058.53 0.615766 -0.552052 0
M  V30 22315 H 2061.08 0.638743 -1.5722 0
M  V30 22316 H 2059.85 1.77529 -3.48711 0
M  V30 22317 H 2059.47 3.13639 -2.4437 0
M  V30 22318 N 2060.47 1.3227 0.85688 0
M  V30 22319 C 2061.72 1.22885 1.61329 0
M  V30 22320 C 2062.05 -0.209425 1.93067 0
M  V30 22321 O 2061.33 -1.14596 1.57156 0
M  V30 22322 C 2061.61 2.0863 2.93506 0
M  V30 22323 C 2061.46 3.60824 2.68563 0
M  V30 22324 C 2062.78 1.94573 3.94752 0
M  V30 22325 H 2059.9 0.447751 0.585395 0
M  V30 22326 H 2062.54 1.62193 0.989615 0
M  V30 22327 H 2060.69 1.75236 3.46734 0
M  V30 22328 H 2062.36 4.0442 2.21906 0
M  V30 22329 H 2060.61 3.83601 2.02566 0
M  V30 22330 H 2061.28 4.16143 3.6267 0
M  V30 22331 H 2063.75 2.23822 3.50775 0
M  V30 22332 H 2062.63 2.56848 4.85098 0
M  V30 22333 H 2062.89 0.912736 4.32575 0
M  V30 22334 N 2061.95 -1.07287 1.15444 0
M  V30 22335 C 2063.2 -1.79277 0.924257 0
M  V30 22336 C 2063.51 -1.8771 -0.549932 0
M  V30 22337 O 2064.72 -2.56229 -0.897718 0
M  V30 22338 C 2063.17 -3.22168 1.60424 0
M  V30 22339 C 2062.78 -3.21934 3.11549 0
M  V30 22340 C 2064.53 -3.98763 1.45563 0
M  V30 22341 C 2062.43 -4.59482 3.72331 0
M  V30 22342 H 2061.36 -0.671898 0.342153 0
M  V30 22343 H 2064.01 -1.20415 1.38465 0
M  V30 22344 H 2062.4 -3.81227 1.07154 0
M  V30 22345 H 2063.57 -2.72516 3.7158 0
M  V30 22346 H 2061.88 -2.58836 3.26179 0
M  V30 22347 H 2064.48 -5.00423 1.88364 0
M  V30 22348 H 2064.82 -4.14343 0.403205 0
M  V30 22349 H 2065.36 -3.46201 1.95933 0
M  V30 22350 H 2062.1 -4.49106 4.77476 0
M  V30 22351 H 2061.62 -5.09135 3.17083 0
M  V30 22352 H 2063.3 -5.2845 3.73296 0
M  V30 22353 N 2063.43 -0.951342 -1.25647 0
M  V30 22354 C 2064.84 -0.655246 -1.45529 0
M  V30 22355 C 2065.04 0.788272 -1.85441 0
M  V30 22356 O 2064.1 1.5639 -1.98238 0
M  V30 22357 C 2065.41 -1.62536 -2.52987 0
M  V30 22358 C 2066.96 -1.63618 -2.6683 0
M  V30 22359 C 2067.44 -2.59385 -3.77469 0
M  V30 22360 N 2068.93 -2.57731 -3.84876 0
M  V30 22361 C 2069.66 -3.28512 -4.69966 0
M  V30 22362 N 2069.16 -4.08754 -5.59367 0
M  V30 22363 N 2070.95 -3.17415 -4.63901 0
M  V30 22364 H 2063.1 -1.88424 -0.980317 0
M  V30 22365 H 2065.36 -0.8103 -0.492055 0
M  V30 22366 H 2065.07 -2.65628 -2.3051 0
M  V30 22367 H 2064.94 -1.38531 -3.5084 0
M  V30 22368 H 2067.33 -0.61246 -2.88674 0
M  V30 22369 H 2067.41 -1.91681 -1.69387 0
M  V30 22370 H 2067.06 -3.61882 -3.56376 0
M  V30 22371 H 2066.99 -2.28608 -4.7439 0
M  V30 22372 H 2069.48 -1.99473 -3.20966 0
M  V30 22373 H 2069.79 -4.5969 -6.21212 0
M  V30 22374 H 2068.14 -4.12853 -5.59086 0
M  V30 22375 H 2071.33 -2.54201 -3.93064 0
M  V30 22376 H 2071.5 -3.72843 -5.29992 0
M  V30 22377 N 2064.91 1.40216 -0.719531 0
M  V30 22378 C 2066.15 2.00814 -0.26074 0
M  V30 22379 C 2066.48 1.5706 1.14727 0
M  V30 22380 O 2065.74 0.783515 1.79331 0
M  V30 22381 C 2066.03 3.56196 -0.293164 0
M  V30 22382 C 2065.7 4.19546 -1.65202 0
M  V30 22383 C 2064.36 4.36564 -2.02398 0
M  V30 22384 C 2066.71 4.54844 -2.54492 0
M  V30 22385 C 2064.04 4.86164 -3.28422 0
M  V30 22386 C 2066.39 5.05845 -3.79873 0
M  V30 22387 C 2065.06 5.21072 -4.17181 0
M  V30 22388 H 2064.33 0.734832 -0.0954117 0
M  V30 22389 H 2066.98 1.6777 -0.923337 0
M  V30 22390 H 2065.28 3.89172 0.453006 0
M  V30 22391 H 2066.98 4.00921 0.0797168 0
M  V30 22392 H 2063.57 4.06691 -1.35278 0
M  V30 22393 H 2067.75 4.41329 -2.2703 0
M  V30 22394 H 2063.01 4.96138 -3.57292 0
M  V30 22395 H 2067.18 5.32134 -4.49229 0
M  V30 22396 H 2064.81 5.59268 -5.14902 0
M  V30 22397 N 2066.38 0.466004 1.50553 0
M  V30 22398 C 2067.32 -0.367023 2.26242 0
M  V30 22399 C 2068.33 -0.961526 1.31372 0
M  V30 22400 O 2069.52 -0.850796 1.56919 0
M  V30 22401 C 2066.62 -1.52825 3.02486 0
M  V30 22402 C 2065.79 -1.04746 4.24673 0
M  V30 22403 C 2064.85 -2.08215 4.83253 0
M  V30 22404 O 2063.88 -1.66482 5.44309 0
M  V30 22405 N 2065.08 -3.40977 4.69803 0
M  V30 22406 H 2067.84 0.281827 2.98372 0
M  V30 22407 H 2065.4 0.296497 1.59162 0
M  V30 22408 H 2067.4 -2.21726 3.38555 0
M  V30 22409 H 2065.97 -2.08189 2.33186 0
M  V30 22410 H 2065.19 -0.184515 3.93768 0
M  V30 22411 H 2066.47 -0.704072 5.03905 0
M  V30 22412 H 2065.87 -3.77596 4.21234 0
M  V30 22413 H 2064.43 -4.0569 5.10156 0
M  V30 22414 N 2067.86 -1.56346 0.198413 0
M  V30 22415 C 2069.27 -1.84047 -0.313597 0
M  V30 22416 C 2069.62 -1.11918 -1.61148 0
M  V30 22417 O 2068.75 -0.381091 -2.13018 0
M  V30 22418 C 2069.34 -3.33872 -0.575755 0
M  V30 22419 C 2067.9 -3.61973 -1.03213 0
M  V30 22420 C 2067.05 -2.77177 -0.0825349 0
M  V30 22421 H 2070 -1.52983 0.422128 0
M  V30 22422 H 2070.02 -3.52823 -1.42466 0
M  V30 22423 H 2069.53 -3.86341 0.369036 0
M  V30 22424 H 2067.63 -3.14939 -1.99108 0
M  V30 22425 H 2067.75 -4.70134 -0.922545 0
M  V30 22426 H 2066.11 -2.4789 -0.585043 0
M  V30 22427 H 2066.89 -3.32437 0.856759 0
M  V30 22428 N 2069.34 0.0751653 -1.57421 0
M  V30 22429 C 2070.59 0.773427 -1.86715 0
M  V30 22430 C 2070.91 1.78283 -0.789938 0
M  V30 22431 O 2070.18 1.95055 0.18176 0
M  V30 22432 H 2068.76 0.288632 -0.688985 0
M  V30 22433 H 2071.42 0.0520552 -1.9483 0
M  V30 22434 H 2070.52 1.29172 -2.84114 0
M  V30 22435 N 2070.82 1.53744 0.346476 0
M  V30 22436 C 2071.73 1.84516 1.44883 0
M  V30 22437 C 2072.74 0.735054 1.57712 0
M  V30 22438 O 2073.92 1.02706 1.73244 0
M  V30 22439 C 2070.99 2.04576 2.7991 0
M  V30 22440 C 2070.05 3.28442 2.7645 0
M  V30 22441 C 2069.28 3.47536 4.05036 0
M  V30 22442 O 2069.5 2.70527 5.02167 0
M  V30 22443 O 2068.44 4.40955 4.09686 0
M  V30 22444 H 2072.26 2.78207 1.21797 0
M  V30 22445 H 2069.85 1.39362 0.53838 0
M  V30 22446 H 2071.73 2.19232 3.59882 0
M  V30 22447 H 2070.4 1.14074 3.02934 0
M  V30 22448 H 2069.31 3.19192 1.95108 0
M  V30 22449 H 2070.64 4.18928 2.5838 0
M  V30 22450 N 2072.3 -0.607329 1.45428 0
M  V30 22451 C 2073.52 -1.39296 1.52984 0
M  V30 22452 C 2073.94 -1.88099 0.162539 0
M  V30 22453 O 2073.3 -1.62229 -0.835945 0
M  V30 22454 C 2073.35 -2.59727 2.51444 0
M  V30 22455 O 2073.07 -2.12952 3.82862 0
M  V30 22456 C 2074.57 -3.52583 2.68701 0
M  V30 22457 H 2071.79 -0.426391 0.518104 0
M  V30 22458 H 2074.33 -0.740646 1.90617 0
M  V30 22459 H 2072.49 -3.20999 2.16883 0
M  V30 22460 H 2072.9 -2.91201 4.36237 0
M  V30 22461 H 2074.38 -4.33629 3.4157 0
M  V30 22462 H 2074.85 -4.0294 1.74746 0
M  V30 22463 H 2075.46 -2.97163 3.0426 0
M  V30 22464 N 2073.77 -1.32722 -0.849853 0
M  V30 22465 C 2074.7 -1.24675 -1.97429 0
M  V30 22466 C 2075.69 -0.129581 -1.69606 0
M  V30 22467 O 2076.87 -0.317548 -1.91586 0
M  V30 22468 C 2074 -0.973971 -3.33363 0
M  V30 22469 C 2072.95 -2.05289 -3.75553 0
M  V30 22470 C 2072.28 -1.63244 -5.09171 0
M  V30 22471 C 2073.58 -3.46845 -3.90507 0
M  V30 22472 H 2075.27 -2.18753 -2.0442 0
M  V30 22473 H 2072.82 -1.0531 -0.982132 0
M  V30 22474 H 2074.77 -0.904206 -4.11585 0
M  V30 22475 H 2073.5 0.00243816 -3.266 0
M  V30 22476 H 2072.16 -2.11289 -2.99587 0
M  V30 22477 H 2071.8 -0.643348 -4.98869 0
M  V30 22478 H 2071.5 -2.35437 -5.38371 0
M  V30 22479 H 2073.03 -1.57713 -5.8988 0
M  V30 22480 H 2074.44 -3.43408 -4.59069 0
M  V30 22481 H 2072.84 -4.17429 -4.3113 0
M  V30 22482 H 2073.91 -3.86155 -2.93278 0
M  V30 22483 N 2075.25 1.06673 -1.16011 0
M  V30 22484 C 2076.48 1.83106 -0.963322 0
M  V30 22485 C 2076.9 1.82372 0.488451 0
M  V30 22486 O 2076.25 1.24012 1.33893 0
M  V30 22487 C 2076.3 3.29888 -1.47838 0
M  V30 22488 O 2076.02 3.30717 -2.87328 0
M  V30 22489 C 2077.53 4.23065 -1.32405 0
M  V30 22490 H 2074.75 0.577476 -0.341705 0
M  V30 22491 H 2077.29 1.34611 -1.53948 0
M  V30 22492 H 2075.44 3.75708 -0.944585 0
M  V30 22493 H 2075.86 4.22475 -3.1083 0
M  V30 22494 H 2077.33 5.24098 -1.73279 0
M  V30 22495 H 2077.81 4.38375 -0.269104 0
M  V30 22496 H 2078.42 3.83088 -1.84726 0
M  V30 22497 N 2076.73 0.957992 1.25141 0
M  V30 22498 C 2077.64 0.487592 2.29477 0
M  V30 22499 C 2078.66 -0.446704 1.68168 0
M  V30 22500 O 2079.83 -0.322127 1.98807 0
M  V30 22501 C 2076.9 -0.22393 3.45976 0
M  V30 22502 C 2075.96 0.748994 4.22716 0
M  V30 22503 C 2075.19 0.0713329 5.33652 0
M  V30 22504 O 2075.41 -1.14234 5.58844 0
M  V30 22505 O 2074.35 0.758575 5.97101 0
M  V30 22506 H 2078.17 1.35471 2.71811 0
M  V30 22507 H 2075.76 0.724594 1.30652 0
M  V30 22508 H 2077.64 -0.624039 4.16754 0
M  V30 22509 H 2076.32 -1.06616 3.05638 0
M  V30 22510 H 2075.22 1.19938 3.54353 0
M  V30 22511 H 2076.56 1.55935 4.66846 0
M  V30 22512 N 2078.21 -1.39832 0.726957 0
M  V30 22513 C 2079.46 -1.99907 0.268315 0
M  V30 22514 C 2079.77 -1.58329 -1.14854 0
M  V30 22515 O 2080.98 -2.11183 -1.70628 0
M  V30 22516 C 2079.43 -3.57337 0.428781 0
M  V30 22517 C 2079.04 -4.07882 1.853 0
M  V30 22518 C 2080.78 -4.24488 0.031508 0
M  V30 22519 C 2078.69 -5.57856 1.96344 0
M  V30 22520 H 2077.62 -0.747791 0.0965646 0
M  V30 22521 H 2080.27 -1.59931 0.899682 0
M  V30 22522 H 2078.65 -3.95069 -0.271354 0
M  V30 22523 H 2079.83 -3.81502 2.58444 0
M  V30 22524 H 2078.14 -3.53366 2.20276 0
M  V30 22525 H 2080.74 -5.34619 0.0931531 0
M  V30 22526 H 2081.08 -4.0381 -1.01209 0
M  V30 22527 H 2081.62 -3.91901 0.682503 0
M  V30 22528 H 2078.36 -5.83404 2.98865 0
M  V30 22529 H 2077.88 -5.86064 1.27627 0
M  V30 22530 H 2079.55 -6.2314 1.74085 0
M  V30 22531 N 2079.69 -0.473982 -1.50304 0
M  V30 22532 C 2080.62 0.308532 -2.31453 0
M  V30 22533 C 2081.6 0.987678 -1.38488 0
M  V30 22534 O 2082.78 0.984294 -1.67408 0
M  V30 22535 C 2079.91 1.38921 -3.18305 0
M  V30 22536 C 2078.87 0.831509 -4.19845 0
M  V30 22537 C 2078.19 2.0107 -4.95454 0
M  V30 22538 C 2079.49 -0.159166 -5.22057 0
M  V30 22539 H 2081.19 -0.368757 -2.9712 0
M  V30 22540 H 2078.73 -0.178787 -1.42886 0
M  V30 22541 H 2080.69 1.94415 -3.73873 0
M  V30 22542 H 2079.41 2.09531 -2.50528 0
M  V30 22543 H 2078.07 0.298526 -3.65383 0
M  V30 22544 H 2077.72 2.70384 -4.24148 0
M  V30 22545 H 2077.42 1.64374 -5.64141 0
M  V30 22546 H 2078.94 2.57048 -5.53858 0
M  V30 22547 H 2080.35 0.306691 -5.72479 0
M  V30 22548 H 2078.75 -0.440549 -5.98481 0
M  V30 22549 H 2079.82 -1.08411 -4.72626 0
M  V30 22550 N 2081.16 1.56239 -0.206702 0
M  V30 22551 C 2082.07 2.2324 0.721172 0
M  V30 22552 C 2083.09 1.2352 1.22552 0
M  V30 22553 O 2084.27 1.56291 1.27025 0
M  V30 22554 C 2081.33 2.88767 1.91871 0
M  V30 22555 C 2080.39 4.03791 1.45779 0
M  V30 22556 C 2079.63 4.66183 2.59825 0
M  V30 22557 O 2079.85 4.27524 3.77597 0
M  V30 22558 O 2078.78 5.55444 2.31874 0
M  V30 22559 H 2082.61 3.03163 0.180488 0
M  V30 22560 H 2080.19 1.49382 0.0231036 0
M  V30 22561 H 2082.08 3.30181 2.61837 0
M  V30 22562 H 2080.75 2.11815 2.44777 0
M  V30 22563 H 2079.66 3.66976 0.726587 0
M  V30 22564 H 2080.99 4.82441 0.975269 0
M  V30 22565 N 2082.64 -0.0668159 1.57458 0
M  V30 22566 C 2083.87 -0.777815 1.91723 0
M  V30 22567 C 2084.29 -1.70866 0.803128 0
M  V30 22568 O 2083.64 -1.8113 -0.223207 0
M  V30 22569 C 2083.69 -1.56722 3.25761 0
M  V30 22570 O 2083.41 -0.673779 4.32888 0
M  V30 22571 C 2084.92 -2.37877 3.74071 0
M  V30 22572 H 2082.14 -0.220863 0.633609 0
M  V30 22573 H 2084.68 -0.0355987 2.04469 0
M  V30 22574 H 2082.83 -2.26166 3.14527 0
M  V30 22575 H 2083.25 -1.22335 5.10034 0
M  V30 22576 H 2084.72 -2.88716 4.70476 0
M  V30 22577 H 2085.2 -3.17625 3.03334 0
M  V30 22578 H 2085.81 -1.73579 3.88266 0
M  V30 22579 N 2084.12 -1.53926 -0.338317 0
M  V30 22580 C 2085.53 -1.62818 -0.913629 0
M  V30 22581 C 2085.88 -0.512813 -1.8938 0
M  V30 22582 O 2085.01 0.356629 -2.13441 0
M  V30 22583 C 2085.6 -2.9513 -1.66385 0
M  V30 22584 C 2084.16 -3.06267 -2.1881 0
M  V30 22585 C 2083.31 -2.58298 -1.00884 0
M  V30 22586 H 2086.26 -1.58273 -0.116306 0
M  V30 22587 H 2086.28 -2.84463 -2.52708 0
M  V30 22588 H 2085.79 -3.76288 -0.950215 0
M  V30 22589 H 2083.89 -2.29753 -2.93333 0
M  V30 22590 H 2084.01 -4.11824 -2.44822 0
M  V30 22591 H 2082.37 -2.13832 -1.38376 0
M  V30 22592 H 2083.15 -3.419 -0.309757 0
M  V30 22593 N 2085.6 0.599608 -1.45748 0
M  V30 22594 C 2086.56 1.6918 -1.54631 0
M  V30 22595 C 2087.56 1.55081 -0.425029 0
M  V30 22596 O 2088.75 1.60004 -0.688782 0
M  V30 22597 C 2085.88 3.08502 -1.45049 0
M  V30 22598 H 2087.08 1.62667 -2.51951 0
M  V30 22599 H 2084.63 0.816022 -1.33307 0
M  V30 22600 H 2085.37 3.20585 -0.489439 0
M  V30 22601 H 2085.15 3.20144 -2.26386 0
M  V30 22602 H 2086.64 3.88042 -1.54315 0
M  V30 22603 N 2087.08 1.33171 0.842803 0
M  V30 22604 C 2088.31 1.27434 1.62997 0
M  V30 22605 C 2088.72 -0.155477 1.88159 0
M  V30 22606 O 2088.08 -1.09638 1.45897 0
M  V30 22607 C 2088.13 2.04284 2.98245 0
M  V30 22608 O 2087.85 3.41688 2.74191 0
M  V30 22609 C 2089.35 2.05711 3.9268 0
M  V30 22610 H 2086.57 0.439188 0.507302 0
M  V30 22611 H 2089.11 1.75481 1.05007 0
M  V30 22612 H 2087.27 1.5993 3.52847 0
M  V30 22613 H 2087.68 3.81172 3.60288 0
M  V30 22614 H 2089.16 2.63943 4.84807 0
M  V30 22615 H 2089.63 1.04636 4.26553 0
M  V30 22616 H 2090.24 2.50067 3.44015 0
M  V30 22617 N 2088.56 -1.06056 1.16576 0
M  V30 22618 C 2089.78 -1.83131 0.973539 0
M  V30 22619 C 2090.21 -1.82047 -0.473358 0
M  V30 22620 O 2089.56 -1.22303 -1.33834 0
M  V30 22621 C 2089.61 -3.2753 1.50852 0
M  V30 22622 O 2088.72 -4.06129 0.716451 0
M  V30 22623 H 2088.06 -0.566557 0.346279 0
M  V30 22624 H 2090.59 -1.33704 1.54869 0
M  V30 22625 H 2090.6 -3.78346 1.52704 0
M  V30 22626 H 2089.27 -3.27634 2.56181 0
M  V30 22627 H 2087.85 -3.64892 0.768639 0
M  V30 22628 N 2090.03 -0.964615 -1.24631 0
M  V30 22629 C 2090.94 -0.499755 -2.29215 0
M  V30 22630 C 2091.96 0.43778 -1.68403 0
M  V30 22631 O 2093.14 0.311579 -1.98975 0
M  V30 22632 C 2090.2 0.205579 -3.4609 0
M  V30 22633 C 2089.26 -0.771401 -4.22313 0
M  V30 22634 C 2088.49 -0.0996328 -5.33607 0
M  V30 22635 O 2088.72 1.11269 -5.59442 0
M  V30 22636 O 2087.65 -0.79023 -5.9669 0
M  V30 22637 H 2091.48 -1.3691 -2.71089 0
M  V30 22638 H 2089.06 -0.731512 -1.30266 0
M  V30 22639 H 2090.94 0.601929 -4.17079 0
M  V30 22640 H 2089.62 1.04994 -3.06199 0
M  V30 22641 H 2088.53 -1.21815 -3.53712 0
M  V30 22642 H 2089.86 -1.58408 -4.66012 0
M  V30 22643 N 2091.51 1.39445 -0.734362 0
M  V30 22644 C 2092.44 2.29135 -0.0543743 0
M  V30 22645 C 2093.46 1.46785 0.704126 0
M  V30 22646 O 2094.65 1.69867 0.548394 0
M  V30 22647 C 2091.75 3.25393 0.947229 0
M  V30 22648 C 2090.92 4.36683 0.250381 0
M  V30 22649 C 2089.98 5.13255 1.16 0
M  V30 22650 O 2089 5.65616 0.637723 0
M  V30 22651 N 2090.21 5.24396 2.48976 0
M  V30 22652 H 2092.97 2.88134 -0.824567 0
M  V30 22653 H 2090.53 1.51018 -0.583531 0
M  V30 22654 H 2092.52 3.73494 1.55834 0
M  V30 22655 H 2091.09 2.6743 1.61863 0
M  V30 22656 H 2090.31 3.90467 -0.5412 0
M  V30 22657 H 2091.6 5.08268 -0.232571 0
M  V30 22658 H 2091 4.83371 2.93885 0
M  V30 22659 H 2089.56 5.75939 3.05185 0
M  V30 22660 N 2092.99 0.481946 1.5005 0
M  V30 22661 C 2093.9 -0.311606 2.32521 0
M  V30 22662 C 2094.92 -0.985661 1.4339 0
M  V30 22663 O 2096.09 -0.971246 1.76433 0
M  V30 22664 C 2093.16 -1.37313 3.18349 0
M  V30 22665 C 2092.22 -0.714526 4.23312 0
M  V30 22666 C 2091.45 -1.72547 5.05038 0
M  V30 22667 O 2091.67 -2.95324 4.87996 0
M  V30 22668 O 2090.61 -1.2913 5.87885 0
M  V30 22669 H 2094.43 0.362909 3.01524 0
M  V30 22670 H 2092.02 0.243598 1.47401 0
M  V30 22671 H 2093.9 -1.98774 3.71573 0
M  V30 22672 H 2092.58 -2.03091 2.52063 0
M  V30 22673 H 2091.48 -0.0606687 3.74051 0
M  V30 22674 H 2092.82 -0.099506 4.92099 0
M  V30 22675 N 2094.47 -1.56127 0.214985 0
M  V30 22676 C 2095.43 -2.18748 -0.684252 0
M  V30 22677 C 2096.43 -1.14748 -1.12648 0
M  V30 22678 O 2097.62 -1.4002 -1.03634 0
M  V30 22679 C 2094.75 -2.80553 -1.93656 0
M  V30 22680 H 2095.95 -2.99581 -0.13839 0
M  V30 22681 H 2093.5 -1.56262 -0.0346358 0
M  V30 22682 H 2094.23 -2.03573 -2.52445 0
M  V30 22683 H 2094.02 -3.56705 -1.628 0
M  V30 22684 H 2095.51 -3.28575 -2.57737 0
M  V30 22685 N 2095.95 0.0584645 -1.57492 0
M  V30 22686 C 2096.86 1.08563 -2.07969 0
M  V30 22687 C 2097.87 1.41545 -1.01198 0
M  V30 22688 O 2099.05 1.51455 -1.32753 0
M  V30 22689 C 2096.11 2.37616 -2.52467 0
M  V30 22690 C 2095.17 2.11485 -3.73594 0
M  V30 22691 C 2094.41 3.34384 -4.1596 0
M  V30 22692 O 2094.63 4.43997 -3.58083 0
M  V30 22693 O 2093.56 3.21812 -5.08646 0
M  V30 22694 H 2097.39 0.686764 -2.95833 0
M  V30 22695 H 2094.97 0.273502 -1.46875 0
M  V30 22696 H 2096.86 3.13541 -2.81549 0
M  V30 22697 H 2095.53 2.76857 -1.67726 0
M  V30 22698 H 2094.44 1.33222 -3.49575 0
M  V30 22699 H 2095.77 1.77117 -4.59228 0
M  V30 22700 N 2097.42 1.54103 0.330149 0
M  V30 22701 C 2098.37 1.7941 1.40698 0
M  V30 22702 C 2099.36 0.649833 1.47194 0
M  V30 22703 O 2100.55 0.909637 1.51837 0
M  V30 22704 C 2097.68 2.01906 2.77649 0
M  V30 22705 C 2096.76 3.22436 2.75492 0
M  V30 22706 N 2097.16 4.43627 2.42959 0
M  V30 22707 C 2095.45 3.23876 3.06628 0
M  V30 22708 C 2096.15 5.25536 2.49372 0
M  V30 22709 N 2095.13 4.62564 2.85544 0
M  V30 22710 H 2098.93 2.70694 1.14463 0
M  V30 22711 H 2096.45 1.53209 0.538595 0
M  V30 22712 H 2098.44 2.18174 3.55255 0
M  V30 22713 H 2097.1 1.11872 3.04819 0
M  V30 22714 H 2098.11 4.70743 2.1592 0
M  V30 22715 H 2094.79 2.43854 3.38883 0
M  V30 22716 H 2096.18 6.32297 2.27265 0
M  V30 22717 N 2098.9 -0.59187 1.46064 0
M  V30 22718 C 2099.83 -1.71586 1.51957 0
M  V30 22719 C 2100.85 -1.57585 0.408771 0
M  V30 22720 O 2102.04 -1.65177 0.676661 0
M  V30 22721 C 2099.14 -3.09749 1.3751 0
M  V30 22722 C 2098.31 -3.49841 2.62546 0
M  V30 22723 C 2097.37 -4.67027 2.4243 0
M  V30 22724 O 2096.39 -4.7335 3.16115 0
M  V30 22725 N 2097.6 -5.61316 1.48003 0
M  V30 22726 H 2100.36 -1.66989 2.48867 0
M  V30 22727 H 2097.92 -0.7776 1.42003 0
M  V30 22728 H 2099.91 -3.85924 1.21839 0
M  V30 22729 H 2098.48 -3.08765 0.488162 0
M  V30 22730 H 2097.7 -2.63465 2.93223 0
M  V30 22731 H 2098.99 -3.7339 3.45626 0
M  V30 22732 H 2098.39 -5.58935 0.872231 0
M  V30 22733 H 2096.95 -6.36959 1.38298 0
M  V30 22734 N 2100.38 -1.33616 -0.835729 0
M  V30 22735 C 2101.8 -1.13019 -1.12689 0
M  V30 22736 C 2102 0.0768335 -2.01353 0
M  V30 22737 O 2101.05 0.756169 -2.40911 0
M  V30 22738 C 2102.37 -2.41918 -1.78595 0
M  V30 22739 C 2103.91 -2.47854 -1.91147 0
M  V30 22740 C 2104.39 -3.76723 -2.60469 0
M  V30 22741 N 2105.88 -3.77811 -2.67979 0
M  V30 22742 C 2106.61 -4.74237 -3.22315 0
M  V30 22743 N 2106.11 -5.81039 -3.77313 0
M  V30 22744 N 2107.9 -4.61709 -3.20596 0
M  V30 22745 H 2100.05 -2.10974 -0.245697 0
M  V30 22746 H 2102.32 -0.932353 -0.171526 0
M  V30 22747 H 2102.02 -3.30264 -1.20906 0
M  V30 22748 H 2101.9 -2.54302 -2.78586 0
M  V30 22749 H 2104.28 -1.59955 -2.47989 0
M  V30 22750 H 2104.37 -2.39408 -0.900965 0
M  V30 22751 H 2104.01 -4.65005 -2.04286 0
M  V30 22752 H 2103.94 -3.82447 -3.61998 0
M  V30 22753 H 2106.43 -3.00626 -2.28982 0
M  V30 22754 H 2106.74 -6.50648 -4.16986 0
M  V30 22755 H 2105.09 -5.8477 -3.75592 0
M  V30 22756 H 2108.28 -3.77426 -2.76888 0
M  V30 22757 H 2108.45 -5.37026 -3.62639 0
M  V30 22758 N 2101.86 1.05436 -1.17136 0
M  V30 22759 C 2102.82 2.11293 -0.888146 0
M  V30 22760 C 2103.82 1.60347 0.120621 0
M  V30 22761 O 2105.01 1.73844 -0.111266 0
M  V30 22762 C 2102.14 3.393 -0.329871 0
M  V30 22763 H 2103.34 2.3785 -1.82667 0
M  V30 22764 H 2100.89 1.21641 -0.981486 0
M  V30 22765 H 2101.62 3.18397 0.61592 0
M  V30 22766 H 2101.41 3.77588 -1.05687 0
M  V30 22767 H 2102.9 4.17331 -0.149954 0
M  V30 22768 N 2103.34 0.971211 1.24118 0
M  V30 22769 C 2104.27 0.448828 2.23743 0
M  V30 22770 C 2105.25 -0.479005 1.55384 0
M  V30 22771 O 2106.43 -0.409573 1.83997 0
M  V30 22772 C 2103.56 -0.351705 3.36869 0
M  V30 22773 C 2102.6 0.518924 4.23331 0
M  V30 22774 S 2103.44 1.96125 4.98292 0
M  V30 22775 C 2104.59 1.1696 6.14875 0
M  V30 22776 H 2104.83 1.29308 2.67706 0
M  V30 22777 H 2102.36 0.776507 1.33453 0
M  V30 22778 H 2104.32 -0.8076 4.02477 0
M  V30 22779 H 2102.98 -1.17097 2.91457 0
M  V30 22780 H 2102.17 -0.095892 5.03909 0
M  V30 22781 H 2101.77 0.910689 3.62743 0
M  V30 22782 H 2104.07 0.426358 6.76157 0
M  V30 22783 H 2105.01 1.94988 6.80724 0
M  V30 22784 H 2105.42 0.692432 5.60237 0
M  V30 22785 N 2104.81 -1.39054 0.741747 0
M  V30 22786 C 2105.75 -2.29103 0.0665251 0
M  V30 22787 C 2106.76 -1.47157 -0.696331 0
M  V30 22788 O 2107.95 -1.70156 -0.539378 0
M  V30 22789 C 2105.05 -3.25891 -0.929959 0
M  V30 22790 C 2104.22 -4.36809 -0.227219 0
M  V30 22791 C 2103.28 -5.13863 -1.13276 0
M  V30 22792 O 2102.31 -5.65946 -0.607718 0
M  V30 22793 N 2103.51 -5.25709 -2.46192 0
M  V30 22794 H 2106.27 -2.87692 0.839836 0
M  V30 22795 H 2103.83 -1.50707 0.591532 0
M  V30 22796 H 2105.83 -3.74315 -1.53851 0
M  V30 22797 H 2104.4 -2.68285 -1.60443 0
M  V30 22798 H 2103.62 -3.90175 0.5619 0
M  V30 22799 H 2104.9 -5.08138 0.259523 0
M  V30 22800 H 2104.3 -4.84923 -2.91318 0
M  V30 22801 H 2102.86 -5.77549 -3.02127 0
M  V30 22802 N 2106.29 -0.489897 -1.49792 0
M  V30 22803 C 2107.71 -0.145171 -1.58938 0
M  V30 22804 C 2107.91 1.34961 -1.49625 0
M  V30 22805 O 2106.96 2.1246 -1.36444 0
M  V30 22806 C 2108.28 -0.7121 -2.92147 0
M  V30 22807 C 2109.83 -0.677209 -3.05586 0
M  V30 22808 C 2110.3 -1.22201 -4.41397 0
M  V30 22809 N 2111.79 -1.18222 -4.47859 0
M  V30 22810 C 2112.53 -1.57407 -5.51372 0
M  V30 22811 N 2112.02 -2.04131 -6.62044 0
M  V30 22812 N 2113.82 -1.48892 -5.42022 0
M  V30 22813 H 2105.97 -1.46186 -1.54089 0
M  V30 22814 H 2108.23 -0.60569 -0.729276 0
M  V30 22815 H 2107.94 -1.75998 -3.04496 0
M  V30 22816 H 2107.81 -0.166236 -3.76834 0
M  V30 22817 H 2110.2 0.361809 -2.92874 0
M  V30 22818 H 2110.28 -1.26009 -2.2261 0
M  V30 22819 H 2109.92 -2.25975 -4.5486 0
M  V30 22820 H 2109.85 -0.615163 -5.22995 0
M  V30 22821 H 2112.34 -0.839749 -3.68452 0
M  V30 22822 H 2112.66 -2.32129 -7.37113 0
M  V30 22823 H 2111 -2.08097 -6.63114 0
M  V30 22824 H 2114.19 -1.12217 -4.5445 0
M  V30 22825 H 2114.36 -1.79754 -6.22569 0
M  V30 22826 N 2107.77 1.56011 -0.223262 0
M  V30 22827 C 2109.19 1.59052 0.132091 0
M  V30 22828 C 2109.39 1.2401 1.5882 0
M  V30 22829 O 2108.44 0.976155 2.32868 0
M  V30 22830 C 2109.76 3.00062 -0.195742 0
M  V30 22831 C 2111.3 3.12695 -0.138118 0
M  V30 22832 C 2111.78 4.55885 -0.439651 0
M  V30 22833 N 2113.27 4.61561 -0.389284 0
M  V30 22834 C 2114 5.70293 -0.596069 0
M  V30 22835 N 2113.5 6.87382 -0.86472 0
M  V30 22836 N 2115.29 5.59611 -0.528389 0
M  V30 22837 H 2107.44 1.77064 -1.17312 0
M  V30 22838 H 2109.71 0.823097 -0.470336 0
M  V30 22839 H 2109.41 3.3036 -1.20644 0
M  V30 22840 H 2109.29 3.74024 0.48845 0
M  V30 22841 H 2111.67 2.82192 0.863219 0
M  V30 22842 H 2111.76 2.41059 -0.855813 0
M  V30 22843 H 2111.4 4.87105 -1.43843 0
M  V30 22844 H 2111.33 5.25749 0.299255 0
M  V30 22845 H 2113.82 3.77425 -0.189406 0
M  V30 22846 H 2114.13 7.66164 -1.01056 0
M  V30 22847 H 2112.48 6.89123 -0.901933 0
M  V30 22848 H 2115.67 4.67014 -0.318724 0
M  V30 22849 H 2115.84 6.44284 -0.69295 0
M  V30 22850 N 2109.25 -0.0501116 1.5752 0
M  V30 22851 C 2110.21 -1.0417 2.0416 0
M  V30 22852 C 2111.21 -1.30309 0.942133 0
M  V30 22853 O 2112.4 -1.25665 1.20639 0
M  V30 22854 C 2109.53 -2.37997 2.4407 0
M  V30 22855 H 2110.73 -0.639249 2.93008 0
M  V30 22856 H 2108.28 -0.296417 1.53464 0
M  V30 22857 H 2109.01 -2.83032 1.58314 0
M  V30 22858 H 2108.8 -2.2036 3.2432 0
M  V30 22859 H 2110.29 -3.09229 2.80654 0
M  V30 22860 N 2110.73 -1.54276 -0.321972 0
M  V30 22861 C 2111.98 -1.7177 -1.05726 0
M  V30 22862 C 2112.29 -0.499164 -1.89124 0
M  V30 22863 O 2113.49 -0.555477 -2.65757 0
M  V30 22864 C 2111.95 -3.03824 -1.92923 0
M  V30 22865 C 2111.56 -4.33087 -1.14629 0
M  V30 22866 C 2113.3 -3.30681 -2.66178 0
M  V30 22867 C 2111.21 -5.56202 -2.00981 0
M  V30 22868 H 2110.14 -0.64013 -0.398433 0
M  V30 22869 H 2112.79 -1.80769 -0.315414 0
M  V30 22870 H 2111.17 -2.88736 -2.71012 0
M  V30 22871 H 2112.35 -4.58946 -0.412993 0
M  V30 22872 H 2110.66 -4.13007 -0.530488 0
M  V30 22873 H 2113.26 -4.19857 -3.31096 0
M  V30 22874 H 2113.6 -2.48629 -3.339 0
M  V30 22875 H 2114.13 -3.46643 -1.95149 0
M  V30 22876 H 2110.87 -6.4086 -1.37764 0
M  V30 22877 H 2110.39 -5.3456 -2.7204 0
M  V30 22878 H 2112.07 -5.92667 -2.59528 0
M  V30 22879 N 2112.2 0.584116 -1.46376 0
M  V30 22880 C 2113.62 0.907336 -1.313 0
M  V30 22881 C 2113.82 1.99497 -0.283388 0
M  V30 22882 O 2112.88 2.50533 0.314536 0
M  V30 22883 C 2114.19 1.32602 -2.69883 0
M  V30 22884 C 2115.74 1.43895 -2.77963 0
M  V30 22885 C 2116.21 1.89131 -4.17125 0
M  V30 22886 N 2117.7 1.96326 -4.19536 0
M  V30 22887 C 2118.44 2.32599 -5.24104 0
M  V30 22888 N 2117.93 2.67675 -6.39001 0
M  V30 22889 N 2119.73 2.33142 -5.1147 0
M  V30 22890 H 2111.88 -0.134382 -2.11974 0
M  V30 22891 H 2114.14 0.00254953 -0.947997 0
M  V30 22892 H 2113.85 0.600869 -3.46529 0
M  V30 22893 H 2113.72 2.28783 -2.99897 0
M  V30 22894 H 2116.11 2.15497 -2.01606 0
M  V30 22895 H 2116.19 0.459692 -2.51636 0
M  V30 22896 H 2115.83 1.18108 -4.93977 0
M  V30 22897 H 2115.76 2.88012 -4.40859 0
M  V30 22898 H 2118.25 1.71715 -3.36634 0
M  V30 22899 H 2118.57 2.94302 -7.14567 0
M  V30 22900 H 2116.91 2.65317 -6.42364 0
M  V30 22901 H 2120.1 2.05161 -4.20745 0
M  V30 22902 H 2120.28 2.61083 -5.93077 0
M  V30 22903 N 2113.68 1.34058 0.828631 0
M  V30 22904 C 2114.96 1.1668 1.56988 0
M  V30 22905 C 2115.34 -0.262846 2.09457 0
M  V30 22906 O 2114.69 -1.26337 1.90398 0
M  V30 22907 C 2114.9 2.21657 2.69572 0
M  V30 22908 C 2116.25 2.56341 3.38489 0
M  V30 22909 O 2117.27 2.20402 2.79824 0
M  V30 22910 O 2116.13 3.18053 4.44415 0
M  V30 22911 H 2113.22 0.451944 0.692586 0
M  V30 22912 H 2115.77 1.45672 0.870498 0
M  V30 22913 H 2114.54 3.17643 2.28515 0
M  V30 22914 H 2114.16 1.93809 3.47166 0
M  V30 22915 N 2115.16 -1.04814 1.17694 0
M  V30 22916 C 2116.12 -2.10819 0.899339 0
M  V30 22917 C 2117.12 -1.60409 -0.112116 0
M  V30 22918 O 2118.31 -1.73783 0.120484 0
M  V30 22919 C 2115.45 -3.39121 0.34786 0
M  V30 22920 H 2116.64 -2.36878 1.83926 0
M  V30 22921 H 2114.19 -1.21119 0.987923 0
M  V30 22922 H 2114.93 -3.1872 -0.599026 0
M  V30 22923 H 2114.71 -3.77022 1.07688 0
M  V30 22924 H 2116.2 -4.17245 0.172084 0
M  V30 22925 N 2116.64 -0.977779 -1.23601 0
M  V30 22926 C 2117.59 -0.51555 -2.24968 0
M  V30 22927 C 2118.56 0.4442 -1.6005 0
M  V30 22928 O 2119.74 0.352328 -1.87519 0
M  V30 22929 C 2116.88 0.17842 -3.44638 0
M  V30 22930 C 2115.99 -0.821283 -4.24121 0
M  V30 22931 C 2115.13 -0.102387 -5.31101 0
M  V30 22932 C 2114.17 -1.09148 -6.0229 0
M  V30 22933 N 2113.31 -0.401914 -7.00949 0
M  V30 22934 H 2118.15 -1.38475 -2.63872 0
M  V30 22935 H 2115.68 -0.693946 -1.29703 0
M  V30 22936 H 2117.64 0.597555 -4.12898 0
M  V30 22937 H 2116.27 1.01151 -3.06543 0
M  V30 22938 H 2115.32 -1.35882 -3.55303 0
M  V30 22939 H 2116.63 -1.5751 -4.73278 0
M  V30 22940 H 2115.79 0.374242 -6.05545 0
M  V30 22941 H 2114.53 0.684048 -4.82879 0
M  V30 22942 H 2113.53 -1.57889 -5.26641 0
M  V30 22943 H 2114.76 -1.87853 -6.52601 0
M  V30 22944 H 2112.7 0.365361 -6.54982 0
M  V30 22945 H 2112.62 -1.09443 -7.48036 0
M  V30 22946 H 2113.89 0.0524137 -7.79482 0
M  V30 22947 N 2118.12 1.38658 -0.749111 0
M  V30 22948 C 2119.35 2.04504 -0.313958 0
M  V30 22949 C 2119.76 1.56495 1.05616 0
M  V30 22950 O 2119.12 0.736036 1.66999 0
M  V30 22951 C 2119.17 3.60059 -0.322507 0
M  V30 22952 O 2118.89 4.06304 -1.63855 0
M  V30 22953 C 2120.39 4.43118 0.127067 0
M  V30 22954 H 2117.61 0.657312 -0.134841 0
M  V30 22955 H 2120.15 1.77435 -1.01671 0
M  V30 22956 H 2118.31 3.85979 0.331471 0
M  V30 22957 H 2118.72 5.00711 -1.56169 0
M  V30 22958 H 2120.2 5.51956 0.0699241 0
M  V30 22959 H 2120.67 4.2321 1.17431 0
M  V30 22960 H 2121.28 4.22376 -0.49787 0
M  V30 22961 N 2119.6 0.497834 1.49531 0
M  V30 22962 C 2121.01 0.0492618 1.86635 0
M  V30 22963 C 2121.36 -1.36386 1.41044 0
M  V30 22964 O 2120.48 -2.01584 0.786942 0
M  V30 22965 C 2121.08 0.0826203 3.38699 0
M  V30 22966 C 2119.64 -0.310596 3.75116 0
M  V30 22967 C 2118.78 0.456535 2.73516 0
M  V30 22968 H 2121.73 0.71078 1.41893 0
M  V30 22969 H 2121.76 -0.713419 3.73752 0
M  V30 22970 H 2121.27 1.11123 3.71851 0
M  V30 22971 H 2119.37 -1.34255 3.47572 0
M  V30 22972 H 2119.48 0.0066527 4.791 0
M  V30 22973 H 2117.85 -0.0932284 2.54529 0
M  V30 22974 H 2118.63 1.48516 3.09512 0
M  V30 22975 N 2121.07 -1.5589 0.231532 0
M  V30 22976 C 2122.35 -1.90424 -0.446981 0
M  V30 22977 C 2122.73 -1.15023 -1.77011 0
M  V30 22978 O 2122.08 -0.262744 -2.26984 0
M  V30 22979 C 2122.29 -3.43264 -0.630152 0
M  V30 22980 C 2123.64 -4.14221 -0.933046 0
M  V30 22981 O 2124.66 -3.48918 -0.716578 0
M  V30 22982 O 2123.52 -5.29705 -1.34441 0
M  V30 22983 H 2120.61 -0.792099 -0.237715 0
M  V30 22984 H 2123.16 -1.67466 0.274458 0
M  V30 22985 H 2121.93 -3.90127 0.302739 0
M  V30 22986 H 2121.55 -3.72035 -1.40271 0
M  V30 22987 N 2122.55 0.0417572 -1.57545 0
M  V30 22988 C 2123.5 1.04629 -2.05722 0
M  V30 22989 C 2124.47 1.36684 -0.943754 0
M  V30 22990 O 2125.65 1.47239 -1.21348 0
M  V30 22991 C 2122.79 2.34601 -2.53093 0
M  V30 22992 C 2121.91 2.08815 -3.7818 0
M  V30 22993 C 2121.04 3.32567 -4.14214 0
M  V30 22994 C 2120.08 3.02279 -5.32254 0
M  V30 22995 N 2119.22 4.18445 -5.6378 0
M  V30 22996 H 2124.06 0.628491 -2.91297 0
M  V30 22997 H 2121.59 0.298725 -1.44035 0
M  V30 22998 H 2123.55 3.10525 -2.78621 0
M  V30 22999 H 2122.18 2.74127 -1.70453 0
M  V30 23000 H 2121.23 1.23445 -3.59813 0
M  V30 23001 H 2122.55 1.82464 -4.64229 0
M  V30 23002 H 2121.7 4.16867 -4.40802 0
M  V30 23003 H 2120.44 3.6202 -3.26791 0
M  V30 23004 H 2119.44 2.16378 -5.05431 0
M  V30 23005 H 2120.67 2.74116 -6.21319 0
M  V30 23006 H 2118.62 4.47874 -4.79317 0
M  V30 23007 H 2118.53 3.95473 -6.44311 0
M  V30 23008 H 2119.8 5.03656 -5.94938 0
M  V30 23009 N 2124.03 1.54445 0.313786 0
M  V30 23010 C 2124.96 1.79371 1.41072 0
M  V30 23011 C 2125.94 0.644191 1.49295 0
M  V30 23012 O 2127.12 0.882726 1.66554 0
M  V30 23013 C 2124.25 1.91902 2.7909 0
M  V30 23014 C 2123.3 3.14253 2.88352 0
M  V30 23015 S 2124.13 4.7263 2.51757 0
M  V30 23016 C 2125.29 4.8808 3.91828 0
M  V30 23017 H 2125.52 2.72131 1.19717 0
M  V30 23018 H 2123.05 1.45693 0.51118 0
M  V30 23019 H 2125.01 1.99807 3.58591 0
M  V30 23020 H 2123.67 1.00103 2.97722 0
M  V30 23021 H 2122.86 3.19785 3.89556 0
M  V30 23022 H 2122.47 3.04729 2.16833 0
M  V30 23023 H 2124.76 4.71317 4.86689 0
M  V30 23024 H 2125.7 5.90178 3.91274 0
M  V30 23025 H 2126.11 4.16316 3.81236 0
M  V30 23026 N 2125.51 -0.576345 1.46683 0
M  V30 23027 C 2126.45 -1.68494 1.57729 0
M  V30 23028 C 2127.42 -1.6067 0.421246 0
M  V30 23029 O 2128.61 -1.79788 0.638829 0
M  V30 23030 C 2125.75 -3.0683 1.57953 0
M  V30 23031 C 2124.86 -3.25233 2.84337 0
M  V30 23032 C 2124 -4.53855 2.76024 0
M  V30 23033 C 2123.04 -4.65623 3.97319 0
M  V30 23034 N 2122.17 -5.85578 3.87354 0
M  V30 23035 H 2127.01 -1.58391 2.52421 0
M  V30 23036 H 2124.55 -0.771863 1.25223 0
M  V30 23037 H 2126.51 -3.86909 1.56068 0
M  V30 23038 H 2125.14 -3.15815 0.667889 0
M  V30 23039 H 2124.19 -2.38715 2.96174 0
M  V30 23040 H 2125.5 -3.29795 3.74215 0
M  V30 23041 H 2124.66 -5.4217 2.72281 0
M  V30 23042 H 2123.4 -4.51741 1.83797 0
M  V30 23043 H 2122.4 -3.75724 4.01387 0
M  V30 23044 H 2123.63 -4.69511 4.90649 0
M  V30 23045 H 2121.57 -5.84449 2.97918 0
M  V30 23046 H 2121.49 -5.91436 4.70892 0
M  V30 23047 H 2122.76 -6.76306 3.87596 0
M  V30 23048 N 2126.99 -1.34495 -0.82151 0
M  V30 23049 C 2127.93 -1.26188 -1.93249 0
M  V30 23050 C 2128.9 -0.136822 -1.65536 0
M  V30 23051 O 2130.09 -0.318035 -1.88131 0
M  V30 23052 C 2127.23 -1.02467 -3.29537 0
M  V30 23053 C 2126.34 -2.2376 -3.69534 0
M  V30 23054 C 2125.48 -1.93311 -4.94777 0
M  V30 23055 C 2124.51 -3.10739 -5.27359 0
M  V30 23056 N 2123.65 -2.80164 -6.4378 0
M  V30 23057 H 2128.49 -2.21199 -1.99687 0
M  V30 23058 H 2126.03 -1.09974 -0.976936 0
M  V30 23059 H 2127.99 -0.867518 -4.08081 0
M  V30 23060 H 2126.62 -0.111236 -3.22608 0
M  V30 23061 H 2125.67 -2.50391 -2.86371 0
M  V30 23062 H 2126.98 -3.11491 -3.89583 0
M  V30 23063 H 2126.13 -1.7434 -5.81112 0
M  V30 23064 H 2124.87 -1.02842 -4.76733 0
M  V30 23065 H 2123.88 -3.30304 -4.39521 0
M  V30 23066 H 2125.1 -4.01988 -5.47341 0
M  V30 23067 H 2123.05 -1.92273 -6.2719 0
M  V30 23068 H 2122.97 -3.61428 -6.64007 0
M  V30 23069 H 2124.23 -2.647 -7.33181 0
M  V30 23070 N 2128.46 1.04188 -1.18248 0
M  V30 23071 C 2129.69 1.81559 -1.00255 0
M  V30 23072 C 2130.11 1.82777 0.444336 0
M  V30 23073 O 2129.47 1.24417 1.31872 0
M  V30 23074 C 2129.52 3.25089 -1.56044 0
M  V30 23075 O 2128.62 4.04938 -0.780971 0
M  V30 23076 H 2127.97 0.560976 -0.355248 0
M  V30 23077 H 2130.5 1.31223 -1.56977 0
M  V30 23078 H 2130.51 3.75869 -1.58703 0
M  V30 23079 H 2129.18 3.23517 -2.61361 0
M  V30 23080 H 2127.76 3.63623 -0.826593 0
M  V30 23081 N 2129.94 0.98432 1.23081 0
M  V30 23082 C 2130.89 0.527474 2.24692 0
M  V30 23083 C 2131.86 -0.435706 1.60284 0
M  V30 23084 O 2133.04 -0.342378 1.87703 0
M  V30 23085 C 2130.18 -0.160141 3.44728 0
M  V30 23086 C 2129.3 0.843763 4.2368 0
M  V30 23087 C 2128.43 0.130552 5.3104 0
M  V30 23088 C 2127.47 1.1234 6.01703 0
M  V30 23089 N 2126.61 0.439082 7.00726 0
M  V30 23090 H 2131.45 1.39873 2.63134 0
M  V30 23091 H 2128.99 0.700815 1.29333 0
M  V30 23092 H 2130.94 -0.575649 4.1321 0
M  V30 23093 H 2129.57 -0.995239 3.07075 0
M  V30 23094 H 2128.63 1.37764 3.54578 0
M  V30 23095 H 2129.94 1.60017 4.72436 0
M  V30 23096 H 2129.09 -0.342123 6.05735 0
M  V30 23097 H 2127.83 -0.65843 4.83235 0
M  V30 23098 H 2126.84 1.60679 5.25797 0
M  V30 23099 H 2128.06 1.91311 6.51596 0
M  V30 23100 H 2126.01 -0.33062 6.55166 0
M  V30 23101 H 2125.92 1.13408 7.47445 0
M  V30 23102 H 2127.19 -0.0110751 7.79499 0
M  V30 23103 N 2131.42 -1.38259 0.756453 0
M  V30 23104 C 2132.65 -2.04861 0.323535 0
M  V30 23105 C 2133.07 -1.56679 -1.04083 0
M  V30 23106 O 2132.43 -0.72007 -1.66387 0
M  V30 23107 C 2132.48 -3.58812 0.358692 0
M  V30 23108 O 2131.58 -4.07304 -0.646296 0
M  V30 23109 H 2130.92 -0.64848 0.142723 0
M  V30 23110 H 2133.45 -1.76877 1.02838 0
M  V30 23111 H 2133.46 -4.07456 0.210579 0
M  V30 23112 H 2132.14 -3.93238 1.35413 0
M  V30 23113 H 2130.71 -3.7002 -0.462561 0
M  V30 23114 N 2132.9 -0.505757 -1.49264 0
M  V30 23115 C 2134.14 0.0371268 -2.02766 0
M  V30 23116 C 2134.48 1.36205 -1.38427 0
M  V30 23117 O 2133.75 1.87376 -0.521582 0
M  V30 23118 C 2134.04 0.18468 -3.59626 0
M  V30 23119 C 2133.89 -1.1637 -4.34486 0
M  V30 23120 C 2135.21 0.923062 -4.30311 0
M  V30 23121 H 2132.33 0.0120186 -0.736902 0
M  V30 23122 H 2134.97 -0.658091 -1.78239 0
M  V30 23123 H 2133.12 0.776811 -3.80655 0
M  V30 23124 H 2134.79 -1.79508 -4.24941 0
M  V30 23125 H 2133.03 -1.75178 -3.96856 0
M  V30 23126 H 2133.7 -1.01371 -5.42612 0
M  V30 23127 H 2136.18 0.420822 -4.13967 0
M  V30 23128 H 2135.06 0.995155 -5.39804 0
M  V30 23129 H 2135.32 1.96788 -3.95888 0
M  V30 23130 N 2134.38 1.55765 -0.239796 0
M  V30 23131 C 2135.32 2.2108 0.662746 0
M  V30 23132 C 2136.29 1.17233 1.17668 0
M  V30 23133 O 2137.48 1.45655 1.23245 0
M  V30 23134 C 2134.62 2.90865 1.85719 0
M  V30 23135 C 2133.73 4.0935 1.38044 0
M  V30 23136 C 2132.87 4.6687 2.53389 0
M  V30 23137 C 2131.91 5.77619 2.02541 0
M  V30 23138 N 2131.04 6.29351 3.11225 0
M  V30 23139 H 2135.88 2.97835 0.0990722 0
M  V30 23140 H 2133.42 1.47053 0.0371415 0
M  V30 23141 H 2135.38 3.2952 2.55875 0
M  V30 23142 H 2134.01 2.16596 2.39345 0
M  V30 23143 H 2133.06 3.76057 0.573171 0
M  V30 23144 H 2134.37 4.89322 0.96774 0
M  V30 23145 H 2133.53 5.08062 3.31598 0
M  V30 23146 H 2132.26 3.861 2.97957 0
M  V30 23147 H 2131.27 5.35911 1.22799 0
M  V30 23148 H 2132.49 6.60236 1.5895 0
M  V30 23149 H 2130.44 5.51488 3.55241 0
M  V30 23150 H 2130.36 7.04497 2.74263 0
M  V30 23151 H 2131.63 6.75202 3.89516 0
M  V30 23152 N 2135.85 -0.0334016 1.57565 0
M  V30 23153 C 2136.76 -1.05241 2.0967 0
M  V30 23154 C 2137.78 -1.39917 1.03437 0
M  V30 23155 O 2138.96 -1.49324 1.35146 0
M  V30 23156 C 2136.02 -2.3357 2.56215 0
M  V30 23157 C 2135.08 -2.05514 3.76912 0
M  V30 23158 C 2134.32 -3.27724 4.21227 0
M  V30 23159 O 2134.54 -4.38244 3.65101 0
M  V30 23160 O 2133.47 -3.13679 5.13701 0
M  V30 23161 H 2137.3 -0.639612 2.96888 0
M  V30 23162 H 2134.88 -0.250101 1.47292 0
M  V30 23163 H 2136.77 -3.09022 2.86502 0
M  V30 23164 H 2135.44 -2.74153 1.7211 0
M  V30 23165 H 2134.35 -1.27644 3.5165 0
M  V30 23166 H 2135.68 -1.69789 4.61988 0
M  V30 23167 N 2137.33 -1.54609 -0.305591 0
M  V30 23168 C 2138.61 -1.64344 -1.06068 0
M  V30 23169 C 2138.99 -0.488774 -2.05364 0
M  V30 23170 O 2138.34 0.515015 -2.2262 0
M  V30 23171 C 2138.55 -3.02149 -1.74663 0
M  V30 23172 C 2139.9 -3.58808 -2.27029 0
M  V30 23173 O 2140.92 -3.04571 -1.84703 0
M  V30 23174 O 2139.78 -4.53762 -3.04568 0
M  V30 23175 H 2136.87 -0.666216 -0.489984 0
M  V30 23176 H 2139.42 -1.66954 -0.304046 0
M  V30 23177 H 2138.19 -3.77626 -1.02538 0
M  V30 23178 H 2137.81 -3.03296 -2.57094 0
M  V30 23179 N 2138.81 0.568558 -1.46987 0
M  V30 23180 C 2140.04 1.35675 -1.56867 0
M  V30 23181 C 2140.46 1.86864 -0.215303 0
M  V30 23182 O 2139.82 1.62351 0.806967 0
M  V30 23183 C 2139.87 2.51048 -2.58858 0
M  V30 23184 O 2138.97 3.52929 -2.13342 0
M  V30 23185 H 2138.31 0.403471 -0.527358 0
M  V30 23186 H 2140.84 0.688258 -1.92676 0
M  V30 23187 H 2140.85 2.97773 -2.78918 0
M  V30 23188 H 2139.53 2.13145 -3.5713 0
M  V30 23189 H 2138.1 3.12587 -2.03332 0
M  V30 23190 N 2140.29 1.34929 0.814366 0
M  V30 23191 C 2141.24 1.27231 1.94718 0
M  V30 23192 C 2142.23 0.16873 1.68558 0
M  V30 23193 O 2143.44 0.334235 1.7687 0
M  V30 23194 H 2139.81 0.395475 0.639612 0
M  V30 23195 H 2141.78 2.22951 1.98332 0
M  V30 23196 C 2140.53 1.0533 3.31362 0
M  V30 23197 H 2139.85 1.89485 3.52045 0
M  V30 23198 H 2141.29 1.03983 4.11052 0
M  V30 23199 C 2139.75 -0.243132 3.36022 0
M  V30 23200 O 2140.28 -1.24159 3.82031 0
M  V30 23201 N 2138.49 -0.279214 2.89256 0
M  V30 23202 H 2138.04 0.533893 2.52007 0
M  V30 23203 H 2137.99 -1.14638 2.92755 0
M  V30 23204 N 2141.77 -1.0356 1.18799 0
M  V30 23205 C 2142.7 -2.13602 0.943213 0
M  V30 23206 C 2143.68 -1.69669 -0.120965 0
M  V30 23207 O 2144.86 -1.94173 0.0326748 0
M  V30 23208 C 2141.99 -3.44054 0.473716 0
M  V30 23209 C 2140.95 -4.01635 1.47896 0
M  V30 23210 C 2140.27 -5.27628 0.866789 0
M  V30 23211 C 2141.57 -4.3722 2.8572 0
M  V30 23212 H 2143.27 -2.34336 1.86351 0
M  V30 23213 H 2140.81 -1.12617 0.897406 0
M  V30 23214 H 2142.77 -4.20402 0.289804 0
M  V30 23215 H 2141.49 -3.23021 -0.482167 0
M  V30 23216 H 2140.15 -3.27374 1.6499 0
M  V30 23217 H 2139.8 -5.02908 -0.0964386 0
M  V30 23218 H 2139.5 -5.67115 1.53799 0
M  V30 23219 H 2141.02 -6.06649 0.693523 0
M  V30 23220 H 2142.43 -5.04533 2.72248 0
M  V30 23221 H 2140.83 -4.87771 3.49571 0
M  V30 23222 H 2141.9 -3.46821 3.38885 0
M  V30 23223 N 2143.25 -0.990834 -1.22557 0
M  V30 23224 C 2144.47 -0.683901 -1.9527 0
M  V30 23225 C 2144.89 0.751046 -1.73219 0
M  V30 23226 O 2144.25 1.50657 -1.02999 0
M  V30 23227 C 2144.3 -0.977753 -3.48026 0
M  V30 23228 O 2144.02 -2.35631 -3.69337 0
M  V30 23229 C 2145.52 -0.688232 -4.37925 0
M  V30 23230 H 2142.74 -0.25317 -0.621406 0
M  V30 23231 H 2145.28 -1.32505 -1.55765 0
M  V30 23232 H 2143.44 -0.382447 -3.85508 0
M  V30 23233 H 2143.85 -2.45399 -4.63551 0
M  V30 23234 H 2145.33 -0.944126 -5.43866 0
M  V30 23235 H 2145.8 0.377761 -4.37572 0
M  V30 23236 H 2146.41 -1.26449 -4.06067 0
M  V30 23237 N 2144.72 1.37856 -0.763775 0
M  V30 23238 C 2145.65 2.32961 -0.158515 0
M  V30 23239 C 2146.63 1.55381 0.692142 0
M  V30 23240 O 2147.82 1.83655 0.631241 0
M  V30 23241 C 2144.95 3.39593 0.727585 0
M  V30 23242 C 2143.9 4.27995 -0.0211379 0
M  V30 23243 C 2143.23 5.2557 0.983884 0
M  V30 23244 C 2144.53 5.08434 -1.1955 0
M  V30 23245 H 2146.22 2.83828 -0.952999 0
M  V30 23246 H 2143.77 1.36465 -0.459721 0
M  V30 23247 H 2145.72 4.05098 1.16076 0
M  V30 23248 H 2144.45 2.87233 1.5545 0
M  V30 23249 H 2143.11 3.6401 -0.435002 0
M  V30 23250 H 2142.75 4.69493 1.80514 0
M  V30 23251 H 2142.45 5.85574 0.487507 0
M  V30 23252 H 2143.98 5.9395 1.41616 0
M  V30 23253 H 2145.39 5.67122 -0.839372 0
M  V30 23254 H 2143.79 5.77724 -1.62342 0
M  V30 23255 H 2144.86 4.41575 -2.00349 0
M  V30 23256 N 2146.2 0.513665 1.48994 0
M  V30 23257 C 2147.13 -0.29486 2.27295 0
M  V30 23258 C 2148.15 -0.919245 1.34364 0
M  V30 23259 O 2149.34 -0.800442 1.59547 0
M  V30 23260 C 2146.44 -1.43125 3.07195 0
M  V30 23261 C 2145.61 -0.911824 4.2779 0
M  V30 23262 C 2144.67 -1.92735 4.89632 0
M  V30 23263 O 2143.69 -1.49081 5.4933 0
M  V30 23264 N 2144.9 -3.25858 4.80413 0
M  V30 23265 H 2147.66 0.376609 2.97324 0
M  V30 23266 H 2145.22 0.346983 1.58138 0
M  V30 23267 H 2147.21 -2.10843 3.45438 0
M  V30 23268 H 2145.78 -2.00665 2.39692 0
M  V30 23269 H 2145 -0.059147 3.94156 0
M  V30 23270 H 2146.29 -0.543402 5.0589 0
M  V30 23271 H 2145.69 -3.64003 4.33034 0
M  V30 23272 H 2144.25 -3.89255 5.22804 0
M  V30 23273 N 2147.68 -1.55636 0.248053 0
M  V30 23274 C 2148.59 -2.25074 -0.661731 0
M  V30 23275 C 2149.61 -1.26725 -1.19234 0
M  V30 23276 O 2150.78 -1.59603 -1.22836 0
M  V30 23277 C 2147.85 -2.93753 -1.84147 0
M  V30 23278 C 2146.91 -4.07514 -1.35022 0
M  V30 23279 C 2146.14 -4.72908 -2.47374 0
M  V30 23280 O 2146.36 -4.37385 -3.66129 0
M  V30 23281 O 2145.3 -5.61396 -2.17066 0
M  V30 23282 H 2149.12 -3.03535 -0.100047 0
M  V30 23283 H 2146.71 -1.49391 0.0165105 0
M  V30 23284 H 2148.59 -3.37007 -2.52991 0
M  V30 23285 H 2147.27 -2.18231 -2.39075 0
M  V30 23286 H 2146.17 -3.68774 -0.629034 0
M  V30 23287 H 2147.51 -4.84857 -0.847015 0
M  V30 23288 N 2149.16 0.0250451 -1.5758 0
M  V30 23289 C 2150.1 1.02441 -2.0682 0
M  V30 23290 C 2151.07 1.35675 -0.958198 0
M  V30 23291 O 2152.26 1.45944 -1.22903 0
M  V30 23292 C 2149.4 2.31904 -2.55567 0
M  V30 23293 C 2148.51 2.04792 -3.80374 0
M  V30 23294 C 2147.65 3.28155 -4.17718 0
M  V30 23295 C 2146.69 2.96616 -5.3543 0
M  V30 23296 N 2145.82 4.12442 -5.68187 0
M  V30 23297 H 2150.66 0.59756 -2.91947 0
M  V30 23298 H 2148.2 0.283432 -1.44344 0
M  V30 23299 H 2150.16 3.07553 -2.81899 0
M  V30 23300 H 2148.79 2.72304 -1.73351 0
M  V30 23301 H 2147.84 1.19622 -3.61102 0
M  V30 23302 H 2149.15 1.7753 -4.66138 0
M  V30 23303 H 2148.31 4.12169 -4.45199 0
M  V30 23304 H 2147.05 3.58534 -3.30612 0
M  V30 23305 H 2146.05 2.11005 -5.07698 0
M  V30 23306 H 2147.28 2.67511 -6.24191 0
M  V30 23307 H 2145.22 4.42765 -4.84041 0
M  V30 23308 H 2145.14 3.88617 -6.4847 0
M  V30 23309 H 2146.41 4.97317 -6.00246 0
M  V30 23310 N 2150.64 1.54769 0.297388 0
M  V30 23311 C 2151.58 1.8597 1.36689 0
M  V30 23312 C 2152.55 0.708928 1.50211 0
M  V30 23313 O 2153.74 0.9579 1.65012 0
M  V30 23314 C 2150.88 2.11576 2.72635 0
M  V30 23315 C 2149.99 3.39191 2.67533 0
M  V30 23316 C 2149.13 3.54621 3.95496 0
M  V30 23317 C 2148.16 4.76015 3.84806 0
M  V30 23318 N 2147.3 4.88232 5.04553 0
M  V30 23319 H 2152.14 2.772 1.09381 0
M  V30 23320 H 2149.68 1.3726 0.528967 0
M  V30 23321 H 2151.64 2.24418 3.517 0
M  V30 23322 H 2150.27 1.23608 2.98196 0
M  V30 23323 H 2149.32 3.3495 1.80312 0
M  V30 23324 H 2150.63 4.28379 2.55525 0
M  V30 23325 H 2149.78 3.67147 4.82999 0
M  V30 23326 H 2148.52 2.63573 4.10342 0
M  V30 23327 H 2147.53 4.63518 2.95687 0
M  V30 23328 H 2148.75 5.68475 3.71502 0
M  V30 23329 H 2146.7 4.00108 5.19855 0
M  V30 23330 H 2146.62 5.71427 4.94982 0
M  V30 23331 H 2147.88 5.05119 5.93696 0
M  V30 23332 N 2152.11 -0.560755 1.47286 0
M  V30 23333 C 2153.02 -1.69558 1.62133 0
M  V30 23334 C 2154.04 -1.66533 0.50425 0
M  V30 23335 O 2155.22 -1.86045 0.771315 0
M  V30 23336 C 2152.28 -3.06065 1.62865 0
M  V30 23337 C 2151.34 -3.20185 2.85972 0
M  V30 23338 C 2150.57 -4.5018 2.8666 0
M  V30 23339 O 2150.8 -5.35423 1.96669 0
M  V30 23340 O 2149.73 -4.68015 3.78478 0
M  V30 23341 H 2153.56 -1.59976 2.5815 0
M  V30 23342 H 2151.14 -0.730353 1.30331 0
M  V30 23343 H 2153.02 -3.87307 1.66046 0
M  V30 23344 H 2151.7 -3.16037 0.700143 0
M  V30 23345 H 2150.61 -2.38353 2.88337 0
M  V30 23346 H 2151.94 -3.15114 3.78106 0
M  V30 23347 N 2153.59 -1.35359 -0.807199 0
M  V30 23348 C 2154.54 -1.2823 -1.919 0
M  V30 23349 C 2155.51 -0.154371 -1.65381 0
M  V30 23350 O 2156.69 -0.337971 -1.87783 0
M  V30 23351 C 2153.83 -1.05957 -3.28431 0
M  V30 23352 C 2152.95 -2.27666 -3.6714 0
M  V30 23353 C 2152.08 -1.98548 -4.92699 0
M  V30 23354 C 2151.12 -3.16315 -5.24034 0
M  V30 23355 N 2150.26 -2.86976 -6.40772 0
M  V30 23356 H 2155.1 -2.23305 -1.97329 0
M  V30 23357 H 2152.63 -1.11004 -0.965216 0
M  V30 23358 H 2154.59 -0.910752 -4.07138 0
M  V30 23359 H 2153.22 -0.145447 -3.22472 0
M  V30 23360 H 2152.27 -2.53414 -2.83699 0
M  V30 23361 H 2153.59 -3.15606 -3.86257 0
M  V30 23362 H 2152.74 -1.80493 -5.7923 0
M  V30 23363 H 2151.48 -1.07893 -4.75616 0
M  V30 23364 H 2150.48 -3.34948 -4.35993 0
M  V30 23365 H 2151.71 -4.07771 -5.43047 0
M  V30 23366 H 2149.66 -1.98914 -6.25115 0
M  V30 23367 H 2149.57 -3.6845 -6.60137 0
M  V30 23368 H 2150.84 -2.72461 -7.30332 0
M  V30 23369 N 2155.07 1.02928 -1.19346 0
M  V30 23370 C 2156.32 1.75724 -0.990157 0
M  V30 23371 C 2156.63 1.89622 0.479885 0
M  V30 23372 O 2157.84 2.59384 0.802002 0
M  V30 23373 C 2156.29 3.15992 -1.7227 0
M  V30 23374 C 2155.9 3.10149 -3.23283 0
M  V30 23375 C 2157.65 3.93086 -1.60262 0
M  V30 23376 C 2155.55 4.45347 -3.89128 0
M  V30 23377 H 2154.48 0.658737 -0.366854 0
M  V30 23378 H 2157.13 1.15193 -1.42838 0
M  V30 23379 H 2155.52 3.76987 -1.21229 0
M  V30 23380 H 2156.69 2.58537 -3.81438 0
M  V30 23381 H 2155 2.46552 -3.35561 0
M  V30 23382 H 2157.6 4.93087 -2.06807 0
M  V30 23383 H 2157.94 4.12561 -0.556708 0
M  V30 23384 H 2158.48 3.38691 -2.08647 0
M  V30 23385 H 2155.22 4.31076 -4.93816 0
M  V30 23386 H 2154.74 4.97016 -3.35761 0
M  V30 23387 H 2156.42 5.14231 -3.92652 0
M  V30 23388 N 2156.55 0.997319 1.2203 0
M  V30 23389 C 2157.48 0.50954 2.23464 0
M  V30 23390 C 2158.49 -0.397746 1.57866 0
M  V30 23391 O 2159.68 -0.199173 1.77385 0
M  V30 23392 C 2156.78 -0.280337 3.37739 0
M  V30 23393 C 2155.95 0.624157 4.32924 0
M  V30 23394 C 2155.01 -0.114778 5.26075 0
M  V30 23395 O 2154.04 0.501303 5.66988 0
M  V30 23396 N 2155.24 -1.39573 5.63471 0
M  V30 23397 H 2158.01 1.38179 2.65945 0
M  V30 23398 H 2155.57 0.872554 1.36375 0
M  V30 23399 H 2157.56 -0.783436 3.97045 0
M  V30 23400 H 2156.13 -1.05371 2.94305 0
M  V30 23401 H 2155.35 1.30786 3.71872 0
M  V30 23402 H 2156.64 1.23998 4.93459 0
M  V30 23403 H 2156.04 -1.91751 5.3221 0
M  V30 23404 H 2154.59 -1.84393 6.25174 0
M  V30 23405 N 2158.03 -1.37449 0.771075 0
M  V30 23406 C 2159.25 -2.03979 0.346453 0
M  V30 23407 C 2159.67 -1.58156 -1.03113 0
M  V30 23408 O 2159.03 -0.762511 -1.65807 0
M  V30 23409 C 2159.08 -3.595 0.379748 0
M  V30 23410 O 2158.8 -4.03646 1.70298 0
M  V30 23411 C 2160.3 -4.43264 -0.0565544 0
M  V30 23412 H 2157.52 -0.655084 0.145281 0
M  V30 23413 H 2160.06 -1.75795 1.04481 0
M  V30 23414 H 2158.22 -3.86458 -0.270023 0
M  V30 23415 H 2158.63 -4.98163 1.64115 0
M  V30 23416 H 2160.11 -5.51997 0.0178961 0
M  V30 23417 H 2160.58 -4.25025 -1.10683 0
M  V30 23418 H 2161.19 -4.2153 0.565003 0
M  V30 23419 N 2159.5 -0.52156 -1.4872 0
M  V30 23420 C 2160.75 0.0155648 -2.02094 0
M  V30 23421 C 2161.07 1.35564 -1.40169 0
M  V30 23422 O 2160.34 1.87602 -0.564111 0
M  V30 23423 H 2158.92 0.0087409 -0.746949 0
M  V30 23424 H 2161.59 -0.683478 -1.82523 0
M  V30 23425 H 2160.68 0.130113 -3.11829 0
M  V30 23426 N 2160.98 1.55502 -0.256304 0
M  V30 23427 C 2161.91 2.24749 0.633265 0
M  V30 23428 C 2162.89 1.23102 1.17388 0
M  V30 23429 O 2164.08 1.51778 1.2115 0
M  V30 23430 C 2161.21 2.95418 1.82607 0
M  V30 23431 C 2160.16 4.03834 1.41782 0
M  V30 23432 C 2159.49 4.61978 2.69222 0
M  V30 23433 C 2160.79 5.19048 0.581913 0
M  V30 23434 H 2162.48 2.99348 0.0558207 0
M  V30 23435 H 2160.03 1.43978 0.0254079 0
M  V30 23436 H 2161.98 3.42565 2.45412 0
M  V30 23437 H 2160.71 2.18323 2.42905 0
M  V30 23438 H 2159.36 3.5747 0.813066 0
M  V30 23439 H 2159.01 3.81572 3.27737 0
M  V30 23440 H 2158.71 5.3517 2.42625 0
M  V30 23441 H 2160.24 5.11864 3.32908 0
M  V30 23442 H 2161.65 5.62363 1.11449 0
M  V30 23443 H 2160.05 5.98687 0.411617 0
M  V30 23444 H 2161.12 4.83216 -0.403719 0
M  V30 23445 N 2162.46 -0.0166879 1.57591 0
M  V30 23446 C 2163.41 -1.01343 2.0736 0
M  V30 23447 C 2164.38 -1.35165 0.96538 0
M  V30 23448 O 2165.56 -1.4529 1.23675 0
M  V30 23449 C 2162.7 -2.30545 2.56794 0
M  V30 23450 C 2161.82 -2.02772 3.81454 0
M  V30 23451 C 2160.95 -3.25935 4.19452 0
M  V30 23452 C 2159.99 -2.93773 5.36995 0
M  V30 23453 N 2159.13 -4.09423 5.70366 0
M  V30 23454 H 2163.97 -0.582069 2.9226 0
M  V30 23455 H 2161.5 -0.275773 1.44492 0
M  V30 23456 H 2163.46 -3.06054 2.83526 0
M  V30 23457 H 2162.09 -2.7138 1.74793 0
M  V30 23458 H 2161.14 -1.17706 3.61731 0
M  V30 23459 H 2162.46 -1.75056 4.67073 0
M  V30 23460 H 2161.61 -4.09802 4.47378 0
M  V30 23461 H 2160.35 -3.56776 3.32509 0
M  V30 23462 H 2159.35 -2.0831 5.08809 0
M  V30 23463 H 2160.58 -2.64197 6.25601 0
M  V30 23464 H 2158.52 -4.40192 4.86382 0
M  V30 23465 H 2158.44 -3.85172 6.50521 0
M  V30 23466 H 2159.71 -4.94127 6.02875 0
M  V30 23467 N 2163.94 -1.54924 -0.289176 0
M  V30 23468 C 2164.89 -1.86692 -1.35701 0
M  V30 23469 C 2165.86 -0.716885 -1.49833 0
M  V30 23470 O 2167.04 -0.966637 -1.64502 0
M  V30 23471 C 2164.18 -2.13019 -2.71509 0
M  V30 23472 C 2163.29 -3.40605 -2.6573 0
M  V30 23473 C 2162.43 -3.56714 -3.9361 0
M  V30 23474 C 2161.47 -4.78049 -3.82276 0
M  V30 23475 N 2160.6 -4.90901 -5.01957 0
M  V30 23476 H 2165.44 -2.77776 -1.07909 0
M  V30 23477 H 2162.98 -1.37539 -0.52168 0
M  V30 23478 H 2164.94 -2.2628 -3.50504 0
M  V30 23479 H 2163.57 -1.25188 -2.97536 0
M  V30 23480 H 2162.62 -3.35902 -1.78533 0
M  V30 23481 H 2163.93 -4.29728 -2.53249 0
M  V30 23482 H 2163.09 -3.69704 -4.81045 0
M  V30 23483 H 2161.83 -2.65745 -4.08939 0
M  V30 23484 H 2160.83 -4.6508 -2.93225 0
M  V30 23485 H 2162.06 -5.70437 -3.68482 0
M  V30 23486 H 2160 -4.02859 -5.17726 0
M  V30 23487 H 2159.92 -5.74044 -4.91945 0
M  V30 23488 H 2161.19 -5.0826 -5.91009 0
M  V30 23489 N 2165.42 0.552936 -1.47582 0
M  V30 23490 C 2166.35 1.66928 -1.6327 0
M  V30 23491 C 2167.33 1.63127 -0.482035 0
M  V30 23492 O 2168.51 1.80682 -0.71188 0
M  V30 23493 C 2165.64 3.0556 -1.65076 0
M  V30 23494 C 2164.6 3.2421 -2.79413 0
M  V30 23495 C 2163.92 4.63672 -2.66294 0
M  V30 23496 C 2165.22 3.09176 -4.20961 0
M  V30 23497 H 2166.92 1.54055 -2.56725 0
M  V30 23498 H 2164.46 0.739709 -1.23549 0
M  V30 23499 H 2166.42 3.83508 -1.74642 0
M  V30 23500 H 2165.14 3.19403 -0.681852 0
M  V30 23501 H 2163.8 2.48673 -2.69365 0
M  V30 23502 H 2163.45 4.7432 -1.67422 0
M  V30 23503 H 2163.15 4.77099 -3.43002 0
M  V30 23504 H 2164.67 5.43749 -2.77795 0
M  V30 23505 H 2166.08 3.76936 -4.31963 0
M  V30 23506 H 2164.48 3.3411 -4.98488 0
M  V30 23507 H 2165.55 2.05869 -4.39028 0
M  V30 23508 N 2166.89 1.35785 0.800009 0
M  V30 23509 C 2168.12 1.32556 1.5886 0
M  V30 23510 C 2168.54 -0.0955366 1.88558 0
M  V30 23511 O 2167.89 -1.0494 1.49311 0
M  V30 23512 C 2167.95 2.13669 2.91595 0
M  V30 23513 O 2167.67 3.50238 2.63182 0
M  V30 23514 C 2169.17 2.181 3.85937 0
M  V30 23515 H 2166.39 0.455105 0.493073 0
M  V30 23516 H 2168.93 1.78733 0.993714 0
M  V30 23517 H 2167.09 1.71074 3.47581 0
M  V30 23518 H 2167.5 3.92442 3.47979 0
M  V30 23519 H 2168.97 2.79234 4.76164 0
M  V30 23520 H 2169.45 1.18154 4.23009 0
M  V30 23521 H 2170.06 2.60885 3.35886 0
M  V30 23522 N 2168.37 -1.02294 1.19891 0
M  V30 23523 C 2169.28 -2.14169 0.957533 0
M  V30 23524 C 2170.3 -1.73795 -0.0844739 0
M  V30 23525 O 2171.47 -2.01144 0.101528 0
M  V30 23526 C 2168.54 -3.4299 0.50587 0
M  V30 23527 C 2167.6 -3.97643 1.61797 0
M  V30 23528 C 2166.83 -5.20315 1.18777 0
M  V30 23529 O 2167.06 -5.70375 0.0538032 0
M  V30 23530 O 2165.99 -5.67957 1.99268 0
M  V30 23531 H 2169.82 -2.37398 1.89409 0
M  V30 23532 H 2167.4 -1.12572 0.982234 0
M  V30 23533 H 2169.28 -4.20579 0.26292 0
M  V30 23534 H 2167.96 -3.21192 -0.402182 0
M  V30 23535 H 2166.87 -3.21362 1.91514 0
M  V30 23536 H 2168.2 -4.23817 2.5028 0
M  V30 23537 N 2169.85 -1.00378 -1.21499 0
M  V30 23538 C 2170.78 -0.583318 -2.26097 0
M  V30 23539 C 2171.76 0.395257 -1.65444 0
M  V30 23540 O 2172.95 0.283508 -1.92119 0
M  V30 23541 C 2170.08 0.0920619 -3.47178 0
M  V30 23542 C 2169.03 -0.806168 -4.20339 0
M  V30 23543 C 2168.36 0.0027323 -5.347 0
M  V30 23544 C 2169.66 -2.1082 -4.77862 0
M  V30 23545 H 2171.35 -1.45765 -2.6152 0
M  V30 23546 H 2168.9 -0.702333 -1.25711 0
M  V30 23547 H 2170.85 0.397677 -4.19519 0
M  V30 23548 H 2169.57 1.00102 -3.10881 0
M  V30 23549 H 2168.23 -1.09559 -3.49846 0
M  V30 23550 H 2167.88 0.912942 -4.94646 0
M  V30 23551 H 2167.58 -0.595326 -5.84576 0
M  V30 23552 H 2169.1 0.302191 -6.09852 0
M  V30 23553 H 2170.52 -1.86581 -5.42089 0
M  V30 23554 H 2168.92 -2.656 -5.38123 0
M  V30 23555 H 2169.99 -2.77978 -3.97311 0
M  V30 23556 N 2171.33 1.37038 -0.778354 0
M  V30 23557 C 2172.58 1.99134 -0.344995 0
M  V30 23558 C 2172.9 1.62093 1.08402 0
M  V30 23559 O 2172.17 0.889547 1.74539 0
M  V30 23560 H 2170.75 0.73654 -0.124572 0
M  V30 23561 H 2173.41 1.67413 -0.997945 0
M  V30 23562 H 2172.51 3.09152 -0.427927 0
M  V30 23563 N 2172.81 0.529439 1.48441 0
M  V30 23564 C 2174.04 -0.000824174 2.069 0
M  V30 23565 C 2174.45 -1.28195 1.38605 0
M  V30 23566 O 2173.81 -1.76253 0.4734 0
M  V30 23567 C 2173.86 -0.229032 3.60774 0
M  V30 23568 O 2173.58 1.00134 4.26503 0
M  V30 23569 C 2175.08 -0.799736 4.36027 0
M  V30 23570 H 2172.3 0.0332691 0.670175 0
M  V30 23571 H 2174.84 0.734929 1.90838 0
M  V30 23572 H 2173 -0.914832 3.76443 0
M  V30 23573 H 2173.41 0.781737 5.18642 0
M  V30 23574 H 2174.89 -0.908842 5.44467 0
M  V30 23575 H 2175.36 -1.8045 4.00418 0
M  V30 23576 H 2175.97 -0.150518 4.25034 0
M  V30 23577 N 2174.29 -1.55364 0.264547 0
M  V30 23578 C 2175.53 -1.99655 -0.355771 0
M  V30 23579 C 2175.86 -1.15266 -1.56293 0
M  V30 23580 O 2175.14 -0.220196 -1.9325 0
M  V30 23581 C 2175.42 -3.52238 -0.748347 0
M  V30 23582 C 2175.28 -4.47386 0.465419 0
M  V30 23583 C 2176.59 -4.10422 -1.58877 0
M  V30 23584 H 2173.71 -0.725828 -0.12784 0
M  V30 23585 H 2176.36 -1.86375 0.369383 0
M  V30 23586 H 2174.51 -3.63686 -1.36619 0
M  V30 23587 H 2176.18 -4.47896 1.10395 0
M  V30 23588 H 2174.42 -4.1948 1.10539 0
M  V30 23589 H 2175.09 -5.51804 0.147135 0
M  V30 23590 H 2177.57 -4.02185 -1.06707 0
M  V30 23591 H 2176.44 -5.17415 -1.83228 0
M  V30 23592 H 2176.7 -3.59985 -2.56639 0
M  V30 23593 N 2175.76 0.00833021 -1.57598 0
M  V30 23594 C 2177.04 0.731485 -1.81407 0
M  V30 23595 C 2177.42 1.9245 -0.867544 0
M  V30 23596 O 2176.77 2.28339 0.0856431 0
M  V30 23597 C 2176.98 1.14505 -3.29681 0
M  V30 23598 C 2178.33 1.55237 -3.95205 0
M  V30 23599 O 2179.35 1.23907 -3.33954 0
M  V30 23600 O 2178.21 2.13464 -5.03086 0
M  V30 23601 H 2175.3 0.355455 -0.746713 0
M  V30 23602 H 2177.85 -0.0164849 -1.69692 0
M  V30 23603 H 2176.62 0.294315 -3.90192 0
M  V30 23604 H 2176.24 1.95238 -3.46364 0
M  V30 23605 N 2177.24 1.55075 0.280956 0
M  V30 23606 C 2178.65 1.66097 0.852571 0
M  V30 23607 C 2179 0.582747 1.87346 0
M  V30 23608 O 2178.13 -0.277166 2.14618 0
M  V30 23609 C 2178.72 3.01102 1.55317 0
M  V30 23610 C 2177.28 3.14177 2.07292 0
M  V30 23611 C 2176.43 2.61864 0.912278 0
M  V30 23612 H 2179.38 1.58596 0.0574834 0
M  V30 23613 H 2179.4 2.93646 2.41976 0
M  V30 23614 H 2178.91 3.79555 0.809903 0
M  V30 23615 H 2177.01 2.40482 2.84604 0
M  V30 23616 H 2177.13 4.20627 2.29369 0
M  V30 23617 H 2175.49 2.1882 1.30345 0
M  V30 23618 H 2176.27 3.42814 0.18265 0
M  V30 23619 N 2178.72 -0.545102 1.47873 0
M  V30 23620 C 2179.67 -1.65111 1.61267 0
M  V30 23621 C 2180.64 -1.5974 0.455231 0
M  V30 23622 O 2181.82 -1.78392 0.676821 0
M  V30 23623 C 2178.96 -3.03411 1.64426 0
M  V30 23624 C 2178.07 -3.19128 2.91172 0
M  V30 23625 C 2177.21 -4.47898 2.85589 0
M  V30 23626 C 2176.25 -4.5709 4.07106 0
M  V30 23627 N 2175.39 -5.7723 3.99688 0
M  V30 23628 H 2180.23 -1.53001 2.55724 0
M  V30 23629 H 2177.76 -0.745128 1.26832 0
M  V30 23630 H 2179.72 -3.83511 1.6424 0
M  V30 23631 H 2178.35 -3.14327 0.734727 0
M  V30 23632 H 2177.4 -2.32379 3.01171 0
M  V30 23633 H 2178.71 -3.21783 3.81126 0
M  V30 23634 H 2177.87 -5.36272 2.8372 0
M  V30 23635 H 2176.61 -4.47741 1.93338 0
M  V30 23636 H 2175.61 -3.67125 4.09267 0
M  V30 23637 H 2176.84 -4.58998 5.00498 0
M  V30 23638 H 2174.78 -5.77998 3.10248 0
M  V30 23639 H 2174.7 -5.81315 4.83332 0
M  V30 23640 H 2175.97 -6.67932 4.01854 0
M  V30 23641 N 2180.2 -1.36208 -0.792797 0
M  V30 23642 C 2181.15 -1.30313 -1.92669 0
M  V30 23643 C 2182.14 -0.195525 -1.68268 0
M  V30 23644 O 2183.35 -0.362331 -1.76316 0
M  V30 23645 H 2179.72 -0.4056 -0.63324 0
M  V30 23646 H 2181.69 -2.26078 -1.9476 0
M  V30 23647 C 2180.44 -1.10589 -3.29644 0
M  V30 23648 H 2179.76 -1.95061 -3.48986 0
M  V30 23649 H 2181.2 -1.10509 -4.09345 0
M  V30 23650 C 2179.66 0.189643 -3.36366 0
M  V30 23651 O 2180.19 1.18066 -3.83958 0
M  V30 23652 N 2178.4 0.23316 -2.89663 0
M  V30 23653 H 2177.95 -0.573917 -2.51125 0
M  V30 23654 H 2177.9 1.09966 -2.94542 0
M  V30 23655 N 2181.68 1.01656 -1.20431 0
M  V30 23656 C 2182.62 2.10198 -0.953184 0
M  V30 23657 C 2183.59 1.6569 0.116613 0
M  V30 23658 O 2184.78 1.90779 -0.0281152 0
M  V30 23659 C 2181.92 3.4129 -0.511397 0
M  V30 23660 C 2181.03 3.99275 -1.64935 0
M  V30 23661 C 2180.17 5.18427 -1.15787 0
M  V30 23662 C 2179.2 5.68496 -2.2689 0
M  V30 23663 N 2178.34 6.78909 -1.7896 0
M  V30 23664 H 2183.18 2.31015 -1.88245 0
M  V30 23665 H 2180.72 1.13288 -0.938314 0
M  V30 23666 H 2182.68 4.16529 -0.236575 0
M  V30 23667 H 2181.31 3.20545 0.380867 0
M  V30 23668 H 2180.36 3.21132 -2.03909 0
M  V30 23669 H 2181.67 4.32437 -2.48595 0
M  V30 23670 H 2180.82 6.00871 -0.839013 0
M  V30 23671 H 2179.56 4.8683 -0.291159 0
M  V30 23672 H 2178.57 4.84657 -2.59592 0
M  V30 23673 H 2179.79 6.02127 -3.14037 0
M  V30 23674 H 2177.74 6.49141 -0.946156 0
M  V30 23675 H 2177.66 7.11265 -2.562 0
M  V30 23676 H 2178.92 7.64917 -1.50074 0
M  V30 23677 N 2183.15 1.01021 1.20965 0
M  V30 23678 C 2184.38 0.713843 1.93876 0
M  V30 23679 C 2184.79 -0.72842 1.74616 0
M  V30 23680 O 2184.13 -1.50507 1.05324 0
M  V30 23681 C 2184.2 0.961644 3.464 0
M  V30 23682 C 2183.86 2.39177 3.89414 0
M  V30 23683 C 2184.86 3.37226 3.95695 0
M  V30 23684 C 2182.54 2.73081 4.21583 0
M  V30 23685 C 2184.54 4.67245 4.33545 0
M  V30 23686 C 2182.22 4.03314 4.59109 0
M  V30 23687 C 2183.22 5.00207 4.65061 0
M  V30 23688 O 2182.91 6.2811 5.0173 0
M  V30 23689 H 2182.64 0.261872 0.623217 0
M  V30 23690 H 2185.2 1.35251 1.54584 0
M  V30 23691 H 2183.43 0.26581 3.85785 0
M  V30 23692 H 2185.11 0.657859 4.00533 0
M  V30 23693 H 2185.88 3.12369 3.71013 0
M  V30 23694 H 2181.76 1.98355 4.16145 0
M  V30 23695 H 2185.3 5.42871 4.38106 0
M  V30 23696 H 2181.2 4.27954 4.83245 0
M  V30 23697 H 2181.97 6.32304 5.19745 0
M  V30 23698 N 2184.63 -1.36623 0.78561 0
M  V30 23699 C 2185.56 -2.28776 0.139379 0
M  V30 23700 C 2186.58 -1.49297 -0.649162 0
M  V30 23701 O 2187.77 -1.71786 -0.484971 0
M  V30 23702 C 2184.87 -3.28685 -0.825808 0
M  V30 23703 C 2184.04 -4.37311 -0.0881363 0
M  V30 23704 C 2183.1 -5.17206 -0.96871 0
M  V30 23705 O 2182.12 -5.67593 -0.427359 0
M  V30 23706 N 2183.33 -5.33275 -2.29342 0
M  V30 23707 H 2186.09 -2.84875 0.930938 0
M  V30 23708 H 2183.65 -1.48748 0.639179 0
M  V30 23709 H 2185.64 -3.7902 -1.41865 0
M  V30 23710 H 2184.21 -2.73254 -1.51826 0
M  V30 23711 H 2183.43 -3.8819 0.685747 0
M  V30 23712 H 2184.72 -5.07055 0.421052 0
M  V30 23713 H 2184.12 -4.93946 -2.75743 0
M  V30 23714 H 2182.68 -5.86868 -2.83599 0
M  V30 23715 N 2186.11 -0.537304 -1.48158 0
M  V30 23716 C 2187.02 0.225092 -2.33518 0
M  V30 23717 C 2188.04 0.931763 -1.4695 0
M  V30 23718 O 2189.21 0.905094 -1.79917 0
M  V30 23719 C 2186.28 1.25403 -3.23226 0
M  V30 23720 C 2185.34 0.556924 -4.25672 0
M  V30 23721 C 2184.57 1.53684 -5.11094 0
M  V30 23722 O 2184.79 2.77009 -4.9862 0
M  V30 23723 O 2183.73 1.07222 -5.92273 0
M  V30 23724 H 2187.55 -0.474567 -2.99969 0
M  V30 23725 H 2185.14 -0.298137 -1.46395 0
M  V30 23726 H 2187.02 1.84847 -3.78695 0
M  V30 23727 H 2185.7 1.93596 -2.59427 0
M  V30 23728 H 2184.6 -0.0781996 -3.74018 0
M  V30 23729 H 2185.94 -0.0832021 -4.9213 0
M  V30 23730 N 2187.59 1.55221 -0.272782 0
M  V30 23731 C 2188.52 2.25408 0.609392 0
M  V30 23732 C 2189.5 1.2434 1.16076 0
M  V30 23733 O 2190.68 1.53054 1.19533 0
M  V30 23734 C 2187.81 2.97338 1.79464 0
M  V30 23735 C 2186.77 4.05315 1.37491 0
M  V30 23736 C 2186.09 4.64808 2.64307 0
M  V30 23737 C 2187.39 5.19636 0.526828 0
M  V30 23738 H 2189.09 2.9939 0.0240678 0
M  V30 23739 H 2186.63 1.43996 0.0101357 0
M  V30 23740 H 2188.59 3.45149 2.41765 0
M  V30 23741 H 2187.31 2.20887 2.40576 0
M  V30 23742 H 2185.97 3.58312 0.775106 0
M  V30 23743 H 2185.62 3.85027 3.23672 0
M  V30 23744 H 2185.32 5.37713 2.36935 0
M  V30 23745 H 2186.84 5.15366 3.2746 0
M  V30 23746 H 2188.26 5.63513 1.05478 0
M  V30 23747 H 2186.65 5.9909 0.348095 0
M  V30 23748 H 2187.72 4.82761 -0.454948 0
M  V30 23749 N 2189.07 2.77022e-05 1.576 0
M  V30 23750 C 2190.32 -0.684007 1.89748 0
M  V30 23751 C 2190.63 -1.74935 0.875041 0
M  V30 23752 O 2191.83 -2.48802 1.08674 0
M  V30 23753 C 2190.29 -1.26778 3.36831 0
M  V30 23754 C 2189.9 -0.23725 4.47371 0
M  V30 23755 C 2191.64 -1.93 3.78089 0
M  V30 23756 C 2189.55 -0.831011 5.85532 0
M  V30 23757 H 2188.48 -0.259241 0.708033 0
M  V30 23758 H 2191.13 0.0605762 1.834 0
M  V30 23759 H 2189.51 -2.06303 3.38017 0
M  V30 23760 H 2190.69 0.53341 4.57702 0
M  V30 23761 H 2189 0.324536 4.15133 0
M  V30 23762 H 2191.6 -2.38328 4.78648 0
M  V30 23763 H 2191.94 -2.76058 3.11605 0
M  V30 23764 H 2192.47 -1.20209 3.79203 0
M  V30 23765 H 2189.21 -0.0392145 6.55488 0
M  V30 23766 H 2188.73 -1.57083 5.78865 0
M  V30 23767 H 2190.41 -1.32963 6.3319 0
M  V30 23768 N 2190.54 -1.55222 -0.272728 0
M  V30 23769 C 2191.49 -1.88912 -1.35702 0
M  V30 23770 C 2192.49 -0.765483 -1.51118 0
M  V30 23771 O 2193.69 -0.949829 -1.52899 0
M  V30 23772 H 2190.07 -0.599598 -0.453858 0
M  V30 23773 H 2192.04 -2.79489 -1.04539 0
M  V30 23774 C 2190.79 -2.17784 -2.71045 0
M  V30 23775 H 2190.11 -3.03733 -2.59974 0
M  V30 23776 H 2191.55 -2.45278 -3.45854 0
M  V30 23777 C 2190.01 -0.985529 -3.22163 0
M  V30 23778 O 2190.54 -0.220303 -4.01095 0
M  V30 23779 N 2188.75 -0.783157 -2.79848 0
M  V30 23780 H 2188.29 -1.40712 -2.15773 0
M  V30 23781 H 2188.25 0.012984 -3.14397 0
M  V30 23782 N 2192.02 0.537252 -1.4816 0
M  V30 23783 C 2193.3 1.29837 -1.46294 0
M  V30 23784 C 2193.68 2.10409 -0.17065 0
M  V30 23785 O 2193.03 2.12194 0.847709 0
M  V30 23786 C 2193.24 2.18598 -2.72058 0
M  V30 23787 C 2194.59 2.78974 -3.20092 0
M  V30 23788 O 2195.61 2.28889 -2.72925 0
M  V30 23789 O 2194.47 3.70057 -4.02144 0
M  V30 23790 H 2191.56 0.585637 -0.583916 0
M  V30 23791 H 2194.11 0.554506 -1.60385 0
M  V30 23792 H 2192.88 1.58795 -3.57631 0
M  V30 23793 H 2192.5 3.00244 -2.60651 0
M  V30 23794 N 2193.5 1.36626 0.785562 0
M  V30 23795 C 2194.75 1.30398 1.5388 0
M  V30 23796 C 2195.06 -0.113418 1.95271 0
M  V30 23797 O 2196.27 -0.298094 2.69859 0
M  V30 23798 C 2194.72 2.28807 2.77804 0
M  V30 23799 C 2194.33 3.76004 2.43568 0
M  V30 23800 C 2196.08 2.31564 3.55779 0
M  V30 23801 C 2193.98 4.66179 3.6391 0
M  V30 23802 H 2192.91 0.484576 0.57767 0
M  V30 23803 H 2195.56 1.6201 0.861677 0
M  V30 23804 H 2193.95 1.90194 3.47336 0
M  V30 23805 H 2195.12 4.23375 1.81908 0
M  V30 23806 H 2193.44 3.76059 1.78797 0
M  V30 23807 H 2196.03 2.96144 4.452 0
M  V30 23808 H 2196.38 1.32527 3.94642 0
M  V30 23809 H 2196.91 2.68814 2.9323 0
M  V30 23810 H 2193.65 5.66293 3.3014 0
M  V30 23811 H 2193.17 4.23522 4.24722 0
M  V30 23812 H 2194.85 4.82639 4.30892 0
M  V30 23813 N 2194.98 -1.01016 1.20969 0
M  V30 23814 C 2195.94 -2.07851 0.965954 0
M  V30 23815 C 2196.94 -1.60684 -0.0610263 0
M  V30 23816 O 2198.13 -1.73312 0.175711 0
M  V30 23817 C 2195.26 -3.37842 0.455573 0
M  V30 23818 H 2196.46 -2.30907 1.91369 0
M  V30 23819 H 2194.01 -1.17915 1.02596 0
M  V30 23820 H 2194.74 -3.20464 -0.497325 0
M  V30 23821 H 2194.53 -3.73405 1.19628 0
M  V30 23822 H 2196.02 -4.16487 0.304741 0
M  V30 23823 N 2196.46 -1.01661 -1.20428 0
M  V30 23824 C 2197.87 -0.731467 -1.41851 0
M  V30 23825 C 2198.07 0.688865 -1.89359 0
M  V30 23826 O 2197.13 1.45662 -2.06249 0
M  V30 23827 C 2198.44 -1.75718 -2.44016 0
M  V30 23828 C 2199.99 -1.77532 -2.57782 0
M  V30 23829 C 2200.46 -2.7903 -3.63189 0
M  V30 23830 N 2201.96 -2.7777 -3.70673 0
M  V30 23831 C 2202.69 -3.52962 -4.51891 0
M  V30 23832 N 2202.19 -4.3783 -5.36914 0
M  V30 23833 N 2203.98 -3.41559 -4.46424 0
M  V30 23834 H 2196.13 -1.93355 -0.879059 0
M  V30 23835 H 2198.39 -0.835244 -0.448411 0
M  V30 23836 H 2198.1 -2.77473 -2.16105 0
M  V30 23837 H 2197.97 -1.56933 -3.43004 0
M  V30 23838 H 2200.36 -0.764619 -2.85022 0
M  V30 23839 H 2200.44 -2.0039 -1.58989 0
M  V30 23840 H 2200.09 -3.80264 -3.36693 0
M  V30 23841 H 2200.02 -2.53433 -4.61605 0
M  V30 23842 H 2202.51 -2.16206 -3.09941 0
M  V30 23843 H 2202.82 -4.91973 -5.95972 0
M  V30 23844 H 2201.16 -4.41908 -5.36416 0
M  V30 23845 H 2204.36 -2.74679 -3.79037 0
M  V30 23846 H 2204.53 -4.00413 -5.09484 0
M  V30 23847 N 2197.93 1.36205 -0.792844 0
M  V30 23848 C 2199.21 1.93428 -0.290661 0
M  V30 23849 C 2199.59 1.72439 1.2177 0
M  V30 23850 O 2198.94 1.08534 2.01078 0
M  V30 23851 C 2199.15 3.42171 -0.687033 0
M  V30 23852 C 2200.5 4.19301 -0.668717 0
M  V30 23853 O 2201.52 3.50625 -0.62772 0
M  V30 23854 O 2200.38 5.41807 -0.714692 0
M  V30 23855 H 2197.47 0.823789 -0.0728072 0
M  V30 23856 H 2200.02 1.45365 -0.875619 0
M  V30 23857 H 2198.79 3.51119 -1.72718 0
M  V30 23858 H 2198.42 3.97527 -0.0761432 0
M  V30 23859 N 2199.41 0.545154 1.47871 0
M  V30 23860 C 2200.66 0.0145388 2.01695 0
M  V30 23861 C 2200.97 -1.3387 1.42612 0
M  V30 23862 O 2202.18 -1.95854 1.88025 0
M  V30 23863 C 2200.64 -0.0244435 3.59892 0
M  V30 23864 C 2200.24 1.32482 4.27963 0
M  V30 23865 C 2201.99 -0.503086 4.21508 0
M  V30 23866 C 2199.9 1.2456 5.78134 0
M  V30 23867 H 2198.83 0.00166498 0.753998 0
M  V30 23868 H 2201.48 0.691205 1.69984 0
M  V30 23869 H 2199.86 -0.766507 3.88511 0
M  V30 23870 H 2201.03 2.08365 4.11 0
M  V30 23871 H 2199.35 1.74042 3.78283 0
M  V30 23872 H 2201.94 -0.580563 5.31539 0
M  V30 23873 H 2202.29 -1.51236 3.87858 0
M  V30 23874 H 2202.82 0.183751 3.97375 0
M  V30 23875 H 2199.56 2.2305 6.16384 0
M  V30 23876 H 2199.08 0.528387 5.97468 0
M  V30 23877 H 2200.76 0.9426 6.40097 0
M  V30 23878 N 2200.89 -1.55074 0.28101 0
M  V30 23879 C 2202.31 -1.59433 -0.0729684 0
M  V30 23880 C 2202.51 -1.29819 -1.54108 0
M  V30 23881 O 2201.56 -1.06191 -2.29085 0
M  V30 23882 C 2202.88 -2.99129 0.306974 0
M  V30 23883 C 2204.42 -3.11967 0.254078 0
M  V30 23884 C 2204.9 -4.53939 0.608547 0
M  V30 23885 N 2206.39 -4.59798 0.560322 0
M  V30 23886 C 2207.12 -5.67688 0.807319 0
M  V30 23887 N 2206.62 -6.83699 1.11924 0
M  V30 23888 N 2208.41 -5.57264 0.735721 0
M  V30 23889 H 2200.56 -1.72588 1.23803 0
M  V30 23890 H 2202.83 -0.805073 0.500561 0
M  V30 23891 H 2202.53 -3.25655 1.32822 0
M  V30 23892 H 2202.41 -3.75579 -0.349297 0
M  V30 23893 H 2204.79 -2.85202 -0.75789 0
M  V30 23894 H 2204.88 -2.37717 0.94469 0
M  V30 23895 H 2204.52 -4.81431 1.61823 0
M  V30 23896 H 2204.45 -5.26497 -0.10392 0
M  V30 23897 H 2206.94 -3.76462 0.329354 0
M  V30 23898 H 2207.25 -7.61886 1.29422 0
M  V30 23899 H 2205.6 -6.853 1.15708 0
M  V30 23900 H 2208.79 -4.65509 0.491834 0
M  V30 23901 H 2208.96 -6.41269 0.931595 0
M  V30 23902 N 2202.37 -0.00838561 -1.57598 0
M  V30 23903 C 2203.32 0.998471 -2.10079 0
M  V30 23904 C 2204.31 1.35049 -1.02264 0
M  V30 23905 O 2205.52 1.33515 -1.20721 0
M  V30 23906 H 2201.89 0.339685 -0.670909 0
M  V30 23907 H 2203.86 0.530346 -2.93649 0
M  V30 23908 C 2202.61 2.27874 -2.62619 0
M  V30 23909 H 2201.94 2.01656 -3.45217 0
M  V30 23910 H 2203.38 2.96582 -3.0301 0
M  V30 23911 C 2201.83 2.9943 -1.54412 0
M  V30 23912 O 2202.36 3.90741 -0.931881 0
M  V30 23913 N 2200.57 2.61402 -1.26955 0
M  V30 23914 H 2200.12 1.87229 -1.76927 0
M  V30 23915 H 2200.08 3.09592 -0.547759 0
M  V30 23916 N 2203.85 1.55365 0.264492 0
M  V30 23917 C 2204.78 1.85251 1.34962 0
M  V30 23918 C 2205.79 0.737551 1.45135 0
M  V30 23919 O 2206.98 1.0155 1.46799 0
M  V30 23920 C 2204.08 2.00802 2.73005 0
M  V30 23921 C 2203.25 3.3153 2.85319 0
M  V30 23922 C 2202.31 3.37041 4.04091 0
M  V30 23923 O 2201.34 4.10365 3.94448 0
M  V30 23924 N 2202.54 2.65058 5.16454 0
M  V30 23925 H 2205.31 2.78915 1.09667 0
M  V30 23926 H 2202.87 1.55386 0.454608 0
M  V30 23927 H 2204.86 2.0185 3.50769 0
M  V30 23928 H 2203.43 1.13965 2.91085 0
M  V30 23929 H 2202.65 3.42948 1.94371 0
M  V30 23930 H 2203.94 4.17729 2.90483 0
M  V30 23931 H 2203.34 2.05185 5.27177 0
M  V30 23932 H 2201.89 2.71819 5.92417 0
M  V30 23933 N 2205.33 -0.529387 1.48443 0
M  V30 23934 C 2206.74 -0.85798 1.34577 0
M  V30 23935 C 2206.94 -1.98308 0.357235 0
M  V30 23936 O 2206 -2.51528 -0.221335 0
M  V30 23937 C 2207.31 -1.22495 2.74619 0
M  V30 23938 C 2208.86 -1.33479 2.83112 0
M  V30 23939 C 2209.33 -1.73519 4.23858 0
M  V30 23940 N 2210.82 -1.8062 4.26533 0
M  V30 23941 C 2211.56 -2.12987 5.32376 0
M  V30 23942 N 2211.06 -2.43774 6.48495 0
M  V30 23943 N 2212.85 -2.13998 5.1977 0
M  V30 23944 H 2205 0.212962 2.1133 0
M  V30 23945 H 2207.26 0.0326365 0.947438 0
M  V30 23946 H 2206.97 -0.471843 3.4852 0
M  V30 23947 H 2206.84 -2.17495 3.08181 0
M  V30 23948 H 2209.23 -2.07866 2.09465 0
M  V30 23949 H 2209.31 -0.365983 2.53168 0
M  V30 23950 H 2208.95 -0.996925 4.9802 0
M  V30 23951 H 2208.88 -2.71451 4.51245 0
M  V30 23952 H 2211.38 -1.59102 3.42775 0
M  V30 23953 H 2211.69 -2.67579 7.24998 0
M  V30 23954 H 2210.03 -2.41293 6.51769 0
M  V30 23955 H 2213.22 -1.89404 4.2807 0
M  V30 23956 H 2213.4 -2.38891 6.02358 0
M  V30 23957 N 2206.8 -1.37041 -0.778305 0
M  V30 23958 C 2208.22 -1.17697 -1.07794 0
M  V30 23959 C 2208.42 -0.00863657 -2.01498 0
M  V30 23960 O 2207.48 0.653309 -2.43902 0
M  V30 23961 C 2208.79 -2.49275 -1.68174 0
M  V30 23962 C 2210.34 -2.55739 -1.80463 0
M  V30 23963 C 2210.81 -3.87431 -2.44257 0
M  V30 23964 N 2212.3 -3.88837 -2.51714 0
M  V30 23965 C 2213.04 -4.87481 -3.01911 0
M  V30 23966 N 2212.53 -5.9652 -3.5233 0
M  V30 23967 N 2214.33 -4.74891 -3.00725 0
M  V30 23968 H 2206.48 -2.11826 -0.155995 0
M  V30 23969 H 2208.74 -0.938789 -0.131827 0
M  V30 23970 H 2208.45 -3.35095 -1.0679 0
M  V30 23971 H 2208.32 -2.65889 -2.67549 0
M  V30 23972 H 2210.71 -1.70329 -2.40981 0
M  V30 23973 H 2210.79 -2.43014 -0.798613 0
M  V30 23974 H 2210.43 -4.73251 -1.84379 0
M  V30 23975 H 2210.36 -3.97456 -3.45451 0
M  V30 23976 H 2212.85 -3.10067 -2.16025 0
M  V30 23977 H 2213.17 -6.67748 -3.89015 0
M  V30 23978 H 2211.51 -6.00174 -3.50452 0
M  V30 23979 H 2214.7 -3.8883 -2.60631 0
M  V30 23980 H 2214.88 -5.51924 -3.39535 0
M  V30 23981 N 2208.28 1.00373 -1.21503 0
M  V30 23982 C 2209.51 1.77484 -1.05749 0
M  V30 23983 C 2209.92 1.85017 0.395623 0
M  V30 23984 O 2209.26 1.31155 1.28624 0
M  V30 23985 C 2209.32 3.22871 -1.58097 0
M  V30 23986 C 2208.99 3.38912 -3.06574 0
M  V30 23987 C 2209.99 3.27093 -4.04112 0
M  V30 23988 C 2207.67 3.64313 -3.45806 0
M  V30 23989 C 2209.66 3.40441 -5.38868 0
M  V30 23990 C 2207.35 3.77303 -4.80714 0
M  V30 23991 C 2208.35 3.65374 -5.77054 0
M  V30 23992 O 2208.04 3.77949 -7.09514 0
M  V30 23993 H 2207.77 0.564579 -0.371788 0
M  V30 23994 H 2210.32 1.2714 -1.61321 0
M  V30 23995 H 2208.55 3.74357 -0.969229 0
M  V30 23996 H 2210.24 3.8166 -1.38168 0
M  V30 23997 H 2211.01 3.07392 -3.75147 0
M  V30 23998 H 2206.89 3.72679 -2.71351 0
M  V30 23999 H 2210.43 3.31047 -6.14047 0
M  V30 24000 H 2206.33 3.96508 -5.09364 0
M  V30 24001 H 2207.1 3.94888 -7.16942 0
M  V30 24002 N 2209.76 1.02298 1.19887 0
M  V30 24003 C 2211.18 0.738979 1.41461 0
M  V30 24004 C 2211.38 -0.678813 1.89722 0
M  V30 24005 O 2210.43 -1.44566 2.07019 0
M  V30 24006 C 2211.74 1.7701 2.4308 0
M  V30 24007 C 2213.29 1.78896 2.56837 0
M  V30 24008 C 2213.77 2.80952 3.61704 0
M  V30 24009 N 2215.26 2.79732 3.69194 0
M  V30 24010 C 2215.99 3.55353 4.50013 0
M  V30 24011 N 2215.49 4.40672 5.34584 0
M  V30 24012 N 2217.28 3.43922 4.44606 0
M  V30 24013 H 2209.43 1.93819 0.868793 0
M  V30 24014 H 2211.7 0.83761 0.443975 0
M  V30 24015 H 2211.4 2.78615 2.14631 0
M  V30 24016 H 2211.28 1.5875 3.42167 0
M  V30 24017 H 2213.66 0.779724 2.84613 0
M  V30 24018 H 2213.74 2.01231 1.57924 0
M  V30 24019 H 2213.39 3.82044 3.34671 0
M  V30 24020 H 2213.32 2.55878 4.60254 0
M  V30 24021 H 2215.81 2.17847 3.0879 0
M  V30 24022 H 2216.12 4.95127 5.93354 0
M  V30 24023 H 2214.47 4.44747 5.34065 0
M  V30 24024 H 2217.66 2.76685 3.77575 0
M  V30 24025 H 2217.83 4.03109 5.07353 0
M  V30 24026 N 2211.24 -1.35782 0.800057 0
M  V30 24027 C 2212.17 -2.28615 0.163636 0
M  V30 24028 C 2213.18 -1.49978 -0.633291 0
M  V30 24029 O 2214.37 -1.7229 -0.466724 0
M  V30 24030 C 2211.47 -3.29542 -0.790901 0
M  V30 24031 C 2210.64 -4.3738 -0.0417486 0
M  V30 24032 C 2209.7 -5.18205 -0.913799 0
M  V30 24033 O 2208.73 -5.68015 -0.367134 0
M  V30 24034 N 2209.93 -5.35678 -2.23673 0
M  V30 24035 H 2212.7 -2.83871 0.9611 0
M  V30 24036 H 2210.26 -1.48062 0.65492 0
M  V30 24037 H 2212.25 -3.80504 -1.37837 0
M  V30 24038 H 2210.82 -2.74848 -1.4892 0
M  V30 24039 H 2210.04 -3.8744 0.726881 0
M  V30 24040 H 2211.33 -5.0658 0.474808 0
M  V30 24041 H 2210.73 -4.96843 -2.70488 0
M  V30 24042 H 2209.28 -5.89843 -2.77359 0
M  V30 24043 N 2212.72 -0.552988 -1.4758 0
M  V30 24044 C 2214.13 -0.212452 -1.5818 0
M  V30 24045 C 2214.33 1.28493 -1.55215 0
M  V30 24046 O 2213.39 2.06482 -1.45333 0
M  V30 24047 C 2214.7 -0.835368 -2.88863 0
M  V30 24048 C 2216.25 -0.806209 -3.02439 0
M  V30 24049 C 2216.72 -1.40812 -4.35817 0
M  V30 24050 N 2218.21 -1.37111 -4.42442 0
M  V30 24051 C 2218.95 -1.80651 -5.44199 0
M  V30 24052 N 2218.45 -2.32027 -6.5279 0
M  V30 24053 N 2220.24 -1.71747 -5.35219 0
M  V30 24054 H 2212.39 -1.5259 -1.4775 0
M  V30 24055 H 2214.65 -0.636076 -0.70293 0
M  V30 24056 H 2214.36 -1.88754 -2.96757 0
M  V30 24057 H 2214.23 -0.325914 -3.75789 0
M  V30 24058 H 2216.62 0.237265 -2.94145 0
M  V30 24059 H 2216.7 -1.35338 -2.17065 0
M  V30 24060 H 2216.34 -2.45064 -4.44866 0
M  V30 24061 H 2216.27 -0.83643 -5.19915 0
M  V30 24062 H 2218.77 -0.995266 -3.64558 0
M  V30 24063 H 2219.08 -2.63184 -7.26604 0
M  V30 24064 H 2217.42 -2.36035 -6.53691 0
M  V30 24065 H 2220.61 -1.3139 -4.49282 0
M  V30 24066 H 2220.79 -2.05998 -6.14385 0
M  V30 24067 N 2214.19 1.54923 -0.28923 0
M  V30 24068 C 2215.61 1.5947 0.0645122 0
M  V30 24069 C 2215.81 1.30635 1.53417 0
M  V30 24070 O 2214.87 1.07404 2.28518 0
M  V30 24071 C 2216.18 2.98962 -0.322833 0
M  V30 24072 C 2217.73 3.11828 -0.270619 0
M  V30 24073 C 2218.2 4.5361 -0.632611 0
M  V30 24074 N 2219.69 4.59495 -0.584698 0
M  V30 24075 C 2220.43 5.67252 -0.837414 0
M  V30 24076 N 2219.92 6.83096 -1.15548 0
M  V30 24077 N 2221.72 5.56866 -0.765264 0
M  V30 24078 H 2213.87 1.71929 -1.24717 0
M  V30 24079 H 2216.13 0.802407 -0.504823 0
M  V30 24080 H 2215.84 3.24946 -1.34547 0
M  V30 24081 H 2215.71 3.75759 0.329374 0
M  V30 24082 H 2218.1 2.856 0.742755 0
M  V30 24083 H 2218.18 2.37212 -0.957284 0
M  V30 24084 H 2217.82 4.80566 -1.64374 0
M  V30 24085 H 2217.75 5.26545 0.0759974 0
M  V30 24086 H 2220.24 3.76282 -0.349314 0
M  V30 24087 H 2220.56 7.61189 -1.33461 0
M  V30 24088 H 2218.9 6.84677 -1.1934 0
M  V30 24089 H 2222.09 4.65242 -0.516514 0
M  V30 24090 H 2222.27 6.40765 -0.96559 0
M  V30 24091 N 2215.67 0.0167433 1.57591 0
M  V30 24092 C 2216.62 -0.969215 2.09463 0
M  V30 24093 C 2217.59 -1.33087 0.993833 0
M  V30 24094 O 2218.77 -1.42634 1.26729 0
M  V30 24095 C 2215.91 -2.25046 2.61626 0
M  V30 24096 C 2215.03 -1.94636 3.8567 0
M  V30 24097 C 2214.16 -3.16964 4.26271 0
M  V30 24098 C 2213.2 -2.82316 5.43106 0
M  V30 24099 N 2212.34 -3.97232 5.78922 0
M  V30 24100 H 2217.18 -0.519945 2.93429 0
M  V30 24101 H 2214.71 -0.245062 1.45044 0
M  V30 24102 H 2216.67 -2.99971 2.89954 0
M  V30 24103 H 2215.3 -2.67612 1.8051 0
M  V30 24104 H 2214.35 -1.10006 3.64147 0
M  V30 24105 H 2215.67 -1.65109 4.70681 0
M  V30 24106 H 2214.82 -4.0022 4.5597 0
M  V30 24107 H 2213.56 -3.49642 3.40002 0
M  V30 24108 H 2212.56 -1.9747 5.13114 0
M  V30 24109 H 2213.79 -2.50868 6.31064 0
M  V30 24110 H 2211.74 -4.29776 4.95609 0
M  V30 24111 H 2211.65 -3.71287 6.58545 0
M  V30 24112 H 2212.92 -4.81228 6.13221 0
M  V30 24113 N 2217.15 -1.55503 -0.256249 0
M  V30 24114 C 2218.11 -1.88736 -1.30043 0
M  V30 24115 C 2219.11 -0.76311 -1.41539 0
M  V30 24116 O 2220.3 -1.03118 -1.40401 0
M  V30 24117 C 2217.44 -2.10751 -2.67949 0
M  V30 24118 H 2218.63 -2.82094 -1.01798 0
M  V30 24119 H 2216.18 -1.48251 -0.495108 0
M  V30 24120 H 2216.92 -1.19831 -3.01349 0
M  V30 24121 H 2216.7 -2.92622 -2.60988 0
M  V30 24122 H 2218.19 -2.37679 -3.43364 0
M  V30 24123 N 2218.63 0.521507 -1.48721 0
M  V30 24124 C 2219.54 1.652 -1.66572 0
M  V30 24125 C 2220.55 1.65138 -0.548226 0
M  V30 24126 O 2221.73 1.83934 -0.820371 0
M  V30 24127 C 2218.8 3.01639 -1.70923 0
M  V30 24128 C 2217.86 3.1249 -2.94361 0
M  V30 24129 C 2217.09 4.42421 -2.98495 0
M  V30 24130 O 2217.31 5.3002 -2.10796 0
M  V30 24131 O 2216.25 4.57815 -3.90754 0
M  V30 24132 H 2220.07 1.53075 -2.62301 0
M  V30 24133 H 2217.66 0.695541 -1.32222 0
M  V30 24134 H 2219.54 3.82768 -1.76256 0
M  V30 24135 H 2218.21 3.1407 -0.783688 0
M  V30 24136 H 2217.12 2.30625 -2.94556 0
M  V30 24137 H 2218.45 3.04979 -3.86327 0
M  V30 24138 N 2220.11 1.37452 0.771027 0
M  V30 24139 C 2221.04 1.35974 1.89825 0
M  V30 24140 C 2222.02 0.228246 1.68562 0
M  V30 24141 O 2223.2 0.428708 1.89409 0
M  V30 24142 C 2220.33 1.16668 3.27118 0
M  V30 24143 C 2219.29 2.26836 3.62946 0
M  V30 24144 C 2218.61 1.92652 4.98788 0
M  V30 24145 C 2219.91 3.69023 3.6962 0
M  V30 24146 H 2221.61 2.30299 1.91319 0
M  V30 24147 H 2219.15 1.10857 0.919062 0
M  V30 24148 H 2221.11 1.14263 4.05613 0
M  V30 24149 H 2219.83 0.187983 3.26059 0
M  V30 24150 H 2218.49 2.28397 2.86759 0
M  V30 24151 H 2218.14 0.933108 4.94269 0
M  V30 24152 H 2217.84 2.66425 5.23729 0
M  V30 24153 H 2219.36 1.91836 5.79682 0
M  V30 24154 H 2220.77 3.69588 4.38266 0
M  V30 24155 H 2219.17 4.41855 4.06059 0
M  V30 24156 H 2220.24 4.02597 2.70266 0
M  V30 24157 N 2221.58 -0.997276 1.22033 0
M  V30 24158 C 2222.83 -1.73876 1.04379 0
M  V30 24159 C 2223.16 -1.89589 -0.420682 0
M  V30 24160 O 2222.44 -1.43586 -1.312 0
M  V30 24161 C 2222.72 -3.14688 1.75052 0
M  V30 24162 C 2222.57 -3.06651 3.29067 0
M  V30 24163 C 2223.89 -4.13772 1.49936 0
M  V30 24164 H 2221.01 -0.631127 0.380589 0
M  V30 24165 H 2223.65 -1.16214 1.50314 0
M  V30 24166 H 2221.8 -3.63917 1.36002 0
M  V30 24167 H 2223.48 -2.65076 3.77534 0
M  V30 24168 H 2221.72 -2.43562 3.58971 0
M  V30 24169 H 2222.39 -4.06275 3.73691 0
M  V30 24170 H 2224.87 -3.73281 1.83849 0
M  V30 24171 H 2223.74 -5.10424 2.01887 0
M  V30 24172 H 2224 -4.39994 0.431006 0
M  V30 24173 N 2223.06 -1.02932 -1.19343 0
M  V30 24174 C 2224.01 -0.610503 -2.22579 0
M  V30 24175 C 2224.98 0.375917 -1.6179 0
M  V30 24176 O 2226.16 0.272478 -1.88844 0
M  V30 24177 C 2223.3 0.0320867 -3.45085 0
M  V30 24178 C 2222.42 -1.00043 -4.20256 0
M  V30 24179 C 2221.55 -0.327553 -5.30189 0
M  V30 24180 C 2220.59 -1.34595 -5.97119 0
M  V30 24181 N 2219.73 -0.698849 -6.98613 0
M  V30 24182 H 2224.57 -1.49542 -2.57762 0
M  V30 24183 H 2222.11 -0.748333 -1.26643 0
M  V30 24184 H 2224.06 0.421893 -4.15061 0
M  V30 24185 H 2222.69 0.880585 -3.10557 0
M  V30 24186 H 2221.75 -1.50829 -3.4922 0
M  V30 24187 H 2223.06 -1.77441 -4.66172 0
M  V30 24188 H 2222.21 0.117073 -6.06587 0
M  V30 24189 H 2220.95 0.478627 -4.85346 0
M  V30 24190 H 2219.96 -1.80083 -5.19471 0
M  V30 24191 H 2221.18 -2.15363 -6.44046 0
M  V30 24192 H 2219.13 0.0872318 -6.55942 0
M  V30 24193 H 2219.04 -1.41071 -7.42721 0
M  V30 24194 H 2220.31 -0.278239 -7.79003 0
M  V30 24195 N 2224.54 1.35356 -0.807246 0
M  V30 24196 C 2225.47 2.32339 -0.23255 0
M  V30 24197 C 2226.45 1.57505 0.642358 0
M  V30 24198 O 2227.64 1.8557 0.572493 0
M  V30 24199 C 2224.77 3.41736 0.619178 0
M  V30 24200 C 2223.72 4.27711 -0.157291 0
M  V30 24201 C 2223.05 5.28434 0.81618 0
M  V30 24202 C 2224.35 5.04373 -1.35665 0
M  V30 24203 H 2226.04 2.80652 -1.04281 0
M  V30 24204 H 2223.59 1.34933 -0.502904 0
M  V30 24205 H 2225.54 4.08586 1.03129 0
M  V30 24206 H 2224.26 2.92033 1.46233 0
M  V30 24207 H 2222.92 3.62442 -0.550589 0
M  V30 24208 H 2222.57 4.74998 1.65486 0
M  V30 24209 H 2222.27 5.86829 0.300964 0
M  V30 24210 H 2223.79 5.98155 1.22649 0
M  V30 24211 H 2225.21 5.64165 -1.01937 0
M  V30 24212 H 2223.61 5.72267 -1.8064 0
M  V30 24213 H 2224.68 4.34977 -2.14296 0
M  V30 24214 N 2226.02 0.560807 1.47284 0
M  V30 24215 C 2226.95 -0.222398 2.28118 0
M  V30 24216 C 2227.96 -0.876032 1.37221 0
M  V30 24217 O 2229.15 -0.749279 1.62013 0
M  V30 24218 C 2226.25 -1.33279 3.11592 0
M  V30 24219 C 2225.43 -0.775265 4.30475 0
M  V30 24220 C 2224.48 -1.7706 4.95516 0
M  V30 24221 O 2223.51 -1.31529 5.53795 0
M  V30 24222 N 2224.71 -3.10409 4.90537 0
M  V30 24223 H 2227.48 0.47101 2.95976 0
M  V30 24224 H 2225.04 0.397118 1.56954 0
M  V30 24225 H 2227.03 -1.99746 3.51971 0
M  V30 24226 H 2225.6 -1.92938 2.45954 0
M  V30 24227 H 2224.82 0.0662805 3.94144 0
M  V30 24228 H 2226.11 -0.382182 5.07363 0
M  V30 24229 H 2225.51 -3.50042 4.44395 0
M  V30 24230 H 2224.06 -3.72425 5.34923 0
M  V30 24231 N 2227.5 -1.54768 0.297442 0
M  V30 24232 C 2228.43 -2.20827 -0.613842 0
M  V30 24233 C 2229.44 -1.19989 -1.1003 0
M  V30 24234 O 2230.63 -1.466 -1.01836 0
M  V30 24235 C 2227.73 -2.83824 -1.85195 0
M  V30 24236 C 2226.9 -4.10561 -1.50858 0
M  V30 24237 C 2225.96 -4.57395 -2.60146 0
M  V30 24238 O 2224.99 -5.22674 -2.25389 0
M  V30 24239 N 2226.19 -4.29413 -3.90621 0
M  V30 24240 H 2228.96 -2.99661 -0.0483364 0
M  V30 24241 H 2226.52 -1.61458 0.119488 0
M  V30 24242 H 2228.51 -3.1209 -2.57647 0
M  V30 24243 H 2227.08 -2.08852 -2.32594 0
M  V30 24244 H 2226.3 -3.89344 -0.616857 0
M  V30 24245 H 2227.59 -4.93092 -1.2545 0
M  V30 24246 H 2226.98 -3.77108 -4.21671 0
M  V30 24247 H 2225.54 -4.62396 -4.59383 0
M  V30 24248 N 2228.97 -0.0251005 -1.5758 0
M  V30 24249 C 2230.2 0.664712 -1.95932 0
M  V30 24250 C 2230.62 1.65893 -0.901382 0
M  V30 24251 O 2229.97 1.82123 0.117223 0
M  V30 24252 C 2230.03 1.37462 -3.34345 0
M  V30 24253 O 2229.75 0.420247 -4.3608 0
M  V30 24254 C 2231.25 2.15663 -3.87304 0
M  V30 24255 H 2228.47 0.183546 -0.645408 0
M  V30 24256 H 2231.01 -0.0836731 -2.04329 0
M  V30 24257 H 2229.17 2.07444 -3.27179 0
M  V30 24258 H 2229.58 0.9239 -5.16299 0
M  V30 24259 H 2231.05 2.60794 -4.86508 0
M  V30 24260 H 2231.53 2.99399 -3.21336 0
M  V30 24261 H 2232.14 1.50647 -3.97726 0
M  V30 24262 N 2230.45 1.55637 0.247999 0
M  V30 24263 C 2231.68 1.81208 0.992335 0
M  V30 24264 C 2232.09 0.598356 1.79489 0
M  V30 24265 O 2231.43 -0.442403 1.78293 0
M  V30 24266 C 2231.5 3.00113 1.97921 0
M  V30 24267 C 2231.16 4.36179 1.36369 0
M  V30 24268 C 2232.16 5.14215 0.76673 0
M  V30 24269 C 2229.84 4.82874 1.38339 0
M  V30 24270 C 2231.84 6.37093 0.197666 0
M  V30 24271 C 2229.52 6.05702 0.810468 0
M  V30 24272 C 2230.52 6.8265 0.218634 0
M  V30 24273 O 2230.21 8.03157 -0.34544 0
M  V30 24274 H 2229.94 0.606922 0.297693 0
M  V30 24275 H 2232.49 2.03531 0.276482 0
M  V30 24276 H 2230.72 2.73543 2.73334 0
M  V30 24277 H 2232.41 3.12786 2.58688 0
M  V30 24278 H 2233.18 4.79259 0.744029 0
M  V30 24279 H 2229.06 4.22973 1.83343 0
M  V30 24280 H 2232.6 6.97097 -0.264911 0
M  V30 24281 H 2228.5 6.40135 0.830492 0
M  V30 24282 H 2229.27 8.18156 -0.237198 0
M  V30 24283 N 2231.93 -0.513613 1.48996 0
M  V30 24284 C 2232.89 -1.59876 1.64232 0
M  V30 24285 C 2233.89 -1.52339 0.514723 0
M  V30 24286 O 2235.08 -1.55716 0.780898 0
M  V30 24287 C 2232.22 -2.99521 1.62788 0
M  V30 24288 H 2233.41 -1.47701 2.61007 0
M  V30 24289 H 2230.96 -0.736912 1.37838 0
M  V30 24290 H 2231.7 -3.17186 0.675516 0
M  V30 24291 H 2231.48 -3.064 2.44666 0
M  V30 24292 H 2232.97 -3.78385 1.76676 0
M  V30 24293 N 2233.41 -1.37859 -0.763727 0
M  V30 24294 C 2234.37 -1.34084 -1.85887 0
M  V30 24295 C 2235.37 -0.243305 -1.58949 0
M  V30 24296 O 2236.56 -0.499619 -1.66882 0
M  V30 24297 C 2233.69 -1.08495 -3.23174 0
M  V30 24298 H 2234.89 -2.31506 -1.90644 0
M  V30 24299 H 2232.44 -1.23004 -0.964345 0
M  V30 24300 H 2233.18 -0.116375 -3.24091 0
M  V30 24301 H 2232.96 -1.87946 -3.4412 0
M  V30 24302 H 2234.45 -1.08524 -4.03252 0
M  V30 24303 N 2234.89 0.990791 -1.22561 0
M  V30 24304 C 2235.82 2.09954 -1.02184 0
M  V30 24305 C 2236.8 1.70001 0.0579095 0
M  V30 24306 O 2237.98 1.93917 -0.104718 0
M  V30 24307 C 2235.11 3.42059 -0.601083 0
M  V30 24308 C 2234.07 3.95869 -1.627 0
M  V30 24309 C 2233.39 5.24047 -1.06202 0
M  V30 24310 C 2234.69 4.26315 -3.0175 0
M  V30 24311 H 2236.39 2.27259 -1.9492 0
M  V30 24312 H 2233.93 1.09209 -0.938585 0
M  V30 24313 H 2235.89 4.19037 -0.445634 0
M  V30 24314 H 2234.61 3.24588 0.361948 0
M  V30 24315 H 2233.27 3.21025 -1.77027 0
M  V30 24316 H 2232.92 5.02919 -0.0902787 0
M  V30 24317 H 2232.62 5.61016 -1.74741 0
M  V30 24318 H 2234.14 6.03657 -0.918198 0
M  V30 24319 H 2235.56 4.94081 -2.90786 0
M  V30 24320 H 2233.95 4.74461 -3.67433 0
M  V30 24321 H 2235.02 3.34004 -3.51524 0
M  V30 24322 N 2236.37 1.03564 1.18795 0
M  V30 24323 C 2237.31 0.615945 2.24296 0
M  V30 24324 C 2238.31 -0.354779 1.65643 0
M  V30 24325 O 2239.51 -0.222619 1.78618 0
M  V30 24326 H 2235.89 0.180947 0.729906 0
M  V30 24327 H 2237.86 1.51624 2.57007 0
M  V30 24328 C 2236.61 -0.0104124 3.47698 0
M  V30 24329 H 2235.93 0.727578 3.93124 0
M  V30 24330 H 2237.37 -0.266921 4.23159 0
M  V30 24331 C 2235.83 -1.25899 3.12491 0
M  V30 24332 O 2236.36 -2.35032 3.25765 0
M  V30 24333 N 2234.57 -1.15034 2.66862 0
M  V30 24334 H 2234.11 -0.262283 2.56261 0
M  V30 24335 H 2234.07 -1.98668 2.43677 0
M  V30 24336 N 2237.84 -1.34926 0.814413 0
M  V30 24337 C 2239.07 -2.03304 0.410133 0
M  V30 24338 C 2239.49 -1.60953 -0.973436 0
M  V30 24339 O 2238.85 -0.789993 -1.63183 0
M  V30 24340 C 2238.9 -3.56967 0.510553 0
M  V30 24341 O 2238 -4.09679 -0.472963 0
M  V30 24342 H 2237.34 -0.641843 0.170099 0
M  V30 24343 H 2239.87 -1.72356 1.10247 0
M  V30 24344 H 2239.88 -4.06196 0.383206 0
M  V30 24345 H 2238.56 -3.87141 1.5197 0
M  V30 24346 H 2237.14 -3.71649 -0.305206 0
M  V30 24347 N 2239.32 -0.56861 -1.46985 0
M  V30 24348 C 2240.27 0.172666 -2.30153 0
M  V30 24349 C 2241.24 0.897562 -1.39761 0
M  V30 24350 O 2242.42 0.891014 -1.68717 0
M  V30 24351 C 2239.56 1.18944 -3.23954 0
M  V30 24352 C 2238.68 0.469441 -4.29442 0
M  V30 24353 C 2237.81 1.4725 -5.10383 0
M  V30 24354 C 2236.85 0.738118 -6.07633 0
M  V30 24355 N 2235.99 1.68856 -6.81493 0
M  V30 24356 H 2240.83 -0.542647 -2.93018 0
M  V30 24357 H 2238.36 -0.279426 -1.44422 0
M  V30 24358 H 2240.32 1.79166 -3.7677 0
M  V30 24359 H 2238.95 1.87264 -2.62929 0
M  V30 24360 H 2238 -0.247534 -3.79594 0
M  V30 24361 H 2239.32 -0.105329 -4.98689 0
M  V30 24362 H 2238.47 2.14793 -5.67405 0
M  V30 24363 H 2237.21 2.0812 -4.41064 0
M  V30 24364 H 2236.21 0.0488326 -5.49778 0
M  V30 24365 H 2237.44 0.13501 -6.78966 0
M  V30 24366 H 2235.39 2.28562 -6.14895 0
M  V30 24367 H 2235.3 1.16623 -7.4695 0
M  V30 24368 H 2236.57 2.35477 -7.43082 0
M  V30 24369 N 2240.8 1.54608 -0.305646 0
M  V30 24370 C 2241.76 2.22365 0.555551 0
M  V30 24371 C 2242.76 1.21121 1.05766 0
M  V30 24372 O 2243.95 1.45824 0.952946 0
M  V30 24373 C 2241.08 2.91367 1.76969 0
M  V30 24374 H 2242.28 2.99878 -0.0365099 0
M  V30 24375 H 2239.83 1.56198 -0.0565281 0
M  V30 24376 H 2240.57 2.17945 2.40147 0
M  V30 24377 H 2240.35 3.6559 1.41726 0
M  V30 24378 H 2241.84 3.43043 2.38142 0
M  V30 24379 N 2242.28 0.033457 1.57564 0
M  V30 24380 C 2243.51 -0.654312 1.96281 0
M  V30 24381 C 2243.92 -1.65413 0.910167 0
M  V30 24382 O 2243.28 -1.82183 -0.107563 0
M  V30 24383 C 2243.33 -1.35687 3.35069 0
M  V30 24384 O 2243.05 -0.397115 4.36296 0
M  V30 24385 C 2244.55 -2.13606 3.88442 0
M  V30 24386 H 2241.77 -0.180121 0.646373 0
M  V30 24387 H 2244.31 0.094508 2.04282 0
M  V30 24388 H 2242.47 -2.05706 3.28274 0
M  V30 24389 H 2242.88 -0.896506 5.16781 0
M  V30 24390 H 2244.36 -2.58211 4.87884 0
M  V30 24391 H 2244.83 -2.97691 3.22919 0
M  V30 24392 H 2245.44 -1.48536 3.98519 0
M  V30 24393 N 2243.76 -1.55766 -0.239741 0
M  V30 24394 C 2245 -1.77932 -0.96677 0
M  V30 24395 C 2245.33 -0.599047 -1.85045 0
M  V30 24396 O 2244.59 0.417362 -1.91198 0
M  V30 24397 C 2244.88 -3.05676 -1.85195 0
M  V30 24398 C 2244.55 -4.36691 -1.12303 0
M  V30 24399 C 2243.21 -4.72292 -0.921606 0
M  V30 24400 C 2245.56 -5.17654 -0.606928 0
M  V30 24401 C 2242.89 -5.86386 -0.191893 0
M  V30 24402 C 2245.24 -6.32505 0.109352 0
M  V30 24403 C 2243.91 -6.66722 0.32219 0
M  V30 24404 H 2243.18 -0.651099 -0.353766 0
M  V30 24405 H 2245.83 -1.90036 -0.236307 0
M  V30 24406 H 2244.13 -2.88614 -2.6497 0
M  V30 24407 H 2245.83 -3.20026 -2.41629 0
M  V30 24408 H 2242.42 -4.08727 -1.28997 0
M  V30 24409 H 2246.6 -4.90599 -0.750067 0
M  V30 24410 H 2241.86 -6.11398 -0.0165874 0
M  V30 24411 H 2246.03 -6.94479 0.516859 0
M  V30 24412 H 2243.66 -7.54977 0.889573 0
M  V30 24413 N 2245.23 0.505704 -1.49266 0
M  V30 24414 C 2246.46 1.2824 -1.61982 0
M  V30 24415 C 2246.87 1.86986 -0.288609 0
M  V30 24416 O 2246.21 1.68339 0.735378 0
M  V30 24417 C 2246.28 2.45485 -2.62636 0
M  V30 24418 C 2245.94 2.07644 -4.07103 0
M  V30 24419 C 2246.94 1.61892 -4.94052 0
M  V30 24420 C 2244.62 2.17423 -4.52805 0
M  V30 24421 C 2246.62 1.26417 -6.24738 0
M  V30 24422 C 2244.3 1.81559 -5.83506 0
M  V30 24423 C 2245.3 1.36131 -6.69296 0
M  V30 24424 O 2244.99 1.0075 -7.97562 0
M  V30 24425 H 2244.72 0.395338 -0.548347 0
M  V30 24426 H 2247.28 0.61417 -1.96003 0
M  V30 24427 H 2245.51 3.15368 -2.23785 0
M  V30 24428 H 2247.19 3.07517 -2.6493 0
M  V30 24429 H 2247.96 1.53787 -4.59972 0
M  V30 24430 H 2243.84 2.51735 -3.862 0
M  V30 24431 H 2247.38 0.90887 -6.91654 0
M  V30 24432 H 2243.28 1.89313 -6.17115 0
M  V30 24433 H 2244.05 1.13938 -8.10531 0
M  V30 24434 N 2246.71 1.38262 0.756405 0
M  V30 24435 C 2247.96 1.34049 1.51245 0
M  V30 24436 C 2248.28 -0.069803 1.94875 0
M  V30 24437 O 2247.55 -1.01693 1.67438 0
M  V30 24438 H 2246.13 0.493232 0.561009 0
M  V30 24439 H 2248.79 1.72911 0.899317 0
M  V30 24440 H 2247.89 1.98951 2.40468 0
M  V30 24441 N 2248.19 -0.984277 1.23084 0
M  V30 24442 C 2249.1 -2.11015 1.02518 0
M  V30 24443 C 2250.12 -1.73976 -0.0291397 0
M  V30 24444 O 2251.29 -2.00719 0.165469 0
M  V30 24445 C 2248.36 -3.41207 0.614733 0
M  V30 24446 C 2247.42 -3.92294 1.74366 0
M  V30 24447 C 2246.65 -5.16273 1.3527 0
M  V30 24448 O 2246.87 -5.69915 0.235236 0
M  V30 24449 O 2245.81 -5.6133 2.17237 0
M  V30 24450 H 2249.63 -2.31252 1.96866 0
M  V30 24451 H 2247.22 -1.0939 1.01755 0
M  V30 24452 H 2249.1 -4.1953 0.396591 0
M  V30 24453 H 2247.78 -3.22309 -0.299794 0
M  V30 24454 H 2246.68 -3.15106 2.01641 0
M  V30 24455 H 2248.02 -4.1564 2.63637 0
M  V30 24456 N 2249.67 -1.04192 -1.18244 0
M  V30 24457 C 2250.6 -0.592127 -2.21419 0
M  V30 24458 C 2251.61 0.338881 -1.59234 0
M  V30 24459 O 2252.8 0.1332 -1.78002 0
M  V30 24460 C 2249.9 0.154794 -3.38546 0
M  V30 24461 C 2249.08 -0.784403 -4.30309 0
M  V30 24462 C 2248.13 -0.0805508 -5.26138 0
M  V30 24463 O 2247.16 -0.711391 -5.64737 0
M  V30 24464 N 2248.36 1.18564 -5.68263 0
M  V30 24465 H 2251.13 -1.47954 -2.60633 0
M  V30 24466 H 2248.69 -0.922568 -1.33042 0
M  V30 24467 H 2250.68 0.635535 -3.99679 0
M  V30 24468 H 2249.25 0.943758 -2.98013 0
M  V30 24469 H 2248.47 -1.44498 -3.66762 0
M  V30 24470 H 2249.76 -1.42227 -4.88517 0
M  V30 24471 H 2249.16 1.71867 -5.3896 0
M  V30 24472 H 2247.71 1.61063 -6.31587 0
M  V30 24473 N 2251.15 1.34492 -0.821557 0
M  V30 24474 C 2252.39 1.98621 -0.409587 0
M  V30 24475 C 2252.73 1.64986 1.02437 0
M  V30 24476 O 2252 0.920788 1.71324 0
M  V30 24477 C 2252.28 3.54887 -0.610521 0
M  V30 24478 C 2252.14 3.98269 -2.0905 0
M  V30 24479 C 2253.46 4.40076 -0.0456153 0
M  V30 24480 H 2250.57 0.721513 -0.150292 0
M  V30 24481 H 2253.22 1.59409 -1.03387 0
M  V30 24482 H 2251.37 3.88419 -0.0791123 0
M  V30 24483 H 2253.04 3.75076 -2.68544 0
M  V30 24484 H 2251.28 3.48631 -2.58146 0
M  V30 24485 H 2251.95 5.07047 -2.18191 0
M  V30 24486 H 2254.43 4.13089 -0.49963 0
M  V30 24487 H 2253.3 5.48475 -0.216018 0
M  V30 24488 H 2253.57 4.29467 1.04932 0
M  V30 24489 N 2252.62 0.576397 1.46681 0
M  V30 24490 C 2253.9 -0.00699999 1.95599 0
M  V30 24491 C 2254.28 -1.46587 1.51906 0
M  V30 24492 O 2253.63 -2.1525 0.766793 0
M  V30 24493 C 2253.84 0.158466 3.4864 0
M  V30 24494 C 2255.19 0.0230186 4.24594 0
M  V30 24495 O 2256.21 0.0869799 3.56094 0
M  V30 24496 O 2255.07 -0.117919 5.46373 0
M  V30 24497 H 2252.16 -0.0533695 0.825276 0
M  V30 24498 H 2254.71 0.644271 1.56994 0
M  V30 24499 H 2253.48 1.17289 3.73308 0
M  V30 24500 H 2253.11 -0.529531 3.94058 0
M  V30 24501 N 2254.1 -1.54444 0.313841 0
M  V30 24502 C 2255.33 -2.04505 -0.293455 0
M  V30 24503 C 2255.74 -1.19008 -1.47084 0
M  V30 24504 O 2255.08 -0.21129 -1.82481 0
M  V30 24505 C 2255.15 -3.50477 -0.800394 0
M  V30 24506 C 2254.81 -4.56297 0.253403 0
M  V30 24507 C 2255.81 -5.08426 1.08621 0
M  V30 24508 C 2253.49 -5.00714 0.398796 0
M  V30 24509 C 2255.49 -6.03526 2.05023 0
M  V30 24510 C 2253.17 -5.95631 1.36625 0
M  V30 24511 C 2254.17 -6.46922 2.19044 0
M  V30 24512 O 2253.86 -7.39978 3.14147 0
M  V30 24513 H 2253.59 -0.672788 -0.0658207 0
M  V30 24514 H 2256.14 -2.00292 0.455212 0
M  V30 24515 H 2254.37 -3.52056 -1.59981 0
M  V30 24516 H 2256.06 -3.83666 -1.32497 0
M  V30 24517 H 2256.83 -4.74896 0.98482 0
M  V30 24518 H 2252.71 -4.60412 -0.232809 0
M  V30 24519 H 2256.25 -6.43485 2.69393 0
M  V30 24520 H 2252.15 -6.28578 1.46831 0
M  V30 24521 H 2252.92 -7.57821 3.09274 0
M  V30 24522 N 2255.58 -0.0418125 -1.57545 0
M  V30 24523 C 2256.81 0.64296 -1.9634 0
M  V30 24524 C 2257.22 1.65461 -0.917566 0
M  V30 24525 O 2256.56 1.83384 0.107715 0
M  V30 24526 C 2256.62 1.39488 -3.31336 0
M  V30 24527 C 2256.29 0.540125 -4.53797 0
M  V30 24528 C 2257.28 -0.189898 -5.19553 0
M  V30 24529 C 2254.97 0.473798 -5.0006 0
M  V30 24530 C 2256.96 -0.974785 -6.29902 0
M  V30 24531 C 2254.65 -0.314784 -6.10289 0
M  V30 24532 C 2255.65 -1.03777 -6.7507 0
M  V30 24533 O 2255.34 -1.8134 -7.8318 0
M  V30 24534 H 2255.07 0.181265 -0.651244 0
M  V30 24535 H 2257.62 -0.101701 -2.05148 0
M  V30 24536 H 2255.85 2.18496 -3.19055 0
M  V30 24537 H 2257.54 1.96898 -3.54945 0
M  V30 24538 H 2258.31 -0.148066 -4.84774 0
M  V30 24539 H 2254.19 1.02612 -4.49435 0
M  V30 24540 H 2257.73 -1.53962 -6.80398 0
M  V30 24541 H 2253.63 -0.358287 -6.44505 0
M  V30 24542 H 2254.4 -1.73452 -7.9991 0
M  V30 24543 N 2257.06 1.55891 0.231477 0
M  V30 24544 C 2258.01 1.916 1.28678 0
M  V30 24545 C 2258.98 0.772 1.47069 0
M  V30 24546 O 2260.16 1.02702 1.60801 0
M  V30 24547 C 2257.3 2.22949 2.63416 0
M  V30 24548 C 2256.41 3.50232 2.52906 0
M  V30 24549 C 2255.55 3.71076 3.801 0
M  V30 24550 C 2254.59 4.91908 3.6427 0
M  V30 24551 N 2253.72 5.09193 4.83391 0
M  V30 24552 H 2258.56 2.8159 0.975255 0
M  V30 24553 H 2256.1 1.3938 0.470274 0
M  V30 24554 H 2258.06 2.39132 3.41865 0
M  V30 24555 H 2256.69 1.36144 2.92685 0
M  V30 24556 H 2255.74 3.42296 1.65944 0
M  V30 24557 H 2257.05 4.38831 2.37126 0
M  V30 24558 H 2256.21 3.87303 4.66992 0
M  V30 24559 H 2254.95 2.8074 3.98794 0
M  V30 24560 H 2253.95 4.75642 2.75762 0
M  V30 24561 H 2255.18 5.8372 3.47056 0
M  V30 24562 H 2253.12 4.21797 5.02418 0
M  V30 24563 H 2253.04 5.91907 4.703 0
M  V30 24564 H 2254.31 5.29845 5.71738 0
M  V30 24565 N 2258.54 -0.497781 1.49532 0
M  V30 24566 C 2259.76 -1.28036 1.63161 0
M  V30 24567 C 2260.19 -1.85624 0.304213 0
M  V30 24568 O 2259.54 -1.66016 -0.728589 0
M  V30 24569 C 2259.59 -2.38411 2.70541 0
M  V30 24570 O 2258.7 -3.42349 2.29937 0
M  V30 24571 H 2258.04 -0.377851 0.546008 0
M  V30 24572 H 2260.57 -0.595546 1.95741 0
M  V30 24573 H 2260.58 -2.84127 2.92807 0
M  V30 24574 H 2259.25 -1.95863 3.66893 0
M  V30 24575 H 2257.83 -3.0253 2.18014 0
M  V30 24576 N 2260.01 -1.38661 -0.749062 0
M  V30 24577 C 2261.24 -1.3816 -1.53608 0
M  V30 24578 C 2261.65 0.0293263 -1.89177 0
M  V30 24579 O 2261 1.00749 -1.53608 0
M  V30 24580 C 2261.06 -2.17707 -2.86083 0
M  V30 24581 C 2260.72 -3.66477 -2.73027 0
M  V30 24582 C 2261.72 -4.5987 -2.42518 0
M  V30 24583 C 2259.4 -4.09889 -2.90338 0
M  V30 24584 C 2261.4 -5.94657 -2.29481 0
M  V30 24585 C 2259.08 -5.44755 -2.76921 0
M  V30 24586 C 2260.08 -6.36953 -2.46536 0
M  V30 24587 O 2259.77 -7.69337 -2.33185 0
M  V30 24588 H 2259.5 -0.474214 -0.481765 0
M  V30 24589 H 2262.06 -1.82914 -0.934433 0
M  V30 24590 H 2260.29 -1.67678 -3.48455 0
M  V30 24591 H 2261.98 -2.09557 -3.47621 0
M  V30 24592 H 2262.74 -4.27635 -2.28808 0
M  V30 24593 H 2258.62 -3.3847 -3.12984 0
M  V30 24594 H 2262.16 -6.66587 -2.05686 0
M  V30 24595 H 2258.06 -5.76586 -2.90205 0
M  V30 24596 H 2258.83 -7.79909 -2.48363 0
M  V30 24597 N 2261.49 0.977736 -1.23605 0
M  V30 24598 C 2262.74 1.71366 -1.0638 0
M  V30 24599 C 2263.06 1.91487 0.399028 0
M  V30 24600 O 2264.26 2.62552 0.691266 0
M  V30 24601 C 2262.72 3.08401 -1.85518 0
M  V30 24602 C 2262.33 2.96158 -3.36146 0
M  V30 24603 C 2264.07 3.85935 -1.7679 0
M  V30 24604 C 2261.98 4.28442 -4.07666 0
M  V30 24605 H 2260.91 0.642584 -0.394463 0
M  V30 24606 H 2263.56 1.09031 -1.47595 0
M  V30 24607 H 2261.94 3.71506 -1.37109 0
M  V30 24608 H 2263.11 2.42126 -3.92061 0
M  V30 24609 H 2261.43 2.32098 -3.45716 0
M  V30 24610 H 2264.03 4.83872 -2.27535 0
M  V30 24611 H 2264.37 4.09828 -0.731188 0
M  V30 24612 H 2264.9 3.29537 -2.22824 0
M  V30 24613 H 2261.64 4.09743 -5.11655 0
M  V30 24614 H 2261.16 4.82328 -3.56539 0
M  V30 24615 H 2262.84 4.97115 -4.14108 0
M  V30 24616 N 2262.97 1.04818 1.1769 0
M  V30 24617 C 2263.92 0.645836 2.2158 0
M  V30 24618 C 2264.89 -0.35013 1.62368 0
M  V30 24619 O 2266.07 -0.2424 1.89254 0
M  V30 24620 C 2263.21 0.0228174 3.45092 0
M  V30 24621 C 2262.33 1.06716 4.18612 0
M  V30 24622 C 2261.46 0.411861 5.29601 0
M  V30 24623 C 2260.5 1.44077 5.94902 0
M  V30 24624 N 2259.64 0.809904 6.97413 0
M  V30 24625 H 2264.48 1.53624 2.5535 0
M  V30 24626 H 2262.01 0.768386 1.25436 0
M  V30 24627 H 2263.97 -0.355807 4.1568 0
M  V30 24628 H 2262.6 -0.831067 3.11918 0
M  V30 24629 H 2261.65 1.56366 3.46777 0
M  V30 24630 H 2262.97 1.84835 4.6329 0
M  V30 24631 H 2262.12 -0.0205557 6.06697 0
M  V30 24632 H 2260.86 -0.401352 4.86046 0
M  V30 24633 H 2259.86 1.88325 5.1654 0
M  V30 24634 H 2261.09 2.25582 6.40538 0
M  V30 24635 H 2259.04 0.0171339 6.55998 0
M  V30 24636 H 2258.95 1.52869 7.40383 0
M  V30 24637 H 2260.22 0.402136 7.78462 0
M  V30 24638 N 2264.45 -1.34055 0.828678 0
M  V30 24639 C 2265.68 -2.02326 0.432656 0
M  V30 24640 C 2266.09 -1.62387 -0.963119 0
M  V30 24641 O 2265.45 -0.83215 -1.62424 0
M  V30 24642 C 2265.5 -3.57566 0.531883 0
M  V30 24643 O 2265.22 -3.9606 1.87265 0
M  V30 24644 C 2266.72 -4.43105 0.1315 0
M  V30 24645 H 2263.94 -0.648332 0.172934 0
M  V30 24646 H 2266.49 -1.71206 1.11843 0
M  V30 24647 H 2264.64 -3.87255 -0.10587 0
M  V30 24648 H 2265.06 -4.90754 1.85096 0
M  V30 24649 H 2266.53 -5.51424 0.252001 0
M  V30 24650 H 2267.01 -4.29337 -0.92557 0
M  V30 24651 H 2267.61 -4.18755 0.74328 0
M  V30 24652 N 2265.93 -0.584167 -1.46374 0
M  V30 24653 C 2267.17 -0.0730054 -2.0427 0
M  V30 24654 C 2267.53 1.26353 -1.44565 0
M  V30 24655 O 2268.73 1.86401 -1.9367 0
M  V30 24656 C 2267 -0.00973746 -3.57399 0
M  V30 24657 S 2268.56 0.443637 -4.36552 0
M  V30 24658 H 2265.38 -0.0381798 -0.709974 0
M  V30 24659 H 2267.98 -0.776994 -1.79396 0
M  V30 24660 H 2266.69 -0.986389 -3.9837 0
M  V30 24661 H 2266.22 0.716976 -3.86811 0
M  V30 24662 H 2268.23 1.69808 -4.6624 0
M  V30 24663 N 2267.41 1.54275 -0.322027 0
M  V30 24664 C 2268.34 2.27232 0.537371 0
M  V30 24665 C 2269.32 1.2797 1.12061 0
M  V30 24666 O 2270.5 1.56779 1.14603 0
M  V30 24667 C 2267.63 3.02897 1.69913 0
M  V30 24668 C 2266.59 4.09484 1.24526 0
M  V30 24669 C 2265.91 4.72981 2.49385 0
M  V30 24670 C 2267.21 5.21049 0.361243 0
M  V30 24671 H 2268.91 2.99315 -0.0711932 0
M  V30 24672 H 2266.45 1.43956 -0.0356808 0
M  V30 24673 H 2268.4 3.52666 2.30662 0
M  V30 24674 H 2267.13 2.28429 2.33427 0
M  V30 24675 H 2265.79 3.60597 0.660719 0
M  V30 24676 H 2265.44 3.95129 3.11258 0
M  V30 24677 H 2265.14 5.44979 2.19708 0
M  V30 24678 H 2266.66 5.25523 3.10899 0
M  V30 24679 H 2268.07 5.66584 0.874972 0
M  V30 24680 H 2266.47 5.99894 0.157323 0
M  V30 24681 H 2267.54 4.81069 -0.608304 0
M  V30 24682 N 2268.88 0.0501669 1.5752 0
M  V30 24683 C 2270.16 -0.663653 1.83997 0
M  V30 24684 C 2270.54 -1.89097 0.938373 0
M  V30 24685 O 2269.89 -2.285 -0.000837425 0
M  V30 24686 C 2270.1 -1.0219 3.33704 0
M  V30 24687 C 2271.45 -1.40462 4.00694 0
M  V30 24688 O 2272.47 -1.11427 3.38323 0
M  V30 24689 O 2271.33 -1.94645 5.10662 0
M  V30 24690 H 2268.42 -0.327497 0.759391 0
M  V30 24691 H 2270.97 0.0794536 1.69514 0
M  V30 24692 H 2269.74 -0.149295 3.91015 0
M  V30 24693 H 2269.36 -1.82249 3.53371 0
M  V30 24694 N 2270.36 -1.56011 -0.223207 0
M  V30 24695 C 2271.31 -1.93133 -1.29623 0
M  V30 24696 C 2272.3 -0.813172 -1.48606 0
M  V30 24697 O 2273.51 -0.997992 -1.498 0
M  V30 24698 H 2269.88 -0.613733 -0.434552 0
M  V30 24699 H 2271.86 -2.82673 -0.955946 0
M  V30 24700 C 2270.6 -2.26297 -2.63979 0
M  V30 24701 H 2269.93 -3.1185 -2.50179 0
M  V30 24702 H 2271.37 -2.56157 -3.37875 0
M  V30 24703 C 2269.83 -1.08752 -3.18864 0
M  V30 24704 O 2270.36 -0.347797 -4.00192 0
M  V30 24705 N 2268.56 -0.871792 -2.77215 0
M  V30 24706 H 2268.11 -1.47505 -2.11187 0
M  V30 24707 H 2268.07 -0.0870457 -3.14279 0
M  V30 24708 N 2271.84 0.489844 -1.49794 0
M  V30 24709 C 2272.77 1.59853 -1.70203 0
M  V30 24710 C 2273.75 1.60936 -0.550789 0
M  V30 24711 O 2274.94 1.775 -0.787872 0
M  V30 24712 C 2272.07 2.98284 -1.77888 0
M  V30 24713 C 2271.02 3.12068 -2.92912 0
M  V30 24714 C 2270.35 4.5196 -2.8572 0
M  V30 24715 C 2271.65 2.91043 -4.33695 0
M  V30 24716 H 2273.34 1.43027 -2.63028 0
M  V30 24717 H 2270.89 0.686642 -1.26575 0
M  V30 24718 H 2272.84 3.75755 -1.90751 0
M  V30 24719 H 2271.56 3.16224 -0.816708 0
M  V30 24720 H 2270.22 2.37024 -2.79669 0
M  V30 24721 H 2269.87 4.66792 -1.87388 0
M  V30 24722 H 2269.57 4.62122 -3.62929 0
M  V30 24723 H 2271.09 5.31477 -3.00607 0
M  V30 24724 H 2272.51 3.58276 -4.47561 0
M  V30 24725 H 2270.9 3.12666 -5.12211 0
M  V30 24726 H 2271.97 1.87063 -4.47365 0
M  V30 24727 N 2273.32 1.39056 0.741698 0
M  V30 24728 C 2274.28 1.37025 1.8373 0
M  V30 24729 C 2275.28 0.268562 1.58541 0
M  V30 24730 O 2276.47 0.526105 1.66066 0
M  V30 24731 C 2273.6 1.13622 3.21408 0
M  V30 24732 H 2274.8 2.3451 1.86937 0
M  V30 24733 H 2272.35 1.24523 0.944654 0
M  V30 24734 H 2273.08 0.16792 3.23865 0
M  V30 24735 H 2272.87 1.93397 3.41087 0
M  V30 24736 H 2274.36 1.14925 4.01475 0
M  V30 24737 N 2274.8 -0.971167 1.24121 0
M  V30 24738 C 2276.02 -1.75405 1.1067 0
M  V30 24739 C 2276.45 -1.85056 -0.337016 0
M  V30 24740 O 2275.8 -1.31894 -1.24393 0
M  V30 24741 C 2275.85 -3.15438 1.74732 0
M  V30 24742 O 2274.96 -3.99696 1.01573 0
M  V30 24743 H 2274.3 -0.53931 0.387351 0
M  V30 24744 H 2276.83 -1.21847 1.6436 0
M  V30 24745 H 2276.84 -3.65976 1.80348 0
M  V30 24746 H 2275.51 -3.07729 2.79778 0
M  V30 24747 H 2274.09 -3.58185 1.03719 0
M  V30 24748 N 2276.27 -1.05441 -1.17133 0
M  V30 24749 C 2277.22 -0.657578 -2.21234 0
M  V30 24750 C 2278.19 0.341515 -1.62551 0
M  V30 24751 O 2279.38 0.23236 -1.8938 0
M  V30 24752 C 2276.52 -0.0411182 -3.45076 0
M  V30 24753 C 2275.63 -1.08935 -4.1804 0
M  V30 24754 C 2274.76 -0.439941 -5.29375 0
M  V30 24755 C 2273.8 -1.4723 -5.94129 0
M  V30 24756 N 2272.94 -0.846878 -6.96974 0
M  V30 24757 H 2277.78 -1.54976 -2.54532 0
M  V30 24758 H 2275.32 -0.775028 -1.25027 0
M  V30 24759 H 2277.28 0.333757 -4.15863 0
M  V30 24760 H 2275.91 0.814513 -3.12355 0
M  V30 24761 H 2274.96 -1.58202 -3.45942 0
M  V30 24762 H 2276.27 -1.8729 -4.62303 0
M  V30 24763 H 2275.42 -0.0116192 -6.06699 0
M  V30 24764 H 2274.16 0.375571 -4.86252 0
M  V30 24765 H 2273.17 -1.91061 -5.15534 0
M  V30 24766 H 2274.39 -2.28976 -6.39333 0
M  V30 24767 H 2272.34 -0.0519228 -6.55979 0
M  V30 24768 H 2272.26 -1.56793 -7.39562 0
M  V30 24769 H 2273.52 -0.443414 -7.78238 0
M  V30 24770 N 2277.75 1.33613 -0.835776 0
M  V30 24771 C 2279 1.97491 -0.429144 0
M  V30 24772 C 2279.32 1.66544 1.0143 0
M  V30 24773 O 2278.59 0.962774 1.70609 0
M  V30 24774 H 2277.17 0.730594 -0.155699 0
M  V30 24775 H 2279.83 1.6303 -1.06805 0
M  V30 24776 H 2278.93 3.07059 -0.558664 0
M  V30 24777 N 2279.23 0.591922 1.46062 0
M  V30 24778 C 2280.18 -0.136029 2.30399 0
M  V30 24779 C 2281.15 -0.875214 1.41171 0
M  V30 24780 O 2282.33 -0.86406 1.70114 0
M  V30 24781 C 2279.47 -1.13775 3.25806 0
M  V30 24782 C 2278.59 -0.401062 4.30134 0
M  V30 24783 C 2277.72 -1.39112 5.12661 0
M  V30 24784 C 2276.76 -0.641355 6.08731 0
M  V30 24785 N 2275.9 -1.57992 6.84093 0
M  V30 24786 H 2280.74 0.589195 2.92117 0
M  V30 24787 H 2278.27 0.302367 1.43959 0
M  V30 24788 H 2280.23 -1.73149 3.79572 0
M  V30 24789 H 2278.86 -1.83058 2.65875 0
M  V30 24790 H 2277.91 0.307893 3.79152 0
M  V30 24791 H 2279.23 0.184652 4.98458 0
M  V30 24792 H 2278.38 -2.05739 5.70751 0
M  V30 24793 H 2277.12 -2.01076 4.44319 0
M  V30 24794 H 2276.12 0.0386385 5.49786 0
M  V30 24795 H 2277.35 -0.0269751 6.79095 0
M  V30 24796 H 2275.29 -2.1875 6.18453 0
M  V30 24797 H 2275.21 -1.04725 7.48711 0
M  V30 24798 H 2276.48 -2.23626 7.46734 0
M  V30 24799 N 2280.71 -1.54102 0.330204 0
M  V30 24800 C 2281.95 -2.00984 -0.27077 0
M  V30 24801 C 2282.29 -1.21791 -1.51263 0
M  V30 24802 O 2281.56 -0.301961 -1.92142 0
M  V30 24803 C 2281.85 -3.55095 -0.598277 0
M  V30 24804 C 2281.7 -4.45009 0.654752 0
M  V30 24805 C 2283.02 -4.16791 -1.41327 0
M  V30 24806 H 2280.14 -0.730597 -0.0969403 0
M  V30 24807 H 2282.78 -1.8464 0.448098 0
M  V30 24808 H 2280.93 -3.69153 -1.21071 0
M  V30 24809 H 2282.6 -4.42811 1.29292 0
M  V30 24810 H 2280.84 -4.14414 1.28232 0
M  V30 24811 H 2281.51 -5.50683 0.381041 0
M  V30 24812 H 2283.99 -4.06349 -0.895525 0
M  V30 24813 H 2282.87 -5.24721 -1.61118 0
M  V30 24814 H 2283.13 -3.70546 -2.4114 0
M  V30 24815 N 2282.19 -0.0585199 -1.57491 0
M  V30 24816 C 2283.41 0.626486 -1.97712 0
M  V30 24817 C 2283.84 1.63149 -0.93616 0
M  V30 24818 O 2283.19 1.81025 0.0997792 0
M  V30 24819 C 2283.24 1.28332 -3.36992 0
M  V30 24820 O 2282.35 2.39907 -3.35437 0
M  V30 24821 H 2281.69 0.162255 -0.643871 0
M  V30 24822 H 2284.22 -0.1291 -2.04192 0
M  V30 24823 H 2284.23 1.63328 -3.73882 0
M  V30 24824 H 2282.9 0.546816 -4.1229 0
M  V30 24825 H 2281.48 2.06803 -3.10301 0
M  V30 24826 N 2283.66 1.56128 0.21493 0
M  V30 24827 C 2284.61 1.92954 1.26639 0
M  V30 24828 C 2285.58 0.787555 1.46242 0
M  V30 24829 O 2286.77 1.04402 1.59702 0
M  V30 24830 C 2283.91 2.2573 2.61036 0
M  V30 24831 C 2283.02 3.52895 2.49177 0
M  V30 24832 C 2282.15 3.75087 3.76143 0
M  V30 24833 C 2281.19 4.95744 3.59033 0
M  V30 24834 N 2280.33 5.14291 4.77963 0
M  V30 24835 H 2285.17 2.82608 0.945334 0
M  V30 24836 H 2282.71 1.39871 0.455465 0
M  V30 24837 H 2284.67 2.42745 3.39309 0
M  V30 24838 H 2283.3 1.39241 2.91225 0
M  V30 24839 H 2282.35 3.44037 1.62304 0
M  V30 24840 H 2283.66 4.41322 2.32458 0
M  V30 24841 H 2282.81 3.92234 4.62858 0
M  V30 24842 H 2281.55 2.84954 3.95794 0
M  V30 24843 H 2280.56 4.7854 2.70701 0
M  V30 24844 H 2281.78 5.87368 3.40846 0
M  V30 24845 H 2279.73 4.27102 4.97916 0
M  V30 24846 H 2279.65 5.96862 4.63996 0
M  V30 24847 H 2280.91 5.35879 5.66086 0
M  V30 24848 N 2285.14 -0.481893 1.50052 0
M  V30 24849 C 2286.09 -1.58122 1.68125 0
M  V30 24850 C 2287.06 -1.57665 0.522573 0
M  V30 24851 O 2288.24 -1.75361 0.751874 0
M  V30 24852 C 2285.38 -2.96164 1.77147 0
M  V30 24853 C 2284.5 -3.06491 3.04445 0
M  V30 24854 C 2283.63 -4.35382 3.04329 0
M  V30 24855 C 2282.67 -4.39412 4.26126 0
M  V30 24856 N 2281.81 -5.59758 4.2381 0
M  V30 24857 H 2286.65 -1.42017 2.61983 0
M  V30 24858 H 2284.19 -0.690664 1.29878 0
M  V30 24859 H 2286.14 -3.762 1.80358 0
M  V30 24860 H 2284.77 -3.10928 0.867383 0
M  V30 24861 H 2283.83 -2.19396 3.10756 0
M  V30 24862 H 2285.14 -3.05329 3.94431 0
M  V30 24863 H 2284.29 -5.23756 3.06209 0
M  V30 24864 H 2283.03 -4.39138 2.12154 0
M  V30 24865 H 2282.04 -3.49437 4.24469 0
M  V30 24866 H 2283.26 -4.37357 5.19515 0
M  V30 24867 H 2281.21 -5.6432 3.34484 0
M  V30 24868 H 2281.12 -5.60292 5.07552 0
M  V30 24869 H 2282.39 -6.50287 4.29821 0
M  V30 24870 N 2286.62 -1.39448 -0.734313 0
M  V30 24871 C 2288.03 -1.32768 -1.31261 0
M  V30 24872 C 2288.38 0.00764048 -1.96199 0
M  V30 24873 O 2287.51 0.909762 -1.96347 0
M  V30 24874 C 2288.1 -2.40454 -2.38678 0
M  V30 24875 C 2286.66 -2.37293 -2.92179 0
M  V30 24876 C 2285.81 -2.22307 -1.65756 0
M  V30 24877 H 2288.76 -1.49525 -0.531773 0
M  V30 24878 H 2288.78 -2.07282 -3.19084 0
M  V30 24879 H 2288.29 -3.37629 -1.91386 0
M  V30 24880 H 2286.39 -1.4376 -3.4375 0
M  V30 24881 H 2286.51 -3.32176 -3.45247 0
M  V30 24882 H 2284.87 -1.69492 -1.90117 0
M  V30 24883 H 2285.65 -3.21451 -1.20515 0
M  V30 24884 N 2288.1 0.964571 -1.24635 0
M  V30 24885 C 2289.51 1.23379 -1.01242 0
M  V30 24886 C 2289.71 1.99589 0.276865 0
M  V30 24887 O 2288.77 2.32189 0.9922 0
M  V30 24888 C 2290.08 2.01787 -2.22941 0
M  V30 24889 C 2291.63 2.14868 -2.27598 0
M  V30 24890 C 2292.11 2.96672 -3.48927 0
M  V30 24891 N 2293.6 3.04253 -3.49262 0
M  V30 24892 C 2294.33 3.67916 -4.39801 0
M  V30 24893 N 2293.83 4.33272 -5.40599 0
M  V30 24894 N 2295.62 3.64959 -4.27506 0
M  V30 24895 H 2287.77 0.454466 -2.07481 0
M  V30 24896 H 2290.04 0.263474 -0.910651 0
M  V30 24897 H 2289.74 1.53178 -3.1659 0
M  V30 24898 H 2289.62 3.02514 -2.25311 0
M  V30 24899 H 2292 2.62678 -1.34478 0
M  V30 24900 H 2292.08 1.13478 -2.29252 0
M  V30 24901 H 2291.73 2.49555 -4.42363 0
M  V30 24902 H 2291.66 3.98266 -3.44517 0
M  V30 24903 H 2294.15 2.57767 -2.76342 0
M  V30 24904 H 2294.46 4.79676 -6.05913 0
M  V30 24905 H 2292.81 4.31931 -5.44482 0
M  V30 24906 H 2296 3.13079 -3.47993 0
M  V30 24907 H 2296.17 4.1429 -4.98265 0
M  V30 24908 N 2289.58 1.0606 1.16572 0
M  V30 24909 C 2290.49 0.680321 2.24519 0
M  V30 24910 C 2291.5 -0.302574 1.71349 0
M  V30 24911 O 2292.68 -0.152478 2.00822 0
M  V30 24912 C 2289.74 0.0700925 3.46629 0
M  V30 24913 C 2288.8 1.10455 4.14847 0
M  V30 24914 C 2288.04 0.523349 5.31128 0
M  V30 24915 O 2288.26 -0.664609 5.66515 0
M  V30 24916 O 2287.19 1.26189 5.88523 0
M  V30 24917 H 2291.02 1.58019 2.59352 0
M  V30 24918 H 2288.61 0.832715 1.24041 0
M  V30 24919 H 2290.49 -0.268593 4.20543 0
M  V30 24920 H 2289.16 -0.803298 3.13574 0
M  V30 24921 H 2288.07 1.49538 3.42913 0
M  V30 24922 H 2289.4 1.94939 4.51951 0
M  V30 24923 N 2291.06 -1.33168 0.84285 0
M  V30 24924 C 2291.99 -2.27099 0.223902 0
M  V30 24925 C 2292.97 -1.49845 -0.631285 0
M  V30 24926 O 2294.15 -1.79006 -0.590677 0
M  V30 24927 C 2291.28 -3.31696 -0.685254 0
M  V30 24928 C 2290.32 -4.26394 0.0949939 0
M  V30 24929 S 2291.16 -5.15339 1.45555 0
M  V30 24930 C 2292.31 -6.23463 0.551794 0
M  V30 24931 H 2292.55 -2.79247 1.0202 0
M  V30 24932 H 2290.08 -1.40519 0.639821 0
M  V30 24933 H 2292.04 -3.92441 -1.20419 0
M  V30 24934 H 2290.7 -2.78354 -1.45525 0
M  V30 24935 H 2289.89 -5.00452 -0.596971 0
M  V30 24936 H 2289.49 -3.70006 0.545119 0
M  V30 24937 H 2291.78 -6.77043 -0.248758 0
M  V30 24938 H 2292.73 -6.96751 1.26266 0
M  V30 24939 H 2293.14 -5.64347 0.131374 0
M  V30 24940 N 2292.53 -0.599659 -1.45746 0
M  V30 24941 C 2293.48 0.123808 -2.30468 0
M  V30 24942 C 2294.45 0.867715 -1.41633 0
M  V30 24943 O 2295.64 0.855026 -1.70569 0
M  V30 24944 C 2292.78 1.12046 -3.26404 0
M  V30 24945 C 2291.89 0.378245 -4.30341 0
M  V30 24946 C 2291.02 1.36391 -5.13392 0
M  V30 24947 C 2290.06 0.609064 -6.09062 0
M  V30 24948 N 2289.2 1.54362 -6.84921 0
M  V30 24949 H 2294.04 -0.604678 -2.91801 0
M  V30 24950 H 2291.58 -0.309997 -1.43796 0
M  V30 24951 H 2293.53 1.71134 -3.80485 0
M  V30 24952 H 2292.16 1.81645 -2.66842 0
M  V30 24953 H 2291.22 -0.327996 -3.78983 0
M  V30 24954 H 2292.53 -0.211084 -4.98353 0
M  V30 24955 H 2291.68 2.02709 -5.71834 0
M  V30 24956 H 2290.42 1.98717 -4.45379 0
M  V30 24957 H 2289.43 -0.0677945 -5.49758 0
M  V30 24958 H 2290.65 -0.00903928 -6.79099 0
M  V30 24959 H 2288.6 2.15467 -6.19605 0
M  V30 24960 H 2288.51 1.00753 -7.49256 0
M  V30 24961 H 2289.78 2.19663 -7.47909 0
M  V30 24962 N 2294.01 1.53925 -0.338371 0
M  V30 24963 C 2295.26 2.00431 0.25921 0
M  V30 24964 C 2295.58 1.22794 1.51481 0
M  V30 24965 O 2294.85 0.333713 1.93037 0
M  V30 24966 H 2293.43 0.740441 0.0987715 0
M  V30 24967 H 2296.09 1.89434 -0.458335 0
M  V30 24968 H 2295.19 3.07983 0.50528 0
M  V30 24969 N 2295.49 0.0668712 1.57458 0
M  V30 24970 C 2296.44 -0.902085 2.12441 0
M  V30 24971 C 2297.41 -1.29858 1.03567 0
M  V30 24972 O 2298.59 -1.3853 1.31203 0
M  V30 24973 C 2295.73 -2.16609 2.68653 0
M  V30 24974 C 2294.84 -1.82267 3.91667 0
M  V30 24975 C 2293.98 -3.03242 4.36139 0
M  V30 24976 C 2293.02 -2.64895 5.51813 0
M  V30 24977 N 2292.16 -3.78613 5.91267 0
M  V30 24978 H 2297 -0.42633 2.94935 0
M  V30 24979 H 2294.53 -0.198793 1.45751 0
M  V30 24980 H 2296.49 -2.90594 2.99351 0
M  V30 24981 H 2295.12 -2.61734 1.88932 0
M  V30 24982 H 2294.17 -0.983654 3.67462 0
M  V30 24983 H 2295.48 -1.50051 4.75695 0
M  V30 24984 H 2294.64 -3.85511 4.68472 0
M  V30 24985 H 2293.38 -3.38649 3.50954 0
M  V30 24986 H 2292.38 -1.81046 5.19136 0
M  V30 24987 H 2293.61 -2.30664 6.38726 0
M  V30 24988 H 2291.55 -4.13791 5.09032 0
M  V30 24989 H 2291.47 -3.50148 6.70024 0
M  V30 24990 H 2292.74 -4.61475 6.2822 0
M  V30 24991 N 2296.97 -1.56239 -0.206647 0
M  V30 24992 C 2297.91 -1.93623 -1.25614 0
M  V30 24993 C 2298.88 -0.7953 -1.45822 0
M  V30 24994 O 2300.07 -1.05248 -1.59146 0
M  V30 24995 C 2297.21 -2.27111 -2.59835 0
M  V30 24996 C 2296.32 -3.54212 -2.47302 0
M  V30 24997 C 2295.46 -3.77076 -3.74148 0
M  V30 24998 C 2294.5 -4.97641 -3.56398 0
M  V30 24999 N 2293.63 -5.16819 -4.75229 0
M  V30 25000 H 2298.47 -2.83106 -0.930333 0
M  V30 25001 H 2296.01 -1.40111 -0.448041 0
M  V30 25002 H 2297.97 -2.44541 -3.38017 0
M  V30 25003 H 2296.6 -1.40784 -2.90482 0
M  V30 25004 H 2295.65 -3.44893 -1.60477 0
M  V30 25005 H 2296.96 -4.42548 -2.30114 0
M  V30 25006 H 2296.12 -3.94683 -4.60771 0
M  V30 25007 H 2294.86 -2.87049 -3.94277 0
M  V30 25008 H 2293.86 -4.79969 -2.6816 0
M  V30 25009 H 2295.09 -5.89167 -3.37726 0
M  V30 25010 H 2293.03 -4.29736 -4.95644 0
M  V30 25011 H 2292.95 -5.99314 -4.60824 0
M  V30 25012 H 2294.22 -5.38874 -5.63236 0
M  V30 25013 N 2298.45 0.473929 -1.50305 0
M  V30 25014 C 2299.67 1.25424 -1.65178 0
M  V30 25015 C 2300.1 1.85116 -0.333706 0
M  V30 25016 O 2299.45 1.67154 0.702085 0
M  V30 25017 C 2299.5 2.34077 -2.74299 0
M  V30 25018 O 2298.61 3.38647 -2.35355 0
M  V30 25019 H 2297.95 0.369117 -0.55195 0
M  V30 25020 H 2300.48 0.56433 -1.96663 0
M  V30 25021 H 2300.49 2.79432 -2.9729 0
M  V30 25022 H 2299.16 1.90001 -3.69963 0
M  V30 25023 H 2297.74 2.99023 -2.228 0
M  V30 25024 N 2299.92 1.39835 0.726907 0
M  V30 25025 C 2300.87 1.392 1.84097 0
M  V30 25026 C 2301.84 0.250531 1.642 0
M  V30 25027 O 2303.03 0.446879 1.85493 0
M  V30 25028 C 2300.17 1.24925 3.21695 0
M  V30 25029 C 2299.28 2.48684 3.53242 0
M  V30 25030 C 2298.41 2.26936 4.80285 0
M  V30 25031 C 2297.45 3.46329 5.047 0
M  V30 25032 N 2296.59 3.23847 6.22951 0
M  V30 25033 H 2301.43 2.3443 1.83974 0
M  V30 25034 H 2298.97 1.16443 0.898856 0
M  V30 25035 H 2300.92 1.14658 4.01135 0
M  V30 25036 H 2299.55 0.33321 3.21076 0
M  V30 25037 H 2298.61 2.69524 2.68442 0
M  V30 25038 H 2299.92 3.37589 3.67199 0
M  V30 25039 H 2299.07 2.13957 5.67721 0
M  V30 25040 H 2297.81 1.35439 4.68516 0
M  V30 25041 H 2296.82 3.59798 4.15723 0
M  V30 25042 H 2298.04 4.38738 5.18349 0
M  V30 25043 H 2295.99 2.35022 6.12455 0
M  V30 25044 H 2295.9 4.06311 6.37532 0
M  V30 25045 H 2297.17 3.14578 7.13205 0
M  V30 25046 N 2301.4 -0.957948 1.25144 0
M  V30 25047 C 2302.35 -2.05411 1.05239 0
M  V30 25048 C 2303.32 -1.66058 -0.0374269 0
M  V30 25049 O 2304.5 -1.90428 0.119106 0
M  V30 25050 C 2301.64 -3.38461 0.673649 0
M  V30 25051 C 2300.76 -3.90951 1.83797 0
M  V30 25052 C 2299.89 -5.12313 1.4039 0
M  V30 25053 C 2298.93 -5.57023 2.53756 0
M  V30 25054 N 2298.07 -6.69598 2.11147 0
M  V30 25055 H 2302.91 -2.21771 1.99052 0
M  V30 25056 H 2300.44 -1.08682 0.991297 0
M  V30 25057 H 2302.4 -4.14926 0.435037 0
M  V30 25058 H 2301.03 -3.21997 -0.227497 0
M  V30 25059 H 2300.08 -3.11037 2.18998 0
M  V30 25060 H 2301.4 -4.20084 2.68944 0
M  V30 25061 H 2300.55 -5.96183 1.12474 0
M  V30 25062 H 2299.29 -4.84887 0.5231 0
M  V30 25063 H 2298.29 -4.71719 2.8242 0
M  V30 25064 H 2299.52 -5.86458 3.42408 0
M  V30 25065 H 2297.47 -6.43887 1.25479 0
M  V30 25066 H 2297.38 -6.98231 2.89844 0
M  V30 25067 H 2298.65 -7.56886 1.86399 0
M  V30 25068 N 2302.88 -1.06677 -1.16008 0
M  V30 25069 C 2304.13 -0.78085 -1.85972 0
M  V30 25070 C 2304.44 0.695412 -1.82821 0
M  V30 25071 O 2305.65 1.09585 -2.48402 0
M  V30 25072 C 2304.1 -1.3467 -3.33754 0
M  V30 25073 C 2303.71 -2.85349 -3.45369 0
M  V30 25074 C 2305.46 -1.1385 -4.08948 0
M  V30 25075 C 2303.36 -3.35159 -4.8726 0
M  V30 25076 H 2302.29 -0.28842 -0.696656 0
M  V30 25077 H 2304.94 -1.28597 -1.30901 0
M  V30 25078 H 2303.33 -0.769342 -3.88455 0
M  V30 25079 H 2304.5 -3.4907 -3.0081 0
M  V30 25080 H 2302.81 -3.04881 -2.83613 0
M  V30 25081 H 2305.41 -1.48549 -5.13651 0
M  V30 25082 H 2305.75 -0.0771014 -4.16229 0
M  V30 25083 H 2306.29 -1.68186 -3.60497 0
M  V30 25084 H 2303.03 -4.40795 -4.8516 0
M  V30 25085 H 2302.55 -2.76188 -5.32428 0
M  V30 25086 H 2304.23 -3.30714 -5.56091 0
M  V30 25087 N 2304.36 1.32719 -0.8499 0
M  V30 25088 C 2305.58 2.02146 -0.463891 0
M  V30 25089 C 2306.01 1.63477 0.93042 0
M  V30 25090 O 2305.37 0.83298 1.61031 0
M  V30 25091 C 2305.41 3.55488 -0.605017 0
M  V30 25092 O 2304.52 4.10789 0.364177 0
M  V30 25093 H 2303.86 0.637107 -0.187057 0
M  V30 25094 H 2306.39 1.69373 -1.14778 0
M  V30 25095 H 2306.4 4.05038 -0.490767 0
M  V30 25096 H 2305.07 3.82976 -1.6218 0
M  V30 25097 H 2303.65 3.72327 0.206563 0
M  V30 25098 N 2305.84 0.60738 1.45426 0
M  V30 25099 C 2306.77 -0.0988942 2.3329 0
M  V30 25100 C 2307.75 -0.858981 1.46818 0
M  V30 25101 O 2308.93 -0.829573 1.7559 0
M  V30 25102 C 2306.06 -1.09699 3.2952 0
M  V30 25103 C 2305.02 -0.450131 4.25626 0
M  V30 25104 C 2304.34 -1.55646 5.11545 0
M  V30 25105 C 2305.64 0.628546 5.18504 0
M  V30 25106 H 2307.34 0.634767 2.92594 0
M  V30 25107 H 2304.88 0.306706 1.40696 0
M  V30 25108 H 2306.84 -1.59964 3.89858 0
M  V30 25109 H 2305.56 -1.86124 2.68375 0
M  V30 25110 H 2304.22 0.0316531 3.66586 0
M  V30 25111 H 2303.87 -2.31099 4.46769 0
M  V30 25112 H 2303.57 -1.12915 5.76649 0
M  V30 25113 H 2305.09 -2.06138 5.74752 0
M  V30 25114 H 2306.5 0.209978 5.72915 0
M  V30 25115 H 2304.9 0.977593 5.92084 0
M  V30 25116 H 2305.97 1.50522 4.60946 0
M  V30 25117 N 2307.31 -1.53743 0.34653 0
M  V30 25118 C 2308.26 -2.2512 -0.508874 0
M  V30 25119 C 2309.23 -1.2506 -1.09313 0
M  V30 25120 O 2310.42 -1.53799 -1.12918 0
M  V30 25121 C 2307.56 -3.02968 -1.65241 0
M  V30 25122 C 2306.67 -4.17888 -1.09517 0
M  V30 25123 C 2305.8 -4.83216 -2.20625 0
M  V30 25124 C 2304.84 -5.90199 -1.62269 0
M  V30 25125 N 2303.98 -6.49296 -2.67131 0
M  V30 25126 H 2308.82 -2.9781 0.106336 0
M  V30 25127 H 2306.36 -1.4696 0.0642485 0
M  V30 25128 H 2308.32 -3.46364 -2.32568 0
M  V30 25129 H 2306.95 -2.32569 -2.23856 0
M  V30 25130 H 2306 -3.79112 -0.312751 0
M  V30 25131 H 2307.31 -4.94826 -0.628357 0
M  V30 25132 H 2306.46 -5.29699 -2.95811 0
M  V30 25133 H 2305.2 -4.05708 -2.70652 0
M  V30 25134 H 2304.21 -5.43097 -0.855893 0
M  V30 25135 H 2305.43 -6.69617 -1.1309 0
M  V30 25136 H 2303.38 -5.7465 -3.16407 0
M  V30 25137 H 2303.3 -7.21717 -2.25081 0
M  V30 25138 H 2304.56 -7.00431 -3.42077 0
M  V30 25139 N 2308.79 -0.0752207 -1.5742 0
M  V30 25140 C 2310.02 0.601169 -1.9766 0
M  V30 25141 C 2310.43 1.63478 -0.952456 0
M  V30 25142 O 2309.77 1.83571 0.0687918 0
M  V30 25143 C 2309.84 1.32428 -3.3422 0
M  V30 25144 C 2309.5 0.443746 -4.54841 0
M  V30 25145 C 2310.5 -0.30006 -5.19033 0
M  V30 25146 C 2308.18 0.367621 -5.00953 0
M  V30 25147 C 2310.18 -1.10818 -6.27693 0
M  V30 25148 C 2307.86 -0.444165 -6.09484 0
M  V30 25149 C 2308.86 -1.18073 -6.72717 0
M  V30 25150 O 2308.55 -1.97912 -7.79157 0
M  V30 25151 H 2308.28 0.167411 -0.654942 0
M  V30 25152 H 2310.83 -0.145193 -2.04886 0
M  V30 25153 H 2309.06 2.11679 -3.23618 0
M  V30 25154 H 2310.75 1.89325 -3.59042 0
M  V30 25155 H 2311.52 -0.250861 -4.84351 0
M  V30 25156 H 2307.4 0.930558 -4.5151 0
M  V30 25157 H 2310.94 -1.68359 -6.76979 0
M  V30 25158 H 2306.84 -0.494916 -6.436 0
M  V30 25159 H 2307.61 -1.90381 -7.96051 0
M  V30 25160 N 2310.27 1.56347 0.198358 0
M  V30 25161 C 2311.5 1.84541 0.93554 0
M  V30 25162 C 2311.91 0.657312 1.76988 0
M  V30 25163 O 2311.27 -0.374012 1.78626 0
M  V30 25164 C 2311.32 3.11503 1.83435 0
M  V30 25165 O 2311.04 4.2573 1.0337 0
M  V30 25166 C 2312.54 3.52851 2.68349 0
M  V30 25167 H 2309.76 0.612902 0.273115 0
M  V30 25168 H 2312.31 2.03454 0.206594 0
M  V30 25169 H 2310.46 2.94496 2.51696 0
M  V30 25170 H 2310.88 4.98006 1.6459 0
M  V30 25171 H 2312.35 4.44662 3.27077 0
M  V30 25172 H 2312.83 2.75687 3.41896 0
M  V30 25173 H 2313.43 3.72377 2.05464 0
M  V30 25174 N 2311.75 -0.465951 1.50554 0
M  V30 25175 C 2312.71 -1.54571 1.69235 0
M  V30 25176 C 2313.71 -1.50625 0.562928 0
M  V30 25177 O 2314.9 -1.53153 0.830042 0
M  V30 25178 C 2312.03 -2.9419 1.72235 0
M  V30 25179 H 2313.23 -1.39322 2.65574 0
M  V30 25180 H 2310.78 -0.692687 1.40113 0
M  V30 25181 H 2311.51 -3.14877 0.776085 0
M  V30 25182 H 2311.3 -2.98461 2.5429 0
M  V30 25183 H 2312.79 -3.72573 1.88625 0
M  V30 25184 N 2313.23 -1.40218 -0.719481 0
M  V30 25185 C 2314.19 -1.3993 -1.81527 0
M  V30 25186 C 2315.19 -0.29375 -1.58094 0
M  V30 25187 O 2316.38 -0.552458 -1.65208 0
M  V30 25188 C 2313.51 -1.18721 -3.19559 0
M  V30 25189 H 2314.7 -2.37454 -1.83182 0
M  V30 25190 H 2312.26 -1.2601 -0.924724 0
M  V30 25191 H 2312.99 -0.219423 -3.23557 0
M  V30 25192 H 2312.78 -1.98799 -3.37967 0
M  V30 25193 H 2314.27 -1.21298 -3.99595 0
M  V30 25194 N 2314.7 0.951297 -1.25651 0
M  V30 25195 C 2316.12 1.22298 -1.02545 0
M  V30 25196 C 2316.32 1.99871 0.25568 0
M  V30 25197 O 2315.38 2.33228 0.967517 0
M  V30 25198 C 2316.69 1.99411 -2.25068 0
M  V30 25199 C 2318.24 2.12442 -2.29864 0
M  V30 25200 C 2318.71 2.92954 -3.52054 0
M  V30 25201 N 2320.2 3.00532 -3.5247 0
M  V30 25202 C 2320.94 3.63231 -4.43679 0
M  V30 25203 N 2320.43 4.27514 -5.45164 0
M  V30 25204 N 2322.23 3.60404 -4.31353 0
M  V30 25205 H 2314.38 0.432434 -2.07951 0
M  V30 25206 H 2316.64 0.2538 -0.913394 0
M  V30 25207 H 2316.35 1.49812 -3.18197 0
M  V30 25208 H 2316.22 3.00107 -2.28507 0
M  V30 25209 H 2318.61 2.61237 -1.37257 0
M  V30 25210 H 2318.69 1.1104 -2.30442 0
M  V30 25211 H 2318.33 2.44849 -4.44985 0
M  V30 25212 H 2318.26 3.9459 -3.48722 0
M  V30 25213 H 2320.75 2.54821 -2.7906 0
M  V30 25214 H 2321.07 4.73223 -6.10966 0
M  V30 25215 H 2319.41 4.26131 -5.49033 0
M  V30 25216 H 2322.6 3.09371 -3.51294 0
M  V30 25217 H 2322.78 4.08982 -5.02631 0
M  V30 25218 N 2316.18 1.07291 1.1544 0
M  V30 25219 C 2317.11 0.714146 2.22311 0
M  V30 25220 C 2318.09 -0.298126 1.67467 0
M  V30 25221 O 2319.28 -0.171014 1.93446 0
M  V30 25222 C 2316.41 0.110509 3.47124 0
M  V30 25223 C 2315.36 1.04987 4.14924 0
M  V30 25224 C 2314.69 0.309018 5.33806 0
M  V30 25225 C 2315.99 2.38322 4.64758 0
M  V30 25226 H 2317.68 1.60765 2.52577 0
M  V30 25227 H 2315.23 0.774431 1.21402 0
M  V30 25228 H 2317.18 -0.152408 4.21124 0
M  V30 25229 H 2315.91 -0.818065 3.16189 0
M  V30 25230 H 2314.56 1.2977 3.42864 0
M  V30 25231 H 2314.21 -0.622997 4.99127 0
M  V30 25232 H 2313.91 0.935138 5.80111 0
M  V30 25233 H 2315.44 0.0538844 6.10576 0
M  V30 25234 H 2316.85 2.17869 5.30289 0
M  V30 25235 H 2315.25 2.96523 5.21722 0
M  V30 25236 H 2316.32 3.00669 3.80429 0
M  V30 25237 N 2317.66 -1.32267 0.856927 0
M  V30 25238 C 2318.61 -2.26336 0.274939 0
M  V30 25239 C 2319.59 -1.50063 -0.580517 0
M  V30 25240 O 2320.79 -1.71709 -0.429529 0
M  V30 25241 C 2317.92 -3.39125 -0.533781 0
M  V30 25242 C 2317 -4.22781 0.334189 0
M  V30 25243 N 2317.39 -4.85414 1.42152 0
M  V30 25244 C 2315.69 -4.45827 0.124334 0
M  V30 25245 C 2316.39 -5.47839 1.95569 0
M  V30 25246 N 2315.37 -5.28926 1.25453 0
M  V30 25247 H 2319.17 -2.72289 1.10617 0
M  V30 25248 H 2316.68 -1.46382 0.703284 0
M  V30 25249 H 2318.68 -4.05527 -0.967149 0
M  V30 25250 H 2317.34 -2.94718 -1.36278 0
M  V30 25251 H 2318.35 -4.85448 1.80445 0
M  V30 25252 H 2315.03 -4.12093 -0.669764 0
M  V30 25253 H 2316.42 -6.0765 2.86724 0
M  V30 25254 N 2319.14 -0.615084 -1.45102 0
M  V30 25255 C 2320.05 0.100993 -2.34383 0
M  V30 25256 C 2321.06 0.852559 -1.51682 0
M  V30 25257 O 2322.24 0.808452 -1.84461 0
M  V30 25258 C 2319.31 1.08093 -3.29419 0
M  V30 25259 C 2318.37 0.330502 -4.28026 0
M  V30 25260 C 2317.6 1.26376 -5.18522 0
M  V30 25261 O 2317.82 2.50189 -5.12603 0
M  V30 25262 O 2316.76 0.756761 -5.97124 0
M  V30 25263 H 2320.58 -0.632907 -2.97032 0
M  V30 25264 H 2318.17 -0.375319 -1.44609 0
M  V30 25265 H 2320.05 1.64513 -3.87961 0
M  V30 25266 H 2318.72 1.79573 -2.69324 0
M  V30 25267 H 2317.63 -0.276349 -3.73078 0
M  V30 25268 H 2318.96 -0.343952 -4.90997 0
M  V30 25269 N 2320.62 1.53557 -0.354678 0
M  V30 25270 C 2321.56 2.25387 0.496928 0
M  V30 25271 C 2322.53 1.25638 1.08648 0
M  V30 25272 O 2323.72 1.54395 1.12101 0
M  V30 25273 C 2320.86 3.0384 1.63632 0
M  V30 25274 C 2319.97 4.18462 1.073 0
M  V30 25275 C 2319.11 4.8438 2.18059 0
M  V30 25276 C 2318.15 5.91052 1.59136 0
M  V30 25277 N 2317.28 6.50704 2.63684 0
M  V30 25278 H 2322.12 2.9775 -0.122128 0
M  V30 25279 H 2319.66 1.46923 -0.0720412 0
M  V30 25280 H 2321.62 3.47593 2.30727 0
M  V30 25281 H 2320.25 2.33753 2.22619 0
M  V30 25282 H 2319.3 3.79273 0.292642 0
M  V30 25283 H 2320.61 4.95153 0.602106 0
M  V30 25284 H 2319.77 5.3126 2.92998 0
M  V30 25285 H 2318.51 4.07138 2.68496 0
M  V30 25286 H 2317.51 5.43543 0.82708 0
M  V30 25287 H 2318.74 6.70208 1.09538 0
M  V30 25288 H 2316.68 5.7632 3.13355 0
M  V30 25289 H 2316.6 7.229 2.2125 0
M  V30 25290 H 2317.87 7.02235 3.38358 0
M  V30 25291 N 2322.1 0.083568 1.57378 0
M  V30 25292 C 2323.34 -0.581684 1.93548 0
M  V30 25293 C 2323.66 -1.69433 0.96527 0
M  V30 25294 O 2322.93 -1.95894 0.0153713 0
M  V30 25295 H 2321.51 -0.217861 0.714525 0
M  V30 25296 H 2324.18 0.144192 1.94366 0
M  V30 25297 H 2323.27 -0.999371 2.95667 0
M  V30 25298 N 2323.57 -1.5645 -0.190064 0
M  V30 25299 C 2324.82 -1.81186 -0.911021 0
M  V30 25300 C 2325.15 -0.658428 -1.82697 0
M  V30 25301 O 2324.43 0.340741 -1.91492 0
M  V30 25302 C 2324.71 -3.16208 -1.72291 0
M  V30 25303 C 2324.56 -4.42051 -0.831341 0
M  V30 25304 C 2325.88 -3.47974 -2.69448 0
M  V30 25305 H 2323 -0.659112 -0.329758 0
M  V30 25306 H 2325.64 -1.89163 -0.178135 0
M  V30 25307 H 2323.79 -3.09539 -2.34773 0
M  V30 25308 H 2325.47 -4.60771 -0.220848 0
M  V30 25309 H 2323.71 -4.33579 -0.13833 0
M  V30 25310 H 2324.38 -5.33034 -1.43451 0
M  V30 25311 H 2326.86 -3.54976 -2.17097 0
M  V30 25312 H 2325.73 -4.43561 -3.23334 0
M  V30 25313 H 2325.99 -2.71723 -3.48739 0
M  V30 25314 N 2325.05 0.45796 -1.50799 0
M  V30 25315 C 2325.98 1.56207 -1.73556 0
M  V30 25316 C 2326.96 1.59731 -0.584802 0
M  V30 25317 O 2328.15 1.75789 -0.825345 0
M  V30 25318 C 2325.28 2.94444 -1.84175 0
M  V30 25319 C 2324.23 3.05784 -2.99466 0
M  V30 25320 C 2323.56 4.45798 -2.95243 0
M  V30 25321 C 2324.86 2.81778 -4.39771 0
M  V30 25322 H 2326.55 1.37416 -2.66002 0
M  V30 25323 H 2324.1 0.659639 -1.28003 0
M  V30 25324 H 2326.05 3.71625 -1.98678 0
M  V30 25325 H 2324.77 3.1442 -0.8836 0
M  V30 25326 H 2323.43 2.31039 -2.84634 0
M  V30 25327 H 2323.08 4.62712 -1.97248 0
M  V30 25328 H 2322.78 4.54319 -3.72649 0
M  V30 25329 H 2324.31 5.24981 -3.11813 0
M  V30 25330 H 2325.72 3.48702 -4.5506 0
M  V30 25331 H 2324.12 3.01731 -5.18727 0
M  V30 25332 H 2325.19 1.77532 -4.51232 0
M  V30 25333 N 2326.53 1.40598 0.712035 0
M  V30 25334 C 2327.46 1.43902 1.83887 0
M  V30 25335 C 2328.44 0.299533 1.67442 0
M  V30 25336 O 2329.63 0.508657 1.8742 0
M  V30 25337 C 2326.76 1.30437 3.21875 0
M  V30 25338 C 2325.71 2.42026 3.52998 0
M  V30 25339 C 2325.04 2.13634 4.90168 0
M  V30 25340 C 2326.34 3.84368 3.53636 0
M  V30 25341 H 2328.03 2.38206 1.81379 0
M  V30 25342 H 2325.58 1.14655 0.871217 0
M  V30 25343 H 2327.53 1.31364 4.00402 0
M  V30 25344 H 2326.25 0.326107 3.24968 0
M  V30 25345 H 2324.91 2.40354 2.76813 0
M  V30 25346 H 2324.56 1.14191 4.89867 0
M  V30 25347 H 2324.26 2.88398 5.11957 0
M  V30 25348 H 2325.78 2.1625 5.71024 0
M  V30 25349 H 2327.2 3.87844 4.22196 0
M  V30 25350 H 2325.59 4.5868 3.86953 0
M  V30 25351 H 2326.66 4.13698 2.52947 0
M  V30 25352 N 2328.01 -0.94462 1.26153 0
M  V30 25353 C 2328.92 -2.07646 1.0918 0
M  V30 25354 C 2329.93 -1.7398 0.0262241 0
M  V30 25355 O 2331.11 -2.00091 0.229243 0
M  V30 25356 C 2328.17 -3.39078 0.722974 0
M  V30 25357 C 2327.24 -3.86549 1.86758 0
M  V30 25358 C 2326.47 -5.11708 1.51626 0
M  V30 25359 O 2326.69 -5.68878 0.416431 0
M  V30 25360 O 2325.63 -5.54135 2.34985 0
M  V30 25361 H 2329.45 -2.24872 2.04124 0
M  V30 25362 H 2327.04 -1.06098 1.05184 0
M  V30 25363 H 2328.92 -4.18056 0.529861 0
M  V30 25364 H 2327.59 -3.23099 -0.197102 0
M  V30 25365 H 2326.5 -3.08531 2.11564 0
M  V30 25366 H 2327.83 -4.07042 2.76726 0
M  V30 25367 N 2329.49 -1.07901 -1.1487 0
M  V30 25368 C 2330.73 -0.800531 -1.85133 0
M  V30 25369 C 2331.05 0.675982 -1.83548 0
M  V30 25370 O 2332.25 1.06944 -2.4955 0
M  V30 25371 C 2330.71 -1.38203 -3.32307 0
M  V30 25372 C 2330.32 -2.88996 -3.42323 0
M  V30 25373 C 2332.06 -1.18181 -4.07717 0
M  V30 25374 C 2329.97 -3.40309 -4.83678 0
M  V30 25375 H 2328.9 -0.295792 -0.693558 0
M  V30 25376 H 2331.55 -1.29978 -1.29529 0
M  V30 25377 H 2329.93 -0.8105 -3.87617 0
M  V30 25378 H 2331.11 -3.52241 -2.97091 0
M  V30 25379 H 2329.42 -3.07872 -2.80364 0
M  V30 25380 H 2332.02 -1.53989 -5.12046 0
M  V30 25381 H 2332.36 -0.121244 -4.16123 0
M  V30 25382 H 2332.89 -1.72 -3.58693 0
M  V30 25383 H 2329.63 -4.45916 -4.80458 0
M  V30 25384 H 2329.15 -2.8182 -5.29469 0
M  V30 25385 H 2330.83 -3.36593 -5.52552 0
M  V30 25386 N 2330.96 1.31811 -0.863929 0
M  V30 25387 C 2331.87 2.32428 -0.318502 0
M  V30 25388 C 2332.89 1.64452 0.568467 0
M  V30 25389 O 2334.07 1.9592 0.466625 0
M  V30 25390 C 2331.13 3.43413 0.476295 0
M  V30 25391 C 2330.19 4.27061 -0.437915 0
M  V30 25392 C 2329.42 5.32746 0.319045 0
M  V30 25393 O 2329.65 5.48996 1.54789 0
M  V30 25394 O 2328.58 6.01049 -0.319967 0
M  V30 25395 H 2332.41 2.80989 -1.15234 0
M  V30 25396 H 2329.99 1.356 -0.627126 0
M  V30 25397 H 2331.87 4.11076 0.927084 0
M  V30 25398 H 2330.55 2.97025 1.28678 0
M  V30 25399 H 2329.46 3.62174 -0.937077 0
M  V30 25400 H 2330.79 4.76998 -1.21383 0
M  V30 25401 N 2332.44 0.62277 1.44773 0
M  V30 25402 C 2333.72 0.0552318 1.95522 0
M  V30 25403 C 2334.1 -1.4168 1.56493 0
M  V30 25404 O 2333.45 -2.12701 0.834885 0
M  V30 25405 C 2333.66 0.269303 3.47959 0
M  V30 25406 C 2335 0.158088 4.24306 0
M  V30 25407 O 2336.03 0.200224 3.55637 0
M  V30 25408 O 2334.89 0.0559654 5.46471 0
M  V30 25409 H 2331.98 -0.027087 0.826556 0
M  V30 25410 H 2334.53 0.693892 1.54865 0
M  V30 25411 H 2333.3 1.29106 3.69388 0
M  V30 25412 H 2332.92 -0.403896 3.95543 0
M  V30 25413 N 2333.92 -1.53367 0.362817 0
M  V30 25414 C 2334.85 -2.28577 -0.476936 0
M  V30 25415 C 2335.83 -1.30896 -1.08629 0
M  V30 25416 O 2337.02 -1.59763 -1.10406 0
M  V30 25417 C 2334.15 -3.07296 -1.61823 0
M  V30 25418 C 2333.1 -4.12642 -1.13626 0
M  V30 25419 C 2332.43 -4.79427 -2.36757 0
M  V30 25420 C 2333.73 -5.21824 -0.222969 0
M  V30 25421 H 2335.42 -2.99021 0.150526 0
M  V30 25422 H 2332.97 -1.43811 0.0738356 0
M  V30 25423 H 2334.92 -3.58657 -2.21231 0
M  V30 25424 H 2333.64 -2.34537 -2.27288 0
M  V30 25425 H 2332.3 -3.62222 -0.564881 0
M  V30 25426 H 2331.95 -4.03243 -3.00673 0
M  V30 25427 H 2331.65 -5.50612 -2.05182 0
M  V30 25428 H 2333.17 -5.33581 -2.96856 0
M  V30 25429 H 2334.59 -5.68704 -0.724445 0
M  V30 25430 H 2332.98 -6.001 0.00178349 0
M  V30 25431 H 2334.05 -4.79287 0.735638 0
M  V30 25432 N 2335.4 -0.091913 -1.57332 0
M  V30 25433 C 2336.33 0.898131 -2.1087 0
M  V30 25434 C 2337.34 1.24815 -1.04523 0
M  V30 25435 O 2338.53 1.20182 -1.31979 0
M  V30 25436 C 2335.63 2.20816 -2.57087 0
M  V30 25437 C 2334.81 2.03396 -3.87232 0
M  V30 25438 C 2333.86 3.17882 -4.1933 0
M  V30 25439 O 2332.89 2.91985 -4.88603 0
M  V30 25440 N 2334.09 4.43561 -3.74479 0
M  V30 25441 H 2336.86 0.440891 -2.96439 0
M  V30 25442 H 2334.42 0.093278 -1.61631 0
M  V30 25443 H 2336.41 2.96349 -2.75607 0
M  V30 25444 H 2334.98 2.57973 -1.76546 0
M  V30 25445 H 2334.2 1.12211 -3.77892 0
M  V30 25446 H 2335.49 1.8903 -4.72382 0
M  V30 25447 H 2334.89 4.67483 -3.18554 0
M  V30 25448 H 2333.44 5.16054 -3.9816 0
M  V30 25449 N 2336.88 1.56548 0.181765 0
M  V30 25450 C 2338.12 1.81666 0.901399 0
M  V30 25451 C 2338.46 0.668107 1.82346 0
M  V30 25452 O 2337.73 -0.330581 1.9167 0
M  V30 25453 C 2338.01 3.17118 1.70612 0
M  V30 25454 C 2337.87 4.42485 0.807886 0
M  V30 25455 C 2339.19 3.49398 2.67599 0
M  V30 25456 H 2336.3 0.660851 0.326258 0
M  V30 25457 H 2338.95 1.89255 0.168101 0
M  V30 25458 H 2337.1 3.10779 2.33128 0
M  V30 25459 H 2338.77 4.60882 0.196409 0
M  V30 25460 H 2337.01 4.33647 0.115334 0
M  V30 25461 H 2337.68 5.33788 1.40623 0
M  V30 25462 H 2340.16 3.56122 2.15212 0
M  V30 25463 H 2339.03 4.45269 3.20977 0
M  V30 25464 H 2339.3 2.73569 3.47293 0
M  V30 25465 N 2338.35 -0.449957 1.5104 0
M  V30 25466 C 2339.3 -1.56587 1.71998 0
M  V30 25467 C 2340.3 -1.58939 0.586057 0
M  V30 25468 O 2341.5 -1.62835 0.767119 0
M  V30 25469 H 2337.88 -0.519992 0.543243 0
M  V30 25470 H 2339.85 -1.36081 2.65565 0
M  V30 25471 C 2338.6 -2.94357 1.85065 0
M  V30 25472 H 2337.92 -2.93274 2.71717 0
M  V30 25473 H 2339.36 -3.71838 2.03746 0
M  V30 25474 C 2337.82 -3.31381 0.607335 0
M  V30 25475 O 2338.35 -4.00959 -0.243833 0
M  V30 25476 N 2336.56 -2.87014 0.455123 0
M  V30 25477 H 2336.1 -2.30564 1.14883 0
M  V30 25478 H 2336.06 -3.12149 -0.375556 0
M  V30 25479 N 2339.83 -1.40974 -0.704569 0
M  V30 25480 C 2340.76 -1.38036 -1.82972 0
M  V30 25481 C 2341.78 -0.283959 -1.60304 0
M  V30 25482 O 2342.97 -0.545072 -1.69974 0
M  V30 25483 C 2340.07 -1.12801 -3.19576 0
M  V30 25484 C 2339.24 -2.34309 -3.69348 0
M  V30 25485 C 2338.3 -2.05066 -4.84597 0
M  V30 25486 O 2337.32 -2.78029 -4.96678 0
M  V30 25487 N 2338.53 -1.03538 -5.71192 0
M  V30 25488 H 2341.29 -2.35009 -1.85987 0
M  V30 25489 H 2338.85 -1.3547 -0.886543 0
M  V30 25490 H 2340.84 -0.912057 -3.94289 0
M  V30 25491 H 2339.41 -0.244574 -3.11642 0
M  V30 25492 H 2338.63 -2.71664 -2.85644 0
M  V30 25493 H 2339.92 -3.15287 -3.99339 0
M  V30 25494 H 2339.32 -0.431317 -5.64053 0
M  V30 25495 H 2337.88 -0.879319 -6.45841 0
M  V30 25496 N 2341.31 0.937917 -1.26653 0
M  V30 25497 C 2342.56 1.68448 -1.1239 0
M  V30 25498 C 2342.89 1.91643 0.332174 0
M  V30 25499 O 2342.14 1.49727 1.26017 0
M  V30 25500 C 2342.44 3.06292 -1.84174 0
M  V30 25501 C 2342.11 3.02843 -3.34061 0
M  V30 25502 C 2340.77 3.01609 -3.74947 0
M  V30 25503 C 2343.12 2.94903 -4.29746 0
M  V30 25504 C 2340.45 2.90206 -5.099 0
M  V30 25505 C 2342.8 2.8504 -5.64743 0
M  V30 25506 C 2341.46 2.82151 -6.04935 0
M  V30 25507 H 2340.73 0.616396 -0.411263 0
M  V30 25508 H 2343.38 1.09456 -1.57136 0
M  V30 25509 H 2341.69 3.68928 -1.31906 0
M  V30 25510 H 2343.38 3.62912 -1.70575 0
M  V30 25511 H 2339.97 3.04584 -3.0154 0
M  V30 25512 H 2344.16 2.94962 -3.99138 0
M  V30 25513 H 2339.41 2.86349 -5.40199 0
M  V30 25514 H 2343.59 2.77861 -6.38566 0
M  V30 25515 H 2341.21 2.73071 -7.09462 0
M  V30 25516 N 2342.79 1.08509 1.14296 0
M  V30 25517 C 2343.74 0.716003 2.19413 0
M  V30 25518 C 2344.71 -0.298297 1.634 0
M  V30 25519 O 2345.89 -0.182067 1.89929 0
M  V30 25520 C 2343.03 0.132594 3.44845 0
M  V30 25521 C 2342.14 1.1998 4.15005 0
M  V30 25522 C 2341.28 0.580141 5.28023 0
M  V30 25523 C 2340.32 1.62931 5.90017 0
M  V30 25524 N 2339.45 1.03137 6.94483 0
M  V30 25525 H 2344.29 1.6167 2.50333 0
M  V30 25526 H 2341.83 0.807904 1.22928 0
M  V30 25527 H 2343.79 -0.223381 4.16602 0
M  V30 25528 H 2342.42 -0.731412 3.14405 0
M  V30 25529 H 2341.47 1.67319 3.41626 0
M  V30 25530 H 2342.78 1.99481 4.57175 0
M  V30 25531 H 2341.94 0.172471 6.06455 0
M  V30 25532 H 2340.68 -0.246518 4.87077 0
M  V30 25533 H 2339.68 2.04663 5.10287 0
M  V30 25534 H 2340.91 2.45846 6.33037 0
M  V30 25535 H 2338.85 0.225826 6.55611 0
M  V30 25536 H 2338.77 1.76347 7.35145 0
M  V30 25537 H 2340.04 0.649594 7.76789 0
M  V30 25538 N 2344.27 -1.31351 0.870907 0
M  V30 25539 C 2345.21 -2.30437 0.316486 0
M  V30 25540 C 2346.21 -1.5956 -0.568937 0
M  V30 25541 O 2347.41 -1.74156 -0.454934 0
M  V30 25542 H 2343.79 -0.747331 0.0836653 0
M  V30 25543 H 2345.76 -2.74671 1.16611 0
M  V30 25544 C 2344.51 -3.44559 -0.46629 0
M  V30 25545 H 2343.83 -3.9927 0.205757 0
M  V30 25546 H 2345.27 -4.16004 -0.819541 0
M  V30 25547 C 2343.73 -2.93283 -1.65792 0
M  V30 25548 O 2344.26 -2.9213 -2.75723 0
M  V30 25549 N 2342.47 -2.49472 -1.49037 0
M  V30 25550 H 2342.01 -2.50609 -0.596076 0
M  V30 25551 H 2341.97 -2.1552 -2.28907 0
M  V30 25552 N 2345.74 -0.630439 -1.44441 0
M  V30 25553 C 2346.99 -0.134852 -2.02351 0
M  V30 25554 C 2347.32 1.23983 -1.49472 0
M  V30 25555 O 2346.6 1.82281 -0.678507 0
M  V30 25556 C 2346.88 -0.12077 -3.59897 0
M  V30 25557 C 2346.73 -1.52774 -4.2306 0
M  V30 25558 C 2348.05 0.55505 -4.36586 0
M  V30 25559 H 2345.17 -0.0504775 -0.735269 0
M  V30 25560 H 2347.81 -0.806781 -1.7202 0
M  V30 25561 H 2345.96 0.451409 -3.85869 0
M  V30 25562 H 2347.64 -2.14876 -4.08199 0
M  V30 25563 H 2345.88 -2.08182 -3.80582 0
M  V30 25564 H 2346.55 -1.46993 -5.32069 0
M  V30 25565 H 2349.03 0.0684697 -4.16044 0
M  V30 25566 H 2347.9 0.534089 -5.46295 0
M  V30 25567 H 2348.16 1.62528 -4.11141 0
M  V30 25568 N 2347.22 1.53172 -0.370945 0
M  V30 25569 C 2348.47 2.00516 0.218214 0
M  V30 25570 C 2348.78 1.26218 1.49427 0
M  V30 25571 O 2349.99 1.64178 2.16236 0
M  V30 25572 C 2348.45 3.57207 0.439417 0
M  V30 25573 C 2348.05 4.40388 -0.822321 0
M  V30 25574 C 2349.8 4.12892 0.985939 0
M  V30 25575 C 2347.71 5.88643 -0.570407 0
M  V30 25576 H 2346.64 0.749157 0.0853201 0
M  V30 25577 H 2349.29 1.76823 -0.490514 0
M  V30 25578 H 2347.67 3.77076 1.20954 0
M  V30 25579 H 2348.84 4.32291 -1.59565 0
M  V30 25580 H 2347.16 3.95834 -1.29245 0
M  V30 25581 H 2349.75 5.21294 1.18982 0
M  V30 25582 H 2350.1 3.67823 1.94966 0
M  V30 25583 H 2350.63 3.96842 0.27585 0
M  V30 25584 H 2347.37 6.37998 -1.50461 0
M  V30 25585 H 2346.89 5.99575 0.164322 0
M  V30 25586 H 2348.57 6.46697 -0.197954 0
M  V30 25587 N 2348.7 0.100255 1.57281 0
M  V30 25588 C 2349.95 -0.562234 1.94538 0
M  V30 25589 C 2350.28 -1.6787 0.982344 0
M  V30 25590 O 2349.53 -1.957 0.00284375 0
M  V30 25591 C 2349.83 -1.15253 3.38307 0
M  V30 25592 C 2349.5 -0.159329 4.50618 0
M  V30 25593 C 2348.16 0.113826 4.81065 0
M  V30 25594 C 2350.51 0.518552 5.18614 0
M  V30 25595 C 2347.84 1.07147 5.76833 0
M  V30 25596 C 2350.19 1.4647 6.1541 0
M  V30 25597 C 2348.85 1.74603 6.44259 0
M  V30 25598 H 2348.12 -0.205736 0.711866 0
M  V30 25599 H 2350.77 0.177184 1.90679 0
M  V30 25600 H 2349.08 -1.9683 3.3877 0
M  V30 25601 H 2350.77 -1.6729 3.64438 0
M  V30 25602 H 2347.36 -0.382416 4.26891 0
M  V30 25603 H 2351.55 0.320668 4.95263 0
M  V30 25604 H 2346.8 1.29638 5.97498 0
M  V30 25605 H 2350.98 1.99575 6.6719 0
M  V30 25606 H 2348.6 2.48966 7.18276 0
M  V30 25607 N 2350.18 -1.56643 -0.17346 0
M  V30 25608 C 2351.09 -1.99475 -1.23479 0
M  V30 25609 C 2352.11 -0.905778 -1.48565 0
M  V30 25610 O 2353.28 -1.21324 -1.60756 0
M  V30 25611 C 2350.35 -2.34417 -2.5544 0
M  V30 25612 C 2349.41 -3.57131 -2.38234 0
M  V30 25613 C 2348.64 -3.90398 -3.63903 0
M  V30 25614 O 2348.86 -3.24661 -4.6899 0
M  V30 25615 O 2347.8 -4.83755 -3.58141 0
M  V30 25616 H 2351.62 -2.9002 -0.901228 0
M  V30 25617 H 2349.21 -1.44482 -0.38016 0
M  V30 25618 H 2351.09 -2.57871 -3.33287 0
M  V30 25619 H 2349.77 -1.47035 -2.88379 0
M  V30 25620 H 2348.67 -3.38899 -1.58425 0
M  V30 25621 H 2350.01 -4.45049 -2.1022 0
M  V30 25622 N 2351.66 0.44194 -1.51277 0
M  V30 25623 C 2352.91 1.18868 -1.62952 0
M  V30 25624 C 2353.22 1.92455 -0.349346 0
M  V30 25625 O 2354.43 2.69294 -0.345403 0
M  V30 25626 C 2352.88 2.1615 -2.87762 0
M  V30 25627 C 2352.49 1.48232 -4.22766 0
M  V30 25628 C 2354.23 2.91285 -3.08793 0
M  V30 25629 C 2352.14 2.43971 -5.38732 0
M  V30 25630 H 2351.07 0.447396 -0.606921 0
M  V30 25631 H 2353.72 0.456174 -1.77739 0
M  V30 25632 H 2352.1 2.92816 -2.66598 0
M  V30 25633 H 2353.28 0.771555 -4.54295 0
M  V30 25634 H 2351.59 0.85267 -4.07576 0
M  V30 25635 H 2354.19 3.62995 -3.92605 0
M  V30 25636 H 2354.53 3.52366 -2.21685 0
M  V30 25637 H 2355.07 2.21727 -3.30276 0
M  V30 25638 H 2351.8 1.87586 -6.28086 0
M  V30 25639 H 2351.32 3.13114 -5.11585 0
M  V30 25640 H 2353 3.05197 -5.70494 0
M  V30 25641 N 2353.14 1.41345 0.697083 0
M  V30 25642 C 2354.36 1.44173 1.49093 0
M  V30 25643 C 2354.79 0.0481899 1.88038 0
M  V30 25644 O 2354.14 -0.948216 1.54527 0
M  V30 25645 C 2354.19 2.35495 2.73084 0
M  V30 25646 O 2353.3 1.81094 3.70511 0
M  V30 25647 H 2352.64 0.489369 0.448792 0
M  V30 25648 H 2355.17 1.85789 0.856959 0
M  V30 25649 H 2355.18 2.51317 3.21409 0
M  V30 25650 H 2353.85 3.3675 2.44075 0
M  V30 25651 H 2352.43 1.74714 3.29438 0
M  V30 25652 N 2354.61 -0.931187 1.27148 0
M  V30 25653 C 2356.02 -1.4934 1.12046 0
M  V30 25654 C 2356.38 -1.93958 -0.295761 0
M  V30 25655 O 2355.5 -1.80854 -1.18831 0
M  V30 25656 C 2356.1 -2.7141 2.02786 0
M  V30 25657 C 2354.65 -3.23867 1.918 0
M  V30 25658 C 2353.8 -1.96613 1.95547 0
M  V30 25659 H 2356.75 -0.745648 1.40092 0
M  V30 25660 H 2356.77 -3.46071 1.58162 0
M  V30 25661 H 2356.29 -2.38905 3.05853 0
M  V30 25662 H 2354.39 -3.61138 0.917055 0
M  V30 25663 H 2354.5 -3.90297 2.77858 0
M  V30 25664 H 2352.86 -2.12952 1.39726 0
M  V30 25665 H 2353.65 -1.66427 3.00262 0
M  V30 25666 N 2356.09 -1.09114 -1.13719 0
M  V30 25667 C 2357.32 -0.846932 -1.88771 0
M  V30 25668 C 2357.73 0.60154 -1.78961 0
M  V30 25669 O 2357.09 1.41386 -1.15397 0
M  V30 25670 C 2357.14 -1.26919 -3.38488 0
M  V30 25671 O 2356.86 -2.66085 -3.48038 0
M  V30 25672 C 2358.36 -1.0569 -4.30517 0
M  V30 25673 H 2355.58 -0.304924 -0.597714 0
M  V30 25674 H 2358.13 -1.45229 -1.43975 0
M  V30 25675 H 2356.28 -0.70779 -3.80879 0
M  V30 25676 H 2356.7 -2.83803 -4.41085 0
M  V30 25677 H 2358.17 -1.40166 -5.33908 0
M  V30 25678 H 2358.65 0.00555696 -4.392 0
M  V30 25679 H 2359.25 -1.60409 -3.9389 0
M  V30 25680 N 2357.57 1.30887 -0.877861 0
M  V30 25681 C 2358.48 2.32077 -0.343136 0
M  V30 25682 C 2359.5 1.65046 0.550993 0
M  V30 25683 O 2360.67 1.96404 0.445819 0
M  V30 25684 C 2357.74 3.43899 0.439845 0
M  V30 25685 C 2356.8 4.26572 -0.483186 0
M  V30 25686 C 2356.03 5.33054 0.262522 0
M  V30 25687 O 2356.25 5.50607 1.48958 0
M  V30 25688 O 2355.19 6.00676 -0.383698 0
M  V30 25689 H 2359.01 2.79751 -1.18208 0
M  V30 25690 H 2356.6 1.34928 -0.641473 0
M  V30 25691 H 2358.48 4.12036 0.883432 0
M  V30 25692 H 2357.16 2.98373 1.25521 0
M  V30 25693 H 2356.06 3.61159 -0.975437 0
M  V30 25694 H 2357.4 4.75684 -1.26436 0
M  V30 25695 N 2359.05 0.638091 1.44105 0
M  V30 25696 C 2359.96 -0.0636922 2.34514 0
M  V30 25697 C 2360.97 -0.828319 1.53019 0
M  V30 25698 O 2362.15 -0.779003 1.85724 0
M  V30 25699 C 2359.21 -1.02839 3.31097 0
M  V30 25700 C 2358.28 -0.262364 4.28498 0
M  V30 25701 C 2357.51 -1.18111 5.20467 0
M  V30 25702 O 2357.73 -2.42002 5.16518 0
M  V30 25703 O 2356.67 -0.661668 5.98252 0
M  V30 25704 H 2360.49 0.680082 2.95987 0
M  V30 25705 H 2358.08 0.398277 1.43993 0
M  V30 25706 H 2359.96 -1.5832 3.90529 0
M  V30 25707 H 2358.63 -1.75265 2.72147 0
M  V30 25708 H 2357.54 0.335667 3.72591 0
M  V30 25709 H 2358.87 0.422022 4.90387 0
M  V30 25710 N 2360.53 -1.52973 0.379063 0
M  V30 25711 C 2361.77 -2.01744 -0.206692 0
M  V30 25712 C 2362.1 -1.26542 -1.47312 0
M  V30 25713 O 2361.38 -0.362937 -1.91084 0
M  V30 25714 C 2361.66 -3.56819 -0.485003 0
M  V30 25715 C 2361.52 -4.42701 0.795997 0
M  V30 25716 C 2362.83 -4.21076 -1.27995 0
M  V30 25717 H 2359.95 -0.733311 -0.0736478 0
M  V30 25718 H 2362.6 -1.83121 0.506613 0
M  V30 25719 H 2360.75 -3.72818 -1.09266 0
M  V30 25720 H 2362.42 -4.38473 1.43315 0
M  V30 25721 H 2360.66 -4.10125 1.41351 0
M  V30 25722 H 2361.33 -5.49192 0.556044 0
M  V30 25723 H 2363.81 -4.08992 -0.765795 0
M  V30 25724 H 2362.68 -5.29581 -1.44343 0
M  V30 25725 H 2362.94 -3.7803 -2.29229 0
M  V30 25726 N 2362 -0.108595 -1.57225 0
M  V30 25727 C 2363.25 0.550819 -1.94449 0
M  V30 25728 C 2363.57 1.67876 -0.992103 0
M  V30 25729 O 2362.84 1.95845 -0.0465344 0
M  V30 25730 H 2361.42 0.206466 -0.7179 0
M  V30 25731 H 2364.08 -0.175096 -1.94112 0
M  V30 25732 H 2363.18 0.952207 -2.9722 0
M  V30 25733 N 2363.48 1.56732 0.16515 0
M  V30 25734 C 2364.76 1.73226 0.908412 0
M  V30 25735 C 2365.14 0.671685 2.00129 0
M  V30 25736 O 2364.49 -0.312491 2.26353 0
M  V30 25737 C 2364.7 3.16647 1.4675 0
M  V30 25738 C 2366.04 3.77791 1.93802 0
M  V30 25739 O 2367.07 3.19963 1.56531 0
M  V30 25740 O 2365.93 4.79341 2.62478 0
M  V30 25741 H 2363.02 0.707626 0.428013 0
M  V30 25742 H 2365.57 1.69013 0.152496 0
M  V30 25743 H 2364.34 3.85325 0.681222 0
M  V30 25744 H 2363.96 3.25211 2.28743 0
M  V30 25745 N 2364.96 -0.433911 1.51509 0
M  V30 25746 C 2366.21 -1.18306 1.64347 0
M  V30 25747 C 2366.53 -1.91114 0.361349 0
M  V30 25748 O 2365.79 -1.84423 -0.65472 0
M  V30 25749 C 2366.09 -2.222 2.79932 0
M  V30 25750 C 2365.76 -1.6638 4.19081 0
M  V30 25751 C 2364.42 -1.50879 4.56934 0
M  V30 25752 C 2366.77 -1.25372 5.05897 0
M  V30 25753 C 2364.1 -0.928506 5.79306 0
M  V30 25754 C 2366.45 -0.687712 6.28851 0
M  V30 25755 C 2365.11 -0.519638 6.65474 0
M  V30 25756 H 2364.38 -0.432912 0.601388 0
M  V30 25757 H 2367.03 -0.473644 1.8555 0
M  V30 25758 H 2365.34 -2.99193 2.52964 0
M  V30 25759 H 2367.03 -2.79992 2.87064 0
M  V30 25760 H 2363.62 -1.79421 3.89238 0
M  V30 25761 H 2367.81 -1.36166 4.77255 0
M  V30 25762 H 2363.06 -0.786079 6.06326 0
M  V30 25763 H 2367.24 -0.361459 6.95461 0
M  V30 25764 H 2364.86 -0.0678643 7.6017 0
M  V30 25765 N 2366.44 -1.41713 -0.689577 0
M  V30 25766 C 2367.35 -1.46404 -1.83311 0
M  V30 25767 C 2368.36 -0.35408 -1.70359 0
M  V30 25768 O 2369.54 -0.602726 -1.9217 0
M  V30 25769 C 2366.61 -1.34988 -3.19342 0
M  V30 25770 C 2365.67 -2.5635 -3.44359 0
M  V30 25771 C 2364.9 -2.45469 -4.73899 0
M  V30 25772 O 2365.12 -1.48251 -5.50798 0
M  V30 25773 O 2364.06 -3.35336 -4.99833 0
M  V30 25774 H 2367.88 -2.42893 -1.8231 0
M  V30 25775 H 2365.47 -1.23316 -0.843417 0
M  V30 25776 H 2367.35 -1.30927 -4.00545 0
M  V30 25777 H 2366.02 -0.416176 -3.21013 0
M  V30 25778 H 2364.93 -2.65987 -2.63063 0
M  V30 25779 H 2366.26 -3.48569 -3.47506 0
M  V30 25780 N 2367.92 0.924431 -1.2764 0
M  V30 25781 C 2369.16 1.67495 -1.14339 0
M  V30 25782 C 2369.5 1.91719 0.309431 0
M  V30 25783 O 2368.77 1.50991 1.22605 0
M  V30 25784 C 2369.05 3.03947 -1.93102 0
M  V30 25785 C 2368.91 2.86943 -3.46386 0
M  V30 25786 C 2370.23 4.04327 -1.73805 0
M  V30 25787 H 2367.34 0.607864 -0.416738 0
M  V30 25788 H 2369.99 1.07253 -1.56834 0
M  V30 25789 H 2368.14 3.55369 -1.56988 0
M  V30 25790 H 2369.81 2.42614 -3.92347 0
M  V30 25791 H 2368.05 2.22219 -3.72561 0
M  V30 25792 H 2368.72 3.83797 -3.96742 0
M  V30 25793 H 2371.2 3.61927 -2.05299 0
M  V30 25794 H 2370.07 4.97785 -2.31303 0
M  V30 25795 H 2370.34 4.36733 -0.686802 0
M  V30 25796 N 2369.39 1.09715 1.13139 0
M  V30 25797 C 2370.34 0.739235 2.18641 0
M  V30 25798 C 2371.31 -0.28095 1.63707 0
M  V30 25799 O 2372.5 -0.161912 1.90112 0
M  V30 25800 C 2369.64 0.169162 3.44685 0
M  V30 25801 C 2368.75 1.24375 4.13709 0
M  V30 25802 C 2367.88 0.636112 5.27378 0
M  V30 25803 C 2366.92 1.6918 5.88256 0
M  V30 25804 N 2366.06 1.10497 6.9335 0
M  V30 25805 H 2370.9 1.64316 2.48604 0
M  V30 25806 H 2368.44 0.820896 1.22064 0
M  V30 25807 H 2370.4 -0.179182 4.16815 0
M  V30 25808 H 2369.03 -0.698024 3.15163 0
M  V30 25809 H 2368.08 1.70933 3.39832 0
M  V30 25810 H 2369.39 2.04319 4.55033 0
M  V30 25811 H 2368.54 0.236784 6.06238 0
M  V30 25812 H 2367.28 -0.194843 4.87311 0
M  V30 25813 H 2366.29 2.10064 5.08088 0
M  V30 25814 H 2367.51 2.52547 6.30394 0
M  V30 25815 H 2365.46 0.29535 6.55335 0
M  V30 25816 H 2365.38 1.84134 7.33233 0
M  V30 25817 H 2366.64 0.731946 7.76056 0
M  V30 25818 N 2370.87 -1.30419 0.88479 0
M  V30 25819 C 2371.84 -2.26413 0.356317 0
M  V30 25820 C 2372.84 -1.52793 -0.501097 0
M  V30 25821 O 2374.03 -1.71451 -0.308279 0
M  V30 25822 C 2371.16 -3.37327 -0.492256 0
M  V30 25823 H 2372.35 -2.74673 1.20393 0
M  V30 25824 H 2369.9 -1.41606 0.661632 0
M  V30 25825 H 2370.64 -2.94384 -1.36047 0
M  V30 25826 H 2370.42 -3.9191 0.121901 0
M  V30 25827 H 2371.91 -4.08779 -0.853799 0
M  V30 25828 N 2372.35 -0.645724 -1.43764 0
M  V30 25829 C 2373.3 0.0504242 -2.30745 0
M  V30 25830 C 2374.27 0.822216 -1.44322 0
M  V30 25831 O 2375.45 0.800328 -1.73203 0
M  V30 25832 C 2372.59 1.01605 -3.29804 0
M  V30 25833 C 2371.71 0.241144 -4.31326 0
M  V30 25834 C 2370.84 1.19989 -5.17471 0
M  V30 25835 C 2369.88 0.414987 -6.10692 0
M  V30 25836 N 2369.02 1.32494 -6.89485 0
M  V30 25837 H 2373.86 -0.697206 -2.89729 0
M  V30 25838 H 2371.39 -0.355588 -1.42737 0
M  V30 25839 H 2373.35 1.58942 -3.85737 0
M  V30 25840 H 2371.98 1.73064 -2.72486 0
M  V30 25841 H 2371.03 -0.4484 -3.77748 0
M  V30 25842 H 2372.35 -0.369525 -4.97429 0
M  V30 25843 H 2371.5 1.84414 -5.77993 0
M  V30 25844 H 2370.24 1.84447 -4.51476 0
M  V30 25845 H 2369.24 -0.242662 -5.49264 0
M  V30 25846 H 2370.47 -0.225085 -6.78727 0
M  V30 25847 H 2368.41 1.95646 -6.26146 0
M  V30 25848 H 2368.33 0.76865 -7.52082 0
M  V30 25849 H 2369.6 1.95757 -7.54519 0
M  V30 25850 N 2373.83 1.5277 -0.38717 0
M  V30 25851 C 2375.08 2.01552 0.1957 0
M  V30 25852 C 2375.4 1.27371 1.46993 0
M  V30 25853 O 2374.66 0.361913 1.92324 0
M  V30 25854 C 2374.96 3.53711 0.512147 0
M  V30 25855 C 2374.62 4.4589 -0.670281 0
M  V30 25856 C 2373.29 4.70808 -0.994669 0
M  V30 25857 C 2375.64 5.00292 -1.46143 0
M  V30 25858 C 2372.97 5.47376 -2.11179 0
M  V30 25859 C 2375.32 5.78082 -2.56913 0
M  V30 25860 C 2373.98 6.01278 -2.89863 0
M  V30 25861 H 2373.25 0.737532 0.0716117 0
M  V30 25862 H 2375.9 1.84189 -0.524079 0
M  V30 25863 H 2374.2 3.69136 1.31322 0
M  V30 25864 H 2375.9 3.88948 0.975736 0
M  V30 25865 H 2372.49 4.26659 -0.407441 0
M  V30 25866 H 2376.67 4.80968 -1.22405 0
M  V30 25867 H 2371.93 5.63563 -2.3708 0
M  V30 25868 H 2376.1 6.19238 -3.18619 0
M  V30 25869 H 2373.73 6.60392 -3.76545 0
M  V30 25870 N 2375.31 0.116931 1.57166 0
M  V30 25871 C 2376.24 -0.871254 2.10913 0
M  V30 25872 C 2377.22 -1.26222 1.02502 0
M  V30 25873 O 2378.4 -1.36364 1.30143 0
M  V30 25874 C 2375.53 -2.1657 2.60414 0
M  V30 25875 C 2374.57 -1.92295 3.8069 0
M  V30 25876 S 2375.41 -1.1411 5.23201 0
M  V30 25877 C 2376.56 -2.44738 5.76068 0
M  V30 25878 H 2376.8 -0.414086 2.94402 0
M  V30 25879 H 2374.33 -0.0968019 1.54096 0
M  V30 25880 H 2376.29 -2.90945 2.89588 0
M  V30 25881 H 2374.95 -2.59405 1.7711 0
M  V30 25882 H 2374.14 -2.88203 4.13467 0
M  V30 25883 H 2373.74 -1.26041 3.52122 0
M  V30 25884 H 2376.04 -3.40589 5.85666 0
M  V30 25885 H 2376.98 -2.16509 6.74188 0
M  V30 25886 H 2377.39 -2.54011 5.04122 0
M  V30 25887 N 2376.78 -1.56818 -0.156836 0
M  V30 25888 C 2378.03 -1.82445 -0.869372 0
M  V30 25889 C 2378.35 -0.696262 -1.82146 0
M  V30 25890 O 2377.62 0.282836 -1.93847 0
M  V30 25891 H 2376.2 -0.673062 -0.324031 0
M  V30 25892 H 2378.87 -1.94297 -0.15319 0
M  V30 25893 H 2377.96 -2.77021 -1.43756 0
M  V30 25894 N 2378.26 0.425871 -1.51737 0
M  V30 25895 C 2379.51 1.17607 -1.65217 0
M  V30 25896 C 2379.84 1.90588 -0.372812 0
M  V30 25897 O 2379.12 1.84079 0.628106 0
M  V30 25898 C 2379.4 2.18393 -2.86315 0
M  V30 25899 C 2379.25 1.49419 -4.24257 0
M  V30 25900 C 2380.57 3.19251 -3.0293 0
M  V30 25901 H 2377.69 0.426195 -0.601271 0
M  V30 25902 H 2380.33 0.46385 -1.84251 0
M  V30 25903 H 2378.48 2.79132 -2.70218 0
M  V30 25904 H 2380.15 0.919283 -4.52047 0
M  V30 25905 H 2378.4 0.796357 -4.26428 0
M  V30 25906 H 2379.07 2.22876 -5.05005 0
M  V30 25907 H 2381.54 2.68575 -3.17815 0
M  V30 25908 H 2380.42 3.87053 -3.89206 0
M  V30 25909 H 2380.68 3.86019 -2.15504 0
M  V30 25910 N 2379.74 1.42077 0.682052 0
M  V30 25911 C 2380.67 1.4093 1.80753 0
M  V30 25912 C 2381.69 0.309426 1.59832 0
M  V30 25913 O 2382.87 0.572044 1.69085 0
M  V30 25914 C 2379.97 1.17871 3.17741 0
M  V30 25915 C 2379.15 2.40155 3.65574 0
M  V30 25916 C 2378.21 2.1275 4.81273 0
M  V30 25917 O 2377.23 2.85895 4.92191 0
M  V30 25918 N 2378.43 1.12612 5.69472 0
M  V30 25919 H 2381.2 2.37938 1.82224 0
M  V30 25920 H 2378.76 1.36863 0.864879 0
M  V30 25921 H 2380.75 0.974669 3.92788 0
M  V30 25922 H 2379.32 0.294123 3.11213 0
M  V30 25923 H 2378.54 2.76174 2.81286 0
M  V30 25924 H 2379.83 3.216 3.94273 0
M  V30 25925 H 2379.23 0.520998 5.63296 0
M  V30 25926 H 2377.79 0.981955 6.44361 0
M  V30 25927 N 2381.22 -0.917649 1.28129 0
M  V30 25928 C 2382.15 -2.02065 1.06042 0
M  V30 25929 C 2383.13 -1.62585 -0.0223 0
M  V30 25930 O 2384.31 -1.88086 0.124856 0
M  V30 25931 C 2381.44 -3.3315 0.610655 0
M  V30 25932 C 2380.49 -3.91612 1.68944 0
M  V30 25933 S 2381.32 -4.22947 3.28445 0
M  V30 25934 C 2382.48 -5.57098 2.85293 0
M  V30 25935 H 2382.71 -2.20489 1.99428 0
M  V30 25936 H 2380.24 -1.06203 1.12073 0
M  V30 25937 H 2382.2 -4.08937 0.35785 0
M  V30 25938 H 2380.86 -3.12632 -0.303309 0
M  V30 25939 H 2380.05 -4.86237 1.32627 0
M  V30 25940 H 2379.66 -3.22447 1.89484 0
M  V30 25941 H 2381.95 -6.36823 2.31221 0
M  V30 25942 H 2382.89 -5.98324 3.787 0
M  V30 25943 H 2383.3 -5.181 2.24127 0
M  V30 25944 N 2382.7 -1.10314 -1.12555 0
M  V30 25945 C 2383.61 -0.763181 -2.21839 0
M  V30 25946 C 2384.62 0.23877 -1.72354 0
M  V30 25947 O 2385.8 0.0778393 -2.0125 0
M  V30 25948 C 2382.86 -0.198693 -3.4613 0
M  V30 25949 C 2381.93 -1.25776 -4.10462 0
M  V30 25950 C 2381.16 -0.720113 -5.28819 0
M  V30 25951 O 2381.38 0.453893 -5.68591 0
M  V30 25952 O 2380.32 -1.47945 -5.83435 0
M  V30 25953 H 2384.14 -1.67536 -2.53309 0
M  V30 25954 H 2381.73 -0.878179 -1.20865 0
M  V30 25955 H 2383.61 0.112326 -4.2125 0
M  V30 25956 H 2382.28 0.686363 -3.1634 0
M  V30 25957 H 2381.19 -1.62162 -3.37127 0
M  V30 25958 H 2382.52 -2.11579 -4.44404 0
M  V30 25959 N 2384.18 1.29948 -0.891694 0
M  V30 25960 C 2385.4 2.00031 -0.528695 0
M  V30 25961 C 2385.82 1.66797 0.884545 0
M  V30 25962 O 2385.18 0.908697 1.58269 0
M  V30 25963 C 2385.23 3.54621 -0.701876 0
M  V30 25964 O 2384.95 3.86674 -2.05948 0
M  V30 25965 C 2386.45 4.41973 -0.342761 0
M  V30 25966 H 2383.67 0.639343 -0.20367 0
M  V30 25967 H 2386.21 1.65675 -1.19884 0
M  V30 25968 H 2384.37 3.87319 -0.0790149 0
M  V30 25969 H 2384.78 4.81364 -2.083 0
M  V30 25970 H 2386.26 5.49594 -0.514806 0
M  V30 25971 H 2386.73 4.33264 0.719674 0
M  V30 25972 H 2387.34 4.14731 -0.942227 0
M  V30 25973 N 2385.65 0.653339 1.4342 0
M  V30 25974 C 2386.9 0.16678 2.01812 0
M  V30 25975 C 2387.23 -1.21929 1.51538 0
M  V30 25976 O 2386.48 -1.82791 0.699007 0
M  V30 25977 C 2386.78 0.126686 3.57175 0
M  V30 25978 C 2386.45 1.45451 4.26796 0
M  V30 25979 C 2385.11 1.81813 4.45531 0
M  V30 25980 C 2387.46 2.32997 4.66221 0
M  V30 25981 C 2384.79 3.05386 5.00955 0
M  V30 25982 C 2387.14 3.55862 5.23015 0
M  V30 25983 C 2385.81 3.9242 5.39966 0
M  V30 25984 H 2385.08 0.0610292 0.738483 0
M  V30 25985 H 2387.72 0.84407 1.71894 0
M  V30 25986 H 2386.03 -0.634055 3.86635 0
M  V30 25987 H 2387.73 -0.266653 4.00112 0
M  V30 25988 H 2384.32 1.1616 4.12559 0
M  V30 25989 H 2388.5 2.06195 4.51439 0
M  V30 25990 H 2383.76 3.33759 5.12265 0
M  V30 25991 H 2387.93 4.23917 5.5251 0
M  V30 25992 H 2385.56 4.88252 5.82678 0
M  V30 25993 N 2387.13 -1.52563 0.395266 0
M  V30 25994 C 2388.06 -2.23068 -0.481261 0
M  V30 25995 C 2389.04 -1.23364 -1.05925 0
M  V30 25996 O 2390.23 -1.5237 -1.10976 0
M  V30 25997 C 2387.35 -2.94853 -1.66671 0
M  V30 25998 C 2386.4 -4.08875 -1.21341 0
M  V30 25999 S 2387.23 -5.35163 -0.190008 0
M  V30 26000 C 2388.39 -6.10472 -1.3811 0
M  V30 26001 H 2388.62 -2.97068 0.117433 0
M  V30 26002 H 2386.15 -1.53353 0.179485 0
M  V30 26003 H 2388.11 -3.3682 -2.34654 0
M  V30 26004 H 2386.77 -2.20522 -2.23672 0
M  V30 26005 H 2385.97 -4.58226 -2.09869 0
M  V30 26006 H 2385.57 -3.68952 -0.612421 0
M  V30 26007 H 2387.86 -6.37006 -2.30715 0
M  V30 26008 H 2388.8 -7.01987 -0.928398 0
M  V30 26009 H 2389.21 -5.41332 -1.60062 0
M  V30 26010 N 2388.61 -0.125265 -1.57101 0
M  V30 26011 C 2389.54 0.819136 -2.18661 0
M  V30 26012 C 2390.52 1.27279 -1.12846 0
M  V30 26013 O 2391.71 1.33427 -1.41106 0
M  V30 26014 C 2388.84 2.0669 -2.79099 0
M  V30 26015 C 2387.79 1.75081 -3.90552 0
M  V30 26016 C 2387.12 3.0694 -4.37826 0
M  V30 26017 C 2388.42 1.01426 -5.12357 0
M  V30 26018 H 2390.11 0.30615 -2.97831 0
M  V30 26019 H 2387.66 0.145814 -1.4326 0
M  V30 26020 H 2389.61 2.73221 -3.20825 0
M  V30 26021 H 2388.33 2.60324 -1.97228 0
M  V30 26022 H 2386.99 1.10938 -3.49411 0
M  V30 26023 H 2386.64 3.58521 -3.52805 0
M  V30 26024 H 2386.34 2.86562 -5.12987 0
M  V30 26025 H 2387.86 3.74578 -4.82207 0
M  V30 26026 H 2389.28 1.58122 -5.51063 0
M  V30 26027 H 2387.67 0.911214 -5.93142 0
M  V30 26028 H 2388.74 0.00210157 -4.849 0
M  V30 26029 N 2390.09 1.56899 0.148518 0
M  V30 26030 C 2391.04 1.94569 1.18857 0
M  V30 26031 C 2392.02 0.816759 1.38628 0
M  V30 26032 O 2393.21 1.0802 1.40216 0
M  V30 26033 C 2390.34 2.32854 2.52258 0
M  V30 26034 C 2389.43 3.52313 2.36086 0
M  V30 26035 N 2389.82 4.68893 1.89666 0
M  V30 26036 C 2388.12 3.57368 2.66842 0
M  V30 26037 C 2388.82 5.50992 1.86501 0
M  V30 26038 N 2387.79 4.92659 2.29757 0
M  V30 26039 H 2391.6 2.82178 0.821743 0
M  V30 26040 H 2389.11 1.58437 0.356587 0
M  V30 26041 H 2391.11 2.58045 3.27442 0
M  V30 26042 H 2389.77 1.46594 2.89724 0
M  V30 26043 H 2390.78 4.92677 1.59655 0
M  V30 26044 H 2387.46 2.81644 3.08193 0
M  V30 26045 H 2388.85 6.54454 1.52116 0
M  V30 26046 N 2391.57 -0.417818 1.51961 0
M  V30 26047 C 2392.8 -1.18578 1.69183 0
M  V30 26048 C 2393.2 -1.84985 0.397136 0
M  V30 26049 O 2392.55 -1.7234 -0.635981 0
M  V30 26050 C 2392.61 -2.29755 2.76502 0
M  V30 26051 C 2392.27 -1.83555 4.18517 0
M  V30 26052 C 2393.27 -1.32812 5.0265 0
M  V30 26053 C 2390.95 -1.90653 4.64711 0
M  V30 26054 C 2392.95 -0.897783 6.31046 0
M  V30 26055 C 2390.64 -1.4723 5.93099 0
M  V30 26056 C 2391.63 -0.968773 6.76095 0
M  V30 26057 O 2391.32 -0.540783 8.02079 0
M  V30 26058 H 2391.05 -0.362695 0.570463 0
M  V30 26059 H 2393.61 -0.49885 1.9925 0
M  V30 26060 H 2391.84 -3.01784 2.41791 0
M  V30 26061 H 2393.53 -2.91548 2.82408 0
M  V30 26062 H 2394.29 -1.26708 4.68156 0
M  V30 26063 H 2390.17 -2.2879 4.0022 0
M  V30 26064 H 2393.72 -0.50407 6.95776 0
M  V30 26065 H 2389.61 -1.53011 6.27103 0
M  V30 26066 H 2390.38 -0.664877 8.15795 0
M  V30 26067 N 2393.04 -1.42436 -0.674508 0
M  V30 26068 C 2393.98 -1.41886 -1.80003 0
M  V30 26069 C 2394.99 -0.317898 -1.59666 0
M  V30 26070 O 2396.18 -0.581003 -1.6878 0
M  V30 26071 C 2393.28 -1.19554 -3.17112 0
M  V30 26072 C 2392.45 -2.4209 -3.64295 0
M  V30 26073 C 2391.51 -2.15299 -4.80138 0
M  V30 26074 O 2390.54 -2.88502 -4.90668 0
M  V30 26075 N 2391.74 -1.1563 -5.68867 0
M  V30 26076 H 2394.5 -2.38901 -1.8096 0
M  V30 26077 H 2392.06 -1.3732 -0.857608 0
M  V30 26078 H 2394.06 -0.995486 -3.92265 0
M  V30 26079 H 2392.63 -0.310623 -3.11053 0
M  V30 26080 H 2391.85 -2.77662 -2.79817 0
M  V30 26081 H 2393.13 -3.23686 -3.92562 0
M  V30 26082 H 2392.53 -0.550864 -5.63012 0
M  V30 26083 H 2391.09 -1.01611 -6.43831 0
M  V30 26084 N 2394.52 0.910841 -1.28614 0
M  V30 26085 C 2395.8 1.63977 -1.06635 0
M  V30 26086 C 2396.18 2.07404 0.393314 0
M  V30 26087 O 2395.53 1.82125 1.37996 0
M  V30 26088 C 2395.74 2.82906 -2.04365 0
M  V30 26089 C 2397.08 3.53856 -2.34672 0
M  V30 26090 O 2398.11 2.93059 -2.02472 0
M  V30 26091 O 2396.97 4.63434 -2.89639 0
M  V30 26092 H 2394.06 0.719492 -0.40775 0
M  V30 26093 H 2396.61 0.95989 -1.39944 0
M  V30 26094 H 2395.38 2.47931 -3.02731 0
M  V30 26095 H 2395 3.58606 -1.7172 0
M  V30 26096 N 2396 1.10909 1.11969 0
M  V30 26097 C 2396.93 0.784511 2.19927 0
M  V30 26098 C 2397.91 -0.244697 1.68331 0
M  V30 26099 O 2399.1 -0.109384 1.93892 0
M  V30 26100 C 2396.23 0.220888 3.46597 0
M  V30 26101 C 2395.18 1.18134 4.11374 0
M  V30 26102 C 2394.51 0.478688 5.32553 0
M  V30 26103 C 2395.81 2.52987 4.56941 0
M  V30 26104 H 2397.5 1.68719 2.47334 0
M  V30 26105 H 2395.05 0.812663 1.18877 0
M  V30 26106 H 2397 -0.0183538 4.21396 0
M  V30 26107 H 2395.72 -0.717057 3.18631 0
M  V30 26108 H 2394.38 1.40612 3.38561 0
M  V30 26109 H 2394.03 -0.463888 5.00856 0
M  V30 26110 H 2393.73 1.11922 5.76842 0
M  V30 26111 H 2395.25 0.248107 6.10096 0
M  V30 26112 H 2396.67 2.3463 5.23089 0
M  V30 26113 H 2395.07 3.12971 5.12025 0
M  V30 26114 H 2396.14 3.1262 3.70671 0
M  V30 26115 N 2397.48 -1.29474 0.898573 0
M  V30 26116 C 2398.41 -2.30185 0.392051 0
M  V30 26117 C 2399.39 -1.61556 -0.532331 0
M  V30 26118 O 2400.57 -1.89073 -0.443298 0
M  V30 26119 C 2397.7 -3.4519 -0.382293 0
M  V30 26120 C 2396.66 -4.25611 0.451558 0
M  V30 26121 C 2395.98 -5.32801 -0.450214 0
M  V30 26122 C 2397.28 -4.93829 1.70088 0
M  V30 26123 H 2398.98 -2.72802 1.23367 0
M  V30 26124 H 2396.52 -1.31148 0.594661 0
M  V30 26125 H 2398.48 -4.14719 -0.747378 0
M  V30 26126 H 2397.2 -3.01413 -1.25769 0
M  V30 26127 H 2395.86 -3.57788 0.79896 0
M  V30 26128 H 2395.51 -4.8527 -1.32371 0
M  V30 26129 H 2395.21 -5.87508 0.104005 0
M  V30 26130 H 2396.73 -6.05183 -0.811516 0
M  V30 26131 H 2398.15 -5.55802 1.40559 0
M  V30 26132 H 2396.54 -5.58463 2.19633 0
M  V30 26133 H 2397.61 -4.19182 2.43752 0
M  V30 26134 N 2398.96 -0.660936 -1.43071 0
M  V30 26135 C 2399.89 0.0647239 -2.29109 0
M  V30 26136 C 2400.9 0.779423 -1.4293 0
M  V30 26137 O 2402.09 0.635892 -1.66789 0
M  V30 26138 C 2399.19 1.11498 -3.20034 0
M  V30 26139 C 2398.36 0.476878 -4.34793 0
M  V30 26140 C 2397.42 1.42504 -5.06536 0
M  V30 26141 O 2396.45 0.930672 -5.6154 0
M  V30 26142 N 2397.65 2.7588 -5.10755 0
M  V30 26143 H 2400.42 -0.673782 -2.92028 0
M  V30 26144 H 2397.98 -0.504297 -1.53846 0
M  V30 26145 H 2399.97 1.75025 -3.64895 0
M  V30 26146 H 2398.54 1.75537 -2.58661 0
M  V30 26147 H 2397.76 -0.337641 -3.92751 0
M  V30 26148 H 2399.05 0.0317631 -5.0879 0
M  V30 26149 H 2398.44 3.18597 -4.67453 0
M  V30 26150 H 2397 3.3469 -5.59308 0
M  V30 26151 N 2400.43 1.52351 -0.403352 0
M  V30 26152 C 2401.36 2.29761 0.416165 0
M  V30 26153 C 2402.35 1.3373 1.0512 0
M  V30 26154 O 2403.53 1.62634 1.06131 0
M  V30 26155 C 2400.66 3.11478 1.53619 0
M  V30 26156 C 2399.61 4.15509 1.02645 0
M  V30 26157 C 2398.94 4.85535 2.23963 0
M  V30 26158 C 2400.24 5.22232 0.0845382 0
M  V30 26159 H 2401.93 2.98517 -0.229754 0
M  V30 26160 H 2399.48 1.43564 -0.111938 0
M  V30 26161 H 2401.43 3.64397 2.11644 0
M  V30 26162 H 2400.16 2.40481 2.2099 0
M  V30 26163 H 2398.82 3.63592 0.468646 0
M  V30 26164 H 2398.46 4.11073 2.89876 0
M  V30 26165 H 2398.16 5.55859 1.90511 0
M  V30 26166 H 2399.69 5.41264 2.82605 0
M  V30 26167 H 2401.1 5.70425 0.573409 0
M  V30 26168 H 2399.5 5.99884 -0.160889 0
M  V30 26169 H 2400.57 4.77168 -0.862454 0
M  V30 26170 N 2401.91 0.133594 1.57033 0
M  V30 26171 C 2402.84 -0.841906 2.13177 0
M  V30 26172 C 2403.86 -1.22 1.07796 0
M  V30 26173 O 2405.05 -1.1664 1.35119 0
M  V30 26174 C 2402.15 -2.13922 2.62851 0
M  V30 26175 C 2401.32 -1.93057 3.92489 0
M  V30 26176 C 2400.38 -3.06652 4.27611 0
M  V30 26177 O 2399.4 -2.78928 4.96173 0
M  V30 26178 N 2400.61 -4.33476 3.86107 0
M  V30 26179 H 2403.37 -0.36214 2.97504 0
M  V30 26180 H 2400.93 -0.0503915 1.61822 0
M  V30 26181 H 2402.92 -2.88937 2.83368 0
M  V30 26182 H 2401.49 -2.53202 1.83324 0
M  V30 26183 H 2400.71 -1.02152 3.80734 0
M  V30 26184 H 2402 -1.76439 4.77228 0
M  V30 26185 H 2401.4 -4.58872 3.30836 0
M  V30 26186 H 2399.96 -5.05316 4.11703 0
M  V30 26187 N 2403.39 -1.56975 -0.140195 0
M  V30 26188 C 2404.62 -1.87613 -0.865148 0
M  V30 26189 C 2405.03 -0.720581 -1.74941 0
M  V30 26190 O 2404.37 0.31853 -1.80917 0
M  V30 26191 C 2404.43 -3.13034 -1.76776 0
M  V30 26192 C 2404.1 -4.44537 -1.05998 0
M  V30 26193 C 2405.09 -5.18275 -0.410676 0
M  V30 26194 C 2402.78 -4.91257 -1.04746 0
M  V30 26195 C 2404.77 -6.36942 0.241684 0
M  V30 26196 C 2402.46 -6.09846 -0.391287 0
M  V30 26197 C 2403.46 -6.82534 0.252149 0
M  V30 26198 O 2403.15 -7.9887 0.897897 0
M  V30 26199 H 2402.88 -0.625988 -0.255177 0
M  V30 26200 H 2405.43 -2.04952 -0.135617 0
M  V30 26201 H 2403.66 -2.91722 -2.53841 0
M  V30 26202 H 2405.35 -3.29863 -2.36527 0
M  V30 26203 H 2406.12 -4.83246 -0.41211 0
M  V30 26204 H 2402 -4.34599 -1.5377 0
M  V30 26205 H 2405.54 -6.93616 0.744497 0
M  V30 26206 H 2401.44 -6.44336 -0.387543 0
M  V30 26207 H 2402.21 -8.14579 0.800245 0
M  V30 26208 N 2404.87 0.409753 -1.5218 0
M  V30 26209 C 2405.78 1.52389 -1.78367 0
M  V30 26210 C 2406.79 1.60616 -0.669211 0
M  V30 26211 O 2407.97 1.77342 -0.954549 0
M  V30 26212 C 2405.04 2.8813 -1.92827 0
M  V30 26213 C 2404.1 2.89794 -3.1673 0
M  V30 26214 C 2403.33 4.19061 -3.3049 0
M  V30 26215 O 2403.55 5.12924 -2.49531 0
M  V30 26216 O 2402.49 4.27569 -4.23637 0
M  V30 26217 H 2406.31 1.33197 -2.72933 0
M  V30 26218 H 2403.9 0.595546 -1.37017 0
M  V30 26219 H 2405.78 3.6864 -2.04164 0
M  V30 26220 H 2404.45 3.07392 -1.0145 0
M  V30 26221 H 2403.36 2.0814 -3.10851 0
M  V30 26222 H 2404.69 2.75482 -4.07886 0
M  V30 26223 N 2406.35 1.42792 0.666944 0
M  V30 26224 C 2407.59 1.43397 1.42414 0
M  V30 26225 C 2407.92 0.0542716 1.94924 0
M  V30 26226 O 2407.19 -0.908385 1.73566 0
M  V30 26227 H 2405.77 0.527911 0.528506 0
M  V30 26228 H 2408.43 1.78281 0.787531 0
M  V30 26229 H 2407.52 2.13841 2.27329 0
M  V30 26230 N 2407.82 -0.904008 1.29095 0
M  V30 26231 C 2409.07 -1.65654 1.16989 0
M  V30 26232 C 2409.4 -1.92187 -0.278891 0
M  V30 26233 O 2408.68 -1.52922 -1.20188 0
M  V30 26234 C 2408.96 -3.00836 1.97913 0
M  V30 26235 C 2408.81 -2.81396 3.50908 0
M  V30 26236 C 2410.13 -4.0151 1.80215 0
M  V30 26237 H 2407.25 -0.601157 0.426356 0
M  V30 26238 H 2409.89 -1.04744 1.5852 0
M  V30 26239 H 2408.04 -3.52826 1.62622 0
M  V30 26240 H 2409.72 -2.36341 3.96157 0
M  V30 26241 H 2407.96 -2.16263 3.76049 0
M  V30 26242 H 2408.63 -3.77436 4.02798 0
M  V30 26243 H 2411.11 -3.58615 2.11031 0
M  V30 26244 H 2409.98 -4.94042 2.39193 0
M  V30 26245 H 2410.24 -4.35585 0.756196 0
M  V30 26246 N 2409.3 -1.11501 -1.11379 0
M  V30 26247 C 2410.27 -0.777191 -2.15621 0
M  V30 26248 C 2411.27 0.203751 -1.59504 0
M  V30 26249 O 2412.46 -0.0208126 -1.74188 0
M  V30 26250 C 2409.59 -0.153176 -3.40556 0
M  V30 26251 H 2410.78 -1.70065 -2.47018 0
M  V30 26252 H 2408.33 -0.916974 -1.26575 0
M  V30 26253 H 2409.07 0.780481 -3.14768 0
M  V30 26254 H 2408.85 -0.859305 -3.82568 0
M  V30 26255 H 2410.34 0.067031 -4.17546 0
M  V30 26256 N 2410.78 1.28995 -0.905426 0
M  V30 26257 C 2412.03 1.95614 -0.535073 0
M  V30 26258 C 2412.36 1.71166 0.917374 0
M  V30 26259 O 2411.64 1.02788 1.65121 0
M  V30 26260 C 2411.92 3.50286 -0.83498 0
M  V30 26261 C 2411.77 3.84168 -2.33955 0
M  V30 26262 C 2413.09 4.38895 -0.325395 0
M  V30 26263 H 2410.21 0.710495 -0.195874 0
M  V30 26264 H 2412.85 1.52511 -1.13315 0
M  V30 26265 H 2411 3.8713 -0.325972 0
M  V30 26266 H 2412.67 3.57238 -2.91854 0
M  V30 26267 H 2410.92 3.31508 -2.79795 0
M  V30 26268 H 2411.59 4.92145 -2.49995 0
M  V30 26269 H 2414.06 4.09076 -0.761328 0
M  V30 26270 H 2412.94 5.45991 -0.564391 0
M  V30 26271 H 2413.2 4.35271 0.774067 0
M  V30 26272 N 2412.26 0.668514 1.42719 0
M  V30 26273 C 2413.19 -0.0637497 2.28111 0
M  V30 26274 C 2414.17 -0.814887 1.40707 0
M  V30 26275 O 2415.35 -0.81131 1.70147 0
M  V30 26276 C 2412.48 -1.09734 3.20431 0
M  V30 26277 C 2411.53 -0.442504 4.24198 0
M  V30 26278 S 2412.36 0.795266 5.29562 0
M  V30 26279 C 2413.52 -0.237406 6.2545 0
M  V30 26280 H 2413.75 0.660572 2.89868 0
M  V30 26281 H 2411.28 0.457847 1.47455 0
M  V30 26282 H 2413.24 -1.68861 3.74161 0
M  V30 26283 H 2411.9 -1.79407 2.57822 0
M  V30 26284 H 2411.09 -1.22219 4.88957 0
M  V30 26285 H 2410.7 0.0750212 3.73925 0
M  V30 26286 H 2412.99 -1.09904 6.68526 0
M  V30 26287 H 2413.93 0.375545 7.07103 0
M  V30 26288 H 2414.34 -0.580068 5.61512 0
M  V30 26289 N 2413.74 -1.52135 0.411426 0
M  V30 26290 C 2414.68 -2.27076 -0.412935 0
M  V30 26291 C 2415.65 -1.29584 -1.0391 0
M  V30 26292 O 2416.84 -1.5845 -1.06294 0
M  V30 26293 C 2413.98 -3.09704 -1.52242 0
M  V30 26294 C 2413.09 -4.22156 -0.916947 0
M  V30 26295 C 2412.23 -4.92139 -1.99932 0
M  V30 26296 C 2411.27 -5.96551 -1.3709 0
M  V30 26297 N 2410.4 -6.60042 -2.39352 0
M  V30 26298 H 2415.24 -2.97091 0.232551 0
M  V30 26299 H 2412.78 -1.46555 0.126521 0
M  V30 26300 H 2414.74 -3.55917 -2.17668 0
M  V30 26301 H 2413.37 -2.41855 -2.1379 0
M  V30 26302 H 2412.42 -3.80097 -0.151675 0
M  V30 26303 H 2413.73 -4.97046 -0.417919 0
M  V30 26304 H 2412.89 -5.41768 -2.73079 0
M  V30 26305 H 2411.63 -4.16822 -2.53201 0
M  V30 26306 H 2410.63 -5.46239 -0.624777 0
M  V30 26307 H 2411.86 -6.73811 -0.845879 0
M  V30 26308 H 2409.8 -5.87553 -2.91749 0
M  V30 26309 H 2409.72 -7.30614 -1.94268 0
M  V30 26310 H 2410.99 -7.14309 -3.12062 0
M  V30 26311 N 2415.22 -0.14192 -1.5696 0
M  V30 26312 C 2416.15 0.795898 -2.19517 0
M  V30 26313 C 2417.13 1.26075 -1.14189 0
M  V30 26314 O 2418.31 1.31923 -1.42513 0
M  V30 26315 C 2415.44 2.03718 -2.81276 0
M  V30 26316 C 2414.4 1.70929 -3.92387 0
M  V30 26317 C 2413.72 3.02279 -4.41057 0
M  V30 26318 C 2415.02 0.959864 -5.13404 0
M  V30 26319 H 2416.72 0.274543 -2.98139 0
M  V30 26320 H 2414.26 0.130611 -1.43406 0
M  V30 26321 H 2416.21 2.69802 -3.23705 0
M  V30 26322 H 2414.94 2.58218 -1.99978 0
M  V30 26323 H 2413.6 1.07226 -3.50568 0
M  V30 26324 H 2413.25 3.54759 -3.56588 0
M  V30 26325 H 2412.95 2.81105 -5.15998 0
M  V30 26326 H 2414.47 3.69443 -4.86153 0
M  V30 26327 H 2415.88 1.52269 -5.52709 0
M  V30 26328 H 2414.28 0.848253 -5.94075 0
M  V30 26329 H 2415.35 -0.0493287 -4.84875 0
M  V30 26330 N 2416.69 1.57047 0.131868 0
M  V30 26331 C 2417.94 1.84169 0.8419 0
M  V30 26332 C 2418.27 0.725098 1.80479 0
M  V30 26333 O 2417.52 -0.284658 1.93619 0
M  V30 26334 C 2417.82 3.17707 1.63698 0
M  V30 26335 C 2417.49 4.4339 0.819532 0
M  V30 26336 C 2416.15 4.77519 0.594064 0
M  V30 26337 C 2418.5 5.20605 0.248885 0
M  V30 26338 C 2415.83 5.86315 -0.212512 0
M  V30 26339 C 2418.18 6.3025 -0.544812 0
M  V30 26340 C 2416.85 6.62919 -0.780716 0
M  V30 26341 H 2416.12 0.673923 0.308073 0
M  V30 26342 H 2418.76 1.91213 0.104833 0
M  V30 26343 H 2417.07 3.06182 2.44459 0
M  V30 26344 H 2418.77 3.35911 2.19009 0
M  V30 26345 H 2415.36 4.16642 1.00534 0
M  V30 26346 H 2419.54 4.94601 0.410321 0
M  V30 26347 H 2414.8 6.1006 -0.404631 0
M  V30 26348 H 2418.97 6.89269 -0.994043 0
M  V30 26349 H 2416.6 7.47056 -1.40755 0
M  V30 26350 N 2418.17 -0.401677 1.52395 0
M  V30 26351 C 2419.45 -1.16138 1.57389 0
M  V30 26352 C 2419.83 -2.08018 0.359395 0
M  V30 26353 O 2419.18 -2.18964 -0.653221 0
M  V30 26354 C 2419.39 -1.93216 2.90635 0
M  V30 26355 C 2420.73 -2.49022 3.43909 0
M  V30 26356 O 2421.76 -2.03388 2.92424 0
M  V30 26357 O 2420.62 -3.32348 4.33828 0
M  V30 26358 H 2417.71 -0.530687 0.634272 0
M  V30 26359 H 2420.26 -0.407854 1.64726 0
M  V30 26360 H 2419.03 -1.25952 3.70475 0
M  V30 26361 H 2418.65 -2.75557 2.86625 0
M  V30 26362 N 2419.65 -1.43144 -0.659362 0
M  V30 26363 C 2421.07 -1.26409 -0.974315 0
M  V30 26364 C 2421.27 -0.179376 -2.007 0
M  V30 26365 O 2420.32 0.444251 -2.48561 0
M  V30 26366 C 2421.63 -2.62631 -1.46443 0
M  V30 26367 C 2423.18 -2.70113 -1.5814 0
M  V30 26368 C 2423.66 -4.06738 -2.10543 0
M  V30 26369 N 2425.15 -4.08771 -2.17854 0
M  V30 26370 C 2425.88 -5.11314 -2.5951 0
M  V30 26371 N 2425.38 -6.24234 -3.00507 0
M  V30 26372 N 2427.17 -4.98669 -2.59395 0
M  V30 26373 H 2419.32 -2.12386 0.0240901 0
M  V30 26374 H 2421.59 -0.946584 -0.0517899 0
M  V30 26375 H 2421.29 -3.4294 -0.780063 0
M  V30 26376 H 2421.17 -2.87608 -2.44053 0
M  V30 26377 H 2423.55 -1.9014 -2.25679 0
M  V30 26378 H 2423.63 -2.48908 -0.589784 0
M  V30 26379 H 2423.28 -4.87175 -1.43608 0
M  V30 26380 H 2423.21 -4.25303 -3.10523 0
M  V30 26381 H 2425.7 -3.2726 -1.88969 0
M  V30 26382 H 2426.01 -6.98315 -3.31023 0
M  V30 26383 H 2424.36 -6.27715 -2.98326 0
M  V30 26384 H 2427.55 -4.0952 -2.2674 0
M  V30 26385 H 2427.72 -5.78714 -2.91538 0
M  V30 26386 N 2421.13 0.897149 -1.29572 0
M  V30 26387 C 2422.09 1.9831 -1.14917 0
M  V30 26388 C 2423.09 1.60581 -0.0838911 0
M  V30 26389 O 2424.28 1.71026 -0.331036 0
M  V30 26390 C 2421.41 3.32368 -0.757893 0
M  V30 26391 H 2422.61 2.1274 -2.11381 0
M  V30 26392 H 2420.16 1.08199 -1.12795 0
M  V30 26393 H 2420.89 3.2364 0.20678 0
M  V30 26394 H 2420.68 3.61118 -1.52761 0
M  V30 26395 H 2422.17 4.12051 -0.67848 0
M  V30 26396 N 2422.61 1.1209 1.10786 0
M  V30 26397 C 2423.55 0.785445 2.17024 0
M  V30 26398 C 2424.52 -0.246162 1.64266 0
M  V30 26399 O 2425.71 -0.121551 1.90412 0
M  V30 26400 C 2422.85 0.242237 3.44249 0
M  V30 26401 C 2421.96 1.33122 4.10977 0
M  V30 26402 C 2421.1 0.747833 5.2591 0
M  V30 26403 C 2420.13 1.81619 5.84535 0
M  V30 26404 N 2419.27 1.25179 6.90851 0
M  V30 26405 H 2424.11 1.69553 2.45063 0
M  V30 26406 H 2421.65 0.846603 1.20296 0
M  V30 26407 H 2423.61 -0.0907293 4.17101 0
M  V30 26408 H 2422.24 -0.631016 3.16572 0
M  V30 26409 H 2421.29 1.78103 3.3613 0
M  V30 26410 H 2422.6 2.13925 4.50597 0
M  V30 26411 H 2421.75 0.365322 6.05599 0
M  V30 26412 H 2420.49 -0.0914331 4.87614 0
M  V30 26413 H 2419.5 2.20794 5.03518 0
M  V30 26414 H 2420.72 2.65861 6.24896 0
M  V30 26415 H 2418.67 0.434289 6.54561 0
M  V30 26416 H 2418.59 1.99645 7.29162 0
M  V30 26417 H 2419.85 0.896395 7.74329 0
M  V30 26418 N 2424.08 -1.28513 0.912254 0
M  V30 26419 C 2425.33 -1.95327 0.54544 0
M  V30 26420 C 2425.66 -1.7165 -0.908283 0
M  V30 26421 O 2424.94 -1.03662 -1.64573 0
M  V30 26422 C 2425.22 -3.49838 0.853544 0
M  V30 26423 C 2425.07 -3.82922 2.35989 0
M  V30 26424 C 2426.39 -4.38717 0.348666 0
M  V30 26425 H 2423.51 -0.709446 0.199639 0
M  V30 26426 H 2426.15 -1.51908 1.14123 0
M  V30 26427 H 2424.3 -3.86952 0.346498 0
M  V30 26428 H 2425.98 -3.55686 2.93744 0
M  V30 26429 H 2424.22 -3.30019 2.81549 0
M  V30 26430 H 2424.89 -4.90812 2.52602 0
M  V30 26431 H 2427.37 -4.08666 0.783012 0
M  V30 26432 H 2426.24 -5.45684 0.593338 0
M  V30 26433 H 2426.5 -4.35675 -0.750973 0
M  V30 26434 N 2425.56 -0.676073 -1.42362 0
M  V30 26435 C 2426.51 0.0131099 -2.32596 0
M  V30 26436 C 2427.5 0.789212 -1.49893 0
M  V30 26437 O 2428.71 0.697032 -1.65956 0
M  V30 26438 H 2425.09 0.0230349 -0.751647 0
M  V30 26439 H 2427.06 -0.765293 -2.8842 0
M  V30 26440 C 2425.81 0.949643 -3.3448 0
M  V30 26441 H 2425.13 0.361868 -3.98159 0
M  V30 26442 H 2426.57 1.40053 -4.00201 0
M  V30 26443 C 2425.03 2.05663 -2.66842 0
M  V30 26444 O 2425.56 3.14322 -2.5013 0
M  V30 26445 N 2423.76 1.82871 -2.25846 0
M  V30 26446 H 2423.31 0.945043 -2.39639 0
M  V30 26447 H 2423.27 2.57127 -1.80923 0
M  V30 26448 N 2427.04 1.51915 -0.419488 0
M  V30 26449 C 2428.29 2.02221 0.15313 0
M  V30 26450 C 2428.62 1.30403 1.43905 0
M  V30 26451 O 2427.89 0.413472 1.90054 0
M  V30 26452 C 2428.18 3.57979 0.390228 0
M  V30 26453 C 2428.03 4.40435 -0.913091 0
M  V30 26454 C 2429.35 4.24322 1.16786 0
M  V30 26455 H 2426.47 0.735006 0.0541795 0
M  V30 26456 H 2429.11 1.81714 -0.554987 0
M  V30 26457 H 2427.26 3.75584 0.993425 0
M  V30 26458 H 2428.93 4.34519 -1.5489 0
M  V30 26459 H 2427.18 4.06233 -1.52175 0
M  V30 26460 H 2427.85 5.47525 -0.701457 0
M  V30 26461 H 2430.32 4.10879 0.657089 0
M  V30 26462 H 2429.2 5.33222 1.30251 0
M  V30 26463 H 2429.46 3.83974 2.19126 0
M  V30 26464 N 2428.52 0.150242 1.56882 0
M  V30 26465 C 2429.47 -0.805274 2.18216 0
M  V30 26466 C 2430.46 -1.25294 1.14008 0
M  V30 26467 O 2431.67 -1.22104 1.32252 0
M  V30 26468 H 2428.04 -0.277901 0.698767 0
M  V30 26469 H 2430.01 -0.26381 2.97232 0
M  V30 26470 C 2428.76 -2.03304 2.82069 0
M  V30 26471 H 2428.08 -1.69756 3.61971 0
M  V30 26472 H 2429.52 -2.68097 3.28481 0
M  V30 26473 C 2427.98 -2.84312 1.80744 0
M  V30 26474 O 2428.51 -3.80764 1.27989 0
M  V30 26475 N 2426.72 -2.4891 1.49974 0
M  V30 26476 H 2426.27 -1.70539 1.93065 0
M  V30 26477 H 2426.22 -3.03403 0.82427 0
M  V30 26478 N 2430 -1.57115 -0.123538 0
M  V30 26479 C 2430.93 -2.03044 -1.15305 0
M  V30 26480 C 2431.91 -0.914086 -1.43452 0
M  V30 26481 O 2433.09 -1.18349 -1.53971 0
M  V30 26482 C 2430.22 -2.43093 -2.48038 0
M  V30 26483 C 2429.18 -3.58131 -2.34363 0
M  V30 26484 C 2428.5 -3.84065 -3.72019 0
M  V30 26485 C 2429.8 -4.9001 -1.80796 0
M  V30 26486 H 2431.5 -2.89301 -0.771051 0
M  V30 26487 H 2429.04 -1.3918 -0.369455 0
M  V30 26488 H 2431 -2.73828 -3.20306 0
M  V30 26489 H 2429.72 -1.53801 -2.88119 0
M  V30 26490 H 2428.38 -3.27598 -1.64545 0
M  V30 26491 H 2428.03 -2.91986 -4.09577 0
M  V30 26492 H 2427.73 -4.61496 -3.63724 0
M  V30 26493 H 2429.25 -4.17248 -4.45799 0
M  V30 26494 H 2430.66 -5.19311 -2.42877 0
M  V30 26495 H 2429.06 -5.7141 -1.83333 0
M  V30 26496 H 2430.13 -4.78824 -0.765196 0
M  V30 26497 N 2431.47 0.393589 -1.52606 0
M  V30 26498 C 2432.4 1.48705 -1.80025 0
M  V30 26499 C 2433.39 1.57107 -0.652023 0
M  V30 26500 O 2434.57 1.7213 -0.899161 0
M  V30 26501 C 2431.7 2.86367 -1.96497 0
M  V30 26502 C 2430.65 2.92808 -3.12166 0
M  V30 26503 C 2429.98 4.32874 -3.13885 0
M  V30 26504 C 2431.28 2.62872 -4.51326 0
M  V30 26505 H 2432.97 1.2601 -2.71591 0
M  V30 26506 H 2430.52 0.604755 -1.30686 0
M  V30 26507 H 2432.47 3.62864 -2.14261 0
M  V30 26508 H 2431.2 3.1039 -1.01616 0
M  V30 26509 H 2429.86 2.18759 -2.94177 0
M  V30 26510 H 2429.5 4.5393 -2.16695 0
M  V30 26511 H 2429.2 4.38105 -3.91583 0
M  V30 26512 H 2430.73 5.11284 -3.33798 0
M  V30 26513 H 2432.14 3.29088 -4.6944 0
M  V30 26514 H 2430.54 2.79459 -5.31058 0
M  V30 26515 H 2431.61 1.58234 -4.58356 0
M  V30 26516 N 2432.95 1.43492 0.651762 0
M  V30 26517 C 2434.2 1.44472 1.40751 0
M  V30 26518 C 2434.51 0.0732189 1.95463 0
M  V30 26519 O 2435.72 -0.0395244 2.71471 0
M  V30 26520 C 2434.18 2.54244 2.54731 0
M  V30 26521 C 2433.78 3.97507 2.06621 0
M  V30 26522 C 2435.53 2.6442 3.32088 0
M  V30 26523 C 2433.44 4.98743 3.1782 0
M  V30 26524 H 2432.37 0.53743 0.528853 0
M  V30 26525 H 2435.02 1.69486 0.703335 0
M  V30 26526 H 2433.4 2.22434 3.27626 0
M  V30 26527 H 2434.57 4.38785 1.40727 0
M  V30 26528 H 2432.89 3.91389 1.42139 0
M  V30 26529 H 2435.48 3.3723 4.14946 0
M  V30 26530 H 2435.83 1.69538 3.80214 0
M  V30 26531 H 2436.36 2.95539 2.66274 0
M  V30 26532 H 2433.1 5.95182 2.74661 0
M  V30 26533 H 2432.62 4.62076 3.82421 0
M  V30 26534 H 2434.3 5.21512 3.82928 0
M  V30 26535 N 2434.43 -0.890264 1.30046 0
M  V30 26536 C 2435.68 -1.64161 1.18564 0
M  V30 26537 C 2436.01 -1.92743 -0.260818 0
M  V30 26538 O 2435.26 -1.54301 -1.20373 0
M  V30 26539 C 2435.56 -2.99246 1.95415 0
M  V30 26540 C 2435.23 -2.90236 3.45071 0
M  V30 26541 C 2433.89 -2.87486 3.85883 0
M  V30 26542 C 2436.24 -2.7875 4.40395 0
M  V30 26543 C 2433.57 -2.71081 5.20319 0
M  V30 26544 C 2435.92 -2.63884 5.74933 0
M  V30 26545 C 2434.58 -2.59505 6.1499 0
M  V30 26546 H 2433.85 -0.600708 0.433856 0
M  V30 26547 H 2436.5 -1.03549 1.6109 0
M  V30 26548 H 2434.81 -3.63778 1.45508 0
M  V30 26549 H 2436.5 -3.56331 1.83927 0
M  V30 26550 H 2433.09 -2.93183 3.12637 0
M  V30 26551 H 2437.28 -2.79945 4.09811 0
M  V30 26552 H 2432.53 -2.66102 5.50454 0
M  V30 26553 H 2436.71 -2.53969 6.48439 0
M  V30 26554 H 2434.33 -2.46552 7.19108 0
M  V30 26555 N 2435.91 -1.12676 -1.1019 0
M  V30 26556 C 2436.84 -0.8194 -2.18651 0
M  V30 26557 C 2437.82 0.217886 -1.68699 0
M  V30 26558 O 2439 0.078524 -1.94041 0
M  V30 26559 C 2436.13 -0.276001 -3.46202 0
M  V30 26560 C 2435.09 -1.24664 -4.09442 0
M  V30 26561 C 2434.41 -0.563352 -5.31724 0
M  V30 26562 C 2435.71 -2.60225 -4.52858 0
M  V30 26563 H 2437.41 -1.72632 -2.44619 0
M  V30 26564 H 2434.95 -0.831472 -1.17569 0
M  V30 26565 H 2436.91 -0.048689 -4.21372 0
M  V30 26566 H 2435.63 0.666275 -3.19732 0
M  V30 26567 H 2434.29 -1.4598 -3.36282 0
M  V30 26568 H 2433.94 0.384147 -5.01531 0
M  V30 26569 H 2433.64 -1.21085 -5.74989 0
M  V30 26570 H 2435.16 -0.345137 -6.09624 0
M  V30 26571 H 2436.58 -2.42922 -5.1929 0
M  V30 26572 H 2434.97 -3.21077 -5.06981 0
M  V30 26573 H 2436.04 -3.18478 -3.6565 0
M  V30 26574 N 2437.39 1.28028 -0.919057 0
M  V30 26575 C 2438.32 2.29532 -0.428622 0
M  V30 26576 C 2439.3 1.62382 0.506561 0
M  V30 26577 O 2440.48 1.89754 0.413162 0
M  V30 26578 C 2437.61 3.45754 0.327328 0
M  V30 26579 C 2436.57 4.24839 -0.519212 0
M  V30 26580 C 2435.89 5.3345 0.365393 0
M  V30 26581 C 2437.19 4.91061 -1.77923 0
M  V30 26582 H 2438.89 2.70805 -1.27692 0
M  V30 26583 H 2436.43 1.30185 -0.615451 0
M  V30 26584 H 2438.39 4.15856 0.681305 0
M  V30 26585 H 2437.11 3.03376 1.20957 0
M  V30 26586 H 2435.77 3.56472 -0.855779 0
M  V30 26587 H 2435.42 4.87314 1.24634 0
M  V30 26588 H 2435.12 5.87268 -0.197459 0
M  V30 26589 H 2436.64 6.06398 0.715134 0
M  V30 26590 H 2438.05 5.53496 -1.49384 0
M  V30 26591 H 2436.45 5.54898 -2.2849 0
M  V30 26592 H 2437.52 4.15251 -2.50389 0
M  V30 26593 N 2438.86 0.683613 1.42002 0
M  V30 26594 C 2439.81 -0.000774523 2.326 0
M  V30 26595 C 2440.81 -0.781252 1.50309 0
M  V30 26596 O 2442.01 -0.688221 1.66324 0
M  V30 26597 H 2438.39 -0.0190484 0.751759 0
M  V30 26598 H 2440.36 0.780578 2.8801 0
M  V30 26599 C 2439.11 -0.931891 3.34979 0
M  V30 26600 H 2438.43 -0.340747 3.98345 0
M  V30 26601 H 2439.87 -1.37929 4.00938 0
M  V30 26602 C 2438.33 -2.04245 2.67929 0
M  V30 26603 O 2438.86 -3.12991 2.51793 0
M  V30 26604 N 2437.07 -1.81671 2.26813 0
M  V30 26605 H 2436.61 -0.932321 2.40136 0
M  V30 26606 H 2436.57 -2.56164 1.82284 0
M  V30 26607 N 2440.34 -1.5169 0.427538 0
M  V30 26608 C 2441.29 -2.27501 -0.388827 0
M  V30 26609 C 2442.26 -1.30679 -1.0253 0
M  V30 26610 O 2443.45 -1.59568 -1.04607 0
M  V30 26611 C 2440.59 -3.11301 -1.48949 0
M  V30 26612 C 2439.7 -4.23105 -0.87212 0
M  V30 26613 C 2438.83 -4.94232 -1.94701 0
M  V30 26614 C 2437.87 -5.97971 -1.30755 0
M  V30 26615 N 2437.01 -6.62543 -2.32338 0
M  V30 26616 H 2441.85 -2.96828 0.264049 0
M  V30 26617 H 2439.39 -1.46412 0.142058 0
M  V30 26618 H 2441.34 -3.58205 -2.13881 0
M  V30 26619 H 2439.97 -2.44108 -2.11213 0
M  V30 26620 H 2439.03 -3.80237 -0.111352 0
M  V30 26621 H 2440.34 -4.97461 -0.365177 0
M  V30 26622 H 2439.49 -5.44634 -2.67317 0
M  V30 26623 H 2438.23 -4.19484 -2.48766 0
M  V30 26624 H 2437.24 -5.46871 -0.566806 0
M  V30 26625 H 2438.46 -6.74671 -0.774365 0
M  V30 26626 H 2436.41 -5.90614 -2.85501 0
M  V30 26627 H 2436.32 -7.32633 -1.86507 0
M  V30 26628 H 2437.59 -7.17579 -3.04468 0
M  V30 26629 N 2441.82 -0.15856 -1.568 0
M  V30 26630 C 2442.77 0.776691 -2.17339 0
M  V30 26631 C 2443.74 1.23599 -1.10962 0
M  V30 26632 O 2444.92 1.30645 -1.39056 0
M  V30 26633 C 2442.06 2.00577 -2.80825 0
M  V30 26634 C 2441.18 1.59122 -4.01627 0
M  V30 26635 C 2440.31 2.77298 -4.53077 0
M  V30 26636 C 2439.35 2.32272 -5.66318 0
M  V30 26637 N 2438.49 3.43497 -6.12335 0
M  V30 26638 H 2443.33 0.253649 -2.96919 0
M  V30 26639 H 2440.86 0.113478 -1.46662 0
M  V30 26640 H 2442.82 2.72647 -3.15784 0
M  V30 26641 H 2441.45 2.50273 -2.03871 0
M  V30 26642 H 2440.5 0.76774 -3.72572 0
M  V30 26643 H 2441.82 1.22061 -4.83635 0
M  V30 26644 H 2440.97 3.57542 -4.90152 0
M  V30 26645 H 2439.71 3.17611 -3.70101 0
M  V30 26646 H 2438.71 1.50471 -5.28809 0
M  V30 26647 H 2439.94 1.93032 -6.51088 0
M  V30 26648 H 2437.89 3.83409 -5.32291 0
M  V30 26649 H 2437.8 3.10488 -6.89299 0
M  V30 26650 H 2439.07 4.24063 -6.54057 0
M  V30 26651 N 2443.3 1.57178 0.115204 0
M  V30 26652 C 2444.55 1.85052 0.822319 0
M  V30 26653 C 2444.87 0.744199 1.797 0
M  V30 26654 O 2444.13 -0.264106 1.9391 0
M  V30 26655 C 2444.43 3.19426 1.60319 0
M  V30 26656 C 2444.09 4.44234 0.772458 0
M  V30 26657 C 2442.76 4.78122 0.543384 0
M  V30 26658 C 2445.11 5.2084 0.193654 0
M  V30 26659 C 2442.44 5.86057 -0.274686 0
M  V30 26660 C 2444.79 6.29636 -0.611628 0
M  V30 26661 C 2443.45 6.62053 -0.850983 0
M  V30 26662 H 2442.72 0.677153 0.300908 0
M  V30 26663 H 2445.37 1.91313 0.0845466 0
M  V30 26664 H 2443.67 3.08757 2.41197 0
M  V30 26665 H 2445.37 3.38215 2.15434 0
M  V30 26666 H 2441.96 4.17685 0.961096 0
M  V30 26667 H 2446.15 4.95008 0.357839 0
M  V30 26668 H 2441.4 6.09596 -0.469313 0
M  V30 26669 H 2445.58 6.88176 -1.06709 0
M  V30 26670 H 2443.2 7.45521 -1.4867 0
M  V30 26671 N 2444.78 -0.38549 1.52813 0
M  V30 26672 C 2446.01 -1.14963 1.7166 0
M  V30 26673 C 2446.42 -1.84101 0.436285 0
M  V30 26674 O 2445.76 -1.7365 -0.599282 0
M  V30 26675 C 2445.82 -2.23838 2.81313 0
M  V30 26676 C 2445.48 -1.74637 4.22316 0
M  V30 26677 C 2446.48 -1.2212 5.05354 0
M  V30 26678 C 2444.17 -1.80753 4.68651 0
M  V30 26679 C 2446.16 -0.763727 6.32808 0
M  V30 26680 C 2443.85 -1.34617 5.96089 0
M  V30 26681 C 2444.85 -0.825145 6.77997 0
M  V30 26682 O 2444.53 -0.370528 8.03046 0
M  V30 26683 H 2444.27 -0.350513 0.578028 0
M  V30 26684 H 2446.82 -0.456474 2.00264 0
M  V30 26685 H 2445.05 -2.96588 2.48138 0
M  V30 26686 H 2446.74 -2.85492 2.88529 0
M  V30 26687 H 2447.5 -1.16749 4.70738 0
M  V30 26688 H 2443.38 -2.20249 4.04983 0
M  V30 26689 H 2446.93 -0.356372 6.96689 0
M  V30 26690 H 2442.82 -1.39675 6.30207 0
M  V30 26691 H 2443.59 -0.491685 8.17022 0
M  V30 26692 N 2446.26 -1.43835 -0.644143 0
M  V30 26693 C 2447.5 -1.45644 -1.40115 0
M  V30 26694 C 2447.82 -0.0852755 -1.94813 0
M  V30 26695 O 2447.09 0.880657 -1.74989 0
M  V30 26696 H 2445.67 -0.536253 -0.520041 0
M  V30 26697 H 2448.34 -1.79511 -0.759069 0
M  V30 26698 H 2447.43 -2.17431 -2.23898 0
M  V30 26699 N 2447.73 0.883355 -1.30517 0
M  V30 26700 C 2448.68 1.98925 -1.17036 0
M  V30 26701 C 2449.65 1.65994 -0.0594533 0
M  V30 26702 O 2450.84 1.8941 -0.229929 0
M  V30 26703 C 2447.98 3.33958 -0.869835 0
M  V30 26704 C 2447.09 3.7957 -2.06278 0
M  V30 26705 C 2446.22 5.03256 -1.7002 0
M  V30 26706 C 2445.26 5.41281 -2.858 0
M  V30 26707 N 2444.4 6.56148 -2.49828 0
M  V30 26708 H 2449.24 2.09788 -2.11644 0
M  V30 26709 H 2446.78 1.02717 -1.05297 0
M  V30 26710 H 2448.73 4.11683 -0.676211 0
M  V30 26711 H 2447.36 3.22776 0.0393764 0
M  V30 26712 H 2446.42 2.9774 -2.3676 0
M  V30 26713 H 2447.73 4.03689 -2.92979 0
M  V30 26714 H 2446.88 5.88612 -1.47042 0
M  V30 26715 H 2445.62 4.81012 -0.804913 0
M  V30 26716 H 2444.63 4.54451 -3.09442 0
M  V30 26717 H 2445.85 5.65497 -3.76018 0
M  V30 26718 H 2443.8 6.35476 -1.62806 0
M  V30 26719 H 2443.71 6.80145 -3.3006 0
M  V30 26720 H 2444.98 7.44731 -2.3021 0
M  V30 26721 O 2449.25 1.25253 1.01951 0
M  V30 26722 H 2449.94 1.03481 1.63742 0
M  V30 END ATOM
M  V30 BEGIN BOND
M  V30 END BOND
M  V30 END CTAB
M  END
$$$$
