drugbank_target|Q86VZ1 P2Y purinoceptor 8 (DB01069)
 OpenBabel12092121213D

  0  0  0     0  0            999 V3000
M  V30 BEGIN CTAB
M  V30 COUNTS 5798 5872 0 0 0
M  V30 BEGIN ATOM
M  V30 1 H -0.908 1.98254 -0.117106 0
M  V30 2 N 0 1.576 0 0
M  V30 3 C 0.933 2.03868 1.02534 0
M  V30 4 C 1.911 0.928543 1.3348 0
M  V30 5 O 3.095 1.19667 1.45644 0
M  V30 6 C 0.222 2.43627 2.35294 0
M  V30 7 C -0.732 3.65373 2.2001 0
M  V30 8 S 0.101 5.13292 1.52614 0
M  V30 9 C 1.257 5.56322 2.86805 0
M  V30 10 H 1.49 2.90518 0.631377 0
M  V30 11 H -0.977 1.52953 0.210867 0
M  V30 12 H 0.981 2.67203 3.11629 0
M  V30 13 H -0.358 1.57376 2.7183 0
M  V30 14 H -1.165 3.90944 3.18086 0
M  V30 15 H -1.563 3.418 1.51819 0
M  V30 16 H 0.729 5.58782 3.83104 0
M  V30 17 H 1.672 6.56266 2.65933 0
M  V30 18 H 2.08 4.83886 2.90714 0
M  V30 19 N 1.4781 -0.272755 1.55222 0
M  V30 20 C 2.4101 -1.35946 1.8453 0
M  V30 21 C 3.4231 -1.45525 0.729818 0
M  V30 22 O 4.6121 -1.47337 1.00767 0
M  V30 23 C 1.7121 -2.74069 1.99347 0
M  V30 24 C 0.8851 -2.87079 3.30007 0
M  V30 25 C -0.0559 -4.05879 3.34886 0
M  V30 26 O -1.0299 -3.96626 4.08261 0
M  V30 27 N 0.1721 -5.17857 2.62307 0
M  V30 28 H 2.9371 -1.11149 2.78327 0
M  V30 29 H 0.4981 -0.462869 1.55142 0
M  V30 30 H 2.4901 -3.51838 1.99981 0
M  V30 31 H 1.0601 -2.91688 1.12415 0
M  V30 32 H 0.2801 -1.96193 3.41909 0
M  V30 33 H 1.5681 -2.92701 4.16177 0
M  V30 34 H 0.9661 -5.28261 2.02377 0
M  V30 35 H -0.4769 -5.93855 2.68663 0
M  V30 36 N 2.9562 -1.48159 -0.537278 0
M  V30 37 C 4.2022 -1.56035 -1.29541 0
M  V30 38 C 4.5352 -0.230377 -1.92829 0
M  V30 39 O 3.8102 0.762952 -1.78911 0
M  V30 40 C 4.0932 -2.69323 -2.39034 0
M  V30 41 C 3.9462 -4.12002 -1.80485 0
M  V30 42 C 5.2652 -2.78408 -3.40847 0
M  V30 43 H 2.3842 -0.567992 -0.469632 0
M  V30 44 H 5.0262 -1.80302 -0.599277 0
M  V30 45 H 3.1762 -2.48763 -2.98412 0
M  V30 46 H 4.8482 -4.43981 -1.25215 0
M  V30 47 H 3.0912 -4.19344 -1.11055 0
M  V30 48 H 3.7622 -4.87077 -2.59731 0
M  V30 49 H 6.2382 -2.97012 -2.91416 0
M  V30 50 H 5.1142 -3.59416 -4.14863 0
M  V30 51 H 5.3752 -1.86269 -4.00944 0
M  V30 52 N 4.4343 0.785586 -1.36625 0
M  V30 53 C 5.8453 1.36101 -1.27803 0
M  V30 54 C 6.1963 1.96035 0.0804875 0
M  V30 55 O 5.3213 1.92834 0.982042 0
M  V30 56 C 5.9163 2.47442 -2.31426 0
M  V30 57 C 4.4753 3.00789 -2.26281 0
M  V30 58 C 3.6223 1.73896 -2.15999 0
M  V30 59 H 6.5733 0.586928 -1.47448 0
M  V30 60 H 6.5943 3.2656 -1.95291 0
M  V30 61 H 6.1063 2.03791 -3.30289 0
M  V30 62 H 4.2073 3.48851 -1.30896 0
M  V30 63 H 4.3203 3.57343 -3.19128 0
M  V30 64 H 2.6843 1.9628 -1.62316 0
M  V30 65 H 3.4673 1.32368 -3.16755 0
M  V30 66 N 5.9124 1.20967 1.01018 0
M  V30 67 C 6.8604 0.961223 2.1181 0
M  V30 68 C 7.8544 -0.0897034 1.69162 0
M  V30 69 O 9.0604 0.0612271 1.79896 0
M  V30 70 H 5.4354 0.29355 0.692338 0
M  V30 71 H 7.4064 1.90178 2.29946 0
M  V30 72 C 6.1554 0.536854 3.4353 0
M  V30 73 H 5.4784 1.33713 3.76777 0
M  V30 74 H 6.9184 0.402286 4.22087 0
M  V30 75 C 5.3774 -0.751574 3.2841 0
M  V30 76 O 5.9074 -1.80841 3.58691 0
M  V30 77 N 4.1134 -0.716079 2.81639 0
M  V30 78 H 3.6604 0.144236 2.57196 0
M  V30 79 H 3.6184 -1.57847 2.71904 0
M  V30 80 N 7.3905 -1.2043 1.01659 0
M  V30 81 C 8.6155 -1.94318 0.724942 0
M  V30 82 C 9.0405 -1.74266 -0.708034 0
M  V30 83 O 8.3985 -1.03694 -1.48719 0
M  V30 84 C 8.4465 -3.44486 1.06591 0
M  V30 85 O 7.5505 -4.12017 0.177599 0
M  V30 86 H 6.8915 -0.60708 0.26898 0
M  V30 87 H 9.4215 -1.52861 1.35995 0
M  V30 88 H 9.4315 -3.95106 1.01762 0
M  V30 89 H 8.1065 -3.58404 2.10997 0
M  V30 90 H 6.6835 -3.71821 0.283421 0
M  V30 91 N 8.8686 -0.792821 -1.36206 0
M  V30 92 C 10.0966 -0.378825 -2.03402 0
M  V30 93 C 10.5116 1.00586 -1.59774 0
M  V30 94 O 9.8686 1.64574 -0.788764 0
M  V30 95 C 9.9196 -0.43683 -3.58851 0
M  V30 96 O 9.6406 -1.76691 -4.00889 0
M  V30 97 C 11.1416 -0.0138943 -4.43298 0
M  V30 98 H 8.3616 -0.155673 -0.652692 0
M  V30 99 H 10.9056 -1.07261 -1.74113 0
M  V30 100 H 9.0606 0.208575 -3.86838 0
M  V30 101 H 9.4746 -1.72011 -4.95492 0
M  V30 102 H 10.9486 -0.105615 -5.51899 0
M  V30 103 H 11.4256 1.03915 -4.2673 0
M  V30 104 H 12.0316 -0.63192 -4.20579 0
M  V30 105 N 10.3467 1.47872 -0.545128 0
M  V30 106 C 11.5947 2.02093 -0.016553 0
M  V30 107 C 11.9157 1.42305 1.3332 0
M  V30 108 O 11.1857 0.593853 1.86682 0
M  V30 109 H 9.7657 0.746993 -0.00313038 0
M  V30 110 H 12.4277 1.81414 -0.712397 0
M  V30 111 H 11.5237 3.11996 0.0805422 0
M  V30 112 N 11.8248 0.280983 1.55075 0
M  V30 113 C 13.2358 -0.215629 1.85451 0
M  V30 114 C 13.5868 -1.54991 1.203 0
M  V30 115 O 12.7118 -2.10699 0.493435 0
M  V30 116 C 13.3068 -0.398026 3.36454 0
M  V30 117 C 11.8658 -0.838866 3.66933 0
M  V30 118 C 11.0128 0.064458 2.77225 0
M  V30 119 H 13.9638 0.502601 1.50531 0
M  V30 120 H 13.9848 -1.23569 3.59876 0
M  V30 121 H 13.4968 0.573241 3.83843 0
M  V30 122 H 11.5978 -1.8214 3.25048 0
M  V30 123 H 11.7108 -0.672123 4.74362 0
M  V30 124 H 10.0748 -0.452863 2.50642 0
M  V30 125 H 10.8578 1.03172 3.2743 0
M  V30 126 N 13.3029 -1.57598 0.00835791 0
M  V30 127 C 14.5799 -1.82172 -0.712235 0
M  V30 128 C 14.9599 -0.887873 -1.9152 0
M  V30 129 O 14.3079 0.06146 -2.28417 0
M  V30 130 C 14.5179 -3.30875 -1.11008 0
M  V30 131 C 15.8659 -3.96826 -1.51044 0
M  V30 132 O 16.8899 -3.35248 -1.20364 0
M  V30 133 O 15.7489 -5.05318 -2.08125 0
M  V30 134 H 12.8429 -0.750435 -0.347529 0
M  V30 135 H 15.3889 -1.69665 0.0344523 0
M  V30 136 H 14.1609 -3.90481 -0.252982 0
M  V30 137 H 13.7839 -3.48412 -1.9156 0
M  V30 138 N 14.781 0.264519 -1.55364 0
M  V30 139 C 15.729 1.34702 -1.89626 0
M  V30 140 C 16.723 1.50712 -0.773459 0
M  V30 141 O 17.929 1.52395 -0.957897 0
M  V30 142 H 14.304 0.450682 -0.601988 0
M  V30 143 H 16.275 1.0306 -2.80038 0
M  V30 144 C 15.024 2.6989 -2.19214 0
M  V30 145 H 14.347 2.58365 -3.05103 0
M  V30 146 H 15.787 3.44553 -2.47102 0
M  V30 147 C 14.246 3.21637 -1.00254 0
M  V30 148 O 14.776 4.00973 -0.241501 0
M  V30 149 N 12.982 2.7943 -0.797938 0
M  V30 150 H 12.529 2.15026 -1.4185 0
M  V30 151 H 12.487 3.144 -0.00363422 0
M  V30 152 N 16.2591 1.48442 0.529413 0
M  V30 153 C 17.2221 1.62524 1.61612 0
M  V30 154 C 18.2221 0.498509 1.52877 0
M  V30 155 O 19.4121 0.76431 1.56537 0
M  V30 156 C 16.5441 1.59597 3.01233 0
M  V30 157 H 17.7371 2.59423 1.50465 0
M  V30 158 H 15.2901 1.37047 0.751514 0
M  V30 159 H 16.0251 0.641781 3.17886 0
M  V30 160 H 15.8101 2.41397 3.08982 0
M  V30 161 H 17.3001 1.72646 3.80241 0
M  V30 162 N 17.7372 -0.778329 1.37039 0
M  V30 163 C 18.9652 -1.56734 1.35063 0
M  V30 164 C 19.3802 -1.88686 -0.0655597 0
M  V30 165 O 18.7372 -1.5096 -1.02554 0
M  V30 166 C 18.7882 -2.88163 2.18276 0
M  V30 167 O 18.5092 -2.57583 3.54376 0
M  V30 168 C 20.0102 -3.82422 2.24206 0
M  V30 169 H 17.2302 -0.485778 0.462883 0
M  V30 170 H 19.7742 -0.965185 1.8029 0
M  V30 171 H 17.9292 -3.44818 1.76576 0
M  V30 172 H 18.3432 -3.41699 3.97922 0
M  V30 173 H 19.8172 -4.71667 2.86765 0
M  V30 174 H 20.2942 -4.21078 1.24861 0
M  V30 175 H 20.9002 -3.31697 2.6619 0
M  V30 176 N 19.2153 -1.21501 -1.00376 0
M  V30 177 C 20.1453 -0.999478 -2.11028 0
M  V30 178 C 21.1263 0.0759671 -1.6993 0
M  V30 179 O 22.3113 -0.0841106 -1.94018 0
M  V30 180 C 19.4413 -0.564709 -3.42678 0
M  V30 181 C 18.3953 -1.58486 -3.97576 0
M  V30 182 C 17.7213 -1.00628 -5.25146 0
M  V30 183 C 19.0213 -2.97204 -4.29496 0
M  V30 184 H 20.7153 -1.92495 -2.29317 0
M  V30 185 H 18.2613 -0.92693 -1.102 0
M  V30 186 H 20.2143 -0.401091 -4.19487 0
M  V30 187 H 18.9383 0.396411 -3.24185 0
M  V30 188 H 17.5973 -1.73606 -3.22888 0
M  V30 189 H 17.2453 -0.0368439 -5.02987 0
M  V30 190 H 16.9453 -1.68771 -5.62841 0
M  V30 191 H 18.4693 -0.854015 -6.04598 0
M  V30 192 H 19.8833 -2.8552 -4.97143 0
M  V30 193 H 18.2803 -3.62372 -4.78338 0
M  V30 194 H 19.3503 -3.47956 -3.3772 0
M  V30 195 N 20.6934 1.19889 -1.02296 0
M  V30 196 C 21.6254 2.22334 -0.556787 0
M  V30 197 C 22.6384 1.58674 0.364199 0
M  V30 198 O 23.8274 1.77768 0.161533 0
M  V30 199 C 20.9274 3.38257 0.208694 0
M  V30 200 C 20.1004 4.31504 -0.71577 0
M  V30 201 C 19.1594 5.262 0.00325597 0
M  V30 202 O 18.1854 5.65798 -0.621357 0
M  V30 203 N 19.3874 5.66303 1.27599 0
M  V30 204 H 22.1524 2.62957 -1.43784 0
M  V30 205 H 19.7134 1.34495 -0.901261 0
M  V30 206 H 21.7054 3.98616 0.699111 0
M  V30 207 H 20.2754 2.96472 0.991102 0
M  V30 208 H 19.4954 3.69016 -1.38638 0
M  V30 209 H 20.7834 4.9072 -1.34428 0
M  V30 210 H 20.1814 5.36155 1.80429 0
M  V30 211 H 18.7384 6.28942 1.71102 0
M  V30 212 N 22.1715 0.800033 1.35784 0
M  V30 213 C 23.1045 0.151499 2.27697 0
M  V30 214 C 24.0825 -0.678663 1.4776 0
M  V30 215 O 25.2665 -0.647358 1.77035 0
M  V30 216 C 22.3935 -0.790492 3.29346 0
M  V30 217 C 21.4395 -0.0407832 4.26481 0
M  V30 218 S 22.2725 1.29077 5.19711 0
M  V30 219 C 23.4285 0.353055 6.24903 0
M  V30 220 H 23.6615 0.930796 2.82353 0
M  V30 221 H 21.1945 0.594767 1.42485 0
M  V30 222 H 23.1525 -1.3285 3.88409 0
M  V30 223 H 21.8135 -1.54312 2.73581 0
M  V30 224 H 21.0065 -0.755971 4.98298 0
M  V30 225 H 20.6085 0.427063 3.71554 0
M  V30 226 H 22.9005 -0.464147 6.75908 0
M  V30 227 H 23.8435 1.04023 7.00418 0
M  V30 228 H 24.2515 -0.0483344 5.64479 0
M  V30 229 N 23.6496 -1.47581 0.552962 0
M  V30 230 C 24.5796 -2.32762 -0.185451 0
M  V30 231 C 25.5606 -1.43527 -0.912905 0
M  V30 232 O 26.7456 -1.72388 -0.894201 0
M  V30 233 C 23.8756 -3.25219 -1.21859 0
M  V30 234 C 22.8296 -4.23661 -0.607864 0
M  V30 235 C 22.1556 -5.05413 -1.74533 0
M  V30 236 C 23.4556 -5.20481 0.435582 0
M  V30 237 H 25.1496 -2.94749 0.525684 0
M  V30 238 H 22.6956 -1.41738 0.254251 0
M  V30 239 H 24.6486 -3.8365 -1.7433 0
M  V30 240 H 23.3726 -2.61279 -1.95961 0
M  V30 241 H 22.0316 -3.66451 -0.104489 0
M  V30 242 H 21.6796 -4.3788 -2.47529 0
M  V30 243 H 21.3796 -5.72059 -1.34249 0
M  V30 244 H 22.9036 -5.66701 -2.27338 0
M  V30 245 H 24.3176 -5.733 -0.00290157 0
M  V30 246 H 22.7146 -5.95305 0.757067 0
M  V30 247 H 23.7846 -4.66217 1.33303 0
M  V30 248 N 25.1277 -0.289203 -1.54924 0
M  V30 249 C 26.5437 0.0645403 -1.59469 0
M  V30 250 C 26.7437 1.53419 -1.30632 0
M  V30 251 O 25.7997 2.2852 -1.074 0
M  V30 252 C 27.1127 -0.32278 -2.98963 0
M  V30 253 C 28.6607 -0.270564 -3.11828 0
M  V30 254 C 29.1357 -0.632532 -4.53611 0
M  V30 255 N 30.6267 -0.584617 -4.59496 0
M  V30 256 C 31.3617 -0.837314 -5.67254 0
M  V30 257 N 30.8577 -1.15536 -6.83098 0
M  V30 258 N 32.6507 -0.765166 -5.56868 0
M  V30 259 H 24.8017 -1.24714 -1.71931 0
M  V30 260 H 27.0647 -0.504809 -0.802416 0
M  V30 261 H 26.7707 -1.34541 -3.24948 0
M  V30 262 H 26.6447 0.32944 -3.75759 0
M  V30 263 H 29.0317 0.742805 -2.85598 0
M  V30 264 H 29.1127 -0.957242 -2.37214 0
M  V30 265 H 28.7567 -1.64365 -4.80569 0
M  V30 266 H 28.6867 0.07609 -5.26545 0
M  V30 267 H 31.1777 -0.349248 -3.76283 0
M  V30 268 H 31.4907 -1.33447 -7.61191 0
M  V30 269 H 29.8357 -1.19328 -6.84679 0
M  V30 270 H 33.0267 -0.516432 -4.65243 0
M  V30 271 H 33.1997 -0.965477 -6.40767 0
M  V30 272 N 26.6058 1.57591 -0.0167156 0
M  V30 273 C 27.5538 2.10604 0.987353 0
M  V30 274 C 28.5478 1.02977 1.34507 0
M  V30 275 O 29.7538 1.21425 1.32875 0
M  V30 276 H 26.1288 0.672695 0.336134 0
M  V30 277 H 28.0998 2.93925 0.514817 0
M  V30 278 C 26.8488 2.6382 2.26483 0
M  V30 279 H 26.1718 3.46278 1.99829 0
M  V30 280 H 27.6118 3.04573 2.94977 0
M  V30 281 C 26.0708 1.55992 2.9861 0
M  V30 282 O 26.6008 0.952521 3.90243 0
M  V30 283 N 24.8068 1.28335 2.60727 0
M  V30 284 H 24.3538 1.77914 1.86291 0
M  V30 285 H 24.3118 0.564115 3.09298 0
M  V30 286 N 28.0839 -0.256276 1.55502 0
M  V30 287 C 29.4949 -0.826068 1.67431 0
M  V30 288 C 29.8459 -1.86396 0.612446 0
M  V30 289 O 28.9709 -2.15031 -0.243025 0
M  V30 290 C 29.5659 -1.50512 3.03532 0
M  V30 291 C 28.1249 -2.02273 3.17431 0
M  V30 292 C 27.2719 -0.870548 2.63281 0
M  V30 293 H 30.2229 -0.0322728 1.58667 0
M  V30 294 H 30.2439 -2.37279 2.97454 0
M  V30 295 H 29.7559 -0.749484 3.80794 0
M  V30 296 H 27.8569 -2.80746 2.44974 0
M  V30 297 H 27.9699 -2.22655 4.24219 0
M  V30 298 H 26.3339 -1.26851 2.20864 0
M  V30 299 H 27.1169 -0.128149 3.43061 0
M  V30 300 N 29.562 -1.4872 -0.521534 0
M  V30 301 C 30.525 -1.63379 -1.60748 0
M  V30 302 C 31.525 -0.50661 -1.52611 0
M  V30 303 O 32.715 -0.772601 -1.5613 0
M  V30 304 C 29.847 -1.61192 -3.00383 0
M  V30 305 H 31.04 -2.60217 -1.49087 0
M  V30 306 H 28.593 -1.37444 -0.744235 0
M  V30 307 H 29.328 -0.65863 -3.17541 0
M  V30 308 H 29.113 -2.43032 -3.07698 0
M  V30 309 H 30.603 -1.7466 -3.7932 0
M  V30 310 N 31.0401 0.771051 -1.3745 0
M  V30 311 C 32.2891 1.52491 -1.3202 0
M  V30 312 C 32.6021 1.9538 0.0927347 0
M  V30 313 O 33.8081 2.70159 0.269503 0
M  V30 314 C 32.2641 2.75366 -2.31736 0
M  V30 315 C 31.8721 2.39573 -3.78562 0
M  V30 316 C 33.6161 3.53307 -2.35318 0
M  V30 317 C 31.5231 3.58954 -4.70007 0
M  V30 318 H 30.4531 0.572506 -0.490666 0
M  V30 319 H 33.1041 0.844474 -1.62914 0
M  V30 320 H 31.4861 3.45303 -1.93861 0
M  V30 321 H 32.6601 1.77415 -4.25277 0
M  V30 322 H 30.9751 1.74805 -3.77932 0
M  V30 323 H 33.5721 4.42039 -3.00842 0
M  V30 324 H 33.9151 3.93217 -1.36698 0
M  V30 325 H 34.4481 2.90367 -2.71904 0
M  V30 326 H 31.1871 3.24125 -5.69757 0
M  V30 327 H 30.7071 4.20214 -4.27996 0
M  V30 328 H 32.3861 4.25758 -4.87175 0
M  V30 329 N 32.5182 1.22032 0.997298 0
M  V30 330 C 33.4812 0.987909 2.06816 0
M  V30 331 C 34.4812 -0.0440084 1.6074 0
M  V30 332 O 35.6712 0.194053 1.73116 0
M  V30 333 C 32.8032 0.49132 3.37341 0
M  V30 334 H 33.9962 1.93803 2.28868 0
M  V30 335 H 31.5492 1.03838 1.16822 0
M  V30 336 H 32.2842 -0.463364 3.20973 0
M  V30 337 H 32.0692 1.23575 3.72118 0
M  V30 338 H 33.5592 0.348824 4.16141 0
M  V30 339 N 33.9963 -1.19345 1.0293 0
M  V30 340 C 35.2423 -1.89318 0.727083 0
M  V30 341 C 35.5753 -1.79446 -0.742483 0
M  V30 342 O 34.8503 -1.1871 -1.54072 0
M  V30 343 C 35.1333 -3.40238 1.17942 0
M  V30 344 C 34.9863 -3.58979 2.71024 0
M  V30 345 C 36.3053 -4.33479 0.760548 0
M  V30 346 H 33.4243 -0.687475 0.265606 0
M  V30 347 H 36.0663 -1.40477 1.2793 0
M  V30 348 H 34.2163 -3.81964 0.709608 0
M  V30 349 H 35.8883 -3.26421 3.25955 0
M  V30 350 H 34.1313 -3.02018 3.11396 0
M  V30 351 H 34.8023 -4.64823 2.9773 0
M  V30 352 H 37.2783 -3.99469 1.16464 0
M  V30 353 H 36.1543 -5.37664 1.10493 0
M  V30 354 H 36.4153 -4.40813 -0.337063 0
M  V30 355 N 35.4744 -0.807222 -1.35358 0
M  V30 356 C 36.4374 -0.223665 -2.28106 0
M  V30 357 C 37.4374 0.589354 -1.4961 0
M  V30 358 O 38.6274 0.407745 -1.69361 0
M  V30 359 C 35.7594 0.688149 -3.33882 0
M  V30 360 H 36.9524 -1.04169 -2.81227 0
M  V30 361 H 34.5054 -0.577921 -1.45223 0
M  V30 362 H 35.2404 1.52984 -2.85948 0
M  V30 363 H 35.0254 0.10687 -3.91954 0
M  V30 364 H 36.5154 1.09075 -4.03104 0
M  V30 365 N 36.9525 1.47285 -0.560781 0
M  V30 366 C 37.8825 2.32857 0.173105 0
M  V30 367 C 38.8635 1.44009 0.905281 0
M  V30 368 O 40.0485 1.7286 0.885046 0
M  V30 369 C 37.1785 3.25861 1.20133 0
M  V30 370 C 36.1325 4.23978 0.585388 0
M  V30 371 C 35.4585 5.06332 1.7185 0
M  V30 372 C 36.7585 5.20242 -0.463178 0
M  V30 373 H 38.4525 2.94466 -0.541307 0
M  V30 374 H 35.9985 1.41601 -0.261764 0
M  V30 375 H 37.9515 3.84569 1.72293 0
M  V30 376 H 36.6755 2.62315 1.94573 0
M  V30 377 H 35.3345 3.66501 0.085054 0
M  V30 378 H 34.9825 4.39186 2.45203 0
M  V30 379 H 34.6825 5.72762 1.31213 0
M  V30 380 H 36.2065 5.67899 2.24329 0
M  V30 381 H 37.6205 5.73293 -0.027502 0
M  V30 382 H 36.0175 5.94896 -0.788627 0
M  V30 383 H 37.0875 4.65504 -1.35773 0
M  V30 384 N 38.4306 0.297415 1.54768 0
M  V30 385 C 39.8416 -0.195947 1.85669 0
M  V30 386 C 40.1926 -1.53707 1.21937 0
M  V30 387 O 39.3176 -2.10164 0.515754 0
M  V30 388 C 39.9126 -0.362318 3.36857 0
M  V30 389 C 38.4716 -0.799901 3.67802 0
M  V30 390 C 37.6186 0.0938578 2.77141 0
M  V30 391 H 40.5696 0.518538 1.4999 0
M  V30 392 H 40.5906 -1.19745 3.61167 0
M  V30 393 H 40.1026 0.613921 3.83214 0
M  V30 394 H 38.2036 -1.78682 3.26961 0
M  V30 395 H 38.3166 -0.621773 4.75048 0
M  V30 396 H 36.6806 -0.426254 2.51108 0
M  V30 397 H 37.4636 1.06639 3.26318 0
M  V30 398 N 39.9087 -1.5758 0.0250728 0
M  V30 399 C 41.1547 -1.91917 -0.655413 0
M  V30 400 C 41.4877 -0.901433 -1.72011 0
M  V30 401 O 40.7627 0.0764069 -1.9435 0
M  V30 402 C 41.0457 -3.36751 -1.27558 0
M  V30 403 C 40.8987 -4.49258 -0.220719 0
M  V30 404 C 42.2177 -3.81469 -2.19475 0
M  V30 405 H 39.3367 -0.697925 -0.23679 0
M  V30 406 H 41.9787 -1.89825 0.0815036 0
M  V30 407 H 40.1287 -3.38664 -1.90365 0
M  V30 408 H 41.8007 -4.59478 0.409601 0
M  V30 409 H 40.0437 -4.31415 0.454264 0
M  V30 410 H 40.7147 -5.47618 -0.694175 0
M  V30 411 H 43.1907 -3.81266 -1.66659 0
M  V30 412 H 42.0667 -4.83512 -2.59822 0
M  V30 413 H 42.3277 -3.16744 -3.08424 0
M  V30 414 N 41.3868 0.248026 -1.55636 0
M  V30 415 C 42.6328 0.97767 -1.77678 0
M  V30 416 C 42.9658 1.85016 -0.590135 0
M  V30 417 O 42.2408 1.90095 0.411611 0
M  V30 418 C 42.5238 1.83914 -3.09593 0
M  V30 419 C 42.3768 0.99491 -4.38659 0
M  V30 420 C 43.6958 2.82183 -3.37729 0
M  V30 421 H 40.8148 0.354005 -0.646413 0
M  V30 422 H 43.4568 0.248253 -1.88371 0
M  V30 423 H 41.6068 2.46104 -3.00608 0
M  V30 424 H 43.2788 0.391789 -4.59633 0
M  V30 425 H 41.5218 0.299231 -4.32767 0
M  V30 426 H 42.1928 1.63145 -5.2734 0
M  V30 427 H 44.6688 2.30129 -3.4667 0
M  V30 428 H 43.5448 3.39582 -4.31249 0
M  V30 429 H 43.8058 3.58588 -2.58586 0
M  V30 430 N 42.8649 1.48995 0.513639 0
M  V30 431 C 44.0949 1.61297 1.291 0
M  V30 432 C 44.5029 0.278656 1.87137 0
M  V30 433 O 43.8459 -0.744325 1.67945 0
M  V30 434 C 43.9079 2.61326 2.46879 0
M  V30 435 C 43.5719 4.05993 2.09807 0
M  V30 436 C 44.5689 4.93183 1.64519 0
M  V30 437 C 42.2539 4.51642 2.19829 0
M  V30 438 C 44.2479 6.24056 1.2974 0
M  V30 439 C 41.9349 5.82532 1.84662 0
M  V30 440 C 42.9329 6.68562 1.3969 0
M  V30 441 O 42.6209 7.97014 1.04992 0
M  V30 442 H 42.3529 0.546236 0.39825 0
M  V30 443 H 44.9069 1.95673 0.62459 0
M  V30 444 H 43.1369 2.22104 3.16554 0
M  V30 445 H 44.8259 2.6329 3.08923 0
M  V30 446 H 45.5919 4.59147 1.56233 0
M  V30 447 H 41.4709 3.84855 2.53786 0
M  V30 448 H 45.0149 6.91161 0.945659 0
M  V30 449 H 40.9119 6.16099 1.92594 0
M  V30 450 H 41.6799 8.09913 1.18249 0
M  V30 451 N 44.343 -0.763751 1.37857 0
M  V30 452 C 45.568 -1.55805 1.36893 0
M  V30 453 C 45.993 -1.88054 -0.0416135 0
M  V30 454 O 45.351 -1.49825 -1.02089 0
M  V30 455 C 45.399 -2.84012 2.22192 0
M  V30 456 O 44.503 -3.78732 1.63204 0
M  V30 457 H 43.844 -0.471638 0.46739 0
M  V30 458 H 46.374 -0.944657 1.81487 0
M  V30 459 H 46.384 -3.33037 2.35691 0
M  V30 460 H 45.059 -2.59869 3.24716 0
M  V30 461 H 43.636 -3.37402 1.58791 0
M  V30 462 N 45.8211 -1.22559 -0.990812 0
M  V30 463 C 46.7511 -1.0218 -2.09956 0
M  V30 464 C 47.7321 0.0579394 -1.70001 0
M  V30 465 O 48.9171 -0.104684 -1.93918 0
M  V30 466 C 46.0471 -0.601023 -3.4206 0
M  V30 467 C 45.0011 -1.62694 -3.95872 0
M  V30 468 C 44.3271 -1.06193 -5.24049 0
M  V30 469 C 45.6271 -3.01743 -4.2632 0
M  V30 470 H 47.3211 -1.94916 -2.27262 0
M  V30 471 H 44.8671 -0.938566 -1.09211 0
M  V30 472 H 46.8201 -0.445561 -4.19038 0
M  V30 473 H 45.5441 0.362005 -3.24588 0
M  V30 474 H 44.2031 -1.77021 -3.21028 0
M  V30 475 H 43.8511 -0.0901903 -5.02919 0
M  V30 476 H 43.5511 -1.74732 -5.61019 0
M  V30 477 H 45.0751 -0.918092 -6.03658 0
M  V30 478 H 46.4891 -2.90777 -4.94087 0
M  V30 479 H 44.8861 -3.67425 -4.74467 0
M  V30 480 H 45.9561 -3.51518 -3.34011 0
M  V30 481 N 47.2992 1.18797 -1.03562 0
M  V30 482 C 48.5452 1.8893 -0.737113 0
M  V30 483 C 48.8782 1.79837 0.732956 0
M  V30 484 O 48.1532 1.19525 1.5344 0
M  V30 485 C 48.4362 3.39607 -1.19745 0
M  V30 486 C 48.2892 3.57537 -2.72924 0
M  V30 487 C 49.6082 4.33069 -0.783526 0
M  V30 488 H 46.7272 0.686057 -0.269249 0
M  V30 489 H 49.3692 1.39797 -1.28673 0
M  V30 490 H 47.5192 3.81583 -0.729855 0
M  V30 491 H 49.1912 3.24688 -3.27682 0
M  V30 492 H 47.4342 3.00363 -3.12993 0
M  V30 493 H 48.1052 4.63238 -3.00191 0
M  V30 494 H 50.5812 3.98846 -1.18581 0
M  V30 495 H 49.4572 5.3707 -1.13343 0
M  V30 496 H 49.7182 4.40986 0.313681 0
M  V30 497 N 48.7773 0.814389 1.34928 0
M  V30 498 C 49.7403 0.235759 2.27984 0
M  V30 499 C 50.7403 -0.581412 1.49921 0
M  V30 500 O 51.9303 -0.398758 1.69575 0
M  V30 501 C 49.0623 -0.670433 3.34242 0
M  V30 502 H 50.2553 1.05659 2.80671 0
M  V30 503 H 47.8083 0.585614 1.44915 0
M  V30 504 H 48.5433 -1.51466 2.86755 0
M  V30 505 H 48.3283 -0.0860822 3.92005 0
M  V30 506 H 49.8183 -1.06935 4.03676 0
M  V30 507 N 50.2554 -1.46986 0.568584 0
M  V30 508 C 51.2184 -2.28624 -0.162366 0
M  V30 509 C 52.2184 -1.37596 -0.832103 0
M  V30 510 O 53.4084 -1.60115 -0.68622 0
M  V30 511 C 50.5404 -3.17596 -1.23878 0
M  V30 512 H 51.7334 -2.94722 0.554899 0
M  V30 513 H 49.2864 -1.52863 0.325976 0
M  V30 514 H 50.0214 -2.56214 -1.98808 0
M  V30 515 H 49.8064 -3.846 -0.763219 0
M  V30 516 H 51.2964 -3.79078 -1.75185 0
M  V30 517 N 51.7335 -0.305618 -1.54608 0
M  V30 518 C 52.9795 0.302746 -2.00528 0
M  V30 519 C 53.3125 1.53184 -1.19367 0
M  V30 520 O 52.5875 1.92598 -0.271321 0
M  V30 521 C 52.8705 0.654756 -3.54097 0
M  V30 522 C 52.7235 -0.583793 -4.45995 0
M  V30 523 C 54.0425 1.47947 -4.14487 0
M  V30 524 H 51.1615 0.108564 -0.72896 0
M  V30 525 H 53.8035 -0.418634 -1.85331 0
M  V30 526 H 51.9535 1.26935 -3.67178 0
M  V30 527 H 53.6255 -1.22224 -4.44814 0
M  V30 528 H 51.8685 -1.21615 -4.16404 0
M  V30 529 H 52.5395 -0.293287 -5.5122 0
M  V30 530 H 55.0155 0.96013 -4.04871 0
M  V30 531 H 53.8915 1.69454 -5.22088 0
M  V30 532 H 54.1525 2.47011 -3.66658 0
M  V30 533 N 53.2116 1.57565 -0.0334293 0
M  V30 534 C 54.4366 1.96689 0.657895 0
M  V30 535 C 54.8616 0.910057 1.64619 0
M  V30 536 O 54.2196 -0.128598 1.80843 0
M  V30 537 C 54.2676 3.34905 1.33683 0
M  V30 538 O 53.3716 3.31574 2.45219 0
M  V30 539 H 52.7126 0.641205 0.172489 0
M  V30 540 H 55.2426 2.04372 -0.0965621 0
M  V30 541 H 55.2526 3.71234 1.69262 0
M  V30 542 H 53.9276 4.11366 0.612411 0
M  V30 543 H 52.5046 3.06968 2.11719 0
M  V30 544 N 54.6897 -0.239769 1.55765 0
M  V30 545 C 55.9387 -0.964754 1.77131 0
M  V30 546 C 56.2517 -1.86213 0.59868 0
M  V30 547 O 57.4577 -2.6244 0.695522 0
M  V30 548 C 55.9137 -1.76552 3.1362 0
M  V30 549 C 55.5217 -0.915185 4.38553 0
M  V30 550 C 57.2657 -2.48281 3.44321 0
M  V30 551 C 55.1727 -1.71225 5.66071 0
M  V30 552 H 54.1027 -0.363953 0.660344 0
M  V30 553 H 56.7537 -0.219181 1.82186 0
M  V30 554 H 55.1357 -2.55331 3.02691 0
M  V30 555 H 56.3097 -0.169217 4.60489 0
M  V30 556 H 54.6247 -0.310889 4.15238 0
M  V30 557 H 57.2217 -3.08382 4.36812 0
M  V30 558 H 57.5647 -3.20256 2.65973 0
M  V30 559 H 58.0977 -1.76507 3.56497 0
M  V30 560 H 54.8367 -1.03612 6.4726 0
M  V30 561 H 54.3567 -2.43331 5.48224 0
M  V30 562 H 56.0357 -2.27758 6.05587 0
M  V30 563 N 56.1678 -1.49265 -0.50573 0
M  V30 564 C 57.5788 -1.51769 -1.08734 0
M  V30 565 C 57.9298 -0.301192 -1.93874 0
M  V30 566 O 57.0548 0.589456 -2.08217 0
M  V30 567 C 57.6498 -2.75017 -1.97867 0
M  V30 568 C 56.2088 -2.80314 -2.51199 0
M  V30 569 C 55.3558 -2.4562 -1.28709 0
M  V30 570 H 58.3068 -1.56031 -0.289855 0
M  V30 571 H 58.3278 -2.5491 -2.82491 0
M  V30 572 H 57.8398 -3.63539 -1.35873 0
M  V30 573 H 55.9408 -1.96061 -3.16845 0
M  V30 574 H 56.0538 -3.82366 -2.88675 0
M  V30 575 H 54.4178 -1.97297 -1.61078 0
M  V30 576 H 55.2008 -3.36411 -0.6843 0
M  V30 577 N 57.6459 0.756429 -1.3826 0
M  V30 578 C 58.8939 1.51248 -1.34047 0
M  V30 579 C 59.2149 1.94875 0.0698372 0
M  V30 580 O 58.4849 1.67436 1.01696 0
M  V30 581 H 57.0649 0.561018 -0.493222 0
M  V30 582 H 59.7269 0.899347 -1.7291 0
M  V30 583 H 58.8229 2.40472 -1.98947 0
M  V30 584 N 59.124 1.23083 0.984299 0
M  V30 585 C 60.072 1.00593 2.09723 0
M  V30 586 C 61.066 -0.0538014 1.69315 0
M  V30 587 O 62.272 0.0993719 1.79725 0
M  V30 588 H 58.647 0.30817 0.685956 0
M  V30 589 H 60.618 1.95012 2.2586 0
M  V30 590 C 59.367 0.609601 3.42314 0
M  V30 591 H 58.69 1.41675 3.73856 0
M  V30 592 H 60.13 0.491726 4.21139 0
M  V30 593 C 58.589 -0.681745 3.2993 0
M  V30 594 O 59.119 -1.73192 3.62446 0
M  V30 595 N 57.325 -0.656178 2.83095 0
M  V30 596 H 56.872 0.198759 2.56832 0
M  V30 597 H 56.83 -1.52044 2.75191 0
M  V30 598 N 60.6021 -1.18246 1.0419 0
M  V30 599 C 61.5321 -2.24127 0.654914 0
M  V30 600 C 62.5131 -1.66617 -0.342451 0
M  V30 601 O 63.6981 -1.92924 -0.222277 0
M  V30 602 C 60.8281 -3.47295 0.0183757 0
M  V30 603 C 59.7821 -4.17563 0.939414 0
M  V30 604 C 59.1081 -5.34438 0.167286 0
M  V30 605 C 60.4081 -4.70917 2.25908 0
M  V30 606 H 62.1021 -2.56753 1.54007 0
M  V30 607 H 59.6481 -1.23414 0.74195 0
M  V30 608 H 61.6011 -4.20572 -0.264082 0
M  V30 609 H 60.3251 -3.13907 -0.901664 0
M  V30 610 H 58.9841 -3.46186 1.20628 0
M  V30 611 H 58.6321 -4.97298 -0.7552 0
M  V30 612 H 58.3321 -5.82388 0.780901 0
M  V30 613 H 59.8561 -6.10504 -0.108125 0
M  V30 614 H 61.2701 -5.35882 2.03724 0
M  V30 615 H 59.6671 -5.29406 2.82577 0
M  V30 616 H 60.7371 -3.88272 2.9047 0
M  V30 617 N 62.0802 -0.821533 -1.34494 0
M  V30 618 C 63.3272 -0.408946 -1.98328 0
M  V30 619 C 63.6552 1.02764 -1.65136 0
M  V30 620 O 62.9102 1.73026 -0.914349 0
M  V30 621 C 63.2092 -0.556512 -3.53041 0
M  V30 622 C 62.8752 -1.95861 -4.0614 0
M  V30 623 C 61.5372 -2.34217 -4.20352 0
M  V30 624 C 63.8892 -2.87523 -4.34718 0
M  V30 625 C 61.2172 -3.63572 -4.6047 0
M  V30 626 C 63.5692 -4.1634 -4.76281 0
M  V30 627 C 62.2332 -4.54675 -4.88699 0
M  V30 628 H 61.5032 -0.149644 -0.725732 0
M  V30 629 H 64.1502 -1.04521 -1.6046 0
M  V30 630 H 62.4552 0.163148 -3.9146 0
M  V30 631 H 64.1522 -0.217826 -4.00408 0
M  V30 632 H 60.7422 -1.65066 -3.95539 0
M  V30 633 H 64.9262 -2.59133 -4.23277 0
M  V30 634 H 60.1822 -3.93101 -4.68275 0
M  V30 635 H 64.3562 -4.87455 -4.97354 0
M  V30 636 H 61.9832 -5.54959 -5.19542 0
M  V30 637 N 63.5583 1.46682 -0.576371 0
M  V30 638 C 64.7833 2.07304 -0.0630475 0
M  V30 639 C 65.2083 1.42329 1.2298 0
M  V30 640 O 64.5663 0.504865 1.74129 0
M  V30 641 C 64.6143 3.60472 0.095895 0
M  V30 642 O 63.7183 3.95927 1.15394 0
M  V30 643 H 63.0593 0.661288 -0.0599463 0
M  V30 644 H 65.5893 1.88417 -0.797511 0
M  V30 645 H 65.5993 4.06865 0.304071 0
M  V30 646 H 64.2743 4.07157 -0.84828 0
M  V30 647 H 62.8513 3.61252 0.924724 0
M  V30 648 N 65.0364 0.313813 1.54444 0
M  V30 649 C 65.9664 -0.549454 2.26943 0
M  V30 650 C 66.9474 -1.12741 1.27372 0
M  V30 651 O 68.1324 -1.15436 1.56167 0
M  V30 652 C 65.2624 -1.71523 3.01989 0
M  V30 653 C 64.2164 -1.26703 4.08816 0
M  V30 654 C 63.5424 -2.51898 4.71647 0
M  V30 655 C 64.8424 -0.388962 5.2085 0
M  V30 656 H 66.5364 0.0552661 2.99349 0
M  V30 657 H 64.0824 0.0280207 1.43973 0
M  V30 658 H 66.0354 -2.32535 3.51433 0
M  V30 659 H 64.7594 -2.34639 2.27183 0
M  V30 660 H 63.4184 -0.679896 3.6024 0
M  V30 661 H 63.0664 -3.13356 3.93468 0
M  V30 662 H 62.7664 -2.22605 5.43802 0
M  V30 663 H 64.2904 -3.1369 5.23861 0
M  V30 664 H 65.7044 -0.905107 5.6611 0
M  V30 665 H 64.1014 -0.18924 5.99802 0
M  V30 666 H 65.1714 0.582699 4.81386 0
M  V30 667 N 66.5145 -1.57545 0.0417849 0
M  V30 668 C 67.7605 -1.93424 -0.629168 0
M  V30 669 C 68.1155 -0.919564 -1.69002 0
M  V30 670 O 67.4085 0.0626178 -1.91498 0
M  V30 671 C 67.6025 -3.33794 -1.27735 0
M  V30 672 C 67.4315 -4.48822 -0.280806 0
M  V30 673 C 66.2015 -5.05148 0.123869 0
M  V30 674 C 68.3995 -5.12148 0.470012 0
M  V30 675 N 66.3815 -6.03703 1.11426 0
M  V30 676 C 67.7525 -6.05921 1.31377 0
M  V30 677 C 69.8075 -4.95078 0.529343 0
M  V30 678 C 68.5105 -6.84459 2.21152 0
M  V30 679 C 70.5365 -5.74235 1.41448 0
M  V30 680 C 69.8985 -6.67634 2.24598 0
M  V30 681 H 65.9975 -0.755418 -0.202158 0
M  V30 682 H 68.5815 -1.94378 0.111923 0
M  V30 683 H 66.7525 -3.33635 -1.98852 0
M  V30 684 H 68.4845 -3.56988 -1.90635 0
M  V30 685 H 65.2395 -4.72923 -0.253178 0
M  V30 686 H 65.6635 -6.57674 1.60607 0
M  V30 687 H 70.3055 -4.22683 -0.0992798 0
M  V30 688 H 68.0235 -7.56151 2.85063 0
M  V30 689 H 71.6095 -5.63057 1.46484 0
M  V30 690 H 70.4895 -7.27817 2.9198 0
M  V30 691 N 67.9926 0.231505 -1.5589 0
M  V30 692 C 69.2386 0.95877 -1.78705 0
M  V30 693 C 69.5716 1.8438 -0.609725 0
M  V30 694 O 68.8466 1.90521 0.391426 0
M  V30 695 C 69.1296 1.8062 -3.11526 0
M  V30 696 C 68.9826 0.948328 -4.39689 0
M  V30 697 C 70.3016 2.78585 -3.40703 0
M  V30 698 H 67.4206 0.347129 -0.650131 0
M  V30 699 H 70.0626 0.228259 -1.88624 0
M  V30 700 H 68.2126 2.42902 -3.03201 0
M  V30 701 H 69.8846 0.343016 -4.60023 0
M  V30 702 H 68.1276 0.253314 -4.3306 0
M  V30 703 H 68.7986 1.57543 -5.29041 0
M  V30 704 H 71.2746 2.26439 -3.49091 0
M  V30 705 H 70.1506 3.34988 -4.34826 0
M  V30 706 H 70.4116 3.55825 -2.62375 0
M  V30 707 N 69.4707 1.49531 0.497807 0
M  V30 708 C 70.4007 1.6935 1.60757 0
M  V30 709 C 71.3817 0.542218 1.61227 0
M  V30 710 O 72.5667 0.778417 1.77917 0
M  V30 711 C 69.6967 1.76298 2.99226 0
M  V30 712 C 68.6507 2.91248 3.13622 0
M  V30 713 C 67.9767 2.83312 4.53474 0
M  V30 714 C 69.2767 4.3214 2.93346 0
M  V30 715 H 70.9707 2.62263 1.44425 0
M  V30 716 H 68.5167 1.26208 0.693367 0
M  V30 717 H 70.4697 1.88749 3.76765 0
M  V30 718 H 69.1937 0.799871 3.16654 0
M  V30 719 H 67.8527 2.78404 2.38509 0
M  V30 720 H 67.5007 1.84902 4.67782 0
M  V30 721 H 67.2007 3.60465 4.64046 0
M  V30 722 H 68.7247 2.97775 5.33069 0
M  V30 723 H 70.1387 4.45649 3.60652 0
M  V30 724 H 68.5357 5.1054 3.15387 0
M  V30 725 H 69.6057 4.46363 1.89441 0
M  V30 726 N 70.9488 -0.749086 1.3866 0
M  V30 727 C 72.1888 -1.52112 1.36534 0
M  V30 728 C 72.5528 -1.91951 -0.0432316 0
M  V30 729 O 73.7538 -2.68132 -0.189396 0
M  V30 730 C 72.0248 -2.73704 2.29828 0
M  V30 731 S 73.5838 -3.63519 2.45763 0
M  V30 732 H 70.4018 -0.520482 0.484375 0
M  V30 733 H 73.0038 -0.878963 1.74627 0
M  V30 734 H 71.7078 -2.42552 3.31054 0
M  V30 735 H 71.2388 -3.4286 1.929 0
M  V30 736 H 73.2538 -4.66712 1.68505 0
M  V30 737 N 72.4269 -1.23603 -0.977757 0
M  V30 738 C 73.8429 -0.999251 -1.24447 0
M  V30 739 C 74.0429 0.298053 -1.99283 0
M  V30 740 O 73.0989 1.01681 -2.31122 0
M  V30 741 C 74.4119 -2.20784 -2.04144 0
M  V30 742 C 75.9599 -2.25303 -2.17273 0
M  V30 743 C 76.4349 -3.45755 -3.00362 0
M  V30 744 N 77.9259 -3.4601 -3.07947 0
M  V30 745 C 78.6609 -4.35868 -3.72568 0
M  V30 746 N 78.1569 -5.35966 -4.38991 0
M  V30 747 N 79.9499 -4.23605 -3.6948 0
M  V30 748 H 72.1009 -2.06986 -0.476483 0
M  V30 749 H 74.3639 -0.907801 -0.273134 0
M  V30 750 H 74.0699 -3.14945 -1.56533 0
M  V30 751 H 73.9439 -2.22085 -3.04891 0
M  V30 752 H 76.3309 -1.3168 -2.64092 0
M  V30 753 H 76.4119 -2.28033 -1.15907 0
M  V30 754 H 76.0559 -4.39687 -2.5424 0
M  V30 755 H 75.9859 -3.40266 -4.01904 0
M  V30 756 H 78.4769 -2.73588 -2.60688 0
M  V30 757 H 78.7899 -6.00783 -4.86086 0
M  V30 758 H 77.1349 -5.39863 -4.37691 0
M  V30 759 H 80.3259 -3.44647 -3.16759 0
M  V30 760 H 80.4989 -4.93836 -4.1956 0
M  V30 761 N 73.905 1.17692 -1.04816 0
M  V30 762 C 75.321 1.39863 -0.768794 0
M  V30 763 C 75.521 1.91118 0.638451 0
M  V30 764 O 74.577 2.10036 1.40146 0
M  V30 765 C 75.89 2.39274 -1.82122 0
M  V30 766 C 77.438 2.52987 -1.843 0
M  V30 767 C 77.913 3.55669 -2.88555 0
M  V30 768 N 79.404 3.63183 -2.87493 0
M  V30 769 C 80.139 4.42381 -3.64811 0
M  V30 770 N 79.635 5.25125 -4.51903 0
M  V30 771 N 81.428 4.37217 -3.53267 0
M  V30 772 H 73.579 0.82752 -1.95617 0
M  V30 773 H 75.842 0.426123 -0.846831 0
M  V30 774 H 75.548 2.08678 -2.83102 0
M  V30 775 H 75.422 3.38725 -1.65967 0
M  V30 776 H 77.809 2.82896 -0.839869 0
M  V30 777 H 77.89 1.53623 -2.04532 0
M  V30 778 H 77.534 3.26499 -3.89051 0
M  V30 779 H 77.464 4.54728 -2.65575 0
M  V30 780 H 79.955 3.04103 -2.24343 0
M  V30 781 H 80.268 5.82728 -5.07591 0
M  V30 782 H 78.613 5.24519 -4.55966 0
M  V30 783 H 81.804 3.71626 -2.84625 0
M  V30 784 H 81.977 4.98696 -4.13771 0
M  V30 785 N 75.3831 0.828654 1.34056 0
M  V30 786 C 76.3161 0.199763 2.27324 0
M  V30 787 C 77.2941 -0.647168 1.49166 0
M  V30 788 O 78.4781 -0.609661 1.78369 0
M  V30 789 C 75.6051 -0.720455 3.30949 0
M  V30 790 C 74.6511 0.0496888 4.26471 0
M  V30 791 S 75.4841 1.40072 5.16856 0
M  V30 792 C 76.6401 0.485527 6.24014 0
M  V30 793 H 76.8731 0.990478 2.80316 0
M  V30 794 H 74.4061 0.624857 1.41191 0
M  V30 795 H 76.3641 -1.24581 3.91139 0
M  V30 796 H 75.0251 -1.48474 2.76793 0
M  V30 797 H 74.2181 -0.650104 4.9979 0
M  V30 798 H 73.8201 0.505779 3.70564 0
M  V30 799 H 76.1121 -0.320672 6.76741 0
M  V30 800 H 77.0551 1.18856 6.98054 0
M  V30 801 H 77.4631 0.0714109 5.64455 0
M  V30 802 N 76.8612 -1.46375 0.584142 0
M  V30 803 C 78.1092 -2.01978 0.0701287 0
M  V30 804 C 78.4302 -1.4579 -1.295 0
M  V30 805 O 77.7002 -0.64314 -1.85042 0
M  V30 806 H 76.2802 -0.746648 0.0229345 0
M  V30 807 H 78.9422 -1.79461 0.760245 0
M  V30 808 H 78.0382 -3.121 0.0022064 0
M  V30 809 N 78.3393 -0.321999 -1.54275 0
M  V30 810 C 79.7503 0.166384 -1.85957 0
M  V30 811 C 80.1013 1.51747 -1.24367 0
M  V30 812 O 79.2263 2.09317 -0.549124 0
M  V30 813 C 79.8213 0.308681 -3.37391 0
M  V30 814 C 78.3803 0.741286 -3.69028 0
M  V30 815 C 77.5273 -0.137937 -2.76957 0
M  V30 816 H 80.4783 -0.542335 -1.49146 0
M  V30 817 H 80.4993 1.13984 -3.63026 0
M  V30 818 H 80.0113 -0.674809 -3.82188 0
M  V30 819 H 78.1123 1.73458 -3.29762 0
M  V30 820 H 78.2253 0.546118 -4.75977 0
M  V30 821 H 76.5893 0.386251 -2.51754 0
M  V30 822 H 77.3723 -1.11816 -3.2458 0
M  V30 823 N 79.8174 1.5752 -0.0501392 0
M  V30 824 C 81.2334 1.56631 0.306402 0
M  V30 825 C 81.4334 1.0577 1.71508 0
M  V30 826 O 80.4894 0.713837 2.422 0
M  V30 827 C 81.8024 3.00393 0.135811 0
M  V30 828 C 83.3504 3.12315 0.206993 0
M  V30 829 C 83.8254 4.57954 0.064944 0
M  V30 830 N 85.3164 4.63041 0.121254 0
M  V30 831 C 86.0514 5.73389 0.0354381 0
M  V30 832 N 85.5474 6.92724 -0.102666 0
M  V30 833 N 87.3404 5.62026 0.090946 0
M  V30 834 H 79.4914 1.88903 -0.971046 0
M  V30 835 H 81.7544 0.869876 -0.376855 0
M  V30 836 H 81.4604 3.41635 -0.835384 0
M  V30 837 H 81.3344 3.66373 0.897275 0
M  V30 838 H 83.7214 2.70973 1.16866 0
M  V30 839 H 83.8024 2.49016 -0.585208 0
M  V30 840 H 83.4464 4.99981 -0.893394 0
M  V30 841 H 83.3764 5.19258 0.876277 0
M  V30 842 H 85.8674 3.77216 0.227284 0
M  V30 843 H 86.1804 7.72633 -0.160882 0
M  V30 844 H 84.5254 6.94864 -0.137737 0
M  V30 845 H 87.7164 4.67684 0.197388 0
M  V30 846 H 87.8894 6.47997 0.0206089 0
M  V30 847 N 81.2955 -0.223234 1.56011 0
M  V30 848 C 82.5205 -0.968978 1.83373 0
M  V30 849 C 82.9455 -1.77227 0.630254 0
M  V30 850 O 82.3035 -1.76345 -0.420959 0
M  V30 851 C 82.3515 -1.86363 3.08709 0
M  V30 852 O 81.4555 -2.95873 2.87285 0
M  V30 853 H 80.7965 -0.274461 0.604622 0
M  V30 854 H 83.3265 -0.237056 2.03222 0
M  V30 855 H 83.3365 -2.27376 3.38768 0
M  V30 856 H 82.0115 -1.27319 3.95933 0
M  V30 857 H 80.5885 -2.58818 2.68454 0
M  V30 858 N 82.7736 -1.49793 -0.48987 0
M  V30 859 C 84.1846 -1.52914 -1.07118 0
M  V30 860 C 84.5356 -0.321738 -1.93544 0
M  V30 861 O 83.6606 0.567338 -2.08831 0
M  V30 862 C 84.2556 -2.771 -1.94938 0
M  V30 863 C 82.8146 -2.82963 -2.48212 0
M  V30 864 C 81.9616 -2.46972 -1.26096 0
M  V30 865 H 84.9126 -1.56329 -0.273289 0
M  V30 866 H 84.9336 -2.57892 -2.79771 0
M  V30 867 H 84.4456 -3.64959 -1.32009 0
M  V30 868 H 82.5466 -1.99411 -3.14748 0
M  V30 869 H 82.6596 -3.85406 -2.84603 0
M  V30 870 H 81.0236 -1.98994 -1.58976 0
M  V30 871 H 81.8066 -3.37118 -0.648581 0
M  V30 872 N 84.2517 0.741722 -1.39055 0
M  V30 873 C 85.4767 1.53607 -1.39354 0
M  V30 874 C 85.9017 1.88096 0.0116905 0
M  V30 875 O 85.2597 1.5143 0.996924 0
M  V30 876 C 85.3077 2.80441 -2.26682 0
M  V30 877 O 84.4117 3.76088 -1.69208 0
M  V30 878 H 83.7527 0.464142 -0.474835 0
M  V30 879 H 86.2827 0.915665 -1.82967 0
M  V30 880 H 86.2927 3.29246 -2.40959 0
M  V30 881 H 84.9677 2.5467 -3.2881 0
M  V30 882 H 83.5447 3.34833 -1.64138 0
M  V30 883 N 85.7298 1.2412 0.971189 0
M  V30 884 C 86.9758 1.08041 1.71625 0
M  V30 885 C 87.3088 -0.380407 1.90438 0
M  V30 886 O 86.5838 -1.28127 1.46334 0
M  V30 887 C 86.8668 1.81682 3.10908 0
M  V30 888 C 86.7198 3.35493 2.99608 0
M  V30 889 C 88.0388 1.58671 4.10501 0
M  V30 890 H 85.1578 0.39388 0.622919 0
M  V30 891 H 87.7998 1.52743 1.13003 0
M  V30 892 H 85.9498 1.43684 3.60953 0
M  V30 893 H 87.6218 3.83068 2.57015 0
M  V30 894 H 85.8648 3.64052 2.35899 0
M  V30 895 H 86.5358 3.82217 3.98264 0
M  V30 896 H 89.0118 1.91719 3.69301 0
M  V30 897 H 87.8878 2.1266 5.06031 0
M  V30 898 H 88.1488 0.524161 4.38982 0
M  V30 899 N 87.2079 -1.17134 1.05439 0
M  V30 900 C 88.4569 -1.86791 0.761049 0
M  V30 901 C 88.7699 -1.82072 -0.714795 0
M  V30 902 O 89.9759 -2.47223 -1.12218 0
M  V30 903 C 88.4319 -3.35166 1.31117 0
M  V30 904 C 88.0399 -3.48381 2.81664 0
M  V30 905 C 89.7839 -4.10134 1.09499 0
M  V30 906 C 87.6909 -4.90793 3.29964 0
M  V30 907 H 86.6209 -0.699681 0.281002 0
M  V30 908 H 89.2719 -1.3226 1.27199 0
M  V30 909 H 87.6539 -3.8925 0.72803 0
M  V30 910 H 88.8279 -3.04502 3.45855 0
M  V30 911 H 87.1429 -2.86836 3.01851 0
M  V30 912 H 89.7399 -5.152 1.43084 0
M  V30 913 H 90.0829 -4.16287 0.0328772 0
M  V30 914 H 90.6159 -3.62264 1.64346 0
M  V30 915 H 87.3549 -4.89816 4.35616 0
M  V30 916 H 86.8749 -5.35333 2.70516 0
M  V30 917 H 88.5539 -5.59573 3.24787 0
M  V30 918 N 88.686 -0.835752 -1.33615 0
M  V30 919 C 89.933 -0.429959 -1.97883 0
M  V30 920 C 90.261 1.01006 -1.66217 0
M  V30 921 O 89.516 1.72047 -0.93265 0
M  V30 922 C 89.815 -0.593925 -3.52431 0
M  V30 923 C 89.481 -2.00158 -4.04039 0
M  V30 924 C 88.143 -2.38662 -4.17844 0
M  V30 925 C 90.495 -2.92117 -4.31644 0
M  V30 926 C 87.823 -3.68435 -4.56588 0
M  V30 927 C 90.175 -4.21368 -4.71838 0
M  V30 928 C 88.839 -4.59833 -4.83849 0
M  V30 929 H 88.109 -0.157333 -0.724104 0
M  V30 930 H 90.756 -1.06217 -1.59343 0
M  V30 931 H 89.061 0.121619 -3.91611 0
M  V30 932 H 90.758 -0.260282 -4.00154 0
M  V30 933 H 87.348 -1.69252 -3.93766 0
M  V30 934 H 91.532 -2.63608 -4.20505 0
M  V30 935 H 86.788 -3.98046 -4.64079 0
M  V30 936 H 90.962 -4.92703 -4.92155 0
M  V30 937 H 88.589 -5.60438 -5.13627 0
M  V30 938 N 90.1641 1.46063 -0.591896 0
M  V30 939 C 91.0971 2.27452 0.184617 0
M  V30 940 C 92.0751 1.36188 0.888351 0
M  V30 941 O 93.2591 1.65606 0.90039 0
M  V30 942 C 90.3861 3.14162 1.26571 0
M  V30 943 C 89.4321 4.21255 0.666814 0
M  V30 944 S 90.2651 5.33034 -0.513345 0
M  V30 945 C 91.4211 6.23311 0.56872 0
M  V30 946 H 91.6541 2.92963 -0.505939 0
M  V30 947 H 89.1871 1.49676 -0.379014 0
M  V30 948 H 91.1451 3.6468 1.88463 0
M  V30 949 H 89.8061 2.47946 1.92826 0
M  V30 950 H 88.9991 4.81788 1.47974 0
M  V30 951 H 88.6011 3.73797 0.123359 0
M  V30 952 H 90.8931 6.61758 1.45198 0
M  V30 953 H 91.8361 7.081 -7.23824e-05 0
M  V30 954 H 92.2441 5.57646 0.876996 0
M  V30 955 N 91.6422 0.330177 1.54103 0
M  V30 956 C 92.8912 -0.271336 1.99867 0
M  V30 957 C 93.2042 -1.52723 1.22209 0
M  V30 958 O 94.4102 -2.20515 1.58383 0
M  V30 959 C 92.8662 -0.534032 3.55916 0
M  V30 960 C 92.4742 0.705193 4.42415 0
M  V30 961 C 94.2182 -1.09514 4.1013 0
M  V30 962 C 92.1252 0.414035 5.89949 0
M  V30 963 H 91.0552 -0.105166 0.74663 0
M  V30 964 H 93.7062 0.443429 1.78062 0
M  V30 965 H 92.0882 -1.30915 3.73734 0
M  V30 966 H 93.2622 1.4804 4.36372 0
M  V30 967 H 91.5772 1.18698 3.99124 0
M  V30 968 H 94.1742 -1.3277 5.17954 0
M  V30 969 H 94.5172 -2.04656 3.62521 0
M  V30 970 H 95.0502 -0.381038 3.95971 0
M  V30 971 H 91.7892 1.33481 6.41766 0
M  V30 972 H 91.3092 -0.323336 5.98928 0
M  V30 973 H 92.9882 0.0263105 6.46995 0
M  V30 974 N 93.1203 -1.57491 0.0584922 0
M  V30 975 C 94.0683 -2.13148 -0.931168 0
M  V30 976 C 95.0623 -1.06507 -1.31729 0
M  V30 977 O 96.2683 -1.24906 -1.29609 0
M  V30 978 H 92.6433 -0.68137 -0.31818 0
M  V30 979 H 94.6143 -2.95187 -0.436707 0
M  V30 980 C 93.3633 -2.69732 -2.19408 0
M  V30 981 H 92.6863 -3.51454 -1.90578 0
M  V30 982 H 94.1263 -3.12287 -2.86798 0
M  V30 983 C 92.5853 -1.63855 -2.94369 0
M  V30 984 O 93.1153 -1.05565 -3.87581 0
M  V30 985 N 91.3213 -1.35202 -2.57233 0
M  V30 986 H 90.8683 -1.82791 -1.81508 0
M  V30 987 H 90.8263 -0.645922 -3.07693 0
M  V30 988 N 94.5984 0.214957 -1.56127 0
M  V30 989 C 95.5284 1.2695 -1.95974 0
M  V30 990 C 96.5094 1.48539 -0.828868 0
M  V30 991 O 97.6944 1.60611 -1.09168 0
M  V30 992 C 94.8244 2.61794 -2.28214 0
M  V30 993 C 93.7784 2.54851 -3.43853 0
M  V30 994 C 93.1044 3.93785 -3.61715 0
M  V30 995 C 94.4044 2.09065 -4.78632 0
M  V30 996 H 96.0984 0.93846 -2.84312 0
M  V30 997 H 93.6444 0.449996 -1.36788 0
M  V30 998 H 95.5974 3.35731 -2.54682 0
M  V30 999 H 94.3214 2.96599 -1.36736 0
M  V30 1000 H 92.9804 1.8337 -3.17444 0
M  V30 1001 H 92.6284 4.25908 -2.67602 0
M  V30 1002 H 92.3284 3.90019 -4.39498 0
M  V30 1003 H 93.8524 4.69374 -3.90539 0
M  V30 1004 H 95.2664 2.7275 -5.04262 0
M  V30 1005 H 93.6634 2.16346 -5.59745 0
M  V30 1006 H 94.7334 1.04315 -4.73547 0
M  V30 1007 N 96.0765 1.50051 0.48192 0
M  V30 1008 C 97.3015 1.64508 1.26301 0
M  V30 1009 C 97.7265 0.323851 1.85291 0
M  V30 1010 O 97.0845 -0.710969 1.66778 0
M  V30 1011 C 97.1325 2.7305 2.35533 0
M  V30 1012 O 96.2365 2.3355 3.39895 0
M  V30 1013 H 95.5775 0.549978 0.372048 0
M  V30 1014 H 98.1075 1.9636 0.574786 0
M  V30 1015 H 98.1175 2.95799 2.8101 0
M  V30 1016 H 96.7925 3.68946 1.91967 0
M  V30 1017 H 95.3695 2.21205 3.00204 0
M  V30 1018 N 97.5546 -0.734337 1.39446 0
M  V30 1019 C 98.8006 -1.49613 1.36908 0
M  V30 1020 C 99.1336 -1.94169 -0.0347829 0
M  V30 1021 O 98.4086 -1.66833 -0.999847 0
M  V30 1022 C 98.6916 -2.73534 2.34203 0
M  V30 1023 C 98.5446 -2.34993 3.83534 0
M  V30 1024 C 99.8636 -3.75635 2.29317 0
M  V30 1025 H 96.9826 -0.542714 0.498629 0
M  V30 1026 H 99.6246 -0.839597 1.70443 0
M  V30 1027 H 97.7746 -3.29553 2.05736 0
M  V30 1028 H 99.4466 -1.84601 4.22753 0
M  V30 1029 H 97.6896 -1.67213 4.00278 0
M  V30 1030 H 98.3606 -3.23738 4.47099 0
M  V30 1031 H 100.837 -3.29203 2.54489 0
M  V30 1032 H 99.7126 -4.60008 2.99472 0
M  V30 1033 H 99.9736 -4.22603 1.29842 0
M  V30 1034 N 99.0327 -1.24633 -0.964593 0
M  V30 1035 C 100.261 -1.11501 -1.74285 0
M  V30 1036 C 100.676 0.332165 -1.85855 0
M  V30 1037 O 100.033 1.22903 -1.34911 0
M  V30 1038 C 100.084 -1.75258 -3.16175 0
M  V30 1039 O 99.8047 -3.14318 -3.05182 0
M  V30 1040 C 101.306 -1.67776 -4.10324 0
M  V30 1041 H 98.5257 -0.389407 -0.546446 0
M  V30 1042 H 101.07 -1.64801 -1.21083 0
M  V30 1043 H 99.2247 -1.25954 -3.66353 0
M  V30 1044 H 99.6387 -3.4551 -3.94618 0
M  V30 1045 H 101.113 -2.17064 -5.0753 0
M  V30 1046 H 101.59 -0.639584 -4.34518 0
M  V30 1047 H 102.196 -2.16522 -3.66058 0
M  V30 1048 N 100.511 1.16574 -1.06058 0
M  V30 1049 C 101.788 1.83048 -0.689416 0
M  V30 1050 C 102.168 1.94122 0.829443 0
M  V30 1051 O 101.516 1.48249 1.7388 0
M  V30 1052 C 101.726 3.20186 -1.38859 0
M  V30 1053 C 103.074 3.95989 -1.53226 0
M  V30 1054 O 104.098 3.29696 -1.3483 0
M  V30 1055 O 102.957 5.14813 -1.83384 0
M  V30 1056 H 100.051 0.790258 -0.243764 0
M  V30 1057 H 102.597 1.23797 -1.16071 0
M  V30 1058 H 101.369 3.07146 -2.4244 0
M  V30 1059 H 100.992 3.87112 -0.907216 0
M  V30 1060 N 101.989 0.842826 1.3317 0
M  V30 1061 C 102.919 0.294028 2.31641 0
M  V30 1062 C 103.9 -0.600401 1.59151 0
M  V30 1063 O 105.085 -0.523124 1.87022 0
M  V30 1064 C 102.215 -0.528416 3.43257 0
M  V30 1065 C 101.169 0.27056 4.27144 0
M  V30 1066 C 100.495 -0.675881 5.30411 0
M  V30 1067 C 101.795 1.48981 5.00602 0
M  V30 1068 H 103.489 1.11681 2.77791 0
M  V30 1069 H 101.035 0.538478 1.33553 0
M  V30 1070 H 102.988 -0.922674 4.11175 0
M  V30 1071 H 101.712 -1.38445 2.95805 0
M  V30 1072 H 100.371 0.646427 3.60856 0
M  V30 1073 H 100.019 -1.52842 4.79216 0
M  V30 1074 H 99.7189 -0.145374 5.8742 0
M  V30 1075 H 101.243 -1.06757 6.01195 0
M  V30 1076 H 102.657 1.16849 5.61266 0
M  V30 1077 H 101.054 1.95739 5.6728 0
M  V30 1078 H 102.124 2.25746 4.29147 0
M  V30 1079 N 103.467 -1.45747 0.599634 0
M  V30 1080 C 104.4 -2.27547 -0.172552 0
M  V30 1081 C 105.378 -1.36657 -0.881116 0
M  V30 1082 O 106.562 -1.66081 -0.891595 0
M  V30 1083 C 103.689 -3.14829 -1.24903 0
M  V30 1084 C 102.735 -4.21603 -0.644465 0
M  V30 1085 S 103.568 -5.32754 0.541606 0
M  V30 1086 C 104.724 -6.23604 -0.535656 0
M  V30 1087 H 104.957 -2.92691 0.521468 0
M  V30 1088 H 102.49 -1.49473 0.386947 0
M  V30 1089 H 104.448 -3.65675 -1.86527 0
M  V30 1090 H 103.109 -2.48965 -1.91508 0
M  V30 1091 H 102.302 -4.82566 -1.45417 0
M  V30 1092 H 101.904 -3.73857 -0.103534 0
M  V30 1093 H 104.196 -6.62519 -1.41686 0
M  V30 1094 H 105.139 -7.0809 0.0376246 0
M  V30 1095 H 105.547 -5.58103 -0.84741 0
M  V30 1096 N 104.945 -0.338344 -1.53925 0
M  V30 1097 C 105.875 0.51328 -2.27789 0
M  V30 1098 C 106.856 1.107 -1.29149 0
M  V30 1099 O 108.041 1.12937 -1.57984 0
M  V30 1100 C 105.171 1.66697 -3.04679 0
M  V30 1101 C 104.125 1.20183 -4.1078 0
M  V30 1102 C 103.451 2.44363 -4.75595 0
M  V30 1103 C 104.751 0.30605 -5.21403 0
M  V30 1104 H 106.445 -0.102883 -2.99223 0
M  V30 1105 H 103.991 -0.0509219 -1.4391 0
M  V30 1106 H 105.944 2.26915 -3.55088 0
M  V30 1107 H 104.668 2.30995 -2.30887 0
M  V30 1108 H 103.327 0.622499 -3.61276 0
M  V30 1109 H 102.975 3.07057 -3.98403 0
M  V30 1110 H 102.675 2.13925 -5.47275 0
M  V30 1111 H 104.199 3.05317 -5.28786 0
M  V30 1112 H 105.613 0.814929 -5.67478 0
M  V30 1113 H 104.01 0.0937929 -6.00027 0
M  V30 1114 H 105.08 -0.65921 -4.80398 0
M  V30 1115 N 106.423 1.57458 -0.0668435 0
M  V30 1116 C 107.386 2.11323 0.887422 0
M  V30 1117 C 108.386 1.03618 1.22964 0
M  V30 1118 O 109.576 1.29626 1.16373 0
M  V30 1119 C 106.708 2.61048 2.19242 0
M  V30 1120 H 107.901 2.96942 0.420194 0
M  V30 1121 H 105.454 1.55239 0.181793 0
M  V30 1122 H 106.189 1.78868 2.70512 0
M  V30 1123 H 105.974 3.39769 1.95702 0
M  V30 1124 H 107.464 3.02814 2.87565 0
M  V30 1125 N 107.901 -0.206675 1.56239 0
M  V30 1126 C 109.126 -0.949474 1.8439 0
M  V30 1127 C 109.551 -1.76549 0.649016 0
M  V30 1128 O 108.909 -1.76782 -0.402231 0
M  V30 1129 C 108.957 -1.83078 3.10668 0
M  V30 1130 O 108.061 -2.9281 2.90407 0
M  V30 1131 H 107.402 -0.268033 0.607499 0
M  V30 1132 H 109.932 -0.215488 2.03462 0
M  V30 1133 H 109.942 -2.2377 3.41161 0
M  V30 1134 H 108.617 -1.23112 3.97261 0
M  V30 1135 H 107.194 -2.55956 2.71184 0
M  V30 1136 N 109.379 -1.50304 -0.473955 0
M  V30 1137 C 110.625 -1.61389 -1.22806 0
M  V30 1138 C 110.958 -0.311955 -1.91678 0
M  V30 1139 O 110.233 0.686384 -1.81986 0
M  V30 1140 C 110.516 -2.79219 -2.27396 0
M  V30 1141 C 110.369 -4.19286 -1.62848 0
M  V30 1142 C 111.688 -2.92614 -3.28732 0
M  V30 1143 H 108.807 -0.587399 -0.445119 0
M  V30 1144 H 111.449 -1.82681 -0.522265 0
M  V30 1145 H 109.599 -2.61195 -2.87592 0
M  V30 1146 H 111.271 -4.48892 -1.06271 0
M  V30 1147 H 109.514 -4.23677 -0.931693 0
M  V30 1148 H 110.185 -4.97655 -2.38838 0
M  V30 1149 H 112.661 -3.09105 -2.78556 0
M  V30 1150 H 111.537 -3.76688 -3.99246 0
M  V30 1151 H 111.798 -2.03107 -3.92683 0
M  V30 1152 N 110.857 0.726932 -1.39834 0
M  V30 1153 C 111.787 1.85405 -1.41941 0
M  V30 1154 C 112.768 1.67751 -0.281728 0
M  V30 1155 O 113.953 1.8795 -0.488717 0
M  V30 1156 C 111.083 3.23243 -1.2701 0
M  V30 1157 C 110.037 3.55549 -2.38262 0
M  V30 1158 C 109.363 4.9241 -2.08415 0
M  V30 1159 C 110.663 3.577 -3.80589 0
M  V30 1160 H 112.357 1.83899 -2.36266 0
M  V30 1161 H 109.903 0.883349 -1.13723 0
M  V30 1162 H 111.856 4.01775 -1.27103 0
M  V30 1163 H 110.58 3.25296 -0.291564 0
M  V30 1164 H 109.239 2.79351 -2.37399 0
M  V30 1165 H 108.887 4.91052 -1.0898 0
M  V30 1166 H 108.587 5.14992 -2.82943 0
M  V30 1167 H 110.111 5.73289 -2.10171 0
M  V30 1168 H 111.525 4.26293 -3.83337 0
M  V30 1169 H 109.922 3.91804 -4.54543 0
M  V30 1170 H 110.992 2.57328 -4.10987 0
M  V30 1171 N 112.336 1.25143 0.95797 0
M  V30 1172 C 113.747 1.08851 1.51685 0
M  V30 1173 C 114.098 -0.33687 1.93286 0
M  V30 1174 O 113.223 -1.22644 1.7829 0
M  V30 1175 C 113.818 1.96978 2.75654 0
M  V30 1176 C 112.377 1.84881 3.27866 0
M  V30 1177 C 111.524 1.91329 2.0072 0
M  V30 1178 H 114.475 1.38478 0.77522 0
M  V30 1179 H 114.496 1.5078 3.4935 0
M  V30 1180 H 114.008 3.00712 2.45345 0
M  V30 1181 H 112.109 0.840182 3.63004 0
M  V30 1182 H 112.222 2.6951 3.96107 0
M  V30 1183 H 110.586 1.35174 2.15871 0
M  V30 1184 H 111.369 2.96661 1.72764 0
M  V30 1185 N 113.814 -1.1601 1.06675 0
M  V30 1186 C 115.061 -1.86633 0.785781 0
M  V30 1187 C 115.389 -1.81929 -0.687896 0
M  V30 1188 O 114.644 -1.23253 -1.52011 0
M  V30 1189 C 114.943 -3.35547 1.23057 0
M  V30 1190 C 114.609 -3.60448 2.70902 0
M  V30 1191 C 113.271 -3.66954 3.11285 0
M  V30 1192 C 115.623 -3.7071 3.66365 0
M  V30 1193 C 112.951 -3.81225 4.45965 0
M  V30 1194 C 115.303 -3.86503 5.00797 0
M  V30 1195 C 113.967 -3.91252 5.40813 0
M  V30 1196 H 113.237 -0.682937 0.287538 0
M  V30 1197 H 115.884 -1.37146 1.33654 0
M  V30 1198 H 114.189 -3.87193 0.59907 0
M  V30 1199 H 115.886 -3.88583 0.990163 0
M  V30 1200 H 112.476 -3.56021 2.38636 0
M  V30 1201 H 116.66 -3.64991 3.36296 0
M  V30 1202 H 111.916 -3.83155 4.76447 0
M  V30 1203 H 116.09 -3.93385 5.74649 0
M  V30 1204 H 113.717 -4.02062 6.45174 0
M  V30 1205 N 115.292 -0.849877 -1.32721 0
M  V30 1206 C 116.224 -0.248332 -2.27851 0
M  V30 1207 C 117.237 0.577218 -1.52224 0
M  V30 1208 O 118.426 0.402489 -1.73903 0
M  V30 1209 C 115.526 0.668107 -3.32249 0
M  V30 1210 C 114.699 -0.120534 -4.37234 0
M  V30 1211 C 113.758 0.720932 -5.21238 0
M  V30 1212 O 112.784 0.156166 -5.68986 0
M  V30 1213 N 113.986 2.03647 -5.43607 0
M  V30 1214 H 116.751 -1.06575 -2.80111 0
M  V30 1215 H 114.312 -0.709395 -1.45531 0
M  V30 1216 H 116.304 1.23627 -3.85355 0
M  V30 1217 H 114.874 1.38621 -2.80184 0
M  V30 1218 H 114.094 -0.870108 -3.84477 0
M  V30 1219 H 115.382 -0.662406 -5.0447 0
M  V30 1220 H 114.78 2.51871 -5.06535 0
M  V30 1221 H 113.337 2.55287 -5.99727 0
M  V30 1222 N 116.77 1.45427 -0.607355 0
M  V30 1223 C 118.019 2.01452 -0.100036 0
M  V30 1224 C 118.332 1.48159 1.27704 0
M  V30 1225 O 119.538 1.96159 1.87707 0
M  V30 1226 C 117.994 3.59672 -0.128158 0
M  V30 1227 C 117.602 4.21962 -1.50507 0
M  V30 1228 C 119.346 4.23262 0.323932 0
M  V30 1229 C 117.253 5.72333 -1.48959 0
M  V30 1230 H 116.183 0.75325 -0.0336299 0
M  V30 1231 H 118.834 1.66901 -0.76265 0
M  V30 1232 H 117.216 3.91411 0.601105 0
M  V30 1233 H 118.39 4.01796 -2.25602 0
M  V30 1234 H 116.705 3.70565 -1.89923 0
M  V30 1235 H 119.302 5.33522 0.354691 0
M  V30 1236 H 119.645 3.93921 1.34656 0
M  V30 1237 H 120.178 3.96239 -0.352056 0
M  V30 1238 H 116.917 6.06373 -2.48981 0
M  V30 1239 H 116.437 5.94691 -0.781214 0
M  V30 1240 H 118.116 6.35525 -1.21313 0
M  V30 1241 N 118.248 0.346503 1.53744 0
M  V30 1242 C 119.478 -0.250047 2.05081 0
M  V30 1243 C 119.886 -1.44529 1.22098 0
M  V30 1244 O 119.229 -1.81992 0.249917 0
M  V30 1245 C 119.291 -0.725934 3.52094 0
M  V30 1246 C 118.955 0.350053 4.55657 0
M  V30 1247 C 119.952 1.19372 5.0601 0
M  V30 1248 C 117.637 0.504827 4.99757 0
M  V30 1249 C 119.631 2.17768 5.99046 0
M  V30 1250 C 117.318 1.49218 5.92602 0
M  V30 1251 C 118.316 2.32706 6.42135 0
M  V30 1252 O 118.004 3.2976 7.33153 0
M  V30 1253 H 117.736 -0.0515469 0.674032 0
M  V30 1254 H 120.29 0.497559 1.99282 0
M  V30 1255 H 118.52 -1.52483 3.55367 0
M  V30 1256 H 120.209 -1.24336 3.86388 0
M  V30 1257 H 120.975 1.08525 4.72702 0
M  V30 1258 H 116.854 -0.135178 4.60802 0
M  V30 1259 H 120.398 2.82971 6.37631 0
M  V30 1260 H 116.295 1.6012 6.25325 0
M  V30 1261 H 117.063 3.25265 7.51096 0
M  V30 1262 N 119.726 -1.57421 0.075193 0
M  V30 1263 C 120.956 -1.97659 -0.601203 0
M  V30 1264 C 121.364 -0.952427 -1.63479 0
M  V30 1265 O 120.707 0.0688241 -1.83571 0
M  V30 1266 C 120.769 -3.34218 -1.32434 0
M  V30 1267 C 120.433 -4.5484 -0.443826 0
M  V30 1268 C 121.43 -5.19034 0.299969 0
M  V30 1269 C 119.115 -5.00952 -0.367709 0
M  V30 1270 C 121.109 -6.27695 1.10807 0
M  V30 1271 C 118.796 -6.09484 0.444058 0
M  V30 1272 C 119.794 -6.72719 1.18061 0
M  V30 1273 O 119.482 -7.79161 1.97898 0
M  V30 1274 H 119.214 -0.65494 -0.167422 0
M  V30 1275 H 121.768 -2.04886 0.145157 0
M  V30 1276 H 119.998 -3.23615 -2.11685 0
M  V30 1277 H 121.687 -3.59038 -1.89331 0
M  V30 1278 H 122.453 -4.84351 0.250776 0
M  V30 1279 H 118.332 -4.51509 -0.930638 0
M  V30 1280 H 121.876 -6.76982 1.68347 0
M  V30 1281 H 117.773 -6.43601 0.494803 0
M  V30 1282 H 118.541 -7.96055 1.90367 0
M  V30 1283 N 121.204 0.198386 -1.56346 0
M  V30 1284 C 122.154 1.2499 -1.90687 0
M  V30 1285 C 123.138 1.41158 -0.772217 0
M  V30 1286 O 124.33 1.43584 -1.03502 0
M  V30 1287 C 121.459 2.59542 -2.24706 0
M  V30 1288 C 120.545 2.47181 -3.44619 0
M  V30 1289 N 120.936 2.04495 -4.62618 0
M  V30 1290 C 119.234 2.78082 -3.48692 0
M  V30 1291 C 119.935 2.03945 -5.44776 0
M  V30 1292 N 118.911 2.45323 -4.85095 0
M  V30 1293 H 122.713 0.911149 -2.7942 0
M  V30 1294 H 120.227 0.40684 -1.57221 0
M  V30 1295 H 122.224 3.3549 -2.47491 0
M  V30 1296 H 120.884 2.94244 -1.37298 0
M  V30 1297 H 121.895 1.75256 -4.87345 0
M  V30 1298 H 118.572 3.17002 -2.71691 0
M  V30 1299 H 119.962 1.72872 -6.4928 0
M  V30 1300 N 122.682 1.50554 0.465978 0
M  V30 1301 C 123.922 1.63439 1.22747 0
M  V30 1302 C 124.286 0.329822 1.89146 0
M  V30 1303 O 125.487 0.334161 2.66715 0
M  V30 1304 C 123.758 2.78542 2.2394 0
M  V30 1305 S 125.317 3.11591 3.0896 0
M  V30 1306 H 122.135 0.576113 0.416672 0
M  V30 1307 H 124.737 1.88357 0.523641 0
M  V30 1308 H 123.441 3.71805 1.7375 0
M  V30 1309 H 122.972 2.55726 2.98944 0
M  V30 1310 H 124.987 2.55811 4.25176 0
M  V30 1311 N 124.16 -0.719506 1.40217 0
M  V30 1312 C 125.108 -1.85493 1.40339 0
M  V30 1313 C 126.102 -1.66995 0.284415 0
M  V30 1314 O 127.308 -1.74148 0.455252 0
M  V30 1315 H 123.683 -0.610857 0.438586 0
M  V30 1316 H 125.654 -1.82506 2.36081 0
M  V30 1317 C 124.403 -3.23321 1.27901 0
M  V30 1318 H 123.726 -3.38159 2.1328 0
M  V30 1319 H 125.166 -4.02914 1.32045 0
M  V30 1320 C 123.625 -3.36898 -0.0111355 0
M  V30 1321 O 124.155 -3.89674 -0.975538 0
M  V30 1322 N 122.361 -2.90492 -0.0793393 0
M  V30 1323 H 121.908 -2.47731 0.706183 0
M  V30 1324 H 121.866 -2.99955 -0.942038 0
M  V30 1325 N 125.638 -1.25649 -0.95132 0
M  V30 1326 C 127.054 -1.02542 -1.223 0
M  V30 1327 C 127.254 0.255715 -1.99871 0
M  V30 1328 O 126.31 0.967558 -2.33226 0
M  V30 1329 C 127.623 -2.25065 -1.99415 0
M  V30 1330 C 129.171 -2.29861 -2.12446 0
M  V30 1331 C 129.646 -3.52048 -2.92961 0
M  V30 1332 N 131.137 -3.52465 -3.00538 0
M  V30 1333 C 131.872 -4.43672 -3.63239 0
M  V30 1334 N 131.368 -5.45157 -4.27523 0
M  V30 1335 N 133.161 -4.31346 -3.60412 0
M  V30 1336 H 125.312 -2.07951 -0.432471 0
M  V30 1337 H 127.575 -0.91339 -0.253816 0
M  V30 1338 H 127.281 -3.18194 -1.49817 0
M  V30 1339 H 127.155 -2.28502 -3.00111 0
M  V30 1340 H 129.542 -1.37252 -2.61239 0
M  V30 1341 H 129.623 -2.3044 -1.11044 0
M  V30 1342 H 129.267 -4.44981 -2.44856 0
M  V30 1343 H 129.197 -3.48715 -3.94596 0
M  V30 1344 H 131.688 -2.79056 -2.54826 0
M  V30 1345 H 132.001 -6.10958 -4.73234 0
M  V30 1346 H 130.346 -5.49025 -4.26141 0
M  V30 1347 H 133.537 -3.51288 -3.09377 0
M  V30 1348 H 133.71 -5.02624 -4.0899 0
M  V30 1349 N 127.117 1.15442 -1.07289 0
M  V30 1350 C 128.067 2.18164 -0.662467 0
M  V30 1351 C 129.051 1.57845 0.312074 0
M  V30 1352 O 130.243 1.76552 0.125905 0
M  V30 1353 C 127.372 3.43246 -0.0611295 0
M  V30 1354 C 126.458 4.1062 -1.06077 0
M  V30 1355 N 126.849 4.53491 -2.24008 0
M  V30 1356 C 125.147 4.36949 -0.893964 0
M  V30 1357 C 125.848 5.05731 -2.87422 0
M  V30 1358 N 124.824 4.99236 -2.15091 0
M  V30 1359 H 128.626 2.49038 -1.56068 0
M  V30 1360 H 126.14 1.32003 -0.945988 0
M  V30 1361 H 128.137 4.16145 0.250792 0
M  V30 1362 H 126.797 3.13854 0.832207 0
M  V30 1363 H 127.808 4.46898 -2.6173 0
M  V30 1364 H 124.485 4.17466 -0.0534693 0
M  V30 1365 H 125.875 5.48865 -3.87553 0
M  V30 1366 N 128.595 0.856903 1.32268 0
M  V30 1367 C 129.545 0.274899 2.26337 0
M  V30 1368 C 130.529 -0.580543 1.50062 0
M  V30 1369 O 131.721 -0.429559 1.71708 0
M  V30 1370 C 128.85 -0.533841 3.39124 0
M  V30 1371 C 127.936 0.334114 4.22782 0
M  V30 1372 N 128.327 1.42143 4.85416 0
M  V30 1373 C 126.625 0.124256 4.45827 0
M  V30 1374 C 127.326 1.95559 5.47843 0
M  V30 1375 N 126.302 1.25444 5.28928 0
M  V30 1376 H 130.104 1.10612 2.72291 0
M  V30 1377 H 127.618 0.703258 1.46383 0
M  V30 1378 H 129.615 -0.96722 4.05525 0
M  V30 1379 H 128.275 -1.36283 2.94715 0
M  V30 1380 H 129.286 1.80436 4.85451 0
M  V30 1381 H 125.963 -0.669837 4.12092 0
M  V30 1382 H 127.353 2.86714 6.07655 0
M  V30 1383 N 130.073 -1.45103 0.615059 0
M  V30 1384 C 131.319 -2.03035 0.121804 0
M  V30 1385 C 131.674 -1.47393 -1.23665 0
M  V30 1386 O 130.967 -0.642061 -1.80522 0
M  V30 1387 C 131.161 -3.57386 0.0318797 0
M  V30 1388 C 130.99 -4.28 1.38007 0
M  V30 1389 C 129.76 -4.65624 1.9627 0
M  V30 1390 C 131.958 -4.5948 2.31047 0
M  V30 1391 N 129.94 -5.21132 3.24492 0
M  V30 1392 C 131.311 -5.159 3.43872 0
M  V30 1393 C 133.366 -4.41423 2.30326 0
M  V30 1394 C 132.069 -5.56165 4.5615 0
M  V30 1395 C 134.095 -4.82726 3.41658 0
M  V30 1396 C 133.457 -5.39245 4.53205 0
M  V30 1397 H 129.556 -0.77702 0.0881159 0
M  V30 1398 H 132.14 -1.76819 0.815044 0
M  V30 1399 H 130.311 -3.83247 -0.630599 0
M  V30 1400 H 132.043 -4.01976 -0.468721 0
M  V30 1401 H 128.798 -4.49421 1.49392 0
M  V30 1402 H 129.222 -5.53377 3.90004 0
M  V30 1403 H 133.864 -3.97033 1.45343 0
M  V30 1404 H 131.582 -5.99517 5.41854 0
M  V30 1405 H 135.168 -4.7048 3.42257 0
M  V30 1406 H 134.048 -5.70616 5.37929 0
M  V30 1407 N 131.551 -0.354651 -1.53558 0
M  V30 1408 C 132.797 0.238797 -2.01389 0
M  V30 1409 C 133.13 1.49309 -1.2418 0
M  V30 1410 O 132.405 1.91638 -0.332457 0
M  V30 1411 C 132.688 0.541771 -3.56001 0
M  V30 1412 C 132.541 -0.725388 -4.43912 0
M  V30 1413 C 133.86 1.34685 -4.18984 0
M  V30 1414 H 130.979 0.0853177 -0.732045 0
M  V30 1415 H 133.621 -0.477384 -1.83905 0
M  V30 1416 H 131.771 1.15189 -3.71031 0
M  V30 1417 H 133.443 -1.36313 -4.407 0
M  V30 1418 H 131.686 -1.34801 -4.12324 0
M  V30 1419 H 132.357 -0.468505 -5.50008 0
M  V30 1420 H 134.833 0.830837 -4.07721 0
M  V30 1421 H 133.709 1.52759 -5.27215 0
M  V30 1422 H 133.97 2.35221 -3.74331 0
M  V30 1423 N 133.029 1.57378 -0.0835403 0
M  V30 1424 C 134.276 1.9393 0.58287 0
M  V30 1425 C 134.604 0.964455 1.68904 0
M  V30 1426 O 133.859 -0.0179474 1.95692 0
M  V30 1427 C 134.158 3.37063 1.1884 0
M  V30 1428 C 133.824 4.50424 0.207194 0
M  V30 1429 C 132.486 4.81159 -0.0627115 0
M  V30 1430 C 134.838 5.19136 -0.463426 0
M  V30 1431 C 132.166 5.77939 -1.01012 0
M  V30 1432 C 134.518 6.16931 -1.39924 0
M  V30 1433 C 133.182 6.46078 -1.67749 0
M  V30 1434 H 132.452 0.70964 0.213287 0
M  V30 1435 H 135.099 1.90856 -0.156916 0
M  V30 1436 H 133.404 3.3666 2.00418 0
M  V30 1437 H 135.101 3.6264 1.71153 0
M  V30 1438 H 131.691 4.2646 0.427747 0
M  V30 1439 H 135.875 4.95576 -0.268034 0
M  V30 1440 H 131.131 5.98842 -1.23283 0
M  V30 1441 H 135.305 6.69273 -1.92476 0
M  V30 1442 H 132.932 7.2088 -2.41321 0
M  V30 1443 N 134.507 -0.190092 1.56449 0
M  V30 1444 C 135.755 -0.907908 1.80559 0
M  V30 1445 C 136.076 -1.83583 0.657438 0
M  V30 1446 O 135.346 -1.93203 -0.323924 0
M  V30 1447 H 133.926 -0.338247 0.666032 0
M  V30 1448 H 136.588 -0.194403 1.93928 0
M  V30 1449 H 135.684 -1.49604 2.73907 0
M  V30 1450 N 135.985 -1.50799 -0.457987 0
M  V30 1451 C 137.231 -1.62683 -1.21088 0
M  V30 1452 C 137.564 -0.332268 -1.91336 0
M  V30 1453 O 136.839 0.667043 -1.82704 0
M  V30 1454 C 137.122 -2.81615 -2.24422 0
M  V30 1455 C 136.975 -4.20989 -1.58392 0
M  V30 1456 C 138.294 -2.96085 -3.2561 0
M  V30 1457 H 135.413 -0.592087 -0.438864 0
M  V30 1458 H 138.055 -1.83225 -0.50286 0
M  V30 1459 H 136.205 -2.64231 -2.84806 0
M  V30 1460 H 137.877 -4.49994 -1.01504 0
M  V30 1461 H 136.12 -4.24641 -0.886704 0
M  V30 1462 H 136.791 -5.0016 -2.33547 0
M  V30 1463 H 139.267 -3.12042 -2.75262 0
M  V30 1464 H 138.143 -3.80902 -3.95228 0
M  V30 1465 H 138.404 -2.0726 -3.90507 0
M  V30 1466 N 137.463 0.71206 -1.40597 0
M  V30 1467 C 138.393 1.83889 -1.43899 0
M  V30 1468 C 139.374 1.67442 -0.299504 0
M  V30 1469 O 140.559 1.87421 -0.508624 0
M  V30 1470 C 137.689 3.21877 -1.30431 0
M  V30 1471 C 136.643 3.53002 -2.42019 0
M  V30 1472 C 135.969 4.90172 -2.13626 0
M  V30 1473 C 137.269 3.53643 -3.84362 0
M  V30 1474 H 138.963 1.81383 -2.38203 0
M  V30 1475 H 136.509 0.871237 -1.14654 0
M  V30 1476 H 138.462 4.00404 -1.31357 0
M  V30 1477 H 137.186 3.24968 -0.326049 0
M  V30 1478 H 135.845 2.76818 -2.40349 0
M  V30 1479 H 135.493 4.89869 -1.14182 0
M  V30 1480 H 135.193 5.11962 -2.88389 0
M  V30 1481 H 136.717 5.71028 -2.1624 0
M  V30 1482 H 138.131 4.22203 -3.87837 0
M  V30 1483 H 136.528 3.86961 -4.58673 0
M  V30 1484 H 137.598 2.52954 -4.13693 0
M  V30 1485 N 138.941 1.26152 0.944643 0
M  V30 1486 C 139.871 1.09902 2.06019 0
M  V30 1487 C 140.852 0.00519538 1.70099 0
M  V30 1488 O 142.037 0.176583 1.93396 0
M  V30 1489 C 139.167 0.727562 3.39594 0
M  V30 1490 C 138.121 1.77274 3.89561 0
M  V30 1491 C 137.447 1.25569 5.19747 0
M  V30 1492 C 138.747 3.17357 4.14827 0
M  V30 1493 H 140.441 2.03217 2.19871 0
M  V30 1494 H 137.987 0.978452 1.05652 0
M  V30 1495 H 139.94 0.600777 4.17095 0
M  V30 1496 H 138.664 -0.241287 3.25707 0
M  V30 1497 H 137.323 1.88814 3.14237 0
M  V30 1498 H 136.971 0.276783 5.02238 0
M  V30 1499 H 136.671 1.95433 5.54148 0
M  V30 1500 H 138.195 1.1415 5.99835 0
M  V30 1501 H 139.609 3.08914 4.82954 0
M  V30 1502 H 138.006 3.84781 4.60504 0
M  V30 1503 H 139.076 3.63673 3.20734 0
M  V30 1504 N 140.419 -1.14872 1.07899 0
M  V30 1505 C 141.659 -1.8745 0.814965 0
M  V30 1506 C 142.023 -1.80758 -0.64733 0
M  V30 1507 O 143.224 -2.48422 -1.02664 0
M  V30 1508 C 141.495 -3.32286 1.31607 0
M  V30 1509 S 143.054 -4.22537 1.18357 0
M  V30 1510 H 139.872 -0.646833 0.295174 0
M  V30 1511 H 142.474 -1.38555 1.37923 0
M  V30 1512 H 141.178 -3.34703 2.37491 0
M  V30 1513 H 140.709 -3.86238 0.747261 0
M  V30 1514 H 142.724 -4.96044 0.124586 0
M  V30 1515 N 141.898 -0.863906 -1.31812 0
M  V30 1516 C 142.846 -0.30422 -2.30602 0
M  V30 1517 C 143.84 0.577419 -1.59255 0
M  V30 1518 O 145.046 0.464194 -1.73912 0
M  V30 1519 H 141.421 -0.0796877 -0.747766 0
M  V30 1520 H 143.392 -1.15148 -2.75288 0
M  V30 1521 C 142.141 0.484617 -3.44306 0
M  V30 1522 H 141.464 -0.18451 -3.99374 0
M  V30 1523 H 142.904 0.841664 -4.15562 0
M  V30 1524 C 141.363 1.6735 -2.92396 0
M  V30 1525 O 141.893 2.77273 -2.90659 0
M  V30 1526 N 140.099 1.50362 -2.48676 0
M  V30 1527 H 139.646 0.609402 -2.50288 0
M  V30 1528 H 139.604 2.30051 -2.14299 0
M  V30 1529 N 143.376 1.44774 -0.622745 0
M  V30 1530 C 144.622 2.0242 -0.124083 0
M  V30 1531 C 144.955 1.4881 1.24777 0
M  V30 1532 O 144.23 0.668799 1.8264 0
M  V30 1533 C 144.513 3.59957 -0.101619 0
M  V30 1534 C 144.366 4.23867 -1.50521 0
M  V30 1535 C 145.685 4.36284 0.578272 0
M  V30 1536 H 142.804 0.735528 -0.0465645 0
M  V30 1537 H 145.446 1.72447 -0.797617 0
M  V30 1538 H 143.596 3.85623 0.471934 0
M  V30 1539 H 145.268 4.09336 -2.12701 0
M  V30 1540 H 143.511 3.81684 -2.06154 0
M  V30 1541 H 144.182 5.32843 -1.4416 0
M  V30 1542 H 146.658 4.16001 0.0906057 0
M  V30 1543 H 145.534 5.46004 0.563149 0
M  V30 1544 H 145.795 4.10271 1.64713 0
M  V30 1545 N 144.854 0.36279 1.53368 0
M  V30 1546 C 146.1 -0.228113 2.01513 0
M  V30 1547 C 146.433 -1.48648 1.2497 0
M  V30 1548 O 145.708 -1.91459 0.342616 0
M  V30 1549 C 145.991 -0.522884 3.56284 0
M  V30 1550 C 145.844 0.74892 4.43521 0
M  V30 1551 C 147.163 -1.32461 4.19693 0
M  V30 1552 H 144.282 -0.0814343 0.732487 0
M  V30 1553 H 146.924 0.48713 1.83649 0
M  V30 1554 H 145.074 -1.1322 3.71636 0
M  V30 1555 H 146.746 1.38648 4.39971 0
M  V30 1556 H 144.989 1.36986 4.11603 0
M  V30 1557 H 145.66 0.497667 5.49752 0
M  V30 1558 H 148.136 -0.809203 4.08156 0
M  V30 1559 H 147.012 -1.49961 5.28018 0
M  V30 1560 H 147.273 -2.33232 3.75573 0
M  V30 1561 N 146.332 -1.57332 0.0918853 0
M  V30 1562 C 147.56 -1.98574 -0.581048 0
M  V30 1563 C 147.975 -0.970903 -1.61923 0
M  V30 1564 O 147.332 0.0399054 -1.82456 0
M  V30 1565 C 147.383 -3.39872 -1.23164 0
M  V30 1566 O 147.104 -4.37469 -0.234989 0
M  V30 1567 C 148.605 -3.96099 -1.99049 0
M  V30 1568 H 145.825 -0.65261 -0.156018 0
M  V30 1569 H 148.369 -2.0379 0.170225 0
M  V30 1570 H 146.524 -3.35679 -1.93386 0
M  V30 1571 H 146.938 -5.19751 -0.70418 0
M  V30 1572 H 148.412 -4.97127 -2.39934 0
M  V30 1573 H 148.889 -3.3374 -2.85507 0
M  V30 1574 H 149.495 -4.03755 -1.3365 0
M  V30 1575 N 147.81 0.181792 -1.56548 0
M  V30 1576 C 149.056 0.901431 -1.81665 0
M  V30 1577 C 149.389 1.82347 -0.668075 0
M  V30 1578 O 148.664 1.91669 0.330615 0
M  V30 1579 C 148.947 1.70618 -3.17115 0
M  V30 1580 C 148.8 0.807964 -4.42484 0
M  V30 1581 C 150.119 2.67605 -3.49393 0
M  V30 1582 H 147.238 0.32627 -0.660846 0
M  V30 1583 H 149.88 0.168134 -1.89255 0
M  V30 1584 H 148.03 2.33133 -3.10775 0
M  V30 1585 H 149.702 0.19649 -4.60881 0
M  V30 1586 H 147.945 0.115411 -4.33646 0
M  V30 1587 H 148.616 1.40632 -5.33785 0
M  V30 1588 H 151.092 2.15218 -3.56118 0
M  V30 1589 H 149.968 3.20985 -4.45264 0
M  V30 1590 H 150.229 3.47298 -2.73563 0
M  V30 1591 N 149.288 1.51039 0.449983 0
M  V30 1592 C 150.251 1.70863 1.5277 0
M  V30 1593 C 151.251 0.578846 1.5002 0
M  V30 1594 O 152.441 0.846213 1.52266 0
M  V30 1595 C 149.573 1.75341 2.9235 0
M  V30 1596 H 150.766 2.67034 1.36502 0
M  V30 1597 H 148.319 1.40838 0.677812 0
M  V30 1598 H 149.054 0.809383 3.14037 0
M  V30 1599 H 148.839 2.57436 2.95752 0
M  V30 1600 H 150.329 1.92559 3.70555 0
M  V30 1601 N 150.766 -0.704594 1.40972 0
M  V30 1602 C 152.013 -1.46458 1.39844 0
M  V30 1603 C 152.341 -1.94499 0.00447594 0
M  V30 1604 O 151.596 -1.69275 -0.982057 0
M  V30 1605 C 151.895 -2.698 2.34399 0
M  V30 1606 C 151.561 -2.40464 3.81429 0
M  V30 1607 C 150.223 -2.32174 4.21484 0
M  V30 1608 C 152.575 -2.16086 4.74296 0
M  V30 1609 C 149.903 -1.97589 5.52427 0
M  V30 1610 C 152.255 -1.83011 6.05549 0
M  V30 1611 C 150.919 -1.7321 6.44635 0
M  V30 1612 H 150.189 -0.535927 0.511725 0
M  V30 1613 H 152.836 -0.806124 1.73706 0
M  V30 1614 H 151.141 -3.40536 1.93759 0
M  V30 1615 H 152.838 -3.27919 2.30804 0
M  V30 1616 H 149.428 -2.47808 3.49699 0
M  V30 1617 H 153.612 -2.2144 4.4416 0
M  V30 1618 H 148.868 -1.88547 5.81601 0
M  V30 1619 H 153.042 -1.63164 6.77016 0
M  V30 1620 H 150.669 -1.46179 7.46013 0
M  V30 1621 N 152.244 -1.26651 -0.937939 0
M  V30 1622 C 153.474 -1.15006 -1.71631 0
M  V30 1623 C 153.882 0.297026 -1.86854 0
M  V30 1624 O 153.225 1.21493 -1.37786 0
M  V30 1625 C 153.287 -1.74984 -3.14039 0
M  V30 1626 C 152.951 -3.24103 -3.2219 0
M  V30 1627 C 153.948 -4.20877 -3.05219 0
M  V30 1628 C 151.633 -3.64625 -3.45476 0
M  V30 1629 C 153.627 -5.56151 -3.11408 0
M  V30 1630 C 151.314 -5.00032 -3.513 0
M  V30 1631 C 152.312 -5.95604 -3.34282 0
M  V30 1632 O 152 -7.28545 -3.3982 0
M  V30 1633 H 151.732 -0.401183 -0.544085 0
M  V30 1634 H 154.286 -1.67832 -1.18413 0
M  V30 1635 H 152.516 -1.16624 -3.68695 0
M  V30 1636 H 154.205 -1.58199 -3.73802 0
M  V30 1637 H 154.971 -3.90908 -2.87081 0
M  V30 1638 H 150.85 -2.90718 -3.57777 0
M  V30 1639 H 154.394 -6.30727 -2.98043 0
M  V30 1640 H 150.291 -5.29659 -3.68959 0
M  V30 1641 H 151.059 -7.3686 -3.56343 0
M  V30 1642 N 153.722 1.14298 -1.08507 0
M  V30 1643 C 154.685 2.17607 -0.719711 0
M  V30 1644 C 155.685 1.58907 0.245997 0
M  V30 1645 O 156.875 1.74181 0.0254081 0
M  V30 1646 C 154.007 3.40842 -0.0627695 0
M  V30 1647 H 155.2 2.51443 -1.63452 0
M  V30 1648 H 152.753 1.28963 -0.88307 0
M  V30 1649 H 153.488 3.12587 0.863716 0
M  V30 1650 H 153.273 3.84713 -0.757504 0
M  V30 1651 H 154.763 4.17221 0.177786 0
M  V30 1652 N 155.201 0.870884 1.31352 0
M  V30 1653 C 156.149 0.316445 2.30437 0
M  V30 1654 C 157.143 -0.568965 1.59559 0
M  V30 1655 O 158.349 -0.454964 1.74155 0
M  V30 1656 H 154.724 0.0836521 0.747333 0
M  V30 1657 H 156.695 1.16606 2.74673 0
M  V30 1658 C 155.444 -0.46635 3.44558 0
M  V30 1659 H 154.767 0.205687 3.99271 0
M  V30 1660 H 156.207 -0.819614 4.16003 0
M  V30 1661 C 154.666 -1.65797 2.9328 0
M  V30 1662 O 155.196 -2.75728 2.92125 0
M  V30 1663 N 153.402 -1.49041 2.4947 0
M  V30 1664 H 152.949 -0.59612 2.50608 0
M  V30 1665 H 152.907 -2.28911 2.15516 0
M  V30 1666 N 156.679 -1.44442 0.630414 0
M  V30 1667 C 157.612 -2.27862 -0.124247 0
M  V30 1668 C 158.59 -1.38495 -0.851931 0
M  V30 1669 O 159.774 -1.67935 -0.856166 0
M  V30 1670 C 156.901 -3.17407 -1.18197 0
M  V30 1671 C 155.947 -4.22875 -0.554892 0
M  V30 1672 S 156.78 -5.31485 0.654489 0
M  V30 1673 C 157.936 -6.246 -0.40326 0
M  V30 1674 H 158.169 -2.91519 0.583435 0
M  V30 1675 H 155.702 -1.48618 0.418565 0
M  V30 1676 H 157.66 -3.69549 -1.78728 0
M  V30 1677 H 156.321 -2.52971 -1.86184 0
M  V30 1678 H 155.514 -4.85542 -1.35148 0
M  V30 1679 H 155.116 -3.73992 -0.0242105 0
M  V30 1680 H 157.408 -6.65375 -1.27602 0
M  V30 1681 H 158.351 -7.07851 0.187813 0
M  V30 1682 H 158.759 -5.59775 -0.728837 0
M  V30 1683 N 158.157 -0.370918 -1.53173 0
M  V30 1684 C 159.387 0.217389 -2.05453 0
M  V30 1685 C 159.795 1.42568 -1.24382 0
M  V30 1686 O 159.138 1.81571 -0.278839 0
M  V30 1687 C 159.2 0.669827 -3.53205 0
M  V30 1688 C 158.864 -0.4225 -4.55043 0
M  V30 1689 C 159.861 -1.27407 -5.04047 0
M  V30 1690 C 157.546 -0.58427 -4.9889 0
M  V30 1691 C 159.54 -2.27271 -5.95505 0
M  V30 1692 C 157.227 -1.58627 -5.90153 0
M  V30 1693 C 158.225 -2.42892 -6.38351 0
M  V30 1694 O 157.913 -3.41382 -7.27814 0
M  V30 1695 H 157.645 0.0408171 -0.674767 0
M  V30 1696 H 160.199 -0.5292 -1.98466 0
M  V30 1697 H 158.429 1.4681 -3.57748 0
M  V30 1698 H 160.118 1.18173 -3.88317 0
M  V30 1699 H 160.884 -1.16031 -4.70916 0
M  V30 1700 H 156.763 0.061851 -4.60959 0
M  V30 1701 H 160.307 -2.93079 -6.33049 0
M  V30 1702 H 156.204 -1.70048 -6.22699 0
M  V30 1703 H 156.972 -3.37173 -7.45826 0
M  V30 1704 N 159.635 1.57281 -0.100228 0
M  V30 1705 C 160.86 1.99302 0.573881 0
M  V30 1706 C 161.285 0.979059 1.60611 0
M  V30 1707 O 160.643 -0.0517803 1.81226 0
M  V30 1708 C 160.691 3.40274 1.19358 0
M  V30 1709 O 159.795 3.41676 2.30935 0
M  V30 1710 H 159.136 0.647944 0.145138 0
M  V30 1711 H 161.666 2.03779 -0.183156 0
M  V30 1712 H 161.676 3.78078 1.53365 0
M  V30 1713 H 160.351 4.13594 0.437385 0
M  V30 1714 H 158.928 3.15672 1.98509 0
M  V30 1715 N 161.113 -0.173488 1.56642 0
M  V30 1716 C 162.338 -0.910149 1.86363 0
M  V30 1717 C 162.763 -1.75132 0.686318 0
M  V30 1718 O 162.121 -1.77595 -0.364643 0
M  V30 1719 C 162.169 -1.76447 3.14482 0
M  V30 1720 O 161.273 -2.86584 2.96553 0
M  V30 1721 H 160.614 -0.255086 0.613047 0
M  V30 1722 H 163.144 -0.172283 2.03873 0
M  V30 1723 H 163.154 -2.16483 3.45831 0
M  V30 1724 H 161.829 -1.14658 3.99783 0
M  V30 1725 H 160.406 -2.50146 2.76553 0
M  V30 1726 N 162.591 -1.51276 -0.441967 0
M  V30 1727 C 163.84 -1.6295 -1.18871 0
M  V30 1728 C 164.153 -0.349312 -1.92456 0
M  V30 1729 O 165.359 -0.345355 -2.69295 0
M  V30 1730 C 163.815 -2.87759 -2.16155 0
M  V30 1731 C 163.423 -4.22764 -1.48239 0
M  V30 1732 C 165.167 -3.08788 -2.91291 0
M  V30 1733 C 163.074 -5.38728 -2.4398 0
M  V30 1734 H 162.004 -0.606913 -0.447406 0
M  V30 1735 H 164.655 -1.77739 -0.456205 0
M  V30 1736 H 163.037 -2.66593 -2.92821 0
M  V30 1737 H 164.211 -4.54293 -0.771635 0
M  V30 1738 H 162.526 -4.07575 -0.852741 0
M  V30 1739 H 165.123 -3.92599 -3.63002 0
M  V30 1740 H 165.466 -2.21679 -3.5237 0
M  V30 1741 H 165.999 -3.30272 -2.21733 0
M  V30 1742 H 162.738 -6.28082 -1.87598 0
M  V30 1743 H 162.258 -5.1158 -3.13123 0
M  V30 1744 H 163.937 -5.70489 -3.05207 0
M  V30 1745 N 164.069 0.697108 -1.41344 0
M  V30 1746 C 164.999 1.82353 -1.45841 0
M  V30 1747 C 165.98 1.67115 -0.317247 0
M  V30 1748 O 167.165 1.86871 -0.528474 0
M  V30 1749 C 164.295 3.20476 -1.33838 0
M  V30 1750 C 163.249 3.50415 -2.4575 0
M  V30 1751 C 162.575 4.87878 -2.18813 0
M  V30 1752 C 163.875 3.49546 -3.88091 0
M  V30 1753 H 165.569 1.78846 -2.40113 0
M  V30 1754 H 163.115 0.859028 -1.15571 0
M  V30 1755 H 165.068 3.98988 -1.35596 0
M  V30 1756 H 163.792 3.24604 -0.360498 0
M  V30 1757 H 162.451 2.74253 -2.43271 0
M  V30 1758 H 162.099 4.8863 -1.19371 0
M  V30 1759 H 161.799 5.08875 -2.93803 0
M  V30 1760 H 163.323 5.68702 -2.22284 0
M  V30 1761 H 164.737 4.18066 -3.92293 0
M  V30 1762 H 163.134 3.82075 -4.62751 0
M  V30 1763 H 164.204 2.48552 -4.16353 0
M  V30 1764 N 165.547 1.27147 0.931209 0
M  V30 1765 C 166.775 1.16082 1.71267 0
M  V30 1766 C 167.19 -0.282772 1.8667 0
M  V30 1767 O 166.547 -1.19283 1.38122 0
M  V30 1768 C 166.598 1.8358 3.11417 0
M  V30 1769 O 166.319 3.22299 2.96741 0
M  V30 1770 C 167.82 1.78597 4.05732 0
M  V30 1771 H 165.04 0.403758 0.535929 0
M  V30 1772 H 167.584 1.67953 1.16671 0
M  V30 1773 H 165.739 1.35623 3.62885 0
M  V30 1774 H 166.153 3.55851 3.85319 0
M  V30 1775 H 167.627 2.30444 5.01597 0
M  V30 1776 H 168.104 0.754564 4.3267 0
M  V30 1777 H 168.71 2.26152 3.60188 0
M  V30 1778 N 167.025 -1.13721 1.09112 0
M  V30 1779 C 167.958 -2.18094 0.67158 0
M  V30 1780 C 168.936 -1.59414 -0.320299 0
M  V30 1781 O 170.12 -1.87183 -0.222444 0
M  V30 1782 C 167.247 -3.38698 -0.0111189 0
M  V30 1783 C 166.293 -4.15966 0.942055 0
M  V30 1784 S 167.126 -4.7604 2.45246 0
M  V30 1785 C 168.282 -5.99994 1.78208 0
M  V30 1786 H 168.515 -2.53344 1.55577 0
M  V30 1787 H 166.048 -1.24967 0.906789 0
M  V30 1788 H 168.006 -4.08559 -0.398716 0
M  V30 1789 H 166.667 -3.01756 -0.871905 0
M  V30 1790 H 165.86 -5.02318 0.411396 0
M  V30 1791 H 165.462 -3.51745 1.2709 0
M  V30 1792 H 167.754 -6.68441 1.10424 0
M  V30 1793 H 168.697 -6.57662 2.62463 0
M  V30 1794 H 169.105 -5.50432 1.25238 0
M  V30 1795 N 168.503 -0.877838 -1.30888 0
M  V30 1796 C 169.731 -0.507414 -2.00581 0
M  V30 1797 C 170.146 0.902216 -1.65848 0
M  V30 1798 O 169.503 1.59225 -0.891831 0
M  V30 1799 C 169.554 -0.664162 -3.55347 0
M  V30 1800 O 169.275 -2.01829 -3.8884 0
M  V30 1801 C 170.776 -0.295787 -4.42312 0
M  V30 1802 H 167.996 -0.196866 -0.641471 0
M  V30 1803 H 170.54 -1.18117 -1.66939 0
M  V30 1804 H 168.695 -0.0378619 -3.87381 0
M  V30 1805 H 169.109 -2.03174 -4.8355 0
M  V30 1806 H 170.583 -0.456388 -5.5011 0
M  V30 1807 H 171.06 0.765663 -4.32475 0
M  V30 1808 H 171.666 -0.898113 -4.15709 0
M  V30 1809 N 169.982 1.44106 -0.638065 0
M  V30 1810 C 171.222 2.03858 -0.148733 0
M  V30 1811 C 171.586 1.49153 1.20903 0
M  V30 1812 O 172.787 2.00452 1.79088 0
M  V30 1813 C 171.058 3.57117 -0.142314 0
M  V30 1814 S 172.617 4.37897 0.281385 0
M  V30 1815 H 169.435 0.708069 -0.0644912 0
M  V30 1816 H 172.037 1.7639 -0.843009 0
M  V30 1817 H 170.741 3.94436 -1.13349 0
M  V30 1818 H 170.272 3.89205 0.572988 0
M  V30 1819 H 172.287 4.72218 1.52395 0
M  V30 1820 N 171.46 0.379036 1.52974 0
M  V30 1821 C 172.709 -0.207612 2.00629 0
M  V30 1822 C 173.022 -1.48758 1.27006 0
M  V30 1823 O 174.228 -2.15365 1.65318 0
M  V30 1824 C 172.684 -0.42053 3.57435 0
M  V30 1825 C 172.292 0.845587 4.39948 0
M  V30 1826 C 174.036 -0.964102 4.13407 0
M  V30 1827 C 171.943 0.601513 5.88333 0
M  V30 1828 H 170.873 -0.0813591 0.749598 0
M  V30 1829 H 173.524 0.499853 1.76561 0
M  V30 1830 H 171.906 -1.18959 3.7771 0
M  V30 1831 H 173.08 1.61848 4.31442 0
M  V30 1832 H 171.395 1.31336 3.95145 0
M  V30 1833 H 173.992 -1.16225 5.21916 0
M  V30 1834 H 174.335 -1.93019 3.68849 0
M  V30 1835 H 174.868 -0.25487 3.96983 0
M  V30 1836 H 171.607 1.53831 6.37194 0
M  V30 1837 H 171.127 -0.132628 5.99653 0
M  V30 1838 H 172.806 0.232134 6.46583 0
M  V30 1839 N 172.938 -1.57226 0.108567 0
M  V30 1840 C 174.163 -1.99604 -0.563303 0
M  V30 1841 C 174.588 -0.987563 -1.6009 0
M  V30 1842 O 173.946 0.0421687 -1.81251 0
M  V30 1843 C 173.994 -3.40902 -1.17552 0
M  V30 1844 O 173.098 -3.42896 -2.2912 0
M  V30 1845 H 172.439 -0.648704 -0.1417 0
M  V30 1846 H 174.969 -2.03679 0.193961 0
M  V30 1847 H 174.979 -3.78886 -1.51357 0
M  V30 1848 H 173.654 -4.1382 -0.415445 0
M  V30 1849 H 172.231 -3.1672 -1.96832 0
M  V30 1850 N 174.416 0.165178 -1.56732 0
M  V30 1851 C 175.662 0.882112 -1.82611 0
M  V30 1852 C 175.995 1.81628 -0.687378 0
M  V30 1853 O 175.27 1.92009 0.310267 0
M  V30 1854 C 175.553 1.67245 -3.18906 0
M  V30 1855 C 175.406 0.760987 -4.43316 0
M  V30 1856 C 176.725 2.63884 -3.52212 0
M  V30 1857 H 173.844 0.319242 -0.664269 0
M  V30 1858 H 176.486 0.148052 -1.89422 0
M  V30 1859 H 174.636 2.29824 -3.1323 0
M  V30 1860 H 176.308 0.147596 -4.61064 0
M  V30 1861 H 174.551 0.0694102 -4.33744 0
M  V30 1862 H 175.222 1.34962 -5.35247 0
M  V30 1863 H 177.698 2.11429 -3.58381 0
M  V30 1864 H 176.574 3.16245 -4.48643 0
M  V30 1865 H 176.835 3.44377 -2.77231 0
M  V30 1866 N 175.894 1.51508 0.433938 0
M  V30 1867 C 176.804 1.75917 1.5521 0
M  V30 1868 C 177.82 0.643545 1.61662 0
M  V30 1869 O 178.996 0.926183 1.7884 0
M  V30 1870 C 176.061 1.88213 2.91164 0
M  V30 1871 C 175.122 3.12074 2.94802 0
M  V30 1872 C 174.355 3.23774 4.24271 0
M  V30 1873 O 174.578 2.4133 5.16833 0
M  V30 1874 O 173.512 4.16774 4.34262 0
M  V30 1875 H 177.338 2.70777 1.37527 0
M  V30 1876 H 174.923 1.36051 0.617293 0
M  V30 1877 H 176.805 1.98267 3.71845 0
M  V30 1878 H 175.48 0.965413 3.08968 0
M  V30 1879 H 174.387 3.07497 2.13065 0
M  V30 1880 H 175.72 4.03446 2.81943 0
M  V30 1881 N 177.372 -0.689602 1.41712 0
M  V30 1882 C 178.788 -1.00093 1.24312 0
M  V30 1883 C 178.988 -2.01036 0.136729 0
M  V30 1884 O 178.044 -2.47562 -0.496918 0
M  V30 1885 C 179.357 -1.51985 2.59463 0
M  V30 1886 C 180.905 -1.63838 2.66695 0
M  V30 1887 C 181.38 -2.1913 4.02177 0
M  V30 1888 N 182.871 -2.26483 4.04054 0
M  V30 1889 C 183.606 -2.70306 5.0569 0
M  V30 1890 N 183.102 -3.13691 6.17713 0
M  V30 1891 N 184.895 -2.69923 4.9305 0
M  V30 1892 H 177.046 -0.0210029 2.1239 0
M  V30 1893 H 179.309 -0.0718733 0.945272 0
M  V30 1894 H 179.015 -0.85269 3.41207 0
M  V30 1895 H 178.889 -2.50103 2.82362 0
M  V30 1896 H 181.276 -2.29664 1.85306 0
M  V30 1897 H 181.357 -0.642492 2.476 0
M  V30 1898 H 181.001 -1.53918 4.84016 0
M  V30 1899 H 180.931 -3.19482 4.18615 0
M  V30 1900 H 183.422 -1.95874 3.23174 0
M  V30 1901 H 183.735 -3.45773 6.9113 0
M  V30 1902 H 182.08 -3.11585 6.21241 0
M  V30 1903 H 185.271 -2.35382 4.04614 0
M  V30 1904 H 185.444 -3.03758 5.72394 0
M  V30 1905 N 178.85 -1.27639 -0.924453 0
M  V30 1906 C 180.097 -1.14167 -1.67249 0
M  V30 1907 C 180.425 0.311863 -1.91984 0
M  V30 1908 O 179.68 1.24425 -1.51053 0
M  V30 1909 C 179.979 -1.87407 -3.04325 0
M  V30 1910 C 179.645 -3.37249 -2.99289 0
M  V30 1911 C 178.307 -3.7812 -2.97622 0
M  V30 1912 C 180.659 -4.32845 -2.90336 0
M  V30 1913 C 177.987 -5.12944 -2.8479 0
M  V30 1914 C 180.339 -5.6773 -2.79045 0
M  V30 1915 C 179.003 -6.07889 -2.7573 0
M  V30 1916 H 178.273 -0.417766 -0.612007 0
M  V30 1917 H 180.92 -1.58286 -1.07786 0
M  V30 1918 H 179.225 -1.35805 -3.67511 0
M  V30 1919 H 180.922 -1.74408 -3.61086 0
M  V30 1920 H 177.512 -3.04748 -3.01374 0
M  V30 1921 H 181.696 -4.02239 -2.90719 0
M  V30 1922 H 176.952 -5.432 -2.80612 0
M  V30 1923 H 181.126 -6.41472 -2.71083 0
M  V30 1924 H 178.753 -7.12314 -2.65544 0
M  V30 1925 N 180.328 1.1314 -1.09713 0
M  V30 1926 C 181.258 2.20748 -0.761102 0
M  V30 1927 C 182.239 1.68061 0.262566 0
M  V30 1928 O 183.424 1.93765 0.129977 0
M  V30 1929 C 180.554 3.46812 -0.184054 0
M  V30 1930 C 179.508 4.12606 -1.13757 0
M  V30 1931 C 178.834 5.33031 -0.422083 0
M  V30 1932 C 180.134 4.59603 -2.48118 0
M  V30 1933 H 181.828 2.49113 -1.66082 0
M  V30 1934 H 179.374 1.19734 -0.799987 0
M  V30 1935 H 181.327 4.21353 0.0631215 0
M  V30 1936 H 180.051 3.17851 0.750868 0
M  V30 1937 H 178.71 3.40036 -1.37007 0
M  V30 1938 H 178.358 5.00335 0.517072 0
M  V30 1939 H 178.058 5.77999 -1.05788 0
M  V30 1940 H 179.582 6.10325 -0.183277 0
M  V30 1941 H 180.996 5.25552 -2.29059 0
M  V30 1942 H 179.393 5.15321 -3.07514 0
M  V30 1943 H 180.463 3.73971 -3.08665 0
M  V30 1944 N 181.806 0.884767 1.30421 0
M  V30 1945 C 183.054 0.502112 1.95763 0
M  V30 1946 C 183.375 -0.951815 1.70192 0
M  V30 1947 O 182.645 -1.6692 1.0254 0
M  V30 1948 H 181.225 0.182694 0.724315 0
M  V30 1949 H 183.887 1.1278 1.58955 0
M  V30 1950 H 182.983 0.672188 3.04775 0
M  V30 1951 N 183.284 -1.43765 0.645699 0
M  V30 1952 C 184.53 -2.02197 0.156271 0
M  V30 1953 C 184.863 -1.50776 -1.22393 0
M  V30 1954 O 184.138 -0.697771 -1.81553 0
M  V30 1955 C 184.421 -3.59749 0.158872 0
M  V30 1956 C 184.274 -4.21419 1.57245 0
M  V30 1957 C 185.593 -4.37149 -0.50879 0
M  V30 1958 H 182.712 -0.734694 0.0582602 0
M  V30 1959 H 185.354 -1.71157 0.824951 0
M  V30 1960 H 183.504 -3.86325 -0.410525 0
M  V30 1961 H 185.176 -4.059 2.19186 0
M  V30 1962 H 183.419 -3.78356 2.122 0
M  V30 1963 H 184.09 -5.30482 1.52619 0
M  V30 1964 H 186.566 -4.16093 -0.024412 0
M  V30 1965 H 185.442 -5.4683 -0.476213 0
M  V30 1966 H 185.703 -4.12839 -1.58165 0
M  V30 1967 N 184.763 -0.387143 -1.52771 0
M  V30 1968 C 185.693 0.440551 -2.29306 0
M  V30 1969 C 186.674 1.06535 -1.32606 0
M  V30 1970 O 187.859 1.07853 -1.61497 0
M  V30 1971 C 184.989 1.56919 -3.09829 0
M  V30 1972 C 183.943 1.07054 -4.14395 0
M  V30 1973 C 183.269 2.29109 -4.83129 0
M  V30 1974 C 184.569 0.140015 -5.22112 0
M  V30 1975 H 186.263 -0.198026 -2.98744 0
M  V30 1976 H 183.809 -0.09668 -1.43675 0
M  V30 1977 H 185.762 2.15503 -3.62128 0
M  V30 1978 H 184.486 2.23532 -2.3812 0
M  V30 1979 H 183.145 0.507247 -3.63074 0
M  V30 1980 H 182.793 2.94227 -4.0797 0
M  V30 1981 H 182.493 1.96406 -5.53804 0
M  V30 1982 H 184.017 2.88339 -5.38231 0
M  V30 1983 H 185.431 0.633978 -5.69784 0
M  V30 1984 H 183.828 -0.0971485 -6.00021 0
M  V30 1985 H 184.898 -0.811711 -4.78058 0
M  V30 1986 N 186.241 1.57166 -0.116904 0
M  V30 1987 C 187.471 1.99184 0.548586 0
M  V30 1988 C 187.879 0.995436 1.60897 0
M  V30 1989 O 187.222 -0.0201293 1.83689 0
M  V30 1990 C 187.284 3.37611 1.23526 0
M  V30 1991 C 186.948 4.55857 0.323077 0
M  V30 1992 C 187.945 5.18056 -0.437476 0
M  V30 1993 C 185.63 5.01751 0.234761 0
M  V30 1994 C 187.624 6.24536 -1.2741 0
M  V30 1995 C 185.311 6.08093 -0.605496 0
M  V30 1996 C 186.309 6.69352 -1.35856 0
M  V30 1997 O 185.997 7.7364 -2.18487 0
M  V30 1998 H 185.729 0.659148 0.149999 0
M  V30 1999 H 188.283 2.0443 -0.199428 0
M  V30 2000 H 186.513 3.29113 2.0303 0
M  V30 2001 H 188.202 3.63932 1.79745 0
M  V30 2002 H 188.968 4.83516 -0.379105 0
M  V30 2003 H 184.847 4.53817 0.810601 0
M  V30 2004 H 188.391 6.72281 -1.86237 0
M  V30 2005 H 184.288 6.42063 -0.665268 0
M  V30 2006 H 185.056 7.90727 -2.11406 0
M  V30 2007 N 187.719 -0.156864 1.56817 0
M  V30 2008 C 189.13 -0.717916 1.72345 0
M  V30 2009 C 189.481 -1.82124 0.729747 0
M  V30 2010 O 188.606 -2.16141 -0.105781 0
M  V30 2011 C 189.201 -1.30904 3.12489 0
M  V30 2012 C 187.76 -1.81676 3.29653 0
M  V30 2013 C 186.907 -0.701349 2.68284 0
M  V30 2014 H 189.858 0.0686989 1.58551 0
M  V30 2015 H 189.879 -2.17882 3.11942 0
M  V30 2016 H 189.391 -0.505796 3.8479 0
M  V30 2017 H 187.492 -2.64598 2.62333 0
M  V30 2018 H 187.605 -1.95226 4.3752 0
M  V30 2019 H 185.969 -1.12548 2.28484 0
M  V30 2020 H 186.752 0.0902846 3.43181 0
M  V30 2021 N 189.197 -1.51736 -0.425897 0
M  V30 2022 C 190.127 -1.76827 -1.52494 0
M  V30 2023 C 191.108 -0.618524 -1.58456 0
M  V30 2024 O 192.293 -0.862416 -1.74 0
M  V30 2025 C 189.423 -1.90374 -2.90474 0
M  V30 2026 C 188.377 -3.0588 -2.99369 0
M  V30 2027 C 187.703 -3.04625 -4.3944 0
M  V30 2028 C 189.003 -4.45644 -2.72394 0
M  V30 2029 H 190.697 -2.68855 -1.31748 0
M  V30 2030 H 188.243 -1.29372 -0.632362 0
M  V30 2031 H 190.196 -2.0651 -3.6733 0
M  V30 2032 H 188.92 -0.95004 -3.12477 0
M  V30 2033 H 187.579 -2.89467 -2.24954 0
M  V30 2034 H 187.227 -2.0701 -4.58428 0
M  V30 2035 H 186.927 -3.82195 -4.46319 0
M  V30 2036 H 188.451 -3.22869 -5.18255 0
M  V30 2037 H 189.865 -4.62348 -3.38979 0
M  V30 2038 H 188.262 -5.25006 -2.9067 0
M  V30 2039 H 189.332 -4.54893 -1.67929 0
M  V30 2040 N 190.675 0.682077 -1.42076 0
M  V30 2041 C 191.9 1.47558 -1.45744 0
M  V30 2042 C 192.325 1.87977 -0.0680981 0
M  V30 2043 O 191.683 1.55522 0.9318 0
M  V30 2044 C 191.731 2.70575 -2.38373 0
M  V30 2045 O 190.835 3.68573 -1.85007 0
M  V30 2046 H 190.176 0.443585 -0.494093 0
M  V30 2047 H 192.706 0.837238 -1.86686 0
M  V30 2048 H 192.716 3.18729 -2.54707 0
M  V30 2049 H 191.391 2.40495 -3.39315 0
M  V30 2050 H 189.968 3.2757 -1.78192 0
M  V30 2051 N 192.153 1.28127 0.917671 0
M  V30 2052 C 193.378 1.18007 1.70555 0
M  V30 2053 C 193.803 -0.258257 1.86319 0
M  V30 2054 O 193.161 -1.1869 1.37049 0
M  V30 2055 C 193.209 1.87948 3.07746 0
M  V30 2056 O 192.313 1.18427 3.9503 0
M  V30 2057 H 191.654 0.409867 0.522403 0
M  V30 2058 H 194.184 1.69379 1.1477 0
M  V30 2059 H 194.194 1.95701 3.58001 0
M  V30 2060 H 192.869 2.92573 2.95591 0
M  V30 2061 H 191.446 1.18811 3.53466 0
M  V30 2062 N 193.631 -1.12557 1.10312 0
M  V30 2063 C 194.578 -2.18247 0.750781 0
M  V30 2064 C 195.548 -1.63853 -0.272293 0
M  V30 2065 O 196.733 -1.90195 -0.151862 0
M  V30 2066 C 193.873 -3.44591 0.187379 0
M  V30 2067 C 192.986 -4.13046 1.2656 0
M  V30 2068 C 192.121 -5.27034 0.663978 0
M  V30 2069 C 191.16 -5.87353 1.72287 0
M  V30 2070 N 190.297 -6.92757 1.1416 0
M  V30 2071 H 195.137 -2.47732 1.65628 0
M  V30 2072 H 192.674 -1.21629 0.827337 0
M  V30 2073 H 194.632 -4.16904 -0.157148 0
M  V30 2074 H 193.262 -3.15527 -0.681355 0
M  V30 2075 H 192.314 -3.38924 1.72727 0
M  V30 2076 H 193.626 -4.53947 2.06721 0
M  V30 2077 H 192.78 -6.06104 0.268824 0
M  V30 2078 H 191.519 -4.87407 -0.169082 0
M  V30 2079 H 190.524 -5.06971 2.12746 0
M  V30 2080 H 191.749 -6.29051 2.55875 0
M  V30 2081 H 189.695 -6.5517 0.329984 0
M  V30 2082 H 189.612 -7.3225 1.88007 0
M  V30 2083 H 190.88 -7.75658 0.772956 0
M  V30 2084 N 195.109 -0.891671 -1.2995 0
M  V30 2085 C 196.525 -0.58662 -1.48428 0
M  V30 2086 C 196.725 0.873951 -1.81561 0
M  V30 2087 O 195.781 1.65471 -1.90724 0
M  V30 2088 C 197.094 -1.50553 -2.60296 0
M  V30 2089 C 198.642 -1.50988 -2.74175 0
M  V30 2090 C 199.117 -2.41488 -3.89163 0
M  V30 2091 N 200.608 -2.39489 -3.96483 0
M  V30 2092 C 201.343 -3.06223 -4.84784 0
M  V30 2093 N 200.839 -3.82206 -5.77833 0
M  V30 2094 N 202.632 -2.95421 -4.78208 0
M  V30 2095 H 194.783 -1.83644 -1.06718 0
M  V30 2096 H 197.046 -0.786455 -0.529332 0
M  V30 2097 H 196.752 -2.54581 -2.42654 0
M  V30 2098 H 196.626 -1.22008 -3.56923 0
M  V30 2099 H 199.013 -0.47708 -2.91218 0
M  V30 2100 H 199.094 -1.83567 -1.78148 0
M  V30 2101 H 198.738 -3.44857 -3.72876 0
M  V30 2102 H 198.668 -2.06222 -4.84541 0
M  V30 2103 H 201.159 -1.84278 -3.29924 0
M  V30 2104 H 201.472 -4.302 -6.41988 0
M  V30 2105 H 199.817 -3.86313 -5.77743 0
M  V30 2106 H 203.008 -2.35581 -4.04499 0
M  V30 2107 H 203.181 -3.47704 -5.46814 0
M  V30 2108 N 196.587 1.43421 -0.653314 0
M  V30 2109 C 197.833 2.02641 -0.175593 0
M  V30 2110 C 198.188 1.5062 1.19713 0
M  V30 2111 O 197.481 0.689697 1.78756 0
M  V30 2112 C 197.675 3.57176 -0.126623 0
M  V30 2113 C 197.504 4.24191 -1.49306 0
M  V30 2114 C 196.274 4.60257 -2.08547 0
M  V30 2115 C 198.472 4.53193 -2.43148 0
M  V30 2116 N 196.454 5.12345 -3.38194 0
M  V30 2117 C 197.825 5.06601 -3.57429 0
M  V30 2118 C 199.88 4.35161 -2.41949 0
M  V30 2119 C 198.583 5.43875 -4.70736 0
M  V30 2120 C 200.609 4.73498 -3.54336 0
M  V30 2121 C 199.971 5.27039 -4.67343 0
M  V30 2122 H 196.07 0.77441 -0.108686 0
M  V30 2123 H 198.654 1.74596 -0.861638 0
M  V30 2124 H 196.825 3.84784 0.528766 0
M  V30 2125 H 198.557 4.03078 0.36198 0
M  V30 2126 H 195.312 4.45302 -1.61255 0
M  V30 2127 H 195.736 5.42842 -4.04538 0
M  V30 2128 H 200.378 3.9304 -1.55818 0
M  V30 2129 H 198.096 5.8494 -5.57558 0
M  V30 2130 H 201.682 4.61241 -3.5461 0
M  V30 2131 H 200.562 5.56153 -5.52868 0
M  V30 2132 N 198.065 0.39524 1.52563 0
M  V30 2133 C 199.481 0.0454682 1.59535 0
M  V30 2134 C 199.681 -1.44056 1.4089 0
M  V30 2135 O 198.737 -2.20579 1.22888 0
M  V30 2136 C 200.05 0.527963 2.96029 0
M  V30 2137 C 201.598 0.484733 3.09224 0
M  V30 2138 C 202.073 0.943512 4.48176 0
M  V30 2139 N 203.564 0.899765 4.54377 0
M  V30 2140 C 204.299 1.22609 5.60138 0
M  V30 2141 N 203.795 1.62319 6.73516 0
M  V30 2142 N 205.588 1.14696 5.50274 0
M  V30 2143 H 197.739 1.36261 1.62931 0
M  V30 2144 H 200.002 0.558887 0.765735 0
M  V30 2145 H 199.708 1.56607 3.14908 0
M  V30 2146 H 199.582 -0.0698056 3.77135 0
M  V30 2147 H 201.969 -0.544298 2.90037 0
M  V30 2148 H 202.05 1.11838 2.30056 0
M  V30 2149 H 201.694 1.9708 4.68104 0
M  V30 2150 H 201.624 0.286817 5.25818 0
M  V30 2151 H 204.115 0.607632 3.72983 0
M  V30 2152 H 204.428 1.85567 7.5019 0
M  V30 2153 H 202.773 1.66211 6.74833 0
M  V30 2154 H 205.964 0.835701 4.6058 0
M  V30 2155 H 206.137 1.40459 6.32594 0
M  V30 2156 N 199.544 -1.57102 0.125237 0
M  V30 2157 C 200.96 -1.57915 -0.231322 0
M  V30 2158 C 201.16 -1.13833 -1.66266 0
M  V30 2159 O 200.216 -0.828581 -2.38518 0
M  V30 2160 C 201.529 -3.00699 0.00766489 0
M  V30 2161 C 203.077 -3.12947 -0.0577483 0
M  V30 2162 C 203.552 -4.57742 0.153626 0
M  V30 2163 N 205.043 -4.63092 0.0998073 0
M  V30 2164 C 205.778 -5.72905 0.238174 0
M  V30 2165 N 205.274 -6.91445 0.433057 0
M  V30 2166 N 207.067 -5.6182 0.177308 0
M  V30 2167 H 199.218 -1.84055 1.06007 0
M  V30 2168 H 201.481 -0.850905 0.417929 0
M  V30 2169 H 201.187 -3.3726 0.997431 0
M  V30 2170 H 201.061 -3.70236 -0.721452 0
M  V30 2171 H 203.448 -2.7624 -1.03804 0
M  V30 2172 H 203.529 -2.4594 0.70335 0
M  V30 2173 H 203.173 -4.95149 1.13092 0
M  V30 2174 H 203.103 -5.22848 -0.627534 0
M  V30 2175 H 205.594 -3.77871 -0.047051 0
M  V30 2176 H 205.907 -7.70985 0.529332 0
M  V30 2177 H 204.252 -6.93415 0.469109 0
M  V30 2178 H 207.443 -4.68093 0.0259748 0
M  V30 2179 H 207.616 -6.47357 0.288582 0
M  V30 2180 N 201.022 0.148545 -1.56898 0
M  V30 2181 C 202.438 0.501131 -1.51528 0
M  V30 2182 C 202.638 1.83458 -0.833399 0
M  V30 2183 O 201.694 2.49259 -0.40328 0
M  V30 2184 C 203.007 0.512864 -2.96294 0
M  V30 2185 C 204.555 0.598487 -3.07225 0
M  V30 2186 C 205.03 0.640897 -4.53494 0
M  V30 2187 N 206.521 0.703163 -4.57832 0
M  V30 2188 C 207.256 0.756935 -5.68382 0
M  V30 2189 N 206.752 0.770147 -6.88506 0
M  V30 2190 N 208.545 0.797698 -5.56411 0
M  V30 2191 H 200.696 -0.725532 -1.99624 0
M  V30 2192 H 202.959 -0.264358 -0.910395 0
M  V30 2193 H 202.665 -0.398691 -3.49433 0
M  V30 2194 H 202.539 1.35133 -3.52163 0
M  V30 2195 H 204.926 1.50046 -2.54106 0
M  V30 2196 H 205.007 -0.267093 -2.54402 0
M  V30 2197 H 204.651 -0.256915 -5.0725 0
M  V30 2198 H 204.581 1.52295 -5.04097 0
M  V30 2199 H 207.072 0.700314 -3.71354 0
M  V30 2200 H 207.385 0.812983 -7.68512 0
M  V30 2201 H 205.73 0.738049 -6.9107 0
M  V30 2202 H 208.921 0.784535 -4.61479 0
M  V30 2203 H 209.094 0.83614 -6.42583 0
M  V30 2204 N 202.5 1.5196 0.417844 0
M  V30 2205 C 203.916 1.40569 0.755816 0
M  V30 2206 C 204.116 0.503316 1.95113 0
M  V30 2207 O 203.172 -0.0341925 2.52477 0
M  V30 2208 C 204.485 2.82947 1.01791 0
M  V30 2209 C 206.033 2.92231 1.12116 0
M  V30 2210 C 206.508 4.35559 1.41608 0
M  V30 2211 N 207.999 4.38753 1.48491 0
M  V30 2212 C 208.734 5.46705 1.7292 0
M  V30 2213 N 208.23 6.64788 1.95011 0
M  V30 2214 N 210.023 5.34209 1.74863 0
M  V30 2215 H 202.174 2.09168 -0.369098 0
M  V30 2216 H 204.437 0.942409 -0.102809 0
M  V30 2217 H 204.143 3.5106 0.212081 0
M  V30 2218 H 204.017 3.23462 1.94042 0
M  V30 2219 H 206.404 2.24304 1.9176 0
M  V30 2220 H 206.485 2.55185 0.177225 0
M  V30 2221 H 206.129 5.04042 0.624848 0
M  V30 2222 H 206.059 4.70133 2.37239 0
M  V30 2223 H 208.55 3.5363 1.33244 0
M  V30 2224 H 208.863 7.42845 2.13076 0
M  V30 2225 H 207.208 6.67869 1.92293 0
M  V30 2226 H 210.399 4.40937 1.57137 0
M  V30 2227 H 210.572 6.18415 1.93563 0
M  V30 2228 N 203.978 -0.674533 1.42435 0
M  V30 2229 C 205.208 -1.46071 1.46105 0
M  V30 2230 C 205.616 -1.89067 0.0709605 0
M  V30 2231 O 204.959 -1.58731 -0.924677 0
M  V30 2232 C 205.021 -2.74145 2.32561 0
M  V30 2233 C 204.685 -2.53224 3.8043 0
M  V30 2234 C 205.682 -2.17809 4.72075 0
M  V30 2235 C 203.367 -2.6821 4.24698 0
M  V30 2236 C 205.361 -1.97648 6.05982 0
M  V30 2237 C 203.048 -2.47665 5.58664 0
M  V30 2238 C 204.046 -2.12437 6.49122 0
M  V30 2239 O 203.734 -1.9209 7.80613 0
M  V30 2240 H 203.466 -0.455959 0.499076 0
M  V30 2241 H 206.02 -0.836193 1.87609 0
M  V30 2242 H 204.25 -3.3908 1.85908 0
M  V30 2243 H 205.939 -3.36028 2.27683 0
M  V30 2244 H 206.705 -2.05826 4.39159 0
M  V30 2245 H 202.584 -2.94609 3.54579 0
M  V30 2246 H 206.128 -1.70075 6.7655 0
M  V30 2247 H 202.025 -2.59244 5.91154 0
M  V30 2248 H 202.793 -2.06686 7.91974 0
M  V30 2249 N 205.456 -1.28612 -0.910864 0
M  V30 2250 C 206.419 -1.12803 -1.9952 0
M  V30 2251 C 207.419 -0.0668264 -1.60661 0
M  V30 2252 O 208.609 -0.312847 -1.71368 0
M  V30 2253 C 205.741 -0.72254 -3.33155 0
M  V30 2254 H 206.934 -2.09109 -2.14973 0
M  V30 2255 H 204.487 -1.11639 -1.09391 0
M  V30 2256 H 205.222 0.241152 -3.23402 0
M  V30 2257 H 205.007 -1.48916 -3.62721 0
M  V30 2258 H 206.497 -0.634666 -4.12749 0
M  V30 2259 N 206.934 1.1197 -1.10907 0
M  V30 2260 C 208.18 1.8386 -0.855773 0
M  V30 2261 C 208.513 1.84134 0.617103 0
M  V30 2262 O 207.788 1.29041 1.45529 0
M  V30 2263 C 208.071 3.31305 -1.411 0
M  V30 2264 C 207.924 3.39456 -2.9511 0
M  V30 2265 C 209.243 4.2721 -1.05736 0
M  V30 2266 H 206.362 0.667545 -0.312334 0
M  V30 2267 H 209.004 1.31331 -1.37303 0
M  V30 2268 H 207.154 3.76169 -0.97105 0
M  V30 2269 H 208.826 3.03191 -3.47668 0
M  V30 2270 H 207.069 2.79849 -3.31462 0
M  V30 2271 H 207.74 4.43209 -3.29044 0
M  V30 2272 H 210.216 3.90497 -1.43706 0
M  V30 2273 H 209.092 5.28775 -1.47269 0
M  V30 2274 H 209.353 4.42088 0.0325958 0
M  V30 2275 N 208.412 0.89855 1.29475 0
M  V30 2276 C 209.375 0.380272 2.26023 0
M  V30 2277 C 210.375 -0.484891 1.53315 0
M  V30 2278 O 211.565 -0.290108 1.71767 0
M  V30 2279 C 208.697 -0.45651 3.3783 0
M  V30 2280 H 209.89 1.23295 2.73383 0
M  V30 2281 H 207.443 0.676589 1.40897 0
M  V30 2282 H 208.178 -1.32922 2.95808 0
M  V30 2283 H 207.963 0.163393 3.91759 0
M  V30 2284 H 209.453 -0.810466 4.0966 0
M  V30 2285 N 209.89 -1.43072 0.660911 0
M  V30 2286 C 210.853 -2.29194 -0.0166406 0
M  V30 2287 C 211.853 -1.42609 -0.742912 0
M  V30 2288 O 213.043 -1.64155 -0.583004 0
M  V30 2289 C 210.175 -3.24831 -1.0343 0
M  V30 2290 H 211.368 -2.90596 0.741208 0
M  V30 2291 H 208.921 -1.5048 0.422532 0
M  V30 2292 H 209.656 -2.68339 -1.82111 0
M  V30 2293 H 209.441 -3.88676 -0.517082 0
M  V30 2294 H 210.931 -3.89451 -1.50723 0
M  V30 2295 N 211.368 -0.403325 -1.52352 0
M  V30 2296 C 212.608 0.173946 -2.03659 0
M  V30 2297 C 212.972 1.42869 -1.28267 0
M  V30 2298 O 214.173 2.08403 -1.69769 0
M  V30 2299 C 212.444 0.421478 -3.54906 0
M  V30 2300 S 214.003 0.967027 -4.28012 0
M  V30 2301 H 210.821 0.0477461 -0.709395 0
M  V30 2302 H 213.423 -0.554906 -1.87459 0
M  V30 2303 H 212.127 -0.498616 -4.0736 0
M  V30 2304 H 211.658 1.17837 -3.75337 0
M  V30 2305 H 213.673 2.24812 -4.4235 0
M  V30 2306 N 212.846 1.57033 -0.133567 0
M  V30 2307 C 213.809 2.14897 0.796995 0
M  V30 2308 C 214.809 1.0874 1.18458 0
M  V30 2309 O 215.999 1.34446 1.1077 0
M  V30 2310 C 213.131 2.70112 2.07973 0
M  V30 2311 H 214.324 2.98457 0.293873 0
M  V30 2312 H 211.877 1.55871 0.115787 0
M  V30 2313 H 212.612 1.9018 2.62682 0
M  V30 2314 H 212.397 3.47764 1.81115 0
M  V30 2315 H 213.887 3.14738 2.74462 0
M  V30 2316 N 214.325 -0.140222 1.56975 0
M  V30 2317 C 215.573 -0.850005 1.83356 0
M  V30 2318 C 215.894 -1.81399 0.71551 0
M  V30 2319 O 215.164 -1.94136 -0.262294 0
M  V30 2320 H 213.744 -0.316886 0.676456 0
M  V30 2321 H 216.406 -0.132608 1.94448 0
M  V30 2322 H 215.502 -1.40814 2.78528 0
M  V30 2323 N 215.803 -1.52179 -0.40978 0
M  V30 2324 C 217.031 -1.70054 -1.17853 0
M  V30 2325 C 217.446 -0.409735 -1.843 0
M  V30 2326 O 216.803 0.614183 -1.71855 0
M  V30 2327 C 216.854 -2.83568 -2.24213 0
M  V30 2328 O 216.575 -4.0765 -1.60478 0
M  V30 2329 C 218.076 -3.12947 -3.13973 0
M  V30 2330 H 215.296 -0.569917 -0.354169 0
M  V30 2331 H 217.84 -1.98734 -0.482198 0
M  V30 2332 H 215.995 -2.57409 -2.89516 0
M  V30 2333 H 216.409 -4.70899 -2.30986 0
M  V30 2334 H 217.883 -3.95889 -3.84677 0
M  V30 2335 H 218.36 -2.26472 -3.76307 0
M  V30 2336 H 218.966 -3.40868 -2.5434 0
M  V30 2337 N 217.281 0.66697 -1.42791 0
M  V30 2338 C 218.527 1.42754 -1.44889 0
M  V30 2339 C 218.882 1.92283 -0.0669755 0
M  V30 2340 O 218.175 1.68494 0.912154 0
M  V30 2341 C 218.369 2.6349 -2.4147 0
M  V30 2342 C 218.198 2.25776 -3.88915 0
M  V30 2343 C 216.968 2.1476 -4.57391 0
M  V30 2344 C 219.166 1.86927 -4.79127 0
M  V30 2345 N 217.148 1.70232 -5.89826 0
M  V30 2346 C 218.519 1.53378 -6.00729 0
M  V30 2347 C 220.574 1.73989 -4.66511 0
M  V30 2348 C 219.277 1.08187 -7.11117 0
M  V30 2349 C 221.303 1.30203 -5.76889 0
M  V30 2350 C 220.665 0.975818 -6.97608 0
M  V30 2351 H 216.764 0.518559 -0.585338 0
M  V30 2352 H 219.348 0.768906 -1.78874 0
M  V30 2353 H 217.519 3.27033 -2.09533 0
M  V30 2354 H 219.251 3.30123 -2.34096 0
M  V30 2355 H 216.006 2.3408 -4.11708 0
M  V30 2356 H 216.43 1.50369 -6.6009 0
M  V30 2357 H 221.072 1.97853 -3.7365 0
M  V30 2358 H 218.79 0.830701 -8.03819 0
M  V30 2359 H 222.376 1.20701 -5.69142 0
M  V30 2360 H 221.256 0.642157 -7.81566 0
M  V30 2361 N 218.759 1.29093 0.90403 0
M  V30 2362 C 219.689 1.16401 2.02418 0
M  V30 2363 C 220.67 0.0593085 1.69997 0
M  V30 2364 O 221.855 0.238021 1.92736 0
M  V30 2365 C 218.985 0.835233 3.37107 0
M  V30 2366 C 217.939 1.89578 3.83724 0
M  V30 2367 C 217.265 1.42041 5.15489 0
M  V30 2368 C 218.565 3.30394 4.04521 0
M  V30 2369 H 220.259 2.10109 2.13295 0
M  V30 2370 H 217.805 1.01157 1.02486 0
M  V30 2371 H 219.758 0.733169 4.14973 0
M  V30 2372 H 218.482 -0.137543 3.2631 0
M  V30 2373 H 217.141 1.98715 3.08071 0
M  V30 2374 H 216.789 0.436426 5.01103 0
M  V30 2375 H 216.489 2.12964 5.4765 0
M  V30 2376 H 218.013 1.33176 5.959 0
M  V30 2377 H 219.427 3.24123 4.72882 0
M  V30 2378 H 217.824 3.99237 4.48029 0
M  V30 2379 H 218.894 3.73692 3.09002 0
M  V30 2380 N 220.237 -1.11381 1.11499 0
M  V30 2381 C 221.167 -2.19509 0.796125 0
M  V30 2382 C 222.148 -1.68458 -0.235796 0
M  V30 2383 O 223.333 -1.93947 -0.0991344 0
M  V30 2384 C 220.463 -3.46475 0.239205 0
M  V30 2385 C 219.417 -4.10744 1.20307 0
M  V30 2386 C 218.743 -5.32293 0.50683 0
M  V30 2387 C 220.043 -4.55597 2.55399 0
M  V30 2388 H 221.737 -2.46439 1.70024 0
M  V30 2389 H 219.283 -1.18446 0.818935 0
M  V30 2390 H 221.236 -4.214 0.00392006 0
M  V30 2391 H 219.96 -3.19006 -0.700206 0
M  V30 2392 H 218.619 -3.37813 1.42399 0
M  V30 2393 H 218.267 -5.01095 -0.437408 0
M  V30 2394 H 217.967 -5.76243 1.1497 0
M  V30 2395 H 219.491 -6.09956 0.280351 0
M  V30 2396 H 220.905 -5.21841 2.37391 0
M  V30 2397 H 219.302 -5.10363 3.15673 0
M  V30 2398 H 220.372 -3.69013 3.14575 0
M  V30 2399 N 221.715 -0.905404 -1.28997 0
M  V30 2400 C 222.645 -0.404212 -2.29975 0
M  V30 2401 C 223.626 0.523784 -1.61835 0
M  V30 2402 O 224.811 0.433298 -1.89304 0
M  V30 2403 C 221.941 0.364042 -3.45387 0
M  V30 2404 C 220.895 -0.474048 -4.25367 0
M  V30 2405 C 220.221 0.422045 -5.33032 0
M  V30 2406 C 221.521 -1.72696 -4.92923 0
M  V30 2407 H 223.215 -1.24807 -2.72146 0
M  V30 2408 H 220.761 -0.601585 -1.30832 0
M  V30 2409 H 222.714 0.725447 -4.15109 0
M  V30 2410 H 221.438 1.24174 -3.02074 0
M  V30 2411 H 220.097 -0.81786 -3.57361 0
M  V30 2412 H 219.745 1.29804 -4.85963 0
M  V30 2413 H 219.445 -0.135057 -5.87445 0
M  V30 2414 H 220.969 0.779517 -6.05604 0
M  V30 2415 H 222.383 -1.43495 -5.55051 0
M  V30 2416 H 220.78 -2.22582 -5.57295 0
M  V30 2417 H 221.85 -2.45964 -4.17887 0
M  V30 2418 N 223.193 1.4272 -0.668489 0
M  V30 2419 C 224.123 2.335 -0.000100175 0
M  V30 2420 C 225.104 1.50328 0.795964 0
M  V30 2421 O 226.289 1.78949 0.754385 0
M  V30 2422 C 223.419 3.33874 0.956302 0
M  V30 2423 C 222.373 4.27152 0.269278 0
M  V30 2424 C 221.699 5.17684 1.33818 0
M  V30 2425 C 222.999 5.15373 -0.847805 0
M  V30 2426 H 224.693 2.89639 -0.758244 0
M  V30 2427 H 222.239 1.39269 -0.366079 0
M  V30 2428 H 224.192 3.9629 1.43292 0
M  V30 2429 H 222.916 2.76025 1.74579 0
M  V30 2430 H 221.575 3.66123 -0.187042 0
M  V30 2431 H 221.223 4.56165 2.1195 0
M  V30 2432 H 220.923 5.80918 0.883659 0
M  V30 2433 H 222.447 5.82974 1.81586 0
M  V30 2434 H 223.861 5.7151 -0.452681 0
M  V30 2435 H 222.258 5.87407 -1.22773 0
M  V30 2436 H 223.328 4.5415 -1.69929 0
M  V30 2437 N 224.671 0.411399 1.52136 0
M  V30 2438 C 225.899 -0.163076 2.06256 0
M  V30 2439 C 226.314 -1.3867 1.28125 0
M  V30 2440 O 225.671 -1.79423 0.333721 0
M  V30 2441 C 225.722 -0.511252 3.57867 0
M  V30 2442 O 225.443 0.66378 4.33042 0
M  V30 2443 C 226.944 -1.13921 4.28412 0
M  V30 2444 H 224.164 -0.0193897 0.67072 0
M  V30 2445 H 226.708 0.583007 1.96013 0
M  V30 2446 H 224.863 -1.20723 3.6811 0
M  V30 2447 H 225.277 0.372601 5.23175 0
M  V30 2448 H 226.751 -1.33302 5.35663 0
M  V30 2449 H 227.228 -2.11296 3.85033 0
M  V30 2450 H 227.834 -0.483373 4.22544 0
M  V30 2451 N 226.149 -1.5696 0.141893 0
M  V30 2452 C 227.112 -2.15316 -0.785587 0
M  V30 2453 C 228.112 -1.09366 -1.1788 0
M  V30 2454 O 229.302 -1.35031 -1.10056 0
M  V30 2455 C 226.434 -2.71211 -2.06537 0
M  V30 2456 H 227.627 -2.98608 -0.278041 0
M  V30 2457 H 225.18 -1.5593 -0.107519 0
M  V30 2458 H 225.915 -1.91571 -2.6167 0
M  V30 2459 H 225.7 -3.4872 -1.79268 0
M  V30 2460 H 227.19 -3.16189 -2.72789 0
M  V30 2461 N 227.627 0.131896 -1.57047 0
M  V30 2462 C 228.557 1.16384 -2.02428 0
M  V30 2463 C 229.538 1.43936 -0.90644 0
M  V30 2464 O 230.723 1.54599 -1.17528 0
M  V30 2465 C 227.853 2.49328 -2.4177 0
M  V30 2466 C 226.807 2.36266 -3.56879 0
M  V30 2467 C 226.133 3.74057 -3.8208 0
M  V30 2468 C 227.433 1.834 -4.89042 0
M  V30 2469 H 229.127 0.786433 -2.88887 0
M  V30 2470 H 226.673 0.376855 -1.38981 0
M  V30 2471 H 228.626 3.21759 -2.7212 0
M  V30 2472 H 227.35 2.88934 -1.52266 0
M  V30 2473 H 226.009 1.66286 -3.26718 0
M  V30 2474 H 225.657 4.11125 -2.89803 0
M  V30 2475 H 225.357 3.66174 -4.59554 0
M  V30 2476 H 226.881 4.48012 -4.1487 0
M  V30 2477 H 228.295 2.45636 -5.18011 0
M  V30 2478 H 226.692 1.8637 -5.70426 0
M  V30 2479 H 227.762 0.790662 -4.7841 0
M  V30 2480 N 229.106 1.52395 0.401703 0
M  V30 2481 C 230.331 1.70972 1.17403 0
M  V30 2482 C 230.756 0.421615 1.83314 0
M  V30 2483 O 230.114 -0.621564 1.70312 0
M  V30 2484 C 230.162 2.85151 2.20728 0
M  V30 2485 O 229.266 2.51238 3.27037 0
M  V30 2486 H 228.607 0.568927 0.342372 0
M  V30 2487 H 231.137 1.99131 0.469891 0
M  V30 2488 H 231.147 3.10279 2.64936 0
M  V30 2489 H 229.822 3.78603 1.7214 0
M  V30 2490 H 228.399 2.36808 2.88057 0
M  V30 2491 N 230.584 -0.659388 1.43143 0
M  V30 2492 C 231.995 -1.24041 1.39537 0
M  V30 2493 C 232.346 -1.95963 0.0963364 0
M  V30 2494 O 231.471 -2.00892 -0.804438 0
M  V30 2495 C 232.066 -2.25601 2.52764 0
M  V30 2496 C 230.625 -2.79195 2.52443 0
M  V30 2497 C 229.772 -1.53743 2.30778 0
M  V30 2498 H 232.723 -0.451792 1.52133 0
M  V30 2499 H 232.744 -3.07651 2.23899 0
M  V30 2500 H 232.256 -1.73226 3.47296 0
M  V30 2501 H 230.357 -3.35649 1.61773 0
M  V30 2502 H 230.47 -3.2716 3.50004 0
M  V30 2503 H 228.834 -1.80869 1.79328 0
M  V30 2504 H 229.617 -1.03312 3.27386 0
M  V30 2505 N 232.062 -1.29571 -0.897171 0
M  V30 2506 C 232.992 -1.17473 -2.01798 0
M  V30 2507 C 233.973 -0.068323 -1.69963 0
M  V30 2508 O 235.158 -0.248239 -1.92607 0
M  V30 2509 C 232.288 -0.853099 -3.36659 0
M  V30 2510 C 231.242 -1.9161 -3.82713 0
M  V30 2511 C 230.568 -1.44773 -5.14728 0
M  V30 2512 C 231.868 -3.32535 -4.02763 0
M  V30 2513 H 233.562 -2.11237 -2.12177 0
M  V30 2514 H 231.108 -1.01699 -1.01948 0
M  V30 2515 H 233.061 -0.755165 -4.14578 0
M  V30 2516 H 231.785 0.120236 -3.26379 0
M  V30 2517 H 230.444 -2.00346 -3.07013 0
M  V30 2518 H 230.092 -0.462995 -5.00865 0
M  V30 2519 H 229.792 -2.15865 -5.46513 0
M  V30 2520 H 231.316 -1.36334 -5.95185 0
M  V30 2521 H 232.73 -3.26626 -4.71156 0
M  V30 2522 H 231.127 -4.01607 -4.45905 0
M  V30 2523 H 232.197 -3.75326 -3.07016 0
M  V30 2524 N 233.54 1.10788 -1.12088 0
M  V30 2525 C 234.503 2.15207 -0.788577 0
M  V30 2526 C 235.503 1.59609 0.195317 0
M  V30 2527 O 236.693 1.74174 -0.0300193 0
M  V30 2528 C 233.825 3.4047 -0.171174 0
M  V30 2529 H 235.018 2.46116 -1.71368 0
M  V30 2530 H 232.571 1.26089 -0.923652 0
M  V30 2531 H 233.306 3.15176 0.763832 0
M  V30 2532 H 233.091 3.82109 -0.879514 0
M  V30 2533 H 234.581 4.17576 0.04496 0
M  V30 2534 N 235.018 0.912232 1.28515 0
M  V30 2535 C 236.434 0.610159 1.47476 0
M  V30 2536 C 236.634 -0.844955 1.82928 0
M  V30 2537 O 235.69 -1.62416 1.93332 0
M  V30 2538 C 237.003 1.54675 2.57868 0
M  V30 2539 C 238.551 1.55331 2.71738 0
M  V30 2540 C 239.026 2.47649 3.85272 0
M  V30 2541 N 240.517 2.45767 3.92623 0
M  V30 2542 C 241.252 3.13896 4.79851 0
M  V30 2543 N 240.748 3.9135 5.71679 0
M  V30 2544 N 242.541 3.02991 4.73448 0
M  V30 2545 H 234.692 1.85318 1.03783 0
M  V30 2546 H 236.955 0.794777 0.516753 0
M  V30 2547 H 236.661 2.5841 2.38574 0
M  V30 2548 H 236.535 1.27671 3.54937 0
M  V30 2549 H 238.922 0.52335 2.90422 0
M  V30 2550 H 239.003 1.86378 1.75205 0
M  V30 2551 H 238.647 3.50745 3.67342 0
M  V30 2552 H 238.577 2.13904 4.81199 0
M  V30 2553 H 241.068 1.89503 3.26951 0
M  V30 2554 H 241.381 4.40359 6.35062 0
M  V30 2555 H 239.726 3.95455 5.71524 0
M  V30 2556 H 242.917 2.41987 4.007 0
M  V30 2557 H 243.09 3.5636 5.41213 0
M  V30 2558 N 236.496 -1.42363 0.676048 0
M  V30 2559 C 237.724 -2.05859 0.207268 0
M  V30 2560 C 238.139 -1.50796 -1.13605 0
M  V30 2561 O 237.496 -0.648265 -1.70598 0
M  V30 2562 C 237.547 -3.61248 0.134975 0
M  V30 2563 O 237.268 -4.1427 1.42521 0
M  V30 2564 C 238.769 -4.41859 -0.357151 0
M  V30 2565 H 235.989 -0.663431 0.100503 0
M  V30 2566 H 238.533 -1.82479 0.923136 0
M  V30 2567 H 236.688 -3.83735 -0.531588 0
M  V30 2568 H 237.102 -5.0815 1.29939 0
M  V30 2569 H 238.576 -5.50847 -0.356641 0
M  V30 2570 H 239.053 -4.16536 -1.39264 0
M  V30 2571 H 239.659 -4.24392 0.27772 0
M  V30 2572 N 237.974 -0.419461 -1.51915 0
M  V30 2573 C 239.251 0.211999 -1.94448 0
M  V30 2574 C 239.631 1.61703 -1.35703 0
M  V30 2575 O 238.979 2.22102 -0.536931 0
M  V30 2576 C 239.189 0.207872 -3.4838 0
M  V30 2577 C 240.537 0.422192 -4.22496 0
M  V30 2578 O 241.561 0.286778 -3.55044 0
M  V30 2579 O 240.42 0.690009 -5.42126 0
M  V30 2580 H 237.514 0.139586 -0.815135 0
M  V30 2581 H 240.06 -0.476151 -1.62883 0
M  V30 2582 H 238.832 -0.775102 -3.83546 0
M  V30 2583 H 238.455 0.939688 -3.86336 0
M  V30 2584 N 239.452 1.56882 -0.150215 0
M  V30 2585 C 240.382 2.19935 0.784284 0
M  V30 2586 C 241.363 1.14854 1.25469 0
M  V30 2587 O 242.548 1.43209 1.31168 0
M  V30 2588 C 239.678 2.82349 2.02229 0
M  V30 2589 C 238.632 3.93285 1.68853 0
M  V30 2590 C 237.958 4.42649 2.99944 0
M  V30 2591 C 239.258 5.13904 0.932714 0
M  V30 2592 H 240.952 2.9828 0.258781 0
M  V30 2593 H 238.498 1.43473 0.123029 0
M  V30 2594 H 240.451 3.25126 2.68088 0
M  V30 2595 H 239.175 2.0134 2.57157 0
M  V30 2596 H 237.834 3.5113 1.05371 0
M  V30 2597 H 237.482 3.58458 3.52869 0
M  V30 2598 H 237.182 5.17476 2.78374 0
M  V30 2599 H 238.706 4.88099 3.66868 0
M  V30 2600 H 240.12 5.53506 1.49345 0
M  V30 2601 H 238.517 5.94515 0.81684 0
M  V30 2602 H 239.587 4.84842 -0.0749568 0
M  V30 2603 N 240.93 -0.123565 1.57115 0
M  V30 2604 C 242.158 -0.846461 1.88793 0
M  V30 2605 C 242.573 -1.73652 0.740976 0
M  V30 2606 O 241.93 -1.80207 -0.288393 0
M  V30 2607 C 241.981 -1.6837 3.19897 0
M  V30 2608 O 241.702 -0.829477 4.30176 0
M  V30 2609 C 243.203 -2.51214 3.65248 0
M  V30 2610 H 240.423 -0.243573 0.625231 0
M  V30 2611 H 242.967 -0.109324 2.04208 0
M  V30 2612 H 241.122 -2.37364 3.06165 0
M  V30 2613 H 241.536 -1.40651 5.0529 0
M  V30 2614 H 243.01 -3.05497 4.59756 0
M  V30 2615 H 243.487 -3.28359 2.9168 0
M  V30 2616 H 244.093 -1.8747 3.81752 0
M  V30 2617 N 242.408 -1.52605 -0.393616 0
M  V30 2618 C 243.638 -1.71046 -1.15874 0
M  V30 2619 C 244.046 -0.426483 -1.84331 0
M  V30 2620 O 243.389 0.608513 -1.73329 0
M  V30 2621 C 243.451 -2.80118 -2.25332 0
M  V30 2622 C 243.115 -4.21381 -1.76881 0
M  V30 2623 C 244.112 -5.04697 -1.24808 0
M  V30 2624 C 241.797 -4.67683 -1.83244 0
M  V30 2625 C 243.791 -6.32393 -0.797387 0
M  V30 2626 C 241.478 -5.95364 -1.37787 0
M  V30 2627 C 242.476 -6.77549 -0.861208 0
M  V30 2628 O 242.164 -8.02837 -0.413252 0
M  V30 2629 H 241.896 -0.576155 -0.353583 0
M  V30 2630 H 244.45 -2.00018 -0.467123 0
M  V30 2631 H 242.68 -2.46557 -2.97904 0
M  V30 2632 H 244.369 -2.87006 -2.87023 0
M  V30 2633 H 245.135 -4.70111 -1.19252 0
M  V30 2634 H 241.014 -4.03805 -2.22401 0
M  V30 2635 H 244.558 -6.9649 -0.393437 0
M  V30 2636 H 240.455 -6.29455 -1.43026 0
M  V30 2637 H 241.223 -8.16749 -0.53515 0
M  V30 2638 N 243.887 0.651787 -1.4349 0
M  V30 2639 C 245.298 1.233 -1.40193 0
M  V30 2640 C 245.649 1.9591 -0.106727 0
M  V30 2641 O 244.774 2.01316 0.793773 0
M  V30 2642 C 245.369 2.24257 -2.53957 0
M  V30 2643 C 243.928 2.77852 -2.5392 0
M  V30 2644 C 243.075 1.52517 -2.3159 0
M  V30 2645 H 246.026 0.443717 -1.52371 0
M  V30 2646 H 246.047 3.0646 -2.25528 0
M  V30 2647 H 245.559 1.71382 -3.4821 0
M  V30 2648 H 243.66 3.34786 -1.63551 0
M  V30 2649 H 243.773 3.25299 -3.51735 0
M  V30 2650 H 242.137 1.79915 -1.80285 0
M  V30 2651 H 242.92 1.01574 -3.27929 0
M  V30 2652 N 245.365 1.30045 0.890287 0
M  V30 2653 C 246.611 1.18737 1.64406 0
M  V30 2654 C 246.944 -0.258525 1.92472 0
M  V30 2655 O 246.219 -1.18562 1.54186 0
M  V30 2656 C 246.502 2.01087 2.98724 0
M  V30 2657 C 246.355 3.53867 2.77665 0
M  V30 2658 C 247.674 1.84457 3.9958 0
M  V30 2659 H 244.793 0.432698 0.596608 0
M  V30 2660 H 247.435 1.5962 1.0306 0
M  V30 2661 H 245.585 1.66349 3.51084 0
M  V30 2662 H 247.257 3.98637 2.32133 0
M  V30 2663 H 245.5 3.78318 2.12269 0
M  V30 2664 H 246.171 4.06772 3.7315 0
M  V30 2665 H 248.647 2.14817 3.56361 0
M  V30 2666 H 247.523 2.44411 4.91482 0
M  V30 2667 H 247.784 0.802276 4.3476 0
M  V30 2668 N 246.843 -1.10192 1.12674 0
M  V30 2669 C 247.793 -2.14754 0.765801 0
M  V30 2670 C 248.777 -1.59154 -0.236409 0
M  V30 2671 O 249.969 -1.76951 -0.0415261 0
M  V30 2672 C 247.098 -3.42563 0.224827 0
M  V30 2673 C 246.184 -4.05091 1.25548 0
M  V30 2674 N 246.575 -4.42287 2.4539 0
M  V30 2675 C 244.873 -4.32186 1.10142 0
M  V30 2676 C 245.574 -4.91441 3.11224 0
M  V30 2677 N 244.55 -4.88405 2.38666 0
M  V30 2678 H 248.352 -2.41309 1.67772 0
M  V30 2679 H 245.866 -1.27339 1.00789 0
M  V30 2680 H 247.863 -4.16868 -0.0519578 0
M  V30 2681 H 246.523 -3.17467 -0.681515 0
M  V30 2682 H 247.534 -4.33902 2.82754 0
M  V30 2683 H 244.211 -4.16735 0.252587 0
M  V30 2684 H 245.601 -5.29749 4.13298 0
M  V30 2685 N 248.321 -0.919034 -1.28029 0
M  V30 2686 C 249.284 -0.416182 -2.2539 0
M  V30 2687 C 250.284 0.460438 -1.54067 0
M  V30 2688 O 251.474 0.262744 -1.72207 0
M  V30 2689 C 248.606 0.402707 -3.38513 0
M  V30 2690 H 249.799 -1.27629 -2.71387 0
M  V30 2691 H 247.352 -0.698919 -1.39803 0
M  V30 2692 H 248.087 1.282 -2.97885 0
M  V30 2693 H 247.872 -0.225698 -3.9145 0
M  V30 2694 H 249.362 0.745191 -4.10897 0
M  V30 2695 N 249.799 1.42003 -0.683588 0
M  V30 2696 C 250.729 2.33487 -0.024866 0
M  V30 2697 C 251.71 1.51163 0.779975 0
M  V30 2698 O 252.895 1.79739 0.735362 0
M  V30 2699 C 250.025 3.3487 0.920836 0
M  V30 2700 C 248.979 4.27414 0.223958 0
M  V30 2701 C 248.305 5.19074 1.2832 0
M  V30 2702 C 249.605 5.14445 -0.90242 0
M  V30 2703 H 251.299 2.88819 -0.788921 0
M  V30 2704 H 248.845 1.38873 -0.38083 0
M  V30 2705 H 250.798 3.97787 1.39081 0
M  V30 2706 H 249.522 2.77861 1.71642 0
M  V30 2707 H 248.181 3.65904 -0.225864 0
M  V30 2708 H 247.829 4.58387 2.071 0
M  V30 2709 H 247.529 5.81822 0.821995 0
M  V30 2710 H 249.053 5.84867 1.75392 0
M  V30 2711 H 250.467 5.70998 -0.513272 0
M  V30 2712 H 248.864 5.86072 -1.28997 0
M  V30 2713 H 249.934 4.52322 -1.74737 0
M  V30 2714 N 251.277 0.427512 1.51691 0
M  V30 2715 C 252.525 -0.141948 2.01601 0
M  V30 2716 C 252.846 -1.44067 1.31414 0
M  V30 2717 O 252.116 -1.90763 0.445658 0
M  V30 2718 H 250.696 -0.0554468 0.744939 0
M  V30 2719 H 253.358 0.567968 1.86441 0
M  V30 2720 H 252.454 -0.324913 3.10404 0
M  V30 2721 N 252.755 -1.56801 0.158532 0
M  V30 2722 C 254.004 -1.95665 -0.489702 0
M  V30 2723 C 254.317 -1.04654 -1.65248 0
M  V30 2724 O 255.523 -1.33146 -2.3661 0
M  V30 2725 C 253.979 -3.47874 -0.922582 0
M  V30 2726 C 253.587 -4.47489 0.213893 0
M  V30 2727 C 255.331 -3.95583 -1.53996 0
M  V30 2728 C 253.238 -5.90921 -0.237903 0
M  V30 2729 H 252.168 -0.730516 -0.186716 0
M  V30 2730 H 254.819 -1.81861 0.244722 0
M  V30 2731 H 253.201 -3.57051 -1.71261 0
M  V30 2732 H 254.375 -4.50017 0.991036 0
M  V30 2733 H 252.69 -4.09764 0.740407 0
M  V30 2734 H 255.287 -5.0019 -1.8898 0
M  V30 2735 H 255.63 -3.37789 -2.43319 0
M  V30 2736 H 256.163 -3.8937 -0.814611 0
M  V30 2737 H 252.902 -6.52559 0.620236 0
M  V30 2738 H 252.422 -5.91729 -0.980676 0
M  V30 2739 H 254.101 -6.43352 -0.686067 0
M  V30 2740 N 254.233 0.115231 -1.57178 0
M  V30 2741 C 255.482 0.820945 -1.84237 0
M  V30 2742 C 255.795 1.80866 -0.744761 0
M  V30 2743 O 257.001 2.56083 -0.901871 0
M  V30 2744 C 255.457 1.51072 -3.26658 0
M  V30 2745 C 255.065 0.563795 -4.44438 0
M  V30 2746 C 256.809 2.20134 -3.62962 0
M  V30 2747 C 254.716 1.25701 -5.77887 0
M  V30 2748 H 253.646 0.310328 -0.687177 0
M  V30 2749 H 256.297 0.0737134 -1.83352 0
M  V30 2750 H 254.679 2.30471 -3.22024 0
M  V30 2751 H 255.853 -0.197247 -4.60378 0
M  V30 2752 H 254.168 -0.0200638 -4.16395 0
M  V30 2753 H 256.765 2.72696 -4.59936 0
M  V30 2754 H 257.108 2.98107 -2.90582 0
M  V30 2755 H 257.641 1.47619 -3.69396 0
M  V30 2756 H 254.38 0.518493 -6.53446 0
M  V30 2757 H 253.9 1.98997 -5.65827 0
M  V30 2758 H 255.579 1.78915 -6.2177 0
M  V30 2759 N 255.711 1.52812 0.385517 0
M  V30 2760 C 256.939 1.71907 1.15133 0
M  V30 2761 C 257.354 0.439004 1.83625 0
M  V30 2762 O 256.711 -0.586765 1.7281 0
M  V30 2763 C 256.762 2.87099 2.19673 0
M  V30 2764 O 256.483 4.10151 1.53973 0
M  V30 2765 C 257.984 3.17902 3.08955 0
M  V30 2766 H 255.204 0.575479 0.345057 0
M  V30 2767 H 257.748 1.99476 0.45052 0
M  V30 2768 H 255.903 2.61982 2.85384 0
M  V30 2769 H 256.317 4.74514 2.23465 0
M  V30 2770 H 257.791 4.01959 3.7833 0
M  V30 2771 H 258.268 2.3243 3.72657 0
M  V30 2772 H 258.874 3.44871 2.48885 0
M  V30 2773 N 257.189 -0.644168 1.43834 0
M  V30 2774 C 258.429 -1.41565 1.47441 0
M  V30 2775 C 258.793 -1.91743 0.0992723 0
M  V30 2776 O 259.994 -2.68798 0.0100192 0
M  V30 2777 C 258.265 -2.55902 2.49498 0
M  V30 2778 S 259.824 -3.44287 2.72051 0
M  V30 2779 H 256.642 -0.483118 0.521649 0
M  V30 2780 H 259.244 -0.747008 1.80666 0
M  V30 2781 H 257.948 -2.17327 3.48134 0
M  V30 2782 H 257.479 -3.27607 2.17801 0
M  V30 2783 H 259.494 -4.52927 2.0266 0
M  V30 2784 N 258.668 -1.30515 -0.883378 0
M  V30 2785 C 259.915 -1.1943 -1.63532 0
M  V30 2786 C 260.243 0.250627 -1.92878 0
M  V30 2787 O 259.498 1.19556 -1.54935 0
M  V30 2788 C 259.797 -1.96994 -2.98209 0
M  V30 2789 C 259.463 -3.466 -2.88408 0
M  V30 2790 C 258.125 -3.87397 -2.85442 0
M  V30 2791 C 260.477 -4.41863 -2.76418 0
M  V30 2792 C 257.805 -5.21745 -2.68327 0
M  V30 2793 C 260.157 -5.7632 -2.60841 0
M  V30 2794 C 258.821 -6.16354 -2.56251 0
M  V30 2795 H 258.091 -0.437025 -0.598406 0
M  V30 2796 H 260.738 -1.61635 -1.02696 0
M  V30 2797 H 259.043 -1.47429 -3.63004 0
M  V30 2798 H 260.74 -1.85808 -3.55354 0
M  V30 2799 H 257.33 -3.14182 -2.91527 0
M  V30 2800 H 261.514 -4.11285 -2.77775 0
M  V30 2801 H 256.77 -5.51853 -2.63189 0
M  V30 2802 H 260.944 -6.49772 -2.50538 0
M  V30 2803 H 258.571 -7.20401 -2.42748 0
M  V30 2804 N 260.146 1.09593 -1.13257 0
M  V30 2805 C 261.423 1.78293 -0.804432 0
M  V30 2806 C 261.803 1.99004 0.70431 0
M  V30 2807 O 261.151 1.59007 1.641 0
M  V30 2808 C 261.361 3.10707 -1.5894 0
M  V30 2809 C 262.709 3.85443 -1.78099 0
M  V30 2810 O 263.733 3.20454 -1.55525 0
M  V30 2811 O 262.592 5.02108 -2.15753 0
M  V30 2812 H 259.686 0.773156 -0.293528 0
M  V30 2813 H 262.232 1.16164 -1.23709 0
M  V30 2814 H 261.004 2.91106 -2.61482 0
M  V30 2815 H 260.627 3.80558 -1.15157 0
M  V30 2816 N 261.624 0.925811 1.2754 0
M  V30 2817 C 262.87 0.566092 1.94739 0
M  V30 2818 C 263.203 -0.890057 1.72603 0
M  V30 2819 O 262.478 -1.63467 1.05399 0
M  V30 2820 C 262.761 0.89054 3.48915 0
M  V30 2821 C 262.614 2.4003 3.80402 0
M  V30 2822 C 263.933 0.395101 4.38323 0
M  V30 2823 H 261.052 0.20714 0.707292 0
M  V30 2824 H 263.694 1.15725 1.50691 0
M  V30 2825 H 261.844 0.387452 3.86563 0
M  V30 2826 H 263.516 2.97494 3.52555 0
M  V30 2827 H 261.759 2.85028 3.2702 0
M  V30 2828 H 262.43 2.57785 4.8811 0
M  V30 2829 H 264.906 0.826241 4.07814 0
M  V30 2830 H 263.782 0.651086 5.45025 0
M  V30 2831 H 264.043 -0.704798 4.36446 0
M  V30 2832 N 263.102 -1.41638 0.69111 0
M  V30 2833 C 264.032 -2.3347 0.037248 0
M  V30 2834 C 265.013 -1.51575 -0.771947 0
M  V30 2835 O 266.198 -1.80126 -0.72582 0
M  V30 2836 C 263.328 -3.35354 -0.903064 0
M  V30 2837 C 262.282 -4.27526 -0.201288 0
M  V30 2838 C 261.608 -5.19747 -1.25565 0
M  V30 2839 C 262.908 -5.13959 0.929689 0
M  V30 2840 H 264.602 -2.88397 0.804227 0
M  V30 2841 H 262.148 -1.38669 0.388189 0
M  V30 2842 H 264.101 -3.98519 -1.36969 0
M  V30 2843 H 262.825 -2.78767 -1.70166 0
M  V30 2844 H 261.484 -3.65779 0.245265 0
M  V30 2845 H 261.132 -4.59479 -2.04666 0
M  V30 2846 H 260.832 -5.8225 -0.791128 0
M  V30 2847 H 262.356 -5.85789 -1.72288 0
M  V30 2848 H 263.77 -5.70718 0.543546 0
M  V30 2849 H 262.167 -5.85379 1.32103 0
M  V30 2850 H 263.237 -4.51389 1.77133 0
M  V30 2851 N 264.58 -0.43555 -1.51462 0
M  V30 2852 C 265.527 0.376797 -2.27703 0
M  V30 2853 C 266.497 1.01838 -1.31219 0
M  V30 2854 O 267.682 1.03762 -1.60119 0
M  V30 2855 C 264.822 1.47301 -3.12084 0
M  V30 2856 C 263.935 0.849744 -4.2356 0
M  V30 2857 C 263.07 1.92086 -4.95254 0
M  V30 2858 C 262.109 1.27593 -5.98654 0
M  V30 2859 N 261.246 2.28833 -6.63762 0
M  V30 2860 H 266.086 -0.279734 -2.96684 0
M  V30 2861 H 263.623 -0.149795 -1.46335 0
M  V30 2862 H 265.581 2.11984 -3.59331 0
M  V30 2863 H 264.211 2.0992 -2.45221 0
M  V30 2864 H 263.263 0.0912529 -3.80291 0
M  V30 2865 H 264.575 0.338878 -4.97648 0
M  V30 2866 H 263.729 2.64435 -5.46039 0
M  V30 2867 H 262.468 2.46545 -4.20793 0
M  V30 2868 H 261.473 0.537893 -5.47162 0
M  V30 2869 H 262.698 0.738693 -6.7507 0
M  V30 2870 H 260.644 2.82375 -5.92115 0
M  V30 2871 H 260.561 1.82632 -7.33608 0
M  V30 2872 H 261.829 3.00671 -7.19178 0
M  V30 2873 N 266.058 1.56714 -0.166846 0
M  V30 2874 C 267.304 1.97813 0.473473 0
M  V30 2875 C 267.659 1.05095 1.61161 0
M  V30 2876 O 266.952 0.0897541 1.9139 0
M  V30 2877 C 267.146 3.42889 1.00806 0
M  V30 2878 C 266.975 4.49635 -0.0767392 0
M  V30 2879 C 265.745 5.02566 -0.524894 0
M  V30 2880 C 267.943 5.06793 -0.875504 0
M  V30 2881 N 265.925 5.9294 -1.59047 0
M  V30 2882 C 267.296 5.93565 -1.79111 0
M  V30 2883 C 269.351 4.89306 -0.921083 0
M  V30 2884 C 268.054 6.64721 -2.74843 0
M  V30 2885 C 270.08 5.61179 -1.86633 0
M  V30 2886 C 269.442 6.47675 -2.76942 0
M  V30 2887 H 265.541 0.769093 0.141489 0
M  V30 2888 H 268.125 1.92874 -0.266031 0
M  V30 2889 H 266.296 3.48382 1.7171 0
M  V30 2890 H 268.028 3.71008 1.61664 0
M  V30 2891 H 264.783 4.73439 -0.123432 0
M  V30 2892 H 265.207 6.42831 -2.12361 0
M  V30 2893 H 269.849 4.22136 -0.23692 0
M  V30 2894 H 267.567 7.31107 -3.44249 0
M  V30 2895 H 271.153 5.49636 -1.90764 0
M  V30 2896 H 270.033 7.02313 -3.48893 0
M  V30 2897 N 267.536 -0.106894 1.57237 0
M  V30 2898 C 268.764 -0.826389 1.8968 0
M  V30 2899 C 269.179 -1.72856 0.759353 0
M  V30 2900 O 268.536 -1.80503 -0.269263 0
M  V30 2901 C 268.587 -1.64967 3.21665 0
M  V30 2902 O 268.308 -0.783804 4.31031 0
M  V30 2903 C 269.809 -2.47326 3.67892 0
M  V30 2904 H 267.029 -0.236927 0.627779 0
M  V30 2905 H 269.573 -0.0876593 2.04312 0
M  V30 2906 H 267.728 -2.34103 3.08666 0
M  V30 2907 H 268.142 -1.35284 5.06753 0
M  V30 2908 H 269.616 -3.00604 4.6297 0
M  V30 2909 H 270.093 -3.25247 2.95146 0
M  V30 2910 H 270.699 -1.83411 3.83719 0
M  V30 2911 N 269.014 -1.53014 -0.377408 0
M  V30 2912 C 269.947 -1.73382 -1.48371 0
M  V30 2913 C 270.925 -0.581879 -1.51832 0
M  V30 2914 O 272.109 -0.81307 -1.70063 0
M  V30 2915 C 269.236 -1.80192 -2.8679 0
M  V30 2916 C 268.282 -3.02056 -3.01105 0
M  V30 2917 S 269.115 -4.61811 -2.71093 0
M  V30 2918 C 270.271 -4.71453 -4.11683 0
M  V30 2919 H 270.504 -2.66946 -1.30872 0
M  V30 2920 H 268.037 -1.43453 -0.571012 0
M  V30 2921 H 269.995 -1.84802 -3.6655 0
M  V30 2922 H 268.656 -0.877008 -3.01608 0
M  V30 2923 H 267.849 -3.03396 -4.02451 0
M  V30 2924 H 267.451 -2.95498 -2.29253 0
M  V30 2925 H 269.743 -4.50781 -5.0577 0
M  V30 2926 H 270.686 -5.73487 -4.15353 0
M  V30 2927 H 271.094 -4.00189 -3.98132 0
M  V30 2928 N 270.492 0.636531 -1.44174 0
M  V30 2929 C 271.422 1.76003 -1.53444 0
M  V30 2930 C 272.403 1.65619 -0.387841 0
M  V30 2931 O 273.588 1.84461 -0.607257 0
M  V30 2932 C 270.718 3.14511 -1.4731 0
M  V30 2933 C 269.672 3.39677 -2.60391 0
M  V30 2934 C 268.998 4.78159 -2.39308 0
M  V30 2935 C 270.298 3.32772 -4.02567 0
M  V30 2936 H 271.992 1.68501 -2.47483 0
M  V30 2937 H 269.538 0.809237 -1.19111 0
M  V30 2938 H 271.491 3.92878 -1.52397 0
M  V30 2939 H 270.215 3.22783 -0.49785 0
M  V30 2940 H 268.874 2.63688 -2.54684 0
M  V30 2941 H 268.522 4.83128 -1.39988 0
M  V30 2942 H 268.222 4.95956 -3.15122 0
M  V30 2943 H 269.746 5.58762 -2.46205 0
M  V30 2944 H 271.16 4.01051 -4.09672 0
M  V30 2945 H 269.557 3.62104 -4.7854 0
M  V30 2946 H 270.627 2.30669 -4.2652 0
M  V30 2947 N 271.97 1.30982 0.876444 0
M  V30 2948 C 273.381 1.18277 1.44456 0
M  V30 2949 C 273.732 -0.213265 1.95037 0
M  V30 2950 O 272.857 -1.11057 1.85729 0
M  V30 2951 C 273.452 2.1411 2.62569 0
M  V30 2952 C 272.011 2.05358 3.15444 0
M  V30 2953 C 271.158 2.03706 1.88146 0
M  V30 2954 H 274.109 1.43127 0.685584 0
M  V30 2955 H 274.13 1.72692 3.39054 0
M  V30 2956 H 273.642 3.15706 2.25724 0
M  V30 2957 H 271.743 1.06934 3.56926 0
M  V30 2958 H 271.856 2.94156 3.78166 0
M  V30 2959 H 270.22 1.48629 2.06837 0
M  V30 2960 H 271.003 3.07047 1.53547 0
M  V30 2961 N 273.449 -1.08991 1.13837 0
M  V30 2962 C 274.674 -1.85551 0.926585 0
M  V30 2963 C 275.099 -1.80782 -0.519566 0
M  V30 2964 O 274.457 -1.18855 -1.36906 0
M  V30 2965 C 274.505 -3.31266 1.42462 0
M  V30 2966 O 273.609 -4.07822 0.612789 0
M  V30 2967 H 272.95 -0.575192 0.331738 0
M  V30 2968 H 275.48 -1.37604 1.51414 0
M  V30 2969 H 275.49 -3.82112 1.43019 0
M  V30 2970 H 274.165 -3.34052 2.47754 0
M  V30 2971 H 272.742 -3.66731 0.675463 0
M  V30 2972 N 274.927 -0.932562 -1.27047 0
M  V30 2973 C 276.173 -0.576412 -1.94436 0
M  V30 2974 C 276.506 0.880891 -1.73072 0
M  V30 2975 O 275.781 1.62905 -1.06264 0
M  V30 2976 C 276.064 -0.909031 -3.48437 0
M  V30 2977 C 275.917 -2.42044 -3.79123 0
M  V30 2978 C 277.236 -0.418341 -4.38107 0
M  V30 2979 H 274.355 -0.210888 -0.706184 0
M  V30 2980 H 276.997 -1.16522 -1.50075 0
M  V30 2981 H 275.147 -0.407947 -3.86352 0
M  V30 2982 H 276.819 -2.99359 -3.50973 0
M  V30 2983 H 275.062 -2.86758 -3.25503 0
M  V30 2984 H 275.733 -2.6037 -4.86736 0
M  V30 2985 H 278.209 -0.847856 -4.0737 0
M  V30 2986 H 277.085 -0.679981 -5.44672 0
M  V30 2987 H 277.346 0.681642 -4.36814 0
M  V30 2988 N 276.405 1.4127 -0.698611 0
M  V30 2989 C 277.368 2.29158 -0.044132 0
M  V30 2990 C 278.368 1.44529 0.704841 0
M  V30 2991 O 279.558 1.65643 0.539276 0
M  V30 2992 C 276.69 3.27459 0.947809 0
M  V30 2993 H 277.883 2.88529 -0.817994 0
M  V30 2994 H 275.436 1.49307 -0.46228 0
M  V30 2995 H 276.171 2.73073 1.74933 0
M  V30 2996 H 275.956 3.8991 0.41385 0
M  V30 2997 H 277.446 3.93311 1.40344 0
M  V30 2998 N 277.883 0.443576 1.51229 0
M  V30 2999 C 278.816 -0.410089 2.24485 0
M  V30 3000 C 279.794 -1.01949 1.26669 0
M  V30 3001 O 280.978 -1.06075 1.55821 0
M  V30 3002 C 278.105 -1.57211 3.00004 0
M  V30 3003 C 277.151 -1.08279 4.12526 0
M  V30 3004 S 277.984 -0.0197476 5.35496 0
M  V30 3005 C 279.14 -1.18629 6.14555 0
M  V30 3006 H 279.373 0.211832 2.96544 0
M  V30 3007 H 276.906 0.228156 1.52705 0
M  V30 3008 H 278.864 -2.23825 3.44111 0
M  V30 3009 H 277.525 -2.16547 2.27522 0
M  V30 3010 H 276.718 -1.95193 4.64667 0
M  V30 3011 H 276.32 -0.494797 3.70713 0
M  V30 3012 H 278.612 -2.10344 6.4402 0
M  V30 3013 H 279.555 -0.70472 7.04584 0
M  V30 3014 H 279.963 -1.42768 5.46148 0
M  V30 3015 N 279.361 -1.56624 0.175154 0
M  V30 3016 C 280.607 -1.98061 -0.462976 0
M  V30 3017 C 280.962 -1.05949 -1.60601 0
M  V30 3018 O 280.255 -0.0999027 -1.91339 0
M  V30 3019 C 280.449 -3.43419 -0.989864 0
M  V30 3020 C 280.278 -4.49587 0.100583 0
M  V30 3021 C 279.048 -5.02281 0.551539 0
M  V30 3022 C 281.246 -5.06322 0.902369 0
M  V30 3023 N 279.228 -5.92088 1.62189 0
M  V30 3024 C 280.599 -5.92607 1.82256 0
M  V30 3025 C 282.654 -4.88811 0.947019 0
M  V30 3026 C 281.357 -6.63254 2.78364 0
M  V30 3027 C 283.383 -5.60182 1.89606 0
M  V30 3028 C 282.745 -6.46197 2.80372 0
M  V30 3029 H 278.844 -0.769833 -0.137409 0
M  V30 3030 H 281.428 -1.9273 0.276256 0
M  V30 3031 H 279.599 -3.49288 -1.6986 0
M  V30 3032 H 281.331 -3.7186 -1.59694 0
M  V30 3033 H 278.086 -4.73367 0.148537 0
M  V30 3034 H 278.51 -6.41696 2.15767 0
M  V30 3035 H 283.152 -4.22004 0.259304 0
M  V30 3036 H 280.87 -7.29271 3.48122 0
M  V30 3037 H 284.456 -5.48617 1.93676 0
M  V30 3038 H 283.336 -7.00453 3.52612 0
M  V30 3039 N 280.839 0.0985539 -1.57292 0
M  V30 3040 C 281.802 1.10402 -2.00858 0
M  V30 3041 C 282.802 1.33146 -0.901593 0
M  V30 3042 O 283.992 1.29318 -1.16716 0
M  V30 3043 C 281.124 2.45394 -2.36632 0
M  V30 3044 H 282.317 0.729099 -2.90902 0
M  V30 3045 H 279.87 0.343495 -1.52479 0
M  V30 3046 H 280.605 2.87769 -1.49531 0
M  V30 3047 H 280.39 2.30235 -3.17387 0
M  V30 3048 H 281.88 3.17718 -2.71007 0
M  V30 3049 N 282.317 1.53212 0.369288 0
M  V30 3050 C 283.563 1.69466 1.11397 0
M  V30 3051 C 283.896 0.443257 1.89074 0
M  V30 3052 O 283.171 -0.559386 1.86282 0
M  V30 3053 C 283.454 2.9422 2.07621 0
M  V30 3054 C 283.307 4.29508 1.33577 0
M  V30 3055 C 284.626 3.14565 3.07794 0
M  V30 3056 H 281.745 0.616667 0.403597 0
M  V30 3057 H 284.387 1.85845 0.395179 0
M  V30 3058 H 282.537 2.80387 2.68916 0
M  V30 3059 H 284.209 4.55147 0.750955 0
M  V30 3060 H 282.452 4.29088 0.637618 0
M  V30 3061 H 283.123 5.12926 2.03989 0
M  V30 3062 H 285.599 3.2756 2.56601 0
M  V30 3063 H 284.475 4.03297 3.72348 0
M  V30 3064 H 284.736 2.29675 3.77759 0
M  V30 3065 N 283.795 -0.628877 1.44509 0
M  V30 3066 C 285.042 -1.38839 1.47411 0
M  V30 3067 C 285.37 -1.94202 0.10757 0
M  V30 3068 O 284.625 -1.74243 -0.890947 0
M  V30 3069 C 284.924 -2.56995 2.48371 0
M  V30 3070 C 284.59 -2.19908 3.93639 0
M  V30 3071 C 283.252 -2.09506 4.33198 0
M  V30 3072 C 285.604 -1.9064 4.85083 0
M  V30 3073 C 282.932 -1.68028 5.62124 0
M  V30 3074 C 285.284 -1.50655 6.14399 0
M  V30 3075 C 283.948 -1.38796 6.5291 0
M  V30 3076 H 283.218 -0.508048 0.539414 0
M  V30 3077 H 285.865 -0.712913 1.77735 0
M  V30 3078 H 284.17 -3.29786 2.11538 0
M  V30 3079 H 285.867 -3.15223 2.47861 0
M  V30 3080 H 282.457 -2.28922 3.62343 0
M  V30 3081 H 286.641 -1.97585 4.55273 0
M  V30 3082 H 281.897 -1.57452 5.90778 0
M  V30 3083 H 286.071 -1.27048 6.84713 0
M  V30 3084 H 283.698 -1.06429 7.52713 0
M  V30 3085 N 285.273 -1.31445 -0.869486 0
M  V30 3086 C 286.203 -1.21727 -1.99261 0
M  V30 3087 C 287.184 -0.104359 -1.6978 0
M  V30 3088 O 288.369 -0.289038 -1.92037 0
M  V30 3089 C 285.499 -0.924317 -3.34774 0
M  V30 3090 C 284.453 -1.99685 -3.78563 0
M  V30 3091 C 283.779 -1.55658 -5.11541 0
M  V30 3092 C 285.079 -3.41003 -3.95619 0
M  V30 3093 H 286.773 -2.1569 -2.07649 0
M  V30 3094 H 284.319 -1.03839 -0.997675 0
M  V30 3095 H 286.272 -0.842934 -4.12883 0
M  V30 3096 H 284.996 0.0509793 -3.2656 0
M  V30 3097 H 283.655 -2.06813 -3.02694 0
M  V30 3098 H 283.303 -0.569132 -4.9977 0
M  V30 3099 H 283.003 -2.27409 -5.41811 0
M  V30 3100 H 284.527 -1.48928 -5.92159 0
M  V30 3101 H 285.941 -3.36547 -4.64122 0
M  V30 3102 H 284.338 -4.10975 -4.37286 0
M  V30 3103 H 285.408 -3.81754 -2.98985 0
M  V30 3104 N 286.751 1.08385 -1.14413 0
M  V30 3105 C 287.998 1.80776 -0.912482 0
M  V30 3106 C 288.326 1.86236 0.560934 0
M  V30 3107 O 287.581 1.33431 1.43159 0
M  V30 3108 C 287.88 3.26273 -1.45879 0
M  V30 3109 C 287.546 3.4093 -2.95089 0
M  V30 3110 C 286.208 3.44638 -3.35824 0
M  V30 3111 C 288.56 3.44591 -3.91033 0
M  V30 3112 C 285.888 3.49597 -4.71167 0
M  V30 3113 C 288.24 3.51086 -5.26233 0
M  V30 3114 C 286.904 3.53067 -5.6648 0
M  V30 3115 H 286.174 0.661507 -0.333901 0
M  V30 3116 H 288.821 1.27613 -1.42784 0
M  V30 3117 H 287.126 3.82146 -0.864376 0
M  V30 3118 H 288.823 3.80839 -1.2555 0
M  V30 3119 H 285.413 3.38736 -2.62594 0
M  V30 3120 H 289.597 3.40957 -3.60641 0
M  V30 3121 H 284.853 3.49424 -5.0171 0
M  V30 3122 H 289.027 3.52864 -6.00383 0
M  V30 3123 H 286.654 3.56662 -6.71339 0
M  V30 3124 N 288.23 0.939286 1.26551 0
M  V30 3125 C 289.458 0.602536 1.97932 0
M  V30 3126 C 289.873 -0.82206 1.69964 0
M  V30 3127 O 289.23 -1.54789 0.966784 0
M  V30 3128 C 289.281 0.832946 3.51773 0
M  V30 3129 O 289.002 2.20151 3.78768 0
M  V30 3130 C 290.503 0.506483 4.40397 0
M  V30 3131 H 287.723 0.227248 0.631347 0
M  V30 3132 H 290.267 1.25948 1.61113 0
M  V30 3133 H 288.422 0.222644 3.8676 0
M  V30 3134 H 288.836 2.26013 4.73306 0
M  V30 3135 H 290.31 0.718333 5.47306 0
M  V30 3136 H 290.787 -0.558451 4.35635 0
M  V30 3137 H 291.393 1.09543 4.10951 0
M  V30 3138 N 289.708 -1.40897 0.706093 0
M  V30 3139 C 290.957 -2.00284 0.238574 0
M  V30 3140 C 291.27 -1.56604 -1.17194 0
M  V30 3141 O 292.476 -2.08624 -1.73748 0
M  V30 3142 C 290.932 -3.57934 0.375623 0
M  V30 3143 C 290.54 -4.10591 1.79217 0
M  V30 3144 C 292.284 -4.24488 -0.0315857 0
M  V30 3145 C 290.191 -5.60712 1.88032 0
M  V30 3146 H 289.121 -0.749144 0.0854398 0
M  V30 3147 H 291.772 -1.61251 0.875813 0
M  V30 3148 H 290.154 -3.94622 -0.330042 0
M  V30 3149 H 291.328 -3.85301 2.52745 0
M  V30 3150 H 289.643 -3.56601 2.15 0
M  V30 3151 H 292.24 -5.34698 0.0136842 0
M  V30 3152 H 292.583 -4.02261 -1.072 0
M  V30 3153 H 293.116 -3.92873 0.624181 0
M  V30 3154 H 289.855 -5.87781 2.90161 0
M  V30 3155 H 289.375 -5.87896 1.18903 0
M  V30 3156 H 291.054 -6.25658 1.64805 0
M  V30 3157 N 291.186 -0.45159 -1.50991 0
M  V30 3158 C 292.433 0.110074 -2.02201 0
M  V30 3159 C 292.761 1.4146 -1.33489 0
M  V30 3160 O 292.016 1.90617 -0.443125 0
M  V30 3161 C 292.315 0.361728 -3.55565 0
M  V30 3162 C 291.981 -0.858717 -4.42648 0
M  V30 3163 C 290.643 -1.19338 -4.66167 0
M  V30 3164 C 292.995 -1.67221 -4.93646 0
M  V30 3165 C 290.323 -2.34195 -5.37931 0
M  V30 3166 C 292.675 -2.8119 -5.6667 0
M  V30 3167 C 291.339 -3.15094 -5.88449 0
M  V30 3168 H 290.609 0.040279 -0.739904 0
M  V30 3169 H 293.256 -0.601696 -1.81802 0
M  V30 3170 H 291.561 1.15554 -3.74372 0
M  V30 3171 H 293.258 0.80996 -3.92735 0
M  V30 3172 H 289.848 -0.58796 -4.24548 0
M  V30 3173 H 294.032 -1.42686 -4.75347 0
M  V30 3174 H 289.288 -2.6076 -5.53005 0
M  V30 3175 H 293.462 -3.44585 -6.05173 0
M  V30 3176 H 291.089 -4.04204 -6.43835 0
M  V30 3177 N 292.664 1.56529 -0.183458 0
M  V30 3178 C 293.913 1.96419 0.458511 0
M  V30 3179 C 294.226 1.0727 1.63562 0
M  V30 3180 O 295.432 1.36893 2.34462 0
M  V30 3181 C 293.888 3.49298 0.867122 0
M  V30 3182 C 293.496 4.47092 -0.285057 0
M  V30 3183 C 295.24 3.97983 1.47683 0
M  V30 3184 C 293.147 5.91225 0.143862 0
M  V30 3185 H 292.077 0.733394 0.175071 0
M  V30 3186 H 294.728 1.81448 -0.273624 0
M  V30 3187 H 293.11 3.59731 1.65559 0
M  V30 3188 H 294.284 4.48383 -1.0625 0
M  V30 3189 H 292.599 4.08535 -0.805503 0
M  V30 3190 H 295.196 5.03134 1.80999 0
M  V30 3191 H 295.539 3.41618 2.37914 0
M  V30 3192 H 296.072 3.90617 0.752562 0
M  V30 3193 H 292.811 6.5149 -0.723974 0
M  V30 3194 H 292.331 5.93214 0.886413 0
M  V30 3195 H 294.01 6.44362 0.583628 0
M  V30 3196 N 294.142 -0.090211 1.57342 0
M  V30 3197 C 295.072 -1.10976 2.05443 0
M  V30 3198 C 296.053 -1.41482 0.944284 0
M  V30 3199 O 297.238 -1.51428 1.21586 0
M  V30 3200 C 294.368 -2.42831 2.48295 0
M  V30 3201 C 293.322 -2.26721 3.63018 0
M  V30 3202 C 292.648 -3.63796 3.91863 0
M  V30 3203 C 293.948 -1.7037 4.93732 0
M  V30 3204 H 295.642 -0.709564 2.9087 0
M  V30 3205 H 293.188 -0.339874 1.39932 0
M  V30 3206 H 295.141 -3.14431 2.80555 0
M  V30 3207 H 293.865 -2.84795 1.59873 0
M  V30 3208 H 292.524 -1.57565 3.31012 0
M  V30 3209 H 292.172 -4.03297 3.00601 0
M  V30 3210 H 291.872 -3.53861 4.69101 0
M  V30 3211 H 293.396 -4.36855 4.26603 0
M  V30 3212 H 294.81 -2.31816 5.24342 0
M  V30 3213 H 293.207 -1.71181 5.75167 0
M  V30 3214 H 294.277 -0.663542 4.80339 0
M  V30 3215 N 295.62 -1.53406 -0.361157 0
M  V30 3216 C 296.55 -1.83136 -1.44857 0
M  V30 3217 C 297.531 -0.685174 -1.5569 0
M  V30 3218 O 298.716 -0.93544 -1.70186 0
M  V30 3219 C 295.846 -2.02522 -2.82138 0
M  V30 3220 C 294.8 -3.18302 -2.86126 0
M  V30 3221 C 294.126 -3.22989 -4.26125 0
M  V30 3222 C 295.426 -4.56796 -2.53248 0
M  V30 3223 H 297.12 -2.74201 -1.20226 0
M  V30 3224 H 294.666 -1.31938 -0.576922 0
M  V30 3225 H 296.619 -2.21904 -3.58241 0
M  V30 3226 H 295.343 -1.08172 -3.08166 0
M  V30 3227 H 294.002 -2.98747 -2.12475 0
M  V30 3228 H 293.65 -2.26267 -4.49235 0
M  V30 3229 H 293.35 -4.00781 -4.29708 0
M  V30 3230 H 294.874 -3.44559 -5.04094 0
M  V30 3231 H 296.288 -4.7631 -3.19064 0
M  V30 3232 H 294.685 -5.36862 -2.68141 0
M  V30 3233 H 295.755 -4.61606 -1.48484 0
M  V30 3234 N 297.098 0.621204 -1.44841 0
M  V30 3235 C 298.345 1.38055 -1.48145 0
M  V30 3236 C 298.673 1.94143 -0.117867 0
M  V30 3237 O 297.928 1.74713 0.881694 0
M  V30 3238 C 298.227 2.55675 -2.4973 0
M  V30 3239 C 297.893 2.17817 -3.94799 0
M  V30 3240 C 296.555 2.07205 -4.34303 0
M  V30 3241 C 298.907 1.88065 -4.86087 0
M  V30 3242 C 296.235 1.65045 -5.63007 0
M  V30 3243 C 298.587 1.47394 -6.15189 0
M  V30 3244 C 297.251 1.35331 -6.53637 0
M  V30 3245 H 296.521 0.505181 -0.542101 0
M  V30 3246 H 299.168 0.703477 -1.78111 0
M  V30 3247 H 297.473 3.2866 -2.13284 0
M  V30 3248 H 299.17 3.13904 -2.4953 0
M  V30 3249 H 295.76 2.26998 -3.63552 0
M  V30 3250 H 299.944 1.95168 -4.56315 0
M  V30 3251 H 295.2 1.54317 -5.91605 0
M  V30 3252 H 299.374 1.23415 -6.85377 0
M  V30 3253 H 297.001 1.02435 -7.53267 0
M  V30 3254 N 298.576 1.31904 0.862503 0
M  V30 3255 C 299.506 1.22782 1.98612 0
M  V30 3256 C 300.487 0.113362 1.69722 0
M  V30 3257 O 301.672 0.299218 1.91881 0
M  V30 3258 C 298.802 0.942058 3.34279 0
M  V30 3259 C 297.756 2.0169 3.77499 0
M  V30 3260 C 297.082 1.58369 5.10709 0
M  V30 3261 C 298.382 3.43096 3.93805 0
M  V30 3262 H 300.076 2.16788 2.06502 0
M  V30 3263 H 297.622 1.04366 0.992154 0
M  V30 3264 H 299.575 0.864818 4.1243 0
M  V30 3265 H 298.299 -0.0336603 3.26583 0
M  V30 3266 H 296.958 2.08416 3.01593 0
M  V30 3267 H 296.606 0.595628 4.99461 0
M  V30 3268 H 296.306 2.30279 5.40597 0
M  V30 3269 H 297.83 1.52067 5.91361 0
M  V30 3270 H 299.244 3.39003 4.62331 0
M  V30 3271 H 297.641 4.13288 4.35101 0
M  V30 3272 H 298.711 3.83334 2.96957 0
M  V30 3273 N 300.054 -1.07777 1.14986 0
M  V30 3274 C 301.303 -1.79669 0.916617 0
M  V30 3275 C 301.616 -1.87474 -0.557917 0
M  V30 3276 O 302.822 -2.55845 -0.908617 0
M  V30 3277 C 301.278 -3.22848 1.59051 0
M  V30 3278 C 300.886 -3.23257 3.10176 0
M  V30 3279 C 302.63 -3.99379 1.43864 0
M  V30 3280 C 300.537 -4.61063 3.70372 0
M  V30 3281 H 299.467 -0.673349 0.33929 0
M  V30 3282 H 302.118 -1.21003 1.37951 0
M  V30 3283 H 300.5 -3.8168 1.0553 0
M  V30 3284 H 301.674 -2.74095 3.70417 0
M  V30 3285 H 299.989 -2.60222 3.25074 0
M  V30 3286 H 302.586 -5.0122 1.86232 0
M  V30 3287 H 302.929 -4.14511 0.385564 0
M  V30 3288 H 303.462 -3.47032 1.94457 0
M  V30 3289 H 300.201 -4.51135 4.7556 0
M  V30 3290 H 299.721 -5.1048 3.14913 0
M  V30 3291 H 301.4 -5.30034 3.71043 0
M  V30 3292 N 301.532 -0.945985 -1.26051 0
M  V30 3293 C 302.943 -0.638096 -1.75457 0
M  V30 3294 C 303.294 0.846672 -1.76991 0
M  V30 3295 O 302.419 1.66262 -1.38513 0
M  V30 3296 C 303.014 -1.15157 -3.18629 0
M  V30 3297 C 301.573 -0.894004 -3.65629 0
M  V30 3298 C 300.72 -1.29967 -2.44957 0
M  V30 3299 H 303.671 -1.12376 -1.1206 0
M  V30 3300 H 303.692 -0.507615 -3.77099 0
M  V30 3301 H 303.204 -2.23222 -3.1748 0
M  V30 3302 H 301.305 0.172057 -3.72203 0
M  V30 3303 H 301.418 -1.52439 -4.54202 0
M  V30 3304 H 299.782 -0.718078 -2.44368 0
M  V30 3305 H 300.565 -2.38935 -2.46505 0
M  V30 3306 N 303.011 1.40521 -0.713556 0
M  V30 3307 C 304.258 2.00923 -0.25219 0
M  V30 3308 C 304.586 1.56571 1.15395 0
M  V30 3309 O 303.841 0.775874 1.79663 0
M  V30 3310 C 304.14 3.56317 -0.278 0
M  V30 3311 C 303.806 4.20246 -1.63415 0
M  V30 3312 C 302.468 4.37422 -2.00538 0
M  V30 3313 C 304.82 4.55923 -2.52554 0
M  V30 3314 C 302.148 4.87558 -3.2635 0
M  V30 3315 C 304.5 5.07458 -3.77716 0
M  V30 3316 C 303.164 5.22843 -4.14959 0
M  V30 3317 H 302.434 0.735231 -0.0922829 0
M  V30 3318 H 305.081 1.68161 -0.916188 0
M  V30 3319 H 303.386 3.88976 0.469567 0
M  V30 3320 H 305.083 4.00883 0.0967819 0
M  V30 3321 H 301.673 4.07263 -1.33546 0
M  V30 3322 H 305.857 4.42291 -2.25149 0
M  V30 3323 H 301.113 4.97654 -3.55176 0
M  V30 3324 H 305.287 5.34041 -4.4696 0
M  V30 3325 H 302.914 5.61454 -5.12516 0
M  V30 3326 N 304.489 0.459591 1.5075 0
M  V30 3327 C 305.735 -0.0994966 2.02556 0
M  V30 3328 C 306.068 -1.40399 1.3417 0
M  V30 3329 O 305.343 -1.88892 0.463683 0
M  V30 3330 C 305.626 -0.295242 3.58888 0
M  V30 3331 C 305.479 1.02947 4.37861 0
M  V30 3332 C 306.798 -1.05502 4.27267 0
M  V30 3333 H 303.917 -0.034686 0.736183 0
M  V30 3334 H 306.559 0.602938 1.8018 0
M  V30 3335 H 304.709 -0.893563 3.78084 0
M  V30 3336 H 306.381 1.66348 4.30263 0
M  V30 3337 H 304.624 1.62885 4.02058 0
M  V30 3338 H 305.295 0.846281 5.45474 0
M  V30 3339 H 307.771 -0.547993 4.12476 0
M  V30 3340 H 306.647 -1.16077 5.36486 0
M  V30 3341 H 306.908 -2.08875 3.89645 0
M  V30 3342 N 305.967 -1.56429 0.191757 0
M  V30 3343 C 307.216 -1.9666 -0.448088 0
M  V30 3344 C 307.529 -1.08136 -1.62991 0
M  V30 3345 O 308.735 -1.38135 -2.33733 0
M  V30 3346 C 307.191 -3.49753 -0.848585 0
M  V30 3347 C 306.799 -4.46935 0.308764 0
M  V30 3348 C 308.543 -3.9876 -1.4557 0
M  V30 3349 C 306.45 -5.91293 -0.112506 0
M  V30 3350 H 305.38 -0.734312 -0.171179 0
M  V30 3351 H 308.031 -1.81301 0.283242 0
M  V30 3352 H 306.413 -3.60604 -1.63649 0
M  V30 3353 H 307.587 -4.47813 1.08627 0
M  V30 3354 H 305.902 -4.08102 0.827158 0
M  V30 3355 H 308.499 -5.04086 -1.78328 0
M  V30 3356 H 308.842 -3.42875 -2.36099 0
M  V30 3357 H 309.375 -3.9101 -0.731836 0
M  V30 3358 H 306.114 -6.51097 0.758514 0
M  V30 3359 H 305.634 -5.93676 -0.854941 0
M  V30 3360 H 307.313 -6.44663 -0.549448 0
M  V30 3361 N 307.445 0.0818655 -1.57387 0
M  V30 3362 C 308.673 0.796108 -1.9097 0
M  V30 3363 C 309.088 1.71626 -0.786757 0
M  V30 3364 O 308.445 1.80908 0.240513 0
M  V30 3365 C 308.496 1.59829 -3.24248 0
M  V30 3366 O 308.217 0.715131 -4.32224 0
M  V30 3367 C 309.718 2.41442 -3.7178 0
M  V30 3368 H 306.938 0.22691 -0.631469 0
M  V30 3369 H 309.482 0.0551439 -2.04426 0
M  V30 3370 H 307.637 2.29163 -3.12351 0
M  V30 3371 H 308.051 1.27205 -5.08841 0
M  V30 3372 H 309.525 2.932 -4.67694 0
M  V30 3373 H 310.002 3.2051 -3.00283 0
M  V30 3374 H 310.608 1.77283 -3.86589 0
M  V30 3375 N 308.923 1.53595 0.353017 0
M  V30 3376 C 310.169 1.70638 1.09593 0
M  V30 3377 C 310.502 0.463286 1.88593 0
M  V30 3378 O 309.777 -0.539597 1.86865 0
M  V30 3379 C 310.06 2.96406 2.04489 0
M  V30 3380 C 309.913 4.30901 1.29014 0
M  V30 3381 C 311.232 3.17812 3.0444 0
M  V30 3382 H 308.351 0.620913 0.397034 0
M  V30 3383 H 310.993 1.86254 0.375446 0
M  V30 3384 H 309.143 2.83223 2.65927 0
M  V30 3385 H 310.815 4.55917 0.702638 0
M  V30 3386 H 309.058 4.29741 0.592071 0
M  V30 3387 H 309.729 5.1506 1.98537 0
M  V30 3388 H 312.205 3.30263 2.53112 0
M  V30 3389 H 311.081 4.07223 3.6805 0
M  V30 3390 H 311.342 2.33669 3.75301 0
M  V30 3391 N 310.401 -0.613514 1.45168 0
M  V30 3392 C 311.364 -1.7065 1.53007 0
M  V30 3393 C 312.364 -1.5548 0.410184 0
M  V30 3394 O 313.554 -1.60656 0.673455 0
M  V30 3395 C 310.686 -3.09875 1.42093 0
M  V30 3396 H 311.879 -1.65068 2.50385 0
M  V30 3397 H 309.432 -0.828728 1.32521 0
M  V30 3398 H 310.167 -3.21039 0.458769 0
M  V30 3399 H 309.952 -3.22293 2.23315 0
M  V30 3400 H 311.442 -3.895 1.50598 0
M  V30 3401 N 311.879 -1.3236 -0.855495 0
M  V30 3402 C 313.119 -1.24187 -1.62348 0
M  V30 3403 C 313.483 0.193597 -1.91021 0
M  V30 3404 O 314.684 0.39904 -2.65822 0
M  V30 3405 C 312.955 -2.07661 -2.90881 0
M  V30 3406 S 314.514 -2.16505 -3.81669 0
M  V30 3407 H 311.332 -0.442076 -0.556857 0
M  V30 3408 H 313.934 -1.67198 -1.01317 0
M  V30 3409 H 312.638 -3.11018 -2.67761 0
M  V30 3410 H 312.169 -1.65425 -3.56929 0
M  V30 3411 H 314.184 -1.31394 -4.78487 0
M  V30 3412 N 313.357 1.07166 -1.15556 0
M  V30 3413 C 314.587 1.83248 -0.954133 0
M  V30 3414 C 314.995 1.82449 0.500911 0
M  V30 3415 O 314.338 1.23575 1.35923 0
M  V30 3416 C 314.4 3.31393 -1.39351 0
M  V30 3417 C 314.064 3.5591 -2.86666 0
M  V30 3418 C 315.061 3.49695 -3.8472 0
M  V30 3419 C 312.746 3.83515 -3.24379 0
M  V30 3420 C 314.74 3.70737 -5.18491 0
M  V30 3421 C 312.427 4.04209 -4.58321 0
M  V30 3422 C 313.425 3.97815 -5.55186 0
M  V30 3423 O 313.113 4.17954 -6.86709 0
M  V30 3424 H 312.845 0.584941 -0.338851 0
M  V30 3425 H 315.399 1.36169 -1.53777 0
M  V30 3426 H 313.629 3.79292 -0.75329 0
M  V30 3427 H 315.318 3.88945 -1.16089 0
M  V30 3428 H 316.084 3.28368 -3.56931 0
M  V30 3429 H 311.963 3.87605 -2.49567 0
M  V30 3430 H 315.507 3.65663 -5.94085 0
M  V30 3431 H 311.404 4.25023 -4.85825 0
M  V30 3432 H 312.172 4.35291 -6.93155 0
M  V30 3433 N 314.835 0.952656 1.25548 0
M  V30 3434 C 316.063 0.623496 1.97282 0
M  V30 3435 C 316.478 -0.803987 1.70826 0
M  V30 3436 O 315.835 -1.53755 0.983147 0
M  V30 3437 C 315.886 0.870209 3.5087 0
M  V30 3438 O 315.607 2.24156 3.76412 0
M  V30 3439 C 317.108 0.553164 4.39835 0
M  V30 3440 H 314.328 0.233931 0.628902 0
M  V30 3441 H 316.872 1.27649 1.59768 0
M  V30 3442 H 315.027 0.263652 3.86502 0
M  V30 3443 H 315.441 2.31021 4.70882 0
M  V30 3444 H 316.915 0.776342 5.46513 0
M  V30 3445 H 317.392 -0.512215 4.36203 0
M  V30 3446 H 317.998 1.13896 4.09766 0
M  V30 3447 N 316.313 -1.40141 0.720998 0
M  V30 3448 C 317.276 -2.29058 0.0805834 0
M  V30 3449 C 318.276 -1.45632 -0.681758 0
M  V30 3450 O 319.466 -1.6648 -0.512856 0
M  V30 3451 C 316.598 -3.28925 -0.895593 0
M  V30 3452 H 317.791 -2.87191 0.863793 0
M  V30 3453 H 315.344 -1.48553 0.485975 0
M  V30 3454 H 316.079 -2.75822 -1.70566 0
M  V30 3455 H 315.864 -3.90519 -0.351766 0
M  V30 3456 H 317.354 -3.95494 -1.34069 0
M  V30 3457 N 317.792 -0.46758 -1.50504 0
M  V30 3458 C 319.02 0.0864133 -2.06719 0
M  V30 3459 C 319.435 1.33819 -1.33184 0
M  V30 3460 O 318.792 1.78061 -0.400083 0
M  V30 3461 C 318.843 0.378079 -3.59517 0
M  V30 3462 O 318.564 -0.824044 -4.3028 0
M  V30 3463 C 320.065 0.979426 -4.32345 0
M  V30 3464 H 317.285 -0.00551697 -0.670977 0
M  V30 3465 H 319.829 -0.655354 -1.93715 0
M  V30 3466 H 317.984 1.06977 -3.72337 0
M  V30 3467 H 318.398 -0.566518 -5.21432 0
M  V30 3468 H 319.872 1.1333 -5.40241 0
M  V30 3469 H 320.349 1.9686 -3.9261 0
M  V30 3470 H 320.955 0.326216 -4.24047 0
M  V30 3471 N 319.27 1.56325 -0.20005 0
M  V30 3472 C 320.519 1.96895 0.437652 0
M  V30 3473 C 320.832 1.08999 1.62415 0
M  V30 3474 O 322.038 1.39372 2.32997 0
M  V30 3475 C 320.494 3.50198 0.830025 0
M  V30 3476 C 320.102 4.46765 -0.332461 0
M  V30 3477 C 321.846 3.99526 1.43453 0
M  V30 3478 C 319.753 5.91344 0.0811468 0
M  V30 3479 H 318.683 0.735209 0.167282 0
M  V30 3480 H 321.334 1.81148 -0.292853 0
M  V30 3481 H 319.716 3.61467 1.61734 0
M  V30 3482 H 320.89 4.47231 -1.11 0
M  V30 3483 H 319.205 4.07657 -0.848789 0
M  V30 3484 H 321.802 5.05025 1.75652 0
M  V30 3485 H 322.145 3.44122 2.34277 0
M  V30 3486 H 322.678 3.91393 0.71109 0
M  V30 3487 H 319.417 6.50685 -0.793033 0
M  V30 3488 H 318.937 5.94121 0.823445 0
M  V30 3489 H 320.616 6.44945 0.515252 0
M  V30 3490 N 320.748 -0.0735177 1.57428 0
M  V30 3491 C 321.678 -1.0879 2.06608 0
M  V30 3492 C 322.659 -1.40473 0.959237 0
M  V30 3493 O 323.844 -1.5013 1.23185 0
M  V30 3494 C 320.974 -2.40183 2.50857 0
M  V30 3495 C 319.928 -2.22858 3.65402 0
M  V30 3496 C 319.254 -3.59619 3.957 0
M  V30 3497 C 320.554 -1.65123 4.95511 0
M  V30 3498 H 322.248 -0.678673 2.91607 0
M  V30 3499 H 319.794 -0.325013 1.40284 0
M  V30 3500 H 321.747 -3.11437 2.83874 0
M  V30 3501 H 320.471 -2.83083 1.62885 0
M  V30 3502 H 319.13 -1.54045 3.32664 0
M  V30 3503 H 318.778 -4.00086 3.04861 0
M  V30 3504 H 318.478 -3.48866 4.72828 0
M  V30 3505 H 320.002 -4.32306 4.31212 0
M  V30 3506 H 321.416 -2.26241 5.26771 0
M  V30 3507 H 319.813 -1.65071 5.7695 0
M  V30 3508 H 320.883 -0.612559 4.81015 0
M  V30 3509 N 322.226 -1.5378 -0.344866 0
M  V30 3510 C 323.173 -1.81676 -1.42346 0
M  V30 3511 C 324.143 -0.662376 -1.52321 0
M  V30 3512 O 325.328 -0.906675 -1.67881 0
M  V30 3513 C 322.468 -2.03087 -2.79015 0
M  V30 3514 C 321.581 -3.30799 -2.77842 0
M  V30 3515 C 320.716 -3.42285 -4.0622 0
M  V30 3516 C 319.755 -4.6395 -3.9927 0
M  V30 3517 N 318.892 -4.72477 -5.19336 0
M  V30 3518 H 323.732 -2.73703 -1.17858 0
M  V30 3519 H 321.269 -1.35568 -0.570949 0
M  V30 3520 H 323.227 -2.1349 -3.58438 0
M  V30 3521 H 321.857 -1.14375 -3.01858 0
M  V30 3522 H 320.909 -3.29244 -1.90533 0
M  V30 3523 H 322.221 -4.20314 -2.68584 0
M  V30 3524 H 321.375 -3.52113 -4.94066 0
M  V30 3525 H 320.114 -2.50823 -4.18258 0
M  V30 3526 H 319.119 -4.54201 -3.09809 0
M  V30 3527 H 320.344 -5.56775 -3.88817 0
M  V30 3528 H 318.29 -3.83924 -5.3192 0
M  V30 3529 H 318.207 -5.55927 -5.12329 0
M  V30 3530 H 319.475 -4.86613 -6.08957 0
M  V30 3531 N 323.704 0.605807 -1.45491 0
M  V30 3532 C 324.634 1.72709 -1.57143 0
M  V30 3533 C 325.615 1.6476 -0.422884 0
M  V30 3534 O 326.8 1.83132 -0.646247 0
M  V30 3535 C 323.93 3.11316 -1.53948 0
M  V30 3536 C 322.884 3.34077 -2.67537 0
M  V30 3537 C 322.21 4.72975 -2.49397 0
M  V30 3538 C 323.51 3.24158 -4.09535 0
M  V30 3539 H 325.204 1.63214 -2.51001 0
M  V30 3540 H 322.75 0.78379 -1.208 0
M  V30 3541 H 324.703 3.89557 -1.60696 0
M  V30 3542 H 323.427 3.21655 -0.566205 0
M  V30 3543 H 322.086 2.58227 -2.6022 0
M  V30 3544 H 321.734 4.8005 -1.50205 0
M  V30 3545 H 321.434 4.8916 -3.25571 0
M  V30 3546 H 322.958 5.53414 -2.58002 0
M  V30 3547 H 324.372 3.92271 -4.18086 0
M  V30 3548 H 322.769 3.51872 -4.86113 0
M  V30 3549 H 323.839 2.2157 -4.31317 0
M  V30 3550 N 325.182 1.32811 0.848464 0
M  V30 3551 C 326.112 1.24882 1.97299 0
M  V30 3552 C 327.093 0.131357 1.69592 0
M  V30 3553 O 328.278 0.319553 1.91553 0
M  V30 3554 C 325.408 0.97746 3.33261 0
M  V30 3555 C 324.362 2.05682 3.75338 0
M  V30 3556 C 323.688 1.63777 5.09 0
M  V30 3557 C 324.988 3.47254 3.90144 0
M  V30 3558 H 326.682 2.18966 2.04191 0
M  V30 3559 H 324.228 1.05413 0.981029 0
M  V30 3560 H 326.181 0.908513 4.1149 0
M  V30 3561 H 324.905 0.000980011 3.266 0
M  V30 3562 H 323.564 2.11603 2.99366 0
M  V30 3563 H 323.212 0.648569 4.98801 0
M  V30 3564 H 322.912 2.36 5.38124 0
M  V30 3565 H 324.436 1.5833 5.89715 0
M  V30 3566 H 325.85 3.43888 4.58709 0
M  V30 3567 H 324.247 4.1788 4.30693 0
M  V30 3568 H 325.317 3.86462 2.92874 0
M  V30 3569 N 326.66 -1.06551 1.16123 0
M  V30 3570 C 328.076 -1.3142 0.905585 0
M  V30 3571 C 328.276 -1.96571 -0.442964 0
M  V30 3572 O 327.332 -2.23068 -1.18308 0
M  V30 3573 C 328.645 -2.19741 2.05267 0
M  V30 3574 C 330.193 -2.33165 2.08813 0
M  V30 3575 C 330.668 -3.24838 3.22868 0
M  V30 3576 N 332.159 -3.32421 3.22568 0
M  V30 3577 C 332.894 -4.0344 4.0746 0
M  V30 3578 N 332.39 -4.77003 5.02434 0
M  V30 3579 N 334.183 -3.99464 3.95456 0
M  V30 3580 H 326.334 -0.626548 2.02949 0
M  V30 3581 H 328.597 -0.338777 0.8854 0
M  V30 3582 H 328.303 -1.79142 3.02657 0
M  V30 3583 H 328.177 -3.20313 1.99198 0
M  V30 3584 H 330.564 -2.73013 1.12018 0
M  V30 3585 H 330.645 -1.3227 2.18948 0
M  V30 3586 H 330.289 -2.85708 4.19921 0
M  V30 3587 H 330.219 -4.25707 3.0997 0
M  V30 3588 H 332.71 -2.79994 2.53795 0
M  V30 3589 H 333.023 -5.28712 5.63634 0
M  V30 3590 H 331.368 -4.75992 5.06415 0
M  V30 3591 H 334.559 -3.4111 3.20564 0
M  V30 3592 H 334.732 -4.54544 4.61837 0
M  V30 3593 N 328.138 -0.959301 -1.25041 0
M  V30 3594 C 329.366 -0.633949 -1.96948 0
M  V30 3595 C 329.781 0.794916 -1.7125 0
M  V30 3596 O 329.138 1.53231 -0.991287 0
M  V30 3597 C 329.189 -0.888805 -3.50403 0
M  V30 3598 O 328.91 -2.26149 -3.75218 0
M  V30 3599 C 330.411 -0.576482 -4.39536 0
M  V30 3600 H 327.631 -0.237263 -0.627652 0
M  V30 3601 H 330.175 -1.28495 -1.59089 0
M  V30 3602 H 328.33 -0.284145 -3.86357 0
M  V30 3603 H 328.744 -2.33514 -4.6965 0
M  V30 3604 H 330.218 -0.805314 -5.46094 0
M  V30 3605 H 330.695 0.489075 -4.36468 0
M  V30 3606 H 331.301 -1.16067 -4.09156 0
M  V30 3607 N 329.616 1.39756 -0.72842 0
M  V30 3608 C 330.526 2.34444 -0.0855374 0
M  V30 3609 C 331.542 1.57976 0.729356 0
M  V30 3610 O 332.718 1.90301 0.659346 0
M  V30 3611 C 329.783 3.36965 0.815798 0
M  V30 3612 C 328.844 4.29299 -0.0105996 0
M  V30 3613 C 328.077 5.26923 0.84781 0
M  V30 3614 O 328.3 5.30859 2.08673 0
M  V30 3615 O 327.234 6.01249 0.279969 0
M  V30 3616 H 331.06 2.91065 -0.866892 0
M  V30 3617 H 328.645 1.4117 -0.48902 0
M  V30 3618 H 330.527 3.99804 1.33171 0
M  V30 3619 H 329.202 2.82739 1.57608 0
M  V30 3620 H 328.109 3.69703 -0.571877 0
M  V30 3621 H 329.442 4.86712 -0.73295 0
M  V30 3622 N 331.094 0.475555 1.50254 0
M  V30 3623 C 332.004 -0.321501 2.32387 0
M  V30 3624 C 333.02 -0.991755 1.42969 0
M  V30 3625 O 334.196 -0.978747 1.76018 0
M  V30 3626 C 331.261 -1.38667 3.17762 0
M  V30 3627 C 330.322 -0.732538 4.23004 0
M  V30 3628 C 329.555 -1.74695 5.04299 0
M  V30 3629 O 329.778 -2.97399 4.86734 0
M  V30 3630 O 328.712 -1.31631 5.8733 0
M  V30 3631 H 332.538 0.350071 3.01676 0
M  V30 3632 H 330.123 0.237321 1.47503 0
M  V30 3633 H 332.005 -2.00354 3.70724 0
M  V30 3634 H 330.68 -2.04163 2.51196 0
M  V30 3635 H 329.587 -0.0765902 3.74022 0
M  V30 3636 H 330.92 -0.120452 4.92053 0
M  V30 3637 N 332.573 -1.56217 0.208337 0
M  V30 3638 C 333.536 -2.18455 -0.693557 0
M  V30 3639 C 334.536 -1.14268 -1.13135 0
M  V30 3640 O 335.726 -1.39577 -1.0423 0
M  V30 3641 C 332.858 -2.79727 -1.94848 0
M  V30 3642 H 334.051 -2.99519 -0.15114 0
M  V30 3643 H 331.604 -1.56245 -0.041287 0
M  V30 3644 H 332.339 -2.02497 -2.53309 0
M  V30 3645 H 332.124 -3.56009 -1.64316 0
M  V30 3646 H 333.614 -3.27475 -2.59133 0
M  V30 3647 N 334.051 0.0651679 -1.57465 0
M  V30 3648 C 335.001 1.0838 -2.00594 0
M  V30 3649 C 335.985 1.34106 -0.889071 0
M  V30 3650 O 337.177 1.34295 -1.15299 0
M  V30 3651 C 334.306 2.39565 -2.45894 0
M  V30 3652 C 333.392 2.17085 -3.64328 0
M  V30 3653 N 333.783 1.64553 -4.78285 0
M  V30 3654 C 332.081 2.4753 -3.71006 0
M  V30 3655 C 332.782 1.57042 -5.60101 0
M  V30 3656 N 331.758 2.03328 -5.04141 0
M  V30 3657 H 335.56 0.671062 -2.86136 0
M  V30 3658 H 333.074 0.27213 -1.60104 0
M  V30 3659 H 335.071 3.13308 -2.75034 0
M  V30 3660 H 333.731 2.81549 -1.61741 0
M  V30 3661 H 334.742 1.33323 -5.00445 0
M  V30 3662 H 331.419 2.92835 -2.9758 0
M  V30 3663 H 332.809 1.17223 -6.61595 0
M  V30 3664 N 335.529 1.53961 0.336706 0
M  V30 3665 C 336.777 1.71197 1.07405 0
M  V30 3666 C 337.098 0.481475 1.88962 0
M  V30 3667 O 336.368 -0.504585 1.8929 0
M  V30 3668 H 334.948 0.631185 0.399517 0
M  V30 3669 H 337.61 1.91232 0.376323 0
M  V30 3670 H 336.706 2.58587 1.74755 0
M  V30 3671 N 337.007 -0.598083 1.45811 0
M  V30 3672 C 338.423 -0.919847 1.30426 0
M  V30 3673 C 338.623 -1.99759 0.264303 0
M  V30 3674 O 337.679 -2.50221 -0.338472 0
M  V30 3675 C 338.992 -1.35176 2.68603 0
M  V30 3676 C 340.54 -1.46546 2.76574 0
M  V30 3677 C 341.015 -1.9311 4.15298 0
M  V30 3678 N 342.506 -2.00328 4.1764 0
M  V30 3679 C 343.241 -2.37599 5.21856 0
M  V30 3680 N 342.737 -2.73771 6.36413 0
M  V30 3681 N 344.53 -2.38021 5.09218 0
M  V30 3682 H 336.681 0.114111 2.12093 0
M  V30 3683 H 338.944 -0.0116121 0.947929 0
M  V30 3684 H 338.65 -0.633969 3.45939 0
M  V30 3685 H 338.524 -2.3164 2.97696 0
M  V30 3686 H 340.911 -2.17415 1.99537 0
M  V30 3687 H 340.992 -0.483727 2.51185 0
M  V30 3688 H 340.636 -1.22824 4.92825 0
M  V30 3689 H 340.566 -2.92213 4.38086 0
M  V30 3690 H 343.057 -1.74925 3.34977 0
M  V30 3691 H 343.37 -3.0112 7.11721 0
M  V30 3692 H 341.715 -2.71445 6.39799 0
M  V30 3693 H 344.906 -2.09174 4.18765 0
M  V30 3694 H 345.079 -2.66741 5.90554 0
M  V30 3695 N 338.485 -1.33259 -0.841409 0
M  V30 3696 C 339.395 -1.25332 -1.98316 0
M  V30 3697 C 340.411 -0.164364 -1.73222 0
M  V30 3698 O 341.587 -0.387486 -1.97637 0
M  V30 3699 C 338.652 -0.990078 -3.32262 0
M  V30 3700 C 337.713 -2.16879 -3.70489 0
M  V30 3701 C 336.946 -1.91801 -4.98044 0
M  V30 3702 O 337.169 -0.867075 -5.63771 0
M  V30 3703 O 336.103 -2.78267 -5.33714 0
M  V30 3704 H 339.929 -2.21344 -2.07944 0
M  V30 3705 H 337.514 -1.1328 -0.974058 0
M  V30 3706 H 339.396 -0.860321 -4.12524 0
M  V30 3707 H 338.071 -0.0602155 -3.23644 0
M  V30 3708 H 336.978 -2.35407 -2.90748 0
M  V30 3709 H 338.311 -3.0819 -3.8377 0
M  V30 3710 N 339.963 1.05934 -1.16686 0
M  V30 3711 C 340.895 2.13468 -0.834503 0
M  V30 3712 C 341.908 1.62013 0.15984 0
M  V30 3713 O 343.097 1.7838 -0.0654228 0
M  V30 3714 C 340.197 3.3817 -0.222361 0
M  V30 3715 C 339.37 4.18928 -1.25771 0
M  V30 3716 C 338.429 5.21985 -0.664703 0
M  V30 3717 O 337.455 5.53334 -1.33453 0
M  V30 3718 N 338.657 5.77919 0.546834 0
M  V30 3719 H 341.422 2.42578 -1.75999 0
M  V30 3720 H 338.983 1.21967 -1.06469 0
M  V30 3721 H 340.975 4.04266 0.187472 0
M  V30 3722 H 339.545 3.06655 0.606758 0
M  V30 3723 H 338.765 3.48433 -1.84358 0
M  V30 3724 H 340.053 4.69687 -1.95631 0
M  V30 3725 H 339.451 5.54721 1.10912 0
M  V30 3726 H 338.008 6.45573 0.898829 0
M  V30 3727 N 341.441 0.965919 1.2453 0
M  V30 3728 C 342.857 0.67216 1.44756 0
M  V30 3729 C 343.057 -0.766609 1.86347 0
M  V30 3730 O 342.113 -1.5407 2.00047 0
M  V30 3731 C 343.426 1.65473 2.51076 0
M  V30 3732 C 344.974 1.66716 2.64905 0
M  V30 3733 C 345.449 2.63766 3.74421 0
M  V30 3734 N 346.94 2.62198 3.81846 0
M  V30 3735 C 347.675 3.33966 4.66106 0
M  V30 3736 N 347.171 4.15245 5.54566 0
M  V30 3737 N 348.964 3.22799 4.60171 0
M  V30 3738 H 341.115 1.89553 0.958293 0
M  V30 3739 H 343.378 0.815979 0.482579 0
M  V30 3740 H 343.084 2.68296 2.27399 0
M  V30 3741 H 342.958 1.4261 3.49202 0
M  V30 3742 H 345.345 0.646057 2.87941 0
M  V30 3743 H 345.426 1.93642 1.67142 0
M  V30 3744 H 345.07 3.6601 3.52135 0
M  V30 3745 H 345 2.34121 4.71694 0
M  V30 3746 H 347.491 2.032 3.18619 0
M  V30 3747 H 347.804 4.66898 6.15814 0
M  V30 3748 H 346.149 4.1934 5.54237 0
M  V30 3749 H 349.34 2.58764 3.90075 0
M  V30 3750 H 349.513 3.78994 5.25612 0
M  V30 3751 N 342.919 -1.39368 0.735821 0
M  V30 3752 C 344.335 -1.54204 0.411492 0
M  V30 3753 C 344.535 -1.70268 -1.07755 0
M  V30 3754 O 343.591 -1.70364 -1.86366 0
M  V30 3755 C 344.904 -2.75925 1.19523 0
M  V30 3756 C 346.452 -2.89761 1.18354 0
M  V30 3757 C 346.927 -4.14421 1.94986 0
M  V30 3758 N 348.418 -4.21462 1.92156 0
M  V30 3759 C 349.153 -5.16871 2.48258 0
M  V30 3760 N 348.649 -6.18063 3.13001 0
M  V30 3761 N 350.442 -5.09093 2.38287 0
M  V30 3762 H 342.593 -1.27189 1.70108 0
M  V30 3763 H 344.856 -0.616517 0.720147 0
M  V30 3764 H 344.562 -2.70401 2.24892 0
M  V30 3765 H 344.436 -3.68614 0.800222 0
M  V30 3766 H 346.823 -2.94777 0.137975 0
M  V30 3767 H 346.904 -1.98133 1.61793 0
M  V30 3768 H 346.548 -4.10166 2.99543 0
M  V30 3769 H 346.478 -5.05095 1.48953 0
M  V30 3770 H 348.969 -3.48979 1.44991 0
M  V30 3771 H 349.282 -6.87326 3.53275 0
M  V30 3772 H 347.627 -6.18448 3.17091 0
M  V30 3773 H 350.818 -4.28973 1.8735 0
M  V30 3774 H 350.991 -5.83272 2.82308 0
M  V30 3775 N 344.397 -0.483516 -1.5 0
M  V30 3776 C 345.813 -0.138404 -1.58999 0
M  V30 3777 C 346.013 1.35597 -1.4905 0
M  V30 3778 O 345.069 2.13039 -1.35539 0
M  V30 3779 C 346.382 -0.699658 -2.92447 0
M  V30 3780 C 347.93 -0.664195 -3.05872 0
M  V30 3781 C 348.405 -1.20321 -4.41913 0
M  V30 3782 N 349.896 -1.16315 -4.48358 0
M  V30 3783 C 350.631 -1.55058 -5.52037 0
M  V30 3784 N 350.127 -2.01311 -6.62907 0
M  V30 3785 N 351.92 -1.46584 -5.42651 0
M  V30 3786 H 344.071 -1.45529 -1.5471 0
M  V30 3787 H 346.334 -0.60258 -0.731848 0
M  V30 3788 H 346.04 -1.747 -3.05242 0
M  V30 3789 H 345.914 -0.150194 -3.76901 0
M  V30 3790 H 348.301 0.374272 -2.92717 0
M  V30 3791 H 348.382 -1.25061 -2.23144 0
M  V30 3792 H 348.026 -2.24037 -4.55818 0
M  V30 3793 H 347.956 -0.592896 -5.23252 0
M  V30 3794 H 350.447 -0.824058 -3.68806 0
M  V30 3795 H 350.76 -2.2899 -7.38095 0
M  V30 3796 H 349.105 -2.05273 -6.63994 0
M  V30 3797 H 352.296 -1.10281 -4.54924 0
M  V30 3798 H 352.469 -1.77103 -6.23329 0
M  V30 3799 N 345.875 1.56104 -0.216619 0
M  V30 3800 C 346.838 2.18819 0.681962 0
M  V30 3801 C 347.838 1.14866 1.12528 0
M  V30 3802 O 349.028 1.40128 1.03488 0
M  V30 3803 C 346.16 2.80756 1.93362 0
M  V30 3804 H 347.353 2.99595 0.135254 0
M  V30 3805 H 344.906 1.56265 0.0330003 0
M  V30 3806 H 345.641 2.03837 2.52232 0
M  V30 3807 H 345.426 3.56876 1.62426 0
M  V30 3808 H 346.916 3.28844 2.57393 0
M  V30 3809 N 347.353 -0.0568162 1.57498 0
M  V30 3810 C 348.599 -0.75422 1.88253 0
M  V30 3811 C 348.932 -1.76461 0.810865 0
M  V30 3812 O 348.207 -1.93691 -0.177259 0
M  V30 3813 C 348.49 -1.44878 3.2967 0
M  V30 3814 C 348.343 -0.453789 4.47505 0
M  V30 3815 C 349.662 -2.38994 3.69554 0
M  V30 3816 H 346.781 -0.272724 0.684683 0
M  V30 3817 H 349.423 -0.0172113 1.89992 0
M  V30 3818 H 347.573 -2.077 3.28318 0
M  V30 3819 H 349.245 0.170371 4.60985 0
M  V30 3820 H 347.488 0.229552 4.33192 0
M  V30 3821 H 348.159 -0.977699 5.43273 0
M  V30 3822 H 350.635 -1.86239 3.72095 0
M  V30 3823 H 349.511 -2.84587 4.69363 0
M  V30 3824 H 349.772 -3.24461 3.00296 0
M  V30 3825 N 348.832 -1.54138 -0.328536 0
M  V30 3826 C 350.08 -1.71765 -1.06496 0
M  V30 3827 C 350.401 -0.49149 -1.88704 0
M  V30 3828 O 349.671 0.494539 -1.89555 0
M  V30 3829 H 348.251 -0.633295 -0.396164 0
M  V30 3830 H 350.913 -1.91429 -0.366176 0
M  V30 3831 H 350.009 -2.5951 -1.73381 0
M  V30 3832 N 350.31 0.590341 -1.46126 0
M  V30 3833 C 351.24 1.71032 -1.58966 0
M  V30 3834 C 352.221 1.64302 -0.440335 0
M  V30 3835 O 353.406 1.82436 -0.665634 0
M  V30 3836 C 350.536 3.09665 -1.57241 0
M  V30 3837 C 349.49 3.31221 -2.71066 0
M  V30 3838 C 348.816 4.70303 -2.54399 0
M  V30 3839 C 350.116 3.19796 -4.1295 0
M  V30 3840 H 351.81 1.60543 -2.52718 0
M  V30 3841 H 349.356 0.770933 -1.21625 0
M  V30 3842 H 351.309 3.87831 -1.64819 0
M  V30 3843 H 350.033 3.21036 -0.600289 0
M  V30 3844 H 348.692 2.55452 -2.62944 0
M  V30 3845 H 348.34 4.78429 -1.55288 0
M  V30 3846 H 348.04 4.85679 -3.30741 0
M  V30 3847 H 349.564 5.50647 -2.63857 0
M  V30 3848 H 350.978 3.87815 -4.22223 0
M  V30 3849 H 349.375 3.46696 -4.89818 0
M  V30 3850 H 350.445 2.16983 -4.33643 0
M  V30 3851 N 351.788 1.33704 0.83433 0
M  V30 3852 C 352.751 1.24244 1.92603 0
M  V30 3853 C 353.751 0.160383 1.59998 0
M  V30 3854 O 354.941 0.412228 1.69252 0
M  V30 3855 C 352.073 0.91555 3.28376 0
M  V30 3856 H 353.266 2.21287 2.02416 0
M  V30 3857 H 350.819 1.17827 1.02696 0
M  V30 3858 H 351.554 -0.0521886 3.24258 0
M  V30 3859 H 351.339 1.69811 3.53422 0
M  V30 3860 H 352.829 0.874231 4.08347 0
M  V30 3861 N 353.266 -1.05314 1.17247 0
M  V30 3862 C 354.229 -2.112 0.890357 0
M  V30 3863 C 355.229 -1.60359 -0.118943 0
M  V30 3864 O 356.419 -1.73833 0.113086 0
M  V30 3865 C 353.551 -3.39266 0.333422 0
M  V30 3866 H 354.744 -2.37659 1.82916 0
M  V30 3867 H 352.297 -1.21538 0.982758 0
M  V30 3868 H 353.032 -3.18462 -0.612587 0
M  V30 3869 H 352.817 -3.77477 1.06082 0
M  V30 3870 H 354.307 -4.17315 0.154322 0
M  V30 3871 N 354.744 -0.972509 -1.24016 0
M  V30 3872 C 355.99 -0.637978 -1.92504 0
M  V30 3873 C 356.323 0.825383 -1.75787 0
M  V30 3874 O 355.598 1.59442 -1.11393 0
M  V30 3875 C 355.881 -1.01942 -3.45369 0
M  V30 3876 C 355.734 -2.53983 -3.71231 0
M  V30 3877 C 357.053 -0.55751 -4.36555 0
M  V30 3878 H 354.172 -0.233248 -0.699117 0
M  V30 3879 H 356.814 -1.21238 -1.46292 0
M  V30 3880 H 354.964 -0.530656 -3.84859 0
M  V30 3881 H 356.636 -3.10374 -3.41271 0
M  V30 3882 H 354.879 -2.96968 -3.16216 0
M  V30 3883 H 355.55 -2.75723 -4.78206 0
M  V30 3884 H 358.026 -0.977029 -4.04467 0
M  V30 3885 H 356.902 -0.85292 -5.42233 0
M  V30 3886 H 357.163 0.542328 -4.38761 0
M  V30 3887 N 356.222 1.38976 -0.743202 0
M  V30 3888 C 357.468 2.0064 -0.295189 0
M  V30 3889 C 357.801 1.5885 1.11716 0
M  V30 3890 O 357.076 0.821181 1.76315 0
M  V30 3891 C 357.359 3.578 -0.406318 0
M  V30 3892 C 357.212 4.09586 -1.85903 0
M  V30 3893 C 358.531 4.39616 0.206439 0
M  V30 3894 H 355.65 0.728935 -0.108733 0
M  V30 3895 H 358.292 1.65067 -0.940897 0
M  V30 3896 H 356.442 3.88235 0.143419 0
M  V30 3897 H 358.114 3.89837 -2.46627 0
M  V30 3898 H 356.357 3.6284 -2.3776 0
M  V30 3899 H 357.028 5.18708 -1.888 0
M  V30 3900 H 359.504 4.15273 -0.262283 0
M  V30 3901 H 358.38 5.48812 0.0983819 0
M  V30 3902 H 358.641 4.22754 1.2935 0
M  V30 3903 N 357.7 0.491464 1.49741 0
M  V30 3904 C 358.63 -0.28154 2.31796 0
M  V30 3905 C 359.611 -0.971473 1.3963 0
M  V30 3906 O 360.796 -0.964719 1.68543 0
M  V30 3907 C 357.926 -1.35203 3.19902 0
M  V30 3908 C 356.88 -0.782529 4.20786 0
M  V30 3909 C 356.206 -1.95283 4.97764 0
M  V30 3910 C 357.506 0.21999 5.21837 0
M  V30 3911 H 359.2 0.403355 2.96671 0
M  V30 3912 H 356.746 0.195425 1.42668 0
M  V30 3913 H 358.699 -1.90045 3.76113 0
M  V30 3914 H 357.423 -2.06598 2.52953 0
M  V30 3915 H 356.082 -0.255928 3.65706 0
M  V30 3916 H 355.73 -2.65423 4.2727 0
M  V30 3917 H 355.43 -1.57789 5.66018 0
M  V30 3918 H 356.954 -2.50577 5.56816 0
M  V30 3919 H 358.368 -0.23996 5.72798 0
M  V30 3920 H 356.765 0.51026 5.97927 0
M  V30 3921 H 357.835 1.13911 4.7133 0
M  V30 3922 N 359.178 -1.55987 0.224894 0
M  V30 3923 C 360.108 -2.23426 -0.678457 0
M  V30 3924 C 361.089 -1.20709 -1.19847 0
M  V30 3925 O 362.274 -1.49304 -1.24186 0
M  V30 3926 C 359.404 -2.91676 -1.88527 0
M  V30 3927 C 358.358 -4.00893 -1.49896 0
M  V30 3928 C 357.684 -4.56455 -2.78483 0
M  V30 3929 C 358.984 -5.17769 -0.686461 0
M  V30 3930 H 360.678 -2.99175 -0.116173 0
M  V30 3931 H 358.224 -1.43897 -0.054436 0
M  V30 3932 H 360.177 -3.37547 -2.5227 0
M  V30 3933 H 358.901 -2.1338 -2.47258 0
M  V30 3934 H 357.56 -3.55758 -0.884985 0
M  V30 3935 H 357.208 -3.74886 -3.35365 0
M  V30 3936 H 356.908 -5.30169 -2.53368 0
M  V30 3937 H 358.432 -5.05047 -3.43162 0
M  V30 3938 H 359.846 -5.60001 -1.22767 0
M  V30 3939 H 358.243 -5.97735 -0.532259 0
M  V30 3940 H 359.313 -4.83932 0.306196 0
M  V30 3941 N 360.656 0.0484629 -1.57525 0
M  V30 3942 C 361.619 1.03956 -2.04269 0
M  V30 3943 C 362.619 1.30211 -0.943496 0
M  V30 3944 O 363.809 1.25539 -1.20771 0
M  V30 3945 C 360.941 2.37742 -2.44319 0
M  V30 3946 H 362.134 0.636182 -2.93075 0
M  V30 3947 H 359.687 0.294811 -1.53494 0
M  V30 3948 H 360.422 2.82866 -1.5861 0
M  V30 3949 H 360.207 2.20021 -3.24551 0
M  V30 3950 H 361.697 3.08936 -2.80978 0
M  V30 3951 N 362.134 1.5431 0.320358 0
M  V30 3952 C 363.381 1.72668 1.05792 0
M  V30 3953 C 363.709 0.502084 1.87908 0
M  V30 3954 O 362.964 -0.516149 1.88771 0
M  V30 3955 C 363.263 2.95639 2.00828 0
M  V30 3956 C 362.929 4.30265 1.34843 0
M  V30 3957 C 361.591 4.66865 1.16578 0
M  V30 3958 C 363.943 5.13801 0.875095 0
M  V30 3959 C 361.271 5.84597 0.496336 0
M  V30 3960 C 363.623 6.32219 0.219463 0
M  V30 3961 C 362.287 6.67495 0.0246915 0
M  V30 3962 H 361.557 0.631837 0.387121 0
M  V30 3963 H 364.204 1.88552 0.334735 0
M  V30 3964 H 362.509 2.74456 2.79609 0
M  V30 3965 H 364.206 3.07038 2.57932 0
M  V30 3966 H 360.796 4.01472 1.50061 0
M  V30 3967 H 364.98 4.86039 1.00398 0
M  V30 3968 H 360.236 6.10486 0.334264 0
M  V30 3969 H 364.41 6.96227 -0.155291 0
M  V30 3970 H 362.037 7.5858 -0.496065 0
M  V30 3971 N 363.613 -0.582584 1.46437 0
M  V30 3972 C 364.859 -1.34278 1.51978 0
M  V30 3973 C 365.192 -1.93446 0.170973 0
M  V30 3974 O 364.467 -1.76481 -0.817608 0
M  V30 3975 C 364.75 -2.47203 2.61845 0
M  V30 3976 C 364.603 -1.93069 4.06257 0
M  V30 3977 C 365.922 -3.49247 2.67795 0
M  V30 3978 H 363.041 -0.486876 0.553282 0
M  V30 3979 H 365.683 -0.654437 1.78374 0
M  V30 3980 H 363.833 -3.0592 2.39469 0
M  V30 3981 H 365.505 -1.38808 4.3992 0
M  V30 3982 H 363.748 -1.23898 4.1573 0
M  V30 3983 H 364.419 -2.74586 4.7886 0
M  V30 3984 H 366.895 -3.00411 2.8791 0
M  V30 3985 H 365.771 -4.25719 3.46489 0
M  V30 3986 H 366.032 -4.06482 1.73852 0
M  V30 3987 N 365.091 -1.34144 -0.827227 0
M  V30 3988 C 366.319 -1.29325 -1.61501 0
M  V30 3989 C 366.734 0.13354 -1.88327 0
M  V30 3990 O 366.091 1.0793 -1.47164 0
M  V30 3991 C 366.142 -2.07746 -2.95844 0
M  V30 3992 O 365.863 -3.4486 -2.70191 0
M  V30 3993 C 367.364 -2.10273 -3.90256 0
M  V30 3994 H 364.584 -0.445069 -0.50215 0
M  V30 3995 H 367.128 -1.76693 -1.02955 0
M  V30 3996 H 365.283 -1.6403 -3.5096 0
M  V30 3997 H 365.697 -3.85345 -3.55822 0
M  V30 3998 H 367.171 -2.69575 -4.81698 0
M  V30 3999 H 367.648 -1.096 -4.25305 0
M  V30 4000 H 368.254 -2.54059 -3.41078 0
M  V30 4001 N 366.569 1.04691 -1.17803 0
M  V30 4002 C 367.809 1.79352 -0.980423 0
M  V30 4003 C 368.173 1.85853 0.481958 0
M  V30 4004 O 369.374 2.56656 0.798809 0
M  V30 4005 C 367.645 3.19088 -1.6099 0
M  V30 4006 S 369.204 4.10164 -1.55918 0
M  V30 4007 H 366.022 0.617631 -0.352211 0
M  V30 4008 H 368.624 1.25575 -1.49837 0
M  V30 4009 H 367.328 3.11962 -2.66661 0
M  V30 4010 H 366.859 3.77941 -1.09197 0
M  V30 4011 H 368.874 4.92907 -0.570685 0
M  V30 4012 N 368.047 0.979072 1.23499 0
M  V30 4013 C 369.294 0.647219 1.91878 0
M  V30 4014 C 369.622 -0.819074 1.76413 0
M  V30 4015 O 368.877 -1.60616 1.11808 0
M  V30 4016 C 369.176 0.981932 3.43646 0
M  V30 4017 C 368.842 2.43822 3.79291 0
M  V30 4018 C 367.504 2.83622 3.88731 0
M  V30 4019 C 369.856 3.3828 3.96505 0
M  V30 4020 C 367.184 4.16897 4.12812 0
M  V30 4021 C 369.536 4.71197 4.22085 0
M  V30 4022 C 368.2 5.10758 4.29747 0
M  V30 4023 H 367.47 0.236834 0.702133 0
M  V30 4024 H 370.117 1.23268 1.46551 0
M  V30 4025 H 368.422 0.314365 3.90537 0
M  V30 4026 H 370.119 0.703395 3.94783 0
M  V30 4027 H 366.709 2.11966 3.72516 0
M  V30 4028 H 370.893 3.0871 3.88603 0
M  V30 4029 H 366.149 4.47157 4.16966 0
M  V30 4030 H 370.323 5.44348 4.34348 0
M  V30 4031 H 367.95 6.1405 4.48159 0
M  V30 4032 N 369.525 -1.3858 0.750561 0
M  V30 4033 C 370.488 -2.28836 0.129152 0
M  V30 4034 C 371.488 -1.47045 -0.650714 0
M  V30 4035 O 372.678 -1.6753 -0.477428 0
M  V30 4036 C 369.81 -3.30751 -0.825622 0
M  V30 4037 H 371.003 -2.85294 0.924516 0
M  V30 4038 H 368.556 -1.47489 0.517376 0
M  V30 4039 H 369.291 -2.79378 -1.64677 0
M  V30 4040 H 369.076 -3.91177 -0.268852 0
M  V30 4041 H 370.566 -3.98249 -1.2565 0
M  V30 4042 N 371.003 -0.499398 -1.49478 0
M  V30 4043 C 372.414 -0.051215 -1.8663 0
M  V30 4044 C 372.765 1.36238 -1.41186 0
M  V30 4045 O 371.89 2.01502 -0.789051 0
M  V30 4046 C 372.485 -0.0861651 -3.3869 0
M  V30 4047 C 371.044 0.30667 -3.75149 0
M  V30 4048 C 370.191 -0.459397 -2.73468 0
M  V30 4049 H 373.142 -0.712264 -1.41818 0
M  V30 4050 H 373.163 0.709507 -3.73826 0
M  V30 4051 H 372.675 -1.11512 -3.71735 0
M  V30 4052 H 370.776 1.33892 -3.47712 0
M  V30 4053 H 370.889 -0.0116669 -4.79099 0
M  V30 4054 H 369.253 0.0905645 -2.54539 0
M  V30 4055 H 370.036 -1.4884 -3.09357 0
M  V30 4056 N 372.481 1.55866 -0.233164 0
M  V30 4057 C 373.429 2.22176 0.68851 0
M  V30 4058 C 374.423 1.20487 1.19076 0
M  V30 4059 O 375.629 1.38536 1.14925 0
M  V30 4060 H 372.004 0.712511 0.240483 0
M  V30 4061 H 373.975 2.98212 0.105935 0
M  V30 4062 C 372.724 2.92446 1.88071 0
M  V30 4063 H 372.047 3.70458 1.50337 0
M  V30 4064 H 373.487 3.42226 2.50314 0
M  V30 4065 C 371.946 1.95555 2.74335 0
M  V30 4066 O 372.476 1.47986 3.73447 0
M  V30 4067 N 370.682 1.62953 2.40613 0
M  V30 4068 H 370.229 2.01831 1.60069 0
M  V30 4069 H 370.187 0.983886 2.98609 0
M  V30 4070 N 373.959 -0.0401083 1.57549 0
M  V30 4071 C 374.907 -1.06264 2.06908 0
M  V30 4072 C 375.901 -1.38132 0.980608 0
M  V30 4073 O 377.107 -1.37167 1.16556 0
M  V30 4074 H 373.482 -0.360166 0.660139 0
M  V30 4075 H 375.453 -0.620445 2.91878 0
M  V30 4076 C 374.202 -2.35846 2.55483 0
M  V30 4077 H 373.525 -2.12183 3.38849 0
M  V30 4078 H 374.965 -3.05765 2.93741 0
M  V30 4079 C 373.424 -3.0404 1.45126 0
M  V30 4080 O 373.954 -3.93424 0.811216 0
M  V30 4081 N 372.16 -2.65184 1.18852 0
M  V30 4082 H 371.707 -1.92584 1.71083 0
M  V30 4083 H 371.665 -3.1113 0.452244 0
M  V30 4084 N 375.437 -1.54477 -0.31217 0
M  V30 4085 C 376.684 -1.73227 -1.04875 0
M  V30 4086 C 377.012 -0.512042 -1.87639 0
M  V30 4087 O 376.267 0.506131 -1.89042 0
M  V30 4088 C 376.566 -2.967 -1.99258 0
M  V30 4089 C 376.232 -4.30974 -1.32559 0
M  V30 4090 C 374.894 -4.67477 -1.141 0
M  V30 4091 C 377.246 -5.14258 -0.847835 0
M  V30 4092 C 374.574 -5.84852 -0.465326 0
M  V30 4093 C 376.926 -6.32327 -0.185931 0
M  V30 4094 C 375.59 -6.67499 0.0107077 0
M  V30 4095 H 374.86 -0.633881 -0.383765 0
M  V30 4096 H 377.507 -1.88727 -0.324731 0
M  V30 4097 H 375.812 -2.75935 -2.7815 0
M  V30 4098 H 377.509 -3.08401 -2.563 0
M  V30 4099 H 374.099 -4.02262 -1.4793 0
M  V30 4100 H 378.283 -4.86565 -0.978192 0
M  V30 4101 H 373.539 -6.10654 -0.301883 0
M  V30 4102 H 377.713 -6.96135 0.192211 0
M  V30 4103 H 375.34 -7.58306 0.536287 0
M  V30 4104 N 376.915 0.57481 -1.46744 0
M  V30 4105 C 378.161 1.3347 -1.52688 0
M  V30 4106 C 378.494 1.93353 -0.181229 0
M  V30 4107 O 377.769 1.76912 0.808237 0
M  V30 4108 C 378.052 2.45811 -2.63152 0
M  V30 4109 C 377.905 1.90912 -4.07275 0
M  V30 4110 C 379.224 3.47822 -2.69644 0
M  V30 4111 H 376.343 0.483935 -0.555856 0
M  V30 4112 H 378.985 0.644968 -1.78718 0
M  V30 4113 H 377.135 3.04646 -2.41088 0
M  V30 4114 H 378.807 1.36473 -4.4065 0
M  V30 4115 H 377.05 1.21691 -4.16382 0
M  V30 4116 H 377.721 2.72042 -4.80309 0
M  V30 4117 H 380.197 2.9888 -2.895 0
M  V30 4118 H 379.073 4.23876 -3.48742 0
M  V30 4119 H 379.334 4.05555 -1.76005 0
M  V30 4120 N 378.394 1.34581 0.820102 0
M  V30 4121 C 379.324 1.29038 1.94606 0
M  V30 4122 C 380.305 0.1673 1.69275 0
M  V30 4123 O 381.49 0.360112 1.90832 0
M  V30 4124 C 378.62 1.04793 3.31113 0
M  V30 4125 C 377.574 2.13597 3.70891 0
M  V30 4126 C 376.9 1.74537 5.05412 0
M  V30 4127 C 378.2 3.55451 3.8269 0
M  V30 4128 H 379.894 2.23248 1.99501 0
M  V30 4129 H 377.44 1.0747 0.958449 0
M  V30 4130 H 379.393 0.995592 4.0947 0
M  V30 4131 H 378.117 0.0702565 3.26524 0
M  V30 4132 H 376.776 2.17905 2.9481 0
M  V30 4133 H 376.424 0.754226 4.97313 0
M  V30 4134 H 376.124 2.47361 5.32997 0
M  V30 4135 H 377.648 1.70803 5.86224 0
M  V30 4136 H 379.062 3.5354 4.51312 0
M  V30 4137 H 377.459 4.26922 4.21732 0
M  V30 4138 H 378.529 3.92587 2.84611 0
M  V30 4139 N 379.872 -1.04064 1.18357 0
M  V30 4140 C 380.802 -2.14001 0.934113 0
M  V30 4141 C 381.783 -1.69616 -0.128186 0
M  V30 4142 O 382.968 -1.94185 0.0244093 0
M  V30 4143 C 380.098 -3.44253 0.459066 0
M  V30 4144 C 379.052 -4.02261 1.46185 0
M  V30 4145 C 378.378 -5.27992 0.844322 0
M  V30 4146 C 379.678 -4.38432 2.83856 0
M  V30 4147 H 381.372 -2.35127 1.85352 0
M  V30 4148 H 378.918 -1.12998 0.892604 0
M  V30 4149 H 380.871 -4.20522 0.271907 0
M  V30 4150 H 379.595 -3.22813 -0.495912 0
M  V30 4151 H 378.254 -3.28074 1.63595 0
M  V30 4152 H 377.902 -5.02862 -0.117845 0
M  V30 4153 H 377.602 -5.67765 1.51384 0
M  V30 4154 H 379.126 -6.06938 0.667693 0
M  V30 4155 H 380.54 -5.05688 2.70098 0
M  V30 4156 H 378.937 -4.89254 3.47491 0
M  V30 4157 H 380.007 -3.4826 3.37406 0
M  V30 4158 N 381.35 -0.985608 -1.22978 0
M  V30 4159 C 382.313 -0.535071 -2.22867 0
M  V30 4160 C 383.313 0.378123 -1.56291 0
M  V30 4161 O 384.503 0.171092 -1.73358 0
M  V30 4162 C 381.635 0.222702 -3.40172 0
M  V30 4163 H 382.828 -1.41835 -2.6424 0
M  V30 4164 H 380.381 -0.772042 -1.35901 0
M  V30 4165 H 381.116 1.12229 -3.04262 0
M  V30 4166 H 380.901 -0.43288 -3.89703 0
M  V30 4167 H 382.391 0.526335 -4.1427 0
M  V30 4168 N 382.828 1.3818 -0.7579 0
M  V30 4169 C 383.778 2.27741 -0.108674 0
M  V30 4170 C 384.762 1.45415 0.688709 0
M  V30 4171 O 385.954 1.68108 0.553956 0
M  V30 4172 C 383.083 3.34313 0.780367 0
M  V30 4173 C 382.169 4.24093 -0.0240977 0
M  V30 4174 N 382.56 4.9451 -1.06271 0
M  V30 4175 C 380.858 4.45542 0.202049 0
M  V30 4176 C 381.559 5.60675 -1.54979 0
M  V30 4177 N 380.535 5.36684 -0.864348 0
M  V30 4178 H 384.337 2.79649 -0.904071 0
M  V30 4179 H 381.851 1.51133 -0.594346 0
M  V30 4180 H 383.848 3.97368 1.26114 0
M  V30 4181 H 382.508 2.83962 1.57467 0
M  V30 4182 H 383.519 4.97345 -1.44459 0
M  V30 4183 H 380.196 4.06091 0.96935 0
M  V30 4184 H 381.586 6.26992 -2.41517 0
M  V30 4185 N 384.306 0.507319 1.49211 0
M  V30 4186 C 385.555 -0.0368315 2.01666 0
M  V30 4187 C 385.868 -1.37459 1.39156 0
M  V30 4188 O 387.074 -2.00579 1.82976 0
M  V30 4189 C 385.53 -0.116089 3.59713 0
M  V30 4190 C 385.138 1.2154 4.31198 0
M  V30 4191 C 386.882 -0.610268 4.2009 0
M  V30 4192 C 384.789 1.09796 5.81119 0
M  V30 4193 H 383.719 -0.0175376 0.753796 0
M  V30 4194 H 386.37 0.647691 1.71689 0
M  V30 4195 H 384.752 -0.8652 3.86433 0
M  V30 4196 H 385.926 1.9783 4.16173 0
M  V30 4197 H 384.241 1.64352 3.82593 0
M  V30 4198 H 386.838 -0.715742 5.29888 0
M  V30 4199 H 387.181 -1.61064 3.8388 0
M  V30 4200 H 387.714 0.0824916 3.97714 0
M  V30 4201 H 384.453 2.0728 6.21864 0
M  V30 4202 H 383.973 0.376058 5.9862 0
M  V30 4203 H 385.652 0.779281 6.4229 0
M  V30 4204 N 385.784 -1.5574 0.241426 0
M  V30 4205 C 387.03 -1.99104 -0.385406 0
M  V30 4206 C 387.363 -1.1293 -1.57988 0
M  V30 4207 O 386.638 -0.191449 -1.93555 0
M  V30 4208 C 386.921 -3.51087 -0.800616 0
M  V30 4209 C 386.774 -4.48028 0.398874 0
M  V30 4210 C 388.093 -4.08015 -1.64959 0
M  V30 4211 H 385.212 -0.723848 -0.138614 0
M  V30 4212 H 387.854 -1.86903 0.341642 0
M  V30 4213 H 386.004 -3.61615 -1.4201 0
M  V30 4214 H 387.676 -4.49487 1.03726 0
M  V30 4215 H 385.919 -4.21077 1.04293 0
M  V30 4216 H 386.59 -5.51962 0.0651056 0
M  V30 4217 H 389.066 -4.00555 -1.12672 0
M  V30 4218 H 387.942 -5.14635 -1.90898 0
M  V30 4219 H 388.203 -3.56131 -2.61961 0
M  V30 4220 N 387.262 0.0317525 -1.57568 0
M  V30 4221 C 388.487 0.738664 -1.938 0
M  V30 4222 C 388.912 1.68242 -0.841208 0
M  V30 4223 O 388.27 1.80157 0.203267 0
M  V30 4224 C 388.318 1.47417 -3.29091 0
M  V30 4225 O 387.422 2.5872 -3.2115 0
M  V30 4226 H 386.763 0.198856 -0.633524 0
M  V30 4227 H 389.293 -0.0119713 -2.04596 0
M  V30 4228 H 389.303 1.84468 -3.63917 0
M  V30 4229 H 387.978 0.781988 -4.08482 0
M  V30 4230 H 386.555 2.24231 -2.97951 0
M  V30 4231 N 388.74 1.54641 0.303973 0
M  V30 4232 C 390.156 1.45788 0.649463 0
M  V30 4233 C 390.356 0.64666 1.90842 0
M  V30 4234 O 389.412 0.153183 2.52035 0
M  V30 4235 C 390.725 2.89718 0.805227 0
M  V30 4236 C 392.273 2.99742 0.901305 0
M  V30 4237 C 392.748 4.44863 1.08909 0
M  V30 4238 N 394.239 4.48559 1.15536 0
M  V30 4239 C 394.974 5.58026 1.3189 0
M  V30 4240 N 394.47 6.77422 1.45161 0
M  V30 4241 N 396.263 5.45708 1.34755 0
M  V30 4242 H 388.414 2.05854 -0.523237 0
M  V30 4243 H 390.677 0.932186 -0.172431 0
M  V30 4244 H 390.383 3.51666 -0.0489108 0
M  V30 4245 H 390.257 3.36964 1.69513 0
M  V30 4246 H 392.644 2.3791 1.74593 0
M  V30 4247 H 392.725 2.55797 -0.0125531 0
M  V30 4248 H 392.369 5.07288 0.249241 0
M  V30 4249 H 392.299 4.86436 2.01713 0
M  V30 4250 H 394.79 3.6254 1.06646 0
M  V30 4251 H 395.103 7.56604 1.57387 0
M  V30 4252 H 393.448 6.80292 1.42223 0
M  V30 4253 H 396.639 4.51378 1.23996 0
M  V30 4254 H 396.812 6.3107 1.47157 0
M  V30 4255 N 390.218 -0.567019 1.47046 0
M  V30 4256 C 391.148 -1.68482 1.61667 0
M  V30 4257 C 392.129 -1.6358 0.466418 0
M  V30 4258 O 393.314 -1.81354 0.694574 0
M  V30 4259 C 390.444 -3.07124 1.62148 0
M  V30 4260 C 389.398 -3.26867 2.76301 0
M  V30 4261 C 388.724 -4.66196 2.61849 0
M  V30 4262 C 390.024 -3.13186 4.17986 0
M  V30 4263 H 391.718 -1.56502 2.5524 0
M  V30 4264 H 389.264 -0.751486 1.22836 0
M  V30 4265 H 391.217 -3.8516 1.70968 0
M  V30 4266 H 389.941 -3.2004 0.651287 0
M  V30 4267 H 388.6 -2.51237 2.66975 0
M  V30 4268 H 388.248 -4.75898 1.62879 0
M  V30 4269 H 387.948 -4.80356 3.38425 0
M  V30 4270 H 389.472 -5.46379 2.72584 0
M  V30 4271 H 390.886 -3.81049 4.2834 0
M  V30 4272 H 389.283 -3.3886 4.95272 0
M  V30 4273 H 390.353 -2.10057 4.3704 0
M  V30 4274 N 391.696 -1.35014 -0.812953 0
M  V30 4275 C 392.943 -1.27931 -1.56971 0
M  V30 4276 C 393.271 0.148034 -1.93936 0
M  V30 4277 O 392.526 1.11175 -1.61054 0
M  V30 4278 C 392.825 -2.12524 -2.87347 0
M  V30 4279 C 392.491 -3.61401 -2.6963 0
M  V30 4280 C 391.153 -4.01983 -2.64506 0
M  V30 4281 C 393.505 -4.55894 -2.52607 0
M  V30 4282 C 390.833 -5.35235 -2.40293 0
M  V30 4283 C 393.185 -5.89336 -2.29925 0
M  V30 4284 C 391.849 -6.2907 -2.23219 0
M  V30 4285 H 391.119 -0.468131 -0.574399 0
M  V30 4286 H 393.766 -1.66851 -0.939836 0
M  V30 4287 H 392.071 -1.66463 -3.54679 0
M  V30 4288 H 393.768 -2.04383 -3.45005 0
M  V30 4289 H 390.358 -3.29193 -2.74463 0
M  V30 4290 H 394.542 -4.25431 -2.55583 0
M  V30 4291 H 389.798 -5.65028 -2.33566 0
M  V30 4292 H 393.972 -6.62139 -2.15743 0
M  V30 4293 H 391.599 -7.32256 -2.04219 0
M  V30 4294 N 393.175 1.03435 -1.18907 0
M  V30 4295 C 394.405 1.8012 -1.01195 0
M  V30 4296 C 394.813 1.8395 0.442613 0
M  V30 4297 O 394.156 1.27836 1.31923 0
M  V30 4298 C 394.218 3.26792 -1.49823 0
M  V30 4299 C 393.882 3.46609 -2.97844 0
M  V30 4300 C 394.879 3.37278 -3.95651 0
M  V30 4301 C 392.564 3.73001 -3.36416 0
M  V30 4302 C 394.558 3.54054 -5.30023 0
M  V30 4303 C 392.245 3.89423 -4.70949 0
M  V30 4304 C 393.243 3.79951 -5.67562 0
M  V30 4305 O 392.931 3.95895 -6.99659 0
M  V30 4306 H 392.663 0.573865 -0.357289 0
M  V30 4307 H 395.217 1.31207 -1.58031 0
M  V30 4308 H 393.447 3.76703 -0.873578 0
M  V30 4309 H 395.136 3.85055 -1.28404 0
M  V30 4310 H 395.902 3.16846 -3.67197 0
M  V30 4311 H 391.781 3.79469 -2.61772 0
M  V30 4312 H 395.325 3.46577 -6.05417 0
M  V30 4313 H 391.222 4.09351 -4.99101 0
M  V30 4314 H 391.99 4.13019 -7.06653 0
M  V30 4315 N 394.653 0.992116 1.22453 0
M  V30 4316 C 395.901 0.666215 1.90804 0
M  V30 4317 C 396.222 -0.804152 1.77647 0
M  V30 4318 O 395.492 -1.57629 1.16318 0
M  V30 4319 H 394.072 0.243423 0.706225 0
M  V30 4320 H 396.734 1.25845 1.48825 0
M  V30 4321 H 395.83 0.928069 2.97982 0
M  V30 4322 N 396.131 -1.37776 0.765217 0
M  V30 4323 C 397.078 -2.30342 0.145274 0
M  V30 4324 C 398.048 -1.5077 -0.696971 0
M  V30 4325 O 399.233 -1.79362 -0.650689 0
M  V30 4326 C 396.373 -3.37227 -0.732939 0
M  V30 4327 C 395.486 -4.31819 0.125199 0
M  V30 4328 C 394.621 -5.25777 -0.757107 0
M  V30 4329 C 393.66 -6.12012 0.103963 0
M  V30 4330 N 392.797 -6.98232 -0.735953 0
M  V30 4331 H 397.637 -2.8278 0.940195 0
M  V30 4332 H 395.174 -1.39211 0.475255 0
M  V30 4333 H 397.132 -3.97818 -1.25686 0
M  V30 4334 H 395.762 -2.86171 -1.49353 0
M  V30 4335 H 394.814 -3.7259 0.766865 0
M  V30 4336 H 396.126 -4.92509 0.789683 0
M  V30 4337 H 395.28 -5.91541 -1.34776 0
M  V30 4338 H 394.019 -4.65481 -1.45529 0
M  V30 4339 H 393.024 -5.45233 0.707197 0
M  V30 4340 H 394.249 -6.74379 0.799381 0
M  V30 4341 H 392.195 -6.40472 -1.41887 0
M  V30 4342 H 392.112 -7.55891 -0.128624 0
M  V30 4343 H 393.38 -7.68393 -1.31121 0
M  V30 4344 N 397.609 -0.515225 -1.4894 0
M  V30 4345 C 398.834 0.022727 -2.07388 0
M  V30 4346 C 399.259 1.2876 -1.37122 0
M  V30 4347 O 398.617 1.76067 -0.432431 0
M  V30 4348 C 398.665 0.244869 -3.59768 0
M  V30 4349 O 397.769 1.31667 -3.90817 0
M  V30 4350 H 397.11 -0.0325506 -0.663202 0
M  V30 4351 H 399.64 -0.718918 -1.91553 0
M  V30 4352 H 399.65 0.47205 -4.0526 0
M  V30 4353 H 398.325 -0.679194 -4.10317 0
M  V30 4354 H 396.902 1.07331 -3.5712 0
M  V30 4355 N 399.087 1.5561 -0.249682 0
M  V30 4356 C 400.317 2.03116 0.377803 0
M  V30 4357 C 400.725 1.12822 1.51881 0
M  V30 4358 O 400.068 0.13562 1.83199 0
M  V30 4359 C 400.13 3.46866 0.944693 0
M  V30 4360 C 399.794 4.56955 -0.0644259 0
M  V30 4361 C 400.791 5.12485 -0.874957 0
M  V30 4362 C 398.476 5.01936 -0.19132 0
M  V30 4363 C 400.47 6.11491 -1.79881 0
M  V30 4364 C 398.157 6.00773 -1.11868 0
M  V30 4365 C 399.155 6.5543 -1.92095 0
M  V30 4366 O 398.843 7.5234 -2.83267 0
M  V30 4367 H 398.575 0.669489 0.0935961 0
M  V30 4368 H 401.129 2.02004 -0.371966 0
M  V30 4369 H 399.359 3.45136 1.74407 0
M  V30 4370 H 401.048 3.77856 1.48255 0
M  V30 4371 H 401.814 4.78564 -0.787523 0
M  V30 4372 H 397.693 4.59055 0.423072 0
M  V30 4373 H 401.237 6.54078 -2.42543 0
M  V30 4374 H 397.134 6.34114 -1.20703 0
M  V30 4375 H 397.902 7.69966 -2.7766 0
M  V30 4376 N 400.565 -0.0233959 1.57583 0
M  V30 4377 C 401.795 -0.723631 1.93513 0
M  V30 4378 C 402.203 -1.69115 0.848333 0
M  V30 4379 O 401.546 -1.82781 -0.183484 0
M  V30 4380 C 401.608 -1.53075 3.25282 0
M  V30 4381 C 401.272 -0.727388 4.51174 0
M  V30 4382 C 402.269 -0.0251924 5.19894 0
M  V30 4383 C 399.954 -0.680256 4.97672 0
M  V30 4384 C 401.948 0.713374 6.33395 0
M  V30 4385 C 399.635 0.0620523 6.11068 0
M  V30 4386 C 400.633 0.757622 6.78785 0
M  V30 4387 O 400.321 1.48787 7.90011 0
M  V30 4388 H 400.053 -0.208051 0.643188 0
M  V30 4389 H 402.607 0.0167489 2.05393 0
M  V30 4390 H 400.837 -2.31508 3.09744 0
M  V30 4391 H 402.526 -2.11413 3.46496 0
M  V30 4392 H 403.292 -0.0526003 4.84971 0
M  V30 4393 H 399.171 -1.21116 4.44805 0
M  V30 4394 H 402.715 1.25683 6.86185 0
M  V30 4395 H 398.612 0.0913634 6.45435 0
M  V30 4396 H 399.38 1.40213 8.06401 0
M  V30 4397 N 402.043 -1.548 -0.295768 0
M  V30 4398 C 402.993 -1.82497 -1.3667 0
M  V30 4399 C 403.977 -0.682434 -1.45711 0
M  V30 4400 O 405.169 -0.943207 -1.49775 0
M  V30 4401 C 402.298 -2.08036 -2.73086 0
M  V30 4402 C 401.384 -3.28488 -2.68247 0
M  V30 4403 N 401.775 -4.48924 -2.33025 0
M  V30 4404 C 400.073 -3.3062 -2.99343 0
M  V30 4405 C 400.774 -5.30956 -2.37613 0
M  V30 4406 N 399.75 -4.68805 -2.75178 0
M  V30 4407 H 403.552 -2.73175 -1.0841 0
M  V30 4408 H 401.066 -1.5437 -0.504361 0
M  V30 4409 H 403.063 -2.26027 -3.5031 0
M  V30 4410 H 401.723 -1.18629 -3.02254 0
M  V30 4411 H 402.734 -4.75432 -2.05389 0
M  V30 4412 H 399.411 -2.51336 -3.33371 0
M  V30 4413 H 400.801 -6.37199 -2.13135 0
M  V30 4414 N 403.521 0.559213 -1.47345 0
M  V30 4415 C 404.767 1.31843 -1.54095 0
M  V30 4416 C 405.1 1.93149 -0.201726 0
M  V30 4417 O 404.375 1.77759 0.789428 0
M  V30 4418 C 404.658 2.43006 -2.65744 0
M  V30 4419 C 404.511 1.86581 -4.09277 0
M  V30 4420 C 405.83 3.44943 -2.73318 0
M  V30 4421 H 402.949 0.478012 -0.560957 0
M  V30 4422 H 405.591 0.625977 -1.79392 0
M  V30 4423 H 403.741 3.02072 -2.44305 0
M  V30 4424 H 405.413 1.31792 -4.42073 0
M  V30 4425 H 403.656 1.17268 -4.17649 0
M  V30 4426 H 404.327 2.66933 -4.83168 0
M  V30 4427 H 406.803 2.95793 -2.92653 0
M  V30 4428 H 405.679 4.20153 -3.53218 0
M  V30 4429 H 405.94 4.03665 -1.80296 0
M  V30 4430 N 404.999 1.35443 0.805782 0
M  V30 4431 C 406.229 1.31687 1.59192 0
M  V30 4432 C 406.637 -0.10756 1.88894 0
M  V30 4433 O 405.98 -1.07017 1.49309 0
M  V30 4434 C 406.042 2.05686 2.94845 0
M  V30 4435 C 405.706 3.54868 2.87954 0
M  V30 4436 C 406.703 4.49444 2.61335 0
M  V30 4437 C 404.388 3.97528 3.07046 0
M  V30 4438 C 406.382 5.84655 2.53885 0
M  V30 4439 C 404.069 5.32833 2.99219 0
M  V30 4440 C 405.067 6.26209 2.72674 0
M  V30 4441 O 404.755 7.59032 2.64811 0
M  V30 4442 H 404.487 0.453878 0.50097 0
M  V30 4443 H 407.041 1.78892 1.0093 0
M  V30 4444 H 405.271 1.5312 3.55093 0
M  V30 4445 H 406.96 1.94998 3.55993 0
M  V30 4446 H 407.726 4.17804 2.46303 0
M  V30 4447 H 403.605 3.25233 3.26718 0
M  V30 4448 H 407.149 6.57508 2.33086 0
M  V30 4449 H 403.046 5.64087 3.13809 0
M  V30 4450 H 403.814 7.68967 2.80413 0
M  V30 4451 N 406.477 -1.02803 1.19454 0
M  V30 4452 C 407.424 -2.11099 0.933046 0
M  V30 4453 C 408.394 -1.65571 -0.132447 0
M  V30 4454 O 409.579 -1.90797 0.00987576 0
M  V30 4455 C 406.719 -3.41763 0.478747 0
M  V30 4456 C 405.832 -4.00833 1.6111 0
M  V30 4457 C 404.967 -5.19511 1.10825 0
M  V30 4458 C 404.006 -5.70639 2.21445 0
M  V30 4459 N 403.143 -6.80589 1.72461 0
M  V30 4460 H 407.983 -2.32804 1.86028 0
M  V30 4461 H 405.52 -1.14179 0.927441 0
M  V30 4462 H 407.478 -4.16736 0.196745 0
M  V30 4463 H 406.108 -3.20166 -0.411493 0
M  V30 4464 H 405.16 -3.23066 2.00829 0
M  V30 4465 H 406.472 -4.34794 2.4445 0
M  V30 4466 H 405.626 -6.01645 0.781533 0
M  V30 4467 H 404.365 -4.87086 0.244606 0
M  V30 4468 H 403.37 -4.87116 2.54947 0
M  V30 4469 H 404.595 -6.05102 3.08267 0
M  V30 4470 H 402.541 -6.50016 0.884056 0
M  V30 4471 H 402.458 -7.13681 2.49389 0
M  V30 4472 H 403.726 -7.66317 1.42755 0
M  V30 4473 N 407.956 -0.998596 -1.21925 0
M  V30 4474 C 408.886 -0.573688 -2.26343 0
M  V30 4475 C 409.867 0.402296 -1.65274 0
M  V30 4476 O 411.052 0.291683 -1.91997 0
M  V30 4477 C 408.182 0.106839 -3.47136 0
M  V30 4478 C 407.136 -0.788269 -4.20678 0
M  V30 4479 C 406.462 0.0254927 -5.34694 0
M  V30 4480 C 407.762 -2.08784 -4.78755 0
M  V30 4481 H 409.456 -1.44651 -2.62138 0
M  V30 4482 H 407.002 -0.696975 -1.26009 0
M  V30 4483 H 408.955 0.415531 -4.19346 0
M  V30 4484 H 407.679 1.01424 -3.10452 0
M  V30 4485 H 406.338 -1.08069 -3.50309 0
M  V30 4486 H 405.986 0.933989 -4.94253 0
M  V30 4487 H 405.686 -0.570437 -5.84825 0
M  V30 4488 H 407.21 0.328147 -6.09718 0
M  V30 4489 H 408.624 -1.84272 -5.42878 0
M  V30 4490 H 407.021 -2.63307 -5.39249 0
M  V30 4491 H 408.091 -2.76284 -3.98491 0
M  V30 4492 N 409.434 1.37368 -0.772513 0
M  V30 4493 C 410.662 2.03942 -0.348588 0
M  V30 4494 C 411.077 1.58264 1.02947 0
M  V30 4495 O 410.434 0.764246 1.65727 0
M  V30 4496 C 410.485 3.5946 -0.38351 0
M  V30 4497 O 410.206 4.03468 -1.70721 0
M  V30 4498 C 411.707 4.4327 0.0519152 0
M  V30 4499 H 408.927 0.654931 -0.145966 0
M  V30 4500 H 411.471 1.75686 -1.04665 0
M  V30 4501 H 409.626 3.86486 0.265978 0
M  V30 4502 H 410.04 4.97991 -1.64636 0
M  V30 4503 H 411.514 5.51995 -0.0236733 0
M  V30 4504 H 411.991 4.2514 1.10238 0
M  V30 4505 H 412.597 4.21471 -0.569415 0
M  V30 4506 N 410.912 0.523116 1.48665 0
M  V30 4507 C 411.842 -0.23231 2.32342 0
M  V30 4508 C 412.823 -0.941637 1.41659 0
M  V30 4509 O 414.008 -0.928751 1.70552 0
M  V30 4510 C 411.138 -1.28387 3.22698 0
M  V30 4511 C 410.092 -0.693098 4.22351 0
M  V30 4512 C 409.418 -1.8468 5.01794 0
M  V30 4513 C 410.718 0.33063 5.21252 0
M  V30 4514 H 412.412 0.466192 2.95748 0
M  V30 4515 H 409.958 0.225643 1.42221 0
M  V30 4516 H 411.911 -1.82024 3.80059 0
M  V30 4517 H 410.635 -2.01186 2.57278 0
M  V30 4518 H 409.294 -0.178299 3.66166 0
M  V30 4519 H 408.942 -2.56301 4.32804 0
M  V30 4520 H 408.642 -1.45747 5.69238 0
M  V30 4521 H 410.166 -2.38709 5.62006 0
M  V30 4522 H 411.58 -0.118407 5.73178 0
M  V30 4523 H 409.977 0.636974 5.9671 0
M  V30 4524 H 411.047 1.23883 4.68808 0
M  V30 4525 N 412.39 -1.55475 0.257931 0
M  V30 4526 C 413.63 -2.01112 -0.365129 0
M  V30 4527 C 413.994 -1.1423 -1.54323 0
M  V30 4528 O 415.195 -1.49371 -2.23477 0
M  V30 4529 C 413.466 -3.49353 -0.754117 0
M  V30 4530 S 415.025 -4.16992 -1.36614 0
M  V30 4531 H 411.843 -0.701737 -0.114397 0
M  V30 4532 H 414.445 -1.91855 0.375747 0
M  V30 4533 H 413.149 -4.10246 0.112441 0
M  V30 4534 H 412.68 -3.6256 -1.52689 0
M  V30 4535 H 414.695 -4.19191 -2.65505 0
M  V30 4536 N 413.868 0.0150385 -1.57593 0
M  V30 4537 C 414.798 1.01047 -2.10503 0
M  V30 4538 C 415.779 1.36816 -1.01071 0
M  V30 4539 O 416.964 1.45455 -1.28672 0
M  V30 4540 C 414.094 2.30708 -2.59598 0
M  V30 4541 C 413.048 2.09142 -3.73421 0
M  V30 4542 C 412.374 3.44685 -4.08774 0
M  V30 4543 C 413.674 1.46619 -5.01298 0
M  V30 4544 H 415.368 0.569978 -2.93925 0
M  V30 4545 H 412.914 0.272724 -1.41394 0
M  V30 4546 H 414.867 3.00687 -2.95238 0
M  V30 4547 H 413.591 2.76843 -1.73279 0
M  V30 4548 H 412.25 1.41592 -3.38153 0
M  V30 4549 H 411.898 3.88495 -3.195 0
M  V30 4550 H 411.598 3.31077 -4.8545 0
M  V30 4551 H 413.122 4.16004 -4.4696 0
M  V30 4552 H 414.536 2.06535 -5.34805 0
M  V30 4553 H 412.933 1.43544 -5.82679 0
M  V30 4554 H 414.003 0.433611 -4.82957 0
M  V30 4555 N 415.346 1.54954 0.287554 0
M  V30 4556 C 416.571 1.79209 1.04397 0
M  V30 4557 C 416.996 0.556431 1.79682 0
M  V30 4558 O 416.354 -0.493518 1.74454 0
M  V30 4559 C 416.402 3.00739 1.98969 0
M  V30 4560 O 415.506 2.74805 3.075 0
M  V30 4561 H 414.847 0.592755 0.299227 0
M  V30 4562 H 417.377 2.02068 0.320886 0
M  V30 4563 H 417.387 3.29077 2.4119 0
M  V30 4564 H 416.062 3.90329 1.43582 0
M  V30 4565 H 414.639 2.57523 2.69697 0
M  V30 4566 N 416.824 -0.551391 1.4764 0
M  V30 4567 C 418.064 -1.31901 1.56145 0
M  V30 4568 C 418.428 -1.90724 0.221013 0
M  V30 4569 O 419.629 -2.6819 0.180945 0
M  V30 4570 C 417.9 -2.39517 2.65267 0
M  V30 4571 S 419.459 -3.26289 2.93395 0
M  V30 4572 H 416.277 -0.448965 0.551318 0
M  V30 4573 H 418.879 -0.630599 1.85051 0
M  V30 4574 H 417.583 -1.94747 3.6125 0
M  V30 4575 H 417.114 -3.13092 2.38195 0
M  V30 4576 H 419.129 -4.39122 2.31055 0
M  V30 4577 N 418.302 -1.35869 -0.798587 0
M  V30 4578 C 419.232 -1.32118 -1.92528 0
M  V30 4579 C 420.213 -0.194209 -1.68988 0
M  V30 4580 O 421.398 -0.390426 -1.90235 0
M  V30 4581 C 418.528 -1.10047 -3.29404 0
M  V30 4582 C 417.482 -2.19471 -3.67446 0
M  V30 4583 C 416.808 -1.82555 -5.02571 0
M  V30 4584 C 418.108 -3.61495 -3.76987 0
M  V30 4585 H 419.802 -2.26394 -1.95924 0
M  V30 4586 H 417.348 -1.08981 -0.94123 0
M  V30 4587 H 419.301 -1.06061 -4.07835 0
M  V30 4588 H 418.025 -0.122195 -3.26371 0
M  V30 4589 H 416.684 -2.22568 -2.91306 0
M  V30 4590 H 416.332 -0.833249 -4.9605 0
M  V30 4591 H 416.032 -2.5581 -5.28995 0
M  V30 4592 H 417.556 -1.80108 -5.83432 0
M  V30 4593 H 418.97 -3.60676 -4.4563 0
M  V30 4594 H 417.367 -4.33577 -4.14887 0
M  V30 4595 H 418.437 -3.97065 -2.78329 0
M  V30 4596 N 419.78 1.02168 -1.19998 0
M  V30 4597 C 420.728 2.12717 -0.940967 0
M  V30 4598 C 421.722 1.69069 0.105841 0
M  V30 4599 O 422.928 1.79946 -0.0440583 0
M  V30 4600 H 419.303 0.695108 -0.28693 0
M  V30 4601 H 421.274 2.3175 -1.87975 0
M  V30 4602 C 420.023 3.44027 -0.504049 0
M  V30 4603 H 419.346 3.78036 -1.30112 0
M  V30 4604 H 420.786 4.22452 -0.361991 0
M  V30 4605 C 419.245 3.27678 0.782878 0
M  V30 4606 O 419.775 3.56949 1.84256 0
M  V30 4607 N 417.981 2.80943 0.742921 0
M  V30 4608 H 417.528 2.57322 -0.119687 0
M  V30 4609 H 417.486 2.70385 1.60435 0
M  V30 4610 N 421.258 1.00505 1.21394 0
M  V30 4611 C 422.206 0.558623 2.25792 0
M  V30 4612 C 423.2 -0.396848 1.64686 0
M  V30 4613 O 424.406 -0.268035 1.77993 0
M  V30 4614 H 420.781 0.1623 0.734277 0
M  V30 4615 H 422.752 1.4503 2.60785 0
M  V30 4616 C 421.501 -0.0989574 3.47559 0
M  V30 4617 H 420.824 0.627225 3.94849 0
M  V30 4618 H 422.264 -0.3746 4.22342 0
M  V30 4619 C 420.723 -1.33817 3.09184 0
M  V30 4620 O 421.253 -2.43252 3.19674 0
M  V30 4621 N 419.459 -1.21793 2.63846 0
M  V30 4622 H 419.006 -0.32746 2.5551 0
M  V30 4623 H 418.964 -2.04809 2.38539 0
M  V30 4624 N 422.737 -1.36956 0.779787 0
M  V30 4625 C 423.977 -2.01328 0.353043 0
M  V30 4626 C 424.341 -1.60558 -1.05286 0
M  V30 4627 O 425.542 -2.1745 -1.58016 0
M  V30 4628 C 423.813 -3.53874 0.500822 0
M  V30 4629 S 425.372 -4.38506 0.16053 0
M  V30 4630 H 422.19 -0.69799 0.13539 0
M  V30 4631 H 424.792 -1.67016 1.01617 0
M  V30 4632 H 423.496 -3.81034 1.52451 0
M  V30 4633 H 423.027 -3.92994 -0.178574 0
M  V30 4634 H 425.042 -4.85153 -1.04121 0
M  V30 4635 N 424.215 -0.530993 -1.48385 0
M  V30 4636 C 425.145 0.219985 -2.32461 0
M  V30 4637 C 426.126 0.934111 -1.42156 0
M  V30 4638 O 427.311 0.919694 -1.71042 0
M  V30 4639 C 424.441 1.26674 -3.23375 0
M  V30 4640 C 423.395 0.67069 -4.22712 0
M  V30 4641 C 422.721 1.82017 -5.02766 0
M  V30 4642 C 424.021 -0.358268 -5.2107 0
M  V30 4643 H 425.715 -0.48187 -2.95497 0
M  V30 4644 H 423.261 -0.233182 -1.42099 0
M  V30 4645 H 425.214 1.80006 -3.81019 0
M  V30 4646 H 423.938 1.99818 -2.58341 0
M  V30 4647 H 422.597 0.158878 -3.66256 0
M  V30 4648 H 422.245 2.54002 -4.34157 0
M  V30 4649 H 421.945 1.42727 -5.70003 0
M  V30 4650 H 423.469 2.35725 -5.63264 0
M  V30 4651 H 424.883 0.0880081 -5.73232 0
M  V30 4652 H 423.28 -0.66861 -5.96364 0
M  V30 4653 H 424.35 -1.26367 -4.68145 0
M  V30 4654 N 425.693 1.55336 -0.266172 0
M  V30 4655 C 426.97 1.91372 0.404486 0
M  V30 4656 C 427.35 1.18935 1.74407 0
M  V30 4657 O 426.698 0.3132 2.26343 0
M  V30 4658 C 426.908 3.44581 0.553593 0
M  V30 4659 C 428.256 4.16196 0.840618 0
M  V30 4660 O 429.28 3.50426 0.638739 0
M  V30 4661 O 428.139 5.32567 1.22618 0
M  V30 4662 H 425.233 0.797194 0.220025 0
M  V30 4663 H 427.779 1.66813 -0.311664 0
M  V30 4664 H 426.551 3.89357 -0.389498 0
M  V30 4665 H 426.174 3.75065 1.31955 0
M  V30 4666 N 427.171 -0.0066808 1.57599 0
M  V30 4667 C 428.582 -0.550379 1.78403 0
M  V30 4668 C 428.933 -1.74339 0.900014 0
M  V30 4669 O 428.058 -2.16166 0.100713 0
M  V30 4670 C 428.653 -1.00523 3.23544 0
M  V30 4671 C 427.212 -1.49428 3.45468 0
M  V30 4672 C 426.359 -0.442444 2.73748 0
M  V30 4673 H 429.31 0.219508 1.57175 0
M  V30 4674 H 429.331 -1.87157 3.31289 0
M  V30 4675 H 428.843 -0.136735 3.87859 0
M  V30 4676 H 426.944 -2.3839 2.86358 0
M  V30 4677 H 427.057 -1.52635 4.54136 0
M  V30 4678 H 425.421 -0.902578 2.38171 0
M  V30 4679 H 426.204 0.416973 3.40758 0
M  V30 4680 N 428.649 -1.55105 -0.279332 0
M  V30 4681 C 429.896 -1.75412 -1.01177 0
M  V30 4682 C 430.224 -0.551728 -1.86511 0
M  V30 4683 O 429.479 0.465919 -1.90073 0
M  V30 4684 C 429.778 -3.0086 -1.92919 0
M  V30 4685 C 429.444 -4.33689 -1.23387 0
M  V30 4686 C 428.106 -4.69792 -1.04159 0
M  V30 4687 C 430.458 -5.15941 -0.738562 0
M  V30 4688 C 427.786 -5.85707 -0.341166 0
M  V30 4689 C 430.138 -6.32579 -0.0517636 0
M  V30 4690 C 428.802 -6.67326 0.152292 0
M  V30 4691 H 428.072 -0.641879 -0.370233 0
M  V30 4692 H 430.719 -1.89373 -0.284627 0
M  V30 4693 H 429.024 -2.81773 -2.72234 0
M  V30 4694 H 430.721 -3.13768 -2.49701 0
M  V30 4695 H 427.311 -4.05309 -1.39364 0
M  V30 4696 H 431.495 -4.8853 -0.874764 0
M  V30 4697 H 426.751 -6.11157 -0.172287 0
M  V30 4698 H 430.925 -6.9557 0.339828 0
M  V30 4699 H 428.552 -7.56998 0.697014 0
M  V30 4700 N 430.127 0.543554 -1.4793 0
M  V30 4701 C 431.373 1.30201 -1.55485 0
M  V30 4702 C 431.706 1.92925 -0.222201 0
M  V30 4703 O 430.981 1.78586 0.77053 0
M  V30 4704 C 431.264 2.40174 -2.68307 0
M  V30 4705 C 431.117 1.8223 -4.11233 0
M  V30 4706 C 432.436 3.42024 -2.76961 0
M  V30 4707 H 429.555 0.472036 -0.565996 0
M  V30 4708 H 432.197 0.606914 -1.80046 0
M  V30 4709 H 430.347 2.99463 -2.47495 0
M  V30 4710 H 432.019 1.27096 -4.43446 0
M  V30 4711 H 430.262 1.12832 -4.18869 0
M  V30 4712 H 430.933 2.61793 -4.85972 0
M  V30 4713 H 433.409 2.92672 -2.95774 0
M  V30 4714 H 432.285 4.16383 -3.57654 0
M  V30 4715 H 432.546 4.0173 -1.84568 0
M  V30 4716 N 431.605 1.3629 0.791371 0
M  V30 4717 C 432.835 1.33368 1.57786 0
M  V30 4718 C 433.243 -0.0875188 1.88997 0
M  V30 4719 O 432.586 -1.05427 1.50435 0
M  V30 4720 C 432.648 2.08802 2.92646 0
M  V30 4721 C 432.312 3.57903 2.84174 0
M  V30 4722 C 433.309 4.52191 2.56553 0
M  V30 4723 C 430.994 4.00762 3.02812 0
M  V30 4724 C 432.988 5.87315 2.47669 0
M  V30 4725 C 430.675 5.35977 2.93551 0
M  V30 4726 C 431.673 6.29066 2.66017 0
M  V30 4727 O 431.361 7.61798 2.56746 0
M  V30 4728 H 431.093 0.459166 0.496128 0
M  V30 4729 H 433.647 1.79952 0.990269 0
M  V30 4730 H 431.877 1.56878 3.53449 0
M  V30 4731 H 433.566 1.98762 3.53904 0
M  V30 4732 H 434.332 4.20393 2.41858 0
M  V30 4733 H 430.211 3.2868 3.2325 0
M  V30 4734 H 433.755 6.59943 2.26099 0
M  V30 4735 H 429.652 5.67384 3.07808 0
M  V30 4736 H 430.42 7.71898 2.72242 0
M  V30 4737 N 433.083 -1.0153 1.20538 0
M  V30 4738 C 434.313 -1.78487 1.04048 0
M  V30 4739 C 434.721 -1.84631 -0.413292 0
M  V30 4740 O 434.064 -1.29919 -1.29872 0
M  V30 4741 C 434.126 -3.24367 1.55003 0
M  V30 4742 C 433.79 -3.41827 3.0332 0
M  V30 4743 C 434.787 -3.30941 4.00966 0
M  V30 4744 C 432.472 -3.67602 3.42307 0
M  V30 4745 C 434.466 -3.45577 5.35589 0
M  V30 4746 C 432.153 -3.81881 4.77085 0
M  V30 4747 C 433.151 -3.70874 5.73534 0
M  V30 4748 O 432.839 -3.84714 7.05868 0
M  V30 4749 H 432.571 -0.568108 0.366373 0
M  V30 4750 H 435.125 -1.28677 1.60098 0
M  V30 4751 H 433.355 -3.75266 0.933397 0
M  V30 4752 H 435.044 -3.82963 1.34514 0
M  V30 4753 H 435.81 -3.10964 3.72191 0
M  V30 4754 H 431.689 -3.75256 2.67776 0
M  V30 4755 H 435.233 -3.36902 6.10854 0
M  V30 4756 H 431.13 -4.01359 5.0555 0
M  V30 4757 H 431.898 -4.01724 7.13134 0
M  V30 4758 N 434.561 -1.01147 -1.20859 0
M  V30 4759 C 435.808 -0.697865 -1.90095 0
M  V30 4760 C 436.136 0.772014 -1.78522 0
M  V30 4761 O 435.391 1.57595 -1.16027 0
M  V30 4762 C 435.69 -1.0727 -3.40922 0
M  V30 4763 C 435.356 -2.53792 -3.72693 0
M  V30 4764 C 434.018 -2.93829 -3.81075 0
M  V30 4765 C 436.37 -3.48674 -3.87397 0
M  V30 4766 C 433.698 -4.27696 -4.01613 0
M  V30 4767 C 436.05 -4.82223 -4.09444 0
M  V30 4768 C 434.714 -5.21973 -4.16054 0
M  V30 4769 H 433.984 -0.255367 -0.695607 0
M  V30 4770 H 436.631 -1.27111 -1.43231 0
M  V30 4771 H 434.936 -0.417799 -3.89566 0
M  V30 4772 H 436.633 -0.807818 -3.92779 0
M  V30 4773 H 433.223 -2.21768 -3.66765 0
M  V30 4774 H 437.407 -3.18904 -3.80281 0
M  V30 4775 H 432.663 -4.58055 -4.04964 0
M  V30 4776 H 436.837 -5.55672 -4.19763 0
M  V30 4777 H 434.464 -6.25717 -4.31721 0
M  V30 4778 N 436.039 1.36541 -0.78704 0
M  V30 4779 C 437.002 2.28413 -0.189778 0
M  V30 4780 C 438.002 1.48719 0.611499 0
M  V30 4781 O 439.192 1.68737 0.432842 0
M  V30 4782 C 436.324 3.32824 0.737638 0
M  V30 4783 H 437.517 2.82743 -0.999831 0
M  V30 4784 H 435.07 1.46065 -0.556298 0
M  V30 4785 H 435.805 2.83646 1.57212 0
M  V30 4786 H 435.59 3.91752 0.165044 0
M  V30 4787 H 437.08 4.0144 1.15047 0
M  V30 4788 N 437.518 0.538854 1.48102 0
M  V30 4789 C 438.743 0.0102694 2.07397 0
M  V30 4790 C 439.168 -1.26562 1.39153 0
M  V30 4791 O 438.526 -1.75357 0.460387 0
M  V30 4792 C 438.574 -0.187602 3.60112 0
M  V30 4793 O 437.678 -1.25432 3.92862 0
M  V30 4794 H 437.019 0.0430975 0.6626 0
M  V30 4795 H 439.549 0.749301 1.90385 0
M  V30 4796 H 439.559 -0.407517 4.0596 0
M  V30 4797 H 438.234 0.744386 4.09184 0
M  V30 4798 H 436.811 -1.01636 3.58782 0
M  V30 4799 N 438.996 -1.55193 0.274407 0
M  V30 4800 C 440.412 -1.59401 -0.0797543 0
M  V30 4801 C 440.612 -1.29162 -1.54659 0
M  V30 4802 O 439.668 -1.05215 -2.29534 0
M  V30 4803 C 440.981 -2.99257 0.294238 0
M  V30 4804 C 442.529 -3.12072 0.240796 0
M  V30 4805 C 443.004 -4.54194 0.589218 0
M  V30 4806 N 444.495 -4.60033 0.540744 0
M  V30 4807 C 445.23 -5.68027 0.783147 0
M  V30 4808 N 444.726 -6.8417 1.09013 0
M  V30 4809 N 446.519 -5.57572 0.711993 0
M  V30 4810 H 438.67 -1.73113 1.23067 0
M  V30 4811 H 440.933 -0.807197 0.497129 0
M  V30 4812 H 440.639 -3.26217 1.31435 0
M  V30 4813 H 440.513 -3.75427 -0.365281 0
M  V30 4814 H 442.9 -2.84877 -0.770024 0
M  V30 4815 H 442.981 -2.38117 0.934563 0
M  V30 4816 H 442.625 -4.82115 1.59772 0
M  V30 4817 H 442.555 -5.26448 -0.126331 0
M  V30 4818 H 445.046 -3.76599 0.313327 0
M  V30 4819 H 445.359 -7.6243 1.26178 0
M  V30 4820 H 443.704 -6.85787 1.12789 0
M  V30 4821 H 446.895 -4.65714 0.472014 0
M  V30 4822 H 447.068 -6.41659 0.90429 0
M  V30 4823 N 440.474 -0.00167713 -1.576 0
M  V30 4824 C 441.384 1.00548 -2.1196 0
M  V30 4825 C 442.4 1.3758 -1.06526 0
M  V30 4826 O 443.576 1.46278 -1.38436 0
M  V30 4827 C 440.641 2.27809 -2.6135 0
M  V30 4828 C 439.702 1.97074 -3.81393 0
M  V30 4829 C 438.935 3.18267 -4.28417 0
M  V30 4830 O 439.158 4.30009 -3.74765 0
M  V30 4831 O 438.092 3.02167 -5.20556 0
M  V30 4832 H 441.918 0.573373 -2.98238 0
M  V30 4833 H 439.503 0.217255 -1.47812 0
M  V30 4834 H 441.385 3.02568 -2.93309 0
M  V30 4835 H 440.06 2.70254 -1.78169 0
M  V30 4836 H 438.967 1.19785 -3.54404 0
M  V30 4837 H 440.3 1.59464 -4.65652 0
M  V30 4838 N 441.952 1.55251 0.271103 0
M  V30 4839 C 443.199 1.75946 1.00245 0
M  V30 4840 C 443.527 0.561611 1.86215 0
M  V30 4841 O 442.782 -0.455832 1.90317 0
M  V30 4842 C 443.081 3.01879 1.91321 0
M  V30 4843 C 442.747 4.34337 1.21086 0
M  V30 4844 C 441.409 4.70338 1.01666 0
M  V30 4845 C 443.761 5.16325 0.71119 0
M  V30 4846 C 441.089 5.8588 0.310099 0
M  V30 4847 C 443.441 6.32597 0.0182157 0
M  V30 4848 C 442.105 6.67236 -0.18768 0
M  V30 4849 H 441.375 0.643833 0.366824 0
M  V30 4850 H 444.022 1.89521 0.27458 0
M  V30 4851 H 442.327 2.83212 2.70736 0
M  V30 4852 H 444.024 3.15088 2.48033 0
M  V30 4853 H 440.614 4.06043 1.37213 0
M  V30 4854 H 444.798 4.88987 0.848844 0
M  V30 4855 H 440.054 6.1124 0.139873 0
M  V30 4856 H 444.228 6.9538 -0.376711 0
M  V30 4857 H 441.855 7.56618 -0.73715 0
M  V30 4858 N 443.43 -0.535701 1.48216 0
M  V30 4859 C 444.362 -1.65662 1.58394 0
M  V30 4860 C 445.375 -1.5591 0.468607 0
M  V30 4861 O 446.564 -1.62475 0.7392 0
M  V30 4862 C 443.664 -3.04276 1.4923 0
M  V30 4863 C 442.837 -3.39567 2.75705 0
M  V30 4864 C 441.896 -4.57436 2.60075 0
M  V30 4865 O 440.922 -4.60942 3.33948 0
M  V30 4866 N 442.124 -5.55259 1.69315 0
M  V30 4867 H 444.889 -1.5737 2.55058 0
M  V30 4868 H 442.45 -0.722845 1.44867 0
M  V30 4869 H 444.442 -3.80994 1.36477 0
M  V30 4870 H 443.012 -3.06677 0.605632 0
M  V30 4871 H 442.232 -2.52083 3.03064 0
M  V30 4872 H 443.52 -3.59929 3.59623 0
M  V30 4873 H 442.918 -5.552 1.08489 0
M  V30 4874 H 441.475 -6.31218 1.62504 0
M  V30 4875 N 444.908 -1.36708 -0.784132 0
M  V30 4876 C 445.838 -1.34153 -1.91116 0
M  V30 4877 C 446.819 -0.212121 -1.68772 0
M  V30 4878 O 448.004 -0.410581 -1.8981 0
M  V30 4879 C 445.134 -1.13535 -3.28218 0
M  V30 4880 C 444.088 -2.23356 -3.65097 0
M  V30 4881 C 443.414 -1.87875 -5.00607 0
M  V30 4882 C 444.714 -3.65473 -3.73131 0
M  V30 4883 H 446.408 -2.28459 -1.93512 0
M  V30 4884 H 443.954 -1.09973 -0.929618 0
M  V30 4885 H 445.907 -1.10381 -4.06687 0
M  V30 4886 H 444.631 -0.156804 -3.26223 0
M  V30 4887 H 443.29 -2.25645 -2.88929 0
M  V30 4888 H 442.938 -0.885814 -4.95139 0
M  V30 4889 H 442.638 -2.61406 -5.26252 0
M  V30 4890 H 444.162 -1.86286 -5.81489 0
M  V30 4891 H 445.576 -3.65382 -4.41779 0
M  V30 4892 H 443.973 -4.37953 -4.10265 0
M  V30 4893 H 445.043 -3.99995 -2.74102 0
M  V30 4894 N 446.386 1.0089 -1.21074 0
M  V30 4895 C 447.802 1.2695 -0.967257 0
M  V30 4896 C 448.002 1.9846 0.348673 0
M  V30 4897 O 447.058 2.28459 1.0753 0
M  V30 4898 C 448.371 2.09697 -2.15517 0
M  V30 4899 C 449.919 2.22937 -2.197 0
M  V30 4900 C 450.394 3.09064 -3.37999 0
M  V30 4901 N 451.885 3.16653 -3.38061 0
M  V30 4902 C 452.62 3.8354 -4.26245 0
M  V30 4903 N 452.116 4.52488 -5.2462 0
M  V30 4904 N 453.909 3.80141 -4.14064 0
M  V30 4905 H 446.06 0.529005 -2.05707 0
M  V30 4906 H 448.323 0.296148 -0.900556 0
M  V30 4907 H 448.029 1.64497 -3.10859 0
M  V30 4908 H 447.903 3.10444 -2.14253 0
M  V30 4909 H 450.29 2.67357 -1.24916 0
M  V30 4910 H 450.371 1.21673 -2.2501 0
M  V30 4911 H 450.015 2.65347 -4.33074 0
M  V30 4912 H 449.945 4.10433 -3.29928 0
M  V30 4913 H 452.436 2.67566 -2.66865 0
M  V30 4914 H 452.749 5.01219 -5.88217 0
M  V30 4915 H 451.094 4.51288 -5.28549 0
M  V30 4916 H 454.285 3.25427 -3.36474 0
M  V30 4917 H 454.458 4.31992 -4.82998 0
M  V30 4918 N 447.864 1.01787 1.20321 0
M  V30 4919 C 448.794 0.609625 2.25401 0
M  V30 4920 C 449.775 -0.375951 1.65893 0
M  V30 4921 O 450.96 -0.261101 1.92437 0
M  V30 4922 C 448.09 -0.0515995 3.47262 0
M  V30 4923 C 447.044 0.855095 4.19371 0
M  V30 4924 C 446.37 0.0595757 5.34667 0
M  V30 4925 C 447.67 2.16374 4.75373 0
M  V30 4926 H 449.364 1.48803 2.59804 0
M  V30 4927 H 446.91 0.716934 1.24884 0
M  V30 4928 H 448.863 -0.348764 4.19954 0
M  V30 4929 H 447.587 -0.964726 3.12027 0
M  V30 4930 H 446.246 1.13628 3.48546 0
M  V30 4931 H 445.894 -0.85524 4.95676 0
M  V30 4932 H 445.594 0.663406 5.83843 0
M  V30 4933 H 447.118 -0.231105 6.10162 0
M  V30 4934 H 448.532 1.92885 5.39878 0
M  V30 4935 H 446.929 2.71853 5.34991 0
M  V30 4936 H 447.999 2.82589 3.94045 0
M  V30 4937 N 449.342 -1.36122 0.79427 0
M  V30 4938 C 450.758 -1.5232 0.476525 0
M  V30 4939 C 450.958 -1.74685 -1.00436 0
M  V30 4940 O 450.014 -1.78115 -1.78973 0
M  V30 4941 C 451.327 -2.70607 1.31119 0
M  V30 4942 C 452.875 -2.8448 1.30537 0
M  V30 4943 C 453.35 -4.05778 2.12387 0
M  V30 4944 N 454.841 -4.12933 2.09859 0
M  V30 4945 C 455.576 -5.05876 2.69957 0
M  V30 4946 N 455.072 -6.04232 3.38934 0
M  V30 4947 N 456.865 -4.98528 2.59665 0
M  V30 4948 H 449.016 -1.1986 1.75349 0
M  V30 4949 H 451.279 -0.585418 0.745647 0
M  V30 4950 H 450.985 -2.60619 2.36158 0
M  V30 4951 H 450.859 -3.64888 0.955843 0
M  V30 4952 H 453.246 -2.93927 0.262876 0
M  V30 4953 H 453.327 -1.91093 1.70051 0
M  V30 4954 H 452.971 -3.97092 3.1667 0
M  V30 4955 H 452.901 -4.98323 1.70242 0
M  V30 4956 H 455.392 -3.42515 1.59662 0
M  V30 4957 H 455.705 -6.71724 3.82109 0
M  V30 4958 H 454.05 -6.04443 3.43036 0
M  V30 4959 H 457.241 -4.20641 2.05375 0
M  V30 4960 H 457.414 -5.70773 3.06793 0
M  V30 4961 N 450.82 -0.546701 -1.47814 0
M  V30 4962 C 451.73 0.21026 -2.33656 0
M  V30 4963 C 452.746 0.922413 -1.47538 0
M  V30 4964 O 453.922 0.893652 -1.80488 0
M  V30 4965 C 450.987 1.23348 -3.24016 0
M  V30 4966 C 450.048 0.529883 -4.26017 0
M  V30 4967 C 449.281 1.50435 -5.12059 0
M  V30 4968 O 449.504 2.73837 -5.00369 0
M  V30 4969 O 448.438 1.03459 -5.92942 0
M  V30 4970 H 452.264 -0.493605 -2.99662 0
M  V30 4971 H 449.849 -0.307427 -1.46203 0
M  V30 4972 H 451.731 1.82438 -3.79861 0
M  V30 4973 H 450.406 1.91945 -2.60651 0
M  V30 4974 H 449.313 -0.101948 -3.73961 0
M  V30 4975 H 450.646 -0.11445 -4.92067 0
M  V30 4976 N 452.299 1.55045 -0.282633 0
M  V30 4977 C 453.529 2.03872 0.334635 0
M  V30 4978 C 453.937 1.16018 1.49454 0
M  V30 4979 O 453.28 0.174449 1.8287 0
M  V30 4980 C 453.342 3.48791 0.870905 0
M  V30 4981 C 453.006 4.56715 -0.161338 0
M  V30 4982 C 454.003 5.10513 -0.983466 0
M  V30 4983 C 451.688 5.01417 -0.297745 0
M  V30 4984 C 453.682 6.07538 -1.92811 0
M  V30 4985 C 451.369 5.98265 -1.24586 0
M  V30 4986 C 452.367 6.51208 -2.05954 0
M  V30 4987 O 452.055 7.46162 -2.99162 0
M  V30 4988 H 451.787 0.671324 0.0793742 0
M  V30 4989 H 454.341 2.01169 -0.41473 0
M  V30 4990 H 452.571 3.48758 1.67047 0
M  V30 4991 H 454.26 3.80916 1.40207 0
M  V30 4992 H 455.026 4.76785 -0.888856 0
M  V30 4993 H 450.905 4.59849 0.325604 0
M  V30 4994 H 454.449 6.48787 -2.56363 0
M  V30 4995 H 450.346 6.31412 -1.34126 0
M  V30 4996 H 451.114 7.63903 -2.93929 0
M  V30 4997 N 453.777 0.010035 1.57597 0
M  V30 4998 C 454.707 -0.976857 2.12084 0
M  V30 4999 C 455.688 -1.35191 1.03235 0
M  V30 5000 O 456.873 -1.43389 1.3097 0
M  V30 5001 C 454.003 -2.26548 2.63236 0
M  V30 5002 C 452.957 -2.03175 3.76701 0
M  V30 5003 C 452.283 -3.38138 4.14206 0
M  V30 5004 C 453.583 -1.38625 5.03568 0
M  V30 5005 H 455.277 -0.523145 2.94794 0
M  V30 5006 H 452.823 -0.250195 1.4181 0
M  V30 5007 H 454.776 -2.95952 2.99984 0
M  V30 5008 H 453.5 -2.74051 1.77661 0
M  V30 5009 H 452.159 -1.36195 3.40362 0
M  V30 5010 H 451.807 -3.83363 3.25641 0
M  V30 5011 H 451.507 -3.23312 4.90656 0
M  V30 5012 H 453.031 -4.08841 4.53521 0
M  V30 5013 H 454.445 -1.98 5.38023 0
M  V30 5014 H 452.842 -1.34256 5.84889 0
M  V30 5015 H 453.912 -0.356722 4.83586 0
M  V30 5016 N 455.255 -1.55392 -0.262866 0
M  V30 5017 C 456.503 -1.76127 -0.991147 0
M  V30 5018 C 456.824 -0.571083 -1.8645 0
M  V30 5019 O 456.094 0.413698 -1.91482 0
M  V30 5020 H 454.674 -0.649528 -0.368948 0
M  V30 5021 H 457.336 -1.9281 -0.284655 0
M  V30 5022 H 456.432 -2.6663 -1.62219 0
M  V30 5023 N 456.733 0.527833 -1.48498 0
M  V30 5024 C 457.973 1.29401 -1.58224 0
M  V30 5025 C 458.337 1.90348 -0.251327 0
M  V30 5026 O 459.538 2.67868 -0.223588 0
M  V30 5027 C 457.809 2.35266 -2.69044 0
M  V30 5028 S 459.368 3.2158 -2.98549 0
M  V30 5029 H 456.186 0.440138 -0.558391 0
M  V30 5030 H 458.788 0.601079 -1.8603 0
M  V30 5031 H 457.492 1.88975 -3.64303 0
M  V30 5032 H 457.023 3.09263 -2.43146 0
M  V30 5033 H 459.038 4.35391 -2.38011 0
M  V30 5034 N 458.211 1.37122 0.776871 0
M  V30 5035 C 459.627 1.1781 1.07671 0
M  V30 5036 C 459.827 0.0107454 2.01497 0
M  V30 5037 O 458.883 -0.650756 2.4397 0
M  V30 5038 C 460.196 2.49451 1.67913 0
M  V30 5039 C 461.744 2.55927 1.80195 0
M  V30 5040 C 462.219 3.87686 2.43851 0
M  V30 5041 N 463.71 3.891 2.51307 0
M  V30 5042 C 464.445 4.87797 3.014 0
M  V30 5043 N 463.941 5.96888 3.51705 0
M  V30 5044 N 465.734 4.75205 3.00227 0
M  V30 5045 H 457.885 2.11843 0.153778 0
M  V30 5046 H 460.148 0.938927 0.130844 0
M  V30 5047 H 459.854 3.35207 1.06439 0
M  V30 5048 H 459.728 2.66169 2.67271 0
M  V30 5049 H 462.115 1.70582 2.40803 0
M  V30 5050 H 462.196 2.43097 0.796069 0
M  V30 5051 H 461.84 4.73444 1.83884 0
M  V30 5052 H 461.77 3.97817 3.45035 0
M  V30 5053 H 464.261 3.10293 2.157 0
M  V30 5054 H 464.574 6.68155 3.88316 0
M  V30 5055 H 462.919 6.0054 3.49824 0
M  V30 5056 H 466.11 3.89103 2.60224 0
M  V30 5057 H 466.283 5.52279 3.38957 0
M  V30 5058 N 459.689 -1.00246 1.21608 0
M  V30 5059 C 461.105 -1.26435 0.973975 0
M  V30 5060 C 461.305 -1.98642 -0.338143 0
M  V30 5061 O 460.361 -2.29026 -1.06317 0
M  V30 5062 C 461.674 -2.08551 2.16626 0
M  V30 5063 C 463.222 -2.21769 2.20879 0
M  V30 5064 C 463.697 -3.07267 3.39633 0
M  V30 5065 N 465.188 -3.14855 3.39736 0
M  V30 5066 C 465.923 -3.81274 4.28273 0
M  V30 5067 N 465.419 -4.497 5.27012 0
M  V30 5068 N 467.212 -3.7794 4.16074 0
M  V30 5069 H 459.363 -0.518089 2.05984 0
M  V30 5070 H 461.626 -0.291368 0.902113 0
M  V30 5071 H 461.332 -1.62847 3.11727 0
M  V30 5072 H 461.206 -3.09303 2.15897 0
M  V30 5073 H 463.593 -2.66691 1.26332 0
M  V30 5074 H 463.674 -1.20478 2.25652 0
M  V30 5075 H 463.318 -2.63047 4.34475 0
M  V30 5076 H 463.248 -4.08678 3.321 0
M  V30 5077 H 465.739 -2.66147 2.6828 0
M  V30 5078 H 466.052 -4.98092 5.90867 0
M  V30 5079 H 464.397 -4.48479 5.30935 0
M  V30 5080 H 467.588 -3.23638 3.38195 0
M  V30 5081 H 467.761 -4.29424 4.85282 0
M  V30 5082 N 461.167 -1.02423 -1.1978 0
M  V30 5083 C 462.413 -0.719051 -1.89625 0
M  V30 5084 C 462.746 0.750083 -1.7913 0
M  V30 5085 O 462.021 1.54574 -1.18056 0
M  V30 5086 C 462.304 -1.16499 -3.40735 0
M  V30 5087 C 462.157 -2.695 -3.60125 0
M  V30 5088 C 463.476 -0.742166 -4.33797 0
M  V30 5089 H 460.595 -0.26269 -0.688595 0
M  V30 5090 H 463.237 -1.27333 -1.41018 0
M  V30 5091 H 461.387 -0.69341 -3.82262 0
M  V30 5092 H 463.059 -3.24569 -3.278 0
M  V30 5093 H 461.302 -3.10113 -3.03336 0
M  V30 5094 H 461.973 -2.95757 -4.66081 0
M  V30 5095 H 464.449 -1.1477 -3.99959 0
M  V30 5096 H 463.325 -1.08213 -5.38127 0
M  V30 5097 H 463.586 0.355747 -4.40666 0
M  V30 5098 N 462.645 1.35699 -0.801477 0
M  V30 5099 C 464.056 1.81415 -0.441073 0
M  V30 5100 C 464.407 1.66595 1.03636 0
M  V30 5101 O 463.532 1.19369 1.80499 0
M  V30 5102 C 464.127 3.29369 -0.793819 0
M  V30 5103 C 462.686 3.73248 -0.486083 0
M  V30 5104 C 461.833 2.57775 -1.02213 0
M  V30 5105 H 464.784 1.23749 -0.993572 0
M  V30 5106 H 464.805 3.80395 -0.0894158 0
M  V30 5107 H 464.317 3.40123 -1.86917 0
M  V30 5108 H 462.418 3.68046 0.580735 0
M  V30 5109 H 462.531 4.68222 -1.01513 0
M  V30 5110 H 460.895 2.50788 -0.444712 0
M  V30 5111 H 461.678 2.71309 -2.10348 0
M  V30 5112 N 464.123 0.554532 1.47522 0
M  V30 5113 C 465.539 0.214107 1.58157 0
M  V30 5114 C 465.739 -1.28331 1.55349 0
M  V30 5115 O 464.795 -2.06329 1.45549 0
M  V30 5116 C 466.108 0.838391 2.88776 0
M  V30 5117 C 467.656 0.809374 3.02354 0
M  V30 5118 C 468.131 1.41268 4.35669 0
M  V30 5119 N 469.622 1.37574 4.42298 0
M  V30 5120 C 470.357 1.8122 5.4401 0
M  V30 5121 N 469.853 2.3271 6.52547 0
M  V30 5122 N 471.646 1.72307 5.35039 0
M  V30 5123 H 463.797 1.52744 1.4759 0
M  V30 5124 H 466.06 0.636812 0.702264 0
M  V30 5125 H 465.766 1.89065 2.96559 0
M  V30 5126 H 465.64 0.329847 3.75755 0
M  V30 5127 H 468.027 -0.234187 2.94169 0
M  V30 5128 H 468.108 1.35565 2.16924 0
M  V30 5129 H 467.752 2.45529 4.4461 0
M  V30 5130 H 467.682 0.841871 5.19827 0
M  V30 5131 H 470.173 0.999081 3.64454 0
M  V30 5132 H 470.486 2.63944 7.26329 0
M  V30 5133 H 468.831 2.36719 6.53444 0
M  V30 5134 H 472.022 1.3186 4.49144 0
M  V30 5135 H 472.195 2.06641 6.14169 0
M  V30 5136 N 465.601 -1.54893 0.290851 0
M  V30 5137 C 466.878 -1.91991 -0.373989 0
M  V30 5138 C 467.258 -1.21694 -1.72493 0
M  V30 5139 O 466.606 -0.34917 -2.25816 0
M  V30 5140 C 466.816 -3.45419 -0.498703 0
M  V30 5141 C 468.164 -4.1748 -0.774298 0
M  V30 5142 O 469.188 -3.51398 -0.582908 0
M  V30 5143 O 468.047 -5.3445 -1.14129 0
M  V30 5144 H 465.141 -0.800593 -0.207315 0
M  V30 5145 H 467.687 -1.66297 0.338164 0
M  V30 5146 H 466.459 -3.88688 0.451392 0
M  V30 5147 H 466.082 -3.77117 -1.25972 0
M  V30 5148 N 467.08 -0.0183926 -1.57589 0
M  V30 5149 C 468.308 0.673046 -1.95647 0
M  V30 5150 C 468.723 1.66275 -0.894312 0
M  V30 5151 O 468.08 1.82072 0.124975 0
M  V30 5152 C 468.131 1.38884 -3.33756 0
M  V30 5153 O 467.852 0.438806 -4.35897 0
M  V30 5154 C 469.353 2.1731 -3.86383 0
M  V30 5155 H 466.573 0.186292 -0.644621 0
M  V30 5156 H 469.117 -0.0749748 -2.04363 0
M  V30 5157 H 467.272 2.08835 -3.26293 0
M  V30 5158 H 467.686 0.945869 -5.15901 0
M  V30 5159 H 469.16 2.62863 -4.85394 0
M  V30 5160 H 469.637 3.00764 -3.20059 0
M  V30 5161 H 470.243 1.52339 -3.97081 0
M  V30 5162 N 468.558 1.5553 0.254621 0
M  V30 5163 C 469.488 1.9268 1.31897 0
M  V30 5164 C 470.469 0.790797 1.506 0
M  V30 5165 O 471.654 1.05045 1.63337 0
M  V30 5166 C 468.784 2.21477 2.67517 0
M  V30 5167 C 467.738 3.37256 2.63519 0
M  V30 5168 C 467.064 3.51576 4.02862 0
M  V30 5169 C 468.364 4.73157 2.21179 0
M  V30 5170 H 470.058 2.81832 1.01051 0
M  V30 5171 H 467.604 1.35599 0.484662 0
M  V30 5172 H 469.557 2.46055 3.42104 0
M  V30 5173 H 468.281 1.29144 2.99982 0
M  V30 5174 H 466.94 3.12675 1.9139 0
M  V30 5175 H 466.588 2.56676 4.32581 0
M  V30 5176 H 466.288 4.2943 4.01078 0
M  V30 5177 H 467.812 3.78467 4.79161 0
M  V30 5178 H 469.226 4.97158 2.85494 0
M  V30 5179 H 467.623 5.54058 2.30521 0
M  V30 5180 H 468.693 4.70739 1.16332 0
M  V30 5181 N 470.036 -0.519951 1.48776 0
M  V30 5182 C 471.313 -1.28123 1.47797 0
M  V30 5183 C 471.693 -2.10196 0.195157 0
M  V30 5184 O 471.041 -2.13167 -0.822925 0
M  V30 5185 C 471.251 -2.15413 2.74587 0
M  V30 5186 C 472.599 -2.75225 3.23321 0
M  V30 5187 O 473.623 -2.25694 2.75574 0
M  V30 5188 O 472.482 -3.65346 4.06429 0
M  V30 5189 H 469.576 -0.578793 0.590701 0
M  V30 5190 H 472.122 -0.535779 1.6102 0
M  V30 5191 H 470.894 -1.54617 3.59457 0
M  V30 5192 H 470.517 -2.97186 2.64132 0
M  V30 5193 N 471.514 -1.37532 -0.769588 0
M  V30 5194 C 472.742 -1.36059 -1.55871 0
M  V30 5195 C 473.157 0.053544 -1.88724 0
M  V30 5196 O 472.514 1.01591 -1.5161 0
M  V30 5197 C 472.565 -2.20107 -2.86767 0
M  V30 5198 O 472.286 -3.56009 -2.55321 0
M  V30 5199 C 473.787 -2.26636 -3.80987 0
M  V30 5200 H 471.007 -0.465967 -0.482821 0
M  V30 5201 H 473.551 -1.80901 -0.953686 0
M  V30 5202 H 471.706 -1.78768 -3.43687 0
M  V30 5203 H 472.12 -4.0009 -3.39158 0
M  V30 5204 H 473.594 -2.89763 -4.69831 0
M  V30 5205 H 474.071 -1.2754 -4.20274 0
M  V30 5206 H 474.677 -2.68296 -3.29996 0
M  V30 5207 N 472.992 0.995999 -1.22138 0
M  V30 5208 C 474.408 1.25917 -0.980667 0
M  V30 5209 C 474.608 1.98819 0.327604 0
M  V30 5210 O 473.664 2.29587 1.05101 0
M  V30 5211 C 474.977 2.07399 -2.17729 0
M  V30 5212 C 476.525 2.20594 -2.22052 0
M  V30 5213 C 477 3.05462 -3.41258 0
M  V30 5214 N 478.491 3.13049 -3.41401 0
M  V30 5215 C 479.226 3.78997 -4.30289 0
M  V30 5216 N 478.722 4.46899 -5.2939 0
M  V30 5217 N 480.515 3.75728 -4.18073 0
M  V30 5218 H 472.666 0.507158 -2.06256 0
M  V30 5219 H 474.929 0.28658 -0.903646 0
M  V30 5220 H 474.635 1.61191 -3.12586 0
M  V30 5221 H 474.509 3.08154 -2.17534 0
M  V30 5222 H 476.896 2.66017 -1.27745 0
M  V30 5223 H 476.977 1.1928 -2.26287 0
M  V30 5224 H 476.621 2.60739 -4.35864 0
M  V30 5225 H 476.551 4.06911 -3.34262 0
M  V30 5226 H 479.042 2.64721 -2.69688 0
M  V30 5227 H 479.355 4.94952 -5.935 0
M  V30 5228 H 477.7 4.45657 -5.33306 0
M  V30 5229 H 480.891 3.2184 -3.39907 0
M  V30 5230 H 481.064 4.26845 -4.87553 0
M  V30 5231 N 474.47 1.03057 1.19235 0
M  V30 5232 C 475.886 0.747947 1.40989 0
M  V30 5233 C 476.086 -0.666752 1.90149 0
M  V30 5234 O 475.142 -1.43249 2.07933 0
M  V30 5235 C 476.455 1.7855 2.41951 0
M  V30 5236 C 478.003 1.80524 2.55695 0
M  V30 5237 C 478.478 2.83243 3.59913 0
M  V30 5238 N 479.969 2.8207 3.67411 0
M  V30 5239 C 480.704 3.58204 4.47747 0
M  V30 5240 N 480.2 4.44057 5.31775 0
M  V30 5241 N 481.993 3.46738 4.42413 0
M  V30 5242 H 474.144 1.94367 0.856468 0
M  V30 5243 H 476.407 0.840412 0.438647 0
M  V30 5244 H 476.113 2.79973 2.12857 0
M  V30 5245 H 475.987 1.6092 3.41152 0
M  V30 5246 H 478.374 0.79778 2.84112 0
M  V30 5247 H 478.455 2.02229 1.56643 0
M  V30 5248 H 478.099 3.84161 3.32239 0
M  V30 5249 H 478.029 2.58795 4.5862 0
M  V30 5250 H 480.52 2.19803 3.074 0
M  V30 5251 H 480.833 4.98884 5.90199 0
M  V30 5252 H 479.178 4.48129 5.3123 0
M  V30 5253 H 482.369 2.79077 3.75811 0
M  V30 5254 H 482.542 4.06322 5.04783 0
M  V30 5255 N 475.948 -1.35272 0.808662 0
M  V30 5256 C 476.858 -2.33546 0.222079 0
M  V30 5257 C 477.874 -1.6196 -0.636011 0
M  V30 5258 O 479.05 -1.93822 -0.547274 0
M  V30 5259 C 476.115 -3.41148 -0.61795 0
M  V30 5260 C 475.176 -4.28507 0.260875 0
M  V30 5261 C 474.409 -5.3097 -0.539156 0
M  V30 5262 O 474.632 -5.42123 -1.77367 0
M  V30 5263 O 473.566 -6.01858 0.0710526 0
M  V30 5264 H 477.392 -2.85515 1.03512 0
M  V30 5265 H 474.977 -1.38079 0.570495 0
M  V30 5266 H 476.859 -4.06889 -1.09634 0
M  V30 5267 H 475.534 -2.91447 -1.40855 0
M  V30 5268 H 474.441 -3.6574 0.786451 0
M  V30 5269 H 475.774 -4.81611 1.01547 0
M  V30 5270 N 477.426 -0.562348 -1.47226 0
M  V30 5271 C 478.651 -0.0432632 -2.07355 0
M  V30 5272 C 479.076 1.24332 -1.41149 0
M  V30 5273 O 478.434 1.74603 -0.488226 0
M  V30 5274 C 478.482 0.130288 -3.60365 0
M  V30 5275 O 477.586 1.19166 -3.94808 0
M  V30 5276 H 476.927 -0.0536334 -0.66183 0
M  V30 5277 H 479.457 -0.779495 -1.89169 0
M  V30 5278 H 479.467 0.342881 -4.06557 0
M  V30 5279 H 478.142 -0.809389 -4.07948 0
M  V30 5280 H 476.719 0.959153 -3.60354 0
M  V30 5281 N 478.904 1.54736 -0.299062 0
M  V30 5282 C 479.834 2.26409 0.571085 0
M  V30 5283 C 480.815 1.2629 1.13951 0
M  V30 5284 O 482 1.55059 1.16921 0
M  V30 5285 C 479.13 3.00338 1.74396 0
M  V30 5286 C 478.084 4.07588 1.30599 0
M  V30 5287 C 477.41 4.69222 2.56387 0
M  V30 5288 C 478.71 5.20455 0.438645 0
M  V30 5289 H 480.404 2.99388 -0.0266991 0
M  V30 5290 H 477.95 1.43993 -0.0142812 0
M  V30 5291 H 479.903 3.49198 2.35878 0
M  V30 5292 H 478.627 2.24934 2.36796 0
M  V30 5293 H 477.286 3.59575 0.71424 0
M  V30 5294 H 476.934 3.9046 3.17097 0
M  V30 5295 H 476.634 5.41653 2.27784 0
M  V30 5296 H 478.158 5.20844 3.18675 0
M  V30 5297 H 479.572 5.65221 0.959085 0
M  V30 5298 H 477.969 5.99594 0.246466 0
M  V30 5299 H 479.039 4.8192 -0.536738 0
M  V30 5300 N 480.382 0.0267497 1.57577 0
M  V30 5301 C 481.629 -0.652404 1.91703 0
M  V30 5302 C 481.957 -1.72271 0.902936 0
M  V30 5303 O 481.212 -1.955 -0.0884843 0
M  V30 5304 C 481.511 -1.30914 3.3256 0
M  V30 5305 C 481.177 -0.369441 4.49384 0
M  V30 5306 C 479.839 -0.110791 4.81072 0
M  V30 5307 C 482.191 0.275971 5.20469 0
M  V30 5308 C 479.519 0.801116 5.81205 0
M  V30 5309 C 481.871 1.17592 6.21575 0
M  V30 5310 C 480.535 1.44348 6.51705 0
M  V30 5311 H 479.805 -0.238732 0.70149 0
M  V30 5312 H 482.452 0.0880091 1.91298 0
M  V30 5313 H 480.757 -2.12425 3.29216 0
M  V30 5314 H 482.454 -1.84115 3.56234 0
M  V30 5315 H 479.044 -0.581211 4.24641 0
M  V30 5316 H 483.228 0.0892 4.9622 0
M  V30 5317 H 478.484 1.01614 6.02897 0
M  V30 5318 H 482.658 1.68223 6.75777 0
M  V30 5319 H 480.285 2.15176 7.29111 0
M  V30 5320 N 481.861 -1.55662 -0.24637 0
M  V30 5321 C 483.086 -1.81914 -0.996093 0
M  V30 5322 C 483.511 -0.603875 -1.78143 0
M  V30 5323 O 482.869 0.447091 -1.75701 0
M  V30 5324 C 482.917 -3.05908 -1.90925 0
M  V30 5325 O 482.021 -2.82861 -3.00105 0
M  V30 5326 H 481.362 -0.600481 -0.283406 0
M  V30 5327 H 483.892 -2.02848 -0.267199 0
M  V30 5328 H 483.902 -3.35356 -2.3238 0
M  V30 5329 H 482.577 -3.93999 -1.33183 0
M  V30 5330 H 481.154 -2.64583 -2.62775 0
M  V30 5331 N 483.339 0.512053 -1.4905 0
M  V30 5332 C 484.302 1.59704 -1.64399 0
M  V30 5333 C 485.302 1.52285 -0.516317 0
M  V30 5334 O 486.492 1.55635 -0.782527 0
M  V30 5335 C 483.624 2.9935 -1.63102 0
M  V30 5336 H 484.817 1.47428 -2.61161 0
M  V30 5337 H 482.37 0.735469 -1.37915 0
M  V30 5338 H 483.105 3.17116 -0.678836 0
M  V30 5339 H 482.89 3.06144 -2.44986 0
M  V30 5340 H 484.38 3.782 -1.77072 0
M  V30 5341 N 484.817 1.37938 0.762283 0
M  V30 5342 C 486.233 1.18945 1.06415 0
M  V30 5343 C 486.433 0.0321163 2.01474 0
M  V30 5344 O 485.489 -0.624844 2.44647 0
M  V30 5345 C 486.802 2.51218 1.65258 0
M  V30 5346 C 488.35 2.57824 1.7747 0
M  V30 5347 C 488.825 3.90251 2.39725 0
M  V30 5348 N 490.316 3.91744 2.47166 0
M  V30 5349 C 491.051 4.90966 2.96209 0
M  V30 5350 N 490.547 6.00585 3.45354 0
M  V30 5351 N 492.34 4.78363 2.9517 0
M  V30 5352 H 484.491 2.11994 0.131301 0
M  V30 5353 H 486.754 0.940262 0.120879 0
M  V30 5354 H 486.46 3.36317 1.02878 0
M  V30 5355 H 486.334 2.68989 2.64433 0
M  V30 5356 H 488.721 1.73126 2.3898 0
M  V30 5357 H 488.802 2.43928 0.770241 0
M  V30 5358 H 488.446 4.75368 1.78852 0
M  V30 5359 H 488.376 4.01454 3.40796 0
M  V30 5360 H 490.867 3.12563 2.12397 0
M  V30 5361 H 491.18 6.72236 3.81207 0
M  V30 5362 H 489.525 6.04217 3.43434 0
M  V30 5363 H 492.716 3.91841 2.56082 0
M  V30 5364 H 492.889 5.55843 3.33081 0
M  V30 5365 N 486.295 -0.989507 1.22664 0
M  V30 5366 C 487.523 -1.76496 1.07967 0
M  V30 5367 C 487.938 -1.85148 -0.369543 0
M  V30 5368 O 487.295 -1.32408 -1.25596 0
M  V30 5369 C 487.346 -3.19642 1.68853 0
M  V30 5370 O 487.067 -3.11453 3.08105 0
M  V30 5371 C 488.568 -4.13621 1.59475 0
M  V30 5372 H 485.788 -0.55418 0.378319 0
M  V30 5373 H 488.332 -1.24378 1.62328 0
M  V30 5374 H 486.487 -3.68816 1.18547 0
M  V30 5375 H 486.901 -4.01499 3.37489 0
M  V30 5376 H 488.375 -5.11801 2.06795 0
M  V30 5377 H 488.852 -4.35718 0.55191 0
M  V30 5378 H 489.458 -3.70346 2.09103 0
M  V30 5379 N 487.773 -1.03688 -1.18687 0
M  V30 5380 C 489.001 -0.757918 -1.92518 0
M  V30 5381 C 489.416 0.684398 -1.75959 0
M  V30 5382 O 488.773 1.46617 -1.08673 0
M  V30 5383 C 488.824 -1.10985 -3.44042 0
M  V30 5384 O 488.545 -2.49554 -3.60076 0
M  V30 5385 C 490.046 -0.854844 -4.3498 0
M  V30 5386 H 487.266 -0.276699 -0.611293 0
M  V30 5387 H 489.81 -1.38352 -1.50595 0
M  V30 5388 H 487.965 -0.529279 -3.83767 0
M  V30 5389 H 488.379 -2.6291 -4.53849 0
M  V30 5390 H 489.853 -1.15098 -5.39867 0
M  V30 5391 H 490.33 0.210507 -4.38695 0
M  V30 5392 H 490.936 -1.41853 -4.00946 0
M  V30 5393 N 489.251 1.34841 -0.815825 0
M  V30 5394 C 490.476 2.03261 -0.41226 0
M  V30 5395 C 490.901 1.61055 0.971751 0
M  V30 5396 O 490.259 0.7917 1.63101 0
M  V30 5397 C 490.307 3.56914 -0.514289 0
M  V30 5398 O 489.411 4.09728 0.468675 0
M  V30 5399 H 488.752 0.641664 -0.170771 0
M  V30 5400 H 491.282 1.72241 -1.10427 0
M  V30 5401 H 491.292 4.06156 -0.387457 0
M  V30 5402 H 489.967 3.86982 -1.52375 0
M  V30 5403 H 488.544 3.71681 0.301316 0
M  V30 5404 N 490.729 0.570148 1.46925 0
M  V30 5405 C 491.975 0.0510284 2.02736 0
M  V30 5406 C 492.308 -1.3006 1.44215 0
M  V30 5407 O 491.583 -1.84932 0.602521 0
M  V30 5408 C 491.866 -0.028215 3.60089 0
M  V30 5409 C 491.719 1.35142 4.29018 0
M  V30 5410 C 493.038 -0.735181 4.33916 0
M  V30 5411 H 490.157 0.0200178 0.736728 0
M  V30 5412 H 492.799 0.73493 1.75211 0
M  V30 5413 H 490.949 -0.610648 3.83671 0
M  V30 5414 H 492.621 1.97806 4.16738 0
M  V30 5415 H 490.864 1.9226 3.88868 0
M  V30 5416 H 491.535 1.24857 5.37694 0
M  V30 5417 H 494.011 -0.240519 4.15404 0
M  V30 5418 H 492.887 -0.759622 5.43618 0
M  V30 5419 H 493.148 -1.79397 4.04066 0
M  V30 5420 N 492.207 -1.54576 0.307264 0
M  V30 5421 C 493.623 -1.59534 -0.0459251 0
M  V30 5422 C 493.823 -1.32414 -1.51884 0
M  V30 5423 O 492.879 -1.1006 -2.27251 0
M  V30 5424 C 494.192 -2.98566 0.357649 0
M  V30 5425 C 495.74 -3.11491 0.306937 0
M  V30 5426 C 496.215 -4.52842 0.685427 0
M  V30 5427 N 497.706 -4.58782 0.638203 0
M  V30 5428 C 498.441 -5.66238 0.903458 0
M  V30 5429 N 497.937 -6.81703 1.23501 0
M  V30 5430 N 499.73 -5.55937 0.830102 0
M  V30 5431 H 491.881 -1.70464 1.26712 0
M  V30 5432 H 494.144 -0.79647 0.514139 0
M  V30 5433 H 493.85 -3.23356 1.38325 0
M  V30 5434 H 493.724 -3.76117 -0.285565 0
M  V30 5435 H 496.111 -2.86446 -0.709424 0
M  V30 5436 H 496.192 -2.36081 0.984861 0
M  V30 5437 H 495.836 -4.78618 1.69963 0
M  V30 5438 H 495.766 -5.26598 -0.0146346 0
M  V30 5439 H 498.257 -3.75849 0.393138 0
M  V30 5440 H 498.57 -7.59582 1.42322 0
M  V30 5441 H 496.915 -6.8324 1.27311 0
M  V30 5442 H 500.106 -4.64608 0.570693 0
M  V30 5443 H 500.279 -6.39597 1.04019 0
M  V30 5444 N 493.685 -0.035106 -1.57561 0
M  V30 5445 C 494.91 0.655802 -1.96759 0
M  V30 5446 C 495.335 1.64523 -0.911809 0
M  V30 5447 O 494.693 1.80857 0.126673 0
M  V30 5448 C 494.741 1.33326 -3.35047 0
M  V30 5449 O 493.845 2.44866 -3.31835 0
M  V30 5450 H 493.186 0.171807 -0.641388 0
M  V30 5451 H 495.716 -0.0987369 -2.04362 0
M  V30 5452 H 495.726 1.68867 -3.71413 0
M  V30 5453 H 494.401 0.608033 -4.11431 0
M  V30 5454 H 492.978 2.11392 -3.07193 0
M  V30 5455 N 495.163 1.55791 0.238111 0
M  V30 5456 C 496.073 1.94196 1.31625 0
M  V30 5457 C 497.089 0.843545 1.52185 0
M  V30 5458 O 498.265 1.1457 1.65637 0
M  V30 5459 C 495.33 2.2365 2.64918 0
M  V30 5460 C 494.391 3.46971 2.52804 0
M  V30 5461 C 493.624 3.7501 3.79741 0
M  V30 5462 O 493.847 3.04982 4.82019 0
M  V30 5463 O 492.781 4.68525 3.77846 0
M  V30 5464 H 496.607 2.86044 1.02043 0
M  V30 5465 H 494.192 1.42786 0.439603 0
M  V30 5466 H 496.074 2.43863 3.4367 0
M  V30 5467 H 494.749 1.34979 2.94215 0
M  V30 5468 H 493.656 3.32055 1.72309 0
M  V30 5469 H 494.989 4.35971 2.28451 0
M  V30 5470 N 496.642 -0.504142 1.49319 0
M  V30 5471 C 497.605 -1.5883 1.65244 0
M  V30 5472 C 498.605 -1.52009 0.524386 0
M  V30 5473 O 499.795 -1.55218 0.79077 0
M  V30 5474 C 496.927 -2.98481 1.64687 0
M  V30 5475 H 498.12 -1.4604 2.61939 0
M  V30 5476 H 495.673 -0.728144 1.38303 0
M  V30 5477 H 496.408 -3.16751 0.695644 0
M  V30 5478 H 496.193 -3.0484 2.46607 0
M  V30 5479 H 497.683 -3.77256 1.79075 0
M  V30 5480 N 498.12 -1.38341 -0.754957 0
M  V30 5481 C 499.368 -1.34208 -1.51105 0
M  V30 5482 C 499.689 0.0677634 -1.94882 0
M  V30 5483 O 498.959 1.01517 -1.67544 0
M  V30 5484 H 497.539 -0.493819 -0.560493 0
M  V30 5485 H 500.201 -1.73005 -0.897507 0
M  V30 5486 H 499.297 -1.99203 -2.4026 0
M  V30 5487 N 499.598 0.982988 -1.23187 0
M  V30 5488 C 500.561 2.05649 -1.01198 0
M  V30 5489 C 501.561 1.6078 0.0252464 0
M  V30 5490 O 502.751 1.72878 -0.214243 0
M  V30 5491 C 499.883 3.36744 -0.530656 0
M  V30 5492 H 501.076 2.2659 -1.96461 0
M  V30 5493 H 498.629 1.15602 -1.05195 0
M  V30 5494 H 499.364 3.21492 0.425873 0
M  V30 5495 H 499.149 3.7065 -1.2791 0
M  V30 5496 H 500.639 4.15705 -0.397366 0
M  V30 5497 N 501.076 1.04316 1.18135 0
M  V30 5498 C 502.026 0.606731 2.19779 0
M  V30 5499 C 503.01 -0.352144 1.56999 0
M  V30 5500 O 504.202 -0.170795 1.76174 0
M  V30 5501 C 501.331 -0.0262443 3.4329 0
M  V30 5502 C 500.417 0.955928 4.13186 0
M  V30 5503 N 500.808 2.12395 4.59045 0
M  V30 5504 C 499.106 0.782473 4.39082 0
M  V30 5505 C 499.807 2.74458 5.12882 0
M  V30 5506 N 498.783 2.02316 5.04548 0
M  V30 5507 H 502.585 1.49679 2.5293 0
M  V30 5508 H 500.099 0.912088 1.34368 0
M  V30 5509 H 502.096 -0.356617 4.15372 0
M  V30 5510 H 500.756 -0.911811 3.11635 0
M  V30 5511 H 501.767 2.50272 4.53414 0
M  V30 5512 H 498.444 -0.0527906 4.17467 0
M  V30 5513 H 499.834 3.73459 5.5855 0
M  V30 5514 N 502.554 -1.34406 0.822964 0
M  V30 5515 C 503.965 -1.8069 0.469879 0
M  V30 5516 C 504.316 -1.68223 -1.00972 0
M  V30 5517 O 503.441 -1.22226 -1.78577 0
M  V30 5518 C 504.036 -3.28064 0.846118 0
M  V30 5519 C 502.595 -3.72428 0.545402 0
M  V30 5520 C 501.742 -2.56116 1.06301 0
M  V30 5521 H 504.693 -1.22153 1.01313 0
M  V30 5522 H 504.714 -3.80205 0.149922 0
M  V30 5523 H 504.226 -3.37107 1.92304 0
M  V30 5524 H 502.327 -3.68924 -0.522109 0
M  V30 5525 H 502.44 -4.66548 1.0895 0
M  V30 5526 H 500.804 -2.50048 0.484554 0
M  V30 5527 H 501.587 -2.67928 2.14638 0
M  V30 5528 N 504.032 -0.577932 -1.46621 0
M  V30 5529 C 504.942 0.160651 -2.34049 0
M  V30 5530 C 505.958 0.890911 -1.49462 0
M  V30 5531 O 507.134 0.855166 -1.82343 0
M  V30 5532 C 504.199 1.16447 -3.26559 0
M  V30 5533 C 503.26 0.4394 -4.27045 0
M  V30 5534 C 502.493 1.3954 -5.15135 0
M  V30 5535 O 502.716 2.63162 -5.06065 0
M  V30 5536 O 501.65 0.908585 -5.95003 0
M  V30 5537 H 505.476 -0.557057 -2.98547 0
M  V30 5538 H 503.061 -0.338369 -1.45518 0
M  V30 5539 H 504.943 1.7434 -3.83645 0
M  V30 5540 H 503.618 1.86373 -2.64663 0
M  V30 5541 H 502.525 -0.181247 -3.73661 0
M  V30 5542 H 503.858 -0.218799 -4.91713 0
M  V30 5543 N 505.51 1.54411 -0.315457 0
M  V30 5544 C 506.758 2.00023 0.288971 0
M  V30 5545 C 507.079 1.20529 1.5329 0
M  V30 5546 O 506.349 0.304986 1.93511 0
M  V30 5547 H 504.929 0.738891 0.109766 0
M  V30 5548 H 507.591 1.90094 -0.430129 0
M  V30 5549 H 506.687 3.07198 0.550999 0
M  V30 5550 N 506.988 0.0434614 1.5754 0
M  V30 5551 C 507.921 -0.968729 2.06618 0
M  V30 5552 C 508.899 -1.30868 0.965 0
M  V30 5553 O 510.083 -1.42288 1.23638 0
M  V30 5554 C 507.21 -2.28486 2.50023 0
M  V30 5555 C 506.256 -2.09851 3.71302 0
M  V30 5556 S 507.089 -1.38401 5.17306 0
M  V30 5557 C 508.245 -2.71354 5.64019 0
M  V30 5558 H 508.478 -0.551021 2.92149 0
M  V30 5559 H 506.011 -0.168607 1.53477 0
M  V30 5560 H 507.969 -3.04142 2.75695 0
M  V30 5561 H 506.63 -2.67387 1.64812 0
M  V30 5562 H 505.823 -3.07184 3.99567 0
M  V30 5563 H 505.425 -1.42336 3.45856 0
M  V30 5564 H 507.717 -3.67549 5.69134 0
M  V30 5565 H 508.66 -2.47734 6.6335 0
M  V30 5566 H 509.068 -2.77259 4.91719 0
M  V30 5567 N 508.466 -1.55915 -0.229846 0
M  V30 5568 C 509.376 -1.94891 -1.30593 0
M  V30 5569 C 510.392 -0.851604 -1.51736 0
M  V30 5570 O 511.568 -1.15447 -1.65027 0
M  V30 5571 C 508.633 -2.25052 -2.63728 0
M  V30 5572 C 507.694 -3.48306 -2.5096 0
M  V30 5573 C 506.927 -3.77019 -3.77747 0
M  V30 5574 O 507.15 -3.07534 -4.80395 0
M  V30 5575 O 506.084 -4.70523 -3.75356 0
M  V30 5576 H 509.91 -2.86581 -1.00525 0
M  V30 5577 H 507.495 -1.43017 -0.432025 0
M  V30 5578 H 509.377 -2.45682 -3.42372 0
M  V30 5579 H 508.052 -1.36538 -2.93495 0
M  V30 5580 H 506.959 -3.32964 -1.70546 0
M  V30 5581 H 508.292 -4.37177 -2.26136 0
M  V30 5582 N 509.944 0.496216 -1.49584 0
M  V30 5583 C 511.192 1.24756 -1.58998 0
M  V30 5584 C 511.513 1.92968 -0.280775 0
M  V30 5585 O 510.783 1.82959 0.700198 0
M  V30 5586 H 509.363 0.463471 -0.585836 0
M  V30 5587 H 512.025 0.574678 -1.86235 0
M  V30 5588 H 511.121 2.00895 -2.38847 0
M  V30 5589 N 511.423 1.38739 0.74761 0
M  V30 5590 C 512.386 1.36241 1.84312 0
M  V30 5591 C 513.386 0.261811 1.58654 0
M  V30 5592 O 514.576 0.519031 1.66288 0
M  V30 5593 C 511.708 1.12253 3.21888 0
M  V30 5594 H 512.901 2.33712 1.87933 0
M  V30 5595 H 510.454 1.2412 0.949946 0
M  V30 5596 H 511.189 0.154133 3.23934 0
M  V30 5597 H 510.974 1.91943 3.41907 0
M  V30 5598 H 512.464 1.13215 4.0196 0
M  V30 5599 N 512.901 -0.976442 1.23707 0
M  V30 5600 C 514.129 -1.75341 1.09833 0
M  V30 5601 C 514.544 -1.8553 -0.349885 0
M  V30 5602 O 513.901 -1.33732 -1.24185 0
M  V30 5603 C 513.952 -3.17833 1.72233 0
M  V30 5604 O 513.673 -3.08167 3.11391 0
M  V30 5605 C 515.174 -4.11906 1.63853 0
M  V30 5606 H 512.394 -0.550137 0.384175 0
M  V30 5607 H 514.938 -1.2265 1.63638 0
M  V30 5608 H 513.093 -3.67538 1.22452 0
M  V30 5609 H 513.507 -3.97897 3.41729 0
M  V30 5610 H 514.981 -5.09579 2.12211 0
M  V30 5611 H 515.458 -4.35109 0.598092 0
M  V30 5612 H 516.064 -3.68107 2.13019 0
M  V30 5613 N 514.379 -1.04941 -1.1758 0
M  V30 5614 C 515.795 -0.770282 -1.39781 0
M  V30 5615 C 515.995 0.636417 -1.91186 0
M  V30 5616 O 515.051 1.39923 -2.10185 0
M  V30 5617 C 516.364 -1.82376 -2.3908 0
M  V30 5618 C 517.912 -1.84569 -2.52791 0
M  V30 5619 C 518.387 -2.88933 -3.55361 0
M  V30 5620 N 519.878 -2.8788 -3.62877 0
M  V30 5621 C 520.613 -3.65282 -4.41992 0
M  V30 5622 N 520.109 -4.52461 -5.24643 0
M  V30 5623 N 521.902 -3.53732 -4.36841 0
M  V30 5624 H 514.053 -1.95705 -0.825438 0
M  V30 5625 H 516.316 -0.847284 -0.425222 0
M  V30 5626 H 516.022 -2.83323 -2.08376 0
M  V30 5627 H 515.896 -1.66327 -3.38549 0
M  V30 5628 H 518.283 -0.842879 -2.82807 0
M  V30 5629 H 518.364 -2.04696 -1.53406 0
M  V30 5630 H 518.008 -3.89398 -3.26085 0
M  V30 5631 H 517.938 -2.66059 -4.54445 0
M  V30 5632 H 520.429 -2.24666 -3.03864 0
M  V30 5633 H 520.742 -5.08211 -5.82187 0
M  V30 5634 H 519.087 -4.56524 -5.24033 0
M  V30 5635 H 522.278 -2.85021 -3.71323 0
M  V30 5636 H 522.451 -4.14302 -4.98255 0
M  V30 5637 N 515.857 1.33968 -0.830081 0
M  V30 5638 C 517.268 1.80439 -0.479455 0
M  V30 5639 C 517.619 1.68756 1.00079 0
M  V30 5640 O 516.744 1.23171 1.77927 0
M  V30 5641 C 517.339 3.27611 -0.863505 0
M  V30 5642 C 515.898 3.72133 -0.565145 0
M  V30 5643 C 515.045 2.55549 -1.07657 0
M  V30 5644 H 517.996 1.21614 -1.0196 0
M  V30 5645 H 518.017 3.8012 -0.170083 0
M  V30 5646 H 517.529 3.36082 -1.94089 0
M  V30 5647 H 515.63 3.69196 0.502536 0
M  V30 5648 H 515.743 4.65963 -1.11422 0
M  V30 5649 H 514.107 2.49788 -0.497807 0
M  V30 5650 H 514.89 2.66786 -2.16055 0
M  V30 5651 N 517.335 0.585699 1.46312 0
M  V30 5652 C 518.583 0.072278 2.01971 0
M  V30 5653 C 518.904 -1.29345 1.45928 0
M  V30 5654 O 518.174 -1.84973 0.645109 0
M  V30 5655 H 516.754 0.023729 0.746623 0
M  V30 5656 H 519.416 0.762155 1.7938 0
M  V30 5657 H 518.512 0.00552767 3.121 0
M  V30 5658 N 518.813 -1.54241 0.323641 0
M  V30 5659 C 519.743 -2.27289 -0.534993 0
M  V30 5660 C 520.724 -1.28087 -1.11927 0
M  V30 5661 O 521.909 -1.56899 -1.14439 0
M  V30 5662 C 519.039 -3.03075 -1.69596 0
M  V30 5663 C 517.993 -4.09614 -1.24098 0
M  V30 5664 C 517.319 -4.73242 -2.4889 0
M  V30 5665 C 518.619 -5.21087 -0.355789 0
M  V30 5666 H 520.313 -2.99308 0.0743257 0
M  V30 5667 H 517.859 -1.43952 0.0371874 0
M  V30 5668 H 519.812 -3.52907 -2.30293 0
M  V30 5669 H 518.536 -2.28673 -2.33187 0
M  V30 5670 H 517.195 -3.60666 -0.656945 0
M  V30 5671 H 516.843 -3.95455 -3.10845 0
M  V30 5672 H 516.543 -5.45209 -2.19138 0
M  V30 5673 H 518.067 -5.25848 -3.10348 0
M  V30 5674 H 519.481 -5.66675 -0.869042 0
M  V30 5675 H 517.878 -5.9991 -0.151045 0
M  V30 5676 H 518.948 -4.81005 0.613339 0
M  V30 5677 N 520.291 -0.0518155 -1.57515 0
M  V30 5678 C 521.223 0.951542 -2.08515 0
M  V30 5679 C 522.236 1.27436 -1.01311 0
M  V30 5680 O 523.425 1.23504 -1.28876 0
M  V30 5681 C 520.525 2.27291 -2.5138 0
M  V30 5682 C 519.698 2.13191 -3.81927 0
M  V30 5683 C 518.757 3.28458 -4.11098 0
M  V30 5684 O 517.783 3.04334 -4.81009 0
M  V30 5685 N 518.985 4.52954 -3.63061 0
M  V30 5686 H 521.75 0.516242 -2.9522 0
M  V30 5687 H 519.311 0.13441 -1.61341 0
M  V30 5688 H 521.303 3.03272 -2.67971 0
M  V30 5689 H 519.873 2.62386 -1.69919 0
M  V30 5690 H 519.093 1.21798 -3.74912 0
M  V30 5691 H 520.381 2.00999 -4.67415 0
M  V30 5692 H 519.779 4.75444 -3.06545 0
M  V30 5693 H 518.336 5.26026 -3.84889 0
M  V30 5694 N 521.769 1.56035 0.221574 0
M  V30 5695 C 523.185 1.49026 0.571271 0
M  V30 5696 C 523.385 0.746912 1.87146 0
M  V30 5697 O 522.441 0.286566 2.50869 0
M  V30 5698 C 523.754 2.93579 0.650522 0
M  V30 5699 C 525.302 3.04099 0.741151 0
M  V30 5700 C 525.777 4.5001 0.851747 0
M  V30 5701 N 527.268 4.54053 0.915968 0
M  V30 5702 C 528.003 5.64232 1.02125 0
M  V30 5703 N 527.499 6.84164 1.09049 0
M  V30 5704 N 529.292 5.52084 1.05639 0
M  V30 5705 H 521.443 2.02791 -0.63162 0
M  V30 5706 H 523.706 0.921736 -0.221602 0
M  V30 5707 H 523.412 3.50912 -0.235253 0
M  V30 5708 H 523.286 3.45476 1.51413 0
M  V30 5709 H 525.673 2.4683 1.61737 0
M  V30 5710 H 525.754 2.55371 -0.148128 0
M  V30 5711 H 525.398 5.07896 -0.0200117 0
M  V30 5712 H 525.328 4.96444 1.75644 0
M  V30 5713 H 527.819 3.67683 0.872782 0
M  V30 5714 H 528.132 7.63883 1.1706 0
M  V30 5715 H 526.477 6.86875 1.05962 0
M  V30 5716 H 529.668 4.57317 0.998953 0
M  V30 5717 H 529.841 6.37983 1.13498 0
M  V30 5718 N 523.247 -0.488276 1.49845 0
M  V30 5719 C 524.179 -1.60539 1.63584 0
M  V30 5720 C 525.192 -1.5434 0.517972 0
M  V30 5721 O 526.381 -1.60041 0.790516 0
M  V30 5722 C 523.481 -2.99374 1.58835 0
M  V30 5723 C 522.654 -3.30624 2.86368 0
M  V30 5724 C 521.713 -4.4893 2.74496 0
M  V30 5725 O 520.739 -4.50085 3.48443 0
M  V30 5726 N 521.941 -5.49591 1.86894 0
M  V30 5727 H 524.706 -1.49176 2.59936 0
M  V30 5728 H 522.267 -0.67639 1.47094 0
M  V30 5729 H 524.259 -3.76459 1.48529 0
M  V30 5730 H 522.829 -3.04595 0.702892 0
M  V30 5731 H 522.049 -2.42314 3.1093 0
M  V30 5732 H 523.337 -3.48305 3.70892 0
M  V30 5733 H 522.735 -5.51467 1.26097 0
M  V30 5734 H 521.292 -6.25728 1.82503 0
M  V30 5735 N 524.725 -1.39134 -0.740242 0
M  V30 5736 C 525.635 -1.39697 -1.88473 0
M  V30 5737 C 526.651 -0.292403 -1.71526 0
M  V30 5738 O 527.827 -0.533021 -1.94219 0
M  V30 5739 C 524.892 -1.23382 -3.24003 0
M  V30 5740 C 523.953 -2.43763 -3.53381 0
M  V30 5741 C 523.186 -2.28216 -4.82445 0
M  V30 5742 O 523.409 -1.28288 -5.55786 0
M  V30 5743 O 522.343 -3.1709 -5.11603 0
M  V30 5744 H 526.169 -2.36159 -1.90952 0
M  V30 5745 H 523.754 -1.20194 -0.887346 0
M  V30 5746 H 525.636 -1.16395 -4.05006 0
M  V30 5747 H 524.311 -0.300121 -3.22306 0
M  V30 5748 H 523.218 -2.56325 -2.72485 0
M  V30 5749 H 524.551 -3.35808 -3.59852 0
M  V30 5750 N 526.204 0.969867 -1.24223 0
M  V30 5751 C 527.429 1.75289 -1.10853 0
M  V30 5752 C 527.854 1.85091 0.335079 0
M  V30 5753 O 527.212 1.32024 1.24255 0
M  V30 5754 C 527.26 3.15255 -1.75062 0
M  V30 5755 O 526.364 3.99589 -1.01992 0
M  V30 5756 H 525.705 0.538904 -0.387915 0
M  V30 5757 H 528.235 1.21675 -1.64488 0
M  V30 5758 H 528.245 3.65787 -1.80731 0
M  V30 5759 H 526.92 3.07436 -2.801 0
M  V30 5760 H 525.497 3.58077 -1.04094 0
M  V30 5761 N 527.682 1.05563 1.17022 0
M  V30 5762 C 528.928 0.769074 1.87652 0
M  V30 5763 C 529.261 -0.702326 1.81055 0
M  V30 5764 O 528.536 -1.5139 1.22112 0
M  V30 5765 C 528.819 1.25492 3.37526 0
M  V30 5766 C 528.672 2.78953 3.52853 0
M  V30 5767 C 529.991 0.856919 4.31677 0
M  V30 5768 H 527.11 0.280854 0.681388 0
M  V30 5769 H 529.752 1.31027 1.37593 0
M  V30 5770 H 527.902 0.794516 3.80289 0
M  V30 5771 H 529.574 3.33146 3.19079 0
M  V30 5772 H 527.817 3.18046 2.95007 0
M  V30 5773 H 528.488 3.08011 4.58076 0
M  V30 5774 H 530.964 1.25334 3.96775 0
M  V30 5775 H 529.84 1.22443 5.35069 0
M  V30 5776 H 530.101 -0.238787 4.41455 0
M  V30 5777 N 529.16 -1.33526 0.837174 0
M  V30 5778 C 530.407 -1.97837 0.432064 0
M  V30 5779 C 530.735 -1.66324 -1.00829 0
M  V30 5780 O 529.99 -0.93448 -1.71948 0
M  V30 5781 C 530.289 -3.52367 0.597675 0
M  V30 5782 C 529.955 -4.03826 2.00587 0
M  V30 5783 C 528.617 -4.1759 2.39106 0
M  V30 5784 C 530.969 -4.31333 2.92576 0
M  V30 5785 C 528.297 -4.56195 3.68921 0
M  V30 5786 C 530.649 -4.7139 4.2187 0
M  V30 5787 C 529.313 -4.8336 4.60347 0
M  V30 5788 H 528.583 -0.723937 0.158104 0
M  V30 5789 H 531.23 -1.5923 1.06387 0
M  V30 5790 H 529.535 -3.91624 -0.117452 0
M  V30 5791 H 531.232 -4.00126 0.26454 0
M  V30 5792 H 527.822 -3.93586 1.69671 0
M  V30 5793 H 532.006 -4.20224 2.64056 0
M  V30 5794 H 527.262 -4.63655 3.9854 0
M  V30 5795 H 531.436 -4.91631 4.93226 0
M  V30 5796 H 529.063 -5.1303 5.60985 0
M  V30 5797 O 530.677 -0.734023 -1.43855 0
M  V30 5798 H 531.368 -0.285275 -1.91588 0
M  V30 END ATOM
M  V30 BEGIN BOND
M  V30 END BOND
M  V30 END CTAB
M  END
$$$$
