drugbank_target|Q9UIK4 Death-associated protein kinase 2 (DB12010)
 OpenBabel12092121153D

  0  0  0     0  0            999 V3000
M  V30 BEGIN CTAB
M  V30 COUNTS 6067 6124 0 0 0
M  V30 BEGIN ATOM
M  V30 1 H -0.908 1.98254 -0.117106 0
M  V30 2 N 0 1.576 0 0
M  V30 3 C 0.933 2.03868 1.02534 0
M  V30 4 C 1.911 0.928543 1.3348 0
M  V30 5 O 3.095 1.19667 1.45644 0
M  V30 6 C 0.222 2.43627 2.35294 0
M  V30 7 C -0.732 3.65373 2.2001 0
M  V30 8 S 0.101 5.13292 1.52614 0
M  V30 9 C 1.257 5.56322 2.86805 0
M  V30 10 H 1.49 2.90518 0.631377 0
M  V30 11 H -0.977 1.52953 0.210867 0
M  V30 12 H 0.981 2.67203 3.11629 0
M  V30 13 H -0.358 1.57376 2.7183 0
M  V30 14 H -1.165 3.90944 3.18086 0
M  V30 15 H -1.563 3.418 1.51819 0
M  V30 16 H 0.729 5.58782 3.83104 0
M  V30 17 H 1.672 6.56266 2.65933 0
M  V30 18 H 2.08 4.83886 2.90714 0
M  V30 19 N 1.4781 -0.272755 1.55222 0
M  V30 20 C 2.7251 -1.00433 1.7584 0
M  V30 21 C 3.0531 -1.86275 0.559629 0
M  V30 22 O 2.3081 -1.90269 -0.457857 0
M  V30 23 C 2.6071 -1.91642 3.01675 0
M  V30 24 C 2.2731 -1.21548 4.34208 0
M  V30 25 C 0.9351 -1.02166 4.70229 0
M  V30 26 C 3.2871 -0.716684 5.16249 0
M  V30 27 C 0.6151 -0.316334 5.85847 0
M  V30 28 C 2.9671 -0.0249476 6.32595 0
M  V30 29 C 1.6311 0.180579 6.67256 0
M  V30 30 H 0.9011 -0.367509 0.643443 0
M  V30 31 H 3.5481 -0.276596 1.89492 0
M  V30 32 H 1.8531 -2.71037 2.82924 0
M  V30 33 H 3.5501 -2.48369 3.14824 0
M  V30 34 H 0.1401 -1.37645 4.05896 0
M  V30 35 H 4.3241 -0.854047 4.88896 0
M  V30 36 H -0.4199 -0.146378 6.11225 0
M  V30 37 H 3.7541 0.369311 6.9542 0
M  V30 38 H 1.3811 0.729098 7.56696 0
M  V30 39 N 2.9562 -1.48159 -0.537278 0
M  V30 40 C 3.8882 -1.58218 -1.65831 0
M  V30 41 C 4.9012 -0.466948 -1.5596 0
M  V30 42 O 6.0902 -0.73747 -1.62553 0
M  V30 43 C 3.1902 -1.48906 -3.04434 0
M  V30 44 C 2.3632 -2.75343 -3.3986 0
M  V30 45 C 1.4222 -2.59588 -4.57712 0
M  V30 46 O 0.4482 -3.33457 -4.61297 0
M  V30 47 N 1.6502 -1.68724 -5.55439 0
M  V30 48 H 4.4152 -2.54891 -1.57641 0
M  V30 49 H 1.9762 -1.4479 -0.724386 0
M  V30 50 H 3.9682 -1.36072 -3.81139 0
M  V30 51 H 2.5382 -0.602368 -3.06741 0
M  V30 52 H 1.7582 -3.02795 -2.52406 0
M  V30 53 H 3.0462 -3.5924 -3.60311 0
M  V30 54 H 2.4442 -1.07898 -5.55315 0
M  V30 55 H 1.0012 -1.61832 -6.3139 0
M  V30 56 N 4.4343 0.785586 -1.36625 0
M  V30 57 C 5.3973 1.87999 -1.31107 0
M  V30 58 C 6.3973 1.59316 -0.217959 0
M  V30 59 O 7.5873 1.67656 -0.472977 0
M  V30 60 C 4.7193 3.24861 -1.03334 0
M  V30 61 H 5.9123 1.94307 -2.2844 0
M  V30 62 H 3.4653 0.983813 -1.21453 0
M  V30 63 H 4.2003 3.24235 -0.0647432 0
M  V30 64 H 3.9853 3.4707 -1.82441 0
M  V30 65 H 5.4753 4.04929 -1.02088 0
M  V30 66 N 5.9124 1.20967 1.01018 0
M  V30 67 C 7.1374 1.0503 1.78839 0
M  V30 68 C 7.5624 -0.395752 1.8389 0
M  V30 69 O 6.9204 -1.28529 1.27867 0
M  V30 70 C 6.9684 1.64602 3.2084 0
M  V30 71 O 6.0724 0.887988 4.02726 0
M  V30 72 H 5.4134 0.369987 0.551367 0
M  V30 73 H 7.9434 1.60399 1.27018 0
M  V30 74 H 7.9534 1.68607 3.71532 0
M  V30 75 H 6.6284 2.69841 3.16479 0
M  V30 76 H 5.2054 0.922648 3.61305 0
M  V30 77 N 7.3905 -1.2043 1.01659 0
M  V30 78 C 8.3235 -2.21924 0.531521 0
M  V30 79 C 9.3015 -1.57054 -0.421032 0
M  V30 80 O 10.4855 -1.85389 -0.341035 0
M  V30 81 C 7.6125 -3.37942 -0.226496 0
M  V30 82 C 6.6585 -4.21115 0.67561 0
M  V30 83 S 7.4915 -4.90674 2.14475 0
M  V30 84 C 8.6475 -6.10113 1.3969 0
M  V30 85 H 8.8805 -2.62725 1.3915 0
M  V30 86 H 6.4135 -1.30481 0.825479 0
M  V30 87 H 8.3715 -4.05196 -0.657738 0
M  V30 88 H 7.0325 -2.956 -1.06205 0
M  V30 89 H 6.2255 -5.03918 0.091108 0
M  V30 90 H 5.8275 -3.59115 1.04463 0
M  V30 91 H 8.1195 -6.7411 0.676897 0
M  V30 92 H 9.0625 -6.73022 2.20107 0
M  V30 93 H 9.4705 -5.57283 0.899786 0
M  V30 94 N 8.8686 -0.792821 -1.36206 0
M  V30 95 C 10.2846 -0.474903 -1.52371 0
M  V30 96 C 10.4846 1.00622 -1.74578 0
M  V30 97 O 9.5406 1.79162 -1.77924 0
M  V30 98 C 10.8536 -1.3083 -2.70747 0
M  V30 99 C 12.4016 -1.30234 -2.84619 0
M  V30 100 C 12.8766 -2.11956 -4.06004 0
M  V30 101 N 14.3676 -2.09419 -4.13156 0
M  V30 102 C 15.1026 -2.69419 -5.06163 0
M  V30 103 N 14.5986 -3.3829 -6.04592 0
M  V30 104 N 16.3916 -2.59134 -4.98804 0
M  V30 105 H 8.5426 -1.75222 -1.20046 0
M  V30 106 H 10.8056 -0.745024 -0.586211 0
M  V30 107 H 10.5116 -2.35881 -2.6087 0
M  V30 108 H 10.3856 -0.95196 -3.6499 0
M  V30 109 H 12.7726 -0.259748 -2.93955 0
M  V30 110 H 12.8536 -1.69847 -1.91274 0
M  V30 111 H 12.4976 -3.16248 -3.97429 0
M  V30 112 H 12.4276 -1.69711 -4.98503 0
M  V30 113 H 14.9186 -1.59297 -3.42685 0
M  V30 114 H 15.2316 -3.81394 -6.7213 0
M  V30 115 H 13.5766 -3.42393 -6.04807 0
M  V30 116 H 16.7676 -2.04927 -4.20859 0
M  V30 117 H 16.9406 -3.06185 -5.711 0
M  V30 118 N 10.3467 1.47872 -0.545128 0
M  V30 119 C 11.5717 2.07391 -0.0190611 0
M  V30 120 C 11.9967 1.39688 1.25971 0
M  V30 121 O 11.3547 0.467816 1.7516 0
M  V30 122 C 11.4027 3.60188 0.172335 0
M  V30 123 O 10.5067 3.9339 1.23766 0
M  V30 124 H 9.8477 0.662411 -0.0459059 0
M  V30 125 H 12.3777 1.90066 -0.757365 0
M  V30 126 H 12.3877 4.06129 0.390305 0
M  V30 127 H 11.0627 4.08865 -0.761725 0
M  V30 128 H 9.6397 3.5921 1.00114 0
M  V30 129 N 11.8248 0.280983 1.55075 0
M  V30 130 C 13.2358 -0.215629 1.85451 0
M  V30 131 C 13.5868 -1.54991 1.203 0
M  V30 132 O 12.7118 -2.10699 0.493435 0
M  V30 133 C 13.3068 -0.398026 3.36454 0
M  V30 134 C 11.8658 -0.838866 3.66933 0
M  V30 135 C 11.0128 0.064458 2.77225 0
M  V30 136 H 13.9638 0.502601 1.50531 0
M  V30 137 H 13.9848 -1.23569 3.59876 0
M  V30 138 H 13.4968 0.573241 3.83843 0
M  V30 139 H 11.5978 -1.8214 3.25048 0
M  V30 140 H 11.7108 -0.672123 4.74362 0
M  V30 141 H 10.0748 -0.452863 2.50642 0
M  V30 142 H 10.8578 1.03172 3.2743 0
M  V30 143 N 13.3029 -1.57598 0.00835791 0
M  V30 144 C 14.2509 -2.10078 -0.998508 0
M  V30 145 C 15.2449 -1.02262 -1.35051 0
M  V30 146 O 16.4509 -1.20719 -1.33518 0
M  V30 147 H 12.8259 -0.670903 -0.339696 0
M  V30 148 H 14.7969 -2.93648 -0.530398 0
M  V30 149 C 13.5459 -2.62615 -2.27879 0
M  V30 150 H 12.8689 -3.45213 -2.01662 0
M  V30 151 H 14.3089 -3.03004 -2.96588 0
M  V30 152 C 12.7679 -1.54407 -2.99433 0
M  V30 153 O 13.2979 -0.931812 -3.90743 0
M  V30 154 N 11.5039 -1.2695 -2.61404 0
M  V30 155 H 11.0509 -1.76924 -1.87232 0
M  V30 156 H 11.0089 -0.547704 -3.09593 0
M  V30 157 N 14.781 0.264519 -1.55364 0
M  V30 158 C 15.714 1.35297 -1.83766 0
M  V30 159 C 16.692 1.47171 -0.691336 0
M  V30 160 O 17.876 1.63663 -0.935238 0
M  V30 161 C 15.003 2.72847 -2.00679 0
M  V30 162 C 14.049 2.78214 -3.23263 0
M  V30 163 S 14.882 2.36601 -4.80396 0
M  V30 164 C 16.038 3.7611 -5.00292 0
M  V30 165 H 16.271 1.11003 -2.758 0
M  V30 166 H 13.804 0.464596 -1.47244 0
M  V30 167 H 15.762 3.52057 -2.11108 0
M  V30 168 H 14.423 2.94388 -1.09518 0
M  V30 169 H 13.616 3.7919 -3.3201 0
M  V30 170 H 13.218 2.07034 -3.11469 0
M  V30 171 H 15.51 4.71457 -4.86554 0
M  V30 172 H 16.453 3.7231 -6.02321 0
M  V30 173 H 16.861 3.67806 -4.28228 0
M  V30 174 N 16.2591 1.48442 0.529413 0
M  V30 175 C 17.1691 1.6569 1.66084 0
M  V30 176 C 18.1851 0.539432 1.65427 0
M  V30 177 O 19.3611 0.810572 1.84368 0
M  V30 178 C 16.4261 1.69315 3.02545 0
M  V30 179 C 15.4871 2.92694 3.14052 0
M  V30 180 C 14.7201 2.96137 4.44003 0
M  V30 181 O 14.9431 2.07973 5.31134 0
M  V30 182 O 13.8771 3.88312 4.59888 0
M  V30 183 H 17.7031 2.61483 1.54469 0
M  V30 184 H 15.2881 1.3185 0.702567 0
M  V30 185 H 17.1701 1.74217 3.83701 0
M  V30 186 H 15.8451 0.766966 3.14483 0
M  V30 187 H 14.7521 2.93324 2.32189 0
M  V30 188 H 16.0851 3.84699 3.0703 0
M  V30 189 N 17.7372 -0.778329 1.37039 0
M  V30 190 C 19.1482 -1.35421 1.28523 0
M  V30 191 C 19.4992 -1.96075 -0.0700901 0
M  V30 192 O 18.6242 -1.93352 -0.971801 0
M  V30 193 C 19.2192 -2.46211 2.32735 0
M  V30 194 C 17.7782 -2.99585 2.27873 0
M  V30 195 C 16.9252 -1.72748 2.16918 0
M  V30 196 H 19.8762 -0.5791 1.47757 0
M  V30 197 H 19.8972 -3.2552 1.9702 0
M  V30 198 H 19.4092 -2.02036 3.31365 0
M  V30 199 H 17.5102 -3.48152 1.32745 0
M  V30 200 H 17.6232 -3.55646 3.21018 0
M  V30 201 H 15.9872 -1.95416 1.63354 0
M  V30 202 H 16.7702 -1.30686 3.17452 0
M  V30 203 N 19.2153 -1.21501 -1.00376 0
M  V30 204 C 20.4623 -1.03299 -1.74171 0
M  V30 205 C 20.7903 0.433326 -1.89612 0
M  V30 206 O 20.0453 1.33779 -1.42834 0
M  V30 207 C 20.3443 -1.67673 -3.15627 0
M  V30 208 C 20.0103 -3.17533 -3.2013 0
M  V30 209 C 18.6723 -3.58427 -3.21067 0
M  V30 210 C 21.0243 -4.13504 -3.17275 0
M  V30 211 C 18.3523 -4.93794 -3.16835 0
M  V30 212 C 20.7043 -5.48834 -3.14585 0
M  V30 213 C 19.3683 -5.89123 -3.13831 0
M  V30 214 H 18.6383 -0.377999 -0.637336 0
M  V30 215 H 21.2853 -1.51111 -1.17634 0
M  V30 216 H 19.5903 -1.12158 -3.75404 0
M  V30 217 H 21.2873 -1.51091 -3.71446 0
M  V30 218 H 17.8773 -2.84965 -3.20145 0
M  V30 219 H 22.0613 -3.82936 -3.15711 0
M  V30 220 H 17.3173 -5.24255 -3.1459 0
M  V30 221 H 21.4913 -6.22934 -3.1133 0
M  V30 222 H 19.1183 -6.93984 -3.10307 0
M  V30 223 N 20.6934 1.19889 -1.02296 0
M  V30 224 C 21.6404 2.22901 -0.598651 0
M  V30 225 C 22.6104 1.61588 0.384521 0
M  V30 226 O 23.7954 1.88697 0.282522 0
M  V30 227 C 20.9354 3.45063 0.0504476 0
M  V30 228 C 20.0484 4.20783 -0.978053 0
M  V30 229 C 19.1834 5.30356 -0.299338 0
M  V30 230 C 18.2224 5.97826 -1.31416 0
M  V30 231 N 17.3594 6.98975 -0.661667 0
M  V30 232 H 22.1994 2.58554 -1.48169 0
M  V30 233 H 19.7364 1.27039 -0.741584 0
M  V30 234 H 21.6944 4.14831 0.443971 0
M  V30 235 H 20.3244 3.10084 0.897097 0
M  V30 236 H 19.3764 3.50018 -1.48969 0
M  V30 237 H 20.6884 4.67109 -1.74958 0
M  V30 238 H 19.8424 6.06516 0.149347 0
M  V30 239 H 18.5814 4.85084 0.504445 0
M  V30 240 H 17.5864 5.20422 -1.77317 0
M  V30 241 H 18.8114 6.45183 -2.11933 0
M  V30 242 H 16.7574 6.55886 0.122132 0
M  V30 243 H 16.6744 7.43461 -1.37117 0
M  V30 244 H 17.9424 7.7914 -0.236785 0
M  V30 245 N 22.1715 0.800033 1.35784 0
M  V30 246 C 23.1035 0.163596 2.28615 0
M  V30 247 C 24.1165 -0.633317 1.49976 0
M  V30 248 O 25.3055 -0.466754 1.72289 0
M  V30 249 C 22.4055 -0.790958 3.29541 0
M  V30 250 C 21.5785 -0.0418255 4.3738 0
M  V30 251 C 20.6375 -0.91389 5.18203 0
M  V30 252 O 19.6635 -0.367234 5.68014 0
M  V30 253 N 20.8655 -2.23682 5.35674 0
M  V30 254 H 23.6305 0.96105 2.83873 0
M  V30 255 H 21.1915 0.654894 1.48063 0
M  V30 256 H 23.1835 -1.37844 3.80501 0
M  V30 257 H 21.7535 -1.48925 2.74846 0
M  V30 258 H 20.9735 0.726813 3.87442 0
M  V30 259 H 22.2615 0.474719 5.06581 0
M  V30 260 H 21.6595 -2.70497 4.96838 0
M  V30 261 H 20.2165 -2.77369 5.89839 0
M  V30 262 N 23.6496 -1.47581 0.552962 0
M  V30 263 C 24.5816 -2.27997 -0.234533 0
M  V30 264 C 25.5946 -1.36753 -0.883321 0
M  V30 265 O 26.7836 -1.61612 -0.757889 0
M  V30 266 C 23.8836 -3.10879 -1.34935 0
M  V30 267 C 23.0566 -4.30056 -0.798158 0
M  V30 268 C 22.1156 -4.94567 -1.79694 0
M  V30 269 O 21.1416 -5.53087 -1.34474 0
M  V30 270 N 22.3436 -4.88878 -3.13015 0
M  V30 271 H 25.1086 -2.96222 0.455255 0
M  V30 272 H 22.6696 -1.57163 0.388761 0
M  V30 273 H 24.6616 -3.50903 -2.01616 0
M  V30 274 H 23.2316 -2.44924 -1.94244 0
M  V30 275 H 22.4516 -3.94174 0.0453079 0
M  V30 276 H 23.7396 -5.07152 -0.409173 0
M  V30 277 H 23.1376 -4.42526 -3.52402 0
M  V30 278 H 21.6946 -5.32934 -3.75266 0
M  V30 279 N 25.1277 -0.289203 -1.54924 0
M  V30 280 C 26.0747 0.592115 -2.23075 0
M  V30 281 C 27.0447 1.13881 -1.20915 0
M  V30 282 O 28.2297 1.18551 -1.495 0
M  V30 283 C 25.3697 1.76376 -2.96623 0
M  V30 284 C 24.4827 1.24959 -4.13533 0
M  V30 285 C 23.6177 2.38416 -4.74691 0
M  V30 286 C 22.6567 1.84072 -5.83767 0
M  V30 287 N 21.7937 2.91057 -6.38929 0
M  V30 288 H 26.6337 0.00432038 -2.98 0
M  V30 289 H 24.1707 -0.00963529 -1.47097 0
M  V30 290 H 26.1287 2.45268 -3.3749 0
M  V30 291 H 24.7587 2.32337 -2.24097 0
M  V30 292 H 23.8107 0.453307 -3.77689 0
M  V30 293 H 25.1227 0.811662 -4.92152 0
M  V30 294 H 24.2767 3.15276 -5.18349 0
M  V30 295 H 23.0157 2.8553 -3.95378 0
M  V30 296 H 22.0207 1.05697 -5.39545 0
M  V30 297 H 23.2457 1.37877 -6.64956 0
M  V30 298 H 21.1917 3.37526 -5.62505 0
M  V30 299 H 21.1087 2.51724 -7.12861 0
M  V30 300 H 22.3767 3.6785 -6.87246 0
M  V30 301 N 26.6058 1.57591 -0.0167156 0
M  V30 302 C 27.8518 1.91567 0.665582 0
M  V30 303 C 28.1848 0.892298 1.72487 0
M  V30 304 O 27.4598 -0.0867127 1.94307 0
M  V30 305 C 27.7428 3.36069 1.29342 0
M  V30 306 C 27.5958 4.49135 0.244541 0
M  V30 307 C 28.9148 3.803 2.21495 0
M  V30 308 H 26.0338 0.69666 0.240488 0
M  V30 309 H 28.6758 1.89866 -0.0714356 0
M  V30 310 H 26.8258 3.3765 1.92158 0
M  V30 311 H 28.4978 4.59689 -0.385228 0
M  V30 312 H 26.7408 4.3165 -0.431379 0
M  V30 313 H 27.4118 5.47242 0.723207 0
M  V30 314 H 29.8878 3.80377 1.68678 0
M  V30 315 H 28.7638 4.82127 2.62382 0
M  V30 316 H 29.0248 3.15104 3.101 0
M  V30 317 N 28.0839 -0.256276 1.55502 0
M  V30 318 C 28.9939 -1.33882 1.92647 0
M  V30 319 C 30.0099 -1.53159 0.825727 0
M  V30 320 O 31.1859 -1.66963 1.12629 0
M  V30 321 C 28.2509 -2.6751 2.20543 0
M  V30 322 C 27.3119 -2.56836 3.43997 0
M  V30 323 C 26.5449 -3.84092 3.70553 0
M  V30 324 O 26.7679 -4.85545 2.99336 0
M  V30 325 O 25.7019 -3.83288 4.64084 0
M  V30 326 H 29.5279 -1.05374 2.84833 0
M  V30 327 H 27.1129 -0.456237 1.42263 0
M  V30 328 H 28.9949 -3.46492 2.39835 0
M  V30 329 H 27.6699 -2.9577 1.31536 0
M  V30 330 H 26.5769 -1.76172 3.30021 0
M  V30 331 H 27.9099 -2.33523 4.33275 0
M  V30 332 N 29.562 -1.4872 -0.521534 0
M  V30 333 C 30.839 -1.4766 -1.2828 0
M  V30 334 C 31.219 -0.19292 -2.10217 0
M  V30 335 O 30.567 0.825193 -2.13079 0
M  V30 336 C 30.777 -2.74358 -2.15705 0
M  V30 337 C 32.125 -3.23028 -2.75569 0
M  V30 338 O 33.149 -2.75333 -2.25987 0
M  V30 339 O 32.008 -4.0604 -3.65778 0
M  V30 340 H 29.102 -0.590085 -0.579421 0
M  V30 341 H 31.648 -1.60963 -0.537492 0
M  V30 342 H 30.42 -3.59292 -1.54999 0
M  V30 343 H 30.043 -2.63816 -2.97467 0
M  V30 344 N 31.0401 0.771051 -1.3745 0
M  V30 345 C 32.2871 1.52963 -1.32697 0
M  V30 346 C 32.6151 1.94299 0.0883274 0
M  V30 347 O 31.8701 1.64397 1.0617 0
M  V30 348 C 32.1691 2.80676 -2.2126 0
M  V30 349 C 31.8351 2.58389 -3.69521 0
M  V30 350 C 30.4971 2.52019 -4.09927 0
M  V30 351 C 32.8491 2.38469 -4.63446 0
M  V30 352 C 30.1771 2.23721 -5.42371 0
M  V30 353 C 32.5291 2.11694 -5.96128 0
M  V30 354 C 31.1931 2.03769 -6.35637 0
M  V30 355 H 30.4631 0.559732 -0.485573 0
M  V30 356 H 33.1101 0.888083 -1.69662 0
M  V30 357 H 31.4151 3.49392 -1.77291 0
M  V30 358 H 33.1121 3.38557 -2.14895 0
M  V30 359 H 29.7021 2.6421 -3.37478 0
M  V30 360 H 33.8861 2.4238 -4.33089 0
M  V30 361 H 29.1421 2.16081 -5.71943 0
M  V30 362 H 33.3161 1.9528 -6.6846 0
M  V30 363 H 30.9431 1.81606 -7.38189 0
M  V30 364 N 32.5182 1.22032 0.997298 0
M  V30 365 C 33.7482 1.06686 1.76923 0
M  V30 366 C 34.1562 -0.385838 1.85224 0
M  V30 367 O 33.4992 -1.27929 1.31833 0
M  V30 368 C 33.5612 1.59802 3.22031 0
M  V30 369 C 33.2252 3.08362 3.37286 0
M  V30 370 C 34.2222 4.05835 3.24952 0
M  V30 371 C 31.9072 3.47727 3.6248 0
M  V30 372 C 33.9012 5.4066 3.37588 0
M  V30 373 C 31.5882 4.82701 3.74757 0
M  V30 374 C 32.5862 5.78977 3.62319 0
M  V30 375 O 32.2742 7.11502 3.74193 0
M  V30 376 H 32.0062 0.374767 0.562606 0
M  V30 377 H 34.5602 1.61991 1.26286 0
M  V30 378 H 32.7902 0.989003 3.73839 0
M  V30 379 H 34.4792 1.40184 3.80924 0
M  V30 380 H 35.2452 3.76766 3.05405 0
M  V30 381 H 31.1242 2.73317 3.7124 0
M  V30 382 H 34.6682 6.15788 3.27796 0
M  V30 383 H 30.5652 5.11453 3.9381 0
M  V30 384 H 31.3332 7.19019 3.91093 0
M  V30 385 N 33.9963 -1.19345 1.0293 0
M  V30 386 C 35.2733 -1.84811 0.640642 0
M  V30 387 C 35.6533 -1.91855 -0.88062 0
M  V30 388 O 35.0013 -1.43587 -1.7775 0
M  V30 389 C 35.2113 -3.23755 1.30321 0
M  V30 390 C 36.5593 -3.99912 1.42673 0
M  V30 391 O 37.5833 -3.33155 1.26041 0
M  V30 392 O 36.4423 -5.19494 1.6967 0
M  V30 393 H 33.5363 -0.796443 0.222726 0
M  V30 394 H 36.0823 -1.26831 1.12748 0
M  V30 395 H 34.8543 -3.13466 2.34211 0
M  V30 396 H 34.4773 -3.89381 0.804261 0
M  V30 397 N 35.4744 -0.807222 -1.35358 0
M  V30 398 C 36.7234 -0.384376 -1.98004 0
M  V30 399 C 37.0364 1.0543 -1.64754 0
M  V30 400 O 38.2424 1.58029 -2.20769 0
M  V30 401 C 36.6984 -0.636326 -3.5423 0
M  V30 402 C 36.3064 -2.08759 -3.96388 0
M  V30 403 C 38.0504 -0.278869 -4.23583 0
M  V30 404 C 35.9574 -2.28525 -5.45463 0
M  V30 405 H 34.8874 -0.139986 -0.740891 0
M  V30 406 H 37.5384 -0.991369 -1.54415 0
M  V30 407 H 35.9204 0.0406256 -3.95979 0
M  V30 408 H 37.0944 -2.8024 -3.6579 0
M  V30 409 H 35.4094 -2.40497 -3.39926 0
M  V30 410 H 38.0064 -0.404599 -5.33167 0
M  V30 411 H 38.3494 0.775012 -4.09022 0
M  V30 412 H 38.8824 -0.909764 -3.87257 0
M  V30 413 H 35.6214 -3.32361 -5.64992 0
M  V30 414 H 35.1414 -1.61569 -5.77629 0
M  V30 415 H 36.8204 -2.10109 -6.11934 0
M  V30 416 N 36.9525 1.47285 -0.560781 0
M  V30 417 C 38.2005 2.02064 -0.0379868 0
M  V30 418 C 38.5215 1.43711 1.31803 0
M  V30 419 O 37.7915 0.61362 1.86042 0
M  V30 420 H 36.3715 0.746918 -0.0110531 0
M  V30 421 H 39.0335 1.80648 -0.731598 0
M  V30 422 H 38.1295 3.12064 0.0474463 0
M  V30 423 N 38.4306 0.297415 1.54768 0
M  V30 424 C 39.3406 -0.58983 2.27064 0
M  V30 425 C 40.3566 -1.15144 1.30453 0
M  V30 426 O 41.5326 -1.17699 1.63428 0
M  V30 427 C 38.5976 -1.74714 2.9946 0
M  V30 428 C 37.6586 -1.21997 4.11601 0
M  V30 429 C 36.8916 -2.32212 4.80535 0
M  V30 430 O 37.1146 -3.52036 4.48806 0
M  V30 431 O 36.0486 -1.99106 5.68014 0
M  V30 432 H 39.8746 -0.00348199 3.037 0
M  V30 433 H 37.4596 0.0640035 1.49263 0
M  V30 434 H 39.3416 -2.42147 3.44881 0
M  V30 435 H 38.0166 -2.32016 2.25722 0
M  V30 436 H 36.9236 -0.511458 3.70587 0
M  V30 437 H 38.2566 -0.692419 4.87305 0
M  V30 438 N 39.9087 -1.5758 0.0250728 0
M  V30 439 C 40.8187 -2.1343 -0.973905 0
M  V30 440 C 41.8347 -1.08556 -1.35984 0
M  V30 441 O 43.0107 -1.40592 -1.44207 0
M  V30 442 C 40.0757 -2.64703 -2.23904 0
M  V30 443 C 39.1367 -3.84276 -1.91391 0
M  V30 444 C 38.3697 -4.33095 -3.11873 0
M  V30 445 O 38.5927 -3.81107 -4.24398 0
M  V30 446 O 37.5267 -5.24984 -2.94406 0
M  V30 447 H 41.3527 -2.99057 -0.529036 0
M  V30 448 H 38.9377 -1.48118 -0.195288 0
M  V30 449 H 40.8197 -2.97769 -2.98181 0
M  V30 450 H 39.4947 -1.82161 -2.6758 0
M  V30 451 H 38.4017 -3.56143 -1.14511 0
M  V30 452 H 39.7347 -4.67968 -1.52534 0
M  V30 453 N 41.3868 0.248026 -1.55636 0
M  V30 454 C 42.3168 1.31079 -1.93237 0
M  V30 455 C 43.2978 1.50264 -0.797174 0
M  V30 456 O 44.4828 1.62891 -1.05737 0
M  V30 457 C 41.6128 2.66575 -2.22609 0
M  V30 458 C 40.5668 2.62087 -3.3837 0
M  V30 459 C 39.8928 4.01369 -3.53281 0
M  V30 460 C 41.1928 2.19171 -4.7409 0
M  V30 461 H 42.8868 0.998556 -2.82257 0
M  V30 462 H 40.4328 0.47891 -1.35803 0
M  V30 463 H 42.3858 3.41057 -2.47503 0
M  V30 464 H 41.1098 2.99432 -1.30414 0
M  V30 465 H 39.7688 1.90063 -3.13483 0
M  V30 466 H 39.4168 4.31489 -2.58508 0
M  V30 467 H 39.1168 3.99254 -4.31127 0
M  V30 468 H 40.6408 4.77552 -3.80495 0
M  V30 469 H 42.0548 2.83384 -4.98363 0
M  V30 470 H 40.4518 2.2817 -5.5503 0
M  V30 471 H 41.5218 1.14336 -4.71227 0
M  V30 472 N 42.8649 1.48995 0.513639 0
M  V30 473 C 44.1129 1.57531 1.26604 0
M  V30 474 C 44.4339 0.258236 1.93283 0
M  V30 475 O 43.7039 -0.721502 1.8213 0
M  V30 476 H 42.2839 0.580387 0.470276 0
M  V30 477 H 44.9459 1.85552 0.596373 0
M  V30 478 H 44.0419 2.36486 2.03669 0
M  V30 479 N 44.343 -0.763751 1.37857 0
M  V30 480 C 45.568 -1.55805 1.36893 0
M  V30 481 C 45.993 -1.88054 -0.0416135 0
M  V30 482 O 45.351 -1.49825 -1.02089 0
M  V30 483 C 45.399 -2.84012 2.22192 0
M  V30 484 O 44.503 -3.78732 1.63204 0
M  V30 485 H 43.844 -0.471638 0.46739 0
M  V30 486 H 46.374 -0.944657 1.81487 0
M  V30 487 H 46.384 -3.33037 2.35691 0
M  V30 488 H 45.059 -2.59869 3.24716 0
M  V30 489 H 43.636 -3.37402 1.58791 0
M  V30 490 N 45.8211 -1.22559 -0.990812 0
M  V30 491 C 47.0691 -1.04933 -1.72724 0
M  V30 492 C 47.3901 0.416158 -1.90508 0
M  V30 493 O 46.6601 1.29918 -1.46622 0
M  V30 494 H 45.2401 -0.385296 -0.639965 0
M  V30 495 H 47.9021 -1.54105 -1.19322 0
M  V30 496 H 46.9981 -1.52886 -2.72089 0
M  V30 497 N 47.2992 1.18797 -1.03562 0
M  V30 498 C 48.2312 2.21731 -0.580337 0
M  V30 499 C 49.2442 1.59051 0.347349 0
M  V30 500 O 50.4332 1.77929 0.142669 0
M  V30 501 C 47.5332 3.38459 0.172805 0
M  V30 502 C 46.7062 4.3072 -0.761496 0
M  V30 503 C 45.7652 5.26174 -0.0525547 0
M  V30 504 O 44.7912 5.65108 -0.681333 0
M  V30 505 N 45.9932 5.67624 1.21586 0
M  V30 506 H 48.7582 2.61417 -1.46565 0
M  V30 507 H 46.3192 1.33531 -0.915476 0
M  V30 508 H 48.3112 3.99335 0.656793 0
M  V30 509 H 46.8812 2.97507 0.959602 0
M  V30 510 H 46.1012 3.67525 -1.42544 0
M  V30 511 H 47.3892 4.89267 -1.39626 0
M  V30 512 H 46.7872 5.38038 1.74732 0
M  V30 513 H 45.3442 6.30721 1.64421 0
M  V30 514 N 48.7773 0.814389 1.34928 0
M  V30 515 C 50.0243 0.398423 1.98542 0
M  V30 516 C 50.3523 -1.03638 1.64589 0
M  V30 517 O 49.6073 -1.73509 0.90516 0
M  V30 518 C 49.9063 0.537781 3.53331 0
M  V30 519 C 49.5723 1.93704 4.07172 0
M  V30 520 C 48.2343 2.31984 4.21589 0
M  V30 521 C 50.5863 2.85213 4.36237 0
M  V30 522 C 47.9143 3.61125 4.62391 0
M  V30 523 C 50.2663 4.13809 4.78482 0
M  V30 524 C 48.9303 4.52077 4.91104 0
M  V30 525 H 48.2003 0.145793 0.726516 0
M  V30 526 H 50.8473 1.03669 1.61012 0
M  V30 527 H 49.1523 -0.183906 3.91368 0
M  V30 528 H 50.8493 0.196588 4.00518 0
M  V30 529 H 47.4393 1.62966 3.96409 0
M  V30 530 H 51.6233 2.56885 4.24645 0
M  V30 531 H 46.8793 3.90612 4.70353 0
M  V30 532 H 51.0533 4.84811 4.99932 0
M  V30 533 H 48.6803 5.52196 5.22478 0
M  V30 534 N 50.2554 -1.46986 0.568584 0
M  V30 535 C 51.2184 -2.28624 -0.162366 0
M  V30 536 C 52.2184 -1.37596 -0.832103 0
M  V30 537 O 53.4084 -1.60115 -0.68622 0
M  V30 538 C 50.5404 -3.17596 -1.23878 0
M  V30 539 H 51.7334 -2.94722 0.554899 0
M  V30 540 H 49.2864 -1.52863 0.325976 0
M  V30 541 H 50.0214 -2.56214 -1.98808 0
M  V30 542 H 49.8064 -3.846 -0.763219 0
M  V30 543 H 51.2964 -3.79078 -1.75185 0
M  V30 544 N 51.7335 -0.305618 -1.54608 0
M  V30 545 C 52.9825 0.303098 -1.9941 0
M  V30 546 C 53.2955 1.54648 -1.19764 0
M  V30 547 O 54.5015 2.23007 -1.54855 0
M  V30 548 C 52.9575 0.590588 -3.55021 0
M  V30 549 C 52.5655 -0.634719 -4.43481 0
M  V30 550 C 54.3095 1.16025 -4.08336 0
M  V30 551 C 52.2165 -0.320126 -5.90533 0
M  V30 552 H 51.1465 0.117031 -0.744862 0
M  V30 553 H 53.7975 -0.415045 -1.78745 0
M  V30 554 H 52.1795 1.36845 -3.71604 0
M  V30 555 H 53.3535 -1.41079 -4.38672 0
M  V30 556 H 51.6685 -1.12333 -4.00962 0
M  V30 557 H 54.2655 1.40994 -5.15776 0
M  V30 558 H 54.6085 2.10397 -3.5922 0
M  V30 559 H 55.1415 0.443985 -3.95315 0
M  V30 560 H 51.8805 -1.23254 -6.43808 0
M  V30 561 H 51.4005 0.418579 -5.98338 0
M  V30 562 H 53.0795 0.0766241 -6.46955 0
M  V30 563 N 53.2116 1.57565 -0.0334293 0
M  V30 564 C 54.4576 1.92262 0.645226 0
M  V30 565 C 54.7906 0.910543 1.71531 0
M  V30 566 O 54.0656 -0.066099 1.94388 0
M  V30 567 C 54.3486 3.37422 1.2577 0
M  V30 568 C 54.2016 4.49369 0.196891 0
M  V30 569 C 55.5206 3.82628 2.17449 0
M  V30 570 H 52.6396 0.699171 0.233085 0
M  V30 571 H 55.2816 1.89779 -0.0915694 0
M  V30 572 H 53.4316 3.39669 1.88566 0
M  V30 573 H 55.1036 4.59254 -0.433962 0
M  V30 574 H 53.3466 4.31168 -0.477137 0
M  V30 575 H 54.0176 5.47978 0.665124 0
M  V30 576 H 56.4936 3.82145 1.64634 0
M  V30 577 H 55.3696 4.84883 2.57254 0
M  V30 578 H 55.6306 3.18376 3.0674 0
M  V30 579 N 54.6897 -0.239769 1.55765 0
M  V30 580 C 55.6367 -1.29696 1.90913 0
M  V30 581 C 56.6067 -1.47478 0.764164 0
M  V30 582 O 57.7917 -1.61345 1.01845 0
M  V30 583 C 54.9317 -2.64598 2.21544 0
M  V30 584 C 54.0447 -2.54765 3.48882 0
M  V30 585 C 53.1797 -3.82069 3.69049 0
M  V30 586 C 52.2187 -3.66883 4.89963 0
M  V30 587 N 51.3557 -4.86094 5.06614 0
M  V30 588 H 56.1957 -0.990224 2.81067 0
M  V30 589 H 53.7327 -0.477684 1.39128 0
M  V30 590 H 55.6907 -3.43132 2.3731 0
M  V30 591 H 54.3207 -2.93405 1.34585 0
M  V30 592 H 53.3727 -1.67763 3.41409 0
M  V30 593 H 54.6847 -2.39457 4.37563 0
M  V30 594 H 53.8387 -4.69046 3.84812 0
M  V30 595 H 52.5777 -4.00282 2.78614 0
M  V30 596 H 51.5827 -2.78289 4.74168 0
M  V30 597 H 52.8077 -3.50157 5.81865 0
M  V30 598 H 50.7537 -5.04655 4.19117 0
M  V30 599 H 50.6707 -4.73443 5.89396 0
M  V30 600 H 51.9387 -5.74549 5.26795 0
M  V30 601 N 56.1678 -1.49265 -0.50573 0
M  V30 602 C 57.1148 -1.65585 -1.6078 0
M  V30 603 C 58.0848 -0.497396 -1.58478 0
M  V30 604 O 59.2698 -0.72385 -1.76536 0
M  V30 605 C 56.4098 -1.72408 -2.98948 0
M  V30 606 C 55.5228 -2.99525 -3.11301 0
M  V30 607 C 54.6578 -2.97356 -4.40174 0
M  V30 608 C 53.6968 -4.19074 -4.46143 0
M  V30 609 N 52.8338 -4.14841 -5.66437 0
M  V30 610 H 57.6738 -2.59688 -1.46172 0
M  V30 611 H 55.2108 -1.28761 -0.711261 0
M  V30 612 H 57.1688 -1.74344 -3.79025 0
M  V30 613 H 55.7988 -0.817753 -3.1227 0
M  V30 614 H 54.8508 -3.07222 -2.24318 0
M  V30 615 H 56.1628 -3.89518 -3.11572 0
M  V30 616 H 55.3168 -2.97829 -5.28567 0
M  V30 617 H 54.0558 -2.05133 -4.42461 0
M  V30 618 H 53.0608 -4.1885 -3.56153 0
M  V30 619 H 54.2858 -5.12483 -4.45575 0
M  V30 620 H 52.2318 -3.25453 -5.69575 0
M  V30 621 H 52.1488 -4.98564 -5.68304 0
M  V30 622 H 53.4168 -4.1941 -6.57051 0
M  V30 623 N 57.6459 0.756429 -1.3826 0
M  V30 624 C 58.8859 1.52833 -1.35725 0
M  V30 625 C 59.2499 1.91926 0.0534106 0
M  V30 626 O 60.4509 2.68028 0.203613 0
M  V30 627 C 58.7219 2.74919 -2.28373 0
M  V30 628 S 60.2809 3.64817 -2.43832 0
M  V30 629 H 57.0989 0.523043 -0.481608 0
M  V30 630 H 59.7009 0.888212 -1.74158 0
M  V30 631 H 58.4049 2.44304 -3.29763 0
M  V30 632 H 57.9359 3.43878 -1.91079 0
M  V30 633 H 59.9509 4.676 -1.66027 0
M  V30 634 N 59.124 1.23083 0.984299 0
M  V30 635 C 60.54 0.992637 1.24975 0
M  V30 636 C 60.74 -0.308618 1.99123 0
M  V30 637 O 59.796 -1.02905 2.30579 0
M  V30 638 C 61.109 2.19698 2.05312 0
M  V30 639 C 62.657 2.24147 2.18465 0
M  V30 640 C 63.132 3.44157 3.02192 0
M  V30 641 N 64.623 3.44372 3.09777 0
M  V30 642 C 65.358 4.33886 3.74874 0
M  V30 643 N 64.854 5.3363 4.41827 0
M  V30 644 N 66.647 4.21639 3.71721 0
M  V30 645 H 58.798 2.06731 0.487453 0
M  V30 646 H 61.061 0.906339 0.277944 0
M  V30 647 H 60.767 3.1411 1.58201 0
M  V30 648 H 60.641 2.20465 3.06064 0
M  V30 649 H 63.028 1.30277 2.64786 0
M  V30 650 H 63.109 2.27415 1.17115 0
M  V30 651 H 62.753 4.38332 2.56568 0
M  V30 652 H 62.683 3.3813 4.03702 0
M  V30 653 H 65.174 2.72201 2.62135 0
M  V30 654 H 65.487 5.98196 4.89266 0
M  V30 655 H 63.832 5.37534 4.40548 0
M  V30 656 H 67.023 3.42962 3.18582 0
M  V30 657 H 67.196 4.91604 4.22173 0
M  V30 658 N 60.6021 -1.18246 1.0419 0
M  V30 659 C 61.5121 -2.25574 0.644476 0
M  V30 660 C 62.5281 -1.70845 -0.329826 0
M  V30 661 O 63.7041 -2.00554 -0.184443 0
M  V30 662 C 60.7691 -3.46697 0.014877 0
M  V30 663 C 59.8301 -4.16554 1.03834 0
M  V30 664 C 59.0631 -5.31894 0.438692 0
M  V30 665 O 59.2861 -5.65385 -0.754752 0
M  V30 666 O 58.2201 -5.90459 1.168 0
M  V30 667 H 62.0461 -2.61836 1.53869 0
M  V30 668 H 59.6311 -1.25352 0.812854 0
M  V30 669 H 61.5131 -4.20062 -0.335538 0
M  V30 670 H 60.1881 -3.12255 -0.853138 0
M  V30 671 H 59.0951 -3.45251 1.44057 0
M  V30 672 H 60.4281 -4.54998 1.87716 0
M  V30 673 N 62.0802 -0.821533 -1.34494 0
M  V30 674 C 63.0272 -0.240397 -2.29545 0
M  V30 675 C 63.9972 0.634031 -1.53523 0
M  V30 676 O 65.1822 0.575966 -1.81899 0
M  V30 677 C 62.3222 0.592869 -3.39969 0
M  V30 678 C 61.4352 -0.30365 -4.30932 0
M  V30 679 C 60.5702 0.539049 -5.28458 0
M  V30 680 C 59.6092 -0.356942 -6.11058 0
M  V30 681 N 58.7462 0.446603 -7.00678 0
M  V30 682 H 63.5862 -1.05632 -2.7865 0
M  V30 683 H 61.1232 -0.532413 -1.37127 0
M  V30 684 H 63.0812 1.09129 -4.02675 0
M  V30 685 H 61.7112 1.37392 -2.92102 0
M  V30 686 H 60.7632 -0.920276 -3.691 0
M  V30 687 H 62.0752 -0.992661 -4.88823 0
M  V30 688 H 61.2292 1.102 -5.96608 0
M  V30 689 H 59.9682 1.26157 -4.71101 0
M  V30 690 H 58.9732 -0.932047 -5.41842 0
M  V30 691 H 60.1982 -1.07755 -6.70497 0
M  V30 692 H 58.1442 1.15282 -6.45791 0
M  V30 693 H 58.0612 -0.184048 -7.55776 0
M  V30 694 H 59.3292 0.992352 -7.73158 0
M  V30 695 N 63.5583 1.46682 -0.576371 0
M  V30 696 C 64.7833 2.07304 -0.0630475 0
M  V30 697 C 65.2083 1.42329 1.2298 0
M  V30 698 O 64.5663 0.504865 1.74129 0
M  V30 699 C 64.6143 3.60472 0.095895 0
M  V30 700 O 63.7183 3.95927 1.15394 0
M  V30 701 H 63.0593 0.661288 -0.0599463 0
M  V30 702 H 65.5893 1.88417 -0.797511 0
M  V30 703 H 65.5993 4.06865 0.304071 0
M  V30 704 H 64.2743 4.07157 -0.84828 0
M  V30 705 H 62.8513 3.61252 0.924724 0
M  V30 706 N 65.0364 0.313813 1.54444 0
M  V30 707 C 66.2644 -0.293918 2.04802 0
M  V30 708 C 66.6794 -1.46537 1.19047 0
M  V30 709 O 66.0364 -1.81182 0.218939 0
M  V30 710 C 66.0874 -0.737806 3.53891 0
M  V30 711 O 65.8084 0.387038 4.36387 0
M  V30 712 C 67.3094 -1.40936 4.203 0
M  V30 713 H 64.5294 -0.0620057 0.668129 0
M  V30 714 H 67.0734 0.457169 1.99324 0
M  V30 715 H 65.2284 -1.43889 3.59687 0
M  V30 716 H 65.6424 0.0391274 5.24485 0
M  V30 717 H 67.1164 -1.67099 5.26101 0
M  V30 718 H 67.5934 -2.35355 3.70816 0
M  V30 719 H 68.1994 -0.751117 4.18615 0
M  V30 720 N 66.5145 -1.57545 0.0417849 0
M  V30 721 C 67.7625 -1.91937 -0.632829 0
M  V30 722 C 68.0835 -0.919978 -1.71934 0
M  V30 723 O 67.3535 0.0366064 -1.95866 0
M  V30 724 H 65.9335 -0.708493 -0.236742 0
M  V30 725 H 68.5955 -1.9468 0.0925745 0
M  V30 726 H 67.6915 -2.92912 -1.07746 0
M  V30 727 N 67.9926 0.231505 -1.5589 0
M  V30 728 C 68.9226 1.29022 -1.94617 0
M  V30 729 C 69.9036 1.4941 -0.813067 0
M  V30 730 O 71.0886 1.6176 -1.07459 0
M  V30 731 C 68.2186 2.64199 -2.25424 0
M  V30 732 C 67.1726 2.58484 -3.41131 0
M  V30 733 C 66.4986 3.97599 -3.57518 0
M  V30 734 C 67.7986 2.1413 -4.76388 0
M  V30 735 H 69.4926 0.968563 -2.83301 0
M  V30 736 H 67.0386 0.464479 -1.36303 0
M  V30 737 H 68.9916 3.38413 -2.51107 0
M  V30 738 H 67.7156 2.98032 -1.33583 0
M  V30 739 H 66.3746 1.86727 -3.15481 0
M  V30 740 H 66.0226 4.28723 -2.6307 0
M  V30 741 H 65.7226 3.94659 -4.35337 0
M  V30 742 H 67.2466 4.7349 -3.85538 0
M  V30 743 H 68.6606 2.78083 -5.01341 0
M  V30 744 H 67.0576 2.2227 -5.57419 0
M  V30 745 H 68.1276 1.09331 -4.72414 0
M  V30 746 N 69.4707 1.49531 0.497807 0
M  V30 747 C 70.3807 1.69176 1.62532 0
M  V30 748 C 71.3967 0.5744 1.64246 0
M  V30 749 O 72.5727 0.849497 1.82608 0
M  V30 750 C 69.6377 1.75695 2.98885 0
M  V30 751 C 68.6987 2.9929 3.07773 0
M  V30 752 C 67.9317 3.05488 4.37622 0
M  V30 753 O 68.1547 2.19192 5.26603 0
M  V30 754 O 67.0887 3.9798 4.51548 0
M  V30 755 H 70.9147 2.647 1.48887 0
M  V30 756 H 68.4997 1.3331 0.674441 0
M  V30 757 H 70.3817 1.82317 3.79919 0
M  V30 758 H 69.0567 0.8335 3.12785 0
M  V30 759 H 67.9637 2.98183 2.25915 0
M  V30 760 H 69.2967 3.91125 2.98801 0
M  V30 761 N 70.9488 -0.749086 1.3866 0
M  V30 762 C 72.1788 -1.53611 1.38157 0
M  V30 763 C 72.5868 -1.89177 -0.0293595 0
M  V30 764 O 71.9298 -1.53606 -1.00752 0
M  V30 765 C 71.9918 -2.86087 2.17702 0
M  V30 766 C 71.6558 -2.73034 3.66472 0
M  V30 767 C 72.6528 -2.42526 4.59866 0
M  V30 768 C 70.3378 -2.90345 4.09884 0
M  V30 769 C 72.3318 -2.29492 5.94653 0
M  V30 770 C 70.0188 -2.7693 5.4475 0
M  V30 771 C 71.0168 -2.46547 6.36949 0
M  V30 772 O 70.7048 -2.33199 7.69333 0
M  V30 773 H 70.4368 -0.481773 0.474205 0
M  V30 774 H 72.9908 -0.934465 1.82912 0
M  V30 775 H 71.2208 -3.48458 1.67672 0
M  V30 776 H 72.9098 -3.47625 2.09551 0
M  V30 777 H 73.6758 -2.28816 4.27631 0
M  V30 778 H 69.5548 -3.1299 3.38464 0
M  V30 779 H 73.0988 -2.05698 6.66584 0
M  V30 780 H 68.9958 -2.90215 5.76581 0
M  V30 781 H 69.7638 -2.48376 7.79905 0
M  V30 782 N 72.4269 -1.23603 -0.977757 0
M  V30 783 C 73.3899 -1.02069 -2.05218 0
M  V30 784 C 74.3899 0.0184305 -1.60789 0
M  V30 785 O 75.5799 -0.221569 -1.72785 0
M  V30 786 C 72.7119 -0.544926 -3.36517 0
M  V30 787 H 73.9049 -1.9742 -2.25755 0
M  V30 788 H 71.4579 -1.05684 -1.15155 0
M  V30 789 H 72.1929 0.412241 -3.21669 0
M  V30 790 H 71.9779 -1.2948 -3.70105 0
M  V30 791 H 73.4679 -0.414985 -4.15533 0
M  V30 792 N 73.905 1.17692 -1.04816 0
M  V30 793 C 74.868 2.19787 -0.650117 0
M  V30 794 C 75.868 1.58044 0.296427 0
M  V30 795 O 77.058 1.74012 0.0808097 0
M  V30 796 C 74.19 3.40869 0.0456987 0
M  V30 797 H 75.383 2.56516 -1.5537 0
M  V30 798 H 72.936 1.31708 -0.841594 0
M  V30 799 H 73.671 3.09681 0.962726 0
M  V30 800 H 73.456 3.86928 -0.634727 0
M  V30 801 H 74.946 4.16445 0.310432 0
M  V30 802 N 75.3831 0.828654 1.34056 0
M  V30 803 C 76.3301 0.252567 2.29414 0
M  V30 804 C 77.3001 -0.62588 1.53857 0
M  V30 805 O 78.4851 -0.566312 1.82202 0
M  V30 806 C 75.6251 -0.574831 3.40279 0
M  V30 807 C 74.7381 0.326499 4.30764 0
M  V30 808 C 73.8731 -0.511016 5.28736 0
M  V30 809 C 72.9121 0.389342 6.1086 0
M  V30 810 N 72.0491 -0.409439 7.00905 0
M  V30 811 H 76.8891 1.07108 2.78086 0
M  V30 812 H 74.4261 0.539677 1.36843 0
M  V30 813 H 76.3841 -1.06992 4.03248 0
M  V30 814 H 75.0141 -1.35841 2.92826 0
M  V30 815 H 74.0661 0.939837 3.68607 0
M  V30 816 H 75.3781 1.01857 4.88289 0
M  V30 817 H 74.5321 -1.07035 5.97184 0
M  V30 818 H 73.2711 -1.23657 4.71763 0
M  V30 819 H 72.2761 0.960769 5.4134 0
M  V30 820 H 73.5011 1.1131 6.69916 0
M  V30 821 H 71.4471 -1.11856 6.46393 0
M  V30 822 H 71.3641 0.224126 7.55668 0
M  V30 823 H 72.6321 -0.951336 7.73673 0
M  V30 824 N 76.8612 -1.46375 0.584142 0
M  V30 825 C 78.1082 -2.02378 0.0702675 0
M  V30 826 C 78.4362 -1.45545 -1.29023 0
M  V30 827 O 77.6912 -0.610967 -1.85918 0
M  V30 828 C 77.9902 -3.57373 -0.0439342 0
M  V30 829 C 77.6562 -4.33252 1.24915 0
M  V30 830 C 76.3182 -4.53701 1.60341 0
M  V30 831 C 78.6702 -4.7681 2.1048 0
M  V30 832 C 75.9982 -5.1496 2.81128 0
M  V30 833 C 78.3502 -5.39404 3.30494 0
M  V30 834 C 77.0142 -5.5808 3.66201 0
M  V30 835 H 76.2842 -0.740554 0.0257127 0
M  V30 836 H 78.9312 -1.75727 0.761065 0
M  V30 837 H 77.2362 -3.83169 -0.817869 0
M  V30 838 H 78.9332 -3.98384 -0.457318 0
M  V30 839 H 75.5232 -4.17633 0.963364 0
M  V30 840 H 79.7072 -4.60766 1.84414 0
M  V30 841 H 74.9632 -5.27611 3.08928 0
M  V30 842 H 79.1372 -5.72114 3.97063 0
M  V30 843 H 76.7642 -6.05318 4.59885 0
M  V30 844 N 78.3393 -0.321999 -1.54275 0
M  V30 845 C 79.5883 0.281931 -1.9972 0
M  V30 846 C 79.9013 1.53369 -1.21397 0
M  V30 847 O 81.1073 2.21352 -1.57211 0
M  V30 848 C 79.5633 0.5529 -3.55628 0
M  V30 849 C 79.1713 -0.681721 -4.42783 0
M  V30 850 C 80.9153 1.11687 -4.09544 0
M  V30 851 C 78.8223 -0.382742 -5.9016 0
M  V30 852 H 77.7523 0.109124 -0.746062 0
M  V30 853 H 80.4033 -0.43398 -1.78294 0
M  V30 854 H 78.7853 1.32896 -3.73035 0
M  V30 855 H 79.9593 -1.45723 -4.37151 0
M  V30 856 H 78.2743 -1.1658 -3.99748 0
M  V30 857 H 80.8713 1.35515 -5.17242 0
M  V30 858 H 81.2143 2.06575 -3.61431 0
M  V30 859 H 81.7473 0.402032 -3.95763 0
M  V30 860 H 78.4863 -1.30076 -6.42464 0
M  V30 861 H 78.0063 0.355094 -5.98748 0
M  V30 862 H 79.6853 0.00800157 -6.47 0
M  V30 863 N 79.8174 1.5752 -0.0501392 0
M  V30 864 C 80.7644 2.1147 0.924603 0
M  V30 865 C 81.7344 1.02182 1.30951 0
M  V30 866 O 82.9194 1.29723 1.39916 0
M  V30 867 C 80.0594 2.66337 2.19451 0
M  V30 868 C 79.1724 3.89708 1.86418 0
M  V30 869 C 78.3074 4.32893 3.07859 0
M  V30 870 C 77.3464 5.48967 2.70742 0
M  V30 871 N 76.4834 5.87211 3.84874 0
M  V30 872 H 81.3234 2.94465 0.457639 0
M  V30 873 H 78.8604 1.45531 0.214266 0
M  V30 874 H 80.8184 2.96247 2.93758 0
M  V30 875 H 79.4484 1.86141 2.63726 0
M  V30 876 H 78.5004 3.66396 1.02264 0
M  V30 877 H 79.8124 4.74074 1.55096 0
M  V30 878 H 78.9664 4.6435 3.90466 0
M  V30 879 H 77.7054 3.47336 3.42358 0
M  V30 880 H 76.7104 5.17183 1.86551 0
M  V30 881 H 77.9354 6.3624 2.37436 0
M  V30 882 H 75.8814 5.04607 4.19175 0
M  V30 883 H 75.7984 6.66266 3.57247 0
M  V30 884 H 77.0664 6.23282 4.68123 0
M  V30 885 N 81.2955 -0.223234 1.56011 0
M  V30 886 C 82.2425 -1.27664 1.92277 0
M  V30 887 C 83.2125 -1.46659 0.779763 0
M  V30 888 O 84.3975 -1.60256 1.03551 0
M  V30 889 C 81.5375 -2.62234 2.24338 0
M  V30 890 C 80.6505 -2.51051 3.51564 0
M  V30 891 C 79.7855 -3.78133 3.7308 0
M  V30 892 C 78.8245 -3.61665 4.93827 0
M  V30 893 N 77.9615 -4.80693 5.11741 0
M  V30 894 H 82.8015 -0.960358 2.82101 0
M  V30 895 H 80.3385 -0.462901 1.39627 0
M  V30 896 H 82.2965 -3.40596 2.40936 0
M  V30 897 H 80.9265 -2.91961 1.3769 0
M  V30 898 H 79.9785 -1.64132 3.43169 0
M  V30 899 H 81.2905 -2.34803 4.40079 0
M  V30 900 H 80.4445 -4.64938 3.89766 0
M  V30 901 H 79.1835 -3.97304 2.82844 0
M  V30 902 H 78.1885 -2.73244 4.77093 0
M  V30 903 H 79.4135 -3.43966 5.85546 0
M  V30 904 H 77.3595 -5.00181 4.24446 0
M  V30 905 H 77.2765 -4.67165 5.94384 0
M  V30 906 H 78.5445 -5.6893 5.3286 0
M  V30 907 N 82.7736 -1.49793 -0.48987 0
M  V30 908 C 84.1896 -1.36803 -0.822022 0
M  V30 909 C 84.3896 -0.409652 -1.97292 0
M  V30 910 O 83.4456 0.154614 -2.52026 0
M  V30 911 C 84.7586 -2.77768 -1.15175 0
M  V30 912 C 86.3066 -2.86549 -1.25931 0
M  V30 913 C 86.7816 -4.28306 -1.62228 0
M  V30 914 N 88.2726 -4.31169 -1.69256 0
M  V30 915 C 89.0076 -5.37832 -1.98807 0
M  V30 916 N 88.5036 -6.54726 -2.26507 0
M  V30 917 N 90.2966 -5.25258 -2.00152 0
M  V30 918 H 82.4476 -2.10691 0.268881 0
M  V30 919 H 84.7106 -0.946241 0.057728 0
M  V30 920 H 84.4166 -3.49648 -0.379335 0
M  V30 921 H 84.2906 -3.13836 -2.09253 0
M  V30 922 H 86.6776 -2.14899 -2.02243 0
M  V30 923 H 86.7586 -2.54049 -0.298776 0
M  V30 924 H 86.4026 -5.00486 -0.864622 0
M  V30 925 H 86.3326 -4.58279 -2.594 0
M  V30 926 H 88.8236 -3.4687 -1.49965 0
M  V30 927 H 89.1366 -7.31833 -2.48276 0
M  V30 928 H 87.4816 -6.57933 -2.23939 0
M  V30 929 H 90.6726 -4.32938 -1.77996 0
M  V30 930 H 90.8456 -6.08476 -2.22848 0
M  V30 931 N 84.2517 0.741722 -1.39055 0
M  V30 932 C 85.1837 1.8657 -1.33133 0
M  V30 933 C 86.1967 1.61001 -0.241329 0
M  V30 934 O 87.3857 1.7136 -0.499784 0
M  V30 935 C 84.4857 3.22457 -1.04283 0
M  V30 936 C 83.6587 3.75435 -2.24427 0
M  V30 937 C 82.7177 4.89867 -1.92138 0
M  V30 938 O 81.7437 5.03879 -2.64754 0
M  V30 939 N 82.9457 5.73738 -0.88347 0
M  V30 940 H 85.7107 1.92156 -2.29991 0
M  V30 941 H 83.2717 0.922172 -1.3307 0
M  V30 942 H 85.2637 3.9657 -0.807128 0
M  V30 943 H 83.8337 3.12181 -0.161807 0
M  V30 944 H 83.0537 2.92751 -2.6399 0
M  V30 945 H 84.3417 4.07563 -3.04581 0
M  V30 946 H 83.7397 5.64999 -0.281517 0
M  V30 947 H 82.2967 6.47947 -0.707662 0
M  V30 948 N 85.7298 1.2412 0.971189 0
M  V30 949 C 86.9548 1.10667 1.75407 0
M  V30 950 C 87.3798 -0.337048 1.85056 0
M  V30 951 O 86.7378 -1.24396 1.31892 0
M  V30 952 C 86.7858 1.74726 3.15441 0
M  V30 953 O 85.8898 1.01566 3.99697 0
M  V30 954 H 85.2308 0.387341 0.539317 0
M  V30 955 H 87.7608 1.64358 1.2185 0
M  V30 956 H 87.7708 1.80341 3.6598 0
M  V30 957 H 86.4458 2.79773 3.07734 0
M  V30 958 H 85.0228 1.03713 3.58187 0
M  V30 959 N 87.2079 -1.17134 1.05439 0
M  V30 960 C 88.6239 -1.39454 0.776201 0
M  V30 961 C 88.8239 -1.91454 -0.628307 0
M  V30 962 O 87.8799 -2.10777 -1.39031 0
M  V30 963 C 89.1929 -2.38305 1.83388 0
M  V30 964 C 90.7409 -2.52006 1.85639 0
M  V30 965 C 91.2159 -3.54133 2.90437 0
M  V30 966 N 92.7069 -3.61653 2.89415 0
M  V30 967 C 93.4419 -4.4044 3.67152 0
M  V30 968 N 92.9379 -5.22721 4.54681 0
M  V30 969 N 94.7309 -4.35337 3.55581 0
M  V30 970 H 86.8819 -0.817134 1.96053 0
M  V30 971 H 89.1449 -0.421626 0.849079 0
M  V30 972 H 88.8509 -2.07173 2.84204 0
M  V30 973 H 88.7249 -3.37841 1.67761 0
M  V30 974 H 91.1119 -2.82447 0.85486 0
M  V30 975 H 91.1929 -1.52537 2.05344 0
M  V30 976 H 90.8369 -3.24431 3.90777 0
M  V30 977 H 90.7669 -4.53313 2.67983 0
M  V30 978 H 93.2579 -3.02909 2.25952 0
M  V30 979 H 93.5709 -5.80027 5.10674 0
M  V30 980 H 91.9159 -5.22093 4.58741 0
M  V30 981 H 95.1069 -3.70112 2.86592 0
M  V30 982 H 95.2799 -4.96494 4.1641 0
M  V30 983 N 88.686 -0.835752 -1.33615 0
M  V30 984 C 89.649 -0.272 -2.2758 0
M  V30 985 C 90.649 0.557487 -1.50827 0
M  V30 986 O 91.839 0.37173 -1.70188 0
M  V30 987 C 88.971 0.617173 -3.35267 0
M  V30 988 H 90.164 -1.10111 -2.78954 0
M  V30 989 H 87.717 -0.608594 -1.43965 0
M  V30 990 H 88.452 1.46884 -2.89129 0
M  V30 991 H 88.237 0.0237066 -3.92093 0
M  V30 992 H 89.727 1.005 -4.05326 0
M  V30 993 N 90.1641 1.46063 -0.591896 0
M  V30 994 C 91.3891 2.07226 -0.0850314 0
M  V30 995 C 91.8141 1.43625 1.21463 0
M  V30 996 O 91.1721 0.523305 1.73583 0
M  V30 997 C 91.2201 3.60554 0.0576567 0
M  V30 998 O 90.3241 3.97128 1.11188 0
M  V30 999 H 89.6651 0.660615 -0.0669568 0
M  V30 1000 H 92.1951 1.8756 -0.81745 0
M  V30 1001 H 92.2051 4.07165 0.2609 0
M  V30 1002 H 90.8801 4.06235 -0.891416 0
M  V30 1003 H 89.4571 3.62213 0.886356 0
M  V30 1004 N 91.6422 0.330177 1.54103 0
M  V30 1005 C 93.0582 -0.0222371 1.59585 0
M  V30 1006 C 93.2582 -1.49902 1.34654 0
M  V30 1007 O 92.3142 -2.25592 1.13421 0
M  V30 1008 C 93.6272 0.401932 2.98002 0
M  V30 1009 C 95.1752 0.353145 3.11001 0
M  V30 1010 C 95.6502 0.752576 4.51775 0
M  V30 1011 N 97.1412 0.706239 4.57784 0
M  V30 1012 C 97.8762 0.987417 5.64834 0
M  V30 1013 N 97.3722 1.33607 6.79795 0
M  V30 1014 N 99.1652 0.91254 5.54643 0
M  V30 1015 H 91.3162 1.29228 1.68564 0
M  V30 1016 H 93.5792 0.525906 0.78875 0
M  V30 1017 H 93.2852 1.4311 3.21267 0
M  V30 1018 H 93.1592 -0.229699 3.765 0
M  V30 1019 H 95.5462 -0.666822 2.87467 0
M  V30 1020 H 95.6272 1.0198 2.34593 0
M  V30 1021 H 95.2712 1.77049 4.76042 0
M  V30 1022 H 95.2012 0.0635409 5.26562 0
M  V30 1023 H 97.6922 0.44889 3.75224 0
M  V30 1024 H 98.0052 1.53582 7.57385 0
M  V30 1025 H 96.3502 1.37439 6.81275 0
M  V30 1026 H 99.5412 0.639601 4.6371 0
M  V30 1027 H 99.7142 1.13503 6.37982 0
M  V30 1028 N 93.1203 -1.57491 0.0584922 0
M  V30 1029 C 94.5363 -1.56792 -0.298091 0
M  V30 1030 C 94.7363 -1.06679 -1.70944 0
M  V30 1031 O 93.7923 -0.726672 -2.41818 0
M  V30 1032 C 95.1053 -3.00461 -0.119879 0
M  V30 1033 C 96.6533 -3.1242 -0.190428 0
M  V30 1034 C 97.1283 -4.57982 -0.0406567 0
M  V30 1035 N 98.6193 -4.63099 -0.0966958 0
M  V30 1036 C 99.3543 -5.734 -0.00502943 0
M  V30 1037 N 98.8503 -6.9266 0.139402 0
M  V30 1038 N 100.643 -5.62067 -0.0611391 0
M  V30 1039 H 92.7943 -1.88386 0.98105 0
M  V30 1040 H 95.0573 -0.867865 0.381463 0
M  V30 1041 H 94.7633 -3.41187 0.85349 0
M  V30 1042 H 94.6373 -3.66843 -0.877833 0
M  V30 1043 H 97.0243 -2.71589 -1.15427 0
M  V30 1044 H 97.1053 -2.48702 0.598405 0
M  V30 1045 H 96.7493 -4.995 0.919897 0
M  V30 1046 H 96.6793 -5.19715 -0.848727 0
M  V30 1047 H 99.1703 -3.77331 -0.207277 0
M  V30 1048 H 99.4833 -7.72536 0.201855 0
M  V30 1049 H 97.8283 -6.94781 0.174586 0
M  V30 1050 H 101.019 -4.67782 -0.172583 0
M  V30 1051 H 101.192 -6.47999 0.0137562 0
M  V30 1052 N 94.5984 0.214957 -1.56127 0
M  V30 1053 C 95.8464 0.936518 -1.79091 0
M  V30 1054 C 96.1674 1.84606 -0.628148 0
M  V30 1055 O 95.4374 1.92664 0.35462 0
M  V30 1056 H 94.0174 0.3488 -0.660566 0
M  V30 1057 H 96.6794 0.22523 -1.93594 0
M  V30 1058 H 95.7754 1.53943 -2.71492 0
M  V30 1059 N 96.0765 1.50051 0.48192 0
M  V30 1060 C 97.3225 1.60736 1.2366 0
M  V30 1061 C 97.6555 0.301786 1.91841 0
M  V30 1062 O 96.9305 -0.696025 1.8162 0
M  V30 1063 C 97.2135 2.78009 2.28874 0
M  V30 1064 C 97.0665 4.18416 1.65069 0
M  V30 1065 C 98.3855 2.90867 3.30279 0
M  V30 1066 H 95.5045 0.585031 0.448228 0
M  V30 1067 H 98.1465 1.82402 0.531946 0
M  V30 1068 H 96.2965 2.59667 2.88973 0
M  V30 1069 H 97.9685 4.48322 1.0865 0
M  V30 1070 H 96.2115 4.23177 0.954148 0
M  V30 1071 H 96.8825 4.96381 2.41474 0
M  V30 1072 H 99.3585 3.07623 2.80191 0
M  V30 1073 H 98.2345 3.74566 4.01238 0
M  V30 1074 H 98.4955 2.01021 3.93755 0
M  V30 1075 N 97.5546 -0.734337 1.39446 0
M  V30 1076 C 98.7796 -1.52866 1.40167 0
M  V30 1077 C 99.2046 -1.881 -0.00171513 0
M  V30 1078 O 98.5626 -1.51957 -0.988879 0
M  V30 1079 C 98.6106 -2.79235 2.28167 0
M  V30 1080 O 97.7146 -3.75185 1.71201 0
M  V30 1081 H 97.0556 -0.461618 0.477289 0
M  V30 1082 H 99.5856 -0.905949 1.8345 0
M  V30 1083 H 99.5956 -3.27963 2.42702 0
M  V30 1084 H 98.2706 -2.52923 3.30156 0
M  V30 1085 H 96.8476 -3.33958 1.65912 0
M  V30 1086 N 99.0327 -1.24633 -0.964593 0
M  V30 1087 C 100.449 -1.01239 -1.2338 0
M  V30 1088 C 100.649 0.2769 -1.99588 0
M  V30 1089 O 99.7047 0.992241 -2.32187 0
M  V30 1090 C 101.018 -2.22937 -2.01791 0
M  V30 1091 C 102.566 -2.27594 -2.14872 0
M  V30 1092 C 103.041 -3.48921 -2.96678 0
M  V30 1093 N 104.532 -3.49257 -3.04259 0
M  V30 1094 C 105.267 -4.39795 -3.67924 0
M  V30 1095 N 104.763 -5.40591 -4.33281 0
M  V30 1096 N 106.556 -4.275 -3.64966 0
M  V30 1097 H 98.7067 -2.0748 -0.454502 0
M  V30 1098 H 100.97 -0.910647 -0.26349 0
M  V30 1099 H 100.676 -3.16587 -1.53184 0
M  V30 1100 H 100.55 -2.25306 -3.02518 0
M  V30 1101 H 102.937 -1.34473 -2.6268 0
M  V30 1102 H 103.018 -2.2925 -1.13482 0
M  V30 1103 H 102.662 -4.42359 -2.49562 0
M  V30 1104 H 102.592 -3.4451 -3.98272 0
M  V30 1105 H 105.083 -2.76337 -2.57771 0
M  V30 1106 H 105.396 -6.05904 -4.79687 0
M  V30 1107 H 103.741 -5.44475 -4.3194 0
M  V30 1108 H 106.932 -3.47987 -3.13086 0
M  V30 1109 H 107.105 -4.98258 -4.14298 0
M  V30 1110 N 100.511 1.16574 -1.06058 0
M  V30 1111 C 101.421 2.2452 -0.680282 0
M  V30 1112 C 102.437 1.71348 0.302604 0
M  V30 1113 O 103.613 2.00822 0.152513 0
M  V30 1114 C 100.678 3.46629 -0.0700315 0
M  V30 1115 C 99.7388 4.14849 -1.10448 0
M  V30 1116 C 98.9718 5.31129 -0.523256 0
M  V30 1117 O 99.1948 5.66514 0.664709 0
M  V30 1118 O 98.1288 5.88526 -1.26179 0
M  V30 1119 H 101.955 2.59355 -1.58015 0
M  V30 1120 H 99.5398 1.24043 -0.832694 0
M  V30 1121 H 101.422 4.20543 0.268667 0
M  V30 1122 H 100.097 3.13573 0.803353 0
M  V30 1123 H 99.0038 3.42916 -1.49532 0
M  V30 1124 H 100.337 4.51954 -1.94931 0
M  V30 1125 N 101.989 0.842826 1.3317 0
M  V30 1126 C 102.899 0.281444 2.32906 0
M  V30 1127 C 103.915 -0.594587 1.63526 0
M  V30 1128 O 105.091 -0.49777 1.95152 0
M  V30 1129 C 102.156 -0.530929 3.42611 0
M  V30 1130 C 101.217 0.369843 4.27704 0
M  V30 1131 C 100.45 -0.403853 5.3217 0
M  V30 1132 O 100.673 -1.63513 5.46461 0
M  V30 1133 O 99.6069 0.224199 6.01482 0
M  V30 1134 H 103.433 1.10744 2.82789 0
M  V30 1135 H 101.018 0.60545 1.36582 0
M  V30 1136 H 102.9 -0.992437 4.09547 0
M  V30 1137 H 101.575 -1.33392 2.94938 0
M  V30 1138 H 100.482 0.879275 3.6362 0
M  V30 1139 H 101.815 1.13771 4.78871 0
M  V30 1140 N 103.467 -1.45747 0.599634 0
M  V30 1141 C 104.716 -2.01502 0.0893511 0
M  V30 1142 C 105.029 -1.4748 -1.28488 0
M  V30 1143 O 106.235 -1.95161 -1.88745 0
M  V30 1144 C 104.691 -3.59735 0.109082 0
M  V30 1145 C 104.299 -4.22754 1.48267 0
M  V30 1146 C 106.043 -4.23085 -0.346374 0
M  V30 1147 C 103.95 -5.73115 1.45921 0
M  V30 1148 H 102.88 -0.753417 0.0296347 0
M  V30 1149 H 105.531 -1.67303 0.753788 0
M  V30 1150 H 103.913 -3.91087 -0.621854 0
M  V30 1151 H 105.087 -4.02987 2.23468 0
M  V30 1152 H 103.402 -3.71567 1.87955 0
M  V30 1153 H 105.999 -5.33327 -0.38298 0
M  V30 1154 H 106.342 -3.93201 -1.36743 0
M  V30 1155 H 106.875 -3.9642 0.331038 0
M  V30 1156 H 103.614 -6.07685 2.45762 0
M  V30 1157 H 103.134 -5.95097 0.749665 0
M  V30 1158 H 104.813 -6.3616 1.17941 0
M  V30 1159 N 104.945 -0.338344 -1.53925 0
M  V30 1160 C 105.855 0.529421 -2.28548 0
M  V30 1161 C 106.871 1.11645 -1.3346 0
M  V30 1162 O 108.047 1.13325 -1.66492 0
M  V30 1163 C 105.112 1.66713 -3.03987 0
M  V30 1164 C 104.173 1.11041 -4.14691 0
M  V30 1165 C 103.406 2.19389 -4.86522 0
M  V30 1166 O 103.629 3.40013 -4.57982 0
M  V30 1167 O 102.563 1.83976 -5.73094 0
M  V30 1168 H 106.389 -0.0770399 -3.03602 0
M  V30 1169 H 103.974 -0.103555 -1.49041 0
M  V30 1170 H 105.856 2.32918 -3.5118 0
M  V30 1171 H 104.531 2.25949 -2.31794 0
M  V30 1172 H 103.438 0.413024 -3.71813 0
M  V30 1173 H 104.771 0.562975 -4.8897 0
M  V30 1174 N 106.423 1.57458 -0.0668435 0
M  V30 1175 C 107.839 1.56947 0.289772 0
M  V30 1176 C 108.039 1.07584 1.70376 0
M  V30 1177 O 107.095 0.739486 2.41429 0
M  V30 1178 C 108.408 3.0052 0.103943 0
M  V30 1179 C 109.956 3.12517 0.173857 0
M  V30 1180 C 110.431 4.57997 0.0163682 0
M  V30 1181 N 111.922 4.63144 0.0721352 0
M  V30 1182 C 112.657 5.73394 -0.0253794 0
M  V30 1183 N 112.153 6.92576 -0.176133 0
M  V30 1184 N 113.946 5.62091 0.0313305 0
M  V30 1185 H 106.097 1.87863 -0.991027 0
M  V30 1186 H 108.36 0.86583 -0.38606 0
M  V30 1187 H 108.066 3.40729 -0.871572 0
M  V30 1188 H 107.94 3.67304 0.858366 0
M  V30 1189 H 110.327 2.72197 1.13985 0
M  V30 1190 H 110.408 2.48381 -0.611586 0
M  V30 1191 H 110.052 4.99005 -0.946374 0
M  V30 1192 H 109.982 5.20158 0.821153 0
M  V30 1193 H 112.473 3.77436 0.187263 0
M  V30 1194 H 112.786 7.72418 -0.242821 0
M  V30 1195 H 111.131 6.94678 -0.211429 0
M  V30 1196 H 114.322 4.67867 0.147773 0
M  V30 1197 H 114.495 6.47982 -0.048121 0
M  V30 1198 N 107.901 -0.206675 1.56239 0
M  V30 1199 C 108.811 -1.27686 1.96808 0
M  V30 1200 C 109.827 -1.50455 0.874035 0
M  V30 1201 O 111.003 -1.63295 1.17884 0
M  V30 1202 C 108.068 -2.60358 2.28942 0
M  V30 1203 C 107.129 -2.45762 3.51994 0
M  V30 1204 C 106.362 -3.72108 3.82585 0
M  V30 1205 O 106.585 -4.75776 3.14631 0
M  V30 1206 O 105.519 -3.6833 4.76043 0
M  V30 1207 H 109.345 -0.962593 2.88041 0
M  V30 1208 H 106.93 -0.410746 1.43643 0
M  V30 1209 H 108.812 -3.38687 2.50737 0
M  V30 1210 H 107.487 -2.91435 1.4088 0
M  V30 1211 H 106.394 -1.65584 3.35459 0
M  V30 1212 H 107.727 -2.19621 4.40486 0
M  V30 1213 N 109.379 -1.50304 -0.473955 0
M  V30 1214 C 110.625 -1.61389 -1.22806 0
M  V30 1215 C 110.958 -0.311955 -1.91678 0
M  V30 1216 O 110.233 0.686384 -1.81986 0
M  V30 1217 C 110.516 -2.79219 -2.27396 0
M  V30 1218 C 110.369 -4.19286 -1.62848 0
M  V30 1219 C 111.688 -2.92614 -3.28732 0
M  V30 1220 H 108.807 -0.587399 -0.445119 0
M  V30 1221 H 111.449 -1.82681 -0.522265 0
M  V30 1222 H 109.599 -2.61195 -2.87592 0
M  V30 1223 H 111.271 -4.48892 -1.06271 0
M  V30 1224 H 109.514 -4.23677 -0.931693 0
M  V30 1225 H 110.185 -4.97655 -2.38838 0
M  V30 1226 H 112.661 -3.09105 -2.78556 0
M  V30 1227 H 111.537 -3.76688 -3.99246 0
M  V30 1228 H 111.798 -2.03107 -3.92683 0
M  V30 1229 N 110.857 0.726932 -1.39834 0
M  V30 1230 C 112.082 1.52121 -1.40976 0
M  V30 1231 C 112.507 1.88098 -0.00826029 0
M  V30 1232 O 111.865 1.52479 0.980807 0
M  V30 1233 C 111.913 2.78021 -2.29644 0
M  V30 1234 O 111.017 3.74272 -1.73188 0
M  V30 1235 H 110.358 0.45908 -0.479731 0
M  V30 1236 H 112.888 0.896207 -1.83927 0
M  V30 1237 H 112.898 3.26671 -2.44438 0
M  V30 1238 H 111.573 2.51169 -3.31492 0
M  V30 1239 H 110.15 3.33073 -1.6768 0
M  V30 1240 N 112.336 1.25143 0.95797 0
M  V30 1241 C 113.585 1.0909 1.69654 0
M  V30 1242 C 113.898 -0.368548 1.92097 0
M  V30 1243 O 115.104 -0.649455 2.63618 0
M  V30 1244 C 113.56 1.90395 3.05414 0
M  V30 1245 C 113.168 3.4081 2.90779 0
M  V30 1246 C 114.912 1.82901 3.83076 0
M  V30 1247 C 112.819 4.14423 4.21909 0
M  V30 1248 H 111.749 0.404625 0.636235 0
M  V30 1249 H 114.4 1.4931 1.06672 0
M  V30 1250 H 112.782 1.42996 3.69281 0
M  V30 1251 H 113.956 3.95859 2.35865 0
M  V30 1252 H 112.271 3.49361 2.26575 0
M  V30 1253 H 114.868 2.35196 4.80195 0
M  V30 1254 H 115.211 0.796224 4.08615 0
M  V30 1255 H 115.744 2.28033 3.25954 0
M  V30 1256 H 112.483 5.18102 4.01561 0
M  V30 1257 H 112.003 3.64159 4.76601 0
M  V30 1258 H 113.682 4.21956 4.90471 0
M  V30 1259 N 113.814 -1.1601 1.06675 0
M  V30 1260 C 114.744 -2.22688 0.702307 0
M  V30 1261 C 115.725 -1.67306 -0.307032 0
M  V30 1262 O 116.91 -1.93352 -0.181305 0
M  V30 1263 C 114.04 -3.47178 0.092038 0
M  V30 1264 C 112.994 -4.15477 1.02777 0
M  V30 1265 C 112.32 -5.33963 0.28061 0
M  V30 1266 C 113.62 -4.66019 2.35846 0
M  V30 1267 H 115.314 -2.53429 1.59419 0
M  V30 1268 H 112.86 -1.21813 0.767961 0
M  V30 1269 H 114.813 -4.21037 -0.174814 0
M  V30 1270 H 113.537 -3.15749 -0.834877 0
M  V30 1271 H 112.196 -3.43549 1.27944 0
M  V30 1272 H 111.844 -4.98788 -0.649545 0
M  V30 1273 H 111.544 -5.806 0.904258 0
M  V30 1274 H 113.068 -6.10596 0.021396 0
M  V30 1275 H 114.482 -5.3144 2.15045 0
M  V30 1276 H 112.879 -5.23293 2.93743 0
M  V30 1277 H 113.949 -3.82023 2.98641 0
M  V30 1278 N 115.292 -0.849877 -1.32721 0
M  V30 1279 C 116.708 -0.539102 -1.50219 0
M  V30 1280 C 116.908 0.931271 -1.78689 0
M  V30 1281 O 115.964 1.71455 -1.85363 0
M  V30 1282 C 117.277 -1.42196 -2.64954 0
M  V30 1283 C 118.825 -1.42189 -2.78839 0
M  V30 1284 C 119.3 -2.28985 -3.96648 0
M  V30 1285 N 120.791 -2.26754 -4.03902 0
M  V30 1286 C 121.526 -2.90644 -4.94281 0
M  V30 1287 N 121.022 -3.63629 -5.897 0
M  V30 1288 N 122.815 -2.80057 -4.87365 0
M  V30 1289 H 114.966 -1.80156 -1.12506 0
M  V30 1290 H 117.229 -0.769217 -0.554085 0
M  V30 1291 H 116.935 -2.46733 -2.50631 0
M  V30 1292 H 116.809 -1.10591 -3.60624 0
M  V30 1293 H 119.196 -0.38419 -2.92588 0
M  V30 1294 H 119.277 -1.77807 -1.83898 0
M  V30 1295 H 118.921 -3.32819 -3.83658 0
M  V30 1296 H 118.851 -1.90702 -4.90857 0
M  V30 1297 H 121.342 -1.73688 -3.3562 0
M  V30 1298 H 121.655 -4.09558 -6.55349 0
M  V30 1299 H 120 -3.67737 -5.89741 0
M  V30 1300 H 123.191 -2.22593 -4.11789 0
M  V30 1301 H 123.364 -3.30132 -5.57599 0
M  V30 1302 N 116.77 1.45427 -0.607355 0
M  V30 1303 C 117.702 2.2871 0.149752 0
M  V30 1304 C 118.715 1.39937 0.831958 0
M  V30 1305 O 119.904 1.64313 0.697385 0
M  V30 1306 C 117.004 3.15673 1.23304 0
M  V30 1307 C 116.177 4.32722 0.637996 0
M  V30 1308 C 115.236 5.00895 1.61215 0
M  V30 1309 O 114.262 5.57697 1.13854 0
M  V30 1310 N 115.464 5.00159 2.94655 0
M  V30 1311 H 118.229 2.94328 -0.564882 0
M  V30 1312 H 115.79 1.55612 -0.446823 0
M  V30 1313 H 117.782 3.58144 1.88454 0
M  V30 1314 H 116.352 2.51965 1.8502 0
M  V30 1315 H 115.572 3.93734 -0.191572 0
M  V30 1316 H 116.86 5.08321 0.220665 0
M  V30 1317 H 116.258 4.553 3.35735 0
M  V30 1318 H 114.815 5.46495 3.55228 0
M  V30 1319 N 118.248 0.346503 1.53744 0
M  V30 1320 C 119.494 -0.249473 2.0126 0
M  V30 1321 C 119.827 -1.49965 1.23386 0
M  V30 1322 O 119.102 -1.91811 0.32229 0
M  V30 1323 C 119.385 -0.560643 3.55709 0
M  V30 1324 C 119.238 0.701836 4.44291 0
M  V30 1325 C 120.557 -1.36905 4.18264 0
M  V30 1326 H 117.676 -0.0891987 0.731582 0
M  V30 1327 H 120.318 0.467624 1.84156 0
M  V30 1328 H 118.468 -1.17156 3.70414 0
M  V30 1329 H 120.14 1.33974 4.41417 0
M  V30 1330 H 118.383 1.32612 4.13033 0
M  V30 1331 H 119.054 0.43933 5.50249 0
M  V30 1332 H 121.53 -0.852448 4.07275 0
M  V30 1333 H 120.406 -1.55553 5.26398 0
M  V30 1334 H 120.667 -2.37203 3.73078 0
M  V30 1335 N 119.726 -1.57421 0.075193 0
M  V30 1336 C 120.656 -2.15942 -0.888324 0
M  V30 1337 C 121.637 -1.08737 -1.30806 0
M  V30 1338 O 122.822 -1.36787 -1.37851 0
M  V30 1339 C 119.952 -2.72379 -2.1547 0
M  V30 1340 C 118.906 -3.8478 -1.87425 0
M  V30 1341 C 118.232 -4.27834 -3.20721 0
M  V30 1342 C 119.532 -5.08869 -1.17684 0
M  V30 1343 H 121.226 -2.96705 -0.400799 0
M  V30 1344 H 118.772 -1.42723 -0.191342 0
M  V30 1345 H 120.725 -3.11965 -2.83295 0
M  V30 1346 H 119.449 -1.88841 -2.6647 0
M  V30 1347 H 118.108 -3.45703 -1.22004 0
M  V30 1348 H 117.756 -3.41214 -3.6957 0
M  V30 1349 H 117.456 -5.03605 -3.02746 0
M  V30 1350 H 118.98 -4.70039 -3.89738 0
M  V30 1351 H 120.394 -5.4575 -1.75584 0
M  V30 1352 H 118.791 -5.8994 -1.09956 0
M  V30 1353 H 119.861 -4.84648 -0.156453 0
M  V30 1354 N 121.204 0.198386 -1.56346 0
M  V30 1355 C 122.154 1.2499 -1.90687 0
M  V30 1356 C 123.138 1.41158 -0.772217 0
M  V30 1357 O 124.33 1.43584 -1.03502 0
M  V30 1358 C 121.459 2.59542 -2.24706 0
M  V30 1359 C 120.545 2.47181 -3.44619 0
M  V30 1360 N 120.936 2.04495 -4.62618 0
M  V30 1361 C 119.234 2.78082 -3.48692 0
M  V30 1362 C 119.935 2.03945 -5.44776 0
M  V30 1363 N 118.911 2.45323 -4.85095 0
M  V30 1364 H 122.713 0.911149 -2.7942 0
M  V30 1365 H 120.227 0.40684 -1.57221 0
M  V30 1366 H 122.224 3.3549 -2.47491 0
M  V30 1367 H 120.884 2.94244 -1.37298 0
M  V30 1368 H 121.895 1.75256 -4.87345 0
M  V30 1369 H 118.572 3.17002 -2.71691 0
M  V30 1370 H 119.962 1.72872 -6.4928 0
M  V30 1371 N 122.682 1.50554 0.465978 0
M  V30 1372 C 123.632 1.66177 1.56106 0
M  V30 1373 C 124.616 0.516265 1.52393 0
M  V30 1374 O 125.808 0.770906 1.5933 0
M  V30 1375 C 122.937 1.76396 2.94515 0
M  V30 1376 C 122.023 2.9664 3.03093 0
M  V30 1377 N 122.414 4.20245 2.81474 0
M  V30 1378 C 120.712 2.95304 3.34233 0
M  V30 1379 C 121.413 5.01259 2.95151 0
M  V30 1380 N 120.389 4.35318 3.25576 0
M  V30 1381 H 124.191 2.59434 1.38099 0
M  V30 1382 H 121.705 1.47808 0.6728 0
M  V30 1383 H 123.702 1.85694 3.73261 0
M  V30 1384 H 122.362 0.843017 3.13565 0
M  V30 1385 H 123.373 4.4966 2.56956 0
M  V30 1386 H 120.05 2.12729 3.59239 0
M  V30 1387 H 121.44 6.09564 2.82632 0
M  V30 1388 N 124.16 -0.719506 1.40217 0
M  V30 1389 C 125.108 -1.85493 1.40339 0
M  V30 1390 C 126.102 -1.66995 0.284415 0
M  V30 1391 O 127.308 -1.74148 0.455252 0
M  V30 1392 H 123.683 -0.610857 0.438586 0
M  V30 1393 H 125.654 -1.82506 2.36081 0
M  V30 1394 C 124.403 -3.23321 1.27901 0
M  V30 1395 H 123.726 -3.38159 2.1328 0
M  V30 1396 H 125.166 -4.02914 1.32045 0
M  V30 1397 C 123.625 -3.36898 -0.0111355 0
M  V30 1398 O 124.155 -3.89674 -0.975538 0
M  V30 1399 N 122.361 -2.90492 -0.0793393 0
M  V30 1400 H 121.908 -2.47731 0.706183 0
M  V30 1401 H 121.866 -2.99955 -0.942038 0
M  V30 1402 N 125.638 -1.25649 -0.95132 0
M  V30 1403 C 126.884 -1.10757 -1.69884 0
M  V30 1404 C 127.217 0.350061 -1.91019 0
M  V30 1405 O 126.492 1.25783 -1.48354 0
M  V30 1406 C 126.775 -1.86606 -3.07978 0
M  V30 1407 C 126.628 -3.40217 -2.94232 0
M  V30 1408 C 127.947 -1.65182 -4.07925 0
M  V30 1409 H 125.066 -0.40374 -0.616574 0
M  V30 1410 H 127.708 -1.54521 -1.10558 0
M  V30 1411 H 125.858 -1.49409 -3.58621 0
M  V30 1412 H 127.53 -3.87108 -2.50889 0
M  V30 1413 H 125.773 -3.67759 -2.30078 0
M  V30 1414 H 126.444 -3.88505 -3.92133 0
M  V30 1415 H 128.92 -1.9757 -3.66204 0
M  V30 1416 H 127.796 -2.20683 -5.02583 0
M  V30 1417 H 128.057 -0.593933 -4.38092 0
M  V30 1418 N 127.117 1.15442 -1.07289 0
M  V30 1419 C 128.366 1.85557 -0.790669 0
M  V30 1420 C 128.679 1.83186 0.685739 0
M  V30 1421 O 129.885 2.48977 1.0827 0
M  V30 1422 C 128.341 3.33038 -1.36433 0
M  V30 1423 C 127.949 3.43856 -2.8717 0
M  V30 1424 C 129.693 4.0834 -1.1601 0
M  V30 1425 C 127.6 4.85482 -3.3773 0
M  V30 1426 H 126.53 0.695122 -0.292098 0
M  V30 1427 H 129.181 1.30219 -1.29287 0
M  V30 1428 H 127.563 3.88043 -0.789864 0
M  V30 1429 H 128.737 2.98961 -3.50655 0
M  V30 1430 H 127.052 2.81998 -3.06376 0
M  V30 1431 H 129.649 5.12859 -1.51262 0
M  V30 1432 H 129.992 4.16182 -0.0991007 0
M  V30 1433 H 130.525 3.59603 -1.70089 0
M  V30 1434 H 127.264 4.82823 -4.43353 0
M  V30 1435 H 126.784 5.30961 -2.78999 0
M  V30 1436 H 128.463 5.54335 -3.33648 0
M  V30 1437 N 128.595 0.856903 1.32268 0
M  V30 1438 C 129.823 0.475439 2.01363 0
M  V30 1439 C 130.238 -0.928486 1.64392 0
M  V30 1440 O 129.595 -1.60624 0.866387 0
M  V30 1441 C 129.646 0.607545 3.56358 0
M  V30 1442 O 129.367 1.95617 3.92002 0
M  V30 1443 C 130.868 0.225382 4.42727 0
M  V30 1444 H 128.088 0.186636 0.644521 0
M  V30 1445 H 130.632 1.15446 1.68797 0
M  V30 1446 H 128.787 -0.0237719 3.87393 0
M  V30 1447 H 129.201 1.95455 4.86721 0
M  V30 1448 H 130.675 0.368813 5.50767 0
M  V30 1449 H 131.152 -0.834369 4.31202 0
M  V30 1450 H 131.758 0.831864 4.17085 0
M  V30 1451 N 130.073 -1.45103 0.615059 0
M  V30 1452 C 131.003 -2.33339 -0.0865619 0
M  V30 1453 C 131.984 -1.4727 -0.851209 0
M  V30 1454 O 133.169 -1.76026 -0.820281 0
M  V30 1455 C 130.299 -3.30095 -1.07956 0
M  V30 1456 C 129.253 -4.25858 -0.427628 0
M  V30 1457 C 128.579 -5.12361 -1.5294 0
M  V30 1458 C 129.879 -5.18165 0.655944 0
M  V30 1459 H 131.573 -2.92254 0.650224 0
M  V30 1460 H 129.119 -1.40532 0.314138 0
M  V30 1461 H 131.072 -3.90698 -1.57901 0
M  V30 1462 H 129.796 -2.69355 -1.84703 0
M  V30 1463 H 128.455 -3.66564 0.0510292 0
M  V30 1464 H 128.103 -4.47984 -2.28734 0
M  V30 1465 H 127.803 -5.77238 -1.09865 0
M  V30 1466 H 129.327 -5.75833 -2.03098 0
M  V30 1467 H 130.741 -5.72796 0.240257 0
M  V30 1468 H 129.138 -5.91559 1.00888 0
M  V30 1469 H 130.208 -4.60144 1.52957 0
M  V30 1470 N 131.551 -0.354651 -1.53558 0
M  V30 1471 C 132.501 0.513179 -2.2215 0
M  V30 1472 C 133.485 1.05734 -1.21281 0
M  V30 1473 O 134.677 0.989202 -1.46778 0
M  V30 1474 C 131.806 1.65798 -3.00609 0
M  V30 1475 C 130.892 1.12722 -4.08845 0
M  V30 1476 N 131.283 0.318563 -5.04796 0
M  V30 1477 C 129.581 1.40307 -4.23356 0
M  V30 1478 C 130.282 0.0292224 -5.81693 0
M  V30 1479 N 129.258 0.623891 -5.40008 0
M  V30 1480 H 133.06 -0.111586 -2.93688 0
M  V30 1481 H 130.574 -0.162091 -1.61589 0
M  V30 1482 H 132.571 2.29176 -3.48258 0
M  V30 1483 H 131.231 2.28591 -2.306 0
M  V30 1484 H 132.242 -0.0413091 -5.17884 0
M  V30 1485 H 128.919 2.03458 -3.6457 0
M  V30 1486 H 130.309 -0.623808 -6.68998 0
M  V30 1487 N 133.029 1.57378 -0.0835403 0
M  V30 1488 C 134.306 1.85363 0.624507 0
M  V30 1489 C 134.686 0.978239 1.87066 0
M  V30 1490 O 134.034 0.0475908 2.2845 0
M  V30 1491 C 134.244 3.35795 0.950947 0
M  V30 1492 C 135.592 4.03581 1.31939 0
M  V30 1493 O 136.616 3.40609 1.04232 0
M  V30 1494 O 135.475 5.14672 1.83779 0
M  V30 1495 H 132.569 0.766162 0.311329 0
M  V30 1496 H 135.115 1.69307 -0.115362 0
M  V30 1497 H 133.887 3.91244 0.0663899 0
M  V30 1498 H 133.51 3.57154 1.74719 0
M  V30 1499 N 134.507 -0.190092 1.56449 0
M  V30 1500 C 135.753 -0.911052 1.81184 0
M  V30 1501 C 136.086 -1.82699 0.658396 0
M  V30 1502 O 135.361 -1.91491 -0.340775 0
M  V30 1503 C 135.644 -1.72297 3.16205 0
M  V30 1504 C 135.497 -0.831419 4.42049 0
M  V30 1505 C 136.816 -2.69454 3.47969 0
M  V30 1506 H 133.935 -0.32977 0.659106 0
M  V30 1507 H 136.577 -0.178169 1.89163 0
M  V30 1508 H 134.727 -2.34778 3.09534 0
M  V30 1509 H 136.399 -0.220929 4.60771 0
M  V30 1510 H 134.642 -0.138406 4.33579 0
M  V30 1511 H 135.313 -1.43461 5.33032 0
M  V30 1512 H 137.789 -2.17104 3.54972 0
M  V30 1513 H 136.665 -3.23342 4.43555 0
M  V30 1514 H 136.926 -3.48744 2.71717 0
M  V30 1515 N 135.985 -1.50799 -0.457987 0
M  V30 1516 C 137.215 -1.65977 -1.23025 0
M  V30 1517 C 137.623 -0.347918 -1.85974 0
M  V30 1518 O 136.966 0.68148 -1.70592 0
M  V30 1519 C 137.028 -2.70309 -2.3701 0
M  V30 1520 C 136.692 -4.135 -1.94594 0
M  V30 1521 C 137.689 -4.98949 -1.46101 0
M  V30 1522 C 135.374 -4.5949 -2.02915 0
M  V30 1523 C 137.368 -6.28442 -1.06489 0
M  V30 1524 C 135.055 -5.88984 -1.62914 0
M  V30 1525 C 136.053 -6.73286 -1.1478 0
M  V30 1526 O 135.741 -8.00362 -0.75339 0
M  V30 1527 H 135.473 -0.56064 -0.377702 0
M  V30 1528 H 138.027 -1.97857 -0.551537 0
M  V30 1529 H 136.257 -2.337 -3.08093 0
M  V30 1530 H 137.946 -2.74574 -2.98938 0
M  V30 1531 H 138.712 -4.6463 -1.39084 0
M  V30 1532 H 134.591 -3.94009 -2.39328 0
M  V30 1533 H 138.135 -6.94194 -0.688488 0
M  V30 1534 H 134.032 -6.22822 -1.69595 0
M  V30 1535 H 134.8 -8.13744 -0.88108 0
M  V30 1536 N 137.463 0.71206 -1.40597 0
M  V30 1537 C 138.373 1.8562 -1.43466 0
M  V30 1538 C 139.389 1.70902 -0.326902 0
M  V30 1539 O 140.565 1.93105 -0.572043 0
M  V30 1540 C 137.63 3.21451 -1.29884 0
M  V30 1541 C 136.691 3.48398 -2.50833 0
M  V30 1542 C 135.924 4.77749 -2.3789 0
M  V30 1543 O 136.147 5.53089 -1.39459 0
M  V30 1544 O 135.081 5.05111 -3.27333 0
M  V30 1545 H 138.907 1.86155 -2.39958 0
M  V30 1546 H 136.492 0.86295 -1.21957 0
M  V30 1547 H 138.374 4.02579 -1.24531 0
M  V30 1548 H 137.049 3.21636 -0.364997 0
M  V30 1549 H 135.956 2.67265 -2.61763 0
M  V30 1550 H 137.289 3.53014 -3.4299 0
M  V30 1551 N 138.941 1.26152 0.944643 0
M  V30 1552 C 139.889 1.07215 2.06417 0
M  V30 1553 C 140.883 9.2007e-05 1.694 0
M  V30 1554 O 142.089 0.1565 1.79318 0
M  V30 1555 H 138.464 0.329837 0.675805 0
M  V30 1556 H 140.435 2.02099 2.19541 0
M  V30 1557 C 139.184 0.718197 3.40202 0
M  V30 1558 H 138.507 1.53497 3.69159 0
M  V30 1559 H 139.947 0.625459 4.19361 0
M  V30 1560 C 138.406 -0.576435 3.31932 0
M  V30 1561 O 138.936 -1.61574 3.67773 0
M  V30 1562 N 137.142 -0.565781 2.85039 0
M  V30 1563 H 136.689 0.280367 2.5607 0
M  V30 1564 H 136.647 -1.43213 2.79888 0
M  V30 1565 N 140.419 -1.14872 1.07899 0
M  V30 1566 C 141.835 -1.37776 0.805606 0
M  V30 1567 C 142.035 -1.92743 -0.587555 0
M  V30 1568 O 141.091 -2.13678 -1.34528 0
M  V30 1569 C 142.404 -2.34361 1.88402 0
M  V30 1570 C 143.952 -2.48012 1.90942 0
M  V30 1571 C 144.427 -3.47893 2.97883 0
M  V30 1572 N 145.918 -3.55433 2.97021 0
M  V30 1573 C 146.653 -4.32553 3.76412 0
M  V30 1574 N 146.149 -5.12959 4.65666 0
M  V30 1575 N 147.942 -4.27697 3.64735 0
M  V30 1576 H 140.093 -0.775365 1.97742 0
M  V30 1577 H 142.356 -0.403521 0.857831 0
M  V30 1578 H 142.062 -2.01098 2.88535 0
M  V30 1579 H 141.936 -3.34206 1.74889 0
M  V30 1580 H 144.323 -2.8057 0.914579 0
M  V30 1581 H 144.404 -1.48147 2.08534 0
M  V30 1582 H 144.048 -3.16069 3.97571 0
M  V30 1583 H 143.978 -4.47527 2.77538 0
M  V30 1584 H 146.469 -2.98048 2.32326 0
M  V30 1585 H 146.782 -5.69065 5.22862 0
M  V30 1586 H 145.127 -5.12245 4.69712 0
M  V30 1587 H 148.318 -3.63949 2.94378 0
M  V30 1588 H 148.491 -4.8755 4.26848 0
M  V30 1589 N 141.898 -0.863906 -1.31812 0
M  V30 1590 C 143.126 -0.486111 -2.01108 0
M  V30 1591 C 143.541 0.919755 -1.64882 0
M  V30 1592 O 142.898 1.60162 -0.874893 0
M  V30 1593 C 142.949 -0.626435 -3.56031 0
M  V30 1594 O 142.67 -1.97693 -3.90959 0
M  V30 1595 C 144.171 -0.248857 -4.42601 0
M  V30 1596 H 141.391 -0.190052 -0.643523 0
M  V30 1597 H 143.935 -1.1634 -1.68182 0
M  V30 1598 H 142.09 0.00322717 -3.874 0
M  V30 1599 H 142.504 -1.98034 -4.85678 0
M  V30 1600 H 143.978 -0.398016 -5.50563 0
M  V30 1601 H 144.455 0.811489 -4.31638 0
M  V30 1602 H 145.061 -0.853971 -4.16638 0
M  V30 1603 N 143.376 1.44774 -0.622745 0
M  V30 1604 C 144.653 1.95522 -0.0551974 0
M  V30 1605 C 145.033 1.5649 1.41683 0
M  V30 1606 O 144.381 0.834848 2.12703 0
M  V30 1607 C 144.591 3.4796 -0.269242 0
M  V30 1608 C 145.939 4.24306 -0.158014 0
M  V30 1609 O 146.963 3.55637 -0.200162 0
M  V30 1610 O 145.822 5.46471 -0.0558693 0
M  V30 1611 H 142.916 0.826556 0.0271015 0
M  V30 1612 H 145.462 1.54866 -0.693864 0
M  V30 1613 H 144.234 3.6939 -1.29099 0
M  V30 1614 H 143.857 3.95543 0.403966 0
M  V30 1615 N 144.854 0.36279 1.53368 0
M  V30 1616 C 146.1 -0.228113 2.01513 0
M  V30 1617 C 146.433 -1.48648 1.2497 0
M  V30 1618 O 145.708 -1.91459 0.342616 0
M  V30 1619 C 145.991 -0.522884 3.56284 0
M  V30 1620 C 145.844 0.74892 4.43521 0
M  V30 1621 C 147.163 -1.32461 4.19693 0
M  V30 1622 H 144.282 -0.0814343 0.732487 0
M  V30 1623 H 146.924 0.48713 1.83649 0
M  V30 1624 H 145.074 -1.1322 3.71636 0
M  V30 1625 H 146.746 1.38648 4.39971 0
M  V30 1626 H 144.989 1.36986 4.11603 0
M  V30 1627 H 145.66 0.497667 5.49752 0
M  V30 1628 H 148.136 -0.809203 4.08156 0
M  V30 1629 H 147.012 -1.49961 5.28018 0
M  V30 1630 H 147.273 -2.33232 3.75573 0
M  V30 1631 N 146.332 -1.57332 0.0918853 0
M  V30 1632 C 147.578 -1.94524 -0.573425 0
M  V30 1633 C 147.911 -0.973578 -1.68033 0
M  V30 1634 O 147.186 -0.00609226 -1.94499 0
M  V30 1635 C 147.469 -3.41858 -1.13161 0
M  V30 1636 C 147.322 -4.4979 -0.0299747 0
M  V30 1637 C 148.641 -3.90435 -2.03098 0
M  V30 1638 H 145.76 -0.70734 -0.206975 0
M  V30 1639 H 148.402 -1.89309 0.161942 0
M  V30 1640 H 146.552 -3.46433 -1.7583 0
M  V30 1641 H 148.224 -4.57327 0.604112 0
M  V30 1642 H 146.467 -4.291 0.636833 0
M  V30 1643 H 147.138 -5.50069 -0.461287 0
M  V30 1644 H 149.614 -3.87992 -1.50338 0
M  V30 1645 H 148.49 -4.94097 -2.39081 0
M  V30 1646 H 148.751 -3.29541 -2.94712 0
M  V30 1647 N 147.81 0.181792 -1.56548 0
M  V30 1648 C 148.74 1.22765 -1.98623 0
M  V30 1649 C 149.721 1.46747 -0.860189 0
M  V30 1650 O 150.906 1.58259 -1.12551 0
M  V30 1651 C 148.036 2.56894 -2.33715 0
M  V30 1652 C 146.99 2.475 -3.49182 0
M  V30 1653 C 146.316 3.86023 -3.69986 0
M  V30 1654 C 147.616 1.98866 -4.82959 0
M  V30 1655 H 149.31 0.877942 -2.86239 0
M  V30 1656 H 146.856 0.42088 -1.37712 0
M  V30 1657 H 148.809 3.30253 -2.61746 0
M  V30 1658 H 147.533 2.93632 -1.42997 0
M  V30 1659 H 146.192 1.76596 -3.21262 0
M  V30 1660 H 145.84 4.20136 -2.76576 0
M  V30 1661 H 145.54 3.80609 -4.47672 0
M  V30 1662 H 147.064 4.60984 -4.00407 0
M  V30 1663 H 148.478 2.61992 -5.09934 0
M  V30 1664 H 146.875 2.04424 -5.64208 0
M  V30 1665 H 147.945 0.942465 -4.75653 0
M  V30 1666 N 149.288 1.51039 0.449983 0
M  V30 1667 C 150.537 1.62317 1.19733 0
M  V30 1668 C 150.85 0.339101 1.92638 0
M  V30 1669 O 152.056 0.331069 2.69474 0
M  V30 1670 C 150.512 2.86608 2.17678 0
M  V30 1671 C 150.12 4.21972 1.50479 0
M  V30 1672 C 151.864 3.07239 2.92924 0
M  V30 1673 C 149.771 5.37426 2.46834 0
M  V30 1674 H 148.701 0.604532 0.450619 0
M  V30 1675 H 151.352 1.77494 0.465625 0
M  V30 1676 H 149.734 2.65037 2.94231 0
M  V30 1677 H 150.908 4.53878 0.795716 0
M  V30 1678 H 149.223 4.07117 0.874344 0
M  V30 1679 H 151.82 3.90668 3.65079 0
M  V30 1680 H 152.163 2.19807 3.5354 0
M  V30 1681 H 152.696 3.29091 2.23481 0
M  V30 1682 H 149.435 6.27079 1.90926 0
M  V30 1683 H 148.955 5.09912 3.15832 0
M  V30 1684 H 150.634 5.68862 3.08228 0
M  V30 1685 N 150.766 -0.704594 1.40972 0
M  V30 1686 C 151.696 -1.83124 1.44872 0
M  V30 1687 C 152.677 -1.67281 0.30838 0
M  V30 1688 O 153.862 -1.87149 0.518556 0
M  V30 1689 C 150.992 -3.21181 1.32136 0
M  V30 1690 C 149.946 -3.51714 2.43888 0
M  V30 1691 C 149.272 -4.89032 2.16222 0
M  V30 1692 C 150.572 -3.516 3.86232 0
M  V30 1693 H 152.266 -1.80117 2.39161 0
M  V30 1694 H 149.812 -0.865145 1.15114 0
M  V30 1695 H 151.765 -3.99702 1.33479 0
M  V30 1696 H 150.489 -3.24791 0.343279 0
M  V30 1697 H 149.148 -2.75539 2.41813 0
M  V30 1698 H 148.796 -4.89256 1.16778 0
M  V30 1699 H 148.496 -5.10426 2.911 0
M  V30 1700 H 150.02 -5.69873 2.19265 0
M  V30 1701 H 151.434 -4.2014 3.9007 0
M  V30 1702 H 149.831 -3.84523 4.60719 0
M  V30 1703 H 150.901 -2.50757 4.15029 0
M  V30 1704 N 152.244 -1.26651 -0.937939 0
M  V30 1705 C 153.154 -1.10276 -2.07066 0
M  V30 1706 C 154.17 -0.0354197 -1.73964 0
M  V30 1707 O 155.346 -0.239816 -1.99967 0
M  V30 1708 C 152.411 -0.740887 -3.38691 0
M  V30 1709 C 151.472 -1.88799 -3.85556 0
M  V30 1710 C 150.705 -1.54329 -5.10899 0
M  V30 1711 O 150.928 -0.446494 -5.6865 0
M  V30 1712 O 149.862 -2.37911 -5.52885 0
M  V30 1713 H 153.688 -2.05309 -2.23789 0
M  V30 1714 H 151.273 -1.05743 -1.0554 0
M  V30 1715 H 153.155 -0.55195 -4.1777 0
M  V30 1716 H 151.83 0.180022 -3.23199 0
M  V30 1717 H 150.737 -2.13191 -3.07409 0
M  V30 1718 H 152.07 -2.78874 -4.05574 0
M  V30 1719 N 153.722 1.14298 -1.08507 0
M  V30 1720 C 154.652 2.21542 -0.737646 0
M  V30 1721 C 155.633 1.67773 0.280377 0
M  V30 1722 O 156.818 1.93616 0.150521 0
M  V30 1723 C 153.948 3.46988 -0.147259 0
M  V30 1724 C 152.902 4.13789 -1.09374 0
M  V30 1725 C 152.228 5.33449 -0.365524 0
M  V30 1726 C 153.528 4.62208 -2.4323 0
M  V30 1727 H 155.222 2.5086 -1.6343 0
M  V30 1728 H 152.768 1.20576 -0.787243 0
M  V30 1729 H 154.721 4.21262 0.107808 0
M  V30 1730 H 153.445 3.17037 0.784538 0
M  V30 1731 H 152.104 3.4147 -1.33393 0
M  V30 1732 H 151.752 4.99759 0.57011 0
M  V30 1733 H 151.452 5.79088 -0.996512 0
M  V30 1734 H 152.976 6.10485 -0.118534 0
M  V30 1735 H 154.39 5.27952 -2.23472 0
M  V30 1736 H 152.787 5.18553 -3.02031 0
M  V30 1737 H 153.857 3.77224 -3.04681 0
M  V30 1738 N 155.201 0.870884 1.31352 0
M  V30 1739 C 156.447 0.482987 1.96965 0
M  V30 1740 C 156.78 -0.962462 1.68672 0
M  V30 1741 O 156.055 -1.6779 0.98371 0
M  V30 1742 C 156.338 0.741752 3.52378 0
M  V30 1743 C 156.191 2.2368 3.9024 0
M  V30 1744 C 157.51 0.208838 4.39604 0
M  V30 1745 H 154.629 0.176955 0.715441 0
M  V30 1746 H 157.271 1.09229 1.55464 0
M  V30 1747 H 155.421 0.223149 3.87859 0
M  V30 1748 H 157.093 2.82273 3.64856 0
M  V30 1749 H 155.336 2.70901 3.38814 0
M  V30 1750 H 156.007 2.3685 4.98604 0
M  V30 1751 H 158.483 0.652529 4.10952 0
M  V30 1752 H 157.359 0.419336 5.47296 0
M  V30 1753 H 157.62 -0.889275 4.33064 0
M  V30 1754 N 156.679 -1.44442 0.630414 0
M  V30 1755 C 157.904 -2.06927 0.139944 0
M  V30 1756 C 158.329 -1.46795 -1.17613 0
M  V30 1757 O 157.687 -0.569144 -1.72135 0
M  V30 1758 C 157.735 -3.6058 0.0379581 0
M  V30 1759 O 156.839 -3.99937 -1.0062 0
M  V30 1760 H 156.18 -0.658608 0.0844483 0
M  V30 1761 H 158.71 -1.85327 0.866891 0
M  V30 1762 H 158.72 -4.07714 -0.152856 0
M  V30 1763 H 157.395 -4.03728 0.998809 0
M  V30 1764 H 155.972 -3.64436 -0.79001 0
M  V30 1765 N 158.157 -0.370918 -1.53173 0
M  V30 1766 C 159.405 0.216673 -2.00935 0
M  V30 1767 C 159.726 1.48845 -1.25977 0
M  V30 1768 O 158.996 1.92286 -0.374551 0
M  V30 1769 H 157.576 0.0830565 -0.742368 0
M  V30 1770 H 160.238 -0.49838 -1.8842 0
M  V30 1771 H 159.334 0.439893 -3.08984 0
M  V30 1772 N 159.635 1.57281 -0.100228 0
M  V30 1773 C 160.883 1.94153 0.561157 0
M  V30 1774 C 161.204 0.983157 1.68401 0
M  V30 1775 O 160.474 0.0361132 1.95867 0
M  V30 1776 H 159.054 0.716791 0.210283 0
M  V30 1777 H 161.716 1.94202 -0.164765 0
M  V30 1778 H 160.812 2.96709 0.968008 0
M  V30 1779 N 161.113 -0.173488 1.56642 0
M  V30 1780 C 162.023 -1.23482 1.99473 0
M  V30 1781 C 163.039 -1.48567 0.905752 0
M  V30 1782 O 164.215 -1.60758 1.21321 0
M  V30 1783 C 161.28 -2.55444 2.34413 0
M  V30 1784 C 160.341 -2.38241 3.57127 0
M  V30 1785 C 159.574 -3.63909 3.90392 0
M  V30 1786 O 159.797 -4.68996 3.24653 0
M  V30 1787 O 158.731 -3.58149 4.83749 0
M  V30 1788 H 162.557 -0.901279 2.90018 0
M  V30 1789 H 160.142 -0.380185 1.44482 0
M  V30 1790 H 162.024 -3.33292 2.57865 0
M  V30 1791 H 160.699 -2.88382 1.4703 0
M  V30 1792 H 159.606 -1.58431 3.38896 0
M  V30 1793 H 160.939 -2.10228 4.45045 0
M  V30 1794 N 162.591 -1.51276 -0.441967 0
M  V30 1795 C 163.521 -1.752 -1.54361 0
M  V30 1796 C 164.502 -0.601682 -1.59103 0
M  V30 1797 O 165.687 -0.843913 -1.74905 0
M  V30 1798 C 162.817 -1.87282 -2.92477 0
M  V30 1799 C 161.771 -3.02687 -3.02596 0
M  V30 1800 C 161.097 -2.99947 -4.42647 0
M  V30 1801 C 162.397 -4.4273 -2.77106 0
M  V30 1802 H 164.091 -2.67442 -1.34592 0
M  V30 1803 H 161.637 -1.28694 -0.646048 0
M  V30 1804 H 163.59 -2.02602 -3.695 0
M  V30 1805 H 162.314 -0.916844 -3.13467 0
M  V30 1806 H 160.973 -2.87065 -2.28012 0
M  V30 1807 H 160.621 -2.02136 -4.60597 0
M  V30 1808 H 160.321 -3.77439 -4.50348 0
M  V30 1809 H 161.845 -3.17354 -5.2165 0
M  V30 1810 H 163.259 -4.58727 -3.43864 0
M  V30 1811 H 161.656 -5.21893 -2.96222 0
M  V30 1812 H 162.726 -4.53087 -1.72744 0
M  V30 1813 N 164.069 0.697108 -1.41344 0
M  V30 1814 C 165.316 1.45714 -1.40619 0
M  V30 1815 C 165.644 1.94494 -0.0147907 0
M  V30 1816 O 164.899 1.69794 0.973066 0
M  V30 1817 C 165.198 2.68553 -2.35826 0
M  V30 1818 C 164.864 2.38438 -3.82698 0
M  V30 1819 C 163.526 2.29936 -4.22709 0
M  V30 1820 C 165.878 2.13567 -4.75435 0
M  V30 1821 C 163.206 1.94656 -5.53467 0
M  V30 1822 C 165.558 1.79797 -6.06511 0
M  V30 1823 C 164.222 1.69789 -6.45545 0
M  V30 1824 H 163.492 0.533206 -0.51456 0
M  V30 1825 H 166.139 0.796901 -1.74131 0
M  V30 1826 H 164.444 3.39503 -1.95563 0
M  V30 1827 H 166.141 3.2669 -2.32539 0
M  V30 1828 H 162.731 2.4595 -3.51008 0
M  V30 1829 H 166.915 2.19082 -4.45328 0
M  V30 1830 H 162.171 1.8546 -5.82593 0
M  V30 1831 H 166.345 1.59572 -6.77872 0
M  V30 1832 H 163.972 1.4222 -7.46778 0
M  V30 1833 N 165.547 1.27147 0.931209 0
M  V30 1834 C 166.824 1.0401 1.65654 0
M  V30 1835 C 167.204 -0.426297 2.06751 0
M  V30 1836 O 166.552 -1.40879 1.79904 0
M  V30 1837 C 166.762 1.99834 2.86125 0
M  V30 1838 C 168.11 2.29007 3.57549 0
M  V30 1839 O 169.134 1.97779 2.96246 0
M  V30 1840 O 167.993 2.82222 4.67989 0
M  V30 1841 H 165.087 0.396239 0.725895 0
M  V30 1842 H 167.633 1.38397 0.982056 0
M  V30 1843 H 166.405 2.98744 2.52721 0
M  V30 1844 H 166.028 1.65987 3.61295 0
M  V30 1845 N 167.025 -1.13721 1.09112 0
M  V30 1846 C 168.272 -1.84924 0.825192 0
M  V30 1847 C 168.6 -1.83347 -0.649151 0
M  V30 1848 O 167.855 -1.26449 -1.49362 0
M  V30 1849 C 168.154 -3.32861 1.30146 0
M  V30 1850 C 167.82 -3.54621 2.78486 0
M  V30 1851 C 166.482 -3.60268 3.18999 0
M  V30 1852 C 168.834 -3.62855 3.74146 0
M  V30 1853 C 166.162 -3.71679 4.53951 0
M  V30 1854 C 168.514 -3.75793 5.08883 0
M  V30 1855 C 167.178 -3.79692 5.4899 0
M  V30 1856 H 166.448 -0.676684 0.301959 0
M  V30 1857 H 169.095 -1.3428 1.36533 0
M  V30 1858 H 167.4 -3.85835 0.681064 0
M  V30 1859 H 169.097 -3.86395 1.07236 0
M  V30 1860 H 165.687 -3.50879 2.46134 0
M  V30 1861 H 169.871 -3.57775 3.43963 0
M  V30 1862 H 165.127 -3.72963 4.84467 0
M  V30 1863 H 169.301 -3.81107 5.82864 0
M  V30 1864 H 166.928 -3.88287 6.53558 0
M  V30 1865 N 168.503 -0.877838 -1.30888 0
M  V30 1866 C 169.433 -0.35534 -2.3078 0
M  V30 1867 C 170.414 0.557994 -1.60687 0
M  V30 1868 O 171.599 0.473355 -1.88343 0
M  V30 1869 C 168.729 0.437221 -3.44537 0
M  V30 1870 C 167.683 -0.383715 -4.26276 0
M  V30 1871 C 167.009 0.535014 -5.32017 0
M  V30 1872 C 168.309 -1.62201 -4.96476 0
M  V30 1873 H 170.003 -1.19007 -2.74732 0
M  V30 1874 H 167.549 -0.573698 -1.32078 0
M  V30 1875 H 169.502 0.813334 -4.13477 0
M  V30 1876 H 168.226 1.30553 -2.99372 0
M  V30 1877 H 166.885 -0.741874 -3.59015 0
M  V30 1878 H 166.533 1.40083 -4.831 0
M  V30 1879 H 166.233 -0.0104211 -5.87599 0
M  V30 1880 H 167.757 0.907799 -6.03814 0
M  V30 1881 H 169.171 -1.31689 -5.5797 0
M  V30 1882 H 167.568 -2.10711 -5.61891 0
M  V30 1883 H 168.638 -2.37044 -4.23011 0
M  V30 1884 N 169.982 1.44106 -0.638065 0
M  V30 1885 C 170.945 2.29138 0.0531013 0
M  V30 1886 C 171.945 1.41409 0.765506 0
M  V30 1887 O 173.135 1.63206 0.609046 0
M  V30 1888 C 170.267 3.23144 1.08584 0
M  V30 1889 H 171.46 2.91739 -0.694883 0
M  V30 1890 H 169.013 1.51134 -0.398538 0
M  V30 1891 H 169.748 2.65408 1.86357 0
M  V30 1892 H 169.533 3.87804 0.578852 0
M  V30 1893 H 171.023 3.87004 1.56899 0
M  V30 1894 N 171.46 0.379036 1.52974 0
M  V30 1895 C 172.392 -0.495963 2.2377 0
M  V30 1896 C 173.405 -1.03517 1.25651 0
M  V30 1897 O 174.594 -0.939249 1.51791 0
M  V30 1898 C 171.694 -1.69894 2.93239 0
M  V30 1899 C 170.867 -1.2889 4.17979 0
M  V30 1900 C 169.926 -2.35543 4.70538 0
M  V30 1901 O 168.952 -1.97375 5.33883 0
M  V30 1902 N 170.154 -3.67318 4.49508 0
M  V30 1903 H 172.919 0.110523 2.99496 0
M  V30 1904 H 170.48 0.204878 1.60598 0
M  V30 1905 H 172.472 -2.40747 3.25304 0
M  V30 1906 H 171.042 -2.212 2.20883 0
M  V30 1907 H 170.262 -0.409676 3.92065 0
M  V30 1908 H 171.55 -0.991443 4.99047 0
M  V30 1909 H 170.948 -4.01095 3.98923 0
M  V30 1910 H 169.505 -4.34235 4.8609 0
M  V30 1911 N 172.938 -1.57226 0.108567 0
M  V30 1912 C 173.885 -2.14756 -0.845481 0
M  V30 1913 C 174.855 -1.06971 -1.27068 0
M  V30 1914 O 176.04 -1.34827 -1.35005 0
M  V30 1915 C 173.18 -2.74298 -2.09415 0
M  V30 1916 C 172.293 -3.96358 -1.71826 0
M  V30 1917 C 171.428 -4.44021 -2.9158 0
M  V30 1918 C 170.467 -5.58637 -2.50181 0
M  V30 1919 N 169.604 -6.01091 -3.62814 0
M  V30 1920 H 174.444 -2.95961 -0.348035 0
M  V30 1921 H 171.981 -1.46226 -0.160106 0
M  V30 1922 H 173.939 -3.06945 -2.82561 0
M  V30 1923 H 172.569 -1.95801 -2.56636 0
M  V30 1924 H 171.621 -3.69939 -0.885947 0
M  V30 1925 H 172.933 -4.79504 -1.37394 0
M  V30 1926 H 172.087 -4.78522 -3.72963 0
M  V30 1927 H 170.826 -3.59803 -3.29231 0
M  V30 1928 H 169.831 -5.23751 -1.67228 0
M  V30 1929 H 171.056 -6.44613 -2.13659 0
M  V30 1930 H 169.002 -5.19817 -4.00158 0
M  V30 1931 H 168.919 -6.79066 -3.32273 0
M  V30 1932 H 170.187 -6.40227 -4.44668 0
M  V30 1933 N 174.416 0.165178 -1.56732 0
M  V30 1934 C 175.326 1.22423 -2.00125 0
M  V30 1935 C 176.342 1.48084 -0.913619 0
M  V30 1936 O 177.518 1.60112 -1.22172 0
M  V30 1937 C 174.583 2.54197 -2.35764 0
M  V30 1938 C 173.644 2.36343 -3.58386 0
M  V30 1939 C 172.877 3.61834 -3.92316 0
M  V30 1940 O 173.1 4.67267 -3.27135 0
M  V30 1941 O 172.034 3.55579 -4.85641 0
M  V30 1942 H 175.86 0.885886 -2.90492 0
M  V30 1943 H 173.445 0.372518 -1.44681 0
M  V30 1944 H 175.327 3.3192 -2.59629 0
M  V30 1945 H 174.002 2.87598 -1.48557 0
M  V30 1946 H 172.909 1.56632 -3.39731 0
M  V30 1947 H 174.242 2.07865 -4.46154 0
M  V30 1948 N 175.894 1.51508 0.433938 0
M  V30 1949 C 177.119 1.68443 1.21003 0
M  V30 1950 C 177.544 0.382636 1.84167 0
M  V30 1951 O 176.902 -0.65755 1.68956 0
M  V30 1952 C 176.95 2.80405 2.26727 0
M  V30 1953 O 176.054 2.44245 3.32292 0
M  V30 1954 H 175.395 0.561536 0.354363 0
M  V30 1955 H 177.925 1.9809 0.512024 0
M  V30 1956 H 177.935 3.0459 2.71457 0
M  V30 1957 H 176.61 3.74867 1.80132 0
M  V30 1958 H 175.187 2.30644 2.93015 0
M  V30 1959 N 177.372 -0.689602 1.41712 0
M  V30 1960 C 178.302 -1.81577 1.46806 0
M  V30 1961 C 179.283 -1.66945 0.326105 0
M  V30 1962 O 180.468 -1.86588 0.538377 0
M  V30 1963 C 177.598 -3.19762 1.35535 0
M  V30 1964 C 176.552 -3.49107 2.47605 0
M  V30 1965 C 175.878 -4.86711 2.21397 0
M  V30 1966 C 177.178 -3.47483 3.89939 0
M  V30 1967 H 178.872 -1.7757 2.41058 0
M  V30 1968 H 176.418 -0.852887 1.16025 0
M  V30 1969 H 178.371 -3.98263 1.3771 0
M  V30 1970 H 177.095 -3.24409 0.377708 0
M  V30 1971 H 175.754 -2.72959 2.44722 0
M  V30 1972 H 175.402 -4.8799 1.21961 0
M  V30 1973 H 175.102 -5.0731 2.96497 0
M  V30 1974 H 176.626 -5.67515 2.25297 0
M  V30 1975 H 178.04 -4.1598 3.94505 0
M  V30 1976 H 176.437 -3.79615 4.64771 0
M  V30 1977 H 177.507 -2.46341 4.17665 0
M  V30 1978 N 178.85 -1.27639 -0.924453 0
M  V30 1979 C 180.075 -1.17101 -1.71179 0
M  V30 1980 C 180.5 0.268134 -1.86179 0
M  V30 1981 O 179.858 1.19415 -1.36418 0
M  V30 1982 C 179.906 -1.86313 -3.08739 0
M  V30 1983 O 179.01 -1.16331 -3.95652 0
M  V30 1984 H 178.351 -0.407091 -0.524569 0
M  V30 1985 H 180.881 -1.68767 -1.15666 0
M  V30 1986 H 180.891 -1.938 -3.59034 0
M  V30 1987 H 179.566 -2.91001 -2.97138 0
M  V30 1988 H 178.143 -1.16935 -3.54091 0
M  V30 1989 N 180.328 1.1314 -1.09713 0
M  V30 1990 C 181.238 2.22242 -0.751367 0
M  V30 1991 C 182.254 1.72224 0.247938 0
M  V30 1992 O 183.43 2.01205 0.0885463 0
M  V30 1993 C 180.495 3.46231 -0.180274 0
M  V30 1994 C 179.556 4.11125 -1.2359 0
M  V30 1995 C 178.789 5.29195 -0.691966 0
M  V30 1996 O 179.012 5.68342 0.48414 0
M  V30 1997 O 177.946 5.84214 -1.44838 0
M  V30 1998 H 181.772 2.54197 -1.66186 0
M  V30 1999 H 179.357 1.21331 -0.871735 0
M  V30 2000 H 181.239 4.21185 0.134739 0
M  V30 2001 H 179.914 3.1597 0.703185 0
M  V30 2002 H 178.821 3.37985 -1.60366 0
M  V30 2003 H 180.154 4.45524 -2.09211 0
M  V30 2004 N 181.806 0.884767 1.30421 0
M  V30 2005 C 182.716 0.355398 2.31892 0
M  V30 2006 C 183.732 -0.542261 1.65335 0
M  V30 2007 O 184.908 -0.435432 1.96637 0
M  V30 2008 C 181.973 -0.421661 3.44126 0
M  V30 2009 C 181.034 0.505727 4.26311 0
M  V30 2010 C 180.267 -0.234343 5.33185 0
M  V30 2011 O 180.49 -1.46045 5.51386 0
M  V30 2012 O 179.424 0.415443 6.00465 0
M  V30 2013 H 183.25 1.19685 2.79122 0
M  V30 2014 H 180.835 0.648596 1.34587 0
M  V30 2015 H 182.717 -0.861641 4.12497 0
M  V30 2016 H 181.392 -1.23942 2.99032 0
M  V30 2017 H 180.299 0.994513 3.60639 0
M  V30 2018 H 181.632 1.28948 4.75009 0
M  V30 2019 N 183.284 -1.43765 0.645699 0
M  V30 2020 C 184.194 -2.34544 -0.0512957 0
M  V30 2021 C 185.21 -1.53455 -0.82022 0
M  V30 2022 O 186.386 -1.86133 -0.769176 0
M  V30 2023 C 183.451 -3.31636 -1.01087 0
M  V30 2024 C 182.512 -4.2863 -0.239712 0
M  V30 2025 C 181.745 -5.21084 -1.15358 0
M  V30 2026 O 181.968 -5.1779 -2.39269 0
M  V30 2027 O 180.902 -5.98593 -0.630038 0
M  V30 2028 H 184.728 -2.95624 0.695718 0
M  V30 2029 H 182.313 -1.43781 0.405882 0
M  V30 2030 H 184.195 -3.9136 -1.56254 0
M  V30 2031 H 182.87 -2.73069 -1.73824 0
M  V30 2032 H 181.777 -3.72408 0.355356 0
M  V30 2033 H 183.11 -4.90157 0.447936 0
M  V30 2034 N 184.763 -0.387143 -1.52771 0
M  V30 2035 C 185.726 0.436939 -2.24997 0
M  V30 2036 C 186.726 0.991991 -1.26555 0
M  V30 2037 O 187.916 0.874335 -1.50669 0
M  V30 2038 C 185.048 1.61281 -3.00335 0
M  V30 2039 H 186.241 -0.195365 -2.99263 0
M  V30 2040 H 183.794 -0.139218 -1.55679 0
M  V30 2041 H 184.529 2.2826 -2.30364 0
M  V30 2042 H 184.314 1.22154 -3.72587 0
M  V30 2043 H 185.804 2.19629 -3.5518 0
M  V30 2044 N 186.241 1.57166 -0.116904 0
M  V30 2045 C 187.469 1.99473 0.549383 0
M  V30 2046 C 187.884 0.996541 1.60357 0
M  V30 2047 O 187.241 -0.0108731 1.82497 0
M  V30 2048 C 187.292 3.41788 1.17741 0
M  V30 2049 O 187.013 4.37788 0.165362 0
M  V30 2050 C 188.514 3.99216 1.92722 0
M  V30 2051 H 185.734 0.655009 0.145616 0
M  V30 2052 H 188.278 2.03494 -0.202625 0
M  V30 2053 H 186.433 3.38713 1.88021 0
M  V30 2054 H 186.847 5.20806 0.621403 0
M  V30 2055 H 188.321 5.00882 2.31995 0
M  V30 2056 H 188.798 3.3824 2.80161 0
M  V30 2057 H 189.404 4.0583 1.27209 0
M  V30 2058 N 187.719 -0.156864 1.56817 0
M  V30 2059 C 188.944 -0.890331 1.87318 0
M  V30 2060 C 189.369 -1.74394 0.704855 0
M  V30 2061 O 188.727 -1.77972 -0.345786 0
M  V30 2062 C 188.775 -1.73102 3.16336 0
M  V30 2063 O 187.879 -2.83422 2.99576 0
M  V30 2064 H 187.22 -0.24857 0.615718 0
M  V30 2065 H 189.75 -0.150649 2.04045 0
M  V30 2066 H 189.76 -2.12803 3.48107 0
M  V30 2067 H 188.435 -1.10412 4.00976 0
M  V30 2068 H 187.012 -2.47199 2.7919 0
M  V30 2069 N 189.197 -1.51736 -0.425897 0
M  V30 2070 C 190.444 -1.6497 -1.17436 0
M  V30 2071 C 190.772 -0.371445 -1.9092 0
M  V30 2072 O 190.027 0.644963 -1.84767 0
M  V30 2073 C 190.326 -2.81103 -2.20717 0
M  V30 2074 C 189.992 -4.19954 -1.64162 0
M  V30 2075 C 188.654 -4.57725 -1.48462 0
M  V30 2076 C 191.006 -5.06552 -1.22696 0
M  V30 2077 C 188.334 -5.79789 -0.897873 0
M  V30 2078 C 190.686 -6.29205 -0.654464 0
M  V30 2079 C 189.35 -6.6574 -0.484456 0
M  V30 2080 H 188.62 -0.603668 -0.429727 0
M  V30 2081 H 191.267 -1.85798 -0.463829 0
M  V30 2082 H 189.572 -2.54542 -2.97852 0
M  V30 2083 H 191.269 -2.8854 -2.78471 0
M  V30 2084 H 187.859 -3.90181 -1.77361 0
M  V30 2085 H 192.043 -4.77968 -1.33642 0
M  V30 2086 H 187.299 -6.06733 -0.75402 0
M  V30 2087 H 191.473 -6.95643 -0.324694 0
M  V30 2088 H 189.1 -7.60195 -0.0276833 0
M  V30 2089 N 190.675 0.682077 -1.42076 0
M  V30 2090 C 191.924 1.43786 -1.41451 0
M  V30 2091 C 192.237 1.95574 -0.0317074 0
M  V30 2092 O 193.443 2.71326 0.0971462 0
M  V30 2093 C 191.899 2.60071 -2.48779 0
M  V30 2094 C 191.507 2.15013 -3.93031 0
M  V30 2095 C 193.251 3.37626 -2.57311 0
M  V30 2096 C 191.158 3.28336 -4.91883 0
M  V30 2097 H 190.088 0.540143 -0.526082 0
M  V30 2098 H 192.739 0.739157 -1.67955 0
M  V30 2099 H 191.121 3.32275 -2.15429 0
M  V30 2100 H 192.295 1.5001 -4.35699 0
M  V30 2101 H 190.61 1.50416 -3.88284 0
M  V30 2102 H 193.207 4.22012 -3.28345 0
M  V30 2103 H 193.55 3.83727 -1.61429 0
M  V30 2104 H 194.083 2.72488 -2.89819 0
M  V30 2105 H 190.822 2.87234 -5.89217 0
M  V30 2106 H 190.342 3.92145 -4.53853 0
M  V30 2107 H 192.021 3.93913 -5.13265 0
M  V30 2108 N 192.153 1.28127 0.917671 0
M  V30 2109 C 193.1 1.11717 2.0196 0
M  V30 2110 C 194.07 0.0153929 1.66093 0
M  V30 2111 O 195.255 0.179596 1.89953 0
M  V30 2112 C 192.395 0.780927 3.36148 0
M  V30 2113 C 191.508 1.96135 3.84909 0
M  V30 2114 C 190.643 1.56609 5.0759 0
M  V30 2115 C 189.682 2.71339 5.48673 0
M  V30 2116 N 188.819 2.32332 6.62545 0
M  V30 2117 H 193.659 2.06003 2.15329 0
M  V30 2118 H 191.196 1.02535 1.05475 0
M  V30 2119 H 193.154 0.56675 4.13333 0
M  V30 2120 H 191.784 -0.124998 3.22558 0
M  V30 2121 H 190.836 2.28777 3.03916 0
M  V30 2122 H 192.148 2.82165 4.1132 0
M  V30 2123 H 191.302 1.31374 5.92305 0
M  V30 2124 H 190.041 0.677014 4.82978 0
M  V30 2125 H 189.046 2.97276 4.62501 0
M  V30 2126 H 190.271 3.60882 5.75274 0
M  V30 2127 H 188.217 1.45889 6.39572 0
M  V30 2128 H 188.134 3.11899 6.88662 0
M  V30 2129 H 189.402 2.10371 7.50576 0
M  V30 2130 N 193.631 -1.12557 1.10312 0
M  V30 2131 C 194.563 -2.17971 0.708625 0
M  V30 2132 C 195.576 -1.60806 -0.254027 0
M  V30 2133 O 196.765 -1.78458 -0.0386891 0
M  V30 2134 C 193.865 -3.38891 0.0248198 0
M  V30 2135 C 193.038 -4.25548 1.01132 0
M  V30 2136 C 192.097 -5.24972 0.35924 0
M  V30 2137 O 191.123 -5.60174 1.00965 0
M  V30 2138 N 192.325 -5.73747 -0.882847 0
M  V30 2139 H 195.09 -2.52427 1.61557 0
M  V30 2140 H 192.651 -1.27967 0.991771 0
M  V30 2141 H 194.643 -4.02485 -0.422852 0
M  V30 2142 H 193.213 -3.02596 -0.784514 0
M  V30 2143 H 192.433 -3.58589 1.6373 0
M  V30 2144 H 193.721 -4.80294 1.67914 0
M  V30 2145 H 193.119 -5.4731 -1.43065 0
M  V30 2146 H 191.676 -6.39234 -1.27369 0
M  V30 2147 N 195.109 -0.891671 -1.2995 0
M  V30 2148 C 196.358 -0.509521 -1.95158 0
M  V30 2149 C 196.671 0.947388 -1.71125 0
M  V30 2150 O 197.877 1.43669 -2.30372 0
M  V30 2151 C 196.333 -0.860315 -3.49466 0
M  V30 2152 C 195.941 -2.33545 -3.8231 0
M  V30 2153 C 197.685 -0.547687 -4.20952 0
M  V30 2154 C 195.592 -2.62752 -5.29826 0
M  V30 2155 H 194.522 -0.18682 -0.730489 0
M  V30 2156 H 197.173 -1.08756 -1.47798 0
M  V30 2157 H 195.555 -0.211285 -3.95436 0
M  V30 2158 H 196.729 -3.02936 -3.47227 0
M  V30 2159 H 195.044 -2.61629 -3.23944 0
M  V30 2160 H 197.641 -0.742854 -5.29515 0
M  V30 2161 H 197.984 0.51332 -4.13123 0
M  V30 2162 H 198.517 -1.1542 -3.80688 0
M  V30 2163 H 195.256 -3.6762 -5.42712 0
M  V30 2164 H 194.776 -1.97977 -5.66185 0
M  V30 2165 H 196.455 -2.48601 -5.97333 0
M  V30 2166 N 196.587 1.43421 -0.653314 0
M  V30 2167 C 197.517 2.33487 0.0246656 0
M  V30 2168 C 198.498 1.49475 0.811863 0
M  V30 2169 O 199.683 1.78139 0.773322 0
M  V30 2170 C 196.813 3.32841 0.99166 0
M  V30 2171 C 195.767 4.26842 0.314568 0
M  V30 2172 C 195.093 5.16236 1.39302 0
M  V30 2173 C 196.393 5.16243 -0.793095 0
M  V30 2174 H 198.087 2.90427 -0.727481 0
M  V30 2175 H 195.633 1.39649 -0.351287 0
M  V30 2176 H 197.586 3.94747 1.47487 0
M  V30 2177 H 196.31 2.74158 1.77497 0
M  V30 2178 H 194.969 3.663 -0.148199 0
M  V30 2179 H 194.617 4.53891 2.16776 0
M  V30 2180 H 194.317 5.79948 0.945223 0
M  V30 2181 H 195.841 5.81015 1.87759 0
M  V30 2182 H 197.255 5.71958 -0.392039 0
M  V30 2183 H 195.652 5.88676 -1.16536 0
M  V30 2184 H 196.722 4.55927 -1.65103 0
M  V30 2185 N 198.065 0.39524 1.52563 0
M  V30 2186 C 199.342 -0.242908 1.94086 0
M  V30 2187 C 199.722 -1.63841 1.33114 0
M  V30 2188 O 199.07 -2.22928 0.501529 0
M  V30 2189 C 199.28 -0.26327 3.48006 0
M  V30 2190 C 200.628 -0.489354 4.21771 0
M  V30 2191 O 201.652 -0.343226 3.54543 0
M  V30 2192 O 200.511 -0.776169 5.4096 0
M  V30 2193 H 197.605 -0.152536 0.812811 0
M  V30 2194 H 200.151 0.450178 1.6362 0
M  V30 2195 H 198.923 0.713985 3.84731 0
M  V30 2196 H 198.546 -1.00103 3.84792 0
M  V30 2197 N 199.544 -1.57102 0.125237 0
M  V30 2198 C 200.792 -1.95021 -0.530198 0
M  V30 2199 C 201.113 -1.00982 -1.66816 0
M  V30 2200 O 200.383 -0.0672693 -1.95784 0
M  V30 2201 H 198.963 -0.720046 -0.198853 0
M  V30 2202 H 201.625 -1.93916 0.19564 0
M  V30 2203 H 200.721 -2.98211 -0.920681 0
M  V30 2204 N 201.022 0.148545 -1.56898 0
M  V30 2205 C 202.268 0.862694 -1.83536 0
M  V30 2206 C 202.601 1.80889 -0.706604 0
M  V30 2207 O 201.876 1.92328 0.289885 0
M  V30 2208 C 202.159 1.63853 -3.20662 0
M  V30 2209 C 202.012 0.713925 -4.44098 0
M  V30 2210 C 203.331 2.60133 -3.54991 0
M  V30 2211 H 200.45 0.312179 -0.667618 0
M  V30 2212 H 203.092 0.127953 -1.89569 0
M  V30 2213 H 201.242 2.26489 -3.1565 0
M  V30 2214 H 202.914 0.098686 -4.61194 0
M  V30 2215 H 201.157 0.0234019 -4.33794 0
M  V30 2216 H 201.828 1.29278 -5.36648 0
M  V30 2217 H 204.304 2.07616 -3.60603 0
M  V30 2218 H 203.18 3.11468 -4.51972 0
M  V30 2219 H 203.441 3.41417 -2.80868 0
M  V30 2220 N 202.5 1.5196 0.417844 0
M  V30 2221 C 203.448 1.75278 1.52907 0
M  V30 2222 C 204.442 0.619611 1.57662 0
M  V30 2223 O 205.648 0.801457 1.61173 0
M  V30 2224 H 202.023 0.554141 0.508362 0
M  V30 2225 H 203.994 2.68389 1.30422 0
M  V30 2226 C 202.743 1.91262 2.90369 0
M  V30 2227 H 202.066 2.77872 2.8745 0
M  V30 2228 H 203.506 2.11581 3.67436 0
M  V30 2229 C 201.965 0.677431 3.30019 0
M  V30 2230 O 202.495 -0.158799 4.01386 0
M  V30 2231 N 200.701 0.515851 2.85985 0
M  V30 2232 H 200.248 1.19744 2.28077 0
M  V30 2233 H 200.206 -0.309315 3.12875 0
M  V30 2234 N 203.978 -0.674533 1.42435 0
M  V30 2235 C 205.208 -1.46071 1.46105 0
M  V30 2236 C 205.616 -1.89067 0.0709605 0
M  V30 2237 O 204.959 -1.58731 -0.924677 0
M  V30 2238 C 205.021 -2.74145 2.32561 0
M  V30 2239 C 204.685 -2.53224 3.8043 0
M  V30 2240 C 205.682 -2.17809 4.72075 0
M  V30 2241 C 203.367 -2.6821 4.24698 0
M  V30 2242 C 205.361 -1.97648 6.05982 0
M  V30 2243 C 203.048 -2.47665 5.58664 0
M  V30 2244 C 204.046 -2.12437 6.49122 0
M  V30 2245 O 203.734 -1.9209 7.80613 0
M  V30 2246 H 203.466 -0.455959 0.499076 0
M  V30 2247 H 206.02 -0.836193 1.87609 0
M  V30 2248 H 204.25 -3.3908 1.85908 0
M  V30 2249 H 205.939 -3.36028 2.27683 0
M  V30 2250 H 206.705 -2.05826 4.39159 0
M  V30 2251 H 202.584 -2.94609 3.54579 0
M  V30 2252 H 206.128 -1.70075 6.7655 0
M  V30 2253 H 202.025 -2.59244 5.91154 0
M  V30 2254 H 202.793 -2.06686 7.91974 0
M  V30 2255 N 205.456 -1.28612 -0.910864 0
M  V30 2256 C 206.386 -1.15326 -2.03032 0
M  V30 2257 C 207.367 -0.0502924 -1.70026 0
M  V30 2258 O 208.552 -0.227797 -1.92859 0
M  V30 2259 C 205.682 -0.817343 -3.37545 0
M  V30 2260 C 204.636 -1.8754 -3.84724 0
M  V30 2261 C 203.962 -1.39305 -5.16235 0
M  V30 2262 C 205.262 -3.28244 -4.06267 0
M  V30 2263 H 206.956 -2.08975 -2.14406 0
M  V30 2264 H 204.502 -1.00612 -1.03021 0
M  V30 2265 H 206.455 -0.711151 -4.15356 0
M  V30 2266 H 205.179 0.154846 -3.26233 0
M  V30 2267 H 203.838 -1.97079 -3.09121 0
M  V30 2268 H 203.486 -0.409846 -5.01328 0
M  V30 2269 H 203.186 -2.10057 -5.48771 0
M  V30 2270 H 204.71 -1.30014 -5.96598 0
M  V30 2271 H 206.124 -3.21611 -4.74594 0
M  V30 2272 H 204.521 -3.96855 -4.5014 0
M  V30 2273 H 205.591 -3.72048 -3.10979 0
M  V30 2274 N 206.934 1.1197 -1.10907 0
M  V30 2275 C 207.884 2.15946 -0.731538 0
M  V30 2276 C 208.868 1.58758 0.261699 0
M  V30 2277 O 210.06 1.76863 0.0696722 0
M  V30 2278 C 207.189 3.42877 -0.170299 0
M  V30 2279 C 206.275 4.07037 -1.19087 0
M  V30 2280 N 206.666 4.46135 -2.38322 0
M  V30 2281 C 204.964 4.33884 -1.03252 0
M  V30 2282 C 205.665 4.96331 -3.03366 0
M  V30 2283 N 204.641 4.9214 -2.30865 0
M  V30 2284 H 208.443 2.43947 -1.63912 0
M  V30 2285 H 205.957 1.28927 -0.987505 0
M  V30 2286 H 207.954 4.16732 0.118271 0
M  V30 2287 H 206.614 3.16343 0.731935 0
M  V30 2288 H 207.625 4.38345 -2.75815 0
M  V30 2289 H 204.302 4.17084 -0.186256 0
M  V30 2290 H 205.692 5.36257 -4.04818 0
M  V30 2291 N 208.412 0.89855 1.29475 0
M  V30 2292 C 209.64 0.539261 1.99749 0
M  V30 2293 C 210.055 -0.875716 1.67262 0
M  V30 2294 O 209.412 -1.57786 0.917049 0
M  V30 2295 C 209.463 0.72061 3.54245 0
M  V30 2296 O 209.184 2.07989 3.8558 0
M  V30 2297 C 210.685 0.366118 4.41786 0
M  V30 2298 H 207.905 0.207047 0.638258 0
M  V30 2299 H 210.449 1.20758 1.65039 0
M  V30 2300 H 208.604 0.0994862 3.87272 0
M  V30 2301 H 209.018 2.10841 4.80257 0
M  V30 2302 H 210.492 0.543848 5.49314 0
M  V30 2303 H 210.969 -0.696763 4.33638 0
M  V30 2304 H 211.575 0.964135 4.14228 0
M  V30 2305 N 209.89 -1.43072 0.660911 0
M  V30 2306 C 210.837 -2.30785 -0.0259884 0
M  V30 2307 C 211.807 -1.45184 -0.806888 0
M  V30 2308 O 212.992 -1.74041 -0.781943 0
M  V30 2309 C 210.132 -3.30861 -0.981067 0
M  V30 2310 C 209.245 -4.31558 -0.195458 0
M  V30 2311 C 208.38 -5.18712 -1.14503 0
M  V30 2312 C 207.419 -6.11097 -0.350299 0
M  V30 2313 N 206.556 -6.90849 -1.25186 0
M  V30 2314 H 211.396 -2.88975 0.727846 0
M  V30 2315 H 208.933 -1.42353 0.370682 0
M  V30 2316 H 210.891 -3.87399 -1.54849 0
M  V30 2317 H 209.521 -2.74304 -1.70169 0
M  V30 2318 H 208.573 -3.77252 0.488374 0
M  V30 2319 H 209.885 -4.9701 0.422176 0
M  V30 2320 H 209.039 -5.79914 -1.78284 0
M  V30 2321 H 207.778 -4.53404 -1.79656 0
M  V30 2322 H 206.783 -5.48976 0.300808 0
M  V30 2323 H 208.008 -6.7845 0.296941 0
M  V30 2324 H 205.954 -6.28182 -1.89005 0
M  V30 2325 H 205.871 -7.52854 -0.688971 0
M  V30 2326 H 207.139 -7.5655 -1.87757 0
M  V30 2327 N 211.368 -0.403325 -1.52352 0
M  V30 2328 C 212.315 0.425011 -2.26853 0
M  V30 2329 C 213.285 1.04598 -1.29029 0
M  V30 2330 O 214.47 1.07135 -1.57882 0
M  V30 2331 C 211.61 1.53888 -3.08889 0
M  V30 2332 C 210.723 0.939396 -4.21663 0
M  V30 2333 C 209.858 2.02547 -4.91068 0
M  V30 2334 C 208.897 1.40263 -5.95813 0
M  V30 2335 N 208.034 2.4286 -6.58759 0
M  V30 2336 H 212.874 -0.21674 -2.97211 0
M  V30 2337 H 210.411 -0.118722 -1.4662 0
M  V30 2338 H 212.369 2.19558 -3.54753 0
M  V30 2339 H 210.999 2.15074 -2.40714 0
M  V30 2340 H 210.051 0.171898 -3.80011 0
M  V30 2341 H 211.363 0.44436 -4.96817 0
M  V30 2342 H 210.517 2.75958 -5.40308 0
M  V30 2343 H 209.256 2.55415 -4.15469 0
M  V30 2344 H 208.261 0.653833 -5.45898 0
M  V30 2345 H 209.486 0.881719 -6.73352 0
M  V30 2346 H 207.432 2.94871 -5.85992 0
M  V30 2347 H 207.349 1.98152 -7.2957 0
M  V30 2348 H 208.617 3.15858 -7.12639 0
M  V30 2349 N 212.846 1.57033 -0.133567 0
M  V30 2350 C 214.095 1.94861 0.520768 0
M  V30 2351 C 214.408 1.02012 1.66892 0
M  V30 2352 O 215.614 1.29365 2.38699 0
M  V30 2353 C 214.07 3.46362 0.977809 0
M  V30 2354 C 213.678 4.47773 -0.142674 0
M  V30 2355 C 215.422 3.93083 1.60269 0
M  V30 2356 C 213.329 5.90468 0.331883 0
M  V30 2357 H 212.259 0.727453 0.198315 0
M  V30 2358 H 214.91 1.82227 -0.215759 0
M  V30 2359 H 213.292 3.54282 1.7692 0
M  V30 2360 H 214.466 4.51536 -0.919317 0
M  V30 2361 H 212.781 4.10891 -0.675124 0
M  V30 2362 H 215.378 4.97121 1.96914 0
M  V30 2363 H 215.721 3.33876 2.48662 0
M  V30 2364 H 216.254 3.88025 0.876453 0
M  V30 2365 H 212.993 6.53463 -0.516341 0
M  V30 2366 H 212.513 5.90094 1.07469 0
M  V30 2367 H 214.192 6.42179 0.788332 0
M  V30 2368 N 214.325 -0.140222 1.56975 0
M  V30 2369 C 215.288 -1.15689 1.97861 0
M  V30 2370 C 216.288 -1.3549 0.865974 0
M  V30 2371 O 217.478 -1.32367 1.13246 0
M  V30 2372 C 214.61 -2.51582 2.30042 0
M  V30 2373 H 215.803 -0.805971 2.88867 0
M  V30 2374 H 213.356 -0.383801 1.51515 0
M  V30 2375 H 214.091 -2.91632 1.41849 0
M  V30 2376 H 213.876 -2.38569 3.11171 0
M  V30 2377 H 215.366 -3.24792 2.62488 0
M  V30 2378 N 215.803 -1.52179 -0.40978 0
M  V30 2379 C 216.753 -1.71857 -1.49831 0
M  V30 2380 C 217.737 -0.572469 -1.50372 0
M  V30 2381 O 218.929 -0.829509 -1.56359 0
M  V30 2382 C 216.058 -1.87206 -2.87765 0
M  V30 2383 C 215.144 -3.07685 -2.91875 0
M  V30 2384 N 215.535 -4.30403 -2.65683 0
M  V30 2385 C 213.833 -3.07505 -3.23043 0
M  V30 2386 C 214.534 -5.11868 -2.76344 0
M  V30 2387 N 213.51 -4.47101 -3.09195 0
M  V30 2388 H 217.312 -2.64381 -1.28375 0
M  V30 2389 H 214.826 -1.50203 -0.617479 0
M  V30 2390 H 216.823 -1.99419 -3.66111 0
M  V30 2391 H 215.483 -0.958814 -3.10221 0
M  V30 2392 H 216.494 -4.58887 -2.4009 0
M  V30 2393 H 213.171 -2.25915 -3.51096 0
M  V30 2394 H 214.561 -6.19634 -2.59814 0
M  V30 2395 N 217.281 0.66697 -1.42791 0
M  V30 2396 C 218.528 1.42699 -1.43678 0
M  V30 2397 C 218.856 1.94419 -0.0560425 0
M  V30 2398 O 218.111 1.7182 0.936831 0
M  V30 2399 C 218.41 2.6349 -2.4147 0
M  V30 2400 C 218.076 2.30267 -3.8767 0
M  V30 2401 C 216.738 2.20918 -4.27491 0
M  V30 2402 C 219.09 2.03435 -4.79858 0
M  V30 2403 C 216.418 1.82873 -5.57471 0
M  V30 2404 C 218.77 1.66892 -6.10188 0
M  V30 2405 C 217.434 1.56058 -6.49001 0
M  V30 2406 H 216.704 0.522171 -0.525755 0
M  V30 2407 H 219.351 0.759785 -1.75783 0
M  V30 2408 H 217.656 3.35279 -2.0272 0
M  V30 2409 H 219.353 3.21684 -2.39417 0
M  V30 2410 H 215.943 2.38449 -3.56146 0
M  V30 2411 H 220.127 2.09586 -4.49875 0
M  V30 2412 H 215.383 1.7306 -5.86396 0
M  V30 2413 H 219.557 1.45157 -6.81104 0
M  V30 2414 H 217.184 1.26348 -7.49627 0
M  V30 2415 N 218.759 1.29093 0.90403 0
M  V30 2416 C 220.036 1.075 1.63411 0
M  V30 2417 C 220.416 -0.382346 2.07609 0
M  V30 2418 O 219.764 -1.37031 1.82851 0
M  V30 2419 C 219.974 2.05858 2.81822 0
M  V30 2420 C 221.322 2.36539 3.52611 0
M  V30 2421 O 222.346 2.04019 2.91984 0
M  V30 2422 O 221.205 2.92085 4.61897 0
M  V30 2423 H 218.299 0.411547 0.717327 0
M  V30 2424 H 220.845 1.40449 0.952479 0
M  V30 2425 H 219.617 3.04037 2.46327 0
M  V30 2426 H 219.24 1.73613 3.57693 0
M  V30 2427 N 220.237 -1.11381 1.11499 0
M  V30 2428 C 221.167 -2.19509 0.796125 0
M  V30 2429 C 222.148 -1.68458 -0.235796 0
M  V30 2430 O 223.333 -1.93947 -0.0991344 0
M  V30 2431 C 220.463 -3.46475 0.239205 0
M  V30 2432 C 219.417 -4.10744 1.20307 0
M  V30 2433 C 218.743 -5.32293 0.50683 0
M  V30 2434 C 220.043 -4.55597 2.55399 0
M  V30 2435 H 221.737 -2.46439 1.70024 0
M  V30 2436 H 219.283 -1.18446 0.818935 0
M  V30 2437 H 221.236 -4.214 0.00392006 0
M  V30 2438 H 219.96 -3.19006 -0.700206 0
M  V30 2439 H 218.619 -3.37813 1.42399 0
M  V30 2440 H 218.267 -5.01095 -0.437408 0
M  V30 2441 H 217.967 -5.76243 1.1497 0
M  V30 2442 H 219.491 -6.09956 0.280351 0
M  V30 2443 H 220.905 -5.21841 2.37391 0
M  V30 2444 H 219.302 -5.10363 3.15673 0
M  V30 2445 H 220.372 -3.69013 3.14575 0
M  V30 2446 N 221.715 -0.905404 -1.28997 0
M  V30 2447 C 222.662 -0.385892 -2.27551 0
M  V30 2448 C 223.632 0.535113 -1.57244 0
M  V30 2449 O 224.817 0.459119 -1.85194 0
M  V30 2450 C 221.957 0.375461 -3.43051 0
M  V30 2451 C 221.07 -0.577092 -4.28128 0
M  V30 2452 C 220.205 0.201879 -5.30816 0
M  V30 2453 C 219.244 -0.744829 -6.07551 0
M  V30 2454 N 218.381 9.42587e-05 -7.021 0
M  V30 2455 H 223.221 -1.23139 -2.71368 0
M  V30 2456 H 220.758 -0.618542 -1.33463 0
M  V30 2457 H 222.716 0.832992 -4.088 0
M  V30 2458 H 221.346 1.18537 -3.00248 0
M  V30 2459 H 220.398 -1.15315 -3.62501 0
M  V30 2460 H 221.71 -1.30152 -4.8152 0
M  V30 2461 H 220.864 0.720351 -6.02408 0
M  V30 2462 H 219.603 0.959413 -4.7817 0
M  V30 2463 H 218.608 -1.27475 -5.34818 0
M  V30 2464 H 219.833 -1.50178 -6.62286 0
M  V30 2465 H 217.779 0.739791 -6.51815 0
M  V30 2466 H 217.696 -0.664321 -7.53076 0
M  V30 2467 H 218.964 0.498644 -7.77903 0
M  V30 2468 N 223.193 1.4272 -0.668489 0
M  V30 2469 C 224.604 1.84793 -0.266151 0
M  V30 2470 C 224.955 1.55959 1.19043 0
M  V30 2471 O 224.08 1.01622 1.91055 0
M  V30 2472 C 224.675 3.35436 -0.476271 0
M  V30 2473 C 223.234 3.76182 -0.128113 0
M  V30 2474 C 222.381 2.66344 -0.771777 0
M  V30 2475 H 225.332 1.32656 -0.871098 0
M  V30 2476 H 225.353 3.79515 0.273561 0
M  V30 2477 H 224.865 3.5639 -1.53647 0
M  V30 2478 H 222.966 3.60836 0.928891 0
M  V30 2479 H 223.079 4.75766 -0.564231 0
M  V30 2480 H 221.443 2.53885 -0.203652 0
M  V30 2481 H 222.226 2.90123 -1.83531 0
M  V30 2482 N 224.671 0.411399 1.52136 0
M  V30 2483 C 225.581 -0.419774 2.30814 0
M  V30 2484 C 226.597 -1.0515 1.38634 0
M  V30 2485 O 227.773 -1.05252 1.71709 0
M  V30 2486 C 224.838 -1.52019 3.11594 0
M  V30 2487 C 223.899 -0.91129 4.19516 0
M  V30 2488 C 223.132 -1.95927 4.96436 0
M  V30 2489 O 223.355 -3.17775 4.73683 0
M  V30 2490 O 222.289 -1.56423 5.81219 0
M  V30 2491 H 226.115 0.221805 3.02889 0
M  V30 2492 H 223.7 0.174547 1.48377 0
M  V30 2493 H 225.582 -2.15898 3.61892 0
M  V30 2494 H 224.257 -2.14633 2.42311 0
M  V30 2495 H 223.164 -0.235157 3.7336 0
M  V30 2496 H 224.497 -0.32904 4.91099 0
M  V30 2497 N 226.149 -1.5696 0.141893 0
M  V30 2498 C 227.097 -2.17784 -0.816874 0
M  V30 2499 C 228.091 -1.1334 -1.25899 0
M  V30 2500 O 229.297 -1.316 -1.22806 0
M  V30 2501 H 225.672 -0.697278 -0.281615 0
M  V30 2502 H 227.643 -2.97087 -0.279621 0
M  V30 2503 C 226.392 -2.80983 -2.04802 0
M  V30 2504 H 225.715 -3.61062 -1.7168 0
M  V30 2505 H 227.155 -3.2705 -2.69841 0
M  V30 2506 C 225.614 -1.79228 -2.8527 0
M  V30 2507 O 226.144 -1.25962 -3.8144 0
M  V30 2508 N 224.35 -1.48647 -2.49704 0
M  V30 2509 H 223.897 -1.92155 -1.71564 0
M  V30 2510 H 223.855 -0.808115 -3.03837 0
M  V30 2511 N 227.627 0.131896 -1.57047 0
M  V30 2512 C 228.876 0.84044 -1.83356 0
M  V30 2513 C 229.189 1.81646 -0.725535 0
M  V30 2514 O 230.395 2.57025 -0.874659 0
M  V30 2515 C 228.851 1.54528 -3.25037 0
M  V30 2516 C 228.459 0.610902 -4.43815 0
M  V30 2517 C 230.203 2.23972 -3.60606 0
M  V30 2518 C 228.11 1.31823 -5.76521 0
M  V30 2519 H 227.04 0.317599 -0.683847 0
M  V30 2520 H 229.691 0.0931561 -1.83263 0
M  V30 2521 H 228.073 2.33873 -3.19561 0
M  V30 2522 H 229.247 -0.148407 -4.60561 0
M  V30 2523 H 227.562 0.0241016 -4.16393 0
M  V30 2524 H 230.159 2.77558 -4.57018 0
M  V30 2525 H 230.502 3.01173 -2.87403 0
M  V30 2526 H 231.035 1.51529 -3.6781 0
M  V30 2527 H 227.774 0.587771 -6.52859 0
M  V30 2528 H 227.294 2.04987 -5.63685 0
M  V30 2529 H 228.973 1.855 -6.19838 0
M  V30 2530 N 229.106 1.52395 0.401703 0
M  V30 2531 C 230.039 1.70999 1.51111 0
M  V30 2532 C 231.017 0.55765 1.52738 0
M  V30 2533 O 232.201 0.785912 1.71335 0
M  V30 2534 C 229.328 1.75607 2.8962 0
M  V30 2535 C 228.374 2.97227 3.05873 0
M  V30 2536 S 229.207 4.57439 2.78405 0
M  V30 2537 C 230.363 4.64844 4.19131 0
M  V30 2538 H 230.596 2.6483 1.35102 0
M  V30 2539 H 228.129 1.42527 0.593762 0
M  V30 2540 H 230.087 1.78947 3.69443 0
M  V30 2541 H 228.748 0.828914 3.02965 0
M  V30 2542 H 227.941 2.96955 4.07227 0
M  V30 2543 H 227.543 2.91813 2.33925 0
M  V30 2544 H 229.835 4.42677 5.12877 0
M  V30 2545 H 230.778 5.66807 4.24424 0
M  V30 2546 H 231.186 3.93804 4.04448 0
M  V30 2547 N 230.584 -0.659388 1.43143 0
M  V30 2548 C 231.514 -1.78422 1.50625 0
M  V30 2549 C 232.495 -1.66216 0.361443 0
M  V30 2550 O 233.68 -1.85404 0.577834 0
M  V30 2551 C 230.81 -3.16815 1.42287 0
M  V30 2552 C 229.764 -3.43777 2.54954 0
M  V30 2553 C 229.09 -4.81905 2.31671 0
M  V30 2554 C 230.39 -3.39134 3.97222 0
M  V30 2555 H 232.084 -1.72417 2.44771 0
M  V30 2556 H 229.63 -0.828084 1.17808 0
M  V30 2557 H 231.583 -3.95253 1.46127 0
M  V30 2558 H 230.307 -3.23534 0.446435 0
M  V30 2559 H 228.966 -2.67707 2.50457 0
M  V30 2560 H 228.614 -4.85294 1.32284 0
M  V30 2561 H 228.314 -5.00906 3.07192 0
M  V30 2562 H 229.838 -5.62609 2.37284 0
M  V30 2563 H 231.252 -4.07518 4.03239 0
M  V30 2564 H 229.649 -3.69671 4.72719 0
M  V30 2565 H 230.719 -2.37426 4.22797 0
M  V30 2566 N 232.062 -1.29571 -0.897171 0
M  V30 2567 C 232.992 -1.17473 -2.01798 0
M  V30 2568 C 233.973 -0.068323 -1.69963 0
M  V30 2569 O 235.158 -0.248239 -1.92607 0
M  V30 2570 C 232.288 -0.853099 -3.36659 0
M  V30 2571 C 231.242 -1.9161 -3.82713 0
M  V30 2572 C 230.568 -1.44773 -5.14728 0
M  V30 2573 C 231.868 -3.32535 -4.02763 0
M  V30 2574 H 233.562 -2.11237 -2.12177 0
M  V30 2575 H 231.108 -1.01699 -1.01948 0
M  V30 2576 H 233.061 -0.755165 -4.14578 0
M  V30 2577 H 231.785 0.120236 -3.26379 0
M  V30 2578 H 230.444 -2.00346 -3.07013 0
M  V30 2579 H 230.092 -0.462995 -5.00865 0
M  V30 2580 H 229.792 -2.15865 -5.46513 0
M  V30 2581 H 231.316 -1.36334 -5.95185 0
M  V30 2582 H 232.73 -3.26626 -4.71156 0
M  V30 2583 H 231.127 -4.01607 -4.45905 0
M  V30 2584 H 232.197 -3.75326 -3.07016 0
M  V30 2585 N 233.54 1.10788 -1.12088 0
M  V30 2586 C 234.817 1.79136 -0.785476 0
M  V30 2587 C 235.197 1.98246 0.725377 0
M  V30 2588 O 234.545 1.57258 1.65778 0
M  V30 2589 C 234.755 3.12375 -1.55636 0
M  V30 2590 C 236.103 3.8731 -1.74001 0
M  V30 2591 O 237.127 3.22085 -1.52117 0
M  V30 2592 O 235.986 5.04369 -2.10415 0
M  V30 2593 H 233.08 0.776226 -0.285311 0
M  V30 2594 H 235.626 1.1747 -1.2247 0
M  V30 2595 H 234.398 2.93863 -2.5838 0
M  V30 2596 H 234.021 3.81758 -1.11114 0
M  V30 2597 N 235.018 0.912232 1.28515 0
M  V30 2598 C 235.965 0.397954 2.27343 0
M  V30 2599 C 236.935 -0.526766 1.57526 0
M  V30 2600 O 238.12 -0.449292 1.85435 0
M  V30 2601 C 235.26 -0.357263 3.43246 0
M  V30 2602 C 234.373 0.599788 4.27816 0
M  V30 2603 C 233.508 -0.173725 5.30916 0
M  V30 2604 C 232.547 0.777039 6.07148 0
M  V30 2605 N 231.684 0.0371398 7.0209 0
M  V30 2606 H 236.524 1.24577 2.70711 0
M  V30 2607 H 234.061 0.625612 1.33133 0
M  V30 2608 H 236.019 -0.8113 4.09236 0
M  V30 2609 H 234.649 -1.16943 3.00872 0
M  V30 2610 H 233.701 1.17235 3.61884 0
M  V30 2611 H 235.013 1.32704 4.80823 0
M  V30 2612 H 234.167 -0.688394 6.02782 0
M  V30 2613 H 232.906 -0.934041 4.78672 0
M  V30 2614 H 231.911 1.3031 5.34134 0
M  V30 2615 H 233.136 1.53689 6.61481 0
M  V30 2616 H 231.082 -0.705213 6.52198 0
M  V30 2617 H 230.999 0.704249 7.52713 0
M  V30 2618 H 232.267 -0.457383 7.78157 0
M  V30 2619 N 236.496 -1.42363 0.676048 0
M  V30 2620 C 237.444 -2.32596 -0.0131507 0
M  V30 2621 C 238.438 -1.49891 -0.789238 0
M  V30 2622 O 239.644 -1.65955 -0.697061 0
M  V30 2623 H 236.019 -0.751647 -0.0230481 0
M  V30 2624 H 237.99 -2.88421 0.765243 0
M  V30 2625 C 236.739 -3.34479 -0.949702 0
M  V30 2626 H 236.062 -3.98158 -0.361938 0
M  V30 2627 H 237.502 -4.00199 -1.4006 0
M  V30 2628 C 235.961 -2.66838 -2.05667 0
M  V30 2629 O 236.491 -2.50124 -3.14326 0
M  V30 2630 N 234.697 -2.25843 -1.82875 0
M  V30 2631 H 234.244 -2.39637 -0.945085 0
M  V30 2632 H 234.202 -1.80918 -2.5713 0
M  V30 2633 N 237.974 -0.419461 -1.51915 0
M  V30 2634 C 239.223 0.154346 -2.01109 0
M  V30 2635 C 239.536 1.45338 -1.30905 0
M  V30 2636 O 240.742 2.10906 -1.7097 0
M  V30 2637 C 239.198 0.325615 -3.58424 0
M  V30 2638 C 238.806 -0.961934 -4.37551 0
M  V30 2639 C 240.55 0.854155 -4.15818 0
M  V30 2640 C 238.457 -0.757287 -5.86531 0
M  V30 2641 H 237.387 0.0614563 -0.751491 0
M  V30 2642 H 240.038 -0.54649 -1.75173 0
M  V30 2643 H 238.42 1.08903 -3.80731 0
M  V30 2644 H 239.594 -1.7323 -4.26999 0
M  V30 2645 H 237.909 -1.41766 -3.91524 0
M  V30 2646 H 240.506 1.02346 -5.24814 0
M  V30 2647 H 240.849 1.83172 -3.73837 0
M  V30 2648 H 241.382 0.149528 -3.97519 0
M  V30 2649 H 238.121 -1.70671 -6.32892 0
M  V30 2650 H 237.641 -0.0264061 -5.99794 0
M  V30 2651 H 239.32 -0.403482 -6.45741 0
M  V30 2652 N 239.452 1.56882 -0.150215 0
M  V30 2653 C 240.863 1.82995 0.370076 0
M  V30 2654 C 241.214 1.06907 1.64515 0
M  V30 2655 O 240.339 0.315369 2.1409 0
M  V30 2656 C 240.934 3.31942 0.678208 0
M  V30 2657 C 239.493 3.58625 1.14301 0
M  V30 2658 C 238.64 2.76792 0.167778 0
M  V30 2659 H 241.591 1.54209 -0.374858 0
M  V30 2660 H 241.612 3.48272 1.53254 0
M  V30 2661 H 241.124 3.87294 -0.249991 0
M  V30 2662 H 239.225 3.08664 2.08704 0
M  V30 2663 H 239.338 4.67073 1.06676 0
M  V30 2664 H 237.702 2.45972 0.661037 0
M  V30 2665 H 238.485 3.34916 -0.754069 0
M  V30 2666 N 240.93 -0.123565 1.57115 0
M  V30 2667 C 242.179 -0.830704 1.83799 0
M  V30 2668 C 242.492 -1.81259 0.735158 0
M  V30 2669 O 243.698 -2.56558 0.888278 0
M  V30 2670 C 242.154 -1.52802 3.25852 0
M  V30 2671 C 241.762 -0.587356 4.44133 0
M  V30 2672 C 243.506 -2.22056 3.61789 0
M  V30 2673 C 241.413 -1.28764 5.77212 0
M  V30 2674 H 240.343 -0.313967 0.685522 0
M  V30 2675 H 242.994 -0.0834359 1.8331 0
M  V30 2676 H 241.376 -2.32175 3.20797 0
M  V30 2677 H 242.55 0.172829 4.60476 0
M  V30 2678 H 240.865 -0.00201892 4.164 0
M  V30 2679 H 243.462 -2.75131 4.58483 0
M  V30 2680 H 243.805 -2.99644 2.88997 0
M  V30 2681 H 244.338 -1.49576 3.68608 0
M  V30 2682 H 241.077 -0.55314 6.53162 0
M  V30 2683 H 240.597 -2.01995 5.64764 0
M  V30 2684 H 242.276 -1.8221 6.20813 0
M  V30 2685 N 242.408 -1.52605 -0.393616 0
M  V30 2686 C 243.819 -1.59417 -0.971761 0
M  V30 2687 C 244.17 -0.444173 -1.91106 0
M  V30 2688 O 243.295 0.433382 -2.12016 0
M  V30 2689 C 243.89 -2.88936 -1.76921 0
M  V30 2690 C 242.449 -2.98175 -2.29714 0
M  V30 2691 C 241.596 -2.54491 -1.10135 0
M  V30 2692 H 244.547 -1.57751 -0.173317 0
M  V30 2693 H 244.568 -2.75163 -2.62804 0
M  V30 2694 H 244.08 -3.72616 -1.08532 0
M  V30 2695 H 242.181 -2.19024 -3.01429 0
M  V30 2696 H 242.294 -4.02726 -2.59517 0
M  V30 2697 H 240.658 -2.08702 -1.45999 0
M  V30 2698 H 241.441 -3.4056 -0.432874 0
M  V30 2699 N 243.887 0.651787 -1.4349 0
M  V30 2700 C 244.837 1.75783 -1.45205 0
M  V30 2701 C 245.821 1.57679 -0.320328 0
M  V30 2702 O 247.013 1.67767 -0.564211 0
M  V30 2703 C 244.142 3.14377 -1.3792 0
M  V30 2704 C 243.228 3.38023 -2.56127 0
M  V30 2705 N 243.619 3.32135 -3.81471 0
M  V30 2706 C 241.917 3.68747 -2.50882 0
M  V30 2707 C 242.618 3.55902 -4.60118 0
M  V30 2708 N 241.594 3.77783 -3.90872 0
M  V30 2709 H 245.396 1.69657 -2.39987 0
M  V30 2710 H 242.91 0.853508 -1.38163 0
M  V30 2711 H 244.907 3.93666 -1.37231 0
M  V30 2712 H 243.567 3.21683 -0.441596 0
M  V30 2713 H 244.578 3.11515 -4.13738 0
M  V30 2714 H 241.255 3.8316 -1.65816 0
M  V30 2715 H 242.645 3.57116 -5.69138 0
M  V30 2716 N 245.365 1.30045 0.890287 0
M  V30 2717 C 246.614 1.17929 1.63633 0
M  V30 2718 C 246.927 -0.266204 1.9378 0
M  V30 2719 O 248.133 -0.508804 2.6669 0
M  V30 2720 C 246.589 2.06317 2.94892 0
M  V30 2721 C 246.197 3.55745 2.72305 0
M  V30 2722 C 247.941 2.0295 3.72843 0
M  V30 2723 C 245.848 4.36205 3.99348 0
M  V30 2724 H 244.778 0.437782 0.613892 0
M  V30 2725 H 247.429 1.54754 0.986075 0
M  V30 2726 H 245.811 1.6237 3.61182 0
M  V30 2727 H 246.985 4.07805 2.1455 0
M  V30 2728 H 245.3 3.6088 2.07737 0
M  V30 2729 H 247.897 2.60319 4.67053 0
M  V30 2730 H 248.24 1.0117 4.0382 0
M  V30 2731 H 248.773 2.4499 3.13408 0
M  V30 2732 H 245.512 5.38659 3.73533 0
M  V30 2733 H 245.032 3.8891 4.56628 0
M  V30 2734 H 246.711 4.47362 4.67415 0
M  V30 2735 N 246.843 -1.10192 1.12674 0
M  V30 2736 C 247.79 -2.16606 0.796906 0
M  V30 2737 C 248.76 -1.64394 -0.237476 0
M  V30 2738 O 249.945 -1.90474 -0.111484 0
M  V30 2739 C 247.085 -3.44116 0.26043 0
M  V30 2740 C 246.198 -4.10268 1.35293 0
M  V30 2741 C 245.333 -5.25507 0.775621 0
M  V30 2742 C 244.372 -5.83567 1.84706 0
M  V30 2743 N 243.509 -6.90179 1.28829 0
M  V30 2744 H 248.349 -2.44163 1.70846 0
M  V30 2745 H 245.886 -1.19846 0.85295 0
M  V30 2746 H 247.844 -4.17143 -0.0686814 0
M  V30 2747 H 246.474 -3.16901 -0.614274 0
M  V30 2748 H 245.526 -3.35184 1.79877 0
M  V30 2749 H 246.838 -4.4946 2.16303 0
M  V30 2750 H 245.992 -6.05398 0.397327 0
M  V30 2751 H 244.731 -4.87656 -0.0656581 0
M  V30 2752 H 243.736 -5.02344 2.23452 0
M  V30 2753 H 244.961 -6.23482 2.69161 0
M  V30 2754 H 242.907 -6.54322 0.468881 0
M  V30 2755 H 242.824 -7.28097 2.03497 0
M  V30 2756 H 244.092 -7.73844 0.937311 0
M  V30 2757 N 248.321 -0.919034 -1.28029 0
M  V30 2758 C 249.251 -0.428581 -2.29533 0
M  V30 2759 C 250.232 0.50659 -1.62381 0
M  V30 2760 O 251.417 0.413195 -1.89753 0
M  V30 2761 C 248.547 0.327388 -3.45753 0
M  V30 2762 C 247.501 -0.519137 -4.2484 0
M  V30 2763 C 246.827 0.365486 -5.33449 0
M  V30 2764 C 248.127 -1.77914 -4.91064 0
M  V30 2765 H 249.821 -1.27687 -2.70807 0
M  V30 2766 H 247.367 -0.615428 -1.30186 0
M  V30 2767 H 249.32 0.681378 -4.15855 0
M  V30 2768 H 248.044 1.20963 -3.03374 0
M  V30 2769 H 246.703 -0.855717 -3.56473 0
M  V30 2770 H 246.351 1.24642 -4.87312 0
M  V30 2771 H 246.051 -0.197356 -5.87268 0
M  V30 2772 H 247.575 0.715241 -6.06396 0
M  V30 2773 H 248.989 -1.49374 -5.53498 0
M  V30 2774 H 247.386 -2.2848 -5.54903 0
M  V30 2775 H 248.456 -2.50382 -4.15255 0
M  V30 2776 N 249.799 1.42003 -0.683588 0
M  V30 2777 C 251.048 2.00638 -0.206681 0
M  V30 2778 C 251.361 1.5472 1.19671 0
M  V30 2779 O 252.567 2.05833 1.77045 0
M  V30 2780 C 251.023 3.58487 -0.318632 0
M  V30 2781 C 250.631 4.1339 -1.72663 0
M  V30 2782 C 252.375 4.24384 0.0991141 0
M  V30 2783 C 250.282 5.63633 -1.79087 0
M  V30 2784 H 249.212 0.750408 -0.0735107 0
M  V30 2785 H 251.863 1.62624 -0.850048 0
M  V30 2786 H 250.245 3.94047 0.392781 0
M  V30 2787 H 251.419 3.89273 -2.46583 0
M  V30 2788 H 249.734 3.59976 -2.09299 0
M  V30 2789 H 252.331 5.34652 0.0713833 0
M  V30 2790 H 252.674 4.00505 1.13586 0
M  V30 2791 H 253.207 3.93816 -0.561599 0
M  V30 2792 H 249.946 5.92323 -2.80774 0
M  V30 2793 H 249.466 5.89714 -1.09535 0
M  V30 2794 H 251.145 6.28201 -1.5483 0
M  V30 2795 N 251.277 0.427512 1.51691 0
M  V30 2796 C 252.554 -0.201684 1.94557 0
M  V30 2797 C 252.934 -1.60981 1.36559 0
M  V30 2798 O 252.282 -2.21814 0.548702 0
M  V30 2799 C 252.492 -0.189394 3.48486 0
M  V30 2800 C 253.84 -0.39978 4.22714 0
M  V30 2801 O 254.864 -0.267945 3.55191 0
M  V30 2802 O 253.723 -0.661249 5.42485 0
M  V30 2803 H 250.817 -0.135261 0.815864 0
M  V30 2804 H 253.363 0.484782 1.62628 0
M  V30 2805 H 252.135 0.795431 3.8313 0
M  V30 2806 H 251.758 -0.919187 3.86829 0
M  V30 2807 N 252.755 -1.56801 0.158532 0
M  V30 2808 C 254.002 -1.9649 -0.489679 0
M  V30 2809 C 254.33 -1.04394 -1.6411 0
M  V30 2810 O 253.585 -0.0754401 -1.95555 0
M  V30 2811 C 253.884 -3.4235 -1.02623 0
M  V30 2812 C 253.55 -4.50899 0.00794526 0
M  V30 2813 C 252.212 -4.80312 0.292207 0
M  V30 2814 C 254.564 -5.16333 0.710584 0
M  V30 2815 C 251.892 -5.72461 1.28472 0
M  V30 2816 C 254.244 -6.09553 1.69199 0
M  V30 2817 C 252.908 -6.37339 1.98383 0
M  V30 2818 H 252.178 -0.719009 -0.179186 0
M  V30 2819 H 254.825 -1.8989 0.247798 0
M  V30 2820 H 253.13 -3.45838 -1.84128 0
M  V30 2821 H 254.827 -3.70393 -1.53656 0
M  V30 2822 H 251.417 -4.28015 -0.22379 0
M  V30 2823 H 255.601 -4.93732 0.504174 0
M  V30 2824 H 250.857 -5.92278 1.51714 0
M  V30 2825 H 255.031 -6.59327 2.24189 0
M  V30 2826 H 252.658 -7.08546 2.7544 0
M  V30 2827 N 254.233 0.115231 -1.57178 0
M  V30 2828 C 255.481 0.820727 -1.84685 0
M  V30 2829 C 255.802 1.80237 -0.744279 0
M  V30 2830 O 255.072 1.94529 0.231375 0
M  V30 2831 H 253.652 0.306084 -0.681411 0
M  V30 2832 H 256.314 0.101656 -1.94635 0
M  V30 2833 H 255.41 1.36366 -2.80733 0
M  V30 2834 N 255.711 1.52812 0.385517 0
M  V30 2835 C 256.641 1.80808 1.47752 0
M  V30 2836 C 257.622 0.660318 1.5676 0
M  V30 2837 O 258.807 0.908246 1.71652 0
M  V30 2838 C 255.937 1.98008 2.85324 0
M  V30 2839 C 254.891 3.13709 2.91154 0
M  V30 2840 C 254.217 3.16169 4.31209 0
M  V30 2841 C 255.517 4.52709 2.60483 0
M  V30 2842 H 257.211 2.72253 1.24573 0
M  V30 2843 H 254.757 1.31003 0.597839 0
M  V30 2844 H 256.71 2.16176 3.61726 0
M  V30 2845 H 255.434 1.03255 3.09848 0
M  V30 2846 H 254.093 2.95329 2.17201 0
M  V30 2847 H 253.741 2.19092 4.52778 0
M  V30 2848 H 253.441 3.93894 4.36029 0
M  V30 2849 H 254.965 3.36496 5.09512 0
M  V30 2850 H 256.379 4.71173 3.26602 0
M  V30 2851 H 254.776 5.32528 2.76648 0
M  V30 2852 H 255.846 4.59186 1.55809 0
M  V30 2853 N 257.189 -0.644168 1.43834 0
M  V30 2854 C 258.152 -1.73857 1.49353 0
M  V30 2855 C 259.152 -1.56315 0.377112 0
M  V30 2856 O 260.342 -1.62048 0.639226 0
M  V30 2857 C 257.474 -3.12819 1.35488 0
M  V30 2858 H 258.667 -1.70342 2.46827 0
M  V30 2859 H 256.22 -0.856652 1.30733 0
M  V30 2860 H 256.955 -3.2194 0.390569 0
M  V30 2861 H 256.74 -3.26958 2.16428 0
M  V30 2862 H 258.23 -3.92606 1.42302 0
M  V30 2863 N 258.668 -1.30515 -0.883378 0
M  V30 2864 C 259.618 -1.13641 -1.9766 0
M  V30 2865 C 260.602 -0.0511314 -1.60819 0
M  V30 2866 O 261.794 -0.274623 -1.74857 0
M  V30 2867 C 258.923 -0.831976 -3.33066 0
M  V30 2868 C 258.009 -1.95759 -3.76217 0
M  V30 2869 N 258.4 -3.20313 -3.9145 0
M  V30 2870 C 256.698 -1.85431 -4.05625 0
M  V30 2871 C 257.399 -3.93856 -4.2808 0
M  V30 2872 N 256.375 -3.21919 -4.38029 0
M  V30 2873 H 260.177 -2.08106 -2.07531 0
M  V30 2874 H 257.691 -1.21877 -1.0733 0
M  V30 2875 H 259.688 -0.692102 -4.11115 0
M  V30 2876 H 258.348 0.104588 -3.24532 0
M  V30 2877 H 259.359 -3.55583 -3.76538 0
M  V30 2878 H 256.036 -0.991531 -4.05555 0
M  V30 2879 H 257.426 -5.01125 -4.47575 0
M  V30 2880 N 260.146 1.09593 -1.13257 0
M  V30 2881 C 261.056 2.19739 -0.821691 0
M  V30 2882 C 262.072 1.72926 0.19302 0
M  V30 2883 O 263.248 2.01385 0.0244895 0
M  V30 2884 C 260.313 3.45482 -0.290333 0
M  V30 2885 C 259.374 4.06985 -1.36607 0
M  V30 2886 C 258.607 5.26726 -0.859975 0
M  V30 2887 O 258.83 5.69594 0.303082 0
M  V30 2888 O 257.764 5.7931 -1.63351 0
M  V30 2889 H 261.59 2.48781 -1.74189 0
M  V30 2890 H 259.175 1.18496 -0.909894 0
M  V30 2891 H 261.057 4.214 0.000674022 0
M  V30 2892 H 259.732 3.18047 0.602306 0
M  V30 2893 H 258.639 3.32712 -1.71037 0
M  V30 2894 H 259.972 4.38643 -2.23279 0
M  V30 2895 N 261.624 0.925811 1.2754 0
M  V30 2896 C 262.873 0.561084 1.93739 0
M  V30 2897 C 263.186 -0.901685 1.73577 0
M  V30 2898 O 264.392 -1.37511 2.34101 0
M  V30 2899 C 262.848 0.952668 3.47062 0
M  V30 2900 C 262.456 2.43599 3.75983 0
M  V30 2901 C 264.2 0.659103 4.19352 0
M  V30 2902 C 262.107 2.76707 5.22673 0
M  V30 2903 H 261.037 0.206122 0.725279 0
M  V30 2904 H 263.688 1.12637 1.44863 0
M  V30 2905 H 262.07 0.316053 3.94737 0
M  V30 2906 H 263.244 3.12035 3.39073 0
M  V30 2907 H 261.559 2.70125 3.16893 0
M  V30 2908 H 264.156 0.882985 5.27359 0
M  V30 2909 H 264.499 -0.403607 4.14339 0
M  V30 2910 H 265.032 1.25473 3.77494 0
M  V30 2911 H 261.771 3.8188 5.32774 0
M  V30 2912 H 261.291 2.12919 5.60737 0
M  V30 2913 H 262.97 2.6435 5.90532 0
M  V30 2914 N 263.102 -1.41638 0.69111 0
M  V30 2915 C 264.012 -2.34588 0.0233487 0
M  V30 2916 C 265.028 -1.55987 -0.770984 0
M  V30 2917 O 266.204 -1.88486 -0.709569 0
M  V30 2918 C 263.269 -3.34684 -0.904851 0
M  V30 2919 C 262.33 -4.29176 -0.103225 0
M  V30 2920 C 261.563 -5.2449 -0.987216 0
M  V30 2921 O 261.786 -5.2514 -2.22674 0
M  V30 2922 O 260.72 -6.00295 -0.439281 0
M  V30 2923 H 264.546 -2.93261 0.789416 0
M  V30 2924 H 262.131 -1.42417 0.45142 0
M  V30 2925 H 264.013 -3.96133 -1.43724 0
M  V30 2926 H 262.688 -2.78461 -1.65049 0
M  V30 2927 H 261.595 -3.71089 0.473655 0
M  V30 2928 H 262.928 -4.88484 0.60365 0
M  V30 2929 N 264.58 -0.43555 -1.51462 0
M  V30 2930 C 265.857 0.191364 -1.94662 0
M  V30 2931 C 266.237 1.60254 -1.37411 0
M  V30 2932 O 265.585 2.2152 -0.560458 0
M  V30 2933 C 265.795 0.17091 -3.48581 0
M  V30 2934 C 267.143 0.377357 -4.2292 0
M  V30 2935 O 268.167 0.249104 -3.55328 0
M  V30 2936 O 267.026 0.63247 -5.42828 0
M  V30 2937 H 264.12 0.130932 -0.816569 0
M  V30 2938 H 266.666 -0.4934 -1.62369 0
M  V30 2939 H 265.438 -0.815738 -3.82703 0
M  V30 2940 H 265.061 0.898659 -3.87311 0
M  V30 2941 N 266.058 1.56714 -0.166846 0
M  V30 2942 C 267.306 1.96358 0.478305 0
M  V30 2943 C 267.627 1.0537 1.6408 0
M  V30 2944 O 266.897 0.119154 1.95537 0
M  V30 2945 H 265.477 0.725065 0.179692 0
M  V30 2946 H 268.139 1.93329 -0.246985 0
M  V30 2947 H 267.235 3.00547 0.841292 0
M  V30 2948 N 267.536 -0.106894 1.57237 0
M  V30 2949 C 268.782 -0.81373 1.85759 0
M  V30 2950 C 269.115 -1.78952 0.754315 0
M  V30 2951 O 268.39 -1.93029 -0.23879 0
M  V30 2952 C 268.673 -1.55293 3.24894 0
M  V30 2953 C 268.526 -0.595929 4.45835 0
M  V30 2954 C 269.845 -2.5063 3.61763 0
M  V30 2955 H 266.964 -0.294369 0.67566 0
M  V30 2956 H 269.606 -0.0776472 1.89841 0
M  V30 2957 H 267.756 -2.1804 3.21544 0
M  V30 2958 H 269.428 0.0236262 4.61294 0
M  V30 2959 H 267.671 0.0916191 4.33703 0
M  V30 2960 H 268.342 -1.15004 5.39887 0
M  V30 2961 H 270.818 -1.97982 3.65981 0
M  V30 2962 H 269.694 -2.99376 4.60071 0
M  V30 2963 H 269.955 -3.3385 2.89821 0
M  V30 2964 N 269.014 -1.53014 -0.377408 0
M  V30 2965 C 269.924 -1.81557 -1.48574 0
M  V30 2966 C 270.94 -0.703102 -1.59162 0
M  V30 2967 O 272.116 -0.99192 -1.75279 0
M  V30 2968 C 269.181 -1.9889 -2.83978 0
M  V30 2969 C 268.242 -3.22801 -2.83016 0
M  V30 2970 C 267.475 -3.39298 -4.11962 0
M  V30 2971 O 267.698 -2.60345 -5.0752 0
M  V30 2972 O 266.632 -4.32604 -4.18494 0
M  V30 2973 H 270.458 -2.75695 -1.27382 0
M  V30 2974 H 268.043 -1.38248 -0.566373 0
M  V30 2975 H 269.925 -2.11931 -3.6423 0
M  V30 2976 H 268.6 -1.07942 -3.05172 0
M  V30 2977 H 267.507 -3.15193 -2.01505 0
M  V30 2978 H 268.84 -4.13632 -2.66775 0
M  V30 2979 N 270.492 0.636531 -1.44174 0
M  V30 2980 C 271.739 1.39619 -1.46672 0
M  V30 2981 C 272.067 1.94257 -0.0972691 0
M  V30 2982 O 271.322 1.73768 0.900175 0
M  V30 2983 C 271.621 2.58309 -2.47005 0
M  V30 2984 C 271.287 2.21992 -3.92467 0
M  V30 2985 C 269.949 2.118 -4.32081 0
M  V30 2986 C 272.301 1.9321 -4.84065 0
M  V30 2987 C 269.629 1.71007 -5.61225 0
M  V30 2988 C 271.981 1.53911 -6.13591 0
M  V30 2989 C 270.645 1.42257 -6.52165 0
M  V30 2990 H 269.915 0.510902 -0.536712 0
M  V30 2991 H 272.562 0.722328 -1.77355 0
M  V30 2992 H 270.867 3.30903 -2.09786 0
M  V30 2993 H 272.564 3.16533 -2.46186 0
M  V30 2994 H 269.154 2.30841 -3.61124 0
M  V30 2995 H 273.338 1.99997 -4.54219 0
M  V30 2996 H 268.594 1.60583 -5.89935 0
M  V30 2997 H 272.768 1.30677 -6.8403 0
M  V30 2998 H 270.395 1.10419 -7.52138 0
M  V30 2999 N 271.97 1.30982 0.876444 0
M  V30 3000 C 272.917 1.18085 1.98304 0
M  V30 3001 C 273.887 0.0682263 1.6596 0
M  V30 3002 O 275.072 0.239937 1.89285 0
M  V30 3003 C 272.212 0.887475 3.33493 0
M  V30 3004 C 271.325 2.08281 3.78475 0
M  V30 3005 C 270.46 1.72678 5.0235 0
M  V30 3006 C 269.499 2.88657 5.39762 0
M  V30 3007 N 268.636 2.53292 6.54819 0
M  V30 3008 H 273.476 2.1275 2.08666 0
M  V30 3009 H 271.013 1.05839 1.02159 0
M  V30 3010 H 272.971 0.697961 4.1132 0
M  V30 3011 H 271.601 -0.022315 3.22792 0
M  V30 3012 H 270.653 2.3833 2.96484 0
M  V30 3013 H 271.965 2.95108 4.02135 0
M  V30 3014 H 271.119 1.50151 5.87826 0
M  V30 3015 H 269.858 0.830327 4.8058 0
M  V30 3016 H 268.863 3.1184 4.52809 0
M  V30 3017 H 270.088 3.79002 5.63502 0
M  V30 3018 H 268.034 1.66163 6.34607 0
M  V30 3019 H 267.951 3.3365 6.7839 0
M  V30 3020 H 269.219 2.34143 7.43503 0
M  V30 3021 N 273.449 -1.08991 1.13837 0
M  V30 3022 C 274.397 -2.17841 0.815347 0
M  V30 3023 C 275.391 -1.68164 -0.204233 0
M  V30 3024 O 276.597 -1.79897 -0.0609304 0
M  V30 3025 H 272.972 -0.710654 0.245915 0
M  V30 3026 H 274.943 -2.42315 1.74143 0
M  V30 3027 C 273.692 -3.46381 0.302614 0
M  V30 3028 H 273.015 -3.84979 1.0785 0
M  V30 3029 H 274.455 -4.23844 0.115074 0
M  V30 3030 C 272.914 -3.22556 -0.972591 0
M  V30 3031 O 273.444 -3.45599 -2.04754 0
M  V30 3032 N 271.65 -2.76134 -0.905455 0
M  V30 3033 H 271.197 -2.57582 -0.0305421 0
M  V30 3034 H 271.155 -2.60571 -1.75926 0
M  V30 3035 N 274.927 -0.932562 -1.27047 0
M  V30 3036 C 276.176 -0.571351 -1.93439 0
M  V30 3037 C 276.489 0.892467 -1.74053 0
M  V30 3038 O 277.695 1.36267 -2.34826 0
M  V30 3039 C 276.151 -0.97106 -3.46552 0
M  V30 3040 C 275.759 -2.4559 -3.74686 0
M  V30 3041 C 277.503 -0.681333 -4.18997 0
M  V30 3042 C 275.41 -2.79475 -5.21198 0
M  V30 3043 H 274.34 -0.209966 -0.724176 0
M  V30 3044 H 276.991 -1.13403 -1.44263 0
M  V30 3045 H 275.373 -0.336983 -3.94564 0
M  V30 3046 H 276.547 -3.13829 -3.37414 0
M  V30 3047 H 274.862 -2.71802 -3.15456 0
M  V30 3048 H 277.459 -0.910939 -5.26883 0
M  V30 3049 H 277.802 0.381628 -4.14547 0
M  V30 3050 H 278.335 -1.27473 -3.76823 0
M  V30 3051 H 275.074 -3.847 -5.30741 0
M  V30 3052 H 274.594 -2.1589 -5.596 0
M  V30 3053 H 276.273 -2.67478 -5.89122 0
M  V30 3054 N 276.405 1.4127 -0.698611 0
M  V30 3055 C 277.652 2.0118 -0.230865 0
M  V30 3056 C 277.98 1.55338 1.17049 0
M  V30 3057 O 277.235 0.756775 1.80475 0
M  V30 3058 C 277.534 3.56592 -0.240192 0
M  V30 3059 C 277.2 4.21955 -1.58948 0
M  V30 3060 C 275.862 4.39524 -1.95887 0
M  V30 3061 C 278.214 4.58576 -2.47704 0
M  V30 3062 C 275.542 4.90992 -3.2116 0
M  V30 3063 C 277.894 5.11435 -3.72313 0
M  V30 3064 C 276.558 5.27215 -4.0939 0
M  V30 3065 H 275.828 0.736169 -0.0844796 0
M  V30 3066 H 278.475 1.69124 -0.8983 0
M  V30 3067 H 276.78 3.88456 0.510797 0
M  V30 3068 H 278.477 4.00758 0.139296 0
M  V30 3069 H 275.067 4.08657 -1.29219 0
M  V30 3070 H 279.251 4.44654 -2.20445 0
M  V30 3071 H 274.507 5.01393 -3.49878 0
M  V30 3072 H 278.681 5.38752 -4.4127 0
M  V30 3073 H 276.308 5.66859 -5.06533 0
M  V30 3074 N 277.883 0.443576 1.51229 0
M  V30 3075 C 279.131 -0.120557 2.0174 0
M  V30 3076 C 279.452 -1.42665 1.32935 0
M  V30 3077 O 278.722 -1.9028 0.465866 0
M  V30 3078 H 277.302 -0.0475426 0.745486 0
M  V30 3079 H 279.964 0.587711 1.85828 0
M  V30 3080 H 279.06 -0.291972 3.10731 0
M  V30 3081 N 279.361 -1.56624 0.175154 0
M  V30 3082 C 280.589 -2.01374 -0.474971 0
M  V30 3083 C 281.004 -1.05537 -1.56548 0
M  V30 3084 O 280.361 -0.0568668 -1.82411 0
M  V30 3085 C 280.412 -3.45923 -1.04975 0
M  V30 3086 O 280.133 -4.381 -0.00276605 0
M  V30 3087 C 281.634 -4.06093 -1.77773 0
M  V30 3088 H 278.854 -0.659962 -0.121206 0
M  V30 3089 H 281.398 -2.02601 0.27801 0
M  V30 3090 H 279.553 -3.45458 -1.75321 0
M  V30 3091 H 279.967 -5.22753 -0.427681 0
M  V30 3092 H 281.441 -5.09147 -2.13245 0
M  V30 3093 H 281.918 -3.48405 -2.67414 0
M  V30 3094 H 282.524 -4.10272 -1.12059 0
M  V30 3095 N 280.839 0.0985539 -1.57292 0
M  V30 3096 C 282.25 0.653457 -1.74891 0
M  V30 3097 C 282.601 1.7929 -0.796838 0
M  V30 3098 O 281.726 2.16385 0.0254886 0
M  V30 3099 C 282.321 1.19216 -3.17133 0
M  V30 3100 C 280.88 1.69316 -3.36168 0
M  V30 3101 C 280.027 0.601294 -2.70702 0
M  V30 3102 H 282.978 -0.127497 -1.58187 0
M  V30 3103 H 282.999 2.06154 -3.19814 0
M  V30 3104 H 282.511 0.362635 -3.86402 0
M  V30 3105 H 280.612 2.5468 -2.71972 0
M  V30 3106 H 280.725 1.78853 -4.44464 0
M  V30 3107 H 279.089 1.0399 -2.32504 0
M  V30 3108 H 279.872 -0.217592 -3.4261 0
M  V30 3109 N 282.317 1.53212 0.369288 0
M  V30 3110 C 283.227 1.82342 1.47609 0
M  V30 3111 C 284.243 0.711532 1.58787 0
M  V30 3112 O 285.419 1.0012 1.74751 0
M  V30 3113 C 282.484 2.00393 2.8292 0
M  V30 3114 C 281.545 3.24297 2.81301 0
M  V30 3115 C 280.778 3.41478 4.10157 0
M  V30 3116 O 281.001 2.63033 5.06132 0
M  V30 3117 O 279.935 4.34817 4.16194 0
M  V30 3118 H 283.761 2.76366 1.25918 0
M  V30 3119 H 281.346 1.38547 0.559034 0
M  V30 3120 H 283.228 2.13859 3.63101 0
M  V30 3121 H 281.903 1.09559 3.04596 0
M  V30 3122 H 280.81 3.16257 1.99831 0
M  V30 3123 H 282.143 4.15041 2.64578 0
M  V30 3124 N 283.795 -0.628877 1.44509 0
M  V30 3125 C 285.042 -1.38839 1.47411 0
M  V30 3126 C 285.37 -1.94202 0.10757 0
M  V30 3127 O 284.625 -1.74243 -0.890947 0
M  V30 3128 C 284.924 -2.56995 2.48371 0
M  V30 3129 C 284.59 -2.19908 3.93639 0
M  V30 3130 C 283.252 -2.09506 4.33198 0
M  V30 3131 C 285.604 -1.9064 4.85083 0
M  V30 3132 C 282.932 -1.68028 5.62124 0
M  V30 3133 C 285.284 -1.50655 6.14399 0
M  V30 3134 C 283.948 -1.38796 6.5291 0
M  V30 3135 H 283.218 -0.508048 0.539414 0
M  V30 3136 H 285.865 -0.712913 1.77735 0
M  V30 3137 H 284.17 -3.29786 2.11538 0
M  V30 3138 H 285.867 -3.15223 2.47861 0
M  V30 3139 H 282.457 -2.28922 3.62343 0
M  V30 3140 H 286.641 -1.97585 4.55273 0
M  V30 3141 H 281.897 -1.57452 5.90778 0
M  V30 3142 H 286.071 -1.27048 6.84713 0
M  V30 3143 H 283.698 -1.06429 7.52713 0
M  V30 3144 N 285.273 -1.31445 -0.869486 0
M  V30 3145 C 286.519 -1.21337 -1.62496 0
M  V30 3146 C 286.852 0.227872 -1.92858 0
M  V30 3147 O 286.127 1.16094 -1.56053 0
M  V30 3148 C 286.41 -2.05814 -2.95487 0
M  V30 3149 C 286.263 -3.5824 -2.72 0
M  V30 3150 C 287.582 -1.9079 -3.96594 0
M  V30 3151 H 284.701 -0.442135 -0.589649 0
M  V30 3152 H 287.343 -1.6124 -1.00507 0
M  V30 3153 H 285.493 -1.71913 -3.48394 0
M  V30 3154 H 287.165 -4.0228 -2.25762 0
M  V30 3155 H 285.408 -3.81647 -2.06224 0
M  V30 3156 H 286.079 -4.12657 -3.66631 0
M  V30 3157 H 288.555 -2.20459 -3.52898 0
M  V30 3158 H 287.431 -2.52199 -4.87531 0
M  V30 3159 H 287.692 -0.871341 -4.33428 0
M  V30 3160 N 286.751 1.08385 -1.14413 0
M  V30 3161 C 287.714 2.13486 -0.834048 0
M  V30 3162 C 288.714 1.59988 0.161418 0
M  V30 3163 O 289.904 1.74071 -0.0669575 0
M  V30 3164 C 287.036 3.4003 -0.243354 0
M  V30 3165 H 288.229 2.42425 -1.7655 0
M  V30 3166 H 285.782 1.24101 -0.950189 0
M  V30 3167 H 286.517 3.16726 0.696807 0
M  V30 3168 H 286.302 3.80157 -0.960367 0
M  V30 3169 H 287.792 4.17577 -0.0436242 0
M  V30 3170 N 288.23 0.939286 1.26551 0
M  V30 3171 C 289.641 0.628782 1.75793 0
M  V30 3172 C 289.992 -0.856046 1.7654 0
M  V30 3173 O 289.117 -1.66994 1.3763 0
M  V30 3174 C 289.712 1.13465 3.19235 0
M  V30 3175 C 288.271 0.874601 3.66098 0
M  V30 3176 C 287.418 1.28667 2.45642 0
M  V30 3177 H 290.369 1.1178 1.12654 0
M  V30 3178 H 290.39 0.487609 3.77363 0
M  V30 3179 H 289.902 2.21535 3.1866 0
M  V30 3180 H 288.003 -0.191793 3.72106 0
M  V30 3181 H 288.116 1.50028 4.55004 0
M  V30 3182 H 286.48 0.705109 2.44745 0
M  V30 3183 H 287.263 2.37625 2.47769 0
M  V30 3184 N 289.708 -1.40897 0.706093 0
M  V30 3185 C 290.618 -2.3455 0.0482286 0
M  V30 3186 C 291.634 -1.56796 -0.754396 0
M  V30 3187 O 292.81 -1.89228 -0.689538 0
M  V30 3188 C 289.875 -3.35625 -0.869303 0
M  V30 3189 C 288.936 -4.29261 -0.0576994 0
M  V30 3190 C 288.169 -5.25508 -0.931531 0
M  V30 3191 O 288.392 -5.27472 -2.17092 0
M  V30 3192 O 287.326 -6.00727 -0.375587 0
M  V30 3193 H 291.152 -2.92407 0.820476 0
M  V30 3194 H 288.737 -1.4193 0.4665 0
M  V30 3195 H 290.619 -3.97635 -1.39514 0
M  V30 3196 H 289.294 -2.80196 -1.62086 0
M  V30 3197 H 288.201 -3.70566 0.512988 0
M  V30 3198 H 289.534 -4.87817 0.655426 0
M  V30 3199 N 291.186 -0.45159 -1.50991 0
M  V30 3200 C 292.435 0.111653 -2.01391 0
M  V30 3201 C 292.748 1.42529 -1.33959 0
M  V30 3202 O 293.954 2.07232 -1.75405 0
M  V30 3203 C 292.41 0.249514 -3.59034 0
M  V30 3204 C 292.018 -1.05453 -4.35412 0
M  V30 3205 C 293.762 0.765762 -4.17536 0
M  V30 3206 C 291.669 -0.881529 -5.84793 0
M  V30 3207 H 290.599 0.0455022 -0.752626 0
M  V30 3208 H 293.25 -0.583524 -1.73975 0
M  V30 3209 H 291.632 1.00803 -3.82955 0
M  V30 3210 H 292.806 -1.82248 -4.23229 0
M  V30 3211 H 291.121 -1.50039 -3.88429 0
M  V30 3212 H 293.718 0.911913 -5.26866 0
M  V30 3213 H 294.061 1.75201 -3.77638 0
M  V30 3214 H 294.594 0.0651744 -3.97747 0
M  V30 3215 H 291.333 -1.84057 -6.29129 0
M  V30 3216 H 290.853 -0.153625 -5.99603 0
M  V30 3217 H 292.532 -0.540363 -6.4474 0
M  V30 3218 N 292.664 1.56529 -0.183458 0
M  V30 3219 C 293.91 1.97537 0.459036 0
M  V30 3220 C 294.243 1.06989 1.62071 0
M  V30 3221 O 293.518 0.11948 1.94133 0
M  V30 3222 C 293.801 3.47874 0.930368 0
M  V30 3223 C 293.654 4.492 -0.232317 0
M  V30 3224 C 294.973 4.01612 1.79989 0
M  V30 3225 H 292.092 0.718204 0.165383 0
M  V30 3226 H 294.734 1.88042 -0.272038 0
M  V30 3227 H 292.884 3.56095 1.55333 0
M  V30 3228 H 294.556 4.53027 -0.86972 0
M  V30 3229 H 292.799 4.24657 -0.885928 0
M  V30 3230 H 293.47 5.51823 0.139796 0
M  V30 3231 H 295.946 3.96097 1.27461 0
M  V30 3232 H 294.822 5.07195 2.09867 0
M  V30 3233 H 295.083 3.46163 2.74998 0
M  V30 3234 N 294.142 -0.090211 1.57342 0
M  V30 3235 C 295.09 -1.12792 2.03422 0
M  V30 3236 C 296.084 -1.41182 0.936166 0
M  V30 3237 O 297.29 -1.40805 1.12133 0
M  V30 3238 H 293.665 -0.380986 0.648347 0
M  V30 3239 H 295.636 -0.71299 2.89757 0
M  V30 3240 C 294.385 -2.43855 2.47851 0
M  V30 3241 H 293.708 -2.22855 3.31927 0
M  V30 3242 H 295.148 -3.14955 2.83865 0
M  V30 3243 C 293.607 -3.08503 1.3538 0
M  V30 3244 O 294.137 -3.95805 0.685641 0
M  V30 3245 N 292.343 -2.68831 1.10355 0
M  V30 3246 H 291.89 -1.97929 1.64869 0
M  V30 3247 H 291.848 -3.12412 0.353031 0
M  V30 3248 N 295.62 -1.53406 -0.361157 0
M  V30 3249 C 296.85 -1.73465 -1.1222 0
M  V30 3250 C 297.258 -0.465486 -1.83384 0
M  V30 3251 O 296.601 0.571611 -1.7458 0
M  V30 3252 C 296.663 -2.84834 -2.19339 0
M  V30 3253 C 296.327 -4.25038 -1.67903 0
M  V30 3254 C 297.324 -5.07231 -1.14074 0
M  V30 3255 C 295.009 -4.71464 -1.73282 0
M  V30 3256 C 297.003 -6.33942 -0.663068 0
M  V30 3257 C 294.69 -5.98153 -1.25127 0
M  V30 3258 C 295.688 -6.79223 -0.717296 0
M  V30 3259 O 295.376 -8.03533 -0.242865 0
M  V30 3260 H 295.108 -0.583526 -0.341283 0
M  V30 3261 H 297.662 -2.00964 -0.424591 0
M  V30 3262 H 295.892 -2.5282 -2.92607 0
M  V30 3263 H 297.581 -2.9303 -2.80871 0
M  V30 3264 H 298.347 -4.72534 -1.09254 0
M  V30 3265 H 294.226 -4.08432 -2.13786 0
M  V30 3266 H 297.77 -6.97167 -0.245612 0
M  V30 3267 H 293.667 -6.32347 -1.29642 0
M  V30 3268 H 294.435 -8.177 -0.361786 0
M  V30 3269 N 297.098 0.621204 -1.44841 0
M  V30 3270 C 298.008 1.7612 -1.5498 0
M  V30 3271 C 299.024 1.68477 -0.434927 0
M  V30 3272 O 300.2 1.89076 -0.693693 0
M  V30 3273 C 297.265 3.1254 -1.50065 0
M  V30 3274 C 296.326 3.31741 -2.72482 0
M  V30 3275 C 295.559 4.61653 -2.67792 0
M  V30 3276 O 295.782 5.431 -1.74352 0
M  V30 3277 O 294.716 4.83271 -3.58794 0
M  V30 3278 H 298.542 1.70518 -2.51311 0
M  V30 3279 H 296.127 0.783643 -1.27198 0
M  V30 3280 H 298.009 3.93844 -1.49882 0
M  V30 3281 H 296.684 3.18663 -0.568806 0
M  V30 3282 H 295.591 2.50077 -2.7823 0
M  V30 3283 H 296.924 3.30486 -3.64746 0
M  V30 3284 N 298.576 1.31904 0.862503 0
M  V30 3285 C 299.987 1.19803 1.43193 0
M  V30 3286 C 300.338 -0.192567 1.95253 0
M  V30 3287 O 299.463 -1.09081 1.86896 0
M  V30 3288 C 300.058 2.16883 2.60283 0
M  V30 3289 C 298.617 2.08692 3.13248 0
M  V30 3290 C 297.764 2.05691 1.85975 0
M  V30 3291 H 300.715 1.43846 0.670365 0
M  V30 3292 H 300.736 1.76278 3.37204 0
M  V30 3293 H 300.248 3.18083 2.22363 0
M  V30 3294 H 298.349 1.10713 3.55771 0
M  V30 3295 H 298.462 2.9815 3.75025 0
M  V30 3296 H 296.826 1.50814 2.05249 0
M  V30 3297 H 297.609 3.08659 1.50282 0
M  V30 3298 N 300.054 -1.07777 1.14986 0
M  V30 3299 C 300.984 -2.16865 0.865557 0
M  V30 3300 C 301.965 -1.69123 -0.182083 0
M  V30 3301 O 303.15 -1.94164 -0.0373815 0
M  V30 3302 C 300.28 -3.45539 0.349313 0
M  V30 3303 C 299.234 -4.06708 1.33313 0
M  V30 3304 C 298.56 -5.30411 0.675918 0
M  V30 3305 C 299.86 -4.47241 2.69764 0
M  V30 3306 H 301.554 -2.40905 1.77778 0
M  V30 3307 H 299.1 -1.15781 0.856203 0
M  V30 3308 H 301.053 -4.21174 0.137983 0
M  V30 3309 H 299.777 -3.21072 -0.598362 0
M  V30 3310 H 298.436 -3.33112 1.53075 0
M  V30 3311 H 298.084 -5.02232 -0.277767 0
M  V30 3312 H 297.784 -5.72293 1.33244 0
M  V30 3313 H 299.308 -6.08755 0.474262 0
M  V30 3314 H 300.722 -5.14025 2.53873 0
M  V30 3315 H 299.119 -5.00062 3.3175 0
M  V30 3316 H 300.189 -3.58818 3.26156 0
M  V30 3317 N 301.532 -0.945985 -1.26051 0
M  V30 3318 C 302.78 -0.594941 -1.93145 0
M  V30 3319 C 303.101 0.86953 -1.7454 0
M  V30 3320 O 302.371 1.61838 -1.10387 0
M  V30 3321 H 300.951 -0.217044 -0.714773 0
M  V30 3322 H 303.613 -1.20235 -1.53393 0
M  V30 3323 H 302.709 -0.816835 -3.01221 0
M  V30 3324 N 303.011 1.40521 -0.713556 0
M  V30 3325 C 303.941 2.33381 -0.0743864 0
M  V30 3326 C 304.922 1.52784 0.747735 0
M  V30 3327 O 306.107 1.81258 0.697071 0
M  V30 3328 C 303.237 3.36748 0.849598 0
M  V30 3329 C 302.191 4.27793 0.133247 0
M  V30 3330 C 301.517 5.21679 1.17281 0
M  V30 3331 C 302.817 5.12415 -1.01134 0
M  V30 3332 H 304.511 2.87081 -0.850007 0
M  V30 3333 H 302.057 1.38034 -0.410201 0
M  V30 3334 H 304.01 4.00648 1.30612 0
M  V30 3335 H 302.734 2.81439 1.65709 0
M  V30 3336 H 301.393 3.65342 -0.303426 0
M  V30 3337 H 301.041 4.62677 1.9733 0
M  V30 3338 H 300.741 5.83435 0.698397 0
M  V30 3339 H 302.265 5.88456 1.62947 0
M  V30 3340 H 303.679 5.69781 -0.634274 0
M  V30 3341 H 302.076 5.83203 -1.41399 0
M  V30 3342 H 303.146 4.48514 -1.84292 0
M  V30 3343 N 304.489 0.459591 1.5075 0
M  V30 3344 C 305.399 -0.34613 2.32033 0
M  V30 3345 C 306.415 -1.00686 1.41909 0
M  V30 3346 O 307.591 -0.997361 1.7497 0
M  V30 3347 C 304.656 -1.42029 3.16273 0
M  V30 3348 C 303.717 -0.777362 4.22203 0
M  V30 3349 C 302.95 -1.80034 5.02418 0
M  V30 3350 O 303.173 -3.02544 4.83553 0
M  V30 3351 O 302.107 -1.37853 5.85901 0
M  V30 3352 H 305.933 0.318054 3.0203 0
M  V30 3353 H 303.518 0.221663 1.47746 0
M  V30 3354 H 305.4 -2.04275 3.68578 0
M  V30 3355 H 304.075 -2.06815 2.49016 0
M  V30 3356 H 302.982 -0.116256 3.73919 0
M  V30 3357 H 304.315 -0.172634 4.91897 0
M  V30 3358 N 305.967 -1.56429 0.191757 0
M  V30 3359 C 306.93 -2.17707 -0.716688 0
M  V30 3360 C 307.93 -1.13061 -1.14341 0
M  V30 3361 O 309.12 -1.38464 -1.05704 0
M  V30 3362 C 306.252 -2.77644 -1.97804 0
M  V30 3363 H 307.445 -2.99342 -0.1829 0
M  V30 3364 H 304.998 -1.56193 -0.0578566 0
M  V30 3365 H 305.733 -1.99799 -2.55443 0
M  V30 3366 H 305.518 -3.54246 -1.68083 0
M  V30 3367 H 307.008 -3.24708 -2.62592 0
M  V30 3368 N 307.445 0.0818655 -1.57387 0
M  V30 3369 C 308.722 0.815343 -1.77796 0
M  V30 3370 C 309.102 1.96289 -0.77679 0
M  V30 3371 O 308.45 2.27691 0.192106 0
M  V30 3372 C 308.66 1.29765 -3.23978 0
M  V30 3373 C 310.008 1.7351 -3.8753 0
M  V30 3374 O 311.032 1.39356 -3.27808 0
M  V30 3375 O 309.891 2.36708 -4.92576 0
M  V30 3376 H 306.985 0.389914 -0.729312 0
M  V30 3377 H 309.531 0.0627213 -1.69584 0
M  V30 3378 H 308.303 0.47608 -3.88393 0
M  V30 3379 H 307.926 2.11189 -3.36875 0
M  V30 3380 N 308.923 1.53595 0.353017 0
M  V30 3381 C 309.856 1.7572 1.45594 0
M  V30 3382 C 310.834 0.605961 1.50887 0
M  V30 3383 O 312.018 0.840023 1.68748 0
M  V30 3384 C 309.145 1.84732 2.83887 0
M  V30 3385 C 308.191 3.06808 2.96262 0
M  V30 3386 S 309.024 4.66065 2.63711 0
M  V30 3387 C 310.18 4.77943 4.04131 0
M  V30 3388 H 310.413 2.68994 1.26608 0
M  V30 3389 H 307.946 1.44343 0.548117 0
M  V30 3390 H 309.904 1.9061 3.63563 0
M  V30 3391 H 308.565 0.92488 3.00175 0
M  V30 3392 H 307.758 3.09761 3.97573 0
M  V30 3393 H 307.36 2.99108 2.24523 0
M  V30 3394 H 309.652 4.5877 4.98534 0
M  V30 3395 H 310.595 5.80022 4.06177 0
M  V30 3396 H 311.003 4.06472 3.91715 0
M  V30 3397 N 310.401 -0.613514 1.45168 0
M  V30 3398 C 311.647 -1.37279 1.50087 0
M  V30 3399 C 312.002 -1.91902 0.138294 0
M  V30 3400 O 311.295 -1.71764 -0.84899 0
M  V30 3401 C 311.489 -2.54347 2.51083 0
M  V30 3402 C 311.318 -2.11186 3.97027 0
M  V30 3403 C 310.088 -1.97636 4.65046 0
M  V30 3404 C 312.286 -1.69016 4.85735 0
M  V30 3405 N 310.268 -1.48224 5.95737 0
M  V30 3406 C 311.639 -1.30976 6.06008 0
M  V30 3407 C 313.694 -1.56555 4.72647 0
M  V30 3408 C 312.397 -0.817197 7.14643 0
M  V30 3409 C 314.423 -1.08702 5.81324 0
M  V30 3410 C 313.785 -0.716233 7.00749 0
M  V30 3411 H 309.884 -0.496478 0.60418 0
M  V30 3412 H 312.468 -0.701988 1.81605 0
M  V30 3413 H 310.639 -3.19031 2.21527 0
M  V30 3414 H 312.371 -3.21208 2.46187 0
M  V30 3415 H 309.126 -2.18638 4.20112 0
M  V30 3416 H 309.55 -1.25767 6.65216 0
M  V30 3417 H 314.192 -1.83849 3.80736 0
M  V30 3418 H 311.91 -0.531797 8.06348 0
M  V30 3419 H 315.496 -0.994943 5.7323 0
M  V30 3420 H 314.376 -0.351642 7.83411 0
M  V30 3421 N 311.879 -1.3236 -0.855495 0
M  V30 3422 C 313.104 -1.2601 -1.64731 0
M  V30 3423 C 313.529 0.169068 -1.87339 0
M  V30 3424 O 312.887 1.12016 -1.42556 0
M  V30 3425 C 312.935 -2.02417 -2.98429 0
M  V30 3426 O 312.039 -1.3714 -3.8893 0
M  V30 3427 H 311.38 -0.434325 -0.502253 0
M  V30 3428 H 313.91 -1.74661 -1.06558 0
M  V30 3429 H 313.92 -2.12559 -3.48257 0
M  V30 3430 H 312.595 -3.06343 -2.81295 0
M  V30 3431 H 311.172 -1.3554 -3.47395 0
M  V30 3432 N 313.357 1.07166 -1.15556 0
M  V30 3433 C 314.606 1.79181 -0.926132 0
M  V30 3434 C 314.919 1.87768 0.547967 0
M  V30 3435 O 316.125 2.56323 0.895036 0
M  V30 3436 C 314.581 3.22 -1.60761 0
M  V30 3437 C 314.189 3.21607 -3.11886 0
M  V30 3438 C 315.933 3.9861 -1.4598 0
M  V30 3439 C 313.84 4.59092 -3.72812 0
M  V30 3440 H 312.77 0.67154 -0.342856 0
M  V30 3441 H 315.421 1.2027 -1.3859 0
M  V30 3442 H 313.803 3.81115 -1.07553 0
M  V30 3443 H 314.977 2.72127 -3.71865 0
M  V30 3444 H 313.292 2.58495 -3.2645 0
M  V30 3445 H 315.889 5.00225 -1.88888 0
M  V30 3446 H 316.232 4.143 -0.407541 0
M  V30 3447 H 316.765 3.45996 -1.96295 0
M  V30 3448 H 313.504 4.48606 -4.77946 0
M  V30 3449 H 313.024 5.08803 -3.17616 0
M  V30 3450 H 314.703 5.28059 -3.73848 0
M  V30 3451 N 314.835 0.952656 1.25548 0
M  V30 3452 C 316.083 0.605176 1.92826 0
M  V30 3453 C 316.404 -0.860261 1.74999 0
M  V30 3454 O 315.674 -1.6125 1.11244 0
M  V30 3455 H 314.254 0.220832 0.713612 0
M  V30 3456 H 316.916 1.21047 1.52754 0
M  V30 3457 H 316.012 0.832798 3.00784 0
M  V30 3458 N 316.313 -1.40141 0.720998 0
M  V30 3459 C 317.559 -2.01084 0.263231 0
M  V30 3460 C 317.892 -1.57052 -1.14229 0
M  V30 3461 O 317.167 -0.793027 -1.77599 0
M  V30 3462 C 317.45 -3.58401 0.349344 0
M  V30 3463 C 317.303 -4.12491 1.79363 0
M  V30 3464 C 318.622 -4.39231 -0.276351 0
M  V30 3465 H 315.741 -0.730572 0.0971228 0
M  V30 3466 H 318.383 -1.66543 0.914518 0
M  V30 3467 H 316.533 -3.87958 -0.205165 0
M  V30 3468 H 318.205 -3.93711 2.40394 0
M  V30 3469 H 316.448 -3.66576 2.31958 0
M  V30 3470 H 317.119 -5.21646 1.80524 0
M  V30 3471 H 319.595 -4.15637 0.196184 0
M  V30 3472 H 318.471 -5.48586 -0.185681 0
M  V30 3473 H 318.732 -4.20643 -1.36059 0
M  V30 3474 N 317.792 -0.46758 -1.50504 0
M  V30 3475 C 319.041 0.0902868 -2.01498 0
M  V30 3476 C 319.354 1.411 -1.35463 0
M  V30 3477 O 320.56 2.0536 -1.77594 0
M  V30 3478 C 319.016 0.21142 -3.59278 0
M  V30 3479 C 318.624 -1.10065 -4.34269 0
M  V30 3480 C 320.368 0.721433 -4.18325 0
M  V30 3481 C 318.275 -0.943505 -5.83825 0
M  V30 3482 H 317.205 0.037517 -0.753066 0
M  V30 3483 H 319.856 -0.601943 -1.73346 0
M  V30 3484 H 318.238 0.967352 -3.84003 0
M  V30 3485 H 319.412 -1.86726 -4.21272 0
M  V30 3486 H 317.727 -1.5415 -3.86816 0
M  V30 3487 H 320.324 0.85598 -5.27804 0
M  V30 3488 H 320.667 1.71186 -3.79475 0
M  V30 3489 H 321.2 0.0229843 -3.97793 0
M  V30 3490 H 317.939 -1.90719 -6.27141 0
M  V30 3491 H 317.459 -0.217213 -5.99407 0
M  V30 3492 H 319.138 -0.608715 -6.4413 0
M  V30 3493 N 319.27 1.56325 -0.20005 0
M  V30 3494 C 320.498 2.02105 0.442874 0
M  V30 3495 C 320.913 1.08014 1.5485 0
M  V30 3496 O 320.27 0.0858797 1.82298 0
M  V30 3497 C 320.321 3.47549 0.994583 0
M  V30 3498 O 320.042 4.38049 -0.0669322 0
M  V30 3499 C 321.543 4.0887 1.7129 0
M  V30 3500 H 318.763 0.661807 0.110691 0
M  V30 3501 H 321.307 2.02134 -0.310207 0
M  V30 3502 H 319.462 3.48204 1.69803 0
M  V30 3503 H 319.876 5.23368 0.344462 0
M  V30 3504 H 321.35 5.12475 2.05118 0
M  V30 3505 H 321.827 3.52615 2.61838 0
M  V30 3506 H 322.433 4.12002 1.05518 0
M  V30 3507 N 320.748 -0.0735177 1.57428 0
M  V30 3508 C 321.978 -0.78483 1.91112 0
M  V30 3509 C 322.386 -1.71729 0.7941 0
M  V30 3510 O 321.729 -1.82105 -0.241542 0
M  V30 3511 C 321.791 -1.63346 3.20247 0
M  V30 3512 C 321.455 -0.870557 4.48632 0
M  V30 3513 C 322.452 -0.19058 5.19551 0
M  V30 3514 C 320.137 -0.838242 4.95256 0
M  V30 3515 C 322.131 0.511503 6.35344 0
M  V30 3516 C 319.818 -0.132386 6.10957 0
M  V30 3517 C 320.816 0.541288 6.80852 0
M  V30 3518 O 320.504 1.23578 7.94345 0
M  V30 3519 H 320.236 -0.228408 0.636244 0
M  V30 3520 H 322.79 -0.0486039 2.05342 0
M  V30 3521 H 321.02 -2.41245 3.02222 0
M  V30 3522 H 322.709 -2.22329 3.39595 0
M  V30 3523 H 323.475 -0.206864 4.84559 0
M  V30 3524 H 319.354 -1.35206 4.40727 0
M  V30 3525 H 322.898 1.03789 6.89836 0
M  V30 3526 H 318.795 -0.114023 6.45399 0
M  V30 3527 H 319.563 1.14487 8.10454 0
M  V30 3528 N 322.226 -1.5378 -0.344866 0
M  V30 3529 C 323.475 -1.7018 -1.08267 0
M  V30 3530 C 323.788 -0.471 -1.89845 0
M  V30 3531 O 324.994 -0.515917 -2.66553 0
M  V30 3532 C 323.45 -3.00923 -1.97417 0
M  V30 3533 C 323.058 -4.31335 -1.21053 0
M  V30 3534 C 324.802 -3.26688 -2.71063 0
M  V30 3535 C 322.709 -5.53153 -2.09225 0
M  V30 3536 H 321.639 -0.634138 -0.407903 0
M  V30 3537 H 324.29 -1.8028 -0.342246 0
M  V30 3538 H 322.672 -2.84676 -2.75274 0
M  V30 3539 H 323.846 -4.58281 -0.481159 0
M  V30 3540 H 322.161 -4.12173 -0.591813 0
M  V30 3541 H 324.758 -4.1489 -3.37299 0
M  V30 3542 H 325.101 -2.43639 -3.37558 0
M  V30 3543 H 325.634 -3.43705 -2.0028 0
M  V30 3544 H 322.373 -6.38741 -1.47274 0
M  V30 3545 H 321.893 -5.30458 -2.79955 0
M  V30 3546 H 323.572 -5.88744 -2.68308 0
M  V30 3547 N 323.704 0.605807 -1.45491 0
M  V30 3548 C 324.634 1.72709 -1.57143 0
M  V30 3549 C 325.615 1.6476 -0.422884 0
M  V30 3550 O 326.8 1.83132 -0.646247 0
M  V30 3551 C 323.93 3.11316 -1.53948 0
M  V30 3552 C 322.884 3.34077 -2.67537 0
M  V30 3553 C 322.21 4.72975 -2.49397 0
M  V30 3554 C 323.51 3.24158 -4.09535 0
M  V30 3555 H 325.204 1.63214 -2.51001 0
M  V30 3556 H 322.75 0.78379 -1.208 0
M  V30 3557 H 324.703 3.89557 -1.60696 0
M  V30 3558 H 323.427 3.21655 -0.566205 0
M  V30 3559 H 322.086 2.58227 -2.6022 0
M  V30 3560 H 321.734 4.8005 -1.50205 0
M  V30 3561 H 321.434 4.8916 -3.25571 0
M  V30 3562 H 322.958 5.53414 -2.58002 0
M  V30 3563 H 324.372 3.92271 -4.18086 0
M  V30 3564 H 322.769 3.51872 -4.86113 0
M  V30 3565 H 323.839 2.2157 -4.31317 0
M  V30 3566 N 325.182 1.32811 0.848464 0
M  V30 3567 C 326.112 1.24882 1.97299 0
M  V30 3568 C 327.093 0.131357 1.69592 0
M  V30 3569 O 328.278 0.319553 1.91553 0
M  V30 3570 C 325.408 0.97746 3.33261 0
M  V30 3571 C 324.362 2.05682 3.75338 0
M  V30 3572 C 323.688 1.63777 5.09 0
M  V30 3573 C 324.988 3.47254 3.90144 0
M  V30 3574 H 326.682 2.18966 2.04191 0
M  V30 3575 H 324.228 1.05413 0.981029 0
M  V30 3576 H 326.181 0.908513 4.1149 0
M  V30 3577 H 324.905 0.000980011 3.266 0
M  V30 3578 H 323.564 2.11603 2.99366 0
M  V30 3579 H 323.212 0.648569 4.98801 0
M  V30 3580 H 322.912 2.36 5.38124 0
M  V30 3581 H 324.436 1.5833 5.89715 0
M  V30 3582 H 325.85 3.43888 4.58709 0
M  V30 3583 H 324.247 4.1788 4.30693 0
M  V30 3584 H 325.317 3.86462 2.92874 0
M  V30 3585 N 326.66 -1.06551 1.16123 0
M  V30 3586 C 327.885 -1.83544 0.965735 0
M  V30 3587 C 328.31 -1.81843 -0.481102 0
M  V30 3588 O 327.668 -1.21732 -1.34354 0
M  V30 3589 C 327.716 -3.28169 1.49457 0
M  V30 3590 O 326.82 -4.0643 0.699157 0
M  V30 3591 H 326.161 -0.568026 0.343864 0
M  V30 3592 H 328.691 -1.34362 1.54299 0
M  V30 3593 H 328.701 -3.78992 1.51092 0
M  V30 3594 H 327.376 -3.28722 2.54784 0
M  V30 3595 H 325.953 -3.65216 0.7531 0
M  V30 3596 N 328.138 -0.959301 -1.25041 0
M  V30 3597 C 329.386 -0.615393 -1.92503 0
M  V30 3598 C 329.707 0.850969 -1.75452 0
M  V30 3599 O 328.977 1.60658 -1.12098 0
M  V30 3600 H 327.557 -0.224613 -0.712431 0
M  V30 3601 H 330.219 -1.21855 -1.5211 0
M  V30 3602 H 329.315 -0.848738 -3.00338 0
M  V30 3603 N 329.616 1.39756 -0.72842 0
M  V30 3604 C 330.579 2.29012 -0.0927297 0
M  V30 3605 C 331.579 1.45992 0.674025 0
M  V30 3606 O 332.769 1.66749 0.50402 0
M  V30 3607 C 329.901 3.29396 0.878137 0
M  V30 3608 H 331.094 2.86729 -0.879011 0
M  V30 3609 H 328.647 1.48293 -0.493847 0
M  V30 3610 H 329.382 2.76722 1.69101 0
M  V30 3611 H 329.167 3.907 0.331051 0
M  V30 3612 H 330.657 3.96199 1.3197 0
M  V30 3613 N 331.094 0.475555 1.50254 0
M  V30 3614 C 332.319 -0.0777042 2.07254 0
M  V30 3615 C 332.744 -1.3235 1.3366 0
M  V30 3616 O 332.102 -1.77152 0.385597 0
M  V30 3617 C 332.15 -0.340169 3.58992 0
M  V30 3618 O 331.254 -1.41982 3.87188 0
M  V30 3619 H 330.595 0.0149556 0.663832 0
M  V30 3620 H 333.125 0.667878 1.93392 0
M  V30 3621 H 333.135 -0.579332 4.03866 0
M  V30 3622 H 331.81 0.570167 4.11973 0
M  V30 3623 H 330.387 -1.16762 3.54148 0
M  V30 3624 N 332.573 -1.56217 0.208337 0
M  V30 3625 C 333.984 -1.84243 -0.301904 0
M  V30 3626 C 334.335 -1.12939 -1.60434 0
M  V30 3627 O 333.46 -0.39461 -2.12772 0
M  V30 3628 C 334.055 -3.34231 -0.554543 0
M  V30 3629 C 332.614 -3.62621 -1.00912 0
M  V30 3630 C 331.761 -2.77224 -0.064933 0
M  V30 3631 H 334.712 -1.52712 0.431833 0
M  V30 3632 H 334.733 -3.5372 -1.40223 0
M  V30 3633 H 334.245 -3.86099 0.393561 0
M  V30 3634 H 332.346 -3.16197 -1.97104 0
M  V30 3635 H 332.459 -4.7071 -0.892674 0
M  V30 3636 H 330.823 -2.48256 -0.56929 0
M  V30 3637 H 331.606 -3.31887 0.877851 0
M  V30 3638 N 334.051 0.0651679 -1.57465 0
M  V30 3639 C 335.298 0.763063 -1.87573 0
M  V30 3640 C 335.626 1.77242 -0.800961 0
M  V30 3641 O 334.881 1.94651 0.202316 0
M  V30 3642 C 335.18 1.50081 -3.24362 0
M  V30 3643 C 334.846 0.630816 -4.46466 0
M  V30 3644 C 333.508 0.391082 -4.79608 0
M  V30 3645 C 335.86 0.0279465 -5.21193 0
M  V30 3646 C 333.188 -0.460894 -5.84887 0
M  V30 3647 C 335.54 -0.811522 -6.27373 0
M  V30 3648 C 334.204 -1.06106 -6.59013 0
M  V30 3649 H 333.474 0.279224 -0.686378 0
M  V30 3650 H 336.121 0.0236726 -1.91485 0
M  V30 3651 H 334.426 2.31258 -3.16271 0
M  V30 3652 H 336.123 2.04571 -3.44894 0
M  V30 3653 H 332.713 0.8278 -4.2053 0
M  V30 3654 H 336.897 0.200262 -4.95896 0
M  V30 3655 H 332.153 -0.662907 -6.07796 0
M  V30 3656 H 336.327 -1.28537 -6.84435 0
M  V30 3657 H 333.954 -1.723 -7.40417 0
M  V30 3658 N 335.529 1.53961 0.336706 0
M  V30 3659 C 336.459 1.85417 1.41925 0
M  V30 3660 C 337.44 0.709856 1.5458 0
M  V30 3661 O 338.625 0.962396 1.68676 0
M  V30 3662 C 335.755 2.06985 2.78881 0
M  V30 3663 C 334.709 3.22813 2.81026 0
M  V30 3664 C 334.035 3.29727 4.20932 0
M  V30 3665 C 335.335 4.60767 2.45949 0
M  V30 3666 H 337.029 2.76079 1.15848 0
M  V30 3667 H 334.575 1.32839 0.555859 0
M  V30 3668 H 336.528 2.27575 3.54665 0
M  V30 3669 H 335.252 1.13061 3.06406 0
M  V30 3670 H 333.911 3.0209 2.07695 0
M  V30 3671 H 333.559 2.33385 4.45579 0
M  V30 3672 H 333.259 4.07566 4.23277 0
M  V30 3673 H 334.783 3.52536 4.98549 0
M  V30 3674 H 336.197 4.81325 3.11446 0
M  V30 3675 H 334.594 5.4106 2.59566 0
M  V30 3676 H 335.664 4.6391 1.41122 0
M  V30 3677 N 337.007 -0.598083 1.45811 0
M  V30 3678 C 338.255 -1.35413 1.50026 0
M  V30 3679 C 338.576 -1.94444 0.147177 0
M  V30 3680 O 337.846 -1.77701 -0.824571 0
M  V30 3681 H 336.426 -0.502727 0.552517 0
M  V30 3682 H 339.088 -0.701606 1.81834 0
M  V30 3683 H 338.184 -2.16871 2.2444 0
M  V30 3684 N 338.485 -1.33259 -0.841409 0
M  V30 3685 C 339.762 -1.15174 -1.58096 0
M  V30 3686 C 340.142 0.282858 -2.09196 0
M  V30 3687 O 339.49 1.28151 -1.89181 0
M  V30 3688 C 339.7 -2.1907 -2.71679 0
M  V30 3689 C 341.048 -2.53093 -3.40924 0
M  V30 3690 O 342.072 -2.17717 -2.81918 0
M  V30 3691 O 340.931 -3.1379 -4.47435 0
M  V30 3692 H 338.025 -0.445303 -0.696875 0
M  V30 3693 H 340.571 -1.44833 -0.884385 0
M  V30 3694 H 339.343 -3.15443 -2.31541 0
M  V30 3695 H 338.966 -1.90481 -3.49002 0
M  V30 3696 N 339.963 1.05934 -1.16686 0
M  V30 3697 C 341.191 1.8249 -0.974929 0
M  V30 3698 C 341.606 1.82679 0.476861 0
M  V30 3699 O 340.963 1.2486 1.33103 0
M  V30 3700 C 341.014 3.28943 -1.49929 0
M  V30 3701 O 340.735 3.28886 -2.89423 0
M  V30 3702 C 342.236 4.22215 -1.35089 0
M  V30 3703 H 339.456 0.575295 -0.345365 0
M  V30 3704 H 342 1.33631 -1.548 0
M  V30 3705 H 340.155 3.751 -0.968423 0
M  V30 3706 H 340.569 4.20493 -3.13506 0
M  V30 3707 H 342.043 5.22987 -1.76603 0
M  V30 3708 H 342.52 4.38195 -0.296935 0
M  V30 3709 H 343.126 3.81907 -1.87155 0
M  V30 3710 N 341.441 0.965919 1.2453 0
M  V30 3711 C 342.388 0.49402 2.25451 0
M  V30 3712 C 343.358 -0.45948 1.59618 0
M  V30 3713 O 344.543 -0.370238 1.87173 0
M  V30 3714 C 341.683 -0.211359 3.44452 0
M  V30 3715 C 340.796 0.7807 4.24887 0
M  V30 3716 C 339.931 0.0516105 5.31175 0
M  V30 3717 C 338.97 1.03385 6.03306 0
M  V30 3718 N 338.107 0.334887 7.01301 0
M  V30 3719 H 342.947 1.35946 2.65184 0
M  V30 3720 H 340.484 0.681515 1.3036 0
M  V30 3721 H 342.442 -0.637 4.12308 0
M  V30 3722 H 341.072 -1.04077 3.05562 0
M  V30 3723 H 340.124 1.32479 3.56586 0
M  V30 3724 H 341.436 1.52978 4.74762 0
M  V30 3725 H 340.59 -0.432114 6.05159 0
M  V30 3726 H 339.329 -0.730179 4.82203 0
M  V30 3727 H 338.334 1.52847 5.28127 0
M  V30 3728 H 339.559 1.81606 6.54367 0
M  V30 3729 H 337.505 -0.427959 6.54603 0
M  V30 3730 H 337.422 1.02287 7.49048 0
M  V30 3731 H 338.69 -0.126928 7.79397 0
M  V30 3732 N 342.919 -1.39368 0.735821 0
M  V30 3733 C 343.851 -2.2913 0.0567723 0
M  V30 3734 C 344.864 -1.46859 -0.702589 0
M  V30 3735 O 346.053 -1.69925 -0.546616 0
M  V30 3736 C 343.153 -3.25492 -0.943823 0
M  V30 3737 C 342.326 -4.36709 -0.24581 0
M  V30 3738 C 341.385 -5.13376 -1.15463 0
M  V30 3739 O 340.411 -5.65683 -0.631803 0
M  V30 3740 N 341.613 -5.24656 -2.48427 0
M  V30 3741 H 344.378 -2.88047 0.827582 0
M  V30 3742 H 341.939 -1.50957 0.585112 0
M  V30 3743 H 343.931 -3.73657 -1.55443 0
M  V30 3744 H 342.501 -2.676 -1.61583 0
M  V30 3745 H 341.721 -3.9041 0.545286 0
M  V30 3746 H 343.009 -5.08244 0.237891 0
M  V30 3747 H 342.407 -4.83679 -2.93379 0
M  V30 3748 H 340.964 -5.76258 -3.04582 0
M  V30 3749 N 344.397 -0.483516 -1.5 0
M  V30 3750 C 345.307 0.309172 -2.32554 0
M  V30 3751 C 346.323 0.984159 -1.43493 0
M  V30 3752 O 347.499 0.969399 -1.76535 0
M  V30 3753 C 344.564 1.36979 -3.18493 0
M  V30 3754 C 343.625 0.710095 -4.23387 0
M  V30 3755 C 342.858 1.72018 -5.05218 0
M  V30 3756 O 343.081 2.94813 -4.88305 0
M  V30 3757 O 342.015 1.28515 -5.8802 0
M  V30 3758 H 345.841 -0.366064 -3.01486 0
M  V30 3759 H 343.426 -0.24514 -1.47375 0
M  V30 3760 H 345.308 1.98385 -3.71781 0
M  V30 3761 H 343.983 2.02828 -2.52275 0
M  V30 3762 H 342.89 0.0567539 -3.74057 0
M  V30 3763 H 344.223 0.0943557 -4.9211 0
M  V30 3764 N 345.875 1.56104 -0.216619 0
M  V30 3765 C 347.103 2.02563 0.421413 0
M  V30 3766 C 347.518 1.0965 1.53695 0
M  V30 3767 O 346.875 0.10521 1.82196 0
M  V30 3768 C 346.926 3.48584 0.957665 0
M  V30 3769 O 346.647 4.37953 -0.113389 0
M  V30 3770 C 348.148 4.10664 1.66943 0
M  V30 3771 H 345.368 0.662944 0.103665 0
M  V30 3772 H 347.912 2.01793 -0.331629 0
M  V30 3773 H 346.067 3.49985 1.661 0
M  V30 3774 H 346.481 5.23704 0.288932 0
M  V30 3775 H 347.955 5.14622 1.99671 0
M  V30 3776 H 348.432 3.55373 2.58083 0
M  V30 3777 H 349.038 4.13098 1.01142 0
M  V30 3778 N 347.353 -0.0568162 1.57498 0
M  V30 3779 C 348.283 -1.06593 2.0775 0
M  V30 3780 C 349.264 -1.39448 0.974082 0
M  V30 3781 O 350.449 -1.48815 1.24771 0
M  V30 3782 C 347.579 -2.37509 2.5339 0
M  V30 3783 C 346.533 -2.1897 3.67745 0
M  V30 3784 C 345.859 -3.55402 3.99492 0
M  V30 3785 C 347.159 -1.59859 4.97235 0
M  V30 3786 H 348.853 -0.647706 2.9231 0
M  V30 3787 H 346.399 -0.310116 1.40621 0
M  V30 3788 H 348.352 -3.08409 2.87162 0
M  V30 3789 H 347.076 -2.8134 1.65878 0
M  V30 3790 H 345.735 -1.50508 3.3428 0
M  V30 3791 H 345.383 -3.9683 3.09088 0
M  V30 3792 H 345.083 -3.43831 4.76502 0
M  V30 3793 H 346.607 -4.27708 4.35773 0
M  V30 3794 H 348.021 -2.20642 5.29141 0
M  V30 3795 H 346.418 -1.58942 5.78669 0
M  V30 3796 H 347.488 -0.561506 4.81638 0
M  V30 3797 N 348.832 -1.54138 -0.328536 0
M  V30 3798 C 349.795 -1.82462 -1.38709 0
M  V30 3799 C 350.795 -0.696229 -1.44946 0
M  V30 3800 O 351.985 -0.964535 -1.4506 0
M  V30 3801 C 349.117 -1.98018 -2.77492 0
M  V30 3802 H 350.31 -2.77037 -1.14851 0
M  V30 3803 H 347.863 -1.45779 -0.563751 0
M  V30 3804 H 348.598 -1.05637 -3.06613 0
M  V30 3805 H 348.383 -2.80124 -2.74359 0
M  V30 3806 H 349.873 -2.21396 -3.54081 0
M  V30 3807 N 350.31 0.590341 -1.46126 0
M  V30 3808 C 351.258 1.72105 -1.5647 0
M  V30 3809 C 352.252 1.63756 -0.433612 0
M  V30 3810 O 353.458 1.69342 -0.610194 0
M  V30 3811 H 349.833 0.568889 -0.491802 0
M  V30 3812 H 351.804 1.6051 -2.51553 0
M  V30 3813 C 350.553 3.10493 -1.56491 0
M  V30 3814 H 349.876 3.17583 -2.4286 0
M  V30 3815 H 351.316 3.8939 -1.67785 0
M  V30 3816 C 349.775 3.3563 -0.292231 0
M  V30 3817 O 350.305 3.96875 0.620739 0
M  V30 3818 N 348.511 2.90026 -0.182523 0
M  V30 3819 H 348.058 2.40367 -0.926356 0
M  V30 3820 H 348.016 3.07218 0.668152 0
M  V30 3821 N 351.788 1.33704 0.83433 0
M  V30 3822 C 353.037 1.24763 1.58484 0
M  V30 3823 C 353.35 -0.183775 1.94735 0
M  V30 3824 O 354.556 -0.395234 2.68608 0
M  V30 3825 C 353.012 2.18638 2.85876 0
M  V30 3826 C 352.62 3.66974 2.56971 0
M  V30 3827 C 354.364 2.18581 3.63899 0
M  V30 3828 C 352.271 4.5275 3.80488 0
M  V30 3829 H 351.201 0.463425 0.594772 0
M  V30 3830 H 353.852 1.58797 0.919551 0
M  V30 3831 H 352.234 1.77542 3.5397 0
M  V30 3832 H 353.408 4.16538 1.9706 0
M  V30 3833 H 351.723 3.69366 1.92244 0
M  V30 3834 H 354.32 2.79894 4.55591 0
M  V30 3835 H 354.663 1.18207 3.99165 0
M  V30 3836 H 355.196 2.58062 3.02735 0
M  V30 3837 H 351.935 5.54017 3.5035 0
M  V30 3838 H 351.455 4.07927 4.39722 0
M  V30 3839 H 353.134 4.66784 4.4802 0
M  V30 3840 N 353.266 -1.05314 1.17247 0
M  V30 3841 C 354.494 -1.81971 0.984593 0
M  V30 3842 C 354.909 -1.82929 -0.467166 0
M  V30 3843 O 354.266 -1.25564 -1.32438 0
M  V30 3844 C 354.317 -3.28143 1.51672 0
M  V30 3845 O 354.038 -3.27347 2.91163 0
M  V30 3846 C 355.539 -4.21493 1.37326 0
M  V30 3847 H 352.759 -0.573455 0.348411 0
M  V30 3848 H 355.303 -1.32808 1.55506 0
M  V30 3849 H 353.458 -3.74582 0.988302 0
M  V30 3850 H 353.872 -4.18824 3.15732 0
M  V30 3851 H 355.346 -5.22043 1.79375 0
M  V30 3852 H 355.823 -4.38031 0.320169 0
M  V30 3853 H 356.429 -3.80909 1.89178 0
M  V30 3854 N 354.744 -0.972509 -1.24016 0
M  V30 3855 C 355.707 -0.511403 -2.23422 0
M  V30 3856 C 356.707 0.394679 -1.55881 0
M  V30 3857 O 357.897 0.189469 -1.73167 0
M  V30 3858 C 355.029 0.258769 -3.39916 0
M  V30 3859 H 356.222 -1.39024 -2.6573 0
M  V30 3860 H 353.775 -0.757585 -1.36713 0
M  V30 3861 H 354.51 1.1545 -3.03054 0
M  V30 3862 H 354.295 -0.391522 -3.9014 0
M  V30 3863 H 355.785 0.570244 -4.13688 0
M  V30 3864 N 356.222 1.38976 -0.743202 0
M  V30 3865 C 357.468 2.0064 -0.295189 0
M  V30 3866 C 357.801 1.5885 1.11716 0
M  V30 3867 O 357.076 0.821181 1.76315 0
M  V30 3868 C 357.359 3.578 -0.406318 0
M  V30 3869 C 357.212 4.09586 -1.85903 0
M  V30 3870 C 358.531 4.39616 0.206439 0
M  V30 3871 H 355.65 0.728935 -0.108733 0
M  V30 3872 H 358.292 1.65067 -0.940897 0
M  V30 3873 H 356.442 3.88235 0.143419 0
M  V30 3874 H 358.114 3.89837 -2.46627 0
M  V30 3875 H 356.357 3.6284 -2.3776 0
M  V30 3876 H 357.028 5.18708 -1.888 0
M  V30 3877 H 359.504 4.15273 -0.262283 0
M  V30 3878 H 358.38 5.48812 0.0983819 0
M  V30 3879 H 358.641 4.22754 1.2935 0
M  V30 3880 N 357.7 0.491464 1.49741 0
M  V30 3881 C 358.925 -0.0557177 2.07325 0
M  V30 3882 C 359.35 -1.30925 1.35056 0
M  V30 3883 O 358.708 -1.76733 0.404365 0
M  V30 3884 C 358.756 -0.302074 3.59333 0
M  V30 3885 O 357.86 -1.37868 3.88672 0
M  V30 3886 H 357.201 0.0219956 0.663636 0
M  V30 3887 H 359.731 0.688352 1.92673 0
M  V30 3888 H 359.741 -0.536464 4.04458 0
M  V30 3889 H 358.416 0.61383 4.11345 0
M  V30 3890 H 356.993 -1.12999 3.55367 0
M  V30 3891 N 359.178 -1.55987 0.224894 0
M  V30 3892 C 360.408 -2.02489 -0.41007 0
M  V30 3893 C 360.816 -1.10391 -1.53657 0
M  V30 3894 O 360.159 -0.106458 -1.83391 0
M  V30 3895 C 360.221 -3.45319 -0.999757 0
M  V30 3896 C 359.885 -4.56999 -0.00827976 0
M  V30 3897 C 360.882 -5.13812 0.793314 0
M  V30 3898 C 358.567 -5.02176 0.111442 0
M  V30 3899 C 360.561 -6.14276 1.7013 0
M  V30 3900 C 358.248 -6.02477 1.02296 0
M  V30 3901 C 359.246 -6.58403 1.81643 0
M  V30 3902 O 358.934 -7.56751 2.71262 0
M  V30 3903 H 358.666 -0.667915 -0.104235 0
M  V30 3904 H 361.22 -2.0257 0.339782 0
M  V30 3905 H 359.45 -3.42318 -1.79876 0
M  V30 3906 H 361.139 -3.7545 -1.54248 0
M  V30 3907 H 361.905 -4.79756 0.711288 0
M  V30 3908 H 357.784 -4.58323 -0.49605 0
M  V30 3909 H 361.328 -6.57854 2.32107 0
M  V30 3910 H 357.225 -6.35954 1.10599 0
M  V30 3911 H 357.993 -7.74286 2.65375 0
M  V30 3912 N 360.656 0.0484629 -1.57525 0
M  V30 3913 C 361.933 0.777447 -1.79486 0
M  V30 3914 C 362.313 1.94597 -0.818251 0
M  V30 3915 O 361.661 2.28047 0.143767 0
M  V30 3916 C 361.871 1.22864 -3.26658 0
M  V30 3917 C 363.219 1.65251 -3.91123 0
M  V30 3918 O 364.243 1.32372 -3.3069 0
M  V30 3919 O 363.102 2.26207 -4.97486 0
M  V30 3920 H 360.196 0.374357 -0.737419 0
M  V30 3921 H 362.742 0.0267359 -1.69679 0
M  V30 3922 H 361.514 0.393589 -3.89316 0
M  V30 3923 H 361.137 2.03996 -3.41279 0
M  V30 3924 N 362.134 1.5431 0.320358 0
M  V30 3925 C 363.381 1.72668 1.05792 0
M  V30 3926 C 363.709 0.502084 1.87908 0
M  V30 3927 O 362.964 -0.516149 1.88771 0
M  V30 3928 C 363.263 2.95639 2.00828 0
M  V30 3929 C 362.929 4.30265 1.34843 0
M  V30 3930 C 361.591 4.66865 1.16578 0
M  V30 3931 C 363.943 5.13801 0.875095 0
M  V30 3932 C 361.271 5.84597 0.496336 0
M  V30 3933 C 363.623 6.32219 0.219463 0
M  V30 3934 C 362.287 6.67495 0.0246915 0
M  V30 3935 H 361.557 0.631837 0.387121 0
M  V30 3936 H 364.204 1.88552 0.334735 0
M  V30 3937 H 362.509 2.74456 2.79609 0
M  V30 3938 H 364.206 3.07038 2.57932 0
M  V30 3939 H 360.796 4.01472 1.50061 0
M  V30 3940 H 364.98 4.86039 1.00398 0
M  V30 3941 H 360.236 6.10486 0.334264 0
M  V30 3942 H 364.41 6.96227 -0.155291 0
M  V30 3943 H 362.037 7.5858 -0.496065 0
M  V30 3944 N 363.613 -0.582584 1.46437 0
M  V30 3945 C 364.89 -1.34276 1.4223 0
M  V30 3946 C 365.27 -2.10835 0.10583 0
M  V30 3947 O 364.618 -2.09485 -0.912596 0
M  V30 3948 C 364.828 -2.26865 2.65204 0
M  V30 3949 C 366.176 -2.88691 3.11356 0
M  V30 3950 O 367.2 -2.37178 2.65753 0
M  V30 3951 O 366.059 -3.82255 3.90568 0
M  V30 3952 H 363.153 -0.603326 0.565621 0
M  V30 3953 H 365.699 -0.603591 1.58603 0
M  V30 3954 H 364.471 -1.69724 3.52576 0
M  V30 3955 H 364.094 -3.08122 2.5129 0
M  V30 3956 N 365.091 -1.34144 -0.827227 0
M  V30 3957 C 366.001 -1.27428 -1.96975 0
M  V30 3958 C 367.017 -0.182728 -1.73038 0
M  V30 3959 O 368.193 -0.408426 -1.97215 0
M  V30 3960 C 365.258 -1.02526 -3.31194 0
M  V30 3961 C 364.319 -2.20796 -3.68168 0
M  V30 3962 C 363.552 -1.97073 -4.95982 0
M  V30 3963 O 363.775 -0.926822 -5.6282 0
M  V30 3964 O 362.709 -2.83912 -5.30733 0
M  V30 3965 H 366.535 -2.23537 -2.05584 0
M  V30 3966 H 364.12 -1.14307 -0.961989 0
M  V30 3967 H 366.002 -0.904026 -4.11589 0
M  V30 3968 H 364.677 -0.0945389 -3.23562 0
M  V30 3969 H 363.584 -2.38477 -2.88235 0
M  V30 3970 H 364.917 -3.12243 -3.8048 0
M  V30 3971 N 366.569 1.04691 -1.17803 0
M  V30 3972 C 367.479 2.16057 -0.914151 0
M  V30 3973 C 368.495 1.73589 0.119503 0
M  V30 3974 O 369.671 2.01308 -0.0609468 0
M  V30 3975 C 366.736 3.4394 -0.436603 0
M  V30 3976 C 365.797 4.00825 -1.53746 0
M  V30 3977 C 365.03 5.22604 -1.0826 0
M  V30 3978 O 365.253 5.70367 0.0612244 0
M  V30 3979 O 364.187 5.7186 -1.87775 0
M  V30 3980 H 368.013 2.41169 -1.84584 0
M  V30 3981 H 365.598 1.1453 -0.959334 0
M  V30 3982 H 367.48 4.21024 -0.178057 0
M  V30 3983 H 366.155 3.20316 0.466869 0
M  V30 3984 H 365.062 3.25158 -1.84995 0
M  V30 3985 H 366.395 4.28778 -2.41683 0
M  V30 3986 N 368.047 0.979072 1.23499 0
M  V30 3987 C 369.294 0.647219 1.91878 0
M  V30 3988 C 369.622 -0.819074 1.76413 0
M  V30 3989 O 368.877 -1.60616 1.11808 0
M  V30 3990 C 369.176 0.981932 3.43646 0
M  V30 3991 C 368.842 2.43822 3.79291 0
M  V30 3992 C 367.504 2.83622 3.88731 0
M  V30 3993 C 369.856 3.3828 3.96505 0
M  V30 3994 C 367.184 4.16897 4.12812 0
M  V30 3995 C 369.536 4.71197 4.22085 0
M  V30 3996 C 368.2 5.10758 4.29747 0
M  V30 3997 H 367.47 0.236834 0.702133 0
M  V30 3998 H 370.117 1.23268 1.46551 0
M  V30 3999 H 368.422 0.314365 3.90537 0
M  V30 4000 H 370.119 0.703395 3.94783 0
M  V30 4001 H 366.709 2.11966 3.72516 0
M  V30 4002 H 370.893 3.0871 3.88603 0
M  V30 4003 H 366.149 4.47157 4.16966 0
M  V30 4004 H 370.323 5.44348 4.34348 0
M  V30 4005 H 367.95 6.1405 4.48159 0
M  V30 4006 N 369.525 -1.3858 0.750561 0
M  V30 4007 C 370.772 -2.00184 0.305373 0
M  V30 4008 C 371.1 -1.59575 -1.11203 0
M  V30 4009 O 370.355 -0.823236 -1.77542 0
M  V30 4010 C 370.654 -3.55455 0.372373 0
M  V30 4011 C 370.32 -4.15765 1.745 0
M  V30 4012 C 368.982 -4.31951 2.12065 0
M  V30 4013 C 371.334 -4.49067 2.64553 0
M  V30 4014 C 368.662 -4.78734 3.39162 0
M  V30 4015 C 371.014 -4.97265 3.91038 0
M  V30 4016 C 369.678 -5.11658 4.28676 0
M  V30 4017 H 368.948 -0.732526 0.111744 0
M  V30 4018 H 371.595 -1.65673 0.960451 0
M  V30 4019 H 369.9 -3.90084 -0.366272 0
M  V30 4020 H 371.597 -4.00999 0.00953918 0
M  V30 4021 H 368.187 -4.03579 1.44297 0
M  V30 4022 H 372.371 -4.36166 2.36796 0
M  V30 4023 H 367.627 -4.88062 3.68246 0
M  V30 4024 H 371.801 -5.22003 4.60962 0
M  V30 4025 H 369.428 -5.47668 5.27222 0
M  V30 4026 N 371.003 -0.499398 -1.49478 0
M  V30 4027 C 372.228 0.044722 -2.07352 0
M  V30 4028 C 372.653 1.30207 -1.35749 0
M  V30 4029 O 372.011 1.76516 -0.413732 0
M  V30 4030 C 372.059 0.283013 -3.59488 0
M  V30 4031 O 371.163 1.35804 -3.89398 0
M  V30 4032 H 370.504 -0.0255147 -0.66351 0
M  V30 4033 H 373.034 -0.698561 -1.92305 0
M  V30 4034 H 373.044 0.515007 -4.04737 0
M  V30 4035 H 371.719 -0.635636 -4.11014 0
M  V30 4036 H 370.296 1.11113 -3.55961 0
M  V30 4037 N 372.481 1.55866 -0.233164 0
M  V30 4038 C 373.413 2.18099 0.704668 0
M  V30 4039 C 374.426 1.15334 1.14899 0
M  V30 4040 O 375.615 1.42262 1.07814 0
M  V30 4041 C 372.715 2.7592 1.96777 0
M  V30 4042 C 371.888 4.03969 1.67713 0
M  V30 4043 C 370.947 4.46242 2.78845 0
M  V30 4044 O 369.973 5.12903 2.46818 0
M  V30 4045 N 371.175 4.12886 4.08051 0
M  V30 4046 H 373.94 2.99205 0.172258 0
M  V30 4047 H 371.501 1.61815 -0.0525945 0
M  V30 4048 H 373.493 3.01165 2.70337 0
M  V30 4049 H 372.063 1.99051 2.41034 0
M  V30 4050 H 371.283 3.86459 0.777391 0
M  V30 4051 H 372.571 4.8748 1.4574 0
M  V30 4052 H 371.969 3.59342 4.3691 0
M  V30 4053 H 370.526 4.42997 4.78118 0
M  V30 4054 N 373.959 -0.0401083 1.57549 0
M  V30 4055 C 375.187 -0.745196 1.93014 0
M  V30 4056 C 375.602 -1.6948 0.831984 0
M  V30 4057 O 374.959 -1.81482 -0.192463 0
M  V30 4058 C 375.01 -1.51176 3.28372 0
M  V30 4059 O 374.731 -0.600284 4.33968 0
M  V30 4060 C 376.232 -2.315 3.78051 0
M  V30 4061 H 373.452 -0.210088 0.637263 0
M  V30 4062 H 375.996 -0.000924689 2.045 0
M  V30 4063 H 374.151 -2.20801 3.18317 0
M  V30 4064 H 374.565 -1.13669 5.12035 0
M  V30 4065 H 376.039 -2.80697 4.75303 0
M  V30 4066 H 376.516 -3.12436 3.08675 0
M  V30 4067 H 377.122 -1.66971 3.91153 0
M  V30 4068 N 375.437 -1.54477 -0.31217 0
M  V30 4069 C 376.662 -1.77526 -1.07235 0
M  V30 4070 C 377.087 -0.527775 -1.80544 0
M  V30 4071 O 376.445 0.52121 -1.73646 0
M  V30 4072 C 376.493 -2.97535 -2.03728 0
M  V30 4073 O 375.597 -2.69878 -3.11833 0
M  V30 4074 H 374.938 -0.58792 -0.30862 0
M  V30 4075 H 377.468 -2.01532 -0.352993 0
M  V30 4076 H 377.478 -3.25198 -2.46395 0
M  V30 4077 H 376.153 -3.87996 -1.49774 0
M  V30 4078 H 374.73 -2.53199 -2.7376 0
M  V30 4079 N 376.915 0.57481 -1.46744 0
M  V30 4080 C 377.825 1.711 -1.60505 0
M  V30 4081 C 378.841 1.67008 -0.488307 0
M  V30 4082 O 380.017 1.86774 -0.753495 0
M  V30 4083 C 377.082 3.07608 -1.59932 0
M  V30 4084 C 376.143 3.22904 -2.82898 0
M  V30 4085 C 375.376 4.529 -2.82343 0
M  V30 4086 O 375.599 5.37278 -1.91542 0
M  V30 4087 O 374.533 4.71611 -3.73987 0
M  V30 4088 H 378.359 1.62436 -2.56609 0
M  V30 4089 H 375.944 0.742779 -1.29627 0
M  V30 4090 H 377.826 3.88877 -1.62336 0
M  V30 4091 H 376.501 3.16692 -0.669898 0
M  V30 4092 H 375.408 2.41099 -2.86046 0
M  V30 4093 H 376.741 3.18715 -3.75076 0
M  V30 4094 N 378.394 1.34581 0.820102 0
M  V30 4095 C 379.324 1.29038 1.94606 0
M  V30 4096 C 380.305 0.1673 1.69275 0
M  V30 4097 O 381.49 0.360112 1.90832 0
M  V30 4098 C 378.62 1.04793 3.31113 0
M  V30 4099 C 377.574 2.13597 3.70891 0
M  V30 4100 C 376.9 1.74537 5.05412 0
M  V30 4101 C 378.2 3.55451 3.8269 0
M  V30 4102 H 379.894 2.23248 1.99501 0
M  V30 4103 H 377.44 1.0747 0.958449 0
M  V30 4104 H 379.393 0.995592 4.0947 0
M  V30 4105 H 378.117 0.0702565 3.26524 0
M  V30 4106 H 376.776 2.17905 2.9481 0
M  V30 4107 H 376.424 0.754226 4.97313 0
M  V30 4108 H 376.124 2.47361 5.32997 0
M  V30 4109 H 377.648 1.70803 5.86224 0
M  V30 4110 H 379.062 3.5354 4.51312 0
M  V30 4111 H 377.459 4.26922 4.21732 0
M  V30 4112 H 378.529 3.92587 2.84611 0
M  V30 4113 N 379.872 -1.04064 1.18357 0
M  V30 4114 C 380.835 -2.10243 0.912707 0
M  V30 4115 C 381.835 -1.60477 -0.101928 0
M  V30 4116 O 383.025 -1.73703 0.131517 0
M  V30 4117 C 380.157 -3.38893 0.369387 0
M  V30 4118 H 381.35 -2.35706 1.85426 0
M  V30 4119 H 378.903 -1.20489 0.995594 0
M  V30 4120 H 379.638 -3.19094 -0.578776 0
M  V30 4121 H 379.423 -3.76331 1.1008 0
M  V30 4122 H 380.913 -4.17128 0.198575 0
M  V30 4123 N 381.35 -0.985608 -1.22978 0
M  V30 4124 C 382.297 -0.529825 -2.24636 0
M  V30 4125 C 383.267 0.434028 -1.60329 0
M  V30 4126 O 384.452 0.340414 -1.87739 0
M  V30 4127 C 381.592 0.156533 -3.44745 0
M  V30 4128 C 380.705 -0.848197 -4.23591 0
M  V30 4129 C 379.84 -0.136109 -5.31026 0
M  V30 4130 C 378.879 -1.1297 -6.01585 0
M  V30 4131 N 378.016 -0.446415 -7.00679 0
M  V30 4132 H 382.856 -1.40148 -2.62988 0
M  V30 4133 H 380.393 -0.702168 -1.29259 0
M  V30 4134 H 382.351 0.571324 -4.1327 0
M  V30 4135 H 380.981 0.992025 -3.07179 0
M  V30 4136 H 380.033 -1.38135 -3.54433 0
M  V30 4137 H 381.345 -1.60512 -4.72268 0
M  V30 4138 H 380.499 0.335784 -6.0577 0
M  V30 4139 H 379.238 0.653373 -4.83304 0
M  V30 4140 H 378.243 -1.6123 -5.25628 0
M  V30 4141 H 379.468 -1.91993 -6.51395 0
M  V30 4142 H 377.414 0.323763 -6.55201 0
M  V30 4143 H 377.331 -1.1419 -7.47326 0
M  V30 4144 H 378.599 0.00291697 -7.795 0
M  V30 4145 N 382.828 1.3818 -0.7579 0
M  V30 4146 C 384.105 1.94106 -0.241306 0
M  V30 4147 C 384.485 1.69282 1.26122 0
M  V30 4148 O 383.833 1.03378 2.03777 0
M  V30 4149 C 384.043 3.43809 -0.59967 0
M  V30 4150 C 385.391 4.20868 -0.561717 0
M  V30 4151 O 386.415 3.5211 -0.538222 0
M  V30 4152 O 385.274 5.43451 -0.576478 0
M  V30 4153 H 382.368 0.825376 -0.0518042 0
M  V30 4154 H 384.914 1.47548 -0.838315 0
M  V30 4155 H 383.686 3.55403 -1.6372 0
M  V30 4156 H 383.309 3.97592 0.0251197 0
M  V30 4157 N 384.306 0.507319 1.49211 0
M  V30 4158 C 385.553 -0.0349529 2.0247 0
M  V30 4159 C 385.881 -1.36409 1.38647 0
M  V30 4160 O 385.136 -1.88841 0.513566 0
M  V30 4161 C 385.435 -0.229513 3.56662 0
M  V30 4162 C 385.101 1.02241 4.39156 0
M  V30 4163 C 383.763 1.36557 4.61417 0
M  V30 4164 C 386.115 1.85428 4.871 0
M  V30 4165 C 383.443 2.53999 5.28868 0
M  V30 4166 C 385.795 3.02028 5.55843 0
M  V30 4167 C 384.459 3.36717 5.76349 0
M  V30 4168 H 383.729 -0.0127902 0.74089 0
M  V30 4169 H 386.376 0.668756 1.79443 0
M  V30 4170 H 384.681 -1.0158 3.78403 0
M  V30 4171 H 386.378 -0.663641 3.9547 0
M  V30 4172 H 382.968 0.745124 4.22073 0
M  V30 4173 H 387.152 1.6023 4.69723 0
M  V30 4174 H 382.408 2.81105 5.42946 0
M  V30 4175 H 386.582 3.66808 5.91967 0
M  V30 4176 H 384.209 4.27821 6.28389 0
M  V30 4177 N 385.784 -1.5574 0.241426 0
M  V30 4178 C 387.033 -1.97986 -0.385295 0
M  V30 4179 C 387.346 -1.13267 -1.59468 0
M  V30 4180 O 388.552 -1.45501 -2.2922 0
M  V30 4181 C 387.008 -3.52275 -0.736884 0
M  V30 4182 C 386.616 -4.45726 0.450796 0
M  V30 4183 C 388.36 -4.03189 -1.3281 0
M  V30 4184 C 386.267 -5.91352 0.0756662 0
M  V30 4185 H 385.197 -0.739386 -0.147731 0
M  V30 4186 H 387.848 -1.80308 0.340779 0
M  V30 4187 H 386.23 -3.65628 -1.52094 0
M  V30 4188 H 387.404 -4.44131 1.22819 0
M  V30 4189 H 385.719 -4.05264 0.956573 0
M  V30 4190 H 388.316 -5.09505 -1.62201 0
M  V30 4191 H 388.659 -3.50212 -2.25071 0
M  V30 4192 H 389.192 -3.93141 -0.607069 0
M  V30 4193 H 385.931 -6.48354 0.965272 0
M  V30 4194 H 385.451 -5.96095 -0.665635 0
M  V30 4195 H 387.13 -6.46084 -0.344075 0
M  V30 4196 N 387.262 0.0317525 -1.57568 0
M  V30 4197 C 388.678 0.38735 -1.54828 0
M  V30 4198 C 388.878 1.7677 -0.967187 0
M  V30 4199 O 387.934 2.45581 -0.587063 0
M  V30 4200 C 389.247 0.291667 -2.99282 0
M  V30 4201 C 390.795 0.368946 -3.10818 0
M  V30 4202 C 391.27 0.302741 -4.56998 0
M  V30 4203 N 392.761 0.361617 -4.61786 0
M  V30 4204 C 393.496 0.333238 -5.72431 0
M  V30 4205 N 392.992 0.257308 -6.92322 0
M  V30 4206 N 394.785 0.382769 -5.60795 0
M  V30 4207 H 386.936 -0.871609 -1.93692 0
M  V30 4208 H 389.199 -0.331161 -0.888277 0
M  V30 4209 H 388.905 -0.656794 -3.45513 0
M  V30 4210 H 388.779 1.08638 -3.61217 0
M  V30 4211 H 391.166 1.30784 -2.64536 0
M  V30 4212 H 391.247 -0.455066 -2.5172 0
M  V30 4213 H 390.891 -0.632473 -5.03947 0
M  V30 4214 H 390.821 1.14482 -5.14005 0
M  V30 4215 H 393.312 0.422923 -3.75526 0
M  V30 4216 H 393.625 0.24068 -7.72425 0
M  V30 4217 H 391.97 0.223396 -6.94641 0
M  V30 4218 H 395.161 0.44006 -4.66027 0
M  V30 4219 H 395.334 0.357184 -6.47015 0
M  V30 4220 N 388.74 1.54641 0.303973 0
M  V30 4221 C 389.687 1.85386 1.37479 0
M  V30 4222 C 390.657 0.702528 1.50512 0
M  V30 4223 O 391.842 0.950867 1.65418 0
M  V30 4224 C 388.982 2.10413 2.73533 0
M  V30 4225 C 388.095 3.38049 2.68974 0
M  V30 4226 C 387.23 3.52934 3.97002 0
M  V30 4227 C 386.269 4.74373 3.86829 0
M  V30 4228 N 385.406 4.8608 5.06627 0
M  V30 4229 H 390.246 2.76732 1.1056 0
M  V30 4230 H 387.783 1.37034 0.534805 0
M  V30 4231 H 389.741 2.22919 3.52652 0
M  V30 4232 H 388.371 1.22338 2.98719 0
M  V30 4233 H 387.423 3.3418 1.81736 0
M  V30 4234 H 388.735 4.27288 2.57346 0
M  V30 4235 H 387.889 3.65088 4.84557 0
M  V30 4236 H 386.628 2.61824 4.1146 0
M  V30 4237 H 385.633 4.62255 2.97658 0
M  V30 4238 H 386.858 5.66888 3.73918 0
M  V30 4239 H 384.804 3.97891 5.21554 0
M  V30 4240 H 384.721 5.69315 4.9741 0
M  V30 4241 H 385.989 5.02587 5.95841 0
M  V30 4242 N 390.218 -0.567019 1.47046 0
M  V30 4243 C 391.148 -1.68482 1.61667 0
M  V30 4244 C 392.129 -1.6358 0.466418 0
M  V30 4245 O 393.314 -1.81354 0.694574 0
M  V30 4246 C 390.444 -3.07124 1.62148 0
M  V30 4247 C 389.398 -3.26867 2.76301 0
M  V30 4248 C 388.724 -4.66196 2.61849 0
M  V30 4249 C 390.024 -3.13186 4.17986 0
M  V30 4250 H 391.718 -1.56502 2.5524 0
M  V30 4251 H 389.264 -0.751486 1.22836 0
M  V30 4252 H 391.217 -3.8516 1.70968 0
M  V30 4253 H 389.941 -3.2004 0.651287 0
M  V30 4254 H 388.6 -2.51237 2.66975 0
M  V30 4255 H 388.248 -4.75898 1.62879 0
M  V30 4256 H 387.948 -4.80356 3.38425 0
M  V30 4257 H 389.472 -5.46379 2.72584 0
M  V30 4258 H 390.886 -3.81049 4.2834 0
M  V30 4259 H 389.283 -3.3886 4.95272 0
M  V30 4260 H 390.353 -2.10057 4.3704 0
M  V30 4261 N 391.696 -1.35014 -0.812953 0
M  V30 4262 C 392.626 -1.30069 -1.93919 0
M  V30 4263 C 393.607 -0.176275 -1.69184 0
M  V30 4264 O 394.792 -0.370227 -1.90638 0
M  V30 4265 C 391.922 -1.06547 -3.30552 0
M  V30 4266 C 390.876 -2.15561 -3.69753 0
M  V30 4267 C 390.202 -1.77214 -5.04479 0
M  V30 4268 C 391.502 -3.57476 -3.808 0
M  V30 4269 H 393.196 -2.24303 -1.98314 0
M  V30 4270 H 390.742 -1.07977 -0.952736 0
M  V30 4271 H 392.695 -1.01729 -4.08937 0
M  V30 4272 H 391.419 -0.0875719 -3.26483 0
M  V30 4273 H 390.078 -2.19466 -2.9365 0
M  V30 4274 H 389.726 -0.780589 -4.96906 0
M  V30 4275 H 389.426 -2.50184 -5.31678 0
M  V30 4276 H 390.95 -1.7391 -5.8531 0
M  V30 4277 H 392.364 -3.55929 -4.4943 0
M  V30 4278 H 390.761 -4.29152 -4.19462 0
M  V30 4279 H 391.831 -3.94091 -2.82525 0
M  V30 4280 N 393.175 1.03435 -1.18907 0
M  V30 4281 C 394.421 1.77005 -0.989798 0
M  V30 4282 C 394.754 1.88205 0.478816 0
M  V30 4283 O 394.029 1.39481 1.35556 0
M  V30 4284 C 394.312 3.19925 -1.65287 0
M  V30 4285 C 394.165 3.1663 -3.19477 0
M  V30 4286 C 395.484 4.18189 -1.37134 0
M  V30 4287 H 392.603 0.642538 -0.360991 0
M  V30 4288 H 395.245 1.20784 -1.46667 0
M  V30 4289 H 393.395 3.67929 -1.24741 0
M  V30 4290 H 395.067 2.76567 -3.692 0
M  V30 4291 H 393.31 2.54491 -3.51307 0
M  V30 4292 H 393.981 4.1758 -3.61013 0
M  V30 4293 H 396.457 3.78761 -1.72276 0
M  V30 4294 H 395.333 5.16394 -1.86087 0
M  V30 4295 H 395.594 4.41112 -0.295424 0
M  V30 4296 N 394.653 0.992116 1.22453 0
M  V30 4297 C 395.6 0.541731 2.24352 0
M  V30 4298 C 396.57 -0.425519 1.60557 0
M  V30 4299 O 397.755 -0.330453 1.87917 0
M  V30 4300 C 394.895 -0.138248 3.44823 0
M  V30 4301 C 394.008 0.870649 4.23136 0
M  V30 4302 C 393.143 0.164269 5.30946 0
M  V30 4303 C 392.182 1.16159 6.00977 0
M  V30 4304 N 391.319 0.483568 7.00433 0
M  V30 4305 H 396.159 1.41541 2.62241 0
M  V30 4306 H 393.696 0.709013 1.28885 0
M  V30 4307 H 395.654 -0.5494 4.13567 0
M  V30 4308 H 394.284 -0.975721 3.077 0
M  V30 4309 H 393.336 1.40013 3.53696 0
M  V30 4310 H 394.648 1.63014 4.7141 0
M  V30 4311 H 393.802 -0.303653 6.0594 0
M  V30 4312 H 392.541 -0.627733 4.83643 0
M  V30 4313 H 391.546 1.64015 5.24766 0
M  V30 4314 H 392.771 1.95445 6.50368 0
M  V30 4315 H 390.717 -0.289012 6.55363 0
M  V30 4316 H 390.634 1.18152 7.4671 0
M  V30 4317 H 391.902 0.0384219 7.79491 0
M  V30 4318 N 396.131 -1.37776 0.765217 0
M  V30 4319 C 397.041 -2.34135 0.147666 0
M  V30 4320 C 398.057 -1.59854 -0.687215 0
M  V30 4321 O 399.233 -1.91983 -0.608659 0
M  V30 4322 C 396.298 -3.3901 -0.72617 0
M  V30 4323 C 395.359 -4.2912 0.124417 0
M  V30 4324 C 394.592 -5.28986 -0.707807 0
M  V30 4325 O 394.815 -5.36205 -1.94525 0
M  V30 4326 O 393.749 -6.01779 -0.12046 0
M  V30 4327 H 397.575 -2.88664 0.943758 0
M  V30 4328 H 395.16 -1.39824 0.526277 0
M  V30 4329 H 397.042 -4.03195 -1.22524 0
M  V30 4330 H 395.717 -2.86819 -1.50056 0
M  V30 4331 H 394.624 -3.68057 0.669696 0
M  V30 4332 H 395.957 -4.84598 0.861736 0
M  V30 4333 N 397.609 -0.515225 -1.4894 0
M  V30 4334 C 398.837 0.0206034 -2.0689 0
M  V30 4335 C 399.252 1.29514 -1.37374 0
M  V30 4336 O 398.609 1.76698 -0.456529 0
M  V30 4337 C 398.66 0.26351 -3.60538 0
M  V30 4338 O 398.381 -0.960517 -4.27441 0
M  V30 4339 C 399.882 0.841383 -4.35242 0
M  V30 4340 H 397.102 -0.0268608 -0.670462 0
M  V30 4341 H 399.646 -0.716651 -1.91532 0
M  V30 4342 H 397.801 0.950777 -3.75552 0
M  V30 4343 H 398.215 -0.73212 -5.19365 0
M  V30 4344 H 399.689 0.96085 -5.43573 0
M  V30 4345 H 400.166 1.8427 -3.98674 0
M  V30 4346 H 400.772 0.191143 -4.2487 0
M  V30 4347 N 399.087 1.5561 -0.249682 0
M  V30 4348 C 400.503 1.59254 0.105103 0
M  V30 4349 C 400.703 1.26685 1.56694 0
M  V30 4350 O 399.759 1.0155 2.31179 0
M  V30 4351 C 401.072 2.99687 -0.246592 0
M  V30 4352 C 402.62 3.12416 -0.191118 0
M  V30 4353 C 403.095 4.55074 -0.516885 0
M  V30 4354 N 404.586 4.60835 -0.467489 0
M  V30 4355 C 405.321 5.69201 -0.69268 0
M  V30 4356 N 404.817 6.85817 -0.981146 0
M  V30 4357 N 406.61 5.58635 -0.623198 0
M  V30 4358 H 398.761 1.75049 -1.20298 0
M  V30 4359 H 401.024 0.815003 -0.484225 0
M  V30 4360 H 400.73 3.28267 -1.26228 0
M  V30 4361 H 400.604 3.74798 0.424962 0
M  V30 4362 H 402.991 2.83615 0.815247 0
M  V30 4363 H 403.072 2.39573 -0.896563 0
M  V30 4364 H 402.716 4.84596 -1.52082 0
M  V30 4365 H 402.646 5.26181 0.210068 0
M  V30 4366 H 405.137 3.7705 -0.253373 0
M  V30 4367 H 405.45 7.64341 -1.14032 0
M  V30 4368 H 403.795 6.87494 -1.01865 0
M  V30 4369 H 406.986 4.66406 -0.397863 0
M  V30 4370 H 407.159 6.43017 -0.802093 0
M  V30 4371 N 400.565 -0.0233959 1.57583 0
M  V30 4372 C 401.512 -1.02224 2.06927 0
M  V30 4373 C 402.482 -1.35575 0.959617 0
M  V30 4374 O 403.667 -1.45815 1.23055 0
M  V30 4375 C 400.807 -2.31636 2.5581 0
M  V30 4376 C 399.92 -2.04394 3.80588 0
M  V30 4377 C 399.055 -3.27717 4.18061 0
M  V30 4378 C 398.094 -2.96056 5.3574 0
M  V30 4379 N 397.231 -4.11847 5.68618 0
M  V30 4380 H 402.071 -0.594504 2.9201 0
M  V30 4381 H 399.608 -0.281921 1.44373 0
M  V30 4382 H 401.566 -3.07258 2.82221 0
M  V30 4383 H 400.196 -2.72122 1.73636 0
M  V30 4384 H 399.248 -1.19244 3.61227 0
M  V30 4385 H 400.56 -1.77042 4.66323 0
M  V30 4386 H 399.714 -4.11702 4.4563 0
M  V30 4387 H 398.453 -3.58188 3.30988 0
M  V30 4388 H 397.458 -2.10474 5.07918 0
M  V30 4389 H 398.683 -2.66857 6.24471 0
M  V30 4390 H 396.629 -4.42258 4.84504 0
M  V30 4391 H 396.546 -3.87938 6.48876 0
M  V30 4392 H 397.814 -4.96689 6.00766 0
M  V30 4393 N 402.043 -1.548 -0.295768 0
M  V30 4394 C 403.459 -1.4613 -0.641722 0
M  V30 4395 C 403.659 -0.656771 -1.90496 0
M  V30 4396 O 402.715 -0.166547 -2.5195 0
M  V30 4397 C 404.028 -2.90141 -0.789852 0
M  V30 4398 C 405.576 -3.00216 -0.885396 0
M  V30 4399 C 406.051 -4.45434 -1.06548 0
M  V30 4400 N 407.542 -4.49166 -1.13156 0
M  V30 4401 C 408.277 -5.58717 -1.28929 0
M  V30 4402 N 407.773 -6.78182 -1.41567 0
M  V30 4403 N 409.566 -5.46415 -1.31859 0
M  V30 4404 H 401.717 -2.05574 0.534147 0
M  V30 4405 H 403.98 -0.931259 0.177372 0
M  V30 4406 H 403.686 -3.51635 0.0675598 0
M  V30 4407 H 403.56 -3.37859 -1.67724 0
M  V30 4408 H 405.947 -2.38833 -1.73329 0
M  V30 4409 H 406.028 -2.55787 0.0261185 0
M  V30 4410 H 405.672 -5.07413 -0.222335 0
M  V30 4411 H 405.602 -4.87499 -1.9913 0
M  V30 4412 H 408.093 -3.631 -1.04721 0
M  V30 4413 H 408.406 -7.57428 -1.53372 0
M  V30 4414 H 406.751 -6.81037 -1.38613 0
M  V30 4415 H 409.942 -4.5203 -1.21601 0
M  V30 4416 H 410.115 -6.31841 -1.43808 0
M  V30 4417 N 403.521 0.559213 -1.47345 0
M  V30 4418 C 404.451 1.67622 -1.62558 0
M  V30 4419 C 405.432 1.63331 -0.475087 0
M  V30 4420 O 406.617 1.80983 -0.704182 0
M  V30 4421 C 403.747 3.0626 -1.63774 0
M  V30 4422 C 402.701 3.25397 -2.7803 0
M  V30 4423 C 402.027 4.64801 -2.64318 0
M  V30 4424 C 403.327 3.10965 -4.19641 0
M  V30 4425 H 405.021 1.55146 -2.56067 0
M  V30 4426 H 402.567 0.744961 -1.23233 0
M  V30 4427 H 404.52 3.84247 -1.73008 0
M  V30 4428 H 403.244 3.1969 -0.66825 0
M  V30 4429 H 401.903 2.49817 -2.68304 0
M  V30 4430 H 401.551 4.75028 -1.65401 0
M  V30 4431 H 401.251 4.78555 -3.40968 0
M  V30 4432 H 402.775 5.44926 -2.75478 0
M  V30 4433 H 404.189 3.78772 -4.30354 0
M  V30 4434 H 402.586 3.36229 -4.97062 0
M  V30 4435 H 403.656 2.07736 -4.38148 0
M  V30 4436 N 404.999 1.35443 0.805782 0
M  V30 4437 C 406.227 1.31878 1.59423 0
M  V30 4438 C 406.642 -0.103562 1.88516 0
M  V30 4439 O 405.999 -1.05575 1.48863 0
M  V30 4440 C 406.05 2.12426 2.92502 0
M  V30 4441 O 405.771 3.49115 2.6467 0
M  V30 4442 C 407.272 2.16455 3.86862 0
M  V30 4443 H 404.492 0.453002 0.495005 0
M  V30 4444 H 407.036 1.78309 1.00131 0
M  V30 4445 H 405.191 1.69593 3.48306 0
M  V30 4446 H 405.605 3.90957 3.49647 0
M  V30 4447 H 407.079 2.77204 4.77349 0
M  V30 4448 H 407.556 1.16352 4.23508 0
M  V30 4449 H 408.162 2.59453 3.36993 0
M  V30 4450 N 406.477 -1.02803 1.19454 0
M  V30 4451 C 407.726 -1.7562 0.991996 0
M  V30 4452 C 408.039 -1.89672 -0.477901 0
M  V30 4453 O 409.245 -2.59468 -0.799287 0
M  V30 4454 C 407.701 -3.15812 1.72601 0
M  V30 4455 C 407.309 -3.0981 3.23607 0
M  V30 4456 C 409.053 -3.92918 1.60674 0
M  V30 4457 C 406.96 -4.44939 3.89594 0
M  V30 4458 H 405.89 -0.658352 0.367543 0
M  V30 4459 H 408.541 -1.15044 1.42959 0
M  V30 4460 H 406.923 -3.7686 1.21624 0
M  V30 4461 H 408.097 -2.58138 3.81709 0
M  V30 4462 H 406.412 -2.46201 3.35819 0
M  V30 4463 H 409.009 -4.9287 2.07323 0
M  V30 4464 H 409.352 -4.12502 0.561025 0
M  V30 4465 H 409.885 -3.38472 2.09001 0
M  V30 4466 H 406.624 -4.30559 4.94267 0
M  V30 4467 H 406.144 -4.96664 3.36281 0
M  V30 4468 H 407.823 -5.1382 3.93189 0
M  V30 4469 N 407.956 -0.998596 -1.21925 0
M  V30 4470 C 408.888 -0.511879 -2.23411 0
M  V30 4471 C 409.901 0.396094 -1.57908 0
M  V30 4472 O 411.09 0.197316 -1.77406 0
M  V30 4473 C 408.19 0.276802 -3.37768 0
M  V30 4474 C 407.363 -0.628687 -4.32858 0
M  V30 4475 C 406.422 0.109272 -5.26087 0
M  V30 4476 O 405.448 -0.507237 -5.66935 0
M  V30 4477 N 406.65 1.38983 -5.63617 0
M  V30 4478 H 409.415 -1.38457 -2.658 0
M  V30 4479 H 406.976 -0.873981 -1.36283 0
M  V30 4480 H 408.968 0.77928 -3.97126 0
M  V30 4481 H 407.538 1.05063 -2.94415 0
M  V30 4482 H 406.758 -1.31175 -3.71735 0
M  V30 4483 H 408.046 -1.24514 -4.93329 0
M  V30 4484 H 407.444 1.91194 -5.32411 0
M  V30 4485 H 406.001 1.83739 -6.25367 0
M  V30 4486 N 409.434 1.37368 -0.772513 0
M  V30 4487 C 410.344 2.34053 -0.160081 0
M  V30 4488 C 411.36 1.60216 0.678728 0
M  V30 4489 O 412.536 1.92303 0.59847 0
M  V30 4490 C 409.601 3.3939 0.708182 0
M  V30 4491 C 408.662 4.29048 -0.147172 0
M  V30 4492 C 407.895 5.29354 0.679744 0
M  V30 4493 O 408.118 5.3723 1.91678 0
M  V30 4494 O 407.052 6.01835 0.0885444 0
M  V30 4495 H 410.878 2.88159 -0.959053 0
M  V30 4496 H 408.463 1.39543 -0.533685 0
M  V30 4497 H 410.345 4.03839 1.20384 0
M  V30 4498 H 409.02 2.8761 1.48533 0
M  V30 4499 H 407.927 3.67697 -0.689205 0
M  V30 4500 H 409.26 4.84134 -0.887423 0
M  V30 4501 N 410.912 0.523116 1.48665 0
M  V30 4502 C 411.875 -0.232592 2.28017 0
M  V30 4503 C 412.875 -0.874021 1.34972 0
M  V30 4504 O 414.065 -0.735132 1.57929 0
M  V30 4505 C 411.197 -1.33586 3.13636 0
M  V30 4506 H 412.39 0.464008 2.96289 0
M  V30 4507 H 409.943 0.278816 1.53793 0
M  V30 4508 H 410.678 -2.06593 2.4998 0
M  V30 4509 H 410.463 -0.881125 3.82071 0
M  V30 4510 H 411.953 -1.86759 3.73511 0
M  V30 4511 N 412.39 -1.55475 0.257931 0
M  V30 4512 C 413.32 -2.24815 -0.630912 0
M  V30 4513 C 414.301 -1.23224 -1.17259 0
M  V30 4514 O 415.486 -1.51904 -1.20991 0
M  V30 4515 C 412.616 -2.95609 -1.82298 0
M  V30 4516 C 411.57 -4.03982 -1.41359 0
M  V30 4517 C 410.896 -4.6226 -2.68738 0
M  V30 4518 C 412.196 -5.19109 -0.57648 0
M  V30 4519 H 413.89 -2.99354 -0.0526878 0
M  V30 4520 H 411.436 -1.4398 -0.023901 0
M  V30 4521 H 413.389 -3.42822 -2.45054 0
M  V30 4522 H 412.113 -2.18577 -2.42676 0
M  V30 4523 H 410.772 -3.57555 -0.809324 0
M  V30 4524 H 410.42 -3.81915 -3.27338 0
M  V30 4525 H 410.12 -5.35424 -2.42065 0
M  V30 4526 H 411.644 -5.12212 -3.32372 0
M  V30 4527 H 413.058 -5.62479 -1.10861 0
M  V30 4528 H 411.455 -5.98729 -0.405351 0
M  V30 4529 H 412.525 -4.83174 0.408776 0
M  V30 4530 N 413.868 0.0150385 -1.57593 0
M  V30 4531 C 415.284 0.370907 -1.5523 0
M  V30 4532 C 415.484 1.75735 -0.985882 0
M  V30 4533 O 414.54 2.44944 -0.613077 0
M  V30 4534 C 415.853 0.259908 -2.99575 0
M  V30 4535 C 417.401 0.335959 -3.11192 0
M  V30 4536 C 417.876 0.254253 -4.57294 0
M  V30 4537 N 419.367 0.312618 -4.62144 0
M  V30 4538 C 420.102 0.272505 -5.72752 0
M  V30 4539 N 419.598 0.183864 -6.92556 0
M  V30 4540 N 421.391 0.323267 -5.6117 0
M  V30 4541 H 413.542 -0.892104 -1.92757 0
M  V30 4542 H 415.805 -0.340563 -0.884715 0
M  V30 4543 H 415.511 -0.693403 -3.44797 0
M  V30 4544 H 415.385 1.048 -3.62349 0
M  V30 4545 H 417.772 1.27971 -2.65909 0
M  V30 4546 H 417.853 -0.481739 -2.51223 0
M  V30 4547 H 417.497 -0.685887 -5.03247 0
M  V30 4548 H 417.427 1.09024 -5.15191 0
M  V30 4549 H 419.918 0.38307 -3.75953 0
M  V30 4550 H 420.231 0.15874 -7.72637 0
M  V30 4551 H 418.576 0.149708 -6.94839 0
M  V30 4552 H 421.767 0.390607 -4.66467 0
M  V30 4553 H 421.94 0.288539 -6.47357 0
M  V30 4554 N 415.346 1.54954 0.287554 0
M  V30 4555 C 416.296 1.8322 1.357 0
M  V30 4556 C 417.28 0.690152 1.45347 0
M  V30 4557 O 418.472 0.951137 1.49273 0
M  V30 4558 C 415.601 2.09481 2.71979 0
M  V30 4559 C 414.687 3.29906 2.66502 0
M  V30 4560 N 415.078 4.50154 2.30641 0
M  V30 4561 C 413.376 3.32203 2.97585 0
M  V30 4562 C 414.077 5.32209 2.34794 0
M  V30 4563 N 413.053 4.70258 2.72688 0
M  V30 4564 H 416.855 2.73746 1.0696 0
M  V30 4565 H 414.369 1.54635 0.496167 0
M  V30 4566 H 416.366 2.27882 3.49107 0
M  V30 4567 H 415.026 1.2023 3.0162 0
M  V30 4568 H 416.037 4.76515 2.02865 0
M  V30 4569 H 412.714 2.53101 3.32034 0
M  V30 4570 H 414.104 6.38321 2.09753 0
M  V30 4571 N 416.824 -0.551391 1.4764 0
M  V30 4572 C 418.235 -1.13349 1.48354 0
M  V30 4573 C 418.586 -1.94709 0.241432 0
M  V30 4574 O 417.711 -2.06306 -0.653205 0
M  V30 4575 C 418.306 -2.0623 2.68802 0
M  V30 4576 C 416.865 -2.597 2.72457 0
M  V30 4577 C 416.012 -1.36201 2.41546 0
M  V30 4578 H 418.963 -0.337698 1.55065 0
M  V30 4579 H 418.984 -2.90196 2.46103 0
M  V30 4580 H 418.496 -1.46987 3.59188 0
M  V30 4581 H 416.597 -3.22724 1.86225 0
M  V30 4582 H 416.71 -3.00296 3.73308 0
M  V30 4583 H 415.074 -1.67068 1.9225 0
M  V30 4584 H 415.857 -0.787425 3.34147 0
M  V30 4585 N 418.302 -1.35869 -0.798587 0
M  V30 4586 C 419.548 -1.30788 -1.55775 0
M  V30 4587 C 419.903 0.114558 -1.92059 0
M  V30 4588 O 419.196 1.06691 -1.59147 0
M  V30 4589 C 419.39 -2.1556 -2.85077 0
M  V30 4590 C 419.219 -3.65904 -2.61428 0
M  V30 4591 C 417.989 -4.35112 -2.56915 0
M  V30 4592 C 420.187 -4.59375 -2.31255 0
M  V30 4593 N 418.169 -5.71155 -2.25068 0
M  V30 4594 C 419.54 -5.83598 -2.09316 0
M  V30 4595 C 421.595 -4.48035 -2.17185 0
M  V30 4596 C 420.298 -6.97755 -1.74731 0
M  V30 4597 C 422.324 -5.62049 -1.83998 0
M  V30 4598 C 421.686 -6.85305 -1.629 0
M  V30 4599 H 417.785 -0.533855 -0.571422 0
M  V30 4600 H 420.369 -1.7083 -0.934079 0
M  V30 4601 H 418.54 -1.77776 -3.45326 0
M  V30 4602 H 420.272 -2.01938 -3.50718 0
M  V30 4603 H 417.027 -3.87812 -2.71843 0
M  V30 4604 H 417.451 -6.42978 -2.11916 0
M  V30 4605 H 422.093 -3.53338 -2.3219 0
M  V30 4606 H 419.811 -7.92411 -1.58464 0
M  V30 4607 H 423.397 -5.55232 -1.73808 0
M  V30 4608 H 422.277 -7.72034 -1.37596 0
M  V30 4609 N 419.78 1.02168 -1.19998 0
M  V30 4610 C 421.029 1.75091 -1.0013 0
M  V30 4611 C 421.342 1.89923 0.467835 0
M  V30 4612 O 422.548 2.59888 0.785515 0
M  V30 4613 C 421.004 3.14892 -1.74273 0
M  V30 4614 C 420.612 3.0809 -3.25245 0
M  V30 4615 C 422.356 3.9206 -1.62755 0
M  V30 4616 C 420.263 4.42867 -3.91948 0
M  V30 4617 H 419.193 0.656394 -0.37103 0
M  V30 4618 H 421.844 1.14284 -1.43567 0
M  V30 4619 H 420.226 3.7621 -1.2362 0
M  V30 4620 H 421.4 2.5611 -3.83072 0
M  V30 4621 H 419.715 2.44416 -3.3712 0
M  V30 4622 H 422.312 4.91764 -2.09934 0
M  V30 4623 H 422.655 4.12199 -0.582894 0
M  V30 4624 H 423.188 3.37359 -2.10793 0
M  V30 4625 H 419.927 4.27931 -4.96543 0
M  V30 4626 H 419.447 4.94874 -3.3891 0
M  V30 4627 H 421.126 5.11728 -3.95909 0
M  V30 4628 N 421.258 1.00505 1.21394 0
M  V30 4629 C 422.486 0.706609 1.9446 0
M  V30 4630 C 422.901 -0.73081 1.74082 0
M  V30 4631 O 422.258 -1.49446 1.04747 0
M  V30 4632 C 422.309 1.01824 3.46863 0
M  V30 4633 O 422.03 2.39919 3.66566 0
M  V30 4634 C 423.531 0.739216 4.37093 0
M  V30 4635 H 420.751 0.260394 0.618414 0
M  V30 4636 H 423.295 1.34311 1.54211 0
M  V30 4637 H 421.45 0.427343 3.85036 0
M  V30 4638 H 421.864 2.50784 4.6066 0
M  V30 4639 H 423.338 1.00744 5.42729 0
M  V30 4640 H 423.815 -0.326746 4.37983 0
M  V30 4641 H 424.421 1.31173 4.04566 0
M  V30 4642 N 422.737 -1.36956 0.779787 0
M  V30 4643 C 424.148 -1.82094 0.412156 0
M  V30 4644 C 424.499 -1.64926 -1.06273 0
M  V30 4645 O 423.624 -1.16483 -1.82375 0
M  V30 4646 C 424.219 -3.3059 0.741319 0
M  V30 4647 C 422.778 -3.73974 0.426641 0
M  V30 4648 C 421.925 -2.59368 0.980987 0
M  V30 4649 H 424.876 -1.25314 0.973758 0
M  V30 4650 H 424.897 -3.80489 0.028887 0
M  V30 4651 H 424.409 -3.43054 1.81482 0
M  V30 4652 H 422.51 -3.67076 -0.639215 0
M  V30 4653 H 422.623 -4.69778 0.940515 0
M  V30 4654 H 420.987 -2.51463 0.404757 0
M  V30 4655 H 421.77 -2.74621 2.06005 0
M  V30 4656 N 424.215 -0.530993 -1.48385 0
M  V30 4657 C 425.461 0.00274135 -2.028 0
M  V30 4658 C 425.794 1.33838 -1.40716 0
M  V30 4659 O 425.069 1.86465 -0.553277 0
M  V30 4660 C 425.352 0.123676 -3.59888 0
M  V30 4661 C 425.205 -1.2372 -4.3245 0
M  V30 4662 C 426.524 0.849967 -4.31814 0
M  V30 4663 H 423.643 -0.000477758 -0.737 0
M  V30 4664 H 426.285 -0.688217 -1.77098 0
M  V30 4665 H 424.435 0.712157 -3.81917 0
M  V30 4666 H 426.107 -1.86687 -4.21836 0
M  V30 4667 H 424.35 -1.81882 -3.93829 0
M  V30 4668 H 425.021 -1.10557 -5.40815 0
M  V30 4669 H 427.497 0.350572 -4.14621 0
M  V30 4670 H 426.373 0.903486 -5.41413 0
M  V30 4671 H 426.634 1.90047 -3.99167 0
M  V30 4672 N 425.693 1.55336 -0.266172 0
M  V30 4673 C 426.97 1.91372 0.404486 0
M  V30 4674 C 427.35 1.18935 1.74407 0
M  V30 4675 O 426.698 0.3132 2.26343 0
M  V30 4676 C 426.908 3.44581 0.553593 0
M  V30 4677 C 428.256 4.16196 0.840618 0
M  V30 4678 O 429.28 3.50426 0.638739 0
M  V30 4679 O 428.139 5.32567 1.22618 0
M  V30 4680 H 425.233 0.797194 0.220025 0
M  V30 4681 H 427.779 1.66813 -0.311664 0
M  V30 4682 H 426.551 3.89357 -0.389498 0
M  V30 4683 H 426.174 3.75065 1.31955 0
M  V30 4684 N 427.171 -0.0066808 1.57599 0
M  V30 4685 C 428.119 -1.01851 2.09115 0
M  V30 4686 C 429.113 -1.36021 1.00969 0
M  V30 4687 O 430.319 -1.34663 1.19439 0
M  V30 4688 H 426.694 -0.346083 0.667631 0
M  V30 4689 H 428.665 -0.558394 2.93129 0
M  V30 4690 C 427.414 -2.30374 2.60429 0
M  V30 4691 H 426.737 -2.04947 3.43273 0
M  V30 4692 H 428.177 -2.99466 3.00161 0
M  V30 4693 C 426.636 -3.00893 1.51542 0
M  V30 4694 O 427.166 -3.91614 0.894484 0
M  V30 4695 N 425.372 -2.62603 1.2445 0
M  V30 4696 H 424.919 -1.88911 1.75129 0
M  V30 4697 H 424.877 -3.10101 0.518137 0
M  V30 4698 N 428.649 -1.55105 -0.279332 0
M  V30 4699 C 429.581 -1.83952 -1.36727 0
M  V30 4700 C 430.594 -0.723642 -1.45833 0
M  V30 4701 O 431.783 -1.00141 -1.47763 0
M  V30 4702 C 428.883 -1.98183 -2.74912 0
M  V30 4703 C 428.056 -3.28787 -2.88475 0
M  V30 4704 C 427.115 -3.33162 -4.07295 0
M  V30 4705 O 426.141 -4.06576 -3.98353 0
M  V30 4706 N 427.343 -2.60109 -5.18964 0
M  V30 4707 H 430.108 -2.77853 -1.12328 0
M  V30 4708 H 427.669 -1.54945 -0.469442 0
M  V30 4709 H 429.661 -1.98488 -3.52682 0
M  V30 4710 H 428.231 -1.11177 -2.92162 0
M  V30 4711 H 427.451 -3.41075 -1.97641 0
M  V30 4712 H 428.739 -4.14933 -2.94463 0
M  V30 4713 H 428.137 -2.00136 -5.29115 0
M  V30 4714 H 426.694 -2.66143 -5.94988 0
M  V30 4715 N 430.127 0.543554 -1.4793 0
M  V30 4716 C 431.059 1.665 -1.57513 0
M  V30 4717 C 432.072 1.56156 -0.460333 0
M  V30 4718 O 433.261 1.62865 -0.730573 0
M  V30 4719 C 430.361 3.05063 -1.47614 0
M  V30 4720 C 429.534 3.41024 -2.739 0
M  V30 4721 C 428.593 4.58809 -2.57645 0
M  V30 4722 O 427.619 4.62707 -3.31498 0
M  V30 4723 N 428.821 5.56149 -1.66368 0
M  V30 4724 H 431.586 1.5872 -2.5422 0
M  V30 4725 H 429.147 0.730517 -1.44482 0
M  V30 4726 H 431.139 3.81712 -1.34455 0
M  V30 4727 H 429.709 3.06994 -0.589359 0
M  V30 4728 H 428.929 2.53687 -3.01723 0
M  V30 4729 H 430.217 3.61831 -3.57709 0
M  V30 4730 H 429.615 5.55767 -1.05543 0
M  V30 4731 H 428.172 6.32071 -1.59154 0
M  V30 4732 N 431.605 1.3629 0.791371 0
M  V30 4733 C 432.568 1.30309 1.88553 0
M  V30 4734 C 433.568 0.211204 1.59407 0
M  V30 4735 O 434.758 0.465865 1.67855 0
M  V30 4736 C 431.89 1.01956 3.25297 0
M  V30 4737 H 433.083 2.27614 1.95273 0
M  V30 4738 H 430.636 1.21035 0.988953 0
M  V30 4739 H 431.371 0.050998 3.2426 0
M  V30 4740 H 431.156 1.80968 3.4784 0
M  V30 4741 H 432.646 1.0037 4.05359 0
M  V30 4742 N 433.083 -1.0153 1.20538 0
M  V30 4743 C 434.016 -2.09759 0.898695 0
M  V30 4744 C 434.994 -1.61909 -0.149733 0
M  V30 4745 O 436.178 -1.88486 -0.0230293 0
M  V30 4746 C 433.305 -3.36913 0.347512 0
M  V30 4747 C 432.351 -4.03655 1.37713 0
M  V30 4748 S 433.184 -4.47402 2.94265 0
M  V30 4749 C 434.34 -5.77756 2.40726 0
M  V30 4750 H 434.573 -2.3545 1.81523 0
M  V30 4751 H 432.106 -1.14665 1.03399 0
M  V30 4752 H 434.064 -4.10484 0.0360518 0
M  V30 4753 H 432.725 -3.09291 -0.547546 0
M  V30 4754 H 431.918 -4.9514 0.940872 0
M  V30 4755 H 431.52 -3.36313 1.63614 0
M  V30 4756 H 433.812 -6.52994 1.80569 0
M  V30 4757 H 434.755 -6.2618 3.30612 0
M  V30 4758 H 435.163 -5.34081 1.82806 0
M  V30 4759 N 434.561 -1.01147 -1.20859 0
M  V30 4760 C 435.807 -0.698899 -1.90377 0
M  V30 4761 C 436.14 0.76904 -1.78324 0
M  V30 4762 O 435.415 1.55817 -1.16409 0
M  V30 4763 C 435.698 -1.12878 -3.41951 0
M  V30 4764 C 435.551 -2.65665 -3.62963 0
M  V30 4765 C 436.87 -0.696114 -4.3456 0
M  V30 4766 H 433.989 -0.255372 -0.691342 0
M  V30 4767 H 436.631 -1.25831 -1.42361 0
M  V30 4768 H 434.781 -0.652827 -3.82976 0
M  V30 4769 H 436.453 -3.21074 -3.31224 0
M  V30 4770 H 434.696 -3.06878 -3.06608 0
M  V30 4771 H 435.367 -2.90797 -4.69192 0
M  V30 4772 H 437.843 -1.10521 -4.01154 0
M  V30 4773 H 436.719 -1.025 -5.39245 0
M  V30 4774 H 436.98 0.402465 -4.40264 0
M  V30 4775 N 436.039 1.36541 -0.78704 0
M  V30 4776 C 437.455 1.52571 -0.46844 0
M  V30 4777 C 437.655 1.7415 1.01361 0
M  V30 4778 O 436.711 1.77163 1.79915 0
M  V30 4779 C 438.024 2.71299 -1.29682 0
M  V30 4780 C 439.572 2.85169 -1.29027 0
M  V30 4781 C 440.047 4.06898 -2.10233 0
M  V30 4782 N 441.538 4.1404 -2.07666 0
M  V30 4783 C 442.273 5.07301 -2.67271 0
M  V30 4784 N 441.769 6.06021 -3.35724 0
M  V30 4785 N 443.562 4.99898 -2.57018 0
M  V30 4786 H 435.713 1.20788 -1.74711 0
M  V30 4787 H 437.976 0.589364 -0.742532 0
M  V30 4788 H 437.682 2.61868 -2.34773 0
M  V30 4789 H 437.556 3.6539 -0.936479 0
M  V30 4790 H 439.943 2.94062 -0.247284 0
M  V30 4791 H 440.024 1.91992 -1.69035 0
M  V30 4792 H 439.668 3.98766 -3.1456 0
M  V30 4793 H 439.598 4.99218 -1.67597 0
M  V30 4794 H 442.089 3.43357 -1.57843 0
M  V30 4795 H 442.402 6.73741 -3.78541 0
M  V30 4796 H 440.747 6.06253 -3.39826 0
M  V30 4797 H 443.938 4.21724 -2.03142 0
M  V30 4798 H 444.111 5.72392 -3.03761 0
M  V30 4799 N 437.518 0.538854 1.48102 0
M  V30 4800 C 438.934 0.19732 1.58376 0
M  V30 4801 C 439.134 -1.29971 1.5398 0
M  V30 4802 O 438.19 -2.07861 1.43352 0
M  V30 4803 C 439.503 0.807716 2.89649 0
M  V30 4804 C 441.051 0.77726 3.03196 0
M  V30 4805 C 441.526 1.36639 4.37143 0
M  V30 4806 N 443.017 1.32875 4.43732 0
M  V30 4807 C 443.752 1.7544 5.45901 0
M  V30 4808 N 443.248 2.25776 6.54979 0
M  V30 4809 N 445.041 1.66623 5.36836 0
M  V30 4810 H 437.192 1.5117 1.49202 0
M  V30 4811 H 439.455 0.629327 0.708979 0
M  V30 4812 H 439.161 1.85909 2.98548 0
M  V30 4813 H 439.035 0.289975 3.76084 0
M  V30 4814 H 441.422 -0.265374 2.93904 0
M  V30 4815 H 441.503 1.33256 2.18349 0
M  V30 4816 H 441.147 2.408 4.47189 0
M  V30 4817 H 441.077 0.786689 5.20691 0
M  V30 4818 H 443.568 0.96037 3.65493 0
M  V30 4819 H 443.881 2.56226 7.29087 0
M  V30 4820 H 442.226 2.29775 6.55918 0
M  V30 4821 H 445.417 1.27089 4.50517 0
M  V30 4822 H 445.59 2.00115 6.16326 0
M  V30 4823 N 438.996 -1.55193 0.274407 0
M  V30 4824 C 439.906 -2.26164 -0.623473 0
M  V30 4825 C 440.922 -1.28729 -1.17068 0
M  V30 4826 O 442.098 -1.61663 -1.20112 0
M  V30 4827 C 439.163 -2.96833 -1.7914 0
M  V30 4828 C 438.224 -4.09745 -1.28093 0
M  V30 4829 C 437.457 -4.77034 -2.3932 0
M  V30 4830 O 437.68 -4.4353 -3.5866 0
M  V30 4831 O 436.614 -5.64996 -2.07516 0
M  V30 4832 H 440.44 -3.03661 -0.0485661 0
M  V30 4833 H 438.025 -1.49341 0.0418382 0
M  V30 4834 H 439.907 -3.41248 -2.4724 0
M  V30 4835 H 438.582 -2.22253 -2.35341 0
M  V30 4836 H 437.489 -3.69787 -0.566416 0
M  V30 4837 H 438.822 -4.86224 -0.764683 0
M  V30 4838 N 440.474 -0.00167713 -1.576 0
M  V30 4839 C 441.699 0.69739 -1.95323 0
M  V30 4840 C 442.124 1.6642 -0.876706 0
M  V30 4841 O 441.482 1.80548 0.165007 0
M  V30 4842 C 441.53 1.40403 -3.32144 0
M  V30 4843 O 440.634 2.5185 -3.26566 0
M  V30 4844 H 439.975 0.185373 -0.637599 0
M  V30 4845 H 442.505 -0.0553665 -2.04525 0
M  V30 4846 H 442.515 1.76707 -3.67748 0
M  V30 4847 H 441.19 0.695167 -4.10049 0
M  V30 4848 H 439.767 2.17861 -3.0264 0
M  V30 4849 N 441.952 1.55251 0.271103 0
M  V30 4850 C 443.198 1.76207 1.00394 0
M  V30 4851 C 443.531 0.562604 1.85872 0
M  V30 4852 O 442.806 -0.439785 1.89463 0
M  V30 4853 C 443.089 3.06828 1.8849 0
M  V30 4854 C 442.942 4.37134 1.05992 0
M  V30 4855 C 444.261 3.33503 2.87165 0
M  V30 4856 H 441.38 0.641086 0.363562 0
M  V30 4857 H 444.022 1.87982 0.276189 0
M  V30 4858 H 442.172 2.96921 2.5054 0
M  V30 4859 H 443.844 4.59001 0.459978 0
M  V30 4860 H 442.087 4.32275 0.363443 0
M  V30 4861 H 442.758 5.2486 1.70955 0
M  V30 4862 H 445.234 3.43215 2.3525 0
M  V30 4863 H 444.11 4.2616 3.45946 0
M  V30 4864 H 444.371 2.53235 3.62387 0
M  V30 4865 N 443.43 -0.535701 1.48216 0
M  V30 4866 C 444.676 -1.29375 1.56173 0
M  V30 4867 C 445.009 -1.92804 0.232429 0
M  V30 4868 O 444.284 -1.78992 -0.761048 0
M  V30 4869 C 444.567 -2.38747 2.69577 0
M  V30 4870 C 444.42 -1.80046 4.12193 0
M  V30 4871 C 445.739 -3.40551 2.78771 0
M  V30 4872 H 442.858 -0.469027 0.568491 0
M  V30 4873 H 445.5 -0.597358 1.80365 0
M  V30 4874 H 443.65 -2.98147 2.4908 0
M  V30 4875 H 445.322 -1.24742 4.44114 0
M  V30 4876 H 443.565 -1.10609 4.19462 0
M  V30 4877 H 444.236 -2.59212 4.87353 0
M  V30 4878 H 446.712 -2.91099 2.97322 0
M  V30 4879 H 445.588 -4.1448 3.59857 0
M  V30 4880 H 445.849 -4.00746 1.86696 0
M  V30 4881 N 444.908 -1.36708 -0.784132 0
M  V30 4882 C 445.856 -1.31533 -1.91838 0
M  V30 4883 C 446.85 -0.206205 -1.6814 0
M  V30 4884 O 448.056 -0.373519 -1.76082 0
M  V30 4885 H 444.431 -0.409613 -0.630651 0
M  V30 4886 H 446.402 -2.2731 -1.9332 0
M  V30 4887 C 445.151 -1.12679 -3.28936 0
M  V30 4888 H 444.474 -1.97274 -3.4774 0
M  V30 4889 H 445.914 -1.13106 -4.08636 0
M  V30 4890 C 444.373 0.168281 -3.36479 0
M  V30 4891 O 444.903 1.15625 -3.84699 0
M  V30 4892 N 443.109 0.214762 -2.89805 0
M  V30 4893 H 442.656 -0.589852 -2.50756 0
M  V30 4894 H 442.614 1.08094 -2.95234 0
M  V30 4895 N 446.386 1.0089 -1.21074 0
M  V30 4896 C 447.316 2.1145 -0.990523 0
M  V30 4897 C 448.297 1.69897 0.0831699 0
M  V30 4898 O 449.482 1.94052 -0.0758853 0
M  V30 4899 C 446.612 3.42914 -0.550177 0
M  V30 4900 C 445.566 3.98244 -1.56799 0
M  V30 4901 C 444.892 5.25568 -0.984013 0
M  V30 4902 C 446.192 4.30752 -2.95381 0
M  V30 4903 H 447.886 2.3013 -1.91521 0
M  V30 4904 H 445.432 1.10592 -0.92225 0
M  V30 4905 H 447.385 4.19653 -0.383305 0
M  V30 4906 H 446.109 3.24014 0.41015 0
M  V30 4907 H 444.768 3.23621 -1.72236 0
M  V30 4908 H 444.416 5.02998 -0.0155216 0
M  V30 4909 H 444.116 5.63551 -1.66384 0
M  V30 4910 H 445.64 6.04955 -0.828378 0
M  V30 4911 H 447.054 4.98349 -2.8341 0
M  V30 4912 H 445.451 4.79869 -3.60341 0
M  V30 4913 H 446.521 3.39192 -3.46521 0
M  V30 4914 N 447.864 1.01787 1.20321 0
M  V30 4915 C 448.774 0.598898 2.26827 0
M  V30 4916 C 449.79 -0.36418 1.70146 0
M  V30 4917 O 450.966 -0.224812 2.00141 0
M  V30 4918 C 448.031 -0.0549769 3.46656 0
M  V30 4919 C 447.092 0.954205 4.18561 0
M  V30 4920 C 446.325 0.331439 5.3267 0
M  V30 4921 O 446.548 -0.86851 5.63749 0
M  V30 4922 O 445.482 1.0488 5.92692 0
M  V30 4923 H 449.308 1.48562 2.64883 0
M  V30 4924 H 446.893 0.787434 1.26964 0
M  V30 4925 H 448.775 -0.420102 4.19301 0
M  V30 4926 H 447.45 -0.915876 3.10473 0
M  V30 4927 H 446.357 1.37072 3.48083 0
M  V30 4928 H 447.69 1.78511 4.58688 0
M  V30 4929 N 449.342 -1.36122 0.79427 0
M  V30 4930 C 450.29 -2.31871 0.184023 0
M  V30 4931 C 451.284 -1.56041 -0.659365 0
M  V30 4932 O 452.49 -1.71266 -0.553906 0
M  V30 4933 H 448.865 -0.750896 0.0407373 0
M  V30 4934 H 450.836 -2.80898 1.00693 0
M  V30 4935 C 449.585 -3.41324 -0.662813 0
M  V30 4936 H 448.908 -3.99793 -0.0231944 0
M  V30 4937 H 450.348 -4.10629 -1.05639 0
M  V30 4938 C 448.807 -2.83308 -1.82313 0
M  V30 4939 O 449.337 -2.75863 -2.91997 0
M  V30 4940 N 447.543 -2.40529 -1.63077 0
M  V30 4941 H 447.09 -2.46785 -0.738591 0
M  V30 4942 H 447.048 -2.02059 -2.40872 0
M  V30 4943 N 450.82 -0.546701 -1.47814 0
M  V30 4944 C 452.067 -0.0187407 -2.02491 0
M  V30 4945 C 452.395 1.32685 -1.42215 0
M  V30 4946 O 451.65 1.87413 -0.563454 0
M  V30 4947 C 451.949 0.134869 -3.57145 0
M  V30 4948 C 451.615 -1.13849 -4.3629 0
M  V30 4949 C 450.277 -1.48743 -4.57634 0
M  V30 4950 C 452.629 -1.98277 -4.82012 0
M  V30 4951 C 449.957 -2.67932 -5.21948 0
M  V30 4952 C 452.309 -3.16659 -5.4764 0
M  V30 4953 C 450.973 -3.51879 -5.67219 0
M  V30 4954 H 450.243 -0.0068577 -0.740968 0
M  V30 4955 H 452.89 -0.716097 -1.77607 0
M  V30 4956 H 451.195 0.915118 -3.80963 0
M  V30 4957 H 452.892 0.558556 -3.97091 0
M  V30 4958 H 449.482 -0.856767 -4.19949 0
M  V30 4959 H 453.666 -1.72628 -4.6531 0
M  V30 4960 H 448.922 -2.95401 -5.35302 0
M  V30 4961 H 453.096 -3.82374 -5.82033 0
M  V30 4962 H 450.723 -4.44331 -6.16825 0
M  V30 4963 N 452.299 1.55045 -0.282633 0
M  V30 4964 C 453.715 1.59441 0.0712997 0
M  V30 4965 C 453.915 1.2998 1.53972 0
M  V30 4966 O 452.971 1.06431 2.28973 0
M  V30 4967 C 454.284 2.99097 -0.310104 0
M  V30 4968 C 455.832 3.1194 -0.257343 0
M  V30 4969 C 456.307 4.53875 -0.613297 0
M  V30 4970 N 457.798 4.5974 -0.565134 0
M  V30 4971 C 458.533 5.67603 -0.81326 0
M  V30 4972 N 458.029 6.83582 -1.1264 0
M  V30 4973 N 459.822 5.57187 -0.741553 0
M  V30 4974 H 451.973 1.72458 -1.23984 0
M  V30 4975 H 454.236 0.804549 -0.501403 0
M  V30 4976 H 453.942 3.25516 -1.33163 0
M  V30 4977 H 453.816 3.75616 0.345366 0
M  V30 4978 H 456.203 2.85281 0.754905 0
M  V30 4979 H 456.284 2.37618 -0.947178 0
M  V30 4980 H 455.928 4.81261 -1.62327 0
M  V30 4981 H 455.858 5.26508 0.09841 0
M  V30 4982 H 458.349 3.76427 -0.333294 0
M  V30 4983 H 458.662 7.6175 -1.30219 0
M  V30 4984 H 457.007 6.85179 -1.16425 0
M  V30 4985 H 460.198 4.65457 -0.496705 0
M  V30 4986 H 460.371 6.41171 -0.938306 0
M  V30 4987 N 453.777 0.010035 1.57597 0
M  V30 4988 C 454.724 -0.978122 2.09049 0
M  V30 4989 C 455.694 -1.33509 0.988159 0
M  V30 4990 O 456.879 -1.43172 1.26121 0
M  V30 4991 C 454.019 -2.26158 2.60666 0
M  V30 4992 C 453.132 -1.96275 3.84838 0
M  V30 4993 C 452.267 -3.18776 4.24918 0
M  V30 4994 C 451.306 -2.84625 5.41899 0
M  V30 4995 N 450.443 -3.99693 5.77226 0
M  V30 4996 H 455.283 -0.532431 2.93205 0
M  V30 4997 H 452.82 -0.251234 1.44939 0
M  V30 4998 H 454.778 -3.01202 2.88675 0
M  V30 4999 H 453.408 -2.68378 1.79369 0
M  V30 5000 H 452.46 -1.11555 3.63675 0
M  V30 5001 H 453.772 -1.67111 4.69974 0
M  V30 5002 H 452.926 -4.02157 4.54262 0
M  V30 5003 H 451.665 -3.51087 3.38511 0
M  V30 5004 H 450.67 -1.99653 5.12268 0
M  V30 5005 H 451.895 -2.53551 6.29991 0
M  V30 5006 H 449.841 -4.31882 4.93776 0
M  V30 5007 H 449.758 -3.74087 6.56959 0
M  V30 5008 H 451.026 -4.83834 6.11167 0
M  V30 5009 N 455.255 -1.55392 -0.262866 0
M  V30 5010 C 456.187 -1.85392 -1.34768 0
M  V30 5011 C 457.2 -0.739069 -1.45057 0
M  V30 5012 O 458.389 -1.01703 -1.46693 0
M  V30 5013 C 455.489 -2.01088 -2.72795 0
M  V30 5014 C 454.662 -3.31828 -2.84972 0
M  V30 5015 C 453.721 -3.37464 -4.03738 0
M  V30 5016 O 452.747 -4.10778 -3.94018 0
M  V30 5017 N 453.949 -2.65599 -5.16176 0
M  V30 5018 H 456.714 -2.79029 -1.09375 0
M  V30 5019 H 454.275 -1.55434 -0.452981 0
M  V30 5020 H 456.267 -2.02217 -3.50557 0
M  V30 5021 H 454.837 -1.1427 -2.90966 0
M  V30 5022 H 454.057 -3.43152 -1.94012 0
M  V30 5023 H 455.345 -4.18032 -2.90045 0
M  V30 5024 H 454.743 -2.05736 -5.26962 0
M  V30 5025 H 453.3 -2.72439 -5.92132 0
M  V30 5026 N 456.733 0.527833 -1.48498 0
M  V30 5027 C 457.963 1.30633 -1.60058 0
M  V30 5028 C 458.371 1.87394 -0.260786 0
M  V30 5029 O 457.714 1.67227 0.760317 0
M  V30 5030 C 457.776 2.49361 -2.58958 0
M  V30 5031 C 457.44 2.13671 -4.03972 0
M  V30 5032 C 458.437 1.69217 -4.91591 0
M  V30 5033 C 456.122 2.24129 -4.49524 0
M  V30 5034 C 458.116 1.35689 -6.2279 0
M  V30 5035 C 455.803 1.90212 -5.80743 0
M  V30 5036 C 456.801 1.46063 -6.67199 0
M  V30 5037 O 456.489 1.12593 -7.95976 0
M  V30 5038 H 456.221 0.403444 -0.54241 0
M  V30 5039 H 458.775 0.643233 -1.95068 0
M  V30 5040 H 457.005 3.18659 -2.19073 0
M  V30 5041 H 458.694 3.11421 -2.6033 0
M  V30 5042 H 459.46 1.60607 -4.57636 0
M  V30 5043 H 455.339 2.57447 -3.82416 0
M  V30 5044 H 458.883 1.01157 -6.90227 0
M  V30 5045 H 454.78 1.98464 -6.14233 0
M  V30 5046 H 455.548 1.25972 -8.08748 0
M  V30 5047 N 458.211 1.37122 0.776871 0
M  V30 5048 C 459.457 1.32243 1.53752 0
M  V30 5049 C 459.79 -0.0944745 1.9397 0
M  V30 5050 O 459.065 -1.05068 1.6368 0
M  V30 5051 C 459.348 2.25681 2.80607 0
M  V30 5052 C 459.201 3.76127 2.46676 0
M  V30 5053 C 460.52 2.17657 3.82509 0
M  V30 5054 H 457.639 0.481704 0.557791 0
M  V30 5055 H 460.281 1.6778 0.891612 0
M  V30 5056 H 458.431 1.95505 3.35723 0
M  V30 5057 H 460.103 4.16877 1.97513 0
M  V30 5058 H 458.346 3.94946 1.79443 0
M  V30 5059 H 459.017 4.36933 3.37333 0
M  V30 5060 H 461.493 2.44245 3.36873 0
M  V30 5061 H 460.369 2.85185 4.69 0
M  V30 5062 H 460.63 1.16785 4.26396 0
M  V30 5063 N 459.689 -1.00246 1.21608 0
M  V30 5064 C 461.105 -1.26435 0.973975 0
M  V30 5065 C 461.305 -1.98642 -0.338143 0
M  V30 5066 O 460.361 -2.29026 -1.06317 0
M  V30 5067 C 461.674 -2.08551 2.16626 0
M  V30 5068 C 463.222 -2.21769 2.20879 0
M  V30 5069 C 463.697 -3.07267 3.39633 0
M  V30 5070 N 465.188 -3.14855 3.39736 0
M  V30 5071 C 465.923 -3.81274 4.28273 0
M  V30 5072 N 465.419 -4.497 5.27012 0
M  V30 5073 N 467.212 -3.7794 4.16074 0
M  V30 5074 H 459.363 -0.518089 2.05984 0
M  V30 5075 H 461.626 -0.291368 0.902113 0
M  V30 5076 H 461.332 -1.62847 3.11727 0
M  V30 5077 H 461.206 -3.09303 2.15897 0
M  V30 5078 H 463.593 -2.66691 1.26332 0
M  V30 5079 H 463.674 -1.20478 2.25652 0
M  V30 5080 H 463.318 -2.63047 4.34475 0
M  V30 5081 H 463.248 -4.08678 3.321 0
M  V30 5082 H 465.739 -2.66147 2.6828 0
M  V30 5083 H 466.052 -4.98092 5.90867 0
M  V30 5084 H 464.397 -4.48479 5.30935 0
M  V30 5085 H 467.588 -3.23638 3.38195 0
M  V30 5086 H 467.761 -4.29424 4.85282 0
M  V30 5087 N 461.167 -1.02423 -1.1978 0
M  V30 5088 C 462.583 -0.740459 -1.41384 0
M  V30 5089 C 462.783 0.676827 -1.89793 0
M  V30 5090 O 461.839 1.4435 -2.0717 0
M  V30 5091 C 463.152 -1.77264 -2.42895 0
M  V30 5092 C 464.7 -1.79165 -2.56649 0
M  V30 5093 C 465.175 -2.8133 -3.6141 0
M  V30 5094 N 466.666 -2.80118 -3.68901 0
M  V30 5095 C 467.401 -3.55824 -4.49641 0
M  V30 5096 N 466.897 -4.41231 -5.34123 0
M  V30 5097 N 468.69 -3.44387 -4.44246 0
M  V30 5098 H 460.841 -1.9391 -0.866764 0
M  V30 5099 H 463.104 -0.838074 -0.443098 0
M  V30 5100 H 462.81 -2.7884 -2.14339 0
M  V30 5101 H 462.684 -1.59108 -3.42001 0
M  V30 5102 H 465.071 -0.782702 -2.84531 0
M  V30 5103 H 465.152 -2.01396 -1.57713 0
M  V30 5104 H 464.796 -3.82394 -3.34271 0
M  V30 5105 H 464.726 -2.56359 -4.59986 0
M  V30 5106 H 467.217 -2.1817 -3.08562 0
M  V30 5107 H 467.53 -4.95747 -5.92836 0
M  V30 5108 H 465.875 -4.45306 -5.33599 0
M  V30 5109 H 469.066 -2.7708 -3.77285 0
M  V30 5110 H 469.239 -4.0364 -5.06931 0
M  V30 5111 N 462.645 1.35699 -0.801477 0
M  V30 5112 C 464.061 1.52065 -0.484596 0
M  V30 5113 C 464.261 1.75215 0.995084 0
M  V30 5114 O 463.317 1.79061 1.78026 0
M  V30 5115 C 464.63 2.69908 -1.32552 0
M  V30 5116 C 466.178 2.83784 -1.32044 0
M  V30 5117 C 466.653 4.04646 -2.14536 0
M  V30 5118 N 468.144 4.11814 -2.12046 0
M  V30 5119 C 468.879 5.04437 -2.72636 0
M  V30 5120 N 468.375 6.02426 -3.42133 0
M  V30 5121 N 470.168 4.97144 -2.62305 0
M  V30 5122 H 462.319 1.18928 -1.75983 0
M  V30 5123 H 464.582 0.581455 -0.748741 0
M  V30 5124 H 464.288 2.59363 -2.37537 0
M  V30 5125 H 464.162 3.64376 -0.975181 0
M  V30 5126 H 466.549 2.93783 -0.27846 0
M  V30 5127 H 466.63 1.90188 -1.71062 0
M  V30 5128 H 466.274 3.95407 -3.18772 0
M  V30 5129 H 466.204 4.97413 -1.72882 0
M  V30 5130 H 468.695 3.41664 -1.61476 0
M  V30 5131 H 469.008 6.69688 -3.85666 0
M  V30 5132 H 467.353 6.02615 -3.46237 0
M  V30 5133 H 470.544 4.19546 -2.07603 0
M  V30 5134 H 470.717 5.69138 -3.09815 0
M  V30 5135 N 464.123 0.554532 1.47522 0
M  V30 5136 C 465.369 0.0377449 2.03365 0
M  V30 5137 C 465.724 -1.29654 1.42154 0
M  V30 5138 O 465.017 -1.83022 0.566865 0
M  V30 5139 C 465.211 -0.115927 3.57212 0
M  V30 5140 C 465.04 1.20191 4.33341 0
M  V30 5141 C 463.81 1.76849 4.73342 0
M  V30 5142 C 466.008 2.11849 4.68641 0
M  V30 5143 N 463.99 3.02665 5.34104 0
M  V30 5144 C 465.361 3.22245 5.29677 0
M  V30 5145 C 467.416 2.11876 4.5057 0
M  V30 5146 C 466.119 4.32763 5.74551 0
M  V30 5147 C 468.145 3.21405 4.9644 0
M  V30 5148 C 467.507 4.30519 5.57523 0
M  V30 5149 H 463.606 0.0559107 0.779999 0
M  V30 5150 H 466.19 0.741232 1.80038 0
M  V30 5151 H 464.361 -0.788533 3.80311 0
M  V30 5152 H 466.093 -0.634538 3.99695 0
M  V30 5153 H 462.848 1.30681 4.55214 0
M  V30 5154 H 463.272 3.66788 5.69031 0
M  V30 5155 H 467.914 1.28801 4.02704 0
M  V30 5156 H 465.632 5.166 6.2141 0
M  V30 5157 H 469.218 3.22509 4.8423 0
M  V30 5158 H 468.098 5.13873 5.92371 0
M  V30 5159 N 465.601 -1.54893 0.290851 0
M  V30 5160 C 466.548 -2.23138 -0.58974 0
M  V30 5161 C 467.518 -1.21036 -1.13752 0
M  V30 5162 O 468.703 -1.49626 -1.18392 0
M  V30 5163 C 465.843 -2.96811 -1.76061 0
M  V30 5164 C 464.956 -4.13665 -1.24519 0
M  V30 5165 C 464.091 -4.74944 -2.3791 0
M  V30 5166 C 463.13 -5.83963 -1.83451 0
M  V30 5167 N 462.267 -6.39239 -2.90376 0
M  V30 5168 H 467.107 -2.98 -0.00114915 0
M  V30 5169 H 464.644 -1.47096 0.0112006 0
M  V30 5170 H 466.602 -3.37751 -2.44909 0
M  V30 5171 H 465.232 -2.24344 -2.32098 0
M  V30 5172 H 464.284 -3.77737 -0.449288 0
M  V30 5173 H 465.596 -4.92238 -0.806424 0
M  V30 5174 H 464.75 -5.18684 -3.14724 0
M  V30 5175 H 463.489 -3.95682 -2.85109 0
M  V30 5176 H 462.494 -5.39657 -1.05122 0
M  V30 5177 H 463.719 -6.65103 -1.37169 0
M  V30 5178 H 461.665 -5.62864 -3.36927 0
M  V30 5179 H 461.582 -7.13129 -2.50965 0
M  V30 5180 H 462.85 -6.87637 -3.67118 0
M  V30 5181 N 467.08 -0.0183926 -1.57589 0
M  V30 5182 C 468.01 0.965596 -2.12599 0
M  V30 5183 C 468.991 1.34641 -1.0395 0
M  V30 5184 O 470.176 1.42693 -1.31729 0
M  V30 5185 C 467.306 2.25149 -2.64434 0
M  V30 5186 C 466.26 2.01175 -3.77773 0
M  V30 5187 C 465.586 3.35937 -4.15994 0
M  V30 5188 C 466.886 1.35953 -5.04296 0
M  V30 5189 H 468.58 0.507504 -2.95067 0
M  V30 5190 H 466.126 0.242671 -1.41941 0
M  V30 5191 H 468.079 2.94357 -3.01549 0
M  V30 5192 H 466.803 2.73105 -1.79112 0
M  V30 5193 H 465.462 1.34388 -3.4108 0
M  V30 5194 H 465.11 3.81631 -3.27669 0
M  V30 5195 H 464.81 3.20705 -4.92364 0
M  V30 5196 H 466.334 4.0643 -4.55683 0
M  V30 5197 H 467.748 1.95144 -5.39065 0
M  V30 5198 H 466.145 1.31152 -5.85593 0
M  V30 5199 H 467.215 0.331071 -4.83768 0
M  V30 5200 N 468.558 1.5553 0.254621 0
M  V30 5201 C 469.783 1.81383 1.00573 0
M  V30 5202 C 470.208 0.594419 1.78461 0
M  V30 5203 O 469.566 -0.456403 1.75461 0
M  V30 5204 C 469.614 3.04892 1.92545 0
M  V30 5205 O 468.718 2.81266 3.01601 0
M  V30 5206 H 468.059 0.598969 0.286587 0
M  V30 5207 H 470.589 2.02703 0.277952 0
M  V30 5208 H 470.599 3.34119 2.34155 0
M  V30 5209 H 469.274 3.93287 1.3527 0
M  V30 5210 H 467.851 2.63185 2.64174 0
M  V30 5211 N 470.036 -0.519951 1.48776 0
M  V30 5212 C 471.283 -1.27522 1.57303 0
M  V30 5213 C 471.611 -1.92869 0.251328 0
M  V30 5214 O 470.866 -1.80372 -0.759243 0
M  V30 5215 C 471.165 -2.37864 2.6675 0
M  V30 5216 C 470.831 -1.90103 4.08867 0
M  V30 5217 C 469.493 -1.76795 4.47546 0
M  V30 5218 C 471.845 -1.54133 4.97888 0
M  V30 5219 C 469.173 -1.25868 5.73039 0
M  V30 5220 C 471.525 -1.04665 6.23881 0
M  V30 5221 C 470.189 -0.899823 6.61407 0
M  V30 5222 H 469.459 -0.466636 0.575614 0
M  V30 5223 H 472.106 -0.579109 1.82534 0
M  V30 5224 H 470.411 -3.13186 2.35418 0
M  V30 5225 H 472.108 -2.95969 2.70561 0
M  V30 5226 H 468.698 -2.01414 3.78326 0
M  V30 5227 H 472.882 -1.6327 4.68675 0
M  V30 5228 H 468.138 -1.13196 6.0083 0
M  V30 5229 H 472.312 -0.759074 6.92251 0
M  V30 5230 H 469.939 -0.503011 7.58534 0
M  V30 5231 N 471.514 -1.37532 -0.769588 0
M  V30 5232 C 472.739 -1.36231 -1.56384 0
M  V30 5233 C 473.164 0.0495849 -1.88035 0
M  V30 5234 O 472.522 1.02723 -1.49391 0
M  V30 5235 C 472.57 -2.20986 -2.84952 0
M  V30 5236 O 471.674 -1.61597 -3.79421 0
M  V30 5237 H 471.015 -0.465387 -0.473615 0
M  V30 5238 H 473.545 -1.81085 -0.952342 0
M  V30 5239 H 473.555 -2.34277 -3.34034 0
M  V30 5240 H 472.23 -3.23612 -2.61243 0
M  V30 5241 H 470.807 -1.57359 -3.38072 0
M  V30 5242 N 472.992 0.995999 -1.22138 0
M  V30 5243 C 474.241 1.72928 -1.03821 0
M  V30 5244 C 474.554 1.90872 0.427444 0
M  V30 5245 O 475.76 2.61496 0.730212 0
M  V30 5246 C 474.216 3.11124 -1.80913 0
M  V30 5247 C 473.824 3.01122 -3.31707 0
M  V30 5248 C 475.568 3.8852 -1.71035 0
M  V30 5249 C 473.475 4.34453 -4.01253 0
M  V30 5250 H 472.405 0.648376 -0.384869 0
M  V30 5251 H 475.056 1.11213 -1.45959 0
M  V30 5252 H 473.438 3.73503 -1.31573 0
M  V30 5253 H 474.612 2.47926 -3.88419 0
M  V30 5254 H 472.927 2.3721 -3.42228 0
M  V30 5255 H 475.524 4.872 -2.20318 0
M  V30 5256 H 475.867 4.1087 -0.670196 0
M  V30 5257 H 476.4 3.32812 -2.17902 0
M  V30 5258 H 473.139 4.17303 -5.05508 0
M  V30 5259 H 472.659 4.87574 -3.49331 0
M  V30 5260 H 474.338 5.03215 -4.06674 0
M  V30 5261 N 474.47 1.03057 1.19235 0
M  V30 5262 C 475.716 0.729098 1.89241 0
M  V30 5263 C 476.049 -0.740573 1.79525 0
M  V30 5264 O 475.324 -1.53946 1.18874 0
M  V30 5265 C 475.607 1.18304 3.40112 0
M  V30 5266 C 475.46 2.71406 3.5869 0
M  V30 5267 C 476.779 0.765161 4.33397 0
M  V30 5268 H 473.898 0.266338 0.687192 0
M  V30 5269 H 476.54 1.28079 1.40341 0
M  V30 5270 H 474.69 0.713672 3.81889 0
M  V30 5271 H 476.362 3.26303 3.26074 0
M  V30 5272 H 474.605 3.11717 3.01687 0
M  V30 5273 H 475.276 2.98225 4.64506 0
M  V30 5274 H 477.752 1.16889 3.99345 0
M  V30 5275 H 476.628 1.11065 5.37546 0
M  V30 5276 H 476.889 -0.332372 4.40849 0
M  V30 5277 N 475.948 -1.35272 0.808662 0
M  V30 5278 C 477.173 -2.03477 0.401475 0
M  V30 5279 C 477.598 -1.60537 -0.980279 0
M  V30 5280 O 476.956 -0.78304 -1.63518 0
M  V30 5281 C 477.004 -3.57181 0.495354 0
M  V30 5282 O 476.108 -4.09474 -0.490397 0
M  V30 5283 H 475.449 -0.642561 0.167366 0
M  V30 5284 H 477.979 -1.72824 1.09512 0
M  V30 5285 H 477.989 -4.06356 0.365912 0
M  V30 5286 H 476.664 -3.87784 1.5032 0
M  V30 5287 H 475.241 -3.71516 -0.321023 0
M  V30 5288 N 477.426 -0.562348 -1.47226 0
M  V30 5289 C 478.356 0.170627 -2.32876 0
M  V30 5290 C 479.337 0.903748 -1.44106 0
M  V30 5291 O 480.522 0.883206 -1.72954 0
M  V30 5292 C 477.652 1.19786 -3.25989 0
M  V30 5293 C 476.606 0.580875 -4.2404 0
M  V30 5294 C 475.932 1.71311 -5.06514 0
M  V30 5295 C 477.232 -0.468714 -5.20193 0
M  V30 5296 H 478.926 -0.544441 -2.94408 0
M  V30 5297 H 476.472 -0.263271 -1.41573 0
M  V30 5298 H 478.425 1.71884 -3.84752 0
M  V30 5299 H 477.149 1.94294 -2.62521 0
M  V30 5300 H 475.808 0.0811538 -3.6651 0
M  V30 5301 H 475.456 2.44736 -4.39447 0
M  V30 5302 H 475.156 1.30604 -5.72902 0
M  V30 5303 H 476.68 2.23725 -5.68137 0
M  V30 5304 H 478.094 -0.0336028 -5.7329 0
M  V30 5305 H 476.491 -0.794957 -5.94811 0
M  V30 5306 H 477.561 -1.36269 -4.65359 0
M  V30 5307 N 478.904 1.54736 -0.299062 0
M  V30 5308 C 480.144 2.0201 0.31168 0
M  V30 5309 C 480.508 1.18281 1.5124 0
M  V30 5310 O 481.709 1.55243 2.19438 0
M  V30 5311 C 479.98 3.5123 0.661227 0
M  V30 5312 S 481.539 4.20467 1.2551 0
M  V30 5313 H 478.357 0.704523 0.0957517 0
M  V30 5314 H 480.959 1.90791 -0.426482 0
M  V30 5315 H 479.663 4.09804 -0.221171 0
M  V30 5316 H 479.194 3.66481 1.43023 0
M  V30 5317 H 481.209 4.26083 2.54298 0
M  V30 5318 N 480.382 0.0267497 1.57577 0
M  V30 5319 C 481.33 -0.973923 2.11229 0
M  V30 5320 C 482.324 -1.33849 1.03831 0
M  V30 5321 O 483.53 -1.321 1.22269 0
M  V30 5322 H 479.905 -0.331844 0.674821 0
M  V30 5323 H 481.876 -0.496092 2.94247 0
M  V30 5324 C 480.625 -2.24798 2.65257 0
M  V30 5325 H 479.948 -1.9762 3.47543 0
M  V30 5326 H 481.388 -2.93031 3.06445 0
M  V30 5327 C 479.847 -2.97611 1.57891 0
M  V30 5328 O 480.377 -3.89629 0.97735 0
M  V30 5329 N 478.583 -2.59905 1.29992 0
M  V30 5330 H 478.13 -1.85154 1.79097 0
M  V30 5331 H 478.088 -3.08932 0.583798 0
M  V30 5332 N 481.861 -1.55662 -0.24637 0
M  V30 5333 C 482.811 -1.86753 -1.30795 0
M  V30 5334 C 483.795 -0.728445 -1.43466 0
M  V30 5335 O 484.987 -0.99038 -1.46699 0
M  V30 5336 C 482.116 -2.16618 -2.66329 0
M  V30 5337 C 481.202 -3.36855 -2.57661 0
M  V30 5338 N 481.593 -4.56111 -2.18624 0
M  V30 5339 C 479.891 -3.39976 -2.88673 0
M  V30 5340 C 480.592 -5.38247 -2.20601 0
M  V30 5341 N 479.568 -4.77322 -2.60124 0
M  V30 5342 H 483.37 -2.76486 -0.996642 0
M  V30 5343 H 480.884 -1.55896 -0.454994 0
M  V30 5344 H 482.881 -2.37057 -3.42942 0
M  V30 5345 H 481.541 -1.28185 -2.98327 0
M  V30 5346 H 482.552 -4.81726 -1.9016 0
M  V30 5347 H 479.229 -2.61815 -3.25206 0
M  V30 5348 H 480.619 -6.43657 -1.92756 0
M  V30 5349 N 483.339 0.512053 -1.4905 0
M  V30 5350 C 484.269 1.62365 -1.67809 0
M  V30 5351 C 485.25 1.61737 -0.526809 0
M  V30 5352 O 486.435 1.78651 -0.761404 0
M  V30 5353 C 483.565 3.00895 -1.73435 0
M  V30 5354 C 482.519 3.16387 -2.88242 0
M  V30 5355 C 481.845 4.56157 -2.78971 0
M  V30 5356 C 483.145 2.97457 -4.29321 0
M  V30 5357 H 484.839 1.46921 -2.60873 0
M  V30 5358 H 482.385 0.705379 -1.2554 0
M  V30 5359 H 484.338 3.78549 -1.85145 0
M  V30 5360 H 483.062 3.17403 -0.769619 0
M  V30 5361 H 481.721 2.41155 -2.76116 0
M  V30 5362 H 481.369 4.69525 -1.8043 0
M  V30 5363 H 481.069 4.67465 -3.5602 0
M  V30 5364 H 482.593 5.35886 -2.92675 0
M  V30 5365 H 484.007 3.64888 -4.42187 0
M  V30 5366 H 482.404 3.20245 -5.07507 0
M  V30 5367 H 483.474 1.93692 -4.44535 0
M  V30 5368 N 484.817 1.37938 0.762283 0
M  V30 5369 C 486.045 1.36883 1.55147 0
M  V30 5370 C 486.46 -0.0435348 1.8875 0
M  V30 5371 O 485.817 -1.00786 1.52146 0
M  V30 5372 C 485.868 2.21624 2.85596 0
M  V30 5373 O 485.589 3.57358 2.5343 0
M  V30 5374 C 487.09 2.28653 3.7978 0
M  V30 5375 H 484.31 0.468521 0.480343 0
M  V30 5376 H 486.854 1.81404 0.944079 0
M  V30 5377 H 485.009 1.80588 3.42734 0
M  V30 5378 H 485.423 4.01883 3.37032 0
M  V30 5379 H 486.897 2.9225 4.68288 0
M  V30 5380 H 487.374 1.29767 4.19592 0
M  V30 5381 H 487.98 2.70043 3.28568 0
M  V30 5382 N 486.295 -0.989507 1.22664 0
M  V30 5383 C 487.711 -1.25395 0.987331 0
M  V30 5384 C 487.911 -1.9899 -0.317056 0
M  V30 5385 O 486.967 -2.30141 -1.03882 0
M  V30 5386 C 488.28 -2.06242 2.18826 0
M  V30 5387 C 489.828 -2.19413 2.23219 0
M  V30 5388 C 490.303 -3.03648 3.42873 0
M  V30 5389 N 491.794 -3.11234 3.43056 0
M  V30 5390 C 492.529 -3.7671 4.32293 0
M  V30 5391 N 492.025 -4.44085 5.31752 0
M  V30 5392 N 493.818 -3.73505 4.2006 0
M  V30 5393 H 485.969 -0.496212 2.06522 0
M  V30 5394 H 488.232 -0.281784 0.905153 0
M  V30 5395 H 487.938 -1.59531 3.13437 0
M  V30 5396 H 487.812 -3.06996 2.19165 0
M  V30 5397 H 490.199 -2.65336 1.29154 0
M  V30 5398 H 490.28 -1.18078 2.26917 0
M  V30 5399 H 489.924 -2.58424 4.37241 0
M  V30 5400 H 489.854 -4.05132 3.36416 0
M  V30 5401 H 492.345 -2.63287 2.71088 0
M  V30 5402 H 492.658 -4.91797 5.96117 0
M  V30 5403 H 491.003 -4.42822 5.35662 0
M  V30 5404 H 494.194 -3.20033 3.41609 0
M  V30 5405 H 494.367 -4.24253 4.8981 0
M  V30 5406 N 487.773 -1.03688 -1.18687 0
M  V30 5407 C 488.998 -0.757819 -1.93059 0
M  V30 5408 C 489.423 0.678353 -1.75442 0
M  V30 5409 O 488.781 1.46938 -1.06203 0
M  V30 5410 C 488.829 -1.12423 -3.42627 0
M  V30 5411 O 487.933 -0.247505 -4.11657 0
M  V30 5412 H 487.274 -0.279245 -0.602427 0
M  V30 5413 H 489.804 -1.3857 -1.5053 0
M  V30 5414 H 489.814 -1.08454 -3.93322 0
M  V30 5415 H 488.489 -2.17049 -3.54771 0
M  V30 5416 H 487.066 -0.34649 -3.71287 0
M  V30 5417 N 489.251 1.34841 -0.815825 0
M  V30 5418 C 490.181 2.32187 -0.247298 0
M  V30 5419 C 491.162 1.5791 0.632344 0
M  V30 5420 O 492.347 1.8593 0.560698 0
M  V30 5421 C 489.477 3.42122 0.597466 0
M  V30 5422 C 488.431 4.27602 -0.184446 0
M  V30 5423 C 487.757 5.28942 0.782609 0
M  V30 5424 C 489.057 5.03502 -1.38865 0
M  V30 5425 H 490.751 2.79985 -1.06061 0
M  V30 5426 H 488.297 1.34611 -0.511461 0
M  V30 5427 H 490.25 4.09232 1.00533 0
M  V30 5428 H 488.974 2.92956 1.44376 0
M  V30 5429 H 487.633 3.62085 -0.573592 0
M  V30 5430 H 487.281 4.7604 1.62466 0
M  V30 5431 H 486.981 5.87008 0.263695 0
M  V30 5432 H 488.505 5.98922 1.18848 0
M  V30 5433 H 489.919 5.63506 -1.05518 0
M  V30 5434 H 488.316 5.71108 -1.8427 0
M  V30 5435 H 489.386 4.33608 -2.17054 0
M  V30 5436 N 490.729 0.570148 1.46925 0
M  V30 5437 C 491.662 -0.218362 2.27153 0
M  V30 5438 C 492.64 -0.90847 1.34854 0
M  V30 5439 O 493.824 -0.924875 1.64251 0
M  V30 5440 C 490.951 -1.3122 3.12248 0
M  V30 5441 C 489.997 -0.729277 4.20219 0
M  V30 5442 S 490.83 0.434159 5.33737 0
M  V30 5443 C 491.986 -0.661188 6.22398 0
M  V30 5444 H 492.219 0.462393 2.93682 0
M  V30 5445 H 489.752 0.356753 1.50222 0
M  V30 5446 H 491.71 -1.93856 3.61842 0
M  V30 5447 H 490.371 -1.96485 2.45056 0
M  V30 5448 H 489.564 -1.5511 4.79538 0
M  V30 5449 H 489.166 -0.178836 3.73572 0
M  V30 5450 H 491.458 -1.55006 6.5953 0
M  V30 5451 H 492.401 -0.105046 7.08022 0
M  V30 5452 H 492.809 -0.959682 5.56283 0
M  V30 5453 N 492.207 -1.54576 0.307264 0
M  V30 5454 C 493.154 -2.23751 -0.56604 0
M  V30 5455 C 494.124 -1.22235 -1.12462 0
M  V30 5456 O 495.309 -1.50873 -1.16799 0
M  V30 5457 C 492.449 -2.98661 -1.72903 0
M  V30 5458 C 491.562 -4.14963 -1.20124 0
M  V30 5459 C 490.697 -4.77441 -2.3286 0
M  V30 5460 C 489.736 -5.85875 -1.77247 0
M  V30 5461 N 488.873 -6.42282 -2.8358 0
M  V30 5462 H 493.713 -2.97984 0.0304578 0
M  V30 5463 H 491.25 -1.47076 0.0268015 0
M  V30 5464 H 493.208 -3.40329 -2.41313 0
M  V30 5465 H 491.838 -2.26793 -2.29706 0
M  V30 5466 H 490.89 -3.78193 -0.409198 0
M  V30 5467 H 492.202 -4.93066 -0.754171 0
M  V30 5468 H 491.356 -5.21993 -3.09205 0
M  V30 5469 H 490.095 -3.98684 -2.80896 0
M  V30 5470 H 489.1 -5.40741 -0.993926 0
M  V30 5471 H 490.325 -6.6652 -1.30107 0
M  V30 5472 H 488.271 -5.66406 -3.30939 0
M  V30 5473 H 488.188 -7.1575 -2.43388 0
M  V30 5474 H 489.456 -6.91492 -3.59804 0
M  V30 5475 N 493.685 -0.035106 -1.57561 0
M  V30 5476 C 494.632 0.94474 -2.10578 0
M  V30 5477 C 495.602 1.3192 -1.00927 0
M  V30 5478 O 496.787 1.41147 -1.28382 0
M  V30 5479 C 493.927 2.21982 -2.64231 0
M  V30 5480 C 493.04 1.90128 -3.87911 0
M  V30 5481 C 492.175 3.11975 -4.29936 0
M  V30 5482 C 491.214 2.75968 -5.46359 0
M  V30 5483 N 490.351 3.90459 -5.83512 0
M  V30 5484 H 495.191 0.485717 -2.94015 0
M  V30 5485 H 492.728 0.228143 -1.4532 0
M  V30 5486 H 494.686 2.96572 -2.9343 0
M  V30 5487 H 493.316 2.6549 -1.83616 0
M  V30 5488 H 492.368 1.05755 -3.65404 0
M  V30 5489 H 493.68 1.59613 -4.72573 0
M  V30 5490 H 492.834 3.9488 -4.60603 0
M  V30 5491 H 491.573 3.45657 -3.44053 0
M  V30 5492 H 490.578 1.91478 -5.1538 0
M  V30 5493 H 491.803 2.43497 -6.33945 0
M  V30 5494 H 489.749 4.23971 -5.00584 0
M  V30 5495 H 489.666 3.63588 -6.62827 0
M  V30 5496 H 490.934 4.7405 -6.18787 0
M  V30 5497 N 495.163 1.55791 0.238111 0
M  V30 5498 C 496.409 1.78297 0.966337 0
M  V30 5499 C 496.742 0.601903 1.84637 0
M  V30 5500 O 496.017 -0.399499 1.90353 0
M  V30 5501 C 496.3 3.10758 1.81939 0
M  V30 5502 C 496.153 4.39283 0.966958 0
M  V30 5503 C 497.472 3.39519 2.80027 0
M  V30 5504 H 494.591 0.648654 0.349882 0
M  V30 5505 H 497.233 1.88525 0.236253 0
M  V30 5506 H 495.383 3.02168 2.44185 0
M  V30 5507 H 497.055 4.59873 0.362514 0
M  V30 5508 H 495.298 4.32948 0.271669 0
M  V30 5509 H 495.969 5.28368 1.59784 0
M  V30 5510 H 498.445 3.48128 2.27917 0
M  V30 5511 H 497.321 4.33402 3.36829 0
M  V30 5512 H 497.582 2.60864 3.56934 0
M  V30 5513 N 496.642 -0.504142 1.49319 0
M  V30 5514 C 497.592 -1.60284 1.62151 0
M  V30 5515 C 498.576 -1.53657 0.477315 0
M  V30 5516 O 499.768 -1.6124 0.730108 0
M  V30 5517 C 496.897 -2.98909 1.68844 0
M  V30 5518 C 495.983 -3.10544 2.8883 0
M  V30 5519 N 496.374 -2.92078 4.12946 0
M  V30 5520 C 494.672 -3.4164 2.86702 0
M  V30 5521 C 495.373 -3.07812 4.93585 0
M  V30 5522 N 494.349 -3.36549 4.26891 0
M  V30 5523 H 498.151 -1.44656 2.55835 0
M  V30 5524 H 495.665 -0.710198 1.46048 0
M  V30 5525 H 497.662 -3.77865 1.76134 0
M  V30 5526 H 496.322 -3.15609 0.762943 0
M  V30 5527 H 497.333 -2.68316 4.42975 0
M  V30 5528 H 494.01 -3.64537 2.03517 0
M  V30 5529 H 495.4 -2.98054 6.02174 0
M  V30 5530 N 498.12 -1.38341 -0.754957 0
M  V30 5531 C 499.05 -1.38176 -1.88227 0
M  V30 5532 C 500.031 -0.247873 -1.68284 0
M  V30 5533 O 501.216 -0.45075 -1.88896 0
M  V30 5534 C 498.346 -1.20471 -3.25736 0
M  V30 5535 C 497.3 -2.3105 -3.60278 0
M  V30 5536 C 496.626 -1.98452 -4.96509 0
M  V30 5537 C 497.926 -3.73305 -3.65295 0
M  V30 5538 H 499.62 -2.32512 -1.88622 0
M  V30 5539 H 497.166 -1.1192 -0.906082 0
M  V30 5540 H 499.119 -1.18982 -4.04254 0
M  V30 5541 H 497.843 -0.225965 -3.25817 0
M  V30 5542 H 496.502 -2.31723 -2.84078 0
M  V30 5543 H 496.15 -0.990641 -4.93148 0
M  V30 5544 H 495.85 -2.7251 -5.20588 0
M  V30 5545 H 497.374 -1.98578 -5.77407 0
M  V30 5546 H 498.788 -3.7467 -4.3393 0
M  V30 5547 H 497.185 -4.46557 -4.00883 0
M  V30 5548 H 498.255 -4.05719 -2.65556 0
M  V30 5549 N 499.598 0.982988 -1.23187 0
M  V30 5550 C 501.014 1.2487 -0.993967 0
M  V30 5551 C 501.214 1.99155 0.306498 0
M  V30 5552 O 500.27 2.30688 1.0266 0
M  V30 5553 C 501.583 2.05078 -2.19917 0
M  V30 5554 C 503.131 2.18227 -2.2438 0
M  V30 5555 C 503.606 3.01825 -3.44479 0
M  V30 5556 N 505.097 3.09411 -3.44702 0
M  V30 5557 C 505.832 3.74412 -4.34285 0
M  V30 5558 N 505.328 4.41259 -5.341 0
M  V30 5559 N 507.121 3.71273 -4.22035 0
M  V30 5560 H 499.272 0.485253 -2.06783 0
M  V30 5561 H 501.535 0.276979 -0.906635 0
M  V30 5562 H 501.241 1.57867 -3.14279 0
M  V30 5563 H 501.115 3.05829 -2.2079 0
M  V30 5564 H 503.502 2.64648 -1.30559 0
M  V30 5565 H 503.583 1.16873 -2.2754 0
M  V30 5566 H 503.227 2.56102 -4.38605 0
M  V30 5567 H 503.157 4.03342 -3.38559 0
M  V30 5568 H 505.648 2.61845 -2.7248 0
M  V30 5569 H 505.961 4.88629 -5.98717 0
M  V30 5570 H 504.306 4.39975 -5.38002 0
M  V30 5571 H 507.497 3.18217 -3.43301 0
M  V30 5572 H 507.67 4.21649 -4.92053 0
M  V30 5573 N 501.076 1.04316 1.18135 0
M  V30 5574 C 502.487 0.775505 1.69832 0
M  V30 5575 C 502.838 -0.703348 1.8316 0
M  V30 5576 O 501.963 -1.54729 1.51287 0
M  V30 5577 C 502.558 1.40112 3.0847 0
M  V30 5578 C 501.117 1.18172 3.57368 0
M  V30 5579 C 500.264 1.49022 2.33854 0
M  V30 5580 H 503.215 1.20925 1.02775 0
M  V30 5581 H 503.236 0.805672 3.71873 0
M  V30 5582 H 502.748 2.47744 2.98738 0
M  V30 5583 H 500.849 0.124258 3.72393 0
M  V30 5584 H 500.962 1.8805 4.40652 0
M  V30 5585 H 499.326 0.909995 2.37889 0
M  V30 5586 H 500.109 2.57768 2.26738 0
M  V30 5587 N 502.554 -1.34406 0.822964 0
M  V30 5588 C 503.831 -1.92733 0.333641 0
M  V30 5589 C 504.211 -1.75107 -1.17901 0
M  V30 5590 O 503.559 -1.12983 -1.98613 0
M  V30 5591 C 503.769 -3.40557 0.763023 0
M  V30 5592 C 505.117 -4.17709 0.761879 0
M  V30 5593 O 506.141 -3.49141 0.705606 0
M  V30 5594 O 505 -5.40082 0.835109 0
M  V30 5595 H 502.094 -0.821964 0.0911249 0
M  V30 5596 H 504.64 -1.4338 0.907757 0
M  V30 5597 H 503.412 -3.47187 1.8049 0
M  V30 5598 H 503.035 -3.97259 0.164605 0
M  V30 5599 N 504.032 -0.577932 -1.46621 0
M  V30 5600 C 504.942 0.160651 -2.34049 0
M  V30 5601 C 505.958 0.890911 -1.49462 0
M  V30 5602 O 507.134 0.855166 -1.82343 0
M  V30 5603 C 504.199 1.16447 -3.26559 0
M  V30 5604 C 503.26 0.4394 -4.27045 0
M  V30 5605 C 502.493 1.3954 -5.15135 0
M  V30 5606 O 502.716 2.63162 -5.06065 0
M  V30 5607 O 501.65 0.908585 -5.95003 0
M  V30 5608 H 505.476 -0.557057 -2.98547 0
M  V30 5609 H 503.061 -0.338369 -1.45518 0
M  V30 5610 H 504.943 1.7434 -3.83645 0
M  V30 5611 H 503.618 1.86373 -2.64663 0
M  V30 5612 H 502.525 -0.181247 -3.73661 0
M  V30 5613 H 503.858 -0.218799 -4.91713 0
M  V30 5614 N 505.51 1.54411 -0.315457 0
M  V30 5615 C 506.787 1.92562 0.343398 0
M  V30 5616 C 507.167 1.24423 1.70535 0
M  V30 5617 O 506.515 0.385051 2.25232 0
M  V30 5618 C 506.725 3.46168 0.443687 0
M  V30 5619 C 508.073 4.18659 0.707783 0
M  V30 5620 O 509.097 3.52281 0.52693 0
M  V30 5621 O 507.956 5.36198 1.05612 0
M  V30 5622 H 505.05 0.80379 0.194552 0
M  V30 5623 H 507.596 1.65738 -0.364577 0
M  V30 5624 H 506.368 3.8792 -0.513172 0
M  V30 5625 H 505.991 3.79073 1.19956 0
M  V30 5626 N 506.988 0.0434614 1.5754 0
M  V30 5627 C 507.918 -0.931651 2.14109 0
M  V30 5628 C 508.899 -1.32971 1.06079 0
M  V30 5629 O 510.084 -1.40579 1.33982 0
M  V30 5630 C 507.214 -2.20914 2.67982 0
M  V30 5631 C 506.168 -1.95139 3.80926 0
M  V30 5632 C 505.494 -3.29276 4.21285 0
M  V30 5633 C 506.794 -1.27913 5.06395 0
M  V30 5634 H 508.488 -0.460497 2.95837 0
M  V30 5635 H 506.034 -0.220058 1.42309 0
M  V30 5636 H 507.987 -2.89522 3.06194 0
M  V30 5637 H 506.711 -2.70221 1.83434 0
M  V30 5638 H 505.37 -1.28945 3.43175 0
M  V30 5639 H 505.018 -3.76369 3.33699 0
M  V30 5640 H 504.718 -3.12831 4.97404 0
M  V30 5641 H 506.242 -3.99129 4.62091 0
M  V30 5642 H 507.656 -1.86544 5.42102 0
M  V30 5643 H 506.053 -1.2182 5.87605 0
M  V30 5644 H 507.123 -0.254066 4.84234 0
M  V30 5645 N 508.466 -1.55915 -0.229846 0
M  V30 5646 C 509.882 -1.48721 -0.579166 0
M  V30 5647 C 510.082 -0.736976 -1.87539 0
M  V30 5648 O 509.138 -0.273258 -2.51017 0
M  V30 5649 C 510.451 -2.9323 -0.666082 0
M  V30 5650 C 511.999 -3.03701 -0.757267 0
M  V30 5651 C 512.474 -4.49552 -0.8756 0
M  V30 5652 N 513.965 -4.53561 -0.940035 0
M  V30 5653 C 514.7 -5.63683 -1.05116 0
M  V30 5654 N 514.196 -6.83576 -1.12675 0
M  V30 5655 N 515.989 -5.51516 -1.08565 0
M  V30 5656 H 508.14 -2.03123 0.620857 0
M  V30 5657 H 510.403 -0.922898 0.21671 0
M  V30 5658 H 510.109 -3.51032 0.21664 0
M  V30 5659 H 509.983 -3.44668 -1.53243 0
M  V30 5660 H 512.37 -2.45969 -1.63043 0
M  V30 5661 H 512.451 -2.55446 0.134583 0
M  V30 5662 H 512.095 -5.079 -0.00692351 0
M  V30 5663 H 512.025 -4.95506 -1.78274 0
M  V30 5664 H 514.516 -3.67215 -0.892269 0
M  V30 5665 H 514.829 -7.63251 -1.21109 0
M  V30 5666 H 513.174 -6.86303 -1.09603 0
M  V30 5667 H 516.365 -4.5678 -1.02319 0
M  V30 5668 H 516.538 -6.37372 -1.1688 0
M  V30 5669 N 509.944 0.496216 -1.49584 0
M  V30 5670 C 510.892 1.61805 -1.67098 0
M  V30 5671 C 511.886 1.60667 -0.536877 0
M  V30 5672 O 513.092 1.65118 -0.716654 0
M  V30 5673 H 509.467 0.53646 -0.526986 0
M  V30 5674 H 511.438 1.44187 -2.61252 0
M  V30 5675 C 510.187 2.99912 -1.75921 0
M  V30 5676 H 509.51 3.01496 -2.62565 0
M  V30 5677 H 510.95 3.77931 -1.92209 0
M  V30 5678 C 509.409 3.33092 -0.505088 0
M  V30 5679 O 509.939 4.00019 0.367085 0
M  V30 5680 N 508.145 2.88278 -0.366599 0
M  V30 5681 H 507.692 2.33989 -1.07735 0
M  V30 5682 H 507.65 3.10846 0.47142 0
M  V30 5683 N 511.423 1.38739 0.74761 0
M  V30 5684 C 512.663 1.36695 1.51966 0
M  V30 5685 C 513.027 -0.0411889 1.91956 0
M  V30 5686 O 514.228 -0.186543 2.68152 0
M  V30 5687 C 512.499 2.30119 2.73459 0
M  V30 5688 S 514.058 2.4615 3.63257 0
M  V30 5689 H 510.876 0.484929 0.519966 0
M  V30 5690 H 513.478 1.7472 0.877104 0
M  V30 5691 H 512.182 3.31312 2.422 0
M  V30 5692 H 511.713 1.93265 3.42655 0
M  V30 5693 H 513.728 1.69001 4.66533 0
M  V30 5694 N 512.901 -0.976442 1.23707 0
M  V30 5695 C 513.811 -2.10359 1.03856 0
M  V30 5696 C 514.827 -1.73991 -0.0180919 0
M  V30 5697 O 516.003 -2.0061 0.178211 0
M  V30 5698 C 513.068 -3.40809 0.636387 0
M  V30 5699 C 512.129 -3.91179 1.76854 0
M  V30 5700 C 511.362 -5.15404 1.38546 0
M  V30 5701 O 511.585 -5.69754 0.27142 0
M  V30 5702 O 510.519 -5.5994 2.20797 0
M  V30 5703 H 514.345 -2.29997 1.98331 0
M  V30 5704 H 511.93 -1.08742 1.02448 0
M  V30 5705 H 513.812 -4.19269 0.423223 0
M  V30 5706 H 512.487 -3.22493 -0.279322 0
M  V30 5707 H 511.394 -3.13819 2.03638 0
M  V30 5708 H 512.727 -4.13958 2.6627 0
M  V30 5709 N 514.379 -1.04941 -1.1758 0
M  V30 5710 C 515.604 -0.778253 -1.92245 0
M  V30 5711 C 516.029 0.659707 -1.76152 0
M  V30 5712 O 515.387 1.45803 -1.07755 0
M  V30 5713 C 515.435 -1.16051 -3.41416 0
M  V30 5714 O 514.539 -0.291153 -4.11371 0
M  V30 5715 H 513.88 -0.285619 -0.599431 0
M  V30 5716 H 516.41 -1.40159 -1.49052 0
M  V30 5717 H 516.42 -1.12619 -3.92149 0
M  V30 5718 H 515.095 -2.208 -3.52449 0
M  V30 5719 H 513.672 -0.385851 -3.70898 0
M  V30 5720 N 515.857 1.33968 -0.830081 0
M  V30 5721 C 517.134 1.92554 -0.343858 0
M  V30 5722 C 517.514 1.7573 1.16971 0
M  V30 5723 O 516.862 1.14035 1.98011 0
M  V30 5724 C 517.072 3.40147 -0.781073 0
M  V30 5725 C 518.42 4.17299 -0.78402 0
M  V30 5726 O 519.444 3.48762 -0.724112 0
M  V30 5727 O 518.303 5.39631 -0.863739 0
M  V30 5728 H 515.397 0.821469 -0.0954827 0
M  V30 5729 H 517.943 1.42897 -0.915348 0
M  V30 5730 H 516.715 3.46225 -1.82329 0
M  V30 5731 H 516.338 3.97166 -0.18567 0
M  V30 5732 N 517.335 0.585699 1.46312 0
M  V30 5733 C 518.563 0.0781299 2.06752 0
M  V30 5734 C 518.978 -1.22812 1.43396 0
M  V30 5735 O 518.335 -1.74318 0.540314 0
M  V30 5736 C 518.386 -0.0911927 3.61385 0
M  V30 5737 O 518.107 1.16336 4.22371 0
M  V30 5738 C 519.608 -0.632765 4.38761 0
M  V30 5739 H 516.828 0.0588188 0.668417 0
M  V30 5740 H 519.372 0.807218 1.87894 0
M  V30 5741 H 517.527 -0.770514 3.7966 0
M  V30 5742 H 517.941 0.979082 5.15281 0
M  V30 5743 H 519.415 -0.70041 5.47538 0
M  V30 5744 H 519.892 -1.65039 4.07012 0
M  V30 5745 H 520.498 0.0117856 4.25298 0
M  V30 5746 N 518.813 -1.54241 0.323641 0
M  V30 5747 C 519.723 -2.28033 -0.551205 0
M  V30 5748 C 520.739 -1.32388 -1.12913 0
M  V30 5749 O 521.915 -1.65403 -1.14908 0
M  V30 5750 C 518.98 -3.02382 -1.69606 0
M  V30 5751 C 518.041 -4.13612 -1.14993 0
M  V30 5752 C 517.274 -4.84407 -2.24022 0
M  V30 5753 O 517.497 -4.54716 -3.44368 0
M  V30 5754 O 516.431 -5.71312 -1.89436 0
M  V30 5755 H 520.257 -3.03662 0.048066 0
M  V30 5756 H 517.842 -1.49133 0.0893289 0
M  V30 5757 H 519.724 -3.48941 -2.36259 0
M  V30 5758 H 518.399 -2.29628 -2.28151 0
M  V30 5759 H 517.306 -3.71402 -0.448484 0
M  V30 5760 H 518.639 -4.8841 -0.609608 0
M  V30 5761 N 520.291 -0.0518155 -1.57515 0
M  V30 5762 C 521.201 0.937539 -2.15052 0
M  V30 5763 C 522.217 1.34121 -1.10849 0
M  V30 5764 O 523.393 1.418 -1.4302 0
M  V30 5765 C 520.458 2.19379 -2.68466 0
M  V30 5766 C 519.519 1.84841 -3.87469 0
M  V30 5767 C 518.752 3.04477 -4.38326 0
M  V30 5768 O 518.975 4.17868 -3.88256 0
M  V30 5769 O 517.909 2.85453 -5.29906 0
M  V30 5770 H 521.735 0.478201 -2.99912 0
M  V30 5771 H 519.32 0.17012 -1.48428 0
M  V30 5772 H 521.202 2.93084 -3.02787 0
M  V30 5773 H 519.877 2.64449 -1.86677 0
M  V30 5774 H 518.784 1.08449 -3.58036 0
M  V30 5775 H 520.117 1.44569 -4.7049 0
M  V30 5776 N 521.769 1.56035 0.221574 0
M  V30 5777 C 523.046 1.69837 0.970301 0
M  V30 5778 C 523.426 0.599065 2.02421 0
M  V30 5779 O 522.774 -0.393929 2.25079 0
M  V30 5780 C 522.984 3.11148 1.58076 0
M  V30 5781 C 524.332 3.70555 2.07302 0
M  V30 5782 O 525.356 3.14109 1.6797 0
M  V30 5783 O 524.215 4.69562 2.79596 0
M  V30 5784 H 521.309 0.691727 0.453257 0
M  V30 5785 H 523.855 1.68353 0.213358 0
M  V30 5786 H 522.627 3.82617 0.819759 0
M  V30 5787 H 522.25 3.16749 2.40324 0
M  V30 5788 N 523.247 -0.488276 1.49845 0
M  V30 5789 C 524.496 -1.23826 1.59217 0
M  V30 5790 C 524.809 -1.93439 0.289966 0
M  V30 5791 O 526.015 -2.70229 0.262382 0
M  V30 5792 C 524.471 -2.24902 2.80976 0
M  V30 5793 C 524.079 -1.6117 4.18005 0
M  V30 5794 C 525.823 -3.00648 2.99685 0
M  V30 5795 C 523.73 -2.60431 5.3097 0
M  V30 5796 H 522.66 -0.465858 0.592868 0
M  V30 5797 H 525.311 -0.510645 1.76252 0
M  V30 5798 H 523.693 -3.0088 2.57463 0
M  V30 5799 H 524.867 -0.910968 4.51706 0
M  V30 5800 H 523.182 -0.97767 4.0476 0
M  V30 5801 H 525.779 -3.74903 3.81251 0
M  V30 5802 H 526.122 -3.5902 2.10738 0
M  V30 5803 H 526.655 -2.31784 3.23297 0
M  V30 5804 H 523.394 -2.06823 6.22017 0
M  V30 5805 H 522.914 -3.28707 5.01709 0
M  V30 5806 H 524.593 -3.22606 5.60834 0
M  V30 5807 N 524.725 -1.39134 -0.740242 0
M  V30 5808 C 525.688 -1.37217 -1.83587 0
M  V30 5809 C 526.688 -0.270221 -1.58513 0
M  V30 5810 O 527.878 -0.527843 -1.6601 0
M  V30 5811 C 525.01 -1.13959 -3.21288 0
M  V30 5812 H 526.203 -2.34705 -1.86691 0
M  V30 5813 H 523.756 -1.24622 -0.94335 0
M  V30 5814 H 524.491 -0.17131 -3.23847 0
M  V30 5815 H 524.276 -1.93754 -3.40884 0
M  V30 5816 H 525.766 -1.15346 -4.01354 0
M  V30 5817 N 526.204 0.969867 -1.24223 0
M  V30 5818 C 527.62 1.23809 -1.00716 0
M  V30 5819 C 527.82 1.99469 0.285358 0
M  V30 5820 O 526.876 2.31764 1.00207 0
M  V30 5821 C 528.189 2.02734 -2.2208 0
M  V30 5822 C 529.737 2.15834 -2.26681 0
M  V30 5823 C 530.212 2.98154 -3.47661 0
M  V30 5824 N 531.703 3.05737 -3.47964 0
M  V30 5825 C 532.438 3.69785 -4.38231 0
M  V30 5826 N 531.934 4.35569 -5.3875 0
M  V30 5827 N 533.727 3.66775 -4.25949 0
M  V30 5828 H 525.878 0.463294 -2.07286 0
M  V30 5829 H 528.141 0.267348 -0.909521 0
M  V30 5830 H 527.847 1.54524 -3.15935 0
M  V30 5831 H 527.721 3.0347 -2.24021 0
M  V30 5832 H 530.108 2.63248 -1.33359 0
M  V30 5833 H 530.189 1.14453 -2.28767 0
M  V30 5834 H 529.833 2.51435 -4.41297 0
M  V30 5835 H 529.763 3.99729 -3.42818 0
M  V30 5836 H 532.254 2.58941 -2.75242 0
M  V30 5837 H 532.567 4.82251 -6.03866 0
M  V30 5838 H 530.912 4.34244 -5.42639 0
M  V30 5839 H 534.103 3.14558 -3.46657 0
M  V30 5840 H 534.276 4.16407 -4.96497 0
M  V30 5841 N 527.682 1.05563 1.17022 0
M  V30 5842 C 529.098 0.777684 1.39371 0
M  V30 5843 C 529.298 -0.626269 1.91521 0
M  V30 5844 O 528.354 -1.38806 2.10924 0
M  V30 5845 C 529.667 1.83642 2.3811 0
M  V30 5846 C 531.215 1.85907 2.51809 0
M  V30 5847 C 531.69 2.90813 3.53824 0
M  V30 5848 N 533.181 2.898 3.61345 0
M  V30 5849 C 533.916 3.6762 4.40049 0
M  V30 5850 N 533.412 4.55237 5.22237 0
M  V30 5851 N 535.205 3.56044 4.34959 0
M  V30 5852 H 527.356 1.9614 0.815047 0
M  V30 5853 H 529.619 0.849527 0.420722 0
M  V30 5854 H 529.325 2.84425 2.06871 0
M  V30 5855 H 529.199 1.6812 3.37662 0
M  V30 5856 H 531.586 0.857865 2.82356 0
M  V30 5857 H 531.667 2.05506 1.52318 0
M  V30 5858 H 531.311 3.91122 3.24015 0
M  V30 5859 H 531.241 2.68465 4.53028 0
M  V30 5860 H 533.732 2.26274 3.02669 0
M  V30 5861 H 534.045 5.11291 5.79484 0
M  V30 5862 H 532.39 4.59296 5.21605 0
M  V30 5863 H 535.581 2.86986 3.69806 0
M  V30 5864 H 535.754 4.16938 4.96051 0
M  V30 5865 N 529.16 -1.33526 0.837174 0
M  V30 5866 C 530.107 -2.29248 0.267169 0
M  V30 5867 C 531.077 -1.54252 -0.616071 0
M  V30 5868 O 532.262 -1.82559 -0.554699 0
M  V30 5869 C 529.402 -3.40638 -0.553152 0
M  V30 5870 C 528.515 -4.30548 0.353921 0
M  V30 5871 C 527.65 -5.29051 -0.477339 0
M  V30 5872 C 526.689 -6.106 0.42823 0
M  V30 5873 N 525.826 -7.01152 -0.364801 0
M  V30 5874 H 530.666 -2.77398 1.08877 0
M  V30 5875 H 528.203 -1.36496 0.54838 0
M  V30 5876 H 530.161 -4.03921 -1.04422 0
M  V30 5877 H 528.791 -2.93685 -1.33973 0
M  V30 5878 H 527.843 -3.68001 0.963289 0
M  V30 5879 H 529.155 -4.87631 1.04964 0
M  V30 5880 H 528.309 -5.97853 -1.0323 0
M  V30 5881 H 527.048 -4.72541 -1.2065 0
M  V30 5882 H 526.053 -5.40718 0.995219 0
M  V30 5883 H 527.278 -6.69193 1.15573 0
M  V30 5884 H 525.224 -6.47092 -1.07738 0
M  V30 5885 H 525.141 -7.5551 0.272238 0
M  V30 5886 H 526.409 -7.74263 -0.902054 0
M  V30 5887 N 530.638 -0.59345 -1.46 0
M  V30 5888 C 531.601 0.123538 -2.28867 0
M  V30 5889 C 532.601 0.808628 -1.38989 0
M  V30 5890 O 533.791 0.658945 -1.61256 0
M  V30 5891 C 530.923 1.1847 -3.19653 0
M  V30 5892 H 532.116 -0.604843 -2.93737 0
M  V30 5893 H 529.669 -0.351875 -1.52288 0
M  V30 5894 H 530.404 1.94431 -2.59552 0
M  V30 5895 H 530.189 0.69783 -3.8584 0
M  V30 5896 H 531.679 1.68726 -3.81997 0
M  V30 5897 N 532.116 1.54067 -0.331816 0
M  V30 5898 C 533.046 2.27569 0.522932 0
M  V30 5899 C 534.027 1.28679 1.11247 0
M  V30 5900 O 535.212 1.57504 1.13605 0
M  V30 5901 C 532.342 3.0397 1.67987 0
M  V30 5902 C 531.296 4.10267 1.21924 0
M  V30 5903 C 530.622 4.74555 2.46377 0
M  V30 5904 C 531.922 5.21268 0.32815 0
M  V30 5905 H 533.616 2.99264 -0.0901977 0
M  V30 5906 H 531.162 1.4393 -0.044821 0
M  V30 5907 H 533.115 3.54123 2.28418 0
M  V30 5908 H 531.839 2.29906 2.31971 0
M  V30 5909 H 530.498 3.61009 0.637809 0
M  V30 5910 H 530.146 3.97098 3.08743 0
M  V30 5911 H 529.846 5.46363 2.16243 0
M  V30 5912 H 531.37 5.27487 3.07555 0
M  V30 5913 H 532.784 5.67128 0.838978 0
M  V30 5914 H 531.181 5.99982 0.119228 0
M  V30 5915 H 532.251 4.80673 -0.638839 0
M  V30 5916 N 533.594 0.0601682 1.57485 0
M  V30 5917 C 534.544 -0.920969 2.08572 0
M  V30 5918 C 535.528 -1.26617 0.992827 0
M  V30 5919 O 536.72 -1.24708 1.25606 0
M  V30 5920 C 533.849 -2.19267 2.64153 0
M  V30 5921 C 532.935 -1.87447 3.80427 0
M  V30 5922 N 533.326 -1.26025 4.89848 0
M  V30 5923 C 531.624 -2.17265 3.89502 0
M  V30 5924 C 532.325 -1.12036 5.70809 0
M  V30 5925 N 531.301 -1.62624 5.18705 0
M  V30 5926 H 535.103 -0.441561 2.90564 0
M  V30 5927 H 532.617 -0.144043 1.6176 0
M  V30 5928 H 534.614 -2.90462 2.99061 0
M  V30 5929 H 533.274 -2.67806 1.83603 0
M  V30 5930 H 534.285 -0.931336 5.09457 0
M  V30 5931 H 530.962 -2.68262 3.19909 0
M  V30 5932 H 532.352 -0.642783 6.68818 0
M  V30 5933 N 535.072 -1.5615 -0.213296 0
M  V30 5934 C 536.483 -1.69645 -0.779582 0
M  V30 5935 C 536.834 -0.663615 -1.84636 0
M  V30 5936 O 535.959 0.183633 -2.15619 0
M  V30 5937 C 536.554 -3.07567 -1.42084 0
M  V30 5938 C 535.113 -3.22889 -1.93442 0
M  V30 5939 C 534.26 -2.65581 -0.797612 0
M  V30 5940 H 537.211 -1.58696 0.0114951 0
M  V30 5941 H 537.232 -3.03884 -2.28986 0
M  V30 5942 H 536.744 -3.82716 -0.644187 0
M  V30 5943 H 534.845 -2.52623 -2.73884 0
M  V30 5944 H 534.958 -4.30197 -2.10872 0
M  V30 5945 H 533.322 -2.24278 -1.20712 0
M  V30 5946 H 534.105 -3.43284 -0.033494 0
M  V30 5947 N 536.55 0.480323 -1.50102 0
M  V30 5948 C 537.966 0.813295 -1.37323 0
M  V30 5949 C 538.166 1.97027 -0.422206 0
M  V30 5950 O 537.222 2.5212 0.138563 0
M  V30 5951 C 538.535 1.13404 -2.78496 0
M  V30 5952 C 540.083 1.24104 -2.87345 0
M  V30 5953 C 540.558 1.59497 -4.29331 0
M  V30 5954 N 542.049 1.66507 -4.32238 0
M  V30 5955 C 542.784 1.95378 -5.39087 0
M  V30 5956 N 542.28 2.22333 -6.56155 0
M  V30 5957 N 544.073 1.96803 -5.26522 0
M  V30 5958 H 536.224 -0.282291 -2.10516 0
M  V30 5959 H 538.487 -0.063752 -0.945854 0
M  V30 5960 H 538.193 0.357064 -3.49883 0
M  V30 5961 H 538.067 2.07251 -3.15162 0
M  V30 5962 H 540.454 2.00871 -2.16183 0
M  V30 5963 H 540.535 0.282593 -2.54234 0
M  V30 5964 H 540.179 0.832736 -5.01027 0
M  V30 5965 H 540.109 2.56477 -4.59921 0
M  V30 5966 H 542.6 1.47753 -3.47818 0
M  V30 5967 H 542.913 2.43611 -7.33399 0
M  V30 5968 H 541.258 2.19745 -6.59346 0
M  V30 5969 H 544.449 1.75235 -4.34062 0
M  V30 5970 H 544.622 2.18969 -6.09883 0
M  V30 5971 N 538.028 1.39524 0.732853 0
M  V30 5972 C 539.444 1.21176 1.03868 0
M  V30 5973 C 539.644 0.0748448 2.01361 0
M  V30 5974 O 538.7 -0.57281 2.45917 0
M  V30 5975 C 540.013 2.54667 1.59892 0
M  V30 5976 C 541.561 2.6153 1.71962 0
M  V30 5977 C 542.036 3.95248 2.31394 0
M  V30 5978 N 543.527 3.96899 2.38801 0
M  V30 5979 C 544.262 4.97138 2.85729 0
M  V30 5980 N 543.758 6.07775 3.32537 0
M  V30 5981 N 545.551 4.84516 2.84957 0
M  V30 5982 H 537.702 2.12225 0.086304 0
M  V30 5983 H 539.965 0.942614 0.100907 0
M  V30 5984 H 539.671 3.38423 0.95721 0
M  V30 5985 H 539.545 2.74538 2.58668 0
M  V30 5986 H 541.932 1.78156 2.35254 0
M  V30 5987 H 542.013 2.45507 0.718327 0
M  V30 5988 H 541.657 4.79054 1.68729 0
M  V30 5989 H 541.587 4.08593 3.32204 0
M  V30 5990 H 544.078 3.16998 2.05719 0
M  V30 5991 H 544.391 6.8017 3.66862 0
M  V30 5992 H 542.736 6.11366 3.30541 0
M  V30 5993 H 545.927 3.97185 2.47713 0
M  V30 5994 H 546.1 5.62783 3.21215 0
M  V30 5995 N 539.506 -0.963266 1.24736 0
M  V30 5996 C 540.922 -1.23273 1.01371 0
M  V30 5997 C 541.122 -1.99618 -0.274776 0
M  V30 5998 O 540.178 -2.32293 -0.989769 0
M  V30 5999 C 541.491 -2.01554 2.23152 0
M  V30 6000 C 543.039 -2.14629 2.27823 0
M  V30 6001 C 543.514 -2.96307 3.49237 0
M  V30 6002 N 545.005 -3.03887 3.49581 0
M  V30 6003 C 545.74 -3.67456 4.40186 0
M  V30 6004 N 545.236 -4.32706 5.41052 0
M  V30 6005 N 547.029 -3.64511 4.27888 0
M  V30 6006 H 539.18 -0.452294 2.07528 0
M  V30 6007 H 541.443 -0.262521 0.910926 0
M  V30 6008 H 541.149 -1.52847 3.1675 0
M  V30 6009 H 541.023 -3.02278 2.25628 0
M  V30 6010 H 543.41 -2.62537 1.34753 0
M  V30 6011 H 543.491 -1.13238 2.2937 0
M  V30 6012 H 543.135 -2.49091 4.42624 0
M  V30 6013 H 543.065 -3.97905 3.44933 0
M  V30 6014 H 545.556 -2.57477 2.76611 0
M  V30 6015 H 545.869 -4.79042 6.06415 0
M  V30 6016 H 544.214 -4.31361 5.44934 0
M  V30 6017 H 547.405 -3.12715 3.4832 0
M  V30 6018 H 547.578 -4.13768 4.98698 0
M  V30 6019 N 540.985 -1.06182 -1.16461 0
M  V30 6020 C 542.21 -0.798599 -1.91408 0
M  V30 6021 C 542.635 0.640987 -1.76842 0
M  V30 6022 O 541.993 1.44652 -1.09296 0
M  V30 6023 C 542.041 -1.19665 -3.40165 0
M  V30 6024 O 541.145 -0.334768 -4.11039 0
M  V30 6025 H 540.486 -0.291961 -0.596368 0
M  V30 6026 H 543.016 -1.41732 -1.47557 0
M  V30 6027 H 543.026 -1.16772 -3.90933 0
M  V30 6028 H 541.701 -2.24526 -3.50087 0
M  V30 6029 H 540.278 -0.425168 -3.70468 0
M  V30 6030 N 542.463 1.3308 -0.844243 0
M  V30 6031 C 543.688 2.02341 -0.455282 0
M  V30 6032 C 544.113 1.6308 0.93737 0
M  V30 6033 O 543.471 0.826118 1.61385 0
M  V30 6034 C 543.519 3.55743 -0.58988 0
M  V30 6035 O 542.623 4.1063 0.38166 0
M  V30 6036 H 541.964 0.637898 -0.184343 0
M  V30 6037 H 544.494 1.6986 -1.14056 0
M  V30 6038 H 544.504 4.05243 -0.473522 0
M  V30 6039 H 543.179 3.83662 -1.60549 0
M  V30 6040 H 541.756 3.72236 0.22241 0
M  V30 6041 N 543.941 0.601185 1.45683 0
M  V30 6042 C 545.169 0.100054 2.06658 0
M  V30 6043 C 545.584 -1.21285 1.44691 0
M  V30 6044 O 544.941 -1.73735 0.558772 0
M  V30 6045 C 544.992 -0.0528579 3.61461 0
M  V30 6046 O 544.713 1.20809 4.21114 0
M  V30 6047 C 546.214 -0.586193 4.39407 0
M  V30 6048 H 543.434 0.065905 0.667756 0
M  V30 6049 H 545.978 0.827101 1.87028 0
M  V30 6050 H 544.133 -0.730203 3.80456 0
M  V30 6051 H 544.547 1.03368 5.14213 0
M  V30 6052 H 546.021 -0.642297 5.4825 0
M  V30 6053 H 546.498 -1.60713 4.0874 0
M  V30 6054 H 547.104 0.0568935 4.25262 0
M  V30 6055 N 545.419 -1.53889 0.339982 0
M  V30 6056 C 546.644 -2.05741 -0.261798 0
M  V30 6057 C 547.069 -1.21354 -1.43718 0
M  V30 6058 O 546.427 -0.22645 -1.7988 0
M  V30 6059 C 546.475 -3.54542 -0.658228 0
M  V30 6060 O 545.579 -3.7302 -1.75869 0
M  V30 6061 H 544.92 -0.662529 -0.0441672 0
M  V30 6062 H 547.45 -1.98568 0.493161 0
M  V30 6063 H 547.46 -3.9711 -0.936368 0
M  V30 6064 H 546.135 -4.15412 0.201358 0
M  V30 6065 H 544.712 -3.42355 -1.47809 0
M  V30 6066 O 546.936 -0.208127 -1.60153 0
M  V30 6067 H 547.627 0.374888 -1.90038 0
M  V30 END ATOM
M  V30 BEGIN BOND
M  V30 END BOND
M  V30 END CTAB
M  END
$$$$
