drugbank_target|P32238 Cholecystokinin receptor type A (DB00403; DB04856; DB04867; DB08862)
 OpenBabel12092119313D

  0  0  0     0  0            999 V3000
M  V30 BEGIN CTAB
M  V30 COUNTS 6797 6874 0 0 0
M  V30 BEGIN ATOM
M  V30 1 H -0.908 1.98254 -0.117106 0
M  V30 2 N 0 1.576 0 0
M  V30 3 C 0.933 2.03868 1.02534 0
M  V30 4 C 1.911 0.928543 1.3348 0
M  V30 5 O 3.095 1.19667 1.45644 0
M  V30 6 C 0.222 2.43627 2.35294 0
M  V30 7 C -0.732 3.65373 2.2001 0
M  V30 8 S 0.101 5.13292 1.52614 0
M  V30 9 C 1.257 5.56322 2.86805 0
M  V30 10 H 1.49 2.90518 0.631377 0
M  V30 11 H -0.977 1.52953 0.210867 0
M  V30 12 H 0.981 2.67203 3.11629 0
M  V30 13 H -0.358 1.57376 2.7183 0
M  V30 14 H -1.165 3.90944 3.18086 0
M  V30 15 H -1.563 3.418 1.51819 0
M  V30 16 H 0.729 5.58782 3.83104 0
M  V30 17 H 1.672 6.56266 2.65933 0
M  V30 18 H 2.08 4.83886 2.90714 0
M  V30 19 N 1.4781 -0.272755 1.55222 0
M  V30 20 C 2.7551 -1.02562 1.66555 0
M  V30 21 C 3.1351 -2.04282 0.532189 0
M  V30 22 O 2.4831 -2.23662 -0.467717 0
M  V30 23 C 2.6931 -1.6822 3.05782 0
M  V30 24 C 4.0411 -2.19373 3.63539 0
M  V30 25 O 5.0651 -1.78206 3.08417 0
M  V30 26 O 3.9241 -2.94883 4.60115 0
M  V30 27 H 1.0181 -0.475755 0.676451 0
M  V30 28 H 3.5641 -0.268593 1.67561 0
M  V30 29 H 2.3361 -0.945112 3.79715 0
M  V30 30 H 1.9591 -2.50609 3.08676 0
M  V30 31 N 2.9562 -1.48159 -0.537278 0
M  V30 32 C 4.2022 -1.56035 -1.29541 0
M  V30 33 C 4.5352 -0.230377 -1.92829 0
M  V30 34 O 3.8102 0.762952 -1.78911 0
M  V30 35 C 4.0932 -2.69323 -2.39034 0
M  V30 36 C 3.9462 -4.12002 -1.80485 0
M  V30 37 C 5.2652 -2.78408 -3.40847 0
M  V30 38 H 2.3842 -0.567992 -0.469632 0
M  V30 39 H 5.0262 -1.80302 -0.599277 0
M  V30 40 H 3.1762 -2.48763 -2.98412 0
M  V30 41 H 4.8482 -4.43981 -1.25215 0
M  V30 42 H 3.0912 -4.19344 -1.11055 0
M  V30 43 H 3.7622 -4.87077 -2.59731 0
M  V30 44 H 6.2382 -2.97012 -2.91416 0
M  V30 45 H 5.1142 -3.59416 -4.14863 0
M  V30 46 H 5.3752 -1.86269 -4.00944 0
M  V30 47 N 4.4343 0.785586 -1.36625 0
M  V30 48 C 5.6803 1.54591 -1.31261 0
M  V30 49 C 6.0133 1.93906 0.106823 0
M  V30 50 O 5.2883 1.63007 1.06108 0
M  V30 51 C 5.5713 2.82038 -2.23889 0
M  V30 52 C 5.4243 2.49066 -3.74548 0
M  V30 53 C 6.7433 3.83887 -2.15217 0
M  V30 54 H 3.8623 0.560846 -0.478143 0
M  V30 55 H 6.5043 0.902278 -1.67209 0
M  V30 56 H 4.6543 3.36961 -1.93363 0
M  V30 57 H 6.3263 2.00164 -4.15611 0
M  V30 58 H 4.5693 1.81954 -3.93796 0
M  V30 59 H 5.2403 3.40109 -4.34776 0
M  V30 60 H 7.7163 3.38421 -2.42096 0
M  V30 61 H 6.5923 4.70806 -2.82193 0
M  V30 62 H 6.8533 4.27131 -1.14068 0
M  V30 63 N 5.9124 1.20967 1.01018 0
M  V30 64 C 7.1894 0.93264 1.71934 0
M  V30 65 C 7.5694 -0.55692 2.03621 0
M  V30 66 O 6.9174 -1.52035 1.7058 0
M  V30 67 C 7.1274 1.81233 2.98254 0
M  V30 68 C 8.4754 2.05804 3.71389 0
M  V30 69 O 9.4994 1.78539 3.08225 0
M  V30 70 O 8.3584 2.51888 4.84989 0
M  V30 71 H 5.4524 0.349272 0.749625 0
M  V30 72 H 7.9984 1.31871 1.06808 0
M  V30 73 H 6.7704 2.82067 2.71208 0
M  V30 74 H 6.3934 1.42674 3.7112 0
M  V30 75 N 7.3905 -1.2043 1.01659 0
M  V30 76 C 8.6155 -1.94318 0.724942 0
M  V30 77 C 9.0405 -1.74266 -0.708034 0
M  V30 78 O 8.3985 -1.03694 -1.48719 0
M  V30 79 C 8.4465 -3.44486 1.06591 0
M  V30 80 O 7.5505 -4.12017 0.177599 0
M  V30 81 H 6.8915 -0.60708 0.26898 0
M  V30 82 H 9.4215 -1.52861 1.35995 0
M  V30 83 H 9.4315 -3.95106 1.01762 0
M  V30 84 H 8.1065 -3.58404 2.10997 0
M  V30 85 H 6.6835 -3.71821 0.283421 0
M  V30 86 N 8.8686 -0.792821 -1.36206 0
M  V30 87 C 9.7986 -0.207853 -2.32573 0
M  V30 88 C 10.7796 0.659055 -1.56813 0
M  V30 89 O 11.9646 0.592176 -1.84951 0
M  V30 90 C 9.0946 0.655449 -3.41059 0
M  V30 91 C 8.0486 -0.111842 -4.27854 0
M  V30 92 C 7.3746 0.872274 -5.27537 0
M  V30 93 C 8.6746 -1.30299 -5.05786 0
M  V30 94 H 10.3686 -1.01294 -2.81744 0
M  V30 95 H 7.9146 -0.48854 -1.3546 0
M  V30 96 H 9.8676 1.07464 -4.07467 0
M  V30 97 H 8.5916 1.49328 -2.90463 0
M  V30 98 H 7.2506 -0.512053 -3.63006 0
M  V30 99 H 6.8986 1.70523 -4.73214 0
M  V30 100 H 6.5986 0.363291 -5.86476 0
M  V30 101 H 8.1226 1.28996 -5.96818 0
M  V30 102 H 9.5366 -0.959379 -5.65216 0
M  V30 103 H 7.9336 -1.7455 -5.74154 0
M  V30 104 H 9.0036 -2.09663 -4.37229 0
M  V30 105 N 10.3467 1.47872 -0.545128 0
M  V30 106 C 11.2767 2.32661 0.197793 0
M  V30 107 C 12.2577 1.43041 0.920504 0
M  V30 108 O 13.4427 1.71912 0.90333 0
M  V30 109 C 10.5727 3.24569 1.23582 0
M  V30 110 C 9.5267 4.23333 0.630323 0
M  V30 111 C 8.8527 5.0448 1.77211 0
M  V30 112 C 10.1527 5.20704 -0.407974 0
M  V30 113 H 11.8467 2.95024 -0.510045 0
M  V30 114 H 9.3927 1.4187 -0.246731 0
M  V30 115 H 11.3457 3.8272 1.76362 0
M  V30 116 H 10.0697 2.60236 1.97344 0
M  V30 117 H 8.7287 3.6639 0.123922 0
M  V30 118 H 8.3767 4.36561 2.49847 0
M  V30 119 H 8.0767 5.71339 1.37281 0
M  V30 120 H 9.6007 5.65487 2.3034 0
M  V30 121 H 11.0147 5.7329 0.033305 0
M  V30 122 H 9.4117 5.95699 -0.725486 0
M  V30 123 H 10.4817 4.66917 -1.30828 0
M  V30 124 N 11.8248 0.280983 1.55075 0
M  V30 125 C 13.0708 -0.33461 2.00021 0
M  V30 126 C 13.4038 -1.55063 1.16915 0
M  V30 127 O 12.6788 -1.93006 0.240646 0
M  V30 128 C 12.9618 -0.711007 3.53011 0
M  V30 129 C 12.8148 0.512766 4.46868 0
M  V30 130 C 14.1338 -1.54522 4.12081 0
M  V30 131 H 11.2528 -0.120147 0.727141 0
M  V30 132 H 13.8948 0.389097 1.85973 0
M  V30 133 H 12.0448 -1.32761 3.65112 0
M  V30 134 H 13.7168 1.15131 4.46702 0
M  V30 135 H 11.9598 1.14975 4.18286 0
M  V30 136 H 12.6308 0.205556 5.51617 0
M  V30 137 H 15.1068 -1.02442 4.03293 0
M  V30 138 H 13.9828 -1.77739 5.19327 0
M  V30 139 H 14.2438 -2.52813 3.62682 0
M  V30 140 N 13.3029 -1.57598 0.00835791 0
M  V30 141 C 14.2509 -2.10078 -0.998508 0
M  V30 142 C 15.2449 -1.02262 -1.35051 0
M  V30 143 O 16.4509 -1.20719 -1.33518 0
M  V30 144 H 12.8259 -0.670903 -0.339696 0
M  V30 145 H 14.7969 -2.93648 -0.530398 0
M  V30 146 C 13.5459 -2.62615 -2.27879 0
M  V30 147 H 12.8689 -3.45213 -2.01662 0
M  V30 148 H 14.3089 -3.03004 -2.96588 0
M  V30 149 C 12.7679 -1.54407 -2.99433 0
M  V30 150 O 13.2979 -0.931812 -3.90743 0
M  V30 151 N 11.5039 -1.2695 -2.61404 0
M  V30 152 H 11.0509 -1.76924 -1.87232 0
M  V30 153 H 11.0089 -0.547704 -3.09593 0
M  V30 154 N 14.781 0.264519 -1.55364 0
M  V30 155 C 16.029 0.993021 -1.76021 0
M  V30 156 C 16.35 1.86511 -0.569099 0
M  V30 157 O 15.62 1.91438 0.415735 0
M  V30 158 H 14.2 0.369639 -0.649135 0
M  V30 159 H 16.862 0.286707 -1.9278 0
M  V30 160 H 15.958 1.62502 -2.66457 0
M  V30 161 N 16.2591 1.48442 0.529413 0
M  V30 162 C 17.4841 1.60406 1.31471 0
M  V30 163 C 17.9091 0.264738 1.86228 0
M  V30 164 O 17.2671 -0.763668 1.64432 0
M  V30 165 C 17.3151 2.65419 2.44101 0
M  V30 166 O 16.4191 2.22618 3.47153 0
M  V30 167 H 15.7601 0.537863 0.389357 0
M  V30 168 H 18.2901 1.94432 0.636965 0
M  V30 169 H 18.3001 2.86709 2.90279 0
M  V30 170 H 16.9751 3.62652 2.03608 0
M  V30 171 H 15.5521 2.11543 3.0709 0
M  V30 172 N 17.7372 -0.778329 1.37039 0
M  V30 173 C 18.6852 -1.91278 1.32345 0
M  V30 174 C 19.6792 -1.68051 0.213331 0
M  V30 175 O 20.8852 -1.75922 0.38098 0
M  V30 176 H 17.2602 -0.628909 0.412283 0
M  V30 177 H 19.2312 -1.92355 2.28127 0
M  V30 178 C 17.9802 -3.28455 1.14073 0
M  V30 179 H 17.3032 -3.46901 1.98746 0
M  V30 180 H 18.7432 -4.08152 1.14837 0
M  V30 181 C 17.2022 -3.36548 -0.154015 0
M  V30 182 O 17.7322 -3.85186 -1.13993 0
M  V30 183 N 15.9382 -2.89894 -0.202475 0
M  V30 184 H 15.4852 -2.50504 0.600476 0
M  V30 185 H 15.4432 -2.9569 -1.06841 0
M  V30 186 N 19.2153 -1.21501 -1.00376 0
M  V30 187 C 20.4643 -1.02718 -1.73586 0
M  V30 188 C 20.7773 0.439589 -1.90596 0
M  V30 189 O 21.9833 0.746848 -2.61026 0
M  V30 190 C 20.4393 -1.78929 -3.1227 0
M  V30 191 C 20.0473 -3.29783 -3.03228 0
M  V30 192 C 21.7913 -1.68557 -3.89601 0
M  V30 193 C 19.6983 -3.98479 -4.36999 0
M  V30 194 H 18.6283 -0.380733 -0.650814 0
M  V30 195 H 21.2793 -1.45248 -1.1214 0
M  V30 196 H 19.6613 -1.29192 -3.74333 0
M  V30 197 H 20.8353 -3.86832 -2.50395 0
M  V30 198 H 19.1503 -3.40711 -2.39385 0
M  V30 199 H 21.7473 -2.17211 -4.88593 0
M  V30 200 H 22.0903 -0.644021 -4.11288 0
M  V30 201 H 22.6233 -2.15778 -3.34193 0
M  V30 202 H 19.3623 -5.02841 -4.20513 0
M  V30 203 H 18.8823 -3.46219 -4.89788 0
M  V30 204 H 20.5613 -4.03462 -5.05794 0
M  V30 205 N 20.6934 1.19889 -1.02296 0
M  V30 206 C 21.9214 1.9339 -0.735399 0
M  V30 207 C 22.3364 1.75148 0.704887 0
M  V30 208 O 21.6934 1.06954 1.47875 0
M  V30 209 C 21.7444 3.45313 -1.06962 0
M  V30 210 O 21.4654 3.62964 -2.45334 0
M  V30 211 C 22.9664 4.35948 -0.804021 0
M  V30 212 H 20.1864 0.61448 -0.269546 0
M  V30 213 H 22.7304 1.522 -1.36585 0
M  V30 214 H 20.8854 3.84359 -0.484455 0
M  V30 215 H 21.2994 4.56886 -2.57595 0
M  V30 216 H 22.7734 5.41174 -1.0879 0
M  V30 217 H 23.2504 4.3842 0.261691 0
M  V30 218 H 23.8564 4.02574 -1.37164 0
M  V30 219 N 22.1715 0.800033 1.35784 0
M  V30 220 C 23.5825 0.439142 1.81462 0
M  V30 221 C 23.9335 -1.03813 1.66485 0
M  V30 222 O 23.0585 -1.80626 1.19177 0
M  V30 223 C 23.6535 0.790314 3.29453 0
M  V30 224 C 22.2125 0.482111 3.733 0
M  V30 225 C 21.3595 1.01938 2.57883 0
M  V30 226 H 24.3105 0.992254 1.23855 0
M  V30 227 H 24.3315 0.0853677 3.80404 0
M  V30 228 H 23.8435 1.86554 3.40322 0
M  V30 229 H 21.9445 -0.584652 3.67984 0
M  V30 230 H 22.0575 1.01015 4.6833 0
M  V30 231 H 20.4215 0.442043 2.50835 0
M  V30 232 H 21.2045 2.10059 2.71533 0
M  V30 233 N 23.6496 -1.47581 0.552962 0
M  V30 234 C 25.0606 -1.86324 0.118463 0
M  V30 235 C 25.4116 -1.46006 -1.3106 0
M  V30 236 O 24.5366 -0.861182 -1.98526 0
M  V30 237 C 25.1316 -3.3816 0.20821 0
M  V30 238 C 23.6906 -3.7601 -0.171226 0
M  V30 239 C 22.8376 -2.71634 0.557686 0
M  V30 240 H 25.7886 -1.39159 0.762928 0
M  V30 241 H 25.8096 -3.76141 -0.574278 0
M  V30 242 H 25.3216 -3.67473 1.24841 0
M  V30 243 H 23.4226 -3.52313 -1.21269 0
M  V30 244 H 23.5356 -4.78745 0.184379 0
M  V30 245 H 21.8996 -2.547 0.00125792 0
M  V30 246 H 22.6826 -3.0379 1.59896 0
M  V30 247 N 25.1277 -0.289203 -1.54924 0
M  V30 248 C 26.3677 0.324536 -2.01807 0
M  V30 249 C 26.7317 1.5199 -1.17316 0
M  V30 250 O 27.9327 2.20422 -1.53843 0
M  V30 251 C 26.2037 0.683578 -3.50802 0
M  V30 252 S 27.7627 1.28185 -4.19659 0
M  V30 253 H 24.5807 0.100236 -0.703899 0
M  V30 254 H 27.1827 -0.414325 -1.91059 0
M  V30 255 H 25.8867 -0.195073 -4.09936 0
M  V30 256 H 25.4177 1.45354 -3.65562 0
M  V30 257 H 27.4327 2.57006 -4.24456 0
M  V30 258 N 26.6058 1.57591 -0.0167156 0
M  V30 259 C 27.5158 2.1291 0.98521 0
M  V30 260 C 28.5318 1.07834 1.36557 0
M  V30 261 O 29.7078 1.39826 1.44951 0
M  V30 262 C 26.7728 2.63512 2.25305 0
M  V30 263 C 25.8338 3.83256 1.93426 0
M  V30 264 C 25.0668 4.31435 3.14165 0
M  V30 265 O 25.2898 3.78851 4.26413 0
M  V30 266 O 24.2238 5.23416 2.97186 0
M  V30 267 H 28.0498 2.98772 0.544888 0
M  V30 268 H 25.6348 1.48012 0.203141 0
M  V30 269 H 27.5168 2.96183 2.99756 0
M  V30 270 H 26.1918 1.8074 2.68542 0
M  V30 271 H 25.0988 3.55531 1.16398 0
M  V30 272 H 26.4318 4.67153 1.55013 0
M  V30 273 N 28.0839 -0.256276 1.55502 0
M  V30 274 C 29.0139 -1.32102 1.92539 0
M  V30 275 C 29.9949 -1.50684 0.789194 0
M  V30 276 O 31.1799 -1.63449 1.04872 0
M  V30 277 C 28.3099 -2.67752 2.21192 0
M  V30 278 C 27.2639 -2.63878 3.36975 0
M  V30 279 C 26.5899 -4.03236 3.51147 0
M  V30 280 C 27.8899 -2.21682 4.72921 0
M  V30 281 H 29.5839 -1.01351 2.81724 0
M  V30 282 H 27.1299 -0.486105 1.35547 0
M  V30 283 H 29.0829 -3.42365 2.45691 0
M  V30 284 H 27.8069 -3.0012 1.28824 0
M  V30 285 H 26.4659 -1.91722 3.12471 0
M  V30 286 H 26.1139 -4.32854 2.56216 0
M  V30 287 H 25.8139 -4.01535 4.29003 0
M  V30 288 H 27.3379 -4.79563 3.77957 0
M  V30 289 H 28.7519 -2.86023 4.96854 0
M  V30 290 H 27.1489 -2.3111 5.53812 0
M  V30 291 H 28.2189 -1.16833 4.70615 0
M  V30 292 N 29.562 -1.4872 -0.521534 0
M  V30 293 C 30.81 -1.56857 -1.27437 0
M  V30 294 C 31.131 -0.247982 -1.93417 0
M  V30 295 O 30.401 0.731151 -1.81744 0
M  V30 296 H 28.981 -0.577885 -0.473347 0
M  V30 297 H 31.643 -1.85233 -0.606205 0
M  V30 298 H 30.739 -2.35402 -2.0492 0
M  V30 299 N 31.0401 0.771051 -1.3745 0
M  V30 300 C 31.9701 1.89827 -1.3597 0
M  V30 301 C 32.9511 1.68562 -0.228216 0
M  V30 302 O 34.1361 1.8941 -0.428675 0
M  V30 303 C 31.2661 3.2712 -1.16662 0
M  V30 304 C 30.2201 3.6295 -2.2683 0
M  V30 305 C 29.5461 4.98791 -1.92644 0
M  V30 306 C 30.8461 3.69627 -3.69017 0
M  V30 307 H 32.5401 1.91323 -2.30295 0
M  V30 308 H 30.0861 0.919082 -1.10855 0
M  V30 309 H 32.0391 4.05615 -1.14256 0
M  V30 310 H 30.7631 3.26059 -0.187926 0
M  V30 311 H 29.4221 2.86763 -2.28392 0
M  V30 312 H 29.0701 4.94271 -0.933021 0
M  V30 313 H 28.7701 5.23733 -2.66416 0
M  V30 314 H 30.2941 5.79685 -1.91826 0
M  V30 315 H 31.7081 4.38273 -3.69581 0
M  V30 316 H 30.1051 4.06067 -4.41848 0
M  V30 317 H 31.1751 2.70273 -4.02592 0
M  V30 318 N 32.5182 1.22032 0.997298 0
M  V30 319 C 33.4282 1.00271 2.12092 0
M  V30 320 C 34.4442 -0.047621 1.73935 0
M  V30 321 O 35.6202 0.144136 2.00884 0
M  V30 322 C 32.6852 0.578449 3.4184 0
M  V30 323 C 31.7462 1.70189 3.94125 0
M  V30 324 C 30.9792 1.29778 5.17681 0
M  V30 325 O 31.2022 0.174676 5.70132 0
M  V30 326 O 30.1362 2.11261 5.63607 0
M  V30 327 H 33.9622 1.94398 2.3333 0
M  V30 328 H 31.5472 1.00587 1.10465 0
M  V30 329 H 33.4292 0.351998 4.19927 0
M  V30 330 H 32.1042 -0.334019 3.21972 0
M  V30 331 H 31.0112 1.98282 3.1723 0
M  V30 332 H 32.3442 2.59206 4.18417 0
M  V30 333 N 33.9963 -1.19345 1.0293 0
M  V30 334 C 34.9443 -2.24621 0.604001 0
M  V30 335 C 35.9383 -1.65452 -0.363587 0
M  V30 336 O 37.1443 -1.78497 -0.23212 0
M  V30 337 H 33.5193 -0.730858 0.177061 0
M  V30 338 H 35.4903 -2.5781 1.50255 0
M  V30 339 C 34.2393 -3.47688 -0.0289127 0
M  V30 340 H 33.5623 -3.93505 0.706651 0
M  V30 341 H 35.0023 -4.23011 -0.289432 0
M  V30 342 C 33.4613 -3.11817 -1.2756 0
M  V30 343 O 33.9913 -3.2451 -2.36762 0
M  V30 344 N 32.1973 -2.66246 -1.16453 0
M  V30 345 H 31.7443 -2.56118 -0.275914 0
M  V30 346 H 31.7023 -2.42617 -1.99961 0
M  V30 347 N 35.4744 -0.807222 -1.35358 0
M  V30 348 C 36.3844 -0.219594 -2.3357 0
M  V30 349 C 37.4004 0.637734 -1.61892 0
M  V30 350 O 38.5764 0.549336 -1.93763 0
M  V30 351 C 35.6414 0.62158 -3.41083 0
M  V30 352 C 34.7024 -0.256315 -4.28534 0
M  V30 353 C 33.9354 0.544807 -5.30912 0
M  V30 354 O 34.1584 1.77944 -5.41934 0
M  V30 355 O 33.0924 -0.0646478 -6.01865 0
M  V30 356 H 36.9184 -1.03208 -2.85625 0
M  V30 357 H 34.5034 -0.569025 -1.38139 0
M  V30 358 H 36.3854 1.10067 -4.06772 0
M  V30 359 H 35.0604 1.41165 -2.91297 0
M  V30 360 H 33.9674 -0.782559 -3.65823 0
M  V30 361 H 35.3004 -1.01034 -4.81719 0
M  V30 362 N 36.9525 1.47285 -0.560781 0
M  V30 363 C 38.1805 2.06855 -0.0430262 0
M  V30 364 C 38.5955 1.41291 1.25229 0
M  V30 365 O 37.9525 0.510648 1.7521 0
M  V30 366 C 38.0035 3.61178 0.152518 0
M  V30 367 O 37.7245 4.24285 -1.0915 0
M  V30 368 C 39.2255 4.37624 0.707145 0
M  V30 369 H 36.4455 0.669319 -0.0474652 0
M  V30 370 H 38.9895 1.89237 -0.77521 0
M  V30 371 H 37.1445 3.78298 0.834843 0
M  V30 372 H 37.5585 5.16868 -0.891482 0
M  V30 373 H 39.0325 5.46271 0.793244 0
M  V30 374 H 39.5095 4.04152 1.71923 0
M  V30 375 H 40.1155 4.25257 0.0604027 0
M  V30 376 N 38.4306 0.297415 1.54768 0
M  V30 377 C 39.3606 -0.573494 2.26348 0
M  V30 378 C 40.3416 -1.14085 1.26169 0
M  V30 379 O 41.5266 -1.17086 1.54934 0
M  V30 380 C 38.6566 -1.74716 3.00153 0
M  V30 381 C 37.6106 -1.31032 4.07449 0
M  V30 382 C 36.9366 -2.56887 4.68949 0
M  V30 383 C 38.2366 -0.444183 5.20408 0
M  V30 384 H 39.9306 0.0235131 2.99391 0
M  V30 385 H 37.4766 0.0127488 1.43994 0
M  V30 386 H 39.4296 -2.3625 3.48947 0
M  V30 387 H 38.1536 -2.37035 2.24682 0
M  V30 388 H 36.8126 -0.718066 3.59499 0
M  V30 389 H 36.4606 -3.17512 3.90122 0
M  V30 390 H 36.1606 -2.2836 5.41411 0
M  V30 391 H 37.6846 -3.19229 5.20505 0
M  V30 392 H 39.0986 -0.9651 5.65118 0
M  V30 393 H 37.4956 -0.252846 5.99567 0
M  V30 394 H 38.5656 0.531609 4.81977 0
M  V30 395 N 39.9087 -1.5758 0.0250728 0
M  V30 396 C 41.1557 -1.91633 -0.654444 0
M  V30 397 C 41.4837 -0.901103 -1.72367 0
M  V30 398 O 40.7387 0.0905647 -1.9549 0
M  V30 399 C 41.0377 -3.32421 -1.31268 0
M  V30 400 C 40.7037 -4.49344 -0.374223 0
M  V30 401 C 39.3657 -4.8106 -0.115911 0
M  V30 402 C 41.7177 -5.20498 0.270432 0
M  V30 403 C 39.0457 -5.8129 0.79493 0
M  V30 404 C 41.3977 -6.21699 1.1693 0
M  V30 405 C 40.0617 -6.51859 1.43655 0
M  V30 406 H 39.3317 -0.701236 -0.239478 0
M  V30 407 H 41.9787 -1.91307 0.0859734 0
M  V30 408 H 40.2837 -3.28989 -2.12775 0
M  V30 409 H 41.9807 -3.56038 -1.84494 0
M  V30 410 H 38.5707 -4.24579 -0.58573 0
M  V30 411 H 42.7547 -4.96229 0.0839194 0
M  V30 412 H 38.0107 -6.03005 1.00973 0
M  V30 413 H 42.1847 -6.75955 1.67504 0
M  V30 414 H 39.8117 -7.2934 2.144 0
M  V30 415 N 41.3868 0.248026 -1.55636 0
M  V30 416 C 42.6268 0.983592 -1.79178 0
M  V30 417 C 42.9908 1.82567 -0.594414 0
M  V30 418 O 44.1918 2.59292 -0.708583 0
M  V30 419 C 42.4628 1.82228 -3.07454 0
M  V30 420 S 44.0218 2.61709 -3.52213 0
M  V30 421 H 40.8398 0.330866 -0.629324 0
M  V30 422 H 43.4418 0.251562 -1.93875 0
M  V30 423 H 42.1458 1.19333 -3.92668 0
M  V30 424 H 41.6768 2.59708 -2.95492 0
M  V30 425 H 43.6918 3.84655 -3.13457 0
M  V30 426 N 42.8649 1.48995 0.513639 0
M  V30 427 C 43.7949 1.67636 1.62544 0
M  V30 428 C 44.7759 0.525087 1.61793 0
M  V30 429 O 45.9609 0.759502 1.78732 0
M  V30 430 C 43.0909 1.73114 3.01079 0
M  V30 431 C 42.0449 2.87905 3.16693 0
M  V30 432 C 41.3709 2.78486 4.56453 0
M  V30 433 C 42.6709 4.29005 2.97913 0
M  V30 434 H 44.3649 2.60716 1.47198 0
M  V30 435 H 41.9109 1.25465 0.706714 0
M  V30 436 H 43.8639 1.84742 3.78746 0
M  V30 437 H 42.5879 0.766241 3.17484 0
M  V30 438 H 41.2469 2.75859 2.41448 0
M  V30 439 H 40.8949 1.7993 4.69717 0
M  V30 440 H 40.5949 3.55523 4.67843 0
M  V30 441 H 42.1189 2.92104 5.36197 0
M  V30 442 H 43.5329 4.41798 3.65359 0
M  V30 443 H 41.9299 5.07166 3.20785 0
M  V30 444 H 42.9999 4.44329 1.94165 0
M  V30 445 N 44.343 -0.763751 1.37857 0
M  V30 446 C 45.62 -1.51244 1.24035 0
M  V30 447 C 46 -2.10472 -0.162649 0
M  V30 448 O 45.348 -1.96206 -1.17112 0
M  V30 449 C 45.558 -2.58694 2.34261 0
M  V30 450 C 46.906 -3.25878 2.72193 0
M  V30 451 O 47.93 -2.68993 2.33497 0
M  V30 452 O 46.789 -4.2874 3.38887 0
M  V30 453 H 43.883 -0.670243 0.484462 0
M  V30 454 H 46.429 -0.800031 1.49658 0
M  V30 455 H 45.201 -2.13105 3.2818 0
M  V30 456 H 44.824 -3.37527 2.10146 0
M  V30 457 N 45.8211 -1.22559 -0.990812 0
M  V30 458 C 46.7531 -0.955325 -2.08342 0
M  V30 459 C 47.7661 0.0668408 -1.62663 0
M  V30 460 O 48.9551 -0.167421 -1.77713 0
M  V30 461 C 46.0551 -0.415566 -3.36342 0
M  V30 462 C 45.2281 -1.49544 -4.11042 0
M  V30 463 C 44.2871 -0.962399 -5.17324 0
M  V30 464 O 43.3131 -1.64907 -5.44788 0
M  V30 465 N 44.5151 0.215134 -5.80101 0
M  V30 466 H 47.2801 -1.89596 -2.32106 0
M  V30 467 H 44.8411 -1.13276 -1.15673 0
M  V30 468 H 46.8331 -0.0442386 -4.04676 0
M  V30 469 H 45.4031 0.430232 -3.09625 0
M  V30 470 H 44.6231 -2.04 -3.37309 0
M  V30 471 H 45.9111 -2.22195 -4.57719 0
M  V30 472 H 45.3091 0.789779 -5.6016 0
M  V30 473 H 43.8661 0.527826 -6.49659 0
M  V30 474 N 47.2992 1.18797 -1.03562 0
M  V30 475 C 48.7102 1.70322 -0.764676 0
M  V30 476 C 49.0612 1.82708 0.714996 0
M  V30 477 O 48.1862 1.50299 1.55689 0
M  V30 478 C 48.7812 3.09356 -1.38145 0
M  V30 479 C 47.3402 3.58114 -1.15895 0
M  V30 480 C 46.4872 2.34798 -1.4753 0
M  V30 481 H 49.4382 1.03543 -1.20268 0
M  V30 482 H 49.4592 3.72378 -0.781977 0
M  V30 483 H 48.9712 3.00309 -2.45837 0
M  V30 484 H 47.0722 3.72464 -0.100544 0
M  V30 485 H 47.1852 4.4184 -1.8524 0
M  V30 486 H 45.5492 2.38464 -0.894829 0
M  V30 487 H 46.3322 2.28375 -2.56319 0
M  V30 488 N 48.7773 0.814389 1.34928 0
M  V30 489 C 50.1933 0.499084 1.51596 0
M  V30 490 C 50.3933 -0.978319 1.76157 0
M  V30 491 O 49.4493 -1.76309 1.80752 0
M  V30 492 C 50.7623 1.35121 2.68631 0
M  V30 493 C 52.3103 1.34746 2.82511 0
M  V30 494 C 52.7853 2.18388 4.0258 0
M  V30 495 N 54.2763 2.15966 4.09772 0
M  V30 496 C 55.0113 2.77437 5.01813 0
M  V30 497 N 54.5073 3.47866 5.99134 0
M  V30 498 N 56.3003 2.67037 4.94619 0
M  V30 499 H 48.4513 1.7711 1.17243 0
M  V30 500 H 50.7143 0.754256 0.574284 0
M  V30 501 H 50.4203 2.40001 2.57085 0
M  V30 502 H 50.2943 1.00991 3.63429 0
M  V30 503 H 52.6813 0.30648 2.93504 0
M  V30 504 H 52.7623 1.72869 1.88547 0
M  V30 505 H 52.4063 3.2253 3.92347 0
M  V30 506 H 52.3363 1.77621 4.9574 0
M  V30 507 H 54.8273 1.64729 3.40107 0
M  V30 508 H 55.1403 3.92038 6.65977 0
M  V30 509 H 53.4853 3.51972 5.99284 0
M  V30 510 H 56.6763 2.11597 4.17546 0
M  V30 511 H 56.8493 3.15232 5.66156 0
M  V30 512 N 50.2554 -1.46986 0.568584 0
M  V30 513 C 51.6664 -1.86188 0.138219 0
M  V30 514 C 52.0174 -1.47388 -1.29504 0
M  V30 515 O 51.1424 -0.88219 -1.97602 0
M  V30 516 C 51.7374 -3.3792 0.244065 0
M  V30 517 C 50.2964 -3.76171 -0.131335 0
M  V30 518 C 49.4434 -2.71027 0.586465 0
M  V30 519 H 52.3944 -1.38342 0.777645 0
M  V30 520 H 52.4154 -3.76729 -0.534351 0
M  V30 521 H 51.9274 -3.66128 1.28731 0
M  V30 522 H 50.0284 -3.5358 -1.17526 0
M  V30 523 H 50.1414 -4.78523 0.235146 0
M  V30 524 H 48.5054 -2.54684 0.0282722 0
M  V30 525 H 49.2884 -3.02077 1.63109 0
M  V30 526 N 51.7335 -0.305618 -1.54608 0
M  V30 527 C 52.9585 0.307562 -2.05107 0
M  V30 528 C 53.3835 1.46385 -1.18123 0
M  V30 529 O 52.7415 1.8034 -0.186324 0
M  V30 530 C 52.7895 0.73704 -3.52987 0
M  V30 531 O 51.8935 1.84134 -3.6901 0
M  V30 532 H 51.2345 0.0589143 -0.661381 0
M  V30 533 H 53.7645 -0.448807 -1.99617 0
M  V30 534 H 53.7745 1.02459 -3.94925 0
M  V30 535 H 52.4495 -0.108773 -4.15758 0
M  V30 536 H 51.0265 1.55398 -3.38978 0
M  V30 537 N 53.2116 1.57565 -0.0334293 0
M  V30 538 C 54.1586 2.10478 0.946981 0
M  V30 539 C 55.1286 1.00787 1.32027 0
M  V30 540 O 56.3136 1.28232 1.41284 0
M  V30 541 C 53.4536 2.63994 2.22263 0
M  V30 542 C 52.5666 3.87709 1.90541 0
M  V30 543 C 51.7016 4.29604 3.12433 0
M  V30 544 C 50.7406 5.46065 2.76549 0
M  V30 545 N 49.8776 5.83096 3.9108 0
M  V30 546 H 54.7176 2.93963 0.488846 0
M  V30 547 H 52.2546 1.45296 0.22969 0
M  V30 548 H 54.2126 2.93114 2.96884 0
M  V30 549 H 52.8426 1.83333 2.65685 0
M  V30 550 H 51.8946 3.65291 1.06144 0
M  V30 551 H 53.2066 4.72403 1.60116 0
M  V30 552 H 52.3606 4.60182 3.9537 0
M  V30 553 H 51.0996 3.43685 3.46023 0
M  V30 554 H 50.1046 5.15176 1.92026 0
M  V30 555 H 51.3296 6.33685 2.44171 0
M  V30 556 H 49.2756 5.00132 4.24504 0
M  V30 557 H 49.1926 6.6244 3.64293 0
M  V30 558 H 50.4606 6.18282 4.74708 0
M  V30 559 N 54.6897 -0.239769 1.55765 0
M  V30 560 C 55.5997 -1.31831 1.94056 0
M  V30 561 C 56.6157 -1.52275 0.841925 0
M  V30 562 O 57.7917 -1.65759 1.14394 0
M  V30 563 C 54.8567 -2.65156 2.23368 0
M  V30 564 C 53.9177 -2.53173 3.46701 0
M  V30 565 C 53.1507 -3.8014 3.74606 0
M  V30 566 O 53.3737 -4.82343 3.04469 0
M  V30 567 O 52.3077 -3.78344 4.68123 0
M  V30 568 H 56.1337 -1.02347 2.85935 0
M  V30 569 H 53.7187 -0.441123 1.42739 0
M  V30 570 H 55.6007 -3.43929 2.43497 0
M  V30 571 H 54.2757 -2.94358 1.34666 0
M  V30 572 H 53.1827 -1.72662 3.31871 0
M  V30 573 H 54.5157 -2.28915 4.35728 0
M  V30 574 N 56.1678 -1.49265 -0.50573 0
M  V30 575 C 57.4138 -1.59723 -1.25937 0
M  V30 576 C 57.7688 -0.278236 -1.90378 0
M  V30 577 O 57.0618 0.72113 -1.77511 0
M  V30 578 C 57.2558 -2.69008 -2.35308 0
M  V30 579 C 57.0848 -4.11405 -1.81592 0
M  V30 580 C 55.8548 -4.78252 -1.63105 0
M  V30 581 C 58.0528 -4.96792 -1.33048 0
M  V30 582 N 56.0348 -6.0498 -1.04269 0
M  V30 583 C 57.4058 -6.13962 -0.863168 0
M  V30 584 C 59.4608 -4.82828 -1.21577 0
M  V30 585 C 58.1638 -7.18705 -0.292489 0
M  V30 586 C 60.1898 -5.87716 -0.65907 0
M  V30 587 C 59.5518 -7.0411 -0.201954 0
M  V30 588 H 55.6508 -0.638864 -0.450973 0
M  V30 589 H 58.2348 -1.86251 -0.567326 0
M  V30 590 H 56.4058 -2.4426 -3.01979 0
M  V30 591 H 58.1378 -2.69013 -3.02348 0
M  V30 592 H 54.8928 -4.34974 -1.87336 0
M  V30 593 H 55.3168 -6.72631 -0.767919 0
M  V30 594 H 59.9588 -3.93159 -1.55518 0
M  V30 595 H 57.6768 -8.08078 0.0591987 0
M  V30 596 H 61.2628 -5.7897 -0.573156 0
M  V30 597 H 60.1428 -7.83885 0.222101 0
M  V30 598 N 57.6459 0.756429 -1.3826 0
M  V30 599 C 58.5779 1.87971 -1.31147 0
M  V30 600 C 59.5909 1.61248 -0.224239 0
M  V30 601 O 60.7799 1.71881 -0.481581 0
M  V30 602 C 57.8799 3.23545 -1.00857 0
M  V30 603 C 57.0529 3.77794 -2.20432 0
M  V30 604 C 56.1119 4.91877 -1.86931 0
M  V30 605 O 55.1379 5.06659 -2.59395 0
M  V30 606 N 56.3399 5.74643 -0.822568 0
M  V30 607 H 59.1049 1.94585 -2.2794 0
M  V30 608 H 56.6659 0.936234 -1.32084 0
M  V30 609 H 58.6579 3.97403 -0.765021 0
M  V30 610 H 57.2279 3.12335 -0.128687 0
M  V30 611 H 56.4479 2.95534 -2.6087 0
M  V30 612 H 57.7359 4.10771 -3.00241 0
M  V30 613 H 57.1339 5.65266 -0.221575 0
M  V30 614 H 55.6909 6.48661 -0.638899 0
M  V30 615 N 59.124 1.23083 0.984299 0
M  V30 616 C 60.535 1.05609 1.5396 0
M  V30 617 C 60.886 -0.377793 1.92528 0
M  V30 618 O 60.011 -1.26398 1.75649 0
M  V30 619 C 60.606 1.91087 2.7977 0
M  V30 620 C 59.165 1.77885 3.31713 0
M  V30 621 C 58.312 1.87028 2.04733 0
M  V30 622 H 61.263 1.36802 0.804419 0
M  V30 623 H 61.284 1.43336 3.5247 0
M  V30 624 H 60.796 2.9544 2.51668 0
M  V30 625 H 58.897 0.762995 3.64704 0
M  V30 626 H 59.01 2.61047 4.01735 0
M  V30 627 H 57.374 1.30565 2.18689 0
M  V30 628 H 58.157 2.92929 1.79017 0
M  V30 629 N 60.6021 -1.18246 1.0419 0
M  V30 630 C 61.5651 -2.20128 0.638452 0
M  V30 631 C 62.5651 -1.57885 -0.304805 0
M  V30 632 O 63.7551 -1.73967 -0.0900369 0
M  V30 633 C 60.8871 -3.4084 -0.0637751 0
M  V30 634 H 62.0801 -2.57336 1.54007 0
M  V30 635 H 59.6331 -1.32152 0.834598 0
M  V30 636 H 60.3681 -3.09166 -0.979136 0
M  V30 637 H 60.1531 -3.8726 0.614198 0
M  V30 638 H 61.6431 -4.16274 -0.332512 0
M  V30 639 N 62.0802 -0.821533 -1.34494 0
M  V30 640 C 63.3262 -0.409552 -1.98622 0
M  V30 641 C 63.6592 1.0244 -1.64984 0
M  V30 642 O 62.9342 1.71325 -0.920758 0
M  V30 643 C 63.2172 -0.610458 -3.54888 0
M  V30 644 C 63.0702 -2.09043 -3.98273 0
M  V30 645 C 64.3892 -0.0455379 -4.40076 0
M  V30 646 H 61.5082 -0.15028 -0.721516 0
M  V30 647 H 64.1502 -1.03384 -1.59411 0
M  V30 648 H 62.3002 -0.079044 -3.8842 0
M  V30 649 H 63.9722 -2.68537 -3.75081 0
M  V30 650 H 62.2152 -2.58139 -3.48635 0
M  V30 651 H 62.8862 -2.18182 -5.07051 0
M  V30 652 H 65.3622 -0.499557 -4.1309 0
M  V30 653 H 64.2382 -0.215922 -5.48475 0
M  V30 654 H 64.4992 1.04939 -4.29465 0
M  V30 655 N 63.5583 1.46682 -0.576371 0
M  V30 656 C 64.4903 2.28341 0.198231 0
M  V30 657 C 65.5033 1.38141 0.861453 0
M  V30 658 O 66.6923 1.62797 0.732082 0
M  V30 659 C 63.7923 3.12986 1.29972 0
M  V30 660 C 62.9653 4.31271 0.729639 0
M  V30 661 C 62.0243 4.97363 1.71803 0
M  V30 662 O 61.0503 5.55156 1.25658 0
M  V30 663 N 62.2523 4.93796 3.05198 0
M  V30 664 H 65.0173 2.9546 -0.502324 0
M  V30 665 H 62.5783 1.56525 -0.413715 0
M  V30 666 H 64.5703 3.54066 1.96008 0
M  V30 667 H 63.1403 2.47984 1.90323 0
M  V30 668 H 62.3603 3.94052 -0.108012 0
M  V30 669 H 63.6483 5.07739 0.328438 0
M  V30 670 H 63.0463 4.48077 3.45317 0
M  V30 671 H 61.6033 5.38837 3.6674 0
M  V30 672 N 65.0364 0.313813 1.54444 0
M  V30 673 C 66.2854 -0.292519 1.99568 0
M  V30 674 C 66.5984 -1.54011 1.20582 0
M  V30 675 O 67.8044 -2.22183 1.56035 0
M  V30 676 C 66.2604 -0.571752 3.55329 0
M  V30 677 C 65.8684 0.658229 4.43138 0
M  V30 678 C 67.6124 -1.13857 4.08946 0
M  V30 679 C 65.5194 0.351439 5.90355 0
M  V30 680 H 64.4494 -0.113079 0.745472 0
M  V30 681 H 67.1004 0.424518 1.78522 0
M  V30 682 H 65.4824 -1.34872 3.72325 0
M  V30 683 H 66.6564 1.43403 4.37918 0
M  V30 684 H 64.9714 1.14458 4.0036 0
M  V30 685 H 67.5684 -1.38257 5.16516 0
M  V30 686 H 67.9114 -2.08489 3.6033 0
M  V30 687 H 68.4444 -0.423015 3.95544 0
M  V30 688 H 65.1834 1.26667 6.43145 0
M  V30 689 H 64.7034 -0.386842 5.98551 0
M  V30 690 H 66.3824 -0.0423134 6.46986 0
M  V30 691 N 66.5145 -1.57545 0.0417849 0
M  V30 692 C 67.4445 -2.14009 -0.933929 0
M  V30 693 C 68.4255 -1.05938 -1.33083 0
M  V30 694 O 69.6105 -1.33833 -1.40721 0
M  V30 695 C 66.7405 -2.67747 -2.21199 0
M  V30 696 C 65.6945 -3.80718 -1.95544 0
M  V30 697 C 65.0205 -4.20935 -3.29724 0
M  V30 698 C 66.3205 -5.06258 -1.28452 0
M  V30 699 H 68.0145 -2.95788 -0.463645 0
M  V30 700 H 65.5605 -1.42285 -0.221573 0
M  V30 701 H 67.5135 -3.05886 -2.89848 0
M  V30 702 H 66.2375 -1.83147 -2.70416 0
M  V30 703 H 64.8965 -3.43037 -1.2931 0
M  V30 704 H 64.5445 -3.33298 -3.76724 0
M  V30 705 H 64.2445 -4.9707 -3.13361 0
M  V30 706 H 65.7685 -4.61666 -3.9962 0
M  V30 707 H 67.1825 -5.41903 -1.8712 0
M  V30 708 H 65.5795 -5.87475 -1.22445 0
M  V30 709 H 66.6495 -4.84207 -0.259219 0
M  V30 710 N 67.9926 0.231505 -1.5589 0
M  V30 711 C 68.9226 1.29022 -1.94617 0
M  V30 712 C 69.9036 1.4941 -0.813067 0
M  V30 713 O 71.0886 1.6176 -1.07459 0
M  V30 714 C 68.2186 2.64199 -2.25424 0
M  V30 715 C 67.1726 2.58484 -3.41131 0
M  V30 716 C 66.4986 3.97599 -3.57518 0
M  V30 717 C 67.7986 2.1413 -4.76388 0
M  V30 718 H 69.4926 0.968563 -2.83301 0
M  V30 719 H 67.0386 0.464479 -1.36303 0
M  V30 720 H 68.9916 3.38413 -2.51107 0
M  V30 721 H 67.7156 2.98032 -1.33583 0
M  V30 722 H 66.3746 1.86727 -3.15481 0
M  V30 723 H 66.0226 4.28723 -2.6307 0
M  V30 724 H 65.7226 3.94659 -4.35337 0
M  V30 725 H 67.2466 4.7349 -3.85538 0
M  V30 726 H 68.6606 2.78083 -5.01341 0
M  V30 727 H 67.0576 2.2227 -5.57419 0
M  V30 728 H 68.1276 1.09331 -4.72414 0
M  V30 729 N 69.4707 1.49531 0.497807 0
M  V30 730 C 70.7007 1.62657 1.27382 0
M  V30 731 C 71.1087 0.298488 1.86831 0
M  V30 732 O 70.4517 -0.72647 1.68725 0
M  V30 733 C 70.5137 2.6393 2.44093 0
M  V30 734 C 70.1777 4.08195 2.05489 0
M  V30 735 C 71.1747 4.949 1.59279 0
M  V30 736 C 68.8597 4.53948 2.15026 0
M  V30 737 C 70.8537 6.25397 1.23113 0
M  V30 738 C 68.5407 5.84458 1.78473 0
M  V30 739 C 69.5387 6.70006 1.32591 0
M  V30 740 O 69.2267 7.98083 0.965327 0
M  V30 741 H 68.9587 0.550429 0.392434 0
M  V30 742 H 71.5127 1.96325 0.603801 0
M  V30 743 H 69.7427 2.25449 3.14181 0
M  V30 744 H 71.4317 2.66552 3.06113 0
M  V30 745 H 72.1977 4.60779 1.51354 0
M  V30 746 H 68.0767 3.87525 2.4969 0
M  V30 747 H 71.6207 6.92125 0.872299 0
M  V30 748 H 67.5177 6.18107 1.86048 0
M  V30 749 H 68.2857 8.11122 1.09652 0
M  V30 750 N 70.9488 -0.749086 1.3866 0
M  V30 751 C 72.1738 -1.54344 1.38538 0
M  V30 752 C 72.5988 -1.88088 -0.0216655 0
M  V30 753 O 71.9568 -1.50899 -1.00494 0
M  V30 754 C 72.0048 -2.8164 2.25192 0
M  V30 755 O 71.1088 -3.7698 1.67212 0
M  V30 756 H 70.4498 -0.466654 0.472367 0
M  V30 757 H 72.9798 -0.925355 1.82478 0
M  V30 758 H 72.9898 -3.30519 2.3921 0
M  V30 759 H 71.6648 -2.56411 3.27454 0
M  V30 760 H 70.2418 -3.35699 1.6236 0
M  V30 761 N 72.4269 -1.23603 -0.977757 0
M  V30 762 C 73.3569 -1.04401 -2.0886 0
M  V30 763 C 74.3379 0.0399052 -1.70053 0
M  V30 764 O 75.5229 -0.125246 -1.93796 0
M  V30 765 C 72.6529 -0.637269 -3.41403 0
M  V30 766 C 71.6069 -1.66883 -3.94124 0
M  V30 767 C 70.9329 -1.11745 -5.22893 0
M  V30 768 C 72.2329 -3.06247 -4.23096 0
M  V30 769 H 73.9269 -1.97316 -2.25182 0
M  V30 770 H 71.4729 -0.950096 -1.08209 0
M  V30 771 H 73.4259 -0.48998 -4.18542 0
M  V30 772 H 72.1499 0.327557 -3.24953 0
M  V30 773 H 70.8089 -1.80416 -3.19133 0
M  V30 774 H 70.4569 -0.143527 -5.02795 0
M  V30 775 H 70.1569 -1.80672 -5.59134 0
M  V30 776 H 71.6809 -0.982067 -6.02651 0
M  V30 777 H 73.0949 -2.96001 -4.90975 0
M  V30 778 H 71.4919 -3.72436 -4.70544 0
M  V30 779 H 72.5619 -3.55041 -3.30263 0
M  V30 780 N 73.905 1.17692 -1.04816 0
M  V30 781 C 75.154 1.87192 -0.751132 0
M  V30 782 C 75.467 1.8169 0.724441 0
M  V30 783 O 76.673 2.46625 1.13527 0
M  V30 784 C 75.129 3.35857 -1.29338 0
M  V30 785 C 74.737 3.4987 -2.79812 0
M  V30 786 C 76.481 4.10709 -1.07322 0
M  V30 787 C 74.388 4.92536 -3.27356 0
M  V30 788 H 73.318 0.701162 -0.277288 0
M  V30 789 H 75.969 1.32932 -1.26496 0
M  V30 790 H 74.351 3.89631 -0.707376 0
M  V30 791 H 75.525 3.06332 -3.44235 0
M  V30 792 H 73.84 2.88433 -3.00325 0
M  V30 793 H 76.437 5.15952 -1.4035 0
M  V30 794 H 76.78 4.16299 -0.0108001 0
M  V30 795 H 77.313 3.6313 -1.62423 0
M  V30 796 H 74.052 4.92119 -4.33012 0
M  V30 797 H 73.572 5.3676 -2.67673 0
M  V30 798 H 75.251 5.61288 -3.21815 0
M  V30 799 N 75.3831 0.828654 1.34056 0
M  V30 800 C 76.6301 0.419458 1.98108 0
M  V30 801 C 76.9581 -1.01886 1.65679 0
M  V30 802 O 76.2131 -1.72539 0.923512 0
M  V30 803 C 76.5121 0.575226 3.52741 0
M  V30 804 C 76.1781 1.98012 4.05095 0
M  V30 805 C 74.8401 2.36442 4.19104 0
M  V30 806 C 77.1921 2.89824 4.33188 0
M  V30 807 C 74.5201 3.66009 4.58535 0
M  V30 808 C 76.8721 4.1886 4.74066 0
M  V30 809 C 75.5361 4.5726 4.86281 0
M  V30 810 H 74.8061 0.153491 0.724929 0
M  V30 811 H 77.4531 1.05371 1.59904 0
M  V30 812 H 75.7581 -0.142385 3.91541 0
M  V30 813 H 77.4551 0.239057 4.00287 0
M  V30 814 H 74.0451 1.67162 3.94658 0
M  V30 815 H 78.2291 2.61375 4.21897 0
M  V30 816 H 73.4851 3.95579 4.66184 0
M  V30 817 H 77.6591 4.90086 4.94761 0
M  V30 818 H 75.2861 5.57707 5.16592 0
M  V30 819 N 76.8612 -1.46375 0.584142 0
M  V30 820 C 77.7912 -2.33103 -0.136037 0
M  V30 821 C 78.7722 -1.45431 -0.882255 0
M  V30 822 O 79.9572 -1.74246 -0.857434 0
M  V30 823 C 77.0872 -3.27731 -1.14933 0
M  V30 824 C 76.0412 -4.24855 -0.517862 0
M  V30 825 C 75.3672 -5.09001 -1.63773 0
M  V30 826 C 76.6672 -5.19439 0.545886 0
M  V30 827 H 78.3612 -2.93568 0.588086 0
M  V30 828 H 75.9072 -1.41166 0.284259 0
M  V30 829 H 77.8602 -3.87261 -1.66153 0
M  V30 830 H 76.5842 -2.65377 -1.90375 0
M  V30 831 H 75.2432 -3.6659 -0.0267361 0
M  V30 832 H 74.8912 -4.43031 -2.38185 0
M  V30 833 H 74.5912 -5.74777 -1.22085 0
M  V30 834 H 76.1152 -5.71396 -2.15266 0
M  V30 835 H 77.5292 -5.73177 0.118704 0
M  V30 836 H 75.9262 -5.93566 0.88317 0
M  V30 837 H 76.9962 -4.63285 1.43162 0
M  V30 838 N 78.3393 -0.321999 -1.54275 0
M  V30 839 C 79.2693 0.537411 -2.27231 0
M  V30 840 C 80.2503 1.12064 -1.27968 0
M  V30 841 O 81.4353 1.14606 -1.56777 0
M  V30 842 C 78.5653 1.69919 -3.02894 0
M  V30 843 C 77.5193 1.24534 -4.09482 0
M  V30 844 C 76.8453 2.49394 -4.72977 0
M  V30 845 C 78.1453 0.361335 -5.21049 0
M  V30 846 H 79.8393 -0.0711406 -2.99315 0
M  V30 847 H 77.3853 -0.0356555 -1.43956 0
M  V30 848 H 79.3383 2.30668 -3.52662 0
M  V30 849 H 78.0623 2.33431 -2.28424 0
M  V30 850 H 76.7213 0.660782 -3.60596 0
M  V30 851 H 76.3693 3.11265 -3.95124 0
M  V30 852 H 76.0693 2.19718 -5.44975 0
M  V30 853 H 77.5933 3.10908 -5.25517 0
M  V30 854 H 79.0073 0.875072 -5.66582 0
M  V30 855 H 77.4043 0.157428 -5.99893 0
M  V30 856 H 78.4743 -0.60822 -4.8107 0
M  V30 857 N 79.8174 1.5752 -0.0501392 0
M  V30 858 C 81.0424 1.97376 0.636997 0
M  V30 859 C 81.4674 0.927466 1.63645 0
M  V30 860 O 80.8254 -0.10941 1.8097 0
M  V30 861 C 80.8734 3.36304 1.30123 0
M  V30 862 O 79.9774 3.34156 2.41689 0
M  V30 863 H 79.3184 0.642998 0.165679 0
M  V30 864 H 81.8484 2.04258 -0.118233 0
M  V30 865 H 81.8584 3.73008 1.65315 0
M  V30 866 H 80.5334 4.11993 0.568746 0
M  V30 867 H 79.1104 3.09196 2.08451 0
M  V30 868 N 81.2955 -0.223234 1.56011 0
M  V30 869 C 82.5415 -0.949279 1.79211 0
M  V30 870 C 82.8745 -1.84054 0.619494 0
M  V30 871 O 82.1495 -1.90726 -0.381317 0
M  V30 872 C 82.4325 -1.78965 3.12479 0
M  V30 873 C 82.2855 -0.924997 4.40186 0
M  V30 874 C 83.6045 -2.76774 3.42175 0
M  V30 875 H 80.7235 -0.343676 0.651963 0
M  V30 876 H 83.3655 -0.218253 1.88742 0
M  V30 877 H 81.5155 -2.41291 3.04485 0
M  V30 878 H 83.1875 -0.318615 4.60198 0
M  V30 879 H 81.4305 -0.230344 4.33188 0
M  V30 880 H 82.1015 -1.54735 5.29869 0
M  V30 881 H 84.5775 -2.24584 3.50287 0
M  V30 882 H 83.4535 -3.32678 4.36597 0
M  V30 883 H 83.7145 -3.54429 2.64258 0
M  V30 884 N 82.7736 -1.49793 -0.48987 0
M  V30 885 C 83.7036 -1.70201 -1.59856 0
M  V30 886 C 84.6846 -0.55076 -1.60937 0
M  V30 887 O 85.8696 -0.787841 -1.77501 0
M  V30 888 C 82.9996 -1.77882 -2.98287 0
M  V30 889 C 81.9536 -2.92907 -3.12073 0
M  V30 890 C 81.2796 -2.85712 -4.51965 0
M  V30 891 C 82.5796 -4.3369 -2.91051 0
M  V30 892 H 84.2736 -2.63025 -1.43032 0
M  V30 893 H 81.8196 -1.26574 -0.686664 0
M  V30 894 H 83.7726 -1.90744 -3.75759 0
M  V30 895 H 82.4966 -0.816653 -3.16225 0
M  V30 896 H 81.1556 -2.79665 -2.37029 0
M  V30 897 H 80.8036 -1.8738 -4.66795 0
M  V30 898 H 80.5036 -3.62921 -4.62128 0
M  V30 899 H 82.0276 -3.00598 -5.31482 0
M  V30 900 H 83.4416 -4.47555 -3.58284 0
M  V30 901 H 81.8386 -5.12205 -3.12675 0
M  V30 902 H 82.9086 -4.47362 -1.87071 0
M  V30 903 N 84.2517 0.741722 -1.39055 0
M  V30 904 C 85.4997 1.49818 -1.35643 0
M  V30 905 C 85.8207 1.94938 0.0491642 0
M  V30 906 O 85.0907 1.68505 0.999141 0
M  V30 907 H 83.6707 0.555755 -0.499144 0
M  V30 908 H 86.3327 0.880957 -1.73854 0
M  V30 909 H 85.4287 2.38348 -2.01486 0
M  V30 910 N 85.7298 1.2412 0.971189 0
M  V30 911 C 86.6778 1.02812 2.08644 0
M  V30 912 C 87.6718 -0.0358403 1.69362 0
M  V30 913 O 88.8778 0.118429 1.7961 0
M  V30 914 H 85.2528 0.315428 0.682649 0
M  V30 915 H 87.2238 1.97397 2.23779 0
M  V30 916 C 85.9728 0.645874 3.41649 0
M  V30 917 H 85.2958 1.45632 3.72332 0
M  V30 918 H 86.7358 0.536366 4.20594 0
M  V30 919 C 85.1948 -0.646713 3.30635 0
M  V30 920 O 85.7248 -1.69338 3.64263 0
M  V30 921 N 83.9308 -0.626115 2.83775 0
M  V30 922 H 83.4778 0.225988 2.56607 0
M  V30 923 H 83.4358 -1.49117 2.76788 0
M  V30 924 N 87.2079 -1.17134 1.05439 0
M  V30 925 C 88.4359 -1.91372 0.786414 0
M  V30 926 C 88.8509 -1.76955 -0.658202 0
M  V30 927 O 88.2079 -1.10838 -1.44987 0
M  V30 928 C 88.2589 -3.42356 1.1608 0
M  V30 929 O 87.9799 -3.56332 2.54871 0
M  V30 930 C 89.4809 -4.33663 0.919322 0
M  V30 931 H 86.7009 -0.607118 0.285743 0
M  V30 932 H 89.2449 -1.48525 1.40572 0
M  V30 933 H 87.3999 -3.82939 0.586191 0
M  V30 934 H 87.8139 -4.49896 2.69618 0
M  V30 935 H 89.2879 -5.38099 1.231 0
M  V30 936 H 89.7649 -4.38959 -0.145359 0
M  V30 937 H 90.3709 -3.98796 1.47789 0
M  V30 938 N 88.686 -0.835752 -1.33615 0
M  V30 939 C 89.616 -0.281739 -2.31794 0
M  V30 940 C 90.597 0.608833 -1.58831 0
M  V30 941 O 91.782 0.533035 -1.86741 0
M  V30 942 C 88.912 0.546612 -3.42971 0
M  V30 943 C 87.866 -0.247904 -4.27281 0
M  V30 944 C 87.192 0.704001 -5.30045 0
M  V30 945 C 88.492 -1.46324 -5.01385 0
M  V30 946 H 90.186 -1.10206 -2.78379 0
M  V30 947 H 87.732 -0.531388 -1.33837 0
M  V30 948 H 89.685 0.944467 -4.1068 0
M  V30 949 H 88.409 1.40011 -2.95067 0
M  V30 950 H 87.068 -0.627281 -3.61194 0
M  V30 951 H 86.716 1.55381 -4.78399 0
M  V30 952 H 86.416 0.176524 -5.87335 0
M  V30 953 H 87.94 1.09944 -6.0062 0
M  V30 954 H 89.354 -1.13871 -5.61877 0
M  V30 955 H 87.751 -1.92728 -5.6831 0
M  V30 956 H 88.821 -2.23467 -4.30338 0
M  V30 957 N 90.1641 1.46063 -0.591896 0
M  V30 958 C 91.4101 2.02638 -0.0811191 0
M  V30 959 C 91.7431 1.4613 1.27905 0
M  V30 960 O 91.0181 0.629908 1.84017 0
M  V30 961 C 91.3011 3.60091 -0.0252436 0
M  V30 962 C 91.1541 4.26965 -1.41496 0
M  V30 963 C 92.4731 4.3496 0.670685 0
M  V30 964 H 89.5921 0.73635 -0.0309524 0
M  V30 965 H 92.2341 1.741 -0.760859 0
M  V30 966 H 90.3841 3.84535 0.553624 0
M  V30 967 H 92.0561 4.13756 -2.0397 0
M  V30 968 H 90.2991 3.85971 -1.98011 0
M  V30 969 H 90.9701 5.35781 -1.32825 0
M  V30 970 H 93.4461 4.15716 0.178825 0
M  V30 971 H 92.3221 5.44686 0.678837 0
M  V30 972 H 92.5831 4.06685 1.73379 0
M  V30 973 N 91.6422 0.330177 1.54103 0
M  V30 974 C 92.8912 -0.271336 1.99867 0
M  V30 975 C 93.2042 -1.52723 1.22209 0
M  V30 976 O 94.4102 -2.20515 1.58383 0
M  V30 977 C 92.8662 -0.534032 3.55916 0
M  V30 978 C 92.4742 0.705193 4.42415 0
M  V30 979 C 94.2182 -1.09514 4.1013 0
M  V30 980 C 92.1252 0.414035 5.89949 0
M  V30 981 H 91.0552 -0.105166 0.74663 0
M  V30 982 H 93.7062 0.443429 1.78062 0
M  V30 983 H 92.0882 -1.30915 3.73734 0
M  V30 984 H 93.2622 1.4804 4.36372 0
M  V30 985 H 91.5772 1.18698 3.99124 0
M  V30 986 H 94.1742 -1.3277 5.17954 0
M  V30 987 H 94.5172 -2.04656 3.62521 0
M  V30 988 H 95.0502 -0.381038 3.95971 0
M  V30 989 H 91.7892 1.33481 6.41766 0
M  V30 990 H 91.3092 -0.323336 5.98928 0
M  V30 991 H 92.9882 0.0263105 6.46995 0
M  V30 992 N 93.1203 -1.57491 0.0584922 0
M  V30 993 C 94.3483 -1.97296 -0.623037 0
M  V30 994 C 94.7633 -0.936338 -1.63946 0
M  V30 995 O 94.1203 0.0785981 -1.82331 0
M  V30 996 C 94.1713 -3.37183 -1.30345 0
M  V30 997 O 93.8923 -4.36872 -0.32773 0
M  V30 998 C 95.3933 -3.91788 -2.07406 0
M  V30 999 H 92.6133 -0.649153 -0.169826 0
M  V30 1000 H 95.1573 -2.04106 0.12696 0
M  V30 1001 H 93.3123 -3.31502 -2.00463 0
M  V30 1002 H 93.7263 -5.18141 -0.814269 0
M  V30 1003 H 95.2003 -4.91926 -2.50425 0
M  V30 1004 H 95.6773 -3.27609 -2.92521 0
M  V30 1005 H 96.2833 -4.00829 -1.42184 0
M  V30 1006 N 94.5984 0.214957 -1.56127 0
M  V30 1007 C 95.8444 0.939762 -1.79712 0
M  V30 1008 C 96.1774 1.83723 -0.629247 0
M  V30 1009 O 95.4524 1.90925 0.371197 0
M  V30 1010 C 95.7354 1.77306 -3.13424 0
M  V30 1011 C 95.5884 0.90164 -4.40671 0
M  V30 1012 C 96.9074 2.74956 -3.43638 0
M  V30 1013 H 94.0264 0.340214 -0.653776 0
M  V30 1014 H 96.6684 0.20824 -1.88855 0
M  V30 1015 H 94.8184 2.39673 -3.0576 0
M  V30 1016 H 96.4904 0.294206 -4.60361 0
M  V30 1017 H 94.7334 0.207368 -4.33304 0
M  V30 1018 H 95.4044 1.51923 -5.30682 0
M  V30 1019 H 97.8804 2.22724 -3.51473 0
M  V30 1020 H 96.7564 3.30358 -4.38355 0
M  V30 1021 H 97.0174 3.53023 -2.66134 0
M  V30 1022 N 96.0765 1.50051 0.48192 0
M  V30 1023 C 97.0065 1.71046 1.58951 0
M  V30 1024 C 97.9875 0.559288 1.60642 0
M  V30 1025 O 99.1725 0.797243 1.77081 0
M  V30 1026 C 96.3025 1.79462 2.97339 0
M  V30 1027 C 95.2565 2.94558 3.10515 0
M  V30 1028 C 94.5825 2.88105 4.50444 0
M  V30 1029 C 95.8825 4.35227 2.88747 0
M  V30 1030 H 97.5765 2.6378 1.41635 0
M  V30 1031 H 95.1225 1.26936 0.679942 0
M  V30 1032 H 97.0755 1.92734 3.74742 0
M  V30 1033 H 95.7995 0.833412 3.15788 0
M  V30 1034 H 94.4585 2.80918 2.35543 0
M  V30 1035 H 94.1065 1.89853 4.65795 0
M  V30 1036 H 93.8065 3.65366 4.60197 0
M  V30 1037 H 95.3305 3.03412 5.29881 0
M  V30 1038 H 96.7445 4.49449 3.55905 0
M  V30 1039 H 95.1415 5.13856 3.09955 0
M  V30 1040 H 96.2115 4.48347 1.84696 0
M  V30 1041 N 97.5546 -0.734337 1.39446 0
M  V30 1042 C 98.8036 -1.48937 1.36017 0
M  V30 1043 C 99.1166 -1.95557 -0.0409005 0
M  V30 1044 O 100.323 -2.70779 -0.19778 0
M  V30 1045 C 98.7786 -2.69125 2.38955 0
M  V30 1046 C 98.3866 -2.29452 3.8478 0
M  V30 1047 C 100.131 -3.46944 2.44603 0
M  V30 1048 C 98.0376 -3.46366 4.79358 0
M  V30 1049 H 96.9676 -0.559296 0.505672 0
M  V30 1050 H 99.6186 -0.800983 1.65095 0
M  V30 1051 H 98.0006 -3.40041 2.02948 0
M  V30 1052 H 99.1746 -1.66077 4.29831 0
M  V30 1053 H 97.4896 -1.64723 3.82433 0
M  V30 1054 H 100.087 -4.33907 3.12456 0
M  V30 1055 H 100.43 -3.89454 1.47076 0
M  V30 1056 H 100.963 -2.83056 2.79507 0
M  V30 1057 H 97.7016 -3.08905 5.78151 0
M  V30 1058 H 97.2216 -4.08719 4.38986 0
M  V30 1059 H 98.9006 -4.12691 4.98292 0
M  V30 1060 N 99.0327 -1.24633 -0.964593 0
M  V30 1061 C 100.449 -1.01239 -1.2338 0
M  V30 1062 C 100.649 0.2769 -1.99588 0
M  V30 1063 O 99.7047 0.992241 -2.32187 0
M  V30 1064 C 101.018 -2.22937 -2.01791 0
M  V30 1065 C 102.566 -2.27594 -2.14872 0
M  V30 1066 C 103.041 -3.48921 -2.96678 0
M  V30 1067 N 104.532 -3.49257 -3.04259 0
M  V30 1068 C 105.267 -4.39795 -3.67924 0
M  V30 1069 N 104.763 -5.40591 -4.33281 0
M  V30 1070 N 106.556 -4.275 -3.64966 0
M  V30 1071 H 98.7067 -2.0748 -0.454502 0
M  V30 1072 H 100.97 -0.910647 -0.26349 0
M  V30 1073 H 100.676 -3.16587 -1.53184 0
M  V30 1074 H 100.55 -2.25306 -3.02518 0
M  V30 1075 H 102.937 -1.34473 -2.6268 0
M  V30 1076 H 103.018 -2.2925 -1.13482 0
M  V30 1077 H 102.662 -4.42359 -2.49562 0
M  V30 1078 H 102.592 -3.4451 -3.98272 0
M  V30 1079 H 105.083 -2.76337 -2.57771 0
M  V30 1080 H 105.396 -6.05904 -4.79687 0
M  V30 1081 H 103.741 -5.44475 -4.3194 0
M  V30 1082 H 106.932 -3.47987 -3.13086 0
M  V30 1083 H 107.105 -4.98258 -4.14298 0
M  V30 1084 N 100.511 1.16574 -1.06058 0
M  V30 1085 C 101.459 2.22941 -0.663343 0
M  V30 1086 C 102.453 1.66358 0.319593 0
M  V30 1087 O 103.659 1.7905 0.184713 0
M  V30 1088 H 100.034 0.725907 -0.196376 0
M  V30 1089 H 102.005 2.53736 -1.57037 0
M  V30 1090 C 100.754 3.47642 -0.0632808 0
M  V30 1091 H 100.077 3.91493 -0.810733 0
M  V30 1092 H 101.517 4.2363 0.177177 0
M  V30 1093 C 99.9758 3.1509 1.19248 0
M  V30 1094 O 100.506 3.30673 2.28075 0
M  V30 1095 N 98.7118 2.6924 1.09353 0
M  V30 1096 H 98.2588 2.5676 0.207912 0
M  V30 1097 H 98.2168 2.47833 1.93458 0
M  V30 1098 N 101.989 0.842826 1.3317 0
M  V30 1099 C 102.936 0.276885 2.29133 0
M  V30 1100 C 103.906 -0.609527 1.54512 0
M  V30 1101 O 105.091 -0.546955 1.82792 0
M  V30 1102 C 102.231 -0.538707 3.40869 0
M  V30 1103 C 101.344 0.372169 4.30394 0
M  V30 1104 C 100.479 -0.454908 5.29249 0
M  V30 1105 C 99.5179 0.45411 6.10413 0
M  V30 1106 N 98.6549 -0.335075 7.013 0
M  V30 1107 H 103.495 1.10052 2.76934 0
M  V30 1108 H 101.032 0.554161 1.36262 0
M  V30 1109 H 102.99 -1.02709 4.0436 0
M  V30 1110 H 101.62 -1.32727 2.9425 0
M  V30 1111 H 100.672 0.97888 3.6759 0
M  V30 1112 H 101.984 1.0703 4.87182 0
M  V30 1113 H 101.138 -1.00695 5.98285 0
M  V30 1114 H 99.8769 -1.18646 4.73048 0
M  V30 1115 H 98.8819 1.01813 5.40291 0
M  V30 1116 H 100.107 1.18409 6.68697 0
M  V30 1117 H 98.0529 -1.04994 6.47543 0
M  V30 1118 H 97.9699 0.304262 7.55387 0
M  V30 1119 H 99.2379 -0.869224 7.74638 0
M  V30 1120 N 103.467 -1.45747 0.599634 0
M  V30 1121 C 104.883 -1.57424 0.26264 0
M  V30 1122 C 105.083 -1.59222 -1.23493 0
M  V30 1123 O 104.139 -1.51825 -2.01756 0
M  V30 1124 C 105.452 -2.86061 0.926795 0
M  V30 1125 C 107 -2.99722 0.901967 0
M  V30 1126 C 107.475 -4.31119 1.54598 0
M  V30 1127 N 108.966 -4.37858 1.5111 0
M  V30 1128 C 109.701 -5.3818 1.97863 0
M  V30 1129 N 109.197 -6.45083 2.52666 0
M  V30 1130 N 110.99 -5.29487 1.88679 0
M  V30 1131 H 103.141 -1.42823 1.57211 0
M  V30 1132 H 105.404 -0.68235 0.658105 0
M  V30 1133 H 105.11 -2.90605 1.98095 0
M  V30 1134 H 104.984 -3.74563 0.445238 0
M  V30 1135 H 107.371 -2.9475 -0.143617 0
M  V30 1136 H 107.452 -2.12652 1.42171 0
M  V30 1137 H 107.096 -4.36849 2.59085 0
M  V30 1138 H 107.026 -5.16992 1.00132 0
M  V30 1139 H 109.517 -3.61209 1.11068 0
M  V30 1140 H 109.83 -7.17869 2.86155 0
M  V30 1141 H 108.175 -6.45856 2.56701 0
M  V30 1142 H 111.366 -4.44877 1.4561 0
M  V30 1143 H 111.539 -6.07524 2.25429 0
M  V30 1144 N 104.945 -0.338344 -1.53925 0
M  V30 1145 C 105.878 0.563758 -2.21127 0
M  V30 1146 C 106.856 1.10433 -1.19345 0
M  V30 1147 O 108.04 1.16557 -1.48144 0
M  V30 1148 C 105.167 1.77505 -2.88461 0
M  V30 1149 C 104.213 1.3644 -4.04087 0
M  V30 1150 S 105.046 0.388593 -5.34088 0
M  V30 1151 C 106.202 1.60683 -6.04923 0
M  V30 1152 H 106.435 -0.00704546 -2.97299 0
M  V30 1153 H 103.968 -0.122418 -1.53914 0
M  V30 1154 H 105.926 2.46999 -3.27875 0
M  V30 1155 H 104.587 2.31706 -2.12064 0
M  V30 1156 H 103.78 2.26739 -4.50117 0
M  V30 1157 H 103.382 0.748998 -3.66423 0
M  V30 1158 H 105.674 2.54209 -6.28 0
M  V30 1159 H 106.617 1.18842 -6.98056 0
M  V30 1160 H 107.025 1.80052 -5.35015 0
M  V30 1161 N 106.423 1.57458 -0.0668435 0
M  V30 1162 C 107.839 1.56947 0.289772 0
M  V30 1163 C 108.039 1.07584 1.70376 0
M  V30 1164 O 107.095 0.739486 2.41429 0
M  V30 1165 C 108.408 3.0052 0.103943 0
M  V30 1166 C 109.956 3.12517 0.173857 0
M  V30 1167 C 110.431 4.57997 0.0163682 0
M  V30 1168 N 111.922 4.63144 0.0721352 0
M  V30 1169 C 112.657 5.73394 -0.0253794 0
M  V30 1170 N 112.153 6.92576 -0.176133 0
M  V30 1171 N 113.946 5.62091 0.0313305 0
M  V30 1172 H 106.097 1.87863 -0.991027 0
M  V30 1173 H 108.36 0.86583 -0.38606 0
M  V30 1174 H 108.066 3.40729 -0.871572 0
M  V30 1175 H 107.94 3.67304 0.858366 0
M  V30 1176 H 110.327 2.72197 1.13985 0
M  V30 1177 H 110.408 2.48381 -0.611586 0
M  V30 1178 H 110.052 4.99005 -0.946374 0
M  V30 1179 H 109.982 5.20158 0.821153 0
M  V30 1180 H 112.473 3.77436 0.187263 0
M  V30 1181 H 112.786 7.72418 -0.242821 0
M  V30 1182 H 111.131 6.94678 -0.211429 0
M  V30 1183 H 114.322 4.67867 0.147773 0
M  V30 1184 H 114.495 6.47982 -0.048121 0
M  V30 1185 N 107.901 -0.206675 1.56239 0
M  V30 1186 C 109.129 -0.945345 1.8404 0
M  V30 1187 C 109.544 -1.77336 0.647885 0
M  V30 1188 O 108.901 -1.78425 -0.383511 0
M  V30 1189 C 108.952 -1.8509 3.10522 0
M  V30 1190 O 108.673 -1.05634 4.25174 0
M  V30 1191 C 110.174 -2.70222 3.51418 0
M  V30 1192 H 107.394 -0.276372 0.61144 0
M  V30 1193 H 109.938 -0.217417 2.03341 0
M  V30 1194 H 108.093 -2.53259 2.93153 0
M  V30 1195 H 108.507 -1.67238 4.97124 0
M  V30 1196 H 109.981 -3.29438 4.42916 0
M  V30 1197 H 110.458 -3.43358 2.73864 0
M  V30 1198 H 111.064 -2.07443 3.71278 0
M  V30 1199 N 109.379 -1.50304 -0.473955 0
M  V30 1200 C 110.625 -1.61389 -1.22806 0
M  V30 1201 C 110.958 -0.311955 -1.91678 0
M  V30 1202 O 110.233 0.686384 -1.81986 0
M  V30 1203 C 110.516 -2.79219 -2.27396 0
M  V30 1204 C 110.369 -4.19286 -1.62848 0
M  V30 1205 C 111.688 -2.92614 -3.28732 0
M  V30 1206 H 108.807 -0.587399 -0.445119 0
M  V30 1207 H 111.449 -1.82681 -0.522265 0
M  V30 1208 H 109.599 -2.61195 -2.87592 0
M  V30 1209 H 111.271 -4.48892 -1.06271 0
M  V30 1210 H 109.514 -4.23677 -0.931693 0
M  V30 1211 H 110.185 -4.97655 -2.38838 0
M  V30 1212 H 112.661 -3.09105 -2.78556 0
M  V30 1213 H 111.537 -3.76688 -3.99246 0
M  V30 1214 H 111.798 -2.03107 -3.92683 0
M  V30 1215 N 110.857 0.726932 -1.39834 0
M  V30 1216 C 112.085 1.51613 -1.40787 0
M  V30 1217 C 112.5 1.88799 -0.00451505 0
M  V30 1218 O 111.857 1.54662 0.968809 0
M  V30 1219 C 111.908 2.79863 -2.28821 0
M  V30 1220 O 111.629 2.44253 -3.63692 0
M  V30 1221 C 113.13 3.73837 -2.38245 0
M  V30 1222 H 110.35 0.468264 -0.480593 0
M  V30 1223 H 112.894 0.897607 -1.83748 0
M  V30 1224 H 111.049 3.38027 -1.89252 0
M  V30 1225 H 111.463 3.26695 -4.1033 0
M  V30 1226 H 112.937 4.60699 -3.04073 0
M  V30 1227 H 113.414 4.16153 -1.40403 0
M  V30 1228 H 114.02 3.21589 -2.78317 0
M  V30 1229 N 112.336 1.25143 0.95797 0
M  V30 1230 C 113.284 1.05019 2.07542 0
M  V30 1231 C 114.278 -0.0178751 1.69391 0
M  V30 1232 O 115.484 0.137472 1.79474 0
M  V30 1233 H 111.859 0.32265 0.679265 0
M  V30 1234 H 113.83 1.99759 2.21673 0
M  V30 1235 C 112.579 0.682074 3.40944 0
M  V30 1236 H 111.902 1.49573 3.70767 0
M  V30 1237 H 113.342 0.580945 4.20001 0
M  V30 1238 C 111.801 -0.611608 3.31302 0
M  V30 1239 O 112.331 -1.65465 3.66038 0
M  V30 1240 N 110.537 -0.595982 2.84423 0
M  V30 1241 H 110.084 0.253192 2.56353 0
M  V30 1242 H 110.042 -1.46173 2.78354 0
M  V30 1243 N 113.814 -1.1601 1.06675 0
M  V30 1244 C 115.063 -1.85973 0.780818 0
M  V30 1245 C 115.376 -1.82819 -0.695444 0
M  V30 1246 O 116.582 -2.484 -1.09589 0
M  V30 1247 C 115.038 -3.33757 1.34665 0
M  V30 1248 C 114.646 -3.45374 2.85343 0
M  V30 1249 C 116.39 -4.0895 1.13843 0
M  V30 1250 C 114.297 -4.87266 3.35151 0
M  V30 1251 H 113.227 -0.696661 0.288407 0
M  V30 1252 H 115.878 -1.30903 1.28595 0
M  V30 1253 H 114.26 -3.88456 0.769274 0
M  V30 1254 H 115.434 -3.00816 3.49065 0
M  V30 1255 H 113.749 -2.83619 3.04876 0
M  V30 1256 H 116.346 -5.13654 1.4854 0
M  V30 1257 H 116.689 -4.16229 0.0770282 0
M  V30 1258 H 117.222 -3.605 1.68179 0
M  V30 1259 H 113.961 -4.85168 4.40786 0
M  V30 1260 H 113.481 -5.32433 2.76179 0
M  V30 1261 H 115.16 -5.56097 3.30704 0
M  V30 1262 N 115.292 -0.849877 -1.32721 0
M  V30 1263 C 116.539 -0.450923 -1.97416 0
M  V30 1264 C 116.867 0.992376 -1.67279 0
M  V30 1265 O 116.122 1.71048 -0.950845 0
M  V30 1266 C 116.421 -0.631272 -3.51781 0
M  V30 1267 C 116.087 -2.04432 -4.01894 0
M  V30 1268 C 114.749 -2.4308 -4.1529 0
M  V30 1269 C 117.101 -2.96679 -4.28522 0
M  V30 1270 C 114.429 -3.73257 -4.52654 0
M  V30 1271 C 116.781 -4.26349 -4.67343 0
M  V30 1272 C 115.445 -4.64939 -4.78945 0
M  V30 1273 H 114.715 -0.165004 -0.722395 0
M  V30 1274 H 117.362 -1.07901 -1.58207 0
M  V30 1275 H 115.667 0.0800767 -3.91718 0
M  V30 1276 H 117.364 -0.302709 -3.99856 0
M  V30 1277 H 113.954 -1.73419 -3.91949 0
M  V30 1278 H 118.138 -2.68054 -4.17685 0
M  V30 1279 H 113.394 -4.02946 -4.59831 0
M  V30 1280 H 117.568 -4.97895 -4.86902 0
M  V30 1281 H 115.195 -5.65855 -5.07654 0
M  V30 1282 N 116.77 1.45427 -0.607355 0
M  V30 1283 C 117.7 2.3329 0.0989352 0
M  V30 1284 C 118.681 1.46816 0.859007 0
M  V30 1285 O 119.866 1.75588 0.829604 0
M  V30 1286 C 116.996 3.29518 1.09705 0
M  V30 1287 C 115.95 4.25626 0.450206 0
M  V30 1288 C 115.276 5.11542 1.55655 0
M  V30 1289 C 116.576 5.18505 -0.628455 0
M  V30 1290 H 118.27 2.92595 -0.634716 0
M  V30 1291 H 115.816 1.40696 -0.306681 0
M  V30 1292 H 117.769 3.89855 1.59971 0
M  V30 1293 H 116.493 2.68372 1.86129 0
M  V30 1294 H 115.152 3.66586 -0.0315886 0
M  V30 1295 H 114.8 4.46765 2.31107 0
M  V30 1296 H 114.5 5.76647 1.12925 0
M  V30 1297 H 116.024 5.74748 2.06148 0
M  V30 1298 H 117.438 5.72916 -0.209877 0
M  V30 1299 H 115.835 5.92085 -0.977489 0
M  V30 1300 H 116.905 4.60948 -1.50514 0
M  V30 1301 N 118.248 0.346503 1.53744 0
M  V30 1302 C 119.178 -0.501193 2.28058 0
M  V30 1303 C 120.159 -1.10014 1.29734 0
M  V30 1304 O 121.344 -1.12097 1.58581 0
M  V30 1305 C 118.474 -1.65078 3.05559 0
M  V30 1306 C 117.428 -1.18003 4.11411 0
M  V30 1307 C 116.754 -2.41837 4.76884 0
M  V30 1308 C 118.054 -0.278394 5.21558 0
M  V30 1309 H 119.748 0.11875 2.99164 0
M  V30 1310 H 117.294 0.0585531 1.43881 0
M  V30 1311 H 119.247 -2.25028 3.56287 0
M  V30 1312 H 117.971 -2.29767 2.32109 0
M  V30 1313 H 116.63 -0.603331 3.61601 0
M  V30 1314 H 116.278 -3.0494 4.00026 0
M  V30 1315 H 115.978 -2.1102 5.48402 0
M  V30 1316 H 117.502 -3.02508 5.30397 0
M  V30 1317 H 118.916 -0.784823 5.67903 0
M  V30 1318 H 117.313 -0.0619707 6.00068 0
M  V30 1319 H 118.383 0.684677 4.80042 0
M  V30 1320 N 119.726 -1.57421 0.075193 0
M  V30 1321 C 120.951 -1.98364 -0.605515 0
M  V30 1322 C 121.376 -0.953383 -1.62149 0
M  V30 1323 O 120.734 0.0806053 -1.81121 0
M  V30 1324 C 120.782 -3.38332 -1.24756 0
M  V30 1325 O 119.886 -3.37959 -2.36342 0
M  V30 1326 H 119.227 -0.645553 -0.155428 0
M  V30 1327 H 121.757 -2.04044 0.150714 0
M  V30 1328 H 121.767 -3.75591 -1.5936 0
M  V30 1329 H 120.442 -4.12846 -0.503129 0
M  V30 1330 H 119.019 -3.12474 -2.03506 0
M  V30 1331 N 121.204 0.198386 -1.56346 0
M  V30 1332 C 122.134 1.24865 -1.9731 0
M  V30 1333 C 123.115 1.47651 -0.844576 0
M  V30 1334 O 124.3 1.59444 -1.10866 0
M  V30 1335 C 121.43 2.59358 -2.30977 0
M  V30 1336 C 120.384 2.5119 -3.46537 0
M  V30 1337 C 119.71 3.89926 -3.65871 0
M  V30 1338 C 121.01 2.03977 -4.80823 0
M  V30 1339 H 122.704 0.908252 -2.85291 0
M  V30 1340 H 120.25 0.435462 -1.37258 0
M  V30 1341 H 122.203 3.33011 -2.58228 0
M  V30 1342 H 120.927 2.95132 -1.39874 0
M  V30 1343 H 119.586 1.79993 -3.19371 0
M  V30 1344 H 119.234 4.23046 -2.72105 0
M  V30 1345 H 118.934 3.85336 -4.4361 0
M  V30 1346 H 120.458 4.65205 -3.95495 0
M  V30 1347 H 121.872 2.67386 -5.07127 0
M  V30 1348 H 120.269 2.10397 -5.62008 0
M  V30 1349 H 121.339 0.992861 -4.74626 0
M  V30 1350 N 122.682 1.50554 0.465978 0
M  V30 1351 C 123.645 1.69233 1.54574 0
M  V30 1352 C 124.645 0.562901 1.50626 0
M  V30 1353 O 125.835 0.830016 1.53155 0
M  V30 1354 C 122.967 1.7223 2.94193 0
M  V30 1355 H 124.16 2.65571 1.39327 0
M  V30 1356 H 121.713 1.40111 0.692711 0
M  V30 1357 H 122.448 0.77603 3.14878 0
M  V30 1358 H 122.233 2.54285 2.98466 0
M  V30 1359 H 123.723 1.88618 3.72576 0
M  V30 1360 N 124.16 -0.719506 1.40217 0
M  V30 1361 C 125.406 -1.48152 1.38488 0
M  V30 1362 C 125.739 -1.94195 -0.0141867 0
M  V30 1363 O 125.014 -1.67884 -0.982096 0
M  V30 1364 C 125.297 -2.71035 2.37091 0
M  V30 1365 C 125.15 -2.30912 3.86005 0
M  V30 1366 C 126.469 -3.73182 2.33288 0
M  V30 1367 H 123.588 -0.537395 0.504357 0
M  V30 1368 H 126.23 -0.821472 1.71324 0
M  V30 1369 H 124.38 -3.27352 2.0922 0
M  V30 1370 H 126.052 -1.80107 4.24687 0
M  V30 1371 H 124.295 -1.62958 4.02029 0
M  V30 1372 H 124.966 -3.18978 4.50508 0
M  V30 1373 H 127.442 -3.26485 2.57966 0
M  V30 1374 H 126.318 -4.56806 3.04334 0
M  V30 1375 H 126.579 -4.21202 1.34317 0
M  V30 1376 N 125.638 -1.25649 -0.95132 0
M  V30 1377 C 126.863 -1.13443 -1.73624 0
M  V30 1378 C 127.288 0.307565 -1.85568 0
M  V30 1379 O 126.646 1.22282 -1.33854 0
M  V30 1380 C 126.694 -1.79723 -3.12621 0
M  V30 1381 O 125.798 -1.07912 -3.98031 0
M  V30 1382 H 125.139 -0.395872 -0.533086 0
M  V30 1383 H 127.669 -1.66276 -1.1922 0
M  V30 1384 H 127.679 -1.86141 -3.63064 0
M  V30 1385 H 126.354 -2.84633 -3.03244 0
M  V30 1386 H 124.931 -1.09398 -3.56492 0
M  V30 1387 N 127.117 1.15442 -1.07289 0
M  V30 1388 C 128.394 1.82306 -0.708792 0
M  V30 1389 C 128.774 1.94991 0.808807 0
M  V30 1390 O 128.122 1.50085 1.72298 0
M  V30 1391 C 128.332 3.18695 -1.42247 0
M  V30 1392 C 129.68 3.94341 -1.57417 0
M  V30 1393 O 130.704 3.28247 -1.38319 0
M  V30 1394 O 129.563 5.12839 -1.88834 0
M  V30 1395 H 126.657 0.787628 -0.252132 0
M  V30 1396 H 129.203 1.22559 -1.17377 0
M  V30 1397 H 127.975 3.04557 -2.45684 0
M  V30 1398 H 127.598 3.86128 -0.948223 0
M  V30 1399 N 128.595 0.856903 1.32268 0
M  V30 1400 C 129.525 0.31858 2.31316 0
M  V30 1401 C 130.506 -0.583487 1.59779 0
M  V30 1402 O 131.691 -0.503259 1.87566 0
M  V30 1403 C 128.821 -0.491979 3.43798 0
M  V30 1404 C 127.775 0.315849 4.26833 0
M  V30 1405 C 127.101 -0.619586 5.31098 0
M  V30 1406 C 128.401 1.54282 4.98993 0
M  V30 1407 H 130.095 1.14621 2.76591 0
M  V30 1408 H 127.641 0.552613 1.32974 0
M  V30 1409 H 129.594 -0.879012 4.1213 0
M  V30 1410 H 128.318 -1.35299 2.97257 0
M  V30 1411 H 126.977 0.684664 3.6015 0
M  V30 1412 H 126.625 -1.47751 4.8081 0
M  V30 1413 H 126.325 -0.0830621 5.87541 0
M  V30 1414 H 127.849 -1.00375 6.02293 0
M  V30 1415 H 129.263 1.22796 5.59995 0
M  V30 1416 H 127.66 2.01745 5.65172 0
M  V30 1417 H 128.73 2.30285 4.26728 0
M  V30 1418 N 130.073 -1.45103 0.615059 0
M  V30 1419 C 131.006 -2.27717 -0.148408 0
M  V30 1420 C 131.984 -1.37584 -0.866572 0
M  V30 1421 O 133.168 -1.67017 -0.87393 0
M  V30 1422 C 130.295 -3.16136 -1.21557 0
M  V30 1423 C 129.341 -4.22263 -0.599712 0
M  V30 1424 S 130.174 -5.3215 0.598081 0
M  V30 1425 C 131.33 -6.24137 -0.469484 0
M  V30 1426 H 131.563 -2.92121 0.552483 0
M  V30 1427 H 129.096 -1.49054 0.402778 0
M  V30 1428 H 131.054 -3.67633 -1.82638 0
M  V30 1429 H 129.715 -2.50982 -1.88857 0
M  V30 1430 H 128.908 -4.84081 -1.4029 0
M  V30 1431 H 128.51 -3.73945 -0.063876 0
M  V30 1432 H 130.802 -6.63984 -1.34652 0
M  V30 1433 H 131.745 -7.0801 0.112725 0
M  V30 1434 H 132.153 -5.58971 -0.788168 0
M  V30 1435 N 131.551 -0.354651 -1.53558 0
M  V30 1436 C 132.481 0.489091 -2.2832 0
M  V30 1437 C 133.462 1.09324 -1.30316 0
M  V30 1438 O 134.647 1.11255 -1.59173 0
M  V30 1439 C 131.777 1.63456 -3.0643 0
M  V30 1440 C 130.731 1.1582 -4.12031 0
M  V30 1441 C 130.057 2.39305 -4.7816 0
M  V30 1442 C 131.357 0.250731 -5.21698 0
M  V30 1443 H 133.051 -0.134614 -2.99097 0
M  V30 1444 H 130.597 -0.0661826 -1.43848 0
M  V30 1445 H 132.55 2.23136 -3.57475 0
M  V30 1446 H 131.274 2.28533 -2.33325 0
M  V30 1447 H 129.933 0.584146 -3.61916 0
M  V30 1448 H 129.581 3.02814 -4.01637 0
M  V30 1449 H 129.281 2.08109 -5.49513 0
M  V30 1450 H 130.805 2.99691 -5.31994 0
M  V30 1451 H 132.219 0.754695 -5.68311 0
M  V30 1452 H 130.616 0.0301468 -6.00092 0
M  V30 1453 H 131.686 -0.710125 -4.79672 0
M  V30 1454 N 133.029 1.57378 -0.0835403 0
M  V30 1455 C 134.269 1.95808 0.586381 0
M  V30 1456 C 134.633 0.963706 1.66062 0
M  V30 1457 O 135.834 1.23608 2.38693 0
M  V30 1458 C 134.105 3.38808 1.13771 0
M  V30 1459 S 135.664 3.99225 1.82112 0
M  V30 1460 H 132.482 0.684675 0.191679 0
M  V30 1461 H 135.084 1.94843 -0.160194 0
M  V30 1462 H 133.788 4.08954 0.344197 0
M  V30 1463 H 133.319 3.43344 1.92038 0
M  V30 1464 H 135.334 3.87087 3.10449 0
M  V30 1465 N 134.507 -0.190092 1.56449 0
M  V30 1466 C 135.437 -1.23816 1.97969 0
M  V30 1467 C 136.418 -1.47201 0.852395 0
M  V30 1468 O 137.603 -1.58854 1.1171 0
M  V30 1469 C 134.733 -2.5813 2.3235 0
M  V30 1470 C 133.687 -2.49348 3.47864 0
M  V30 1471 C 133.013 -3.8798 3.67934 0
M  V30 1472 C 134.313 -2.01424 4.81898 0
M  V30 1473 H 136.007 -0.89311 2.85769 0
M  V30 1474 H 133.553 -0.428177 1.37487 0
M  V30 1475 H 135.506 -3.31637 2.59991 0
M  V30 1476 H 134.23 -2.94386 1.41438 0
M  V30 1477 H 132.889 -1.78297 3.20321 0
M  V30 1478 H 132.537 -4.21597 2.74344 0
M  V30 1479 H 132.237 -3.82978 4.45648 0
M  V30 1480 H 133.761 -4.63101 3.97957 0
M  V30 1481 H 135.175 -2.64693 5.08538 0
M  V30 1482 H 133.572 -2.07413 5.63116 0
M  V30 1483 H 134.642 -0.967677 4.75146 0
M  V30 1484 N 135.985 -1.50799 -0.457987 0
M  V30 1485 C 137.232 -1.62442 -1.20908 0
M  V30 1486 C 137.56 -0.330865 -1.91665 0
M  V30 1487 O 136.815 0.68401 -1.83357 0
M  V30 1488 C 137.114 -2.76358 -2.2663 0
M  V30 1489 C 136.78 -4.16378 -1.73033 0
M  V30 1490 C 135.442 -4.54473 -1.58138 0
M  V30 1491 C 137.794 -5.03836 -1.33413 0
M  V30 1492 C 135.122 -5.77754 -1.02065 0
M  V30 1493 C 137.474 -6.27676 -0.78778 0
M  V30 1494 C 136.138 -6.64562 -0.625561 0
M  V30 1495 H 135.408 -0.594417 -0.442435 0
M  V30 1496 H 138.055 -1.84772 -0.503136 0
M  V30 1497 H 136.36 -2.48167 -3.03184 0
M  V30 1498 H 138.057 -2.82568 -2.84528 0
M  V30 1499 H 134.647 -3.86331 -1.85598 0
M  V30 1500 H 138.831 -4.75026 -1.4375 0
M  V30 1501 H 134.087 -6.04997 -0.882547 0
M  V30 1502 H 138.261 -6.94797 -0.472177 0
M  V30 1503 H 135.888 -7.59965 -0.188926 0
M  V30 1504 N 137.463 0.71206 -1.40597 0
M  V30 1505 C 138.703 1.48438 -1.40519 0
M  V30 1506 C 139.067 1.91998 -0.00767611 0
M  V30 1507 O 140.268 2.6854 0.118239 0
M  V30 1508 C 138.539 2.67514 -2.37004 0
M  V30 1509 S 140.098 3.56875 -2.55315 0
M  V30 1510 H 136.916 0.507457 -0.498005 0
M  V30 1511 H 139.518 0.832355 -1.76896 0
M  V30 1512 H 138.222 2.33689 -3.37368 0
M  V30 1513 H 137.753 3.37625 -2.01923 0
M  V30 1514 H 139.768 4.62081 -1.8082 0
M  V30 1515 N 138.941 1.26152 0.944643 0
M  V30 1516 C 139.874 1.01729 2.04271 0
M  V30 1517 C 140.852 -0.0568101 1.62501 0
M  V30 1518 O 142.036 0.0848987 1.88309 0
M  V30 1519 C 139.163 0.539792 3.34371 0
M  V30 1520 C 138.209 1.60593 3.9511 0
M  V30 1521 S 139.042 3.19392 4.29825 0
M  V30 1522 C 140.198 2.73402 5.63029 0
M  V30 1523 H 140.431 1.94703 2.24673 0
M  V30 1524 H 137.964 1.09793 1.08558 0
M  V30 1525 H 139.922 0.270956 4.09605 0
M  V30 1526 H 138.583 -0.369609 3.11918 0
M  V30 1527 H 137.776 1.22275 4.88943 0
M  V30 1528 H 137.378 1.82596 3.26397 0
M  V30 1529 H 139.67 2.1765 6.41588 0
M  V30 1530 H 140.613 3.65913 6.06229 0
M  V30 1531 H 141.021 2.13077 5.22741 0
M  V30 1532 N 140.419 -1.14872 1.07899 0
M  V30 1533 C 141.83 -1.67367 0.827363 0
M  V30 1534 C 142.181 -1.85236 -0.646693 0
M  V30 1535 O 141.306 -1.55974 -1.50004 0
M  V30 1536 C 141.901 -3.04016 1.49532 0
M  V30 1537 C 140.46 -3.53566 1.29106 0
M  V30 1538 C 139.607 -2.29161 1.56143 0
M  V30 1539 H 142.558 -0.990083 1.24028 0
M  V30 1540 H 142.579 -3.69219 0.919643 0
M  V30 1541 H 142.091 -2.90978 2.56814 0
M  V30 1542 H 140.192 -3.71835 0.238713 0
M  V30 1543 H 140.305 -4.34661 2.01511 0
M  V30 1544 H 138.669 -2.34978 0.982717 0
M  V30 1545 H 139.452 -2.18705 2.64619 0
M  V30 1546 N 141.898 -0.863906 -1.31812 0
M  V30 1547 C 143.145 -0.471836 -1.96926 0
M  V30 1548 C 143.473 0.974578 -1.68322 0
M  V30 1549 O 142.728 1.7003 -0.968933 0
M  V30 1550 C 143.027 -0.668547 -3.51091 0
M  V30 1551 C 142.693 -2.08683 -3.99703 0
M  V30 1552 C 141.355 -2.47471 -4.12688 0
M  V30 1553 C 143.707 -3.01207 -4.25351 0
M  V30 1554 C 141.035 -3.78037 -4.4867 0
M  V30 1555 C 143.387 -4.31282 -4.62794 0
M  V30 1556 C 142.051 -4.69992 -4.73987 0
M  V30 1557 H 141.321 -0.172657 -0.720604 0
M  V30 1558 H 143.968 -1.09573 -1.57054 0
M  V30 1559 H 142.273 0.0385252 -3.91781 0
M  V30 1560 H 143.97 -0.345102 -3.99512 0
M  V30 1561 H 140.56 -1.77566 -3.90087 0
M  V30 1562 H 144.744 -2.72469 -4.14819 0
M  V30 1563 H 140 -4.078 -4.55532 0
M  V30 1564 H 144.174 -5.03031 -4.81594 0
M  V30 1565 H 141.801 -5.71207 -5.01624 0
M  V30 1566 N 143.376 1.44774 -0.622745 0
M  V30 1567 C 144.324 2.32387 0.0994683 0
M  V30 1568 C 145.318 1.46859 0.844326 0
M  V30 1569 O 146.524 1.63254 0.758174 0
M  V30 1570 H 142.899 0.750273 0.0509291 0
M  V30 1571 H 144.87 2.91062 -0.65767 0
M  V30 1572 C 143.619 3.30723 1.07319 0
M  V30 1573 H 142.942 3.96541 0.509462 0
M  V30 1574 H 144.382 3.94725 1.54817 0
M  V30 1575 C 142.841 2.59021 2.15429 0
M  V30 1576 O 143.371 2.38286 3.23393 0
M  V30 1577 N 141.577 2.189 1.91131 0
M  V30 1578 H 141.124 2.35964 1.03337 0
M  V30 1579 H 141.082 1.71251 2.63668 0
M  V30 1580 N 144.854 0.36279 1.53368 0
M  V30 1581 C 145.784 -0.476976 2.28576 0
M  V30 1582 C 146.765 -1.08631 1.30894 0
M  V30 1583 O 147.95 -1.10409 1.59761 0
M  V30 1584 C 145.08 -1.61828 3.07293 0
M  V30 1585 C 144.034 -1.13633 4.1264 0
M  V30 1586 C 143.36 -2.36766 4.79423 0
M  V30 1587 C 144.66 -0.223061 5.21823 0
M  V30 1588 H 146.354 0.150474 2.99022 0
M  V30 1589 H 143.9 0.0738103 1.43811 0
M  V30 1590 H 145.853 -2.21237 3.58653 0
M  V30 1591 H 144.577 -2.27292 2.34533 0
M  V30 1592 H 143.236 -0.564945 3.62221 0
M  V30 1593 H 142.884 -3.0068 4.03238 0
M  V30 1594 H 142.584 -2.05192 5.50609 0
M  V30 1595 H 144.108 -2.96865 5.33576 0
M  V30 1596 H 145.522 -0.724545 5.68703 0
M  V30 1597 H 143.919 0.001678 6.001 0
M  V30 1598 H 144.989 0.735553 4.79289 0
M  V30 1599 N 146.332 -1.57332 0.0918853 0
M  V30 1600 C 147.581 -1.93412 -0.572249 0
M  V30 1601 C 147.894 -0.975515 -1.69538 0
M  V30 1602 O 149.1 -1.22991 -2.42045 0
M  V30 1603 C 147.556 -3.43648 -1.0693 0
M  V30 1604 C 147.164 -4.47994 0.0239049 0
M  V30 1605 C 148.908 -3.88695 -1.70635 0
M  V30 1606 C 146.815 -5.89381 -0.488319 0
M  V30 1607 H 145.745 -0.721939 -0.217532 0
M  V30 1608 H 148.396 -1.82735 0.167369 0
M  V30 1609 H 146.778 -3.49466 -1.8625 0
M  V30 1610 H 147.952 -4.53815 0.799277 0
M  V30 1611 H 146.267 -4.12536 0.565946 0
M  V30 1612 H 148.864 -4.91725 -2.10025 0
M  V30 1613 H 149.207 -3.27166 -2.57426 0
M  V30 1614 H 149.74 -3.85564 -0.979023 0
M  V30 1615 H 146.479 -6.54602 0.342906 0
M  V30 1616 H 145.999 -5.87037 -1.23077 0
M  V30 1617 H 147.678 -6.39863 -0.958317 0
M  V30 1618 N 147.81 0.181792 -1.56548 0
M  V30 1619 C 149.221 0.745244 -1.71181 0
M  V30 1620 C 149.572 1.83262 -0.70068 0
M  V30 1621 O 148.697 2.15946 0.140154 0
M  V30 1622 C 149.292 1.35859 -3.10367 0
M  V30 1623 C 147.851 1.86898 -3.2672 0
M  V30 1624 C 146.998 0.743942 -2.67134 0
M  V30 1625 H 149.949 -0.0434661 -1.5864 0
M  V30 1626 H 149.97 2.22817 -3.08436 0
M  V30 1627 H 149.482 0.566948 -3.83937 0
M  V30 1628 H 147.583 2.68738 -2.5809 0
M  V30 1629 H 147.696 2.02162 -4.34359 0
M  V30 1630 H 146.06 1.16169 -2.26665 0
M  V30 1631 H 146.843 -0.035676 -3.43281 0
M  V30 1632 N 149.288 1.51039 0.449983 0
M  V30 1633 C 150.236 1.71995 1.5659 0
M  V30 1634 C 151.23 0.586029 1.5894 0
M  V30 1635 O 152.436 0.76709 1.62837 0
M  V30 1636 H 148.811 0.543233 0.520001 0
M  V30 1637 H 150.782 2.65562 1.36085 0
M  V30 1638 C 149.531 1.8506 2.9436 0
M  V30 1639 H 148.854 2.71712 2.93279 0
M  V30 1640 H 150.294 2.0374 3.71842 0
M  V30 1641 C 148.753 0.607277 3.31382 0
M  V30 1642 O 149.283 -0.243903 4.00959 0
M  V30 1643 N 147.489 0.455073 2.87015 0
M  V30 1644 H 147.036 1.14879 2.30566 0
M  V30 1645 H 146.994 -0.375611 3.12148 0
M  V30 1646 N 150.766 -0.704594 1.40972 0
M  V30 1647 C 151.696 -1.83124 1.44872 0
M  V30 1648 C 152.677 -1.67281 0.30838 0
M  V30 1649 O 153.862 -1.87149 0.518556 0
M  V30 1650 C 150.992 -3.21181 1.32136 0
M  V30 1651 C 149.946 -3.51714 2.43888 0
M  V30 1652 C 149.272 -4.89032 2.16222 0
M  V30 1653 C 150.572 -3.516 3.86232 0
M  V30 1654 H 152.266 -1.80117 2.39161 0
M  V30 1655 H 149.812 -0.865145 1.15114 0
M  V30 1656 H 151.765 -3.99702 1.33479 0
M  V30 1657 H 150.489 -3.24791 0.343279 0
M  V30 1658 H 149.148 -2.75539 2.41813 0
M  V30 1659 H 148.796 -4.89256 1.16778 0
M  V30 1660 H 148.496 -5.10426 2.911 0
M  V30 1661 H 150.02 -5.69873 2.19265 0
M  V30 1662 H 151.434 -4.2014 3.9007 0
M  V30 1663 H 149.831 -3.84523 4.60719 0
M  V30 1664 H 150.901 -2.50757 4.15029 0
M  V30 1665 N 152.244 -1.26651 -0.937939 0
M  V30 1666 C 153.174 -1.10993 -2.05433 0
M  V30 1667 C 154.155 -0.0142161 -1.70094 0
M  V30 1668 O 155.34 -0.186837 -1.93299 0
M  V30 1669 C 152.47 -0.745561 -3.39203 0
M  V30 1670 C 151.424 -1.79337 -3.88616 0
M  V30 1671 C 150.75 -1.28324 -5.19073 0
M  V30 1672 C 152.05 -3.19553 -4.13138 0
M  V30 1673 H 153.744 -2.0438 -2.1879 0
M  V30 1674 H 151.29 -0.984041 -1.05131 0
M  V30 1675 H 153.243 -0.622888 -4.16771 0
M  V30 1676 H 151.967 0.22401 -3.25831 0
M  V30 1677 H 150.626 -1.90477 -3.13231 0
M  V30 1678 H 150.274 -0.303414 -5.02084 0
M  V30 1679 H 149.974 -1.98369 -5.53103 0
M  V30 1680 H 151.498 -1.1733 -5.99221 0
M  V30 1681 H 152.912 -3.11471 -4.81309 0
M  V30 1682 H 151.309 -3.87218 -4.58457 0
M  V30 1683 H 152.379 -3.65368 -3.18801 0
M  V30 1684 N 153.722 1.14298 -1.08507 0
M  V30 1685 C 154.669 2.19414 -0.715965 0
M  V30 1686 C 155.639 1.63399 0.298326 0
M  V30 1687 O 156.824 1.89929 0.182101 0
M  V30 1688 C 153.964 3.44845 -0.132534 0
M  V30 1689 C 153.077 4.15007 -1.19973 0
M  V30 1690 C 152.212 5.28024 -0.580048 0
M  V30 1691 C 151.251 5.9002 -1.62921 0
M  V30 1692 N 150.388 6.94485 -1.03125 0
M  V30 1693 H 155.228 2.50336 -1.61666 0
M  V30 1694 H 152.765 1.2293 -0.807882 0
M  V30 1695 H 154.723 4.16601 0.223454 0
M  V30 1696 H 153.353 3.14403 0.731467 0
M  V30 1697 H 152.405 3.41629 -1.67313 0
M  V30 1698 H 153.717 4.57178 -1.99473 0
M  V30 1699 H 152.871 6.06455 -0.172364 0
M  V30 1700 H 151.61 4.87076 0.246603 0
M  V30 1701 H 150.615 5.10291 -2.04654 0
M  V30 1702 H 151.84 6.33042 -2.45835 0
M  V30 1703 H 149.786 6.55612 -0.225711 0
M  V30 1704 H 149.703 7.35148 -1.76334 0
M  V30 1705 H 150.971 7.7679 -0.649458 0
M  V30 1706 N 155.201 0.870884 1.31352 0
M  V30 1707 C 156.478 0.402907 1.91405 0
M  V30 1708 C 156.858 -1.11512 1.79244 0
M  V30 1709 O 156.206 -1.94411 1.2007 0
M  V30 1710 C 156.416 0.885301 3.37585 0
M  V30 1711 C 157.764 0.911971 4.14691 0
M  V30 1712 O 158.788 0.831016 3.46371 0
M  V30 1713 O 157.647 1.02927 5.3672 0
M  V30 1714 H 154.741 0.120698 0.818145 0
M  V30 1715 H 157.287 0.958857 1.40014 0
M  V30 1716 H 156.059 1.92889 3.40455 0
M  V30 1717 H 155.682 0.307714 3.96407 0
M  V30 1718 N 156.679 -1.44442 0.630414 0
M  V30 1719 C 157.926 -2.02052 0.134617 0
M  V30 1720 C 158.254 -1.49576 -1.24327 0
M  V30 1721 O 157.509 -0.669806 -1.83881 0
M  V30 1722 C 157.808 -3.57332 0.0697835 0
M  V30 1723 C 157.474 -4.29058 1.38635 0
M  V30 1724 C 156.136 -4.4837 1.74694 0
M  V30 1725 C 158.488 -4.69872 2.25543 0
M  V30 1726 C 155.816 -5.05756 2.97369 0
M  V30 1727 C 158.168 -5.28616 3.47487 0
M  V30 1728 C 156.832 -5.46147 3.8377 0
M  V30 1729 H 156.102 -0.739361 0.0492598 0
M  V30 1730 H 158.749 -1.73217 0.816586 0
M  V30 1731 H 157.054 -3.85577 -0.695553 0
M  V30 1732 H 158.751 -3.99637 -0.330344 0
M  V30 1733 H 155.341 -4.14357 1.09574 0
M  V30 1734 H 159.525 -4.54666 1.98979 0
M  V30 1735 H 154.781 -5.17515 3.25558 0
M  V30 1736 H 158.955 -5.59192 4.15063 0
M  V30 1737 H 156.582 -5.9038 4.7891 0
M  V30 1738 N 158.157 -0.370918 -1.53173 0
M  V30 1739 C 159.406 0.218249 -2.00516 0
M  V30 1740 C 159.719 1.49429 -1.26215 0
M  V30 1741 O 160.925 2.16239 -1.64174 0
M  V30 1742 C 159.381 0.43948 -3.57207 0
M  V30 1743 C 158.989 -0.822244 -4.4039 0
M  V30 1744 C 160.733 0.986012 -4.1289 0
M  V30 1745 C 158.64 -0.570304 -5.88644 0
M  V30 1746 H 157.57 0.0853333 -0.749156 0
M  V30 1747 H 160.221 -0.490483 -1.76823 0
M  V30 1748 H 158.603 1.20961 -3.77074 0
M  V30 1749 H 159.777 -1.59557 -4.32294 0
M  V30 1750 H 158.092 -1.29238 -3.95836 0
M  V30 1751 H 160.689 1.18991 -5.21292 0
M  V30 1752 H 161.032 1.94972 -3.6782 0
M  V30 1753 H 161.565 0.27592 -3.96842 0
M  V30 1754 H 158.304 -1.50449 -6.38001 0
M  V30 1755 H 157.824 0.164427 -5.99575 0
M  V30 1756 H 159.503 -0.19784 -6.46697 0
M  V30 1757 N 159.635 1.57281 -0.100228 0
M  V30 1758 C 160.882 1.94537 0.562268 0
M  V30 1759 C 161.21 0.982315 1.67871 0
M  V30 1760 O 160.465 0.00280936 1.957 0
M  V30 1761 C 160.764 3.38305 1.15259 0
M  V30 1762 C 160.43 4.50618 0.159409 0
M  V30 1763 C 159.092 4.81066 -0.113741 0
M  V30 1764 C 161.444 5.18615 -0.518461 0
M  V30 1765 C 158.772 5.76835 -1.07137 0
M  V30 1766 C 161.124 6.15412 -1.46459 0
M  V30 1767 C 159.788 6.44262 -1.74592 0
M  V30 1768 H 159.058 0.711863 0.205748 0
M  V30 1769 H 161.705 1.90679 -0.17715 0
M  V30 1770 H 160.01 3.38766 1.96836 0
M  V30 1771 H 161.707 3.64435 1.67297 0
M  V30 1772 H 158.297 4.2689 0.382491 0
M  V30 1773 H 162.481 4.95264 -0.320581 0
M  V30 1774 H 157.737 5.975 -1.29628 0
M  V30 1775 H 161.911 6.67194 -1.99564 0
M  V30 1776 H 159.538 7.1828 -2.48953 0
M  V30 1777 N 161.113 -0.173488 1.56642 0
M  V30 1778 C 162.361 -0.888706 1.81512 0
M  V30 1779 C 162.682 -1.82875 0.676872 0
M  V30 1780 O 161.952 -1.93536 -0.303414 0
M  V30 1781 H 160.532 -0.331164 0.669582 0
M  V30 1782 H 163.194 -0.173823 1.94123 0
M  V30 1783 H 162.29 -1.46691 2.75478 0
M  V30 1784 N 162.591 -1.51276 -0.441967 0
M  V30 1785 C 163.816 -1.67799 -1.21895 0
M  V30 1786 C 164.241 -0.372864 -1.84367 0
M  V30 1787 O 163.599 0.666501 -1.68604 0
M  V30 1788 C 163.647 -2.79199 -2.28211 0
M  V30 1789 O 162.751 -2.42479 -3.33583 0
M  V30 1790 H 162.092 -0.559649 -0.357336 0
M  V30 1791 H 164.622 -1.97815 -0.522522 0
M  V30 1792 H 164.632 -3.03146 -2.73069 0
M  V30 1793 H 163.307 -3.73906 -1.82118 0
M  V30 1794 H 161.884 -2.29087 -2.94234 0
M  V30 1795 N 164.069 0.697108 -1.41344 0
M  V30 1796 C 165.032 1.79281 -1.42797 0
M  V30 1797 C 166.032 1.57607 -0.318837 0
M  V30 1798 O 167.222 1.64309 -0.578642 0
M  V30 1799 C 164.354 3.17632 -1.23785 0
M  V30 1800 H 165.547 1.79385 -2.40335 0
M  V30 1801 H 163.1 0.904582 -1.27464 0
M  V30 1802 H 163.835 3.23167 -0.270814 0
M  V30 1803 H 163.62 3.34765 -2.04144 0
M  V30 1804 H 165.11 3.97617 -1.27633 0
M  V30 1805 N 165.547 1.27147 0.931209 0
M  V30 1806 C 166.793 1.13446 1.68101 0
M  V30 1807 C 167.126 -0.319628 1.91552 0
M  V30 1808 O 166.401 -1.23407 1.50336 0
M  V30 1809 C 166.684 1.91482 3.0497 0
M  V30 1810 C 166.537 3.44855 2.88782 0
M  V30 1811 C 167.856 1.71651 4.05246 0
M  V30 1812 H 164.975 0.413498 0.610072 0
M  V30 1813 H 167.617 1.56261 1.08086 0
M  V30 1814 H 165.767 1.55095 3.56199 0
M  V30 1815 H 167.439 3.9105 2.44698 0
M  V30 1816 H 165.682 3.71373 2.24198 0
M  V30 1817 H 166.353 3.94694 3.85902 0
M  V30 1818 H 168.829 2.0337 3.63015 0
M  V30 1819 H 167.705 2.28651 4.99009 0
M  V30 1820 H 167.966 0.663555 4.37092 0
M  V30 1821 N 167.025 -1.13721 1.09112 0
M  V30 1822 C 168.265 -1.86576 0.834801 0
M  V30 1823 C 168.629 -1.81435 -0.628122 0
M  V30 1824 O 169.83 -2.49497 -1.00024 0
M  V30 1825 C 168.101 -3.30872 1.35124 0
M  V30 1826 S 169.66 -4.21257 1.22832 0
M  V30 1827 H 166.478 -0.643666 0.302017 0
M  V30 1828 H 169.08 -1.37085 1.39385 0
M  V30 1829 H 167.784 -3.32166 2.41027 0
M  V30 1830 H 167.315 -3.85423 0.788185 0
M  V30 1831 H 169.33 -4.95884 0.177191 0
M  V30 1832 N 168.503 -0.877838 -1.30888 0
M  V30 1833 C 169.45 -0.337538 -2.28318 0
M  V30 1834 C 170.42 0.568346 -1.56074 0
M  V30 1835 O 171.605 0.498298 -1.84178 0
M  V30 1836 C 168.745 0.448142 -3.42178 0
M  V30 1837 C 167.858 -0.48615 -4.29256 0
M  V30 1838 C 166.993 0.314427 -5.30269 0
M  V30 1839 C 166.032 -0.615791 -6.08995 0
M  V30 1840 N 165.169 0.14902 -7.01942 0
M  V30 1841 H 170.009 -1.17356 -2.73919 0
M  V30 1842 H 167.546 -0.590094 -1.34745 0
M  V30 1843 H 169.504 0.919517 -4.06941 0
M  V30 1844 H 168.134 1.24879 -2.97666 0
M  V30 1845 H 167.186 -1.076 -3.64865 0
M  V30 1846 H 168.498 -1.19909 -4.84173 0
M  V30 1847 H 167.652 0.847969 -6.00745 0
M  V30 1848 H 166.391 1.06062 -4.76027 0
M  V30 1849 H 165.396 -1.16102 -5.37401 0
M  V30 1850 H 166.621 -1.36097 -6.65323 0
M  V30 1851 H 164.567 0.877884 -6.50099 0
M  V30 1852 H 164.484 -0.504433 -7.54315 0
M  V30 1853 H 165.752 0.663537 -7.76671 0
M  V30 1854 N 169.982 1.44106 -0.638065 0
M  V30 1855 C 171.21 2.06336 -0.152615 0
M  V30 1856 C 171.625 1.47731 1.17563 0
M  V30 1857 O 170.982 0.602806 1.72257 0
M  V30 1858 C 171.033 3.61479 -0.0391491 0
M  V30 1859 O 170.754 4.17903 -1.31487 0
M  V30 1860 C 172.255 4.40757 0.474176 0
M  V30 1861 H 169.475 0.665862 -0.0828776 0
M  V30 1862 H 172.019 1.84862 -0.87443 0
M  V30 1863 H 170.174 3.82191 0.633142 0
M  V30 1864 H 170.588 5.11416 -1.16421 0
M  V30 1865 H 172.062 5.49707 0.502562 0
M  V30 1866 H 172.539 4.12697 1.50258 0
M  V30 1867 H 173.145 4.24979 -0.165102 0
M  V30 1868 N 171.46 0.379036 1.52974 0
M  V30 1869 C 172.688 -0.20679 2.05864 0
M  V30 1870 C 173.103 -1.41356 1.25155 0
M  V30 1871 O 172.46 -1.8009 0.295588 0
M  V30 1872 C 172.511 -0.587045 3.56702 0
M  V30 1873 O 172.232 0.571776 4.34353 0
M  V30 1874 C 173.733 -1.22983 4.25899 0
M  V30 1875 H 170.953 -0.0336123 0.670158 0
M  V30 1876 H 173.497 0.541298 1.97206 0
M  V30 1877 H 171.652 -1.28504 3.65466 0
M  V30 1878 H 172.066 0.261544 5.23847 0
M  V30 1879 H 173.54 -1.44635 5.32715 0
M  V30 1880 H 174.017 -2.19416 3.80465 0
M  V30 1881 H 174.623 -0.572892 4.21424 0
M  V30 1882 N 172.938 -1.57226 0.108567 0
M  V30 1883 C 174.166 -1.99179 -0.559954 0
M  V30 1884 C 174.581 -0.988022 -1.60884 0
M  V30 1885 O 173.938 0.0205512 -1.82488 0
M  V30 1886 C 173.989 -3.41159 -1.19552 0
M  V30 1887 O 173.71 -4.37694 -0.188577 0
M  V30 1888 C 175.211 -3.98188 -1.94837 0
M  V30 1889 H 172.431 -0.654228 -0.149088 0
M  V30 1890 H 174.975 -2.03598 0.19183 0
M  V30 1891 H 173.13 -3.37711 -1.89815 0
M  V30 1892 H 173.544 -5.20469 -0.649014 0
M  V30 1893 H 175.018 -4.99644 -2.34648 0
M  V30 1894 H 175.495 -3.3675 -2.81951 0
M  V30 1895 H 176.101 -4.0515 -1.2936 0
M  V30 1896 N 174.416 0.165178 -1.56732 0
M  V30 1897 C 175.646 0.894919 -1.86212 0
M  V30 1898 C 176.054 1.76066 -0.692627 0
M  V30 1899 O 175.397 1.80387 0.347303 0
M  V30 1900 C 175.459 1.8174 -3.10179 0
M  V30 1901 C 175.123 1.13064 -4.42793 0
M  V30 1902 C 176.12 0.493169 -5.17556 0
M  V30 1903 C 173.805 1.12556 -4.89527 0
M  V30 1904 C 175.799 -0.140209 -6.37246 0
M  V30 1905 C 173.486 0.488366 -6.09145 0
M  V30 1906 C 174.484 -0.143411 -6.82849 0
M  V30 1907 O 174.172 -0.77055 -8.00199 0
M  V30 1908 H 173.904 0.265114 -0.621844 0
M  V30 1909 H 176.458 0.168242 -2.0471 0
M  V30 1910 H 174.688 2.58455 -2.87642 0
M  V30 1911 H 176.377 2.4175 -3.26055 0
M  V30 1912 H 177.143 0.489023 -4.82528 0
M  V30 1913 H 173.022 1.60672 -4.32094 0
M  V30 1914 H 176.566 -0.633932 -6.94714 0
M  V30 1915 H 172.463 0.490116 -6.43637 0
M  V30 1916 H 173.231 -0.670408 -8.1575 0
M  V30 1917 N 175.894 1.51508 0.433938 0
M  V30 1918 C 177.141 1.64345 1.18309 0
M  V30 1919 C 177.469 0.361315 1.91115 0
M  V30 1920 O 176.724 -0.654753 1.84422 0
M  V30 1921 C 177.023 2.79928 2.22205 0
M  V30 1922 C 176.689 4.19078 1.66387 0
M  V30 1923 C 175.351 4.56932 1.50887 0
M  V30 1924 C 177.703 5.05894 1.25381 0
M  V30 1925 C 175.031 5.79305 0.928608 0
M  V30 1926 C 177.383 6.2885 0.687823 0
M  V30 1927 C 176.047 6.65473 0.519755 0
M  V30 1928 H 175.317 0.601381 0.432923 0
M  V30 1929 H 177.964 1.85549 0.473676 0
M  V30 1930 H 176.269 2.52959 2.99197 0
M  V30 1931 H 177.966 2.87059 2.79997 0
M  V30 1932 H 174.556 3.89234 1.79428 0
M  V30 1933 H 178.74 4.77253 1.36175 0
M  V30 1934 H 173.996 6.06324 0.786186 0
M  V30 1935 H 178.17 6.95461 0.361581 0
M  V30 1936 H 175.797 7.6017 0.0679979 0
M  V30 1937 N 177.372 -0.689602 1.41712 0
M  V30 1938 C 178.305 -1.81403 1.3845 0
M  V30 1939 C 179.283 -1.60653 0.250874 0
M  V30 1940 O 180.467 -1.83323 0.43874 0
M  V30 1941 C 177.594 -3.18176 1.1611 0
M  V30 1942 C 176.64 -3.57705 2.3227 0
M  V30 1943 S 177.473 -3.61827 3.94767 0
M  V30 1944 C 178.629 -5.01318 3.74742 0
M  V30 1945 H 178.862 -1.83893 2.33603 0
M  V30 1946 H 176.395 -0.858878 1.28307 0
M  V30 1947 H 178.353 -3.97132 1.03907 0
M  V30 1948 H 177.014 -3.13288 0.225668 0
M  V30 1949 H 176.207 -4.57082 2.12349 0
M  V30 1950 H 175.809 -2.86073 2.40911 0
M  V30 1951 H 178.101 -5.88986 3.34817 0
M  V30 1952 H 179.044 -5.26283 4.73743 0
M  V30 1953 H 179.452 -4.73138 3.07898 0
M  V30 1954 N 178.85 -1.27639 -0.924453 0
M  V30 1955 C 180.098 -1.13941 -1.66918 0
M  V30 1956 C 180.419 0.314589 -1.92446 0
M  V30 1957 O 179.689 1.21964 -1.53303 0
M  V30 1958 H 178.269 -0.418678 -0.618642 0
M  V30 1959 H 180.931 -1.60213 -1.10985 0
M  V30 1960 H 180.027 -1.67094 -2.63602 0
M  V30 1961 N 180.328 1.1314 -1.09713 0
M  V30 1962 C 181.556 1.88321 -0.856898 0
M  V30 1963 C 181.971 1.79276 0.592073 0
M  V30 1964 O 181.328 1.16142 1.40774 0
M  V30 1965 C 181.379 3.37812 -1.28706 0
M  V30 1966 O 181.1 3.46627 -2.67921 0
M  V30 1967 C 182.601 4.29952 -1.07964 0
M  V30 1968 H 179.821 0.596094 -0.308079 0
M  V30 1969 H 182.365 1.43205 -1.45988 0
M  V30 1970 H 180.52 3.805 -0.727912 0
M  V30 1971 H 180.934 4.39579 -2.8613 0
M  V30 1972 H 182.408 5.33159 -1.42986 0
M  V30 1973 H 182.885 4.39196 -0.0176577 0
M  V30 1974 H 183.491 3.93036 -1.62489 0
M  V30 1975 N 181.806 0.884767 1.30421 0
M  V30 1976 C 183.031 0.517288 2.00845 0
M  V30 1977 C 183.456 -0.886779 1.65885 0
M  V30 1978 O 182.814 -1.58768 0.875354 0
M  V30 1979 C 182.862 0.698994 3.5376 0
M  V30 1980 O 181.966 -0.255208 4.1161 0
M  V30 1981 H 181.307 0.203872 0.631927 0
M  V30 1982 H 183.837 1.19225 1.66272 0
M  V30 1983 H 183.847 0.597912 4.03595 0
M  V30 1984 H 182.522 1.72271 3.78544 0
M  V30 1985 H 181.099 -0.10784 3.72744 0
M  V30 1986 N 183.284 -1.43765 0.645699 0
M  V30 1987 C 184.53 -2.02197 0.156271 0
M  V30 1988 C 184.863 -1.50776 -1.22393 0
M  V30 1989 O 184.138 -0.697771 -1.81553 0
M  V30 1990 C 184.421 -3.59749 0.158872 0
M  V30 1991 C 184.274 -4.21419 1.57245 0
M  V30 1992 C 185.593 -4.37149 -0.50879 0
M  V30 1993 H 182.712 -0.734694 0.0582602 0
M  V30 1994 H 185.354 -1.71157 0.824951 0
M  V30 1995 H 183.504 -3.86325 -0.410525 0
M  V30 1996 H 185.176 -4.059 2.19186 0
M  V30 1997 H 183.419 -3.78356 2.122 0
M  V30 1998 H 184.09 -5.30482 1.52619 0
M  V30 1999 H 186.566 -4.16093 -0.024412 0
M  V30 2000 H 185.442 -5.4683 -0.476213 0
M  V30 2001 H 185.703 -4.12839 -1.58165 0
M  V30 2002 N 184.763 -0.387143 -1.52771 0
M  V30 2003 C 185.988 0.198407 -2.06449 0
M  V30 2004 C 186.413 1.39918 -1.25716 0
M  V30 2005 O 185.771 1.79099 -0.281657 0
M  V30 2006 C 185.819 0.548893 -3.56398 0
M  V30 2007 O 184.923 1.64315 -3.78252 0
M  V30 2008 H 184.264 0.0237731 -0.663574 0
M  V30 2009 H 186.794 -0.553989 -1.96957 0
M  V30 2010 H 186.804 0.813812 -3.99801 0
M  V30 2011 H 185.479 -0.329005 -4.14597 0
M  V30 2012 H 184.056 1.37211 -3.46738 0
M  V30 2013 N 186.241 1.57166 -0.116904 0
M  V30 2014 C 187.487 1.95412 0.542405 0
M  V30 2015 C 187.82 1.00019 1.66463 0
M  V30 2016 O 187.095 0.0370346 1.94465 0
M  V30 2017 C 187.378 3.43615 1.07708 0
M  V30 2018 C 187.231 4.49781 -0.0415868 0
M  V30 2019 C 188.55 3.93616 1.96861 0
M  V30 2020 H 185.669 0.710543 0.195696 0
M  V30 2021 H 188.311 1.89027 -0.192038 0
M  V30 2022 H 186.461 3.49187 1.70296 0
M  V30 2023 H 188.133 4.56308 -0.676793 0
M  V30 2024 H 186.376 4.28033 -0.705019 0
M  V30 2025 H 187.047 5.50733 0.373717 0
M  V30 2026 H 189.523 3.90335 1.44146 0
M  V30 2027 H 188.399 4.97838 2.3119 0
M  V30 2028 H 188.66 3.34188 2.89432 0
M  V30 2029 N 187.719 -0.156864 1.56817 0
M  V30 2030 C 188.944 -0.890331 1.87318 0
M  V30 2031 C 189.369 -1.74394 0.704855 0
M  V30 2032 O 188.727 -1.77972 -0.345786 0
M  V30 2033 C 188.775 -1.73102 3.16336 0
M  V30 2034 O 187.879 -2.83422 2.99576 0
M  V30 2035 H 187.22 -0.24857 0.615718 0
M  V30 2036 H 189.75 -0.150649 2.04045 0
M  V30 2037 H 189.76 -2.12803 3.48107 0
M  V30 2038 H 188.435 -1.10412 4.00976 0
M  V30 2039 H 187.012 -2.47199 2.7919 0
M  V30 2040 N 189.197 -1.51736 -0.425897 0
M  V30 2041 C 190.425 -1.68794 -1.1965 0
M  V30 2042 C 190.84 -0.390164 -1.84725 0
M  V30 2043 O 190.197 0.632376 -1.71194 0
M  V30 2044 C 190.248 -2.81174 -2.27208 0
M  V30 2045 O 189.969 -4.05925 -1.64793 0
M  V30 2046 C 191.47 -3.09599 -3.17275 0
M  V30 2047 H 188.69 -0.566128 -0.360194 0
M  V30 2048 H 191.234 -1.98211 -0.503249 0
M  V30 2049 H 189.389 -2.54324 -2.9223 0
M  V30 2050 H 189.803 -4.68423 -2.35967 0
M  V30 2051 H 191.277 -3.91786 -3.88854 0
M  V30 2052 H 191.754 -2.22468 -3.78688 0
M  V30 2053 H 192.36 -3.38151 -2.57941 0
M  V30 2054 N 190.675 0.682077 -1.42076 0
M  V30 2055 C 191.922 1.44215 -1.42156 0
M  V30 2056 C 192.25 1.94468 -0.0354186 0
M  V30 2057 O 191.505 1.70816 0.955002 0
M  V30 2058 C 191.804 2.66036 -2.38662 0
M  V30 2059 C 191.47 2.34366 -3.85206 0
M  V30 2060 C 190.132 2.25439 -4.25124 0
M  V30 2061 C 192.484 2.08513 -4.77673 0
M  V30 2062 C 189.812 1.88775 -5.55501 0
M  V30 2063 C 192.164 1.73354 -6.08384 0
M  V30 2064 C 190.828 1.62933 -6.47309 0
M  V30 2065 H 190.098 0.527718 -0.520187 0
M  V30 2066 H 192.745 0.778387 -1.74967 0
M  V30 2067 H 191.05 3.3741 -1.99152 0
M  V30 2068 H 192.747 3.24205 -2.35991 0
M  V30 2069 H 189.337 2.42213 -3.53597 0
M  V30 2070 H 193.521 2.14346 -4.47626 0
M  V30 2071 H 188.777 1.7927 -5.84527 0
M  V30 2072 H 192.951 1.52373 -6.79526 0
M  V30 2073 H 190.578 1.34292 -7.48244 0
M  V30 2074 N 192.153 1.28127 0.917671 0
M  V30 2075 C 193.101 1.11569 2.04096 0
M  V30 2076 C 194.095 0.0360242 1.69362 0
M  V30 2077 O 195.301 0.194501 1.78946 0
M  V30 2078 H 191.676 0.344097 0.668656 0
M  V30 2079 H 193.647 2.06711 2.15205 0
M  V30 2080 C 192.396 0.790197 3.38602 0
M  V30 2081 H 191.719 1.61293 3.6582 0
M  V30 2082 H 193.159 0.714271 4.1794 0
M  V30 2083 C 191.618 -0.505897 3.3308 0
M  V30 2084 O 192.148 -1.53736 3.71117 0
M  V30 2085 N 190.354 -0.505193 2.86175 0
M  V30 2086 H 189.901 0.334621 2.55417 0
M  V30 2087 H 189.859 -1.37243 2.82863 0
M  V30 2088 N 193.631 -1.12557 1.10312 0
M  V30 2089 C 194.561 -2.20341 0.772798 0
M  V30 2090 C 195.542 -1.68198 -0.25365 0
M  V30 2091 O 196.727 -1.93831 -0.119699 0
M  V30 2092 C 193.857 -3.46709 0.202443 0
M  V30 2093 C 192.811 -4.11996 1.15943 0
M  V30 2094 C 192.137 -5.328 0.450345 0
M  V30 2095 C 193.437 -4.5828 2.50552 0
M  V30 2096 H 195.131 -2.48229 1.674 0
M  V30 2097 H 192.677 -1.19308 0.806326 0
M  V30 2098 H 194.63 -4.2138 -0.0407752 0
M  V30 2099 H 193.354 -3.18245 -0.734001 0
M  V30 2100 H 192.013 -3.39305 1.38808 0
M  V30 2101 H 191.661 -5.00602 -0.490531 0
M  V30 2102 H 191.361 -5.7743 1.08851 0
M  V30 2103 H 192.885 -6.10219 0.215642 0
M  V30 2104 H 194.299 -5.2433 2.31843 0
M  V30 2105 H 192.696 -5.13683 3.10242 0
M  V30 2106 H 193.766 -3.72329 3.10643 0
M  V30 2107 N 195.109 -0.891671 -1.2995 0
M  V30 2108 C 196.355 -0.514261 -1.96171 0
M  V30 2109 C 196.688 0.935506 -1.70182 0
M  V30 2110 O 195.963 1.66204 -1.01028 0
M  V30 2111 C 196.246 -0.797719 -3.51153 0
M  V30 2112 C 196.099 -2.2986 -3.86632 0
M  V30 2113 C 197.418 -0.278749 -4.39216 0
M  V30 2114 H 194.537 -0.188314 -0.712535 0
M  V30 2115 H 197.179 -1.11689 -1.53706 0
M  V30 2116 H 195.329 -0.284826 -3.87455 0
M  V30 2117 H 197.001 -2.88042 -3.60319 0
M  V30 2118 H 195.244 -2.76257 -3.34462 0
M  V30 2119 H 195.915 -2.44753 -4.94773 0
M  V30 2120 H 198.391 -0.717825 -4.09862 0
M  V30 2121 H 197.267 -0.506353 -5.46559 0
M  V30 2122 H 197.528 0.820266 -4.34424 0
M  V30 2123 N 196.587 1.43421 -0.653314 0
M  V30 2124 C 197.55 2.29182 0.0287951 0
M  V30 2125 C 198.55 1.42213 0.750465 0
M  V30 2126 O 199.74 1.63843 0.591701 0
M  V30 2127 C 196.872 3.24278 1.05151 0
M  V30 2128 H 198.065 2.90985 -0.725786 0
M  V30 2129 H 195.618 1.50702 -0.414545 0
M  V30 2130 H 196.353 2.6737 1.83532 0
M  V30 2131 H 196.138 3.88396 0.537687 0
M  V30 2132 H 197.628 3.88647 1.52786 0
M  V30 2133 N 198.065 0.39524 1.52563 0
M  V30 2134 C 199.314 -0.186321 2.00838 0
M  V30 2135 C 199.627 -1.47402 1.28577 0
M  V30 2136 O 200.833 -2.13599 1.67593 0
M  V30 2137 C 199.289 -0.382595 3.57861 0
M  V30 2138 C 198.897 0.892202 4.39026 0
M  V30 2139 C 200.641 -0.9202 4.14406 0
M  V30 2140 C 198.548 0.66388 5.87662 0
M  V30 2141 H 197.478 -0.0734041 0.750418 0
M  V30 2142 H 200.129 0.518552 1.76021 0
M  V30 2143 H 198.511 -1.14946 3.7895 0
M  V30 2144 H 199.685 1.66414 4.29701 0
M  V30 2145 H 198 1.35519 3.9373 0
M  V30 2146 H 200.597 -1.10683 5.23119 0
M  V30 2147 H 200.94 -1.89096 3.70875 0
M  V30 2148 H 201.473 -0.212751 3.97231 0
M  V30 2149 H 198.212 1.6058 6.35527 0
M  V30 2150 H 197.732 -0.0690193 5.9976 0
M  V30 2151 H 199.411 0.300699 6.46301 0
M  V30 2152 N 199.544 -1.57102 0.125237 0
M  V30 2153 C 200.769 -2.0019 -0.542101 0
M  V30 2154 C 201.194 -1.00449 -1.59034 0
M  V30 2155 O 200.552 0.0229423 -1.81285 0
M  V30 2156 C 200.6 -3.42129 -1.13929 0
M  V30 2157 O 199.704 -3.45307 -2.2547 0
M  V30 2158 H 199.045 -0.650171 -0.134812 0
M  V30 2159 H 201.575 -2.03461 0.215553 0
M  V30 2160 H 201.585 -3.80471 -1.4733 0
M  V30 2161 H 200.26 -4.14237 -0.371531 0
M  V30 2162 H 198.837 -3.1879 -1.93462 0
M  V30 2163 N 201.022 0.148545 -1.56898 0
M  V30 2164 C 201.952 1.18524 -2.01182 0
M  V30 2165 C 202.933 1.4489 -0.891123 0
M  V30 2166 O 204.118 1.55836 -1.15882 0
M  V30 2167 C 201.248 2.51879 -2.39112 0
M  V30 2168 C 200.202 2.40038 -3.54353 0
M  V30 2169 C 199.528 3.78089 -3.78091 0
M  V30 2170 C 200.828 1.88577 -4.87069 0
M  V30 2171 H 202.522 0.817029 -2.88036 0
M  V30 2172 H 200.068 0.391575 -1.38574 0
M  V30 2173 H 202.021 3.24627 -2.68692 0
M  V30 2174 H 200.745 2.90532 -1.49193 0
M  V30 2175 H 199.404 1.69742 -3.24936 0
M  V30 2176 H 199.052 4.14175 -2.85426 0
M  V30 2177 H 198.752 3.71028 -4.55645 0
M  V30 2178 H 200.276 4.52387 -4.10095 0
M  V30 2179 H 201.69 2.51117 -5.15377 0
M  V30 2180 H 200.087 1.9241 -5.68417 0
M  V30 2181 H 201.157 0.84136 -4.77545 0
M  V30 2182 N 202.5 1.5196 0.417844 0
M  V30 2183 C 203.41 1.77554 1.53336 0
M  V30 2184 C 204.426 0.660655 1.6097 0
M  V30 2185 O 205.602 0.945099 1.77848 0
M  V30 2186 C 202.667 1.91291 2.89152 0
M  V30 2187 C 201.728 3.15183 2.91475 0
M  V30 2188 C 200.961 3.28256 4.20813 0
M  V30 2189 O 201.184 2.46798 5.14244 0
M  V30 2190 O 200.118 4.21356 4.29817 0
M  V30 2191 H 203.944 2.7222 1.34647 0
M  V30 2192 H 201.529 1.36698 0.602828 0
M  V30 2193 H 203.411 2.02199 3.69721 0
M  V30 2194 H 202.086 0.998129 3.07927 0
M  V30 2195 H 200.993 3.09739 2.09791 0
M  V30 2196 H 202.326 4.06414 2.77648 0
M  V30 2197 N 203.978 -0.674533 1.42435 0
M  V30 2198 C 205.394 -0.98769 1.25367 0
M  V30 2199 C 205.594 -2.00879 0.158044 0
M  V30 2200 O 204.65 -2.48075 -0.470633 0
M  V30 2201 C 205.963 -1.49224 2.6106 0
M  V30 2202 C 207.511 -1.61 2.68417 0
M  V30 2203 C 207.986 -2.14852 4.04478 0
M  V30 2204 N 209.477 -2.22185 4.06434 0
M  V30 2205 C 210.212 -2.64928 5.08528 0
M  V30 2206 N 209.708 -3.07121 6.21006 0
M  V30 2207 N 211.501 -2.64679 4.95885 0
M  V30 2208 H 203.652 0.00152503 2.124 0
M  V30 2209 H 205.915 -0.0618434 0.945981 0
M  V30 2210 H 205.621 -0.816453 3.42092 0
M  V30 2211 H 205.495 -2.47094 2.84999 0
M  V30 2212 H 207.882 -2.27686 1.87732 0
M  V30 2213 H 207.963 -0.616195 2.48267 0
M  V30 2214 H 207.607 -1.48775 4.85622 0
M  V30 2215 H 207.537 -3.15024 4.2198 0
M  V30 2216 H 210.028 -1.92435 3.25234 0
M  V30 2217 H 210.341 -3.38423 6.94759 0
M  V30 2218 H 208.686 -3.04978 6.24511 0
M  V30 2219 H 211.877 -2.31078 4.07088 0
M  V30 2220 H 212.05 -2.9767 5.75584 0
M  V30 2221 N 205.456 -1.28612 -0.910864 0
M  V30 2222 C 206.686 -1.1862 -1.69153 0
M  V30 2223 C 207.094 0.257324 -1.87442 0
M  V30 2224 O 206.437 1.18543 -1.40332 0
M  V30 2225 C 206.499 -1.81606 -3.10257 0
M  V30 2226 C 206.163 -3.30864 -3.15243 0
M  V30 2227 C 207.16 -4.27256 -2.96223 0
M  V30 2228 C 204.845 -3.71871 -3.37664 0
M  V30 2229 C 206.839 -5.62631 -2.99541 0
M  V30 2230 C 204.526 -5.07371 -3.40614 0
M  V30 2231 C 205.524 -6.02561 -3.21573 0
M  V30 2232 O 205.212 -7.35589 -3.2429 0
M  V30 2233 H 204.944 -0.412633 -0.535453 0
M  V30 2234 H 207.498 -1.70306 -1.14827 0
M  V30 2235 H 205.728 -1.24418 -3.66138 0
M  V30 2236 H 207.417 -1.66092 -3.70362 0
M  V30 2237 H 208.183 -3.9691 -2.78725 0
M  V30 2238 H 204.062 -2.98241 -3.5153 0
M  V30 2239 H 207.606 -6.36907 -2.84597 0
M  V30 2240 H 203.503 -5.37366 -3.57642 0
M  V30 2241 H 204.271 -7.44252 -3.40633 0
M  V30 2242 N 206.934 1.1197 -1.10907 0
M  V30 2243 C 208.182 1.83225 -0.852819 0
M  V30 2244 C 208.503 1.84769 0.623341 0
M  V30 2245 O 207.773 1.3143 1.45269 0
M  V30 2246 H 206.353 0.67849 -0.312507 0
M  V30 2247 H 209.015 1.3556 -1.40033 0
M  V30 2248 H 208.111 2.87265 -1.22005 0
M  V30 2249 N 208.412 0.89855 1.29475 0
M  V30 2250 C 209.375 0.380272 2.26023 0
M  V30 2251 C 210.375 -0.484891 1.53315 0
M  V30 2252 O 211.565 -0.290108 1.71767 0
M  V30 2253 C 208.697 -0.45651 3.3783 0
M  V30 2254 H 209.89 1.23295 2.73383 0
M  V30 2255 H 207.443 0.676589 1.40897 0
M  V30 2256 H 208.178 -1.32922 2.95808 0
M  V30 2257 H 207.963 0.163393 3.91759 0
M  V30 2258 H 209.453 -0.810466 4.0966 0
M  V30 2259 N 209.89 -1.43072 0.660911 0
M  V30 2260 C 211.139 -2.00942 0.174735 0
M  V30 2261 C 211.452 -1.52797 -1.22117 0
M  V30 2262 O 212.658 -2.02991 -1.80297 0
M  V30 2263 C 211.114 -3.58948 0.261559 0
M  V30 2264 C 210.722 -4.16085 1.66064 0
M  V30 2265 C 212.466 -4.24173 -0.166617 0
M  V30 2266 C 210.373 -5.6641 1.70098 0
M  V30 2267 H 209.303 -0.751483 0.0615631 0
M  V30 2268 H 211.954 -1.63955 0.824069 0
M  V30 2269 H 210.336 -3.93372 -0.455421 0
M  V30 2270 H 211.51 -3.93147 2.40359 0
M  V30 2271 H 209.825 -3.6326 2.03546 0
M  V30 2272 H 212.422 -5.34471 -0.156433 0
M  V30 2273 H 212.765 -3.98647 -1.19943 0
M  V30 2274 H 213.298 -3.94659 0.498875 0
M  V30 2275 H 210.037 -5.96715 2.71315 0
M  V30 2276 H 209.557 -5.91382 1.00139 0
M  V30 2277 H 211.236 -6.30585 1.44816 0
M  V30 2278 N 211.368 -0.403325 -1.52352 0
M  V30 2279 C 212.608 0.173946 -2.03659 0
M  V30 2280 C 212.972 1.42869 -1.28267 0
M  V30 2281 O 214.173 2.08403 -1.69769 0
M  V30 2282 C 212.444 0.421478 -3.54906 0
M  V30 2283 S 214.003 0.967027 -4.28012 0
M  V30 2284 H 210.821 0.0477461 -0.709395 0
M  V30 2285 H 213.423 -0.554906 -1.87459 0
M  V30 2286 H 212.127 -0.498616 -4.0736 0
M  V30 2287 H 211.658 1.17837 -3.75337 0
M  V30 2288 H 213.673 2.24812 -4.4235 0
M  V30 2289 N 212.846 1.57033 -0.133567 0
M  V30 2290 C 213.793 2.16074 0.811208 0
M  V30 2291 C 214.763 1.08979 1.2535 0
M  V30 2292 O 215.948 1.36958 1.32843 0
M  V30 2293 C 213.088 2.77595 2.05024 0
M  V30 2294 C 212.201 3.99042 1.65498 0
M  V30 2295 C 211.336 4.48603 2.84479 0
M  V30 2296 C 210.375 5.62547 2.41262 0
M  V30 2297 N 209.512 6.06787 3.53206 0
M  V30 2298 H 214.352 2.96477 0.300906 0
M  V30 2299 H 211.889 1.46462 0.136822 0
M  V30 2300 H 213.847 3.11402 2.77642 0
M  V30 2301 H 212.477 1.99859 2.53488 0
M  V30 2302 H 211.529 3.71302 0.826981 0
M  V30 2303 H 212.841 4.81629 1.29748 0
M  V30 2304 H 211.995 4.84395 3.65303 0
M  V30 2305 H 210.734 3.64995 3.23465 0
M  V30 2306 H 209.739 5.26345 1.58874 0
M  V30 2307 H 210.964 6.47931 2.03377 0
M  V30 2308 H 208.91 5.26117 3.91838 0
M  V30 2309 H 208.827 6.84266 3.21427 0
M  V30 2310 H 210.095 6.4722 4.34427 0
M  V30 2311 N 214.325 -0.140222 1.56975 0
M  V30 2312 C 215.736 -0.699596 1.73097 0
M  V30 2313 C 216.087 -1.8134 0.749022 0
M  V30 2314 O 215.212 -2.16241 -0.0828503 0
M  V30 2315 C 215.807 -1.27582 3.1386 0
M  V30 2316 C 214.366 -1.78169 3.31561 0
M  V30 2317 C 213.513 -0.672855 2.69013 0
M  V30 2318 H 216.464 0.0855115 1.58469 0
M  V30 2319 H 216.485 -2.14561 3.14235 0
M  V30 2320 H 215.997 -0.464955 3.85305 0
M  V30 2321 H 214.098 -2.61801 2.65124 0
M  V30 2322 H 214.211 -1.90574 4.39566 0
M  V30 2323 H 212.575 -1.10118 2.29665 0
M  V30 2324 H 213.358 0.126679 3.43066 0
M  V30 2325 N 215.803 -1.52179 -0.40978 0
M  V30 2326 C 216.733 -1.78435 -1.5061 0
M  V30 2327 C 217.714 -0.635295 -1.57791 0
M  V30 2328 O 218.899 -0.880823 -1.73076 0
M  V30 2329 C 216.029 -1.93444 -2.88439 0
M  V30 2330 C 214.983 -3.09038 -2.96108 0
M  V30 2331 C 214.309 -3.09268 -4.36185 0
M  V30 2332 C 215.609 -4.48508 -2.67652 0
M  V30 2333 H 217.303 -2.70237 -1.28889 0
M  V30 2334 H 214.849 -1.30036 -0.618605 0
M  V30 2335 H 216.802 -2.10394 -3.65119 0
M  V30 2336 H 215.526 -0.983129 -3.11452 0
M  V30 2337 H 214.185 -2.91837 -2.21872 0
M  V30 2338 H 213.833 -2.11861 -4.56206 0
M  V30 2339 H 213.533 -3.86907 -4.42241 0
M  V30 2340 H 215.057 -3.28348 -5.14801 0
M  V30 2341 H 216.471 -4.65918 -3.34056 0
M  V30 2342 H 214.868 -5.28059 -2.85085 0
M  V30 2343 H 215.938 -4.56649 -1.63095 0
M  V30 2344 N 217.281 0.66697 -1.42791 0
M  V30 2345 C 218.213 1.7925 -1.42836 0
M  V30 2346 C 219.226 1.59496 -0.326333 0
M  V30 2347 O 220.415 1.6847 -0.589916 0
M  V30 2348 C 217.515 3.16476 -1.21229 0
M  V30 2349 C 216.688 3.63011 -2.44013 0
M  V30 2350 C 215.747 4.78993 -2.17834 0
M  V30 2351 O 214.773 4.89137 -2.91091 0
M  V30 2352 N 215.975 5.68248 -1.18635 0
M  V30 2353 H 218.74 1.79695 -2.39854 0
M  V30 2354 H 216.301 0.850338 -1.37771 0
M  V30 2355 H 218.293 3.91734 -1.01621 0
M  V30 2356 H 216.863 3.10884 -0.32706 0
M  V30 2357 H 216.083 2.78346 -2.79137 0
M  V30 2358 H 217.371 3.90845 -3.25757 0
M  V30 2359 H 216.769 5.62712 -0.580615 0
M  V30 2360 H 215.326 6.43285 -1.05013 0
M  V30 2361 N 218.759 1.29093 0.90403 0
M  V30 2362 C 219.984 1.19809 1.69294 0
M  V30 2363 C 220.409 -0.238481 1.86582 0
M  V30 2364 O 219.767 -1.1723 1.383 0
M  V30 2365 C 219.815 1.91202 3.05736 0
M  V30 2366 O 218.919 1.22611 3.93752 0
M  V30 2367 H 218.26 0.415385 0.518027 0
M  V30 2368 H 220.79 1.70586 1.12967 0
M  V30 2369 H 220.8 1.99487 3.55906 0
M  V30 2370 H 219.475 2.95692 2.92471 0
M  V30 2371 H 218.052 1.22554 3.52186 0
M  V30 2372 N 220.237 -1.11381 1.11499 0
M  V30 2373 C 221.653 -1.35143 0.849031 0
M  V30 2374 C 221.853 -1.94515 -0.525938 0
M  V30 2375 O 220.909 -2.1785 -1.27662 0
M  V30 2376 C 222.222 -2.28249 1.95762 0
M  V30 2377 C 223.77 -2.41812 1.98736 0
M  V30 2378 C 224.245 -3.3824 3.088 0
M  V30 2379 N 225.736 -3.45803 3.08179 0
M  V30 2380 C 226.471 -4.20358 3.89982 0
M  V30 2381 N 225.967 -4.97884 4.8175 0
M  V30 2382 N 227.76 -4.15877 3.78157 0
M  V30 2383 H 219.911 -0.712062 2.00109 0
M  V30 2384 H 222.174 -0.376025 0.870235 0
M  V30 2385 H 221.88 -1.91817 2.94787 0
M  V30 2386 H 221.754 -3.28473 1.85433 0
M  V30 2387 H 224.141 -2.77518 1.00338 0
M  V30 2388 H 224.222 -1.41437 2.13141 0
M  V30 2389 H 223.866 -3.03261 4.07425 0
M  V30 2390 H 223.796 -4.38471 2.91635 0
M  V30 2391 H 226.287 -2.90506 2.41691 0
M  V30 2392 H 226.6 -5.52142 5.40702 0
M  V30 2393 H 224.945 -4.97043 4.85771 0
M  V30 2394 H 228.136 -3.544 3.05808 0
M  V30 2395 H 228.309 -4.73723 4.42143 0
M  V30 2396 N 221.715 -0.905404 -1.28997 0
M  V30 2397 C 222.961 -0.535039 -1.95615 0
M  V30 2398 C 223.294 0.917404 -1.71165 0
M  V30 2399 O 222.569 1.65123 -1.02785 0
M  V30 2400 C 222.852 -0.834918 -3.50287 0
M  V30 2401 C 222.705 -2.33948 -3.84172 0
M  V30 2402 C 224.024 -0.325318 -4.38896 0
M  V30 2403 H 221.143 -0.195861 -0.710498 0
M  V30 2404 H 223.785 -1.13313 -1.52513 0
M  V30 2405 H 221.935 -0.325904 -3.87131 0
M  V30 2406 H 223.607 -2.91847 -3.57243 0
M  V30 2407 H 221.85 -2.79789 -3.31513 0
M  V30 2408 H 222.521 -2.49987 -4.92149 0
M  V30 2409 H 224.997 -0.761256 -4.09077 0
M  V30 2410 H 223.873 -0.564295 -5.45992 0
M  V30 2411 H 224.134 0.774144 -4.35269 0
M  V30 2412 N 223.193 1.4272 -0.668489 0
M  V30 2413 C 224.439 2.02443 -0.197076 0
M  V30 2414 C 224.794 1.51882 1.18109 0
M  V30 2415 O 224.087 0.708618 1.78015 0
M  V30 2416 C 224.281 3.57021 -0.164499 0
M  V30 2417 C 224.11 4.22583 -1.53797 0
M  V30 2418 C 222.88 4.58019 -2.13416 0
M  V30 2419 C 225.078 4.50588 -2.47941 0
M  V30 2420 N 223.06 5.08729 -3.4361 0
M  V30 2421 C 224.431 5.02782 -3.62782 0
M  V30 2422 C 226.486 4.32571 -2.46551 0
M  V30 2423 C 225.189 5.38852 -4.76478 0
M  V30 2424 C 227.215 4.69713 -3.59338 0
M  V30 2425 C 226.577 5.22053 -4.72906 0
M  V30 2426 H 222.676 0.773214 -0.116894 0
M  V30 2427 H 225.26 1.73673 -0.880108 0
M  V30 2428 H 223.431 3.85323 0.487925 0
M  V30 2429 H 225.163 4.03439 0.319207 0
M  V30 2430 H 221.918 4.43566 -1.65969 0
M  V30 2431 H 222.342 5.38521 -4.10273 0
M  V30 2432 H 226.984 3.91365 -1.59978 0
M  V30 2433 H 224.702 5.78993 -5.63731 0
M  V30 2434 H 228.288 4.57454 -3.59482 0
M  V30 2435 H 227.168 5.50258 -5.58736 0
M  V30 2436 N 224.671 0.411399 1.52136 0
M  V30 2437 C 225.603 -0.448386 2.24771 0
M  V30 2438 C 226.616 -1.00828 1.27818 0
M  V30 2439 O 227.805 -0.906841 1.53749 0
M  V30 2440 C 224.905 -1.63636 2.96777 0
M  V30 2441 C 224.078 -1.19995 4.20618 0
M  V30 2442 C 223.137 -2.25509 4.75428 0
M  V30 2443 O 222.163 -1.86007 5.3795 0
M  V30 2444 N 223.365 -3.577 4.57199 0
M  V30 2445 H 226.13 0.174025 2.99194 0
M  V30 2446 H 223.691 0.238897 1.60128 0
M  V30 2447 H 225.683 -2.33793 3.30338 0
M  V30 2448 H 224.253 -2.16465 2.25526 0
M  V30 2449 H 223.473 -0.326421 3.92846 0
M  V30 2450 H 224.761 -0.885365 5.01038 0
M  V30 2451 H 224.159 -3.92543 4.07341 0
M  V30 2452 H 222.716 -4.23827 4.95191 0
M  V30 2453 N 226.149 -1.5696 0.141893 0
M  V30 2454 C 227.377 -2.00322 -0.517579 0
M  V30 2455 C 227.792 -1.02193 -1.58752 0
M  V30 2456 O 227.149 -0.0181619 -1.82491 0
M  V30 2457 C 227.2 -3.43618 -1.12289 0
M  V30 2458 O 226.921 -4.37995 -0.0956929 0
M  V30 2459 C 228.422 -4.02231 -1.86347 0
M  V30 2460 H 225.642 -0.657243 -0.135177 0
M  V30 2461 H 228.186 -2.03146 0.234973 0
M  V30 2462 H 226.341 -3.41662 -1.82609 0
M  V30 2463 H 226.755 -5.21729 -0.538469 0
M  V30 2464 H 228.229 -5.04509 -2.23997 0
M  V30 2465 H 228.706 -3.42655 -2.74744 0
M  V30 2466 H 229.312 -4.07802 -1.20737 0
M  V30 2467 N 227.627 0.131896 -1.57047 0
M  V30 2468 C 228.574 1.16236 -1.99393 0
M  V30 2469 C 229.544 1.41863 -0.863943 0
M  V30 2470 O 230.729 1.53946 -1.12718 0
M  V30 2471 C 227.869 2.48708 -2.39245 0
M  V30 2472 C 226.982 2.30127 -3.65603 0
M  V30 2473 C 226.117 3.55738 -3.94492 0
M  V30 2474 C 225.156 3.32259 -5.14073 0
M  V30 2475 N 224.293 4.50039 -5.38896 0
M  V30 2476 H 229.133 0.794251 -2.87221 0
M  V30 2477 H 226.67 0.380707 -1.42088 0
M  V30 2478 H 228.628 3.25969 -2.60384 0
M  V30 2479 H 227.258 2.83437 -1.54478 0
M  V30 2480 H 226.31 1.43845 -3.52154 0
M  V30 2481 H 227.622 2.08746 -4.5302 0
M  V30 2482 H 226.776 4.41423 -4.1621 0
M  V30 2483 H 225.515 3.80138 -3.05526 0
M  V30 2484 H 224.52 2.44963 -4.92212 0
M  V30 2485 H 225.745 3.09242 -6.04604 0
M  V30 2486 H 223.691 4.74584 -4.52886 0
M  V30 2487 H 223.608 4.31716 -6.2061 0
M  V30 2488 H 224.876 5.36895 -5.65123 0
M  V30 2489 N 229.106 1.52395 0.401703 0
M  V30 2490 C 230.331 1.70972 1.17403 0
M  V30 2491 C 230.756 0.421615 1.83314 0
M  V30 2492 O 230.114 -0.621564 1.70312 0
M  V30 2493 C 230.162 2.85151 2.20728 0
M  V30 2494 O 229.266 2.51238 3.27037 0
M  V30 2495 H 228.607 0.568927 0.342372 0
M  V30 2496 H 231.137 1.99131 0.469891 0
M  V30 2497 H 231.147 3.10279 2.64936 0
M  V30 2498 H 229.822 3.78603 1.7214 0
M  V30 2499 H 228.399 2.36808 2.88057 0
M  V30 2500 N 230.584 -0.659388 1.43143 0
M  V30 2501 C 231.534 -1.7655 1.44271 0
M  V30 2502 C 232.518 -1.57847 0.311961 0
M  V30 2503 O 233.71 -1.68064 0.555306 0
M  V30 2504 C 230.839 -3.15104 1.36251 0
M  V30 2505 C 229.925 -3.39377 2.54331 0
M  V30 2506 N 230.316 -3.34153 3.79704 0
M  V30 2507 C 228.614 -3.70072 2.48922 0
M  V30 2508 C 229.315 -3.58337 4.58225 0
M  V30 2509 N 228.291 -3.79851 3.88863 0
M  V30 2510 H 232.093 -1.70928 2.39083 0
M  V30 2511 H 229.607 -0.860823 1.37708 0
M  V30 2512 H 231.604 -3.94389 1.35141 0
M  V30 2513 H 230.264 -3.21913 0.424531 0
M  V30 2514 H 231.275 -3.13704 4.1208 0
M  V30 2515 H 227.952 -3.84034 1.63781 0
M  V30 2516 H 229.342 -3.60129 5.67236 0
M  V30 2517 N 232.062 -1.29571 -0.897171 0
M  V30 2518 C 233.025 -1.14913 -1.98312 0
M  V30 2519 C 234.025 -0.0838629 -1.60581 0
M  V30 2520 O 235.215 -0.331006 -1.71026 0
M  V30 2521 C 232.347 -0.757835 -3.3237 0
M  V30 2522 H 233.54 -2.11377 -2.12743 0
M  V30 2523 H 231.093 -1.12793 -1.08201 0
M  V30 2524 H 231.828 0.206837 -3.2364 0
M  V30 2525 H 231.613 -1.52755 -3.61121 0
M  V30 2526 H 233.103 -0.678408 -4.12053 0
M  V30 2527 N 233.54 1.10788 -1.12088 0
M  V30 2528 C 234.47 2.19083 -0.807755 0
M  V30 2529 C 235.451 1.6858 0.226859 0
M  V30 2530 O 236.636 1.93997 0.0888475 0
M  V30 2531 C 233.766 3.46344 -0.257576 0
M  V30 2532 C 232.72 4.101 -1.22483 0
M  V30 2533 C 232.046 5.32016 -0.535052 0
M  V30 2534 C 233.346 4.54236 -2.57811 0
M  V30 2535 H 235.04 2.45534 -1.71328 0
M  V30 2536 H 232.586 1.1801 -0.825205 0
M  V30 2537 H 234.539 4.21392 -0.0262679 0
M  V30 2538 H 233.263 3.19373 0.683278 0
M  V30 2539 H 231.922 3.37054 -1.44189 0
M  V30 2540 H 231.57 5.01319 0.410827 0
M  V30 2541 H 231.27 5.75625 -1.18024 0
M  V30 2542 H 232.794 6.09799 -0.312695 0
M  V30 2543 H 234.208 5.20575 -2.40155 0
M  V30 2544 H 232.605 5.08682 -3.18375 0
M  V30 2545 H 233.675 3.6734 -3.16528 0
M  V30 2546 N 235.018 0.912232 1.28515 0
M  V30 2547 C 235.965 0.397954 2.27343 0
M  V30 2548 C 236.935 -0.526766 1.57526 0
M  V30 2549 O 238.12 -0.449292 1.85435 0
M  V30 2550 C 235.26 -0.357263 3.43246 0
M  V30 2551 C 234.373 0.599788 4.27816 0
M  V30 2552 C 233.508 -0.173725 5.30916 0
M  V30 2553 C 232.547 0.777039 6.07148 0
M  V30 2554 N 231.684 0.0371398 7.0209 0
M  V30 2555 H 236.524 1.24577 2.70711 0
M  V30 2556 H 234.061 0.625612 1.33133 0
M  V30 2557 H 236.019 -0.8113 4.09236 0
M  V30 2558 H 234.649 -1.16943 3.00872 0
M  V30 2559 H 233.701 1.17235 3.61884 0
M  V30 2560 H 235.013 1.32704 4.80823 0
M  V30 2561 H 234.167 -0.688394 6.02782 0
M  V30 2562 H 232.906 -0.934041 4.78672 0
M  V30 2563 H 231.911 1.3031 5.34134 0
M  V30 2564 H 233.136 1.53689 6.61481 0
M  V30 2565 H 231.082 -0.705213 6.52198 0
M  V30 2566 H 230.999 0.704249 7.52713 0
M  V30 2567 H 232.267 -0.457383 7.78157 0
M  V30 2568 N 236.496 -1.42363 0.676048 0
M  V30 2569 C 237.742 -2.0182 0.199125 0
M  V30 2570 C 238.075 -1.53339 -1.19168 0
M  V30 2571 O 237.35 -0.736124 -1.80032 0
M  V30 2572 C 237.633 -3.59331 0.235144 0
M  V30 2573 C 237.486 -4.17989 1.66149 0
M  V30 2574 C 238.805 -4.3813 -0.41595 0
M  V30 2575 H 235.924 -0.733293 0.0738311 0
M  V30 2576 H 238.566 -1.69368 0.86107 0
M  V30 2577 H 236.716 -3.87109 -0.328487 0
M  V30 2578 H 238.388 -4.0116 2.27747 0
M  V30 2579 H 236.631 -3.7377 2.20178 0
M  V30 2580 H 237.302 -5.27126 1.63837 0
M  V30 2581 H 239.778 -4.16051 0.0638529 0
M  V30 2582 H 238.654 -5.47717 -0.360115 0
M  V30 2583 H 238.915 -4.16101 -1.49373 0
M  V30 2584 N 237.974 -0.419461 -1.51915 0
M  V30 2585 C 239.223 0.154346 -2.01109 0
M  V30 2586 C 239.536 1.45338 -1.30905 0
M  V30 2587 O 240.742 2.10906 -1.7097 0
M  V30 2588 C 239.198 0.325615 -3.58424 0
M  V30 2589 C 238.806 -0.961934 -4.37551 0
M  V30 2590 C 240.55 0.854155 -4.15818 0
M  V30 2591 C 238.457 -0.757287 -5.86531 0
M  V30 2592 H 237.387 0.0614563 -0.751491 0
M  V30 2593 H 240.038 -0.54649 -1.75173 0
M  V30 2594 H 238.42 1.08903 -3.80731 0
M  V30 2595 H 239.594 -1.7323 -4.26999 0
M  V30 2596 H 237.909 -1.41766 -3.91524 0
M  V30 2597 H 240.506 1.02346 -5.24814 0
M  V30 2598 H 240.849 1.83172 -3.73837 0
M  V30 2599 H 241.382 0.149528 -3.97519 0
M  V30 2600 H 238.121 -1.70671 -6.32892 0
M  V30 2601 H 237.641 -0.0264061 -5.99794 0
M  V30 2602 H 239.32 -0.403482 -6.45741 0
M  V30 2603 N 239.452 1.56882 -0.150215 0
M  V30 2604 C 240.415 2.1573 0.774157 0
M  V30 2605 C 241.415 1.0999 1.17298 0
M  V30 2606 O 242.605 1.35613 1.09338 0
M  V30 2607 C 239.737 2.72302 2.05096 0
M  V30 2608 H 240.93 2.98752 0.262201 0
M  V30 2609 H 238.483 1.55985 0.099248 0
M  V30 2610 H 239.218 1.92956 2.6065 0
M  V30 2611 H 239.003 3.49665 1.77416 0
M  V30 2612 H 240.493 3.17632 2.71109 0
M  V30 2613 N 240.93 -0.123565 1.57115 0
M  V30 2614 C 241.893 -1.13583 1.99076 0
M  V30 2615 C 242.893 -1.34564 0.880296 0
M  V30 2616 O 244.083 -1.31158 1.14644 0
M  V30 2617 C 241.215 -2.49128 2.32698 0
M  V30 2618 H 242.408 -0.775287 2.89706 0
M  V30 2619 H 239.961 -0.36771 1.51913 0
M  V30 2620 H 240.696 -2.90111 1.44934 0
M  V30 2621 H 240.481 -2.35255 3.13684 0
M  V30 2622 H 241.971 -3.2199 2.65918 0
M  V30 2623 N 242.408 -1.52605 -0.393616 0
M  V30 2624 C 243.636 -1.71294 -1.16043 0
M  V30 2625 C 244.051 -0.429259 -1.83855 0
M  V30 2626 O 243.408 0.595921 -1.72496 0
M  V30 2627 C 243.459 -2.8593 -2.21193 0
M  V30 2628 O 243.18 -4.09329 -1.56146 0
M  V30 2629 C 244.681 -3.16259 -3.10636 0
M  V30 2630 H 241.901 -0.573641 -0.348104 0
M  V30 2631 H 244.445 -1.99234 -0.461092 0
M  V30 2632 H 242.6 -2.60465 -2.86769 0
M  V30 2633 H 243.014 -4.73323 -2.25978 0
M  V30 2634 H 244.488 -3.99946 -3.80456 0
M  V30 2635 H 244.965 -2.3045 -3.73884 0
M  V30 2636 H 245.571 -3.43547 -2.50711 0
M  V30 2637 N 243.887 0.651787 -1.4349 0
M  V30 2638 C 245.133 1.4121 -1.46395 0
M  V30 2639 C 245.488 1.92202 -0.087366 0
M  V30 2640 O 244.781 1.69452 0.894231 0
M  V30 2641 C 244.975 2.60914 -2.44251 0
M  V30 2642 C 244.804 2.21639 -3.91288 0
M  V30 2643 C 243.574 2.09897 -4.59643 0
M  V30 2644 C 245.772 1.81835 -4.81083 0
M  V30 2645 N 243.754 1.63967 -5.91598 0
M  V30 2646 C 245.125 1.46998 -6.02322 0
M  V30 2647 C 247.18 1.69031 -4.6833 0
M  V30 2648 C 245.883 1.00638 -7.12225 0
M  V30 2649 C 247.909 1.24077 -5.78238 0
M  V30 2650 C 247.271 0.901772 -6.98604 0
M  V30 2651 H 243.37 0.512322 -0.590805 0
M  V30 2652 H 245.954 0.74989 -1.7968 0
M  V30 2653 H 244.125 3.24792 -2.1299 0
M  V30 2654 H 245.857 3.27622 -2.37584 0
M  V30 2655 H 242.612 2.297 -4.14168 0
M  V30 2656 H 243.036 1.43359 -6.61647 0
M  V30 2657 H 247.678 1.93878 -3.75727 0
M  V30 2658 H 245.396 0.745399 -8.04655 0
M  V30 2659 H 248.982 1.14657 -5.7039 0
M  V30 2660 H 247.862 0.559226 -7.82203 0
M  V30 2661 N 245.365 1.30045 0.890287 0
M  V30 2662 C 246.605 1.19839 1.65584 0
M  V30 2663 C 246.969 -0.244175 1.90441 0
M  V30 2664 O 248.17 -0.469378 2.6467 0
M  V30 2665 C 246.441 1.99876 2.96284 0
M  V30 2666 S 248 2.06309 3.87275 0
M  V30 2667 H 244.818 0.427157 0.568382 0
M  V30 2668 H 247.42 1.64453 1.05715 0
M  V30 2669 H 246.124 3.03809 2.75913 0
M  V30 2670 H 245.655 1.55903 3.61189 0
M  V30 2671 H 247.67 1.18661 4.81803 0
M  V30 2672 N 246.843 -1.10192 1.12674 0
M  V30 2673 C 247.773 -2.18652 0.819362 0
M  V30 2674 C 248.754 -1.68698 -0.217915 0
M  V30 2675 O 249.939 -1.94041 -0.0785581 0
M  V30 2676 C 247.069 -3.46202 0.27594 0
M  V30 2677 C 246.023 -4.09444 1.24656 0
M  V30 2678 C 245.349 -5.31725 0.563258 0
M  V30 2679 C 246.649 -4.52863 2.60217 0
M  V30 2680 H 248.343 -2.44622 1.72628 0
M  V30 2681 H 245.889 -1.17571 0.831451 0
M  V30 2682 H 247.842 -4.21372 0.0486149 0
M  V30 2683 H 246.566 -3.1973 -0.666331 0
M  V30 2684 H 245.225 -3.36284 1.45974 0
M  V30 2685 H 244.873 -5.0153 -0.384235 0
M  V30 2686 H 244.573 -5.74991 1.21075 0
M  V30 2687 H 246.097 -6.09624 0.34503 0
M  V30 2688 H 247.511 -5.19294 2.42913 0
M  V30 2689 H 245.908 -5.06986 3.21068 0
M  V30 2690 H 246.978 -3.65656 3.18471 0
M  V30 2691 N 248.321 -0.919034 -1.28029 0
M  V30 2692 C 249.546 -0.570357 -1.99403 0
M  V30 2693 C 249.971 0.842486 -1.68178 0
M  V30 2694 O 249.329 1.56391 -0.917141 0
M  V30 2695 C 249.377 -0.792541 -3.51783 0
M  V30 2696 O 248.481 0.145988 -4.12142 0
M  V30 2697 H 247.822 -0.220555 -0.6263 0
M  V30 2698 H 250.352 -1.23592 -1.63053 0
M  V30 2699 H 250.362 -0.704708 -4.01868 0
M  V30 2700 H 249.037 -1.82247 -3.73844 0
M  V30 2701 H 247.614 0.00897528 -3.72899 0
M  V30 2702 N 249.799 1.42003 -0.683588 0
M  V30 2703 C 251.046 2.01413 -0.209514 0
M  V30 2704 C 251.374 1.54088 1.1869 0
M  V30 2705 O 250.629 0.737591 1.81268 0
M  V30 2706 C 250.928 3.56827 -0.202357 0
M  V30 2707 C 250.594 4.23617 -1.54464 0
M  V30 2708 C 249.256 4.41577 -1.91215 0
M  V30 2709 C 251.608 4.61178 -2.42826 0
M  V30 2710 C 248.936 4.9437 -3.15935 0
M  V30 2711 C 251.288 5.15355 -3.66867 0
M  V30 2712 C 249.952 5.31528 -4.03776 0
M  V30 2713 H 249.222 0.737023 -0.0766668 0
M  V30 2714 H 251.869 1.70067 -0.880312 0
M  V30 2715 H 250.174 3.87892 0.551969 0
M  V30 2716 H 251.871 4.00588 0.181793 0
M  V30 2717 H 248.461 4.10004 -1.24877 0
M  V30 2718 H 252.645 4.46968 -2.15717 0
M  V30 2719 H 247.901 5.05076 -3.44541 0
M  V30 2720 H 252.075 5.43402 -4.35531 0
M  V30 2721 H 249.702 5.72199 -5.00492 0
M  V30 2722 N 251.277 0.427512 1.51691 0
M  V30 2723 C 252.505 -0.141191 2.06418 0
M  V30 2724 C 252.92 -1.37303 1.29589 0
M  V30 2725 O 252.277 -1.79059 0.352732 0
M  V30 2726 C 252.328 -0.473266 3.58389 0
M  V30 2727 O 252.049 0.709673 4.32314 0
M  V30 2728 C 253.55 -1.09371 4.29596 0
M  V30 2729 H 250.77 -0.0122747 0.670888 0
M  V30 2730 H 253.314 0.603764 1.95384 0
M  V30 2731 H 251.469 -1.16812 3.69369 0
M  V30 2732 H 251.883 0.42807 5.2275 0
M  V30 2733 H 253.357 -1.27613 5.37046 0
M  V30 2734 H 253.834 -2.072 3.87253 0
M  V30 2735 H 254.44 -0.43853 4.23033 0
M  V30 2736 N 252.755 -1.56801 0.158532 0
M  V30 2737 C 254.004 -1.95665 -0.489702 0
M  V30 2738 C 254.317 -1.04654 -1.65248 0
M  V30 2739 O 255.523 -1.33146 -2.3661 0
M  V30 2740 C 253.979 -3.47874 -0.922582 0
M  V30 2741 C 253.587 -4.47489 0.213893 0
M  V30 2742 C 255.331 -3.95583 -1.53996 0
M  V30 2743 C 253.238 -5.90921 -0.237903 0
M  V30 2744 H 252.168 -0.730516 -0.186716 0
M  V30 2745 H 254.819 -1.81861 0.244722 0
M  V30 2746 H 253.201 -3.57051 -1.71261 0
M  V30 2747 H 254.375 -4.50017 0.991036 0
M  V30 2748 H 252.69 -4.09764 0.740407 0
M  V30 2749 H 255.287 -5.0019 -1.8898 0
M  V30 2750 H 255.63 -3.37789 -2.43319 0
M  V30 2751 H 256.163 -3.8937 -0.814611 0
M  V30 2752 H 252.902 -6.52559 0.620236 0
M  V30 2753 H 252.422 -5.91729 -0.980676 0
M  V30 2754 H 254.101 -6.43352 -0.686067 0
M  V30 2755 N 254.233 0.115231 -1.57178 0
M  V30 2756 C 255.166 1.17166 -1.95825 0
M  V30 2757 C 256.144 1.39912 -0.828463 0
M  V30 2758 O 257.328 1.54004 -1.08697 0
M  V30 2759 C 254.455 2.52478 -2.25771 0
M  V30 2760 C 253.501 2.46136 -3.48309 0
M  V30 2761 S 254.334 1.89736 -5.0076 0
M  V30 2762 C 255.49 3.26713 -5.33863 0
M  V30 2763 H 255.723 0.842103 -2.85124 0
M  V30 2764 H 253.256 0.322136 -1.51002 0
M  V30 2765 H 255.214 3.30332 -2.43702 0
M  V30 2766 H 253.875 2.82609 -1.37079 0
M  V30 2767 H 253.068 3.45819 -3.66641 0
M  V30 2768 H 252.67 1.76404 -3.29784 0
M  V30 2769 H 254.962 4.22935 -5.29275 0
M  V30 2770 H 255.905 3.13205 -6.35065 0
M  V30 2771 H 256.313 3.25316 -4.61335 0
M  V30 2772 N 255.711 1.52812 0.385517 0
M  V30 2773 C 256.939 1.71907 1.15133 0
M  V30 2774 C 257.354 0.439004 1.83625 0
M  V30 2775 O 256.711 -0.586765 1.7281 0
M  V30 2776 C 256.762 2.87099 2.19673 0
M  V30 2777 O 256.483 4.10151 1.53973 0
M  V30 2778 C 257.984 3.17902 3.08955 0
M  V30 2779 H 255.204 0.575479 0.345057 0
M  V30 2780 H 257.748 1.99476 0.45052 0
M  V30 2781 H 255.903 2.61982 2.85384 0
M  V30 2782 H 256.317 4.74514 2.23465 0
M  V30 2783 H 257.791 4.01959 3.7833 0
M  V30 2784 H 258.268 2.3243 3.72657 0
M  V30 2785 H 258.874 3.44871 2.48885 0
M  V30 2786 N 257.189 -0.644168 1.43834 0
M  V30 2787 C 258.6 -1.22554 1.40845 0
M  V30 2788 C 258.951 -1.9585 0.117115 0
M  V30 2789 O 258.076 -2.01734 -0.783086 0
M  V30 2790 C 258.671 -2.22907 2.55143 0
M  V30 2791 C 257.23 -2.76501 2.5539 0
M  V30 2792 C 256.377 -1.51287 2.32396 0
M  V30 2793 H 259.328 -0.43563 1.52604 0
M  V30 2794 H 259.349 -3.05259 2.2715 0
M  V30 2795 H 258.861 -1.69533 3.49114 0
M  V30 2796 H 256.962 -3.33914 1.65324 0
M  V30 2797 H 257.075 -3.23429 3.53455 0
M  V30 2798 H 255.439 -1.78957 1.81236 0
M  V30 2799 H 256.222 -0.998336 3.28463 0
M  V30 2800 N 258.668 -1.30515 -0.883378 0
M  V30 2801 C 259.898 -1.22182 -1.66599 0
M  V30 2802 C 260.306 0.217507 -1.87946 0
M  V30 2803 O 259.649 1.1554 -1.42815 0
M  V30 2804 C 259.711 -1.88146 -3.06335 0
M  V30 2805 C 259.375 -3.37476 -3.08154 0
M  V30 2806 C 260.372 -4.33443 -2.87094 0
M  V30 2807 C 258.057 -3.7895 -3.29701 0
M  V30 2808 C 260.051 -5.68858 -2.8754 0
M  V30 2809 C 257.738 -5.14482 -3.29776 0
M  V30 2810 C 258.736 -6.09246 -3.0872 0
M  V30 2811 O 258.424 -7.42302 -3.08615 0
M  V30 2812 H 258.156 -0.423898 -0.52658 0
M  V30 2813 H 260.71 -1.72703 -1.11188 0
M  V30 2814 H 258.94 -1.32157 -3.63416 0
M  V30 2815 H 260.629 -1.7391 -3.66756 0
M  V30 2816 H 261.395 -4.02733 -2.70243 0
M  V30 2817 H 257.274 -3.05631 -3.45124 0
M  V30 2818 H 260.818 -6.428 -2.71024 0
M  V30 2819 H 256.715 -5.44832 -3.46163 0
M  V30 2820 H 257.483 -7.5131 -3.24769 0
M  V30 2821 N 260.146 1.09593 -1.13257 0
M  V30 2822 C 261.557 1.63229 -0.906274 0
M  V30 2823 C 261.908 1.8811 0.557578 0
M  V30 2824 O 261.033 1.62953 1.42391 0
M  V30 2825 C 261.628 2.96535 -1.63867 0
M  V30 2826 C 260.187 3.47003 -1.45828 0
M  V30 2827 C 259.334 2.2145 -1.66898 0
M  V30 2828 H 262.285 0.92978 -1.28611 0
M  V30 2829 H 262.306 3.64411 -1.09476 0
M  V30 2830 H 261.818 2.78394 -2.70404 0
M  V30 2831 H 259.919 3.70272 -0.415848 0
M  V30 2832 H 260.032 4.24551 -2.2202 0
M  V30 2833 H 258.396 2.30022 -1.09371 0
M  V30 2834 H 259.179 2.0583 -2.74752 0
M  V30 2835 N 261.624 0.925811 1.2754 0
M  V30 2836 C 262.873 0.561084 1.93739 0
M  V30 2837 C 263.186 -0.901685 1.73577 0
M  V30 2838 O 264.392 -1.37511 2.34101 0
M  V30 2839 C 262.848 0.952668 3.47062 0
M  V30 2840 C 262.456 2.43599 3.75983 0
M  V30 2841 C 264.2 0.659103 4.19352 0
M  V30 2842 C 262.107 2.76707 5.22673 0
M  V30 2843 H 261.037 0.206122 0.725279 0
M  V30 2844 H 263.688 1.12637 1.44863 0
M  V30 2845 H 262.07 0.316053 3.94737 0
M  V30 2846 H 263.244 3.12035 3.39073 0
M  V30 2847 H 261.559 2.70125 3.16893 0
M  V30 2848 H 264.156 0.882985 5.27359 0
M  V30 2849 H 264.499 -0.403607 4.14339 0
M  V30 2850 H 265.032 1.25473 3.77494 0
M  V30 2851 H 261.771 3.8188 5.32774 0
M  V30 2852 H 261.291 2.12919 5.60737 0
M  V30 2853 H 262.97 2.6435 5.90532 0
M  V30 2854 N 263.102 -1.41638 0.69111 0
M  V30 2855 C 264.332 -2.0533 0.228758 0
M  V30 2856 C 264.74 -1.52089 -1.12541 0
M  V30 2857 O 264.083 -0.662145 -1.71351 0
M  V30 2858 C 264.145 -3.59349 0.10407 0
M  V30 2859 C 263.809 -4.35362 1.38956 0
M  V30 2860 C 264.806 -4.64942 2.32648 0
M  V30 2861 C 262.491 -4.74714 1.64169 0
M  V30 2862 C 264.485 -5.32828 3.49818 0
M  V30 2863 C 262.172 -5.42338 2.81625 0
M  V30 2864 C 263.17 -5.71322 3.74273 0
M  V30 2865 O 262.858 -6.37554 4.89673 0
M  V30 2866 H 262.59 -0.667796 0.104997 0
M  V30 2867 H 265.144 -1.82477 0.942938 0
M  V30 2868 H 263.374 -3.80924 -0.665839 0
M  V30 2869 H 265.063 -4.04633 -0.320519 0
M  V30 2870 H 265.829 -4.35025 2.14425 0
M  V30 2871 H 261.708 -4.51538 0.929202 0
M  V30 2872 H 265.252 -5.55368 4.22152 0
M  V30 2873 H 261.149 -5.71673 2.99768 0
M  V30 2874 H 261.917 -6.56049 4.8943 0
M  V30 2875 N 264.58 -0.43555 -1.51462 0
M  V30 2876 C 265.805 0.132627 -2.06976 0
M  V30 2877 C 266.23 1.35848 -1.30104 0
M  V30 2878 O 265.588 1.78112 -0.338493 0
M  V30 2879 C 265.636 0.43523 -3.57964 0
M  V30 2880 O 264.74 1.52198 -3.83288 0
M  V30 2881 H 264.081 0.00265 -0.663995 0
M  V30 2882 H 266.611 -0.616369 -1.95095 0
M  V30 2883 H 266.621 0.686206 -4.02188 0
M  V30 2884 H 265.296 -0.460739 -4.1334 0
M  V30 2885 H 263.873 1.2611 -3.50928 0
M  V30 2886 N 266.058 1.56714 -0.166846 0
M  V30 2887 C 267.006 2.19056 0.782123 0
M  V30 2888 C 268 1.15328 1.24079 0
M  V30 2889 O 269.206 1.33537 1.20697 0
M  V30 2890 H 265.581 0.70167 0.270486 0
M  V30 2891 H 267.552 2.97494 0.232322 0
M  V30 2892 C 266.301 2.84206 2.00306 0
M  V30 2893 H 265.624 3.63748 1.65914 0
M  V30 2894 H 267.064 3.31302 2.64604 0
M  V30 2895 C 265.523 1.83744 2.82382 0
M  V30 2896 O 266.053 1.32014 3.79388 0
M  V30 2897 N 264.259 1.52601 2.47308 0
M  V30 2898 H 263.806 1.9486 1.68485 0
M  V30 2899 H 263.764 0.856351 3.02513 0
M  V30 2900 N 267.536 -0.106894 1.57237 0
M  V30 2901 C 268.466 -1.13148 2.04254 0
M  V30 2902 C 269.447 -1.42476 0.929224 0
M  V30 2903 O 270.632 -1.52709 1.19973 0
M  V30 2904 C 267.762 -2.4545 2.45706 0
M  V30 2905 C 266.716 -2.30558 3.60592 0
M  V30 2906 C 266.042 -3.67931 3.87983 0
M  V30 2907 C 267.342 -1.75597 4.91897 0
M  V30 2908 H 269.036 -0.740374 2.90101 0
M  V30 2909 H 266.582 -0.354696 1.39563 0
M  V30 2910 H 268.535 -3.17389 2.77205 0
M  V30 2911 H 267.259 -2.86475 1.56843 0
M  V30 2912 H 265.918 -1.61067 3.29322 0
M  V30 2913 H 265.566 -4.06462 2.96306 0
M  V30 2914 H 265.266 -3.58817 4.65322 0
M  V30 2915 H 266.79 -4.41356 4.21945 0
M  V30 2916 H 268.204 -2.37364 5.21854 0
M  V30 2917 H 266.601 -1.77272 5.73319 0
M  V30 2918 H 267.671 -0.714451 4.79608 0
M  V30 2919 N 269.014 -1.53014 -0.377408 0
M  V30 2920 C 270.26 -1.68872 -1.12294 0
M  V30 2921 C 270.593 -0.433224 -1.89306 0
M  V30 2922 O 269.868 0.569258 -1.85983 0
M  V30 2923 C 270.151 -2.93115 -2.09179 0
M  V30 2924 C 270.004 -4.28794 -1.35853 0
M  V30 2925 C 271.323 -3.12928 -3.09458 0
M  V30 2926 H 268.442 -0.614518 -0.406862 0
M  V30 2927 H 271.084 -1.85633 -0.40503 0
M  V30 2928 H 269.234 -2.78956 -2.70399 0
M  V30 2929 H 270.906 -4.54742 -0.775082 0
M  V30 2930 H 269.149 -4.28744 -0.660364 0
M  V30 2931 H 269.82 -5.11837 -2.06706 0
M  V30 2932 H 272.296 -3.26194 -2.58334 0
M  V30 2933 H 271.172 -4.01316 -3.74482 0
M  V30 2934 H 271.433 -2.27669 -3.78971 0
M  V30 2935 N 270.492 0.636531 -1.44174 0
M  V30 2936 C 271.903 1.21806 -1.41493 0
M  V30 2937 C 272.254 1.95785 -0.1275 0
M  V30 2938 O 271.379 2.02147 0.772376 0
M  V30 2939 C 271.974 2.21551 -2.56321 0
M  V30 2940 C 270.533 2.75143 -2.56853 0
M  V30 2941 C 269.68 1.50052 -2.33195 0
M  V30 2942 H 272.631 0.427531 -1.52833 0
M  V30 2943 H 272.652 3.0405 -2.28765 0
M  V30 2944 H 272.164 1.67679 -3.50008 0
M  V30 2945 H 270.265 3.33033 -1.67093 0
M  V30 2946 H 270.378 3.2155 -3.55165 0
M  V30 2947 H 268.742 1.77993 -1.82183 0
M  V30 2948 H 269.525 0.980903 -3.28988 0
M  V30 2949 N 271.97 1.30982 0.876444 0
M  V30 2950 C 273.217 1.20296 1.62896 0
M  V30 2951 C 273.545 -0.240395 1.93009 0
M  V30 2952 O 272.8 -1.18733 1.55567 0
M  V30 2953 C 273.099 1.98572 2.9716 0
M  V30 2954 C 272.765 3.48125 2.86566 0
M  V30 2955 C 271.427 3.88905 2.83383 0
M  V30 2956 C 273.779 4.43322 2.74071 0
M  V30 2957 C 271.107 5.2316 2.65556 0
M  V30 2958 C 273.459 5.77695 2.57781 0
M  V30 2959 C 272.123 6.17704 2.52979 0
M  V30 2960 H 271.393 0.440193 0.59608 0
M  V30 2961 H 274.04 1.62177 1.01837 0
M  V30 2962 H 272.345 1.49352 3.62217 0
M  V30 2963 H 274.042 1.8769 3.54364 0
M  V30 2964 H 270.632 3.15723 2.89856 0
M  V30 2965 H 274.816 4.12752 2.75589 0
M  V30 2966 H 270.072 5.53241 2.60259 0
M  V30 2967 H 274.246 6.51091 2.47089 0
M  V30 2968 H 271.873 7.21678 2.38924 0
M  V30 2969 N 273.449 -1.08991 1.13837 0
M  V30 2970 C 274.677 -1.85011 0.926202 0
M  V30 2971 C 275.092 -1.8135 -0.525127 0
M  V30 2972 O 274.449 -1.21287 -1.36366 0
M  V30 2973 C 274.5 -3.32802 1.41155 0
M  V30 2974 O 274.221 -3.36444 2.80601 0
M  V30 2975 C 275.722 -4.25649 1.23847 0
M  V30 2976 H 272.942 -0.584249 0.32999 0
M  V30 2977 H 275.486 -1.37688 1.51202 0
M  V30 2978 H 273.641 -3.77536 0.868631 0
M  V30 2979 H 274.055 -4.28657 3.02248 0
M  V30 2980 H 275.529 -5.27485 1.62675 0
M  V30 2981 H 276.006 -4.38828 0.18065 0
M  V30 2982 H 276.612 -3.86735 1.76964 0
M  V30 2983 N 274.927 -0.932562 -1.27047 0
M  V30 2984 C 275.874 -0.434072 -2.26681 0
M  V30 2985 C 276.844 0.501639 -1.58344 0
M  V30 2986 O 278.029 0.419734 -1.86126 0
M  V30 2987 C 275.169 0.30261 -3.43771 0
M  V30 2988 C 274.282 -0.667774 -4.26808 0
M  V30 2989 C 273.417 0.0892393 -5.31125 0
M  V30 2990 C 272.456 -0.873532 -6.05835 0
M  V30 2991 N 271.593 -0.148832 -7.01942 0
M  V30 2992 H 276.433 -1.28868 -2.68695 0
M  V30 2993 H 273.97 -0.646713 -1.32121 0
M  V30 2994 H 275.928 0.746092 -4.10474 0
M  V30 2995 H 274.558 1.12142 -3.02695 0
M  V30 2996 H 273.61 -1.22978 -3.59973 0
M  V30 2997 H 274.922 -1.40337 -4.78651 0
M  V30 2998 H 274.076 0.592409 -6.03801 0
M  V30 2999 H 272.815 0.85777 -4.80097 0
M  V30 3000 H 271.82 -1.38791 -5.31994 0
M  V30 3001 H 273.045 -1.64193 -6.58952 0
M  V30 3002 H 270.991 0.601365 -6.53238 0
M  V30 3003 H 270.908 -0.82391 -7.51497 0
M  V30 3004 H 272.176 0.333527 -7.78786 0
M  V30 3005 N 276.405 1.4127 -0.698611 0
M  V30 3006 C 277.353 2.32588 -0.023855 0
M  V30 3007 C 278.347 1.51128 0.765292 0
M  V30 3008 O 279.553 1.67043 0.670571 0
M  V30 3009 H 275.928 0.751918 0.0110871 0
M  V30 3010 H 277.899 2.87167 -0.811031 0
M  V30 3011 C 276.648 3.35947 0.896369 0
M  V30 3012 H 275.971 3.98684 0.298548 0
M  V30 3013 H 277.411 4.02376 1.33676 0
M  V30 3014 C 275.87 2.70076 2.01396 0
M  V30 3015 O 276.4 2.55093 3.10307 0
M  V30 3016 N 274.606 2.28724 1.79259 0
M  V30 3017 H 274.153 2.4111 0.906841 0
M  V30 3018 H 274.111 1.84986 2.54219 0
M  V30 3019 N 277.883 0.443576 1.51229 0
M  V30 3020 C 278.831 -0.37904 2.29491 0
M  V30 3021 C 279.825 -1.0153 1.35603 0
M  V30 3022 O 281.031 -0.94955 1.52917 0
M  V30 3023 H 277.406 -0.141053 0.738653 0
M  V30 3024 H 279.377 0.301799 2.9687 0
M  V30 3025 C 278.126 -1.46426 3.15364 0
M  V30 3026 H 277.449 -0.984037 3.87501 0
M  V30 3027 H 278.889 -2.01297 3.7317 0
M  V30 3028 C 277.348 -2.45099 2.31146 0
M  V30 3029 O 277.878 -3.49773 1.9754 0
M  V30 3030 N 276.084 -2.16139 1.94249 0
M  V30 3031 H 275.631 -1.31044 2.21777 0
M  V30 3032 H 275.589 -2.82398 1.38198 0
M  V30 3033 N 279.361 -1.56624 0.175154 0
M  V30 3034 C 280.309 -2.19468 -0.770495 0
M  V30 3035 C 281.303 -1.15985 -1.23466 0
M  V30 3036 O 282.509 -1.34176 -1.19987 0
M  V30 3037 H 278.884 -0.703095 -0.266761 0
M  V30 3038 H 280.855 -2.97613 -0.216542 0
M  V30 3039 C 279.604 -2.85264 -1.98796 0
M  V30 3040 H 278.927 -3.64623 -1.63983 0
M  V30 3041 H 280.367 -3.327 -2.62843 0
M  V30 3042 C 278.826 -1.85239 -2.81404 0
M  V30 3043 O 279.356 -1.34024 -3.78682 0
M  V30 3044 N 277.562 -1.53911 -2.46495 0
M  V30 3045 H 277.109 -1.95751 -1.67449 0
M  V30 3046 H 277.067 -0.872382 -3.02054 0
M  V30 3047 N 280.839 0.0985539 -1.57292 0
M  V30 3048 C 281.771 1.14595 -1.98496 0
M  V30 3049 C 282.784 1.36512 -0.887031 0
M  V30 3050 O 283.973 1.35225 -1.16518 0
M  V30 3051 C 281.073 2.50216 -2.28572 0
M  V30 3052 C 280.246 2.48624 -3.59868 0
M  V30 3053 C 279.305 3.66146 -3.7792 0
M  V30 3054 O 278.331 3.48795 -4.49812 0
M  V30 3055 N 279.533 4.85496 -3.18235 0
M  V30 3056 H 282.298 0.795277 -2.88956 0
M  V30 3057 H 279.859 0.287579 -1.59325 0
M  V30 3058 H 281.851 3.27432 -2.37845 0
M  V30 3059 H 280.421 2.77387 -1.44136 0
M  V30 3060 H 279.641 1.56978 -3.61596 0
M  V30 3061 H 280.929 2.44635 -4.46129 0
M  V30 3062 H 280.327 5.02497 -2.59833 0
M  V30 3063 H 278.884 5.60317 -3.32999 0
M  V30 3064 N 282.317 1.53212 0.369288 0
M  V30 3065 C 283.545 1.73119 1.13303 0
M  V30 3066 C 283.96 0.458455 1.83149 0
M  V30 3067 O 283.317 -0.568403 1.73423 0
M  V30 3068 C 283.368 2.89413 2.16616 0
M  V30 3069 O 283.089 4.11761 1.49614 0
M  V30 3070 C 284.59 3.21161 3.05566 0
M  V30 3071 H 281.81 0.579107 0.338934 0
M  V30 3072 H 284.354 1.99942 0.429338 0
M  V30 3073 H 282.509 2.64994 2.82589 0
M  V30 3074 H 282.923 4.76858 2.18419 0
M  V30 3075 H 284.397 4.05949 3.74045 0
M  V30 3076 H 284.874 2.36369 3.70171 0
M  V30 3077 H 285.48 3.47492 2.45213 0
M  V30 3078 N 283.795 -0.628877 1.44509 0
M  V30 3079 C 284.758 -1.72263 1.51188 0
M  V30 3080 C 285.758 -1.55907 0.39367 0
M  V30 3081 O 286.948 -1.61361 0.656377 0
M  V30 3082 C 284.08 -3.11365 1.38798 0
M  V30 3083 H 285.273 -1.67714 2.4862 0
M  V30 3084 H 282.826 -0.842737 1.31634 0
M  V30 3085 H 283.561 -3.21507 0.424693 0
M  V30 3086 H 283.346 -3.24644 2.19884 0
M  V30 3087 H 284.836 -3.91075 1.46458 0
M  V30 3088 N 285.273 -1.31445 -0.869486 0
M  V30 3089 C 286.221 -1.19067 -1.99814 0
M  V30 3090 C 287.215 -0.0988569 -1.69111 0
M  V30 3091 O 288.421 -0.260781 -1.78101 0
M  V30 3092 H 284.796 -0.368677 -0.655425 0
M  V30 3093 H 286.767 -2.14555 -2.07385 0
M  V30 3094 C 285.516 -0.915323 -3.35436 0
M  V30 3095 H 284.839 -1.74759 -3.59582 0
M  V30 3096 H 286.279 -0.868895 -4.15001 0
M  V30 3097 C 284.738 0.381928 -3.34728 0
M  V30 3098 O 285.268 1.39857 -3.76567 0
M  V30 3099 N 283.474 0.398633 -2.87853 0
M  V30 3100 H 283.021 -0.429186 -2.54 0
M  V30 3101 H 282.979 1.26651 -2.87762 0
M  V30 3102 N 286.751 1.08385 -1.14413 0
M  V30 3103 C 287.684 2.14642 -0.774871 0
M  V30 3104 C 288.662 1.60761 0.243876 0
M  V30 3105 O 289.846 1.88031 0.132883 0
M  V30 3106 C 286.973 3.38366 -0.150491 0
M  V30 3107 C 286.019 4.10997 -1.13945 0
M  V30 3108 S 286.852 4.63797 -2.67679 0
M  V30 3109 C 288.008 5.90808 -2.06631 0
M  V30 3110 H 288.241 2.45633 -1.67487 0
M  V30 3111 H 285.774 1.20498 -0.96538 0
M  V30 3112 H 287.732 4.09996 0.203334 0
M  V30 3113 H 286.393 3.05572 0.72694 0
M  V30 3114 H 285.586 4.99783 -0.65059 0
M  V30 3115 H 285.188 3.4528 -1.43727 0
M  V30 3116 H 287.48 6.62411 -1.4219 0
M  V30 3117 H 288.423 6.4439 -2.93542 0
M  V30 3118 H 288.831 5.4383 -1.51357 0
M  V30 3119 N 288.23 0.939286 1.26551 0
M  V30 3120 C 289.47 0.5933 1.956 0
M  V30 3121 C 289.834 -0.851515 1.72085 0
M  V30 3122 O 291.035 -1.30634 2.34921 0
M  V30 3123 C 289.306 0.923996 3.45249 0
M  V30 3124 S 290.865 0.688269 4.33369 0
M  V30 3125 H 287.683 0.218591 0.676564 0
M  V30 3126 H 290.285 1.2102 1.5354 0
M  V30 3127 H 288.989 1.97297 3.59864 0
M  V30 3128 H 288.52 0.296746 3.92279 0
M  V30 3129 H 290.535 -0.448434 4.9417 0
M  V30 3130 N 289.708 -1.40897 0.706093 0
M  V30 3131 C 291.124 -1.55042 0.37869 0
M  V30 3132 C 291.324 -1.67944 -1.11342 0
M  V30 3133 O 290.38 -1.66372 -1.89938 0
M  V30 3134 C 291.693 -2.78398 1.13643 0
M  V30 3135 C 293.241 -2.92206 1.12181 0
M  V30 3136 C 293.716 -4.18463 1.86152 0
M  V30 3137 N 295.207 -4.25443 1.83173 0
M  V30 3138 C 295.942 -5.2202 2.37239 0
M  V30 3139 N 295.438 -6.24563 2.99821 0
M  V30 3140 N 297.231 -5.14033 2.27435 0
M  V30 3141 H 289.382 -1.30769 1.67372 0
M  V30 3142 H 291.645 -0.631653 0.706907 0
M  V30 3143 H 291.351 -2.7511 2.19106 0
M  V30 3144 H 291.225 -3.70228 0.721853 0
M  V30 3145 H 293.612 -2.95004 0.0754171 0
M  V30 3146 H 293.693 -2.01521 1.57554 0
M  V30 3147 H 293.337 -4.16427 2.90776 0
M  V30 3148 H 293.267 -5.08141 1.38206 0
M  V30 3149 H 295.758 -3.51976 1.37556 0
M  V30 3150 H 296.071 -6.94665 3.38616 0
M  V30 3151 H 294.416 -6.25035 3.03902 0
M  V30 3152 H 297.607 -4.3285 1.78208 0
M  V30 3153 H 297.78 -5.89129 2.69873 0
M  V30 3154 N 291.186 -0.45159 -1.50991 0
M  V30 3155 C 292.433 0.110074 -2.02201 0
M  V30 3156 C 292.761 1.4146 -1.33489 0
M  V30 3157 O 292.016 1.90617 -0.443125 0
M  V30 3158 C 292.315 0.361728 -3.55565 0
M  V30 3159 C 291.981 -0.858717 -4.42648 0
M  V30 3160 C 290.643 -1.19338 -4.66167 0
M  V30 3161 C 292.995 -1.67221 -4.93646 0
M  V30 3162 C 290.323 -2.34195 -5.37931 0
M  V30 3163 C 292.675 -2.8119 -5.6667 0
M  V30 3164 C 291.339 -3.15094 -5.88449 0
M  V30 3165 H 290.609 0.040279 -0.739904 0
M  V30 3166 H 293.256 -0.601696 -1.81802 0
M  V30 3167 H 291.561 1.15554 -3.74372 0
M  V30 3168 H 293.258 0.80996 -3.92735 0
M  V30 3169 H 289.848 -0.58796 -4.24548 0
M  V30 3170 H 294.032 -1.42686 -4.75347 0
M  V30 3171 H 289.288 -2.6076 -5.53005 0
M  V30 3172 H 293.462 -3.44585 -6.05173 0
M  V30 3173 H 291.089 -4.04204 -6.43835 0
M  V30 3174 N 292.664 1.56529 -0.183458 0
M  V30 3175 C 293.594 2.21549 0.737456 0
M  V30 3176 C 294.575 1.17489 1.23005 0
M  V30 3177 O 295.76 1.45959 1.281 0
M  V30 3178 C 292.89 2.86575 1.96194 0
M  V30 3179 C 291.844 3.96778 1.60473 0
M  V30 3180 C 291.17 4.48911 2.90487 0
M  V30 3181 C 292.47 5.15767 0.823497 0
M  V30 3182 H 294.164 2.98761 0.195453 0
M  V30 3183 H 291.71 1.43702 0.0925686 0
M  V30 3184 H 293.663 3.30739 2.61131 0
M  V30 3185 H 292.387 2.06749 2.52828 0
M  V30 3186 H 291.046 3.53286 0.978997 0
M  V30 3187 H 290.694 3.65862 3.45186 0
M  V30 3188 H 290.394 5.23265 2.67335 0
M  V30 3189 H 291.918 4.95771 3.56432 0
M  V30 3190 H 293.332 5.56549 1.37571 0
M  V30 3191 H 291.729 5.96114 0.690551 0
M  V30 3192 H 292.799 4.84574 -0.177782 0
M  V30 3193 N 294.142 -0.090211 1.57342 0
M  V30 3194 C 295.072 -1.10976 2.05443 0
M  V30 3195 C 296.053 -1.41482 0.944284 0
M  V30 3196 O 297.238 -1.51428 1.21586 0
M  V30 3197 C 294.368 -2.42831 2.48295 0
M  V30 3198 C 293.322 -2.26721 3.63018 0
M  V30 3199 C 292.648 -3.63796 3.91863 0
M  V30 3200 C 293.948 -1.7037 4.93732 0
M  V30 3201 H 295.642 -0.709564 2.9087 0
M  V30 3202 H 293.188 -0.339874 1.39932 0
M  V30 3203 H 295.141 -3.14431 2.80555 0
M  V30 3204 H 293.865 -2.84795 1.59873 0
M  V30 3205 H 292.524 -1.57565 3.31012 0
M  V30 3206 H 292.172 -4.03297 3.00601 0
M  V30 3207 H 291.872 -3.53861 4.69101 0
M  V30 3208 H 293.396 -4.36855 4.26603 0
M  V30 3209 H 294.81 -2.31816 5.24342 0
M  V30 3210 H 293.207 -1.71181 5.75167 0
M  V30 3211 H 294.277 -0.663542 4.80339 0
M  V30 3212 N 295.62 -1.53406 -0.361157 0
M  V30 3213 C 297.031 -1.61442 -0.937728 0
M  V30 3214 C 297.382 -0.48461 -1.90121 0
M  V30 3215 O 296.507 0.388312 -2.12888 0
M  V30 3216 C 297.102 -2.92624 -1.70753 0
M  V30 3217 C 295.661 -3.02981 -2.23337 0
M  V30 3218 C 294.808 -2.5677 -1.04712 0
M  V30 3219 H 297.759 -1.58083 -0.139816 0
M  V30 3220 H 297.78 -2.80675 -2.56908 0
M  V30 3221 H 297.292 -3.74834 -1.00604 0
M  V30 3222 H 295.393 -2.25368 -2.96715 0
M  V30 3223 H 295.506 -4.0814 -2.50916 0
M  V30 3224 H 293.87 -2.11752 -1.41539 0
M  V30 3225 H 294.653 -3.41402 -0.360539 0
M  V30 3226 N 297.098 0.621204 -1.44841 0
M  V30 3227 C 298.046 1.75385 -1.52784 0
M  V30 3228 C 299.04 1.64639 -0.398779 0
M  V30 3229 O 300.246 1.70598 -0.574137 0
M  V30 3230 H 296.621 0.579193 -0.479625 0
M  V30 3231 H 298.592 1.6581 -2.48092 0
M  V30 3232 C 297.341 3.13742 -1.4987 0
M  V30 3233 H 296.664 3.22663 -2.36069 0
M  V30 3234 H 298.104 3.92861 -1.59487 0
M  V30 3235 C 296.563 3.36175 -0.220973 0
M  V30 3236 O 297.093 3.95469 0.704782 0
M  V30 3237 N 295.299 2.90348 -0.120963 0
M  V30 3238 H 294.846 2.42278 -0.875162 0
M  V30 3239 H 294.804 3.05732 0.733168 0
M  V30 3240 N 298.576 1.31904 0.862503 0
M  V30 3241 C 299.853 1.12644 1.59908 0
M  V30 3242 C 300.233 -0.316104 2.0872 0
M  V30 3243 O 299.581 -1.31145 1.87118 0
M  V30 3244 C 299.791 2.1472 2.7513 0
M  V30 3245 C 301.139 2.47637 3.44907 0
M  V30 3246 O 302.163 2.13205 2.85346 0
M  V30 3247 O 301.022 3.06632 4.52371 0
M  V30 3248 H 298.116 0.43416 0.703871 0
M  V30 3249 H 300.662 1.43408 0.907314 0
M  V30 3250 H 299.434 3.1172 2.3653 0
M  V30 3251 H 299.057 1.84905 3.51989 0
M  V30 3252 N 300.054 -1.07777 1.14986 0
M  V30 3253 C 301.3 -1.80557 0.923422 0
M  V30 3254 C 301.633 -1.86298 -0.548337 0
M  V30 3255 O 300.908 -1.34354 -1.40639 0
M  V30 3256 C 301.191 -3.25839 1.53299 0
M  V30 3257 C 301.044 -3.28269 3.07505 0
M  V30 3258 C 302.363 -4.22991 1.21518 0
M  V30 3259 H 299.482 -0.655493 0.336894 0
M  V30 3260 H 302.124 -1.26144 1.42083 0
M  V30 3261 H 300.274 -3.72306 1.10999 0
M  V30 3262 H 301.946 -2.90079 3.58681 0
M  V30 3263 H 300.189 -2.67355 3.4162 0
M  V30 3264 H 300.86 -4.30691 3.45266 0
M  V30 3265 H 303.336 -3.84894 1.581 0
M  V30 3266 H 302.212 -5.22945 1.66793 0
M  V30 3267 H 302.473 -4.41904 0.131505 0
M  V30 3268 N 301.532 -0.945985 -1.26051 0
M  V30 3269 C 302.465 -0.403619 -2.24602 0
M  V30 3270 C 303.443 0.510241 -1.54387 0
M  V30 3271 O 304.627 0.446593 -1.83133 0
M  V30 3272 C 301.754 0.419564 -3.36091 0
M  V30 3273 C 300.8 -0.433454 -4.24292 0
M  V30 3274 S 301.633 -1.86037 -5.02146 0
M  V30 3275 C 302.789 -1.04538 -6.17108 0
M  V30 3276 H 303.022 -1.23883 -2.7026 0
M  V30 3277 H 300.555 -0.749438 -1.34992 0
M  V30 3278 H 302.513 0.888595 -4.00767 0
M  V30 3279 H 301.174 1.22951 -2.89036 0
M  V30 3280 H 300.367 0.197486 -5.03613 0
M  V30 3281 H 299.969 -0.837357 -3.64506 0
M  V30 3282 H 302.261 -0.289923 -6.76879 0
M  V30 3283 H 303.204 -1.81222 -6.84518 0
M  V30 3284 H 303.612 -0.579319 -5.61519 0
M  V30 3285 N 303.011 1.40521 -0.713556 0
M  V30 3286 C 303.943 2.29191 -0.0203126 0
M  V30 3287 C 304.956 1.45723 0.725864 0
M  V30 3288 O 306.145 1.69033 0.573581 0
M  V30 3289 C 303.245 3.2395 0.995486 0
M  V30 3290 C 302.418 4.36262 0.315256 0
M  V30 3291 C 301.477 5.11474 1.23616 0
M  V30 3292 O 300.503 5.64606 0.721719 0
M  V30 3293 N 301.705 5.20638 2.56743 0
M  V30 3294 H 304.47 2.89327 -0.781652 0
M  V30 3295 H 302.031 1.51869 -0.561022 0
M  V30 3296 H 304.023 3.71137 1.61368 0
M  V30 3297 H 302.593 2.64995 1.6582 0
M  V30 3298 H 301.813 3.91228 -0.483106 0
M  V30 3299 H 303.101 5.08558 -0.157004 0
M  V30 3300 H 302.499 4.7895 3.01037 0
M  V30 3301 H 301.056 5.71339 3.13712 0
M  V30 3302 N 304.489 0.459591 1.5075 0
M  V30 3303 C 305.421 -0.37665 2.26084 0
M  V30 3304 C 306.434 -0.967109 1.30961 0
M  V30 3305 O 307.623 -0.857468 1.56556 0
M  V30 3306 C 304.723 -1.54112 3.01832 0
M  V30 3307 C 303.896 -1.06553 4.24223 0
M  V30 3308 C 302.955 -2.1027 4.82362 0
M  V30 3309 O 301.981 -1.68798 5.43595 0
M  V30 3310 N 303.183 -3.42974 4.68347 0
M  V30 3311 H 305.948 0.269124 2.98489 0
M  V30 3312 H 303.509 0.28972 1.59287 0
M  V30 3313 H 305.501 -2.23165 3.37608 0
M  V30 3314 H 304.071 -2.0918 2.32298 0
M  V30 3315 H 303.291 -0.201274 3.93686 0
M  V30 3316 H 304.579 -0.725516 5.03601 0
M  V30 3317 H 303.977 -3.79385 4.19623 0
M  V30 3318 H 302.534 -4.07858 5.08424 0
M  V30 3319 N 305.967 -1.56429 0.191757 0
M  V30 3320 C 307.192 -2.02309 -0.456706 0
M  V30 3321 C 307.617 -1.07103 -1.5463 0
M  V30 3322 O 306.975 -0.0539677 -1.8122 0
M  V30 3323 C 307.023 -3.46654 -0.993159 0
M  V30 3324 O 306.127 -3.54559 -2.10622 0
M  V30 3325 H 305.468 -0.655303 -0.107114 0
M  V30 3326 H 307.998 -2.02364 0.301653 0
M  V30 3327 H 308.008 -3.86377 -1.31061 0
M  V30 3328 H 306.683 -4.1544 -0.195504 0
M  V30 3329 H 305.26 -3.26708 -1.79767 0
M  V30 3330 N 307.445 0.0818655 -1.57387 0
M  V30 3331 C 308.691 0.778884 -1.87896 0
M  V30 3332 C 309.046 1.75692 -0.784229 0
M  V30 3333 O 308.339 1.90417 0.212567 0
M  V30 3334 C 308.533 1.53513 -3.22752 0
M  V30 3335 C 308.362 0.631838 -4.45239 0
M  V30 3336 C 307.132 0.272571 -5.04564 0
M  V30 3337 C 309.33 -0.0670191 -5.14256 0
M  V30 3338 N 307.312 -0.637498 -6.10581 0
M  V30 3339 C 308.683 -0.834653 -6.14356 0
M  V30 3340 C 310.738 -0.139551 -4.97704 0
M  V30 3341 C 309.441 -1.66806 -6.99691 0
M  V30 3342 C 311.467 -0.959903 -5.83558 0
M  V30 3343 C 310.829 -1.71561 -6.83188 0
M  V30 3344 H 306.928 0.260764 -0.737242 0
M  V30 3345 H 309.512 0.0408227 -1.94657 0
M  V30 3346 H 307.683 2.24398 -3.17018 0
M  V30 3347 H 309.415 2.18038 -3.40942 0
M  V30 3348 H 306.17 0.62319 -4.69482 0
M  V30 3349 H 306.594 -1.08548 -6.68241 0
M  V30 3350 H 311.236 0.430376 -4.20604 0
M  V30 3351 H 308.954 -2.249 -7.76174 0
M  V30 3352 H 312.54 -1.01887 -5.72809 0
M  V30 3353 H 311.42 -2.34017 -7.48469 0
M  V30 3354 N 308.923 1.53595 0.353017 0
M  V30 3355 C 309.873 1.77299 1.43349 0
M  V30 3356 C 310.857 0.627884 1.48143 0
M  V30 3357 O 312.049 0.88697 1.53173 0
M  V30 3358 C 309.178 1.97757 2.80619 0
M  V30 3359 C 308.264 3.18305 2.80254 0
M  V30 3360 N 308.655 4.39967 2.49526 0
M  V30 3361 C 306.953 3.19283 3.11407 0
M  V30 3362 C 307.654 5.21772 2.57156 0
M  V30 3363 N 306.63 4.58269 2.92388 0
M  V30 3364 H 310.432 2.68963 1.18474 0
M  V30 3365 H 307.946 1.52391 0.561306 0
M  V30 3366 H 309.943 2.1287 3.58458 0
M  V30 3367 H 308.603 1.07329 3.06448 0
M  V30 3368 H 309.614 4.67482 2.22893 0
M  V30 3369 H 306.291 2.3879 3.4247 0
M  V30 3370 H 307.681 6.2885 2.36638 0
M  V30 3371 N 310.401 -0.613514 1.45168 0
M  V30 3372 C 311.629 -1.39946 1.5239 0
M  V30 3373 C 312.044 -1.88167 0.154531 0
M  V30 3374 O 311.401 -1.61872 -0.842843 0
M  V30 3375 C 311.452 -2.60795 2.50337 0
M  V30 3376 O 311.173 -2.1458 3.81952 0
M  V30 3377 C 312.674 -3.53723 2.67198 0
M  V30 3378 H 309.894 -0.428593 0.516284 0
M  V30 3379 H 312.438 -0.748753 1.903 0
M  V30 3380 H 310.593 -3.21919 2.15515 0
M  V30 3381 H 311.007 -2.93055 4.34993 0
M  V30 3382 H 312.481 -4.35079 3.39721 0
M  V30 3383 H 312.958 -4.0368 1.73029 0
M  V30 3384 H 313.564 -2.98456 3.02992 0
M  V30 3385 N 311.879 -1.3236 -0.855495 0
M  V30 3386 C 313.126 -1.22872 -1.60962 0
M  V30 3387 C 313.454 0.209658 -1.93367 0
M  V30 3388 O 312.709 1.16243 -1.57436 0
M  V30 3389 C 313.008 -2.03275 -2.93963 0
M  V30 3390 C 312.674 -3.5264 -2.80991 0
M  V30 3391 C 311.336 -3.93364 -2.7716 0
M  V30 3392 C 313.688 -4.47626 -2.66983 0
M  V30 3393 C 311.016 -5.27319 -2.572 0
M  V30 3394 C 313.368 -5.81723 -2.48558 0
M  V30 3395 C 312.032 -6.2165 -2.4312 0
M  V30 3396 H 311.302 -0.44962 -0.589001 0
M  V30 3397 H 313.949 -1.63777 -0.992442 0
M  V30 3398 H 312.254 -1.55095 -3.59795 0
M  V30 3399 H 313.951 -1.93303 -3.51333 0
M  V30 3400 H 310.541 -3.20295 -2.84797 0
M  V30 3401 H 314.725 -4.17084 -2.68988 0
M  V30 3402 H 309.981 -5.57311 -2.51424 0
M  V30 3403 H 314.155 -6.5494 -2.36699 0
M  V30 3404 H 311.782 -7.25388 -2.27412 0
M  V30 3405 N 313.357 1.07166 -1.15556 0
M  V30 3406 C 314.287 2.16403 -0.877046 0
M  V30 3407 C 315.268 1.69217 0.173111 0
M  V30 3408 O 316.453 1.94181 0.027084 0
M  V30 3409 C 313.583 3.45349 -0.367632 0
M  V30 3410 C 312.537 4.05995 -1.35468 0
M  V30 3411 C 311.863 5.30045 -0.704038 0
M  V30 3412 C 313.163 4.45804 -2.72132 0
M  V30 3413 H 314.857 2.39959 -1.79053 0
M  V30 3414 H 312.403 1.15325 -0.862331 0
M  V30 3415 H 314.356 4.21095 -0.160317 0
M  V30 3416 H 313.08 3.21385 0.581326 0
M  V30 3417 H 311.739 3.32296 -1.54839 0
M  V30 3418 H 311.387 5.02373 0.251128 0
M  V30 3419 H 311.087 5.71579 -1.36277 0
M  V30 3420 H 312.611 6.08495 -0.50654 0
M  V30 3421 H 314.025 5.12671 -2.56595 0
M  V30 3422 H 312.422 4.98296 -3.34397 0
M  V30 3423 H 313.492 3.57083 -3.28054 0
M  V30 3424 N 314.835 0.952656 1.25548 0
M  V30 3425 C 315.765 0.489287 2.28316 0
M  V30 3426 C 316.746 -0.463359 1.63667 0
M  V30 3427 O 317.931 -0.36274 1.90782 0
M  V30 3428 C 315.061 -0.235603 3.465 0
M  V30 3429 C 314.015 0.631593 4.23314 0
M  V30 3430 C 313.341 -0.223923 5.34231 0
M  V30 3431 C 314.641 1.90871 4.86174 0
M  V30 3432 H 316.335 1.34822 2.67326 0
M  V30 3433 H 313.881 0.649728 1.28509 0
M  V30 3434 H 315.834 -0.570882 4.17515 0
M  V30 3435 H 314.558 -1.12877 3.06474 0
M  V30 3436 H 313.217 0.949929 3.54079 0
M  V30 3437 H 312.865 -1.11678 4.90446 0
M  V30 3438 H 312.565 0.35299 5.86539 0
M  V30 3439 H 314.089 -0.554214 6.0808 0
M  V30 3440 H 315.503 1.63997 5.49343 0
M  V30 3441 H 313.9 2.43112 5.4865 0
M  V30 3442 H 314.97 2.61304 4.08471 0
M  V30 3443 N 316.313 -1.40141 0.720998 0
M  V30 3444 C 317.243 -2.33339 0.0867621 0
M  V30 3445 C 318.224 -1.53178 -0.739622 0
M  V30 3446 O 319.409 -1.81625 -0.687449 0
M  V30 3447 C 316.539 -3.37194 -0.831728 0
M  V30 3448 C 315.493 -4.27857 -0.110558 0
M  V30 3449 C 314.819 -5.22294 -1.14513 0
M  V30 3450 C 316.119 -5.11872 1.0385 0
M  V30 3451 H 317.813 -2.86626 0.865219 0
M  V30 3452 H 315.359 -1.37814 0.417516 0
M  V30 3453 H 317.312 -4.01335 -1.28485 0
M  V30 3454 H 316.036 -2.82314 -1.64214 0
M  V30 3455 H 314.695 -3.65176 0.322797 0
M  V30 3456 H 314.343 -4.63717 -1.94874 0
M  V30 3457 H 314.043 -5.83797 -0.667446 0
M  V30 3458 H 315.567 -5.89312 -1.59824 0
M  V30 3459 H 316.981 -5.69436 0.664482 0
M  V30 3460 H 315.378 -5.82445 1.4449 0
M  V30 3461 H 316.448 -4.4753 1.86668 0
M  V30 3462 N 317.792 -0.46758 -1.50504 0
M  V30 3463 C 319.041 0.0902868 -2.01498 0
M  V30 3464 C 319.354 1.411 -1.35463 0
M  V30 3465 O 320.56 2.0536 -1.77594 0
M  V30 3466 C 319.016 0.21142 -3.59278 0
M  V30 3467 C 318.624 -1.10065 -4.34269 0
M  V30 3468 C 320.368 0.721433 -4.18325 0
M  V30 3469 C 318.275 -0.943505 -5.83825 0
M  V30 3470 H 317.205 0.037517 -0.753066 0
M  V30 3471 H 319.856 -0.601943 -1.73346 0
M  V30 3472 H 318.238 0.967352 -3.84003 0
M  V30 3473 H 319.412 -1.86726 -4.21272 0
M  V30 3474 H 317.727 -1.5415 -3.86816 0
M  V30 3475 H 320.324 0.85598 -5.27804 0
M  V30 3476 H 320.667 1.71186 -3.79475 0
M  V30 3477 H 321.2 0.0229843 -3.97793 0
M  V30 3478 H 317.939 -1.90719 -6.27141 0
M  V30 3479 H 317.459 -0.217213 -5.99407 0
M  V30 3480 H 319.138 -0.608715 -6.4413 0
M  V30 3481 N 319.27 1.56325 -0.20005 0
M  V30 3482 C 320.2 2.22318 0.713916 0
M  V30 3483 C 321.181 1.18788 1.21752 0
M  V30 3484 O 322.366 1.47309 1.26545 0
M  V30 3485 C 319.496 2.88639 1.93144 0
M  V30 3486 C 318.45 3.98457 1.56255 0
M  V30 3487 C 317.776 4.51967 2.85709 0
M  V30 3488 C 319.076 5.16612 0.768747 0
M  V30 3489 H 320.77 2.98952 0.163755 0
M  V30 3490 H 318.316 1.43792 0.0773219 0
M  V30 3491 H 320.269 3.33491 2.57608 0
M  V30 3492 H 318.993 2.09419 2.50621 0
M  V30 3493 H 317.652 3.54305 0.941471 0
M  V30 3494 H 317.3 3.69503 3.41287 0
M  V30 3495 H 317 5.26071 2.6177 0
M  V30 3496 H 318.524 4.99523 3.51154 0
M  V30 3497 H 319.938 5.57977 1.3166 0
M  V30 3498 H 318.335 5.96812 0.627286 0
M  V30 3499 H 319.405 4.84358 -0.229168 0
M  V30 3500 N 320.748 -0.0735177 1.57428 0
M  V30 3501 C 321.995 -0.772999 1.87166 0
M  V30 3502 C 322.323 -1.77665 0.791551 0
M  V30 3503 O 321.578 -1.94541 -0.212636 0
M  V30 3504 C 321.877 -1.51799 3.23561 0
M  V30 3505 C 321.543 -0.654484 4.46125 0
M  V30 3506 C 320.205 -0.416511 4.79394 0
M  V30 3507 C 322.557 -0.0555862 5.2117 0
M  V30 3508 C 319.885 0.429869 5.85123 0
M  V30 3509 C 322.237 0.778239 6.27795 0
M  V30 3510 C 320.901 1.0261 6.59566 0
M  V30 3511 H 320.171 -0.282861 0.684888 0
M  V30 3512 H 322.818 -0.0338272 1.9147 0
M  V30 3513 H 321.123 -2.32932 3.1504 0
M  V30 3514 H 322.82 -2.06397 3.43804 0
M  V30 3515 H 319.41 -0.850091 4.20085 0
M  V30 3516 H 323.594 -0.226558 4.95783 0
M  V30 3517 H 318.85 0.630665 6.08139 0
M  V30 3518 H 323.024 1.24906 6.85107 0
M  V30 3519 H 320.651 1.68371 7.4132 0
M  V30 3520 N 322.226 -1.5378 -0.344866 0
M  V30 3521 C 323.156 -1.84662 -1.42906 0
M  V30 3522 C 324.137 -0.701648 -1.54955 0
M  V30 3523 O 325.322 -0.953438 -1.69184 0
M  V30 3524 C 322.452 -2.05503 -2.79974 0
M  V30 3525 C 321.406 -3.21318 -2.82734 0
M  V30 3526 C 320.732 -3.2749 -4.22675 0
M  V30 3527 C 322.032 -4.59456 -2.48389 0
M  V30 3528 H 323.726 -2.75461 -1.17311 0
M  V30 3529 H 321.272 -1.32542 -0.562896 0
M  V30 3530 H 323.225 -2.25691 -3.55867 0
M  V30 3531 H 321.949 -1.11434 -3.07002 0
M  V30 3532 H 320.608 -3.00984 -2.09294 0
M  V30 3533 H 320.256 -2.31019 -4.4681 0
M  V30 3534 H 319.956 -4.05316 -4.25433 0
M  V30 3535 H 321.48 -3.49887 -5.00412 0
M  V30 3536 H 322.894 -4.79667 -3.13995 0
M  V30 3537 H 321.291 -5.39675 -2.62432 0
M  V30 3538 H 322.361 -4.63155 -1.4358 0
M  V30 3539 N 323.704 0.605807 -1.45491 0
M  V30 3540 C 324.953 1.36086 -1.48874 0
M  V30 3541 C 325.266 1.95131 -0.135333 0
M  V30 3542 O 326.472 2.7146 -0.0468144 0
M  V30 3543 C 324.928 2.46518 -2.62215 0
M  V30 3544 C 324.536 1.93877 -4.03876 0
M  V30 3545 C 326.28 3.23512 -2.74846 0
M  V30 3546 C 324.187 3.01801 -5.08596 0
M  V30 3547 H 323.117 0.511497 -0.553974 0
M  V30 3548 H 325.768 0.649089 -1.71636 0
M  V30 3549 H 324.15 3.20388 -2.32739 0
M  V30 3550 H 325.324 1.26704 -4.43038 0
M  V30 3551 H 323.639 1.29622 -3.95711 0
M  V30 3552 H 326.236 4.04013 -3.50253 0
M  V30 3553 H 326.579 3.74631 -1.81542 0
M  V30 3554 H 327.112 2.56742 -3.03856 0
M  V30 3555 H 323.851 2.55597 -6.03614 0
M  V30 3556 H 323.371 3.67535 -4.74002 0
M  V30 3557 H 325.05 3.66152 -5.33424 0
M  V30 3558 N 325.182 1.32811 0.848464 0
M  V30 3559 C 326.593 1.21315 1.41914 0
M  V30 3560 C 326.944 -0.171847 1.95446 0
M  V30 3561 O 326.069 -1.07093 1.88043 0
M  V30 3562 C 326.664 2.19631 2.57968 0
M  V30 3563 C 325.223 2.12003 3.11017 0
M  V30 3564 C 324.37 2.07651 1.83783 0
M  V30 3565 H 327.321 1.44549 0.655071 0
M  V30 3566 H 327.342 1.79845 3.35315 0
M  V30 3567 H 326.854 3.20423 2.18976 0
M  V30 3568 H 324.955 1.14481 3.54577 0
M  V30 3569 H 325.068 3.02111 3.71841 0
M  V30 3570 H 323.432 1.52983 2.03638 0
M  V30 3571 H 324.215 3.10235 1.47 0
M  V30 3572 N 326.66 -1.06551 1.16123 0
M  V30 3573 C 327.908 -1.78947 0.939267 0
M  V30 3574 C 328.229 -1.87532 -0.534476 0
M  V30 3575 O 327.499 -1.38211 -1.38833 0
M  V30 3576 H 326.079 -0.662807 0.344523 0
M  V30 3577 H 328.741 -1.28725 1.46342 0
M  V30 3578 H 327.837 -2.81117 1.35572 0
M  V30 3579 N 328.138 -0.959301 -1.25041 0
M  V30 3580 C 329.387 -0.612254 -1.92183 0
M  V30 3581 C 329.7 0.855347 -1.75907 0
M  V30 3582 O 330.906 1.31256 -2.37664 0
M  V30 3583 C 329.362 -1.04435 -3.44414 0
M  V30 3584 C 328.97 -2.53482 -3.69393 0
M  V30 3585 C 330.714 -0.770055 -4.17457 0
M  V30 3586 C 328.621 -2.90468 -5.15153 0
M  V30 3587 H 327.551 -0.225279 -0.719559 0
M  V30 3588 H 330.202 -1.16438 -1.41825 0
M  V30 3589 H 328.584 -0.4206 -3.9376 0
M  V30 3590 H 329.758 -3.20916 -3.30681 0
M  V30 3591 H 328.073 -2.78432 -3.0962 0
M  V30 3592 H 330.67 -1.02249 -5.24832 0
M  V30 3593 H 331.013 0.293611 -4.15263 0
M  V30 3594 H 331.546 -1.35437 -3.74034 0
M  V30 3595 H 328.285 -3.95871 -5.22462 0
M  V30 3596 H 327.805 -2.27711 -5.54894 0
M  V30 3597 H 329.484 -2.79914 -5.83315 0
M  V30 3598 N 329.616 1.39756 -0.72842 0
M  V30 3599 C 330.862 2.00942 -0.273892 0
M  V30 3600 C 331.195 1.57656 1.13394 0
M  V30 3601 O 330.47 0.802434 1.77176 0
M  V30 3602 C 330.753 3.58211 -0.368346 0
M  V30 3603 C 330.606 4.11534 -1.81548 0
M  V30 3604 C 331.925 4.39372 0.253054 0
M  V30 3605 H 329.044 0.730047 -0.100996 0
M  V30 3606 H 331.686 1.66056 -0.923337 0
M  V30 3607 H 329.836 3.88061 0.184588 0
M  V30 3608 H 331.508 3.92431 -2.42478 0
M  V30 3609 H 329.751 3.65341 -2.33898 0
M  V30 3610 H 330.422 5.20682 -1.83288 0
M  V30 3611 H 332.898 4.15527 -0.218224 0
M  V30 3612 H 331.774 5.48677 0.156585 0
M  V30 3613 H 332.035 4.21358 1.33826 0
M  V30 3614 N 331.094 0.475555 1.50254 0
M  V30 3615 C 332.027 -0.362381 2.25304 0
M  V30 3616 C 333.005 -0.992393 1.28803 0
M  V30 3617 O 334.189 -1.02746 1.58036 0
M  V30 3618 C 331.316 -1.50813 3.03271 0
M  V30 3619 C 330.362 -0.995044 4.1473 0
M  V30 3620 S 331.195 0.0938436 5.35418 0
M  V30 3621 C 332.351 -1.05567 6.16933 0
M  V30 3622 H 332.584 0.274686 2.96028 0
M  V30 3623 H 330.117 0.260495 1.52187 0
M  V30 3624 H 332.075 -2.16476 3.48781 0
M  V30 3625 H 330.736 -2.11672 2.32064 0
M  V30 3626 H 329.929 -1.85293 4.68703 0
M  V30 3627 H 329.531 -0.416052 3.71679 0
M  V30 3628 H 331.823 -1.96636 6.48337 0
M  V30 3629 H 332.766 -0.555109 7.05921 0
M  V30 3630 H 333.174 -1.31151 5.49053 0
M  V30 3631 N 332.573 -1.56217 0.208337 0
M  V30 3632 C 333.506 -2.15633 -0.746842 0
M  V30 3633 C 334.484 -1.09685 -1.20034 0
M  V30 3634 O 335.668 -1.3787 -1.28547 0
M  V30 3635 C 332.795 -2.72594 -2.01023 0
M  V30 3636 C 331.841 -3.91251 -1.69779 0
M  V30 3637 S 332.674 -5.28962 -0.834209 0
M  V30 3638 C 333.83 -5.89353 -2.10745 0
M  V30 3639 H 334.063 -2.96315 -0.241789 0
M  V30 3640 H 331.596 -1.54398 -0.00682183 0
M  V30 3641 H 333.554 -3.06053 -2.73572 0
M  V30 3642 H 332.215 -1.91929 -2.48641 0
M  V30 3643 H 331.408 -4.29562 -2.63614 0
M  V30 3644 H 331.01 -3.58869 -1.05303 0
M  V30 3645 H 333.302 -6.04522 -3.05875 0
M  V30 3646 H 334.245 -6.85661 -1.76845 0
M  V30 3647 H 334.653 -5.1807 -2.24196 0
M  V30 3648 N 334.051 0.0651679 -1.57465 0
M  V30 3649 C 335.297 0.764193 -1.87851 0
M  V30 3650 C 335.63 1.76889 -0.801495 0
M  V30 3651 O 334.905 1.93594 0.187528 0
M  V30 3652 C 335.188 1.46625 -3.28897 0
M  V30 3653 C 335.041 0.477515 -4.47258 0
M  V30 3654 C 336.36 2.4095 -3.68281 0
M  V30 3655 H 333.479 0.276351 -0.683227 0
M  V30 3656 H 336.121 0.0272868 -1.8998 0
M  V30 3657 H 334.271 2.09438 -3.27212 0
M  V30 3658 H 335.943 -0.145922 -4.61069 0
M  V30 3659 H 334.186 -0.206576 -4.33308 0
M  V30 3660 H 334.857 1.0065 -5.42746 0
M  V30 3661 H 337.333 1.88209 -3.71102 0
M  V30 3662 H 336.209 2.87072 -4.67847 0
M  V30 3663 H 336.47 3.26049 -2.98571 0
M  V30 3664 N 335.529 1.53961 0.336706 0
M  V30 3665 C 336.492 1.81724 1.39675 0
M  V30 3666 C 337.492 0.688532 1.45313 0
M  V30 3667 O 338.682 0.956829 1.45569 0
M  V30 3668 C 335.814 1.96543 2.78538 0
M  V30 3669 H 337.007 2.76424 1.16318 0
M  V30 3670 H 334.56 1.45478 0.571474 0
M  V30 3671 H 335.295 1.0401 3.07168 0
M  V30 3672 H 335.08 2.78665 2.75841 0
M  V30 3673 H 336.57 2.19516 3.5525 0
M  V30 3674 N 337.007 -0.598083 1.45811 0
M  V30 3675 C 338.237 -1.38121 1.53643 0
M  V30 3676 C 338.645 -1.88425 0.171081 0
M  V30 3677 O 337.988 -1.63409 -0.839237 0
M  V30 3678 C 338.05 -2.61432 2.46766 0
M  V30 3679 C 337.714 -2.32702 3.93318 0
M  V30 3680 C 338.711 -1.92479 4.82957 0
M  V30 3681 C 336.396 -2.45321 4.38318 0
M  V30 3682 C 338.39 -1.65248 6.15607 0
M  V30 3683 C 336.077 -2.17703 5.71007 0
M  V30 3684 C 337.075 -1.7773 6.5947 0
M  V30 3685 O 336.763 -1.50441 7.89698 0
M  V30 3686 H 336.495 -0.428863 0.522544 0
M  V30 3687 H 339.049 -0.73557 1.91777 0
M  V30 3688 H 337.279 -3.28749 2.0362 0
M  V30 3689 H 338.968 -3.23487 2.45175 0
M  V30 3690 H 339.734 -1.82258 4.49452 0
M  V30 3691 H 335.613 -2.75399 3.69697 0
M  V30 3692 H 339.157 -1.33973 6.84614 0
M  V30 3693 H 335.054 -2.27544 6.04065 0
M  V30 3694 H 335.822 -1.64415 8.01817 0
M  V30 3695 N 338.485 -1.33259 -0.841409 0
M  V30 3696 C 339.733 -1.24326 -1.59334 0
M  V30 3697 C 340.054 0.191564 -1.94057 0
M  V30 3698 O 339.324 1.11967 -1.60749 0
M  V30 3699 H 337.904 -0.457174 -0.590763 0
M  V30 3700 H 340.566 -1.66947 -1.00571 0
M  V30 3701 H 339.662 -1.8352 -2.52442 0
M  V30 3702 N 339.963 1.05934 -1.16686 0
M  V30 3703 C 340.893 2.1546 -0.899949 0
M  V30 3704 C 341.874 1.69391 0.155154 0
M  V30 3705 O 343.059 1.94199 0.00648693 0
M  V30 3706 C 340.189 3.44939 -0.404241 0
M  V30 3707 C 339.143 4.04536 -1.39767 0
M  V30 3708 C 338.469 5.29268 -0.760216 0
M  V30 3709 C 339.769 4.42893 -2.76845 0
M  V30 3710 H 341.463 2.38046 -1.81588 0
M  V30 3711 H 339.009 1.14404 -0.874514 0
M  V30 3712 H 340.962 4.20901 -0.204971 0
M  V30 3713 H 339.686 3.21983 0.547206 0
M  V30 3714 H 338.345 3.30635 -1.58355 0
M  V30 3715 H 337.993 5.02611 0.197831 0
M  V30 3716 H 337.693 5.70101 -1.42332 0
M  V30 3717 H 339.217 6.07924 -0.57105 0
M  V30 3718 H 340.631 5.09921 -2.62019 0
M  V30 3719 H 339.028 4.94721 -3.39663 0
M  V30 3720 H 340.098 3.53584 -3.31823 0
M  V30 3721 N 341.441 0.965919 1.2453 0
M  V30 3722 C 342.69 0.622437 1.91856 0
M  V30 3723 C 343.003 -0.846006 1.76358 0
M  V30 3724 O 344.209 -1.29993 2.38357 0
M  V30 3725 C 342.665 1.0626 3.43856 0
M  V30 3726 C 342.273 2.55437 3.68043 0
M  V30 3727 C 344.017 0.792183 4.17043 0
M  V30 3728 C 341.924 2.93196 5.13605 0
M  V30 3729 H 340.854 0.229092 0.718354 0
M  V30 3730 H 343.505 1.17189 1.41206 0
M  V30 3731 H 341.887 0.441476 3.93531 0
M  V30 3732 H 343.061 3.22665 3.28974 0
M  V30 3733 H 341.376 2.8007 3.08139 0
M  V30 3734 H 343.973 1.05031 5.24283 0
M  V30 3735 H 344.316 -0.271584 4.15413 0
M  V30 3736 H 344.849 1.37419 3.73311 0
M  V30 3737 H 341.588 3.98636 5.20355 0
M  V30 3738 H 341.108 2.30651 5.53679 0
M  V30 3739 H 342.787 2.83004 5.81823 0
M  V30 3740 N 342.919 -1.39368 0.735821 0
M  V30 3741 C 344.144 -2.05319 0.293052 0
M  V30 3742 C 344.569 -1.55115 -1.064 0
M  V30 3743 O 343.927 -0.695261 -1.67439 0
M  V30 3744 C 343.975 -3.59305 0.305323 0
M  V30 3745 O 343.079 -4.06299 -0.706761 0
M  V30 3746 H 342.42 -0.650529 0.13307 0
M  V30 3747 H 344.95 -1.78386 1.00197 0
M  V30 3748 H 344.96 -4.07724 0.149997 0
M  V30 3749 H 343.635 -3.95207 1.29553 0
M  V30 3750 H 342.212 -3.69292 -0.517504 0
M  V30 3751 N 344.397 -0.483516 -1.5 0
M  V30 3752 C 345.327 0.293829 -2.31644 0
M  V30 3753 C 346.308 0.978864 -1.39112 0
M  V30 3754 O 347.493 0.973644 -1.68029 0
M  V30 3755 C 344.623 1.36897 -3.19181 0
M  V30 3756 C 343.577 0.804833 -4.20365 0
M  V30 3757 C 342.903 1.9792 -4.96721 0
M  V30 3758 C 344.203 -0.192313 -5.21946 0
M  V30 3759 H 345.897 -0.387616 -2.9688 0
M  V30 3760 H 343.443 -0.187856 -1.42769 0
M  V30 3761 H 345.396 1.92037 -3.751 0
M  V30 3762 H 344.12 2.07936 -2.51853 0
M  V30 3763 H 342.779 0.275319 -3.65565 0
M  V30 3764 H 342.427 2.67686 -4.25856 0
M  V30 3765 H 342.127 1.60789 -5.65173 0
M  V30 3766 H 343.651 2.53526 -5.55479 0
M  V30 3767 H 345.065 0.270333 -5.72662 0
M  V30 3768 H 343.462 -0.478543 -5.98189 0
M  V30 3769 H 344.532 -1.11409 -4.71928 0
M  V30 3770 N 345.875 1.56104 -0.216619 0
M  V30 3771 C 346.785 2.23694 0.706982 0
M  V30 3772 C 347.801 1.24295 1.21765 0
M  V30 3773 O 348.977 1.57094 1.2603 0
M  V30 3774 C 346.042 2.8998 1.90033 0
M  V30 3775 C 345.103 4.04708 1.43213 0
M  V30 3776 C 344.336 4.67824 2.56859 0
M  V30 3777 O 344.559 4.29913 3.74874 0
M  V30 3778 O 343.493 5.56905 2.28343 0
M  V30 3779 H 347.319 3.03272 0.161235 0
M  V30 3780 H 344.904 1.49394 0.0136177 0
M  V30 3781 H 346.786 3.31837 2.59735 0
M  V30 3782 H 345.461 2.13365 2.43428 0
M  V30 3783 H 344.368 3.6743 0.70327 0
M  V30 3784 H 345.701 4.83051 0.944615 0
M  V30 3785 N 347.353 -0.0568162 1.57498 0
M  V30 3786 C 348.283 -1.06593 2.0775 0
M  V30 3787 C 349.264 -1.39448 0.974082 0
M  V30 3788 O 350.449 -1.48815 1.24771 0
M  V30 3789 C 347.579 -2.37509 2.5339 0
M  V30 3790 C 346.533 -2.1897 3.67745 0
M  V30 3791 C 345.859 -3.55402 3.99492 0
M  V30 3792 C 347.159 -1.59859 4.97235 0
M  V30 3793 H 348.853 -0.647706 2.9231 0
M  V30 3794 H 346.399 -0.310116 1.40621 0
M  V30 3795 H 348.352 -3.08409 2.87162 0
M  V30 3796 H 347.076 -2.8134 1.65878 0
M  V30 3797 H 345.735 -1.50508 3.3428 0
M  V30 3798 H 345.383 -3.9683 3.09088 0
M  V30 3799 H 345.083 -3.43831 4.76502 0
M  V30 3800 H 346.607 -4.27708 4.35773 0
M  V30 3801 H 348.021 -2.20642 5.29141 0
M  V30 3802 H 346.418 -1.58942 5.78669 0
M  V30 3803 H 347.488 -0.561506 4.81638 0
M  V30 3804 N 348.832 -1.54138 -0.328536 0
M  V30 3805 C 350.062 -1.75807 -1.08516 0
M  V30 3806 C 350.47 -0.50428 -1.82356 0
M  V30 3807 O 349.813 0.534451 -1.75754 0
M  V30 3808 C 349.875 -2.89423 -2.13248 0
M  V30 3809 C 349.539 -4.28504 -1.5885 0
M  V30 3810 C 350.536 -5.09536 -1.03289 0
M  V30 3811 C 348.221 -4.75034 -1.63243 0
M  V30 3812 C 350.215 -6.35206 -0.52845 0
M  V30 3813 C 347.902 -6.00672 -1.12411 0
M  V30 3814 C 348.9 -6.80592 -0.573062 0
M  V30 3815 O 348.588 -8.03867 -0.0723692 0
M  V30 3816 H 348.32 -0.590633 -0.328829 0
M  V30 3817 H 350.874 -2.01819 -0.381868 0
M  V30 3818 H 349.104 -2.5897 -2.87178 0
M  V30 3819 H 350.793 -2.98921 -2.74592 0
M  V30 3820 H 351.559 -4.74745 -0.99206 0
M  V30 3821 H 347.438 -4.12875 -2.05074 0
M  V30 3822 H 350.982 -6.97532 -0.0976774 0
M  V30 3823 H 346.879 -6.34955 -1.162 0
M  V30 3824 H 347.647 -8.18283 -0.188258 0
M  V30 3825 N 350.31 0.590341 -1.46126 0
M  V30 3826 C 351.242 1.71427 -1.52136 0
M  V30 3827 C 352.255 1.57542 -0.41042 0
M  V30 3828 O 353.444 1.65106 -0.678389 0
M  V30 3829 C 350.544 3.09605 -1.37834 0
M  V30 3830 C 349.717 3.49566 -2.62912 0
M  V30 3831 C 348.776 4.66773 -2.42918 0
M  V30 3832 O 347.802 4.73019 -3.1661 0
M  V30 3833 N 349.004 5.61161 -1.4859 0
M  V30 3834 H 351.769 1.66728 -2.49042 0
M  V30 3835 H 349.33 0.776113 -1.42085 0
M  V30 3836 H 351.322 3.85796 -1.22243 0
M  V30 3837 H 349.892 3.08714 -0.491393 0
M  V30 3838 H 349.112 2.63158 -2.93499 0
M  V30 3839 H 350.4 3.73028 -3.46017 0
M  V30 3840 H 349.798 5.58844 -0.87808 0
M  V30 3841 H 348.355 6.36814 -1.38965 0
M  V30 3842 N 351.788 1.33704 0.83433 0
M  V30 3843 C 353.036 1.25169 1.58673 0
M  V30 3844 C 353.357 -0.18127 1.94156 0
M  V30 3845 O 352.627 -1.11113 1.6134 0
M  V30 3846 H 351.207 0.4603 0.58833 0
M  V30 3847 H 353.869 1.67478 0.996847 0
M  V30 3848 H 352.965 1.84856 2.51465 0
M  V30 3849 N 353.266 -1.05314 1.17247 0
M  V30 3850 C 354.515 -1.77685 0.954521 0
M  V30 3851 C 354.828 -1.88616 -0.518025 0
M  V30 3852 O 356.034 -2.57714 -0.854144 0
M  V30 3853 C 354.49 -3.19402 1.65863 0
M  V30 3854 C 354.098 -3.16605 3.16963 0
M  V30 3855 C 355.842 -3.96237 1.52303 0
M  V30 3856 C 353.749 -4.53103 3.80068 0
M  V30 3857 H 352.679 -0.666 0.353496 0
M  V30 3858 H 355.33 -1.1805 1.40486 0
M  V30 3859 H 353.712 -3.79355 1.13602 0
M  V30 3860 H 354.886 -2.66176 3.76148 0
M  V30 3861 H 353.201 -2.53268 3.30521 0
M  V30 3862 H 355.798 -4.97157 1.96822 0
M  V30 3863 H 356.141 -4.136 0.473401 0
M  V30 3864 H 356.674 -3.42829 2.01775 0
M  V30 3865 H 353.413 -4.40946 4.85023 0
M  V30 3866 H 352.933 -5.03686 3.2567 0
M  V30 3867 H 354.612 -5.22045 3.82202 0
M  V30 3868 N 354.744 -0.972509 -1.24016 0
M  V30 3869 C 355.691 -0.505969 -2.25186 0
M  V30 3870 C 356.661 0.451009 -1.5986 0
M  V30 3871 O 357.846 0.360307 -1.87367 0
M  V30 3872 C 354.986 0.193089 -3.44559 0
M  V30 3873 C 354.099 -0.803222 -4.24467 0
M  V30 3874 C 353.234 -0.0797793 -5.3114 0
M  V30 3875 C 352.273 -1.06583 -6.02749 0
M  V30 3876 N 351.41 -0.372074 -7.01113 0
M  V30 3877 H 356.25 -1.37351 -2.64459 0
M  V30 3878 H 353.787 -0.688419 -1.29997 0
M  V30 3879 H 355.745 0.615125 -4.1264 0
M  V30 3880 H 354.375 1.02455 -3.06109 0
M  V30 3881 H 353.427 -1.34368 -3.55878 0
M  V30 3882 H 354.739 -1.55494 -4.73944 0
M  V30 3883 H 353.893 0.400015 -6.0538 0
M  V30 3884 H 352.632 0.704597 -4.82583 0
M  V30 3885 H 351.637 -1.55645 -5.27309 0
M  V30 3886 H 352.862 -1.85074 -6.53395 0
M  V30 3887 H 350.808 0.393238 -6.5482 0
M  V30 3888 H 350.725 -1.06258 -7.48495 0
M  V30 3889 H 351.993 0.0855932 -7.79453 0
M  V30 3890 N 356.222 1.38976 -0.743202 0
M  V30 3891 C 357.469 2.00343 -0.294752 0
M  V30 3892 C 357.797 1.58983 1.12047 0
M  V30 3893 O 357.052 0.813809 1.77977 0
M  V30 3894 C 357.351 3.55647 -0.353517 0
M  V30 3895 C 357.017 4.16685 -1.72292 0
M  V30 3896 C 355.679 4.3307 -2.09771 0
M  V30 3897 C 358.031 4.50464 -2.62168 0
M  V30 3898 C 355.359 4.80526 -3.36618 0
M  V30 3899 C 357.711 4.99332 -3.88395 0
M  V30 3900 C 356.375 5.13924 -4.25956 0
M  V30 3901 H 355.645 0.733108 -0.107857 0
M  V30 3902 H 358.292 1.6618 -0.951651 0
M  V30 3903 H 356.597 3.89884 0.386954 0
M  V30 3904 H 358.294 4.00998 0.0117269 0
M  V30 3905 H 354.884 4.04339 -1.42155 0
M  V30 3906 H 359.068 4.37416 -2.3448 0
M  V30 3907 H 354.324 4.90008 -3.65653 0
M  V30 3908 H 358.498 5.2444 -4.58187 0
M  V30 3909 H 356.125 5.50457 -5.2431 0
M  V30 3910 N 357.7 0.491464 1.49741 0
M  V30 3911 C 358.61 -0.296835 2.32715 0
M  V30 3912 C 359.626 -0.976536 1.44013 0
M  V30 3913 O 360.802 -0.960023 1.77047 0
M  V30 3914 C 357.867 -1.35288 3.19215 0
M  V30 3915 C 356.928 -0.687632 4.23757 0
M  V30 3916 C 356.161 -1.69336 5.06123 0
M  V30 3917 O 356.384 -2.92219 4.89861 0
M  V30 3918 O 355.318 -1.25394 5.88693 0
M  V30 3919 H 359.144 0.382048 3.01287 0
M  V30 3920 H 356.729 0.252953 1.47243 0
M  V30 3921 H 358.611 -1.96411 3.72828 0
M  V30 3922 H 357.286 -2.01487 2.53347 0
M  V30 3923 H 356.193 -0.0369159 3.74082 0
M  V30 3924 H 357.526 -0.0682566 4.92153 0
M  V30 3925 N 359.178 -1.55987 0.224894 0
M  V30 3926 C 360.141 -2.19178 -0.670348 0
M  V30 3927 C 361.141 -1.15461 -1.11917 0
M  V30 3928 O 362.331 -1.40675 -1.02743 0
M  V30 3929 C 359.463 -2.81777 -1.9187 0
M  V30 3930 H 360.656 -2.99662 -0.119364 0
M  V30 3931 H 358.209 -1.5628 -0.0247128 0
M  V30 3932 H 358.944 -2.05172 -2.51147 0
M  V30 3933 H 358.729 -3.57732 -1.60531 0
M  V30 3934 H 360.219 -3.30205 -2.55645 0
M  V30 3935 N 360.656 0.0484629 -1.57525 0
M  V30 3936 C 361.881 0.759177 -1.93006 0
M  V30 3937 C 362.306 1.69125 -0.823317 0
M  V30 3938 O 361.664 1.79931 0.222364 0
M  V30 3939 C 361.712 1.50899 -3.27509 0
M  V30 3940 O 360.816 2.62112 -3.18388 0
M  V30 3941 H 360.157 0.205564 -0.631379 0
M  V30 3942 H 362.687 0.00972959 -2.04598 0
M  V30 3943 H 362.697 1.88317 -3.6194 0
M  V30 3944 H 361.372 0.825269 -4.0763 0
M  V30 3945 H 359.949 2.27379 -2.95556 0
M  V30 3946 N 362.134 1.5431 0.320358 0
M  V30 3947 C 363.066 1.80262 1.41556 0
M  V30 3948 C 364.079 0.684723 1.477 0
M  V30 3949 O 365.268 0.961886 1.50366 0
M  V30 3950 C 362.368 1.90825 2.8007 0
M  V30 3951 C 361.541 3.21023 2.97091 0
M  V30 3952 C 360.6 3.22247 4.15985 0
M  V30 3953 O 359.626 3.95871 4.08992 0
M  V30 3954 N 360.828 2.46258 5.25678 0
M  V30 3955 H 363.593 2.74778 1.19655 0
M  V30 3956 H 361.154 1.53646 0.510358 0
M  V30 3957 H 363.146 1.89067 3.57821 0
M  V30 3958 H 361.716 1.03392 2.95006 0
M  V30 3959 H 360.936 3.35715 2.06614 0
M  V30 3960 H 362.224 4.0698 3.05361 0
M  V30 3961 H 361.622 1.86037 5.34235 0
M  V30 3962 H 360.179 2.50275 6.01835 0
M  V30 3963 N 363.613 -0.582584 1.46437 0
M  V30 3964 C 364.56 -1.69164 1.5701 0
M  V30 3965 C 365.53 -1.60847 0.414403 0
M  V30 3966 O 366.715 -1.80058 0.631171 0
M  V30 3967 C 363.855 -3.075 1.56646 0
M  V30 3968 C 362.968 -3.2644 2.82951 0
M  V30 3969 C 362.103 -4.55026 2.7409 0
M  V30 3970 C 361.142 -4.6731 3.95333 0
M  V30 3971 N 360.279 -5.87221 3.84858 0
M  V30 3972 H 365.119 -1.59464 2.51744 0
M  V30 3973 H 362.656 -0.777186 1.24893 0
M  V30 3974 H 364.614 -3.8757 1.5442 0
M  V30 3975 H 363.244 -3.16096 0.654439 0
M  V30 3976 H 362.296 -2.39974 2.95155 0
M  V30 3977 H 363.608 -3.31385 3.72808 0
M  V30 3978 H 362.762 -5.43324 2.6997 0
M  V30 3979 H 361.501 -4.52519 1.81873 0
M  V30 3980 H 360.506 -3.77429 3.99784 0
M  V30 3981 H 361.731 -4.71595 4.88646 0
M  V30 3982 H 359.677 -5.85712 2.95427 0
M  V30 3983 H 359.594 -5.93435 4.6837 0
M  V30 3984 H 360.862 -6.7795 3.84713 0
M  V30 3985 N 365.091 -1.34144 -0.827227 0
M  V30 3986 C 366.038 -1.25364 -1.93785 0
M  V30 3987 C 367.008 -0.129774 -1.65592 0
M  V30 3988 O 368.193 -0.310024 -1.88264 0
M  V30 3989 C 365.333 -1.01064 -3.2997 0
M  V30 3990 C 364.446 -2.22185 -3.70484 0
M  V30 3991 C 363.581 -1.91203 -4.95595 0
M  V30 3992 C 362.62 -3.08491 -5.28677 0
M  V30 3993 N 361.757 -2.77421 -6.44967 0
M  V30 3994 H 366.597 -2.20347 -2.00627 0
M  V30 3995 H 364.134 -1.09558 -0.981608 0
M  V30 3996 H 366.092 -0.850139 -4.08446 0
M  V30 3997 H 364.722 -0.0975026 -3.22653 0
M  V30 3998 H 363.774 -2.4917 -2.87434 0
M  V30 3999 H 365.086 -3.0983 -3.90905 0
M  V30 4000 H 364.24 -1.71864 -5.81848 0
M  V30 4001 H 362.979 -1.00812 -4.77167 0
M  V30 4002 H 361.984 -3.28431 -4.40923 0
M  V30 4003 H 363.209 -3.99655 -5.49047 0
M  V30 4004 H 361.155 -1.89601 -6.28003 0
M  V30 4005 H 361.072 -3.58598 -6.6554 0
M  V30 4006 H 362.34 -2.61577 -7.34301 0
M  V30 4007 N 366.569 1.04691 -1.17803 0
M  V30 4008 C 367.794 1.81984 -0.994813 0
M  V30 4009 C 368.219 1.82586 0.452112 0
M  V30 4010 O 367.577 1.23854 1.324 0
M  V30 4011 C 367.625 3.2575 -1.54659 0
M  V30 4012 O 366.729 4.05267 -0.763728 0
M  V30 4013 H 366.07 0.562483 -0.352857 0
M  V30 4014 H 368.6 1.3189 -1.56417 0
M  V30 4015 H 368.61 3.76541 -1.57102 0
M  V30 4016 H 367.285 3.24627 -2.59981 0
M  V30 4017 H 365.862 3.63972 -0.811108 0
M  V30 4018 N 368.047 0.979072 1.23499 0
M  V30 4019 C 369.01 0.523244 2.23147 0
M  V30 4020 C 370.01 -0.386406 1.56088 0
M  V30 4021 O 371.2 -0.180283 1.73265 0
M  V30 4022 C 368.332 -0.240739 3.40049 0
M  V30 4023 H 369.525 1.40432 2.64989 0
M  V30 4024 H 367.078 0.764824 1.36309 0
M  V30 4025 H 367.813 -1.13841 3.03662 0
M  V30 4026 H 367.598 0.412207 3.89927 0
M  V30 4027 H 369.088 -0.548297 4.13985 0
M  V30 4028 N 369.525 -1.3858 0.750561 0
M  V30 4029 C 370.472 -2.30483 0.120835 0
M  V30 4030 C 371.442 -1.50022 -0.712923 0
M  V30 4031 O 372.627 -1.78662 -0.669676 0
M  V30 4032 C 369.767 -3.36431 -0.768666 0
M  V30 4033 C 368.88 -4.31927 0.0793922 0
M  V30 4034 C 368.015 -5.24944 -0.81283 0
M  V30 4035 C 367.054 -6.12088 0.0390447 0
M  V30 4036 N 366.191 -6.97412 -0.809969 0
M  V30 4037 H 371.031 -2.83761 0.91015 0
M  V30 4038 H 368.568 -1.39707 0.460463 0
M  V30 4039 H 370.526 -3.96462 -1.29898 0
M  V30 4040 H 369.156 -2.8457 -1.5238 0
M  V30 4041 H 368.208 -3.73382 0.727303 0
M  V30 4042 H 369.52 -4.93319 0.737401 0
M  V30 4043 H 368.674 -5.90078 -1.41042 0
M  V30 4044 H 367.413 -4.63911 -1.50458 0
M  V30 4045 H 366.418 -5.45952 0.649328 0
M  V30 4046 H 367.643 -6.75189 0.727809 0
M  V30 4047 H 365.589 -6.38931 -1.48672 0
M  V30 4048 H 365.506 -7.55712 -0.208789 0
M  V30 4049 H 366.774 -7.66959 -1.39263 0
M  V30 4050 N 371.003 -0.499398 -1.49478 0
M  V30 4051 C 371.913 0.284489 -2.32869 0
M  V30 4052 C 372.929 0.968885 -1.44529 0
M  V30 4053 O 374.105 0.95062 -1.77553 0
M  V30 4054 C 371.17 1.33594 -3.19928 0
M  V30 4055 C 370.231 0.665149 -4.24116 0
M  V30 4056 C 369.464 1.6665 -5.07014 0
M  V30 4057 O 369.687 2.89618 -4.91404 0
M  V30 4058 O 368.621 1.22271 -5.8935 0
M  V30 4059 H 372.447 -0.39802 -3.01081 0
M  V30 4060 H 370.032 -0.260758 -1.47107 0
M  V30 4061 H 371.914 1.94431 -3.73864 0
M  V30 4062 H 370.589 2.0014 -2.54412 0
M  V30 4063 H 369.496 0.0170769 -3.74096 0
M  V30 4064 H 370.829 0.0421555 -4.92182 0
M  V30 4065 N 372.481 1.55866 -0.233164 0
M  V30 4066 C 373.897 1.59133 0.121988 0
M  V30 4067 C 374.097 1.25016 1.58029 0
M  V30 4068 O 373.153 0.990922 2.32243 0
M  V30 4069 C 374.466 2.99932 -0.214792 0
M  V30 4070 C 376.014 3.12601 -0.157971 0
M  V30 4071 C 376.489 4.55597 -0.46859 0
M  V30 4072 N 377.98 4.61305 -0.418585 0
M  V30 4073 C 378.715 5.69903 -0.63227 0
M  V30 4074 N 378.211 6.86819 -0.90835 0
M  V30 4075 N 380.004 5.59264 -0.563913 0
M  V30 4076 H 372.155 1.76315 -1.18434 0
M  V30 4077 H 374.418 0.820093 -0.475553 0
M  V30 4078 H 374.124 3.29588 -1.22739 0
M  V30 4079 H 373.998 3.74327 0.464691 0
M  V30 4080 H 376.385 2.82735 0.845283 0
M  V30 4081 H 376.466 2.40511 -0.871102 0
M  V30 4082 H 376.11 4.86182 -1.46934 0
M  V30 4083 H 376.04 5.25928 0.265865 0
M  V30 4084 H 378.531 3.77297 -0.213368 0
M  V30 4085 H 378.844 7.65507 -1.05919 0
M  V30 4086 H 377.189 6.88536 -0.945673 0
M  V30 4087 H 380.38 4.66802 -0.348372 0
M  V30 4088 H 380.553 6.43831 -0.733847 0
M  V30 4089 N 373.959 -0.0401083 1.57549 0
M  V30 4090 C 374.906 -1.04413 2.05831 0
M  V30 4091 C 375.876 -1.36585 0.945184 0
M  V30 4092 O 377.061 -1.47112 1.21502 0
M  V30 4093 C 374.201 -2.34336 2.53339 0
M  V30 4094 C 373.314 -2.08419 3.78398 0
M  V30 4095 C 372.449 -3.32133 4.14561 0
M  V30 4096 C 371.488 -3.01721 5.3257 0
M  V30 4097 N 370.625 -4.17855 5.64218 0
M  V30 4098 H 375.465 -0.625442 2.91363 0
M  V30 4099 H 373.002 -0.297218 1.44066 0
M  V30 4100 H 374.96 -3.10234 2.78946 0
M  V30 4101 H 373.59 -2.73948 1.7074 0
M  V30 4102 H 372.642 -1.23069 3.59942 0
M  V30 4103 H 373.954 -1.81978 4.64419 0
M  V30 4104 H 373.108 -4.16406 4.41238 0
M  V30 4105 H 371.847 -3.61678 3.2717 0
M  V30 4106 H 370.852 -2.15849 5.05657 0
M  V30 4107 H 372.077 -2.73466 6.21605 0
M  V30 4108 H 370.023 -4.47372 4.79786 0
M  V30 4109 H 369.94 -3.94798 6.44725 0
M  V30 4110 H 371.208 -5.03033 5.95465 0
M  V30 4111 N 375.437 -1.54477 -0.31217 0
M  V30 4112 C 376.848 -1.64344 -0.885891 0
M  V30 4113 C 377.199 -0.54485 -1.88483 0
M  V30 4114 O 376.324 0.320387 -2.14015 0
M  V30 4115 C 376.919 -2.97908 -1.61357 0
M  V30 4116 C 375.478 -3.09933 -2.13585 0
M  V30 4117 C 374.625 -2.59971 -0.964897 0
M  V30 4118 H 377.576 -1.58448 -0.0894528 0
M  V30 4119 H 377.597 -2.88706 -2.47848 0
M  V30 4120 H 377.109 -3.77845 -0.886277 0
M  V30 4121 H 375.21 -2.34694 -2.89395 0
M  V30 4122 H 375.323 -4.15916 -2.37804 0
M  V30 4123 H 373.687 -2.16147 -1.34731 0
M  V30 4124 H 374.47 -3.42376 -0.251742 0
M  V30 4125 N 376.915 0.57481 -1.46744 0
M  V30 4126 C 378.14 1.36341 -1.56288 0
M  V30 4127 C 378.565 1.86954 -0.207347 0
M  V30 4128 O 377.923 1.62006 0.813871 0
M  V30 4129 C 377.971 2.52147 -2.57787 0
M  V30 4130 O 377.075 3.53834 -2.11838 0
M  V30 4131 H 376.416 0.405713 -0.525636 0
M  V30 4132 H 378.946 0.696453 -1.92382 0
M  V30 4133 H 378.956 2.98958 -2.77648 0
M  V30 4134 H 377.631 2.14663 -3.5622 0
M  V30 4135 H 376.208 3.1345 -2.01999 0
M  V30 4136 N 378.394 1.34581 0.820102 0
M  V30 4137 C 379.622 1.3018 1.60813 0
M  V30 4138 C 380.037 -0.123551 1.88395 0
M  V30 4139 O 379.394 -1.07148 1.47735 0
M  V30 4140 C 379.445 2.09312 2.94739 0
M  V30 4141 O 379.166 3.46288 2.68358 0
M  V30 4142 C 380.667 2.1234 3.89136 0
M  V30 4143 H 377.887 0.447726 0.499782 0
M  V30 4144 H 380.431 1.77237 1.02017 0
M  V30 4145 H 378.586 1.65889 3.50085 0
M  V30 4146 H 379 3.87227 3.53774 0
M  V30 4147 H 380.474 2.72126 4.80262 0
M  V30 4148 H 380.951 1.11854 4.24718 0
M  V30 4149 H 381.557 2.55864 3.39726 0
M  V30 4150 N 379.872 -1.04064 1.18357 0
M  V30 4151 C 381.1 -1.80916 1.00384 0
M  V30 4152 C 381.515 -1.83414 -0.447738 0
M  V30 4153 O 380.872 -1.26962 -1.31099 0
M  V30 4154 C 380.923 -3.26516 1.55144 0
M  V30 4155 O 380.644 -3.2424 2.94618 0
M  V30 4156 C 382.145 -4.20013 1.41789 0
M  V30 4157 H 379.365 -0.569728 0.354474 0
M  V30 4158 H 381.909 -1.31151 1.56906 0
M  V30 4159 H 380.064 -3.73512 1.02798 0
M  V30 4160 H 380.478 -4.15452 3.20156 0
M  V30 4161 H 381.952 -5.20111 1.84901 0
M  V30 4162 H 382.429 -4.37667 0.36661 0
M  V30 4163 H 383.035 -3.78881 1.93207 0
M  V30 4164 N 381.35 -0.985608 -1.22978 0
M  V30 4165 C 382.575 -0.675254 -1.961 0
M  V30 4166 C 383 0.752154 -1.72407 0
M  V30 4167 O 382.358 1.5131 -0.998751 0
M  V30 4168 C 382.406 -0.977899 -3.47087 0
M  V30 4169 O 381.51 -0.072685 -4.12336 0
M  V30 4170 H 380.851 -0.253443 -0.613728 0
M  V30 4171 H 383.381 -1.32061 -1.56272 0
M  V30 4172 H 383.391 -0.916739 -3.97567 0
M  V30 4173 H 382.066 -2.01807 -3.63657 0
M  V30 4174 H 380.643 -0.188703 -3.72422 0
M  V30 4175 N 382.828 1.3818 -0.7579 0
M  V30 4176 C 384.053 2.04827 -0.325679 0
M  V30 4177 C 384.478 1.56788 1.03919 0
M  V30 4178 O 383.836 0.721811 1.66312 0
M  V30 4179 C 383.884 3.58774 -0.362447 0
M  V30 4180 O 382.988 4.07372 0.642033 0
M  V30 4181 H 382.329 0.64833 -0.143402 0
M  V30 4182 H 384.859 1.7677 -1.03023 0
M  V30 4183 H 384.869 4.07434 -0.214844 0
M  V30 4184 H 383.544 3.93096 -1.35824 0
M  V30 4185 H 382.121 3.70068 0.458688 0
M  V30 4186 N 384.306 0.507319 1.49211 0
M  V30 4187 C 385.554 -0.0348839 2.0207 0
M  V30 4188 C 385.875 -1.36898 1.38866 0
M  V30 4189 O 385.145 -1.88133 0.546151 0
M  V30 4190 H 383.725 -0.0158812 0.746831 0
M  V30 4191 H 386.387 0.665998 1.83168 0
M  V30 4192 H 385.483 -0.159917 3.1169 0
M  V30 4193 N 385.784 -1.5574 0.241426 0
M  V30 4194 C 386.731 -2.21149 -0.660432 0
M  V30 4195 C 387.701 -1.17356 -1.17545 0
M  V30 4196 O 388.886 -1.45784 -1.23093 0
M  V30 4197 C 386.026 -2.91059 -1.85414 0
M  V30 4198 C 385.139 -4.09495 -1.37616 0
M  V30 4199 C 384.274 -4.67135 -2.529 0
M  V30 4200 C 383.313 -5.77831 -2.01936 0
M  V30 4201 N 382.45 -6.29677 -3.10566 0
M  V30 4202 H 387.29 -2.97845 -0.095955 0
M  V30 4203 H 384.827 -1.47057 -0.0356024 0
M  V30 4204 H 386.785 -3.29788 -2.5553 0
M  V30 4205 H 385.415 -2.16846 -2.39118 0
M  V30 4206 H 384.467 -3.76117 -0.569235 0
M  V30 4207 H 385.779 -4.89423 -0.962618 0
M  V30 4208 H 384.933 -5.08409 -3.31067 0
M  V30 4209 H 383.672 -3.86411 -2.97553 0
M  V30 4210 H 382.677 -5.36039 -1.22238 0
M  V30 4211 H 383.902 -6.60402 -1.58259 0
M  V30 4212 H 381.848 -5.5186 -3.54664 0
M  V30 4213 H 381.765 -7.04783 -2.73526 0
M  V30 4214 H 383.033 -6.75609 -3.88809 0
M  V30 4215 N 387.262 0.0317525 -1.57568 0
M  V30 4216 C 388.492 0.733884 -1.93126 0
M  V30 4217 C 388.9 1.69563 -0.839352 0
M  V30 4218 O 388.243 1.82681 0.193175 0
M  V30 4219 C 388.305 1.54798 -3.24465 0
M  V30 4220 C 387.969 0.751304 -4.50782 0
M  V30 4221 C 388.966 0.0527632 -5.19873 0
M  V30 4222 C 386.651 0.706639 -4.97305 0
M  V30 4223 C 388.645 -0.679774 -6.33765 0
M  V30 4224 C 386.332 -0.0296449 -6.11093 0
M  V30 4225 C 387.33 -0.721614 -6.79177 0
M  V30 4226 O 387.018 -1.44595 -7.90789 0
M  V30 4227 H 386.75 0.211459 -0.642076 0
M  V30 4228 H 389.304 -0.00585615 -2.05399 0
M  V30 4229 H 387.534 2.33147 -3.08512 0
M  V30 4230 H 389.223 2.13247 -3.4537 0
M  V30 4231 H 389.989 0.0783188 -4.84937 0
M  V30 4232 H 385.868 1.23474 -4.44157 0
M  V30 4233 H 389.412 -1.22042 -6.86842 0
M  V30 4234 H 385.309 -0.0571331 -6.45475 0
M  V30 4235 H 386.077 -1.35935 -8.07133 0
M  V30 4236 N 388.74 1.54641 0.303973 0
M  V30 4237 C 389.65 1.88439 1.39743 0
M  V30 4238 C 390.666 0.778239 1.55626 0
M  V30 4239 O 391.842 1.07442 1.70347 0
M  V30 4240 C 388.907 2.12212 2.74166 0
M  V30 4241 C 387.968 3.35936 2.67293 0
M  V30 4242 C 387.201 3.58566 3.95305 0
M  V30 4243 O 387.424 2.84263 4.9452 0
M  V30 4244 O 386.358 4.52078 3.97378 0
M  V30 4245 H 390.184 2.81458 1.14083 0
M  V30 4246 H 387.769 1.40793 0.499768 0
M  V30 4247 H 389.651 2.29067 3.53704 0
M  V30 4248 H 388.326 1.22379 2.99675 0
M  V30 4249 H 387.233 3.24448 1.86237 0
M  V30 4250 H 388.566 4.2589 2.46736 0
M  V30 4251 N 390.218 -0.567019 1.47046 0
M  V30 4252 C 391.495 -1.3276 1.43646 0
M  V30 4253 C 391.875 -2.1071 0.128186 0
M  V30 4254 O 391.223 -2.10441 -0.890326 0
M  V30 4255 C 391.433 -2.2404 2.67595 0
M  V30 4256 C 392.781 -2.85372 3.14401 0
M  V30 4257 O 393.805 -2.34346 2.68254 0
M  V30 4258 O 392.664 -3.78091 3.946 0
M  V30 4259 H 389.758 -0.597293 0.571988 0
M  V30 4260 H 392.304 -0.586735 1.59234 0
M  V30 4261 H 391.076 -1.65975 3.54356 0
M  V30 4262 H 390.699 -3.05439 2.54544 0
M  V30 4263 N 391.696 -1.35014 -0.812953 0
M  V30 4264 C 392.921 -1.31187 -1.60639 0
M  V30 4265 C 393.346 0.109382 -1.87782 0
M  V30 4266 O 392.704 1.07424 -1.46047 0
M  V30 4267 C 392.752 -2.11809 -2.91838 0
M  V30 4268 O 391.856 -1.49444 -3.8437 0
M  V30 4269 H 391.197 -0.450084 -0.488181 0
M  V30 4270 H 393.727 -1.77963 -1.00947 0
M  V30 4271 H 393.737 -2.23531 -3.41318 0
M  V30 4272 H 392.412 -3.15137 -2.71407 0
M  V30 4273 H 390.989 -1.46524 -3.42907 0
M  V30 4274 N 393.175 1.03435 -1.18907 0
M  V30 4275 C 394.452 1.73778 -0.89781 0
M  V30 4276 C 394.832 2.02458 0.597832 0
M  V30 4277 O 394.18 1.67482 1.55441 0
M  V30 4278 C 394.39 3.01845 -1.75187 0
M  V30 4279 C 395.738 3.7546 -1.9828 0
M  V30 4280 O 396.762 3.11759 -1.72293 0
M  V30 4281 O 395.621 4.89966 -2.42065 0
M  V30 4282 H 392.715 0.75651 -0.334098 0
M  V30 4283 H 395.261 1.09444 -1.29693 0
M  V30 4284 H 394.033 2.76836 -2.76545 0
M  V30 4285 H 393.656 3.73919 -1.35167 0
M  V30 4286 N 394.653 0.992116 1.22453 0
M  V30 4287 C 395.901 0.666215 1.90804 0
M  V30 4288 C 396.222 -0.804152 1.77647 0
M  V30 4289 O 395.492 -1.57629 1.16318 0
M  V30 4290 H 394.072 0.243423 0.706225 0
M  V30 4291 H 396.734 1.25845 1.48825 0
M  V30 4292 H 395.83 0.928069 2.97982 0
M  V30 4293 N 396.131 -1.37776 0.765217 0
M  V30 4294 C 397.371 -2.01691 0.331669 0
M  V30 4295 C 397.735 -1.59432 -1.06983 0
M  V30 4296 O 398.936 -2.15761 -1.60314 0
M  V30 4297 C 397.207 -3.54385 0.463261 0
M  V30 4298 S 398.766 -4.38652 0.114011 0
M  V30 4299 H 395.584 -0.699387 0.127979 0
M  V30 4300 H 398.186 -1.68084 0.998396 0
M  V30 4301 H 396.89 -3.82629 1.48401 0
M  V30 4302 H 396.421 -3.92783 -0.220246 0
M  V30 4303 H 398.436 -4.84021 -1.09261 0
M  V30 4304 N 397.609 -0.515225 -1.4894 0
M  V30 4305 C 398.839 0.0205735 -2.0659 0
M  V30 4306 C 399.247 1.30064 -1.37405 0
M  V30 4307 O 398.59 1.78087 -0.450632 0
M  V30 4308 C 398.652 0.330124 -3.57981 0
M  V30 4309 C 398.316 -0.854295 -4.48944 0
M  V30 4310 C 399.313 -1.7487 -4.89609 0
M  V30 4311 C 396.998 -1.05712 -4.9105 0
M  V30 4312 C 398.992 -2.82996 -5.71132 0
M  V30 4313 C 396.679 -2.14154 -5.72347 0
M  V30 4314 C 397.677 -3.0263 -6.12294 0
M  V30 4315 O 397.365 -4.09198 -6.91962 0
M  V30 4316 H 397.097 -0.0236833 -0.675585 0
M  V30 4317 H 399.651 -0.715956 -1.92518 0
M  V30 4318 H 397.881 1.12044 -3.70112 0
M  V30 4319 H 399.57 0.806233 -3.97812 0
M  V30 4320 H 400.336 -1.60388 -4.57712 0
M  V30 4321 H 396.215 -0.377788 -4.59449 0
M  V30 4322 H 399.759 -3.52083 -6.02232 0
M  V30 4323 H 395.656 -2.28626 -6.03656 0
M  V30 4324 H 396.424 -4.06726 -7.10293 0
M  V30 4325 N 399.087 1.5561 -0.249682 0
M  V30 4326 C 400.017 2.24477 0.642826 0
M  V30 4327 C 400.998 1.22601 1.17911 0
M  V30 4328 O 402.183 1.5126 1.21795 0
M  V30 4329 C 399.313 2.94638 1.83863 0
M  V30 4330 C 398.267 4.03227 1.435 0
M  V30 4331 C 397.593 4.60828 2.71186 0
M  V30 4332 C 398.893 5.18796 0.604002 0
M  V30 4333 H 400.587 2.99321 0.0685625 0
M  V30 4334 H 398.133 1.43965 0.0315363 0
M  V30 4335 H 400.086 3.41517 2.46868 0
M  V30 4336 H 398.81 2.17287 2.43832 0
M  V30 4337 H 397.469 3.57121 0.828275 0
M  V30 4338 H 397.117 3.80174 3.29358 0
M  V30 4339 H 396.817 5.34132 2.44901 0
M  V30 4340 H 398.341 5.10442 3.35084 0
M  V30 4341 H 399.755 5.61883 1.13842 0
M  V30 4342 H 398.152 5.98506 0.437097 0
M  V30 4343 H 399.222 4.83384 -0.383147 0
M  V30 4344 N 400.565 -0.0233959 1.57583 0
M  V30 4345 C 401.497 -1.04994 2.03737 0
M  V30 4346 C 402.51 -1.32125 0.951152 0
M  V30 4347 O 403.699 -1.29512 1.22837 0
M  V30 4348 C 400.799 -2.39026 2.40249 0
M  V30 4349 C 399.972 -2.31171 3.7132 0
M  V30 4350 C 399.031 -3.47698 3.94959 0
M  V30 4351 O 398.057 -3.26937 4.65941 0
M  V30 4352 N 399.259 -4.6976 3.41037 0
M  V30 4353 H 402.024 -0.656507 2.92421 0
M  V30 4354 H 399.585 -0.211235 1.60516 0
M  V30 4355 H 401.577 -3.15712 2.53196 0
M  V30 4356 H 400.147 -2.70194 1.57207 0
M  V30 4357 H 399.367 -1.39547 3.68674 0
M  V30 4358 H 400.655 -2.23071 4.57293 0
M  V30 4359 H 400.053 -4.89528 2.83512 0
M  V30 4360 H 398.61 -5.43791 3.59353 0
M  V30 4361 N 402.043 -1.548 -0.295768 0
M  V30 4362 C 402.99 -1.86113 -1.36494 0
M  V30 4363 C 403.96 -0.7105 -1.50137 0
M  V30 4364 O 405.145 -0.959626 -1.64912 0
M  V30 4365 C 402.285 -2.11861 -2.72413 0
M  V30 4366 C 401.398 -3.39471 -2.67177 0
M  V30 4367 C 400.533 -3.55035 -3.95125 0
M  V30 4368 C 399.572 -4.76418 -3.84308 0
M  V30 4369 N 398.709 -4.8876 -5.04042 0
M  V30 4370 H 403.549 -2.77314 -1.09091 0
M  V30 4371 H 401.086 -1.37315 -0.52753 0
M  V30 4372 H 403.044 -2.24786 -3.51464 0
M  V30 4373 H 401.674 -1.2392 -2.98066 0
M  V30 4374 H 400.726 -3.35139 -1.79962 0
M  V30 4375 H 402.038 -4.28646 -2.55076 0
M  V30 4376 H 401.192 -3.67653 -4.82614 0
M  V30 4377 H 399.931 -2.64002 -4.10066 0
M  V30 4378 H 398.936 -4.63827 -2.95202 0
M  V30 4379 H 400.161 -5.68863 -3.70906 0
M  V30 4380 H 398.107 -4.00652 -5.19436 0
M  V30 4381 H 398.024 -5.71945 -4.94384 0
M  V30 4382 H 399.292 -5.0574 -5.93167 0
M  V30 4383 N 403.521 0.559213 -1.47345 0
M  V30 4384 C 404.749 1.34194 -1.57479 0
M  V30 4385 C 405.164 1.87463 -0.224261 0
M  V30 4386 O 404.521 1.64888 0.782185 0
M  V30 4387 C 404.572 2.51324 -2.59843 0
M  V30 4388 O 404.293 2.00256 -3.89653 0
M  V30 4389 C 405.794 3.43563 -2.80142 0
M  V30 4390 H 403.014 0.409136 -0.531835 0
M  V30 4391 H 405.558 0.677609 -1.92947 0
M  V30 4392 H 403.713 3.13699 -2.27314 0
M  V30 4393 H 404.127 2.76708 -4.4557 0
M  V30 4394 H 405.601 4.2217 -3.55635 0
M  V30 4395 H 406.078 3.9698 -1.87892 0
M  V30 4396 H 406.684 2.87005 -3.1386 0
M  V30 4397 N 404.999 1.35443 0.805782 0
M  V30 4398 C 406.415 1.15499 1.10146 0
M  V30 4399 C 406.615 -0.0319975 2.01475 0
M  V30 4400 O 405.671 -0.70236 2.42535 0
M  V30 4401 C 406.984 2.45833 1.73166 0
M  V30 4402 C 408.532 2.52047 1.85583 0
M  V30 4403 C 409.007 3.82427 2.52019 0
M  V30 4404 N 410.498 3.83682 2.59504 0
M  V30 4405 C 411.233 4.81294 3.11679 0
M  V30 4406 N 410.729 5.89294 3.64287 0
M  V30 4407 N 412.522 4.6873 3.1024 0
M  V30 4408 H 404.673 2.11469 0.198678 0
M  V30 4409 H 406.936 0.93594 0.150731 0
M  V30 4410 H 406.642 3.32874 1.13526 0
M  V30 4411 H 406.516 2.6044 2.72857 0
M  V30 4412 H 408.903 1.65435 2.44367 0
M  V30 4413 H 408.984 2.41354 0.847455 0
M  V30 4414 H 408.628 4.69437 1.93885 0
M  V30 4415 H 408.558 3.90409 3.53395 0
M  V30 4416 H 411.049 3.05648 2.22234 0
M  V30 4417 H 411.362 6.59768 4.02401 0
M  V30 4418 H 409.707 5.92985 3.62483 0
M  V30 4419 H 412.898 3.83496 2.68419 0
M  V30 4420 H 413.071 5.44965 3.50596 0
M  V30 4421 N 406.477 -1.02803 1.19454 0
M  V30 4422 C 407.888 -1.57667 0.999899 0
M  V30 4423 C 408.239 -1.91041 -0.446956 0
M  V30 4424 O 407.364 -1.70978 -1.32648 0
M  V30 4425 C 407.959 -2.86477 1.80877 0
M  V30 4426 C 406.518 -3.37911 1.65811 0
M  V30 4427 C 405.665 -2.11343 1.79526 0
M  V30 4428 H 408.616 -0.853214 1.33813 0
M  V30 4429 H 408.637 -3.57408 1.30536 0
M  V30 4430 H 408.149 -2.62155 2.86175 0
M  V30 4431 H 406.25 -3.67218 0.63102 0
M  V30 4432 H 406.363 -4.10885 2.46395 0
M  V30 4433 H 404.727 -2.23254 1.22596 0
M  V30 4434 H 405.51 -1.89461 2.86285 0
M  V30 4435 N 407.956 -0.998596 -1.21925 0
M  V30 4436 C 409.367 -0.711939 -1.72593 0
M  V30 4437 C 409.718 0.770842 -1.80423 0
M  V30 4438 O 408.843 1.60237 -1.4544 0
M  V30 4439 C 409.438 -1.28567 -3.13458 0
M  V30 4440 C 407.997 -1.04828 -3.61508 0
M  V30 4441 C 407.144 -1.4024 -2.39224 0
M  V30 4442 H 410.095 -1.17027 -1.07193 0
M  V30 4443 H 410.116 -0.667098 -3.74607 0
M  V30 4444 H 409.628 -2.36486 -3.07727 0
M  V30 4445 H 407.729 0.0140383 -3.72597 0
M  V30 4446 H 407.842 -1.71566 -4.47328 0
M  V30 4447 H 406.206 -0.821077 -2.41103 0
M  V30 4448 H 406.989 -2.49176 -2.36149 0
M  V30 4449 N 409.434 1.37368 -0.772513 0
M  V30 4450 C 410.85 1.53059 -0.452231 0
M  V30 4451 C 411.05 1.73065 1.03203 0
M  V30 4452 O 410.106 1.75245 1.81784 0
M  V30 4453 C 411.419 2.72659 -1.26797 0
M  V30 4454 C 412.967 2.86521 -1.25995 0
M  V30 4455 C 413.442 4.09105 -2.05905 0
M  V30 4456 N 414.933 4.16219 -2.03263 0
M  V30 4457 C 415.668 5.10107 -2.61875 0
M  V30 4458 N 415.164 6.09547 -3.29278 0
M  V30 4459 N 416.957 5.02596 -2.51701 0
M  V30 4460 H 409.108 1.22634 -1.7342 0
M  V30 4461 H 411.371 0.597206 -0.736239 0
M  V30 4462 H 411.077 2.64343 -2.31982 0
M  V30 4463 H 410.951 3.66363 -0.897672 0
M  V30 4464 H 413.338 2.94308 -0.216081 0
M  V30 4465 H 413.419 1.93774 -1.66989 0
M  V30 4466 H 413.063 4.0208 -3.10313 0
M  V30 4467 H 412.993 5.00968 -1.62292 0
M  V30 4468 H 415.484 3.45012 -1.54192 0
M  V30 4469 H 415.797 6.77718 -3.71374 0
M  V30 4470 H 414.142 6.09824 -3.33377 0
M  V30 4471 H 417.333 4.23855 -1.98657 0
M  V30 4472 H 417.506 5.75582 -2.97673 0
M  V30 4473 N 410.912 0.523116 1.48665 0
M  V30 4474 C 411.859 -0.243398 2.29513 0
M  V30 4475 C 412.829 -0.940139 1.36933 0
M  V30 4476 O 414.014 -0.942503 1.65896 0
M  V30 4477 C 411.154 -1.28855 3.20141 0
M  V30 4478 C 410.267 -0.60135 4.27794 0
M  V30 4479 C 409.402 -1.62884 5.05611 0
M  V30 4480 C 408.441 -0.924726 6.05075 0
M  V30 4481 N 407.578 -1.89744 6.75975 0
M  V30 4482 H 412.418 0.452234 2.94549 0
M  V30 4483 H 409.955 0.234858 1.45213 0
M  V30 4484 H 411.913 -1.90674 3.71079 0
M  V30 4485 H 410.543 -1.95266 2.57043 0
M  V30 4486 H 409.595 0.130623 3.80176 0
M  V30 4487 H 410.907 -0.0481585 4.98777 0
M  V30 4488 H 410.061 -2.32149 5.60528 0
M  V30 4489 H 408.8 -2.21592 4.34452 0
M  V30 4490 H 407.805 -0.217966 5.49368 0
M  V30 4491 H 409.03 -0.343851 6.78229 0
M  V30 4492 H 406.976 -2.47373 6.07571 0
M  V30 4493 H 406.893 -1.3955 7.43009 0
M  V30 4494 H 408.161 -2.58229 7.35485 0
M  V30 4495 N 412.39 -1.55475 0.257931 0
M  V30 4496 C 413.32 -2.24815 -0.630912 0
M  V30 4497 C 414.301 -1.23224 -1.17259 0
M  V30 4498 O 415.486 -1.51904 -1.20991 0
M  V30 4499 C 412.616 -2.95609 -1.82298 0
M  V30 4500 C 411.57 -4.03982 -1.41359 0
M  V30 4501 C 410.896 -4.6226 -2.68738 0
M  V30 4502 C 412.196 -5.19109 -0.57648 0
M  V30 4503 H 413.89 -2.99354 -0.0526878 0
M  V30 4504 H 411.436 -1.4398 -0.023901 0
M  V30 4505 H 413.389 -3.42822 -2.45054 0
M  V30 4506 H 412.113 -2.18577 -2.42676 0
M  V30 4507 H 410.772 -3.57555 -0.809324 0
M  V30 4508 H 410.42 -3.81915 -3.27338 0
M  V30 4509 H 410.12 -5.35424 -2.42065 0
M  V30 4510 H 411.644 -5.12212 -3.32372 0
M  V30 4511 H 413.058 -5.62479 -1.10861 0
M  V30 4512 H 411.455 -5.98729 -0.405351 0
M  V30 4513 H 412.525 -4.83174 0.408776 0
M  V30 4514 N 413.868 0.0150385 -1.57593 0
M  V30 4515 C 414.778 1.02791 -2.10882 0
M  V30 4516 C 415.794 1.38702 -1.0506 0
M  V30 4517 O 416.97 1.47739 -1.36877 0
M  V30 4518 C 414.035 2.30568 -2.58919 0
M  V30 4519 C 413.096 2.01108 -3.79281 0
M  V30 4520 C 412.329 3.22794 -4.25018 0
M  V30 4521 O 412.552 4.33959 -3.70183 0
M  V30 4522 O 411.486 3.07672 -5.17322 0
M  V30 4523 H 415.312 0.604973 -2.97613 0
M  V30 4524 H 412.897 0.23292 -1.47573 0
M  V30 4525 H 414.779 3.05662 -2.90084 0
M  V30 4526 H 413.454 2.72129 -1.75293 0
M  V30 4527 H 412.361 1.23537 -3.53114 0
M  V30 4528 H 413.694 1.64394 -4.63935 0
M  V30 4529 N 415.346 1.54954 0.287554 0
M  V30 4530 C 416.276 1.89839 1.35954 0
M  V30 4531 C 417.257 0.758675 1.52244 0
M  V30 4532 O 418.442 1.01557 1.65529 0
M  V30 4533 C 415.572 2.15753 2.72154 0
M  V30 4534 C 414.526 3.3159 2.70614 0
M  V30 4535 C 413.852 3.42952 4.10229 0
M  V30 4536 C 415.152 4.68359 2.31165 0
M  V30 4537 H 416.846 2.79625 1.07007 0
M  V30 4538 H 414.392 1.3454 0.513316 0
M  V30 4539 H 416.345 2.38743 3.47246 0
M  V30 4540 H 415.069 1.22752 3.02654 0
M  V30 4541 H 413.728 3.08545 1.97979 0
M  V30 4542 H 413.376 2.47443 4.37928 0
M  V30 4543 H 413.076 4.20826 4.10097 0
M  V30 4544 H 414.6 3.68218 4.87081 0
M  V30 4545 H 416.014 4.9099 2.95976 0
M  V30 4546 H 414.411 5.49044 2.42221 0
M  V30 4547 H 415.481 4.68165 1.26291 0
M  V30 4548 N 416.824 -0.551391 1.4764 0
M  V30 4549 C 418.24 -0.877887 1.33287 0
M  V30 4550 C 418.44 -1.98817 0.327721 0
M  V30 4551 O 417.496 -2.51171 -0.258695 0
M  V30 4552 C 418.809 -1.26563 2.72768 0
M  V30 4553 C 420.357 -1.37673 2.81097 0
M  V30 4554 C 420.832 -1.79799 4.21232 0
M  V30 4555 N 422.323 -1.8694 4.23802 0
M  V30 4556 C 423.058 -2.20876 5.29151 0
M  V30 4557 N 422.554 -2.53386 6.448 0
M  V30 4558 N 424.347 -2.217 5.16532 0
M  V30 4559 H 416.498 0.18153 2.11623 0
M  V30 4560 H 418.761 0.0185514 0.947818 0
M  V30 4561 H 418.467 -0.523591 3.47781 0
M  V30 4562 H 418.341 -2.22052 3.04915 0
M  V30 4563 H 420.728 -2.10956 2.06353 0
M  V30 4564 H 420.809 -0.40357 2.52596 0
M  V30 4565 H 420.453 -1.07083 4.96483 0
M  V30 4566 H 420.383 -2.78128 4.4716 0
M  V30 4567 H 422.874 -1.64179 3.40373 0
M  V30 4568 H 423.187 -2.78325 7.20941 0
M  V30 4569 H 421.532 -2.50953 6.48111 0
M  V30 4570 H 424.723 -1.95745 4.25207 0
M  V30 4571 H 424.896 -2.47818 5.98741 0
M  V30 4572 N 418.302 -1.35869 -0.798587 0
M  V30 4573 C 419.234 -1.25305 -1.91915 0
M  V30 4574 C 420.247 -0.174548 -1.61862 0
M  V30 4575 O 421.436 -0.428499 -1.73281 0
M  V30 4576 C 418.536 -0.9086 -3.26493 0
M  V30 4577 C 417.709 -2.08711 -3.84394 0
M  V30 4578 C 416.768 -1.71717 -4.97393 0
M  V30 4579 O 415.794 -2.43692 -5.14396 0
M  V30 4580 N 416.996 -0.645473 -5.769 0
M  V30 4581 H 419.761 -2.21849 -2.01502 0
M  V30 4582 H 417.322 -1.29143 -0.976408 0
M  V30 4583 H 419.314 -0.642455 -3.99568 0
M  V30 4584 H 417.884 -0.0325815 -3.12583 0
M  V30 4585 H 417.104 -2.51659 -3.03416 0
M  V30 4586 H 418.392 -2.87468 -4.19809 0
M  V30 4587 H 417.79 -0.047648 -5.6568 0
M  V30 4588 H 416.347 -0.43913 -6.50319 0
M  V30 4589 N 419.78 1.02168 -1.19998 0
M  V30 4590 C 420.71 2.12488 -0.96804 0
M  V30 4591 C 421.691 1.69799 0.101185 0
M  V30 4592 O 422.876 1.94121 -0.0552993 0
M  V30 4593 C 420.006 3.43479 -0.513776 0
M  V30 4594 C 418.96 3.99884 -1.52566 0
M  V30 4595 C 418.286 5.26582 -0.928214 0
M  V30 4596 C 419.586 4.33861 -2.90795 0
M  V30 4597 H 421.28 2.32149 -1.89069 0
M  V30 4598 H 418.826 1.11564 -0.910468 0
M  V30 4599 H 420.779 4.20036 -0.338774 0
M  V30 4600 H 419.503 3.23561 0.444493 0
M  V30 4601 H 418.162 3.25429 -1.68794 0
M  V30 4602 H 417.81 5.02986 0.0378289 0
M  V30 4603 H 417.51 5.65284 -1.60397 0
M  V30 4604 H 419.034 6.05799 -0.764167 0
M  V30 4605 H 420.448 5.01327 -2.78109 0
M  V30 4606 H 418.845 4.83664 -3.55231 0
M  V30 4607 H 419.915 3.42848 -3.42904 0
M  V30 4608 N 421.258 1.00505 1.21394 0
M  V30 4609 C 422.483 0.706367 1.95001 0
M  V30 4610 C 422.908 -0.72463 1.73582 0
M  V30 4611 O 422.266 -1.49702 1.0227 0
M  V30 4612 C 422.314 1.03299 3.45487 0
M  V30 4613 O 421.418 0.138275 4.12168 0
M  V30 4614 H 420.759 0.263175 0.609619 0
M  V30 4615 H 423.289 1.34531 1.54151 0
M  V30 4616 H 423.299 0.979872 3.96059 0
M  V30 4617 H 421.974 2.07567 3.60401 0
M  V30 4618 H 420.551 0.247928 3.72075 0
M  V30 4619 N 422.737 -1.36956 0.779787 0
M  V30 4620 C 423.965 -2.03755 0.359398 0
M  V30 4621 C 424.38 -1.58807 -1.02106 0
M  V30 4622 O 423.737 -0.773024 -1.6532 0
M  V30 4623 C 423.788 -3.59251 0.402568 0
M  V30 4624 O 423.509 -4.02557 1.72858 0
M  V30 4625 C 425.01 -4.43291 -0.0284068 0
M  V30 4626 H 422.23 -0.654148 0.149437 0
M  V30 4627 H 424.774 -1.75128 1.05595 0
M  V30 4628 H 422.929 -3.86621 -0.245478 0
M  V30 4629 H 423.343 -4.97111 1.67275 0
M  V30 4630 H 424.817 -5.51975 0.0529466 0
M  V30 4631 H 425.294 -4.25719 -1.07982 0
M  V30 4632 H 425.9 -4.21163 0.591758 0
M  V30 4633 N 424.215 -0.530993 -1.48385 0
M  V30 4634 C 425.463 0.00273189 -2.021 0
M  V30 4635 C 425.784 1.34672 -1.41027 0
M  V30 4636 O 425.054 1.8724 -0.576012 0
M  V30 4637 H 423.634 0.00399774 -0.746989 0
M  V30 4638 H 426.296 -0.695054 -1.82085 0
M  V30 4639 H 425.392 0.11031 -3.11905 0
M  V30 4640 N 425.693 1.55336 -0.266172 0
M  V30 4641 C 426.918 2.04258 0.359661 0
M  V30 4642 C 427.343 1.14359 1.49344 0
M  V30 4643 O 426.701 0.140369 1.80756 0
M  V30 4644 C 426.749 3.50997 0.826635 0
M  V30 4645 O 425.853 3.64204 1.93466 0
M  V30 4646 H 425.194 0.659668 0.075727 0
M  V30 4647 H 427.724 2.00694 -0.39786 0
M  V30 4648 H 427.734 3.9219 1.12477 0
M  V30 4649 H 426.409 4.159 -0.00293032 0
M  V30 4650 H 424.986 3.34913 1.63974 0
M  V30 4651 N 427.171 -0.0066808 1.57599 0
M  V30 4652 C 428.396 -0.707738 1.94951 0
M  V30 4653 C 428.821 -1.66882 0.867868 0
M  V30 4654 O 428.179 -1.80457 -0.17458 0
M  V30 4655 C 428.227 -1.42162 3.31394 0
M  V30 4656 O 427.331 -2.53578 3.25226 0
M  V30 4657 H 426.672 -0.188752 0.636607 0
M  V30 4658 H 429.202 0.0445193 2.04552 0
M  V30 4659 H 429.212 -1.78655 3.66806 0
M  V30 4660 H 427.887 -0.716903 4.09675 0
M  V30 4661 H 426.464 -2.19463 3.01481 0
M  V30 4662 N 428.649 -1.55105 -0.279332 0
M  V30 4663 C 429.874 -1.7976 -1.03446 0
M  V30 4664 C 430.299 -0.565952 -1.79384 0
M  V30 4665 O 429.657 0.484259 -1.74713 0
M  V30 4666 C 429.705 -3.0179 -1.97371 0
M  V30 4667 O 428.809 -2.76432 -3.06038 0
M  V30 4668 H 428.15 -0.594334 -0.29608 0
M  V30 4669 H 430.68 -2.02235 -0.310165 0
M  V30 4670 H 430.69 -3.30351 -2.39441 0
M  V30 4671 H 429.365 -3.91085 -1.4151 0
M  V30 4672 H 427.942 -2.58949 -2.68328 0
M  V30 4673 N 430.127 0.543554 -1.4793 0
M  V30 4674 C 431.543 0.870806 -1.3375 0
M  V30 4675 C 431.743 1.9864 -0.338261 0
M  V30 4676 O 430.799 2.51305 0.245371 0
M  V30 4677 C 432.112 1.25114 -2.73435 0
M  V30 4678 C 433.66 1.3618 -2.81823 0
M  V30 4679 C 434.135 1.77563 -4.22179 0
M  V30 4680 N 435.626 1.8469 -4.24787 0
M  V30 4681 C 436.361 2.18067 -5.30315 0
M  V30 4682 N 435.857 2.49963 -6.46135 0
M  V30 4683 N 437.65 2.18958 -5.17701 0
M  V30 4684 H 429.801 -0.19275 -2.11524 0
M  V30 4685 H 432.064 -0.0235777 -0.947707 0
M  V30 4686 H 431.77 0.50514 -3.48053 0
M  V30 4687 H 431.644 2.20431 -3.06088 0
M  V30 4688 H 434.031 2.09859 -2.07468 0
M  V30 4689 H 434.112 0.390169 -2.52807 0
M  V30 4690 H 433.756 1.04449 -4.97044 0
M  V30 4691 H 433.686 2.75753 -4.48629 0
M  V30 4692 H 436.177 1.62372 -3.41239 0
M  V30 4693 H 436.49 2.74497 -7.22406 0
M  V30 4694 H 434.835 2.47513 -6.49432 0
M  V30 4695 H 438.026 1.93488 -4.2624 0
M  V30 4696 H 438.199 2.44639 -6.00047 0
M  V30 4697 N 431.605 1.3629 0.791371 0
M  V30 4698 C 432.568 1.30309 1.88553 0
M  V30 4699 C 433.568 0.211204 1.59407 0
M  V30 4700 O 434.758 0.465865 1.67855 0
M  V30 4701 C 431.89 1.01956 3.25297 0
M  V30 4702 H 433.083 2.27614 1.95273 0
M  V30 4703 H 430.636 1.21035 0.988953 0
M  V30 4704 H 431.371 0.050998 3.2426 0
M  V30 4705 H 431.156 1.80968 3.4784 0
M  V30 4706 H 432.646 1.0037 4.05359 0
M  V30 4707 N 433.083 -1.0153 1.20538 0
M  V30 4708 C 434.031 -2.12215 0.952235 0
M  V30 4709 C 435.025 -1.69123 -0.0968735 0
M  V30 4710 O 436.231 -1.7992 0.0536006 0
M  V30 4711 H 432.606 -0.693576 0.290613 0
M  V30 4712 H 434.577 -2.3075 1.89201 0
M  V30 4713 C 433.326 -3.43755 0.522287 0
M  V30 4714 H 432.649 -3.7734 1.32115 0
M  V30 4715 H 434.089 -4.22254 0.384389 0
M  V30 4716 C 432.548 -3.28088 -0.765489 0
M  V30 4717 O 433.078 -3.57921 -1.8236 0
M  V30 4718 N 431.284 -2.81333 -0.728011 0
M  V30 4719 H 430.831 -2.57255 0.133332 0
M  V30 4720 H 430.789 -2.71232 -1.58999 0
M  V30 4721 N 434.561 -1.01147 -1.20859 0
M  V30 4722 C 435.977 -0.725422 -1.42161 0
M  V30 4723 C 436.177 0.696919 -1.89064 0
M  V30 4724 O 435.233 1.46539 -2.05627 0
M  V30 4725 C 436.546 -1.74678 -2.44761 0
M  V30 4726 C 438.094 -1.76433 -2.58535 0
M  V30 4727 C 438.569 -2.77481 -3.64374 0
M  V30 4728 N 440.06 -2.76189 -3.71852 0
M  V30 4729 C 440.795 -3.51035 -4.53389 0
M  V30 4730 N 440.291 -4.35541 -5.38773 0
M  V30 4731 N 442.084 -3.39655 -4.47873 0
M  V30 4732 H 434.235 -1.92979 -0.887282 0
M  V30 4733 H 436.498 -0.833327 -0.451962 0
M  V30 4734 H 436.204 -2.76551 -2.17285 0
M  V30 4735 H 436.078 -1.55472 -3.43669 0
M  V30 4736 H 438.465 -0.75248 -2.85345 0
M  V30 4737 H 438.546 -1.99712 -1.5984 0
M  V30 4738 H 438.19 -3.78827 -3.38308 0
M  V30 4739 H 438.12 -2.51466 -4.6268 0
M  V30 4740 H 440.611 -2.14885 -3.10858 0
M  V30 4741 H 440.924 -4.89432 -5.98061 0
M  V30 4742 H 439.269 -4.39621 -5.38292 0
M  V30 4743 H 442.46 -2.73063 -3.80203 0
M  V30 4744 H 442.633 -3.9824 -5.11184 0
M  V30 4745 N 436.039 1.36541 -0.78704 0
M  V30 4746 C 437.288 1.98552 -0.35494 0
M  V30 4747 C 437.601 1.63171 1.07864 0
M  V30 4748 O 438.807 2.18399 1.61289 0
M  V30 4749 C 437.263 3.55136 -0.583671 0
M  V30 4750 C 436.871 3.99444 -2.02851 0
M  V30 4751 C 438.615 4.2395 -0.215957 0
M  V30 4752 C 436.522 5.48796 -2.20403 0
M  V30 4753 H 435.452 0.742888 -0.128972 0
M  V30 4754 H 438.103 1.5587 -0.968337 0
M  V30 4755 H 436.485 3.95875 0.0994046 0
M  V30 4756 H 437.659 3.6991 -2.74779 0
M  V30 4757 H 435.974 3.43459 -2.35425 0
M  V30 4758 H 438.571 5.33709 -0.325405 0
M  V30 4759 H 438.914 4.07827 0.835646 0
M  V30 4760 H 439.447 3.88565 -0.852175 0
M  V30 4761 H 436.186 5.69864 -3.23937 0
M  V30 4762 H 435.706 5.79964 -1.52977 0
M  V30 4763 H 437.385 6.14986 -2.01002 0
M  V30 4764 N 437.518 0.538854 1.48102 0
M  V30 4765 C 438.934 0.19732 1.58376 0
M  V30 4766 C 439.134 -1.29971 1.5398 0
M  V30 4767 O 438.19 -2.07861 1.43352 0
M  V30 4768 C 439.503 0.807716 2.89649 0
M  V30 4769 C 441.051 0.77726 3.03196 0
M  V30 4770 C 441.526 1.36639 4.37143 0
M  V30 4771 N 443.017 1.32875 4.43732 0
M  V30 4772 C 443.752 1.7544 5.45901 0
M  V30 4773 N 443.248 2.25776 6.54979 0
M  V30 4774 N 445.041 1.66623 5.36836 0
M  V30 4775 H 437.192 1.5117 1.49202 0
M  V30 4776 H 439.455 0.629327 0.708979 0
M  V30 4777 H 439.161 1.85909 2.98548 0
M  V30 4778 H 439.035 0.289975 3.76084 0
M  V30 4779 H 441.422 -0.265374 2.93904 0
M  V30 4780 H 441.503 1.33256 2.18349 0
M  V30 4781 H 441.147 2.408 4.47189 0
M  V30 4782 H 441.077 0.786689 5.20691 0
M  V30 4783 H 443.568 0.96037 3.65493 0
M  V30 4784 H 443.881 2.56226 7.29087 0
M  V30 4785 H 442.226 2.29775 6.55918 0
M  V30 4786 H 445.417 1.27089 4.50517 0
M  V30 4787 H 445.59 2.00115 6.16326 0
M  V30 4788 N 438.996 -1.55193 0.274407 0
M  V30 4789 C 440.221 -2.04446 -0.348824 0
M  V30 4790 C 440.646 -1.15149 -1.48735 0
M  V30 4791 O 440.004 -0.149952 -1.80679 0
M  V30 4792 C 440.052 -3.51431 -0.808009 0
M  V30 4793 O 439.156 -3.65225 -1.91531 0
M  V30 4794 H 438.497 -0.66006 -0.0722276 0
M  V30 4795 H 441.027 -2.00481 0.408498 0
M  V30 4796 H 441.037 -3.92781 -1.10395 0
M  V30 4797 H 439.712 -4.15892 0.0249865 0
M  V30 4798 H 438.289 -3.35778 -1.62196 0
M  V30 4799 N 440.474 -0.00167713 -1.576 0
M  V30 4800 C 441.422 1.0074 -2.09652 0
M  V30 4801 C 442.416 1.35483 -1.01689 0
M  V30 4802 O 443.622 1.34028 -1.20152 0
M  V30 4803 H 439.997 0.342537 -0.669457 0
M  V30 4804 H 441.968 0.542841 -2.93421 0
M  V30 4805 C 440.717 2.2899 -2.61647 0
M  V30 4806 H 440.04 2.03124 -3.44355 0
M  V30 4807 H 441.48 2.9787 -3.01744 0
M  V30 4808 C 439.939 3.00085 -1.53136 0
M  V30 4809 O 440.469 3.91135 -0.91524 0
M  V30 4810 N 438.675 2.6194 -1.25841 0
M  V30 4811 H 438.222 1.8798 -1.76129 0
M  V30 4812 H 438.18 3.09822 -0.534576 0
M  V30 4813 N 441.952 1.55251 0.271103 0
M  V30 4814 C 443.177 1.80306 1.02491 0
M  V30 4815 C 443.602 0.575457 1.79081 0
M  V30 4816 O 442.96 -0.474987 1.74967 0
M  V30 4817 C 443.008 3.02832 1.95768 0
M  V30 4818 O 442.112 2.78051 3.04568 0
M  V30 4819 H 441.453 0.595896 0.292923 0
M  V30 4820 H 443.983 2.02397 0.299436 0
M  V30 4821 H 443.993 3.31616 2.37686 0
M  V30 4822 H 442.668 3.9183 1.39434 0
M  V30 4823 H 441.245 2.60369 2.66951 0
M  V30 4824 N 443.43 -0.535701 1.48216 0
M  V30 4825 C 444.655 -1.32149 1.59848 0
M  V30 4826 C 445.08 -1.86338 0.256842 0
M  V30 4827 O 444.438 -1.64107 -0.770632 0
M  V30 4828 C 444.486 -2.45224 2.64381 0
M  V30 4829 O 443.59 -3.48093 2.21144 0
M  V30 4830 H 442.931 -0.391634 0.536208 0
M  V30 4831 H 445.461 -0.645202 1.94161 0
M  V30 4832 H 445.471 -2.91491 2.85476 0
M  V30 4833 H 444.146 -2.05143 3.61786 0
M  V30 4834 H 442.723 -3.07984 2.10239 0
M  V30 4835 N 444.908 -1.36708 -0.784132 0
M  V30 4836 C 445.871 -1.31307 -1.87859 0
M  V30 4837 C 446.871 -0.219654 -1.59293 0
M  V30 4838 O 448.061 -0.47476 -1.67606 0
M  V30 4839 C 445.193 -1.03679 -3.24751 0
M  V30 4840 H 446.386 -2.28647 -1.94064 0
M  V30 4841 H 443.939 -1.21558 -0.98252 0
M  V30 4842 H 444.674 -0.0681936 -3.24228 0
M  V30 4843 H 444.459 -1.82811 -3.46876 0
M  V30 4844 H 445.949 -1.02518 -4.04821 0
M  V30 4845 N 446.386 1.0089 -1.21074 0
M  V30 4846 C 447.349 2.0775 -0.968129 0
M  V30 4847 C 448.349 1.6069 0.0593445 0
M  V30 4848 O 449.539 1.73293 -0.177525 0
M  V30 4849 C 446.671 3.37794 -0.459108 0
M  V30 4850 H 447.864 2.30707 -1.9161 0
M  V30 4851 H 445.417 1.17807 -1.02719 0
M  V30 4852 H 446.152 3.20516 0.49397 0
M  V30 4853 H 445.937 3.7328 -1.20019 0
M  V30 4854 H 447.427 4.16454 -0.309099 0
M  V30 4855 N 447.864 1.01787 1.20321 0
M  V30 4856 C 448.812 0.58254 2.25187 0
M  V30 4857 C 449.806 -0.379359 1.65098 0
M  V30 4858 O 451.012 -0.249142 1.78267 0
M  V30 4859 H 447.387 0.170078 0.732514 0
M  V30 4860 H 449.358 1.47788 2.59232 0
M  V30 4861 C 448.107 -0.0620885 3.47645 0
M  V30 4862 H 447.43 0.669069 3.94162 0
M  V30 4863 H 448.87 -0.329784 4.22716 0
M  V30 4864 C 447.329 -1.3053 3.10586 0
M  V30 4865 O 447.859 -2.39848 3.22236 0
M  V30 4866 N 446.065 -1.18988 2.65123 0
M  V30 4867 H 445.612 -0.300341 2.55843 0
M  V30 4868 H 445.57 -2.02267 2.40698 0
M  V30 4869 N 449.342 -1.36122 0.79427 0
M  V30 4870 C 450.272 -2.32551 0.210328 0
M  V30 4871 C 451.253 -1.56884 -0.657386 0
M  V30 4872 O 452.438 -1.85014 -0.590207 0
M  V30 4873 C 449.568 -3.41128 -0.651819 0
M  V30 4874 C 448.522 -4.27842 0.116395 0
M  V30 4875 C 447.848 -5.2763 -0.86666 0
M  V30 4876 C 449.148 -5.05647 1.30837 0
M  V30 4877 H 450.842 -2.81636 1.01594 0
M  V30 4878 H 448.388 -1.35407 0.489981 0
M  V30 4879 H 450.341 -4.07581 -1.07031 0
M  V30 4880 H 449.065 -2.90622 -1.49019 0
M  V30 4881 H 447.724 -3.62952 0.515915 0
M  V30 4882 H 447.372 -4.73395 -1.70019 0
M  V30 4883 H 447.072 -5.86514 -0.35705 0
M  V30 4884 H 448.596 -5.96955 -1.28361 0
M  V30 4885 H 450.01 -5.65113 0.965393 0
M  V30 4886 H 448.407 -5.73967 1.75161 0
M  V30 4887 H 449.477 -4.37006 2.10128 0
M  V30 4888 N 450.82 -0.546701 -1.47814 0
M  V30 4889 C 451.753 0.254472 -2.26777 0
M  V30 4890 C 452.731 0.929809 -1.33392 0
M  V30 4891 O 453.915 0.950889 -1.62759 0
M  V30 4892 C 451.042 1.36171 -3.10121 0
M  V30 4893 C 450.088 0.796038 -4.19005 0
M  V30 4894 S 450.921 -0.349191 -5.3436 0
M  V30 4895 C 452.077 0.760122 -6.21267 0
M  V30 4896 H 452.31 -0.415612 -2.94381 0
M  V30 4897 H 449.843 -0.332809 -1.5077 0
M  V30 4898 H 451.801 1.99588 -3.58713 0
M  V30 4899 H 450.462 2.00359 -2.41899 0
M  V30 4900 H 449.655 1.62719 -4.7701 0
M  V30 4901 H 449.257 0.238246 -3.7324 0
M  V30 4902 H 451.549 1.65479 -6.5698 0
M  V30 4903 H 452.492 0.217673 -7.07765 0
M  V30 4904 H 452.9 1.04806 -5.54685 0
M  V30 4905 N 452.299 1.55045 -0.282633 0
M  V30 4906 C 453.262 2.21515 0.588539 0
M  V30 4907 C 454.262 1.19535 1.07554 0
M  V30 4908 O 455.452 1.44391 0.974514 0
M  V30 4909 C 452.584 2.88704 1.8128 0
M  V30 4910 H 453.777 2.99899 0.00806397 0
M  V30 4911 H 451.33 1.56265 -0.0333067 0
M  V30 4912 H 452.065 2.14352 2.43359 0
M  V30 4913 H 451.85 3.63443 1.47144 0
M  V30 4914 H 453.34 3.39465 2.43214 0
M  V30 4915 N 453.777 0.010035 1.57597 0
M  V30 4916 C 454.724 -0.978122 2.09049 0
M  V30 4917 C 455.694 -1.33509 0.988159 0
M  V30 4918 O 456.879 -1.43172 1.26121 0
M  V30 4919 C 454.019 -2.26158 2.60666 0
M  V30 4920 C 453.132 -1.96275 3.84838 0
M  V30 4921 C 452.267 -3.18776 4.24918 0
M  V30 4922 C 451.306 -2.84625 5.41899 0
M  V30 4923 N 450.443 -3.99693 5.77226 0
M  V30 4924 H 455.283 -0.532431 2.93205 0
M  V30 4925 H 452.82 -0.251234 1.44939 0
M  V30 4926 H 454.778 -3.01202 2.88675 0
M  V30 4927 H 453.408 -2.68378 1.79369 0
M  V30 4928 H 452.46 -1.11555 3.63675 0
M  V30 4929 H 453.772 -1.67111 4.69974 0
M  V30 4930 H 452.926 -4.02157 4.54262 0
M  V30 4931 H 451.665 -3.51087 3.38511 0
M  V30 4932 H 450.67 -1.99653 5.12268 0
M  V30 4933 H 451.895 -2.53551 6.29991 0
M  V30 4934 H 449.841 -4.31882 4.93776 0
M  V30 4935 H 449.758 -3.74087 6.56959 0
M  V30 4936 H 451.026 -4.83834 6.11167 0
M  V30 4937 N 455.255 -1.55392 -0.262866 0
M  V30 4938 C 456.202 -1.88966 -1.32516 0
M  V30 4939 C 457.172 -0.742187 -1.48596 0
M  V30 4940 O 458.357 -0.99439 -1.62839 0
M  V30 4941 C 455.497 -2.17592 -2.67858 0
M  V30 4942 C 454.61 -3.45061 -2.59917 0
M  V30 4943 C 453.745 -3.63336 -3.87505 0
M  V30 4944 C 452.784 -4.84462 -3.74116 0
M  V30 4945 N 451.921 -4.99342 -4.93561 0
M  V30 4946 H 456.761 -2.79566 -1.03184 0
M  V30 4947 H 454.298 -1.38404 -0.498285 0
M  V30 4948 H 456.256 -2.3219 -3.46617 0
M  V30 4949 H 454.886 -1.30215 -2.95371 0
M  V30 4950 H 453.938 -3.38881 -1.72812 0
M  V30 4951 H 455.25 -4.3396 -2.45926 0
M  V30 4952 H 454.404 -3.77807 -4.74707 0
M  V30 4953 H 453.143 -2.72641 -4.04374 0
M  V30 4954 H 452.148 -4.69985 -2.85297 0
M  V30 4955 H 453.373 -5.76603 -3.58757 0
M  V30 4956 H 451.319 -4.1158 -5.10821 0
M  V30 4957 H 451.236 -5.82303 -4.82141 0
M  V30 4958 H 452.504 -5.18208 -5.82306 0
M  V30 4959 N 456.733 0.527833 -1.48498 0
M  V30 4960 C 458.149 0.856571 -1.34666 0
M  V30 4961 C 458.349 1.98271 -0.35931 0
M  V30 4962 O 457.405 2.51551 0.218703 0
M  V30 4963 C 458.718 1.22207 -2.74747 0
M  V30 4964 C 460.266 1.33183 -2.83251 0
M  V30 4965 C 460.741 1.73075 -4.24039 0
M  V30 4966 N 462.232 1.80174 -4.26722 0
M  V30 4967 C 462.967 2.1243 -5.32598 0
M  V30 4968 N 462.463 2.43096 -6.4875 0
M  V30 4969 N 464.256 2.13454 -5.19994 0
M  V30 4970 H 456.407 -0.215174 -2.11307 0
M  V30 4971 H 458.67 -0.0336281 -0.947403 0
M  V30 4972 H 458.376 0.468195 -3.4857 0
M  V30 4973 H 458.25 2.17173 -3.08409 0
M  V30 4974 H 460.637 2.07647 -2.09683 0
M  V30 4975 H 460.718 0.363333 -2.53206 0
M  V30 4976 H 460.362 0.991712 -4.98124 0
M  V30 4977 H 460.292 2.70979 -4.51529 0
M  V30 4978 H 462.783 1.58744 -3.42942 0
M  V30 4979 H 463.096 2.6682 -7.25277 0
M  V30 4980 H 461.441 2.40611 -6.52021 0
M  V30 4981 H 464.632 1.88956 -4.28268 0
M  V30 4982 H 464.805 2.38261 -6.02608 0
M  V30 4983 N 458.211 1.37122 0.776871 0
M  V30 4984 C 459.457 1.32243 1.53752 0
M  V30 4985 C 459.79 -0.0944745 1.9397 0
M  V30 4986 O 459.065 -1.05068 1.6368 0
M  V30 4987 C 459.348 2.25681 2.80607 0
M  V30 4988 C 459.201 3.76127 2.46676 0
M  V30 4989 C 460.52 2.17657 3.82509 0
M  V30 4990 H 457.639 0.481704 0.557791 0
M  V30 4991 H 460.281 1.6778 0.891612 0
M  V30 4992 H 458.431 1.95505 3.35723 0
M  V30 4993 H 460.103 4.16877 1.97513 0
M  V30 4994 H 458.346 3.94946 1.79443 0
M  V30 4995 H 459.017 4.36933 3.37333 0
M  V30 4996 H 461.493 2.44245 3.36873 0
M  V30 4997 H 460.369 2.85185 4.69 0
M  V30 4998 H 460.63 1.16785 4.26396 0
M  V30 4999 N 459.689 -1.00246 1.21608 0
M  V30 5000 C 460.938 -1.73476 1.02902 0
M  V30 5001 C 461.251 -1.90643 -0.437561 0
M  V30 5002 O 462.457 -2.61105 -0.74407 0
M  V30 5003 C 460.913 -3.12079 1.79261 0
M  V30 5004 C 460.521 -3.02877 3.30106 0
M  V30 5005 C 462.265 -3.89421 1.68972 0
M  V30 5006 C 460.172 -4.36575 3.98944 0
M  V30 5007 H 459.102 -0.650408 0.381425 0
M  V30 5008 H 461.753 -1.11985 1.45367 0
M  V30 5009 H 460.135 -3.74196 1.2959 0
M  V30 5010 H 461.309 -2.49983 3.87098 0
M  V30 5011 H 459.624 -2.39022 3.40965 0
M  V30 5012 H 462.221 -4.88362 2.17731 0
M  V30 5013 H 462.564 -4.1122 0.648397 0
M  V30 5014 H 463.097 -3.33963 2.16133 0
M  V30 5015 H 459.836 -4.19978 5.03288 0
M  V30 5016 H 459.356 -4.8942 3.4674 0
M  V30 5017 H 461.035 -5.05364 4.04 0
M  V30 5018 N 461.167 -1.02423 -1.1978 0
M  V30 5019 C 462.583 -0.740459 -1.41384 0
M  V30 5020 C 462.783 0.676827 -1.89793 0
M  V30 5021 O 461.839 1.4435 -2.0717 0
M  V30 5022 C 463.152 -1.77264 -2.42895 0
M  V30 5023 C 464.7 -1.79165 -2.56649 0
M  V30 5024 C 465.175 -2.8133 -3.6141 0
M  V30 5025 N 466.666 -2.80118 -3.68901 0
M  V30 5026 C 467.401 -3.55824 -4.49641 0
M  V30 5027 N 466.897 -4.41231 -5.34123 0
M  V30 5028 N 468.69 -3.44387 -4.44246 0
M  V30 5029 H 460.841 -1.9391 -0.866764 0
M  V30 5030 H 463.104 -0.838074 -0.443098 0
M  V30 5031 H 462.81 -2.7884 -2.14339 0
M  V30 5032 H 462.684 -1.59108 -3.42001 0
M  V30 5033 H 465.071 -0.782702 -2.84531 0
M  V30 5034 H 465.152 -2.01396 -1.57713 0
M  V30 5035 H 464.796 -3.82394 -3.34271 0
M  V30 5036 H 464.726 -2.56359 -4.59986 0
M  V30 5037 H 467.217 -2.1817 -3.08562 0
M  V30 5038 H 467.53 -4.95747 -5.92836 0
M  V30 5039 H 465.875 -4.45306 -5.33599 0
M  V30 5040 H 469.066 -2.7708 -3.77285 0
M  V30 5041 H 469.239 -4.0364 -5.06931 0
M  V30 5042 N 462.645 1.35699 -0.801477 0
M  V30 5043 C 463.578 2.2768 -0.153922 0
M  V30 5044 C 464.556 1.47832 0.67709 0
M  V30 5045 O 465.74 1.77104 0.645474 0
M  V30 5046 C 462.867 3.2943 0.786986 0
M  V30 5047 C 461.913 4.26485 0.0362447 0
M  V30 5048 S 462.746 5.19573 -1.2963 0
M  V30 5049 C 463.902 6.24866 -0.359705 0
M  V30 5050 H 464.135 2.82254 -0.9338 0
M  V30 5051 H 461.668 1.42421 -0.596283 0
M  V30 5052 H 463.626 3.8855 1.32436 0
M  V30 5053 H 462.287 2.73745 1.54021 0
M  V30 5054 H 461.48 4.98378 0.750668 0
M  V30 5055 H 461.082 3.71508 -0.431017 0
M  V30 5056 H 463.374 6.75957 0.456954 0
M  V30 5057 H 464.317 7.00307 -1.04768 0
M  V30 5058 H 464.725 5.64484 0.0423274 0
M  V30 5059 N 464.123 0.554532 1.47522 0
M  V30 5060 C 465.053 -0.182974 2.32782 0
M  V30 5061 C 466.034 -0.911377 1.43624 0
M  V30 5062 O 467.219 -0.892366 1.72483 0
M  V30 5063 C 464.349 -1.21513 3.25349 0
M  V30 5064 C 463.303 -0.603355 4.23726 0
M  V30 5065 C 462.629 -1.73995 5.05598 0
M  V30 5066 C 463.929 0.441121 5.20434 0
M  V30 5067 H 465.623 0.52882 2.94693 0
M  V30 5068 H 463.169 0.255759 1.41711 0
M  V30 5069 H 465.122 -1.73922 3.83835 0
M  V30 5070 H 463.846 -1.95683 2.61487 0
M  V30 5071 H 462.505 -0.10059 3.66462 0
M  V30 5072 H 462.153 -2.47063 4.38143 0
M  V30 5073 H 461.853 -1.3364 5.72201 0
M  V30 5074 H 463.377 -2.26735 5.66942 0
M  V30 5075 H 464.791 0.00319931 5.733 0
M  V30 5076 H 463.188 0.763402 5.95224 0
M  V30 5077 H 464.258 1.33799 4.66075 0
M  V30 5078 N 465.601 -1.54893 0.290851 0
M  V30 5079 C 466.85 -1.99111 -0.322113 0
M  V30 5080 C 467.163 -1.18283 -1.55784 0
M  V30 5081 O 468.369 -1.5272 -2.24475 0
M  V30 5082 C 466.825 -3.54442 -0.624438 0
M  V30 5083 C 466.433 -4.44066 0.592373 0
M  V30 5084 C 468.177 -4.07211 -1.19916 0
M  V30 5085 C 466.084 -5.90812 0.263762 0
M  V30 5086 H 465.014 -0.743712 -0.124133 0
M  V30 5087 H 467.665 -1.79132 0.39797 0
M  V30 5088 H 466.047 -3.70281 -1.40384 0
M  V30 5089 H 467.221 -4.39999 1.36886 0
M  V30 5090 H 465.536 -4.02015 1.08502 0
M  V30 5091 H 468.133 -5.14407 -1.45909 0
M  V30 5092 H 468.476 -3.57196 -2.13815 0
M  V30 5093 H 469.009 -3.94873 -0.481687 0
M  V30 5094 H 465.748 -6.44955 1.17105 0
M  V30 5095 H 465.268 -5.97911 -0.475655 0
M  V30 5096 H 466.947 -6.46852 -0.138354 0
M  V30 5097 N 467.08 -0.0183926 -1.57589 0
M  V30 5098 C 468.326 0.663543 -1.91638 0
M  V30 5099 C 468.659 1.72392 -0.894134 0
M  V30 5100 O 467.934 1.94316 0.0846449 0
M  V30 5101 C 468.217 1.28984 -3.36207 0
M  V30 5102 C 468.07 0.239761 -4.49161 0
M  V30 5103 C 469.389 2.2109 -3.80536 0
M  V30 5104 H 466.508 0.239746 -0.696915 0
M  V30 5105 H 469.15 -0.073456 -1.89858 0
M  V30 5106 H 467.3 1.91799 -3.37854 0
M  V30 5107 H 468.972 -0.390119 -4.59647 0
M  V30 5108 H 467.215 -0.435972 -4.31604 0
M  V30 5109 H 467.886 0.717383 -5.47319 0
M  V30 5110 H 470.362 1.68273 -3.80557 0
M  V30 5111 H 469.238 2.61869 -4.82406 0
M  V30 5112 H 469.499 3.09764 -3.15434 0
M  V30 5113 N 468.558 1.5553 0.254621 0
M  V30 5114 C 469.807 1.76202 0.981612 0
M  V30 5115 C 470.12 0.580883 1.86776 0
M  V30 5116 O 471.326 0.670448 2.63092 0
M  V30 5117 C 469.782 3.11921 1.79537 0
M  V30 5118 C 469.39 4.37659 0.956991 0
M  V30 5119 C 471.134 3.41936 2.51555 0
M  V30 5120 C 469.041 5.64411 1.76619 0
M  V30 5121 H 467.971 0.656841 0.370237 0
M  V30 5122 H 470.622 1.81969 0.236556 0
M  V30 5123 H 469.004 3.00241 2.58208 0
M  V30 5124 H 470.178 4.60307 0.21315 0
M  V30 5125 H 468.493 4.14922 0.350497 0
M  V30 5126 H 471.09 4.33849 3.12536 0
M  V30 5127 H 471.433 2.62905 3.22779 0
M  V30 5128 H 471.966 3.54797 1.799 0
M  V30 5129 H 468.705 6.46241 1.09783 0
M  V30 5130 H 468.225 5.45877 2.48551 0
M  V30 5131 H 469.904 6.03386 2.33527 0
M  V30 5132 N 470.036 -0.519951 1.48776 0
M  V30 5133 C 471.282 -1.27711 1.57536 0
M  V30 5134 C 471.615 -1.92547 0.252866 0
M  V30 5135 O 470.89 -1.7979 -0.742021 0
M  V30 5136 C 471.173 -2.35875 2.72094 0
M  V30 5137 C 471.026 -1.75664 4.1408 0
M  V30 5138 C 472.345 -3.37575 2.82367 0
M  V30 5139 H 469.464 -0.462971 0.573434 0
M  V30 5140 H 472.106 -0.578194 1.80989 0
M  V30 5141 H 470.256 -2.95488 2.52228 0
M  V30 5142 H 471.928 -1.20025 4.45412 0
M  V30 5143 H 470.171 -1.06154 4.20611 0
M  V30 5144 H 470.842 -2.54029 4.90075 0
M  V30 5145 H 473.318 -2.87929 3.00393 0
M  V30 5146 H 472.194 -4.1064 3.64233 0
M  V30 5147 H 472.455 -3.98743 1.90936 0
M  V30 5148 N 471.514 -1.37532 -0.769588 0
M  V30 5149 C 472.76 -1.33057 -1.53048 0
M  V30 5150 C 473.093 0.0841865 -1.94017 0
M  V30 5151 O 472.368 1.04198 -1.64235 0
M  V30 5152 C 472.651 -2.27166 -2.79406 0
M  V30 5153 C 472.504 -3.77429 -2.44677 0
M  V30 5154 C 473.823 -2.19683 -3.81349 0
M  V30 5155 H 470.942 -0.484655 -0.555228 0
M  V30 5156 H 473.584 -1.68251 -0.882702 0
M  V30 5157 H 471.734 -1.97283 -3.34682 0
M  V30 5158 H 473.406 -4.17918 -1.953 0
M  V30 5159 H 471.649 -3.95892 -1.77346 0
M  V30 5160 H 472.32 -4.38716 -3.35011 0
M  V30 5161 H 474.796 -2.46029 -3.35573 0
M  V30 5162 H 473.672 -2.87668 -4.67481 0
M  V30 5163 H 473.933 -1.19045 -4.25771 0
M  V30 5164 N 472.992 0.995999 -1.22138 0
M  V30 5165 C 473.922 2.10387 -1.01289 0
M  V30 5166 C 474.903 1.69975 0.0651454 0
M  V30 5167 O 476.088 1.9396 -0.0964628 0
M  V30 5168 C 473.218 3.42312 -0.586517 0
M  V30 5169 C 472.172 3.96558 -1.61014 0
M  V30 5170 C 471.498 5.24494 -1.0397 0
M  V30 5171 C 472.798 4.27595 -2.99933 0
M  V30 5172 H 474.492 2.28086 -1.93951 0
M  V30 5173 H 472.038 1.09607 -0.933928 0
M  V30 5174 H 473.991 4.19223 -0.427793 0
M  V30 5175 H 472.715 3.24431 0.375761 0
M  V30 5176 H 471.374 3.21776 -1.75658 0
M  V30 5177 H 471.022 5.02953 -0.0688703 0
M  V30 5178 H 470.722 5.61755 -1.72352 0
M  V30 5179 H 472.246 6.04042 -0.892494 0
M  V30 5180 H 473.66 4.95315 -2.8868 0
M  V30 5181 H 472.057 4.76021 -3.6541 0
M  V30 5182 H 473.127 3.35498 -3.50099 0
M  V30 5183 N 474.47 1.03057 1.19235 0
M  V30 5184 C 475.717 0.728019 1.88961 0
M  V30 5185 C 476.045 -0.743515 1.79728 0
M  V30 5186 O 475.3 -1.55729 1.1852 0
M  V30 5187 C 475.599 1.1268 3.39172 0
M  V30 5188 C 475.265 2.5969 3.68608 0
M  V30 5189 C 473.927 2.99854 3.76352 0
M  V30 5190 C 476.279 3.54793 3.81801 0
M  V30 5191 C 473.607 4.34031 3.94758 0
M  V30 5192 C 475.959 4.88675 4.0172 0
M  V30 5193 C 474.623 5.28526 4.07697 0
M  V30 5194 H 473.893 0.266401 0.691456 0
M  V30 5195 H 476.54 1.29373 1.41191 0
M  V30 5196 H 474.845 0.479722 3.88852 0
M  V30 5197 H 476.542 0.870203 3.91444 0
M  V30 5198 H 473.132 2.27575 3.63191 0
M  V30 5199 H 477.316 3.24914 3.7516 0
M  V30 5200 H 472.572 4.6444 3.97625 0
M  V30 5201 H 476.746 5.6228 4.1087 0
M  V30 5202 H 474.373 6.32506 4.21712 0
M  V30 5203 N 475.948 -1.35272 0.808662 0
M  V30 5204 C 477.195 -1.98709 0.390003 0
M  V30 5205 C 477.523 -1.64148 -1.04335 0
M  V30 5206 O 476.778 -0.897797 -1.73891 0
M  V30 5207 C 477.077 -3.53556 0.522798 0
M  V30 5208 C 476.743 -4.0799 1.91977 0
M  V30 5209 C 475.405 -4.22568 2.30195 0
M  V30 5210 C 477.757 -4.37442 2.83361 0
M  V30 5211 C 475.085 -4.63918 3.59162 0
M  V30 5212 C 477.437 -4.80232 4.11776 0
M  V30 5213 C 476.101 -4.93016 4.49991 0
M  V30 5214 H 475.371 -0.727127 0.142712 0
M  V30 5215 H 478.018 -1.6145 1.02985 0
M  V30 5216 H 476.323 -3.91287 -0.200494 0
M  V30 5217 H 478.02 -4.00598 0.179608 0
M  V30 5218 H 474.61 -3.97096 1.61284 0
M  V30 5219 H 478.794 -4.25731 2.55083 0
M  V30 5220 H 474.05 -4.72005 3.88615 0
M  V30 5221 H 478.224 -5.01982 4.82687 0
M  V30 5222 H 475.851 -5.24814 5.49976 0
M  V30 5223 N 477.426 -0.562348 -1.47226 0
M  V30 5224 C 478.356 0.170627 -2.32876 0
M  V30 5225 C 479.337 0.903748 -1.44106 0
M  V30 5226 O 480.522 0.883206 -1.72954 0
M  V30 5227 C 477.652 1.19786 -3.25989 0
M  V30 5228 C 476.606 0.580875 -4.2404 0
M  V30 5229 C 475.932 1.71311 -5.06514 0
M  V30 5230 C 477.232 -0.468714 -5.20193 0
M  V30 5231 H 478.926 -0.544441 -2.94408 0
M  V30 5232 H 476.472 -0.263271 -1.41573 0
M  V30 5233 H 478.425 1.71884 -3.84752 0
M  V30 5234 H 477.149 1.94294 -2.62521 0
M  V30 5235 H 475.808 0.0811538 -3.6651 0
M  V30 5236 H 475.456 2.44736 -4.39447 0
M  V30 5237 H 475.156 1.30604 -5.72902 0
M  V30 5238 H 476.68 2.23725 -5.68137 0
M  V30 5239 H 478.094 -0.0336028 -5.7329 0
M  V30 5240 H 476.491 -0.794957 -5.94811 0
M  V30 5241 H 477.561 -1.36269 -4.65359 0
M  V30 5242 N 478.904 1.54736 -0.299062 0
M  V30 5243 C 480.144 2.0201 0.31168 0
M  V30 5244 C 480.508 1.18281 1.5124 0
M  V30 5245 O 481.709 1.55243 2.19438 0
M  V30 5246 C 479.98 3.5123 0.661227 0
M  V30 5247 S 481.539 4.20467 1.2551 0
M  V30 5248 H 478.357 0.704523 0.0957517 0
M  V30 5249 H 480.959 1.90791 -0.426482 0
M  V30 5250 H 479.663 4.09804 -0.221171 0
M  V30 5251 H 479.194 3.66481 1.43023 0
M  V30 5252 H 481.209 4.26083 2.54298 0
M  V30 5253 N 480.382 0.0267497 1.57577 0
M  V30 5254 C 481.628 -0.647596 1.92815 0
M  V30 5255 C 481.983 -1.69872 0.903396 0
M  V30 5256 O 481.276 -1.91429 -0.0808881 0
M  V30 5257 C 481.47 -1.30914 3.3256 0
M  V30 5258 C 481.299 -0.323621 4.48534 0
M  V30 5259 C 480.069 0.0756607 5.05243 0
M  V30 5260 C 482.267 0.42112 5.12573 0
M  V30 5261 N 480.249 1.0566 6.04739 0
M  V30 5262 C 481.62 1.25589 6.07147 0
M  V30 5263 C 483.675 0.482077 4.95561 0
M  V30 5264 C 482.378 2.1461 6.86538 0
M  V30 5265 C 484.404 1.35962 5.75559 0
M  V30 5266 C 483.766 2.18217 6.69747 0
M  V30 5267 H 479.865 -0.209357 0.753454 0
M  V30 5268 H 482.449 0.0933695 1.94476 0
M  V30 5269 H 480.62 -2.02026 3.31723 0
M  V30 5270 H 482.352 -1.94033 3.55153 0
M  V30 5271 H 479.107 -0.298294 4.7266 0
M  V30 5272 H 479.531 1.54324 6.59176 0
M  V30 5273 H 484.173 -0.139609 4.22569 0
M  V30 5274 H 481.891 2.77835 7.58837 0
M  V30 5275 H 485.477 1.41105 5.6443 0
M  V30 5276 H 484.357 2.85022 7.3057 0
M  V30 5277 N 481.861 -1.55662 -0.24637 0
M  V30 5278 C 482.794 -1.85332 -1.33143 0
M  V30 5279 C 483.772 -0.708464 -1.46354 0
M  V30 5280 O 484.956 -0.954274 -1.6256 0
M  V30 5281 C 482.083 -2.0385 -2.70487 0
M  V30 5282 C 481.129 -3.26488 -2.74423 0
M  V30 5283 S 481.962 -4.83124 -2.30979 0
M  V30 5284 C 483.118 -5.04647 -3.70246 0
M  V30 5285 H 483.351 -2.77077 -1.07777 0
M  V30 5286 H 480.884 -1.47776 -0.44738 0
M  V30 5287 H 482.842 -2.15202 -3.49569 0
M  V30 5288 H 481.503 -1.12947 -2.9309 0
M  V30 5289 H 480.696 -3.36413 -3.7529 0
M  V30 5290 H 480.298 -3.13864 -2.03385 0
M  V30 5291 H 482.59 -4.92023 -4.65746 0
M  V30 5292 H 483.533 -6.06625 -3.65255 0
M  V30 5293 H 483.941 -4.32491 -3.62784 0
M  V30 5294 N 483.339 0.512053 -1.4905 0
M  V30 5295 C 484.75 1.09376 -1.51307 0
M  V30 5296 C 485.101 1.94 -0.292971 0
M  V30 5297 O 484.226 2.07965 0.598277 0
M  V30 5298 C 484.821 1.99031 -2.74176 0
M  V30 5299 C 483.38 2.52385 -2.79247 0
M  V30 5300 C 482.527 1.29749 -2.45073 0
M  V30 5301 H 485.478 0.296467 -1.55906 0
M  V30 5302 H 485.499 2.83569 -2.53711 0
M  V30 5303 H 485.011 1.37412 -3.62959 0
M  V30 5304 H 483.112 3.17673 -1.94716 0
M  V30 5305 H 483.225 2.90293 -3.81139 0
M  V30 5306 H 481.589 1.61912 -1.96612 0
M  V30 5307 H 482.372 0.698555 -3.36118 0
M  V30 5308 N 484.817 1.37938 0.762283 0
M  V30 5309 C 486.066 1.32989 1.51647 0
M  V30 5310 C 486.379 -0.0802922 1.95435 0
M  V30 5311 O 487.585 -0.252295 2.70325 0
M  V30 5312 C 486.041 2.33485 2.73885 0
M  V30 5313 C 485.649 3.80079 2.37157 0
M  V30 5314 C 487.393 2.37563 3.51801 0
M  V30 5315 C 485.3 4.72283 3.55954 0
M  V30 5316 H 484.23 0.494301 0.56937 0
M  V30 5317 H 486.881 1.63448 0.834083 0
M  V30 5318 H 485.263 1.96056 3.44061 0
M  V30 5319 H 486.437 4.26398 1.74704 0
M  V30 5320 H 484.752 3.79037 1.72395 0
M  V30 5321 H 487.349 3.0365 4.40114 0
M  V30 5322 H 487.692 1.39199 3.92338 0
M  V30 5323 H 488.225 2.73747 2.8863 0
M  V30 5324 H 484.964 5.7181 3.2049 0
M  V30 5325 H 484.484 4.30663 4.1748 0
M  V30 5326 H 486.163 4.89876 4.22647 0
M  V30 5327 N 486.295 -0.989507 1.22664 0
M  V30 5328 C 487.542 -1.72953 1.05325 0
M  V30 5329 C 487.87 -1.90104 -0.411168 0
M  V30 5330 O 487.125 -1.44386 -1.32103 0
M  V30 5331 C 487.424 -3.13649 1.71345 0
M  V30 5332 C 487.09 -3.16403 3.21248 0
M  V30 5333 C 485.752 -3.16862 3.62149 0
M  V30 5334 C 488.104 -3.12428 4.17179 0
M  V30 5335 C 485.432 -3.11051 4.97458 0
M  V30 5336 C 487.784 -3.08159 5.52468 0
M  V30 5337 C 486.448 -3.06935 5.92746 0
M  V30 5338 H 485.718 -0.632881 0.385412 0
M  V30 5339 H 488.365 -1.15863 1.52473 0
M  V30 5340 H 486.67 -3.74069 1.16532 0
M  V30 5341 H 488.367 -3.69658 1.55416 0
M  V30 5342 H 484.957 -3.16798 2.88682 0
M  V30 5343 H 489.141 -3.11221 3.86595 0
M  V30 5344 H 484.397 -3.0845 5.27891 0
M  V30 5345 H 488.571 -3.04039 6.26525 0
M  V30 5346 H 486.198 -3.02186 6.97558 0
M  V30 5347 N 487.773 -1.03688 -1.18687 0
M  V30 5348 C 488.998 -0.757819 -1.93059 0
M  V30 5349 C 489.423 0.678353 -1.75442 0
M  V30 5350 O 488.781 1.46938 -1.06203 0
M  V30 5351 C 488.829 -1.12423 -3.42627 0
M  V30 5352 O 487.933 -0.247505 -4.11657 0
M  V30 5353 H 487.274 -0.279245 -0.602427 0
M  V30 5354 H 489.804 -1.3857 -1.5053 0
M  V30 5355 H 489.814 -1.08454 -3.93322 0
M  V30 5356 H 488.489 -2.17049 -3.54771 0
M  V30 5357 H 487.066 -0.34649 -3.71287 0
M  V30 5358 N 489.251 1.34841 -0.815825 0
M  V30 5359 C 490.214 2.27959 -0.238185 0
M  V30 5360 C 491.214 1.49983 0.579816 0
M  V30 5361 O 492.404 1.69617 0.396953 0
M  V30 5362 C 489.536 3.34314 0.666876 0
M  V30 5363 H 490.729 2.80558 -1.05958 0
M  V30 5364 H 488.282 1.44852 -0.587156 0
M  V30 5365 H 489.017 2.86916 1.5116 0
M  V30 5366 H 488.802 3.92014 0.0819106 0
M  V30 5367 H 490.292 4.0379 1.06506 0
M  V30 5368 N 490.729 0.570148 1.46925 0
M  V30 5369 C 491.677 -0.183181 2.31878 0
M  V30 5370 C 492.671 -0.896721 1.43719 0
M  V30 5371 O 493.877 -0.816536 1.60414 0
M  V30 5372 H 490.252 -0.077944 0.74795 0
M  V30 5373 H 492.223 0.552312 2.93244 0
M  V30 5374 C 490.972 -1.19172 3.2664 0
M  V30 5375 H 490.295 -0.652088 3.94446 0
M  V30 5376 H 491.735 -1.68946 3.88887 0
M  V30 5377 C 490.194 -2.24627 2.51086 0
M  V30 5378 O 490.724 -3.31773 2.26472 0
M  V30 5379 N 488.93 -1.98898 2.11867 0
M  V30 5380 H 488.477 -1.11777 2.32086 0
M  V30 5381 H 488.435 -2.6967 1.61634 0
M  V30 5382 N 492.207 -1.54576 0.307264 0
M  V30 5383 C 493.17 -2.22423 -0.553224 0
M  V30 5384 C 494.17 -1.21231 -1.05639 0
M  V30 5385 O 495.36 -1.45923 -0.951419 0
M  V30 5386 C 492.492 -2.91552 -1.76664 0
M  V30 5387 H 493.685 -2.99874 0.0396484 0
M  V30 5388 H 491.238 -1.56192 0.0581629 0
M  V30 5389 H 491.973 -2.18196 -2.39918 0
M  V30 5390 H 491.758 -3.65738 -1.41343 0
M  V30 5391 H 493.248 -3.43292 -2.37783 0
M  V30 5392 N 493.685 -0.035106 -1.57561 0
M  V30 5393 C 494.931 0.637362 -1.93156 0
M  V30 5394 C 495.286 1.69391 -0.912392 0
M  V30 5395 O 494.579 1.91469 0.070735 0
M  V30 5396 C 494.773 1.29149 -3.3325 0
M  V30 5397 C 494.602 0.29983 -4.48699 0
M  V30 5398 C 493.372 -0.102454 -5.05196 0
M  V30 5399 C 495.57 -0.448297 -5.12342 0
M  V30 5400 N 493.552 -1.08866 -6.0417 0
M  V30 5401 C 494.923 -1.28807 -6.06472 0
M  V30 5402 C 496.978 -0.508351 -4.95298 0
M  V30 5403 C 495.681 -2.18248 -6.85391 0
M  V30 5404 C 497.707 -1.39013 -5.7483 0
M  V30 5405 C 497.069 -2.21766 -6.6858 0
M  V30 5406 H 493.168 0.205358 -0.754554 0
M  V30 5407 H 495.752 -0.103682 -1.94424 0
M  V30 5408 H 493.923 2.00264 -3.3279 0
M  V30 5409 H 495.655 1.92147 -3.56177 0
M  V30 5410 H 492.41 0.273223 -4.72811 0
M  V30 5411 H 492.834 -1.57817 -6.58348 0
M  V30 5412 H 497.476 0.117197 -4.22638 0
M  V30 5413 H 495.194 -2.81855 -7.57353 0
M  V30 5414 H 498.78 -1.44096 -5.63673 0
M  V30 5415 H 497.66 -2.88892 -7.29048 0
M  V30 5416 N 495.163 1.55791 0.238111 0
M  V30 5417 C 496.579 1.48411 0.587045 0
M  V30 5418 C 496.779 0.72702 1.87927 0
M  V30 5419 O 495.835 0.259942 2.51158 0
M  V30 5420 C 497.148 2.92873 0.681623 0
M  V30 5421 C 498.696 3.03295 0.773363 0
M  V30 5422 C 499.171 4.49082 0.899428 0
M  V30 5423 N 500.662 4.53056 0.964075 0
M  V30 5424 C 501.397 5.63117 1.08104 0
M  V30 5425 N 500.893 6.82969 1.16299 0
M  V30 5426 N 502.686 5.50933 1.11488 0
M  V30 5427 H 494.837 2.0345 -0.610076 0
M  V30 5428 H 497.1 0.924034 -0.211813 0
M  V30 5429 H 496.806 3.51142 -0.19802 0
M  V30 5430 H 496.68 3.43851 1.55069 0
M  V30 5431 H 499.067 2.45101 1.64346 0
M  V30 5432 H 499.148 2.55513 -0.121034 0
M  V30 5433 H 498.792 5.07889 0.0338586 0
M  V30 5434 H 498.722 4.94553 1.809 0
M  V30 5435 H 501.213 3.66737 0.91173 0
M  V30 5436 H 501.526 7.62598 1.25155 0
M  V30 5437 H 499.871 6.85712 1.13241 0
M  V30 5438 H 503.062 4.56231 1.0474 0
M  V30 5439 H 503.235 6.36743 1.20259 0
M  V30 5440 N 496.642 -0.504142 1.49319 0
M  V30 5441 C 497.605 -1.5883 1.65244 0
M  V30 5442 C 498.605 -1.52009 0.524386 0
M  V30 5443 O 499.795 -1.55218 0.79077 0
M  V30 5444 C 496.927 -2.98481 1.64687 0
M  V30 5445 H 498.12 -1.4604 2.61939 0
M  V30 5446 H 495.673 -0.728144 1.38303 0
M  V30 5447 H 496.408 -3.16751 0.695644 0
M  V30 5448 H 496.193 -3.0484 2.46607 0
M  V30 5449 H 497.683 -3.77256 1.79075 0
M  V30 5450 N 498.12 -1.38341 -0.754957 0
M  V30 5451 C 499.35 -1.37504 -1.54195 0
M  V30 5452 C 499.758 0.0373787 -1.89163 0
M  V30 5453 O 499.101 1.01402 -1.53178 0
M  V30 5454 C 499.163 -2.16488 -2.87008 0
M  V30 5455 C 498.827 -3.65311 -2.74585 0
M  V30 5456 C 499.824 -4.58834 -2.44474 0
M  V30 5457 C 497.509 -4.08649 -2.9208 0
M  V30 5458 C 499.503 -5.93675 -2.32011 0
M  V30 5459 C 497.19 -5.43571 -2.79237 0
M  V30 5460 C 498.188 -6.35898 -2.49245 0
M  V30 5461 O 497.876 -7.68338 -2.36458 0
M  V30 5462 H 497.608 -0.472159 -0.483779 0
M  V30 5463 H 500.162 -1.82515 -0.94221 0
M  V30 5464 H 498.392 -1.66194 -3.49166 0
M  V30 5465 H 500.081 -2.08076 -3.4851 0
M  V30 5466 H 500.847 -4.26657 -2.30627 0
M  V30 5467 H 496.726 -3.37134 -3.14422 0
M  V30 5468 H 500.27 -6.65706 -2.08522 0
M  V30 5469 H 496.167 -5.75345 -2.92657 0
M  V30 5470 H 496.935 -7.78845 -2.5168 0
M  V30 5471 N 499.598 0.982988 -1.23187 0
M  V30 5472 C 500.875 1.69814 -0.970707 0
M  V30 5473 C 501.255 2.04811 0.511424 0
M  V30 5474 O 500.603 1.73924 1.48198 0
M  V30 5475 C 500.813 2.94143 -1.87831 0
M  V30 5476 C 502.161 3.66712 -2.14026 0
M  V30 5477 O 503.185 3.04171 -1.8536 0
M  V30 5478 O 502.044 4.79258 -2.62629 0
M  V30 5479 H 499.138 0.741659 -0.365884 0
M  V30 5480 H 501.684 1.03844 -1.34218 0
M  V30 5481 H 500.456 2.64858 -2.88038 0
M  V30 5482 H 500.079 3.6785 -1.50905 0
M  V30 5483 N 501.076 1.04316 1.18135 0
M  V30 5484 C 502.304 0.768117 1.92113 0
M  V30 5485 C 502.719 -0.675057 1.76319 0
M  V30 5486 O 502.076 -1.46038 1.09449 0
M  V30 5487 C 502.127 1.12808 3.43448 0
M  V30 5488 O 501.848 2.5146 3.58747 0
M  V30 5489 C 503.349 0.8779 4.3452 0
M  V30 5490 H 500.569 0.279937 0.609817 0
M  V30 5491 H 503.113 1.39149 1.49859 0
M  V30 5492 H 501.268 0.549623 3.83481 0
M  V30 5493 H 501.682 2.65313 4.52448 0
M  V30 5494 H 503.156 1.17959 5.39249 0
M  V30 5495 H 503.633 -0.187239 4.38801 0
M  V30 5496 H 504.239 1.43977 4.00188 0
M  V30 5497 N 502.554 -1.34406 0.822964 0
M  V30 5498 C 503.517 -2.2783 0.250271 0
M  V30 5499 C 504.517 -1.50288 -0.571854 0
M  V30 5500 O 505.707 -1.69825 -0.387952 0
M  V30 5501 C 502.839 -3.34663 -0.649137 0
M  V30 5502 H 504.032 -2.79992 1.07444 0
M  V30 5503 H 501.585 -1.44539 0.594829 0
M  V30 5504 H 502.32 -2.87714 -1.49637 0
M  V30 5505 H 502.105 -3.92052 -0.0611199 0
M  V30 5506 H 503.595 -4.04349 -1.04363 0
M  V30 5507 N 504.032 -0.577932 -1.46621 0
M  V30 5508 C 505.257 -0.0652536 -2.07297 0
M  V30 5509 C 505.682 1.22828 -1.4246 0
M  V30 5510 O 505.04 1.74075 -0.506718 0
M  V30 5511 C 505.088 0.0920589 -3.60482 0
M  V30 5512 O 504.192 1.14972 -3.96049 0
M  V30 5513 H 503.533 -0.06065 -0.661224 0
M  V30 5514 H 506.063 -0.799515 -1.88332 0
M  V30 5515 H 506.073 0.299741 -4.06897 0
M  V30 5516 H 504.748 -0.852612 -4.07067 0
M  V30 5517 H 503.325 0.920879 -3.61351 0
M  V30 5518 N 505.51 1.54411 -0.315457 0
M  V30 5519 C 506.473 2.22713 0.54142 0
M  V30 5520 C 507.473 1.2179 1.04995 0
M  V30 5521 O 508.663 1.46426 0.943667 0
M  V30 5522 C 505.795 2.92485 1.75116 0
M  V30 5523 H 506.988 2.99849 -0.0555508 0
M  V30 5524 H 504.541 1.56159 -0.0664453 0
M  V30 5525 H 505.276 2.19466 2.38758 0
M  V30 5526 H 505.061 3.66483 1.39401 0
M  V30 5527 H 506.551 3.44548 2.35959 0
M  V30 5528 N 506.988 0.0434614 1.5754 0
M  V30 5529 C 507.898 -0.94893 2.14552 0
M  V30 5530 C 508.914 -1.34707 1.10136 0
M  V30 5531 O 510.09 -1.42557 1.42266 0
M  V30 5532 C 507.155 -2.208 2.67298 0
M  V30 5533 C 506.216 -1.86893 3.86484 0
M  V30 5534 C 505.449 -3.06797 4.36705 0
M  V30 5535 O 505.672 -4.19921 3.86034 0
M  V30 5536 O 504.606 -2.8826 5.28384 0
M  V30 5537 H 508.432 -0.494099 2.99654 0
M  V30 5538 H 506.017 -0.177989 1.48336 0
M  V30 5539 H 507.899 -2.94686 3.01228 0
M  V30 5540 H 506.574 -2.65436 1.85272 0
M  V30 5541 H 505.481 -1.10347 3.57455 0
M  V30 5542 H 506.814 -1.47062 4.69716 0
M  V30 5543 N 508.466 -1.55915 -0.229846 0
M  V30 5544 C 509.882 -1.48721 -0.579166 0
M  V30 5545 C 510.082 -0.736976 -1.87539 0
M  V30 5546 O 509.138 -0.273258 -2.51017 0
M  V30 5547 C 510.451 -2.9323 -0.666082 0
M  V30 5548 C 511.999 -3.03701 -0.757267 0
M  V30 5549 C 512.474 -4.49552 -0.8756 0
M  V30 5550 N 513.965 -4.53561 -0.940035 0
M  V30 5551 C 514.7 -5.63683 -1.05116 0
M  V30 5552 N 514.196 -6.83576 -1.12675 0
M  V30 5553 N 515.989 -5.51516 -1.08565 0
M  V30 5554 H 508.14 -2.03123 0.620857 0
M  V30 5555 H 510.403 -0.922898 0.21671 0
M  V30 5556 H 510.109 -3.51032 0.21664 0
M  V30 5557 H 509.983 -3.44668 -1.53243 0
M  V30 5558 H 512.37 -2.45969 -1.63043 0
M  V30 5559 H 512.451 -2.55446 0.134583 0
M  V30 5560 H 512.095 -5.079 -0.00692351 0
M  V30 5561 H 512.025 -4.95506 -1.78274 0
M  V30 5562 H 514.516 -3.67215 -0.892269 0
M  V30 5563 H 514.829 -7.63251 -1.21109 0
M  V30 5564 H 513.174 -6.86303 -1.09603 0
M  V30 5565 H 516.365 -4.5678 -1.02319 0
M  V30 5566 H 516.538 -6.37372 -1.1688 0
M  V30 5567 N 509.944 0.496216 -1.49584 0
M  V30 5568 C 511.36 0.827814 -1.36453 0
M  V30 5569 C 511.56 1.97464 -0.401285 0
M  V30 5570 O 510.616 2.51958 0.165296 0
M  V30 5571 C 511.929 1.16352 -2.77277 0
M  V30 5572 C 513.477 1.27145 -2.86013 0
M  V30 5573 C 513.952 1.64042 -4.27615 0
M  V30 5574 N 515.443 1.71082 -4.30448 0
M  V30 5575 C 516.178 2.01085 -5.36984 0
M  V30 5576 N 515.674 2.2928 -6.5376 0
M  V30 5577 N 517.467 2.02376 -5.24405 0
M  V30 5578 H 509.618 -0.259947 -2.10803 0
M  V30 5579 H 511.881 -0.0537163 -0.946477 0
M  V30 5580 H 511.587 0.394153 -3.49484 0
M  V30 5581 H 511.461 2.10582 -3.12946 0
M  V30 5582 H 513.848 2.03152 -2.1404 0
M  V30 5583 H 513.929 0.309542 -2.5392 0
M  V30 5584 H 513.573 0.88583 -5.00115 0
M  V30 5585 H 513.503 2.6134 -4.57175 0
M  V30 5586 H 515.994 1.51434 -3.46232 0
M  V30 5587 H 516.307 2.51376 -7.30774 0
M  V30 5588 H 514.652 2.26726 -6.56978 0
M  V30 5589 H 517.843 1.79829 -4.32179 0
M  V30 5590 H 518.016 2.25425 -6.07526 0
M  V30 5591 N 511.423 1.38739 0.74761 0
M  V30 5592 C 512.353 1.39173 1.87492 0
M  V30 5593 C 513.334 0.256794 1.6815 0
M  V30 5594 O 514.519 0.460762 1.88655 0
M  V30 5595 C 511.649 1.22197 3.25093 0
M  V30 5596 C 510.603 2.32957 3.59047 0
M  V30 5597 C 509.929 2.01082 4.95449 0
M  V30 5598 C 511.229 3.75237 3.6331 0
M  V30 5599 H 512.923 2.3351 1.87386 0
M  V30 5600 H 510.469 1.12399 0.900134 0
M  V30 5601 H 512.422 1.21124 4.03617 0
M  V30 5602 H 511.146 0.243241 3.25693 0
M  V30 5603 H 509.805 2.33226 2.82845 0
M  V30 5604 H 509.453 1.01678 4.92616 0
M  V30 5605 H 509.153 2.75267 5.19136 0
M  V30 5606 H 510.677 2.01638 5.76346 0
M  V30 5607 H 512.091 3.76966 4.31937 0
M  V30 5608 H 510.488 4.48677 3.98509 0
M  V30 5609 H 511.558 4.07122 2.634 0
M  V30 5610 N 512.901 -0.976442 1.23707 0
M  V30 5611 C 514.126 -1.75875 1.09922 0
M  V30 5612 C 514.551 -1.84911 -0.34489 0
M  V30 5613 O 513.909 -1.31363 -1.24954 0
M  V30 5614 C 513.957 -3.16179 1.73388 0
M  V30 5615 O 513.061 -4.00124 0.99871 0
M  V30 5616 H 512.402 -0.540954 0.385052 0
M  V30 5617 H 514.932 -1.22546 1.6384 0
M  V30 5618 H 514.942 -3.66741 1.78788 0
M  V30 5619 H 513.617 -3.08917 2.78466 0
M  V30 5620 H 512.194 -3.58624 1.02193 0
M  V30 5621 N 514.379 -1.04941 -1.1758 0
M  V30 5622 C 515.627 -0.756492 -1.87408 0
M  V30 5623 C 515.948 0.718478 -1.81281 0
M  V30 5624 O 515.218 1.519 -1.23706 0
M  V30 5625 H 513.798 -0.276841 -0.693807 0
M  V30 5626 H 516.46 -1.32803 -1.42652 0
M  V30 5627 H 515.556 -1.06918 -2.93215 0
M  V30 5628 N 515.857 1.33968 -0.830081 0
M  V30 5629 C 517.085 2.0228 -0.434773 0
M  V30 5630 C 517.5 1.62487 0.961419 0
M  V30 5631 O 516.857 0.833849 1.62337 0
M  V30 5632 C 516.908 3.5751 -0.535625 0
M  V30 5633 O 516.629 3.95864 -1.87679 0
M  V30 5634 C 518.13 4.43091 -0.136137 0
M  V30 5635 H 515.35 0.648151 -0.173613 0
M  V30 5636 H 517.894 1.71089 -1.12022 0
M  V30 5637 H 516.049 3.87266 0.101817 0
M  V30 5638 H 516.463 4.9056 -1.85609 0
M  V30 5639 H 517.937 5.51398 -0.257772 0
M  V30 5640 H 518.414 4.29433 0.921076 0
M  V30 5641 H 519.02 4.18677 -0.747662 0
M  V30 5642 N 517.335 0.585699 1.46312 0
M  V30 5643 C 518.746 0.159938 1.86014 0
M  V30 5644 C 519.097 -1.27775 1.48889 0
M  V30 5645 O 518.222 -1.96559 0.90519 0
M  V30 5646 C 518.817 0.283485 3.37612 0
M  V30 5647 C 517.376 -0.0874256 3.76298 0
M  V30 5648 C 516.523 0.618055 2.70325 0
M  V30 5649 H 519.474 0.793737 1.37425 0
M  V30 5650 H 519.495 -0.490348 3.77327 0
M  V30 5651 H 519.007 1.32995 3.64601 0
M  V30 5652 H 517.108 -1.13391 3.54927 0
M  V30 5653 H 517.221 0.290975 4.78216 0
M  V30 5654 H 515.585 0.057993 2.54634 0
M  V30 5655 H 516.368 1.66623 3.00153 0
M  V30 5656 N 518.813 -1.54241 0.323641 0
M  V30 5657 C 520.062 -1.9975 -0.279806 0
M  V30 5658 C 520.375 -1.2156 -1.5324 0
M  V30 5659 O 521.581 -1.57447 -2.21185 0
M  V30 5660 C 520.037 -3.55686 -0.549115 0
M  V30 5661 C 519.645 -4.4271 0.686432 0
M  V30 5662 C 521.389 -4.09663 -1.11251 0
M  V30 5663 C 519.296 -5.90119 0.389022 0
M  V30 5664 H 518.226 -0.746177 -0.10833 0
M  V30 5665 H 520.877 -1.78248 0.435877 0
M  V30 5666 H 519.259 -3.73176 -1.32499 0
M  V30 5667 H 520.433 -4.36996 1.46188 0
M  V30 5668 H 518.748 -3.99623 1.17005 0
M  V30 5669 H 521.345 -5.17386 -1.34965 0
M  V30 5670 H 521.688 -3.61651 -2.06191 0
M  V30 5671 H 522.221 -3.95806 -0.39782 0
M  V30 5672 H 518.96 -6.42326 1.30759 0
M  V30 5673 H 518.48 -5.98785 -0.348722 0
M  V30 5674 H 520.159 -6.47 -0.0011164 0
M  V30 5675 N 520.291 -0.0518155 -1.57515 0
M  V30 5676 C 521.516 0.634896 -1.97443 0
M  V30 5677 C 521.941 1.63546 -0.929207 0
M  V30 5678 O 521.299 1.80981 0.107484 0
M  V30 5679 C 521.347 1.29765 -3.36442 0
M  V30 5680 O 520.451 2.41333 -3.34413 0
M  V30 5681 H 519.792 0.164994 -0.643174 0
M  V30 5682 H 522.322 -0.120407 -2.04245 0
M  V30 5683 H 522.332 1.64918 -3.73184 0
M  V30 5684 H 521.007 0.564361 -4.12053 0
M  V30 5685 H 519.584 2.08122 -3.09418 0
M  V30 5686 N 521.769 1.56035 0.221574 0
M  V30 5687 C 523.016 1.79047 0.94597 0
M  V30 5688 C 523.344 0.62057 1.84334 0
M  V30 5689 O 522.599 -0.395053 1.91671 0
M  V30 5690 C 522.898 3.07813 1.8162 0
M  V30 5691 C 522.564 4.3797 1.07206 0
M  V30 5692 C 521.226 4.73334 0.866508 0
M  V30 5693 C 523.578 5.18326 0.546565 0
M  V30 5694 C 520.906 5.8657 0.123549 0
M  V30 5695 C 523.258 6.32335 -0.18305 0
M  V30 5696 C 521.922 6.66301 -0.399861 0
M  V30 5697 H 521.192 0.655178 0.346155 0
M  V30 5698 H 523.839 1.90299 0.214146 0
M  V30 5699 H 522.144 2.91682 2.61589 0
M  V30 5700 H 523.841 3.2282 2.37884 0
M  V30 5701 H 520.431 4.10202 1.24226 0
M  V30 5702 H 524.615 4.9144 0.692847 0
M  V30 5703 H 519.871 6.11376 -0.0546591 0
M  V30 5704 H 524.045 6.9383 -0.59775 0
M  V30 5705 H 521.672 7.53889 -0.977489 0
M  V30 5706 N 523.247 -0.488276 1.49845 0
M  V30 5707 C 524.496 -1.23826 1.59217 0
M  V30 5708 C 524.809 -1.93439 0.289966 0
M  V30 5709 O 526.015 -2.70229 0.262382 0
M  V30 5710 C 524.471 -2.24902 2.80976 0
M  V30 5711 C 524.079 -1.6117 4.18005 0
M  V30 5712 C 525.823 -3.00648 2.99685 0
M  V30 5713 C 523.73 -2.60431 5.3097 0
M  V30 5714 H 522.66 -0.465858 0.592868 0
M  V30 5715 H 525.311 -0.510645 1.76252 0
M  V30 5716 H 523.693 -3.0088 2.57463 0
M  V30 5717 H 524.867 -0.910968 4.51706 0
M  V30 5718 H 523.182 -0.97767 4.0476 0
M  V30 5719 H 525.779 -3.74903 3.81251 0
M  V30 5720 H 526.122 -3.5902 2.10738 0
M  V30 5721 H 526.655 -2.31784 3.23297 0
M  V30 5722 H 523.394 -2.06823 6.22017 0
M  V30 5723 H 522.914 -3.28707 5.01709 0
M  V30 5724 H 524.593 -3.22606 5.60834 0
M  V30 5725 N 524.725 -1.39134 -0.740242 0
M  V30 5726 C 525.655 -1.40165 -1.86751 0
M  V30 5727 C 526.636 -0.265708 -1.68012 0
M  V30 5728 O 527.821 -0.47076 -1.88408 0
M  V30 5729 C 524.951 -1.2392 -3.2444 0
M  V30 5730 C 523.905 -2.34858 -3.57807 0
M  V30 5731 C 523.231 -2.03707 -4.94376 0
M  V30 5732 C 524.531 -3.77159 -3.61315 0
M  V30 5733 H 526.225 -2.345 -1.86145 0
M  V30 5734 H 523.771 -1.12875 -0.89416 0
M  V30 5735 H 525.724 -1.23263 -4.02969 0
M  V30 5736 H 524.448 -0.26051 -3.25559 0
M  V30 5737 H 523.107 -2.34723 -2.81604 0
M  V30 5738 H 522.755 -1.04289 -4.9207 0
M  V30 5739 H 522.455 -2.78016 -5.17669 0
M  V30 5740 H 523.979 -2.04691 -5.75268 0
M  V30 5741 H 525.393 -3.79252 -4.29931 0
M  V30 5742 H 523.79 -4.50784 -3.96124 0
M  V30 5743 H 524.86 -4.08513 -2.61238 0
M  V30 5744 N 526.204 0.969867 -1.24223 0
M  V30 5745 C 527.134 2.08191 -1.05729 0
M  V30 5746 C 528.115 1.70075 0.0290765 0
M  V30 5747 O 529.3 1.93712 -0.137583 0
M  V30 5748 C 526.43 3.40991 -0.658995 0
M  V30 5749 C 525.384 3.93054 -1.69389 0
M  V30 5750 C 524.71 5.22171 -1.15072 0
M  V30 5751 C 526.01 4.21137 -3.08935 0
M  V30 5752 H 527.704 2.23921 -1.98746 0
M  V30 5753 H 525.25 1.07602 -0.956967 0
M  V30 5754 H 527.203 4.18221 -0.51662 0
M  V30 5755 H 525.927 3.25155 0.30686 0
M  V30 5756 H 524.586 3.17977 -1.82444 0
M  V30 5757 H 524.234 5.02694 -0.175539 0
M  V30 5758 H 523.934 5.57973 -1.84229 0
M  V30 5759 H 525.458 6.02013 -1.02042 0
M  V30 5760 H 526.872 4.8908 -2.99121 0
M  V30 5761 H 525.269 4.68163 -3.75425 0
M  V30 5762 H 526.339 3.27996 -3.57137 0
M  V30 5763 N 527.682 1.05563 1.17022 0
M  V30 5764 C 528.612 0.681026 2.23348 0
M  V30 5765 C 529.593 -0.322983 1.67005 0
M  V30 5766 O 530.778 -0.199746 1.9317 0
M  V30 5767 C 527.908 0.0589053 3.4725 0
M  V30 5768 C 526.862 0.988082 4.16438 0
M  V30 5769 C 526.188 0.229646 5.34207 0
M  V30 5770 C 527.488 2.31388 4.68249 0
M  V30 5771 H 529.182 1.56993 2.54938 0
M  V30 5772 H 526.728 0.756302 1.2254 0
M  V30 5773 H 528.681 -0.214982 4.20851 0
M  V30 5774 H 527.405 -0.864968 3.14938 0
M  V30 5775 H 526.064 1.24659 3.44754 0
M  V30 5776 H 525.712 -0.697111 4.98146 0
M  V30 5777 H 525.412 0.848815 5.81437 0
M  V30 5778 H 526.936 -0.0368694 6.10589 0
M  V30 5779 H 528.35 2.09964 5.33468 0
M  V30 5780 H 526.747 2.88736 5.26072 0
M  V30 5781 H 527.817 2.94982 3.84855 0
M  V30 5782 N 529.16 -1.33526 0.837174 0
M  V30 5783 C 530.385 -2.0258 0.444545 0
M  V30 5784 C 530.81 -1.6258 -0.946006 0
M  V30 5785 O 530.168 -0.817548 -1.6182 0
M  V30 5786 C 530.216 -3.5605 0.571006 0
M  V30 5787 O 529.32 -4.10422 -0.403431 0
M  V30 5788 H 528.661 -0.638866 0.180958 0
M  V30 5789 H 531.191 -1.70462 1.13154 0
M  V30 5790 H 531.201 -4.05488 0.452024 0
M  V30 5791 H 529.876 -3.84509 1.58512 0
M  V30 5792 H 528.453 -3.72113 -0.242147 0
M  V30 5793 N 530.638 -0.59345 -1.46 0
M  V30 5794 C 531.868 -0.0889642 -2.06408 0
M  V30 5795 C 532.276 1.22597 -1.44106 0
M  V30 5796 O 531.619 1.75448 -0.544398 0
M  V30 5797 C 531.681 0.139902 -3.59228 0
M  V30 5798 C 531.345 -1.09107 -4.43784 0
M  V30 5799 C 532.342 -2.00577 -4.79651 0
M  V30 5800 C 530.027 -1.31593 -4.84756 0
M  V30 5801 C 532.021 -3.12873 -5.55328 0
M  V30 5802 C 529.708 -2.44192 -5.60191 0
M  V30 5803 C 530.706 -3.34661 -5.95392 0
M  V30 5804 O 530.394 -4.45302 -6.69299 0
M  V30 5805 H 530.126 -0.0594613 -0.67338 0
M  V30 5806 H 532.68 -0.817 -1.88452 0
M  V30 5807 H 530.91 0.922672 -3.75531 0
M  V30 5808 H 532.599 0.594228 -4.01527 0
M  V30 5809 H 533.365 -1.84425 -4.48567 0
M  V30 5810 H 529.244 -0.620801 -4.56801 0
M  V30 5811 H 532.788 -3.83511 -5.82722 0
M  V30 5812 H 528.685 -2.60303 -5.90688 0
M  V30 5813 H 529.453 -4.43805 -6.87735 0
M  V30 5814 N 532.116 1.54067 -0.331816 0
M  V30 5815 C 533.344 2.05131 0.269996 0
M  V30 5816 C 533.759 1.20749 1.45138 0
M  V30 5817 O 533.116 0.240069 1.80914 0
M  V30 5818 C 533.167 3.54728 0.696456 0
M  V30 5819 O 532.888 4.35906 -0.43794 0
M  V30 5820 C 534.389 4.21916 1.36021 0
M  V30 5821 H 531.609 0.668807 0.0542042 0
M  V30 5822 H 534.153 1.98777 -0.4804 0
M  V30 5823 H 532.308 3.61342 1.39681 0
M  V30 5824 H 532.722 5.24404 -0.100334 0
M  V30 5825 H 534.196 5.28015 1.60947 0
M  V30 5826 H 534.673 3.73538 2.31011 0
M  V30 5827 H 535.279 4.19463 0.702212 0
M  V30 5828 N 533.594 0.0601682 1.57485 0
M  V30 5829 C 534.819 -0.624416 1.97777 0
M  V30 5830 C 535.244 -1.63051 0.937867 0
M  V30 5831 O 534.602 -1.81036 -0.0978845 0
M  V30 5832 C 534.65 -1.27979 3.37126 0
M  V30 5833 O 533.754 -2.39556 3.35688 0
M  V30 5834 H 533.095 -0.161581 0.64404 0
M  V30 5835 H 535.625 0.131237 2.04179 0
M  V30 5836 H 535.635 -1.62937 3.74053 0
M  V30 5837 H 534.31 -0.542501 4.12347 0
M  V30 5838 H 532.887 -2.06478 3.10517 0
M  V30 5839 N 535.072 -1.5615 -0.213296 0
M  V30 5840 C 536.297 -1.83986 -0.957282 0
M  V30 5841 C 536.722 -0.641526 -1.76822 0
M  V30 5842 O 536.08 0.409722 -1.7661 0
M  V30 5843 C 536.128 -3.09889 -1.84393 0
M  V30 5844 O 535.232 -2.89163 -2.94038 0
M  V30 5845 H 534.573 -0.606357 -0.270605 0
M  V30 5846 H 537.103 -2.03369 -0.224111 0
M  V30 5847 H 537.113 -3.40209 -2.25215 0
M  V30 5848 H 535.788 -3.96735 -1.24795 0
M  V30 5849 H 534.365 -2.70097 -2.57103 0
M  V30 5850 N 536.55 0.480323 -1.50102 0
M  V30 5851 C 537.79 1.24301 -1.62261 0
M  V30 5852 C 538.154 1.89452 -0.311758 0
M  V30 5853 O 539.355 2.67022 -0.308696 0
M  V30 5854 C 537.626 2.26588 -2.76392 0
M  V30 5855 S 539.185 3.11919 -3.08629 0
M  V30 5856 H 536.003 0.42215 -0.57211 0
M  V30 5857 H 538.605 0.541591 -1.87848 0
M  V30 5858 H 537.309 1.7729 -3.70131 0
M  V30 5859 H 536.84 3.01371 -2.52862 0
M  V30 5860 H 538.855 4.27598 -2.51742 0
M  V30 5861 N 538.028 1.39524 0.732853 0
M  V30 5862 C 539.274 1.37068 1.49467 0
M  V30 5863 C 539.607 -0.0327166 1.94172 0
M  V30 5864 O 538.882 -0.998071 1.66939 0
M  V30 5865 C 539.165 2.34494 2.73285 0
M  V30 5866 C 539.018 3.83784 2.34585 0
M  V30 5867 C 540.337 2.29717 3.75391 0
M  V30 5868 H 537.456 0.499206 0.542183 0
M  V30 5869 H 540.098 1.70532 0.837783 0
M  V30 5870 H 538.248 2.06087 3.29333 0
M  V30 5871 H 539.92 4.22949 1.84151 0
M  V30 5872 H 538.163 4.00455 1.66787 0
M  V30 5873 H 538.834 4.47444 3.23262 0
M  V30 5874 H 541.31 2.54839 3.28932 0
M  V30 5875 H 540.186 2.99962 4.59689 0
M  V30 5876 H 540.447 1.30291 4.22465 0
M  V30 5877 N 539.506 -0.963266 1.24736 0
M  V30 5878 C 540.454 -2.07985 1.04139 0
M  V30 5879 C 541.448 -1.69381 -0.0250556 0
M  V30 5880 O 542.654 -1.79531 0.129863 0
M  V30 5881 H 539.029 -0.680627 0.319768 0
M  V30 5882 H 541 -2.22517 1.98818 0
M  V30 5883 C 539.749 -3.4123 0.667615 0
M  V30 5884 H 539.072 -3.71397 1.48 0
M  V30 5885 H 540.512 -4.20244 0.563136 0
M  V30 5886 C 538.971 -3.3104 -0.625647 0
M  V30 5887 O 539.501 -3.65334 -1.67016 0
M  V30 5888 N 537.707 -2.84168 -0.608033 0
M  V30 5889 H 537.254 -2.56458 0.242323 0
M  V30 5890 H 537.212 -2.77732 -1.47352 0
M  V30 5891 N 540.985 -1.06182 -1.16461 0
M  V30 5892 C 542.396 -0.802426 -1.68576 0
M  V30 5893 C 542.747 0.67412 -1.84255 0
M  V30 5894 O 541.872 1.52303 -1.5373 0
M  V30 5895 C 542.467 -1.45002 -3.06202 0
M  V30 5896 C 541.026 -1.23843 -3.55443 0
M  V30 5897 C 540.173 -1.52724 -2.31454 0
M  V30 5898 H 543.124 -1.22545 -1.00839 0
M  V30 5899 H 543.145 -0.864731 -3.70544 0
M  V30 5900 H 542.657 -2.52466 -2.94759 0
M  V30 5901 H 540.758 -0.183487 -3.72148 0
M  V30 5902 H 540.871 -1.95036 -4.37604 0
M  V30 5903 H 539.235 -0.947726 -2.36411 0
M  V30 5904 H 540.018 -2.61343 -2.22609 0
M  V30 5905 N 542.463 1.3308 -0.844243 0
M  V30 5906 C 543.712 1.96868 -0.438833 0
M  V30 5907 C 544.025 1.67599 1.00846 0
M  V30 5908 O 545.231 2.25043 1.51881 0
M  V30 5909 C 543.687 3.5234 -0.73377 0
M  V30 5910 C 543.295 3.90481 -2.1961 0
M  V30 5911 C 545.039 4.22653 -0.395574 0
M  V30 5912 C 542.946 5.38954 -2.43481 0
M  V30 5913 H 541.876 0.736749 -0.160364 0
M  V30 5914 H 544.527 1.51623 -1.03358 0
M  V30 5915 H 542.909 3.95941 -0.068589 0
M  V30 5916 H 544.083 3.57922 -2.90221 0
M  V30 5917 H 542.398 3.33165 -2.4978 0
M  V30 5918 H 544.995 5.31848 -0.551477 0
M  V30 5919 H 545.338 4.11004 0.661921 0
M  V30 5920 H 545.871 3.84601 -1.01621 0
M  V30 5921 H 542.61 5.55612 -3.47816 0
M  V30 5922 H 542.13 5.72954 -1.77437 0
M  V30 5923 H 543.809 6.05907 -2.26905 0
M  V30 5924 N 543.941 0.601185 1.45683 0
M  V30 5925 C 545.19 0.0914953 2.01492 0
M  V30 5926 C 545.503 -1.28331 1.47616 0
M  V30 5927 O 546.709 -1.88537 1.95362 0
M  V30 5928 C 545.165 0.11291 3.59723 0
M  V30 5929 C 544.773 1.48717 4.22596 0
M  V30 5930 C 546.517 -0.341871 4.23121 0
M  V30 5931 C 544.424 1.46531 5.7296 0
M  V30 5932 H 543.354 0.0304365 0.753385 0
M  V30 5933 H 546.005 0.755568 1.67223 0
M  V30 5934 H 544.387 -0.617692 3.91153 0
M  V30 5935 H 545.561 2.23897 4.02749 0
M  V30 5936 H 543.876 1.88351 3.71366 0
M  V30 5937 H 546.473 -0.377304 5.33367 0
M  V30 5938 H 546.816 -1.36325 3.93346 0
M  V30 5939 H 547.349 0.335256 3.96385 0
M  V30 5940 H 544.088 2.46408 6.07423 0
M  V30 5941 H 543.608 0.755997 5.95017 0
M  V30 5942 H 545.287 1.18618 6.36034 0
M  V30 5943 N 545.419 -1.53889 0.339982 0
M  V30 5944 C 546.649 -2.04973 -0.258738 0
M  V30 5945 C 547.057 -1.21485 -1.45045 0
M  V30 5946 O 546.4 -0.2422 -1.82096 0
M  V30 5947 C 546.462 -3.51783 -0.740853 0
M  V30 5948 C 546.126 -4.55802 0.330734 0
M  V30 5949 C 547.123 -5.06512 1.17226 0
M  V30 5950 C 544.808 -4.99966 0.483637 0
M  V30 5951 C 546.802 -5.99963 2.15227 0
M  V30 5952 C 544.489 -5.93229 1.46704 0
M  V30 5953 C 545.487 -6.43115 2.29981 0
M  V30 5954 O 545.175 -7.34545 3.26649 0
M  V30 5955 H 544.907 -0.673807 -0.0544037 0
M  V30 5956 H 547.461 -1.99492 0.489107 0
M  V30 5957 H 545.691 -3.54717 -1.53988 0
M  V30 5958 H 547.38 -3.85857 -1.25973 0
M  V30 5959 H 548.146 -4.73158 1.0652 0
M  V30 5960 H 544.025 -4.6074 -0.15471 0
M  V30 5961 H 547.569 -6.38825 2.80265 0
M  V30 5962 H 543.466 -6.25998 1.57468 0
M  V30 5963 H 544.234 -7.52468 3.22078 0
M  V30 5964 N 546.897 -0.0685191 -1.57451 0
M  V30 5965 C 548.137 0.605038 -1.9524 0
M  V30 5966 C 548.501 1.66974 -0.947816 0
M  V30 5967 O 549.702 2.39862 -1.21325 0
M  V30 5968 C 547.973 1.16999 -3.37707 0
M  V30 5969 S 549.532 1.85913 -3.97469 0
M  V30 5970 H 546.35 0.198203 -0.682815 0
M  V30 5971 H 548.952 -0.141594 -1.94987 0
M  V30 5972 H 547.656 0.383205 -4.08607 0
M  V30 5973 H 547.187 1.95305 -3.41496 0
M  V30 5974 H 549.202 3.14128 -3.84107 0
M  V30 5975 N 548.375 1.56261 0.205012 0
M  V30 5976 C 549.622 1.8004 0.926927 0
M  V30 5977 C 549.95 0.640086 1.83666 0
M  V30 5978 O 549.205 -0.374702 1.92079 0
M  V30 5979 C 549.504 3.09722 1.78345 0
M  V30 5980 C 549.17 4.39082 1.02555 0
M  V30 5981 C 547.832 4.74226 0.816256 0
M  V30 5982 C 550.184 5.18877 0.491559 0
M  V30 5983 C 547.512 5.86668 0.0613287 0
M  V30 5984 C 549.864 6.32105 -0.250107 0
M  V30 5985 C 548.528 6.6584 -0.470508 0
M  V30 5986 H 547.798 0.658812 0.339187 0
M  V30 5987 H 550.445 1.90515 0.19395 0
M  V30 5988 H 548.75 2.9444 2.5848 0
M  V30 5989 H 550.447 3.25324 2.34446 0
M  V30 5990 H 547.037 4.11497 1.19868 0
M  V30 5991 H 551.221 4.92147 0.640684 0
M  V30 5992 H 546.477 6.11283 -0.119501 0
M  V30 5993 H 550.651 6.93157 -0.671307 0
M  V30 5994 H 548.278 7.5281 -1.05739 0
M  V30 5995 N 549.853 -0.472356 1.50355 0
M  V30 5996 C 550.786 -1.58923 1.63764 0
M  V30 5997 C 551.764 -1.55173 0.485793 0
M  V30 5998 O 552.948 -1.74815 0.705132 0
M  V30 5999 C 550.075 -2.97497 1.61905 0
M  V30 6000 C 549.121 -3.19405 2.82635 0
M  V30 6001 S 549.954 -2.99441 4.43954 0
M  V30 6002 C 551.11 -4.40359 4.44786 0
M  V30 6003 H 551.343 -1.47309 2.58239 0
M  V30 6004 H 548.876 -0.659601 1.39602 0
M  V30 6005 H 550.834 -3.77389 1.61518 0
M  V30 6006 H 549.495 -3.06502 0.686683 0
M  V30 6007 H 548.688 -4.20636 2.77636 0
M  V30 6008 H 548.29 -2.47283 2.80583 0
M  V30 6009 H 550.582 -5.32969 4.1827 0
M  V30 6010 H 551.525 -4.50403 5.46391 0
M  V30 6011 H 551.933 -4.22378 3.74509 0
M  V30 6012 N 551.331 -1.39911 -0.725443 0
M  V30 6013 C 552.279 -1.39552 -1.86086 0
M  V30 6014 C 553.273 -0.277334 -1.67114 0
M  V30 6015 O 554.479 -0.447865 -1.74339 0
M  V30 6016 H 550.854 -0.435993 -0.612711 0
M  V30 6017 H 552.825 -2.35305 -1.83505 0
M  V30 6018 C 551.574 -1.26529 -3.2386 0
M  V30 6019 H 550.897 -2.11845 -3.3906 0
M  V30 6020 H 552.337 -1.30336 -4.03471 0
M  V30 6021 C 550.796 0.0254168 -3.3689 0
M  V30 6022 O 551.326 0.992048 -3.89257 0
M  V30 6023 N 549.532 0.0916528 -2.90455 0
M  V30 6024 H 549.079 -0.695675 -2.48028 0
M  V30 6025 H 549.037 0.954745 -2.99553 0
M  V30 6026 N 552.809 0.956637 -1.25245 0
M  V30 6027 C 553.756 2.053 -1.05454 0
M  V30 6028 C 554.726 1.66062 0.0356889 0
M  V30 6029 O 555.911 1.90415 -0.121099 0
M  V30 6030 C 553.051 3.38391 -0.677191 0
M  V30 6031 C 552.164 3.90758 -1.84206 0
M  V30 6032 C 551.299 5.12165 -1.40926 0
M  V30 6033 C 550.338 5.56757 -2.54338 0
M  V30 6034 N 549.475 6.69376 -2.11848 0
M  V30 6035 H 554.315 2.21562 -1.99284 0
M  V30 6036 H 551.852 1.08578 -0.992434 0
M  V30 6037 H 553.81 4.1488 -0.43938 0
M  V30 6038 H 552.44 3.22021 0.224127 0
M  V30 6039 H 551.492 3.10808 -2.19323 0
M  V30 6040 H 552.804 4.19802 -2.69383 0
M  V30 6041 H 551.958 5.96065 -1.13098 0
M  V30 6042 H 550.697 4.84832 -0.528175 0
M  V30 6043 H 549.702 4.71423 -2.82913 0
M  V30 6044 H 550.927 5.861 -3.43022 0
M  V30 6045 H 548.873 6.43756 -1.26153 0
M  V30 6046 H 548.79 6.97927 -2.90574 0
M  V30 6047 H 550.058 7.5669 -1.87191 0
M  V30 6048 N 554.287 1.06798 1.15896 0
M  V30 6049 C 555.703 0.792423 1.38538 0
M  V30 6050 C 555.903 -0.60592 1.92174 0
M  V30 6051 O 554.959 -1.36561 2.12385 0
M  V30 6052 C 556.272 1.86157 2.36149 0
M  V30 6053 C 557.82 1.88567 2.49823 0
M  V30 6054 C 558.295 2.9455 3.5072 0
M  V30 6055 N 559.786 2.93616 3.58251 0
M  V30 6056 C 560.521 3.72267 4.36125 0
M  V30 6057 N 560.017 4.60751 5.17379 0
M  V30 6058 N 561.81 3.60637 4.31158 0
M  V30 6059 H 553.961 1.96993 0.794198 0
M  V30 6060 H 556.224 0.853942 0.411688 0
M  V30 6061 H 555.93 2.86603 2.03843 0
M  V30 6062 H 555.804 1.71692 3.3586 0
M  V30 6063 H 558.191 0.887765 2.8143 0
M  V30 6064 H 558.272 2.0711 1.5013 0
M  V30 6065 H 557.916 3.94537 3.19849 0
M  V30 6066 H 557.846 2.73255 4.50155 0
M  V30 6067 H 560.337 2.29472 3.00252 0
M  V30 6068 H 560.65 5.17408 5.74028 0
M  V30 6069 H 558.995 4.64803 5.16704 0
M  V30 6070 H 562.186 2.90892 3.66742 0
M  V30 6071 H 562.359 4.22176 4.91601 0
M  V30 6072 N 555.766 -1.3263 0.851289 0
M  V30 6073 C 557.013 -1.97368 0.453023 0
M  V30 6074 C 557.341 -1.67384 -0.990596 0
M  V30 6075 O 556.596 -0.952665 -1.70947 0
M  V30 6076 C 556.895 -3.51713 0.635015 0
M  V30 6077 C 556.561 -4.01676 2.04859 0
M  V30 6078 C 555.223 -4.15031 2.43522 0
M  V30 6079 C 557.575 -4.28206 2.97135 0
M  V30 6080 C 554.903 -4.52257 3.73739 0
M  V30 6081 C 557.255 -4.66889 4.26846 0
M  V30 6082 C 555.919 -4.7845 4.65448 0
M  V30 6083 H 555.189 -0.722219 0.165773 0
M  V30 6084 H 557.836 -1.58092 1.0807 0
M  V30 6085 H 556.141 -3.91726 -0.0759081 0
M  V30 6086 H 557.838 -3.99823 0.306964 0
M  V30 6087 H 554.428 -3.91764 1.73836 0
M  V30 6088 H 558.612 -4.174 2.68498 0
M  V30 6089 H 553.868 -4.59402 4.03435 0
M  V30 6090 H 558.042 -4.86372 4.98413 0
M  V30 6091 H 555.669 -5.07052 5.66395 0
M  V30 6092 N 557.244 -0.608902 -1.45362 0
M  V30 6093 C 558.66 -0.272659 -1.57254 0
M  V30 6094 C 558.86 1.22477 -1.60005 0
M  V30 6095 O 557.916 2.00785 -1.53106 0
M  V30 6096 C 559.229 -0.944991 -2.85465 0
M  V30 6097 C 560.777 -0.921033 -2.99142 0
M  V30 6098 C 561.252 -1.5734 -4.30126 0
M  V30 6099 N 562.743 -1.53895 -4.36887 0
M  V30 6100 C 563.478 -2.01286 -5.36909 0
M  V30 6101 N 562.974 -2.56768 -6.43461 0
M  V30 6102 N 564.767 -1.92046 -5.28275 0
M  V30 6103 H 556.918 -1.58117 -1.4182 0
M  V30 6104 H 559.181 -0.662437 -0.678146 0
M  V30 6105 H 558.887 -1.99941 -2.89338 0
M  V30 6106 H 558.761 -0.469079 -3.74272 0
M  V30 6107 H 561.148 0.124846 -2.94836 0
M  V30 6108 H 561.229 -1.43522 -2.11743 0
M  V30 6109 H 560.873 -2.61862 -4.35191 0
M  V30 6110 H 560.803 -1.03422 -5.16344 0
M  V30 6111 H 563.294 -1.13366 -3.60495 0
M  V30 6112 H 563.607 -2.9072 -7.16032 0
M  V30 6113 H 561.952 -2.60808 -6.44208 0
M  V30 6114 H 565.143 -1.48439 -4.43941 0
M  V30 6115 H 565.316 -2.29293 -6.06077 0
M  V30 6116 N 558.722 1.53707 -0.348139 0
M  V30 6117 C 559.652 2.28111 0.498766 0
M  V30 6118 C 560.633 1.29851 1.09876 0
M  V30 6119 O 561.818 1.587 1.11928 0
M  V30 6120 C 558.948 3.05735 1.64753 0
M  V30 6121 C 557.902 4.11537 1.17565 0
M  V30 6122 C 557.228 4.77142 2.4133 0
M  V30 6123 C 558.528 5.21587 0.272844 0
M  V30 6124 H 560.222 2.99152 -0.121934 0
M  V30 6125 H 557.768 1.43875 -0.0600842 0
M  V30 6126 H 559.721 3.56526 2.24649 0
M  V30 6127 H 558.445 2.32354 2.2952 0
M  V30 6128 H 557.104 3.61665 0.599483 0
M  V30 6129 H 556.752 4.0035 3.04514 0
M  V30 6130 H 556.452 5.48626 2.10436 0
M  V30 6131 H 557.976 5.30719 3.01943 0
M  V30 6132 H 559.39 5.67986 0.778779 0
M  V30 6133 H 557.787 6.00074 0.0555849 0
M  V30 6134 H 558.857 4.79969 -0.689785 0
M  V30 6135 N 560.2 0.0768682 1.57412 0
M  V30 6136 C 561.448 -0.589918 1.93299 0
M  V30 6137 C 561.769 -1.69842 0.958049 0
M  V30 6138 O 561.039 -1.95899 0.00703261 0
M  V30 6139 H 559.619 -0.220901 0.713591 0
M  V30 6140 H 562.281 0.135917 1.94425 0
M  V30 6141 H 561.377 -1.01195 2.95239 0
M  V30 6142 N 561.678 -1.56367 -0.196722 0
M  V30 6143 C 562.925 -1.80529 -0.917366 0
M  V30 6144 C 563.253 -0.649817 -1.83324 0
M  V30 6145 O 562.508 0.36451 -1.92275 0
M  V30 6146 C 562.807 -3.10663 -1.767 0
M  V30 6147 C 562.473 -4.3962 -1.00225 0
M  V30 6148 C 561.135 -4.74653 -0.791095 0
M  V30 6149 C 563.487 -5.1913 -0.464035 0
M  V30 6150 C 560.815 -5.86692 -0.0302155 0
M  V30 6151 C 563.167 -6.31964 0.283625 0
M  V30 6152 C 561.831 -6.65581 0.505813 0
M  V30 6153 H 561.101 -0.660602 -0.335688 0
M  V30 6154 H 563.748 -1.90615 -0.183844 0
M  V30 6155 H 562.053 -2.95807 -2.56915 0
M  V30 6156 H 563.75 -3.26563 -2.32718 0
M  V30 6157 H 560.34 -4.12127 -1.17684 0
M  V30 6158 H 564.524 -4.9248 -0.614575 0
M  V30 6159 H 559.78 -6.11211 0.151917 0
M  V30 6160 H 563.954 -6.92791 0.708057 0
M  V30 6161 H 561.581 -7.52239 1.0973 0
M  V30 6162 N 563.156 0.464375 -1.50603 0
M  V30 6163 C 564.089 1.58052 -1.64605 0
M  V30 6164 C 565.067 1.54914 -0.494016 0
M  V30 6165 O 566.251 1.74438 -0.714393 0
M  V30 6166 C 563.378 2.96634 -1.63481 0
M  V30 6167 C 562.424 3.17901 -2.84325 0
M  V30 6168 S 563.257 2.97083 -4.45536 0
M  V30 6169 C 564.413 4.37994 -4.47115 0
M  V30 6170 H 564.646 1.45937 -2.59017 0
M  V30 6171 H 562.179 0.652189 -1.39949 0
M  V30 6172 H 564.137 3.76527 -1.63517 0
M  V30 6173 H 562.798 3.06134 -0.702928 0
M  V30 6174 H 561.991 4.19158 -2.79862 0
M  V30 6175 H 561.593 2.45792 -2.81891 0
M  V30 6176 H 563.885 5.30743 -4.21091 0
M  V30 6177 H 564.828 4.47499 -5.48772 0
M  V30 6178 H 565.236 4.20386 -3.76743 0
M  V30 6179 N 564.634 1.40294 0.718013 0
M  V30 6180 C 565.597 1.4012 1.81381 0
M  V30 6181 C 566.597 0.295405 1.58063 0
M  V30 6182 O 567.787 0.554187 1.6515 0
M  V30 6183 C 564.919 1.19056 3.19435 0
M  V30 6184 H 566.112 2.37645 1.82933 0
M  V30 6185 H 563.665 1.26107 0.923405 0
M  V30 6186 H 564.4 0.222809 3.23534 0
M  V30 6187 H 564.185 1.99152 3.37758 0
M  V30 6188 H 565.675 1.21716 3.99468 0
M  V30 6189 N 566.112 -0.949982 1.2575 0
M  V30 6190 C 567.34 -1.72972 1.13527 0
M  V30 6191 C 567.755 -1.8623 -0.310453 0
M  V30 6192 O 567.112 -1.36336 -1.2132 0
M  V30 6193 C 567.163 -3.14108 1.78936 0
M  V30 6194 O 566.884 -3.01493 3.17858 0
M  V30 6195 C 568.385 -4.08338 1.72554 0
M  V30 6196 H 565.605 -0.541864 0.395758 0
M  V30 6197 H 568.149 -1.19151 1.66202 0
M  V30 6198 H 566.304 -3.64858 1.30221 0
M  V30 6199 H 566.718 -3.90559 3.50092 0
M  V30 6200 H 568.192 -5.04963 2.22973 0
M  V30 6201 H 568.669 -4.33742 0.690251 0
M  V30 6202 H 569.275 -3.63506 2.2078 0
M  V30 6203 N 567.59 -1.07411 -1.15328 0
M  V30 6204 C 568.837 -0.797649 -1.86128 0
M  V30 6205 C 569.165 0.676298 -1.82364 0
M  V30 6206 O 568.42 1.51223 -1.24218 0
M  V30 6207 C 568.719 -1.25191 -3.34757 0
M  V30 6208 C 568.385 -2.73191 -3.58716 0
M  V30 6209 C 567.047 -3.13616 -3.64964 0
M  V30 6210 C 569.399 -3.68718 -3.6837 0
M  V30 6211 C 566.727 -4.48383 -3.78377 0
M  V30 6212 C 569.079 -5.03248 -3.83306 0
M  V30 6213 C 567.743 -5.43293 -3.878 0
M  V30 6214 H 567.013 -0.29188 -0.681092 0
M  V30 6215 H 569.66 -1.34524 -1.36292 0
M  V30 6216 H 567.965 -0.623712 -3.86804 0
M  V30 6217 H 569.662 -1.01489 -3.87945 0
M  V30 6218 H 566.252 -2.40898 -3.54494 0
M  V30 6219 H 570.436 -3.38614 -3.62842 0
M  V30 6220 H 565.692 -4.78877 -3.80114 0
M  V30 6221 H 569.866 -5.77142 -3.89718 0
M  V30 6222 H 567.493 -6.47721 -3.97946 0
M  V30 6223 N 569.068 1.32177 -0.85831 0
M  V30 6224 C 570.479 1.79381 -0.517621 0
M  V30 6225 C 570.83 1.70841 0.964769 0
M  V30 6226 O 569.955 1.26917 1.75274 0
M  V30 6227 C 570.55 3.25706 -0.932801 0
M  V30 6228 C 569.109 3.70851 -0.643953 0
M  V30 6229 C 568.256 2.53208 -1.13054 0
M  V30 6230 H 571.207 1.19424 -1.04516 0
M  V30 6231 H 571.228 3.79673 -0.250674 0
M  V30 6232 H 570.74 3.31889 -2.01174 0
M  V30 6233 H 568.841 3.70178 0.424112 0
M  V30 6234 H 568.954 4.63495 -1.21281 0
M  V30 6235 H 567.318 2.48676 -0.550679 0
M  V30 6236 H 568.101 2.62143 -2.21666 0
M  V30 6237 N 570.547 0.616602 1.45037 0
M  V30 6238 C 571.787 0.118453 2.04056 0
M  V30 6239 C 572.151 -1.23104 1.47341 0
M  V30 6240 O 573.352 -1.82044 1.97771 0
M  V30 6241 C 571.623 0.0892842 3.57288 0
M  V30 6242 S 573.182 -0.346361 4.37431 0
M  V30 6243 H 570 0.0539728 0.708948 0
M  V30 6244 H 572.602 0.816731 1.77623 0
M  V30 6245 H 571.306 1.07481 3.96076 0
M  V30 6246 H 570.837 -0.630703 3.88311 0
M  V30 6247 H 572.852 -1.59389 4.69904 0
M  V30 6248 N 572.025 -1.5352 0.356285 0
M  V30 6249 C 573.265 -2.03027 -0.23649 0
M  V30 6250 C 573.629 -1.23813 -1.46746 0
M  V30 6251 O 574.83 -1.63281 -2.13525 0
M  V30 6252 C 573.101 -3.53442 -0.530415 0
M  V30 6253 S 574.66 -4.24836 -1.09819 0
M  V30 6254 H 571.478 -0.707591 -0.0695378 0
M  V30 6255 H 574.08 -1.89077 0.496999 0
M  V30 6256 H 572.784 -4.087 0.373114 0
M  V30 6257 H 572.315 -3.71536 -1.29323 0
M  V30 6258 H 574.33 -4.35228 -2.38309 0
M  V30 6259 N 573.503 -0.0852151 -1.57369 0
M  V30 6260 C 574.914 0.445428 -1.81309 0
M  V30 6261 C 575.265 1.68795 -1.00013 0
M  V30 6262 O 574.39 2.15211 -0.226573 0
M  V30 6263 C 574.985 0.814887 -3.28854 0
M  V30 6264 C 573.544 1.29032 -3.53592 0
M  V30 6265 C 572.691 0.282089 -2.75861 0
M  V30 6266 H 575.642 -0.310771 -1.55627 0
M  V30 6267 H 575.663 1.67524 -3.41637 0
M  V30 6268 H 575.175 -0.0896309 -3.87996 0
M  V30 6269 H 573.276 2.21289 -2.9977 0
M  V30 6270 H 573.389 1.25898 -4.62262 0
M  V30 6271 H 571.753 0.762182 -2.43029 0
M  V30 6272 H 572.536 -0.614936 -3.37748 0
M  V30 6273 N 574.981 1.5647 0.188427 0
M  V30 6274 C 575.929 1.95971 1.25293 0
M  V30 6275 C 576.923 0.846047 1.4676 0
M  V30 6276 O 578.129 1.03109 1.47542 0
M  V30 6277 H 574.504 0.623253 0.420784 0
M  V30 6278 H 576.475 2.84731 0.892792 0
M  V30 6279 C 575.224 2.32116 2.58877 0
M  V30 6280 H 574.547 3.17341 2.43176 0
M  V30 6281 H 575.987 2.63613 3.3209 0
M  V30 6282 C 574.446 1.15823 3.16365 0
M  V30 6283 O 574.976 0.436785 3.99318 0
M  V30 6284 N 573.182 0.933278 2.75206 0
M  V30 6285 H 572.729 1.52169 2.07852 0
M  V30 6286 H 572.687 0.156976 3.14008 0
M  V30 6287 N 576.459 -0.456382 1.50847 0
M  V30 6288 C 577.87 -1.03685 1.55262 0
M  V30 6289 C 578.221 -1.92779 0.364771 0
M  V30 6290 O 577.346 -2.10043 -0.52068 0
M  V30 6291 C 577.941 -1.88718 2.81374 0
M  V30 6292 C 576.5 -2.41847 2.88422 0
M  V30 6293 C 575.647 -1.20564 2.49719 0
M  V30 6294 H 578.598 -0.238399 1.56899 0
M  V30 6295 H 578.619 -2.73957 2.6406 0
M  V30 6296 H 578.131 -1.23847 3.67809 0
M  V30 6297 H 576.232 -3.10228 2.06372 0
M  V30 6298 H 576.345 -2.75947 3.9165 0
M  V30 6299 H 574.709 -1.54504 2.02486 0
M  V30 6300 H 575.492 -0.573326 3.38479 0
M  V30 6301 N 577.937 -1.40673 -0.710563 0
M  V30 6302 C 579.185 -1.38947 -1.46759 0
M  V30 6303 C 579.506 0.00572879 -1.94999 0
M  V30 6304 O 578.776 0.961358 -1.70689 0
M  V30 6305 H 577.356 -0.5114 -0.544499 0
M  V30 6306 H 580.018 -1.75773 -0.842012 0
M  V30 6307 H 579.114 -2.06745 -2.33801 0
M  V30 6308 N 579.415 0.9433 -1.26252 0
M  V30 6309 C 580.826 1.50404 -1.10614 0
M  V30 6310 C 581.177 1.93666 0.31429 0
M  V30 6311 O 580.302 1.79709 1.20555 0
M  V30 6312 C 580.897 2.73336 -2.00182 0
M  V30 6313 C 579.456 3.25686 -1.88695 0
M  V30 6314 C 578.603 1.98474 -1.93658 0
M  V30 6315 H 581.554 0.759006 -1.39373 0
M  V30 6316 H 581.575 3.47567 -1.54847 0
M  V30 6317 H 581.087 2.41818 -3.03555 0
M  V30 6318 H 579.188 3.61998 -0.882489 0
M  V30 6319 H 579.301 3.92935 -2.74115 0
M  V30 6320 H 577.665 2.14278 -1.37684 0
M  V30 6321 H 578.448 1.6929 -2.98657 0
M  V30 6322 N 580.893 1.08022 1.14757 0
M  V30 6323 C 582.304 0.829144 1.67279 0
M  V30 6324 C 582.655 -0.644721 1.85305 0
M  V30 6325 O 581.78 -1.49838 1.56133 0
M  V30 6326 C 582.375 1.49855 3.03857 0
M  V30 6327 C 580.934 1.29482 3.53428 0
M  V30 6328 C 580.081 1.56386 2.28995 0
M  V30 6329 H 583.032 1.24134 0.988762 0
M  V30 6330 H 583.053 0.923572 3.69121 0
M  V30 6331 H 582.565 2.57123 2.90705 0
M  V30 6332 H 580.666 0.242669 3.71809 0
M  V30 6333 H 580.779 2.01974 4.34446 0
M  V30 6334 H 579.143 0.985217 2.34874 0
M  V30 6335 H 579.926 2.64851 2.18423 0
M  V30 6336 N 582.371 -1.3172 0.865308 0
M  V30 6337 C 583.619 -1.96487 0.472995 0
M  V30 6338 C 583.94 -1.68761 -0.976975 0
M  V30 6339 O 583.21 -1.00051 -1.68424 0
M  V30 6340 H 581.79 -0.726947 0.171922 0
M  V30 6341 H 584.452 -1.60612 1.10407 0
M  V30 6342 H 583.548 -3.0574 0.62687 0
M  V30 6343 N 583.85 -0.624285 -1.44708 0
M  V30 6344 C 584.812 0.0749638 -2.29077 0
M  V30 6345 C 585.812 0.778965 -1.40673 0
M  V30 6346 O 587.003 0.624591 -1.62618 0
M  V30 6347 C 584.135 1.11663 -3.22094 0
M  V30 6348 H 585.327 -0.667013 -2.92388 0
M  V30 6349 H 582.88 -0.384098 -1.51507 0
M  V30 6350 H 583.615 1.88881 -2.63618 0
M  V30 6351 H 583.401 0.61583 -3.87234 0
M  V30 6352 H 584.891 1.60585 -3.8549 0
M  V30 6353 N 585.328 1.53329 -0.364422 0
M  V30 6354 C 586.744 1.59594 -0.0133165 0
M  V30 6355 C 586.944 1.37959 1.46865 0
M  V30 6356 O 586 1.18418 2.2301 0
M  V30 6357 C 587.313 2.97032 -0.468213 0
M  V30 6358 C 588.861 3.10138 -0.422334 0
M  V30 6359 C 589.336 4.49986 -0.853024 0
M  V30 6360 N 590.827 4.56098 -0.808037 0
M  V30 6361 C 591.562 5.62495 -1.11299 0
M  V30 6362 N 591.058 6.7665 -1.48717 0
M  V30 6363 N 592.851 5.52473 -1.03586 0
M  V30 6364 H 585.002 1.65644 -1.32951 0
M  V30 6365 H 587.265 0.77684 -0.543345 0
M  V30 6366 H 586.971 3.18 -1.5023 0
M  V30 6367 H 586.845 3.76918 0.145775 0
M  V30 6368 H 589.232 2.88881 0.602622 0
M  V30 6369 H 589.313 2.32263 -1.0718 0
M  V30 6370 H 588.957 4.7198 -1.87609 0
M  V30 6371 H 588.887 5.26289 -0.180819 0
M  V30 6372 H 591.378 3.74131 -0.532361 0
M  V30 6373 H 591.691 7.53776 -1.70415 0
M  V30 6374 H 590.036 6.78044 -1.52581 0
M  V30 6375 H 593.227 4.6217 -0.742736 0
M  V30 6376 H 593.4 6.35295 -1.27686 0
M  V30 6377 N 586.806 0.0935595 1.57322 0
M  V30 6378 C 588.054 -0.569383 1.93913 0
M  V30 6379 C 588.375 -1.68817 0.976009 0
M  V30 6380 O 587.645 -1.9588 0.0278099 0
M  V30 6381 H 586.225 -0.21332 0.715894 0
M  V30 6382 H 588.887 0.156531 1.9427 0
M  V30 6383 H 587.983 -0.980577 2.96296 0
M  V30 6384 N 588.284 -1.56567 -0.180126 0
M  V30 6385 C 589.194 -1.98947 -1.24327 0
M  V30 6386 C 590.21 -0.899446 -1.4895 0
M  V30 6387 O 591.386 -1.20639 -1.61271 0
M  V30 6388 C 588.451 -2.33328 -2.56435 0
M  V30 6389 C 587.512 -3.56114 -2.39752 0
M  V30 6390 C 586.745 -3.88845 -3.65561 0
M  V30 6391 O 586.968 -3.22662 -4.70368 0
M  V30 6392 O 585.902 -4.82226 -3.60197 0
M  V30 6393 H 589.728 -2.89634 -0.913565 0
M  V30 6394 H 587.313 -1.44319 -0.386306 0
M  V30 6395 H 589.195 -2.5645 -3.34382 0
M  V30 6396 H 587.87 -1.45806 -2.89002 0
M  V30 6397 H 586.777 -3.38221 -1.59866 0
M  V30 6398 H 588.11 -4.4415 -2.12113 0
M  V30 6399 N 589.762 0.448376 -1.51087 0
M  V30 6400 C 591.008 1.20049 -1.6345 0
M  V30 6401 C 591.341 1.91121 -0.344444 0
M  V30 6402 O 590.616 1.83125 0.655396 0
M  V30 6403 C 590.899 2.22624 -2.83038 0
M  V30 6404 C 590.752 1.55708 -4.21989 0
M  V30 6405 C 592.071 3.23718 -2.98152 0
M  V30 6406 H 589.19 0.435085 -0.59487 0
M  V30 6407 H 591.832 0.491183 -1.83541 0
M  V30 6408 H 589.982 2.83117 -2.66039 0
M  V30 6409 H 591.654 0.986367 -4.50631 0
M  V30 6410 H 589.897 0.859647 -4.25197 0
M  V30 6411 H 590.568 2.30357 -5.01637 0
M  V30 6412 H 593.044 2.73269 -3.13788 0
M  V30 6413 H 591.92 3.92795 -3.83411 0
M  V30 6414 H 592.181 3.89179 -2.09743 0
M  V30 6415 N 591.24 1.41047 0.703093 0
M  V30 6416 C 592.488 1.39723 1.4602 0
M  V30 6417 C 592.809 0.00461257 1.94999 0
M  V30 6418 O 592.079 -0.952292 1.71196 0
M  V30 6419 H 590.659 0.514281 0.541779 0
M  V30 6420 H 593.321 1.76217 0.832678 0
M  V30 6421 H 592.417 2.07982 2.32701 0
M  V30 6422 N 592.718 -0.936591 1.26751 0
M  V30 6423 C 593.628 -2.06949 1.10496 0
M  V30 6424 C 594.644 -1.7396 0.037271 0
M  V30 6425 O 595.82 -1.99941 0.241944 0
M  V30 6426 C 592.885 -3.38612 0.744491 0
M  V30 6427 C 591.946 -3.85355 1.89209 0
M  V30 6428 C 591.179 -5.10735 1.54873 0
M  V30 6429 O 591.402 -5.68602 0.452546 0
M  V30 6430 O 590.336 -5.52632 2.38499 0
M  V30 6431 H 594.162 -2.23571 2.05547 0
M  V30 6432 H 591.747 -1.05428 1.05855 0
M  V30 6433 H 593.629 -4.17711 0.556396 0
M  V30 6434 H 592.304 -3.23218 -0.176582 0
M  V30 6435 H 591.211 -3.07182 2.13518 0
M  V30 6436 H 592.544 -4.05277 2.79305 0
M  V30 6437 N 594.196 -1.08629 -1.14182 0
M  V30 6438 C 595.106 -0.730126 -2.22949 0
M  V30 6439 C 596.122 0.26436 -1.7198 0
M  V30 6440 O 597.298 0.107742 -2.01112 0
M  V30 6441 C 594.363 -0.147227 -3.46387 0
M  V30 6442 C 593.424 -1.19662 -4.12286 0
M  V30 6443 C 592.657 -0.641437 -5.29831 0
M  V30 6444 O 592.88 0.538351 -5.67854 0
M  V30 6445 O 591.814 -1.39257 -5.85569 0
M  V30 6446 H 595.64 -1.63753 -2.55771 0
M  V30 6447 H 593.225 -0.860118 -1.22157 0
M  V30 6448 H 595.107 0.174923 -4.21037 0
M  V30 6449 H 593.782 0.733304 -3.15285 0
M  V30 6450 H 592.689 -1.57133 -3.395 0
M  V30 6451 H 594.022 -2.0495 -4.475 0
M  V30 6452 N 595.674 1.31259 -0.872281 0
M  V30 6453 C 596.584 2.32221 -0.333255 0
M  V30 6454 C 597.6 1.6481 0.558013 0
M  V30 6455 O 598.776 1.96212 0.454175 0
M  V30 6456 C 595.841 3.43708 0.454479 0
M  V30 6457 C 594.902 4.26774 -0.465024 0
M  V30 6458 C 594.135 5.32937 0.28521 0
M  V30 6459 O 594.358 5.49968 1.513 0
M  V30 6460 O 593.292 6.00834 -0.358126 0
M  V30 6461 H 597.118 2.80252 -1.17016 0
M  V30 6462 H 594.703 1.352 -0.635724 0
M  V30 6463 H 596.585 4.11656 0.900963 0
M  V30 6464 H 595.26 2.97836 1.26789 0
M  V30 6465 H 594.167 3.61571 -0.960055 0
M  V30 6466 H 595.5 4.76217 -1.2441 0
M  V30 6467 N 597.152 0.631951 1.44375 0
M  V30 6468 C 598.062 -0.073674 2.34484 0
M  V30 6469 C 599.078 -0.834825 1.52665 0
M  V30 6470 O 600.254 -0.786902 1.85391 0
M  V30 6471 C 597.319 -1.04247 3.30656 0
M  V30 6472 C 596.38 -0.280602 4.28382 0
M  V30 6473 C 595.613 -1.20325 5.19959 0
M  V30 6474 O 595.836 -2.44199 5.15484 0
M  V30 6475 O 594.77 -0.687128 5.97965 0
M  V30 6476 H 598.596 0.667477 2.96274 0
M  V30 6477 H 596.181 0.392144 1.44162 0
M  V30 6478 H 598.063 -1.59981 3.89851 0
M  V30 6479 H 596.738 -1.76422 2.71398 0
M  V30 6480 H 595.645 0.319804 3.72731 0
M  V30 6481 H 596.978 0.401144 4.90563 0
M  V30 6482 N 598.631 -1.53133 0.372548 0
M  V30 6483 C 599.879 -2.00958 -0.214534 0
M  V30 6484 C 600.2 -1.26135 -1.48711 0
M  V30 6485 O 599.47 -0.376597 -1.92246 0
M  V30 6486 H 598.05 -0.742456 -0.0822664 0
M  V30 6487 H 600.712 -1.88367 0.500385 0
M  V30 6488 H 599.808 -3.09031 -0.436605 0
M  V30 6489 N 600.109 -0.101901 -1.5727 0
M  V30 6490 C 601.357 0.559091 -1.94213 0
M  V30 6491 C 601.678 1.68297 -0.984948 0
M  V30 6492 O 600.948 1.95863 -0.0381975 0
M  V30 6493 H 599.528 0.20952 -0.717015 0
M  V30 6494 H 602.19 -0.166831 -1.94185 0
M  V30 6495 H 601.286 0.96485 -2.96811 0
M  V30 6496 N 601.587 1.56661 0.17182 0
M  V30 6497 C 602.815 1.861 0.904115 0
M  V30 6498 C 603.23 0.687227 1.75848 0
M  V30 6499 O 602.587 -0.343671 1.79235 0
M  V30 6500 C 602.638 3.14568 1.78127 0
M  V30 6501 O 602.359 4.27422 0.961366 0
M  V30 6502 C 603.86 3.5735 2.62327 0
M  V30 6503 H 601.08 0.617445 0.262684 0
M  V30 6504 H 603.624 2.03775 0.172068 0
M  V30 6505 H 601.779 2.98721 2.46666 0
M  V30 6506 H 602.193 5.00725 1.56123 0
M  V30 6507 H 603.667 4.50144 3.1949 0
M  V30 6508 H 604.144 2.81445 3.37173 0
M  V30 6509 H 604.75 3.75807 1.99121 0
M  V30 6510 N 603.065 -0.440357 1.51323 0
M  V30 6511 C 604.293 -1.21255 1.67645 0
M  V30 6512 C 604.708 -1.85088 0.37252 0
M  V30 6513 O 604.065 -1.70582 -0.648683 0
M  V30 6514 C 604.116 -2.29881 2.78993 0
M  V30 6515 O 603.837 -1.68659 4.04334 0
M  V30 6516 C 605.338 -3.20214 3.06558 0
M  V30 6517 H 602.558 -0.36558 0.562666 0
M  V30 6518 H 605.102 -0.52214 1.97722 0
M  V30 6519 H 603.257 -2.94643 2.51524 0
M  V30 6520 H 603.671 -2.40426 4.6615 0
M  V30 6521 H 605.145 -3.92575 3.88058 0
M  V30 6522 H 605.622 -3.80794 2.18844 0
M  V30 6523 H 606.228 -2.61156 3.35675 0
M  V30 6524 N 604.543 -1.41418 -0.695603 0
M  V30 6525 C 605.791 -1.40496 -1.45277 0
M  V30 6526 C 606.112 -0.0149538 -1.94994 0
M  V30 6527 O 605.382 0.9432 -1.71699 0
M  V30 6528 H 603.962 -0.517147 -0.539044 0
M  V30 6529 H 606.624 -1.76656 -0.823321 0
M  V30 6530 H 605.72 -2.09214 -2.31595 0
M  V30 6531 N 606.021 0.929856 -1.27246 0
M  V30 6532 C 606.984 2.01172 -1.09829 0
M  V30 6533 C 607.984 1.60743 -0.0429687 0
M  V30 6534 O 609.174 1.71813 -0.287373 0
M  V30 6535 C 606.306 3.34191 -0.673003 0
M  V30 6536 H 607.499 2.18054 -2.05895 0
M  V30 6537 H 605.052 1.11036 -1.10003 0
M  V30 6538 H 605.787 3.23009 0.289134 0
M  V30 6539 H 605.572 3.64892 -1.43515 0
M  V30 6540 H 607.062 4.13646 -0.573323 0
M  V30 6541 N 607.499 1.09233 1.13605 0
M  V30 6542 C 608.724 0.849067 1.89224 0
M  V30 6543 C 609.149 -0.593875 1.78479 0
M  V30 6544 O 608.507 -1.41703 1.13092 0
M  V30 6545 C 608.555 1.28642 3.36873 0
M  V30 6546 O 607.659 0.44363 4.10007 0
M  V30 6547 H 607 0.30767 0.588417 0
M  V30 6548 H 609.53 1.45595 1.43748 0
M  V30 6549 H 609.54 1.27096 3.87699 0
M  V30 6550 H 608.215 2.33729 3.44011 0
M  V30 6551 H 606.792 0.523241 3.69211 0
M  V30 6552 N 608.977 -1.30795 0.87923 0
M  V30 6553 C 609.907 -2.30742 0.357796 0
M  V30 6554 C 610.888 -1.60747 -0.556283 0
M  V30 6555 O 612.073 -1.88393 -0.47135 0
M  V30 6556 C 609.203 -3.44583 -0.433555 0
M  V30 6557 C 608.157 -4.26235 0.388251 0
M  V30 6558 C 607.483 -5.32073 -0.529352 0
M  V30 6559 C 608.783 -4.96303 1.62729 0
M  V30 6560 H 610.477 -2.74605 1.19299 0
M  V30 6561 H 608.023 -1.32017 0.575104 0
M  V30 6562 H 609.976 -4.13563 -0.808934 0
M  V30 6563 H 608.7 -2.99511 -1.30234 0
M  V30 6564 H 607.359 -3.58936 0.745695 0
M  V30 6565 H 607.007 -4.83249 -1.39569 0
M  V30 6566 H 606.707 -5.87598 0.0166741 0
M  V30 6567 H 608.231 -6.0391 -0.901373 0
M  V30 6568 H 609.645 -5.5783 1.32283 0
M  V30 6569 H 608.042 -5.61666 2.11309 0
M  V30 6570 H 609.112 -4.22758 2.37494 0
M  V30 6571 N 610.455 -0.639598 -1.44038 0
M  V30 6572 C 611.68 -0.153117 -2.06834 0
M  V30 6573 C 612.105 1.16676 -1.47541 0
M  V30 6574 O 611.463 1.71769 -0.580093 0
M  V30 6575 C 611.511 -0.0609169 -3.60549 0
M  V30 6576 O 610.615 0.98071 -4.00569 0
M  V30 6577 H 609.956 -0.0886402 -0.658057 0
M  V30 6578 H 612.486 -0.878674 -1.84771 0
M  V30 6579 H 612.496 0.126892 -4.07803 0
M  V30 6580 H 611.171 -1.0245 -4.03084 0
M  V30 6581 H 609.748 0.766789 -3.64931 0
M  V30 6582 N 611.933 1.52934 -0.380664 0
M  V30 6583 C 613.349 1.59571 -0.0302429 0
M  V30 6584 C 613.549 1.39509 1.45394 0
M  V30 6585 O 612.605 1.20777 2.21741 0
M  V30 6586 C 613.918 2.96519 -0.499691 0
M  V30 6587 C 615.466 3.09672 -0.455204 0
M  V30 6588 C 615.941 4.49056 -0.900703 0
M  V30 6589 N 617.432 4.55215 -0.856367 0
M  V30 6590 C 618.167 5.61282 -1.17259 0
M  V30 6591 N 617.663 6.75035 -1.55885 0
M  V30 6592 N 619.456 5.51343 -1.0944 0
M  V30 6593 H 611.607 1.64224 -1.347 0
M  V30 6594 H 613.87 0.771033 -0.551554 0
M  V30 6595 H 613.576 3.16388 -1.53595 0
M  V30 6596 H 613.45 3.77052 0.105789 0
M  V30 6597 H 615.837 2.89504 0.571949 0
M  V30 6598 H 615.918 2.31113 -1.09638 0
M  V30 6599 H 615.562 4.69964 -1.92604 0
M  V30 6600 H 615.492 5.26068 -0.236629 0
M  V30 6601 H 617.983 3.73546 -0.572013 0
M  V30 6602 H 618.296 7.51926 -1.784 0
M  V30 6603 H 616.641 6.76388 -1.59764 0
M  V30 6604 H 619.832 4.61356 -0.791713 0
M  V30 6605 H 620.005 6.33905 -1.34417 0
M  V30 6606 N 613.412 0.11024 1.57214 0
M  V30 6607 C 614.659 -0.54987 1.94891 0
M  V30 6608 C 614.987 -1.67243 0.992984 0
M  V30 6609 O 614.242 -1.95694 0.0152703 0
M  V30 6610 C 614.541 -1.13102 3.39032 0
M  V30 6611 C 614.207 -0.130713 4.5071 0
M  V30 6612 C 612.869 0.14437 4.80983 0
M  V30 6613 C 615.221 0.551472 5.18274 0
M  V30 6614 C 612.549 1.10807 5.76141 0
M  V30 6615 C 614.901 1.50375 6.14467 0
M  V30 6616 C 613.565 1.78691 6.43138 0
M  V30 6617 H 612.835 -0.201212 0.713158 0
M  V30 6618 H 615.482 0.189288 1.90562 0
M  V30 6619 H 613.787 -1.94675 3.40013 0
M  V30 6620 H 615.484 -1.64973 3.65493 0
M  V30 6621 H 612.074 -0.355301 4.27125 0
M  V30 6622 H 616.258 0.35211 4.95049 0
M  V30 6623 H 611.514 1.3343 5.96663 0
M  V30 6624 H 615.688 2.03808 6.65909 0
M  V30 6625 H 613.315 2.53522 7.1668 0
M  V30 6626 N 614.89 -1.56749 -0.16351 0
M  V30 6627 C 616.115 -1.86938 -0.898264 0
M  V30 6628 C 616.54 -0.697456 -1.74692 0
M  V30 6629 O 615.898 0.353327 -1.77824 0
M  V30 6630 C 615.946 -3.15599 -1.74441 0
M  V30 6631 O 615.05 -2.98371 -2.8469 0
M  V30 6632 H 614.391 -0.614659 -0.251178 0
M  V30 6633 H 616.921 -2.03979 -0.159298 0
M  V30 6634 H 616.931 -3.47202 -2.14277 0
M  V30 6635 H 615.606 -4.00505 -1.1211 0
M  V30 6636 H 614.183 -2.7814 -2.4838 0
M  V30 6637 N 616.368 0.432326 -1.51554 0
M  V30 6638 C 617.598 1.2019 -1.68042 0
M  V30 6639 C 618.006 1.85356 -0.379434 0
M  V30 6640 O 617.349 1.71724 0.652427 0
M  V30 6641 C 617.411 2.32387 -2.74292 0
M  V30 6642 C 617.075 1.87548 -4.16743 0
M  V30 6643 C 618.072 1.37611 -5.01357 0
M  V30 6644 C 615.757 1.95087 -4.62868 0
M  V30 6645 C 617.751 0.958069 -6.30159 0
M  V30 6646 C 615.438 1.52894 -5.91664 0
M  V30 6647 C 616.436 1.03336 -6.75137 0
M  V30 6648 O 616.124 0.617435 -8.01525 0
M  V30 6649 H 615.856 0.368132 -0.56697 0
M  V30 6650 H 618.41 0.517875 -1.98764 0
M  V30 6651 H 616.64 3.04082 -2.38895 0
M  V30 6652 H 618.329 2.94235 -2.79608 0
M  V30 6653 H 619.095 1.31178 -4.66923 0
M  V30 6654 H 614.974 2.32606 -3.98015 0
M  V30 6655 H 618.518 0.570562 -6.95263 0
M  V30 6656 H 614.415 1.58999 -6.25611 0
M  V30 6657 H 615.183 0.742835 -8.15122 0
M  V30 6658 N 617.846 1.41785 0.688094 0
M  V30 6659 C 619.071 1.45117 1.48175 0
M  V30 6660 C 619.496 0.060129 1.88004 0
M  V30 6661 O 618.854 -0.938385 1.55126 0
M  V30 6662 C 618.902 2.37224 2.71583 0
M  V30 6663 O 618.006 1.83443 3.69354 0
M  V30 6664 H 617.347 0.492208 0.445676 0
M  V30 6665 H 619.877 1.86329 0.845145 0
M  V30 6666 H 619.887 2.53353 3.19806 0
M  V30 6667 H 618.562 3.38293 2.41931 0
M  V30 6668 H 617.139 1.76802 3.28322 0
M  V30 6669 N 619.324 -0.923095 1.27737 0
M  V30 6670 C 620.274 -2.01061 1.0751 0
M  V30 6671 C 621.258 -1.609 0.00165451 0
M  V30 6672 O 622.45 -1.75618 0.220724 0
M  V30 6673 C 619.579 -3.35467 0.729162 0
M  V30 6674 C 618.665 -3.82059 1.84098 0
M  V30 6675 N 619.056 -4.01115 3.08124 0
M  V30 6676 C 617.354 -4.11135 1.7287 0
M  V30 6677 C 618.055 -4.39989 3.80506 0
M  V30 6678 N 617.031 -4.47721 3.08297 0
M  V30 6679 H 620.833 -2.13832 2.01626 0
M  V30 6680 H 618.347 -1.11027 1.18519 0
M  V30 6681 H 620.344 -4.13049 0.565355 0
M  V30 6682 H 619.004 -3.24056 -0.204334 0
M  V30 6683 H 620.015 -3.87294 3.43836 0
M  V30 6684 H 616.692 -4.08412 0.866352 0
M  V30 6685 H 618.082 -4.62773 4.87125 0
M  V30 6686 N 620.802 -1.09834 -1.13024 0
M  V30 6687 C 621.735 -0.685453 -2.17662 0
M  V30 6688 C 622.713 0.310142 -1.59615 0
M  V30 6689 O 623.897 0.21052 -1.87321 0
M  V30 6690 C 621.024 -0.0104476 -3.38698 0
M  V30 6691 C 620.07 -0.968522 -4.15358 0
M  V30 6692 S 620.903 -2.48272 -4.74469 0
M  V30 6693 C 622.059 -1.82025 -5.98847 0
M  V30 6694 H 622.292 -1.57187 -2.52348 0
M  V30 6695 H 619.825 -0.914728 -1.24387 0
M  V30 6696 H 621.783 0.372694 -4.08805 0
M  V30 6697 H 620.444 0.852673 -3.02305 0
M  V30 6698 H 619.637 -0.443373 -5.02046 0
M  V30 6699 H 619.239 -1.29327 -3.50928 0
M  V30 6700 H 621.531 -1.14678 -6.67724 0
M  V30 6701 H 622.474 -2.66645 -6.55977 0
M  V30 6702 H 622.882 -1.2874 -5.49624 0
M  V30 6703 N 622.28 1.30327 -0.886154 0
M  V30 6704 C 623.505 2.0079 -0.519425 0
M  V30 6705 C 623.93 1.65979 0.885013 0
M  V30 6706 O 623.288 0.877043 1.58675 0
M  V30 6707 C 623.336 3.53686 -0.702758 0
M  V30 6708 O 622.44 4.11637 0.250828 0
M  V30 6709 H 621.781 0.63171 -0.204544 0
M  V30 6710 H 624.311 1.66145 -1.19402 0
M  V30 6711 H 624.321 4.03531 -0.602207 0
M  V30 6712 H 622.996 3.78361 -1.72673 0
M  V30 6713 H 621.573 3.72755 0.103873 0
M  V30 6714 N 623.758 0.647228 1.43697 0
M  V30 6715 C 624.721 -0.0385101 2.29168 0
M  V30 6716 C 625.721 -0.756487 1.41894 0
M  V30 6717 O 626.911 -0.598641 1.63591 0
M  V30 6718 C 624.043 -1.06524 3.23829 0
M  V30 6719 H 625.236 0.713445 2.9129 0
M  V30 6720 H 622.789 0.408153 1.50877 0
M  V30 6721 H 623.524 -1.84664 2.66589 0
M  V30 6722 H 623.309 -0.554147 3.88164 0
M  V30 6723 H 624.799 -1.54432 3.87996 0
M  V30 6724 N 625.236 -1.5273 0.388769 0
M  V30 6725 C 626.461 -2.0647 -0.19621 0
M  V30 6726 C 626.886 -1.25865 -1.39784 0
M  V30 6727 O 626.244 -0.283562 -1.79069 0
M  V30 6728 C 626.292 -3.56456 -0.5451 0
M  V30 6729 O 625.396 -3.78426 -1.63912 0
M  V30 6730 H 624.737 -0.663599 -0.023067 0
M  V30 6731 H 627.267 -1.96898 0.556084 0
M  V30 6732 H 627.277 -3.99888 -0.809557 0
M  V30 6733 H 625.952 -4.14561 0.333417 0
M  V30 6734 H 624.529 -3.46884 -1.36842 0
M  V30 6735 N 626.714 -0.118576 -1.57153 0
M  V30 6736 C 627.96 0.540326 -1.95469 0
M  V30 6737 C 628.293 1.66356 -1.00196 0
M  V30 6738 O 627.568 1.94461 -0.039104 0
M  V30 6739 C 627.851 1.07342 -3.43729 0
M  V30 6740 C 627.704 -0.0463732 -4.49776 0
M  V30 6741 C 629.023 1.96442 -3.93826 0
M  V30 6742 H 626.142 0.19494 -0.710751 0
M  V30 6743 H 628.784 -0.19405 -1.89006 0
M  V30 6744 H 626.934 1.69925 -3.49368 0
M  V30 6745 H 628.606 -0.681648 -4.56236 0
M  V30 6746 H 626.849 -0.709574 -4.27957 0
M  V30 6747 H 627.52 0.367856 -5.50773 0
M  V30 6748 H 629.996 1.43731 -3.90488 0
M  V30 6749 H 628.872 2.3066 -4.98084 0
M  V30 6750 H 629.133 2.89077 -3.34495 0
M  V30 6751 N 628.193 1.56834 0.155195 0
M  V30 6752 C 629.604 1.72421 0.716082 0
M  V30 6753 C 629.955 0.731685 1.82046 0
M  V30 6754 O 629.08 -0.103481 2.16152 0
M  V30 6755 C 629.675 3.12629 1.30571 0
M  V30 6756 C 628.234 3.29846 1.81325 0
M  V30 6757 C 627.381 2.68359 0.698494 0
M  V30 6758 H 630.332 1.58544 -0.0703861 0
M  V30 6759 H 630.353 3.12174 2.1755 0
M  V30 6760 H 629.865 3.84844 0.501701 0
M  V30 6761 H 627.966 2.62614 2.64319 0
M  V30 6762 H 628.079 4.37727 1.9476 0
M  V30 6763 H 626.443 2.28604 1.12305 0
M  V30 6764 H 627.226 3.43171 -0.0939366 0
M  V30 6765 N 629.671 -0.424282 1.51781 0
M  V30 6766 C 631.082 -1.00368 1.57427 0
M  V30 6767 C 631.433 -1.91962 0.40558 0
M  V30 6768 O 630.558 -2.111 -0.47601 0
M  V30 6769 C 631.153 -1.82707 2.85313 0
M  V30 6770 C 629.712 -2.35675 2.93487 0
M  V30 6771 C 628.859 -1.1524 2.5222 0
M  V30 6772 H 631.81 -0.205064 1.5737 0
M  V30 6773 H 631.831 -2.68294 2.69812 0
M  V30 6774 H 631.343 -1.16017 3.70353 0
M  V30 6775 H 629.444 -3.05781 2.12906 0
M  V30 6776 H 629.557 -2.67578 3.97415 0
M  V30 6777 H 627.921 -1.50174 2.05718 0
M  V30 6778 H 628.704 -0.5014 3.39619 0
M  V30 6779 N 631.149 -1.42148 -0.680565 0
M  V30 6780 C 632.081 -1.41119 -1.80605 0
M  V30 6781 C 633.094 -0.311099 -1.598 0
M  V30 6782 O 634.283 -0.573813 -1.69026 0
M  V30 6783 C 631.383 -1.18204 -3.17618 0
M  V30 6784 C 630.556 -2.40537 -3.65322 0
M  V30 6785 C 629.615 -2.13254 -4.8105 0
M  V30 6786 O 628.641 -2.8641 -4.91892 0
M  V30 6787 N 629.843 -1.13208 -5.69354 0
M  V30 6788 H 632.608 -2.38128 -1.81975 0
M  V30 6789 H 630.169 -1.36953 -0.863446 0
M  V30 6790 H 632.161 -0.97878 -3.92686 0
M  V30 6791 H 630.731 -0.29738 -3.11182 0
M  V30 6792 H 629.951 -2.76468 -2.80996 0
M  V30 6793 H 631.239 -3.22012 -3.93936 0
M  V30 6794 H 630.637 -0.526893 -5.63241 0
M  V30 6795 H 629.194 -0.988699 -6.44258 0
M  V30 6796 O 632.666 0.823011 -1.38956 0
M  V30 6797 H 633.357 1.46633 -1.26564 0
M  V30 END ATOM
M  V30 BEGIN BOND
M  V30 END BOND
M  V30 END CTAB
M  END
$$$$
