drugbank_target|Q05581 Clavaminate synthase 1 (DB01985; DB02475)
 OpenBabel12092119523D

  0  0  0     0  0            999 V3000
M  V30 BEGIN CTAB
M  V30 COUNTS 4922 4978 0 0 0
M  V30 BEGIN ATOM
M  V30 1 H -0.908 1.98254 -0.117106 0
M  V30 2 N 0 1.576 0 0
M  V30 3 C 0.933 2.03868 1.02534 0
M  V30 4 C 1.911 0.928543 1.3348 0
M  V30 5 O 3.095 1.19667 1.45644 0
M  V30 6 C 0.222 2.43627 2.35294 0
M  V30 7 C -0.732 3.65373 2.2001 0
M  V30 8 S 0.101 5.13292 1.52614 0
M  V30 9 C 1.257 5.56322 2.86805 0
M  V30 10 H 1.49 2.90518 0.631377 0
M  V30 11 H -0.977 1.52953 0.210867 0
M  V30 12 H 0.981 2.67203 3.11629 0
M  V30 13 H -0.358 1.57376 2.7183 0
M  V30 14 H -1.165 3.90944 3.18086 0
M  V30 15 H -1.563 3.418 1.51819 0
M  V30 16 H 0.729 5.58782 3.83104 0
M  V30 17 H 1.672 6.56266 2.65933 0
M  V30 18 H 2.08 4.83886 2.90714 0
M  V30 19 N 1.4781 -0.272755 1.55222 0
M  V30 20 C 2.7061 -1.02255 1.79865 0
M  V30 21 C 3.1211 -1.79924 0.572088 0
M  V30 22 O 2.4781 -1.76638 -0.458842 0
M  V30 23 C 2.5291 -1.98094 3.02392 0
M  V30 24 O 2.2501 -1.23572 4.20311 0
M  V30 25 C 3.7511 -2.84884 3.39641 0
M  V30 26 H 0.9711 -0.302057 0.599168 0
M  V30 27 H 3.5151 -0.303465 2.02236 0
M  V30 28 H 1.6701 -2.65465 2.82147 0
M  V30 29 H 2.0841 -1.88172 4.89583 0
M  V30 30 H 3.5581 -3.47927 4.28545 0
M  V30 31 H 4.0351 -3.54665 2.59055 0
M  V30 32 H 4.6411 -2.23003 3.62146 0
M  V30 33 N 2.9562 -1.48159 -0.537278 0
M  V30 34 C 4.1812 -1.59707 -1.32319 0
M  V30 35 C 4.6062 -0.254859 -1.86365 0
M  V30 36 O 3.9642 0.772378 -1.64024 0
M  V30 37 C 4.0122 -2.6412 -2.45505 0
M  V30 38 O 3.1162 -2.20774 -3.48328 0
M  V30 39 H 2.4572 -0.535791 -0.392204 0
M  V30 40 H 4.9872 -1.94092 -0.647268 0
M  V30 41 H 4.9972 -2.85166 -2.91795 0
M  V30 42 H 3.6722 -3.61567 -2.05528 0
M  V30 43 H 2.2492 -2.09911 -3.08207 0
M  V30 44 N 4.4343 0.785586 -1.36625 0
M  V30 45 C 5.6803 1.54591 -1.31261 0
M  V30 46 C 6.0133 1.93906 0.106823 0
M  V30 47 O 5.2883 1.63007 1.06108 0
M  V30 48 C 5.5713 2.82038 -2.23889 0
M  V30 49 C 5.4243 2.49066 -3.74548 0
M  V30 50 C 6.7433 3.83887 -2.15217 0
M  V30 51 H 3.8623 0.560846 -0.478143 0
M  V30 52 H 6.5043 0.902278 -1.67209 0
M  V30 53 H 4.6543 3.36961 -1.93363 0
M  V30 54 H 6.3263 2.00164 -4.15611 0
M  V30 55 H 4.5693 1.81954 -3.93796 0
M  V30 56 H 5.2403 3.40109 -4.34776 0
M  V30 57 H 7.7163 3.38421 -2.42096 0
M  V30 58 H 6.5923 4.70806 -2.82193 0
M  V30 59 H 6.8533 4.27131 -1.14068 0
M  V30 60 N 5.9124 1.20967 1.01018 0
M  V30 61 C 7.1894 0.93264 1.71934 0
M  V30 62 C 7.5694 -0.55692 2.03621 0
M  V30 63 O 6.9174 -1.52035 1.7058 0
M  V30 64 C 7.1274 1.81233 2.98254 0
M  V30 65 C 8.4754 2.05804 3.71389 0
M  V30 66 O 9.4994 1.78539 3.08225 0
M  V30 67 O 8.3584 2.51888 4.84989 0
M  V30 68 H 5.4524 0.349272 0.749625 0
M  V30 69 H 7.9984 1.31871 1.06808 0
M  V30 70 H 6.7704 2.82067 2.71208 0
M  V30 71 H 6.3934 1.42674 3.7112 0
M  V30 72 N 7.3905 -1.2043 1.01659 0
M  V30 73 C 8.6305 -1.91507 0.714456 0
M  V30 74 C 8.9945 -1.77073 -0.742237 0
M  V30 75 O 10.1955 -2.42631 -1.15688 0
M  V30 76 C 8.4665 -3.38795 1.13809 0
M  V30 77 S 10.0255 -4.28216 0.957925 0
M  V30 78 H 6.8435 -0.661571 0.260471 0
M  V30 79 H 9.4455 -1.45671 1.30384 0
M  V30 80 H 8.1495 -3.46822 2.19415 0
M  V30 81 H 7.6805 -3.89656 0.541474 0
M  V30 82 H 9.6955 -4.96007 -0.138531 0
M  V30 83 N 8.8686 -0.792821 -1.36206 0
M  V30 84 C 10.0966 -0.378825 -2.03402 0
M  V30 85 C 10.5116 1.00586 -1.59774 0
M  V30 86 O 9.8686 1.64574 -0.788764 0
M  V30 87 C 9.9196 -0.43683 -3.58851 0
M  V30 88 O 9.6406 -1.76691 -4.00889 0
M  V30 89 C 11.1416 -0.0138943 -4.43298 0
M  V30 90 H 8.3616 -0.155673 -0.652692 0
M  V30 91 H 10.9056 -1.07261 -1.74113 0
M  V30 92 H 9.0606 0.208575 -3.86838 0
M  V30 93 H 9.4746 -1.72011 -4.95492 0
M  V30 94 H 10.9486 -0.105615 -5.51899 0
M  V30 95 H 11.4256 1.03915 -4.2673 0
M  V30 96 H 12.0316 -0.63192 -4.20579 0
M  V30 97 N 10.3467 1.47872 -0.545128 0
M  V30 98 C 11.3097 2.28337 0.198717 0
M  V30 99 C 12.3097 1.36255 0.853888 0
M  V30 100 O 13.4997 1.59003 0.711606 0
M  V30 101 C 10.6317 3.15585 1.28915 0
M  V30 102 H 11.8247 2.95567 -0.507941 0
M  V30 103 H 9.3777 1.53362 -0.301616 0
M  V30 104 H 10.1127 2.53019 2.02859 0
M  V30 105 H 9.8977 3.83337 0.824309 0
M  V30 106 H 11.3877 3.76243 1.81194 0
M  V30 107 N 11.8248 0.280983 1.55075 0
M  V30 108 C 13.0548 -0.336804 2.03836 0
M  V30 109 C 13.4628 -1.49577 1.15859 0
M  V30 110 O 12.8058 -1.82888 0.172503 0
M  V30 111 C 12.8678 -0.874616 3.48699 0
M  V30 112 C 12.5318 0.156478 4.56732 0
M  V30 113 C 13.5288 0.978032 5.10618 0
M  V30 114 C 11.2138 0.292409 5.01448 0
M  V30 115 C 13.2078 1.92165 6.07743 0
M  V30 116 C 10.8948 1.23949 5.98398 0
M  V30 117 C 11.8928 2.05261 6.51427 0
M  V30 118 O 11.5808 2.98367 7.4648 0
M  V30 119 H 11.3128 -0.0800885 0.671239 0
M  V30 120 H 13.8668 0.412589 2.01213 0
M  V30 121 H 12.0968 -1.67418 3.4858 0
M  V30 122 H 13.7858 -1.40612 3.80766 0
M  V30 123 H 14.5518 0.883782 4.7688 0
M  V30 124 H 10.4308 -0.330498 4.59814 0
M  V30 125 H 13.9748 2.55672 6.49059 0
M  V30 126 H 9.8718 1.33454 6.31554 0
M  V30 127 H 10.6398 2.93116 7.64215 0
M  V30 128 N 13.3029 -1.57598 0.00835791 0
M  V30 129 C 14.5509 -1.90551 -0.6734 0
M  V30 130 C 14.8719 -0.883301 -1.73847 0
M  V30 131 O 14.1419 0.0781442 -1.95744 0
M  V30 132 H 12.7219 -0.703312 -0.251717 0
M  V30 133 H 15.3839 -1.94833 0.0512592 0
M  V30 134 H 14.4799 -2.9056 -1.13935 0
M  V30 135 N 14.781 0.264519 -1.55364 0
M  V30 136 C 16.192 0.834936 -1.6699 0
M  V30 137 C 16.543 1.86718 -0.602552 0
M  V30 138 O 15.668 2.14899 0.254425 0
M  V30 139 C 16.263 1.5212 -3.02729 0
M  V30 140 C 14.822 2.03954 -3.16354 0
M  V30 141 C 13.969 0.884498 -2.62815 0
M  V30 142 H 16.92 0.0406869 -1.58648 0
M  V30 143 H 16.941 2.38853 -2.96191 0
M  V30 144 H 16.453 0.769668 -3.80392 0
M  V30 145 H 14.554 2.82041 -2.43482 0
M  V30 146 H 14.667 2.24902 -4.23032 0
M  V30 147 H 13.031 1.2802 -2.20188 0
M  V30 148 H 13.814 0.14634 -3.42988 0
M  V30 149 N 16.2591 1.48442 0.529413 0
M  V30 150 C 17.1691 1.6569 1.66084 0
M  V30 151 C 18.1851 0.539432 1.65427 0
M  V30 152 O 19.3611 0.810572 1.84368 0
M  V30 153 C 16.4261 1.69315 3.02545 0
M  V30 154 C 15.4871 2.92694 3.14052 0
M  V30 155 C 14.7201 2.96137 4.44003 0
M  V30 156 O 14.9431 2.07973 5.31134 0
M  V30 157 O 13.8771 3.88312 4.59888 0
M  V30 158 H 17.7031 2.61483 1.54469 0
M  V30 159 H 15.2881 1.3185 0.702567 0
M  V30 160 H 17.1701 1.74217 3.83701 0
M  V30 161 H 15.8451 0.766966 3.14483 0
M  V30 162 H 14.7521 2.93324 2.32189 0
M  V30 163 H 16.0851 3.84699 3.0703 0
M  V30 164 N 17.7372 -0.778329 1.37039 0
M  V30 165 C 18.6672 -1.90546 1.34962 0
M  V30 166 C 19.6482 -1.68681 0.219274 0
M  V30 167 O 20.8332 -1.89634 0.418624 0
M  V30 168 C 17.9632 -3.27734 1.14925 0
M  V30 169 C 16.9172 -3.64147 2.24902 0
M  V30 170 C 16.2432 -4.99806 1.89996 0
M  V30 171 C 17.5432 -3.71579 3.67051 0
M  V30 172 H 19.2372 -1.92541 2.29277 0
M  V30 173 H 16.7832 -0.924948 1.10366 0
M  V30 174 H 18.7362 -4.06215 1.12104 0
M  V30 175 H 17.4602 -3.26154 0.170631 0
M  V30 176 H 16.1192 -2.8797 2.26868 0
M  V30 177 H 15.7672 -4.94759 0.906796 0
M  V30 178 H 15.4672 -5.25139 2.63634 0
M  V30 179 H 16.9912 -5.80694 1.88749 0
M  V30 180 H 18.4052 -4.40227 3.67251 0
M  V30 181 H 16.8022 -4.08405 4.39688 0
M  V30 182 H 17.8722 -2.72404 4.01154 0
M  V30 183 N 19.2153 -1.21501 -1.00376 0
M  V30 184 C 20.6313 -0.972629 -1.26539 0
M  V30 185 C 20.8313 0.340257 -1.98606 0
M  V30 186 O 19.8873 1.06561 -2.28913 0
M  V30 187 C 21.2003 -2.16404 -2.08781 0
M  V30 188 C 22.7483 -2.20643 -2.22004 0
M  V30 189 C 23.2233 -3.39306 -3.07629 0
M  V30 190 N 24.7143 -3.39401 -3.15217 0
M  V30 191 C 25.4493 -4.27867 -3.81729 0
M  V30 192 N 24.9453 -5.26533 -4.5026 0
M  V30 193 N 26.7383 -4.15672 -3.78382 0
M  V30 194 H 18.8893 -2.05929 -0.520281 0
M  V30 195 H 21.1523 -0.901803 -0.292328 0
M  V30 196 H 20.8583 -3.11554 -1.63178 0
M  V30 197 H 20.7323 -2.15567 -3.09533 0
M  V30 198 H 23.1193 -1.26048 -2.66825 0
M  V30 199 H 23.2003 -2.25523 -1.20718 0
M  V30 200 H 22.8443 -4.34195 -2.63509 0
M  V30 201 H 22.7743 -3.31665 -4.09031 0
M  V30 202 H 25.2653 -2.67997 -2.66432 0
M  V30 203 H 25.5783 -5.90337 -4.98721 0
M  V30 204 H 23.9233 -5.30457 -4.49044 0
M  V30 205 H 27.1143 -3.3785 -3.23998 0
M  V30 206 H 27.2873 -4.84825 -4.2994 0
M  V30 207 N 20.6934 1.19889 -1.02296 0
M  V30 208 C 21.6564 2.21116 -0.603351 0
M  V30 209 C 22.6564 1.5738 0.329884 0
M  V30 210 O 23.8464 1.73802 0.117702 0
M  V30 211 C 20.9784 3.40696 0.117992 0
M  V30 212 H 22.1714 2.59754 -1.49893 0
M  V30 213 H 19.7244 1.33463 -0.813468 0
M  V30 214 H 20.4594 3.07569 1.0282 0
M  V30 215 H 20.2444 3.88188 -0.552511 0
M  V30 216 H 21.7344 4.15692 0.398696 0
M  V30 217 N 22.1715 0.800033 1.35784 0
M  V30 218 C 23.1015 0.220184 2.3246 0
M  V30 219 C 24.0825 -0.65073 1.57161 0
M  V30 220 O 25.2675 -0.582359 1.85263 0
M  V30 221 C 22.3975 -0.637353 3.41402 0
M  V30 222 C 21.3515 0.134531 4.27789 0
M  V30 223 C 20.6775 -0.844285 5.27992 0
M  V30 224 C 21.9775 1.32979 5.05088 0
M  V30 225 H 23.6715 1.02787 2.81203 0
M  V30 226 H 21.2175 0.495717 1.35199 0
M  V30 227 H 23.1705 -1.05302 4.08031 0
M  V30 228 H 21.8945 -1.47785 2.91251 0
M  V30 229 H 20.5535 0.531296 3.6273 0
M  V30 230 H 20.2015 -1.68011 4.74111 0
M  V30 231 H 19.9015 -0.332184 5.8666 0
M  V30 232 H 21.4255 -1.2583 5.97494 0
M  V30 233 H 22.8395 0.98934 5.64699 0
M  V30 234 H 21.2365 1.77593 5.7322 0
M  V30 235 H 22.3065 2.11978 4.36111 0
M  V30 236 N 23.6496 -1.47581 0.552962 0
M  V30 237 C 24.6126 -2.28439 -0.186605 0
M  V30 238 C 25.6126 -1.36706 -0.84665 0
M  V30 239 O 26.8026 -1.59378 -0.703164 0
M  V30 240 C 23.9346 -3.16264 -1.2724 0
M  V30 241 H 25.1276 -2.95294 0.523609 0
M  V30 242 H 22.6806 -1.532 0.309745 0
M  V30 243 H 23.4156 -2.54091 -2.01514 0
M  V30 244 H 23.2006 -3.83769 -0.803968 0
M  V30 245 H 24.6906 -3.77198 -1.79196 0
M  V30 246 N 25.1277 -0.289203 -1.54924 0
M  V30 247 C 26.0907 0.579144 -2.21762 0
M  V30 248 C 27.0907 1.07047 -1.1999 0
M  V30 249 O 28.2807 0.968384 -1.44803 0
M  V30 250 C 25.4127 1.80055 -2.8947 0
M  V30 251 H 26.6057 -0.00464908 -2.999 0
M  V30 252 H 24.1587 -0.0399306 -1.56249 0
M  V30 253 H 24.8937 2.42449 -2.15381 0
M  V30 254 H 24.6787 1.45602 -3.64064 0
M  V30 255 H 26.1687 2.41773 -3.40493 0
M  V30 256 N 26.6058 1.57591 -0.0167156 0
M  V30 257 C 28.0218 1.55946 0.339557 0
M  V30 258 C 28.2218 1.02109 1.73713 0
M  V30 259 O 27.2778 0.662303 2.43659 0
M  V30 260 C 28.5908 3.00037 0.199499 0
M  V30 261 C 30.1388 3.11805 0.273193 0
M  V30 262 C 30.6138 4.57713 0.162068 0
M  V30 263 N 32.1048 4.6268 0.219444 0
M  V30 264 C 32.8398 5.73185 0.157054 0
M  V30 265 N 32.3358 6.92786 0.0442936 0
M  V30 266 N 34.1288 5.61707 0.21014 0
M  V30 267 H 26.2798 1.90921 -0.930758 0
M  V30 268 H 28.5428 0.877674 -0.358319 0
M  V30 269 H 28.2488 3.4333 -0.76273 0
M  V30 270 H 28.1228 3.64387 0.974786 0
M  V30 271 H 30.5098 2.68433 1.22587 0
M  V30 272 H 30.5908 2.50201 -0.532256 0
M  V30 273 H 30.2348 5.01763 -0.78714 0
M  V30 274 H 30.1648 5.17283 0.986222 0
M  V30 275 H 32.6558 3.76649 0.307246 0
M  V30 276 H 32.9688 7.728 0.00304069 0
M  V30 277 H 31.3138 6.94999 0.00968457 0
M  V30 278 H 34.5048 4.6716 0.296546 0
M  V30 279 H 34.6778 6.47807 0.158054 0
M  V30 280 N 28.0839 -0.256276 1.55502 0
M  V30 281 C 29.0139 -1.32102 1.92539 0
M  V30 282 C 29.9949 -1.50684 0.789194 0
M  V30 283 O 31.1799 -1.63449 1.04872 0
M  V30 284 C 28.3099 -2.67752 2.21192 0
M  V30 285 C 27.2639 -2.63878 3.36975 0
M  V30 286 C 26.5899 -4.03236 3.51147 0
M  V30 287 C 27.8899 -2.21682 4.72921 0
M  V30 288 H 29.5839 -1.01351 2.81724 0
M  V30 289 H 27.1299 -0.486105 1.35547 0
M  V30 290 H 29.0829 -3.42365 2.45691 0
M  V30 291 H 27.8069 -3.0012 1.28824 0
M  V30 292 H 26.4659 -1.91722 3.12471 0
M  V30 293 H 26.1139 -4.32854 2.56216 0
M  V30 294 H 25.8139 -4.01535 4.29003 0
M  V30 295 H 27.3379 -4.79563 3.77957 0
M  V30 296 H 28.7519 -2.86023 4.96854 0
M  V30 297 H 27.1489 -2.3111 5.53812 0
M  V30 298 H 28.2189 -1.16833 4.70615 0
M  V30 299 N 29.562 -1.4872 -0.521534 0
M  V30 300 C 30.973 -1.50607 -1.10337 0
M  V30 301 C 31.324 -0.280612 -1.94183 0
M  V30 302 O 30.449 0.611507 -2.0758 0
M  V30 303 C 31.044 -2.72903 -2.00772 0
M  V30 304 C 29.603 -2.77634 -2.54158 0
M  V30 305 C 28.75 -2.44241 -1.31307 0
M  V30 306 H 31.701 -1.55714 -0.306388 0
M  V30 307 H 31.722 -2.519 -2.85178 0
M  V30 308 H 31.234 -3.62077 -1.39721 0
M  V30 309 H 29.335 -1.92689 -3.18907 0
M  V30 310 H 29.448 -3.79283 -2.92714 0
M  V30 311 H 27.812 -1.95577 -1.63161 0
M  V30 312 H 28.595 -3.35666 -0.719943 0
M  V30 313 N 31.0401 0.771051 -1.3745 0
M  V30 314 C 32.4561 1.07171 -1.18265 0
M  V30 315 C 32.6561 2.01491 -0.019287 0
M  V30 316 O 31.7121 2.44244 0.640408 0
M  V30 317 C 33.0251 1.66854 -2.50161 0
M  V30 318 C 34.5731 1.79109 -2.56689 0
M  V30 319 C 35.0481 2.42205 -3.88717 0
M  V30 320 N 36.5391 2.49655 -3.90162 0
M  V30 321 C 37.2741 2.9933 -4.8907 0
M  V30 322 N 36.7701 3.49172 -5.98374 0
M  V30 323 N 38.5631 2.9821 -4.76474 0
M  V30 324 H 30.7141 0.144796 -2.11906 0
M  V30 325 H 32.9771 0.126863 -0.939473 0
M  V30 326 H 32.6831 1.05017 -3.35655 0
M  V30 327 H 32.5571 2.6614 -2.673 0
M  V30 328 H 34.9441 2.40077 -1.71601 0
M  V30 329 H 35.0251 0.785757 -2.43433 0
M  V30 330 H 34.6691 1.81875 -4.74219 0
M  V30 331 H 34.5991 3.43345 -3.99276 0
M  V30 332 H 37.0901 2.14383 -3.11205 0
M  V30 333 H 37.4031 3.8548 -6.69795 0
M  V30 334 H 35.7481 3.47275 -6.02018 0
M  V30 335 H 38.9391 2.58572 -3.90203 0
M  V30 336 H 39.1121 3.36613 -5.53711 0
M  V30 337 N 32.5182 1.22032 0.997298 0
M  V30 338 C 33.7462 1.06841 1.7718 0
M  V30 339 C 34.1612 -0.381325 1.84909 0
M  V30 340 O 33.5182 -1.26437 1.31605 0
M  V30 341 C 33.5692 1.66814 3.20711 0
M  V30 342 O 33.2902 3.06116 3.13408 0
M  V30 343 C 34.7912 1.56838 4.14628 0
M  V30 344 H 32.0112 0.374782 0.556578 0
M  V30 345 H 34.5552 1.61532 1.2541 0
M  V30 346 H 32.7102 1.16196 3.69564 0
M  V30 347 H 33.1242 3.34926 4.0364 0
M  V30 348 H 34.5982 2.03532 5.13107 0
M  V30 349 H 35.0752 0.524155 4.36061 0
M  V30 350 H 35.6812 2.06741 3.7167 0
M  V30 351 N 33.9963 -1.19345 1.0293 0
M  V30 352 C 35.4073 -1.70725 0.755633 0
M  V30 353 C 35.7583 -1.82326 -0.724676 0
M  V30 354 O 34.8833 -1.49471 -1.56484 0
M  V30 355 C 35.4783 -3.10084 1.36503 0
M  V30 356 C 34.0373 -3.58723 1.13994 0
M  V30 357 C 33.1843 -2.35577 1.46283 0
M  V30 358 H 36.1353 -1.0418 1.19718 0
M  V30 359 H 36.1563 -3.72787 0.762217 0
M  V30 360 H 35.6683 -3.01609 2.44241 0
M  V30 361 H 33.7693 -3.72512 0.0807901 0
M  V30 362 H 33.8823 -4.42816 1.82894 0
M  V30 363 H 32.2463 -2.38935 0.88217 0
M  V30 364 H 33.0293 -2.29731 2.55105 0
M  V30 365 N 35.4744 -0.807222 -1.35358 0
M  V30 366 C 36.8904 -0.491038 -1.51858 0
M  V30 367 C 37.0904 0.987648 -1.75635 0
M  V30 368 O 36.1464 1.77265 -1.79815 0
M  V30 369 C 37.4594 -1.33695 -2.69344 0
M  V30 370 C 39.0074 -1.33246 -2.83222 0
M  V30 371 C 39.4824 -2.1625 -4.03733 0
M  V30 372 N 40.9734 -2.1379 -4.10911 0
M  V30 373 C 41.7084 -2.74772 -5.03277 0
M  V30 374 N 41.2044 -3.44684 -6.0097 0
M  V30 375 N 42.9974 -2.6441 -4.96028 0
M  V30 376 H 35.1484 -1.76485 -1.18181 0
M  V30 377 H 37.4114 -0.751199 -0.578276 0
M  V30 378 H 37.1174 -2.38634 -2.58354 0
M  V30 379 H 36.9914 -0.990618 -3.6396 0
M  V30 380 H 39.3784 -0.290911 -2.93663 0
M  V30 381 H 39.4594 -1.71866 -1.89461 0
M  V30 382 H 39.1034 -3.20445 -3.94052 0
M  V30 383 H 39.0334 -1.74989 -4.96675 0
M  V30 384 H 41.5244 -1.62923 -3.40976 0
M  V30 385 H 41.8374 -3.88501 -6.68047 0
M  V30 386 H 40.1824 -3.48788 -6.01142 0
M  V30 387 H 43.3734 -2.0938 -4.18662 0
M  V30 388 H 43.5464 -3.12225 -5.6782 0
M  V30 389 N 36.9525 1.47285 -0.560781 0
M  V30 390 C 37.9155 2.28535 0.174488 0
M  V30 391 C 38.9155 1.37153 0.839388 0
M  V30 392 O 40.1055 1.59748 0.694702 0
M  V30 393 C 37.2375 3.16934 1.25561 0
M  V30 394 H 38.4305 2.95012 -0.539262 0
M  V30 395 H 35.9835 1.53034 -0.317865 0
M  V30 396 H 36.7185 2.55157 2.00164 0
M  V30 397 H 36.5035 3.8419 0.783604 0
M  V30 398 H 37.9935 3.78143 1.77193 0
M  V30 399 N 38.4306 0.297415 1.54768 0
M  V30 400 C 39.7076 -0.365847 1.92148 0
M  V30 401 C 40.0876 -1.71975 1.22424 0
M  V30 402 O 39.4356 -2.25666 0.358739 0
M  V30 403 C 39.6456 -0.484056 3.45627 0
M  V30 404 C 40.9936 -0.756594 4.17805 0
M  V30 405 O 42.0176 -0.568007 3.51642 0
M  V30 406 O 40.8766 -1.11863 5.34929 0
M  V30 407 H 37.9706 -0.203919 0.801465 0
M  V30 408 H 40.5166 0.34521 1.66152 0
M  V30 409 H 39.2886 0.467865 3.88493 0
M  V30 410 H 38.9116 -1.24372 3.77647 0
M  V30 411 N 39.9087 -1.5758 0.0250728 0
M  V30 412 C 40.8387 -2.13007 -0.956575 0
M  V30 413 C 41.8197 -1.0452 -1.342 0
M  V30 414 O 43.0047 -1.32332 -1.42133 0
M  V30 415 C 40.1347 -2.65386 -2.24026 0
M  V30 416 C 39.0887 -3.78623 -1.99571 0
M  V30 417 C 38.4147 -4.17414 -3.3417 0
M  V30 418 C 39.7147 -5.04867 -1.33814 0
M  V30 419 H 41.4087 -2.9528 -0.494991 0
M  V30 420 H 38.9547 -1.42042 -0.236651 0
M  V30 421 H 40.9077 -3.02794 -2.93076 0
M  V30 422 H 39.6317 -1.80268 -2.72343 0
M  V30 423 H 38.2907 -3.41646 -1.32941 0
M  V30 424 H 37.9387 -3.29284 -3.80238 0
M  V30 425 H 37.6387 -4.93719 -3.18615 0
M  V30 426 H 39.1627 -4.57402 -4.04495 0
M  V30 427 H 40.5767 -5.39888 -1.92857 0
M  V30 428 H 38.9737 -5.86144 -1.28669 0
M  V30 429 H 40.0437 -4.83904 -0.310561 0
M  V30 430 N 41.3868 0.248026 -1.55636 0
M  V30 431 C 42.6168 0.992367 -1.81206 0
M  V30 432 C 43.0248 1.7949 -0.598324 0
M  V30 433 O 42.3678 1.78292 0.442434 0
M  V30 434 C 42.4298 1.97926 -3.00109 0
M  V30 435 C 42.0938 1.36377 -4.36177 0
M  V30 436 C 43.0908 0.76682 -5.14214 0
M  V30 437 C 40.7758 1.38347 -4.82872 0
M  V30 438 C 42.7698 0.197778 -6.37093 0
M  V30 439 C 40.4568 0.810574 -6.057 0
M  V30 440 C 41.4548 0.218754 -6.8265 0
M  V30 441 O 41.1428 -0.345298 -8.03158 0
M  V30 442 H 40.8748 0.297704 -0.606917 0
M  V30 443 H 43.4288 0.276517 -2.0353 0
M  V30 444 H 41.6588 2.73339 -2.73538 0
M  V30 445 H 43.3478 2.58694 -3.12781 0
M  V30 446 H 44.1138 0.744114 -4.79258 0
M  V30 447 H 39.9928 1.8335 -4.2297 0
M  V30 448 H 43.5368 -0.264788 -6.97097 0
M  V30 449 H 39.4338 0.830604 -6.40134 0
M  V30 450 H 40.2018 -0.237055 -8.18157 0
M  V30 451 N 42.8649 1.48995 0.513639 0
M  V30 452 C 43.8279 1.64229 1.59879 0
M  V30 453 C 44.8279 0.514696 1.5234 0
M  V30 454 O 46.0179 0.78087 1.55718 0
M  V30 455 C 43.1499 1.62783 2.99524 0
M  V30 456 H 44.3429 2.61004 1.47705 0
M  V30 457 H 41.8959 1.37837 0.736936 0
M  V30 458 H 42.6309 0.675461 3.17188 0
M  V30 459 H 42.4159 2.4466 3.06404 0
M  V30 460 H 43.9059 1.76669 3.78388 0
M  V30 461 N 44.343 -0.763751 1.37857 0
M  V30 462 C 45.59 -1.52257 1.33506 0
M  V30 463 C 45.918 -1.94343 -0.078022 0
M  V30 464 O 45.173 -1.64958 -1.05297 0
M  V30 465 C 45.472 -2.79499 2.22745 0
M  V30 466 C 45.138 -2.56426 3.70886 0
M  V30 467 C 43.8 -2.49842 4.11257 0
M  V30 468 C 46.152 -2.36008 4.64704 0
M  V30 469 C 43.48 -2.20841 5.43549 0
M  V30 470 C 45.832 -2.0853 5.97242 0
M  V30 471 C 44.496 -2.00396 6.36709 0
M  V30 472 H 43.766 -0.557149 0.488534 0
M  V30 473 H 46.413 -0.879073 1.70131 0
M  V30 474 H 44.718 -3.48447 1.79142 0
M  V30 475 H 46.415 -3.37413 2.16688 0
M  V30 476 H 43.005 -2.62416 3.38874 0
M  V30 477 H 47.189 -2.40079 4.34368 0
M  V30 478 H 42.445 -2.13045 5.73081 0
M  V30 479 H 46.619 -1.91732 6.69486 0
M  V30 480 H 44.246 -1.77688 7.39142 0
M  V30 481 N 45.8211 -1.22559 -0.990812 0
M  V30 482 C 46.7511 -1.0218 -2.09956 0
M  V30 483 C 47.7321 0.0579394 -1.70001 0
M  V30 484 O 48.9171 -0.104684 -1.93918 0
M  V30 485 C 46.0471 -0.601023 -3.4206 0
M  V30 486 C 45.0011 -1.62694 -3.95872 0
M  V30 487 C 44.3271 -1.06193 -5.24049 0
M  V30 488 C 45.6271 -3.01743 -4.2632 0
M  V30 489 H 47.3211 -1.94916 -2.27262 0
M  V30 490 H 44.8671 -0.938566 -1.09211 0
M  V30 491 H 46.8201 -0.445561 -4.19038 0
M  V30 492 H 45.5441 0.362005 -3.24588 0
M  V30 493 H 44.2031 -1.77021 -3.21028 0
M  V30 494 H 43.8511 -0.0901903 -5.02919 0
M  V30 495 H 43.5511 -1.74732 -5.61019 0
M  V30 496 H 45.0751 -0.918092 -6.03658 0
M  V30 497 H 46.4891 -2.90777 -4.94087 0
M  V30 498 H 44.8861 -3.67425 -4.74467 0
M  V30 499 H 45.9561 -3.51518 -3.34011 0
M  V30 500 N 47.2992 1.18797 -1.03562 0
M  V30 501 C 48.5762 1.84469 -0.650434 0
M  V30 502 C 48.9562 1.92319 0.870433 0
M  V30 503 O 48.3042 1.44528 1.76986 0
M  V30 504 C 48.5142 3.2306 -1.32036 0
M  V30 505 C 49.8622 3.9915 -1.44792 0
M  V30 506 O 50.8862 3.32481 -1.27806 0
M  V30 507 O 49.7452 5.18587 -1.72423 0
M  V30 508 H 46.8392 0.795251 -0.226946 0
M  V30 509 H 49.3852 1.26231 -1.13419 0
M  V30 510 H 48.1572 3.1222 -2.3587 0
M  V30 511 H 47.7802 3.88949 -0.8249 0
M  V30 512 N 48.7773 0.814389 1.34928 0
M  V30 513 C 49.7403 0.235759 2.27984 0
M  V30 514 C 50.7403 -0.581412 1.49921 0
M  V30 515 O 51.9303 -0.398758 1.69575 0
M  V30 516 C 49.0623 -0.670433 3.34242 0
M  V30 517 H 50.2553 1.05659 2.80671 0
M  V30 518 H 47.8083 0.585614 1.44915 0
M  V30 519 H 48.5433 -1.51466 2.86755 0
M  V30 520 H 48.3283 -0.0860822 3.92005 0
M  V30 521 H 49.8183 -1.06935 4.03676 0
M  V30 522 N 50.2554 -1.46986 0.568584 0
M  V30 523 C 51.2184 -2.28624 -0.162366 0
M  V30 524 C 52.2184 -1.37596 -0.832103 0
M  V30 525 O 53.4084 -1.60115 -0.68622 0
M  V30 526 C 50.5404 -3.17596 -1.23878 0
M  V30 527 H 51.7334 -2.94722 0.554899 0
M  V30 528 H 49.2864 -1.52863 0.325976 0
M  V30 529 H 50.0214 -2.56214 -1.98808 0
M  V30 530 H 49.8064 -3.846 -0.763219 0
M  V30 531 H 51.2964 -3.79078 -1.75185 0
M  V30 532 N 51.7335 -0.305618 -1.54608 0
M  V30 533 C 52.6835 0.583595 -2.20405 0
M  V30 534 C 53.6675 1.09539 -1.17856 0
M  V30 535 O 54.8595 1.0354 -1.43557 0
M  V30 536 C 51.9885 1.75277 -2.95183 0
M  V30 537 C 51.0745 1.25672 -4.05052 0
M  V30 538 N 51.4655 0.478998 -5.03527 0
M  V30 539 C 49.7635 1.53704 -4.18678 0
M  V30 540 C 50.4645 0.214269 -5.81305 0
M  V30 541 N 49.4405 0.795374 -5.3775 0
M  V30 542 H 53.2425 -0.0180946 -2.93894 0
M  V30 543 H 50.7565 -0.110601 -1.62023 0
M  V30 544 H 52.7535 2.4014 -3.40791 0
M  V30 545 H 51.4135 2.35812 -2.23211 0
M  V30 546 H 52.4245 0.123473 -5.17753 0
M  V30 547 H 49.1015 2.14954 -3.57912 0
M  V30 548 H 50.4915 -0.410656 -6.70644 0
M  V30 549 N 53.2116 1.57565 -0.0334293 0
M  V30 550 C 54.4396 1.9628 0.654347 0
M  V30 551 C 54.8546 0.910138 1.65414 0
M  V30 552 O 54.2116 -0.107595 1.82183 0
M  V30 553 C 54.2626 3.35067 1.35693 0
M  V30 554 O 53.9836 4.36296 0.397191 0
M  V30 555 C 55.4846 3.88439 2.13613 0
M  V30 556 H 52.7046 0.646369 0.180132 0
M  V30 557 H 55.2486 2.04282 -0.0944721 0
M  V30 558 H 53.4036 3.2827 2.05712 0
M  V30 559 H 53.8176 5.1678 0.896597 0
M  V30 560 H 55.2916 4.8788 2.58219 0
M  V30 561 H 55.7686 3.22914 2.97696 0
M  V30 562 H 56.3746 3.98516 1.48543 0
M  V30 563 N 54.6897 -0.239769 1.55765 0
M  V30 564 C 55.6527 -1.28038 1.90103 0
M  V30 565 C 56.6527 -1.40723 0.778055 0
M  V30 566 O 57.8427 -1.39301 1.04599 0
M  V30 567 C 54.9747 -2.65702 2.13577 0
M  V30 568 H 56.1677 -0.988048 2.83157 0
M  V30 569 H 53.7207 -0.479382 1.48767 0
M  V30 570 H 54.4557 -3.00063 1.23015 0
M  V30 571 H 54.2407 -2.57875 2.95369 0
M  V30 572 H 55.7307 -3.40828 2.41301 0
M  V30 573 N 56.1678 -1.49265 -0.50573 0
M  V30 574 C 57.1308 -1.65075 -1.59006 0
M  V30 575 C 58.1308 -0.522768 -1.52065 0
M  V30 576 O 59.3208 -0.789117 -1.55302 0
M  V30 577 C 56.4528 -1.64369 -2.98656 0
M  V30 578 H 57.6458 -2.61784 -1.46319 0
M  V30 579 H 55.1988 -1.38226 -0.729616 0
M  V30 580 H 55.9338 -0.692272 -3.16825 0
M  V30 581 H 55.7188 -2.46282 -3.05103 0
M  V30 582 H 57.2088 -1.78674 -3.77446 0
M  V30 583 N 57.6459 0.756429 -1.3826 0
M  V30 584 C 58.6089 1.85176 -1.35065 0
M  V30 585 C 59.6089 1.58818 -0.251703 0
M  V30 586 O 60.7989 1.66615 -0.508433 0
M  V30 587 C 57.9309 3.22596 -1.10201 0
M  V30 588 H 59.1239 1.89417 -2.3251 0
M  V30 589 H 56.6769 0.95783 -1.23512 0
M  V30 590 H 57.4119 3.24025 -0.133504 0
M  V30 591 H 57.1969 3.43122 -1.89762 0
M  V30 592 H 58.6869 4.02673 -1.10654 0
M  V30 593 N 59.124 1.23083 0.984299 0
M  V30 594 C 60.349 1.088 1.76571 0
M  V30 595 C 60.774 -0.356657 1.84688 0
M  V30 596 O 60.132 -1.25788 1.30565 0
M  V30 597 C 60.18 1.71371 3.17277 0
M  V30 598 O 59.284 0.973213 4.00752 0
M  V30 599 H 58.625 0.381599 0.543395 0
M  V30 600 H 61.155 1.63057 1.23587 0
M  V30 601 H 61.165 1.76449 3.67872 0
M  V30 602 H 59.84 2.76493 3.10684 0
M  V30 603 H 58.417 0.999078 3.59267 0
M  V30 604 N 60.6021 -1.18246 1.0419 0
M  V30 605 C 61.5321 -2.24127 0.654914 0
M  V30 606 C 62.5131 -1.66617 -0.342451 0
M  V30 607 O 63.6981 -1.92924 -0.222277 0
M  V30 608 C 60.8281 -3.47295 0.0183757 0
M  V30 609 C 59.7821 -4.17563 0.939414 0
M  V30 610 C 59.1081 -5.34438 0.167286 0
M  V30 611 C 60.4081 -4.70917 2.25908 0
M  V30 612 H 62.1021 -2.56753 1.54007 0
M  V30 613 H 59.6481 -1.23414 0.74195 0
M  V30 614 H 61.6011 -4.20572 -0.264082 0
M  V30 615 H 60.3251 -3.13907 -0.901664 0
M  V30 616 H 58.9841 -3.46186 1.20628 0
M  V30 617 H 58.6321 -4.97298 -0.7552 0
M  V30 618 H 58.3321 -5.82388 0.780901 0
M  V30 619 H 59.8561 -6.10504 -0.108125 0
M  V30 620 H 61.2701 -5.35882 2.03724 0
M  V30 621 H 59.6671 -5.29406 2.82577 0
M  V30 622 H 60.7371 -3.88272 2.9047 0
M  V30 623 N 62.0802 -0.821533 -1.34494 0
M  V30 624 C 63.4912 -0.467956 -1.8074 0
M  V30 625 C 63.8422 1.01151 -1.68116 0
M  V30 626 O 62.9672 1.78707 -1.22036 0
M  V30 627 C 63.5622 -0.842627 -3.28154 0
M  V30 628 C 62.1212 -0.541439 -3.72485 0
M  V30 629 C 61.2682 -1.06028 -2.56229 0
M  V30 630 H 64.2192 -1.01183 -1.22261 0
M  V30 631 H 64.2402 -0.145876 -3.8022 0
M  V30 632 H 63.7522 -1.91945 -3.37311 0
M  V30 633 H 61.8532 0.526034 -3.68868 0
M  V30 634 H 61.9662 -1.08453 -4.66663 0
M  V30 635 H 60.3302 -0.481892 -2.501 0
M  V30 636 H 61.1132 -2.14352 -2.68157 0
M  V30 637 N 63.5583 1.46682 -0.576371 0
M  V30 638 C 64.8063 2.02013 -0.0594163 0
M  V30 639 C 65.1273 1.45101 1.30271 0
M  V30 640 O 64.3973 0.633317 1.8538 0
M  V30 641 H 62.9773 0.746759 -0.0189745 0
M  V30 642 H 65.6393 1.79862 -0.750717 0
M  V30 643 H 64.7353 3.12097 0.014345 0
M  V30 644 N 65.0364 0.313813 1.54444 0
M  V30 645 C 65.9994 -0.54379 2.22656 0
M  V30 646 C 66.9994 -1.05124 1.21678 0
M  V30 647 O 68.1894 -0.945225 1.46325 0
M  V30 648 C 65.3214 -1.75427 2.92298 0
M  V30 649 H 66.5144 0.0523599 2.99854 0
M  V30 650 H 64.0674 0.0647834 1.56166 0
M  V30 651 H 64.8024 -2.38991 2.19211 0
M  V30 652 H 64.5874 -1.39791 3.66334 0
M  V30 653 H 66.0774 -2.36325 3.44297 0
M  V30 654 N 66.5145 -1.57545 0.0417849 0
M  V30 655 C 67.4445 -2.14009 -0.933929 0
M  V30 656 C 68.4255 -1.05938 -1.33083 0
M  V30 657 O 69.6105 -1.33833 -1.40721 0
M  V30 658 C 66.7405 -2.67747 -2.21199 0
M  V30 659 C 65.6945 -3.80718 -1.95544 0
M  V30 660 C 65.0205 -4.20935 -3.29724 0
M  V30 661 C 66.3205 -5.06258 -1.28452 0
M  V30 662 H 68.0145 -2.95788 -0.463645 0
M  V30 663 H 65.5605 -1.42285 -0.221573 0
M  V30 664 H 67.5135 -3.05886 -2.89848 0
M  V30 665 H 66.2375 -1.83147 -2.70416 0
M  V30 666 H 64.8965 -3.43037 -1.2931 0
M  V30 667 H 64.5445 -3.33298 -3.76724 0
M  V30 668 H 64.2445 -4.9707 -3.13361 0
M  V30 669 H 65.7685 -4.61666 -3.9962 0
M  V30 670 H 67.1825 -5.41903 -1.8712 0
M  V30 671 H 65.5795 -5.87475 -1.22445 0
M  V30 672 H 66.6495 -4.84207 -0.259219 0
M  V30 673 N 67.9926 0.231505 -1.5589 0
M  V30 674 C 68.9556 1.27028 -1.90779 0
M  V30 675 C 69.9556 1.40308 -0.785507 0
M  V30 676 O 71.1456 1.38744 -1.05336 0
M  V30 677 C 68.2776 2.64566 -2.14983 0
M  V30 678 H 69.4706 0.973017 -2.83677 0
M  V30 679 H 67.0236 0.471486 -1.49019 0
M  V30 680 H 67.7586 2.99406 -1.24604 0
M  V30 681 H 67.5436 2.56305 -2.96732 0
M  V30 682 H 69.0336 3.39543 -2.43105 0
M  V30 683 N 69.4707 1.49531 0.497807 0
M  V30 684 C 70.6987 1.62893 1.27567 0
M  V30 685 C 71.1137 0.301585 1.86376 0
M  V30 686 O 70.4707 -0.713335 1.67982 0
M  V30 687 C 70.5217 2.70013 2.40364 0
M  V30 688 O 70.2427 3.976 1.83972 0
M  V30 689 C 71.7437 2.94109 3.31685 0
M  V30 690 H 68.9637 0.548298 0.386794 0
M  V30 691 H 71.5077 1.95584 0.597245 0
M  V30 692 H 69.6627 2.40092 3.04031 0
M  V30 693 H 70.0767 4.56631 2.58047 0
M  V30 694 H 71.5507 3.72788 4.07104 0
M  V30 695 H 72.0277 2.04147 3.88871 0
M  V30 696 H 72.6337 3.2546 2.73781 0
M  V30 697 N 70.9488 -0.749086 1.3866 0
M  V30 698 C 71.9118 -1.84457 1.36045 0
M  V30 699 C 72.9118 -1.58682 0.260122 0
M  V30 700 O 74.1018 -1.66343 0.517261 0
M  V30 701 C 71.2338 -3.22008 1.11911 0
M  V30 702 H 72.4268 -1.88182 2.33512 0
M  V30 703 H 69.9798 -0.951266 1.24019 0
M  V30 704 H 70.7148 -3.2395 0.150686 0
M  V30 705 H 70.4998 -3.42111 1.91579 0
M  V30 706 H 71.9898 -4.0208 1.12788 0
M  V30 707 N 72.4269 -1.23603 -0.977757 0
M  V30 708 C 73.3569 -1.04401 -2.0886 0
M  V30 709 C 74.3379 0.0399052 -1.70053 0
M  V30 710 O 75.5229 -0.125246 -1.93796 0
M  V30 711 C 72.6529 -0.637269 -3.41403 0
M  V30 712 C 71.6069 -1.66883 -3.94124 0
M  V30 713 C 70.9329 -1.11745 -5.22893 0
M  V30 714 C 72.2329 -3.06247 -4.23096 0
M  V30 715 H 73.9269 -1.97316 -2.25182 0
M  V30 716 H 71.4729 -0.950096 -1.08209 0
M  V30 717 H 73.4259 -0.48998 -4.18542 0
M  V30 718 H 72.1499 0.327557 -3.24953 0
M  V30 719 H 70.8089 -1.80416 -3.19133 0
M  V30 720 H 70.4569 -0.143527 -5.02795 0
M  V30 721 H 70.1569 -1.80672 -5.59134 0
M  V30 722 H 71.6809 -0.982067 -6.02651 0
M  V30 723 H 73.0949 -2.96001 -4.90975 0
M  V30 724 H 71.4919 -3.72436 -4.70544 0
M  V30 725 H 72.5619 -3.55041 -3.30263 0
M  V30 726 N 73.905 1.17692 -1.04816 0
M  V30 727 C 75.182 1.83768 -0.669963 0
M  V30 728 C 75.562 1.93232 0.849986 0
M  V30 729 O 74.91 1.46397 1.75443 0
M  V30 730 C 75.12 3.21641 -1.35455 0
M  V30 731 C 76.468 3.97592 -1.49017 0
M  V30 732 O 77.492 3.31107 -1.31326 0
M  V30 733 O 76.351 5.16729 -1.77914 0
M  V30 734 H 73.445 0.792799 -0.235368 0
M  V30 735 H 75.991 1.25021 -1.14751 0
M  V30 736 H 74.763 3.097 -2.39168 0
M  V30 737 H 74.386 3.88052 -0.866107 0
M  V30 738 N 75.3831 0.828654 1.34056 0
M  V30 739 C 76.6111 0.43262 2.02326 0
M  V30 740 C 77.0261 -0.963147 1.62385 0
M  V30 741 O 76.3831 -1.62425 0.832121 0
M  V30 742 C 76.4341 0.53182 3.57567 0
M  V30 743 O 76.1551 1.87258 3.96063 0
M  V30 744 C 77.6561 0.131422 4.43105 0
M  V30 745 H 74.8761 0.172923 0.648335 0
M  V30 746 H 77.4201 1.1184 1.71208 0
M  V30 747 H 75.5751 -0.105938 3.87255 0
M  V30 748 H 75.9891 1.85087 4.90758 0
M  V30 749 H 77.4631 0.251904 5.51425 0
M  V30 750 H 77.9401 -0.925645 4.29335 0
M  V30 751 H 78.5461 0.743207 4.18756 0
M  V30 752 N 76.8612 -1.46375 0.584142 0
M  V30 753 C 78.1082 -2.02378 0.0702675 0
M  V30 754 C 78.4362 -1.45545 -1.29023 0
M  V30 755 O 77.6912 -0.610967 -1.85918 0
M  V30 756 C 77.9902 -3.57373 -0.0439342 0
M  V30 757 C 77.6562 -4.33252 1.24915 0
M  V30 758 C 76.3182 -4.53701 1.60341 0
M  V30 759 C 78.6702 -4.7681 2.1048 0
M  V30 760 C 75.9982 -5.1496 2.81128 0
M  V30 761 C 78.3502 -5.39404 3.30494 0
M  V30 762 C 77.0142 -5.5808 3.66201 0
M  V30 763 H 76.2842 -0.740554 0.0257127 0
M  V30 764 H 78.9312 -1.75727 0.761065 0
M  V30 765 H 77.2362 -3.83169 -0.817869 0
M  V30 766 H 78.9332 -3.98384 -0.457318 0
M  V30 767 H 75.5232 -4.17633 0.963364 0
M  V30 768 H 79.7072 -4.60766 1.84414 0
M  V30 769 H 74.9632 -5.27611 3.08928 0
M  V30 770 H 79.1372 -5.72114 3.97063 0
M  V30 771 H 76.7642 -6.05318 4.59885 0
M  V30 772 N 78.3393 -0.321999 -1.54275 0
M  V30 773 C 79.2873 0.560206 -2.25753 0
M  V30 774 C 80.2813 1.11984 -1.27106 0
M  V30 775 O 81.4873 1.06806 -1.44888 0
M  V30 776 H 77.8623 0.199304 -0.725108 0
M  V30 777 H 79.8333 -0.0649365 -2.98329 0
M  V30 778 C 78.5823 1.71023 -3.02731 0
M  V30 779 H 77.9053 1.28885 -3.78456 0
M  V30 780 H 79.3453 2.30314 -3.55993 0
M  V30 781 C 77.8043 2.62692 -2.10938 0
M  V30 782 O 78.3343 3.64364 -1.6912 0
M  V30 783 N 76.5403 2.30891 -1.76459 0
M  V30 784 H 76.0873 1.48253 -2.10663 0
M  V30 785 H 76.0453 2.92487 -1.1532 0
M  V30 786 N 79.8174 1.5752 -0.0501392 0
M  V30 787 C 80.7804 2.1037 0.909786 0
M  V30 788 C 81.7804 1.02308 1.24056 0
M  V30 789 O 82.9704 1.28385 1.17741 0
M  V30 790 C 80.1024 2.58708 2.21998 0
M  V30 791 H 81.2954 2.96479 0.451665 0
M  V30 792 H 78.8484 1.55038 0.198248 0
M  V30 793 H 79.5834 1.75989 2.72394 0
M  V30 794 H 79.3684 3.37675 1.99295 0
M  V30 795 H 80.8584 2.99747 2.9076 0
M  V30 796 N 81.2955 -0.223234 1.56011 0
M  V30 797 C 82.2055 -1.29766 1.95443 0
M  V30 798 C 83.2215 -1.51373 0.858028 0
M  V30 799 O 84.3975 -1.64536 1.16146 0
M  V30 800 C 81.4625 -2.62772 2.26167 0
M  V30 801 C 80.5235 -2.49482 3.49367 0
M  V30 802 C 79.7565 -3.76145 3.78616 0
M  V30 803 O 79.9795 -4.79087 3.09568 0
M  V30 804 O 78.9135 -3.73358 4.72109 0
M  V30 805 H 82.7395 -0.99309 2.87004 0
M  V30 806 H 80.3245 -0.425958 1.43199 0
M  V30 807 H 82.2065 -3.41327 2.47131 0
M  V30 808 H 80.8815 -2.92913 1.37781 0
M  V30 809 H 79.7885 -1.69133 3.33684 0
M  V30 810 H 81.1215 -2.2428 4.38131 0
M  V30 811 N 82.7736 -1.49793 -0.48987 0
M  V30 812 C 84.0216 -1.59525 -1.24081 0
M  V30 813 C 84.3426 -0.288953 -1.92847 0
M  V30 814 O 83.6126 0.692436 -1.83254 0
M  V30 815 H 82.1926 -0.587796 -0.460983 0
M  V30 816 H 84.8546 -1.86477 -0.566778 0
M  V30 817 H 83.9506 -2.39696 -1.99881 0
M  V30 818 N 84.2517 0.741722 -1.39055 0
M  V30 819 C 85.4767 1.53607 -1.39354 0
M  V30 820 C 85.9017 1.88096 0.0116905 0
M  V30 821 O 85.2597 1.5143 0.996924 0
M  V30 822 C 85.3077 2.80441 -2.26682 0
M  V30 823 O 84.4117 3.76088 -1.69208 0
M  V30 824 H 83.7527 0.464142 -0.474835 0
M  V30 825 H 86.2827 0.915665 -1.82967 0
M  V30 826 H 86.2927 3.29246 -2.40959 0
M  V30 827 H 84.9677 2.5467 -3.2881 0
M  V30 828 H 83.5447 3.34833 -1.64138 0
M  V30 829 N 85.7298 1.2412 0.971189 0
M  V30 830 C 86.6398 1.04747 2.09917 0
M  V30 831 C 87.6558 -0.0107162 1.73997 0
M  V30 832 O 88.8318 0.186714 2.00533 0
M  V30 833 C 85.8968 0.650828 3.40537 0
M  V30 834 C 84.9578 1.7851 3.90426 0
M  V30 835 C 84.1908 1.40729 5.14812 0
M  V30 836 O 84.4138 0.29557 5.69634 0
M  V30 837 O 83.3478 2.23168 5.58999 0
M  V30 838 H 87.1738 1.99304 2.29154 0
M  V30 839 H 84.7588 1.02908 1.08307 0
M  V30 840 H 86.6408 0.440992 4.19086 0
M  V30 841 H 85.3158 -0.265649 3.22608 0
M  V30 842 H 84.2228 2.04966 3.12953 0
M  V30 843 H 85.5558 2.68023 4.12825 0
M  V30 844 N 87.2079 -1.17134 1.05439 0
M  V30 845 C 88.4849 -1.83411 0.679699 0
M  V30 846 C 88.8649 -1.9368 -0.839726 0
M  V30 847 O 88.2129 -1.47325 -1.74664 0
M  V30 848 C 88.4229 -3.20918 1.37159 0
M  V30 849 C 89.7709 -3.96796 1.51123 0
M  V30 850 O 90.7949 -3.30406 1.3308 0
M  V30 851 O 89.6539 -5.15778 1.80651 0
M  V30 852 H 86.7479 -0.79154 0.239569 0
M  V30 853 H 89.2939 -1.24411 1.15413 0
M  V30 854 H 88.0659 -3.08428 2.40807 0
M  V30 855 H 87.6889 -3.87587 0.886674 0
M  V30 856 N 88.686 -0.835752 -1.33615 0
M  V30 857 C 89.934 -0.429109 -1.97492 0
M  V30 858 C 90.255 1.01433 -1.66543 0
M  V30 859 O 89.525 1.70611 -0.962744 0
M  V30 860 H 88.105 -0.155686 -0.730596 0
M  V30 861 H 90.767 -1.06802 -1.63031 0
M  V30 862 H 89.863 -0.55861 -3.0706 0
M  V30 863 N 90.1641 1.46063 -0.591896 0
M  V30 864 C 91.1141 2.27458 0.157172 0
M  V30 865 C 92.0981 1.3641 0.853301 0
M  V30 866 O 93.2901 1.60517 0.74588 0
M  V30 867 C 90.4191 3.22956 1.16423 0
M  V30 868 C 89.5051 4.2149 0.469742 0
M  V30 869 N 89.8961 5.03519 -0.479839 0
M  V30 870 C 88.1941 4.40161 0.719319 0
M  V30 871 C 88.8951 5.74904 -0.886591 0
M  V30 872 N 87.8711 5.43097 -0.233731 0
M  V30 873 H 91.6731 2.88272 -0.572392 0
M  V30 874 H 89.1871 1.57024 -0.414375 0
M  V30 875 H 91.1841 3.79986 1.71513 0
M  V30 876 H 89.8441 2.63701 1.89451 0
M  V30 877 H 90.8551 5.1078 -0.855823 0
M  V30 878 H 87.5321 3.92046 1.43548 0
M  V30 879 H 88.9221 6.50844 -1.66888 0
M  V30 880 N 91.6422 0.330177 1.54103 0
M  V30 881 C 92.5722 -0.525353 2.27513 0
M  V30 882 C 93.5532 -1.11383 1.2856 0
M  V30 883 O 94.7382 -1.13773 1.57383 0
M  V30 884 C 91.8682 -1.6831 3.03791 0
M  V30 885 C 90.8222 -1.2236 4.10137 0
M  V30 886 C 90.1482 -2.46882 4.74293 0
M  V30 887 C 91.4482 -0.333697 5.21233 0
M  V30 888 H 93.1422 0.087013 2.99274 0
M  V30 889 H 90.6882 0.0432893 1.43935 0
M  V30 890 H 92.6412 -2.28795 3.5388 0
M  V30 891 H 91.3652 -2.32216 2.29659 0
M  V30 892 H 90.0242 -0.64165 3.60941 0
M  V30 893 H 89.6722 -3.09165 3.96769 0
M  V30 894 H 89.3722 -2.16825 5.46133 0
M  V30 895 H 90.8962 -3.08117 5.27159 0
M  V30 896 H 92.3102 -0.845013 5.67038 0
M  V30 897 H 90.7072 -0.125612 5.99969 0
M  V30 898 H 91.7772 0.633724 4.80741 0
M  V30 899 N 93.1203 -1.57491 0.0584922 0
M  V30 900 C 94.0503 -2.14988 -0.911178 0
M  V30 901 C 95.0313 -1.07343 -1.31952 0
M  V30 902 O 96.2163 -1.35318 -1.39294 0
M  V30 903 C 93.3463 -2.70078 -2.18347 0
M  V30 904 C 92.3003 -3.82771 -1.91495 0
M  V30 905 C 91.6263 -4.24408 -3.25241 0
M  V30 906 C 92.9263 -5.07592 -1.23075 0
M  V30 907 H 94.6203 -2.96263 -0.432246 0
M  V30 908 H 92.1663 -1.42512 -0.206469 0
M  V30 909 H 94.1193 -3.08943 -2.86587 0
M  V30 910 H 92.8433 -1.86005 -2.68458 0
M  V30 911 H 91.5023 -3.44389 -1.25664 0
M  V30 912 H 91.1503 -3.37275 -3.73168 0
M  V30 913 H 90.8503 -5.00366 -3.08071 0
M  V30 914 H 92.3743 -4.65879 -3.94701 0
M  V30 915 H 93.7883 -5.43857 -1.81362 0
M  V30 916 H 92.1853 -5.88741 -1.16207 0
M  V30 917 H 93.2553 -4.84454 -0.207847 0
M  V30 918 N 94.5984 0.214957 -1.56127 0
M  V30 919 C 95.5284 1.2695 -1.95974 0
M  V30 920 C 96.5094 1.48539 -0.828868 0
M  V30 921 O 97.6944 1.60611 -1.09168 0
M  V30 922 C 94.8244 2.61794 -2.28214 0
M  V30 923 C 93.7784 2.54851 -3.43853 0
M  V30 924 C 93.1044 3.93785 -3.61715 0
M  V30 925 C 94.4044 2.09065 -4.78632 0
M  V30 926 H 96.0984 0.93846 -2.84312 0
M  V30 927 H 93.6444 0.449996 -1.36788 0
M  V30 928 H 95.5974 3.35731 -2.54682 0
M  V30 929 H 94.3214 2.96599 -1.36736 0
M  V30 930 H 92.9804 1.8337 -3.17444 0
M  V30 931 H 92.6284 4.25908 -2.67602 0
M  V30 932 H 92.3284 3.90019 -4.39498 0
M  V30 933 H 93.8524 4.69374 -3.90539 0
M  V30 934 H 95.2664 2.7275 -5.04262 0
M  V30 935 H 93.6634 2.16346 -5.59745 0
M  V30 936 H 94.7334 1.04315 -4.73547 0
M  V30 937 N 96.0765 1.50051 0.48192 0
M  V30 938 C 97.4925 1.37237 0.814756 0
M  V30 939 C 97.6925 0.420109 1.97072 0
M  V30 940 O 96.7485 -0.141246 2.52105 0
M  V30 941 C 98.0615 2.78375 1.13701 0
M  V30 942 C 99.6095 2.87213 1.2441 0
M  V30 943 C 100.084 4.29161 1.59954 0
M  V30 944 N 101.575 4.32061 1.66967 0
M  V30 945 C 102.31 5.38879 1.95952 0
M  V30 946 N 101.806 6.55918 2.23031 0
M  V30 947 N 103.599 5.26312 1.97363 0
M  V30 948 H 95.7505 2.10546 -0.28005 0
M  V30 949 H 98.0135 0.945921 -0.0627454 0
M  V30 950 H 97.7195 3.49845 0.360787 0
M  V30 951 H 97.5935 3.14941 2.07586 0
M  V30 952 H 99.9805 2.15969 2.01101 0
M  V30 953 H 100.061 2.54204 0.285299 0
M  V30 954 H 99.7055 5.00938 0.838067 0
M  V30 955 H 99.6355 4.59648 2.56966 0
M  V30 956 H 102.126 3.47661 1.48123 0
M  V30 957 H 102.439 7.33139 2.44391 0
M  V30 958 H 100.784 6.59112 2.20447 0
M  V30 959 H 103.975 4.33876 1.75697 0
M  V30 960 H 104.148 6.09649 2.19618 0
M  V30 961 N 97.5546 -0.734337 1.39446 0
M  V30 962 C 98.8026 -1.49096 1.36436 0
M  V30 963 C 99.1236 -1.94961 -0.0388255 0
M  V30 964 O 98.3936 -1.69033 -0.990191 0
M  V30 965 H 96.9736 -0.5531 0.502085 0
M  V30 966 H 99.6356 -0.871725 1.74319 0
M  V30 967 H 98.7316 -2.37276 2.02747 0
M  V30 968 N 99.0327 -1.24633 -0.964593 0
M  V30 969 C 99.9627 -1.06611 -2.07741 0
M  V30 970 C 100.944 0.0218666 -1.70086 0
M  V30 971 O 102.129 -0.145793 -1.93652 0
M  V30 972 C 99.2587 -0.673444 -3.40708 0
M  V30 973 C 98.2127 -1.71054 -3.92332 0
M  V30 974 C 97.5387 -1.17285 -5.21678 0
M  V30 975 C 98.8387 -3.10718 -4.19824 0
M  V30 976 H 100.533 -1.99693 -2.23076 0
M  V30 977 H 98.0787 -0.96152 -1.07195 0
M  V30 978 H 100.032 -0.534345 -4.17998 0
M  V30 979 H 98.7557 0.293073 -3.25282 0
M  V30 980 H 97.4147 -1.83791 -3.17201 0
M  V30 981 H 97.0627 -0.196847 -5.02615 0
M  V30 982 H 96.7627 -1.86592 -5.57187 0
M  V30 983 H 98.2867 -1.04593 -6.01575 0
M  V30 984 H 99.7007 -3.01192 -4.87808 0
M  V30 985 H 98.0977 -3.77406 -4.66567 0
M  V30 986 H 99.1677 -3.58524 -3.26479 0
M  V30 987 N 100.511 1.16574 -1.06058 0
M  V30 988 C 101.922 1.68662 -0.800632 0
M  V30 989 C 102.273 1.84184 0.67608 0
M  V30 990 O 101.398 1.53568 1.52466 0
M  V30 991 C 101.993 3.06356 -1.44676 0
M  V30 992 C 100.552 3.55575 -1.23465 0
M  V30 993 C 99.6988 2.31616 -1.52477 0
M  V30 994 H 102.65 1.00969 -1.22438 0
M  V30 995 H 102.671 3.70636 -0.860788 0
M  V30 996 H 102.183 2.95027 -2.52152 0
M  V30 997 H 100.284 3.72167 -0.179527 0
M  V30 998 H 100.397 4.37812 -1.94571 0
M  V30 999 H 98.7608 2.36512 -0.945209 0
M  V30 1000 H 99.5438 2.22887 -2.61106 0
M  V30 1001 N 101.989 0.842826 1.3317 0
M  V30 1002 C 103.235 0.441099 1.97945 0
M  V30 1003 C 103.568 -0.998024 1.66593 0
M  V30 1004 O 102.843 -1.69839 0.947898 0
M  V30 1005 C 103.126 0.666841 3.53872 0
M  V30 1006 C 102.979 2.15352 3.94897 0
M  V30 1007 C 104.298 0.115544 4.39948 0
M  V30 1008 H 101.417 0.161739 0.719034 0
M  V30 1009 H 104.059 1.05907 1.57746 0
M  V30 1010 H 102.209 0.140828 3.88245 0
M  V30 1011 H 103.881 2.7447 3.70761 0
M  V30 1012 H 102.124 2.63653 3.44484 0
M  V30 1013 H 102.795 2.26221 5.03516 0
M  V30 1014 H 105.271 0.565213 4.12243 0
M  V30 1015 H 104.147 0.303152 5.48062 0
M  V30 1016 H 104.408 -0.980935 4.3108 0
M  V30 1017 N 103.467 -1.45747 0.599634 0
M  V30 1018 C 104.377 -2.34262 -0.125888 0
M  V30 1019 C 105.393 -1.50768 -0.868625 0
M  V30 1020 O 106.569 -1.83592 -0.828003 0
M  V30 1021 C 103.634 -3.28252 -1.11587 0
M  V30 1022 C 102.695 -4.27651 -0.375956 0
M  V30 1023 C 101.928 -5.1715 -1.31877 0
M  V30 1024 O 102.151 -5.09916 -2.55621 0
M  V30 1025 O 101.085 -5.96286 -0.820157 0
M  V30 1026 H 104.911 -2.97688 0.601315 0
M  V30 1027 H 102.496 -1.44999 0.359934 0
M  V30 1028 H 104.378 -3.86191 -1.68626 0
M  V30 1029 H 103.053 -2.67401 -1.82424 0
M  V30 1030 H 101.96 -3.7335 0.236698 0
M  V30 1031 H 103.293 -4.91334 0.29177 0
M  V30 1032 N 104.945 -0.338344 -1.53925 0
M  V30 1033 C 105.908 0.508299 -2.23493 0
M  V30 1034 C 106.908 1.03175 -1.23335 0
M  V30 1035 O 108.098 0.921826 -1.47811 0
M  V30 1036 C 105.23 1.70754 -2.95052 0
M  V30 1037 H 106.423 -0.100058 -2.99733 0
M  V30 1038 H 103.976 -0.0896198 -1.56043 0
M  V30 1039 H 104.711 2.35474 -2.22986 0
M  V30 1040 H 104.496 1.33946 -3.68512 0
M  V30 1041 H 105.986 2.30818 -3.48013 0
M  V30 1042 N 106.423 1.57458 -0.0668435 0
M  V30 1043 C 107.7 1.8469 0.644132 0
M  V30 1044 C 108.08 0.958343 1.88093 0
M  V30 1045 O 107.428 0.0233579 2.28488 0
M  V30 1046 C 107.638 3.34767 0.986509 0
M  V30 1047 C 108.986 4.02159 1.36212 0
M  V30 1048 O 110.01 3.39484 1.07839 0
M  V30 1049 O 108.869 5.12694 1.89227 0
M  V30 1050 H 105.963 0.762816 0.319437 0
M  V30 1051 H 108.509 1.6942 -0.0973986 0
M  V30 1052 H 107.281 3.91151 0.107883 0
M  V30 1053 H 106.904 3.55281 1.78497 0
M  V30 1054 N 107.901 -0.206675 1.56239 0
M  V30 1055 C 108.864 -1.23976 1.92776 0
M  V30 1056 C 109.864 -1.39041 0.807729 0
M  V30 1057 O 111.054 -1.37051 1.0753 0
M  V30 1058 C 108.186 -2.61112 2.19165 0
M  V30 1059 H 109.379 -0.927764 2.85189 0
M  V30 1060 H 106.932 -0.447718 1.4975 0
M  V30 1061 H 107.667 -2.97386 1.29352 0
M  V30 1062 H 107.452 -2.51552 3.00772 0
M  V30 1063 H 108.942 -3.35633 2.48476 0
M  V30 1064 N 109.379 -1.50304 -0.473955 0
M  V30 1065 C 110.656 -1.51667 -1.23518 0
M  V30 1066 C 111.036 -0.259701 -2.09496 0
M  V30 1067 O 110.384 0.756986 -2.15597 0
M  V30 1068 C 110.594 -2.81082 -2.06868 0
M  V30 1069 C 111.942 -3.31631 -2.65153 0
M  V30 1070 O 112.966 -2.82384 -2.17113 0
M  V30 1071 O 111.825 -4.17471 -3.52675 0
M  V30 1072 H 108.919 -0.60822 -0.560355 0
M  V30 1073 H 111.465 -1.62592 -0.486011 0
M  V30 1074 H 110.237 -3.64041 -1.4349 0
M  V30 1075 H 109.86 -2.73146 -2.88924 0
M  V30 1076 N 110.857 0.726932 -1.39834 0
M  V30 1077 C 111.787 1.85405 -1.41941 0
M  V30 1078 C 112.768 1.67751 -0.281728 0
M  V30 1079 O 113.953 1.8795 -0.488717 0
M  V30 1080 C 111.083 3.23243 -1.2701 0
M  V30 1081 C 110.037 3.55549 -2.38262 0
M  V30 1082 C 109.363 4.9241 -2.08415 0
M  V30 1083 C 110.663 3.577 -3.80589 0
M  V30 1084 H 112.357 1.83899 -2.36266 0
M  V30 1085 H 109.903 0.883349 -1.13723 0
M  V30 1086 H 111.856 4.01775 -1.27103 0
M  V30 1087 H 110.58 3.25296 -0.291564 0
M  V30 1088 H 109.239 2.79351 -2.37399 0
M  V30 1089 H 108.887 4.91052 -1.0898 0
M  V30 1090 H 108.587 5.14992 -2.82943 0
M  V30 1091 H 110.111 5.73289 -2.10171 0
M  V30 1092 H 111.525 4.26293 -3.83337 0
M  V30 1093 H 109.922 3.91804 -4.54543 0
M  V30 1094 H 110.992 2.57328 -4.10987 0
M  V30 1095 N 112.336 1.25143 0.95797 0
M  V30 1096 C 113.747 1.08851 1.51685 0
M  V30 1097 C 114.098 -0.33687 1.93286 0
M  V30 1098 O 113.223 -1.22644 1.7829 0
M  V30 1099 C 113.818 1.96978 2.75654 0
M  V30 1100 C 112.377 1.84881 3.27866 0
M  V30 1101 C 111.524 1.91329 2.0072 0
M  V30 1102 H 114.475 1.38478 0.77522 0
M  V30 1103 H 114.496 1.5078 3.4935 0
M  V30 1104 H 114.008 3.00712 2.45345 0
M  V30 1105 H 112.109 0.840182 3.63004 0
M  V30 1106 H 112.222 2.6951 3.96107 0
M  V30 1107 H 110.586 1.35174 2.15871 0
M  V30 1108 H 111.369 2.96661 1.72764 0
M  V30 1109 N 113.814 -1.1601 1.06675 0
M  V30 1110 C 115.042 -1.90527 0.806667 0
M  V30 1111 C 115.457 -1.77643 -0.639396 0
M  V30 1112 O 114.814 -1.12369 -1.43803 0
M  V30 1113 C 114.865 -3.41106 1.19705 0
M  V30 1114 O 114.586 -3.53608 2.58636 0
M  V30 1115 C 116.087 -4.32663 0.965266 0
M  V30 1116 H 113.307 -0.604053 0.292166 0
M  V30 1117 H 115.851 -1.47026 1.4214 0
M  V30 1118 H 114.006 -3.82296 0.626774 0
M  V30 1119 H 114.42 -4.47011 2.74375 0
M  V30 1120 H 115.894 -5.36763 1.288 0
M  V30 1121 H 116.371 -4.39089 -0.0987936 0
M  V30 1122 H 116.977 -3.97206 1.52011 0
M  V30 1123 N 115.292 -0.849877 -1.32721 0
M  V30 1124 C 116.52 -0.464754 -2.01613 0
M  V30 1125 C 116.935 0.937191 -1.63897 0
M  V30 1126 O 116.292 1.61081 -0.857856 0
M  V30 1127 C 116.343 -0.588638 -3.56675 0
M  V30 1128 O 116.064 -1.93535 -3.93034 0
M  V30 1129 C 117.565 -0.2019 -4.4284 0
M  V30 1130 H 114.785 -0.183215 -0.645502 0
M  V30 1131 H 117.329 -1.1455 -1.69407 0
M  V30 1132 H 115.484 0.0443159 -3.87375 0
M  V30 1133 H 115.898 -1.92871 -4.87751 0
M  V30 1134 H 117.372 -0.339599 -5.50954 0
M  V30 1135 H 117.849 0.857224 -4.30753 0
M  V30 1136 H 118.455 -0.809733 -4.17521 0
M  V30 1137 N 116.77 1.45427 -0.607355 0
M  V30 1138 C 118.181 1.85756 -0.187535 0
M  V30 1139 C 118.532 1.5077 1.25551 0
M  V30 1140 O 117.657 0.93427 1.95193 0
M  V30 1141 C 118.252 3.37154 -0.333572 0
M  V30 1142 C 116.811 3.76387 0.0315542 0
M  V30 1143 C 115.958 2.69377 -0.658117 0
M  V30 1144 H 118.909 1.36231 -0.81405 0
M  V30 1145 H 118.93 3.78014 0.43428 0
M  V30 1146 H 118.442 3.62586 -1.38393 0
M  V30 1147 H 116.543 3.56571 1.0811 0
M  V30 1148 H 116.656 4.77731 -0.361935 0
M  V30 1149 H 115.02 2.5452 -0.0957873 0
M  V30 1150 H 115.803 2.97646 -1.7106 0
M  V30 1151 N 118.248 0.346503 1.53744 0
M  V30 1152 C 119.473 -0.253074 2.0585 0
M  V30 1153 C 119.898 -1.43202 1.21962 0
M  V30 1154 O 119.256 -1.79783 0.234073 0
M  V30 1155 C 119.304 -0.643193 3.54817 0
M  V30 1156 O 118.408 -1.74286 3.73762 0
M  V30 1157 H 117.749 -0.0413583 0.662711 0
M  V30 1158 H 120.279 0.501574 1.98357 0
M  V30 1159 H 120.289 -0.919526 3.97503 0
M  V30 1160 H 118.964 0.218966 4.15323 0
M  V30 1161 H 117.541 -1.46356 3.42979 0
M  V30 1162 N 119.726 -1.57421 0.075193 0
M  V30 1163 C 120.951 -1.98364 -0.605515 0
M  V30 1164 C 121.376 -0.953383 -1.62149 0
M  V30 1165 O 120.734 0.0806053 -1.81121 0
M  V30 1166 C 120.782 -3.38332 -1.24756 0
M  V30 1167 O 119.886 -3.37959 -2.36342 0
M  V30 1168 H 119.227 -0.645553 -0.155428 0
M  V30 1169 H 121.757 -2.04044 0.150714 0
M  V30 1170 H 121.767 -3.75591 -1.5936 0
M  V30 1171 H 120.442 -4.12846 -0.503129 0
M  V30 1172 H 119.019 -3.12474 -2.03506 0
M  V30 1173 N 121.204 0.198386 -1.56346 0
M  V30 1174 C 122.432 0.935572 -1.84539 0
M  V30 1175 C 122.847 1.76989 -0.657281 0
M  V30 1176 O 122.204 1.78626 0.374043 0
M  V30 1177 C 122.255 1.8344 -3.11499 0
M  V30 1178 O 121.976 1.03377 -4.25728 0
M  V30 1179 C 123.477 2.68355 -3.52846 0
M  V30 1180 H 120.697 0.273126 -0.612897 0
M  V30 1181 H 123.241 0.20663 -2.03453 0
M  V30 1182 H 121.396 2.51701 -2.94492 0
M  V30 1183 H 121.81 1.64599 -4.98003 0
M  V30 1184 H 123.284 3.27085 -4.44657 0
M  V30 1185 H 123.761 3.41901 -2.75681 0
M  V30 1186 H 124.367 2.05471 -3.72373 0
M  V30 1187 N 122.682 1.50554 0.465978 0
M  V30 1188 C 124.093 1.54599 1.04671 0
M  V30 1189 C 124.444 0.352488 1.93008 0
M  V30 1190 O 123.569 -0.534044 2.09707 0
M  V30 1191 C 124.164 2.80166 1.90505 0
M  V30 1192 C 122.723 2.86876 2.43678 0
M  V30 1193 C 121.87 2.48947 1.22151 0
M  V30 1194 H 124.821 1.56744 0.248384 0
M  V30 1195 H 124.842 2.62311 2.75633 0
M  V30 1196 H 124.354 3.67013 1.26186 0
M  V30 1197 H 122.455 2.04393 3.11536 0
M  V30 1198 H 122.568 3.89885 2.78436 0
M  V30 1199 H 120.932 2.01498 1.5579 0
M  V30 1200 H 121.715 3.38107 0.594866 0
M  V30 1201 N 124.16 -0.719506 1.40217 0
M  V30 1202 C 125.123 -1.8153 1.39927 0
M  V30 1203 C 126.123 -1.58095 0.293723 0
M  V30 1204 O 127.313 -1.65209 0.552429 0
M  V30 1205 C 124.445 -3.19561 1.18716 0
M  V30 1206 H 125.638 -1.83186 2.37451 0
M  V30 1207 H 123.191 -0.924746 1.26008 0
M  V30 1208 H 123.926 -3.23557 0.219366 0
M  V30 1209 H 123.711 -3.3797 1.98793 0
M  V30 1210 H 125.201 -3.99598 1.21291 0
M  V30 1211 N 125.638 -1.25649 -0.95132 0
M  V30 1212 C 127.049 -1.09654 -1.51106 0
M  V30 1213 C 127.4 0.326615 -1.93462 0
M  V30 1214 O 126.525 1.21697 -1.78938 0
M  V30 1215 C 127.12 -1.98437 -2.74605 0
M  V30 1216 C 125.679 -1.86618 -3.2688 0
M  V30 1217 C 124.826 -1.9239 -1.99703 0
M  V30 1218 H 127.777 -1.38887 -0.767865 0
M  V30 1219 H 127.798 -1.5263 -3.48546 0
M  V30 1220 H 127.31 -3.02009 -2.43746 0
M  V30 1221 H 125.411 -0.859421 -3.62553 0
M  V30 1222 H 125.524 -2.71607 -3.94673 0
M  V30 1223 H 123.888 -1.36317 -2.15151 0
M  V30 1224 H 124.671 -2.97573 -1.71188 0
M  V30 1225 N 127.117 1.15442 -1.07289 0
M  V30 1226 C 128.027 2.23786 -0.704057 0
M  V30 1227 C 129.043 1.7166 0.284413 0
M  V30 1228 O 130.219 2.00972 0.131205 0
M  V30 1229 C 127.284 3.46535 -0.106792 0
M  V30 1230 C 126.345 4.13654 -1.14842 0
M  V30 1231 C 125.578 5.30544 -0.57956 0
M  V30 1232 O 125.801 5.67187 0.604585 0
M  V30 1233 O 124.735 5.87154 -1.32414 0
M  V30 1234 H 128.561 2.57664 -1.60757 0
M  V30 1235 H 126.146 1.23152 -0.845803 0
M  V30 1236 H 128.028 4.20804 0.224048 0
M  V30 1237 H 126.703 3.14407 0.770049 0
M  V30 1238 H 125.61 3.4131 -1.5316 0
M  V30 1239 H 126.943 4.49861 -1.99714 0
M  V30 1240 N 128.595 0.856903 1.32268 0
M  V30 1241 C 129.872 0.382583 1.91822 0
M  V30 1242 C 130.252 -1.13407 1.78051 0
M  V30 1243 O 129.6 -1.95673 1.18001 0
M  V30 1244 C 129.81 0.849446 3.38505 0
M  V30 1245 C 131.158 0.867936 4.15634 0
M  V30 1246 O 132.182 0.794232 3.47232 0
M  V30 1247 O 131.041 0.972286 5.37781 0
M  V30 1248 H 128.135 0.112014 0.819379 0
M  V30 1249 H 130.681 0.943952 1.41024 0
M  V30 1250 H 129.453 1.89267 3.42482 0
M  V30 1251 H 129.076 0.265652 3.96712 0
M  V30 1252 N 130.073 -1.45103 0.615059 0
M  V30 1253 C 131.489 -1.57137 0.279322 0
M  V30 1254 C 131.689 -1.60523 -1.21797 0
M  V30 1255 O 130.745 -1.53956 -2.00134 0
M  V30 1256 C 132.058 -2.85062 0.957083 0
M  V30 1257 C 133.606 -2.98749 0.933706 0
M  V30 1258 C 134.081 -4.29455 1.59162 0
M  V30 1259 N 135.572 -4.36231 1.55746 0
M  V30 1260 C 136.307 -5.36051 2.0356 0
M  V30 1261 N 135.803 -6.42367 2.59494 0
M  V30 1262 N 137.596 -5.27456 1.94284 0
M  V30 1263 H 129.747 -1.41148 1.58717 0
M  V30 1264 H 132.01 -0.675331 0.665306 0
M  V30 1265 H 131.716 -2.88488 2.01166 0
M  V30 1266 H 131.59 -3.7407 0.48494 0
M  V30 1267 H 133.977 -2.94886 -0.112347 0
M  V30 1268 H 134.058 -2.11132 1.44419 0
M  V30 1269 H 133.702 -4.34077 2.63704 0
M  V30 1270 H 133.632 -5.15901 1.0561 0
M  V30 1271 H 136.123 -3.60011 1.14893 0
M  V30 1272 H 136.436 -7.14793 2.93752 0
M  V30 1273 H 134.781 -6.43097 2.63537 0
M  V30 1274 H 137.972 -4.43308 1.5032 0
M  V30 1275 H 138.145 -6.05099 2.3186 0
M  V30 1276 N 131.551 -0.354651 -1.53558 0
M  V30 1277 C 132.776 0.242153 -2.05981 0
M  V30 1278 C 133.201 1.42553 -1.2272 0
M  V30 1279 O 132.559 1.79656 -0.243604 0
M  V30 1280 C 132.607 0.624367 -3.55154 0
M  V30 1281 O 131.711 1.72301 -3.74681 0
M  V30 1282 H 131.052 0.0378432 -0.662921 0
M  V30 1283 H 133.582 -0.512087 -1.98088 0
M  V30 1284 H 133.592 0.898433 -3.97985 0
M  V30 1285 H 132.267 -0.240989 -4.15201 0
M  V30 1286 H 130.844 1.44535 -3.4375 0
M  V30 1287 N 133.029 1.57378 -0.0835403 0
M  V30 1288 C 133.959 2.1641 0.87686 0
M  V30 1289 C 134.94 1.09429 1.30228 0
M  V30 1290 O 136.125 1.37516 1.37124 0
M  V30 1291 C 133.255 2.73517 2.14022 0
M  V30 1292 C 132.209 3.85769 1.85381 0
M  V30 1293 C 131.535 4.29529 3.18448 0
M  V30 1294 C 132.835 5.09486 1.14984 0
M  V30 1295 H 134.529 2.96914 0.385059 0
M  V30 1296 H 132.075 1.42823 0.18377 0
M  V30 1297 H 134.028 3.13463 2.81636 0
M  V30 1298 H 132.752 1.90252 2.65465 0
M  V30 1299 H 131.411 3.46345 1.20169 0
M  V30 1300 H 131.059 3.43169 3.67755 0
M  V30 1301 H 130.759 5.05204 3.00071 0
M  V30 1302 H 132.283 4.72099 3.8724 0
M  V30 1303 H 133.697 5.46674 1.72687 0
M  V30 1304 H 132.094 5.90515 1.06826 0
M  V30 1305 H 133.164 4.84724 0.130749 0
M  V30 1306 N 134.507 -0.190092 1.56449 0
M  V30 1307 C 135.437 -1.23816 1.97969 0
M  V30 1308 C 136.418 -1.47201 0.852395 0
M  V30 1309 O 137.603 -1.58854 1.1171 0
M  V30 1310 C 134.733 -2.5813 2.3235 0
M  V30 1311 C 133.687 -2.49348 3.47864 0
M  V30 1312 C 133.013 -3.8798 3.67934 0
M  V30 1313 C 134.313 -2.01424 4.81898 0
M  V30 1314 H 136.007 -0.89311 2.85769 0
M  V30 1315 H 133.553 -0.428177 1.37487 0
M  V30 1316 H 135.506 -3.31637 2.59991 0
M  V30 1317 H 134.23 -2.94386 1.41438 0
M  V30 1318 H 132.889 -1.78297 3.20321 0
M  V30 1319 H 132.537 -4.21597 2.74344 0
M  V30 1320 H 132.237 -3.82978 4.45648 0
M  V30 1321 H 133.761 -4.63101 3.97957 0
M  V30 1322 H 135.175 -2.64693 5.08538 0
M  V30 1323 H 133.572 -2.07413 5.63116 0
M  V30 1324 H 134.642 -0.967677 4.75146 0
M  V30 1325 N 135.985 -1.50799 -0.457987 0
M  V30 1326 C 137.213 -1.66218 -1.23203 0
M  V30 1327 C 137.628 -0.350894 -1.85511 0
M  V30 1328 O 136.985 0.668546 -1.69814 0
M  V30 1329 C 137.036 -2.76291 -2.33121 0
M  V30 1330 O 136.757 -4.02338 -1.73366 0
M  V30 1331 C 138.258 -3.028 -3.2377 0
M  V30 1332 H 135.478 -0.558361 -0.372121 0
M  V30 1333 H 138.022 -1.97099 -0.545179 0
M  V30 1334 H 136.177 -2.48068 -2.97558 0
M  V30 1335 H 136.591 -4.63312 -2.4585 0
M  V30 1336 H 138.065 -3.8345 -3.97077 0
M  V30 1337 H 138.542 -2.14385 -3.83322 0
M  V30 1338 H 139.148 -3.32604 -2.65056 0
M  V30 1339 N 137.463 0.71206 -1.40597 0
M  V30 1340 C 138.396 1.83582 -1.35546 0
M  V30 1341 C 139.374 1.61032 -0.225284 0
M  V30 1342 O 140.558 1.83998 -0.409519 0
M  V30 1343 C 137.685 3.19983 -1.11034 0
M  V30 1344 C 136.731 3.61355 -2.2655 0
M  V30 1345 S 137.564 3.68062 -3.88961 0
M  V30 1346 C 138.72 5.07216 -3.66719 0
M  V30 1347 H 138.953 1.87586 -2.30648 0
M  V30 1348 H 136.486 0.879182 -1.26924 0
M  V30 1349 H 138.444 3.98734 -0.975761 0
M  V30 1350 H 137.105 3.13608 -0.175798 0
M  V30 1351 H 136.298 4.60403 -2.0505 0
M  V30 1352 H 135.9 2.8987 -2.36329 0
M  V30 1353 H 138.192 5.94238 -3.25404 0
M  V30 1354 H 139.135 5.33753 -4.6531 0
M  V30 1355 H 139.543 4.77976 -3.00332 0
M  V30 1356 N 138.941 1.26152 0.944643 0
M  V30 1357 C 139.851 1.09176 2.07648 0
M  V30 1358 C 140.867 0.0261935 1.7398 0
M  V30 1359 O 142.043 0.229208 2.00091 0
M  V30 1360 C 139.108 0.722915 3.39079 0
M  V30 1361 C 138.169 1.86752 3.86552 0
M  V30 1362 C 137.402 1.51617 5.11711 0
M  V30 1363 O 137.625 0.416331 5.68879 0
M  V30 1364 O 136.559 2.34975 5.54139 0
M  V30 1365 H 140.385 2.0412 2.24875 0
M  V30 1366 H 137.97 1.05182 1.061 0
M  V30 1367 H 139.852 0.529787 4.18056 0
M  V30 1368 H 138.527 -0.197159 3.23099 0
M  V30 1369 H 137.434 2.11558 3.08535 0
M  V30 1370 H 138.767 2.76719 4.07047 0
M  V30 1371 N 140.419 -1.14872 1.07899 0
M  V30 1372 C 141.382 -2.17986 0.708161 0
M  V30 1373 C 142.382 -1.58775 -0.25442 0
M  V30 1374 O 143.572 -1.74166 -0.034645 0
M  V30 1375 C 140.704 -3.40871 0.0446929 0
M  V30 1376 H 141.897 -2.52306 1.62116 0
M  V30 1377 H 139.45 -1.2943 0.876218 0
M  V30 1378 H 140.185 -3.12124 -0.880281 0
M  V30 1379 H 139.97 -3.8511 0.737091 0
M  V30 1380 H 141.46 -4.17121 -0.19991 0
M  V30 1381 N 141.898 -0.863906 -1.31812 0
M  V30 1382 C 142.831 -0.259963 -2.26714 0
M  V30 1383 C 143.809 0.607392 -1.50829 0
M  V30 1384 O 144.993 0.562155 -1.79922 0
M  V30 1385 C 142.12 0.632456 -3.32743 0
M  V30 1386 C 141.166 -0.162743 -4.26189 0
M  V30 1387 S 141.999 -1.53726 -5.12961 0
M  V30 1388 C 143.155 -0.650803 -6.22507 0
M  V30 1389 H 143.388 -1.06445 -2.77591 0
M  V30 1390 H 140.921 -0.662071 -1.39485 0
M  V30 1391 H 142.879 1.14167 -3.94305 0
M  V30 1392 H 141.54 1.41083 -2.80632 0
M  V30 1393 H 140.733 0.517366 -5.01338 0
M  V30 1394 H 140.335 -0.60385 -3.69093 0
M  V30 1395 H 142.627 0.141134 -6.77353 0
M  V30 1396 H 143.57 -1.37322 -6.94657 0
M  V30 1397 H 143.978 -0.221041 -5.64067 0
M  V30 1398 N 143.376 1.44774 -0.622745 0
M  V30 1399 C 144.306 2.33382 0.0741861 0
M  V30 1400 C 145.287 1.47719 0.843387 0
M  V30 1401 O 146.472 1.76458 0.810934 0
M  V30 1402 C 143.602 3.30663 1.06204 0
M  V30 1403 C 142.556 4.26079 0.405037 0
M  V30 1404 C 141.882 5.13165 1.5022 0
M  V30 1405 C 143.182 5.1781 -0.683414 0
M  V30 1406 H 144.876 2.91905 -0.665713 0
M  V30 1407 H 142.422 1.40363 -0.321587 0
M  V30 1408 H 144.375 3.9153 1.55827 0
M  V30 1409 H 143.099 2.70331 1.83272 0
M  V30 1410 H 141.758 3.66532 -0.0704683 0
M  V30 1411 H 141.406 4.49191 2.26355 0
M  V30 1412 H 141.106 5.77812 1.06803 0
M  V30 1413 H 142.63 5.76902 2.00041 0
M  V30 1414 H 144.044 5.72661 -0.270631 0
M  V30 1415 H 142.441 5.91015 -1.04023 0
M  V30 1416 H 143.511 4.59326 -1.55395 0
M  V30 1417 N 144.854 0.36279 1.53368 0
M  V30 1418 C 146.102 -0.227326 2.00817 0
M  V30 1419 C 146.423 -1.49511 1.25186 0
M  V30 1420 O 145.693 -1.92482 0.364348 0
M  V30 1421 H 144.273 -0.0869923 0.741917 0
M  V30 1422 H 146.935 0.488381 1.88682 0
M  V30 1423 H 146.031 -0.456273 3.08747 0
M  V30 1424 N 146.332 -1.57332 0.0918853 0
M  V30 1425 C 147.262 -2.16872 -0.865371 0
M  V30 1426 C 148.243 -1.10118 -1.29646 0
M  V30 1427 O 149.428 -1.38242 -1.36392 0
M  V30 1428 C 146.558 -2.74649 -2.12569 0
M  V30 1429 C 145.512 -3.86747 -1.83333 0
M  V30 1430 C 144.838 -4.31212 -3.16166 0
M  V30 1431 C 146.138 -5.10089 -1.1228 0
M  V30 1432 H 147.832 -2.97114 -0.369307 0
M  V30 1433 H 145.378 -1.42918 -0.176194 0
M  V30 1434 H 147.331 -3.14952 -2.7997 0
M  V30 1435 H 146.055 -1.91657 -2.64452 0
M  V30 1436 H 144.714 -3.46978 -1.18331 0
M  V30 1437 H 144.362 -3.45115 -3.6593 0
M  V30 1438 H 144.062 -5.06788 -2.97388 0
M  V30 1439 H 145.586 -4.74146 -3.84731 0
M  V30 1440 H 147 -5.47582 -1.69785 0
M  V30 1441 H 145.397 -5.91073 -1.03693 0
M  V30 1442 H 146.467 -4.84786 -0.105041 0
M  V30 1443 N 147.81 0.181792 -1.56548 0
M  V30 1444 C 149.056 0.901431 -1.81665 0
M  V30 1445 C 149.389 1.82347 -0.668075 0
M  V30 1446 O 148.664 1.91669 0.330615 0
M  V30 1447 C 148.947 1.70618 -3.17115 0
M  V30 1448 C 148.8 0.807964 -4.42484 0
M  V30 1449 C 150.119 2.67605 -3.49393 0
M  V30 1450 H 147.238 0.32627 -0.660846 0
M  V30 1451 H 149.88 0.168134 -1.89255 0
M  V30 1452 H 148.03 2.33133 -3.10775 0
M  V30 1453 H 149.702 0.19649 -4.60881 0
M  V30 1454 H 147.945 0.115411 -4.33646 0
M  V30 1455 H 148.616 1.40632 -5.33785 0
M  V30 1456 H 151.092 2.15218 -3.56118 0
M  V30 1457 H 149.968 3.20985 -4.45264 0
M  V30 1458 H 150.229 3.47298 -2.73563 0
M  V30 1459 N 149.288 1.51039 0.449983 0
M  V30 1460 C 150.536 1.62759 1.19808 0
M  V30 1461 C 150.857 0.339981 1.92013 0
M  V30 1462 O 150.127 -0.643606 1.85026 0
M  V30 1463 H 148.707 0.599811 0.445237 0
M  V30 1464 H 151.369 1.87914 0.517138 0
M  V30 1465 H 150.465 2.44911 1.93455 0
M  V30 1466 N 150.766 -0.704594 1.40972 0
M  V30 1467 C 152.182 -1.01406 1.23244 0
M  V30 1468 C 152.382 -2.01169 0.115399 0
M  V30 1469 O 151.438 -2.47021 -0.523147 0
M  V30 1470 C 152.751 -1.54728 2.57836 0
M  V30 1471 C 154.299 -1.66658 2.64942 0
M  V30 1472 C 154.774 -2.23383 3.9983 0
M  V30 1473 N 156.265 -2.30756 4.01629 0
M  V30 1474 C 157 -2.75655 5.02794 0
M  V30 1475 N 156.496 -3.20225 6.14352 0
M  V30 1476 N 158.289 -2.75138 4.90159 0
M  V30 1477 H 150.44 -0.0435285 2.12355 0
M  V30 1478 H 152.703 -0.0818951 0.944456 0
M  V30 1479 H 152.409 -0.888832 3.40283 0
M  V30 1480 H 152.283 -2.53084 2.79693 0
M  V30 1481 H 154.67 -2.31617 1.8286 0
M  V30 1482 H 154.751 -0.668717 2.46904 0
M  V30 1483 H 154.395 -1.59043 4.82357 0
M  V30 1484 H 154.325 -3.23904 4.15203 0
M  V30 1485 H 156.816 -1.99291 3.21079 0
M  V30 1486 H 157.129 -3.53084 6.87424 0
M  V30 1487 H 155.474 -3.18156 6.17901 0
M  V30 1488 H 158.665 -2.39661 4.02095 0
M  V30 1489 H 158.838 -3.09812 5.6914 0
M  V30 1490 N 152.244 -1.26651 -0.937939 0
M  V30 1491 C 153.66 -1.03834 -1.21205 0
M  V30 1492 C 153.86 0.234502 -2.00131 0
M  V30 1493 O 152.916 0.942767 -2.3424 0
M  V30 1494 C 154.229 -2.27167 -1.97017 0
M  V30 1495 C 155.777 -2.32101 -2.09996 0
M  V30 1496 C 156.252 -3.55136 -2.8921 0
M  V30 1497 N 157.743 -3.55632 -2.96783 0
M  V30 1498 C 158.478 -4.475 -3.58512 0
M  V30 1499 N 157.974 -5.4966 -4.21717 0
M  V30 1500 N 159.767 -4.35145 -3.55816 0
M  V30 1501 H 151.918 -2.08398 -0.410391 0
M  V30 1502 H 154.181 -0.916031 -0.244114 0
M  V30 1503 H 153.887 -3.19765 -1.46434 0
M  V30 1504 H 153.761 -2.31672 -2.97671 0
M  V30 1505 H 156.148 -1.40015 -2.59769 0
M  V30 1506 H 156.229 -2.31605 -1.08594 0
M  V30 1507 H 155.873 -4.47553 -2.40123 0
M  V30 1508 H 155.803 -3.5288 -3.90875 0
M  V30 1509 H 158.294 -2.81743 -2.51852 0
M  V30 1510 H 158.607 -6.15943 -4.66727 0
M  V30 1511 H 156.952 -5.53514 -4.20294 0
M  V30 1512 H 160.143 -3.5455 -3.05634 0
M  V30 1513 H 160.316 -5.06934 -4.03636 0
M  V30 1514 N 153.722 1.14298 -1.08507 0
M  V30 1515 C 154.652 2.21542 -0.737646 0
M  V30 1516 C 155.633 1.67773 0.280377 0
M  V30 1517 O 156.818 1.93616 0.150521 0
M  V30 1518 C 153.948 3.46988 -0.147259 0
M  V30 1519 C 152.902 4.13789 -1.09374 0
M  V30 1520 C 152.228 5.33449 -0.365524 0
M  V30 1521 C 153.528 4.62208 -2.4323 0
M  V30 1522 H 155.222 2.5086 -1.6343 0
M  V30 1523 H 152.768 1.20576 -0.787243 0
M  V30 1524 H 154.721 4.21262 0.107808 0
M  V30 1525 H 153.445 3.17037 0.784538 0
M  V30 1526 H 152.104 3.4147 -1.33393 0
M  V30 1527 H 151.752 4.99759 0.57011 0
M  V30 1528 H 151.452 5.79088 -0.996512 0
M  V30 1529 H 152.976 6.10485 -0.118534 0
M  V30 1530 H 154.39 5.27952 -2.23472 0
M  V30 1531 H 152.787 5.18553 -3.02031 0
M  V30 1532 H 153.857 3.77224 -3.04681 0
M  V30 1533 N 155.201 0.870884 1.31352 0
M  V30 1534 C 156.449 0.48132 1.96285 0
M  V30 1535 C 156.77 -0.969813 1.69173 0
M  V30 1536 O 156.04 -1.67998 1.00764 0
M  V30 1537 H 154.62 0.175002 0.726212 0
M  V30 1538 H 157.282 1.11087 1.60143 0
M  V30 1539 H 156.378 0.639825 3.05471 0
M  V30 1540 N 156.679 -1.44442 0.630414 0
M  V30 1541 C 157.609 -2.33418 -0.0618083 0
M  V30 1542 C 158.59 -1.48165 -0.835541 0
M  V30 1543 O 159.775 -1.76886 -0.801564 0
M  V30 1544 C 156.905 -3.31222 -1.04449 0
M  V30 1545 C 155.859 -4.26288 -0.382436 0
M  V30 1546 C 155.185 -5.13954 -1.47497 0
M  V30 1547 C 156.485 -5.1744 0.710865 0
M  V30 1548 H 158.179 -2.91548 0.681184 0
M  V30 1549 H 155.725 -1.40191 0.329026 0
M  V30 1550 H 157.678 -3.92351 -1.53748 0
M  V30 1551 H 156.402 -2.71299 -1.81836 0
M  V30 1552 H 155.061 -3.6649 0.0899054 0
M  V30 1553 H 154.709 -4.50385 -2.2397 0
M  V30 1554 H 154.409 -5.7837 -1.03737 0
M  V30 1555 H 155.933 -5.77955 -1.96979 0
M  V30 1556 H 157.347 -5.72509 0.300996 0
M  V30 1557 H 155.744 -5.90455 1.07156 0
M  V30 1558 H 156.814 -4.58496 1.57829 0
M  V30 1559 N 158.157 -0.370918 -1.53173 0
M  V30 1560 C 159.107 0.489588 -2.22681 0
M  V30 1561 C 160.091 1.04442 -1.22395 0
M  V30 1562 O 161.283 0.973578 -1.47819 0
M  V30 1563 C 158.412 1.626 -3.02351 0
M  V30 1564 C 157.498 1.08379 -4.10018 0
M  V30 1565 N 157.889 0.265004 -5.05105 0
M  V30 1566 C 156.187 1.35809 -4.2482 0
M  V30 1567 C 156.888 -0.0324755 -5.81691 0
M  V30 1568 N 155.864 0.566581 -5.40639 0
M  V30 1569 H 159.666 -0.142729 -2.93553 0
M  V30 1570 H 157.18 -0.179221 -1.61408 0
M  V30 1571 H 159.177 2.2547 -3.50669 0
M  V30 1572 H 157.837 2.26132 -2.33011 0
M  V30 1573 H 158.848 -0.0962352 -5.17811 0
M  V30 1574 H 155.525 1.9958 -3.66707 0
M  V30 1575 H 156.915 -0.69473 -6.68299 0
M  V30 1576 N 159.635 1.57281 -0.100228 0
M  V30 1577 C 160.863 1.98879 0.570509 0
M  V30 1578 C 161.278 0.979476 1.61405 0
M  V30 1579 O 160.635 -0.0302288 1.82475 0
M  V30 1580 C 160.686 3.4052 1.2136 0
M  V30 1581 O 160.407 4.37588 0.211786 0
M  V30 1582 C 161.908 3.97149 1.96945 0
M  V30 1583 H 159.128 0.653428 0.152555 0
M  V30 1584 H 161.672 2.03697 -0.18103 0
M  V30 1585 H 159.827 3.367 1.91603 0
M  V30 1586 H 160.241 5.20118 0.676607 0
M  V30 1587 H 161.715 4.98393 2.37294 0
M  V30 1588 H 162.192 3.3525 2.83733 0
M  V30 1589 H 162.798 4.04458 1.31506 0
M  V30 1590 N 161.113 -0.173488 1.56642 0
M  V30 1591 C 162.361 -0.888706 1.81512 0
M  V30 1592 C 162.682 -1.82875 0.676872 0
M  V30 1593 O 161.952 -1.93536 -0.303414 0
M  V30 1594 H 160.532 -0.331164 0.669582 0
M  V30 1595 H 163.194 -0.173823 1.94123 0
M  V30 1596 H 162.29 -1.46691 2.75478 0
M  V30 1597 N 162.591 -1.51276 -0.441967 0
M  V30 1598 C 163.821 -1.67273 -1.21257 0
M  V30 1599 C 164.229 -0.367624 -1.85594 0
M  V30 1600 O 163.572 0.663349 -1.71305 0
M  V30 1601 C 163.634 -2.72807 -2.34129 0
M  V30 1602 C 163.298 -4.1554 -1.90198 0
M  V30 1603 C 164.295 -5.00471 -1.40801 0
M  V30 1604 C 161.98 -4.61616 -1.9803 0
M  V30 1605 C 163.974 -6.29536 -0.998174 0
M  V30 1606 C 161.661 -5.90679 -1.56658 0
M  V30 1607 C 162.659 -6.74466 -1.07633 0
M  V30 1608 O 162.347 -8.01116 -0.668459 0
M  V30 1609 H 162.079 -0.564614 -0.371734 0
M  V30 1610 H 164.633 -1.9843 -0.530521 0
M  V30 1611 H 162.863 -2.36954 -3.05597 0
M  V30 1612 H 164.552 -2.77729 -2.96009 0
M  V30 1613 H 165.318 -4.66079 -1.34148 0
M  V30 1614 H 161.197 -3.96526 -2.35135 0
M  V30 1615 H 164.741 -6.94885 -0.61482 0
M  V30 1616 H 160.638 -6.24586 -1.62979 0
M  V30 1617 H 161.406 -8.14633 -0.794722 0
M  V30 1618 N 164.069 0.697108 -1.41344 0
M  V30 1619 C 165.485 1.00751 -1.2378 0
M  V30 1620 C 165.685 2.01105 -0.126066 0
M  V30 1621 O 164.741 2.47295 0.51004 0
M  V30 1622 C 166.054 1.53359 -2.58653 0
M  V30 1623 C 167.602 1.6525 -2.65822 0
M  V30 1624 C 168.077 2.2126 -4.01009 0
M  V30 1625 N 169.568 2.28622 -4.02847 0
M  V30 1626 C 170.303 2.72984 -5.04249 0
M  V30 1627 N 169.799 3.16962 -6.16041 0
M  V30 1628 N 171.592 2.72534 -4.91611 0
M  V30 1629 H 163.743 0.0322662 -2.12375 0
M  V30 1630 H 166.006 0.0768853 -0.944877 0
M  V30 1631 H 165.712 0.870773 -3.4075 0
M  V30 1632 H 165.586 2.51597 -2.81032 0
M  V30 1633 H 167.973 2.30644 -1.84086 0
M  V30 1634 H 168.054 0.655614 -2.47256 0
M  V30 1635 H 167.698 1.56482 -4.83193 0
M  V30 1636 H 167.628 3.21698 -4.16915 0
M  V30 1637 H 170.119 1.97585 -3.22131 0
M  V30 1638 H 170.432 3.49434 -6.89287 0
M  V30 1639 H 168.777 3.14875 -6.1958 0
M  V30 1640 H 171.968 2.37525 -4.0336 0
M  V30 1641 H 172.141 3.06789 -5.70775 0
M  V30 1642 N 165.547 1.27147 0.931209 0
M  V30 1643 C 166.457 1.11372 2.06478 0
M  V30 1644 C 167.473 0.044645 1.73943 0
M  V30 1645 O 168.649 0.250417 1.99837 0
M  V30 1646 C 165.714 0.758838 3.38294 0
M  V30 1647 C 164.775 1.90841 3.84549 0
M  V30 1648 C 164.008 1.57036 5.10074 0
M  V30 1649 O 164.231 0.476645 5.68405 0
M  V30 1650 O 163.165 2.40839 5.51616 0
M  V30 1651 H 166.991 2.06493 2.22698 0
M  V30 1652 H 164.576 1.06301 1.04978 0
M  V30 1653 H 166.458 0.574098 4.17471 0
M  V30 1654 H 165.133 -0.162879 3.2329 0
M  V30 1655 H 164.04 2.14819 3.06274 0
M  V30 1656 H 165.373 2.81021 4.04089 0
M  V30 1657 N 167.025 -1.13721 1.09112 0
M  V30 1658 C 167.955 -2.21148 0.749385 0
M  V30 1659 C 168.936 -1.6792 -0.271475 0
M  V30 1660 O 170.121 -1.93693 -0.140251 0
M  V30 1661 C 167.251 -3.46905 0.165659 0
M  V30 1662 C 166.205 -4.13203 1.11567 0
M  V30 1663 C 165.531 -5.33248 0.393809 0
M  V30 1664 C 166.831 -4.60912 2.45678 0
M  V30 1665 H 168.525 -2.4999 1.64758 0
M  V30 1666 H 166.071 -1.20156 0.793626 0
M  V30 1667 H 168.024 -4.21313 -0.085466 0
M  V30 1668 H 166.748 -3.17449 -0.767714 0
M  V30 1669 H 165.407 -3.40758 1.35202 0
M  V30 1670 H 165.055 -5.00054 -0.543599 0
M  V30 1671 H 164.755 -5.78552 1.02721 0
M  V30 1672 H 166.279 -6.10413 0.150908 0
M  V30 1673 H 167.693 -5.26759 2.26269 0
M  V30 1674 H 166.09 -5.16944 3.04776 0
M  V30 1675 H 167.16 -3.75603 3.06677 0
M  V30 1676 N 168.503 -0.877838 -1.30888 0
M  V30 1677 C 169.919 -0.570844 -1.49042 0
M  V30 1678 C 170.119 0.893159 -1.80624 0
M  V30 1679 O 169.175 1.67485 -1.88958 0
M  V30 1680 C 170.488 -1.47784 -2.61878 0
M  V30 1681 C 172.036 -1.48071 -2.75761 0
M  V30 1682 C 172.511 -2.37347 -3.91702 0
M  V30 1683 N 174.002 -2.35271 -3.99001 0
M  V30 1684 C 174.737 -3.01063 -4.88004 0
M  V30 1685 N 174.233 -3.76055 -5.81854 0
M  V30 1686 N 176.026 -2.90332 -4.81315 0
M  V30 1687 H 168.177 -1.82502 -1.0866 0
M  V30 1688 H 170.44 -0.780797 -0.537644 0
M  V30 1689 H 170.146 -2.51993 -2.45341 0
M  V30 1690 H 170.02 -1.18215 -3.58197 0
M  V30 1691 H 172.407 -0.446166 -2.91708 0
M  V30 1692 H 172.488 -1.81668 -1.80085 0
M  V30 1693 H 172.132 -3.40883 -3.76512 0
M  V30 1694 H 172.062 -2.01071 -4.86701 0
M  V30 1695 H 174.553 -1.80768 -3.3186 0
M  V30 1696 H 174.866 -4.23366 -6.46514 0
M  V30 1697 H 173.211 -3.80163 -5.81808 0
M  V30 1698 H 176.402 -2.31278 -4.06974 0
M  V30 1699 H 176.575 -3.41885 -5.50471 0
M  V30 1700 N 169.982 1.44106 -0.638065 0
M  V30 1701 C 171.207 2.0685 -0.150916 0
M  V30 1702 C 171.632 1.47417 1.16833 0
M  V30 1703 O 170.99 0.578264 1.71831 0
M  V30 1704 C 171.038 3.60555 -0.05708 0
M  V30 1705 O 170.142 4.00465 0.984972 0
M  V30 1706 H 169.483 0.658151 -0.0879399 0
M  V30 1707 H 172.013 1.84865 -0.876707 0
M  V30 1708 H 172.023 4.07789 0.131232 0
M  V30 1709 H 170.698 4.03193 -1.02021 0
M  V30 1710 H 169.275 3.64849 0.770672 0
M  V30 1711 N 171.46 0.379036 1.52974 0
M  V30 1712 C 172.708 -0.206014 2.01047 0
M  V30 1713 C 173.029 -1.48175 1.26765 0
M  V30 1714 O 172.299 -1.92085 0.384743 0
M  V30 1715 H 170.879 -0.0791184 0.742798 0
M  V30 1716 H 173.541 0.508366 1.88153 0
M  V30 1717 H 172.637 -0.423501 3.09213 0
M  V30 1718 N 172.938 -1.57226 0.108567 0
M  V30 1719 C 174.166 -1.99179 -0.559954 0
M  V30 1720 C 174.581 -0.988022 -1.60884 0
M  V30 1721 O 173.938 0.0205512 -1.82488 0
M  V30 1722 C 173.989 -3.41159 -1.19552 0
M  V30 1723 O 173.71 -4.37694 -0.188577 0
M  V30 1724 C 175.211 -3.98188 -1.94837 0
M  V30 1725 H 172.431 -0.654228 -0.149088 0
M  V30 1726 H 174.975 -2.03598 0.19183 0
M  V30 1727 H 173.13 -3.37711 -1.89815 0
M  V30 1728 H 173.544 -5.20469 -0.649014 0
M  V30 1729 H 175.018 -4.99644 -2.34648 0
M  V30 1730 H 175.495 -3.3675 -2.81951 0
M  V30 1731 H 176.101 -4.0515 -1.2936 0
M  V30 1732 N 174.416 0.165178 -1.56732 0
M  V30 1733 C 175.662 0.882112 -1.82611 0
M  V30 1734 C 175.995 1.81628 -0.687378 0
M  V30 1735 O 175.27 1.92009 0.310267 0
M  V30 1736 C 175.553 1.67245 -3.18906 0
M  V30 1737 C 175.406 0.760987 -4.43316 0
M  V30 1738 C 176.725 2.63884 -3.52212 0
M  V30 1739 H 173.844 0.319242 -0.664269 0
M  V30 1740 H 176.486 0.148052 -1.89422 0
M  V30 1741 H 174.636 2.29824 -3.1323 0
M  V30 1742 H 176.308 0.147596 -4.61064 0
M  V30 1743 H 174.551 0.0694102 -4.33744 0
M  V30 1744 H 175.222 1.34962 -5.35247 0
M  V30 1745 H 177.698 2.11429 -3.58381 0
M  V30 1746 H 176.574 3.16245 -4.48643 0
M  V30 1747 H 176.835 3.44377 -2.77231 0
M  V30 1748 N 175.894 1.51508 0.433938 0
M  V30 1749 C 177.124 1.67914 1.20369 0
M  V30 1750 C 177.532 0.377461 1.85397 0
M  V30 1751 O 176.875 -0.654255 1.71654 0
M  V30 1752 C 176.937 2.74045 2.32679 0
M  V30 1753 C 176.601 4.16543 1.87991 0
M  V30 1754 C 177.598 5.01211 1.38145 0
M  V30 1755 C 175.283 4.6266 1.95579 0
M  V30 1756 C 177.277 6.30056 0.964774 0
M  V30 1757 C 174.964 5.91501 1.53523 0
M  V30 1758 C 175.962 6.75027 1.04055 0
M  V30 1759 O 175.65 8.01459 0.625964 0
M  V30 1760 H 175.382 0.566578 0.368735 0
M  V30 1761 H 177.936 1.98709 0.51999 0
M  V30 1762 H 176.166 2.38572 3.04336 0
M  V30 1763 H 177.855 2.79295 2.94532 0
M  V30 1764 H 178.621 4.66783 1.31675 0
M  V30 1765 H 174.5 3.97767 2.33029 0
M  V30 1766 H 178.044 6.95202 0.57796 0
M  V30 1767 H 173.941 6.25442 1.59665 0
M  V30 1768 H 174.709 8.15043 0.751509 0
M  V30 1769 N 177.372 -0.689602 1.41712 0
M  V30 1770 C 178.322 -1.79571 1.40493 0
M  V30 1771 C 179.306 -1.58473 0.278409 0
M  V30 1772 O 180.498 -1.69204 0.519532 0
M  V30 1773 C 177.627 -3.17923 1.29536 0
M  V30 1774 C 176.713 -3.44695 2.47075 0
M  V30 1775 N 177.104 -3.42132 3.72531 0
M  V30 1776 C 175.402 -3.75269 2.41017 0
M  V30 1777 C 176.103 -3.67976 4.50521 0
M  V30 1778 N 175.079 -3.88014 3.80718 0
M  V30 1779 H 178.881 -1.75961 2.35404 0
M  V30 1780 H 176.395 -0.889839 1.35851 0
M  V30 1781 H 178.392 -3.97167 1.26745 0
M  V30 1782 H 177.052 -3.22741 0.356153 0
M  V30 1783 H 178.063 -3.22375 4.05333 0
M  V30 1784 H 174.74 -3.87421 1.55599 0
M  V30 1785 H 176.13 -3.7208 5.59469 0
M  V30 1786 N 178.85 -1.27639 -0.924453 0
M  V30 1787 C 180.127 -1.04887 -1.651 0
M  V30 1788 C 180.507 0.415327 -2.06974 0
M  V30 1789 O 179.855 1.39923 -1.80648 0
M  V30 1790 C 180.065 -2.01348 -2.85061 0
M  V30 1791 C 181.413 -2.30899 -3.56329 0
M  V30 1792 O 182.437 -1.99348 -2.95193 0
M  V30 1793 O 181.296 -2.84699 -4.66485 0
M  V30 1794 H 178.39 -0.400083 -0.723784 0
M  V30 1795 H 180.936 -1.38916 -0.974703 0
M  V30 1796 H 179.708 -3.0008 -2.51133 0
M  V30 1797 H 179.331 -1.679 -3.6041 0
M  V30 1798 N 180.328 1.1314 -1.09713 0
M  V30 1799 C 181.574 1.84757 -0.836224 0
M  V30 1800 C 181.907 1.8347 0.636598 0
M  V30 1801 O 181.182 1.27491 1.46889 0
M  V30 1802 C 181.465 3.32782 -1.37578 0
M  V30 1803 C 181.318 3.42567 -2.91493 0
M  V30 1804 C 182.637 4.28307 -1.01198 0
M  V30 1805 H 179.756 0.67082 -0.305236 0
M  V30 1806 H 182.398 1.3278 -1.35903 0
M  V30 1807 H 180.548 3.77177 -0.931097 0
M  V30 1808 H 182.22 3.06862 -3.44432 0
M  V30 1809 H 180.463 2.83349 -3.28475 0
M  V30 1810 H 181.134 4.46674 -3.24324 0
M  V30 1811 H 183.61 3.91999 -1.39556 0
M  V30 1812 H 182.486 5.30307 -1.41653 0
M  V30 1813 H 182.747 4.42029 0.0794833 0
M  V30 1814 N 181.806 0.884767 1.30421 0
M  V30 1815 C 183.036 0.517293 2.00019 0
M  V30 1816 C 183.444 -0.898632 1.66497 0
M  V30 1817 O 182.787 -1.60245 0.898181 0
M  V30 1818 C 182.849 0.612025 3.54252 0
M  V30 1819 C 182.513 1.99222 4.1129 0
M  V30 1820 C 183.51 2.9616 4.273 0
M  V30 1821 C 181.195 2.29755 4.46674 0
M  V30 1822 C 183.189 4.21764 4.77906 0
M  V30 1823 C 180.876 3.55606 4.96979 0
M  V30 1824 C 181.874 4.51425 5.12547 0
M  V30 1825 O 181.562 5.75043 5.61766 0
M  V30 1826 H 181.294 0.198529 0.64619 0
M  V30 1827 H 183.848 1.1919 1.67281 0
M  V30 1828 H 182.078 -0.119561 3.86515 0
M  V30 1829 H 183.767 0.255859 4.05093 0
M  V30 1830 H 184.533 2.73882 4.00267 0
M  V30 1831 H 180.412 1.55942 4.33824 0
M  V30 1832 H 183.956 4.96561 4.89972 0
M  V30 1833 H 179.853 3.7772 5.23448 0
M  V30 1834 H 180.621 5.77422 5.80109 0
M  V30 1835 N 183.284 -1.43765 0.645699 0
M  V30 1836 C 184.695 -1.85193 0.236719 0
M  V30 1837 C 185.046 -1.54045 -1.21509 0
M  V30 1838 O 184.171 -0.985694 -1.92647 0
M  V30 1839 C 184.766 -3.36151 0.422845 0
M  V30 1840 C 183.325 -3.76338 0.0682492 0
M  V30 1841 C 182.472 -2.67538 0.729306 0
M  V30 1842 H 185.423 -1.34025 0.849883 0
M  V30 1843 H 185.444 -3.79032 -0.333904 0
M  V30 1844 H 184.956 -3.5879 1.47958 0
M  V30 1845 H 183.057 -3.59312 -0.986179 0
M  V30 1846 H 183.17 -4.76603 0.488469 0
M  V30 1847 H 181.534 -2.54176 0.163235 0
M  V30 1848 H 182.317 -2.93006 1.78892 0
M  V30 1849 N 184.763 -0.387143 -1.52771 0
M  V30 1850 C 185.988 0.198407 -2.06449 0
M  V30 1851 C 186.413 1.39918 -1.25716 0
M  V30 1852 O 185.771 1.79099 -0.281657 0
M  V30 1853 C 185.819 0.548893 -3.56398 0
M  V30 1854 O 184.923 1.64315 -3.78252 0
M  V30 1855 H 184.264 0.0237731 -0.663574 0
M  V30 1856 H 186.794 -0.553989 -1.96957 0
M  V30 1857 H 186.804 0.813812 -3.99801 0
M  V30 1858 H 185.479 -0.329005 -4.14597 0
M  V30 1859 H 184.056 1.37211 -3.46738 0
M  V30 1860 N 186.241 1.57166 -0.116904 0
M  V30 1861 C 187.652 1.82169 0.408809 0
M  V30 1862 C 188.003 1.03393 1.66746 0
M  V30 1863 O 187.128 0.269886 2.1471 0
M  V30 1864 C 187.723 3.30429 0.748466 0
M  V30 1865 C 186.282 3.5612 1.21882 0
M  V30 1866 C 185.429 2.76374 0.226452 0
M  V30 1867 H 188.38 1.5497 -0.342063 0
M  V30 1868 H 188.401 3.44943 1.60607 0
M  V30 1869 H 187.913 3.87737 -0.167784 0
M  V30 1870 H 186.014 3.04168 2.15204 0
M  V30 1871 H 186.127 4.64705 1.16559 0
M  V30 1872 H 184.491 2.44515 0.713063 0
M  V30 1873 H 185.274 3.3644 -0.682859 0
M  V30 1874 N 187.719 -0.156864 1.56817 0
M  V30 1875 C 188.967 -0.869404 1.82444 0
M  V30 1876 C 189.288 -1.82147 0.69623 0
M  V30 1877 O 188.558 -1.93847 -0.28287 0
M  V30 1878 H 187.138 -0.324043 0.673056 0
M  V30 1879 H 189.8 -0.153224 1.94297 0
M  V30 1880 H 188.896 -1.43761 2.77019 0
M  V30 1881 N 189.197 -1.51736 -0.425897 0
M  V30 1882 C 190.16 -1.73271 -1.50032 0
M  V30 1883 C 191.16 -0.602639 -1.4908 0
M  V30 1884 O 192.35 -0.87033 -1.509 0
M  V30 1885 C 189.482 -1.79969 -2.89523 0
M  V30 1886 H 190.675 -2.69172 -1.32237 0
M  V30 1887 H 188.228 -1.41899 -0.65532 0
M  V30 1888 H 188.963 -0.859241 -3.1271 0
M  V30 1889 H 188.748 -2.62109 -2.91619 0
M  V30 1890 H 190.238 -1.9843 -3.67444 0
M  V30 1891 N 190.675 0.682077 -1.42076 0
M  V30 1892 C 191.625 1.78823 -1.41444 0
M  V30 1893 C 192.609 1.58323 -0.28681 0
M  V30 1894 O 193.801 1.68926 -0.528498 0
M  V30 1895 C 190.93 3.17232 -1.3122 0
M  V30 1896 C 190.016 3.4338 -2.489 0
M  V30 1897 N 190.407 3.40152 -3.7434 0
M  V30 1898 C 188.705 3.73986 -2.43003 0
M  V30 1899 C 189.406 3.65581 -4.52466 0
M  V30 1900 N 188.382 3.85989 -3.8277 0
M  V30 1901 H 192.184 1.7471 -2.36334 0
M  V30 1902 H 189.698 0.882622 -1.36321 0
M  V30 1903 H 191.695 3.96489 -1.2885 0
M  V30 1904 H 190.355 3.22547 -0.373263 0
M  V30 1905 H 191.366 3.20221 -4.07037 0
M  V30 1906 H 188.043 3.86591 -1.57651 0
M  V30 1907 H 189.433 3.69108 -5.61435 0
M  V30 1908 N 192.153 1.28127 0.917671 0
M  V30 1909 C 193.103 1.08361 2.00604 0
M  V30 1910 C 194.087 0.00847518 1.60898 0
M  V30 1911 O 195.279 0.228167 1.75523 0
M  V30 1912 C 192.408 0.743376 3.35155 0
M  V30 1913 C 191.494 1.85716 3.81275 0
M  V30 1914 N 191.885 3.09822 3.99805 0
M  V30 1915 C 190.183 1.74612 4.10398 0
M  V30 1916 C 190.884 3.82368 4.38372 0
M  V30 1917 N 189.86 3.10192 4.4641 0
M  V30 1918 H 193.662 2.02531 2.12975 0
M  V30 1919 H 191.176 1.18989 1.10523 0
M  V30 1920 H 193.173 0.582859 4.12805 0
M  V30 1921 H 191.833 -0.190595 3.2414 0
M  V30 1922 H 192.844 3.45475 3.85833 0
M  V30 1923 H 189.521 0.883657 4.08041 0
M  V30 1924 H 190.911 4.89082 4.60704 0
M  V30 1925 N 193.631 -1.12557 1.10312 0
M  V30 1926 C 194.561 -2.20341 0.772798 0
M  V30 1927 C 195.542 -1.68198 -0.25365 0
M  V30 1928 O 196.727 -1.93831 -0.119699 0
M  V30 1929 C 193.857 -3.46709 0.202443 0
M  V30 1930 C 192.811 -4.11996 1.15943 0
M  V30 1931 C 192.137 -5.328 0.450345 0
M  V30 1932 C 193.437 -4.5828 2.50552 0
M  V30 1933 H 195.131 -2.48229 1.674 0
M  V30 1934 H 192.677 -1.19308 0.806326 0
M  V30 1935 H 194.63 -4.2138 -0.0407752 0
M  V30 1936 H 193.354 -3.18245 -0.734001 0
M  V30 1937 H 192.013 -3.39305 1.38808 0
M  V30 1938 H 191.661 -5.00602 -0.490531 0
M  V30 1939 H 191.361 -5.7743 1.08851 0
M  V30 1940 H 192.885 -6.10219 0.215642 0
M  V30 1941 H 194.299 -5.2433 2.31843 0
M  V30 1942 H 192.696 -5.13683 3.10242 0
M  V30 1943 H 193.766 -3.72329 3.10643 0
M  V30 1944 N 195.109 -0.891671 -1.2995 0
M  V30 1945 C 196.334 -0.527932 -2.00568 0
M  V30 1946 C 196.759 0.877969 -1.66353 0
M  V30 1947 O 196.117 1.58301 -0.883762 0
M  V30 1948 C 196.165 -0.717745 -3.53385 0
M  V30 1949 O 195.269 0.233376 -4.11739 0
M  V30 1950 H 194.61 -0.20722 -0.630837 0
M  V30 1951 H 197.14 -1.20105 -1.65638 0
M  V30 1952 H 197.15 -0.619307 -4.03272 0
M  V30 1953 H 195.825 -1.74276 -3.77625 0
M  V30 1954 H 194.402 0.0880706 -3.72796 0
M  V30 1955 N 196.587 1.43421 -0.653314 0
M  V30 1956 C 197.812 2.06678 -0.172846 0
M  V30 1957 C 198.237 1.48648 1.15262 0
M  V30 1958 O 197.595 0.596457 1.71208 0
M  V30 1959 C 197.643 3.60474 -0.0953184 0
M  V30 1960 O 196.747 4.01487 0.942442 0
M  V30 1961 H 196.088 0.657181 -0.0949155 0
M  V30 1962 H 198.618 1.83925 -0.896265 0
M  V30 1963 H 198.628 4.07905 0.0879728 0
M  V30 1964 H 197.303 4.02088 -1.06291 0
M  V30 1965 H 195.88 3.65646 0.731932 0
M  V30 1966 N 198.065 0.39524 1.52563 0
M  V30 1967 C 198.975 -0.444232 2.30356 0
M  V30 1968 C 199.991 -1.06615 1.37511 0
M  V30 1969 O 201.167 -1.07067 1.70583 0
M  V30 1970 C 198.232 -1.55315 3.09964 0
M  V30 1971 C 197.293 -0.955734 4.18526 0
M  V30 1972 C 196.526 -2.01181 4.9433 0
M  V30 1973 O 196.749 -3.22781 4.70285 0
M  V30 1974 O 195.683 -1.62579 5.79527 0
M  V30 1975 H 199.509 0.189667 3.03107 0
M  V30 1976 H 197.094 0.1588 1.48554 0
M  V30 1977 H 198.976 -2.19724 3.59582 0
M  V30 1978 H 197.651 -2.17191 2.4002 0
M  V30 1979 H 196.558 -0.274743 3.7309 0
M  V30 1980 H 197.891 -0.381109 4.90722 0
M  V30 1981 N 199.544 -1.57102 0.125237 0
M  V30 1982 C 200.772 -1.99761 -0.538797 0
M  V30 1983 C 201.187 -1.00503 -1.59827 0
M  V30 1984 O 200.544 0.00119474 -1.825 0
M  V30 1985 C 200.595 -3.42408 -1.15927 0
M  V30 1986 O 200.316 -4.37869 -0.142143 0
M  V30 1987 C 201.817 -4.00232 -1.90602 0
M  V30 1988 H 199.037 -0.655772 -0.14214 0
M  V30 1989 H 201.581 -2.03383 0.213413 0
M  V30 1990 H 199.736 -3.39706 -1.86223 0
M  V30 1991 H 200.15 -5.21128 -0.593775 0
M  V30 1992 H 201.624 -5.02105 -2.29335 0
M  V30 1993 H 202.101 -3.39721 -2.78363 0
M  V30 1994 H 202.707 -4.06499 -1.25055 0
M  V30 1995 N 201.022 0.148545 -1.56898 0
M  V30 1996 C 202.247 0.880385 -1.87787 0
M  V30 1997 C 202.672 1.74018 -0.714093 0
M  V30 1998 O 202.03 1.78153 0.336343 0
M  V30 1999 C 202.078 1.71422 -3.17249 0
M  V30 2000 O 201.182 2.8183 -3.01074 0
M  V30 2001 H 200.523 0.245301 -0.617028 0
M  V30 2002 H 203.053 0.139826 -2.04122 0
M  V30 2003 H 203.063 2.10954 -3.49231 0
M  V30 2004 H 201.738 1.08284 -4.01556 0
M  V30 2005 H 200.315 2.45715 -2.80497 0
M  V30 2006 N 202.5 1.5196 0.417844 0
M  V30 2007 C 203.41 1.77554 1.53336 0
M  V30 2008 C 204.426 0.660655 1.6097 0
M  V30 2009 O 205.602 0.945099 1.77848 0
M  V30 2010 C 202.667 1.91291 2.89152 0
M  V30 2011 C 201.728 3.15183 2.91475 0
M  V30 2012 C 200.961 3.28256 4.20813 0
M  V30 2013 O 201.184 2.46798 5.14244 0
M  V30 2014 O 200.118 4.21356 4.29817 0
M  V30 2015 H 203.944 2.7222 1.34647 0
M  V30 2016 H 201.529 1.36698 0.602828 0
M  V30 2017 H 203.411 2.02199 3.69721 0
M  V30 2018 H 202.086 0.998129 3.07927 0
M  V30 2019 H 200.993 3.09739 2.09791 0
M  V30 2020 H 202.326 4.06414 2.77648 0
M  V30 2021 N 203.978 -0.674533 1.42435 0
M  V30 2022 C 205.206 -1.46283 1.46317 0
M  V30 2023 C 205.621 -1.88653 0.0745836 0
M  V30 2024 O 204.978 -1.58151 -0.91074 0
M  V30 2025 C 205.029 -2.71178 2.3905 0
M  V30 2026 O 204.75 -2.30586 3.72507 0
M  V30 2027 C 206.251 -3.64738 2.51955 0
M  V30 2028 H 203.471 -0.450104 0.497642 0
M  V30 2029 H 206.015 -0.828792 1.86953 0
M  V30 2030 H 204.17 -3.3077 2.01667 0
M  V30 2031 H 204.584 -3.11241 4.22172 0
M  V30 2032 H 206.058 -4.49096 3.20962 0
M  V30 2033 H 206.535 -4.10656 1.55752 0
M  V30 2034 H 207.141 -3.11038 2.90061 0
M  V30 2035 N 205.456 -1.28612 -0.910864 0
M  V30 2036 C 206.386 -1.15326 -2.03032 0
M  V30 2037 C 207.367 -0.0502924 -1.70026 0
M  V30 2038 O 208.552 -0.227797 -1.92859 0
M  V30 2039 C 205.682 -0.817343 -3.37545 0
M  V30 2040 C 204.636 -1.8754 -3.84724 0
M  V30 2041 C 203.962 -1.39305 -5.16235 0
M  V30 2042 C 205.262 -3.28244 -4.06267 0
M  V30 2043 H 206.956 -2.08975 -2.14406 0
M  V30 2044 H 204.502 -1.00612 -1.03021 0
M  V30 2045 H 206.455 -0.711151 -4.15356 0
M  V30 2046 H 205.179 0.154846 -3.26233 0
M  V30 2047 H 203.838 -1.97079 -3.09121 0
M  V30 2048 H 203.486 -0.409846 -5.01328 0
M  V30 2049 H 203.186 -2.10057 -5.48771 0
M  V30 2050 H 204.71 -1.30014 -5.96598 0
M  V30 2051 H 206.124 -3.21611 -4.74594 0
M  V30 2052 H 204.521 -3.96855 -4.5014 0
M  V30 2053 H 205.591 -3.72048 -3.10979 0
M  V30 2054 N 206.934 1.1197 -1.10907 0
M  V30 2055 C 207.864 2.19928 -0.784473 0
M  V30 2056 C 208.845 1.6833 0.244726 0
M  V30 2057 O 210.03 1.93892 0.109418 0
M  V30 2058 C 207.16 3.46597 -0.220827 0
M  V30 2059 C 206.114 4.11376 -1.18127 0
M  V30 2060 C 205.44 5.32554 -0.478594 0
M  V30 2061 C 206.74 4.56945 -2.52979 0
M  V30 2062 H 208.434 2.47337 -1.68715 0
M  V30 2063 H 205.98 1.18879 -0.812642 0
M  V30 2064 H 207.933 4.21396 0.0184278 0
M  V30 2065 H 206.657 3.1863 0.717113 0
M  V30 2066 H 205.316 3.38564 -1.40606 0
M  V30 2067 H 204.964 5.00856 0.463976 0
M  V30 2068 H 204.664 5.76844 -1.11912 0
M  V30 2069 H 206.188 6.10096 -0.248 0
M  V30 2070 H 207.602 5.23093 -2.3462 0
M  V30 2071 H 205.999 5.1203 -3.12962 0
M  V30 2072 H 207.069 3.70676 -3.12614 0
M  V30 2073 N 208.412 0.89855 1.29475 0
M  V30 2074 C 209.322 0.379974 2.31502 0
M  V30 2075 C 210.338 -0.524695 1.659 0
M  V30 2076 O 211.514 -0.414551 1.97087 0
M  V30 2077 C 208.579 -0.385138 3.44554 0
M  V30 2078 C 207.64 0.550914 4.2575 0
M  V30 2079 C 206.873 -0.177778 5.33404 0
M  V30 2080 O 207.096 -1.40189 5.52904 0
M  V30 2081 O 206.03 0.479106 5.9999 0
M  V30 2082 H 209.856 1.22639 2.77837 0
M  V30 2083 H 207.441 0.662834 1.33891 0
M  V30 2084 H 209.323 -0.817841 4.13388 0
M  V30 2085 H 207.998 -1.20763 3.0033 0
M  V30 2086 H 206.905 1.03271 3.59564 0
M  V30 2087 H 208.238 1.33979 4.73614 0
M  V30 2088 N 209.89 -1.43072 0.660911 0
M  V30 2089 C 211.137 -2.01721 0.177445 0
M  V30 2090 C 211.465 -1.5218 -1.21126 0
M  V30 2091 O 210.72 -0.708659 -1.82419 0
M  V30 2092 C 211.019 -3.57103 0.145563 0
M  V30 2093 C 210.685 -4.26021 1.47705 0
M  V30 2094 C 209.347 -4.44563 1.84165 0
M  V30 2095 C 211.699 -4.64983 2.35458 0
M  V30 2096 C 209.027 -4.99334 3.0803 0
M  V30 2097 C 211.379 -5.21127 3.58622 0
M  V30 2098 C 210.043 -5.37884 3.95268 0
M  V30 2099 H 209.313 -0.73815 0.0649317 0
M  V30 2100 H 211.96 -1.71446 0.853144 0
M  V30 2101 H 210.265 -3.86965 -0.61361 0
M  V30 2102 H 211.962 -4.00248 -0.2455 0
M  V30 2103 H 208.552 -4.11939 1.18339 0
M  V30 2104 H 212.736 -4.50343 2.08579 0
M  V30 2105 H 207.992 -5.10493 3.36462 0
M  V30 2106 H 212.166 -5.50262 4.26831 0
M  V30 2107 H 209.793 -5.80089 4.91325 0
M  V30 2108 N 211.368 -0.403325 -1.52352 0
M  V30 2109 C 212.318 0.442244 -2.2367 0
M  V30 2110 C 213.302 1.01823 -1.24583 0
M  V30 2111 O 214.494 0.942005 -1.49851 0
M  V30 2112 C 211.623 1.5615 -3.05732 0
M  V30 2113 C 210.709 0.996575 -4.12225 0
M  V30 2114 N 211.1 0.157804 -5.05554 0
M  V30 2115 C 209.398 1.26767 -4.27605 0
M  V30 2116 C 210.099 -0.155853 -5.81491 0
M  V30 2117 N 209.075 0.451775 -5.41719 0
M  V30 2118 H 212.877 -0.204964 -2.93184 0
M  V30 2119 H 210.391 -0.213418 -1.60992 0
M  V30 2120 H 212.388 2.17981 -3.55373 0
M  V30 2121 H 211.048 2.21139 -2.37755 0
M  V30 2122 H 212.059 -0.206049 -5.1749 0
M  V30 2123 H 208.736 1.91757 -3.70858 0
M  V30 2124 H 210.126 -0.836329 -6.66675 0
M  V30 2125 N 212.846 1.57033 -0.133567 0
M  V30 2126 C 214.074 2.00044 0.528195 0
M  V30 2127 C 214.489 1.01349 1.59291 0
M  V30 2128 O 213.846 0.00848369 1.82498 0
M  V30 2129 C 213.897 3.43018 1.1411 0
M  V30 2130 O 213.618 4.37939 0.11892 0
M  V30 2131 C 215.119 4.01237 1.88477 0
M  V30 2132 H 212.339 0.656517 0.138661 0
M  V30 2133 H 214.883 2.03267 -0.224196 0
M  V30 2134 H 213.038 3.40688 1.84418 0
M  V30 2135 H 213.452 5.21436 0.56613 0
M  V30 2136 H 214.926 5.03314 2.26669 0
M  V30 2137 H 215.403 3.41193 2.76558 0
M  V30 2138 H 216.009 4.07156 1.22898 0
M  V30 2139 N 214.325 -0.140222 1.56975 0
M  V30 2140 C 215.235 -1.19223 2.02047 0
M  V30 2141 C 216.251 -1.46612 0.937062 0
M  V30 2142 O 217.427 -1.58148 1.24704 0
M  V30 2143 C 214.492 -2.50414 2.39778 0
M  V30 2144 C 213.553 -2.30612 3.621 0
M  V30 2145 C 212.786 -3.55547 3.98023 0
M  V30 2146 O 213.009 -4.62004 3.34528 0
M  V30 2147 O 211.943 -3.47808 4.91237 0
M  V30 2148 H 215.769 -0.839559 2.91865 0
M  V30 2149 H 213.354 -0.349453 1.45256 0
M  V30 2150 H 215.236 -3.27747 2.64877 0
M  V30 2151 H 213.911 -2.85198 1.53114 0
M  V30 2152 H 212.818 -1.51207 3.4218 0
M  V30 2153 H 214.151 -2.00741 4.49404 0
M  V30 2154 N 215.803 -1.52179 -0.40978 0
M  V30 2155 C 216.736 -1.70196 -1.52015 0
M  V30 2156 C 217.714 -0.549542 -1.53032 0
M  V30 2157 O 218.898 -0.776815 -1.71749 0
M  V30 2158 C 216.025 -1.74069 -2.90547 0
M  V30 2159 C 215.071 -2.95601 -3.07445 0
M  V30 2160 S 215.904 -4.55956 -2.80827 0
M  V30 2161 C 217.06 -4.62614 -4.21591 0
M  V30 2162 H 217.293 -2.64109 -1.36504 0
M  V30 2163 H 214.826 -1.4221 -0.601312 0
M  V30 2164 H 216.784 -1.76985 -3.70387 0
M  V30 2165 H 215.445 -0.812835 -3.034 0
M  V30 2166 H 214.638 -2.94791 -4.08796 0
M  V30 2167 H 214.24 -2.90569 -2.35469 0
M  V30 2168 H 216.532 -4.39951 -5.15218 0
M  V30 2169 H 217.475 -5.64548 -4.27424 0
M  V30 2170 H 217.883 -3.91654 -4.06531 0
M  V30 2171 N 217.281 0.66697 -1.42791 0
M  V30 2172 C 218.244 1.76211 -1.46568 0
M  V30 2173 C 219.244 1.56896 -0.352196 0
M  V30 2174 O 220.434 1.63044 -0.613364 0
M  V30 2175 C 217.566 3.14935 -1.30494 0
M  V30 2176 H 218.759 1.74247 -2.44086 0
M  V30 2177 H 216.312 0.877342 -1.29354 0
M  V30 2178 H 217.047 3.2252 -0.339301 0
M  V30 2179 H 216.832 3.30359 -2.11199 0
M  V30 2180 H 218.322 3.94821 -1.36038 0
M  V30 2181 N 218.759 1.29093 0.90403 0
M  V30 2182 C 219.989 1.19516 1.68522 0
M  V30 2183 C 220.397 -0.24738 1.87576 0
M  V30 2184 O 219.74 -1.17798 1.40959 0
M  V30 2185 C 219.802 1.83249 3.0929 0
M  V30 2186 C 219.466 3.32531 3.13484 0
M  V30 2187 C 220.463 4.28821 2.93953 0
M  V30 2188 C 218.148 3.73656 3.35688 0
M  V30 2189 C 220.142 5.64212 2.96553 0
M  V30 2190 C 217.829 5.0917 3.37919 0
M  V30 2191 C 218.827 6.04258 3.18373 0
M  V30 2192 O 218.515 7.37298 3.20385 0
M  V30 2193 H 218.247 0.415467 0.533257 0
M  V30 2194 H 220.801 1.70912 1.13922 0
M  V30 2195 H 219.031 1.26358 3.65473 0
M  V30 2196 H 220.72 1.68054 3.69476 0
M  V30 2197 H 221.486 3.98382 2.76616 0
M  V30 2198 H 217.365 3.00101 3.49943 0
M  V30 2199 H 220.909 6.38407 2.81216 0
M  V30 2200 H 216.806 5.39256 3.54787 0
M  V30 2201 H 217.574 7.46048 3.36681 0
M  V30 2202 N 220.237 -1.11381 1.11499 0
M  V30 2203 C 221.187 -2.15555 0.74298 0
M  V30 2204 C 222.171 -1.58894 -0.253276 0
M  V30 2205 O 223.363 -1.76897 -0.0602918 0
M  V30 2206 C 220.492 -3.42782 0.188481 0
M  V30 2207 C 219.578 -4.064 1.21244 0
M  V30 2208 N 219.969 -4.44864 2.40685 0
M  V30 2209 C 218.267 -4.3333 1.05552 0
M  V30 2210 C 218.968 -4.94715 3.05994 0
M  V30 2211 N 217.944 -4.90909 2.33472 0
M  V30 2212 H 221.746 -2.43074 1.65203 0
M  V30 2213 H 219.26 -1.28401 0.994329 0
M  V30 2214 H 221.257 -4.16789 -0.0961693 0
M  V30 2215 H 219.917 -3.16727 -0.715149 0
M  V30 2216 H 220.928 -4.36876 2.78136 0
M  V30 2217 H 217.605 -4.1698 0.208372 0
M  V30 2218 H 218.995 -5.34103 4.07656 0
M  V30 2219 N 221.715 -0.905404 -1.28997 0
M  V30 2220 C 223.131 -0.60233 -1.47798 0
M  V30 2221 C 223.331 0.854645 -1.82478 0
M  V30 2222 O 222.387 1.63439 -1.92468 0
M  V30 2223 C 223.7 -1.53306 -2.58685 0
M  V30 2224 C 225.248 -1.53887 -2.72558 0
M  V30 2225 C 225.723 -2.45602 -3.86579 0
M  V30 2226 N 227.214 -2.43681 -3.93921 0
M  V30 2227 C 227.949 -3.11347 -4.81509 0
M  V30 2228 N 227.445 -3.88313 -5.73746 0
M  V30 2229 N 229.238 -3.00476 -4.75048 0
M  V30 2230 H 221.389 -1.84765 -1.04764 0
M  V30 2231 H 223.652 -0.792025 -0.520961 0
M  V30 2232 H 223.358 -2.57141 -2.39941 0
M  V30 2233 H 223.232 -1.25787 -3.55609 0
M  V30 2234 H 225.619 -0.507941 -2.90696 0
M  V30 2235 H 225.7 -1.85447 -1.76191 0
M  V30 2236 H 225.344 -3.48792 -3.69197 0
M  V30 2237 H 225.274 -2.11349 -4.82327 0
M  V30 2238 H 227.765 -1.87767 -3.27951 0
M  V30 2239 H 228.078 -4.36985 -6.37389 0
M  V30 2240 H 226.423 -3.92419 -5.73614 0
M  V30 2241 H 229.614 -2.39858 -4.01977 0
M  V30 2242 H 229.787 -3.53485 -5.43095 0
M  V30 2243 N 223.193 1.4272 -0.668489 0
M  V30 2244 C 224.123 2.335 -0.000100175 0
M  V30 2245 C 225.104 1.50328 0.795964 0
M  V30 2246 O 226.289 1.78949 0.754385 0
M  V30 2247 C 223.419 3.33874 0.956302 0
M  V30 2248 C 222.373 4.27152 0.269278 0
M  V30 2249 C 221.699 5.17684 1.33818 0
M  V30 2250 C 222.999 5.15373 -0.847805 0
M  V30 2251 H 224.693 2.89639 -0.758244 0
M  V30 2252 H 222.239 1.39269 -0.366079 0
M  V30 2253 H 224.192 3.9629 1.43292 0
M  V30 2254 H 222.916 2.76025 1.74579 0
M  V30 2255 H 221.575 3.66123 -0.187042 0
M  V30 2256 H 221.223 4.56165 2.1195 0
M  V30 2257 H 220.923 5.80918 0.883659 0
M  V30 2258 H 222.447 5.82974 1.81586 0
M  V30 2259 H 223.861 5.7151 -0.452681 0
M  V30 2260 H 222.258 5.87407 -1.22773 0
M  V30 2261 H 223.328 4.5415 -1.69929 0
M  V30 2262 N 224.671 0.411399 1.52136 0
M  V30 2263 C 225.603 -0.448386 2.24771 0
M  V30 2264 C 226.616 -1.00828 1.27818 0
M  V30 2265 O 227.805 -0.906841 1.53749 0
M  V30 2266 C 224.905 -1.63636 2.96777 0
M  V30 2267 C 224.078 -1.19995 4.20618 0
M  V30 2268 C 223.137 -2.25509 4.75428 0
M  V30 2269 O 222.163 -1.86007 5.3795 0
M  V30 2270 N 223.365 -3.577 4.57199 0
M  V30 2271 H 226.13 0.174025 2.99194 0
M  V30 2272 H 223.691 0.238897 1.60128 0
M  V30 2273 H 225.683 -2.33793 3.30338 0
M  V30 2274 H 224.253 -2.16465 2.25526 0
M  V30 2275 H 223.473 -0.326421 3.92846 0
M  V30 2276 H 224.761 -0.885365 5.01038 0
M  V30 2277 H 224.159 -3.92543 4.07341 0
M  V30 2278 H 222.716 -4.23827 4.95191 0
M  V30 2279 N 226.149 -1.5696 0.141893 0
M  V30 2280 C 227.56 -1.82797 -0.379776 0
M  V30 2281 C 227.911 -1.06033 -1.6508 0
M  V30 2282 O 227.036 -0.304011 -2.14254 0
M  V30 2283 C 227.631 -3.31578 -0.695802 0
M  V30 2284 C 226.19 -3.58014 -1.16201 0
M  V30 2285 C 225.337 -2.76699 -0.182455 0
M  V30 2286 H 228.288 -1.54406 0.366675 0
M  V30 2287 H 228.309 -3.47454 -1.55099 0
M  V30 2288 H 227.821 -3.87421 0.229449 0
M  V30 2289 H 225.922 -3.07553 -2.10338 0
M  V30 2290 H 226.035 -4.66501 -1.09151 0
M  V30 2291 H 224.399 -2.45618 -0.674072 0
M  V30 2292 H 225.182 -3.35311 0.736297 0
M  V30 2293 N 227.627 0.131896 -1.57047 0
M  V30 2294 C 228.575 1.18146 -2.0036 0
M  V30 2295 C 229.569 1.43614 -0.898406 0
M  V30 2296 O 230.775 1.43729 -1.08361 0
M  V30 2297 H 227.15 0.398042 -0.638018 0
M  V30 2298 H 229.121 0.789564 -2.87765 0
M  V30 2299 C 227.87 2.50341 -2.41298 0
M  V30 2300 H 227.193 2.31578 -3.25902 0
M  V30 2301 H 228.633 3.22371 -2.75414 0
M  V30 2302 C 227.092 3.11984 -1.27153 0
M  V30 2303 O 227.622 3.97484 -0.580459 0
M  V30 2304 N 225.828 2.71662 -1.03189 0
M  V30 2305 H 225.375 2.02231 -1.59564 0
M  V30 2306 H 225.333 3.13238 -0.270077 0
M  V30 2307 N 229.106 1.52395 0.401703 0
M  V30 2308 C 230.336 1.70429 1.1678 0
M  V30 2309 C 230.744 0.416702 1.84554 0
M  V30 2310 O 230.087 -0.617697 1.73003 0
M  V30 2311 C 230.149 2.78919 2.26814 0
M  V30 2312 C 229.813 4.20437 1.79113 0
M  V30 2313 C 230.81 5.04028 1.27482 0
M  V30 2314 C 228.495 4.66704 1.85722 0
M  V30 2315 C 230.489 6.31961 0.830913 0
M  V30 2316 C 228.176 5.94625 1.40942 0
M  V30 2317 C 229.174 6.77082 0.897128 0
M  V30 2318 O 228.862 8.02607 0.455822 0
M  V30 2319 H 228.594 0.574272 0.356634 0
M  V30 2320 H 231.148 1.99767 0.477724 0
M  V30 2321 H 229.378 2.44973 2.99207 0
M  V30 2322 H 231.067 2.8548 2.88541 0
M  V30 2323 H 231.833 4.69471 1.21744 0
M  V30 2324 H 227.712 4.0262 2.24539 0
M  V30 2325 H 231.256 6.96271 0.430368 0
M  V30 2326 H 227.153 6.28688 1.46362 0
M  V30 2327 H 227.921 8.16453 0.578457 0
M  V30 2328 N 230.584 -0.659388 1.43143 0
M  V30 2329 C 231.83 -1.42145 1.44647 0
M  V30 2330 C 232.163 -1.9408 0.0681907 0
M  V30 2331 O 231.438 -1.71899 -0.910007 0
M  V30 2332 C 231.721 -2.60735 2.48373 0
M  V30 2333 C 231.574 -2.14332 3.95451 0
M  V30 2334 C 232.893 -3.62951 2.48906 0
M  V30 2335 H 230.012 -0.51552 0.526696 0
M  V30 2336 H 232.654 -0.748069 1.74654 0
M  V30 2337 H 230.804 -3.18184 2.22916 0
M  V30 2338 H 232.476 -1.61932 4.31944 0
M  V30 2339 H 230.719 -1.4576 4.08578 0
M  V30 2340 H 231.39 -2.99583 4.63631 0
M  V30 2341 H 233.866 -3.1525 2.71582 0
M  V30 2342 H 232.742 -4.43487 3.23435 0
M  V30 2343 H 233.003 -4.15126 1.52061 0
M  V30 2344 N 232.062 -1.29571 -0.897171 0
M  V30 2345 C 232.995 -1.0924 -2.00354 0
M  V30 2346 C 233.973 -0.00354011 -1.626 0
M  V30 2347 O 235.157 -0.15473 -1.87864 0
M  V30 2348 C 232.284 -0.66352 -3.32137 0
M  V30 2349 C 231.33 -1.75146 -3.88878 0
M  V30 2350 S 232.163 -3.35124 -4.17674 0
M  V30 2351 C 233.319 -2.9411 -5.52494 0
M  V30 2352 H 233.552 -2.02907 -2.17292 0
M  V30 2353 H 231.085 -1.13746 -1.04408 0
M  V30 2354 H 233.043 -0.422791 -4.08317 0
M  V30 2355 H 231.704 0.253588 -3.13075 0
M  V30 2356 H 230.897 -1.40337 -4.84068 0
M  V30 2357 H 230.499 -1.94584 -3.19395 0
M  V30 2358 H 232.791 -2.41312 -6.33068 0
M  V30 2359 H 233.734 -3.88161 -5.9223 0
M  V30 2360 H 234.142 -2.32332 -5.14473 0
M  V30 2361 N 233.54 1.10788 -1.12088 0
M  V30 2362 C 234.47 2.19083 -0.807755 0
M  V30 2363 C 235.451 1.6858 0.226859 0
M  V30 2364 O 236.636 1.93997 0.0888475 0
M  V30 2365 C 233.766 3.46344 -0.257576 0
M  V30 2366 C 232.72 4.101 -1.22483 0
M  V30 2367 C 232.046 5.32016 -0.535052 0
M  V30 2368 C 233.346 4.54236 -2.57811 0
M  V30 2369 H 235.04 2.45534 -1.71328 0
M  V30 2370 H 232.586 1.1801 -0.825205 0
M  V30 2371 H 234.539 4.21392 -0.0262679 0
M  V30 2372 H 233.263 3.19373 0.683278 0
M  V30 2373 H 231.922 3.37054 -1.44189 0
M  V30 2374 H 231.57 5.01319 0.410827 0
M  V30 2375 H 231.27 5.75625 -1.18024 0
M  V30 2376 H 232.794 6.09799 -0.312695 0
M  V30 2377 H 234.208 5.20575 -2.40155 0
M  V30 2378 H 232.605 5.08682 -3.18375 0
M  V30 2379 H 233.675 3.6734 -3.16528 0
M  V30 2380 N 235.018 0.912232 1.28515 0
M  V30 2381 C 235.981 0.404223 2.25607 0
M  V30 2382 C 236.981 -0.468602 1.53821 0
M  V30 2383 O 238.171 -0.271873 1.72065 0
M  V30 2384 C 235.303 -0.420653 3.38295 0
M  V30 2385 H 236.496 1.26188 2.7206 0
M  V30 2386 H 234.049 0.691495 1.40171 0
M  V30 2387 H 234.784 -1.29777 2.97201 0
M  V30 2388 H 234.569 0.204935 3.91564 0
M  V30 2389 H 236.059 -0.766971 4.10496 0
M  V30 2390 N 236.496 -1.42363 0.676048 0
M  V30 2391 C 237.736 -2.03392 0.20273 0
M  V30 2392 C 238.1 -1.52306 -1.16906 0
M  V30 2393 O 239.301 -2.05129 -1.73711 0
M  V30 2394 C 237.572 -3.56614 0.236947 0
M  V30 2395 S 239.131 -4.38489 -0.165186 0
M  V30 2396 H 235.949 -0.70611 0.0832418 0
M  V30 2397 H 238.551 -1.74093 0.88948 0
M  V30 2398 H 237.255 -3.91293 1.23767 0
M  V30 2399 H 236.786 -3.90587 -0.469596 0
M  V30 2400 H 238.801 -4.76093 -1.39822 0
M  V30 2401 N 237.974 -0.419461 -1.51915 0
M  V30 2402 C 239.199 0.154572 -2.06823 0
M  V30 2403 C 239.624 1.3722 -1.28656 0
M  V30 2404 O 238.982 1.78461 -0.319583 0
M  V30 2405 C 239.03 0.473172 -3.57482 0
M  V30 2406 O 238.134 1.56255 -3.81652 0
M  V30 2407 H 237.475 0.0096924 -0.663929 0
M  V30 2408 H 240.005 -0.595642 -1.95738 0
M  V30 2409 H 240.015 0.728825 -4.01438 0
M  V30 2410 H 238.69 -0.416873 -4.13805 0
M  V30 2411 H 237.267 1.29825 -3.49571 0
M  V30 2412 N 239.452 1.56882 -0.150215 0
M  V30 2413 C 240.868 1.58263 0.20617 0
M  V30 2414 C 241.068 1.16464 1.64434 0
M  V30 2415 O 240.124 0.866422 2.3717 0
M  V30 2416 C 241.437 3.00649 -0.0555025 0
M  V30 2417 C 242.985 3.12999 0.00795388 0
M  V30 2418 C 243.46 4.5744 -0.226429 0
M  V30 2419 N 244.951 4.62875 -0.173469 0
M  V30 2420 C 245.686 5.72454 -0.329288 0
M  V30 2421 N 245.182 6.90669 -0.543005 0
M  V30 2422 N 246.975 5.61467 -0.266666 0
M  V30 2423 H 239.126 1.82345 -1.08922 0
M  V30 2424 H 241.389 0.844149 -0.431413 0
M  V30 2425 H 241.095 3.3563 -1.05096 0
M  V30 2426 H 240.969 3.71337 0.66246 0
M  V30 2427 H 243.356 2.77857 0.993966 0
M  V30 2428 H 243.437 2.4479 -0.742388 0
M  V30 2429 H 243.081 4.93287 -1.20956 0
M  V30 2430 H 243.011 5.2378 0.544274 0
M  V30 2431 H 245.502 3.77898 -0.0130709 0
M  V30 2432 H 245.815 7.70045 -0.651922 0
M  V30 2433 H 244.16 6.92581 -0.579366 0
M  V30 2434 H 247.351 4.67992 -0.100441 0
M  V30 2435 H 247.524 6.46816 -0.391535 0
M  V30 2436 N 240.93 -0.123565 1.57115 0
M  V30 2437 C 241.893 -1.13583 1.99076 0
M  V30 2438 C 242.893 -1.34564 0.880296 0
M  V30 2439 O 244.083 -1.31158 1.14644 0
M  V30 2440 C 241.215 -2.49128 2.32698 0
M  V30 2441 H 242.408 -0.775287 2.89706 0
M  V30 2442 H 239.961 -0.36771 1.51913 0
M  V30 2443 H 240.696 -2.90111 1.44934 0
M  V30 2444 H 240.481 -2.35255 3.13684 0
M  V30 2445 H 241.971 -3.2199 2.65918 0
M  V30 2446 N 242.408 -1.52605 -0.393616 0
M  V30 2447 C 243.685 -1.58001 -1.15304 0
M  V30 2448 C 244.065 -0.370385 -2.07825 0
M  V30 2449 O 243.413 0.641638 -2.19306 0
M  V30 2450 C 243.623 -2.91652 -1.91677 0
M  V30 2451 C 244.971 -3.4522 -2.47201 0
M  V30 2452 O 245.995 -2.93495 -2.01839 0
M  V30 2453 O 244.854 -4.35579 -3.3005 0
M  V30 2454 H 241.948 -0.637068 -0.527327 0
M  V30 2455 H 244.494 -1.64939 -0.399141 0
M  V30 2456 H 243.266 -3.71136 -1.23992 0
M  V30 2457 H 242.889 -2.88077 -2.74039 0
M  V30 2458 N 243.887 0.651787 -1.4349 0
M  V30 2459 C 244.837 1.75783 -1.45205 0
M  V30 2460 C 245.821 1.57679 -0.320328 0
M  V30 2461 O 247.013 1.67767 -0.564211 0
M  V30 2462 C 244.142 3.14377 -1.3792 0
M  V30 2463 C 243.228 3.38023 -2.56127 0
M  V30 2464 N 243.619 3.32135 -3.81471 0
M  V30 2465 C 241.917 3.68747 -2.50882 0
M  V30 2466 C 242.618 3.55902 -4.60118 0
M  V30 2467 N 241.594 3.77783 -3.90872 0
M  V30 2468 H 245.396 1.69657 -2.39987 0
M  V30 2469 H 242.91 0.853508 -1.38163 0
M  V30 2470 H 244.907 3.93666 -1.37231 0
M  V30 2471 H 243.567 3.21683 -0.441596 0
M  V30 2472 H 244.578 3.11515 -4.13738 0
M  V30 2473 H 241.255 3.8316 -1.65816 0
M  V30 2474 H 242.645 3.57116 -5.69138 0
M  V30 2475 N 245.365 1.30045 0.890287 0
M  V30 2476 C 246.275 1.17885 2.02831 0
M  V30 2477 C 247.291 0.0999609 1.73713 0
M  V30 2478 O 248.467 0.313867 1.98939 0
M  V30 2479 C 245.532 0.866079 3.35708 0
M  V30 2480 C 244.593 2.02979 3.78283 0
M  V30 2481 C 243.826 1.73184 5.0482 0
M  V30 2482 O 244.049 0.657237 5.66601 0
M  V30 2483 O 242.983 2.58267 5.43674 0
M  V30 2484 H 246.809 2.13474 2.16015 0
M  V30 2485 H 244.394 1.09587 1.01543 0
M  V30 2486 H 246.276 0.706623 4.15433 0
M  V30 2487 H 244.951 -0.0599443 3.23644 0
M  V30 2488 H 243.858 2.24454 2.99285 0
M  V30 2489 H 245.191 2.93734 3.94944 0
M  V30 2490 N 246.843 -1.10192 1.12674 0
M  V30 2491 C 248.259 -1.34235 0.863317 0
M  V30 2492 C 248.459 -1.95062 -0.505277 0
M  V30 2493 O 247.515 -2.19192 -1.25345 0
M  V30 2494 C 248.828 -2.2616 1.98172 0
M  V30 2495 C 250.376 -2.3969 2.0129 0
M  V30 2496 C 250.851 -3.34946 3.1237 0
M  V30 2497 N 252.342 -3.42515 3.11829 0
M  V30 2498 C 253.077 -4.16199 3.94419 0
M  V30 2499 N 252.573 -4.92747 4.87004 0
M  V30 2500 N 254.366 -4.11843 3.82547 0
M  V30 2501 H 246.517 -0.690798 2.00853 0
M  V30 2502 H 248.78 -0.366774 0.874174 0
M  V30 2503 H 248.486 -1.8868 2.96804 0
M  V30 2504 H 248.36 -3.26488 1.88906 0
M  V30 2505 H 250.747 -2.76438 1.03276 0
M  V30 2506 H 250.828 -1.39169 2.14629 0
M  V30 2507 H 250.472 -2.98923 4.10619 0
M  V30 2508 H 250.402 -4.35353 2.96269 0
M  V30 2509 H 252.893 -2.87926 2.44759 0
M  V30 2510 H 253.206 -5.46376 5.46528 0
M  V30 2511 H 251.551 -4.91862 4.91016 0
M  V30 2512 H 254.742 -3.51136 3.0955 0
M  V30 2513 H 254.915 -4.69007 4.47142 0
M  V30 2514 N 248.321 -0.919034 -1.28029 0
M  V30 2515 C 249.549 -0.570971 -1.98866 0
M  V30 2516 C 249.964 0.848996 -1.68634 0
M  V30 2517 O 249.321 1.56307 -0.942036 0
M  V30 2518 C 249.372 -0.776876 -3.53054 0
M  V30 2519 O 249.093 -2.14097 -3.82222 0
M  V30 2520 C 250.594 -0.436356 -4.41147 0
M  V30 2521 H 247.814 -0.217175 -0.634883 0
M  V30 2522 H 250.358 -1.23368 -1.63097 0
M  V30 2523 H 248.513 -0.161085 -3.87065 0
M  V30 2524 H 248.927 -2.18455 -4.76841 0
M  V30 2525 H 250.401 -0.63117 -5.4838 0
M  V30 2526 H 250.878 0.627686 -4.34692 0
M  V30 2527 H 251.484 -1.02991 -4.12641 0
M  V30 2528 N 249.799 1.42003 -0.683588 0
M  V30 2529 C 250.762 2.29191 -0.0198243 0
M  V30 2530 C 251.762 1.43773 0.72013 0
M  V30 2531 O 252.952 1.65061 0.556815 0
M  V30 2532 C 250.084 3.26435 0.982487 0
M  V30 2533 H 251.277 2.8938 -0.787345 0
M  V30 2534 H 248.83 1.49789 -0.446418 0
M  V30 2535 H 249.565 2.71203 1.77819 0
M  V30 2536 H 249.35 3.89449 0.455182 0
M  V30 2537 H 250.84 3.918 1.44508 0
M  V30 2538 N 251.277 0.427512 1.51691 0
M  V30 2539 C 252.24 -0.377132 2.26076 0
M  V30 2540 C 253.24 -0.958089 1.29141 0
M  V30 2541 O 254.43 -0.83408 1.52934 0
M  V30 2542 C 251.562 -1.53262 3.04506 0
M  V30 2543 H 252.755 0.27464 2.9864 0
M  V30 2544 H 250.308 0.180445 1.55255 0
M  V30 2545 H 251.043 -2.22072 2.36335 0
M  V30 2546 H 250.828 -1.12232 3.75694 0
M  V30 2547 H 252.318 -2.10135 3.60878 0
M  V30 2548 N 252.755 -1.56801 0.158532 0
M  V30 2549 C 253.983 -2.00859 -0.496303 0
M  V30 2550 C 254.398 -1.03871 -1.57659 0
M  V30 2551 O 253.755 -0.0375165 -1.82461 0
M  V30 2552 C 253.806 -3.4479 -1.08638 0
M  V30 2553 O 253.527 -4.38072 -0.0492322 0
M  V30 2554 C 255.028 -4.04185 -1.8207 0
M  V30 2555 H 252.248 -0.65864 -0.128199 0
M  V30 2556 H 254.792 -2.02885 0.256506 0
M  V30 2557 H 252.947 -3.43579 -1.78975 0
M  V30 2558 H 253.361 -5.2227 -0.483102 0
M  V30 2559 H 254.835 -5.06857 -2.18633 0
M  V30 2560 H 255.312 -3.45549 -2.71095 0
M  V30 2561 H 255.918 -4.0906 -1.16405 0
M  V30 2562 N 254.233 0.115231 -1.57178 0
M  V30 2563 C 255.163 1.1423 -2.03651 0
M  V30 2564 C 256.144 1.42967 -0.921655 0
M  V30 2565 O 257.329 1.53343 -1.19162 0
M  V30 2566 C 254.459 2.4675 -2.44401 0
M  V30 2567 C 253.413 2.32467 -3.59365 0
M  V30 2568 C 252.739 3.69984 -3.86026 0
M  V30 2569 C 254.039 1.78203 -4.90959 0
M  V30 2570 H 255.733 0.755749 -2.89705 0
M  V30 2571 H 253.279 0.362093 -1.39373 0
M  V30 2572 H 255.232 3.18854 -2.75517 0
M  V30 2573 H 253.956 2.87302 -1.55322 0
M  V30 2574 H 252.615 1.62811 -3.28463 0
M  V30 2575 H 252.263 4.08028 -2.94147 0
M  V30 2576 H 251.963 3.61279 -4.63412 0
M  V30 2577 H 253.487 4.43587 -4.19599 0
M  V30 2578 H 254.901 2.40128 -5.20587 0
M  V30 2579 H 253.298 1.8031 -5.72371 0
M  V30 2580 H 254.368 0.739876 -4.79222 0
M  V30 2581 N 255.711 1.52812 0.385517 0
M  V30 2582 C 256.957 1.68275 1.13188 0
M  V30 2583 C 257.29 0.423179 1.89533 0
M  V30 2584 O 256.565 -0.579113 1.85679 0
M  V30 2585 C 256.848 2.92001 2.1073 0
M  V30 2586 C 256.701 4.28067 1.38125 0
M  V30 2587 C 258.02 3.11283 3.11113 0
M  V30 2588 H 255.139 0.612352 0.410115 0
M  V30 2589 H 257.781 1.85415 0.414869 0
M  V30 2590 H 255.931 2.77519 2.71874 0
M  V30 2591 H 257.603 4.54324 0.799187 0
M  V30 2592 H 255.846 4.28388 0.683092 0
M  V30 2593 H 256.517 5.10733 2.09417 0
M  V30 2594 H 258.993 3.2482 2.6006 0
M  V30 2595 H 257.869 3.99325 3.76605 0
M  V30 2596 H 258.13 2.25656 3.80173 0
M  V30 2597 N 257.189 -0.644168 1.43834 0
M  V30 2598 C 258.152 -1.73857 1.49353 0
M  V30 2599 C 259.152 -1.56315 0.377112 0
M  V30 2600 O 260.342 -1.62048 0.639226 0
M  V30 2601 C 257.474 -3.12819 1.35488 0
M  V30 2602 H 258.667 -1.70342 2.46827 0
M  V30 2603 H 256.22 -0.856652 1.30733 0
M  V30 2604 H 256.955 -3.2194 0.390569 0
M  V30 2605 H 256.74 -3.26958 2.16428 0
M  V30 2606 H 258.23 -3.92606 1.42302 0
M  V30 2607 N 258.668 -1.30515 -0.883378 0
M  V30 2608 C 259.893 -1.22487 -1.67367 0
M  V30 2609 C 260.318 0.208767 -1.86938 0
M  V30 2610 O 259.676 1.15015 -1.40148 0
M  V30 2611 C 259.724 -1.96041 -3.02655 0
M  V30 2612 O 258.828 -1.28859 -3.91751 0
M  V30 2613 H 258.169 -0.423573 -0.511353 0
M  V30 2614 H 260.699 -1.72362 -1.10239 0
M  V30 2615 H 260.709 -2.05124 -3.52687 0
M  V30 2616 H 259.384 -3.00307 -2.8773 0
M  V30 2617 H 257.961 -1.28141 -3.50192 0
M  V30 2618 N 260.146 1.09593 -1.13257 0
M  V30 2619 C 261.392 1.82003 -0.89458 0
M  V30 2620 C 261.725 1.85402 0.577906 0
M  V30 2621 O 261 1.32099 1.42759 0
M  V30 2622 C 261.283 3.28237 -1.48096 0
M  V30 2623 C 261.136 3.3312 -3.02244 0
M  V30 2624 C 262.455 4.24871 -1.14774 0
M  V30 2625 H 259.574 0.66077 -0.326424 0
M  V30 2626 H 262.216 1.28389 -1.40058 0
M  V30 2627 H 260.366 3.74024 -1.05062 0
M  V30 2628 H 262.038 2.95748 -3.54021 0
M  V30 2629 H 260.281 2.72756 -3.37323 0
M  V30 2630 H 260.952 4.3613 -3.38371 0
M  V30 2631 H 263.428 3.87361 -1.51957 0
M  V30 2632 H 262.304 5.25532 -1.58452 0
M  V30 2633 H 262.565 4.42058 -0.0611849 0
M  V30 2634 N 261.624 0.925811 1.2754 0
M  V30 2635 C 263.04 0.625767 1.46821 0
M  V30 2636 C 263.24 -0.825506 1.83814 0
M  V30 2637 O 262.296 -1.60356 1.95044 0
M  V30 2638 C 263.609 1.57402 2.56213 0
M  V30 2639 C 265.157 1.58204 2.70075 0
M  V30 2640 C 265.632 2.51721 3.82623 0
M  V30 2641 N 267.123 2.49917 3.89994 0
M  V30 2642 C 267.858 3.18968 4.76494 0
M  V30 2643 N 267.354 3.97391 5.67496 0
M  V30 2644 N 269.147 3.07996 4.70208 0
M  V30 2645 H 261.298 1.86409 1.01811 0
M  V30 2646 H 263.561 0.800213 0.508295 0
M  V30 2647 H 263.267 2.60925 2.35819 0
M  V30 2648 H 263.141 1.31428 3.53563 0
M  V30 2649 H 265.528 0.554124 2.89851 0
M  V30 2650 H 265.609 1.88226 1.73218 0
M  V30 2651 H 265.253 3.54622 3.63601 0
M  V30 2652 H 265.183 2.18996 4.78903 0
M  V30 2653 H 267.674 1.9296 3.24923 0
M  V30 2654 H 267.987 4.4707 6.30356 0
M  V30 2655 H 266.332 4.01495 5.67298 0
M  V30 2656 H 269.523 2.46223 3.9811 0
M  V30 2657 H 269.696 3.6208 5.37403 0
M  V30 2658 N 263.102 -1.41638 0.69111 0
M  V30 2659 C 264.049 -2.30789 0.0229705 0
M  V30 2660 C 265.019 -1.46863 -0.775911 0
M  V30 2661 O 266.204 -1.75661 -0.74485 0
M  V30 2662 C 263.344 -3.32868 -0.910666 0
M  V30 2663 C 262.457 -4.31875 -0.103874 0
M  V30 2664 C 261.592 -5.21024 -1.03475 0
M  V30 2665 C 260.631 -6.11702 -0.220598 0
M  V30 2666 N 259.768 -6.93349 -1.10504 0
M  V30 2667 H 264.608 -2.87366 0.788978 0
M  V30 2668 H 262.145 -1.41535 0.400794 0
M  V30 2669 H 264.103 -3.90596 -1.46597 0
M  V30 2670 H 262.733 -2.77851 -1.64312 0
M  V30 2671 H 261.785 -3.76131 0.568285 0
M  V30 2672 H 263.097 -4.96003 0.527504 0
M  V30 2673 H 262.251 -5.83565 -1.65943 0
M  V30 2674 H 260.99 -4.57112 -1.69999 0
M  V30 2675 H 259.995 -5.48215 0.417187 0
M  V30 2676 H 261.22 -6.77668 0.440784 0
M  V30 2677 H 259.166 -6.3205 -1.75638 0
M  V30 2678 H 259.083 -7.54146 -0.529125 0
M  V30 2679 H 260.351 -7.60362 -1.71667 0
M  V30 2680 N 264.58 -0.43555 -1.51462 0
M  V30 2681 C 265.543 0.365137 -2.26273 0
M  V30 2682 C 266.543 0.951227 -1.29647 0
M  V30 2683 O 267.733 0.825958 -1.53374 0
M  V30 2684 C 264.865 1.51645 -3.05314 0
M  V30 2685 H 266.058 -0.290474 -2.9849 0
M  V30 2686 H 263.611 -0.188676 -1.55157 0
M  V30 2687 H 264.346 2.20816 -2.3751 0
M  V30 2688 H 264.131 1.10238 -3.76284 0
M  V30 2689 H 265.621 2.08218 -3.61987 0
M  V30 2690 N 266.058 1.56714 -0.166846 0
M  V30 2691 C 266.988 2.20754 0.760913 0
M  V30 2692 C 267.969 1.16178 1.24244 0
M  V30 2693 O 269.154 1.44592 1.29641 0
M  V30 2694 C 266.284 2.84478 1.99223 0
M  V30 2695 C 265.238 3.95053 1.64672 0
M  V30 2696 C 264.564 4.45805 2.95232 0
M  V30 2697 C 265.864 5.14865 0.878155 0
M  V30 2698 H 267.558 2.98537 0.22713 0
M  V30 2699 H 265.104 1.43596 0.107805 0
M  V30 2700 H 267.057 3.27951 2.64624 0
M  V30 2701 H 265.781 2.04056 2.55007 0
M  V30 2702 H 264.44 3.52228 1.01641 0
M  V30 2703 H 264.088 3.62181 3.49047 0
M  V30 2704 H 263.788 5.204 2.7287 0
M  V30 2705 H 265.312 4.91962 3.6167 0
M  V30 2706 H 266.726 5.55059 1.43466 0
M  V30 2707 H 265.123 5.95348 0.753738 0
M  V30 2708 H 266.193 4.84735 -0.126377 0
M  V30 2709 N 267.536 -0.106894 1.57237 0
M  V30 2710 C 268.947 -0.662723 1.74542 0
M  V30 2711 C 269.298 -1.7971 0.787319 0
M  V30 2712 O 268.423 -2.16368 -0.0369636 0
M  V30 2713 C 269.018 -1.20896 3.16496 0
M  V30 2714 C 267.577 -1.71096 3.35266 0
M  V30 2715 C 266.724 -0.615642 2.7038 0
M  V30 2716 H 269.675 0.119106 1.58252 0
M  V30 2717 H 269.696 -2.07847 3.18716 0
M  V30 2718 H 269.208 -0.383122 3.86204 0
M  V30 2719 H 267.309 -2.56119 2.70618 0
M  V30 2720 H 267.422 -1.81208 4.43509 0
M  V30 2721 H 265.786 -1.05222 2.31949 0
M  V30 2722 H 266.569 0.199419 3.4272 0
M  V30 2723 N 269.014 -1.53014 -0.377408 0
M  V30 2724 C 269.944 -1.81589 -1.46791 0
M  V30 2725 C 270.925 -0.668622 -1.56408 0
M  V30 2726 O 272.11 -0.917337 -1.71168 0
M  V30 2727 C 269.24 -1.99519 -2.8427 0
M  V30 2728 C 268.194 -3.15249 -2.89486 0
M  V30 2729 C 267.52 -3.18451 -4.29527 0
M  V30 2730 C 268.82 -4.54084 -2.58079 0
M  V30 2731 H 270.514 -2.7291 -1.23127 0
M  V30 2732 H 268.06 -1.31319 -0.590883 0
M  V30 2733 H 270.013 -2.18092 -3.60575 0
M  V30 2734 H 268.737 -1.04897 -3.09296 0
M  V30 2735 H 267.396 -2.96477 -2.15631 0
M  V30 2736 H 267.044 -2.2149 -4.5161 0
M  V30 2737 H 266.744 -3.962 -4.33934 0
M  V30 2738 H 268.268 -3.39193 -5.07721 0
M  V30 2739 H 269.682 -4.72899 -3.24098 0
M  V30 2740 H 268.079 -5.33987 -2.7382 0
M  V30 2741 H 269.149 -4.60006 -1.53372 0
M  V30 2742 N 270.492 0.636531 -1.44174 0
M  V30 2743 C 271.422 1.76003 -1.53444 0
M  V30 2744 C 272.403 1.65619 -0.387841 0
M  V30 2745 O 273.588 1.84461 -0.607257 0
M  V30 2746 C 270.718 3.14511 -1.4731 0
M  V30 2747 C 269.672 3.39677 -2.60391 0
M  V30 2748 C 268.998 4.78159 -2.39308 0
M  V30 2749 C 270.298 3.32772 -4.02567 0
M  V30 2750 H 271.992 1.68501 -2.47483 0
M  V30 2751 H 269.538 0.809237 -1.19111 0
M  V30 2752 H 271.491 3.92878 -1.52397 0
M  V30 2753 H 270.215 3.22783 -0.49785 0
M  V30 2754 H 268.874 2.63688 -2.54684 0
M  V30 2755 H 268.522 4.83128 -1.39988 0
M  V30 2756 H 268.222 4.95956 -3.15122 0
M  V30 2757 H 269.746 5.58762 -2.46205 0
M  V30 2758 H 271.16 4.01051 -4.09672 0
M  V30 2759 H 269.557 3.62104 -4.7854 0
M  V30 2760 H 270.627 2.30669 -4.2652 0
M  V30 2761 N 271.97 1.30982 0.876444 0
M  V30 2762 C 273.247 1.10942 1.61094 0
M  V30 2763 C 273.627 -0.338223 2.08373 0
M  V30 2764 O 272.975 -1.33122 1.85717 0
M  V30 2765 C 273.185 2.11789 2.77392 0
M  V30 2766 C 274.533 2.43965 3.47514 0
M  V30 2767 O 275.557 2.10166 2.87591 0
M  V30 2768 O 274.416 3.01817 4.55597 0
M  V30 2769 H 271.51 0.42667 0.708436 0
M  V30 2770 H 274.056 1.42438 0.922474 0
M  V30 2771 H 272.828 3.09194 2.39823 0
M  V30 2772 H 272.451 1.81161 3.5393 0
M  V30 2773 N 273.449 -1.08991 1.13837 0
M  V30 2774 C 274.359 -2.19301 0.833333 0
M  V30 2775 C 275.375 -1.73026 -0.183847 0
M  V30 2776 O 276.551 -2.01395 -0.0138092 0
M  V30 2777 C 273.616 -3.45323 0.308651 0
M  V30 2778 C 272.677 -4.06255 1.38764 0
M  V30 2779 C 271.91 -5.26262 0.887896 0
M  V30 2780 O 272.133 -5.69747 -0.27287 0
M  V30 2781 O 271.067 -5.78435 1.66421 0
M  V30 2782 H 274.893 -2.47854 1.75506 0
M  V30 2783 H 272.478 -1.18012 0.916166 0
M  V30 2784 H 274.36 -4.21394 0.0216739 0
M  V30 2785 H 273.035 -3.18362 -0.585431 0
M  V30 2786 H 271.942 -3.318 1.72799 0
M  V30 2787 H 273.275 -4.37452 2.25602 0
M  V30 2788 N 274.927 -0.932562 -1.27047 0
M  V30 2789 C 276.343 -0.633544 -1.46487 0
M  V30 2790 C 276.543 0.815746 -1.84249 0
M  V30 2791 O 275.599 1.59319 -1.95892 0
M  V30 2792 C 276.912 -1.58758 -2.55375 0
M  V30 2793 C 278.46 -1.59634 -2.69232 0
M  V30 2794 C 278.935 -2.53747 -3.81283 0
M  V30 2795 N 280.426 -2.51982 -3.88664 0
M  V30 2796 C 281.161 -3.21491 -4.74796 0
M  V30 2797 N 280.657 -4.00395 -5.65381 0
M  V30 2798 N 282.45 -3.10485 -4.68568 0
M  V30 2799 H 274.601 -1.86946 -1.00821 0
M  V30 2800 H 276.864 -0.802897 -0.504044 0
M  V30 2801 H 276.57 -2.62172 -2.34432 0
M  V30 2802 H 276.444 -1.33301 -3.52861 0
M  V30 2803 H 278.831 -0.569488 -2.89553 0
M  V30 2804 H 278.912 -1.89142 -1.72218 0
M  V30 2805 H 278.556 -3.56545 -3.61715 0
M  V30 2806 H 278.486 -2.21532 -4.77735 0
M  V30 2807 H 280.977 -1.94681 -3.23895 0
M  V30 2808 H 281.29 -4.50406 -6.27976 0
M  V30 2809 H 279.635 -4.04498 -5.65161 0
M  V30 2810 H 282.826 -2.48331 -3.96799 0
M  V30 2811 H 282.999 -3.64925 -5.35475 0
M  V30 2812 N 276.405 1.4127 -0.698611 0
M  V30 2813 C 277.633 2.05503 -0.239992 0
M  V30 2814 C 278.048 1.52584 1.11191 0
M  V30 2815 O 277.405 0.675323 1.69545 0
M  V30 2816 C 277.456 3.60987 -0.192429 0
M  V30 2817 O 277.177 4.1195 -1.49094 0
M  V30 2818 C 278.678 4.42371 0.28681 0
M  V30 2819 H 275.898 0.661748 -0.111045 0
M  V30 2820 H 278.442 1.80987 -0.95205 0
M  V30 2821 H 276.597 3.84533 0.470472 0
M  V30 2822 H 277.011 5.06018 -1.38007 0
M  V30 2823 H 278.485 5.51344 0.26896 0
M  V30 2824 H 278.962 4.18699 1.32619 0
M  V30 2825 H 279.568 4.23897 -0.345201 0
M  V30 2826 N 277.883 0.443576 1.51229 0
M  V30 2827 C 279.299 0.0962001 1.5931 0
M  V30 2828 C 279.499 -1.39501 1.45402 0
M  V30 2829 O 278.555 -2.16557 1.29843 0
M  V30 2830 C 279.868 0.621875 2.94199 0
M  V30 2831 C 281.416 0.582865 3.07525 0
M  V30 2832 C 281.891 1.08562 4.44948 0
M  V30 2833 N 283.382 1.04387 4.51284 0
M  V30 2834 C 284.117 1.40368 5.55954 0
M  V30 2835 N 283.613 1.83664 6.68011 0
M  V30 2836 N 285.406 1.32145 5.46346 0
M  V30 2837 H 277.557 1.41376 1.58514 0
M  V30 2838 H 279.82 0.582965 0.747567 0
M  V30 2839 H 279.526 1.66546 3.09767 0
M  V30 2840 H 279.4 0.0502125 3.77167 0
M  V30 2841 H 281.787 -0.451749 2.91622 0
M  V30 2842 H 281.868 1.191 2.26382 0
M  V30 2843 H 281.512 2.11873 4.61598 0
M  V30 2844 H 281.442 0.453956 5.2464 0
M  V30 2845 H 283.933 0.725986 3.70861 0
M  V30 2846 H 284.246 2.0934 7.43906 0
M  V30 2847 H 282.591 1.87596 6.69203 0
M  V30 2848 H 285.782 0.981808 4.57688 0
M  V30 2849 H 285.955 1.60514 6.27805 0
M  V30 2850 N 279.361 -1.56624 0.175154 0
M  V30 2851 C 280.324 -2.16934 -0.739738 0
M  V30 2852 C 281.324 -1.11842 -1.15533 0
M  V30 2853 O 282.514 -1.37335 -1.07167 0
M  V30 2854 C 279.646 -2.75531 -2.00738 0
M  V30 2855 H 280.839 -2.99131 -0.214639 0
M  V30 2856 H 278.392 -1.56123 -0.0744197 0
M  V30 2857 H 279.127 -1.97078 -2.57548 0
M  V30 2858 H 278.912 -3.52444 -1.71831 0
M  V30 2859 H 280.402 -3.21904 -2.66021 0
M  V30 2860 N 280.839 0.0985539 -1.57292 0
M  V30 2861 C 282.255 0.45267 -1.53046 0
M  V30 2862 C 282.455 1.80713 -0.891342 0
M  V30 2863 O 281.511 2.4785 -0.482375 0
M  V30 2864 C 282.824 0.418341 -2.97776 0
M  V30 2865 C 284.372 0.500443 -3.08973 0
M  V30 2866 C 284.847 0.496297 -4.55303 0
M  V30 2867 N 286.338 0.557151 -4.59837 0
M  V30 2868 C 287.073 0.575726 -5.70502 0
M  V30 2869 N 286.569 0.550714 -6.90608 0
M  V30 2870 N 288.362 0.620277 -5.58667 0
M  V30 2871 H 280.513 -0.788673 -1.97215 0
M  V30 2872 H 282.776 -0.293188 -0.901524 0
M  V30 2873 H 282.482 -0.509659 -3.47988 0
M  V30 2874 H 282.356 1.2386 -3.56284 0
M  V30 2875 H 284.743 1.41886 -2.58751 0
M  V30 2876 H 284.824 -0.347894 -2.53423 0
M  V30 2877 H 284.468 -0.418162 -5.06176 0
M  V30 2878 H 284.398 1.3618 -5.08687 0
M  V30 2879 H 286.889 0.581816 -3.73394 0
M  V30 2880 H 287.202 0.568075 -7.70709 0
M  V30 2881 H 285.547 0.517816 -6.93068 0
M  V30 2882 H 288.738 0.637322 -4.63741 0
M  V30 2883 H 288.911 0.631283 -6.44918 0
M  V30 2884 N 282.317 1.53212 0.369288 0
M  V30 2885 C 283.247 1.82365 1.45826 0
M  V30 2886 C 284.228 0.676907 1.56051 0
M  V30 2887 O 285.413 0.926401 1.70679 0
M  V30 2888 C 282.543 2.01023 2.83208 0
M  V30 2889 C 281.497 3.1678 2.8781 0
M  V30 2890 C 280.823 3.20724 4.27832 0
M  V30 2891 C 282.123 4.55447 2.55667 0
M  V30 2892 H 283.817 2.73559 1.21678 0
M  V30 2893 H 281.363 1.3163 0.583911 0
M  V30 2894 H 283.316 2.20001 3.59413 0
M  V30 2895 H 282.04 1.06536 3.08736 0
M  V30 2896 H 280.699 2.97616 2.14056 0
M  V30 2897 H 280.347 2.23882 4.50429 0
M  V30 2898 H 280.047 3.98496 4.31827 0
M  V30 2899 H 281.571 3.41881 5.05915 0
M  V30 2900 H 282.985 4.74611 3.21586 0
M  V30 2901 H 281.382 5.35432 2.70984 0
M  V30 2902 H 282.452 4.60812 1.5093 0
M  V30 2903 N 283.795 -0.628877 1.44509 0
M  V30 2904 C 284.725 -1.75187 1.54376 0
M  V30 2905 C 285.706 -1.65411 0.396618 0
M  V30 2906 O 286.891 -1.84137 0.617031 0
M  V30 2907 C 284.021 -3.13725 1.48976 0
M  V30 2908 C 282.975 -3.38291 2.62189 0
M  V30 2909 C 282.301 -4.76883 2.41841 0
M  V30 2910 C 283.601 -3.30632 4.04326 0
M  V30 2911 H 285.295 -1.67187 2.48373 0
M  V30 2912 H 282.841 -0.802909 1.19538 0
M  V30 2913 H 284.794 -3.92064 1.54478 0
M  V30 2914 H 283.518 -3.22515 0.514961 0
M  V30 2915 H 282.177 -2.62334 2.56079 0
M  V30 2916 H 281.825 -4.82378 1.42548 0
M  V30 2917 H 281.525 -4.94278 3.17747 0
M  V30 2918 H 283.049 -5.57449 2.49165 0
M  V30 2919 H 284.463 -3.98873 4.11793 0
M  V30 2920 H 282.86 -3.59561 4.80454 0
M  V30 2921 H 283.93 -2.28404 4.27738 0
M  V30 2922 N 285.273 -1.31445 -0.869486 0
M  V30 2923 C 286.55 -1.11795 -1.60503 0
M  V30 2924 C 286.93 0.327168 -2.08549 0
M  V30 2925 O 286.278 1.32135 -1.8642 0
M  V30 2926 C 286.488 -2.13258 -2.76265 0
M  V30 2927 C 287.836 -2.45805 -3.46215 0
M  V30 2928 O 288.86 -2.11688 -2.86473 0
M  V30 2929 O 287.719 -3.04228 -4.5399 0
M  V30 2930 H 284.813 -0.430421 -0.706163 0
M  V30 2931 H 287.359 -1.42925 -0.914907 0
M  V30 2932 H 286.131 -3.10461 -2.3818 0
M  V30 2933 H 285.754 -1.83035 -3.52964 0
M  V30 2934 N 286.751 1.08385 -1.14413 0
M  V30 2935 C 288.167 1.32844 -0.884563 0
M  V30 2936 C 288.367 1.95841 0.474181 0
M  V30 2937 O 287.423 2.21158 1.21842 0
M  V30 2938 C 288.736 2.22978 -2.01745 0
M  V30 2939 C 290.284 2.36458 -2.05077 0
M  V30 2940 C 290.759 3.29934 -3.1766 0
M  V30 2941 N 292.25 3.37511 -3.17239 0
M  V30 2942 C 292.985 4.09871 -4.0099 0
M  V30 2943 N 292.481 4.84936 -4.94781 0
M  V30 2944 N 294.274 4.05704 -3.89051 0
M  V30 2945 H 286.425 0.658756 -2.01926 0
M  V30 2946 H 288.688 0.352821 -0.879899 0
M  V30 2947 H 288.394 1.83934 -2.99769 0
M  V30 2948 H 288.268 3.23441 -1.94077 0
M  V30 2949 H 290.655 2.7476 -1.0766 0
M  V30 2950 H 290.736 1.35736 -2.16816 0
M  V30 2951 H 290.38 2.92352 -4.15322 0
M  V30 2952 H 290.31 4.30584 -3.03158 0
M  V30 2953 H 292.801 2.83996 -2.49308 0
M  V30 2954 H 293.114 5.37612 -5.55151 0
M  V30 2955 H 291.459 4.83988 -4.98779 0
M  V30 2956 H 294.65 3.46167 -3.15097 0
M  V30 2957 H 294.823 4.61834 -4.54547 0
M  V30 2958 N 288.23 0.939286 1.26551 0
M  V30 2959 C 289.646 0.641304 1.46149 0
M  V30 2960 C 289.846 -0.805964 1.84679 0
M  V30 2961 O 288.902 -1.58278 1.96734 0
M  V30 2962 C 290.215 1.6011 2.54529 0
M  V30 2963 C 291.763 1.6106 2.68382 0
M  V30 2964 C 292.238 2.55765 3.79932 0
M  V30 2965 N 293.729 2.5404 3.87322 0
M  V30 2966 C 294.464 3.24004 4.73085 0
M  V30 2967 N 293.96 4.03388 5.63249 0
M  V30 2968 N 295.753 3.12965 4.66914 0
M  V30 2969 H 287.904 1.87478 0.998285 0
M  V30 2970 H 290.167 0.805559 0.499779 0
M  V30 2971 H 289.873 2.63412 2.33039 0
M  V30 2972 H 289.747 1.35171 3.52149 0
M  V30 2973 H 292.134 0.584835 2.89247 0
M  V30 2974 H 292.215 1.90053 1.71212 0
M  V30 2975 H 291.859 3.58458 3.5982 0
M  V30 2976 H 291.789 2.24063 4.76554 0
M  V30 2977 H 294.28 1.96396 3.22858 0
M  V30 2978 H 294.593 4.5373 6.25579 0
M  V30 2979 H 292.938 4.07489 5.63008 0
M  V30 2980 H 296.129 2.50432 3.95476 0
M  V30 2981 H 296.302 3.67759 5.33533 0
M  V30 2982 N 289.708 -1.40897 0.706093 0
M  V30 2983 C 290.641 -2.282 -0.00328781 0
M  V30 2984 C 291.619 -1.42816 -0.77732 0
M  V30 2985 O 292.803 -1.72237 -0.765944 0
M  V30 2986 C 289.93 -3.23226 -1.01205 0
M  V30 2987 C 288.976 -4.25222 -0.329955 0
M  V30 2988 S 289.809 -5.27269 0.935298 0
M  V30 2989 C 290.965 -6.25859 -0.0716061 0
M  V30 2990 H 291.198 -2.88016 0.737143 0
M  V30 2991 H 288.731 -1.46191 0.496756 0
M  V30 2992 H 290.689 -3.78503 -1.58888 0
M  V30 2993 H 289.35 -2.62485 -1.72513 0
M  V30 2994 H 288.543 -4.92023 -1.09221 0
M  V30 2995 H 288.145 -3.73595 0.174069 0
M  V30 2996 H 290.437 -6.71204 -0.921521 0
M  V30 2997 H 291.38 -7.0586 0.562765 0
M  V30 2998 H 291.788 -5.62852 -0.431088 0
M  V30 2999 N 291.186 -0.45159 -1.50991 0
M  V30 3000 C 292.597 0.00818571 -1.86698 0
M  V30 3001 C 292.948 1.40661 -1.3678 0
M  V30 3002 O 292.073 2.0391 -0.724546 0
M  V30 3003 C 292.668 0.0216303 -3.38793 0
M  V30 3004 C 291.227 0.425865 -3.73983 0
M  V30 3005 C 290.374 -0.372163 -2.74791 0
M  V30 3006 H 293.325 -0.666785 -1.44013 0
M  V30 3007 H 293.346 0.828078 -3.7138 0
M  V30 3008 H 292.858 -0.996288 -3.75094 0
M  V30 3009 H 290.959 1.44886 -3.43277 0
M  V30 3010 H 291.072 0.140761 -4.78893 0
M  V30 3011 H 289.436 0.171498 -2.54122 0
M  V30 3012 H 290.219 -1.38922 -3.13935 0
M  V30 3013 N 292.664 1.56529 -0.183458 0
M  V30 3014 C 293.904 1.99141 0.460667 0
M  V30 3015 C 294.268 1.06736 1.59597 0
M  V30 3016 O 295.469 1.38538 2.30349 0
M  V30 3017 C 293.74 3.45358 0.919939 0
M  V30 3018 S 295.299 4.09999 1.56354 0
M  V30 3019 H 292.117 0.695479 0.147748 0
M  V30 3020 H 294.719 1.93429 -0.283782 0
M  V30 3021 H 293.423 4.10315 0.0834208 0
M  V30 3022 H 292.954 3.54862 1.69814 0
M  V30 3023 H 294.969 4.06046 2.85203 0
M  V30 3024 N 294.142 -0.090211 1.57342 0
M  V30 3025 C 295.382 -0.798365 1.88163 0
M  V30 3026 C 295.746 -1.75662 0.775046 0
M  V30 3027 O 296.947 -2.50849 0.965816 0
M  V30 3028 C 295.218 -1.50376 3.24225 0
M  V30 3029 S 296.777 -2.24952 3.76752 0
M  V30 3030 H 293.595 -0.265883 0.659414 0
M  V30 3031 H 296.197 -0.055264 1.95422 0
M  V30 3032 H 294.901 -0.792286 4.0268 0
M  V30 3033 H 294.432 -2.28666 3.20118 0
M  V30 3034 H 296.447 -3.51173 3.5056 0
M  V30 3035 N 295.62 -1.53406 -0.361157 0
M  V30 3036 C 296.866 -1.70054 -1.10496 0
M  V30 3037 C 297.199 -0.453278 -1.88836 0
M  V30 3038 O 296.474 0.5495 -1.86576 0
M  V30 3039 C 296.757 -2.95317 -2.06058 0
M  V30 3040 C 296.61 -4.3021 -1.31298 0
M  V30 3041 C 297.929 -3.16193 -3.06121 0
M  V30 3042 H 295.048 -0.618799 -0.400321 0
M  V30 3043 H 297.69 -1.86052 -0.385318 0
M  V30 3044 H 295.84 -2.81809 -2.67425 0
M  V30 3045 H 297.512 -4.55538 -0.726807 0
M  V30 3046 H 295.755 -4.29421 -0.614853 0
M  V30 3047 H 296.426 -5.14 -2.01265 0
M  V30 3048 H 298.902 -3.28916 -2.5486 0
M  V30 3049 H 297.778 -4.05266 -3.70204 0
M  V30 3050 H 298.039 -2.31676 -3.76535 0
M  V30 3051 N 297.098 0.621204 -1.44841 0
M  V30 3052 C 298.375 1.38 -1.38619 0
M  V30 3053 C 298.755 2.11041 -0.0498935 0
M  V30 3054 O 298.103 2.06992 0.967816 0
M  V30 3055 C 298.313 2.33817 -2.59096 0
M  V30 3056 C 299.661 2.96844 -3.03593 0
M  V30 3057 O 300.685 2.44141 -2.59371 0
M  V30 3058 O 299.544 3.92476 -3.80296 0
M  V30 3059 H 296.638 0.61811 -0.549426 0
M  V30 3060 H 299.184 0.645429 -1.56947 0
M  V30 3061 H 297.956 1.79012 -3.47952 0
M  V30 3062 H 297.579 3.14676 -2.43032 0
M  V30 3063 N 298.576 1.31904 0.862503 0
M  V30 3064 C 299.822 1.22197 1.61851 0
M  V30 3065 C 300.155 -0.217641 1.92977 0
M  V30 3066 O 299.43 -1.15264 1.56666 0
M  V30 3067 C 299.713 2.07378 2.94391 0
M  V30 3068 C 299.566 3.59678 2.70096 0
M  V30 3069 C 300.885 1.92891 3.95577 0
M  V30 3070 H 298.004 0.445255 0.587296 0
M  V30 3071 H 300.646 1.6177 0.99651 0
M  V30 3072 H 298.796 1.73758 3.47477 0
M  V30 3073 H 300.468 4.03472 2.23625 0
M  V30 3074 H 298.711 3.82735 2.04197 0
M  V30 3075 H 299.382 4.14595 3.64438 0
M  V30 3076 H 301.858 2.22327 3.51724 0
M  V30 3077 H 300.734 2.54781 4.86187 0
M  V30 3078 H 300.995 0.894315 4.3296 0
M  V30 3079 N 300.054 -1.07777 1.14986 0
M  V30 3080 C 301.017 -2.13041 0.845358 0
M  V30 3081 C 302.017 -1.60071 -0.152931 0
M  V30 3082 O 303.207 -1.74033 0.0761879 0
M  V30 3083 C 300.339 -3.39896 0.261383 0
M  V30 3084 H 301.532 -2.41485 1.77834 0
M  V30 3085 H 299.085 -1.23595 0.956757 0
M  V30 3086 H 299.82 -3.17091 -0.68 0
M  V30 3087 H 299.605 -3.79642 0.980514 0
M  V30 3088 H 301.095 -4.17548 0.0657687 0
M  V30 3089 N 301.532 -0.945985 -1.26051 0
M  V30 3090 C 302.779 -0.596118 -1.93527 0
M  V30 3091 C 303.107 0.865559 -1.74179 0
M  V30 3092 O 302.362 1.63524 -1.0751 0
M  V30 3093 C 302.661 -0.890475 -3.46129 0
M  V30 3094 C 302.327 -2.3368 -3.85622 0
M  V30 3095 C 300.989 -2.73216 -3.96114 0
M  V30 3096 C 303.341 -3.27648 -4.05334 0
M  V30 3097 C 300.669 -4.05806 -4.2372 0
M  V30 3098 C 303.021 -4.59841 -4.3443 0
M  V30 3099 C 301.685 -4.99185 -4.43137 0
M  V30 3100 H 300.955 -0.218135 -0.708165 0
M  V30 3101 H 303.602 -1.1934 -1.49768 0
M  V30 3102 H 301.907 -0.210711 -3.91233 0
M  V30 3103 H 303.604 -0.598478 -3.96509 0
M  V30 3104 H 300.194 -2.02015 -3.78005 0
M  V30 3105 H 304.378 -2.98298 -3.96651 0
M  V30 3106 H 299.634 -4.35945 -4.28675 0
M  V30 3107 H 303.808 -5.32641 -4.48628 0
M  V30 3108 H 301.435 -6.01952 -4.64282 0
M  V30 3109 N 303.011 1.40521 -0.713556 0
M  V30 3110 C 304.427 1.54839 -0.386907 0
M  V30 3111 C 304.627 1.68532 1.1045 0
M  V30 3112 O 303.683 1.67377 1.89053 0
M  V30 3113 C 304.996 2.77792 -1.15118 0
M  V30 3114 C 306.544 2.91607 -1.13729 0
M  V30 3115 C 307.019 4.1747 -1.88368 0
M  V30 3116 N 308.51 4.24466 -1.85427 0
M  V30 3117 C 309.245 5.20755 -2.40004 0
M  V30 3118 N 308.741 6.22965 -3.03129 0
M  V30 3119 N 310.534 5.1282 -2.30158 0
M  V30 3120 H 302.685 1.29879 -1.68063 0
M  V30 3121 H 304.948 0.627896 -0.710247 0
M  V30 3122 H 304.654 2.73944 -2.20561 0
M  V30 3123 H 304.528 3.6984 -0.741477 0
M  V30 3124 H 306.915 2.94959 -0.0910608 0
M  V30 3125 H 306.996 2.00682 -1.5862 0
M  V30 3126 H 306.64 4.1488 -2.9298 0
M  V30 3127 H 306.57 5.074 -1.40898 0
M  V30 3128 H 309.061 3.51241 -1.3942 0
M  V30 3129 H 309.374 6.92859 -3.42295 0
M  V30 3130 H 307.719 6.23415 -3.07212 0
M  V30 3131 H 310.91 4.31899 -1.80501 0
M  V30 3132 H 311.083 5.87689 -2.72993 0
M  V30 3133 N 304.489 0.459591 1.5075 0
M  V30 3134 C 305.737 -0.0991532 2.01857 0
M  V30 3135 C 306.058 -1.41247 1.34441 0
M  V30 3136 O 305.328 -1.89775 0.486022 0
M  V30 3137 H 303.908 -0.039633 0.745948 0
M  V30 3138 H 306.57 0.607387 1.85194 0
M  V30 3139 H 305.666 -0.258998 3.11023 0
M  V30 3140 N 305.967 -1.56429 0.191757 0
M  V30 3141 C 307.215 -1.97095 -0.447006 0
M  V30 3142 C 307.536 -1.07967 -1.62383 0
M  V30 3143 O 306.806 -0.150248 -1.95323 0
M  V30 3144 H 305.386 -0.727832 -0.168135 0
M  V30 3145 H 308.048 -1.92911 0.27771 0
M  V30 3146 H 307.144 -3.01848 -0.793371 0
M  V30 3147 N 307.445 0.0818655 -1.57387 0
M  V30 3148 C 308.691 0.784074 -1.8703 0
M  V30 3149 C 309.024 1.77729 -0.782689 0
M  V30 3150 O 308.299 1.93384 0.208051 0
M  V30 3151 C 308.582 1.50105 -3.27323 0
M  V30 3152 C 308.435 0.524925 -4.46727 0
M  V30 3153 C 309.754 2.44843 -3.65705 0
M  V30 3154 H 306.873 0.283582 -0.680257 0
M  V30 3155 H 309.515 0.0474352 -1.89941 0
M  V30 3156 H 307.665 2.12897 -3.24972 0
M  V30 3157 H 309.337 -0.0970111 -4.61198 0
M  V30 3158 H 307.58 -0.160606 -4.33503 0
M  V30 3159 H 308.251 1.064 -5.41648 0
M  V30 3160 H 310.727 1.92135 -3.69085 0
M  V30 3161 H 309.603 2.92018 -4.64776 0
M  V30 3162 H 309.864 3.29197 -2.95096 0
M  V30 3163 N 308.923 1.53595 0.353017 0
M  V30 3164 C 310.2 1.61002 1.11075 0
M  V30 3165 C 310.58 0.425356 2.0677 0
M  V30 3166 O 309.928 -0.583267 2.2093 0
M  V30 3167 C 310.138 2.96631 1.83877 0
M  V30 3168 C 311.486 3.51653 2.37961 0
M  V30 3169 O 312.51 2.98743 1.93987 0
M  V30 3170 O 311.369 4.44177 3.18386 0
M  V30 3171 H 308.463 0.650825 0.510251 0
M  V30 3172 H 311.009 1.6594 0.35527 0
M  V30 3173 H 309.781 3.74293 1.14108 0
M  V30 3174 H 309.404 2.95242 2.66304 0
M  V30 3175 N 310.401 -0.613514 1.45168 0
M  V30 3176 C 311.678 -1.37263 1.39349 0
M  V30 3177 C 312.058 -2.11012 0.0610848 0
M  V30 3178 O 311.406 -2.07502 -0.956825 0
M  V30 3179 C 311.616 -2.3244 2.60332 0
M  V30 3180 C 312.964 -2.9523 3.05163 0
M  V30 3181 O 313.988 -2.42762 2.60663 0
M  V30 3182 O 312.847 -3.90454 3.82372 0
M  V30 3183 H 309.941 -0.615188 0.552696 0
M  V30 3184 H 312.487 -0.637097 1.57287 0
M  V30 3185 H 311.259 -1.77164 3.48896 0
M  V30 3186 H 310.882 -3.13383 2.44698 0
M  V30 3187 N 311.879 -1.3236 -0.855495 0
M  V30 3188 C 313.29 -1.2056 -1.42556 0
M  V30 3189 C 313.641 0.182209 -1.95352 0
M  V30 3190 O 312.766 1.08088 -1.87472 0
M  V30 3191 C 313.361 -2.1826 -2.59129 0
M  V30 3192 C 311.92 -2.10351 -3.12137 0
M  V30 3193 C 311.067 -2.06674 -1.84882 0
M  V30 3194 H 314.018 -1.442 -0.662727 0
M  V30 3195 H 314.039 -1.78064 -3.36264 0
M  V30 3196 H 313.551 -3.19257 -2.20673 0
M  V30 3197 H 311.652 -1.12599 -3.55179 0
M  V30 3198 H 311.765 -3.00135 -3.73438 0
M  V30 3199 H 310.129 -1.51901 -2.04446 0
M  V30 3200 H 310.912 -3.09451 -1.48643 0
M  V30 3201 N 313.357 1.07166 -1.15556 0
M  V30 3202 C 314.605 1.79443 -0.929764 0
M  V30 3203 C 314.926 1.87246 0.544414 0
M  V30 3204 O 314.196 1.37473 1.39564 0
M  V30 3205 H 312.776 0.664625 -0.341003 0
M  V30 3206 H 315.438 1.29499 -1.45657 0
M  V30 3207 H 314.534 2.81832 -1.34079 0
M  V30 3208 N 314.835 0.952656 1.25548 0
M  V30 3209 C 315.798 0.475794 2.24207 0
M  V30 3210 C 316.798 -0.419428 1.55234 0
M  V30 3211 O 317.988 -0.216994 1.72843 0
M  V30 3212 C 315.12 -0.312814 3.39462 0
M  V30 3213 H 316.313 1.34779 2.67908 0
M  V30 3214 H 313.866 0.735739 1.37901 0
M  V30 3215 H 314.601 -1.20257 3.01179 0
M  V30 3216 H 314.386 0.329404 3.90714 0
M  V30 3217 H 315.876 -0.635986 4.12729 0
M  V30 3218 N 316.313 -1.40141 0.720998 0
M  V30 3219 C 317.562 -2.0002 0.259804 0
M  V30 3220 C 317.875 -1.57839 -1.15526 0
M  V30 3221 O 319.081 -2.10455 -1.71525 0
M  V30 3222 C 317.537 -3.57516 0.413566 0
M  V30 3223 C 317.145 -4.08667 1.83562 0
M  V30 3224 C 318.889 -4.24498 0.0134387 0
M  V30 3225 C 316.796 -5.58686 1.93968 0
M  V30 3226 H 315.726 -0.748195 0.0933806 0
M  V30 3227 H 318.377 -1.60313 0.892866 0
M  V30 3228 H 316.759 -3.9495 -0.288169 0
M  V30 3229 H 317.933 -3.82598 2.56817 0
M  V30 3230 H 316.248 -3.543 2.1877 0
M  V30 3231 H 318.845 -5.34654 0.0703954 0
M  V30 3232 H 319.188 -4.03375 -1.02927 0
M  V30 3233 H 319.721 -3.92188 0.665815 0
M  V30 3234 H 316.46 -5.8467 2.96379 0
M  V30 3235 H 315.98 -5.86602 1.25131 0
M  V30 3236 H 317.659 -6.23875 1.71431 0
M  V30 3237 N 317.792 -0.46758 -1.50504 0
M  V30 3238 C 318.755 0.317059 -2.26996 0
M  V30 3239 C 319.755 0.923513 -1.31635 0
M  V30 3240 O 320.945 0.793239 -1.55091 0
M  V30 3241 C 318.077 1.45134 -3.08462 0
M  V30 3242 H 319.27 -0.353723 -2.97807 0
M  V30 3243 H 316.823 -0.221545 -1.54722 0
M  V30 3244 H 317.558 2.15728 -2.4214 0
M  V30 3245 H 317.343 1.02232 -3.78538 0
M  V30 3246 H 318.833 2.00493 -3.66323 0
M  V30 3247 N 319.27 1.56325 -0.20005 0
M  V30 3248 C 320.202 2.16555 0.750771 0
M  V30 3249 C 321.215 1.12871 1.1732 0
M  V30 3250 O 322.404 1.39943 1.10807 0
M  V30 3251 C 319.504 2.71684 2.02586 0
M  V30 3252 C 318.677 4.00321 1.76244 0
M  V30 3253 C 317.736 4.40227 2.88248 0
M  V30 3254 O 316.762 5.07552 2.57642 0
M  V30 3255 N 317.964 4.04138 4.16717 0
M  V30 3256 H 320.729 2.98772 0.235685 0
M  V30 3257 H 318.29 1.6189 -0.0182594 0
M  V30 3258 H 320.282 2.95363 2.76664 0
M  V30 3259 H 318.852 1.93893 2.45202 0
M  V30 3260 H 318.072 3.84723 0.85919 0
M  V30 3261 H 319.36 4.84279 1.56048 0
M  V30 3262 H 318.758 3.49993 4.44434 0
M  V30 3263 H 317.315 4.32756 4.87407 0
M  V30 3264 N 320.748 -0.0735177 1.57428 0
M  V30 3265 C 321.994 -0.774145 1.87443 0
M  V30 3266 C 322.327 -1.77311 0.792103 0
M  V30 3267 O 321.602 -1.93492 -0.197793 0
M  V30 3268 C 321.885 -1.48367 3.28115 0
M  V30 3269 C 321.738 -0.501227 4.46999 0
M  V30 3270 C 323.057 -2.429 3.66998 0
M  V30 3271 H 320.176 -0.279971 0.681752 0
M  V30 3272 H 322.818 -0.0373616 1.89963 0
M  V30 3273 H 320.968 -2.11171 3.26097 0
M  V30 3274 H 322.64 0.121468 4.6114 0
M  V30 3275 H 320.883 0.183593 4.33411 0
M  V30 3276 H 321.554 -1.03526 5.42205 0
M  V30 3277 H 324.03 -1.90175 3.70098 0
M  V30 3278 H 322.906 -2.89549 4.66318 0
M  V30 3279 H 323.167 -3.27628 2.96837 0
M  V30 3280 N 322.226 -1.5378 -0.344866 0
M  V30 3281 C 323.173 -1.81676 -1.42346 0
M  V30 3282 C 324.143 -0.662376 -1.52321 0
M  V30 3283 O 325.328 -0.906675 -1.67881 0
M  V30 3284 C 322.468 -2.03087 -2.79015 0
M  V30 3285 C 321.581 -3.30799 -2.77842 0
M  V30 3286 C 320.716 -3.42285 -4.0622 0
M  V30 3287 C 319.755 -4.6395 -3.9927 0
M  V30 3288 N 318.892 -4.72477 -5.19336 0
M  V30 3289 H 323.732 -2.73703 -1.17858 0
M  V30 3290 H 321.269 -1.35568 -0.570949 0
M  V30 3291 H 323.227 -2.1349 -3.58438 0
M  V30 3292 H 321.857 -1.14375 -3.01858 0
M  V30 3293 H 320.909 -3.29244 -1.90533 0
M  V30 3294 H 322.221 -4.20314 -2.68584 0
M  V30 3295 H 321.375 -3.52113 -4.94066 0
M  V30 3296 H 320.114 -2.50823 -4.18258 0
M  V30 3297 H 319.119 -4.54201 -3.09809 0
M  V30 3298 H 320.344 -5.56775 -3.88817 0
M  V30 3299 H 318.29 -3.83924 -5.3192 0
M  V30 3300 H 318.207 -5.55927 -5.12329 0
M  V30 3301 H 319.475 -4.86613 -6.08957 0
M  V30 3302 N 323.704 0.605807 -1.45491 0
M  V30 3303 C 325.115 1.18777 -1.44045 0
M  V30 3304 C 325.466 1.95471 -0.169001 0
M  V30 3305 O 324.591 2.0374 0.729324 0
M  V30 3306 C 325.186 2.16064 -2.60963 0
M  V30 3307 C 323.745 2.69633 -2.62631 0
M  V30 3308 C 322.892 1.45072 -2.36325 0
M  V30 3309 H 325.843 0.395017 -1.53705 0
M  V30 3310 H 325.864 2.9913 -2.35163 0
M  V30 3311 H 325.376 1.60217 -3.53486 0
M  V30 3312 H 323.477 3.29414 -1.74119 0
M  V30 3313 H 323.59 3.13944 -3.61906 0
M  V30 3314 H 321.954 1.74089 -1.85917 0
M  V30 3315 H 322.737 0.910899 -3.30995 0
M  V30 3316 N 325.182 1.32811 0.848464 0
M  V30 3317 C 326.112 1.24882 1.97299 0
M  V30 3318 C 327.093 0.131357 1.69592 0
M  V30 3319 O 328.278 0.319553 1.91553 0
M  V30 3320 C 325.408 0.97746 3.33261 0
M  V30 3321 C 324.362 2.05682 3.75338 0
M  V30 3322 C 323.688 1.63777 5.09 0
M  V30 3323 C 324.988 3.47254 3.90144 0
M  V30 3324 H 326.682 2.18966 2.04191 0
M  V30 3325 H 324.228 1.05413 0.981029 0
M  V30 3326 H 326.181 0.908513 4.1149 0
M  V30 3327 H 324.905 0.000980011 3.266 0
M  V30 3328 H 323.564 2.11603 2.99366 0
M  V30 3329 H 323.212 0.648569 4.98801 0
M  V30 3330 H 322.912 2.36 5.38124 0
M  V30 3331 H 324.436 1.5833 5.89715 0
M  V30 3332 H 325.85 3.43888 4.58709 0
M  V30 3333 H 324.247 4.1788 4.30693 0
M  V30 3334 H 325.317 3.86462 2.92874 0
M  V30 3335 N 326.66 -1.06551 1.16123 0
M  V30 3336 C 327.89 -1.8274 0.963838 0
M  V30 3337 C 328.298 -1.82712 -0.491228 0
M  V30 3338 O 327.641 -1.24294 -1.35265 0
M  V30 3339 C 327.703 -3.3065 1.41106 0
M  V30 3340 C 327.367 -3.54384 2.88549 0
M  V30 3341 C 328.364 -3.4765 3.86569 0
M  V30 3342 C 326.049 -3.81789 3.26408 0
M  V30 3343 C 328.043 -3.67982 5.2045 0
M  V30 3344 C 325.73 -4.01772 4.60459 0
M  V30 3345 C 326.728 -3.94866 5.57288 0
M  V30 3346 O 326.416 -4.14306 6.88916 0
M  V30 3347 H 326.148 -0.583136 0.341948 0
M  V30 3348 H 328.702 -1.35351 1.54497 0
M  V30 3349 H 326.932 -3.78887 0.773394 0
M  V30 3350 H 328.621 -3.88324 1.1815 0
M  V30 3351 H 329.387 -3.2647 3.58667 0
M  V30 3352 H 325.266 -3.86276 2.51619 0
M  V30 3353 H 328.81 -3.62507 5.96015 0
M  V30 3354 H 324.707 -4.2244 4.88072 0
M  V30 3355 H 325.475 -4.31609 6.95454 0
M  V30 3356 N 328.138 -0.959301 -1.25041 0
M  V30 3357 C 329.386 -0.615393 -1.92503 0
M  V30 3358 C 329.707 0.850969 -1.75452 0
M  V30 3359 O 328.977 1.60658 -1.12098 0
M  V30 3360 H 327.557 -0.224613 -0.712431 0
M  V30 3361 H 330.219 -1.21855 -1.5211 0
M  V30 3362 H 329.315 -0.848738 -3.00338 0
M  V30 3363 N 329.616 1.39756 -0.72842 0
M  V30 3364 C 330.893 1.94574 -0.200079 0
M  V30 3365 C 331.273 1.66569 1.29684 0
M  V30 3366 O 330.621 0.990326 2.05924 0
M  V30 3367 C 330.831 3.45004 -0.526608 0
M  V30 3368 C 332.179 4.21965 -0.472318 0
M  V30 3369 O 333.203 3.53173 -0.463413 0
M  V30 3370 O 332.062 5.44552 -0.461075 0
M  V30 3371 H 329.156 0.826289 -0.0342851 0
M  V30 3372 H 331.702 1.49293 -0.806829 0
M  V30 3373 H 330.474 3.58796 -1.56144 0
M  V30 3374 H 330.097 3.97449 0.109449 0
M  V30 3375 N 331.094 0.475555 1.50254 0
M  V30 3376 C 332.057 -0.305016 2.27161 0
M  V30 3377 C 333.057 -0.916519 1.32123 0
M  V30 3378 O 334.247 -0.785003 1.5551 0
M  V30 3379 C 331.379 -1.43496 3.09227 0
M  V30 3380 H 332.572 0.369511 2.97615 0
M  V30 3381 H 330.125 0.229747 1.54602 0
M  V30 3382 H 330.86 -2.14441 2.43281 0
M  V30 3383 H 330.645 -1.00223 3.79075 0
M  V30 3384 H 332.135 -1.98548 3.67381 0
M  V30 3385 N 332.573 -1.56217 0.208337 0
M  V30 3386 C 333.85 -1.89739 -0.475234 0
M  V30 3387 C 334.23 -1.1238 -1.78701 0
M  V30 3388 O 333.578 -0.228979 -2.2735 0
M  V30 3389 C 333.788 -3.42289 -0.681101 0
M  V30 3390 C 335.136 -4.12789 -0.994507 0
M  V30 3391 O 336.16 -3.47814 -0.768357 0
M  V30 3392 O 335.019 -5.27649 -1.42299 0
M  V30 3393 H 332.113 -0.788478 -0.249461 0
M  V30 3394 H 334.659 -1.67855 0.249538 0
M  V30 3395 H 333.431 -3.90534 0.244722 0
M  V30 3396 H 333.054 -3.69909 -1.45785 0
M  V30 3397 N 334.051 0.0651679 -1.57465 0
M  V30 3398 C 335.328 0.79644 -1.78651 0
M  V30 3399 C 335.708 1.95454 -0.797566 0
M  V30 3400 O 335.056 2.27882 0.167946 0
M  V30 3401 C 335.266 1.26322 -3.25337 0
M  V30 3402 C 336.614 1.6939 -3.89348 0
M  V30 3403 O 337.638 1.35872 -3.29268 0
M  V30 3404 O 336.497 2.31471 -4.95059 0
M  V30 3405 H 333.591 0.382157 -0.733407 0
M  V30 3406 H 336.137 0.0447311 -1.69641 0
M  V30 3407 H 334.909 0.434859 -3.88876 0
M  V30 3408 H 334.532 2.07604 -3.39096 0
M  V30 3409 N 335.529 1.53961 0.336706 0
M  V30 3410 C 336.94 1.62914 0.911925 0
M  V30 3411 C 337.291 0.514795 1.89326 0
M  V30 3412 O 336.416 -0.354395 2.13478 0
M  V30 3413 C 337.011 2.95304 1.66076 0
M  V30 3414 C 335.57 3.06496 2.18489 0
M  V30 3415 C 334.717 2.58403 1.00613 0
M  V30 3416 H 337.668 1.58285 0.114649 0
M  V30 3417 H 337.689 2.84727 2.5241 0
M  V30 3418 H 337.201 3.76387 0.946276 0
M  V30 3419 H 335.302 2.3006 2.93092 0
M  V30 3420 H 335.415 4.1208 2.44391 0
M  V30 3421 H 333.779 2.13977 1.38152 0
M  V30 3422 H 334.562 3.41932 0.306179 0
M  V30 3423 N 337.007 -0.598083 1.45811 0
M  V30 3424 C 338.254 -1.35681 1.50323 0
M  V30 3425 C 338.582 -1.9393 0.148739 0
M  V30 3426 O 337.837 -1.76094 -0.853787 0
M  V30 3427 C 338.136 -2.51669 2.53766 0
M  V30 3428 C 337.802 -2.11508 3.98215 0
M  V30 3429 C 336.464 -2.0027 4.37545 0
M  V30 3430 C 338.816 -1.80308 4.89018 0
M  V30 3431 C 336.144 -1.56067 5.65562 0
M  V30 3432 C 338.496 -1.37589 6.17456 0
M  V30 3433 C 337.16 -1.24916 6.55708 0
M  V30 3434 H 336.43 -0.496492 0.550069 0
M  V30 3435 H 339.077 -0.675052 1.79207 0
M  V30 3436 H 337.382 -3.25225 2.18486 0
M  V30 3437 H 339.079 -3.09895 2.54492 0
M  V30 3438 H 335.669 -2.21185 3.67117 0
M  V30 3439 H 339.853 -1.87884 4.59362 0
M  V30 3440 H 335.109 -1.44886 5.93985 0
M  V30 3441 H 339.283 -1.12495 6.87254 0
M  V30 3442 H 336.91 -0.904386 7.54801 0
M  V30 3443 N 338.485 -1.33259 -0.841409 0
M  V30 3444 C 339.415 -1.25926 -1.96634 0
M  V30 3445 C 340.396 -0.140349 -1.6952 0
M  V30 3446 O 341.581 -0.329707 -1.91381 0
M  V30 3447 C 338.711 -0.99512 -3.32738 0
M  V30 3448 C 337.665 -2.0767 -3.74242 0
M  V30 3449 C 336.991 -1.66474 -5.08125 0
M  V30 3450 C 338.291 -3.49318 -3.88297 0
M  V30 3451 H 339.985 -2.20046 -2.03027 0
M  V30 3452 H 337.531 -1.05931 -0.975425 0
M  V30 3453 H 339.484 -0.930323 -4.11002 0
M  V30 3454 H 338.208 -0.0183004 -3.26595 0
M  V30 3455 H 336.867 -2.13187 -2.98239 0
M  V30 3456 H 336.515 -0.675012 -4.9845 0
M  V30 3457 H 336.215 -2.3885 -5.36865 0
M  V30 3458 H 337.739 -1.61455 -5.88867 0
M  V30 3459 H 339.153 -3.46316 -4.56879 0
M  V30 3460 H 337.55 -4.20158 -4.28471 0
M  V30 3461 H 338.62 -3.8801 -2.9082 0
M  V30 3462 N 339.963 1.05934 -1.16686 0
M  V30 3463 C 341.211 1.78447 -0.948744 0
M  V30 3464 C 341.532 1.87813 0.524523 0
M  V30 3465 O 340.802 1.38945 1.38098 0
M  V30 3466 H 339.382 0.660971 -0.348033 0
M  V30 3467 H 342.044 1.27947 -1.47022 0
M  V30 3468 H 341.14 2.80394 -1.37061 0
M  V30 3469 N 341.441 0.965919 1.2453 0
M  V30 3470 C 342.671 0.643451 1.96324 0
M  V30 3471 C 343.079 -0.790927 1.71875 0
M  V30 3472 O 342.422 -1.54208 0.998273 0
M  V30 3473 C 342.484 0.836078 3.49643 0
M  V30 3474 C 342.148 2.24975 3.97788 0
M  V30 3475 C 343.145 3.22735 4.07601 0
M  V30 3476 C 340.83 2.57697 4.31158 0
M  V30 3477 C 342.824 4.51303 4.50116 0
M  V30 3478 C 340.511 3.86492 4.73357 0
M  V30 3479 C 341.509 4.83107 4.828 0
M  V30 3480 O 341.197 6.09605 5.24058 0
M  V30 3481 H 340.929 0.239223 0.632257 0
M  V30 3482 H 343.483 1.29587 1.59362 0
M  V30 3483 H 341.713 0.12649 3.86493 0
M  V30 3484 H 343.402 0.512965 4.02646 0
M  V30 3485 H 344.168 2.98783 3.82039 0
M  V30 3486 H 340.047 1.83216 4.23028 0
M  V30 3487 H 343.591 5.26716 4.57401 0
M  V30 3488 H 339.488 4.10245 4.98366 0
M  V30 3489 H 340.256 6.13146 5.42213 0
M  V30 3490 N 342.919 -1.39368 0.735821 0
M  V30 3491 C 344.196 -1.94465 0.210395 0
M  V30 3492 C 344.576 -1.67254 -1.28799 0
M  V30 3493 O 343.924 -1.00123 -2.05396 0
M  V30 3494 C 344.134 -3.4472 0.544897 0
M  V30 3495 C 345.482 -4.21708 0.494689 0
M  V30 3496 O 346.506 -3.52922 0.482136 0
M  V30 3497 O 345.365 -5.44299 0.489947 0
M  V30 3498 H 342.459 -0.826096 0.0386666 0
M  V30 3499 H 345.005 -1.48863 0.814735 0
M  V30 3500 H 343.777 -3.57963 1.58045 0
M  V30 3501 H 343.4 -3.97502 -0.08837 0
M  V30 3502 N 344.397 -0.483516 -1.5 0
M  V30 3503 C 345.813 -0.138404 -1.58999 0
M  V30 3504 C 346.013 1.35597 -1.4905 0
M  V30 3505 O 345.069 2.13039 -1.35539 0
M  V30 3506 C 346.382 -0.699658 -2.92447 0
M  V30 3507 C 347.93 -0.664195 -3.05872 0
M  V30 3508 C 348.405 -1.20321 -4.41913 0
M  V30 3509 N 349.896 -1.16315 -4.48358 0
M  V30 3510 C 350.631 -1.55058 -5.52037 0
M  V30 3511 N 350.127 -2.01311 -6.62907 0
M  V30 3512 N 351.92 -1.46584 -5.42651 0
M  V30 3513 H 344.071 -1.45529 -1.5471 0
M  V30 3514 H 346.334 -0.60258 -0.731848 0
M  V30 3515 H 346.04 -1.747 -3.05242 0
M  V30 3516 H 345.914 -0.150194 -3.76901 0
M  V30 3517 H 348.301 0.374272 -2.92717 0
M  V30 3518 H 348.382 -1.25061 -2.23144 0
M  V30 3519 H 348.026 -2.24037 -4.55818 0
M  V30 3520 H 347.956 -0.592896 -5.23252 0
M  V30 3521 H 350.447 -0.824058 -3.68806 0
M  V30 3522 H 350.76 -2.2899 -7.38095 0
M  V30 3523 H 349.105 -2.05273 -6.63994 0
M  V30 3524 H 352.296 -1.10281 -4.54924 0
M  V30 3525 H 352.469 -1.77103 -6.23329 0
M  V30 3526 N 345.875 1.56104 -0.216619 0
M  V30 3527 C 346.785 2.23694 0.706982 0
M  V30 3528 C 347.801 1.24295 1.21765 0
M  V30 3529 O 348.977 1.57094 1.2603 0
M  V30 3530 C 346.042 2.8998 1.90033 0
M  V30 3531 C 345.103 4.04708 1.43213 0
M  V30 3532 C 344.336 4.67824 2.56859 0
M  V30 3533 O 344.559 4.29913 3.74874 0
M  V30 3534 O 343.493 5.56905 2.28343 0
M  V30 3535 H 347.319 3.03272 0.161235 0
M  V30 3536 H 344.904 1.49394 0.0136177 0
M  V30 3537 H 346.786 3.31837 2.59735 0
M  V30 3538 H 345.461 2.13365 2.43428 0
M  V30 3539 H 344.368 3.6743 0.70327 0
M  V30 3540 H 345.701 4.83051 0.944615 0
M  V30 3541 N 347.353 -0.0568162 1.57498 0
M  V30 3542 C 348.283 -1.06593 2.0775 0
M  V30 3543 C 349.264 -1.39448 0.974082 0
M  V30 3544 O 350.449 -1.48815 1.24771 0
M  V30 3545 C 347.579 -2.37509 2.5339 0
M  V30 3546 C 346.533 -2.1897 3.67745 0
M  V30 3547 C 345.859 -3.55402 3.99492 0
M  V30 3548 C 347.159 -1.59859 4.97235 0
M  V30 3549 H 348.853 -0.647706 2.9231 0
M  V30 3550 H 346.399 -0.310116 1.40621 0
M  V30 3551 H 348.352 -3.08409 2.87162 0
M  V30 3552 H 347.076 -2.8134 1.65878 0
M  V30 3553 H 345.735 -1.50508 3.3428 0
M  V30 3554 H 345.383 -3.9683 3.09088 0
M  V30 3555 H 345.083 -3.43831 4.76502 0
M  V30 3556 H 346.607 -4.27708 4.35773 0
M  V30 3557 H 348.021 -2.20642 5.29141 0
M  V30 3558 H 346.418 -1.58942 5.78669 0
M  V30 3559 H 347.488 -0.561506 4.81638 0
M  V30 3560 N 348.832 -1.54138 -0.328536 0
M  V30 3561 C 349.762 -1.86167 -1.40939 0
M  V30 3562 C 350.743 -0.718044 -1.54202 0
M  V30 3563 O 351.928 -0.971328 -1.68163 0
M  V30 3564 C 349.058 -2.08461 -2.77779 0
M  V30 3565 C 348.012 -3.24299 -2.7931 0
M  V30 3566 C 347.338 -3.31955 -4.19178 0
M  V30 3567 C 348.638 -4.62065 -2.43502 0
M  V30 3568 H 350.332 -2.76689 -1.14383 0
M  V30 3569 H 347.878 -1.33132 -0.548806 0
M  V30 3570 H 349.831 -2.29453 -3.53454 0
M  V30 3571 H 348.555 -1.14684 -3.05802 0
M  V30 3572 H 347.214 -3.03187 -2.0609 0
M  V30 3573 H 346.862 -2.35745 -4.44335 0
M  V30 3574 H 346.562 -4.09805 -4.2111 0
M  V30 3575 H 348.086 -3.55175 -4.96672 0
M  V30 3576 H 349.5 -4.8297 -3.08889 0
M  V30 3577 H 347.897 -5.42429 -2.56693 0
M  V30 3578 H 348.967 -4.64652 -1.38659 0
M  V30 3579 N 350.31 0.590341 -1.46126 0
M  V30 3580 C 351.273 1.68194 -1.55703 0
M  V30 3581 C 352.273 1.54808 -0.434868 0
M  V30 3582 O 353.463 1.59564 -0.698928 0
M  V30 3583 C 350.595 3.07575 -1.47005 0
M  V30 3584 H 351.788 1.61064 -2.52979 0
M  V30 3585 H 349.341 0.807541 -1.33823 0
M  V30 3586 H 350.076 3.20268 -0.509785 0
M  V30 3587 H 349.861 3.187 -2.28414 0
M  V30 3588 H 351.351 3.87055 -1.56776 0
M  V30 3589 N 351.788 1.33704 0.83433 0
M  V30 3590 C 353.199 1.22813 1.4062 0
M  V30 3591 C 353.55 -0.151107 1.95617 0
M  V30 3592 O 352.675 -1.05092 1.89168 0
M  V30 3593 C 353.27 2.22355 2.55624 0
M  V30 3594 C 351.829 2.1529 3.08751 0
M  V30 3595 C 350.976 2.09589 1.8157 0
M  V30 3596 H 353.927 1.45236 0.639702 0
M  V30 3597 H 353.948 1.83391 3.33389 0
M  V30 3598 H 353.46 3.22728 2.15566 0
M  V30 3599 H 351.561 1.18235 3.53343 0
M  V30 3600 H 351.674 3.06038 3.68616 0
M  V30 3601 H 350.038 1.55134 2.02004 0
M  V30 3602 H 350.821 3.11777 1.43701 0
M  V30 3603 N 353.266 -1.05314 1.17247 0
M  V30 3604 C 354.176 -2.16538 0.90268 0
M  V30 3605 C 355.192 -1.73523 -0.128707 0
M  V30 3606 O 356.368 -2.01337 0.0502701 0
M  V30 3607 C 353.433 -3.44167 0.418356 0
M  V30 3608 C 352.494 -4.01635 1.51618 0
M  V30 3609 C 351.727 -5.23171 1.05487 0
M  V30 3610 O 351.95 -5.70327 -0.0914715 0
M  V30 3611 O 350.884 -5.72848 1.8474 0
M  V30 3612 H 354.71 -2.42145 1.83302 0
M  V30 3613 H 352.295 -1.15037 0.953246 0
M  V30 3614 H 354.177 -4.21112 0.155726 0
M  V30 3615 H 352.852 -3.20063 -0.48385 0
M  V30 3616 H 351.759 -3.26135 1.83268 0
M  V30 3617 H 353.092 -4.30053 2.39405 0
M  V30 3618 N 354.744 -0.972509 -1.24016 0
M  V30 3619 C 356.021 -0.553733 -1.87598 0
M  V30 3620 C 356.401 0.969158 -1.87538 0
M  V30 3621 O 355.749 1.84255 -1.35139 0
M  V30 3622 C 355.959 -1.15076 -3.29482 0
M  V30 3623 C 357.307 -1.23862 -4.06132 0
M  V30 3624 O 358.331 -1.10363 -3.38672 0
M  V30 3625 O 357.19 -1.45252 -5.26844 0
M  V30 3626 H 354.284 -0.185331 -0.805966 0
M  V30 3627 H 356.83 -1.06709 -1.31952 0
M  V30 3628 H 355.602 -2.19333 -3.2405 0
M  V30 3629 H 355.225 -0.621746 -3.92709 0
M  V30 3630 N 356.222 1.38976 -0.743202 0
M  V30 3631 C 357.633 1.83123 -0.363732 0
M  V30 3632 C 357.984 1.6205 1.10609 0
M  V30 3633 O 357.109 1.11606 1.854 0
M  V30 3634 C 357.704 3.32439 -0.653408 0
M  V30 3635 C 356.263 3.74974 -0.327338 0
M  V30 3636 C 355.41 2.61878 -0.911875 0
M  V30 3637 H 358.361 1.27852 -0.940191 0
M  V30 3638 H 358.382 3.80432 0.0720031 0
M  V30 3639 H 357.894 3.47745 -1.72323 0
M  V30 3640 H 355.995 3.65252 0.736314 0
M  V30 3641 H 356.108 4.72106 -0.815631 0
M  V30 3642 H 354.472 2.52448 -0.337944 0
M  V30 3643 H 355.255 2.79987 -1.98651 0
M  V30 3644 N 357.7 0.491464 1.49741 0
M  V30 3645 C 358.663 -0.280906 2.27472 0
M  V30 3646 C 359.663 -0.902454 1.33088 0
M  V30 3647 O 360.853 -0.768465 1.56334 0
M  V30 3648 C 357.985 -1.40209 3.10732 0
M  V30 3649 H 359.178 0.401056 2.97206 0
M  V30 3650 H 356.731 0.246131 1.5435 0
M  V30 3651 H 357.466 -2.11849 2.45541 0
M  V30 3652 H 357.251 -0.961969 3.80117 0
M  V30 3653 H 358.741 -1.9464 3.69466 0
M  V30 3654 N 359.178 -1.55987 0.224894 0
M  V30 3655 C 360.455 -1.90232 -0.455083 0
M  V30 3656 C 360.835 -1.14269 -1.77499 0
M  V30 3657 O 360.183 -0.253079 -2.27094 0
M  V30 3658 C 360.393 -3.42993 -0.644758 0
M  V30 3659 C 361.741 -4.13821 -0.950669 0
M  V30 3660 O 362.765 -3.4861 -0.731423 0
M  V30 3661 O 361.624 -5.29128 -1.36695 0
M  V30 3662 H 358.718 -0.79108 -0.241084 0
M  V30 3663 H 361.264 -1.67581 0.267327 0
M  V30 3664 H 360.036 -3.90252 0.28613 0
M  V30 3665 H 359.659 -3.71434 -1.41853 0
M  V30 3666 N 360.656 0.0484629 -1.57525 0
M  V30 3667 C 361.603 1.05504 -2.05275 0
M  V30 3668 C 362.573 1.37084 -0.937927 0
M  V30 3669 O 363.758 1.47754 -1.2072 0
M  V30 3670 C 360.898 2.35676 -2.52093 0
M  V30 3671 C 360.011 2.10423 -3.77288 0
M  V30 3672 C 359.146 3.34327 -4.12794 0
M  V30 3673 C 358.185 3.04542 -5.30962 0
M  V30 3674 N 357.322 4.20841 -5.61994 0
M  V30 3675 H 362.162 0.640885 -2.91027 0
M  V30 3676 H 359.699 0.304854 -1.43906 0
M  V30 3677 H 361.657 3.11709 -2.77297 0
M  V30 3678 H 360.287 2.7485 -1.69285 0
M  V30 3679 H 359.339 1.24976 -3.59284 0
M  V30 3680 H 360.651 1.84438 -4.63448 0
M  V30 3681 H 359.805 4.1874 -4.39024 0
M  V30 3682 H 358.544 3.63408 -3.25247 0
M  V30 3683 H 357.549 2.18528 -5.04505 0
M  V30 3684 H 358.774 2.76758 -6.20146 0
M  V30 3685 H 356.72 4.4991 -4.77406 0
M  V30 3686 H 356.637 3.98212 -6.42622 0
M  V30 3687 H 357.905 5.06184 -5.92789 0
M  V30 3688 N 362.134 1.5431 0.320358 0
M  V30 3689 C 363.044 1.86946 1.41734 0
M  V30 3690 C 364.06 0.761689 1.56443 0
M  V30 3691 O 365.236 1.05629 1.71477 0
M  V30 3692 C 362.301 2.09293 2.76401 0
M  V30 3693 C 361.362 3.33082 2.70841 0
M  V30 3694 C 360.595 3.54353 3.99086 0
M  V30 3695 O 360.818 2.79002 4.97508 0
M  V30 3696 O 359.752 4.47838 4.0215 0
M  V30 3697 H 363.578 2.80232 1.17062 0
M  V30 3698 H 361.163 1.40255 0.514673 0
M  V30 3699 H 363.045 2.25303 3.56113 0
M  V30 3700 H 361.72 1.19194 3.00956 0
M  V30 3701 H 360.627 3.22454 1.89668 0
M  V30 3702 H 361.96 4.23249 2.5124 0
M  V30 3703 N 363.613 -0.582584 1.46437 0
M  V30 3704 C 364.576 -1.67366 1.56592 0
M  V30 3705 C 365.576 -1.54575 0.443072 0
M  V30 3706 O 366.766 -1.59191 0.707381 0
M  V30 3707 C 363.898 -3.06791 1.48634 0
M  V30 3708 H 365.091 -1.5972 2.5383 0
M  V30 3709 H 362.644 -0.800432 1.34249 0
M  V30 3710 H 363.379 -3.19993 0.526763 0
M  V30 3711 H 363.164 -3.17484 2.30101 0
M  V30 3712 H 364.654 -3.86218 1.58826 0
M  V30 3713 N 365.091 -1.34144 -0.827227 0
M  V30 3714 C 366.337 -1.26446 -1.58554 0
M  V30 3715 C 366.67 0.1664 -1.93486 0
M  V30 3716 O 365.945 1.1107 -1.59667 0
M  V30 3717 C 366.228 -2.15111 -2.8879 0
M  V30 3718 C 366.081 -3.66712 -2.60465 0
M  V30 3719 C 367.4 -2.03311 -3.90324 0
M  V30 3720 H 364.519 -0.46067 -0.575284 0
M  V30 3721 H 367.161 -1.64356 -0.953269 0
M  V30 3722 H 365.311 -1.8291 -3.42748 0
M  V30 3723 H 366.983 -4.09259 -2.1285 0
M  V30 3724 H 365.226 -3.88014 -1.93978 0
M  V30 3725 H 365.897 -4.24112 -3.53317 0
M  V30 3726 H 368.373 -2.31574 -3.45706 0
M  V30 3727 H 367.249 -2.67582 -4.79261 0
M  V30 3728 H 367.51 -1.00879 -4.30437 0
M  V30 3729 N 366.569 1.04691 -1.17803 0
M  V30 3730 C 367.532 2.10724 -0.901545 0
M  V30 3731 C 368.532 1.6042 0.110437 0
M  V30 3732 O 369.722 1.7377 -0.122303 0
M  V30 3733 C 366.854 3.39084 -0.351409 0
M  V30 3734 H 368.047 2.36686 -1.84174 0
M  V30 3735 H 365.6 1.21015 -0.98919 0
M  V30 3736 H 366.335 3.18782 0.59569 0
M  V30 3737 H 366.12 3.76909 -1.08083 0
M  V30 3738 H 367.61 4.17227 -0.176451 0
M  V30 3739 N 368.047 0.979072 1.23499 0
M  V30 3740 C 369.01 0.523244 2.23147 0
M  V30 3741 C 370.01 -0.386406 1.56088 0
M  V30 3742 O 371.2 -0.180283 1.73265 0
M  V30 3743 C 368.332 -0.240739 3.40049 0
M  V30 3744 H 369.525 1.40432 2.64989 0
M  V30 3745 H 367.078 0.764824 1.36309 0
M  V30 3746 H 367.813 -1.13841 3.03662 0
M  V30 3747 H 367.598 0.412207 3.89927 0
M  V30 3748 H 369.088 -0.548297 4.13985 0
M  V30 3749 N 369.525 -1.3858 0.750561 0
M  V30 3750 C 370.455 -2.33102 0.136237 0
M  V30 3751 C 371.436 -1.54713 -0.706965 0
M  V30 3752 O 372.621 -1.83043 -0.648769 0
M  V30 3753 C 369.751 -3.38882 -0.760017 0
M  V30 3754 C 368.705 -4.27995 -0.0197785 0
M  V30 3755 C 368.031 -5.24605 -1.03408 0
M  V30 3756 C 369.331 -5.09554 1.14684 0
M  V30 3757 H 371.025 -2.84726 0.925822 0
M  V30 3758 H 368.571 -1.36898 0.446654 0
M  V30 3759 H 370.524 -4.0397 -1.19943 0
M  V30 3760 H 369.248 -2.85734 -1.58189 0
M  V30 3761 H 367.907 -3.64409 0.400184 0
M  V30 3762 H 367.555 -4.67746 -1.84994 0
M  V30 3763 H 367.255 -5.85081 -0.543464 0
M  V30 3764 H 368.779 -5.9257 -1.47288 0
M  V30 3765 H 370.193 -5.67899 0.785118 0
M  V30 3766 H 368.59 -5.7925 1.56812 0
M  V30 3767 H 369.66 -4.4347 1.96118 0
M  V30 3768 N 371.003 -0.499398 -1.49478 0
M  V30 3769 C 372.228 0.044722 -2.07352 0
M  V30 3770 C 372.653 1.30207 -1.35749 0
M  V30 3771 O 372.011 1.76516 -0.413732 0
M  V30 3772 C 372.059 0.283013 -3.59488 0
M  V30 3773 O 371.163 1.35804 -3.89398 0
M  V30 3774 H 370.504 -0.0255147 -0.66351 0
M  V30 3775 H 373.034 -0.698561 -1.92305 0
M  V30 3776 H 373.044 0.515007 -4.04737 0
M  V30 3777 H 371.719 -0.635636 -4.11014 0
M  V30 3778 H 370.296 1.11113 -3.55961 0
M  V30 3779 N 372.481 1.55866 -0.233164 0
M  V30 3780 C 373.428 2.20796 0.67215 0
M  V30 3781 C 374.398 1.16731 1.18166 0
M  V30 3782 O 375.583 1.45129 1.23864 0
M  V30 3783 C 372.723 2.90072 1.86955 0
M  V30 3784 C 371.836 4.08759 1.39786 0
M  V30 3785 C 370.971 4.65787 2.55374 0
M  V30 3786 C 370.01 5.76752 2.04998 0
M  V30 3787 N 369.147 6.28021 3.13901 0
M  V30 3788 H 373.987 2.9779 0.111749 0
M  V30 3789 H 371.524 1.47036 0.0434007 0
M  V30 3790 H 373.482 3.28428 2.57276 0
M  V30 3791 H 372.112 2.15575 2.40265 0
M  V30 3792 H 371.164 3.7581 0.589173 0
M  V30 3793 H 372.476 4.88906 0.98856 0
M  V30 3794 H 371.63 5.06646 3.33758 0
M  V30 3795 H 370.369 3.84828 2.99598 0
M  V30 3796 H 369.374 5.35383 1.25079 0
M  V30 3797 H 370.599 6.59553 1.61759 0
M  V30 3798 H 368.545 5.49971 3.57586 0
M  V30 3799 H 368.462 7.03323 2.7726 0
M  V30 3800 H 369.73 6.73538 3.92386 0
M  V30 3801 N 373.959 -0.0401083 1.57549 0
M  V30 3802 C 374.922 -1.02871 2.04817 0
M  V30 3803 C 375.922 -1.29708 0.950388 0
M  V30 3804 O 377.112 -1.24897 1.21435 0
M  V30 3805 C 374.244 -2.36443 2.45576 0
M  V30 3806 H 375.437 -0.620631 2.93408 0
M  V30 3807 H 372.99 -0.286667 1.53649 0
M  V30 3808 H 373.725 -2.82021 1.60108 0
M  V30 3809 H 373.51 -2.18296 3.25713 0
M  V30 3810 H 375 -3.07441 2.82612 0
M  V30 3811 N 375.437 -1.54477 -0.31217 0
M  V30 3812 C 376.367 -1.87652 -1.38957 0
M  V30 3813 C 377.348 -0.734358 -1.53431 0
M  V30 3814 O 378.533 -0.98911 -1.67123 0
M  V30 3815 C 375.663 -2.11396 -2.75552 0
M  V30 3816 C 374.617 -3.27243 -2.75855 0
M  V30 3817 C 373.943 -3.36382 -4.15633 0
M  V30 3818 C 375.243 -4.64622 -2.38587 0
M  V30 3819 H 376.937 -2.77887 -1.11442 0
M  V30 3820 H 374.483 -1.33707 -0.534655 0
M  V30 3821 H 376.436 -2.33189 -3.51 0
M  V30 3822 H 375.16 -1.17921 -3.04569 0
M  V30 3823 H 373.819 -3.05356 -2.02863 0
M  V30 3824 H 373.467 -2.40445 -4.41809 0
M  V30 3825 H 373.167 -4.14249 -4.1674 0
M  V30 3826 H 374.691 -3.60422 -4.92877 0
M  V30 3827 H 376.105 -4.86219 -3.03749 0
M  V30 3828 H 374.502 -5.45121 -2.50925 0
M  V30 3829 H 375.572 -4.66097 -1.33723 0
M  V30 3830 N 376.915 0.57481 -1.46744 0
M  V30 3831 C 378.192 1.3352 -1.4294 0
M  V30 3832 C 378.572 2.10775 -0.117009 0
M  V30 3833 O 377.92 2.09966 0.901474 0
M  V30 3834 C 378.13 2.25456 -2.66403 0
M  V30 3835 C 379.478 2.87035 -3.12883 0
M  V30 3836 O 380.502 2.35766 -2.67007 0
M  V30 3837 O 379.361 3.80179 -3.92589 0
M  V30 3838 H 376.455 0.600318 -0.568812 0
M  V30 3839 H 379.001 0.595171 -1.58921 0
M  V30 3840 H 377.773 1.67851 -3.53471 0
M  V30 3841 H 377.396 3.06785 -2.52921 0
M  V30 3842 N 378.394 1.34581 0.820102 0
M  V30 3843 C 379.304 1.28471 1.96297 0
M  V30 3844 C 380.32 0.191902 1.72939 0
M  V30 3845 O 381.496 0.418879 1.96996 0
M  V30 3846 C 378.561 1.04281 3.30645 0
M  V30 3847 C 377.622 2.22745 3.66992 0
M  V30 3848 C 376.855 1.997 4.9493 0
M  V30 3849 O 377.078 0.956656 5.6232 0
M  V30 3850 O 376.012 2.86723 5.2922 0
M  V30 3851 H 379.838 2.24624 2.04396 0
M  V30 3852 H 377.423 1.14816 0.955913 0
M  V30 3853 H 379.305 0.925841 4.11104 0
M  V30 3854 H 377.98 0.111697 3.23507 0
M  V30 3855 H 376.887 2.40003 2.86966 0
M  V30 3856 H 378.22 3.14257 3.78819 0
M  V30 3857 N 379.872 -1.04064 1.18357 0
M  V30 3858 C 381.118 -1.77528 0.980397 0
M  V30 3859 C 381.451 -1.87948 -0.48879 0
M  V30 3860 O 380.726 -1.3876 -1.36293 0
M  V30 3861 C 381.009 -3.20797 1.63588 0
M  V30 3862 C 380.862 -3.1832 3.17793 0
M  V30 3863 C 382.181 -4.18911 1.34914 0
M  V30 3864 H 379.3 -0.644443 0.357578 0
M  V30 3865 H 381.942 -1.2156 1.46024 0
M  V30 3866 H 380.092 -3.68586 1.22788 0
M  V30 3867 H 381.764 -2.78521 3.67728 0
M  V30 3868 H 380.007 -2.56351 3.49952 0
M  V30 3869 H 380.678 -4.19489 3.58794 0
M  V30 3870 H 383.154 -3.7967 1.70265 0
M  V30 3871 H 382.03 -5.17374 1.83346 0
M  V30 3872 H 382.291 -4.41262 0.272027 0
M  V30 3873 N 381.35 -0.985608 -1.22978 0
M  V30 3874 C 382.578 -0.675582 -1.95559 0
M  V30 3875 C 382.993 0.758413 -1.72897 0
M  V30 3876 O 382.35 1.51094 -1.02357 0
M  V30 3877 C 382.401 -0.96293 -3.48439 0
M  V30 3878 O 382.122 -2.34057 -3.70336 0
M  V30 3879 C 383.623 -0.669585 -4.38214 0
M  V30 3880 H 380.843 -0.250523 -0.622478 0
M  V30 3881 H 383.387 -1.3184 -1.56328 0
M  V30 3882 H 381.542 -0.366033 -3.85667 0
M  V30 3883 H 381.956 -2.43424 -4.64591 0
M  V30 3884 H 383.43 -0.920967 -5.44263 0
M  V30 3885 H 383.907 0.396383 -4.37408 0
M  V30 3886 H 384.513 -1.2472 -4.06602 0
M  V30 3887 N 382.828 1.3818 -0.7579 0
M  V30 3888 C 383.738 2.3421 -0.135247 0
M  V30 3889 C 384.754 1.59487 0.695683 0
M  V30 3890 O 385.93 1.91657 0.618832 0
M  V30 3891 C 382.995 3.3862 0.744139 0
M  V30 3892 C 382.056 4.2918 -0.101658 0
M  V30 3893 C 381.289 5.28603 0.735851 0
M  V30 3894 O 381.512 5.35166 1.97366 0
M  V30 3895 O 380.446 6.01707 0.152372 0
M  V30 3896 H 384.272 2.8916 -0.928436 0
M  V30 3897 H 381.857 1.40101 -0.518855 0
M  V30 3898 H 383.739 4.02539 1.2466 0
M  V30 3899 H 382.414 2.86019 1.51575 0
M  V30 3900 H 381.321 3.68407 -0.650167 0
M  V30 3901 H 382.654 4.85048 -0.836024 0
M  V30 3902 N 384.306 0.507319 1.49211 0
M  V30 3903 C 385.269 -0.256763 2.27757 0
M  V30 3904 C 386.269 -0.888287 1.34038 0
M  V30 3905 O 387.459 -0.751841 1.5714 0
M  V30 3906 C 384.591 -1.36905 3.12202 0
M  V30 3907 H 385.784 0.432557 2.96764 0
M  V30 3908 H 383.337 0.262488 1.5408 0
M  V30 3909 H 384.072 -2.09233 2.47775 0
M  V30 3910 H 383.857 -0.921599 3.81115 0
M  V30 3911 H 385.347 -1.9071 3.7151 0
M  V30 3912 N 385.784 -1.5574 0.241426 0
M  V30 3913 C 387.03 -1.99104 -0.385406 0
M  V30 3914 C 387.363 -1.1293 -1.57988 0
M  V30 3915 O 386.638 -0.191449 -1.93555 0
M  V30 3916 C 386.921 -3.51087 -0.800616 0
M  V30 3917 C 386.774 -4.48028 0.398874 0
M  V30 3918 C 388.093 -4.08015 -1.64959 0
M  V30 3919 H 385.212 -0.723848 -0.138614 0
M  V30 3920 H 387.854 -1.86903 0.341642 0
M  V30 3921 H 386.004 -3.61615 -1.4201 0
M  V30 3922 H 387.676 -4.49487 1.03726 0
M  V30 3923 H 385.919 -4.21077 1.04293 0
M  V30 3924 H 386.59 -5.51962 0.0651056 0
M  V30 3925 H 389.066 -4.00555 -1.12672 0
M  V30 3926 H 387.942 -5.14635 -1.90898 0
M  V30 3927 H 388.203 -3.56131 -2.61961 0
M  V30 3928 N 387.262 0.0317525 -1.57568 0
M  V30 3929 C 388.492 0.733884 -1.93126 0
M  V30 3930 C 388.9 1.69563 -0.839352 0
M  V30 3931 O 388.243 1.82681 0.193175 0
M  V30 3932 C 388.305 1.54798 -3.24465 0
M  V30 3933 C 387.969 0.751304 -4.50782 0
M  V30 3934 C 388.966 0.0527632 -5.19873 0
M  V30 3935 C 386.651 0.706639 -4.97305 0
M  V30 3936 C 388.645 -0.679774 -6.33765 0
M  V30 3937 C 386.332 -0.0296449 -6.11093 0
M  V30 3938 C 387.33 -0.721614 -6.79177 0
M  V30 3939 O 387.018 -1.44595 -7.90789 0
M  V30 3940 H 386.75 0.211459 -0.642076 0
M  V30 3941 H 389.304 -0.00585615 -2.05399 0
M  V30 3942 H 387.534 2.33147 -3.08512 0
M  V30 3943 H 389.223 2.13247 -3.4537 0
M  V30 3944 H 389.989 0.0783188 -4.84937 0
M  V30 3945 H 385.868 1.23474 -4.44157 0
M  V30 3946 H 389.412 -1.22042 -6.86842 0
M  V30 3947 H 385.309 -0.0571331 -6.45475 0
M  V30 3948 H 386.077 -1.35935 -8.07133 0
M  V30 3949 N 388.74 1.54641 0.303973 0
M  V30 3950 C 389.67 1.88386 1.3796 0
M  V30 3951 C 390.651 0.742485 1.5304 0
M  V30 3952 O 391.836 0.997959 1.66597 0
M  V30 3953 C 388.966 2.12854 2.74427 0
M  V30 3954 C 387.92 3.28702 2.74115 0
M  V30 3955 C 387.246 3.38582 4.13844 0
M  V30 3956 C 388.546 4.65881 2.3612 0
M  V30 3957 H 390.24 2.78474 1.09966 0
M  V30 3958 H 387.786 1.33988 0.527556 0
M  V30 3959 H 389.739 2.35047 3.49758 0
M  V30 3960 H 388.463 1.19535 3.03939 0
M  V30 3961 H 387.122 3.06428 2.0124 0
M  V30 3962 H 386.77 2.42784 4.40528 0
M  V30 3963 H 386.47 4.16453 4.14537 0
M  V30 3964 H 387.994 3.63031 4.90959 0
M  V30 3965 H 389.408 4.87823 3.01167 0
M  V30 3966 H 387.805 5.46444 2.48031 0
M  V30 3967 H 388.875 4.66799 1.3125 0
M  V30 3968 N 390.218 -0.567019 1.47046 0
M  V30 3969 C 391.128 -1.70247 1.6141 0
M  V30 3970 C 392.144 -1.66746 0.497157 0
M  V30 3971 O 393.32 -1.86371 0.763389 0
M  V30 3972 C 390.385 -3.06756 1.61561 0
M  V30 3973 C 389.446 -3.21399 2.84607 0
M  V30 3974 C 388.679 -4.51396 2.84741 0
M  V30 3975 O 388.902 -5.36255 1.94388 0
M  V30 3976 O 387.836 -4.69621 3.76483 0
M  V30 3977 H 391.662 -1.61073 2.57467 0
M  V30 3978 H 389.247 -0.735894 1.30019 0
M  V30 3979 H 391.129 -3.8801 1.64396 0
M  V30 3980 H 389.804 -3.16333 0.686684 0
M  V30 3981 H 388.711 -2.39579 2.8732 0
M  V30 3982 H 390.044 -3.16721 3.76761 0
M  V30 3983 N 391.696 -1.35014 -0.812953 0
M  V30 3984 C 393.107 -1.25035 -1.38648 0
M  V30 3985 C 393.458 0.119967 -1.95833 0
M  V30 3986 O 392.583 1.02069 -1.90816 0
M  V30 3987 C 393.178 -2.26394 -2.52054 0
M  V30 3988 C 391.737 -2.20175 -3.05287 0
M  V30 3989 C 390.884 -2.12451 -1.78213 0
M  V30 3990 H 393.835 -1.46235 -0.616516 0
M  V30 3991 H 393.856 -1.88672 -3.30429 0
M  V30 3992 H 393.368 -3.26116 -2.10404 0
M  V30 3993 H 391.469 -1.23841 -3.51417 0
M  V30 3994 H 391.582 -3.11863 -3.63701 0
M  V30 3995 H 389.946 -1.58328 -1.9951 0
M  V30 3996 H 390.729 -3.14024 -1.38723 0
M  V30 3997 N 393.175 1.03435 -1.18907 0
M  V30 3998 C 394.423 1.76394 -0.986382 0
M  V30 3999 C 394.744 1.88883 0.484567 0
M  V30 4000 O 394.014 1.41843 1.3512 0
M  V30 4001 H 392.594 0.65344 -0.361975 0
M  V30 4002 H 395.256 1.248 -1.49703 0
M  V30 4003 H 394.352 2.77424 -1.42978 0
M  V30 4004 N 394.653 0.992116 1.22453 0
M  V30 4005 C 395.93 0.583508 1.86694 0
M  V30 4006 C 396.31 -0.9392 1.89056 0
M  V30 4007 O 395.658 -1.82081 1.38053 0
M  V30 4008 C 395.868 1.20304 3.2761 0
M  V30 4009 C 397.216 1.30308 4.0411 0
M  V30 4010 O 398.24 1.15737 3.36873 0
M  V30 4011 O 397.099 1.53615 5.24466 0
M  V30 4012 H 394.193 0.198129 0.802916 0
M  V30 4013 H 396.739 1.08794 1.30238 0
M  V30 4014 H 395.511 2.24461 3.2052 0
M  V30 4015 H 395.134 0.684144 3.9167 0
M  V30 4016 N 396.131 -1.37776 0.765217 0
M  V30 4017 C 397.061 -2.32945 0.160953 0
M  V30 4018 C 398.042 -1.55454 -0.690516 0
M  V30 4019 O 399.227 -1.83721 -0.629318 0
M  V30 4020 C 396.357 -3.39669 -0.724031 0
M  V30 4021 C 395.311 -4.27992 0.0256173 0
M  V30 4022 C 394.637 -5.25673 -0.978383 0
M  V30 4023 C 395.937 -5.08309 1.20082 0
M  V30 4024 H 397.631 -2.83728 0.955969 0
M  V30 4025 H 395.177 -1.36416 0.461149 0
M  V30 4026 H 397.13 -4.05219 -1.15652 0
M  V30 4027 H 395.854 -2.87396 -1.5515 0
M  V30 4028 H 394.513 -3.63964 0.438812 0
M  V30 4029 H 394.161 -4.69682 -1.80022 0
M  V30 4030 H 393.861 -5.85625 -0.481378 0
M  V30 4031 H 395.385 -5.94098 -1.40995 0
M  V30 4032 H 396.799 -5.67034 0.845307 0
M  V30 4033 H 395.196 -5.77554 1.62947 0
M  V30 4034 H 396.266 -4.41365 2.00811 0
M  V30 4035 N 397.609 -0.515225 -1.4894 0
M  V30 4036 C 398.539 0.244628 -2.32215 0
M  V30 4037 C 399.52 0.949136 -1.41157 0
M  V30 4038 O 400.705 0.937783 -1.70057 0
M  V30 4039 C 397.835 1.30096 -3.22013 0
M  V30 4040 C 396.789 0.715486 -4.21977 0
M  V30 4041 C 396.115 1.87339 -5.00808 0
M  V30 4042 C 397.415 -0.302982 -5.2142 0
M  V30 4043 H 399.109 -0.450501 -2.95991 0
M  V30 4044 H 396.655 -0.218098 -1.42339 0
M  V30 4045 H 398.608 1.84037 -3.79089 0
M  V30 4046 H 397.332 2.02547 -2.56207 0
M  V30 4047 H 395.991 0.197715 -3.66066 0
M  V30 4048 H 395.639 2.58592 -4.31438 0
M  V30 4049 H 395.339 1.48764 -5.68457 0
M  V30 4050 H 396.863 2.41686 -5.60732 0
M  V30 4051 H 398.277 0.148802 -5.73107 0
M  V30 4052 H 396.674 -0.60532 -5.97039 0
M  V30 4053 H 397.744 -1.21395 -4.69459 0
M  V30 4054 N 399.087 1.5561 -0.249682 0
M  V30 4055 C 400.336 1.98187 0.37479 0
M  V30 4056 C 400.649 1.14111 1.58865 0
M  V30 4057 O 401.855 1.46714 2.28445 0
M  V30 4058 C 400.311 3.52661 0.718192 0
M  V30 4059 C 399.919 4.45481 -0.474428 0
M  V30 4060 C 401.663 4.03888 1.3067 0
M  V30 4061 C 399.57 5.91303 -0.107026 0
M  V30 4062 H 398.5 0.740159 0.143808 0
M  V30 4063 H 401.151 1.80125 -0.350336 0
M  V30 4064 H 399.533 3.66429 1.50152 0
M  V30 4065 H 400.707 4.43473 -1.25172 0
M  V30 4066 H 399.022 4.04751 -0.978052 0
M  V30 4067 H 401.619 5.10358 1.59496 0
M  V30 4068 H 401.962 3.51401 2.23211 0
M  V30 4069 H 402.495 3.93457 0.586211 0
M  V30 4070 H 399.234 6.47833 -0.999642 0
M  V30 4071 H 398.754 5.9644 0.634013 0
M  V30 4072 H 400.433 6.46258 0.309807 0
M  V30 4073 N 400.565 -0.0233959 1.57583 0
M  V30 4074 C 401.811 -0.714119 1.89811 0
M  V30 4075 C 402.144 -1.74702 0.848113 0
M  V30 4076 O 401.419 -1.94023 -0.136135 0
M  V30 4077 C 401.702 -1.37853 3.32669 0
M  V30 4078 C 401.555 -0.358764 4.48367 0
M  V30 4079 C 402.874 -2.31101 3.7454 0
M  V30 4080 H 399.993 -0.25814 0.690314 0
M  V30 4081 H 402.635 0.0230927 1.89986 0
M  V30 4082 H 400.785 -2.00689 3.3265 0
M  V30 4083 H 402.457 0.268115 4.6052 0
M  V30 4084 H 400.7 0.321387 4.32608 0
M  V30 4085 H 401.371 -0.862242 5.45224 0
M  V30 4086 H 403.847 -1.78304 3.75961 0
M  V30 4087 H 402.723 -2.74567 4.75294 0
M  V30 4088 H 402.984 -3.18018 3.0711 0
M  V30 4089 N 402.043 -1.548 -0.295768 0
M  V30 4090 C 403.32 -1.65014 -1.05023 0
M  V30 4091 C 403.7 -0.501805 -2.05049 0
M  V30 4092 O 403.048 0.500869 -2.22943 0
M  V30 4093 C 403.258 -3.03252 -1.72741 0
M  V30 4094 C 404.606 -3.60242 -2.24746 0
M  V30 4095 O 405.63 -3.05737 -1.82765 0
M  V30 4096 O 404.489 -4.55687 -3.01681 0
M  V30 4097 H 401.583 -0.669314 -0.485744 0
M  V30 4098 H 404.129 -1.67144 -0.293438 0
M  V30 4099 H 402.901 -3.7827 -1.00138 0
M  V30 4100 H 402.524 -3.04922 -2.55163 0
M  V30 4101 N 403.521 0.559213 -1.47345 0
M  V30 4102 C 404.469 1.68747 -1.60085 0
M  V30 4103 C 405.463 1.628 -0.46825 0
M  V30 4104 O 406.669 1.68009 -0.645977 0
M  V30 4105 H 403.044 0.558329 -0.503759 0
M  V30 4106 H 405.015 1.55138 -2.54902 0
M  V30 4107 C 403.764 3.07103 -1.63042 0
M  V30 4108 H 403.087 3.12361 -2.49541 0
M  V30 4109 H 404.527 3.85743 -1.76006 0
M  V30 4110 C 402.986 3.34935 -0.363357 0
M  V30 4111 O 403.516 3.98102 0.536416 0
M  V30 4112 N 401.722 2.89574 -0.244 0
M  V30 4113 H 401.269 2.38348 -0.977133 0
M  V30 4114 H 401.227 3.08566 0.602836 0
M  V30 4115 N 404.999 1.35443 0.805782 0
M  V30 4116 C 406.246 1.28761 1.56291 0
M  V30 4117 C 406.574 -0.137747 1.94012 0
M  V30 4118 O 405.829 -1.1032 1.61642 0
M  V30 4119 C 406.128 2.14045 2.86216 0
M  V30 4120 C 405.794 3.62826 2.67709 0
M  V30 4121 C 404.456 4.0338 2.6237 0
M  V30 4122 C 406.808 4.57227 2.50186 0
M  V30 4123 C 404.136 5.36501 2.37451 0
M  V30 4124 C 406.488 5.90547 2.26797 0
M  V30 4125 C 405.152 6.30245 2.1988 0
M  V30 4126 H 404.422 0.471171 0.571908 0
M  V30 4127 H 407.069 1.67347 0.930974 0
M  V30 4128 H 405.374 1.68342 3.53791 0
M  V30 4129 H 407.071 2.0621 3.43917 0
M  V30 4130 H 403.661 3.30644 2.72713 0
M  V30 4131 H 407.845 4.2678 2.53323 0
M  V30 4132 H 403.101 5.66259 2.30567 0
M  V30 4133 H 407.275 6.63274 2.12228 0
M  V30 4134 H 404.902 7.33328 2.00333 0
M  V30 4135 N 406.477 -1.02803 1.19454 0
M  V30 4136 C 407.893 -1.28473 0.946937 0
M  V30 4137 C 408.093 -1.97881 -0.380202 0
M  V30 4138 O 407.149 -2.26719 -1.11151 0
M  V30 4139 C 408.462 -2.13099 2.12154 0
M  V30 4140 C 410.01 -2.26404 2.16126 0
M  V30 4141 C 410.485 -3.14402 3.33039 0
M  V30 4142 N 411.976 -3.21991 3.32981 0
M  V30 4143 C 412.711 -3.90272 4.20089 0
M  V30 4144 N 412.207 -4.60777 5.17355 0
M  V30 4145 N 414 -3.8668 4.07964 0
M  V30 4146 H 406.151 -0.561665 2.04839 0
M  V30 4147 H 408.414 -0.310438 0.89573 0
M  V30 4148 H 408.12 -1.69422 3.08203 0
M  V30 4149 H 407.994 -3.13813 2.09287 0
M  V30 4150 H 410.381 -2.69311 1.20647 0
M  V30 4151 H 410.462 -1.25237 2.23045 0
M  V30 4152 H 410.106 -2.72204 4.28798 0
M  V30 4153 H 410.036 -4.1563 3.23356 0
M  V30 4154 H 412.527 -2.71778 2.62574 0
M  V30 4155 H 412.84 -5.10513 5.80169 0
M  V30 4156 H 411.185 -4.5964 5.21302 0
M  V30 4157 H 414.376 -3.30739 3.31254 0
M  V30 4158 H 414.549 -4.39621 4.76064 0
M  V30 4159 N 407.956 -0.998596 -1.21925 0
M  V30 4160 C 409.184 -0.696286 -1.94832 0
M  V30 4161 C 409.599 0.740032 -1.73692 0
M  V30 4162 O 408.956 1.5 -1.03953 0
M  V30 4163 C 409.007 -0.999833 -3.47398 0
M  V30 4164 O 408.728 -2.37972 -3.67833 0
M  V30 4165 C 410.229 -0.716025 -4.37479 0
M  V30 4166 H 407.449 -0.257111 -0.619786 0
M  V30 4167 H 409.993 -1.33491 -1.54921 0
M  V30 4168 H 408.148 -0.406918 -3.85257 0
M  V30 4169 H 408.562 -2.48338 -4.61983 0
M  V30 4170 H 410.036 -0.978642 -5.43256 0
M  V30 4171 H 410.513 0.349968 -4.37803 0
M  V30 4172 H 411.119 -1.29025 -4.05256 0
M  V30 4173 N 409.434 1.37368 -0.772513 0
M  V30 4174 C 410.662 2.03942 -0.348588 0
M  V30 4175 C 411.077 1.58264 1.02947 0
M  V30 4176 O 410.434 0.764246 1.65727 0
M  V30 4177 C 410.485 3.5946 -0.38351 0
M  V30 4178 O 410.206 4.03468 -1.70721 0
M  V30 4179 C 411.707 4.4327 0.0519152 0
M  V30 4180 H 408.927 0.654931 -0.145966 0
M  V30 4181 H 411.471 1.75686 -1.04665 0
M  V30 4182 H 409.626 3.86486 0.265978 0
M  V30 4183 H 410.04 4.97991 -1.64636 0
M  V30 4184 H 411.514 5.51995 -0.0236733 0
M  V30 4185 H 411.991 4.2514 1.10238 0
M  V30 4186 H 412.597 4.21471 -0.569415 0
M  V30 4187 N 410.912 0.523116 1.48665 0
M  V30 4188 C 411.862 -0.263106 2.26477 0
M  V30 4189 C 412.846 -0.916005 1.32281 0
M  V30 4190 O 414.038 -0.819946 1.56863 0
M  V30 4191 C 411.167 -1.31361 3.17174 0
M  V30 4192 C 410.253 -0.665849 4.1884 0
M  V30 4193 N 410.644 0.244434 5.05209 0
M  V30 4194 C 408.942 -0.923863 4.36326 0
M  V30 4195 C 409.643 0.617443 5.78414 0
M  V30 4196 N 408.619 -0.0198686 5.43596 0
M  V30 4197 H 412.421 0.437295 2.90629 0
M  V30 4198 H 409.935 0.340675 1.58787 0
M  V30 4199 H 411.932 -1.89052 3.71571 0
M  V30 4200 H 410.592 -2.01546 2.54576 0
M  V30 4201 H 411.603 0.616621 5.14216 0
M  V30 4202 H 408.28 -1.6168 3.84923 0
M  V30 4203 H 409.67 1.36346 6.57921 0
M  V30 4204 N 412.39 -1.55475 0.257931 0
M  V30 4205 C 413.353 -2.20551 -0.623706 0
M  V30 4206 C 414.353 -1.17809 -1.09443 0
M  V30 4207 O 415.543 -1.42823 -0.997362 0
M  V30 4208 C 412.675 -2.85784 -1.8585 0
M  V30 4209 H 413.868 -2.99848 -0.0557743 0
M  V30 4210 H 411.421 -1.56298 0.0084422 0
M  V30 4211 H 412.156 -2.10453 -2.46739 0
M  V30 4212 H 411.941 -3.61057 -1.52907 0
M  V30 4213 H 413.431 -3.35553 -2.48584 0
M  V30 4214 N 413.868 0.0150385 -1.57593 0
M  V30 4215 C 415.284 0.370907 -1.5523 0
M  V30 4216 C 415.484 1.75735 -0.985882 0
M  V30 4217 O 414.54 2.44944 -0.613077 0
M  V30 4218 C 415.853 0.259908 -2.99575 0
M  V30 4219 C 417.401 0.335959 -3.11192 0
M  V30 4220 C 417.876 0.254253 -4.57294 0
M  V30 4221 N 419.367 0.312618 -4.62144 0
M  V30 4222 C 420.102 0.272505 -5.72752 0
M  V30 4223 N 419.598 0.183864 -6.92556 0
M  V30 4224 N 421.391 0.323267 -5.6117 0
M  V30 4225 H 413.542 -0.892104 -1.92757 0
M  V30 4226 H 415.805 -0.340563 -0.884715 0
M  V30 4227 H 415.511 -0.693403 -3.44797 0
M  V30 4228 H 415.385 1.048 -3.62349 0
M  V30 4229 H 417.772 1.27971 -2.65909 0
M  V30 4230 H 417.853 -0.481739 -2.51223 0
M  V30 4231 H 417.497 -0.685887 -5.03247 0
M  V30 4232 H 417.427 1.09024 -5.15191 0
M  V30 4233 H 419.918 0.38307 -3.75953 0
M  V30 4234 H 420.231 0.15874 -7.72637 0
M  V30 4235 H 418.576 0.149708 -6.94839 0
M  V30 4236 H 421.767 0.390607 -4.66467 0
M  V30 4237 H 421.94 0.288539 -6.47357 0
M  V30 4238 N 415.346 1.54954 0.287554 0
M  V30 4239 C 416.574 1.78881 1.03967 0
M  V30 4240 C 416.989 0.554894 1.80462 0
M  V30 4241 O 416.346 -0.475676 1.76192 0
M  V30 4242 C 416.397 3.00488 2.0097 0
M  V30 4243 O 416.118 4.19113 1.27577 0
M  V30 4244 C 417.619 3.36907 2.88112 0
M  V30 4245 H 414.839 0.596259 0.307761 0
M  V30 4246 H 417.383 2.01937 0.322749 0
M  V30 4247 H 415.538 2.79601 2.68145 0
M  V30 4248 H 415.952 4.87765 1.92835 0
M  V30 4249 H 417.426 4.25205 3.52001 0
M  V30 4250 H 417.903 2.55659 3.57121 0
M  V30 4251 H 418.509 3.60001 2.26449 0
M  V30 4252 N 416.824 -0.551391 1.4764 0
M  V30 4253 C 418.235 -1.13349 1.48354 0
M  V30 4254 C 418.586 -1.94709 0.241432 0
M  V30 4255 O 417.711 -2.06306 -0.653205 0
M  V30 4256 C 418.306 -2.0623 2.68802 0
M  V30 4257 C 416.865 -2.597 2.72457 0
M  V30 4258 C 416.012 -1.36201 2.41546 0
M  V30 4259 H 418.963 -0.337698 1.55065 0
M  V30 4260 H 418.984 -2.90196 2.46103 0
M  V30 4261 H 418.496 -1.46987 3.59188 0
M  V30 4262 H 416.597 -3.22724 1.86225 0
M  V30 4263 H 416.71 -3.00296 3.73308 0
M  V30 4264 H 415.074 -1.67068 1.9225 0
M  V30 4265 H 415.857 -0.787425 3.34147 0
M  V30 4266 N 418.302 -1.35869 -0.798587 0
M  V30 4267 C 419.549 -1.29588 -1.55606 0
M  V30 4268 C 419.877 0.127456 -1.94082 0
M  V30 4269 O 419.132 1.09461 -1.62225 0
M  V30 4270 C 419.431 -2.1556 -2.85077 0
M  V30 4271 C 419.097 -3.6424 -2.65781 0
M  V30 4272 C 417.759 -4.04766 -2.60227 0
M  V30 4273 C 420.111 -4.58547 -2.47758 0
M  V30 4274 C 417.439 -5.37753 -2.34603 0
M  V30 4275 C 419.791 -5.91742 -2.23662 0
M  V30 4276 C 418.455 -6.31402 -2.16534 0
M  V30 4277 H 417.725 -0.474197 -0.569402 0
M  V30 4278 H 420.372 -1.67839 -0.922086 0
M  V30 4279 H 418.677 -1.70216 -3.52893 0
M  V30 4280 H 420.374 -2.08031 -3.42818 0
M  V30 4281 H 416.964 -3.32086 -2.70956 0
M  V30 4282 H 421.148 -4.28117 -2.51056 0
M  V30 4283 H 416.404 -5.67474 -2.2756 0
M  V30 4284 H 420.578 -6.6439 -2.08708 0
M  V30 4285 H 418.205 -7.34381 -1.96441 0
M  V30 4286 N 419.78 1.02168 -1.19998 0
M  V30 4287 C 421.005 1.79833 -1.03319 0
M  V30 4288 C 421.43 1.83504 0.413281 0
M  V30 4289 O 420.788 1.26635 1.29743 0
M  V30 4290 C 420.836 3.22396 -1.61533 0
M  V30 4291 O 419.94 4.03555 -0.849519 0
M  V30 4292 H 419.281 0.554872 -0.364709 0
M  V30 4293 H 421.811 1.28542 -1.59179 0
M  V30 4294 H 421.821 3.73124 -1.65054 0
M  V30 4295 H 420.496 3.19039 -2.66809 0
M  V30 4296 H 419.073 3.62169 -0.888129 0
M  V30 4297 N 421.258 1.00505 1.21394 0
M  V30 4298 C 422.669 0.721082 1.72213 0
M  V30 4299 C 423.02 -0.761263 1.80829 0
M  V30 4300 O 422.145 -1.59464 1.46288 0
M  V30 4301 C 422.74 1.30228 3.12772 0
M  V30 4302 C 421.299 1.06743 3.60947 0
M  V30 4303 C 420.446 1.41507 2.38477 0
M  V30 4304 H 423.397 1.17594 1.06571 0
M  V30 4305 H 423.418 0.686955 3.74247 0
M  V30 4306 H 422.93 2.38115 3.06468 0
M  V30 4307 H 421.031 0.00572162 3.726 0
M  V30 4308 H 421.144 1.73936 4.46411 0
M  V30 4309 H 419.508 0.833852 2.40664 0
M  V30 4310 H 420.291 2.50424 2.34824 0
M  V30 4311 N 422.737 -1.36956 0.779787 0
M  V30 4312 C 424.153 -1.52817 0.460342 0
M  V30 4313 C 424.353 -1.7361 -1.02283 0
M  V30 4314 O 423.409 -1.76207 -1.80852 0
M  V30 4315 C 424.722 -2.71983 1.28241 0
M  V30 4316 C 426.27 -2.85849 1.27512 0
M  V30 4317 C 426.745 -4.08008 2.08072 0
M  V30 4318 N 428.236 -4.15135 2.05467 0
M  V30 4319 C 428.971 -5.08711 2.64577 0
M  V30 4320 N 428.467 -6.07792 3.32506 0
M  V30 4321 N 430.26 -5.01254 2.54363 0
M  V30 4322 H 422.411 -1.21713 1.74068 0
M  V30 4323 H 424.674 -0.593294 0.739396 0
M  V30 4324 H 424.38 -2.63109 2.33381 0
M  V30 4325 H 424.254 -3.65882 0.917088 0
M  V30 4326 H 426.641 -2.94189 0.231686 0
M  V30 4327 H 426.722 -1.92886 1.68014 0
M  V30 4328 H 426.366 -4.00429 3.12441 0
M  V30 4329 H 426.296 -5.001 1.64947 0
M  V30 4330 H 428.787 -3.44189 1.5602 0
M  V30 4331 H 429.1 -6.75739 3.74963 0
M  V30 4332 H 427.445 -6.08047 3.36606 0
M  V30 4333 H 430.636 -4.22795 2.00902 0
M  V30 4334 H 430.809 -5.73995 3.00722 0
M  V30 4335 N 424.215 -0.530993 -1.48385 0
M  V30 4336 C 425.461 -0.00538653 -2.03399 0
M  V30 4337 C 425.816 1.31899 -1.40073 0
M  V30 4338 O 425.109 1.83901 -0.537676 0
M  V30 4339 C 425.303 0.172742 -3.56982 0
M  V30 4340 C 425.132 -1.13282 -4.35198 0
M  V30 4341 C 423.902 -1.69296 -4.76096 0
M  V30 4342 C 426.1 -2.04367 -4.71952 0
M  V30 4343 N 424.082 -2.9413 -5.38851 0
M  V30 4344 C 425.453 -3.13777 -5.34737 0
M  V30 4345 C 427.508 -2.04681 -4.53883 0
M  V30 4346 C 426.211 -4.23567 -5.81363 0
M  V30 4347 C 428.237 -3.13466 -5.01491 0
M  V30 4348 C 427.599 -4.21595 -5.64302 0
M  V30 4349 H 423.698 -0.0434945 -0.780789 0
M  V30 4350 H 426.282 -0.712495 -1.81195 0
M  V30 4351 H 424.453 0.848937 -3.79009 0
M  V30 4352 H 426.185 0.698046 -3.98634 0
M  V30 4353 H 422.94 -1.23422 -4.57235 0
M  V30 4354 H 423.364 -3.57689 -5.74794 0
M  V30 4355 H 428.006 -1.22378 -4.04702 0
M  V30 4356 H 425.724 -5.06648 -6.2955 0
M  V30 4357 H 429.31 -3.14765 -4.893 0
M  V30 4358 H 428.19 -5.04384 -6.00472 0
M  V30 4359 N 425.693 1.55336 -0.266172 0
M  V30 4360 C 426.97 1.91372 0.404486 0
M  V30 4361 C 427.35 1.18935 1.74407 0
M  V30 4362 O 426.698 0.3132 2.26343 0
M  V30 4363 C 426.908 3.44581 0.553593 0
M  V30 4364 C 428.256 4.16196 0.840618 0
M  V30 4365 O 429.28 3.50426 0.638739 0
M  V30 4366 O 428.139 5.32567 1.22618 0
M  V30 4367 H 425.233 0.797194 0.220025 0
M  V30 4368 H 427.779 1.66813 -0.311664 0
M  V30 4369 H 426.551 3.89357 -0.389498 0
M  V30 4370 H 426.174 3.75065 1.31955 0
M  V30 4371 N 427.171 -0.0066808 1.57599 0
M  V30 4372 C 428.419 -0.691552 1.899 0
M  V30 4373 C 428.74 -1.74682 0.866672 0
M  V30 4374 O 428.01 -1.95661 -0.0968189 0
M  V30 4375 H 426.59 -0.258416 0.700878 0
M  V30 4376 H 429.252 0.0326655 1.94873 0
M  V30 4377 H 428.348 -1.16702 2.8946 0
M  V30 4378 N 428.649 -1.55105 -0.279332 0
M  V30 4379 C 429.596 -1.8755 -1.34513 0
M  V30 4380 C 430.566 -0.726384 -1.49375 0
M  V30 4381 O 431.751 -0.977063 -1.63884 0
M  V30 4382 C 428.891 -2.14738 -2.70151 0
M  V30 4383 C 428.004 -3.42285 -2.63562 0
M  V30 4384 C 427.139 -3.59206 -3.91337 0
M  V30 4385 C 426.178 -4.80467 -3.79233 0
M  V30 4386 N 425.315 -4.94079 -4.98829 0
M  V30 4387 H 430.155 -2.78456 -1.06143 0
M  V30 4388 H 427.692 -1.37867 -0.512936 0
M  V30 4389 H 429.65 -2.28501 -3.49061 0
M  V30 4390 H 428.28 -1.27075 -2.96735 0
M  V30 4391 H 427.332 -3.37029 -1.76397 0
M  V30 4392 H 428.644 -4.31328 -2.50515 0
M  V30 4393 H 427.798 -3.72751 -4.78687 0
M  V30 4394 H 426.537 -2.68337 -4.07243 0
M  V30 4395 H 425.542 -4.66932 -2.90266 0
M  V30 4396 H 426.767 -5.72765 -3.64852 0
M  V30 4397 H 424.713 -4.06139 -5.15158 0
M  V30 4398 H 424.63 -5.77156 -4.8829 0
M  V30 4399 H 425.898 -5.12003 -5.8777 0
M  V30 4400 N 430.127 0.543554 -1.4793 0
M  V30 4401 C 431.404 1.30458 -1.4574 0
M  V30 4402 C 431.784 2.1048 -0.161692 0
M  V30 4403 O 431.132 2.11831 0.856734 0
M  V30 4404 C 431.342 2.19754 -2.71126 0
M  V30 4405 C 432.69 2.80334 -3.18901 0
M  V30 4406 O 433.714 2.30049 -2.71948 0
M  V30 4407 O 432.573 3.71766 -4.00565 0
M  V30 4408 H 429.667 0.588117 -0.581418 0
M  V30 4409 H 432.213 0.561328 -1.60147 0
M  V30 4410 H 430.985 1.60316 -3.56952 0
M  V30 4411 H 430.608 3.01351 -2.59371 0
M  V30 4412 N 431.605 1.3629 0.791371 0
M  V30 4413 C 433.021 1.16661 1.08914 0
M  V30 4414 C 433.221 -0.0106266 2.01497 0
M  V30 4415 O 432.277 -0.676596 2.43266 0
M  V30 4416 C 433.59 2.47656 1.70549 0
M  V30 4417 C 435.138 2.54002 1.82899 0
M  V30 4418 C 435.613 3.85078 2.47949 0
M  V30 4419 N 437.104 3.86413 2.5542 0
M  V30 4420 C 437.839 4.84572 3.06557 0
M  V30 4421 N 437.335 5.93124 3.58016 0
M  V30 4422 N 439.128 4.71994 3.05251 0
M  V30 4423 H 431.279 2.11668 0.176238 0
M  V30 4424 H 433.542 0.937486 0.140796 0
M  V30 4425 H 433.248 3.34059 1.09989 0
M  V30 4426 H 433.122 2.63319 2.70079 0
M  V30 4427 H 435.509 1.68018 2.42598 0
M  V30 4428 H 435.59 2.42239 0.821808 0
M  V30 4429 H 435.234 4.71467 1.88895 0
M  V30 4430 H 435.164 3.94135 3.49235 0
M  V30 4431 H 437.655 3.07988 2.18979 0
M  V30 4432 H 437.968 6.63999 3.95381 0
M  V30 4433 H 436.313 5.96796 3.56173 0
M  V30 4434 H 439.504 3.86321 2.64336 0
M  V30 4435 H 439.677 5.48653 3.44796 0
M  V30 4436 N 433.083 -1.0153 1.20538 0
M  V30 4437 C 434.329 -1.75517 1.02787 0
M  V30 4438 C 434.684 -1.87411 -0.435289 0
M  V30 4439 O 433.977 -1.38982 -1.31889 0
M  V30 4440 C 434.171 -3.17213 1.64654 0
M  V30 4441 C 434 -3.19134 3.16834 0
M  V30 4442 C 432.77 -3.26301 3.85818 0
M  V30 4443 C 434.968 -3.05077 4.14044 0
M  V30 4444 N 432.95 -3.17739 5.25276 0
M  V30 4445 C 434.321 -3.04299 5.40187 0
M  V30 4446 C 436.376 -2.89303 4.05226 0
M  V30 4447 C 435.079 -2.89365 6.58529 0
M  V30 4448 C 437.105 -2.75723 5.23193 0
M  V30 4449 C 436.467 -2.75612 6.48242 0
M  V30 4450 H 432.566 -0.652919 0.430373 0
M  V30 4451 H 435.15 -1.20755 1.52729 0
M  V30 4452 H 433.321 -3.70266 1.17294 0
M  V30 4453 H 435.053 -3.79637 1.40208 0
M  V30 4454 H 431.808 -3.33078 3.36684 0
M  V30 4455 H 432.232 -3.16829 5.98288 0
M  V30 4456 H 436.874 -2.88201 3.09354 0
M  V30 4457 H 434.592 -2.89216 7.54573 0
M  V30 4458 H 438.178 -2.64533 5.18183 0
M  V30 4459 H 437.058 -2.65224 7.37988 0
M  V30 4460 N 434.561 -1.01147 -1.20859 0
M  V30 4461 C 435.491 -0.597663 -2.25722 0
M  V30 4462 C 436.472 0.384744 -1.65692 0
M  V30 4463 O 437.657 0.271303 -1.92296 0
M  V30 4464 C 434.787 0.0700149 -3.47229 0
M  V30 4465 C 433.741 -0.832843 -4.19819 0
M  V30 4466 C 433.067 -0.0312202 -5.34691 0
M  V30 4467 C 434.367 -2.1385 -4.76514 0
M  V30 4468 H 436.061 -1.47423 -2.60589 0
M  V30 4469 H 433.607 -0.710301 -1.25263 0
M  V30 4470 H 435.56 0.37103 -4.19763 0
M  V30 4471 H 434.284 0.981259 -3.11511 0
M  V30 4472 H 432.943 -1.11778 -3.49144 0
M  V30 4473 H 432.591 0.881515 -4.95215 0
M  V30 4474 H 432.291 -0.632434 -5.84187 0
M  V30 4475 H 433.815 0.26346 -6.10031 0
M  V30 4476 H 435.229 -1.9002 -5.40893 0
M  V30 4477 H 433.626 -2.69012 -5.36426 0
M  V30 4478 H 434.696 -2.80495 -3.95538 0
M  V30 4479 N 436.039 1.36541 -0.78704 0
M  V30 4480 C 436.989 2.27459 -0.156957 0
M  V30 4481 C 437.973 1.46843 0.657709 0
M  V30 4482 O 439.165 1.69245 0.518173 0
M  V30 4483 C 436.294 3.35893 0.709278 0
M  V30 4484 C 435.38 4.23947 -0.114049 0
M  V30 4485 N 435.771 4.92145 -1.16736 0
M  V30 4486 C 434.069 4.4587 0.107497 0
M  V30 4487 C 434.77 5.57261 -1.66837 0
M  V30 4488 N 433.746 5.3473 -0.977992 0
M  V30 4489 H 437.548 2.77669 -0.963185 0
M  V30 4490 H 435.062 1.49839 -0.62627 0
M  V30 4491 H 437.059 3.99953 1.17656 0
M  V30 4492 H 435.719 2.87238 1.51408 0
M  V30 4493 H 436.73 4.94169 -1.54976 0
M  V30 4494 H 433.407 4.08056 0.882994 0
M  V30 4495 H 434.797 6.21728 -2.54762 0
M  V30 4496 N 437.518 0.538854 1.48102 0
M  V30 4497 C 438.934 0.19732 1.58376 0
M  V30 4498 C 439.134 -1.29971 1.5398 0
M  V30 4499 O 438.19 -2.07861 1.43352 0
M  V30 4500 C 439.503 0.807716 2.89649 0
M  V30 4501 C 441.051 0.77726 3.03196 0
M  V30 4502 C 441.526 1.36639 4.37143 0
M  V30 4503 N 443.017 1.32875 4.43732 0
M  V30 4504 C 443.752 1.7544 5.45901 0
M  V30 4505 N 443.248 2.25776 6.54979 0
M  V30 4506 N 445.041 1.66623 5.36836 0
M  V30 4507 H 437.192 1.5117 1.49202 0
M  V30 4508 H 439.455 0.629327 0.708979 0
M  V30 4509 H 439.161 1.85909 2.98548 0
M  V30 4510 H 439.035 0.289975 3.76084 0
M  V30 4511 H 441.422 -0.265374 2.93904 0
M  V30 4512 H 441.503 1.33256 2.18349 0
M  V30 4513 H 441.147 2.408 4.47189 0
M  V30 4514 H 441.077 0.786689 5.20691 0
M  V30 4515 H 443.568 0.96037 3.65493 0
M  V30 4516 H 443.881 2.56226 7.29087 0
M  V30 4517 H 442.226 2.29775 6.55918 0
M  V30 4518 H 445.417 1.27089 4.50517 0
M  V30 4519 H 445.59 2.00115 6.16326 0
M  V30 4520 N 438.996 -1.55193 0.274407 0
M  V30 4521 C 440.242 -1.99877 -0.343086 0
M  V30 4522 C 440.575 -1.16256 -1.55558 0
M  V30 4523 O 439.85 -0.232462 -1.93106 0
M  V30 4524 C 440.133 -3.52706 -0.725965 0
M  V30 4525 C 439.986 -4.47081 0.493818 0
M  V30 4526 C 441.305 -4.11422 -1.56268 0
M  V30 4527 H 438.424 -0.726625 -0.123229 0
M  V30 4528 H 441.066 -1.86136 0.38121 0
M  V30 4529 H 439.216 -3.64546 -1.34307 0
M  V30 4530 H 440.888 -4.47186 1.13237 0
M  V30 4531 H 439.131 -4.1877 1.13201 0
M  V30 4532 H 439.802 -5.51699 0.18217 0
M  V30 4533 H 442.278 -4.02855 -1.04151 0
M  V30 4534 H 441.154 -5.18568 -1.79939 0
M  V30 4535 H 441.415 -3.61607 -2.54348 0
M  V30 4536 N 440.474 -0.00167713 -1.576 0
M  V30 4537 C 441.704 0.692754 -1.94639 0
M  V30 4538 C 442.112 1.67744 -0.87513 0
M  V30 4539 O 441.455 1.8305 0.154382 0
M  V30 4540 C 441.517 1.47881 -3.27676 0
M  V30 4541 C 441.181 0.655518 -4.52274 0
M  V30 4542 C 442.178 -0.0575214 -5.19868 0
M  V30 4543 C 439.863 0.600994 -4.98692 0
M  V30 4544 C 441.857 -0.814052 -6.3218 0
M  V30 4545 C 439.544 -0.15926 -6.10892 0
M  V30 4546 C 440.542 -0.865515 -6.77494 0
M  V30 4547 O 440.23 -1.61336 -7.87544 0
M  V30 4548 H 439.962 0.197792 -0.646417 0
M  V30 4549 H 442.516 -0.049423 -2.05341 0
M  V30 4550 H 440.746 2.2655 -3.13388 0
M  V30 4551 H 442.435 2.05874 -3.49816 0
M  V30 4552 H 443.201 -0.0245611 -4.84994 0
M  V30 4553 H 439.08 1.14025 -4.46676 0
M  V30 4554 H 442.624 -1.36584 -6.84098 0
M  V30 4555 H 438.521 -0.194035 -6.45208 0
M  V30 4556 H 439.289 -1.53025 -8.04068 0
M  V30 4557 N 441.952 1.55251 0.271103 0
M  V30 4558 C 443.201 1.75151 1.00025 0
M  V30 4559 C 443.514 0.561041 1.87381 0
M  V30 4560 O 444.72 0.642506 2.63788 0
M  V30 4561 C 443.176 3.09999 1.82835 0
M  V30 4562 C 442.784 4.3662 1.00336 0
M  V30 4563 C 444.528 3.39249 2.55168 0
M  V30 4564 C 442.435 5.62506 1.82595 0
M  V30 4565 H 441.365 0.652877 0.377183 0
M  V30 4566 H 444.016 1.81708 0.255843 0
M  V30 4567 H 442.398 2.97485 2.61378 0
M  V30 4568 H 443.572 4.60055 0.261959 0
M  V30 4569 H 441.887 4.14527 0.394486 0
M  V30 4570 H 444.484 4.3051 3.1712 0
M  V30 4571 H 444.827 2.59467 3.2555 0
M  V30 4572 H 445.36 3.52869 1.83653 0
M  V30 4573 H 442.099 6.45041 1.16631 0
M  V30 4574 H 441.619 5.43211 2.54327 0
M  V30 4575 H 443.298 6.00875 2.39913 0
M  V30 4576 N 443.43 -0.535701 1.48216 0
M  V30 4577 C 444.846 -0.863701 1.3421 0
M  V30 4578 C 445.046 -1.98458 0.34879 0
M  V30 4579 O 444.102 -2.51432 -0.23204 0
M  V30 4580 C 445.415 -1.23662 2.74095 0
M  V30 4581 C 446.963 -1.34683 2.82541 0
M  V30 4582 C 447.438 -1.75322 4.23115 0
M  V30 4583 N 448.929 -1.82434 4.2576 0
M  V30 4584 C 449.664 -2.15252 5.31464 0
M  V30 4585 N 449.16 -2.46533 6.47452 0
M  V30 4586 N 450.953 -2.16209 5.18855 0
M  V30 4587 H 443.104 0.203965 2.11418 0
M  V30 4588 H 445.367 0.0286033 0.947568 0
M  V30 4589 H 445.073 -0.486674 3.48316 0
M  V30 4590 H 444.947 -2.18805 3.07253 0
M  V30 4591 H 447.334 -2.08756 2.08579 0
M  V30 4592 H 447.415 -0.376756 2.5301 0
M  V30 4593 H 447.059 -1.01812 4.97591 0
M  V30 4594 H 446.989 -2.7337 4.50085 0
M  V30 4595 H 449.48 -1.6056 3.42095 0
M  V30 4596 H 449.793 -2.70662 7.23852 0
M  V30 4597 H 448.138 -2.44065 6.50736 0
M  V30 4598 H 451.329 -1.91224 4.2726 0
M  V30 4599 H 451.502 -2.41453 6.01335 0
M  V30 4600 N 444.908 -1.36708 -0.784132 0
M  V30 4601 C 446.136 -1.34398 -1.57305 0
M  V30 4602 C 446.551 0.0735577 -1.88657 0
M  V30 4603 O 445.908 1.03193 -1.50524 0
M  V30 4604 C 445.959 -2.17053 -2.89085 0
M  V30 4605 O 445.68 -3.53281 -2.59083 0
M  V30 4606 C 447.181 -2.22583 -3.83369 0
M  V30 4607 H 444.401 -0.460819 -0.487736 0
M  V30 4608 H 446.945 -1.79879 -0.972819 0
M  V30 4609 H 445.1 -1.75113 -3.45564 0
M  V30 4610 H 445.514 -3.9647 -3.43383 0
M  V30 4611 H 446.988 -2.84763 -4.72878 0
M  V30 4612 H 447.465 -1.23075 -4.21603 0
M  V30 4613 H 448.071 -2.64781 -3.32823 0
M  V30 4614 N 446.386 1.0089 -1.21074 0
M  V30 4615 C 447.663 1.71834 -0.934469 0
M  V30 4616 C 448.043 2.0368 0.554753 0
M  V30 4617 O 447.391 1.70742 1.51854 0
M  V30 4618 C 447.601 2.98061 -1.8155 0
M  V30 4619 C 448.949 3.7117 -2.06199 0
M  V30 4620 O 449.973 3.08034 -1.78867 0
M  V30 4621 O 448.832 4.84721 -2.52404 0
M  V30 4622 H 445.926 0.749253 -0.35007 0
M  V30 4623 H 448.472 1.06668 -1.31985 0
M  V30 4624 H 447.244 2.70908 -2.82355 0
M  V30 4625 H 446.867 3.70968 -1.43068 0
M  V30 4626 N 447.864 1.01787 1.20321 0
M  V30 4627 C 449.28 0.732951 1.41774 0
M  V30 4628 C 449.48 -0.686883 1.89431 0
M  V30 4629 O 448.536 -1.45446 2.06402 0
M  V30 4630 C 449.849 1.75973 2.43832 0
M  V30 4631 C 451.397 1.77802 2.57596 0
M  V30 4632 C 451.872 2.7941 3.62897 0
M  V30 4633 N 453.363 2.78157 3.70382 0
M  V30 4634 C 454.098 3.53434 4.51521 0
M  V30 4635 N 453.594 4.38392 5.36455 0
M  V30 4636 N 455.387 3.42026 4.46066 0
M  V30 4637 H 447.538 1.93447 0.877035 0
M  V30 4638 H 449.801 0.835712 0.447536 0
M  V30 4639 H 449.507 2.77699 2.15815 0
M  V30 4640 H 449.381 1.57292 3.4284 0
M  V30 4641 H 451.768 0.767602 2.84942 0
M  V30 4642 H 451.849 2.00557 1.58779 0
M  V30 4643 H 451.493 3.80616 3.36295 0
M  V30 4644 H 451.423 2.53916 4.61339 0
M  V30 4645 H 453.914 2.16531 3.09714 0
M  V30 4646 H 454.227 4.92596 5.95457 0
M  V30 4647 H 452.572 4.4247 5.35953 0
M  V30 4648 H 455.763 2.75075 3.78749 0
M  V30 4649 H 455.936 4.00946 5.09064 0
M  V30 4650 N 449.342 -1.36122 0.79427 0
M  V30 4651 C 450.29 -2.31871 0.184023 0
M  V30 4652 C 451.284 -1.56041 -0.659365 0
M  V30 4653 O 452.49 -1.71266 -0.553906 0
M  V30 4654 H 448.865 -0.750896 0.0407373 0
M  V30 4655 H 450.836 -2.80898 1.00693 0
M  V30 4656 C 449.585 -3.41324 -0.662813 0
M  V30 4657 H 448.908 -3.99793 -0.0231944 0
M  V30 4658 H 450.348 -4.10629 -1.05639 0
M  V30 4659 C 448.807 -2.83308 -1.82313 0
M  V30 4660 O 449.337 -2.75863 -2.91997 0
M  V30 4661 N 447.543 -2.40529 -1.63077 0
M  V30 4662 H 447.09 -2.46785 -0.738591 0
M  V30 4663 H 447.048 -2.02059 -2.40872 0
M  V30 4664 N 450.82 -0.546701 -1.47814 0
M  V30 4665 C 452.068 -0.0187037 -2.02091 0
M  V30 4666 C 452.389 1.33168 -1.42447 0
M  V30 4667 O 451.659 1.86619 -0.595839 0
M  V30 4668 H 450.239 -0.00392531 -0.74699 0
M  V30 4669 H 452.901 -0.714327 -1.81338 0
M  V30 4670 H 451.997 0.0772219 -3.12004 0
M  V30 4671 N 452.299 1.55045 -0.282633 0
M  V30 4672 C 453.231 2.2023 0.634924 0
M  V30 4673 C 454.244 1.18931 1.11172 0
M  V30 4674 O 455.433 1.4562 1.03233 0
M  V30 4675 C 452.533 2.82041 1.87899 0
M  V30 4676 C 451.706 4.091 1.54776 0
M  V30 4677 C 450.765 4.54887 2.64507 0
M  V30 4678 O 449.791 5.20496 2.30375 0
M  V30 4679 N 450.993 4.25659 3.94709 0
M  V30 4680 H 453.758 2.99601 0.0769811 0
M  V30 4681 H 451.319 1.61565 -0.104048 0
M  V30 4682 H 453.311 3.09613 2.60619 0
M  V30 4683 H 451.881 2.06618 2.3458 0
M  V30 4684 H 451.101 3.88736 0.654049 0
M  V30 4685 H 452.389 4.9187 1.30158 0
M  V30 4686 H 451.787 3.7306 4.25256 0
M  V30 4687 H 450.344 4.57984 4.63782 0
M  V30 4688 N 453.777 0.010035 1.57597 0
M  V30 4689 C 454.707 -0.976857 2.12084 0
M  V30 4690 C 455.688 -1.35191 1.03235 0
M  V30 4691 O 456.873 -1.43389 1.3097 0
M  V30 4692 C 454.003 -2.26548 2.63236 0
M  V30 4693 C 452.957 -2.03175 3.76701 0
M  V30 4694 C 452.283 -3.38138 4.14206 0
M  V30 4695 C 453.583 -1.38625 5.03568 0
M  V30 4696 H 455.277 -0.523145 2.94794 0
M  V30 4697 H 452.823 -0.250195 1.4181 0
M  V30 4698 H 454.776 -2.95952 2.99984 0
M  V30 4699 H 453.5 -2.74051 1.77661 0
M  V30 4700 H 452.159 -1.36195 3.40362 0
M  V30 4701 H 451.807 -3.83363 3.25641 0
M  V30 4702 H 451.507 -3.23312 4.90656 0
M  V30 4703 H 453.031 -4.08841 4.53521 0
M  V30 4704 H 454.445 -1.98 5.38023 0
M  V30 4705 H 452.842 -1.34256 5.84889 0
M  V30 4706 H 453.912 -0.356722 4.83586 0
M  V30 4707 N 455.255 -1.55392 -0.262866 0
M  V30 4708 C 456.48 -1.80847 -1.01533 0
M  V30 4709 C 456.905 -0.584946 -1.78774 0
M  V30 4710 O 456.263 0.465701 -1.75217 0
M  V30 4711 C 456.311 -3.03866 -1.94159 0
M  V30 4712 O 455.415 -2.79662 -3.03089 0
M  V30 4713 H 454.756 -0.597441 -0.289759 0
M  V30 4714 H 457.286 -2.02553 -0.288698 0
M  V30 4715 H 457.296 -3.32872 -2.35924 0
M  V30 4716 H 455.971 -3.92564 -1.37354 0
M  V30 4717 H 454.548 -2.61781 -2.65566 0
M  V30 4718 N 456.733 0.527833 -1.48498 0
M  V30 4719 C 457.981 1.28101 -1.56316 0
M  V30 4720 C 458.302 1.9352 -0.239781 0
M  V30 4721 O 457.572 1.81433 0.738849 0
M  V30 4722 H 456.152 0.475793 -0.575873 0
M  V30 4723 H 458.814 0.614052 -1.84974 0
M  V30 4724 H 457.91 2.05916 -2.34532 0
M  V30 4725 N 458.211 1.37122 0.776871 0
M  V30 4726 C 459.459 1.31787 1.53221 0
M  V30 4727 C 459.78 -0.0987589 1.9475 0
M  V30 4728 O 459.05 -1.0417 1.65908 0
M  V30 4729 H 457.63 0.484839 0.568278 0
M  V30 4730 H 460.292 1.71556 0.924917 0
M  V30 4731 H 459.388 1.95355 2.43398 0
M  V30 4732 N 459.689 -1.00246 1.21608 0
M  V30 4733 C 460.599 -2.12515 0.993709 0
M  V30 4734 C 461.615 -1.73913 -0.0549939 0
M  V30 4735 O 462.791 -2.00943 0.135619 0
M  V30 4736 C 459.856 -3.42083 0.563953 0
M  V30 4737 C 458.917 -3.94843 1.68516 0
M  V30 4738 C 458.15 -5.18226 1.27582 0
M  V30 4739 O 458.373 -5.70201 0.150506 0
M  V30 4740 O 457.307 -5.64497 2.0887 0
M  V30 4741 H 461.133 -2.34152 1.93407 0
M  V30 4742 H 458.718 -1.10891 1.00118 0
M  V30 4743 H 460.6 -4.20073 0.334194 0
M  V30 4744 H 459.275 -3.21828 -0.347665 0
M  V30 4745 H 458.182 -3.18068 1.96935 0
M  V30 4746 H 459.515 -4.19512 2.5743 0
M  V30 4747 N 461.167 -1.02423 -1.1978 0
M  V30 4748 C 462.583 -0.740459 -1.41384 0
M  V30 4749 C 462.783 0.676827 -1.89793 0
M  V30 4750 O 461.839 1.4435 -2.0717 0
M  V30 4751 C 463.152 -1.77264 -2.42895 0
M  V30 4752 C 464.7 -1.79165 -2.56649 0
M  V30 4753 C 465.175 -2.8133 -3.6141 0
M  V30 4754 N 466.666 -2.80118 -3.68901 0
M  V30 4755 C 467.401 -3.55824 -4.49641 0
M  V30 4756 N 466.897 -4.41231 -5.34123 0
M  V30 4757 N 468.69 -3.44387 -4.44246 0
M  V30 4758 H 460.841 -1.9391 -0.866764 0
M  V30 4759 H 463.104 -0.838074 -0.443098 0
M  V30 4760 H 462.81 -2.7884 -2.14339 0
M  V30 4761 H 462.684 -1.59108 -3.42001 0
M  V30 4762 H 465.071 -0.782702 -2.84531 0
M  V30 4763 H 465.152 -2.01396 -1.57713 0
M  V30 4764 H 464.796 -3.82394 -3.34271 0
M  V30 4765 H 464.726 -2.56359 -4.59986 0
M  V30 4766 H 467.217 -2.1817 -3.08562 0
M  V30 4767 H 467.53 -4.95747 -5.92836 0
M  V30 4768 H 465.875 -4.45306 -5.33599 0
M  V30 4769 H 469.066 -2.7708 -3.77285 0
M  V30 4770 H 469.239 -4.0364 -5.06931 0
M  V30 4771 N 462.645 1.35699 -0.801477 0
M  V30 4772 C 463.608 2.28199 -0.213994 0
M  V30 4773 C 464.608 1.49359 0.595691 0
M  V30 4774 O 465.798 1.69186 0.414921 0
M  V30 4775 C 462.93 3.33587 0.702297 0
M  V30 4776 H 464.123 2.81666 -1.02976 0
M  V30 4777 H 461.676 1.45467 -0.571759 0
M  V30 4778 H 462.411 2.85297 1.54195 0
M  V30 4779 H 462.196 3.91906 0.123484 0
M  V30 4780 H 463.686 4.02638 1.10783 0
M  V30 4781 N 464.123 0.554532 1.47522 0
M  V30 4782 C 465.371 0.0294208 2.02079 0
M  V30 4783 C 465.692 -1.32411 1.43151 0
M  V30 4784 O 464.962 -1.863 0.605728 0
M  V30 4785 H 463.542 0.00788672 0.746958 0
M  V30 4786 H 466.204 0.723934 1.80956 0
M  V30 4787 H 465.3 -0.0606745 3.12041 0
M  V30 4788 N 465.601 -1.54893 0.290851 0
M  V30 4789 C 466.878 -1.91991 -0.373989 0
M  V30 4790 C 467.258 -1.21694 -1.72493 0
M  V30 4791 O 466.606 -0.34917 -2.25816 0
M  V30 4792 C 466.816 -3.45419 -0.498703 0
M  V30 4793 C 468.164 -4.1748 -0.774298 0
M  V30 4794 O 469.188 -3.51398 -0.582908 0
M  V30 4795 O 468.047 -5.3445 -1.14129 0
M  V30 4796 H 465.141 -0.800593 -0.207315 0
M  V30 4797 H 467.687 -1.66297 0.338164 0
M  V30 4798 H 466.459 -3.88688 0.451392 0
M  V30 4799 H 466.082 -3.77117 -1.25972 0
M  V30 4800 N 467.08 -0.0183926 -1.57589 0
M  V30 4801 C 468.326 0.663543 -1.91638 0
M  V30 4802 C 468.659 1.72392 -0.894134 0
M  V30 4803 O 467.934 1.94316 0.0846449 0
M  V30 4804 C 468.217 1.28984 -3.36207 0
M  V30 4805 C 468.07 0.239761 -4.49161 0
M  V30 4806 C 469.389 2.2109 -3.80536 0
M  V30 4807 H 466.508 0.239746 -0.696915 0
M  V30 4808 H 469.15 -0.073456 -1.89858 0
M  V30 4809 H 467.3 1.91799 -3.37854 0
M  V30 4810 H 468.972 -0.390119 -4.59647 0
M  V30 4811 H 467.215 -0.435972 -4.31604 0
M  V30 4812 H 467.886 0.717383 -5.47319 0
M  V30 4813 H 470.362 1.68273 -3.80557 0
M  V30 4814 H 469.238 2.61869 -4.82406 0
M  V30 4815 H 469.499 3.09764 -3.15434 0
M  V30 4816 N 468.558 1.5553 0.254621 0
M  V30 4817 C 469.804 1.77262 0.985193 0
M  V30 4818 C 470.137 0.582286 1.85265 0
M  V30 4819 O 469.412 -0.419666 1.89919 0
M  V30 4820 C 469.695 3.0881 1.85225 0
M  V30 4821 C 469.548 4.38233 1.0135 0
M  V30 4822 C 470.867 3.3653 2.83612 0
M  V30 4823 H 467.986 0.644906 0.356742 0
M  V30 4824 H 470.628 1.88264 0.256236 0
M  V30 4825 H 468.778 2.99562 2.47376 0
M  V30 4826 H 470.45 4.59463 0.411269 0
M  V30 4827 H 468.693 4.32636 0.317574 0
M  V30 4828 H 469.364 5.26644 1.65379 0
M  V30 4829 H 471.84 3.45691 2.31596 0
M  V30 4830 H 470.716 4.29805 3.41407 0
M  V30 4831 H 470.977 2.57064 3.59681 0
M  V30 4832 N 470.036 -0.519951 1.48776 0
M  V30 4833 C 470.999 -1.60574 1.6355 0
M  V30 4834 C 471.999 -1.52557 0.508234 0
M  V30 4835 O 473.189 -1.56047 0.774262 0
M  V30 4836 C 470.321 -3.00211 1.61512 0
M  V30 4837 H 471.514 -1.4881 2.60376 0
M  V30 4838 H 469.067 -0.742772 1.37523 0
M  V30 4839 H 469.802 -3.17471 0.662009 0
M  V30 4840 H 469.587 -3.07439 2.43359 0
M  V30 4841 H 471.077 -3.79134 1.75064 0
M  V30 4842 N 471.514 -1.37532 -0.769588 0
M  V30 4843 C 472.761 -1.3286 -1.52822 0
M  V30 4844 C 473.089 0.0862597 -1.94309 0
M  V30 4845 O 472.344 1.05995 -1.6451 0
M  V30 4846 C 472.643 -2.21558 -2.8044 0
M  V30 4847 C 472.309 -3.69796 -2.57996 0
M  V30 4848 C 470.971 -4.10194 -2.51583 0
M  V30 4849 C 473.323 -4.63699 -2.37976 0
M  V30 4850 C 470.651 -5.42608 -2.23144 0
M  V30 4851 C 473.003 -5.96353 -2.1106 0
M  V30 4852 C 471.667 -6.35853 -2.03093 0
M  V30 4853 H 470.937 -0.486168 -0.559215 0
M  V30 4854 H 473.584 -1.69757 -0.886277 0
M  V30 4855 H 471.889 -1.77663 -3.49204 0
M  V30 4856 H 473.586 -2.15256 -3.38328 0
M  V30 4857 H 470.176 -3.37759 -2.63851 0
M  V30 4858 H 474.36 -4.33346 -2.41919 0
M  V30 4859 H 469.616 -5.72173 -2.15472 0
M  V30 4860 H 473.79 -6.68667 -1.94568 0
M  V30 4861 H 471.417 -7.38382 -1.8082 0
M  V30 4862 N 472.992 0.995999 -1.22138 0
M  V30 4863 C 474.22 1.77066 -1.07029 0
M  V30 4864 C 474.635 1.8495 0.379357 0
M  V30 4865 O 473.992 1.3174 1.26297 0
M  V30 4866 C 474.043 3.20533 -1.67155 0
M  V30 4867 O 473.764 3.13082 -3.06449 0
M  V30 4868 C 475.265 4.14461 -1.5728 0
M  V30 4869 H 472.485 0.556179 -0.375374 0
M  V30 4870 H 475.029 1.25238 -1.61666 0
M  V30 4871 H 473.184 3.6944 -1.16589 0
M  V30 4872 H 473.598 4.03283 -3.35355 0
M  V30 4873 H 475.072 5.1289 -2.04078 0
M  V30 4874 H 475.549 4.36005 -0.528795 0
M  V30 4875 H 476.155 3.71449 -2.07136 0
M  V30 4876 N 474.47 1.03057 1.19235 0
M  V30 4877 C 475.881 0.757449 1.70645 0
M  V30 4878 C 476.232 -0.722735 1.82403 0
M  V30 4879 O 475.357 -1.56325 1.49638 0
M  V30 4880 C 475.952 1.36833 3.09939 0
M  V30 4881 C 474.511 1.14375 3.58602 0
M  V30 4882 C 473.658 1.46533 2.35422 0
M  V30 4883 H 476.609 1.19828 1.04052 0
M  V30 4884 H 476.63 0.766184 3.72706 0
M  V30 4885 H 476.142 2.44562 3.01349 0
M  V30 4886 H 474.243 0.0847542 3.72504 0
M  V30 4887 H 474.356 1.83366 4.42622 0
M  V30 4888 H 472.72 0.884712 2.38841 0
M  V30 4889 H 473.503 2.55349 2.2946 0
M  V30 4890 N 475.948 -1.35272 0.808662 0
M  V30 4891 C 477.364 -1.51806 0.492653 0
M  V30 4892 C 477.564 -1.7574 -0.985778 0
M  V30 4893 O 476.62 -1.80003 -1.77074 0
M  V30 4894 C 477.933 -2.69202 1.33981 0
M  V30 4895 C 479.481 -2.8308 1.33547 0
M  V30 4896 C 479.956 -4.03502 2.16679 0
M  V30 4897 N 481.447 -4.10684 2.14227 0
M  V30 4898 C 482.182 -5.02984 2.75308 0
M  V30 4899 N 481.678 -6.00603 3.45323 0
M  V30 4900 N 483.471 -4.95746 2.64938 0
M  V30 4901 H 475.622 -1.17993 1.76611 0
M  V30 4902 H 477.885 -0.577476 0.751814 0
M  V30 4903 H 477.591 -2.581 2.38909 0
M  V30 4904 H 477.465 -3.63854 0.994491 0
M  V30 4905 H 479.852 -2.93631 0.294036 0
M  V30 4906 H 479.933 -1.89278 1.72068 0
M  V30 4907 H 479.577 -3.93711 3.20864 0
M  V30 4908 H 479.507 -4.96489 1.75517 0
M  V30 4909 H 481.998 -3.40802 1.63285 0
M  V30 4910 H 482.311 -6.67633 3.89212 0
M  V30 4911 H 480.656 -6.0077 3.49428 0
M  V30 4912 H 483.847 -4.18439 2.09825 0
M  V30 4913 H 484.02 -5.67487 3.12829 0
M  V30 4914 N 477.426 -0.562348 -1.47226 0
M  V30 4915 C 478.674 -0.0401371 -2.0206 0
M  V30 4916 C 478.995 1.3165 -1.43852 0
M  V30 4917 O 478.265 1.85976 -0.615599 0
M  V30 4918 H 476.845 -0.0118479 -0.746906 0
M  V30 4919 H 479.507 -0.73352 -1.8057 0
M  V30 4920 H 478.603 0.0441254 -3.12069 0
M  V30 4921 O 478.943 1.55359 -0.441124 0
M  V30 4922 H 479.634 1.93483 0.0916679 0
M  V30 END ATOM
M  V30 BEGIN BOND
M  V30 END BOND
M  V30 END CTAB
M  END
$$$$
