drugbank_target|P51584 Endo-1,4-beta-xylanase Y (DB04522; DB07767; DB08587; DB08589; DB08711)
 OpenBabel12092120263D

  0  0  0     0  0            999 V3000
M  V30 BEGIN CTAB
M  V30 COUNTS 16512 16722 0 0 0
M  V30 BEGIN ATOM
M  V30 1 H -0.908 1.98254 -0.117106 0
M  V30 2 N 0 1.576 0 0
M  V30 3 C 0.933 2.03868 1.02534 0
M  V30 4 C 1.911 0.928543 1.3348 0
M  V30 5 O 3.095 1.19667 1.45644 0
M  V30 6 C 0.222 2.43627 2.35294 0
M  V30 7 C -0.732 3.65373 2.2001 0
M  V30 8 S 0.101 5.13292 1.52614 0
M  V30 9 C 1.257 5.56322 2.86805 0
M  V30 10 H 1.49 2.90518 0.631377 0
M  V30 11 H -0.977 1.52953 0.210867 0
M  V30 12 H 0.981 2.67203 3.11629 0
M  V30 13 H -0.358 1.57376 2.7183 0
M  V30 14 H -1.165 3.90944 3.18086 0
M  V30 15 H -1.563 3.418 1.51819 0
M  V30 16 H 0.729 5.58782 3.83104 0
M  V30 17 H 1.672 6.56266 2.65933 0
M  V30 18 H 2.08 4.83886 2.90714 0
M  V30 19 N 1.4781 -0.272755 1.55222 0
M  V30 20 C 2.4251 -1.33716 1.88119 0
M  V30 21 C 3.3951 -1.49066 0.73271 0
M  V30 22 O 4.5801 -1.63469 0.984002 0
M  V30 23 C 1.7201 -2.69238 2.15882 0
M  V30 24 C 0.8331 -2.62108 3.43399 0
M  V30 25 C -0.0319 -3.89811 3.60861 0
M  V30 26 C -0.9929 -3.77193 4.8207 0
M  V30 27 N -1.8559 -4.9673 4.96189 0
M  V30 28 H 2.9841 -1.04962 2.78903 0
M  V30 29 H 0.5211 -0.507088 1.38083 0
M  V30 30 H 2.4791 -3.48089 2.29978 0
M  V30 31 H 1.1091 -2.96194 1.28331 0
M  V30 32 H 0.1611 -1.74967 3.37773 0
M  V30 33 H 1.4731 -2.48685 4.32386 0
M  V30 34 H 0.6271 -4.77103 3.74777 0
M  V30 35 H -0.6339 -4.06102 2.7006 0
M  V30 36 H -1.6289 -2.88284 4.68159 0
M  V30 37 H -0.4039 -3.62421 5.74307 0
M  V30 38 H -2.4579 -5.13431 4.08319 0
M  V30 39 H -2.5409 -4.85839 5.79221 0
M  V30 40 H -1.2729 -5.85594 5.1449 0
M  V30 41 N 2.9562 -1.48159 -0.537278 0
M  V30 42 C 3.9042 -1.62573 -1.66352 0
M  V30 43 C 4.8982 -0.492366 -1.62087 0
M  V30 44 O 6.1042 -0.670847 -1.67032 0
M  V30 45 H 2.4792 -0.511992 -0.550789 0
M  V30 46 H 4.4502 -2.57176 -1.51337 0
M  V30 47 C 3.1992 -1.67583 -3.04649 0
M  V30 48 H 2.5222 -2.54151 -3.08622 0
M  V30 49 H 3.9622 -1.81713 -3.83088 0
M  V30 50 C 2.4212 -0.413039 -3.34358 0
M  V30 51 O 2.9512 0.477259 -3.98855 0
M  V30 52 N 1.1572 -0.286961 -2.8918 0
M  V30 53 H 0.7042 -1.01241 -2.36871 0
M  V30 54 H 0.6622 0.556963 -3.09427 0
M  V30 55 N 4.4343 0.785586 -1.36625 0
M  V30 56 C 5.3813 1.89838 -1.31264 0
M  V30 57 C 6.3513 1.65115 -0.180633 0
M  V30 58 O 7.5363 1.87222 -0.36777 0
M  V30 59 C 4.6763 3.26706 -1.11163 0
M  V30 60 C 3.7893 3.63476 -2.33472 0
M  V30 61 C 2.9243 4.89481 -2.06353 0
M  V30 62 C 1.9633 5.18941 -3.24602 0
M  V30 63 N 1.1003 6.36131 -2.97123 0
M  V30 64 H 5.9403 1.93756 -2.26413 0
M  V30 65 H 3.4773 0.947454 -1.12524 0
M  V30 66 H 5.4353 4.05639 -0.975337 0
M  V30 67 H 4.0653 3.222 -0.196674 0
M  V30 68 H 3.1173 2.79636 -2.57891 0
M  V30 69 H 4.4293 3.81193 -3.21704 0
M  V30 70 H 3.5833 5.76288 -1.89675 0
M  V30 71 H 2.3223 4.73841 -1.15437 0
M  V30 72 H 1.3273 4.30615 -3.41834 0
M  V30 73 H 2.5523 5.36498 -4.16349 0
M  V30 74 H 0.4983 6.21875 -2.08823 0
M  V30 75 H 0.4153 6.54198 -3.78894 0
M  V30 76 H 1.6833 7.2591 -2.84033 0
M  V30 77 N 5.9124 1.20967 1.01018 0
M  V30 78 C 7.3284 0.965905 1.27053 0
M  V30 79 C 7.5284 -0.350785 1.98423 0
M  V30 80 O 6.5844 -1.07773 2.28344 0
M  V30 81 C 7.8974 2.15294 2.09926 0
M  V30 82 C 9.4454 2.19463 2.23171 0
M  V30 83 C 9.9204 3.3767 3.09424 0
M  V30 84 N 11.4114 3.37724 3.17012 0
M  V30 85 C 12.1464 4.25837 3.83993 0
M  V30 86 N 11.6424 5.24138 4.53047 0
M  V30 87 N 13.4354 4.1366 3.80581 0
M  V30 88 H 5.5864 2.0565 0.531194 0
M  V30 89 H 7.8494 0.90024 0.297106 0
M  V30 90 H 7.5554 3.10684 1.64828 0
M  V30 91 H 7.4294 2.13923 3.10672 0
M  V30 92 H 9.8164 1.24632 2.6749 0
M  V30 93 H 9.8974 2.2488 1.21912 0
M  V30 94 H 9.5414 4.32791 2.65808 0
M  V30 95 H 9.4714 3.29491 4.10784 0
M  V30 96 H 11.9624 2.6658 2.6785 0
M  V30 97 H 12.2754 5.87684 5.01844 0
M  V30 98 H 10.6204 5.28068 4.5185 0
M  V30 99 H 13.8114 3.36127 3.25785 0
M  V30 100 H 13.9844 4.82538 4.32505 0
M  V30 101 N 7.3905 -1.2043 1.01659 0
M  V30 102 C 8.6365 -1.90079 0.706963 0
M  V30 103 C 8.9695 -1.78648 -0.761474 0
M  V30 104 O 8.2445 -1.17069 -1.55323 0
M  V30 105 C 8.5275 -3.41469 1.14327 0
M  V30 106 C 8.3805 -3.61833 2.67201 0
M  V30 107 C 9.6995 -4.34261 0.714529 0
M  V30 108 H 6.8185 -0.690254 0.2583 0
M  V30 109 H 9.4605 -1.41826 1.26433 0
M  V30 110 H 7.6105 -3.82696 0.669056 0
M  V30 111 H 9.2825 -3.2986 3.22475 0
M  V30 112 H 7.5255 -3.05304 3.08175 0
M  V30 113 H 8.1965 -4.67955 2.92783 0
M  V30 114 H 10.6725 -4.00682 1.12221 0
M  V30 115 H 9.5485 -5.38806 1.04784 0
M  V30 116 H 9.8095 -4.40431 -0.383799 0
M  V30 117 N 8.8686 -0.792821 -1.36206 0
M  V30 118 C 9.7986 -0.207853 -2.32573 0
M  V30 119 C 10.7796 0.659055 -1.56813 0
M  V30 120 O 11.9646 0.592176 -1.84951 0
M  V30 121 C 9.0946 0.655449 -3.41059 0
M  V30 122 C 8.0486 -0.111842 -4.27854 0
M  V30 123 C 7.3746 0.872274 -5.27537 0
M  V30 124 C 8.6746 -1.30299 -5.05786 0
M  V30 125 H 10.3686 -1.01294 -2.81744 0
M  V30 126 H 7.9146 -0.48854 -1.3546 0
M  V30 127 H 9.8676 1.07464 -4.07467 0
M  V30 128 H 8.5916 1.49328 -2.90463 0
M  V30 129 H 7.2506 -0.512053 -3.63006 0
M  V30 130 H 6.8986 1.70523 -4.73214 0
M  V30 131 H 6.5986 0.363291 -5.86476 0
M  V30 132 H 8.1226 1.28996 -5.96818 0
M  V30 133 H 9.5366 -0.959379 -5.65216 0
M  V30 134 H 7.9336 -1.7455 -5.74154 0
M  V30 135 H 9.0036 -2.09663 -4.37229 0
M  V30 136 N 10.3467 1.47872 -0.545128 0
M  V30 137 C 11.3097 2.28337 0.198717 0
M  V30 138 C 12.3097 1.36255 0.853888 0
M  V30 139 O 13.4997 1.59003 0.711606 0
M  V30 140 C 10.6317 3.15585 1.28915 0
M  V30 141 H 11.8247 2.95567 -0.507941 0
M  V30 142 H 9.3777 1.53362 -0.301616 0
M  V30 143 H 10.1127 2.53019 2.02859 0
M  V30 144 H 9.8977 3.83337 0.824309 0
M  V30 145 H 11.3877 3.76243 1.81194 0
M  V30 146 N 11.8248 0.280983 1.55075 0
M  V30 147 C 12.7718 -0.603937 2.22758 0
M  V30 148 C 13.7418 -1.1452 1.20309 0
M  V30 149 O 14.9268 -1.19343 1.48869 0
M  V30 150 C 12.0668 -1.77947 2.95684 0
M  V30 151 C 11.1798 -1.2715 4.12864 0
M  V30 152 C 10.3148 -2.4093 4.7342 0
M  V30 153 C 9.3538 -1.87165 5.82783 0
M  V30 154 N 8.4908 -2.94441 6.37377 0
M  V30 155 H 13.3308 -0.020124 2.97993 0
M  V30 156 H 10.8678 0.00183425 1.471 0
M  V30 157 H 12.8258 -2.47055 3.36184 0
M  V30 158 H 11.4558 -2.33522 2.22861 0
M  V30 159 H 10.5078 -0.473331 3.77444 0
M  V30 160 H 11.8198 -0.837751 4.91715 0
M  V30 161 H 10.9738 -3.18021 5.1667 0
M  V30 162 H 9.7128 -2.87623 3.93859 0
M  V30 163 H 8.7178 -1.08556 5.38976 0
M  V30 164 H 9.9428 -1.41401 6.64216 0
M  V30 165 H 7.8888 -3.40505 5.60707 0
M  V30 166 H 7.8058 -2.55501 7.11516 0
M  V30 167 H 9.0738 -3.71489 6.85285 0
M  V30 168 N 13.3029 -1.57598 0.00835791 0
M  V30 169 C 14.5519 -1.90107 -0.673968 0
M  V30 170 C 14.8649 -0.884275 -1.7447 0
M  V30 171 O 16.0709 -1.09987 -2.48224 0
M  V30 172 C 14.5269 -3.37497 -1.24995 0
M  V30 173 C 14.1349 -4.47491 -0.2136 0
M  V30 174 C 15.8789 -3.79104 -1.90999 0
M  V30 175 C 13.7859 -5.85963 -0.80005 0
M  V30 176 H 12.7159 -0.709393 -0.255495 0
M  V30 177 H 15.3669 -1.83365 0.0702693 0
M  V30 178 H 13.7489 -3.39102 -2.04513 0
M  V30 179 H 14.9229 -4.57414 0.557596 0
M  V30 180 H 13.2379 -4.14956 0.346474 0
M  V30 181 H 15.8349 -4.79901 -2.35795 0
M  V30 182 H 16.1779 -3.1306 -2.74407 0
M  V30 183 H 16.7109 -3.79833 -1.18203 0
M  V30 184 H 13.4499 -6.555 -0.00456708 0
M  V30 185 H 12.9699 -5.79687 -1.54021 0
M  V30 186 H 14.6489 -6.33884 -1.29615 0
M  V30 187 N 14.781 0.264519 -1.55364 0
M  V30 188 C 16.009 1.013 -1.80405 0
M  V30 189 C 16.424 1.79618 -0.581622 0
M  V30 190 O 15.781 1.76879 0.449468 0
M  V30 191 C 15.832 1.96487 -3.03439 0
M  V30 192 O 15.553 1.21341 -4.20961 0
M  V30 193 C 17.054 2.83079 -3.41147 0
M  V30 194 H 14.274 0.298875 -0.600762 0
M  V30 195 H 16.818 0.292736 -2.02394 0
M  V30 196 H 14.973 2.63965 -2.83551 0
M  V30 197 H 15.387 1.85573 -4.90574 0
M  V30 198 H 16.861 3.4565 -4.30384 0
M  V30 199 H 17.338 3.53286 -2.60932 0
M  V30 200 H 17.944 2.2108 -3.63323 0
M  V30 201 N 16.2591 1.48442 0.529413 0
M  V30 202 C 17.2221 1.62524 1.61612 0
M  V30 203 C 18.2221 0.498509 1.52877 0
M  V30 204 O 19.4121 0.76431 1.56537 0
M  V30 205 C 16.5441 1.59597 3.01233 0
M  V30 206 H 17.7371 2.59423 1.50465 0
M  V30 207 H 15.2901 1.37047 0.751514 0
M  V30 208 H 16.0251 0.641781 3.17886 0
M  V30 209 H 15.8101 2.41397 3.08982 0
M  V30 210 H 17.3001 1.72646 3.80241 0
M  V30 211 N 17.7372 -0.778329 1.37039 0
M  V30 212 C 18.6672 -1.90546 1.34962 0
M  V30 213 C 19.6482 -1.68681 0.219274 0
M  V30 214 O 20.8332 -1.89634 0.418624 0
M  V30 215 C 17.9632 -3.27734 1.14925 0
M  V30 216 C 16.9172 -3.64147 2.24902 0
M  V30 217 C 16.2432 -4.99806 1.89996 0
M  V30 218 C 17.5432 -3.71579 3.67051 0
M  V30 219 H 19.2372 -1.92541 2.29277 0
M  V30 220 H 16.7832 -0.924948 1.10366 0
M  V30 221 H 18.7362 -4.06215 1.12104 0
M  V30 222 H 17.4602 -3.26154 0.170631 0
M  V30 223 H 16.1192 -2.8797 2.26868 0
M  V30 224 H 15.7672 -4.94759 0.906796 0
M  V30 225 H 15.4672 -5.25139 2.63634 0
M  V30 226 H 16.9912 -5.80694 1.88749 0
M  V30 227 H 18.4052 -4.40227 3.67251 0
M  V30 228 H 16.8022 -4.08405 4.39688 0
M  V30 229 H 17.8722 -2.72404 4.01154 0
M  V30 230 N 19.2153 -1.21501 -1.00376 0
M  V30 231 C 20.4613 -1.03452 -1.74429 0
M  V30 232 C 20.7943 0.430764 -1.89362 0
M  V30 233 O 20.0693 1.31962 -1.42886 0
M  V30 234 C 20.3523 -1.73375 -3.15615 0
M  V30 235 C 20.2053 -3.27431 -3.08397 0
M  V30 236 C 21.5243 -1.47732 -4.14564 0
M  V30 237 H 18.6433 -0.377226 -0.633143 0
M  V30 238 H 21.2853 -1.49693 -1.17013 0
M  V30 239 H 19.4353 -1.34064 -3.64636 0
M  V30 240 H 21.1073 -3.76119 -2.67081 0
M  V30 241 H 19.3503 -3.5767 -2.45468 0
M  V30 242 H 20.0213 -3.71524 -4.08258 0
M  V30 243 H 22.4973 -1.8186 -3.74254 0
M  V30 244 H 21.3733 -1.99169 -5.11491 0
M  V30 245 H 21.6343 -0.407589 -4.40217 0
M  V30 246 N 20.6934 1.19889 -1.02296 0
M  V30 247 C 21.9394 1.89701 -0.717033 0
M  V30 248 C 22.2724 1.7905 0.751989 0
M  V30 249 O 21.5474 1.17891 1.547 0
M  V30 250 C 21.8304 3.40858 -1.16136 0
M  V30 251 C 21.6834 3.60411 -2.69117 0
M  V30 252 C 23.0024 4.33876 -0.737549 0
M  V30 253 H 20.1214 0.688874 -0.261957 0
M  V30 254 H 22.7634 1.41154 -1.27183 0
M  V30 255 H 20.9134 3.82335 -0.689342 0
M  V30 256 H 22.5854 3.28145 -3.2422 0
M  V30 257 H 20.8284 3.03665 -3.0979 0
M  V30 258 H 21.4994 4.66396 -2.95261 0
M  V30 259 H 23.9754 4.00081 -1.14344 0
M  V30 260 H 22.8514 5.38242 -1.0764 0
M  V30 261 H 23.1124 4.40628 0.360436 0
M  V30 262 N 22.1715 0.800033 1.35784 0
M  V30 263 C 23.1015 0.220184 2.3246 0
M  V30 264 C 24.0825 -0.65073 1.57161 0
M  V30 265 O 25.2675 -0.582359 1.85263 0
M  V30 266 C 22.3975 -0.637353 3.41402 0
M  V30 267 C 21.3515 0.134531 4.27789 0
M  V30 268 C 20.6775 -0.844285 5.27992 0
M  V30 269 C 21.9775 1.32979 5.05088 0
M  V30 270 H 23.6715 1.02787 2.81203 0
M  V30 271 H 21.2175 0.495717 1.35199 0
M  V30 272 H 23.1705 -1.05302 4.08031 0
M  V30 273 H 21.8945 -1.47785 2.91251 0
M  V30 274 H 20.5535 0.531296 3.6273 0
M  V30 275 H 20.2015 -1.68011 4.74111 0
M  V30 276 H 19.9015 -0.332184 5.8666 0
M  V30 277 H 21.4255 -1.2583 5.97494 0
M  V30 278 H 22.8395 0.98934 5.64699 0
M  V30 279 H 21.2365 1.77593 5.7322 0
M  V30 280 H 22.3065 2.11978 4.36111 0
M  V30 281 N 23.6496 -1.47581 0.552962 0
M  V30 282 C 24.5796 -2.32762 -0.185451 0
M  V30 283 C 25.5606 -1.43527 -0.912905 0
M  V30 284 O 26.7456 -1.72388 -0.894201 0
M  V30 285 C 23.8756 -3.25219 -1.21859 0
M  V30 286 C 22.8296 -4.23661 -0.607864 0
M  V30 287 C 22.1556 -5.05413 -1.74533 0
M  V30 288 C 23.4556 -5.20481 0.435582 0
M  V30 289 H 25.1496 -2.94749 0.525684 0
M  V30 290 H 22.6956 -1.41738 0.254251 0
M  V30 291 H 24.6486 -3.8365 -1.7433 0
M  V30 292 H 23.3726 -2.61279 -1.95961 0
M  V30 293 H 22.0316 -3.66451 -0.104489 0
M  V30 294 H 21.6796 -4.3788 -2.47529 0
M  V30 295 H 21.3796 -5.72059 -1.34249 0
M  V30 296 H 22.9036 -5.66701 -2.27338 0
M  V30 297 H 24.3176 -5.733 -0.00290157 0
M  V30 298 H 22.7146 -5.95305 0.757067 0
M  V30 299 H 23.7846 -4.66217 1.33303 0
M  V30 300 N 25.1277 -0.289203 -1.54924 0
M  V30 301 C 26.3757 0.322879 -1.99504 0
M  V30 302 C 26.6967 1.55313 -1.1791 0
M  V30 303 O 25.9667 1.94001 -0.272097 0
M  V30 304 H 24.5467 0.122291 -0.736922 0
M  V30 305 H 27.2087 -0.397802 -1.90797 0
M  V30 306 H 26.3047 0.603061 -3.06218 0
M  V30 307 N 26.6058 1.57591 -0.0167156 0
M  V30 308 C 27.8518 1.91567 0.665582 0
M  V30 309 C 28.1848 0.892298 1.72487 0
M  V30 310 O 27.4598 -0.0867127 1.94307 0
M  V30 311 C 27.7428 3.36069 1.29342 0
M  V30 312 C 27.5958 4.49135 0.244541 0
M  V30 313 C 28.9148 3.803 2.21495 0
M  V30 314 H 26.0338 0.69666 0.240488 0
M  V30 315 H 28.6758 1.89866 -0.0714356 0
M  V30 316 H 26.8258 3.3765 1.92158 0
M  V30 317 H 28.4978 4.59689 -0.385228 0
M  V30 318 H 26.7408 4.3165 -0.431379 0
M  V30 319 H 27.4118 5.47242 0.723207 0
M  V30 320 H 29.8878 3.80377 1.68678 0
M  V30 321 H 28.7638 4.82127 2.62382 0
M  V30 322 H 29.0248 3.15104 3.101 0
M  V30 323 N 28.0839 -0.256276 1.55502 0
M  V30 324 C 29.3309 -0.985619 1.76895 0
M  V30 325 C 29.6589 -1.85671 0.579355 0
M  V30 326 O 28.9139 -1.90744 -0.437651 0
M  V30 327 C 29.2129 -1.88432 3.03691 0
M  V30 328 C 28.8789 -1.16936 4.35473 0
M  V30 329 C 27.5409 -0.97173 4.71286 0
M  V30 330 C 29.8929 -0.661889 5.1698 0
M  V30 331 C 27.2209 -0.254179 5.86149 0
M  V30 332 C 29.5729 0.042149 6.32586 0
M  V30 333 C 28.2369 0.25134 6.67027 0
M  V30 334 H 27.5069 -0.360663 0.647304 0
M  V30 335 H 30.1539 -0.256483 1.89775 0
M  V30 336 H 28.4589 -2.68021 2.85783 0
M  V30 337 H 30.1559 -2.45015 3.1744 0
M  V30 338 H 26.7459 -1.33332 4.07333 0
M  V30 339 H 30.9299 -0.802145 4.89775 0
M  V30 340 H 26.1859 -0.0815408 6.11346 0
M  V30 341 H 30.3599 0.443049 6.94989 0
M  V30 342 H 27.9869 0.809314 7.5588 0
M  V30 343 N 29.562 -1.4872 -0.521534 0
M  V30 344 C 30.809 -1.57168 -1.27689 0
M  V30 345 C 31.137 -0.249275 -1.92896 0
M  V30 346 O 30.392 0.761162 -1.80291 0
M  V30 347 C 30.691 -2.66497 -2.38148 0
M  V30 348 C 30.357 -4.08664 -1.90538 0
M  V30 349 C 29.019 -4.47357 -1.77271 0
M  V30 350 C 31.371 -4.97724 -1.54663 0
M  V30 351 C 28.699 -5.72905 -1.26478 0
M  V30 352 C 31.051 -6.2377 -1.05329 0
M  V30 353 C 29.715 -6.61311 -0.906861 0
M  V30 354 H 28.985 -0.575117 -0.467249 0
M  V30 355 H 31.632 -1.82472 -0.581051 0
M  V30 356 H 29.937 -2.35085 -3.13437 0
M  V30 357 H 31.634 -2.70246 -2.96257 0
M  V30 358 H 28.224 -3.78111 -2.01816 0
M  V30 359 H 32.408 -4.68501 -1.63768 0
M  V30 360 H 27.664 -6.00709 -1.13835 0
M  V30 361 H 31.838 -6.9217 -0.76644 0
M  V30 362 H 29.465 -7.5848 -0.511083 0
M  V30 363 N 31.0401 0.771051 -1.3745 0
M  V30 364 C 32.2861 1.5319 -1.32894 0
M  V30 365 C 32.6191 1.94008 0.0862511 0
M  V30 366 O 31.8941 1.64124 1.04373 0
M  V30 367 C 32.1771 2.79648 -2.26868 0
M  V30 368 C 32.0301 2.45079 -3.77169 0
M  V30 369 C 33.3491 3.81583 -2.19277 0
M  V30 370 H 30.4681 0.555744 -0.484064 0
M  V30 371 H 33.1101 0.884492 -1.68157 0
M  V30 372 H 31.2601 3.34891 -1.96926 0
M  V30 373 H 32.9321 1.95745 -4.1771 0
M  V30 374 H 31.1751 1.77767 -3.95704 0
M  V30 375 H 31.8461 3.35478 -4.38359 0
M  V30 376 H 34.3221 3.35835 -2.45671 0
M  V30 377 H 33.1981 4.67787 -2.87171 0
M  V30 378 H 33.4591 4.25897 -1.18592 0
M  V30 379 N 32.5182 1.22032 0.997298 0
M  V30 380 C 33.4482 1.01065 2.10495 0
M  V30 381 C 34.4292 -0.0669542 1.69968 0
M  V30 382 O 35.6142 0.0943987 1.9397 0
M  V30 383 C 32.7442 0.582874 3.42374 0
M  V30 384 C 31.6982 1.60592 3.96729 0
M  V30 385 C 31.0242 1.03412 5.24605 0
M  V30 386 C 32.3242 2.99478 4.27914 0
M  V30 387 H 34.0182 1.93708 2.28292 0
M  V30 388 H 31.5642 0.932761 1.09707 0
M  V30 389 H 33.5172 0.423332 4.19268 0
M  V30 390 H 32.2412 -0.379213 3.24391 0
M  V30 391 H 30.9002 1.75316 3.21963 0
M  V30 392 H 30.5482 0.063518 5.0296 0
M  V30 393 H 30.2482 1.71754 5.61938 0
M  V30 394 H 31.7722 0.886066 6.04137 0
M  V30 395 H 33.1862 2.88153 4.95622 0
M  V30 396 H 31.5832 3.64903 4.76409 0
M  V30 397 H 32.6532 3.49742 3.3587 0
M  V30 398 N 33.9963 -1.19345 1.0293 0
M  V30 399 C 35.4073 -1.70725 0.755633 0
M  V30 400 C 35.7583 -1.82326 -0.724676 0
M  V30 401 O 34.8833 -1.49471 -1.56484 0
M  V30 402 C 35.4783 -3.10084 1.36503 0
M  V30 403 C 34.0373 -3.58723 1.13994 0
M  V30 404 C 33.1843 -2.35577 1.46283 0
M  V30 405 H 36.1353 -1.0418 1.19718 0
M  V30 406 H 36.1563 -3.72787 0.762217 0
M  V30 407 H 35.6683 -3.01609 2.44241 0
M  V30 408 H 33.7693 -3.72512 0.0807901 0
M  V30 409 H 33.8823 -4.42816 1.82894 0
M  V30 410 H 32.2463 -2.38935 0.88217 0
M  V30 411 H 33.0293 -2.29731 2.55105 0
M  V30 412 N 35.4744 -0.807222 -1.35358 0
M  V30 413 C 36.6994 -0.399309 -2.0352 0
M  V30 414 C 37.1244 0.981986 -1.60433 0
M  V30 415 O 36.4824 1.63601 -0.781299 0
M  V30 416 C 36.5304 -0.491552 -3.57234 0
M  V30 417 O 35.6344 0.494754 -4.09421 0
M  V30 418 H 34.9754 -0.166682 -0.642739 0
M  V30 419 H 37.5054 -1.09328 -1.72941 0
M  V30 420 H 37.5154 -0.361588 -4.06395 0
M  V30 421 H 36.1904 -1.49907 -3.87944 0
M  V30 422 H 34.7674 0.324977 -3.71481 0
M  V30 423 N 36.9525 1.47285 -0.560781 0
M  V30 424 C 37.9005 2.31756 0.197942 0
M  V30 425 C 38.8945 1.43146 0.905854 0
M  V30 426 O 40.1005 1.59891 0.826733 0
M  V30 427 H 36.4755 0.747438 0.0827049 0
M  V30 428 H 38.4465 2.9359 -0.533629 0
M  V30 429 C 37.1955 3.25874 1.21249 0
M  V30 430 H 36.5185 3.94023 0.67719 0
M  V30 431 H 37.9585 3.87803 1.71419 0
M  V30 432 C 36.4175 2.49651 2.26221 0
M  V30 433 O 36.9475 2.24355 3.33208 0
M  V30 434 N 35.1535 2.10597 2.00243 0
M  V30 435 H 34.7005 2.31369 1.13252 0
M  V30 436 H 34.6585 1.59913 2.70694 0
M  V30 437 N 38.4306 0.297415 1.54768 0
M  V30 438 C 39.6796 -0.313669 1.99246 0
M  V30 439 C 39.9926 -1.55281 1.18942 0
M  V30 440 O 41.1986 -2.23825 1.5367 0
M  V30 441 C 39.6546 -0.609407 3.54703 0
M  V30 442 C 39.2626 0.611192 4.43811 0
M  V30 443 C 41.0066 -1.18188 4.07715 0
M  V30 444 C 38.9136 0.288805 5.90694 0
M  V30 445 H 37.8436 -0.120979 0.744231 0
M  V30 446 H 40.4946 0.40556 1.78962 0
M  V30 447 H 38.8766 -1.38813 3.70873 0
M  V30 448 H 40.0506 1.3875 4.39414 0
M  V30 449 H 38.3656 1.10205 4.01552 0
M  V30 450 H 40.9626 -1.43727 5.15021 0
M  V30 451 H 41.3056 -2.12299 3.58099 0
M  V30 452 H 41.8386 -0.464944 3.95074 0
M  V30 453 H 38.5776 1.19838 6.44453 0
M  V30 454 H 38.0976 -0.450305 5.98107 0
M  V30 455 H 39.7766 -0.110933 6.46905 0
M  V30 456 N 39.9087 -1.5758 0.0250728 0
M  V30 457 C 41.1337 -1.96337 -0.668317 0
M  V30 458 C 41.5587 -0.901314 -1.651 0
M  V30 459 O 40.9167 0.138187 -1.80773 0
M  V30 460 C 40.9647 -3.34191 -1.35457 0
M  V30 461 O 40.0687 -3.30269 -2.46974 0
M  V30 462 H 39.4097 -0.640281 -0.175887 0
M  V30 463 H 41.9397 -2.0442 0.0857224 0
M  V30 464 H 41.9497 -3.70331 -1.71228 0
M  V30 465 H 40.6247 -4.11036 -0.634218 0
M  V30 466 H 39.2017 -3.05841 -2.13344 0
M  V30 467 N 41.3868 0.248026 -1.55636 0
M  V30 468 C 42.3188 1.32993 -1.8667 0
M  V30 469 C 43.3318 1.44345 -0.752877 0
M  V30 470 O 44.5208 1.45715 -1.03098 0
M  V30 471 C 41.6208 2.70863 -2.03682 0
M  V30 472 C 40.7938 2.81792 -3.34532 0
M  V30 473 C 39.8528 4.005 -3.41301 0
M  V30 474 O 38.8788 3.9008 -4.14519 0
M  V30 475 N 40.0808 5.13618 -2.70512 0
M  V30 476 H 42.8458 1.06707 -2.8006 0
M  V30 477 H 40.4068 0.438129 -1.55859 0
M  V30 478 H 42.3988 3.48612 -2.05553 0
M  V30 479 H 40.9688 2.89862 -1.17041 0
M  V30 480 H 40.1888 1.90729 -3.44987 0
M  V30 481 H 41.4768 2.86043 -4.20781 0
M  V30 482 H 40.8748 5.24975 -2.10755 0
M  V30 483 H 39.4318 5.89505 -2.78077 0
M  V30 484 N 42.8649 1.48995 0.513639 0
M  V30 485 C 43.7949 1.67636 1.62544 0
M  V30 486 C 44.7759 0.525087 1.61793 0
M  V30 487 O 45.9609 0.759502 1.78732 0
M  V30 488 C 43.0909 1.73114 3.01079 0
M  V30 489 C 42.0449 2.87905 3.16693 0
M  V30 490 C 41.3709 2.78486 4.56453 0
M  V30 491 C 42.6709 4.29005 2.97913 0
M  V30 492 H 44.3649 2.60716 1.47198 0
M  V30 493 H 41.9109 1.25465 0.706714 0
M  V30 494 H 43.8639 1.84742 3.78746 0
M  V30 495 H 42.5879 0.766241 3.17484 0
M  V30 496 H 41.2469 2.75859 2.41448 0
M  V30 497 H 40.8949 1.7993 4.69717 0
M  V30 498 H 40.5949 3.55523 4.67843 0
M  V30 499 H 42.1189 2.92104 5.36197 0
M  V30 500 H 43.5329 4.41798 3.65359 0
M  V30 501 H 41.9299 5.07166 3.20785 0
M  V30 502 H 42.9999 4.44329 1.94165 0
M  V30 503 N 44.343 -0.763751 1.37857 0
M  V30 504 C 45.573 -1.55067 1.3652 0
M  V30 505 C 45.981 -1.89135 -0.0494227 0
M  V30 506 O 45.324 -1.52529 -1.02375 0
M  V30 507 C 45.386 -2.8838 2.14656 0
M  V30 508 C 45.05 -2.76905 3.63555 0
M  V30 509 C 46.047 -2.4739 4.57268 0
M  V30 510 C 43.732 -2.94676 4.06781 0
M  V30 511 C 45.726 -2.35786 5.92186 0
M  V30 512 C 43.413 -2.82692 5.41782 0
M  V30 513 C 44.411 -2.53289 6.34298 0
M  V30 514 O 44.099 -2.41345 7.66817 0
M  V30 515 H 43.831 -0.486776 0.469069 0
M  V30 516 H 46.385 -0.953812 1.81911 0
M  V30 517 H 44.615 -3.50217 1.63967 0
M  V30 518 H 46.304 -3.49828 2.05852 0
M  V30 519 H 47.07 -2.33339 4.2518 0
M  V30 520 H 42.949 -3.16563 3.35126 0
M  V30 521 H 46.493 -2.12757 6.64365 0
M  V30 522 H 42.39 -2.96314 5.7347 0
M  V30 523 H 43.158 -2.56634 7.77226 0
M  V30 524 N 45.8211 -1.22559 -0.990812 0
M  V30 525 C 46.7841 -0.998863 -2.0629 0
M  V30 526 C 47.7841 0.0354834 -1.60761 0
M  V30 527 O 48.9741 -0.203231 -1.7301 0
M  V30 528 C 46.1061 -0.509203 -3.37076 0
M  V30 529 H 47.2991 -1.95014 -2.27837 0
M  V30 530 H 44.8521 -1.04456 -1.16269 0
M  V30 531 H 45.5871 0.446335 -3.21214 0
M  V30 532 H 45.3721 -1.25547 -3.71457 0
M  V30 533 H 46.8621 -0.370888 -4.1595 0
M  V30 534 N 47.2992 1.18797 -1.03562 0
M  V30 535 C 48.5762 1.84469 -0.650434 0
M  V30 536 C 48.9562 1.92319 0.870433 0
M  V30 537 O 48.3042 1.44528 1.76986 0
M  V30 538 C 48.5142 3.2306 -1.32036 0
M  V30 539 C 49.8622 3.9915 -1.44792 0
M  V30 540 O 50.8862 3.32481 -1.27806 0
M  V30 541 O 49.7452 5.18587 -1.72423 0
M  V30 542 H 46.8392 0.795251 -0.226946 0
M  V30 543 H 49.3852 1.26231 -1.13419 0
M  V30 544 H 48.1572 3.1222 -2.3587 0
M  V30 545 H 47.7802 3.88949 -0.8249 0
M  V30 546 N 48.7773 0.814389 1.34928 0
M  V30 547 C 50.0073 0.41054 2.0248 0
M  V30 548 C 50.4153 -0.985625 1.61499 0
M  V30 549 O 49.7583 -1.64781 0.811976 0
M  V30 550 C 49.8203 0.423384 3.56998 0
M  V30 551 C 49.4843 1.77141 4.21272 0
M  V30 552 C 50.4813 2.73093 4.42398 0
M  V30 553 C 48.1663 2.05755 4.58225 0
M  V30 554 C 50.1603 3.95838 4.9959 0
M  V30 555 C 47.8473 3.28762 5.1513 0
M  V30 556 C 48.8453 4.23621 5.35755 0
M  V30 557 O 48.5333 5.44456 5.91458 0
M  V30 558 H 48.2653 0.163997 0.655806 0
M  V30 559 H 50.8193 1.10155 1.73364 0
M  V30 560 H 49.0493 -0.324276 3.85338 0
M  V30 561 H 50.7383 0.0407683 4.0588 0
M  V30 562 H 51.5043 2.5228 4.14222 0
M  V30 563 H 47.3833 1.32727 4.4148 0
M  V30 564 H 50.9273 4.69891 5.15605 0
M  V30 565 H 46.8243 3.49443 5.42734 0
M  V30 566 H 47.5923 5.4586 6.09901 0
M  V30 567 N 50.2554 -1.46986 0.568584 0
M  V30 568 C 51.1654 -2.33942 -0.17555 0
M  V30 569 C 52.1814 -1.48891 -0.90041 0
M  V30 570 O 53.3574 -1.81794 -0.86676 0
M  V30 571 C 50.4224 -3.25811 -1.18524 0
M  V30 572 C 49.4834 -4.26757 -0.466582 0
M  V30 573 C 48.7164 -5.14236 -1.42817 0
M  V30 574 O 48.9394 -5.04379 -2.66379 0
M  V30 575 O 47.8734 -5.94412 -0.946453 0
M  V30 576 H 51.6994 -2.98896 0.538036 0
M  V30 577 H 49.2844 -1.4573 0.329097 0
M  V30 578 H 51.1664 -3.82527 -1.76779 0
M  V30 579 H 49.8414 -2.63471 -1.88055 0
M  V30 580 H 48.7484 -3.73769 0.157451 0
M  V30 581 H 50.0814 -4.91843 0.187485 0
M  V30 582 N 51.7335 -0.305618 -1.54608 0
M  V30 583 C 52.9795 0.302746 -2.00528 0
M  V30 584 C 53.3125 1.53184 -1.19367 0
M  V30 585 O 52.5875 1.92598 -0.271321 0
M  V30 586 C 52.8705 0.654756 -3.54097 0
M  V30 587 C 52.7235 -0.583793 -4.45995 0
M  V30 588 C 54.0425 1.47947 -4.14487 0
M  V30 589 H 51.1615 0.108564 -0.72896 0
M  V30 590 H 53.8035 -0.418634 -1.85331 0
M  V30 591 H 51.9535 1.26935 -3.67178 0
M  V30 592 H 53.6255 -1.22224 -4.44814 0
M  V30 593 H 51.8685 -1.21615 -4.16404 0
M  V30 594 H 52.5395 -0.293287 -5.5122 0
M  V30 595 H 55.0155 0.96013 -4.04871 0
M  V30 596 H 53.8915 1.69454 -5.22088 0
M  V30 597 H 54.1525 2.47011 -3.66658 0
M  V30 598 N 53.2116 1.57565 -0.0334293 0
M  V30 599 C 54.4576 1.92262 0.645226 0
M  V30 600 C 54.7906 0.910543 1.71531 0
M  V30 601 O 54.0656 -0.066099 1.94388 0
M  V30 602 C 54.3486 3.37422 1.2577 0
M  V30 603 C 54.2016 4.49369 0.196891 0
M  V30 604 C 55.5206 3.82628 2.17449 0
M  V30 605 H 52.6396 0.699171 0.233085 0
M  V30 606 H 55.2816 1.89779 -0.0915694 0
M  V30 607 H 53.4316 3.39669 1.88566 0
M  V30 608 H 55.1036 4.59254 -0.433962 0
M  V30 609 H 53.3466 4.31168 -0.477137 0
M  V30 610 H 54.0176 5.47978 0.665124 0
M  V30 611 H 56.4936 3.82145 1.64634 0
M  V30 612 H 55.3696 4.84883 2.57254 0
M  V30 613 H 55.6306 3.18376 3.0674 0
M  V30 614 N 54.6897 -0.239769 1.55765 0
M  V30 615 C 55.6397 -1.30002 1.87306 0
M  V30 616 C 56.6237 -1.43156 0.73452 0
M  V30 617 O 57.8157 -1.46277 0.99659 0
M  V30 618 C 54.9447 -2.65409 2.17745 0
M  V30 619 C 54.0307 -2.56231 3.37945 0
M  V30 620 N 54.4217 -2.16689 4.57033 0
M  V30 621 C 52.7197 -2.87229 3.41197 0
M  V30 622 C 53.4207 -2.18318 5.39177 0
M  V30 623 N 52.3967 -2.58098 4.78421 0
M  V30 624 H 56.1987 -0.984912 2.76906 0
M  V30 625 H 53.7127 -0.448381 1.56087 0
M  V30 626 H 55.7097 -3.41934 2.38509 0
M  V30 627 H 54.3697 -2.97781 1.29448 0
M  V30 628 H 55.3807 -1.88116 4.82528 0
M  V30 629 H 52.0577 -3.24094 2.63191 0
M  V30 630 H 53.4477 -1.90025 6.44469 0
M  V30 631 N 56.1678 -1.49265 -0.50573 0
M  V30 632 C 57.4448 -1.49012 -1.26707 0
M  V30 633 C 57.8248 -0.215205 -2.1 0
M  V30 634 O 57.1728 0.802547 -2.13943 0
M  V30 635 C 57.3828 -2.7663 -2.12783 0
M  V30 636 C 58.7308 -3.25932 -2.72127 0
M  V30 637 O 59.7548 -2.77715 -2.23054 0
M  V30 638 O 58.6138 -4.09897 -3.61451 0
M  V30 639 H 55.7078 -0.596197 -0.57313 0
M  V30 640 H 58.2538 -1.61524 -0.52039 0
M  V30 641 H 57.0258 -3.60916 -1.5118 0
M  V30 642 H 56.6488 -2.66956 -2.94653 0
M  V30 643 N 57.6459 0.756429 -1.3826 0
M  V30 644 C 58.8739 1.54565 -1.3754 0
M  V30 645 C 59.2889 1.88767 0.0355331 0
M  V30 646 O 58.6459 1.52572 1.0014 0
M  V30 647 C 58.6969 2.84654 -2.22833 0
M  V30 648 O 58.4179 2.51912 -3.5843 0
M  V30 649 C 59.9189 3.78807 -2.30261 0
M  V30 650 H 57.1389 0.478353 -0.470553 0
M  V30 651 H 59.6829 0.936381 -1.81803 0
M  V30 652 H 57.8379 3.41965 -1.8204 0
M  V30 653 H 58.2519 3.35325 -4.03308 0
M  V30 654 H 59.7259 4.67045 -2.94233 0
M  V30 655 H 60.2029 4.19038 -1.31545 0
M  V30 656 H 60.8089 3.2742 -2.71433 0
M  V30 657 N 59.124 1.23083 0.984299 0
M  V30 658 C 60.371 1.06057 1.72505 0
M  V30 659 C 60.699 -0.403105 1.90277 0
M  V30 660 O 59.954 -1.3149 1.44944 0
M  V30 661 C 60.253 1.72673 3.1292 0
M  V30 662 C 59.919 3.22586 3.15038 0
M  V30 663 C 58.581 3.63489 3.15324 0
M  V30 664 C 60.933 4.185 3.10657 0
M  V30 665 C 58.261 4.98772 3.08939 0
M  V30 666 C 60.613 5.53769 3.05814 0
M  V30 667 C 59.277 5.94041 3.04419 0
M  V30 668 H 58.547 0.388091 0.631242 0
M  V30 669 H 61.194 1.52963 1.15215 0
M  V30 670 H 59.499 1.18116 3.73572 0
M  V30 671 H 61.196 1.56982 3.68996 0
M  V30 672 H 57.786 2.90022 3.15571 0
M  V30 673 H 61.97 3.87911 3.09579 0
M  V30 674 H 57.226 5.29193 3.0621 0
M  V30 675 H 61.4 6.27808 3.0138 0
M  V30 676 H 59.027 6.98833 2.99227 0
M  V30 677 N 60.6021 -1.18246 1.0419 0
M  V30 678 C 61.5121 -2.25574 0.644476 0
M  V30 679 C 62.5281 -1.70845 -0.329826 0
M  V30 680 O 63.7041 -2.00554 -0.184443 0
M  V30 681 C 60.7691 -3.46697 0.014877 0
M  V30 682 C 59.8301 -4.16554 1.03834 0
M  V30 683 C 59.0631 -5.31894 0.438692 0
M  V30 684 O 59.2861 -5.65385 -0.754752 0
M  V30 685 O 58.2201 -5.90459 1.168 0
M  V30 686 H 62.0461 -2.61836 1.53869 0
M  V30 687 H 59.6311 -1.25352 0.812854 0
M  V30 688 H 61.5131 -4.20062 -0.335538 0
M  V30 689 H 60.1881 -3.12255 -0.853138 0
M  V30 690 H 59.0951 -3.45251 1.44057 0
M  V30 691 H 60.4281 -4.54998 1.87716 0
M  V30 692 N 62.0802 -0.821533 -1.34494 0
M  V30 693 C 63.3262 -0.409552 -1.98622 0
M  V30 694 C 63.6592 1.0244 -1.64984 0
M  V30 695 O 62.9342 1.71325 -0.920758 0
M  V30 696 C 63.2172 -0.610458 -3.54888 0
M  V30 697 C 63.0702 -2.09043 -3.98273 0
M  V30 698 C 64.3892 -0.0455379 -4.40076 0
M  V30 699 H 61.5082 -0.15028 -0.721516 0
M  V30 700 H 64.1502 -1.03384 -1.59411 0
M  V30 701 H 62.3002 -0.079044 -3.8842 0
M  V30 702 H 63.9722 -2.68537 -3.75081 0
M  V30 703 H 62.2152 -2.58139 -3.48635 0
M  V30 704 H 62.8862 -2.18182 -5.07051 0
M  V30 705 H 65.3622 -0.499557 -4.1309 0
M  V30 706 H 64.2382 -0.215922 -5.48475 0
M  V30 707 H 64.4992 1.04939 -4.29465 0
M  V30 708 N 63.5583 1.46682 -0.576371 0
M  V30 709 C 64.5063 2.31953 0.17335 0
M  V30 710 C 65.5003 1.44098 0.89062 0
M  V30 711 O 66.7063 1.60759 0.809728 0
M  V30 712 H 63.0813 0.748273 0.0747727 0
M  V30 713 H 65.0523 2.93007 -0.564738 0
M  V30 714 C 63.8013 3.27142 1.17786 0
M  V30 715 H 63.1243 3.94719 0.635361 0
M  V30 716 H 64.5643 3.896 1.67296 0
M  V30 717 C 63.0233 2.52036 2.23561 0
M  V30 718 O 63.5533 2.27877 3.3081 0
M  V30 719 N 61.7593 2.12709 1.97998 0
M  V30 720 H 61.3063 2.32557 1.10792 0
M  V30 721 H 61.2643 1.62776 2.68982 0
M  V30 722 N 65.0364 0.313813 1.54444 0
M  V30 723 C 66.2834 -0.291675 2.00388 0
M  V30 724 C 66.6114 -1.52904 1.2021 0
M  V30 725 O 65.8664 -1.93833 0.269707 0
M  V30 726 C 66.1654 -0.680386 3.50864 0
M  V30 727 C 65.8314 0.456699 4.48581 0
M  V30 728 C 64.4934 0.768824 4.75018 0
M  V30 729 C 66.8454 1.22098 5.06697 0
M  V30 730 C 64.1734 1.84812 5.56831 0
M  V30 731 C 66.5254 2.29029 5.89685 0
M  V30 732 C 65.1894 2.60834 6.14428 0
M  V30 733 H 64.4594 -0.106732 0.733273 0
M  V30 734 H 67.1064 0.43557 1.86481 0
M  V30 735 H 65.4114 -1.48791 3.62448 0
M  V30 736 H 67.1084 -1.16026 3.83847 0
M  V30 737 H 63.6984 0.203337 4.28117 0
M  V30 738 H 67.8824 0.993096 4.86263 0
M  V30 739 H 63.1384 2.09912 5.74236 0
M  V30 740 H 67.3124 2.887 6.33739 0
M  V30 741 H 64.9394 3.44596 6.77612 0
M  V30 742 N 66.5145 -1.57545 0.0417849 0
M  V30 743 C 67.7915 -1.83642 -0.673433 0
M  V30 744 C 68.1715 -0.928298 -1.89594 0
M  V30 745 O 67.5195 0.0129955 -2.28496 0
M  V30 746 C 67.7295 -3.33155 -1.03964 0
M  V30 747 C 69.0775 -3.99941 -1.42592 0
M  V30 748 O 70.1015 -3.37725 -1.13226 0
M  V30 749 O 68.9605 -5.09619 -1.9736 0
M  V30 750 H 66.0545 -0.757638 -0.331533 0
M  V30 751 H 68.6005 -1.69554 0.070433 0
M  V30 752 H 67.3725 -3.9093 -0.170098 0
M  V30 753 H 66.9955 -3.52396 -1.84126 0
M  V30 754 N 67.9926 0.231505 -1.5589 0
M  V30 755 C 69.2406 0.955461 -1.78088 0
M  V30 756 C 69.5616 1.85262 -0.608533 0
M  V30 757 O 68.8316 1.92277 0.375035 0
M  V30 758 H 67.4116 0.355787 -0.656829 0
M  V30 759 H 70.0736 0.245751 -1.93344 0
M  V30 760 H 69.1696 1.56814 -2.69844 0
M  V30 761 N 69.4707 1.49531 0.497807 0
M  V30 762 C 70.7167 1.60388 1.25089 0
M  V30 763 C 71.0717 0.288328 1.90227 0
M  V30 764 O 70.3647 -0.711706 1.77891 0
M  V30 765 C 70.5587 2.70252 2.33878 0
M  V30 766 C 70.3877 4.12363 1.79408 0
M  V30 767 C 69.1577 4.7911 1.60566 0
M  V30 768 C 71.3557 4.97491 1.30412 0
M  V30 769 N 69.3377 6.05525 1.01059 0
M  V30 770 C 70.7087 6.14411 0.830595 0
M  V30 771 C 72.7637 4.83466 1.19015 0
M  V30 772 C 71.4667 7.1885 0.254371 0
M  V30 773 C 73.4927 5.88057 0.627892 0
M  V30 774 C 72.8547 7.04208 0.16461 0
M  V30 775 H 68.9537 0.641246 0.447579 0
M  V30 776 H 71.5377 1.86549 0.557441 0
M  V30 777 H 69.7087 2.45858 3.0068 0
M  V30 778 H 71.4407 2.70613 3.00917 0
M  V30 779 H 68.1957 4.35961 1.85026 0
M  V30 780 H 68.6197 6.73028 0.732236 0
M  V30 781 H 73.2617 3.93978 1.53431 0
M  V30 782 H 70.9797 8.08036 -0.102052 0
M  V30 783 H 74.5657 5.79266 0.542444 0
M  V30 784 H 73.4457 7.83757 -0.263669 0
M  V30 785 N 70.9488 -0.749086 1.3866 0
M  V30 786 C 72.1888 -1.52112 1.36534 0
M  V30 787 C 72.5528 -1.91951 -0.0432316 0
M  V30 788 O 73.7538 -2.68132 -0.189396 0
M  V30 789 C 72.0248 -2.73704 2.29828 0
M  V30 790 S 73.5838 -3.63519 2.45763 0
M  V30 791 H 70.4018 -0.520482 0.484375 0
M  V30 792 H 73.0038 -0.878963 1.74627 0
M  V30 793 H 71.7078 -2.42552 3.31054 0
M  V30 794 H 71.2388 -3.4286 1.929 0
M  V30 795 H 73.2538 -4.66712 1.68505 0
M  V30 796 N 72.4269 -1.23603 -0.977757 0
M  V30 797 C 73.3749 -1.01704 -2.09187 0
M  V30 798 C 74.3689 0.0448214 -1.69341 0
M  V30 799 O 75.5749 -0.108902 -1.7967 0
M  V30 800 H 71.9499 -0.311803 -0.684312 0
M  V30 801 H 73.9209 -1.96207 -2.24823 0
M  V30 802 C 72.6699 -0.627746 -3.41986 0
M  V30 803 H 71.9929 -1.43656 -3.73099 0
M  V30 804 H 73.4329 -0.514053 -4.20872 0
M  V30 805 C 71.8919 0.664238 -3.30287 0
M  V30 806 O 72.4219 1.71268 -3.6336 0
M  V30 807 N 70.6279 0.641156 -2.83439 0
M  V30 808 H 70.1749 -0.212376 -2.56723 0
M  V30 809 H 70.1329 1.50583 -2.75993 0
M  V30 810 N 73.905 1.17692 -1.04816 0
M  V30 811 C 74.835 2.23777 -0.666791 0
M  V30 812 C 75.816 1.66796 0.33361 0
M  V30 813 O 77.001 1.93039 0.212042 0
M  V30 814 C 74.131 3.47281 -0.0367933 0
M  V30 815 C 73.085 4.17059 -0.961546 0
M  V30 816 C 72.411 5.34342 -0.195626 0
M  V30 817 C 73.711 4.69713 -2.28402 0
M  V30 818 H 75.405 2.55933 -1.55367 0
M  V30 819 H 72.951 1.23019 -0.748484 0
M  V30 820 H 74.904 4.20706 0.241775 0
M  V30 821 H 73.628 3.14381 0.885004 0
M  V30 822 H 72.287 3.45541 -1.22462 0
M  V30 823 H 71.935 4.97692 0.728816 0
M  V30 824 H 71.635 5.81966 -0.811775 0
M  V30 825 H 73.159 6.10553 0.0757473 0
M  V30 826 H 74.573 5.34794 -2.06563 0
M  V30 827 H 72.97 5.279 -2.8538 0
M  V30 828 H 74.04 3.86726 -2.92525 0
M  V30 829 N 75.3831 0.828654 1.34056 0
M  V30 830 C 76.6311 0.41863 1.97717 0
M  V30 831 C 76.9521 -1.02314 1.66002 0
M  V30 832 O 76.2221 -1.71119 0.953683 0
M  V30 833 H 74.8021 0.151809 0.731412 0
M  V30 834 H 77.4641 1.05936 1.63596 0
M  V30 835 H 76.5601 0.542318 3.07352 0
M  V30 836 N 76.8612 -1.46375 0.584142 0
M  V30 837 C 78.1072 -2.02678 0.0703716 0
M  V30 838 C 78.4402 -1.4545 -1.28678 0
M  V30 839 O 77.7152 -0.62014 -1.84349 0
M  V30 840 C 77.9982 -3.60099 0.00614674 0
M  V30 841 C 77.8512 -4.27709 1.3923 0
M  V30 842 C 79.1702 -4.34598 -0.693742 0
M  V30 843 H 76.2892 -0.736504 0.027047 0
M  V30 844 H 78.9312 -1.74501 0.751615 0
M  V30 845 H 77.0812 -3.84236 -0.574009 0
M  V30 846 H 78.7532 -4.14832 2.01773 0
M  V30 847 H 76.9962 -3.87016 1.95962 0
M  V30 848 H 77.6672 -5.36478 1.29982 0
M  V30 849 H 80.1432 -4.15615 -0.200869 0
M  V30 850 H 79.0192 -5.44318 -0.707714 0
M  V30 851 H 79.2802 -4.05759 -1.75533 0
M  V30 852 N 78.3393 -0.321999 -1.54275 0
M  V30 853 C 79.6163 0.335232 -1.92706 0
M  V30 854 C 79.9963 1.70006 -1.25145 0
M  V30 855 O 79.3443 2.25067 -0.394596 0
M  V30 856 C 79.5543 0.429008 -3.46353 0
M  V30 857 C 80.9023 0.690029 -4.18956 0
M  V30 858 O 81.9263 0.511992 -3.52501 0
M  V30 859 O 80.7853 1.03338 -5.36641 0
M  V30 860 H 77.8793 0.191143 -0.804608 0
M  V30 861 H 80.4253 -0.3716 -1.65581 0
M  V30 862 H 79.1973 -0.529611 -3.87699 0
M  V30 863 H 78.8203 1.18348 -3.79578 0
M  V30 864 N 79.8174 1.5752 -0.0501392 0
M  V30 865 C 81.0454 1.96963 0.633492 0
M  V30 866 C 81.4604 0.927631 1.6444 0
M  V30 867 O 80.8174 -0.0882665 1.82286 0
M  V30 868 C 80.8684 3.36487 1.32132 0
M  V30 869 O 80.5894 4.36693 0.350894 0
M  V30 870 C 82.0904 3.90682 2.09481 0
M  V30 871 H 79.3104 0.648244 0.173266 0
M  V30 872 H 81.8544 2.0417 -0.116134 0
M  V30 873 H 80.0094 3.30434 2.02218 0
M  V30 874 H 80.4234 5.17702 0.841735 0
M  V30 875 H 81.8974 4.90591 2.5303 0
M  V30 876 H 82.3744 3.26053 2.94255 0
M  V30 877 H 82.9804 4.00069 1.44307 0
M  V30 878 N 81.2955 -0.223234 1.56011 0
M  V30 879 C 82.5255 -0.963413 1.82762 0
M  V30 880 C 82.9335 -1.78516 0.626804 0
M  V30 881 O 82.2765 -1.78974 -0.414014 0
M  V30 882 C 82.3385 -1.93126 3.0322 0
M  V30 883 C 82.0025 -1.2942 4.38291 0
M  V30 884 C 82.9995 -0.684916 5.15369 0
M  V30 885 C 80.6845 -1.30647 4.85012 0
M  V30 886 C 82.6785 -0.0963971 6.37327 0
M  V30 887 C 80.3655 -0.71411 6.06913 0
M  V30 888 C 81.3635 -0.110123 6.82911 0
M  V30 889 O 81.0515 0.47303 8.02507 0
M  V30 890 H 80.7835 -0.288011 0.611576 0
M  V30 891 H 83.3375 -0.244103 2.03944 0
M  V30 892 H 81.5675 -2.68952 2.77852 0
M  V30 893 H 83.2565 -2.53685 3.16857 0
M  V30 894 H 84.0225 -0.667774 4.80381 0
M  V30 895 H 79.9015 -1.76598 4.25833 0
M  V30 896 H 83.4455 0.375657 6.96588 0
M  V30 897 H 79.3425 -0.728659 6.41374 0
M  V30 898 H 80.1105 0.367186 8.17676 0
M  V30 899 N 82.7736 -1.49793 -0.48987 0
M  V30 900 C 83.7036 -1.70201 -1.59856 0
M  V30 901 C 84.6846 -0.55076 -1.60937 0
M  V30 902 O 85.8696 -0.787841 -1.77501 0
M  V30 903 C 82.9996 -1.77882 -2.98287 0
M  V30 904 C 81.9536 -2.92907 -3.12073 0
M  V30 905 C 81.2796 -2.85712 -4.51965 0
M  V30 906 C 82.5796 -4.3369 -2.91051 0
M  V30 907 H 84.2736 -2.63025 -1.43032 0
M  V30 908 H 81.8196 -1.26574 -0.686664 0
M  V30 909 H 83.7726 -1.90744 -3.75759 0
M  V30 910 H 82.4966 -0.816653 -3.16225 0
M  V30 911 H 81.1556 -2.79665 -2.37029 0
M  V30 912 H 80.8036 -1.8738 -4.66795 0
M  V30 913 H 80.5036 -3.62921 -4.62128 0
M  V30 914 H 82.0276 -3.00598 -5.31482 0
M  V30 915 H 83.4416 -4.47555 -3.58284 0
M  V30 916 H 81.8386 -5.12205 -3.12675 0
M  V30 917 H 82.9086 -4.47362 -1.87071 0
M  V30 918 N 84.2517 0.741722 -1.39055 0
M  V30 919 C 85.4797 1.53098 -1.39171 0
M  V30 920 C 85.8947 1.88794 0.0155099 0
M  V30 921 O 85.2517 1.53626 0.985159 0
M  V30 922 C 85.3027 2.82274 -2.2584 0
M  V30 923 O 85.0237 2.48097 -3.61081 0
M  V30 924 C 86.5247 3.76343 -2.34266 0
M  V30 925 H 83.7447 0.473335 -0.4756 0
M  V30 926 H 86.2887 0.917045 -1.82785 0
M  V30 927 H 84.4437 3.40015 -1.85656 0
M  V30 928 H 84.8577 3.31029 -4.06842 0
M  V30 929 H 86.3317 4.63898 -2.9917 0
M  V30 930 H 86.8087 4.17619 -1.35982 0
M  V30 931 H 87.4147 3.24523 -2.74891 0
M  V30 932 N 85.7298 1.2412 0.971189 0
M  V30 933 C 86.6928 1.03156 2.04674 0
M  V30 934 C 87.6928 -0.00990322 1.60797 0
M  V30 935 O 88.8828 0.230729 1.72665 0
M  V30 936 C 86.0148 0.562765 3.36223 0
M  V30 937 H 87.2078 1.98614 2.24705 0
M  V30 938 H 84.7608 1.06293 1.14593 0
M  V30 939 H 85.4958 -0.395176 3.21883 0
M  V30 940 H 85.2808 1.31441 3.69413 0
M  V30 941 H 86.7708 0.437015 4.15307 0
M  V30 942 N 87.2079 -1.17134 1.05439 0
M  V30 943 C 88.4539 -1.87733 0.767077 0
M  V30 944 C 88.7869 -1.8098 -0.704253 0
M  V30 945 O 88.0619 -1.21951 -1.5152 0
M  V30 946 C 88.3449 -3.37659 1.25133 0
M  V30 947 C 88.1979 -3.53149 2.78578 0
M  V30 948 C 89.5169 -4.31768 0.852324 0
M  V30 949 H 86.6359 -0.681687 0.280129 0
M  V30 950 H 89.2779 -1.37732 1.30881 0
M  V30 951 H 87.4279 -3.80373 0.790469 0
M  V30 952 H 89.0999 -3.19434 3.32806 0
M  V30 953 H 87.3429 -2.95345 3.17732 0
M  V30 954 H 88.0139 -4.58403 3.07523 0
M  V30 955 H 90.4899 -3.96909 1.24911 0
M  V30 956 H 89.3659 -5.35199 1.21873 0
M  V30 957 H 89.6269 -4.41429 -0.243485 0
M  V30 958 N 88.686 -0.835752 -1.33615 0
M  V30 959 C 89.596 -0.269088 -2.33052 0
M  V30 960 C 90.612 0.603251 -1.63208 0
M  V30 961 O 91.788 0.508112 -1.94885 0
M  V30 962 C 88.853 0.549091 -3.42324 0
M  V30 963 C 87.914 -0.347156 -4.27894 0
M  V30 964 C 87.147 0.43207 -5.31948 0
M  V30 965 O 87.37 1.66409 -5.45586 0
M  V30 966 O 86.304 -0.192298 -6.01593 0
M  V30 967 H 90.13 -1.09243 -2.83372 0
M  V30 968 H 87.715 -0.598198 -1.36901 0
M  V30 969 H 89.597 1.01414 -4.09015 0
M  V30 970 H 88.272 1.34955 -2.94226 0
M  V30 971 H 87.179 -0.859979 -3.64081 0
M  V30 972 H 88.512 -1.1123 -4.79467 0
M  V30 973 N 90.1641 1.46063 -0.591896 0
M  V30 974 C 91.1121 2.32124 0.148739 0
M  V30 975 C 92.1061 1.45035 0.875286 0
M  V30 976 O 93.3121 1.61609 0.792632 0
M  V30 977 H 89.6871 0.749024 0.066832 0
M  V30 978 H 91.6581 2.92392 -0.595783 0
M  V30 979 C 90.4071 3.28373 1.1431 0
M  V30 980 H 89.7301 3.95371 0.59346 0
M  V30 981 H 91.1701 3.91352 1.63155 0
M  V30 982 C 89.6291 2.54393 2.20875 0
M  V30 983 O 90.1591 2.31373 3.28374 0
M  V30 984 N 88.3651 2.14797 1.95731 0
M  V30 985 H 87.9121 2.33719 1.08319 0
M  V30 986 H 87.8701 1.65619 2.67241 0
M  V30 987 N 91.6422 0.330177 1.54103 0
M  V30 988 C 92.5522 -0.541534 2.28264 0
M  V30 989 C 93.5682 -1.12351 1.32866 0
M  V30 990 O 94.7442 -1.14206 1.65888 0
M  V30 991 C 91.8092 -1.68322 3.03098 0
M  V30 992 C 90.8702 -1.13238 4.14096 0
M  V30 993 C 90.1032 -2.21966 4.85352 0
M  V30 994 O 90.3262 -3.42437 4.56172 0
M  V30 995 O 89.2602 -1.87013 5.7211 0
M  V30 996 H 93.0862 0.060938 3.03639 0
M  V30 997 H 90.6712 0.09565 1.49093 0
M  V30 998 H 92.5532 -2.34777 3.49939 0
M  V30 999 H 91.2282 -2.27176 2.30593 0
M  V30 1000 H 90.1352 -0.432736 3.71589 0
M  V30 1001 H 91.4682 -0.588898 4.88664 0
M  V30 1002 N 93.1203 -1.57491 0.0584922 0
M  V30 1003 C 94.3683 -1.92597 -0.612436 0
M  V30 1004 C 94.6893 -0.938162 -1.70949 0
M  V30 1005 O 93.9593 0.0158301 -1.95894 0
M  V30 1006 H 92.5393 -0.710964 -0.229214 0
M  V30 1007 H 95.2013 -1.94571 0.113218 0
M  V30 1008 H 94.2973 -2.94038 -1.04633 0
M  V30 1009 N 94.5984 0.214957 -1.56127 0
M  V30 1010 C 95.5464 1.28601 -1.93816 0
M  V30 1011 C 96.5404 1.48175 -0.821016 0
M  V30 1012 O 97.7464 1.49271 -1.0059 0
M  V30 1013 H 94.1214 0.431302 -0.616022 0
M  V30 1014 H 96.0924 0.940991 -2.83175 0
M  V30 1015 C 94.8414 2.62779 -2.27689 0
M  V30 1016 H 94.1644 2.48527 -3.13168 0
M  V30 1017 H 95.6044 3.36517 -2.57939 0
M  V30 1018 C 94.0634 3.18285 -1.10436 0
M  V30 1019 O 94.5934 4.00002 -0.368945 0
M  V30 1020 N 92.7994 2.7675 -0.886433 0
M  V30 1021 H 92.3464 2.10404 -1.48619 0
M  V30 1022 H 92.3044 3.14229 -0.103656 0
M  V30 1023 N 96.0765 1.50051 0.48192 0
M  V30 1024 C 97.0245 1.68635 1.60203 0
M  V30 1025 C 98.0185 0.552184 1.60148 0
M  V30 1026 O 99.2245 0.732377 1.64427 0
M  V30 1027 H 95.5995 0.532081 0.531407 0
M  V30 1028 H 97.5705 2.62616 1.41688 0
M  V30 1029 C 96.3195 1.78775 2.9822 0
M  V30 1030 H 95.6425 2.6543 2.98976 0
M  V30 1031 H 97.0825 1.95806 3.7608 0
M  V30 1032 C 95.5415 0.536849 3.32595 0
M  V30 1033 O 96.0715 -0.328897 4.00351 0
M  V30 1034 N 94.2775 0.394091 2.87915 0
M  V30 1035 H 93.8245 1.09962 2.32951 0
M  V30 1036 H 93.7825 -0.441737 3.11281 0
M  V30 1037 N 97.5546 -0.734337 1.39446 0
M  V30 1038 C 98.8026 -1.49096 1.36436 0
M  V30 1039 C 99.1236 -1.94961 -0.0388255 0
M  V30 1040 O 98.3936 -1.69033 -0.990191 0
M  V30 1041 H 96.9736 -0.5531 0.502085 0
M  V30 1042 H 99.6356 -0.871725 1.74319 0
M  V30 1043 H 98.7316 -2.37276 2.02747 0
M  V30 1044 N 99.0327 -1.24633 -0.964593 0
M  V30 1045 C 100.261 -1.11501 -1.74285 0
M  V30 1046 C 100.676 0.332165 -1.85855 0
M  V30 1047 O 100.033 1.22903 -1.34911 0
M  V30 1048 C 100.084 -1.75258 -3.16175 0
M  V30 1049 O 99.8047 -3.14318 -3.05182 0
M  V30 1050 C 101.306 -1.67776 -4.10324 0
M  V30 1051 H 98.5257 -0.389407 -0.546446 0
M  V30 1052 H 101.07 -1.64801 -1.21083 0
M  V30 1053 H 99.2247 -1.25954 -3.66353 0
M  V30 1054 H 99.6387 -3.4551 -3.94618 0
M  V30 1055 H 101.113 -2.17064 -5.0753 0
M  V30 1056 H 101.59 -0.639584 -4.34518 0
M  V30 1057 H 102.196 -2.16522 -3.66058 0
M  V30 1058 N 100.511 1.16574 -1.06058 0
M  V30 1059 C 101.927 1.3904 -0.783585 0
M  V30 1060 C 102.127 1.91784 0.618145 0
M  V30 1061 O 101.183 2.11511 1.37911 0
M  V30 1062 C 102.496 2.37329 -1.84649 0
M  V30 1063 C 104.044 2.51018 -1.86973 0
M  V30 1064 C 104.519 3.52588 -2.92311 0
M  V30 1065 N 106.01 3.60113 -2.91329 0
M  V30 1066 C 106.745 4.38486 -3.69482 0
M  V30 1067 N 106.241 5.20302 -4.57447 0
M  V30 1068 N 108.034 4.33446 -3.57885 0
M  V30 1069 H 100.185 0.806725 -1.96483 0
M  V30 1070 H 102.448 0.417117 -0.851303 0
M  V30 1071 H 102.154 2.05663 -2.85299 0
M  V30 1072 H 102.028 3.36946 -1.6955 0
M  V30 1073 H 104.415 2.81989 -0.869827 0
M  V30 1074 H 104.496 1.51445 -2.0615 0
M  V30 1075 H 104.14 3.22354 -3.92492 0
M  V30 1076 H 104.07 4.51886 -2.70383 0
M  V30 1077 H 106.561 3.01707 -2.27555 0
M  V30 1078 H 106.874 5.77311 -5.13743 0
M  V30 1079 H 105.219 5.19653 -4.61503 0
M  V30 1080 H 108.41 3.68586 -2.88551 0
M  V30 1081 H 108.583 4.94279 -4.19037 0
M  V30 1082 N 101.989 0.842826 1.3317 0
M  V30 1083 C 103.237 0.439577 1.97262 0
M  V30 1084 C 103.558 -1.00548 1.67078 0
M  V30 1085 O 102.828 -1.70098 0.971779 0
M  V30 1086 H 101.408 0.159558 0.72976 0
M  V30 1087 H 104.07 1.07665 1.62463 0
M  V30 1088 H 103.166 0.574886 3.0676 0
M  V30 1089 N 103.467 -1.45747 0.599634 0
M  V30 1090 C 104.4 -2.27547 -0.172552 0
M  V30 1091 C 105.378 -1.36657 -0.881116 0
M  V30 1092 O 106.562 -1.66081 -0.891595 0
M  V30 1093 C 103.689 -3.14829 -1.24903 0
M  V30 1094 C 102.735 -4.21603 -0.644465 0
M  V30 1095 S 103.568 -5.32754 0.541606 0
M  V30 1096 C 104.724 -6.23604 -0.535656 0
M  V30 1097 H 104.957 -2.92691 0.521468 0
M  V30 1098 H 102.49 -1.49473 0.386947 0
M  V30 1099 H 104.448 -3.65675 -1.86527 0
M  V30 1100 H 103.109 -2.48965 -1.91508 0
M  V30 1101 H 102.302 -4.82566 -1.45417 0
M  V30 1102 H 101.904 -3.73857 -0.103534 0
M  V30 1103 H 104.196 -6.62519 -1.41686 0
M  V30 1104 H 105.139 -7.0809 0.0376246 0
M  V30 1105 H 105.547 -5.58103 -0.84741 0
M  V30 1106 N 104.945 -0.338344 -1.53925 0
M  V30 1107 C 105.878 0.563758 -2.21127 0
M  V30 1108 C 106.856 1.10433 -1.19345 0
M  V30 1109 O 108.04 1.16557 -1.48144 0
M  V30 1110 C 105.167 1.77505 -2.88461 0
M  V30 1111 C 104.213 1.3644 -4.04087 0
M  V30 1112 S 105.046 0.388593 -5.34088 0
M  V30 1113 C 106.202 1.60683 -6.04923 0
M  V30 1114 H 106.435 -0.00704546 -2.97299 0
M  V30 1115 H 103.968 -0.122418 -1.53914 0
M  V30 1116 H 105.926 2.46999 -3.27875 0
M  V30 1117 H 104.587 2.31706 -2.12064 0
M  V30 1118 H 103.78 2.26739 -4.50117 0
M  V30 1119 H 103.382 0.748998 -3.66423 0
M  V30 1120 H 105.674 2.54209 -6.28 0
M  V30 1121 H 106.617 1.18842 -6.98056 0
M  V30 1122 H 107.025 1.80052 -5.35015 0
M  V30 1123 N 106.423 1.57458 -0.0668435 0
M  V30 1124 C 107.669 1.93587 0.6043 0
M  V30 1125 C 108.002 0.946722 1.69561 0
M  V30 1126 O 107.277 -0.0248516 1.94484 0
M  V30 1127 C 107.56 3.40014 1.18585 0
M  V30 1128 C 107.413 4.49685 0.101529 0
M  V30 1129 C 108.732 3.87154 2.09284 0
M  V30 1130 H 105.851 0.703958 0.218202 0
M  V30 1131 H 108.493 1.89542 -0.131804 0
M  V30 1132 H 106.643 3.43592 1.81319 0
M  V30 1133 H 108.315 4.5823 -0.531279 0
M  V30 1134 H 106.558 4.30059 -0.568487 0
M  V30 1135 H 107.229 5.49266 0.54874 0
M  V30 1136 H 109.705 3.85551 1.56491 0
M  V30 1137 H 108.581 4.90231 2.46911 0
M  V30 1138 H 108.842 3.2481 2.99918 0
M  V30 1139 N 107.901 -0.206675 1.56239 0
M  V30 1140 C 109.15 -0.926964 1.79138 0
M  V30 1141 C 109.463 -1.84901 0.638043 0
M  V30 1142 O 110.669 -2.60906 0.751033 0
M  V30 1143 C 109.125 -1.6986 3.17294 0
M  V30 1144 C 108.733 -0.821956 4.40395 0
M  V30 1145 C 110.477 -2.40922 3.4951 0
M  V30 1146 C 108.384 -1.59179 5.69575 0
M  V30 1147 H 107.314 -0.349864 0.667915 0
M  V30 1148 H 109.965 -0.180487 1.8261 0
M  V30 1149 H 108.347 -2.48853 3.08039 0
M  V30 1150 H 109.521 -0.0715019 4.60745 0
M  V30 1151 H 107.836 -0.222741 4.15804 0
M  V30 1152 H 110.433 -2.99047 4.43255 0
M  V30 1153 H 110.776 -3.14542 2.72707 0
M  V30 1154 H 111.309 -1.68905 3.60161 0
M  V30 1155 H 108.048 -0.898589 6.49312 0
M  V30 1156 H 107.568 -2.31648 5.53262 0
M  V30 1157 H 109.247 -2.14862 6.10281 0
M  V30 1158 N 109.379 -1.50304 -0.473955 0
M  V30 1159 C 110.327 -1.69482 -1.59307 0
M  V30 1160 C 111.321 -0.560669 -1.59853 0
M  V30 1161 O 112.527 -0.741087 -1.64036 0
M  V30 1162 H 108.902 -0.534892 -0.528578 0
M  V30 1163 H 110.873 -2.63364 -1.40293 0
M  V30 1164 C 109.622 -1.80354 -2.97267 0
M  V30 1165 H 108.945 -2.67012 -2.97564 0
M  V30 1166 H 110.385 -1.97798 -3.75036 0
M  V30 1167 C 108.844 -0.55448 -3.32306 0
M  V30 1168 O 109.374 0.307661 -4.0052 0
M  V30 1169 N 107.58 -0.409354 -2.87702 0
M  V30 1170 H 107.127 -1.11196 -2.32364 0
M  V30 1171 H 107.085 0.425223 -3.11511 0
M  V30 1172 N 110.857 0.726932 -1.39834 0
M  V30 1173 C 112.273 1.03354 -1.21615 0
M  V30 1174 C 112.473 2.01327 -0.08338 0
M  V30 1175 O 111.529 2.46158 0.56238 0
M  V30 1176 C 112.842 1.58811 -2.55342 0
M  V30 1177 C 114.39 1.70851 -2.62257 0
M  V30 1178 C 114.865 2.29716 -3.96225 0
M  V30 1179 N 116.356 2.37116 -3.97907 0
M  V30 1180 C 117.091 2.83619 -4.98345 0
M  V30 1181 N 116.587 3.29958 -6.09179 0
M  V30 1182 N 118.38 2.82901 -4.8572 0
M  V30 1183 H 110.531 0.0773069 -2.12259 0
M  V30 1184 H 112.794 0.0969102 -0.943034 0
M  V30 1185 H 112.5 0.942855 -3.38826 0
M  V30 1186 H 112.374 2.57502 -2.75632 0
M  V30 1187 H 114.761 2.34497 -1.79152 0
M  V30 1188 H 114.842 0.707913 -2.45809 0
M  V30 1189 H 114.486 1.66696 -4.79765 0
M  V30 1190 H 114.416 3.30469 -4.09997 0
M  V30 1191 H 116.907 2.04374 -3.17868 0
M  V30 1192 H 117.22 3.63976 -6.8172 0
M  V30 1193 H 115.565 3.27946 -6.12761 0
M  V30 1194 H 118.756 2.46027 -3.98231 0
M  V30 1195 H 118.929 3.18827 -5.6414 0
M  V30 1196 N 112.336 1.25143 0.95797 0
M  V30 1197 C 113.561 1.12521 1.74223 0
M  V30 1198 C 113.986 -0.317402 1.85403 0
M  V30 1199 O 113.344 -1.2299 1.33204 0
M  V30 1200 C 113.392 1.78062 3.1357 0
M  V30 1201 O 112.496 1.058 3.98598 0
M  V30 1202 H 111.837 0.39304 0.535178 0
M  V30 1203 H 114.367 1.65641 1.201 0
M  V30 1204 H 114.377 1.84213 3.64046 0
M  V30 1205 H 113.052 2.83021 3.04749 0
M  V30 1206 H 111.629 1.07506 3.57067 0
M  V30 1207 N 113.814 -1.1601 1.06675 0
M  V30 1208 C 115.039 -1.91068 0.806706 0
M  V30 1209 C 115.464 -1.77112 -0.633485 0
M  V30 1210 O 114.822 -1.09908 -1.44187 0
M  V30 1211 C 114.87 -3.39655 1.21106 0
M  V30 1212 O 113.974 -4.10893 0.352189 0
M  V30 1213 H 113.315 -0.595125 0.294486 0
M  V30 1214 H 115.845 -1.46955 1.42356 0
M  V30 1215 H 115.855 -3.90434 1.18428 0
M  V30 1216 H 114.53 -3.49132 2.26008 0
M  V30 1217 H 113.107 -3.70285 0.440868 0
M  V30 1218 N 115.292 -0.849877 -1.32721 0
M  V30 1219 C 116.255 -0.296122 -2.27279 0
M  V30 1220 C 117.255 0.541458 -1.5141 0
M  V30 1221 O 118.445 0.353658 -1.70572 0
M  V30 1222 C 115.577 0.581579 -3.35902 0
M  V30 1223 H 116.77 -1.13064 -2.77771 0
M  V30 1224 H 114.323 -0.62383 -1.43311 0
M  V30 1225 H 115.058 1.43809 -2.9067 0
M  V30 1226 H 114.843 -0.0178814 -3.92096 0
M  V30 1227 H 116.333 0.961951 -4.0637 0
M  V30 1228 N 116.77 1.45427 -0.607355 0
M  V30 1229 C 117.995 2.07124 -0.107006 0
M  V30 1230 C 118.42 1.44906 1.19933 0
M  V30 1231 O 117.778 0.541687 1.73019 0
M  V30 1232 C 117.826 3.60595 0.0194119 0
M  V30 1233 O 116.93 3.98285 1.0697 0
M  V30 1234 H 116.271 0.659868 -0.0739597 0
M  V30 1235 H 118.801 1.86683 -0.837297 0
M  V30 1236 H 118.811 4.07419 0.2177 0
M  V30 1237 H 117.486 4.05266 -0.934453 0
M  V30 1238 H 116.063 3.63133 0.847889 0
M  V30 1239 N 118.248 0.346503 1.53744 0
M  V30 1240 C 119.525 -0.304532 1.93215 0
M  V30 1241 C 119.905 -1.67993 1.27834 0
M  V30 1242 O 119.253 -2.24411 0.430352 0
M  V30 1243 C 119.463 -0.373852 3.46992 0
M  V30 1244 C 120.811 -0.62329 4.2 0
M  V30 1245 O 121.835 -0.455847 3.53271 0
M  V30 1246 O 120.694 -0.947879 5.38217 0
M  V30 1247 H 117.788 -0.178318 0.807547 0
M  V30 1248 H 120.334 0.397895 1.64969 0
M  V30 1249 H 119.106 0.591224 3.86808 0
M  V30 1250 H 118.729 -1.12294 3.81413 0
M  V30 1251 N 119.726 -1.57421 0.075193 0
M  V30 1252 C 120.974 -1.93236 -0.591974 0
M  V30 1253 C 121.295 -0.956241 -1.69944 0
M  V30 1254 O 120.565 -0.00494792 -1.95899 0
M  V30 1255 H 119.145 -0.713355 -0.22166 0
M  V30 1256 H 121.807 -1.9444 0.133848 0
M  V30 1257 H 120.903 -2.95131 -1.01509 0
M  V30 1258 N 121.204 0.198386 -1.56346 0
M  V30 1259 C 122.167 1.22952 -1.93431 0
M  V30 1260 C 123.167 1.38611 -0.815092 0
M  V30 1261 O 124.357 1.36479 -1.08255 0
M  V30 1262 C 121.489 2.59946 -2.20546 0
M  V30 1263 H 122.682 0.912626 -2.85677 0
M  V30 1264 H 120.235 0.43977 -1.49986 0
M  V30 1265 H 120.97 2.96696 -1.30927 0
M  V30 1266 H 120.755 2.49953 -3.02102 0
M  V30 1267 H 122.245 3.3431 -2.50253 0
M  V30 1268 N 122.682 1.50554 0.465978 0
M  V30 1269 C 123.912 1.65323 1.23903 0
M  V30 1270 C 124.32 0.338051 1.86155 0
M  V30 1271 O 123.663 -0.690518 1.70228 0
M  V30 1272 C 123.725 2.69048 2.3844 0
M  V30 1273 C 123.389 4.12462 1.96784 0
M  V30 1274 C 124.386 4.98168 1.48745 0
M  V30 1275 C 122.071 4.58407 2.05349 0
M  V30 1276 C 124.065 6.27868 1.0982 0
M  V30 1277 C 121.752 5.88112 1.66035 0
M  V30 1278 C 122.75 6.72668 1.18349 0
M  V30 1279 O 122.438 7.99951 0.795825 0
M  V30 1280 H 122.17 0.558629 0.38067 0
M  V30 1281 H 124.724 1.97561 0.562022 0
M  V30 1282 H 122.954 2.32062 3.09328 0
M  V30 1283 H 124.643 2.72985 3.0039 0
M  V30 1284 H 125.409 4.63885 1.41546 0
M  V30 1285 H 121.288 3.92735 2.41414 0
M  V30 1286 H 124.832 6.93819 0.725293 0
M  V30 1287 H 120.729 6.21914 1.72895 0
M  V30 1288 H 121.497 8.13265 0.924222 0
M  V30 1289 N 124.16 -0.719506 1.40217 0
M  V30 1290 C 125.385 -1.51371 1.4178 0
M  V30 1291 C 125.81 -1.88091 0.0182355 0
M  V30 1292 O 125.168 -1.52997 -0.972707 0
M  V30 1293 C 125.216 -2.768 2.31115 0
M  V30 1294 O 124.32 -3.73349 1.7517 0
M  V30 1295 H 123.661 -0.456529 0.482159 0
M  V30 1296 H 126.191 -0.88644 1.844 0
M  V30 1297 H 126.201 -3.25371 2.46167 0
M  V30 1298 H 124.876 -2.49407 3.3282 0
M  V30 1299 H 123.453 -3.32179 1.69444 0
M  V30 1300 N 125.638 -1.25649 -0.95132 0
M  V30 1301 C 126.548 -1.08073 -2.08224 0
M  V30 1302 C 127.564 -0.0169666 -1.73992 0
M  V30 1303 O 128.74 -0.218593 -2.0021 0
M  V30 1304 C 125.805 -0.704922 -3.39458 0
M  V30 1305 C 124.866 -1.84699 -3.87537 0
M  V30 1306 C 124.099 -1.48902 -5.12508 0
M  V30 1307 O 124.322 -0.386156 -5.69091 0
M  V30 1308 O 123.256 -2.32033 -5.55378 0
M  V30 1309 H 127.082 -2.02924 -2.25954 0
M  V30 1310 H 124.667 -1.04618 -1.06656 0
M  V30 1311 H 126.549 -0.507609 -4.18332 0
M  V30 1312 H 125.224 0.214291 -3.2299 0
M  V30 1313 H 124.131 -2.09919 -3.09653 0
M  V30 1314 H 125.464 -2.74557 -4.08509 0
M  V30 1315 N 127.117 1.15442 -1.07289 0
M  V30 1316 C 128.064 2.20161 -0.692653 0
M  V30 1317 C 129.034 1.63073 0.31564 0
M  V30 1318 O 130.219 1.89725 0.202235 0
M  V30 1319 C 127.359 3.44967 -0.0959509 0
M  V30 1320 C 126.472 4.16256 -1.15564 0
M  V30 1321 C 125.607 5.28609 -0.524011 0
M  V30 1322 C 124.646 5.91715 -1.56653 0
M  V30 1323 N 123.783 6.9554 -0.957531 0
M  V30 1324 H 128.623 2.52037 -1.59002 0
M  V30 1325 H 126.16 1.2378 -0.794798 0
M  V30 1326 H 128.118 4.16341 0.267628 0
M  V30 1327 H 126.748 3.1361 0.764772 0
M  V30 1328 H 125.8 3.43385 -1.6368 0
M  V30 1329 H 127.112 4.59268 -1.94613 0
M  V30 1330 H 126.266 6.06604 -0.108032 0
M  V30 1331 H 125.005 4.86787 0.29825 0
M  V30 1332 H 124.01 5.12433 -1.9923 0
M  V30 1333 H 125.235 6.35614 -2.39107 0
M  V30 1334 H 123.181 6.55814 -0.156162 0
M  V30 1335 H 123.098 7.36977 -1.68526 0
M  V30 1336 H 124.366 7.77435 -0.567032 0
M  V30 1337 N 128.595 0.856903 1.32268 0
M  V30 1338 C 129.843 0.460474 1.96784 0
M  V30 1339 C 130.164 -0.987701 1.68135 0
M  V30 1340 O 129.434 -1.69058 0.989765 0
M  V30 1341 H 128.014 0.167289 0.728027 0
M  V30 1342 H 130.676 1.09383 1.61312 0
M  V30 1343 H 129.772 0.60739 3.06133 0
M  V30 1344 N 130.073 -1.45103 0.615059 0
M  V30 1345 C 131.32 -2.02183 0.113179 0
M  V30 1346 C 131.648 -1.48249 -1.25906 0
M  V30 1347 O 130.903 -0.650265 -1.84581 0
M  V30 1348 C 131.202 -3.57386 0.0318797 0
M  V30 1349 C 130.868 -4.30505 1.34077 0
M  V30 1350 C 129.53 -4.50197 1.69929 0
M  V30 1351 C 131.882 -4.72238 2.20546 0
M  V30 1352 C 129.21 -5.08881 2.91988 0
M  V30 1353 C 131.562 -5.32272 3.41861 0
M  V30 1354 C 130.226 -5.50187 3.77956 0
M  V30 1355 H 129.496 -0.739842 0.0414151 0
M  V30 1356 H 132.143 -1.74073 0.798168 0
M  V30 1357 H 130.448 -3.84817 -0.736409 0
M  V30 1358 H 132.145 -3.99264 -0.372712 0
M  V30 1359 H 128.735 -4.15496 1.05173 0
M  V30 1360 H 132.919 -4.56751 1.94146 0
M  V30 1361 H 128.175 -5.20939 3.2005 0
M  V30 1362 H 132.349 -5.63563 4.09109 0
M  V30 1363 H 129.976 -5.95427 4.72622 0
M  V30 1364 N 131.551 -0.354651 -1.53558 0
M  V30 1365 C 132.781 0.239167 -2.05211 0
M  V30 1366 C 133.189 1.43879 -1.22863 0
M  V30 1367 O 132.532 1.81857 -0.259565 0
M  V30 1368 C 132.594 0.707251 -3.52474 0
M  V30 1369 C 132.258 -0.374212 -4.55465 0
M  V30 1370 C 133.255 -1.22054 -5.0537 0
M  V30 1371 C 130.94 -0.531323 -4.99482 0
M  V30 1372 C 132.934 -2.20942 -5.97882 0
M  V30 1373 C 130.621 -1.52358 -5.91802 0
M  V30 1374 C 131.619 -2.36108 -6.40892 0
M  V30 1375 O 131.307 -3.33643 -7.31394 0
M  V30 1376 H 131.039 0.0479716 -0.674296 0
M  V30 1377 H 133.593 -0.508121 -1.99016 0
M  V30 1378 H 131.823 1.50596 -3.56171 0
M  V30 1379 H 133.512 1.22285 -3.87042 0
M  V30 1380 H 134.278 -1.1103 -4.7212 0
M  V30 1381 H 130.157 0.110738 -4.60867 0
M  V30 1382 H 133.701 -2.86348 -6.36121 0
M  V30 1383 H 129.598 -1.63434 -6.24467 0
M  V30 1384 H 130.366 -3.29244 -7.4936 0
M  V30 1385 N 133.029 1.57378 -0.0835403 0
M  V30 1386 C 133.959 2.1641 0.87686 0
M  V30 1387 C 134.94 1.09429 1.30228 0
M  V30 1388 O 136.125 1.37516 1.37124 0
M  V30 1389 C 133.255 2.73517 2.14022 0
M  V30 1390 C 132.209 3.85769 1.85381 0
M  V30 1391 C 131.535 4.29529 3.18448 0
M  V30 1392 C 132.835 5.09486 1.14984 0
M  V30 1393 H 134.529 2.96914 0.385059 0
M  V30 1394 H 132.075 1.42823 0.18377 0
M  V30 1395 H 134.028 3.13463 2.81636 0
M  V30 1396 H 132.752 1.90252 2.65465 0
M  V30 1397 H 131.411 3.46345 1.20169 0
M  V30 1398 H 131.059 3.43169 3.67755 0
M  V30 1399 H 130.759 5.05204 3.00071 0
M  V30 1400 H 132.283 4.72099 3.8724 0
M  V30 1401 H 133.697 5.46674 1.72687 0
M  V30 1402 H 132.094 5.90515 1.06826 0
M  V30 1403 H 133.164 4.84724 0.130749 0
M  V30 1404 N 134.507 -0.190092 1.56449 0
M  V30 1405 C 135.784 -0.935886 1.71757 0
M  V30 1406 C 136.164 -2.01173 0.639726 0
M  V30 1407 O 135.512 -2.25827 -0.348502 0
M  V30 1408 C 135.722 -1.51775 3.1427 0
M  V30 1409 C 137.07 -1.99794 3.74656 0
M  V30 1410 O 138.094 -1.61607 3.1743 0
M  V30 1411 O 136.953 -2.70079 4.751 0
M  V30 1412 H 134.047 -0.439229 0.700719 0
M  V30 1413 H 136.593 -0.179395 1.68749 0
M  V30 1414 H 135.365 -0.742505 3.84191 0
M  V30 1415 H 134.988 -2.33894 3.21527 0
M  V30 1416 N 135.985 -1.50799 -0.457987 0
M  V30 1417 C 137.233 -1.62121 -1.2067 0
M  V30 1418 C 137.554 -0.329793 -1.92191 0
M  V30 1419 O 136.824 0.653409 -1.84682 0
M  V30 1420 H 135.404 -0.597441 -0.448411 0
M  V30 1421 H 138.066 -1.87637 -0.527096 0
M  V30 1422 H 137.162 -2.43882 -1.94751 0
M  V30 1423 N 137.463 0.71206 -1.40597 0
M  V30 1424 C 138.711 1.46907 -1.38791 0
M  V30 1425 C 139.032 1.94998 0.00780391 0
M  V30 1426 O 138.302 1.70587 0.963174 0
M  V30 1427 H 136.882 0.545043 -0.51082 0
M  V30 1428 H 139.544 0.843882 -1.75683 0
M  V30 1429 H 138.64 2.34021 -2.06496 0
M  V30 1430 N 138.941 1.26152 0.944643 0
M  V30 1431 C 140.187 1.11657 1.69294 0
M  V30 1432 C 140.52 -0.339926 1.91202 0
M  V30 1433 O 139.795 -1.24994 1.49019 0
M  V30 1434 C 140.078 1.88236 3.06984 0
M  V30 1435 C 139.931 3.41772 2.92424 0
M  V30 1436 C 141.25 1.67343 4.07043 0
M  V30 1437 H 138.369 0.407004 0.614424 0
M  V30 1438 H 141.011 1.55106 1.09737 0
M  V30 1439 H 139.161 1.51308 3.57824 0
M  V30 1440 H 140.833 3.88433 2.48832 0
M  V30 1441 H 139.076 3.68974 2.28124 0
M  V30 1442 H 139.747 3.90579 3.90067 0
M  V30 1443 H 142.223 1.99509 3.65151 0
M  V30 1444 H 141.099 2.23346 5.01406 0
M  V30 1445 H 141.36 0.617158 4.37771 0
M  V30 1446 N 140.419 -1.14872 1.07899 0
M  V30 1447 C 141.329 -2.2341 0.715915 0
M  V30 1448 C 142.345 -1.71808 -0.275306 0
M  V30 1449 O 143.521 -2.01039 -0.120545 0
M  V30 1450 C 140.586 -3.46474 0.125168 0
M  V30 1451 C 139.647 -4.13039 1.17034 0
M  V30 1452 C 138.88 -5.30229 0.607688 0
M  V30 1453 O 139.103 -5.675 -0.574497 0
M  V30 1454 O 138.037 -5.86444 1.35526 0
M  V30 1455 H 141.863 -2.56808 1.62121 0
M  V30 1456 H 139.448 -1.22702 0.852322 0
M  V30 1457 H 141.33 -4.20917 -0.201729 0
M  V30 1458 H 140.005 -3.14811 -0.753364 0
M  V30 1459 H 138.912 -3.40493 1.54968 0
M  V30 1460 H 140.245 -4.48796 2.02097 0
M  V30 1461 N 141.898 -0.863906 -1.31812 0
M  V30 1462 C 143.128 -0.485406 -2.00817 0
M  V30 1463 C 143.536 0.925007 -1.65046 0
M  V30 1464 O 142.879 1.61653 -0.872574 0
M  V30 1465 C 142.941 -0.555589 -3.55181 0
M  V30 1466 C 142.605 -1.92654 -4.14407 0
M  V30 1467 C 143.602 -2.89324 -4.31958 0
M  V30 1468 C 141.287 -2.2262 -4.50273 0
M  V30 1469 C 143.281 -4.14108 -4.84555 0
M  V30 1470 C 140.968 -3.47654 -5.02573 0
M  V30 1471 C 141.966 -4.43214 -5.19664 0
M  V30 1472 O 141.654 -5.66033 -5.70843 0
M  V30 1473 H 141.386 -0.188224 -0.649267 0
M  V30 1474 H 143.94 -1.16514 -1.69156 0
M  V30 1475 H 142.17 0.181037 -3.86276 0
M  V30 1476 H 143.859 -0.19138 -4.05449 0
M  V30 1477 H 144.625 -2.6748 -4.04573 0
M  V30 1478 H 140.504 -1.4902 -4.3625 0
M  V30 1479 H 144.048 -4.88703 -4.9781 0
M  V30 1480 H 139.945 -3.69345 -5.29391 0
M  V30 1481 H 140.713 -5.6812 -5.89222 0
M  V30 1482 N 143.376 1.44774 -0.622745 0
M  V30 1483 C 144.323 2.30635 0.0871679 0
M  V30 1484 C 145.293 1.42994 0.845097 0
M  V30 1485 O 146.478 1.71907 0.827812 0
M  V30 1486 C 143.618 3.28144 1.06844 0
M  V30 1487 C 142.731 4.30888 0.309809 0
M  V30 1488 C 141.866 5.15494 1.28215 0
M  V30 1489 C 140.905 6.09953 0.512198 0
M  V30 1490 N 140.042 6.87287 1.43458 0
M  V30 1491 H 144.882 2.90803 -0.650974 0
M  V30 1492 H 142.419 1.43286 -0.33281 0
M  V30 1493 H 144.377 3.83157 1.65066 0
M  V30 1494 H 143.007 2.69695 1.77382 0
M  V30 1495 H 142.059 3.78414 -0.388181 0
M  V30 1496 H 143.371 4.97955 -0.290254 0
M  V30 1497 H 142.525 5.74983 1.93596 0
M  V30 1498 H 141.264 4.48481 1.91614 0
M  V30 1499 H 140.269 5.49581 -0.155151 0
M  V30 1500 H 141.494 6.78999 -0.116958 0
M  V30 1501 H 139.44 6.2295 2.05594 0
M  V30 1502 H 139.357 7.50763 0.888335 0
M  V30 1503 H 140.625 7.51306 2.07749 0
M  V30 1504 N 144.854 0.36279 1.53368 0
M  V30 1505 C 146.084 -0.228281 2.05335 0
M  V30 1506 C 146.492 -1.43226 1.23625 0
M  V30 1507 O 145.835 -1.81717 0.269206 0
M  V30 1508 C 145.897 -0.688549 3.52845 0
M  V30 1509 C 145.561 0.398362 4.5526 0
M  V30 1510 C 146.558 1.24732 5.04716 0
M  V30 1511 C 144.243 0.557805 4.99193 0
M  V30 1512 C 146.237 2.2411 5.96702 0
M  V30 1513 C 143.924 1.55495 5.90986 0
M  V30 1514 C 144.922 2.39503 6.39631 0
M  V30 1515 O 144.61 3.37517 7.29615 0
M  V30 1516 H 144.342 -0.044395 0.674541 0
M  V30 1517 H 146.896 0.518668 1.98744 0
M  V30 1518 H 145.126 -1.48706 3.56964 0
M  V30 1519 H 146.815 -1.20231 3.87685 0
M  V30 1520 H 147.581 1.13532 4.71525 0
M  V30 1521 H 143.46 -0.0862959 4.60919 0
M  V30 1522 H 147.004 2.89718 6.34594 0
M  V30 1523 H 142.901 1.66744 6.23592 0
M  V30 1524 H 143.669 3.33213 7.47604 0
M  V30 1525 N 146.332 -1.57332 0.0918853 0
M  V30 1526 C 147.557 -1.98995 -0.584442 0
M  V30 1527 C 147.982 -0.970528 -1.61128 0
M  V30 1528 O 147.34 0.0613904 -1.81196 0
M  V30 1529 C 147.388 -3.39636 -1.21161 0
M  V30 1530 O 146.492 -3.40447 -2.32744 0
M  V30 1531 H 145.833 -0.647165 -0.148572 0
M  V30 1532 H 148.363 -2.03873 0.172347 0
M  V30 1533 H 148.373 -3.7726 -1.55367 0
M  V30 1534 H 147.048 -4.13356 -0.459313 0
M  V30 1535 H 145.625 -3.14614 -2.0018 0
M  V30 1536 N 147.81 0.181792 -1.56548 0
M  V30 1537 C 149.056 0.901431 -1.81665 0
M  V30 1538 C 149.389 1.82347 -0.668075 0
M  V30 1539 O 148.664 1.91669 0.330615 0
M  V30 1540 C 148.947 1.70618 -3.17115 0
M  V30 1541 C 148.8 0.807964 -4.42484 0
M  V30 1542 C 150.119 2.67605 -3.49393 0
M  V30 1543 H 147.238 0.32627 -0.660846 0
M  V30 1544 H 149.88 0.168134 -1.89255 0
M  V30 1545 H 148.03 2.33133 -3.10775 0
M  V30 1546 H 149.702 0.19649 -4.60881 0
M  V30 1547 H 147.945 0.115411 -4.33646 0
M  V30 1548 H 148.616 1.40632 -5.33785 0
M  V30 1549 H 151.092 2.15218 -3.56118 0
M  V30 1550 H 149.968 3.20985 -4.45264 0
M  V30 1551 H 150.229 3.47298 -2.73563 0
M  V30 1552 N 149.288 1.51039 0.449983 0
M  V30 1553 C 150.535 1.63081 1.20045 0
M  V30 1554 C 150.863 0.341024 1.91487 0
M  V30 1555 O 150.118 -0.674276 1.83717 0
M  V30 1556 C 150.417 2.77556 2.25161 0
M  V30 1557 C 150.083 4.17289 1.70823 0
M  V30 1558 C 148.745 4.55305 1.55725 0
M  V30 1559 C 151.097 5.04536 1.3074 0
M  V30 1560 C 148.425 5.78287 0.989999 0
M  V30 1561 C 150.777 6.28085 0.754482 0
M  V30 1562 C 149.441 6.64885 0.590308 0
M  V30 1563 H 148.711 0.596755 0.439277 0
M  V30 1564 H 151.358 1.85037 0.49333 0
M  V30 1565 H 149.663 2.49771 3.01863 0
M  V30 1566 H 151.36 2.84073 2.83026 0
M  V30 1567 H 147.95 3.8731 1.83546 0
M  V30 1568 H 152.134 4.75782 1.41229 0
M  V30 1569 H 147.39 6.05456 0.850451 0
M  V30 1570 H 151.564 6.95038 0.435324 0
M  V30 1571 H 149.191 7.60055 0.14862 0
M  V30 1572 N 150.766 -0.704594 1.40972 0
M  V30 1573 C 152.012 -1.46675 1.40051 0
M  V30 1574 C 152.345 -1.94199 0.00641102 0
M  V30 1575 O 151.62 -1.68916 -0.964235 0
M  V30 1576 C 151.903 -2.68505 2.39952 0
M  V30 1577 C 151.756 -2.26805 3.88432 0
M  V30 1578 C 153.075 -3.70686 2.37233 0
M  V30 1579 H 150.194 -0.532015 0.510028 0
M  V30 1580 H 152.836 -0.803255 1.72185 0
M  V30 1581 H 150.986 -3.25114 2.1268 0
M  V30 1582 H 152.658 -1.75592 4.26574 0
M  V30 1583 H 150.901 -1.58685 4.03734 0
M  V30 1584 H 151.572 -3.14181 4.53866 0
M  V30 1585 H 154.048 -3.23731 2.61415 0
M  V30 1586 H 152.924 -4.53553 3.09162 0
M  V30 1587 H 153.185 -4.19754 1.38777 0
M  V30 1588 N 152.244 -1.26651 -0.937939 0
M  V30 1589 C 153.191 -1.0849 -2.03712 0
M  V30 1590 C 154.161 0.011033 -1.66096 0
M  V30 1591 O 155.346 -0.149353 -1.90215 0
M  V30 1592 C 152.486 -0.72735 -3.37348 0
M  V30 1593 C 151.599 -1.89986 -3.87981 0
M  V30 1594 C 150.734 -1.48513 -5.10017 0
M  V30 1595 C 149.773 -2.62575 -5.5292 0
M  V30 1596 N 148.91 -2.21762 -6.66158 0
M  V30 1597 H 153.75 -2.02551 -2.18579 0
M  V30 1598 H 151.287 -1.00844 -1.07093 0
M  V30 1599 H 153.245 -0.50092 -4.14182 0
M  V30 1600 H 151.875 0.176298 -3.22318 0
M  V30 1601 H 150.927 -2.23913 -3.07518 0
M  V30 1602 H 152.239 -2.75586 -4.15757 0
M  V30 1603 H 151.393 -1.21934 -5.94321 0
M  V30 1604 H 150.132 -0.60009 -4.83994 0
M  V30 1605 H 149.137 -2.8988 -4.67172 0
M  V30 1606 H 150.362 -3.51685 -5.80943 0
M  V30 1607 H 148.308 -1.35696 -6.41812 0
M  V30 1608 H 148.225 -3.00903 -6.93537 0
M  V30 1609 H 149.493 -1.98403 -7.53828 0
M  V30 1610 N 153.722 1.14298 -1.08507 0
M  V30 1611 C 154.672 2.17449 -0.685569 0
M  V30 1612 C 155.656 1.58167 0.295315 0
M  V30 1613 O 156.848 1.76675 0.107172 0
M  V30 1614 C 153.977 3.43161 -0.0975318 0
M  V30 1615 C 153.063 4.09471 -1.10426 0
M  V30 1616 N 153.454 4.51089 -2.28806 0
M  V30 1617 C 151.752 4.35976 -0.940258 0
M  V30 1618 C 152.453 5.02654 -2.9277 0
M  V30 1619 N 151.429 4.96927 -2.20374 0
M  V30 1620 H 155.231 2.47369 -1.587 0
M  V30 1621 H 152.745 1.30992 -0.959936 0
M  V30 1622 H 154.742 4.16388 0.20664 0
M  V30 1623 H 153.402 3.14719 0.798872 0
M  V30 1624 H 154.413 4.44097 -2.66455 0
M  V30 1625 H 151.09 4.17386 -0.0977441 0
M  V30 1626 H 152.48 5.44723 -3.93352 0
M  V30 1627 N 155.201 0.870884 1.31352 0
M  V30 1628 C 156.149 0.316445 2.30437 0
M  V30 1629 C 157.143 -0.568965 1.59559 0
M  V30 1630 O 158.349 -0.454964 1.74155 0
M  V30 1631 H 154.724 0.0836521 0.747333 0
M  V30 1632 H 156.695 1.16606 2.74673 0
M  V30 1633 C 155.444 -0.46635 3.44558 0
M  V30 1634 H 154.767 0.205687 3.99271 0
M  V30 1635 H 156.207 -0.819614 4.16003 0
M  V30 1636 C 154.666 -1.65797 2.9328 0
M  V30 1637 O 155.196 -2.75728 2.92125 0
M  V30 1638 N 153.402 -1.49041 2.4947 0
M  V30 1639 H 152.949 -0.59612 2.50608 0
M  V30 1640 H 152.907 -2.28911 2.15516 0
M  V30 1641 N 156.679 -1.44442 0.630414 0
M  V30 1642 C 157.927 -2.01653 0.134351 0
M  V30 1643 C 158.248 -1.49836 -1.24796 0
M  V30 1644 O 157.518 -0.701684 -1.82902 0
M  V30 1645 H 156.098 -0.74554 0.0466769 0
M  V30 1646 H 158.76 -1.76952 0.816955 0
M  V30 1647 H 157.856 -3.11935 0.101498 0
M  V30 1648 N 158.157 -0.370918 -1.53173 0
M  V30 1649 C 159.385 0.217704 -2.05751 0
M  V30 1650 C 159.8 1.42018 -1.24404 0
M  V30 1651 O 159.157 1.80245 -0.286033 0
M  V30 1652 C 159.208 0.605954 -3.56385 0
M  V30 1653 O 158.929 -0.548734 -4.3465 0
M  V30 1654 C 160.43 1.2524 -4.25241 0
M  V30 1655 H 157.65 0.0371659 -0.66997 0
M  V30 1656 H 160.194 -0.530832 -1.9749 0
M  V30 1657 H 158.349 1.3044 -3.6478 0
M  V30 1658 H 158.763 -0.23376 -5.23979 0
M  V30 1659 H 160.237 1.47458 -5.3194 0
M  V30 1660 H 160.714 2.2143 -3.79296 0
M  V30 1661 H 161.32 0.595233 -4.21114 0
M  V30 1662 N 159.635 1.57281 -0.100228 0
M  V30 1663 C 160.883 1.94153 0.561157 0
M  V30 1664 C 161.204 0.983157 1.68401 0
M  V30 1665 O 160.474 0.0361132 1.95867 0
M  V30 1666 H 159.054 0.716791 0.210283 0
M  V30 1667 H 161.716 1.94202 -0.164765 0
M  V30 1668 H 160.812 2.96709 0.968008 0
M  V30 1669 N 161.113 -0.173488 1.56642 0
M  V30 1670 C 162.341 -0.906095 1.86004 0
M  V30 1671 C 162.756 -1.75921 0.685355 0
M  V30 1672 O 162.113 -1.79198 -0.345578 0
M  V30 1673 C 162.164 -1.78462 3.14378 0
M  V30 1674 O 161.885 -0.965914 4.27319 0
M  V30 1675 C 163.386 -2.62707 3.57071 0
M  V30 1676 H 160.606 -0.263341 0.617165 0
M  V30 1677 H 163.15 -0.174236 2.03756 0
M  V30 1678 H 161.305 -2.46984 2.98459 0
M  V30 1679 H 161.719 -1.56655 5.00559 0
M  V30 1680 H 163.193 -3.19969 4.49804 0
M  V30 1681 H 163.67 -3.37472 2.81086 0
M  V30 1682 H 164.276 -1.99521 3.75595 0
M  V30 1683 N 162.591 -1.51276 -0.441967 0
M  V30 1684 C 163.501 -1.75092 -1.56141 0
M  V30 1685 C 164.517 -0.634963 -1.62001 0
M  V30 1686 O 165.693 -0.916686 -1.79329 0
M  V30 1687 C 162.758 -1.86666 -2.92158 0
M  V30 1688 C 161.819 -3.10506 -2.96453 0
M  V30 1689 C 161.052 -3.21519 -4.25982 0
M  V30 1690 O 161.275 -2.38586 -5.18105 0
M  V30 1691 O 160.209 -4.14465 -4.36466 0
M  V30 1692 H 164.035 -2.70044 -1.38961 0
M  V30 1693 H 161.62 -1.35722 -0.624499 0
M  V30 1694 H 163.502 -1.96292 -3.72891 0
M  V30 1695 H 162.177 -0.949014 -3.09476 0
M  V30 1696 H 161.084 -3.06363 -2.14692 0
M  V30 1697 H 162.417 -4.01945 -2.84079 0
M  V30 1698 N 164.069 0.697108 -1.41344 0
M  V30 1699 C 165.297 1.48593 -1.43972 0
M  V30 1700 C 165.712 1.88747 -0.0445612 0
M  V30 1701 O 165.069 1.56682 0.935785 0
M  V30 1702 C 165.12 2.74946 -2.34706 0
M  V30 1703 O 164.841 2.36484 -3.68791 0
M  V30 1704 C 166.342 3.687 -2.46121 0
M  V30 1705 H 163.562 0.457964 -0.490418 0
M  V30 1706 H 166.106 0.858429 -1.8561 0
M  V30 1707 H 164.261 3.33937 -1.9638 0
M  V30 1708 H 164.675 3.17918 -4.17167 0
M  V30 1709 H 166.149 4.54145 -3.13777 0
M  V30 1710 H 166.626 4.13081 -1.49199 0
M  V30 1711 H 167.232 3.15613 -2.85076 0
M  V30 1712 N 165.547 1.27147 0.931209 0
M  V30 1713 C 166.794 1.13278 1.67852 0
M  V30 1714 C 167.122 -0.32204 1.91815 0
M  V30 1715 O 166.377 -1.25224 1.50391 0
M  V30 1716 C 166.676 1.8579 3.05314 0
M  V30 1717 C 166.342 3.35657 3.01073 0
M  V30 1718 C 165.004 3.76536 2.99623 0
M  V30 1719 C 167.356 4.31299 2.92627 0
M  V30 1720 C 164.684 5.11426 2.87506 0
M  V30 1721 C 167.036 5.66242 2.82051 0
M  V30 1722 C 165.7 6.06418 2.7895 0
M  V30 1723 H 164.97 0.414515 0.614214 0
M  V30 1724 H 167.617 1.57712 1.08624 0
M  V30 1725 H 165.922 1.33854 3.68226 0
M  V30 1726 H 167.619 1.72491 3.62005 0
M  V30 1727 H 164.209 3.03146 3.02986 0
M  V30 1728 H 168.393 4.00692 2.92848 0
M  V30 1729 H 163.649 5.41705 2.83489 0
M  V30 1730 H 167.823 6.40026 2.74481 0
M  V30 1731 H 165.45 7.10895 2.69318 0
M  V30 1732 N 167.025 -1.13721 1.09112 0
M  V30 1733 C 167.972 -2.19031 0.727591 0
M  V30 1734 C 168.942 -1.63555 -0.289656 0
M  V30 1735 O 170.127 -1.90023 -0.172026 0
M  V30 1736 C 167.267 -3.4477 0.15082 0
M  V30 1737 C 166.38 -4.14365 1.22172 0
M  V30 1738 C 165.515 -5.27709 0.608042 0
M  V30 1739 C 164.554 -5.89147 1.66047 0
M  V30 1740 N 163.691 -6.93929 1.06806 0
M  V30 1741 H 168.531 -2.49475 1.62991 0
M  V30 1742 H 166.068 -1.22499 0.81439 0
M  V30 1743 H 168.026 -4.16714 -0.201358 0
M  V30 1744 H 166.656 -3.14787 -0.714783 0
M  V30 1745 H 165.708 -3.40737 1.69122 0
M  V30 1746 H 167.02 -4.56114 2.01895 0
M  V30 1747 H 166.174 -6.06355 0.204523 0
M  V30 1748 H 164.913 -4.872 -0.220769 0
M  V30 1749 H 163.918 -5.09198 2.07357 0
M  V30 1750 H 165.143 -6.31729 2.49189 0
M  V30 1751 H 163.089 -6.55483 0.260476 0
M  V30 1752 H 163.006 -7.34202 1.8023 0
M  V30 1753 H 164.274 -7.76434 0.690644 0
M  V30 1754 N 168.503 -0.877838 -1.30888 0
M  V30 1755 C 169.433 -0.35534 -2.3078 0
M  V30 1756 C 170.414 0.557994 -1.60687 0
M  V30 1757 O 171.599 0.473355 -1.88343 0
M  V30 1758 C 168.729 0.437221 -3.44537 0
M  V30 1759 C 167.683 -0.383715 -4.26276 0
M  V30 1760 C 167.009 0.535014 -5.32017 0
M  V30 1761 C 168.309 -1.62201 -4.96476 0
M  V30 1762 H 170.003 -1.19007 -2.74732 0
M  V30 1763 H 167.549 -0.573698 -1.32078 0
M  V30 1764 H 169.502 0.813334 -4.13477 0
M  V30 1765 H 168.226 1.30553 -2.99372 0
M  V30 1766 H 166.885 -0.741874 -3.59015 0
M  V30 1767 H 166.533 1.40083 -4.831 0
M  V30 1768 H 166.233 -0.0104211 -5.87599 0
M  V30 1769 H 167.757 0.907799 -6.03814 0
M  V30 1770 H 169.171 -1.31689 -5.5797 0
M  V30 1771 H 167.568 -2.10711 -5.61891 0
M  V30 1772 H 168.638 -2.37044 -4.23011 0
M  V30 1773 N 169.982 1.44106 -0.638065 0
M  V30 1774 C 171.207 2.0685 -0.150916 0
M  V30 1775 C 171.632 1.47417 1.16833 0
M  V30 1776 O 170.99 0.578264 1.71831 0
M  V30 1777 C 171.038 3.60555 -0.05708 0
M  V30 1778 O 170.142 4.00465 0.984972 0
M  V30 1779 H 169.483 0.658151 -0.0879399 0
M  V30 1780 H 172.013 1.84865 -0.876707 0
M  V30 1781 H 172.023 4.07789 0.131232 0
M  V30 1782 H 170.698 4.03193 -1.02021 0
M  V30 1783 H 169.275 3.64849 0.770672 0
M  V30 1784 N 171.46 0.379036 1.52974 0
M  V30 1785 C 172.706 -0.206727 2.01744 0
M  V30 1786 C 173.039 -1.47314 1.26539 0
M  V30 1787 O 172.314 -1.91084 0.362903 0
M  V30 1788 C 172.597 -0.485066 3.56818 0
M  V30 1789 C 172.45 0.795919 4.42702 0
M  V30 1790 C 173.769 -1.28003 4.21074 0
M  V30 1791 H 170.888 -0.0736607 0.73331 0
M  V30 1792 H 173.53 0.506581 1.83122 0
M  V30 1793 H 171.68 -1.09272 3.72816 0
M  V30 1794 H 173.352 1.43307 4.38476 0
M  V30 1795 H 171.595 1.41344 4.10127 0
M  V30 1796 H 172.266 0.555947 5.49193 0
M  V30 1797 H 174.742 -0.765867 4.08991 0
M  V30 1798 H 173.618 -1.44352 5.29579 0
M  V30 1799 H 173.879 -2.29236 3.78026 0
M  V30 1800 N 172.938 -1.57226 0.108567 0
M  V30 1801 C 174.163 -1.99604 -0.563303 0
M  V30 1802 C 174.588 -0.987563 -1.6009 0
M  V30 1803 O 173.946 0.0421687 -1.81251 0
M  V30 1804 C 173.994 -3.40902 -1.17552 0
M  V30 1805 O 173.098 -3.42896 -2.2912 0
M  V30 1806 H 172.439 -0.648704 -0.1417 0
M  V30 1807 H 174.969 -2.03679 0.193961 0
M  V30 1808 H 174.979 -3.78886 -1.51357 0
M  V30 1809 H 173.654 -4.1382 -0.415445 0
M  V30 1810 H 172.231 -3.1672 -1.96832 0
M  V30 1811 N 174.416 0.165178 -1.56732 0
M  V30 1812 C 175.646 0.894919 -1.86212 0
M  V30 1813 C 176.054 1.76066 -0.692627 0
M  V30 1814 O 175.397 1.80387 0.347303 0
M  V30 1815 C 175.459 1.8174 -3.10179 0
M  V30 1816 C 175.123 1.13064 -4.42793 0
M  V30 1817 C 176.12 0.493169 -5.17556 0
M  V30 1818 C 173.805 1.12556 -4.89527 0
M  V30 1819 C 175.799 -0.140209 -6.37246 0
M  V30 1820 C 173.486 0.488366 -6.09145 0
M  V30 1821 C 174.484 -0.143411 -6.82849 0
M  V30 1822 O 174.172 -0.77055 -8.00199 0
M  V30 1823 H 173.904 0.265114 -0.621844 0
M  V30 1824 H 176.458 0.168242 -2.0471 0
M  V30 1825 H 174.688 2.58455 -2.87642 0
M  V30 1826 H 176.377 2.4175 -3.26055 0
M  V30 1827 H 177.143 0.489023 -4.82528 0
M  V30 1828 H 173.022 1.60672 -4.32094 0
M  V30 1829 H 176.566 -0.633932 -6.94714 0
M  V30 1830 H 172.463 0.490116 -6.43637 0
M  V30 1831 H 173.231 -0.670408 -8.1575 0
M  V30 1832 N 175.894 1.51508 0.433938 0
M  V30 1833 C 176.824 1.76016 1.53429 0
M  V30 1834 C 177.805 0.610112 1.58782 0
M  V30 1835 O 178.99 0.853177 1.74455 0
M  V30 1836 C 176.12 1.88831 2.9148 0
M  V30 1837 C 175.074 3.04288 3.00987 0
M  V30 1838 C 174.4 3.0229 4.4105 0
M  V30 1839 C 175.7 4.44193 2.74754 0
M  V30 1840 H 177.394 2.68152 1.33171 0
M  V30 1841 H 174.94 1.29035 0.639214 0
M  V30 1842 H 176.893 2.04559 3.6842 0
M  V30 1843 H 175.617 0.933455 3.12976 0
M  V30 1844 H 174.276 2.8827 2.26486 0
M  V30 1845 H 173.924 2.04576 4.59519 0
M  V30 1846 H 173.624 3.79822 4.4834 0
M  V30 1847 H 175.148 3.20116 5.1996 0
M  V30 1848 H 176.562 4.60544 3.41426 0
M  V30 1849 H 174.959 5.23457 2.9345 0
M  V30 1850 H 176.029 4.53996 1.70339 0
M  V30 1851 N 177.372 -0.689602 1.41712 0
M  V30 1852 C 178.649 -1.44457 1.31877 0
M  V30 1853 C 179.029 -2.11039 -0.0508537 0
M  V30 1854 O 178.377 -2.02138 -1.06547 0
M  V30 1855 C 178.587 -2.45913 2.47645 0
M  V30 1856 C 179.935 -3.10991 2.89084 0
M  V30 1857 O 180.959 -2.56238 2.47428 0
M  V30 1858 O 179.818 -4.10174 3.61137 0
M  V30 1859 H 176.912 -0.64362 0.519309 0
M  V30 1860 H 179.458 -0.719576 1.53689 0
M  V30 1861 H 178.23 -1.95409 3.39015 0
M  V30 1862 H 177.853 -3.25913 2.27742 0
M  V30 1863 N 178.85 -1.27639 -0.924453 0
M  V30 1864 C 180.075 -1.17101 -1.71179 0
M  V30 1865 C 180.5 0.268134 -1.86179 0
M  V30 1866 O 179.858 1.19415 -1.36418 0
M  V30 1867 C 179.906 -1.86313 -3.08739 0
M  V30 1868 O 179.01 -1.16331 -3.95652 0
M  V30 1869 H 178.351 -0.407091 -0.524569 0
M  V30 1870 H 180.881 -1.68767 -1.15666 0
M  V30 1871 H 180.891 -1.938 -3.59034 0
M  V30 1872 H 179.566 -2.91001 -2.97138 0
M  V30 1873 H 178.143 -1.16935 -3.54091 0
M  V30 1874 N 180.328 1.1314 -1.09713 0
M  V30 1875 C 181.238 2.22242 -0.751367 0
M  V30 1876 C 182.254 1.72224 0.247938 0
M  V30 1877 O 183.43 2.01205 0.0885463 0
M  V30 1878 C 180.495 3.46231 -0.180274 0
M  V30 1879 C 179.556 4.11125 -1.2359 0
M  V30 1880 C 178.789 5.29195 -0.691966 0
M  V30 1881 O 179.012 5.68342 0.48414 0
M  V30 1882 O 177.946 5.84214 -1.44838 0
M  V30 1883 H 181.772 2.54197 -1.66186 0
M  V30 1884 H 179.357 1.21331 -0.871735 0
M  V30 1885 H 181.239 4.21185 0.134739 0
M  V30 1886 H 179.914 3.1597 0.703185 0
M  V30 1887 H 178.821 3.37985 -1.60366 0
M  V30 1888 H 180.154 4.45524 -2.09211 0
M  V30 1889 N 181.806 0.884767 1.30421 0
M  V30 1890 C 183.034 0.518044 2.0031 0
M  V30 1891 C 183.449 -0.893408 1.66324 0
M  V30 1892 O 182.806 -1.5875 0.900262 0
M  V30 1893 C 182.857 0.682997 3.54989 0
M  V30 1894 O 182.578 2.03888 3.87764 0
M  V30 1895 C 184.079 0.31924 4.42149 0
M  V30 1896 H 181.299 0.200265 0.640418 0
M  V30 1897 H 183.843 1.19001 1.6631 0
M  V30 1898 H 181.998 0.0584052 3.87356 0
M  V30 1899 H 182.412 2.05735 4.82466 0
M  V30 1900 H 183.886 0.485555 5.4986 0
M  V30 1901 H 184.363 -0.742717 4.32875 0
M  V30 1902 H 184.969 0.920147 4.15227 0
M  V30 1903 N 183.284 -1.43765 0.645699 0
M  V30 1904 C 184.194 -2.34544 -0.0512957 0
M  V30 1905 C 185.21 -1.53455 -0.82022 0
M  V30 1906 O 186.386 -1.86133 -0.769176 0
M  V30 1907 C 183.451 -3.31636 -1.01087 0
M  V30 1908 C 182.512 -4.2863 -0.239712 0
M  V30 1909 C 181.745 -5.21084 -1.15358 0
M  V30 1910 O 181.968 -5.1779 -2.39269 0
M  V30 1911 O 180.902 -5.98593 -0.630038 0
M  V30 1912 H 184.728 -2.95624 0.695718 0
M  V30 1913 H 182.313 -1.43781 0.405882 0
M  V30 1914 H 184.195 -3.9136 -1.56254 0
M  V30 1915 H 182.87 -2.73069 -1.73824 0
M  V30 1916 H 181.777 -3.72408 0.355356 0
M  V30 1917 H 183.11 -4.90157 0.447936 0
M  V30 1918 N 184.763 -0.387143 -1.52771 0
M  V30 1919 C 185.673 0.456442 -2.30117 0
M  V30 1920 C 186.689 1.07342 -1.36944 0
M  V30 1921 O 187.865 1.07971 -1.70013 0
M  V30 1922 C 184.93 1.56957 -3.09136 0
M  V30 1923 C 183.991 0.977916 -4.18014 0
M  V30 1924 C 183.224 2.038 -4.93256 0
M  V30 1925 O 183.447 3.25271 -4.68567 0
M  V30 1926 O 182.381 1.6565 -5.78657 0
M  V30 1927 H 186.207 -0.17359 -3.03203 0
M  V30 1928 H 183.792 -0.150919 -1.48636 0
M  V30 1929 H 185.674 2.21628 -3.58412 0
M  V30 1930 H 184.349 2.18461 -2.38865 0
M  V30 1931 H 183.256 0.294525 -3.72939 0
M  V30 1932 H 184.589 0.407128 -4.90513 0
M  V30 1933 N 186.241 1.57166 -0.116904 0
M  V30 1934 C 187.151 2.18745 0.847812 0
M  V30 1935 C 188.167 1.163 1.29423 0
M  V30 1936 O 189.343 1.48761 1.35765 0
M  V30 1937 C 186.408 2.77307 2.0809 0
M  V30 1938 C 185.469 3.94781 1.68661 0
M  V30 1939 C 184.702 4.50541 2.86091 0
M  V30 1940 O 184.925 4.05202 4.01456 0
M  V30 1941 O 183.859 5.41256 2.63298 0
M  V30 1942 H 187.685 3.01632 0.353778 0
M  V30 1943 H 185.27 1.49005 0.108599 0
M  V30 1944 H 187.152 3.14647 2.80313 0
M  V30 1945 H 185.827 1.97452 2.56504 0
M  V30 1946 H 184.734 3.62214 0.935518 0
M  V30 1947 H 186.067 4.76065 1.24991 0
M  V30 1948 N 187.719 -0.156864 1.56817 0
M  V30 1949 C 188.667 -1.21319 1.98455 0
M  V30 1950 C 189.661 -1.45025 0.875444 0
M  V30 1951 O 190.867 -1.45435 1.0606 0
M  V30 1952 H 187.242 -0.408142 0.631605 0
M  V30 1953 H 189.213 -0.835244 2.86472 0
M  V30 1954 C 187.962 -2.54148 2.37285 0
M  V30 1955 H 187.285 -2.36733 3.22176 0
M  V30 1956 H 188.725 -3.26712 2.70251 0
M  V30 1957 C 187.184 -3.13967 1.22173 0
M  V30 1958 O 187.714 -3.98357 0.517149 0
M  V30 1959 N 185.92 -2.7327 0.988536 0
M  V30 1960 H 185.467 -2.04744 1.56326 0
M  V30 1961 H 185.425 -3.13628 0.220209 0
M  V30 1962 N 189.197 -1.51736 -0.425897 0
M  V30 1963 C 190.144 -1.73875 -1.51776 0
M  V30 1964 C 191.114 -0.580702 -1.55618 0
M  V30 1965 O 192.299 -0.81641 -1.72451 0
M  V30 1966 C 189.439 -1.88012 -2.89388 0
M  V30 1967 C 188.552 -3.15606 -2.94986 0
M  V30 1968 C 187.687 -3.20271 -4.23793 0
M  V30 1969 C 186.726 -4.42134 -4.23302 0
M  V30 1970 N 185.863 -4.44284 -5.43651 0
M  V30 1971 H 190.703 -2.67071 -1.32201 0
M  V30 1972 H 188.24 -1.32351 -0.642008 0
M  V30 1973 H 190.198 -1.9419 -3.69251 0
M  V30 1974 H 188.828 -0.98213 -3.07496 0
M  V30 1975 H 187.88 -3.18681 -2.07717 0
M  V30 1976 H 189.192 -4.05486 -2.90486 0
M  V30 1977 H 188.346 -3.25428 -5.12036 0
M  V30 1978 H 187.085 -2.28299 -4.30965 0
M  V30 1979 H 186.09 -4.3714 -3.3345 0
M  V30 1980 H 187.315 -5.35382 -4.17783 0
M  V30 1981 H 185.261 -3.55188 -5.51523 0
M  V30 1982 H 185.178 -5.27988 -5.41078 0
M  V30 1983 H 186.446 -4.53649 -6.33895 0
M  V30 1984 N 190.675 0.682077 -1.42076 0
M  V30 1985 C 191.585 1.82535 -1.47371 0
M  V30 1986 C 192.601 1.7017 -0.363079 0
M  V30 1987 O 193.777 1.91848 -0.612875 0
M  V30 1988 C 190.842 3.18624 -1.36674 0
M  V30 1989 C 189.903 3.42999 -2.58167 0
M  V30 1990 C 189.136 4.72595 -2.4797 0
M  V30 1991 O 189.359 5.50006 -1.5116 0
M  V30 1992 O 188.293 4.98054 -3.37974 0
M  V30 1993 H 192.119 1.81023 -2.43853 0
M  V30 1994 H 189.704 0.836887 -1.2376 0
M  V30 1995 H 191.586 3.99847 -1.33043 0
M  V30 1996 H 190.261 3.20789 -0.433138 0
M  V30 1997 H 189.168 2.61653 -2.67373 0
M  V30 1998 H 190.501 3.45659 -3.50401 0
M  V30 1999 N 192.153 1.28127 0.917671 0
M  V30 2000 C 193.399 1.15223 1.66888 0
M  V30 2001 C 193.732 -0.299293 1.9188 0
M  V30 2002 O 193.007 -1.21805 1.51637 0
M  V30 2003 C 193.29 1.94706 3.02922 0
M  V30 2004 C 193.143 3.47898 2.85109 0
M  V30 2005 C 194.462 1.75939 4.03402 0
M  V30 2006 H 191.581 0.419946 0.605652 0
M  V30 2007 H 194.223 1.57398 1.06423 0
M  V30 2008 H 192.373 1.58864 3.54534 0
M  V30 2009 H 194.045 3.93624 2.40537 0
M  V30 2010 H 192.288 3.7373 2.20246 0
M  V30 2011 H 192.959 3.98765 3.81694 0
M  V30 2012 H 195.435 2.07209 3.60837 0
M  V30 2013 H 194.311 2.33931 4.96556 0
M  V30 2014 H 194.572 0.709877 4.36364 0
M  V30 2015 N 193.631 -1.12557 1.10312 0
M  V30 2016 C 194.88 -1.83395 0.839588 0
M  V30 2017 C 195.193 -1.84939 -0.636929 0
M  V30 2018 O 196.399 -2.51761 -1.01631 0
M  V30 2019 C 194.855 -3.29303 1.45215 0
M  V30 2020 C 194.463 -3.36122 2.96186 0
M  V30 2021 C 196.207 -4.05121 1.26796 0
M  V30 2022 C 194.114 -4.76357 3.50483 0
M  V30 2023 H 193.044 -0.687133 0.310425 0
M  V30 2024 H 195.695 -1.26746 1.32694 0
M  V30 2025 H 194.077 -3.85812 0.892469 0
M  V30 2026 H 195.251 -2.89559 3.58458 0
M  V30 2027 H 193.566 -2.73776 3.13745 0
M  V30 2028 H 196.163 -5.08668 1.64806 0
M  V30 2029 H 196.506 -4.15773 0.209409 0
M  V30 2030 H 197.039 -3.54967 1.79563 0
M  V30 2031 H 193.778 -4.70899 4.55998 0
M  V30 2032 H 193.298 -5.23377 2.92978 0
M  V30 2033 H 194.977 -5.45294 3.48228 0
M  V30 2034 N 195.109 -0.891671 -1.2995 0
M  V30 2035 C 196.072 -0.36828 -2.26222 0
M  V30 2036 C 197.072 0.493014 -1.53056 0
M  V30 2037 O 198.262 0.299213 -1.71611 0
M  V30 2038 C 195.394 0.47442 -3.37583 0
M  V30 2039 H 196.587 -1.21844 -2.74033 0
M  V30 2040 H 194.14 -0.669107 -1.41254 0
M  V30 2041 H 194.875 1.34489 -2.95099 0
M  V30 2042 H 194.66 -0.142615 -3.91841 0
M  V30 2043 H 196.15 0.83218 -4.09224 0
M  V30 2044 N 196.587 1.43421 -0.653314 0
M  V30 2045 C 197.815 2.06163 -0.174491 0
M  V30 2046 C 198.23 1.48969 1.1599 0
M  V30 2047 O 197.587 0.621042 1.71608 0
M  V30 2048 C 197.638 3.61417 -0.0774865 0
M  V30 2049 O 197.359 4.16485 -1.35912 0
M  V30 2050 C 198.86 4.41235 0.427402 0
M  V30 2051 H 196.08 0.664946 -0.0899353 0
M  V30 2052 H 198.624 1.83924 -0.893988 0
M  V30 2053 H 196.779 3.82841 0.59257 0
M  V30 2054 H 197.193 5.10153 -1.21839 0
M  V30 2055 H 198.667 5.5021 0.44423 0
M  V30 2056 H 199.144 4.14268 1.45873 0
M  V30 2057 H 199.75 4.2478 -0.210167 0
M  V30 2058 N 198.065 0.39524 1.52563 0
M  V30 2059 C 199.012 -0.437036 2.26624 0
M  V30 2060 C 199.982 -1.05281 1.28472 0
M  V30 2061 O 201.167 -1.07971 1.57311 0
M  V30 2062 C 198.307 -1.55524 3.08069 0
M  V30 2063 C 197.42 -0.961745 4.21158 0
M  V30 2064 C 196.555 -2.05149 4.89987 0
M  V30 2065 C 195.594 -1.4342 5.95061 0
M  V30 2066 N 194.731 -2.46351 6.57462 0
M  V30 2067 H 199.571 0.200976 2.97322 0
M  V30 2068 H 197.108 0.110944 1.46681 0
M  V30 2069 H 199.066 -2.21437 3.53584 0
M  V30 2070 H 197.696 -2.16348 2.3957 0
M  V30 2071 H 196.748 -0.192048 3.79915 0
M  V30 2072 H 198.06 -0.470701 4.96574 0
M  V30 2073 H 197.214 -2.78819 5.38837 0
M  V30 2074 H 195.953 -2.57615 4.14109 0
M  V30 2075 H 194.958 -0.682774 5.45544 0
M  V30 2076 H 196.183 -0.917416 6.72875 0
M  V30 2077 H 194.129 -2.97975 5.8442 0
M  V30 2078 H 194.046 -2.02019 7.28508 0
M  V30 2079 H 195.314 -3.19633 7.10954 0
M  V30 2080 N 199.544 -1.57102 0.125237 0
M  V30 2081 C 200.821 -1.86953 -0.575142 0
M  V30 2082 C 201.201 -1.02749 -1.84407 0
M  V30 2083 O 200.549 -0.108144 -2.28244 0
M  V30 2084 C 200.759 -3.38198 -0.861583 0
M  V30 2085 C 202.107 -4.06937 -1.21192 0
M  V30 2086 O 203.131 -3.43252 -0.951645 0
M  V30 2087 O 201.99 -5.19364 -1.70068 0
M  V30 2088 H 199.084 -0.774147 -0.290906 0
M  V30 2089 H 201.63 -1.68942 0.160211 0
M  V30 2090 H 200.402 -3.91282 0.0373647 0
M  V30 2091 H 200.025 -3.61661 -1.65188 0
M  V30 2092 N 201.022 0.148545 -1.56898 0
M  V30 2093 C 202.268 0.862694 -1.83536 0
M  V30 2094 C 202.601 1.80889 -0.706604 0
M  V30 2095 O 201.876 1.92328 0.289885 0
M  V30 2096 C 202.159 1.63853 -3.20662 0
M  V30 2097 C 202.012 0.713925 -4.44098 0
M  V30 2098 C 203.331 2.60133 -3.54991 0
M  V30 2099 H 200.45 0.312179 -0.667618 0
M  V30 2100 H 203.092 0.127953 -1.89569 0
M  V30 2101 H 201.242 2.26489 -3.1565 0
M  V30 2102 H 202.914 0.098686 -4.61194 0
M  V30 2103 H 201.157 0.0234019 -4.33794 0
M  V30 2104 H 201.828 1.29278 -5.36648 0
M  V30 2105 H 204.304 2.07616 -3.60603 0
M  V30 2106 H 203.18 3.11468 -4.51972 0
M  V30 2107 H 203.441 3.41417 -2.80868 0
M  V30 2108 N 202.5 1.5196 0.417844 0
M  V30 2109 C 203.746 1.65836 1.16732 0
M  V30 2110 C 204.079 0.382881 1.90388 0
M  V30 2111 O 203.354 -0.618368 1.84408 0
M  V30 2112 C 203.637 2.87466 2.16876 0
M  V30 2113 C 203.49 4.25041 1.47174 0
M  V30 2114 C 204.809 3.04613 3.17646 0
M  V30 2115 H 201.928 0.603515 0.423011 0
M  V30 2116 H 204.57 1.84494 0.454105 0
M  V30 2117 H 202.72 2.71689 2.777 0
M  V30 2118 H 204.392 4.52527 0.895376 0
M  V30 2119 H 202.635 4.26843 0.773806 0
M  V30 2120 H 203.306 5.06176 2.20204 0
M  V30 2121 H 205.782 3.1923 2.66892 0
M  V30 2122 H 204.658 3.91247 3.8499 0
M  V30 2123 H 204.919 2.17541 3.84874 0
M  V30 2124 N 203.978 -0.674533 1.42435 0
M  V30 2125 C 204.941 -1.76986 1.45632 0
M  V30 2126 C 205.941 -1.5708 0.343871 0
M  V30 2127 O 207.131 -1.63367 0.604709 0
M  V30 2128 C 204.263 -3.15623 1.28822 0
M  V30 2129 H 205.456 -1.75539 2.43158 0
M  V30 2130 H 203.009 -0.884189 1.28887 0
M  V30 2131 H 203.744 -3.22696 0.322193 0
M  V30 2132 H 203.529 -3.31475 2.09444 0
M  V30 2133 H 205.019 -3.95537 1.33942 0
M  V30 2134 N 205.456 -1.28612 -0.910864 0
M  V30 2135 C 206.704 -1.15705 -1.65701 0
M  V30 2136 C 207.025 0.29416 -1.92769 0
M  V30 2137 O 206.295 1.20331 -1.54588 0
M  V30 2138 H 204.875 -0.425216 -0.614167 0
M  V30 2139 H 207.537 -1.61381 -1.0928 0
M  V30 2140 H 206.633 -1.6988 -2.61815 0
M  V30 2141 N 206.934 1.1197 -1.10907 0
M  V30 2142 C 207.844 2.21433 -0.774896 0
M  V30 2143 C 208.86 1.72478 0.229657 0
M  V30 2144 O 210.036 2.01288 0.0672008 0
M  V30 2145 C 207.101 3.4602 -0.216986 0
M  V30 2146 C 206.162 4.09791 -1.27944 0
M  V30 2147 C 205.395 5.28431 -0.748055 0
M  V30 2148 O 205.618 5.68823 0.423833 0
M  V30 2149 O 204.552 5.82644 -1.51027 0
M  V30 2150 H 208.378 2.5242 -1.68873 0
M  V30 2151 H 205.963 1.20399 -0.884555 0
M  V30 2152 H 207.845 4.21304 0.090059 0
M  V30 2153 H 206.52 3.16698 0.669633 0
M  V30 2154 H 205.427 3.36265 -1.63941 0
M  V30 2155 H 206.76 4.4328 -2.13925 0
M  V30 2156 N 208.412 0.89855 1.29475 0
M  V30 2157 C 209.658 0.534065 1.96263 0
M  V30 2158 C 210.013 -0.909415 1.69551 0
M  V30 2159 O 209.306 -1.63596 0.997349 0
M  V30 2160 C 209.5 0.761398 3.49195 0
M  V30 2161 C 209.329 2.22542 3.90775 0
M  V30 2162 C 208.099 2.87264 4.15701 0
M  V30 2163 C 210.297 3.20051 4.02581 0
M  V30 2164 N 208.279 4.24121 4.4384 0
M  V30 2165 C 209.65 4.42023 4.34759 0
M  V30 2166 C 211.705 3.15657 3.85052 0
M  V30 2167 C 210.408 5.60161 4.51235 0
M  V30 2168 C 212.434 4.33078 4.02737 0
M  V30 2169 C 211.796 5.5382 4.35273 0
M  V30 2170 H 207.895 0.245013 0.742625 0
M  V30 2171 H 210.479 1.15912 1.56437 0
M  V30 2172 H 208.65 0.165732 3.88046 0
M  V30 2173 H 210.382 0.362462 4.03074 0
M  V30 2174 H 207.137 2.38064 4.09417 0
M  V30 2175 H 207.561 4.94839 4.6202 0
M  V30 2176 H 212.203 2.23396 3.58962 0
M  V30 2177 H 209.921 6.52913 4.76162 0
M  V30 2178 H 213.507 4.31163 3.90628 0
M  V30 2179 H 212.387 6.43166 4.48672 0
M  V30 2180 N 209.89 -1.43072 0.660911 0
M  V30 2181 C 211.118 -2.06067 0.185422 0
M  V30 2182 C 211.533 -1.49582 -1.15198 0
M  V30 2183 O 210.89 -0.630134 -1.71276 0
M  V30 2184 C 210.941 -3.61371 0.0966523 0
M  V30 2185 O 210.662 -4.15758 1.38119 0
M  V30 2186 C 212.163 -4.41455 -0.403996 0
M  V30 2187 H 209.383 -0.664459 0.0934604 0
M  V30 2188 H 211.927 -1.83447 0.90373 0
M  V30 2189 H 210.082 -3.8315 -0.572259 0
M  V30 2190 H 210.496 -5.09499 1.24542 0
M  V30 2191 H 211.97 -5.50437 -0.415045 0
M  V30 2192 H 212.447 -4.15036 -1.43674 0
M  V30 2193 H 213.053 -4.24663 0.232691 0
M  V30 2194 N 211.368 -0.403325 -1.52352 0
M  V30 2195 C 212.278 0.432009 -2.30588 0
M  V30 2196 C 213.294 1.05884 -1.38075 0
M  V30 2197 O 214.47 1.06161 -1.71148 0
M  V30 2198 C 211.535 1.53669 -3.10784 0
M  V30 2199 C 210.596 0.933525 -4.19027 0
M  V30 2200 C 209.829 1.98557 -4.9539 0
M  V30 2201 O 210.052 3.20283 -4.71991 0
M  V30 2202 O 208.986 1.59504 -5.80381 0
M  V30 2203 H 212.812 -0.205739 -3.03002 0
M  V30 2204 H 210.397 -0.166675 -1.48467 0
M  V30 2205 H 212.279 2.17814 -3.60742 0
M  V30 2206 H 210.954 2.15915 -2.41169 0
M  V30 2207 H 209.861 0.254954 -3.7323 0
M  V30 2208 H 211.194 0.35508 -4.90918 0
M  V30 2209 N 212.846 1.57033 -0.133567 0
M  V30 2210 C 214.095 1.94861 0.520768 0
M  V30 2211 C 214.408 1.02012 1.66892 0
M  V30 2212 O 215.614 1.29365 2.38699 0
M  V30 2213 C 214.07 3.46362 0.977809 0
M  V30 2214 C 213.678 4.47773 -0.142674 0
M  V30 2215 C 215.422 3.93083 1.60269 0
M  V30 2216 C 213.329 5.90468 0.331883 0
M  V30 2217 H 212.259 0.727453 0.198315 0
M  V30 2218 H 214.91 1.82227 -0.215759 0
M  V30 2219 H 213.292 3.54282 1.7692 0
M  V30 2220 H 214.466 4.51536 -0.919317 0
M  V30 2221 H 212.781 4.10891 -0.675124 0
M  V30 2222 H 215.378 4.97121 1.96914 0
M  V30 2223 H 215.721 3.33876 2.48662 0
M  V30 2224 H 216.254 3.88025 0.876453 0
M  V30 2225 H 212.993 6.53463 -0.516341 0
M  V30 2226 H 212.513 5.90094 1.07469 0
M  V30 2227 H 214.192 6.42179 0.788332 0
M  V30 2228 N 214.325 -0.140222 1.56975 0
M  V30 2229 C 215.55 -0.870414 1.88251 0
M  V30 2230 C 215.975 -1.73637 0.723312 0
M  V30 2231 O 215.333 -1.78329 -0.32689 0
M  V30 2232 C 215.381 -1.69737 3.18154 0
M  V30 2233 O 214.485 -2.80229 3.02565 0
M  V30 2234 H 213.826 -0.242025 0.61832 0
M  V30 2235 H 216.356 -0.128999 2.04193 0
M  V30 2236 H 216.366 -2.09099 3.50345 0
M  V30 2237 H 215.041 -1.06152 4.02125 0
M  V30 2238 H 213.618 -2.44224 2.81796 0
M  V30 2239 N 215.803 -1.52179 -0.40978 0
M  V30 2240 C 216.766 -1.74853 -1.48186 0
M  V30 2241 C 217.766 -0.618417 -1.48433 0
M  V30 2242 O 218.956 -0.886286 -1.49969 0
M  V30 2243 C 216.088 -1.8303 -2.87598 0
M  V30 2244 H 217.281 -2.70559 -1.29374 0
M  V30 2245 H 214.834 -1.42586 -0.640233 0
M  V30 2246 H 215.569 -0.89236 -3.11781 0
M  V30 2247 H 215.354 -2.65187 -2.88822 0
M  V30 2248 H 216.844 -2.02316 -3.65319 0
M  V30 2249 N 217.281 0.66697 -1.42791 0
M  V30 2250 C 218.228 1.7803 -1.4688 0
M  V30 2251 C 219.198 1.6299 -0.319919 0
M  V30 2252 O 220.383 1.83432 -0.525118 0
M  V30 2253 C 217.523 3.1611 -1.38451 0
M  V30 2254 C 216.636 3.42381 -2.63437 0
M  V30 2255 C 215.771 4.70232 -2.47094 0
M  V30 2256 C 214.81 4.89564 -3.67415 0
M  V30 2257 N 213.947 6.08661 -3.49966 0
M  V30 2258 H 218.787 1.7387 -2.42019 0
M  V30 2259 H 216.324 0.84868 -1.20149 0
M  V30 2260 H 218.282 3.95914 -1.31561 0
M  V30 2261 H 216.912 3.19374 -0.469033 0
M  V30 2262 H 215.964 2.56774 -2.80662 0
M  V30 2263 H 217.276 3.52557 -3.52853 0
M  V30 2264 H 216.43 5.5814 -2.37834 0
M  V30 2265 H 215.169 4.62353 -1.5518 0
M  V30 2266 H 214.174 4.00096 -3.77099 0
M  V30 2267 H 215.399 4.99282 -4.6032 0
M  V30 2268 H 213.345 6.0194 -2.60776 0
M  V30 2269 H 213.262 6.19733 -4.32975 0
M  V30 2270 H 214.53 6.99226 -3.44532 0
M  V30 2271 N 218.759 1.29093 0.90403 0
M  V30 2272 C 219.989 1.19516 1.68522 0
M  V30 2273 C 220.397 -0.24738 1.87576 0
M  V30 2274 O 219.74 -1.17798 1.40959 0
M  V30 2275 C 219.802 1.83249 3.0929 0
M  V30 2276 C 219.466 3.32531 3.13484 0
M  V30 2277 C 220.463 4.28821 2.93953 0
M  V30 2278 C 218.148 3.73656 3.35688 0
M  V30 2279 C 220.142 5.64212 2.96553 0
M  V30 2280 C 217.829 5.0917 3.37919 0
M  V30 2281 C 218.827 6.04258 3.18373 0
M  V30 2282 O 218.515 7.37298 3.20385 0
M  V30 2283 H 218.247 0.415467 0.533257 0
M  V30 2284 H 220.801 1.70912 1.13922 0
M  V30 2285 H 219.031 1.26358 3.65473 0
M  V30 2286 H 220.72 1.68054 3.69476 0
M  V30 2287 H 221.486 3.98382 2.76616 0
M  V30 2288 H 217.365 3.00101 3.49943 0
M  V30 2289 H 220.909 6.38407 2.81216 0
M  V30 2290 H 216.806 5.39256 3.54787 0
M  V30 2291 H 217.574 7.46048 3.36681 0
M  V30 2292 N 220.237 -1.11381 1.11499 0
M  V30 2293 C 221.184 -2.17439 0.773887 0
M  V30 2294 C 222.154 -1.64132 -0.254899 0
M  V30 2295 O 223.339 -1.90345 -0.13168 0
M  V30 2296 C 220.479 -3.44373 0.223917 0
M  V30 2297 C 219.592 -4.1168 1.30934 0
M  V30 2298 C 218.727 -5.263 0.71984 0
M  V30 2299 C 217.766 -5.85493 1.78507 0
M  V30 2300 N 216.903 -6.91507 1.21502 0
M  V30 2301 H 221.743 -2.45962 1.68246 0
M  V30 2302 H 219.28 -1.20744 0.840191 0
M  V30 2303 H 221.238 -4.17047 -0.112921 0
M  V30 2304 H 219.868 -3.16232 -0.647851 0
M  V30 2305 H 218.92 -3.37073 1.76312 0
M  V30 2306 H 220.232 -4.51729 2.11524 0
M  V30 2307 H 219.386 -6.05785 0.333094 0
M  V30 2308 H 218.125 -4.87559 -0.117377 0
M  V30 2309 H 217.13 -5.04686 2.18111 0
M  V30 2310 H 218.355 -6.26301 2.62533 0
M  V30 2311 H 216.301 -6.54783 0.399455 0
M  V30 2312 H 216.218 -7.30214 1.95763 0
M  V30 2313 H 217.486 -7.74795 0.855181 0
M  V30 2314 N 221.715 -0.905404 -1.28997 0
M  V30 2315 C 222.678 -0.392253 -2.25819 0
M  V30 2316 C 223.678 0.476753 -1.5357 0
M  V30 2317 O 224.868 0.280994 -1.71919 0
M  V30 2318 C 222 0.438588 -3.38067 0
M  V30 2319 H 223.193 -1.24743 -2.72725 0
M  V30 2320 H 220.746 -0.684051 -1.40536 0
M  V30 2321 H 221.481 1.31352 -2.96508 0
M  V30 2322 H 221.266 -0.184167 -3.91667 0
M  V30 2323 H 222.756 0.78873 -4.10084 0
M  V30 2324 N 223.193 1.4272 -0.668489 0
M  V30 2325 C 224.604 1.84793 -0.266151 0
M  V30 2326 C 224.955 1.55959 1.19043 0
M  V30 2327 O 224.08 1.01622 1.91055 0
M  V30 2328 C 224.675 3.35436 -0.476271 0
M  V30 2329 C 223.234 3.76182 -0.128113 0
M  V30 2330 C 222.381 2.66344 -0.771777 0
M  V30 2331 H 225.332 1.32656 -0.871098 0
M  V30 2332 H 225.353 3.79515 0.273561 0
M  V30 2333 H 224.865 3.5639 -1.53647 0
M  V30 2334 H 222.966 3.60836 0.928891 0
M  V30 2335 H 223.079 4.75766 -0.564231 0
M  V30 2336 H 221.443 2.53885 -0.203652 0
M  V30 2337 H 222.226 2.90123 -1.83531 0
M  V30 2338 N 224.671 0.411399 1.52136 0
M  V30 2339 C 225.618 -0.412975 2.27075 0
M  V30 2340 C 226.588 -1.03912 1.29582 0
M  V30 2341 O 227.773 -1.06296 1.58448 0
M  V30 2342 C 224.913 -1.52247 3.09701 0
M  V30 2343 C 224.026 -0.917021 4.22155 0
M  V30 2344 C 223.161 -1.9994 4.92135 0
M  V30 2345 C 222.2 -1.37101 5.96548 0
M  V30 2346 N 221.337 -2.39364 6.60038 0
M  V30 2347 H 226.177 0.232499 2.97092 0
M  V30 2348 H 223.714 0.126496 1.46555 0
M  V30 2349 H 225.672 -2.17674 3.55913 0
M  V30 2350 H 224.302 -2.13794 2.41851 0
M  V30 2351 H 223.354 -0.151742 3.80097 0
M  V30 2352 H 224.666 -0.418006 4.97045 0
M  V30 2353 H 223.82 -2.73088 5.41763 0
M  V30 2354 H 222.559 -2.53208 4.16818 0
M  V30 2355 H 221.564 -0.624873 5.46237 0
M  V30 2356 H 222.789 -0.845998 6.7381 0
M  V30 2357 H 220.735 -2.91759 5.87548 0
M  V30 2358 H 220.652 -1.9428 7.3061 0
M  V30 2359 H 221.92 -3.12074 7.14304 0
M  V30 2360 N 226.149 -1.5696 0.141893 0
M  V30 2361 C 227.377 -2.00322 -0.517579 0
M  V30 2362 C 227.792 -1.02193 -1.58752 0
M  V30 2363 O 227.149 -0.0181619 -1.82491 0
M  V30 2364 C 227.2 -3.43618 -1.12289 0
M  V30 2365 O 226.921 -4.37995 -0.0956929 0
M  V30 2366 C 228.422 -4.02231 -1.86347 0
M  V30 2367 H 225.642 -0.657243 -0.135177 0
M  V30 2368 H 228.186 -2.03146 0.234973 0
M  V30 2369 H 226.341 -3.41662 -1.82609 0
M  V30 2370 H 226.755 -5.21729 -0.538469 0
M  V30 2371 H 228.229 -5.04509 -2.23997 0
M  V30 2372 H 228.706 -3.42655 -2.74744 0
M  V30 2373 H 229.312 -4.07802 -1.20737 0
M  V30 2374 N 227.627 0.131896 -1.57047 0
M  V30 2375 C 228.59 1.14638 -1.98471 0
M  V30 2376 C 229.59 1.35029 -0.873148 0
M  V30 2377 O 230.78 1.31764 -1.13946 0
M  V30 2378 C 227.912 2.50358 -2.31373 0
M  V30 2379 H 229.105 0.79064 -2.8929 0
M  V30 2380 H 226.658 0.375761 -1.51716 0
M  V30 2381 H 227.393 2.90876 -1.43393 0
M  V30 2382 H 227.178 2.36915 -3.12432 0
M  V30 2383 H 228.668 3.23395 -2.64207 0
M  V30 2384 N 229.106 1.52395 0.401703 0
M  V30 2385 C 230.352 1.67065 1.14966 0
M  V30 2386 C 230.685 0.403052 1.89971 0
M  V30 2387 O 229.96 -0.598774 1.85054 0
M  V30 2388 C 230.243 2.8975 2.13815 0
M  V30 2389 C 230.096 4.26578 1.42658 0
M  V30 2390 C 231.415 3.07965 3.14397 0
M  V30 2391 H 228.534 0.607968 0.416587 0
M  V30 2392 H 231.176 1.84965 0.434511 0
M  V30 2393 H 229.326 2.74619 2.74803 0
M  V30 2394 H 230.998 4.53451 0.847329 0
M  V30 2395 H 229.241 4.27639 0.72849 0
M  V30 2396 H 229.912 5.08483 2.14823 0
M  V30 2397 H 232.388 3.22043 2.63491 0
M  V30 2398 H 231.264 3.95308 3.80819 0
M  V30 2399 H 231.525 2.21611 3.82545 0
M  V30 2400 N 230.584 -0.659388 1.43143 0
M  V30 2401 C 231.532 -1.79374 1.4808 0
M  V30 2402 C 232.526 -1.65639 0.354988 0
M  V30 2403 O 233.732 -1.7206 0.528704 0
M  V30 2404 H 230.107 -0.591705 0.4641 0
M  V30 2405 H 232.078 -1.72329 2.43609 0
M  V30 2406 C 230.827 -3.17606 1.41499 0
M  V30 2407 H 230.15 -3.28809 2.27431 0
M  V30 2408 H 231.59 -3.96951 1.49015 0
M  V30 2409 C 230.049 -3.36642 0.131765 0
M  V30 2410 O 230.579 -3.93461 -0.809386 0
M  V30 2411 N 228.785 -2.90567 0.0439396 0
M  V30 2412 H 228.332 -2.44513 0.810619 0
M  V30 2413 H 228.29 -3.03681 -0.813969 0
M  V30 2414 N 232.062 -1.29571 -0.897171 0
M  V30 2415 C 233.311 -1.1706 -1.64256 0
M  V30 2416 C 233.624 0.276476 -1.93636 0
M  V30 2417 O 234.83 0.52294 -2.66416 0
M  V30 2418 C 233.286 -2.0475 -2.95982 0
M  V30 2419 C 232.894 -3.54295 -2.74187 0
M  V30 2420 C 234.638 -2.0097 -3.73914 0
M  V30 2421 C 232.545 -4.34081 -4.01656 0
M  V30 2422 H 231.475 -0.43452 -0.616205 0
M  V30 2423 H 234.126 -1.54229 -0.994268 0
M  V30 2424 H 232.508 -1.60452 -3.62038 0
M  V30 2425 H 233.682 -4.06662 -2.1671 0
M  V30 2426 H 231.997 -3.59773 -2.09648 0
M  V30 2427 H 234.594 -2.57838 -4.68427 0
M  V30 2428 H 234.937 -0.990273 -4.0435 0
M  V30 2429 H 235.47 -2.43325 -3.14703 0
M  V30 2430 H 232.209 -5.36671 -3.76384 0
M  V30 2431 H 231.729 -3.86483 -4.58684 0
M  V30 2432 H 233.408 -4.44877 -4.69781 0
M  V30 2433 N 233.54 1.10788 -1.12088 0
M  V30 2434 C 234.768 1.86461 -0.896651 0
M  V30 2435 C 235.183 1.80492 0.553912 0
M  V30 2436 O 234.54 1.19102 1.38278 0
M  V30 2437 C 234.591 3.35006 -1.35843 0
M  V30 2438 O 234.312 3.40866 -2.75213 0
M  V30 2439 C 235.813 4.27565 -1.1706 0
M  V30 2440 H 233.033 0.589425 -0.320654 0
M  V30 2441 H 235.577 1.40076 -1.48993 0
M  V30 2442 H 233.732 3.7887 -0.808458 0
M  V30 2443 H 234.146 4.33411 -2.9539 0
M  V30 2444 H 235.62 5.30007 -1.54263 0
M  V30 2445 H 236.097 4.3906 -0.110814 0
M  V30 2446 H 236.703 3.89501 -1.70789 0
M  V30 2447 N 235.018 0.912232 1.28515 0
M  V30 2448 C 235.948 0.416403 2.29757 0
M  V30 2449 C 236.929 -0.515194 1.6211 0
M  V30 2450 O 238.114 -0.423253 1.89532 0
M  V30 2451 C 235.244 -0.34572 3.45575 0
M  V30 2452 C 234.198 0.496599 4.25109 0
M  V30 2453 C 233.524 -0.393771 5.33248 0
M  V30 2454 C 234.824 1.75307 4.92001 0
M  V30 2455 H 236.518 1.26249 2.7148 0
M  V30 2456 H 234.064 0.608515 1.30511 0
M  V30 2457 H 236.017 -0.703422 4.15488 0
M  V30 2458 H 234.741 -1.2257 3.02728 0
M  V30 2459 H 233.4 0.8368 3.56922 0
M  V30 2460 H 233.048 -1.27225 4.86644 0
M  V30 2461 H 232.748 0.166209 5.87365 0
M  V30 2462 H 234.272 -0.747389 6.06009 0
M  V30 2463 H 235.686 1.46437 5.54283 0
M  V30 2464 H 234.083 2.25534 5.56106 0
M  V30 2465 H 235.153 2.48176 4.16577 0
M  V30 2466 N 236.496 -1.42363 0.676048 0
M  V30 2467 C 237.721 -2.06377 0.205705 0
M  V30 2468 C 238.146 -1.50463 -1.12883 0
M  V30 2469 O 237.504 -0.623619 -1.70237 0
M  V30 2470 C 237.552 -3.60277 0.152655 0
M  V30 2471 O 236.656 -4.02935 -0.87845 0
M  V30 2472 H 235.997 -0.655588 0.105359 0
M  V30 2473 H 238.527 -1.82475 0.925412 0
M  V30 2474 H 238.537 -4.07993 -0.0230675 0
M  V30 2475 H 237.212 -4.00346 1.12675 0
M  V30 2476 H 235.789 -3.66764 -0.673668 0
M  V30 2477 N 237.974 -0.419461 -1.51915 0
M  V30 2478 C 239.223 0.154346 -2.01109 0
M  V30 2479 C 239.536 1.45338 -1.30905 0
M  V30 2480 O 240.742 2.10906 -1.7097 0
M  V30 2481 C 239.198 0.325615 -3.58424 0
M  V30 2482 C 238.806 -0.961934 -4.37551 0
M  V30 2483 C 240.55 0.854155 -4.15818 0
M  V30 2484 C 238.457 -0.757287 -5.86531 0
M  V30 2485 H 237.387 0.0614563 -0.751491 0
M  V30 2486 H 240.038 -0.54649 -1.75173 0
M  V30 2487 H 238.42 1.08903 -3.80731 0
M  V30 2488 H 239.594 -1.7323 -4.26999 0
M  V30 2489 H 237.909 -1.41766 -3.91524 0
M  V30 2490 H 240.506 1.02346 -5.24814 0
M  V30 2491 H 240.849 1.83172 -3.73837 0
M  V30 2492 H 241.382 0.149528 -3.97519 0
M  V30 2493 H 238.121 -1.70671 -6.32892 0
M  V30 2494 H 237.641 -0.0264061 -5.99794 0
M  V30 2495 H 239.32 -0.403482 -6.45741 0
M  V30 2496 N 239.452 1.56882 -0.150215 0
M  V30 2497 C 240.68 2.00593 0.506948 0
M  V30 2498 C 241.095 1.03033 1.58208 0
M  V30 2499 O 240.452 0.0278396 1.82479 0
M  V30 2500 C 240.503 3.44209 1.10465 0
M  V30 2501 O 240.224 4.3804 0.0724636 0
M  V30 2502 C 241.725 4.03214 1.84211 0
M  V30 2503 H 238.945 0.65795 0.13169 0
M  V30 2504 H 241.489 2.03018 -0.245743 0
M  V30 2505 H 239.644 3.42625 1.80795 0
M  V30 2506 H 240.058 5.22007 0.510793 0
M  V30 2507 H 241.532 5.0569 2.21318 0
M  V30 2508 H 242.009 3.44107 2.72923 0
M  V30 2509 H 242.615 4.08437 1.18572 0
M  V30 2510 N 240.93 -0.123565 1.57115 0
M  V30 2511 C 242.158 -0.846461 1.88793 0
M  V30 2512 C 242.573 -1.73652 0.740976 0
M  V30 2513 O 241.93 -1.80207 -0.288393 0
M  V30 2514 C 241.981 -1.6837 3.19897 0
M  V30 2515 O 241.702 -0.829477 4.30176 0
M  V30 2516 C 243.203 -2.51214 3.65248 0
M  V30 2517 H 240.423 -0.243573 0.625231 0
M  V30 2518 H 242.967 -0.109324 2.04208 0
M  V30 2519 H 241.122 -2.37364 3.06165 0
M  V30 2520 H 241.536 -1.40651 5.0529 0
M  V30 2521 H 243.01 -3.05497 4.59756 0
M  V30 2522 H 243.487 -3.28359 2.9168 0
M  V30 2523 H 244.093 -1.8747 3.81752 0
M  V30 2524 N 242.408 -1.52605 -0.393616 0
M  V30 2525 C 243.685 -1.58001 -1.15304 0
M  V30 2526 C 244.065 -0.370385 -2.07825 0
M  V30 2527 O 243.413 0.641638 -2.19306 0
M  V30 2528 C 243.623 -2.91652 -1.91677 0
M  V30 2529 C 244.971 -3.4522 -2.47201 0
M  V30 2530 O 245.995 -2.93495 -2.01839 0
M  V30 2531 O 244.854 -4.35579 -3.3005 0
M  V30 2532 H 241.948 -0.637068 -0.527327 0
M  V30 2533 H 244.494 -1.64939 -0.399141 0
M  V30 2534 H 243.266 -3.71136 -1.23992 0
M  V30 2535 H 242.889 -2.88077 -2.74039 0
M  V30 2536 N 243.887 0.651787 -1.4349 0
M  V30 2537 C 245.112 1.44434 -1.48841 0
M  V30 2538 C 245.537 1.8779 -0.107955 0
M  V30 2539 O 244.895 1.57464 0.898602 0
M  V30 2540 C 244.943 2.65458 -2.44059 0
M  V30 2541 O 244.047 3.64566 -1.92784 0
M  V30 2542 H 243.388 0.433005 -0.503391 0
M  V30 2543 H 245.918 0.797451 -1.88419 0
M  V30 2544 H 245.928 3.13255 -2.6141 0
M  V30 2545 H 244.603 2.33244 -3.4434 0
M  V30 2546 H 243.18 3.23716 -1.851 0
M  V30 2547 N 245.365 1.30045 0.890287 0
M  V30 2548 C 246.593 1.21472 1.67487 0
M  V30 2549 C 247.008 -0.223241 1.87476 0
M  V30 2550 O 246.365 -1.14828 1.41847 0
M  V30 2551 C 246.416 1.93394 3.05419 0
M  V30 2552 O 246.137 3.31576 2.86337 0
M  V30 2553 C 247.638 1.91414 3.99844 0
M  V30 2554 H 244.858 0.420604 0.522813 0
M  V30 2555 H 247.402 1.7158 1.11268 0
M  V30 2556 H 245.557 1.47099 3.58386 0
M  V30 2557 H 245.971 3.67929 3.73802 0
M  V30 2558 H 247.445 2.46285 4.94012 0
M  V30 2559 H 247.922 0.891833 4.3005 0
M  V30 2560 H 248.528 2.37496 3.52811 0
M  V30 2561 N 246.843 -1.10192 1.12674 0
M  V30 2562 C 248.089 -1.82475 0.884915 0
M  V30 2563 C 248.422 -1.85093 -0.58773 0
M  V30 2564 O 247.697 -1.3134 -1.43457 0
M  V30 2565 C 247.98 -3.29018 1.46353 0
M  V30 2566 C 247.833 -3.34718 3.00473 0
M  V30 2567 C 249.152 -4.25473 1.12519 0
M  V30 2568 H 246.271 -0.662492 0.322915 0
M  V30 2569 H 248.913 -1.2913 1.39375 0
M  V30 2570 H 247.063 -3.74576 1.03077 0
M  V30 2571 H 248.735 -2.97622 3.52447 0
M  V30 2572 H 246.978 -2.74541 3.35872 0
M  V30 2573 H 247.649 -4.37918 3.36053 0
M  V30 2574 H 250.125 -3.88161 1.499 0
M  V30 2575 H 249.001 -5.26365 1.55663 0
M  V30 2576 H 249.262 -4.42084 0.0377407 0
M  V30 2577 N 248.321 -0.919034 -1.28029 0
M  V30 2578 C 249.598 -0.473668 -1.89778 0
M  V30 2579 C 249.978 1.04783 -1.83259 0
M  V30 2580 O 249.326 1.8982 -1.27202 0
M  V30 2581 C 249.536 -1.00998 -3.34066 0
M  V30 2582 C 250.884 -1.06525 -4.1102 0
M  V30 2583 O 251.908 -0.958996 -3.43048 0
M  V30 2584 O 250.767 -1.22776 -5.3253 0
M  V30 2585 H 247.861 -0.15098 -0.813101 0
M  V30 2586 H 250.407 -1.01016 -1.36359 0
M  V30 2587 H 249.179 -2.05392 -3.33061 0
M  V30 2588 H 248.802 -0.454626 -3.94992 0
M  V30 2589 N 249.799 1.42003 -0.683588 0
M  V30 2590 C 251.046 2.01413 -0.209514 0
M  V30 2591 C 251.374 1.54088 1.1869 0
M  V30 2592 O 250.629 0.737591 1.81268 0
M  V30 2593 C 250.928 3.56827 -0.202357 0
M  V30 2594 C 250.594 4.23617 -1.54464 0
M  V30 2595 C 249.256 4.41577 -1.91215 0
M  V30 2596 C 251.608 4.61178 -2.42826 0
M  V30 2597 C 248.936 4.9437 -3.15935 0
M  V30 2598 C 251.288 5.15355 -3.66867 0
M  V30 2599 C 249.952 5.31528 -4.03776 0
M  V30 2600 H 249.222 0.737023 -0.0766668 0
M  V30 2601 H 251.869 1.70067 -0.880312 0
M  V30 2602 H 250.174 3.87892 0.551969 0
M  V30 2603 H 251.871 4.00588 0.181793 0
M  V30 2604 H 248.461 4.10004 -1.24877 0
M  V30 2605 H 252.645 4.46968 -2.15717 0
M  V30 2606 H 247.901 5.05076 -3.44541 0
M  V30 2607 H 252.075 5.43402 -4.35531 0
M  V30 2608 H 249.702 5.72199 -5.00492 0
M  V30 2609 N 251.277 0.427512 1.51691 0
M  V30 2610 C 252.526 -0.143679 2.01188 0
M  V30 2611 C 252.839 -1.44642 1.31674 0
M  V30 2612 O 254.045 -2.09997 1.72086 0
M  V30 2613 C 252.501 -0.306602 3.58592 0
M  V30 2614 C 252.109 0.985125 4.37035 0
M  V30 2615 C 253.853 -0.832091 4.16265 0
M  V30 2616 C 251.76 0.788382 5.86122 0
M  V30 2617 H 250.69 -0.0574701 0.751807 0
M  V30 2618 H 253.341 0.555772 1.74881 0
M  V30 2619 H 251.723 -1.06882 3.81303 0
M  V30 2620 H 252.897 1.75492 4.26074 0
M  V30 2621 H 251.212 1.4384 3.90767 0
M  V30 2622 H 253.809 -0.995617 5.25349 0
M  V30 2623 H 254.152 -1.81186 3.74803 0
M  V30 2624 H 254.685 -0.128444 3.97593 0
M  V30 2625 H 251.424 1.74025 6.31978 0
M  V30 2626 H 250.944 0.0582143 5.99772 0
M  V30 2627 H 252.623 0.437722 6.45518 0
M  V30 2628 N 252.755 -1.56801 0.158532 0
M  V30 2629 C 254.002 -1.9649 -0.489679 0
M  V30 2630 C 254.33 -1.04394 -1.6411 0
M  V30 2631 O 253.585 -0.0754401 -1.95555 0
M  V30 2632 C 253.884 -3.4235 -1.02623 0
M  V30 2633 C 253.55 -4.50899 0.00794526 0
M  V30 2634 C 252.212 -4.80312 0.292207 0
M  V30 2635 C 254.564 -5.16333 0.710584 0
M  V30 2636 C 251.892 -5.72461 1.28472 0
M  V30 2637 C 254.244 -6.09553 1.69199 0
M  V30 2638 C 252.908 -6.37339 1.98383 0
M  V30 2639 H 252.178 -0.719009 -0.179186 0
M  V30 2640 H 254.825 -1.8989 0.247798 0
M  V30 2641 H 253.13 -3.45838 -1.84128 0
M  V30 2642 H 254.827 -3.70393 -1.53656 0
M  V30 2643 H 251.417 -4.28015 -0.22379 0
M  V30 2644 H 255.601 -4.93732 0.504174 0
M  V30 2645 H 250.857 -5.92278 1.51714 0
M  V30 2646 H 255.031 -6.59327 2.24189 0
M  V30 2647 H 252.658 -7.08546 2.7544 0
M  V30 2648 N 254.233 0.115231 -1.57178 0
M  V30 2649 C 255.51 0.852873 -1.76027 0
M  V30 2650 C 255.89 1.97892 -0.73498 0
M  V30 2651 O 255.238 2.27232 0.24036 0
M  V30 2652 C 255.448 1.36608 -3.21153 0
M  V30 2653 C 256.796 1.81692 -3.83762 0
M  V30 2654 O 257.82 1.46278 -3.24779 0
M  V30 2655 O 256.679 2.47104 -4.87444 0
M  V30 2656 H 253.773 0.405296 -0.720877 0
M  V30 2657 H 256.319 0.0986785 -1.69413 0
M  V30 2658 H 255.091 0.558357 -3.87296 0
M  V30 2659 H 254.714 2.18287 -3.3232 0
M  V30 2660 N 255.711 1.52812 0.385517 0
M  V30 2661 C 256.988 1.5861 1.14465 0
M  V30 2662 C 257.368 0.381402 2.07626 0
M  V30 2663 O 256.716 -0.629999 2.19643 0
M  V30 2664 C 256.926 2.92664 1.90128 0
M  V30 2665 C 258.274 3.46526 2.45367 0
M  V30 2666 O 259.298 2.94562 2.0028 0
M  V30 2667 O 258.157 4.37323 3.27736 0
M  V30 2668 H 255.251 0.639855 0.523941 0
M  V30 2669 H 257.797 1.65149 0.390389 0
M  V30 2670 H 256.569 3.71788 1.22022 0
M  V30 2671 H 256.192 2.89527 2.72507 0
M  V30 2672 N 257.189 -0.644168 1.43834 0
M  V30 2673 C 258.435 -1.40603 1.46146 0
M  V30 2674 C 258.768 -1.93997 0.0887717 0
M  V30 2675 O 258.043 -1.72854 -0.891724 0
M  V30 2676 C 258.326 -2.58086 2.51124 0
M  V30 2677 C 258.179 -2.10126 3.97702 0
M  V30 2678 C 259.498 -3.60291 2.52742 0
M  V30 2679 H 256.617 -0.509905 0.532134 0
M  V30 2680 H 259.259 -0.729502 1.75437 0
M  V30 2681 H 257.409 -3.15801 2.26278 0
M  V30 2682 H 259.081 -1.57342 4.33637 0
M  V30 2683 H 257.324 -1.41419 4.10101 0
M  V30 2684 H 257.995 -2.94649 4.66783 0
M  V30 2685 H 260.471 -3.12352 2.7491 0
M  V30 2686 H 259.347 -4.40032 3.28121 0
M  V30 2687 H 259.608 -4.1349 1.56455 0
M  V30 2688 N 258.668 -1.30515 -0.883378 0
M  V30 2689 C 259.896 -1.22359 -1.66841 0
M  V30 2690 C 260.311 0.213296 -1.87591 0
M  V30 2691 O 259.668 1.14075 -1.42454 0
M  V30 2692 C 259.719 -1.95011 -3.04389 0
M  V30 2693 O 259.44 -3.3309 -2.84575 0
M  V30 2694 C 260.941 -1.93532 -3.98824 0
M  V30 2695 H 258.161 -0.423371 -0.520575 0
M  V30 2696 H 260.705 -1.72167 -1.10357 0
M  V30 2697 H 258.86 -1.48997 -3.57601 0
M  V30 2698 H 259.274 -3.69907 -3.71846 0
M  V30 2699 H 260.748 -2.48902 -4.92699 0
M  V30 2700 H 261.225 -0.914627 -4.29571 0
M  V30 2701 H 261.831 -2.39364 -3.51547 0
M  V30 2702 N 260.146 1.09593 -1.13257 0
M  V30 2703 C 261.395 1.81105 -0.887917 0
M  V30 2704 C 261.708 1.86563 0.587672 0
M  V30 2705 O 262.914 2.54367 0.949204 0
M  V30 2706 C 261.37 3.25338 -1.53895 0
M  V30 2707 C 260.978 3.28151 -3.04994 0
M  V30 2708 C 262.722 4.01617 -1.37492 0
M  V30 2709 C 260.629 4.66897 -3.6299 0
M  V30 2710 H 259.559 0.678661 -0.328534 0
M  V30 2711 H 262.21 1.23183 -1.36008 0
M  V30 2712 H 260.592 3.8331 -0.994446 0
M  V30 2713 H 261.766 2.79953 -3.66009 0
M  V30 2714 H 260.081 2.65361 -3.20893 0
M  V30 2715 H 262.678 5.04119 -1.78235 0
M  V30 2716 H 263.021 4.15072 -0.31957 0
M  V30 2717 H 263.554 3.50082 -1.88912 0
M  V30 2718 H 260.293 4.58643 -4.68323 0
M  V30 2719 H 259.813 5.15426 -3.06752 0
M  V30 2720 H 261.492 5.3587 -3.62563 0
M  V30 2721 N 261.624 0.925811 1.2754 0
M  V30 2722 C 262.852 0.581509 1.9856 0
M  V30 2723 C 263.267 -0.840041 1.69082 0
M  V30 2724 O 262.624 -1.55805 0.950312 0
M  V30 2725 C 262.675 0.795589 3.52637 0
M  V30 2726 O 262.396 2.16121 3.81082 0
M  V30 2727 C 263.897 0.459744 4.4091 0
M  V30 2728 H 261.117 0.220538 0.633722 0
M  V30 2729 H 263.661 1.24232 1.6244 0
M  V30 2730 H 261.816 0.18161 3.86974 0
M  V30 2731 H 262.23 2.2098 4.75676 0
M  V30 2732 H 263.704 0.660244 5.48037 0
M  V30 2733 H 264.181 -0.604625 4.35018 0
M  V30 2734 H 264.787 1.05178 4.12089 0
M  V30 2735 N 263.102 -1.41638 0.69111 0
M  V30 2736 C 264.518 -1.55435 0.362224 0
M  V30 2737 C 264.718 -1.66754 -1.13117 0
M  V30 2738 O 263.774 -1.64348 -1.91692 0
M  V30 2739 C 265.087 -2.79588 1.10684 0
M  V30 2740 C 266.635 -2.9338 1.09075 0
M  V30 2741 C 267.11 -4.20414 1.81703 0
M  V30 2742 N 268.601 -4.27362 1.7865 0
M  V30 2743 C 269.336 -5.24507 2.31689 0
M  V30 2744 N 268.832 -6.27708 2.93179 0
M  V30 2745 N 270.625 -5.16416 2.2197 0
M  V30 2746 H 262.776 -1.32536 1.65976 0
M  V30 2747 H 265.039 -0.639115 0.700168 0
M  V30 2748 H 264.745 -2.77419 2.16175 0
M  V30 2749 H 264.619 -3.70973 0.682545 0
M  V30 2750 H 267.006 -2.95067 0.0441238 0
M  V30 2751 H 267.087 -2.0318 1.55407 0
M  V30 2752 H 266.731 -4.19488 2.86343 0
M  V30 2753 H 266.661 -5.09578 1.32808 0
M  V30 2754 H 269.152 -3.53415 1.33815 0
M  V30 2755 H 269.465 -6.98217 3.31229 0
M  V30 2756 H 267.81 -6.28223 2.97255 0
M  V30 2757 H 271.001 -4.34716 1.73607 0
M  V30 2758 H 271.174 -5.91958 2.63609 0
M  V30 2759 N 264.58 -0.43555 -1.51462 0
M  V30 2760 C 265.527 0.376797 -2.27703 0
M  V30 2761 C 266.497 1.01838 -1.31219 0
M  V30 2762 O 267.682 1.03762 -1.60119 0
M  V30 2763 C 264.822 1.47301 -3.12084 0
M  V30 2764 C 263.935 0.849744 -4.2356 0
M  V30 2765 C 263.07 1.92086 -4.95254 0
M  V30 2766 C 262.109 1.27593 -5.98654 0
M  V30 2767 N 261.246 2.28833 -6.63762 0
M  V30 2768 H 266.086 -0.279734 -2.96684 0
M  V30 2769 H 263.623 -0.149795 -1.46335 0
M  V30 2770 H 265.581 2.11984 -3.59331 0
M  V30 2771 H 264.211 2.0992 -2.45221 0
M  V30 2772 H 263.263 0.0912529 -3.80291 0
M  V30 2773 H 264.575 0.338878 -4.97648 0
M  V30 2774 H 263.729 2.64435 -5.46039 0
M  V30 2775 H 262.468 2.46545 -4.20793 0
M  V30 2776 H 261.473 0.537893 -5.47162 0
M  V30 2777 H 262.698 0.738693 -6.7507 0
M  V30 2778 H 260.644 2.82375 -5.92115 0
M  V30 2779 H 260.561 1.82632 -7.33608 0
M  V30 2780 H 261.829 3.00671 -7.19178 0
M  V30 2781 N 266.058 1.56714 -0.166846 0
M  V30 2782 C 267.306 1.96358 0.478305 0
M  V30 2783 C 267.627 1.0537 1.6408 0
M  V30 2784 O 266.897 0.119154 1.95537 0
M  V30 2785 H 265.477 0.725065 0.179692 0
M  V30 2786 H 268.139 1.93329 -0.246985 0
M  V30 2787 H 267.235 3.00547 0.841292 0
M  V30 2788 N 267.536 -0.106894 1.57237 0
M  V30 2789 C 268.469 -1.16125 1.96444 0
M  V30 2790 C 269.447 -1.3947 0.835871 0
M  V30 2791 O 270.631 -1.53425 1.09513 0
M  V30 2792 C 267.758 -2.51277 2.27107 0
M  V30 2793 C 266.804 -2.44285 3.4961 0
M  V30 2794 S 267.637 -1.87077 5.01759 0
M  V30 2795 C 268.793 -3.23877 5.35588 0
M  V30 2796 H 269.026 -0.826971 2.85567 0
M  V30 2797 H 266.559 -0.314124 1.51171 0
M  V30 2798 H 268.517 -3.29035 2.45451 0
M  V30 2799 H 267.178 -2.81879 1.38576 0
M  V30 2800 H 266.371 -3.4387 3.68469 0
M  V30 2801 H 265.973 -1.74652 3.30715 0
M  V30 2802 H 268.265 -4.20122 5.31511 0
M  V30 2803 H 269.208 -3.09833 6.36717 0
M  V30 2804 H 269.616 -3.22864 4.63054 0
M  V30 2805 N 269.014 -1.53014 -0.377408 0
M  V30 2806 C 269.977 -1.77957 -1.44444 0
M  V30 2807 C 270.977 -0.649763 -1.47087 0
M  V30 2808 O 272.167 -0.917897 -1.48055 0
M  V30 2809 C 269.299 -1.89089 -2.83651 0
M  V30 2810 H 270.492 -2.73243 -1.23606 0
M  V30 2811 H 268.045 -1.43912 -0.609844 0
M  V30 2812 H 268.78 -0.958293 -3.09818 0
M  V30 2813 H 268.565 -2.71254 -2.83132 0
M  V30 2814 H 270.055 -2.1002 -3.60945 0
M  V30 2815 N 270.492 0.636531 -1.44174 0
M  V30 2816 C 271.402 1.77754 -1.53103 0
M  V30 2817 C 272.418 1.68928 -0.417034 0
M  V30 2818 O 273.594 1.89801 -0.6736 0
M  V30 2819 C 270.659 3.14115 -1.46741 0
M  V30 2820 C 269.72 3.34612 -2.68948 0
M  V30 2821 C 268.953 4.64467 -2.6288 0
M  V30 2822 O 269.176 5.44919 -1.68581 0
M  V30 2823 O 268.11 4.87049 -3.53648 0
M  V30 2824 H 271.936 1.73174 -2.49489 0
M  V30 2825 H 269.521 0.79709 -1.2636 0
M  V30 2826 H 271.403 3.95412 -1.45696 0
M  V30 2827 H 270.078 3.19249 -0.534975 0
M  V30 2828 H 268.985 2.53014 -2.75562 0
M  V30 2829 H 270.318 3.34336 -3.61221 0
M  V30 2830 N 271.97 1.30982 0.876444 0
M  V30 2831 C 272.933 1.18054 1.96459 0
M  V30 2832 C 273.933 0.109399 1.60427 0
M  V30 2833 O 275.123 0.358173 1.70478 0
M  V30 2834 C 272.255 0.810616 3.31122 0
M  V30 2835 H 273.448 2.14735 2.09354 0
M  V30 2836 H 271.001 1.145 1.06392 0
M  V30 2837 H 271.736 -0.155322 3.23928 0
M  V30 2838 H 271.521 1.58481 3.58645 0
M  V30 2839 H 273.011 0.743876 4.10921 0
M  V30 2840 N 273.449 -1.08991 1.13837 0
M  V30 2841 C 274.397 -2.17841 0.815347 0
M  V30 2842 C 275.391 -1.68164 -0.204233 0
M  V30 2843 O 276.597 -1.79897 -0.0609304 0
M  V30 2844 H 272.972 -0.710654 0.245915 0
M  V30 2845 H 274.943 -2.42315 1.74143 0
M  V30 2846 C 273.692 -3.46381 0.302614 0
M  V30 2847 H 273.015 -3.84979 1.0785 0
M  V30 2848 H 274.455 -4.23844 0.115074 0
M  V30 2849 C 272.914 -3.22556 -0.972591 0
M  V30 2850 O 273.444 -3.45599 -2.04754 0
M  V30 2851 N 271.65 -2.76134 -0.905455 0
M  V30 2852 H 271.197 -2.57582 -0.0305421 0
M  V30 2853 H 271.155 -2.60571 -1.75926 0
M  V30 2854 N 274.927 -0.932562 -1.27047 0
M  V30 2855 C 276.155 -0.592031 -1.98249 0
M  V30 2856 C 276.57 0.831062 -1.69525 0
M  V30 2857 O 275.927 1.55299 -0.958561 0
M  V30 2858 C 275.978 -0.814279 -3.5221 0
M  V30 2859 O 275.699 -2.18139 -3.7993 0
M  V30 2860 C 277.2 -0.483121 -4.4066 0
M  V30 2861 H 274.42 -0.223896 -0.632544 0
M  V30 2862 H 276.964 -1.25091 -1.61779 0
M  V30 2863 H 275.119 -0.20213 -3.86872 0
M  V30 2864 H 275.533 -2.235 -4.74498 0
M  V30 2865 H 277.007 -0.689298 -5.47679 0
M  V30 2866 H 277.484 0.581546 -4.35333 0
M  V30 2867 H 278.09 -1.07362 -4.11526 0
M  V30 2868 N 276.405 1.4127 -0.698611 0
M  V30 2869 C 277.651 2.01478 -0.231207 0
M  V30 2870 C 277.984 1.55215 1.16713 0
M  V30 2871 O 277.259 0.764672 1.78838 0
M  V30 2872 C 277.542 3.58912 -0.292281 0
M  V30 2873 C 277.395 4.15293 -1.72778 0
M  V30 2874 C 278.714 4.38736 0.346194 0
M  V30 2875 H 275.833 0.732025 -0.0854878 0
M  V30 2876 H 278.475 1.67977 -0.887906 0
M  V30 2877 H 276.625 3.87582 0.26686 0
M  V30 2878 H 278.297 3.97486 -2.341 0
M  V30 2879 H 276.54 3.7022 -2.26096 0
M  V30 2880 H 277.211 5.24452 -1.72202 0
M  V30 2881 H 279.687 4.15897 -0.130035 0
M  V30 2882 H 278.563 5.48221 0.272932 0
M  V30 2883 H 278.824 4.18425 1.42734 0
M  V30 2884 N 277.883 0.443576 1.51229 0
M  V30 2885 C 279.113 -0.119117 2.06256 0
M  V30 2886 C 279.521 -1.36471 1.31043 0
M  V30 2887 O 278.864 -1.80034 0.365151 0
M  V30 2888 C 278.926 -0.500546 3.55998 0
M  V30 2889 C 278.59 0.639125 4.52509 0
M  V30 2890 C 279.587 1.51311 4.97394 0
M  V30 2891 C 277.272 0.821632 4.95535 0
M  V30 2892 C 279.266 2.55425 5.83984 0
M  V30 2893 C 276.953 1.86603 5.81913 0
M  V30 2894 C 277.951 2.73072 6.26036 0
M  V30 2895 O 277.639 3.75718 7.10698 0
M  V30 2896 H 277.371 -0.00857665 0.675946 0
M  V30 2897 H 279.925 0.623288 1.95715 0
M  V30 2898 H 278.155 -1.29575 3.64345 0
M  V30 2899 H 279.844 -0.995116 3.93513 0
M  V30 2900 H 280.61 1.38367 4.64844 0
M  V30 2901 H 276.489 0.158149 4.60729 0
M  V30 2902 H 280.033 3.22949 6.18344 0
M  V30 2903 H 275.93 1.99564 6.13876 0
M  V30 2904 H 276.698 3.72374 7.2889 0
M  V30 2905 N 279.361 -1.56624 0.175154 0
M  V30 2906 C 280.324 -2.16934 -0.739738 0
M  V30 2907 C 281.324 -1.11842 -1.15533 0
M  V30 2908 O 282.514 -1.37335 -1.07167 0
M  V30 2909 C 279.646 -2.75531 -2.00738 0
M  V30 2910 H 280.839 -2.99131 -0.214639 0
M  V30 2911 H 278.392 -1.56123 -0.0744197 0
M  V30 2912 H 279.127 -1.97078 -2.57548 0
M  V30 2913 H 278.912 -3.52444 -1.71831 0
M  V30 2914 H 280.402 -3.21904 -2.66021 0
M  V30 2915 N 280.839 0.0985539 -1.57292 0
M  V30 2916 C 281.802 1.10402 -2.00858 0
M  V30 2917 C 282.802 1.33146 -0.901593 0
M  V30 2918 O 283.992 1.29318 -1.16716 0
M  V30 2919 C 281.124 2.45394 -2.36632 0
M  V30 2920 H 282.317 0.729099 -2.90902 0
M  V30 2921 H 279.87 0.343495 -1.52479 0
M  V30 2922 H 280.605 2.87769 -1.49531 0
M  V30 2923 H 280.39 2.30235 -3.17387 0
M  V30 2924 H 281.88 3.17718 -2.71007 0
M  V30 2925 N 282.317 1.53212 0.369288 0
M  V30 2926 C 283.265 1.80054 1.47253 0
M  V30 2927 C 284.259 0.669456 1.55611 0
M  V30 2928 O 285.465 0.852328 1.58541 0
M  V30 2929 H 281.84 0.570034 0.490475 0
M  V30 2930 H 283.811 2.72403 1.21817 0
M  V30 2931 C 282.56 2.00403 2.84137 0
M  V30 2932 H 281.883 2.86876 2.78464 0
M  V30 2933 H 283.323 2.23164 3.60519 0
M  V30 2934 C 281.782 0.782081 3.27697 0
M  V30 2935 O 282.312 -0.0310205 4.01688 0
M  V30 2936 N 280.518 0.606573 2.84199 0
M  V30 2937 H 280.065 1.26939 2.24152 0
M  V30 2938 H 280.023 -0.20962 3.137 0
M  V30 2939 N 283.795 -0.628877 1.44509 0
M  V30 2940 C 284.758 -1.72263 1.51188 0
M  V30 2941 C 285.758 -1.55907 0.39367 0
M  V30 2942 O 286.948 -1.61361 0.656377 0
M  V30 2943 C 284.08 -3.11365 1.38798 0
M  V30 2944 H 285.273 -1.67714 2.4862 0
M  V30 2945 H 282.826 -0.842737 1.31634 0
M  V30 2946 H 283.561 -3.21507 0.424693 0
M  V30 2947 H 283.346 -3.24644 2.19884 0
M  V30 2948 H 284.836 -3.91075 1.46458 0
M  V30 2949 N 285.273 -1.31445 -0.869486 0
M  V30 2950 C 286.519 -1.21337 -1.62496 0
M  V30 2951 C 286.852 0.227872 -1.92858 0
M  V30 2952 O 286.127 1.16094 -1.56053 0
M  V30 2953 C 286.41 -2.05814 -2.95487 0
M  V30 2954 C 286.263 -3.5824 -2.72 0
M  V30 2955 C 287.582 -1.9079 -3.96594 0
M  V30 2956 H 284.701 -0.442135 -0.589649 0
M  V30 2957 H 287.343 -1.6124 -1.00507 0
M  V30 2958 H 285.493 -1.71913 -3.48394 0
M  V30 2959 H 287.165 -4.0228 -2.25762 0
M  V30 2960 H 285.408 -3.81647 -2.06224 0
M  V30 2961 H 286.079 -4.12657 -3.66631 0
M  V30 2962 H 288.555 -2.20459 -3.52898 0
M  V30 2963 H 287.431 -2.52199 -4.87531 0
M  V30 2964 H 287.692 -0.871341 -4.33428 0
M  V30 2965 N 286.751 1.08385 -1.14413 0
M  V30 2966 C 287.681 2.17321 -0.854044 0
M  V30 2967 C 288.662 1.69024 0.191049 0
M  V30 2968 O 289.847 1.94141 0.0476779 0
M  V30 2969 C 286.977 3.45719 -0.330983 0
M  V30 2970 C 285.931 4.07409 -1.31155 0
M  V30 2971 C 285.257 5.30762 -0.64778 0
M  V30 2972 C 286.557 4.48665 -2.67388 0
M  V30 2973 H 288.251 2.41845 -1.76498 0
M  V30 2974 H 285.797 1.16233 -0.850051 0
M  V30 2975 H 287.75 4.21241 -0.115645 0
M  V30 2976 H 286.474 3.2075 0.615381 0
M  V30 2977 H 285.133 3.33919 -1.51306 0
M  V30 2978 H 284.781 5.02078 0.304398 0
M  V30 2979 H 284.481 5.72992 -1.30207 0
M  V30 2980 H 286.005 6.08998 -0.441972 0
M  V30 2981 H 287.419 5.15364 -2.51143 0
M  V30 2982 H 285.816 5.01814 -3.29093 0
M  V30 2983 H 286.886 3.60543 -3.24248 0
M  V30 2984 N 288.23 0.939286 1.26551 0
M  V30 2985 C 289.177 0.446088 2.26448 0
M  V30 2986 C 290.147 -0.493234 1.58608 0
M  V30 2987 O 291.332 -0.409857 1.86346 0
M  V30 2988 C 288.472 -0.284375 3.43926 0
M  V30 2989 C 287.585 0.690399 4.26448 0
M  V30 2990 C 286.72 -0.0610712 5.31165 0
M  V30 2991 C 285.759 0.905649 6.05363 0
M  V30 2992 N 284.896 0.186055 7.01853 0
M  V30 2993 H 289.736 1.30291 2.68008 0
M  V30 2994 H 287.273 0.65371 1.31776 0
M  V30 2995 H 289.231 -0.724313 4.10864 0
M  V30 2996 H 287.861 -1.10535 3.03285 0
M  V30 2997 H 286.913 1.24885 3.59316 0
M  V30 2998 H 288.225 1.42873 4.779 0
M  V30 2999 H 287.379 -0.56038 6.04106 0
M  V30 3000 H 286.118 -0.832297 4.80546 0
M  V30 3001 H 285.123 1.4161 5.3125 0
M  V30 3002 H 286.348 1.67685 6.58072 0
M  V30 3003 H 284.294 -0.566714 6.53548 0
M  V30 3004 H 284.211 0.863752 7.51049 0
M  V30 3005 H 285.479 -0.292221 7.78952 0
M  V30 3006 N 289.708 -1.40897 0.706093 0
M  V30 3007 C 290.985 -1.94868 0.169099 0
M  V30 3008 C 291.365 -1.64485 -1.32318 0
M  V30 3009 O 290.713 -0.95744 -2.07474 0
M  V30 3010 C 290.923 -3.45798 0.471654 0
M  V30 3011 C 292.271 -4.22663 0.405127 0
M  V30 3012 O 293.295 -3.53865 0.407168 0
M  V30 3013 O 292.154 -5.45216 0.374383 0
M  V30 3014 H 289.248 -0.82673 0.0211352 0
M  V30 3015 H 291.794 -1.50558 0.782976 0
M  V30 3016 H 290.566 -3.61235 1.50416 0
M  V30 3017 H 290.189 -3.97225 -0.172666 0
M  V30 3018 N 291.186 -0.45159 -1.50991 0
M  V30 3019 C 292.119 0.398179 -2.24699 0
M  V30 3020 C 293.097 1.01276 -1.27208 0
M  V30 3021 O 294.281 1.05247 -1.56382 0
M  V30 3022 C 291.408 1.55618 -3.00833 0
M  V30 3023 C 290.454 1.0609 -4.13095 0
M  V30 3024 S 291.287 -0.00865136 -5.35499 0
M  V30 3025 C 292.443 1.15369 -6.15175 0
M  V30 3026 H 292.676 -0.227555 -2.96428 0
M  V30 3027 H 290.209 -0.236251 -1.52582 0
M  V30 3028 H 292.167 2.21997 -3.45293 0
M  V30 3029 H 290.828 2.15337 -2.28667 0
M  V30 3030 H 290.021 1.92726 -4.65696 0
M  V30 3031 H 289.623 0.47513 -3.7097 0
M  V30 3032 H 291.915 2.06925 -6.45126 0
M  V30 3033 H 292.858 0.667344 -7.04948 0
M  V30 3034 H 293.266 1.3987 -5.46897 0
M  V30 3035 N 292.664 1.56529 -0.183458 0
M  V30 3036 C 293.894 2.01331 0.463612 0
M  V30 3037 C 294.302 1.06278 1.5653 0
M  V30 3038 O 293.645 0.0577976 1.83609 0
M  V30 3039 C 293.707 3.42547 1.09096 0
M  V30 3040 C 293.371 4.56817 0.129442 0
M  V30 3041 C 294.368 5.15734 -0.656807 0
M  V30 3042 C 292.053 5.02295 0.02174 0
M  V30 3043 C 294.047 6.1857 -1.53784 0
M  V30 3044 C 291.734 6.04978 -0.862864 0
M  V30 3045 C 292.732 6.62988 -1.64123 0
M  V30 3046 O 292.42 7.63677 -2.51103 0
M  V30 3047 H 292.152 0.664917 0.121907 0
M  V30 3048 H 294.706 2.034 -0.285954 0
M  V30 3049 H 292.936 3.37428 1.88889 0
M  V30 3050 H 294.625 3.71228 1.64148 0
M  V30 3051 H 295.391 4.81473 -0.583839 0
M  V30 3052 H 291.27 4.56847 0.617392 0
M  V30 3053 H 294.814 6.63777 -2.14583 0
M  V30 3054 H 290.711 6.38663 -0.93699 0
M  V30 3055 H 291.479 7.81049 -2.44753 0
M  V30 3056 N 294.142 -0.090211 1.57342 0
M  V30 3057 C 295.105 -1.09335 2.01441 0
M  V30 3058 C 296.105 -1.32666 0.908641 0
M  V30 3059 O 297.295 -1.28697 1.174 0
M  V30 3060 C 294.427 -2.44136 2.3793 0
M  V30 3061 H 295.62 -0.713662 2.91285 0
M  V30 3062 H 293.173 -0.335404 1.52659 0
M  V30 3063 H 293.908 -2.86972 1.51055 0
M  V30 3064 H 293.693 -2.28548 3.18603 0
M  V30 3065 H 295.183 -3.16277 2.72688 0
M  V30 3066 N 295.62 -1.53406 -0.361157 0
M  V30 3067 C 296.568 -1.80832 -1.46296 0
M  V30 3068 C 297.562 -0.677699 -1.55253 0
M  V30 3069 O 298.768 -0.860723 -1.58087 0
M  V30 3070 H 295.143 -0.572627 -0.487445 0
M  V30 3071 H 297.114 -2.73045 -1.20371 0
M  V30 3072 C 295.863 -2.01907 -2.8307 0
M  V30 3073 H 295.186 -2.88349 -2.76938 0
M  V30 3074 H 296.626 -2.25072 -3.59331 0
M  V30 3075 C 295.085 -0.799449 -3.27277 0
M  V30 3076 O 295.615 0.00971761 -4.01699 0
M  V30 3077 N 293.821 -0.621637 -2.83873 0
M  V30 3078 H 293.368 -1.28126 -2.23476 0
M  V30 3079 H 293.326 0.19298 -3.13807 0
M  V30 3080 N 297.098 0.621204 -1.44841 0
M  V30 3081 C 298.328 1.40548 -1.51426 0
M  V30 3082 C 298.736 1.88673 -0.141083 0
M  V30 3083 O 298.079 1.62053 0.865128 0
M  V30 3084 C 298.141 2.65325 -2.42576 0
M  V30 3085 C 297.805 2.3893 -3.89566 0
M  V30 3086 C 298.802 2.00138 -4.79834 0
M  V30 3087 C 296.487 2.52263 -4.3436 0
M  V30 3088 C 298.481 1.75021 -6.129 0
M  V30 3089 C 296.168 2.2676 -5.67471 0
M  V30 3090 C 297.166 1.88199 -6.56559 0
M  V30 3091 O 296.854 1.62986 -7.87204 0
M  V30 3092 H 296.586 0.437122 -0.515655 0
M  V30 3093 H 299.14 0.765987 -1.90583 0
M  V30 3094 H 297.37 3.31947 -1.98364 0
M  V30 3095 H 299.059 3.27347 -2.39998 0
M  V30 3096 H 299.825 1.89386 -4.46495 0
M  V30 3097 H 295.704 2.81246 -3.65269 0
M  V30 3098 H 299.248 1.44848 -6.82396 0
M  V30 3099 H 295.145 2.37125 -6.00368 0
M  V30 3100 H 295.913 1.7715 -7.991 0
M  V30 3101 N 298.576 1.31904 0.862503 0
M  V30 3102 C 299.823 1.22017 1.61611 0
M  V30 3103 C 300.151 -0.21991 1.93253 0
M  V30 3104 O 299.406 -1.17076 1.56817 0
M  V30 3105 C 299.705 2.01713 2.95037 0
M  V30 3106 C 299.371 3.51145 2.82857 0
M  V30 3107 C 298.033 3.91889 2.79243 0
M  V30 3108 C 300.385 4.46204 2.69353 0
M  V30 3109 C 297.713 5.25947 2.59993 0
M  V30 3110 C 300.065 5.80397 2.5164 0
M  V30 3111 C 298.729 6.20352 2.46413 0
M  V30 3112 H 297.999 0.44649 0.591378 0
M  V30 3113 H 300.646 1.63248 1.00111 0
M  V30 3114 H 298.951 1.53185 3.60613 0
M  V30 3115 H 300.648 1.91437 3.52353 0
M  V30 3116 H 297.238 3.1878 2.86491 0
M  V30 3117 H 301.422 4.15652 2.71196 0
M  V30 3118 H 296.678 5.5597 2.54376 0
M  V30 3119 H 300.852 6.53676 2.40169 0
M  V30 3120 H 298.479 7.24172 2.31256 0
M  V30 3121 N 300.054 -1.07777 1.14986 0
M  V30 3122 C 301.47 -1.32373 0.891596 0
M  V30 3123 C 301.67 -1.9609 -0.463788 0
M  V30 3124 O 300.726 -2.21801 -1.20667 0
M  V30 3125 C 302.039 -2.21905 2.02925 0
M  V30 3126 C 303.587 -2.35367 2.06329 0
M  V30 3127 C 304.062 -3.28245 3.19405 0
M  V30 3128 N 305.553 -3.35824 3.19024 0
M  V30 3129 C 306.288 -4.07739 4.03158 0
M  V30 3130 N 305.784 -4.82306 4.97346 0
M  V30 3131 N 307.577 -4.03635 3.91197 0
M  V30 3132 H 299.728 -0.648039 2.02273 0
M  V30 3133 H 301.991 -0.348149 0.881757 0
M  V30 3134 H 301.697 -1.82342 3.0074 0
M  V30 3135 H 301.571 -3.22407 1.95789 0
M  V30 3136 H 303.958 -2.74186 1.09116 0
M  V30 3137 H 304.039 -1.34585 2.17533 0
M  V30 3138 H 303.683 -2.90146 4.16867 0
M  V30 3139 H 303.613 -4.28971 3.05437 0
M  V30 3140 H 306.104 -2.8267 2.50811 0
M  V30 3141 H 306.417 -5.34661 5.57994 0
M  V30 3142 H 304.762 -4.81337 5.01338 0
M  V30 3143 H 307.953 -3.44491 3.16928 0
M  V30 3144 H 308.126 -4.59417 4.5699 0
M  V30 3145 N 301.532 -0.945985 -1.26051 0
M  V30 3146 C 302.778 -0.597002 -1.93814 0
M  V30 3147 C 303.111 0.862484 -1.73997 0
M  V30 3148 O 302.386 1.61769 -1.07986 0
M  V30 3149 C 302.669 -0.945937 -3.47454 0
M  V30 3150 C 302.522 -2.46052 -3.76535 0
M  V30 3151 C 303.841 -0.464785 -4.37639 0
M  V30 3152 H 300.96 -0.218366 -0.703907 0
M  V30 3153 H 303.602 -1.18107 -1.48831 0
M  V30 3154 H 301.752 -0.448902 -3.85898 0
M  V30 3155 H 303.424 -3.03065 -3.47778 0
M  V30 3156 H 301.667 -2.90194 -3.22444 0
M  V30 3157 H 302.338 -2.65517 -4.83947 0
M  V30 3158 H 304.814 -0.891016 -4.06448 0
M  V30 3159 H 303.69 -0.737712 -5.4392 0
M  V30 3160 H 303.951 0.635274 -4.37512 0
M  V30 3161 N 303.011 1.40521 -0.713556 0
M  V30 3162 C 304.259 2.00527 -0.251692 0
M  V30 3163 C 304.58 1.56857 1.15848 0
M  V30 3164 O 303.85 0.807127 1.785 0
M  V30 3165 H 302.43 0.741551 -0.0900646 0
M  V30 3166 H 305.092 1.71887 -0.918733 0
M  V30 3167 H 304.188 3.10813 -0.283192 0
M  V30 3168 N 304.489 0.459591 1.5075 0
M  V30 3169 C 305.714 -0.0996819 2.0716 0
M  V30 3170 C 306.139 -1.33761 1.32249 0
M  V30 3171 O 305.497 -1.77551 0.366786 0
M  V30 3172 C 305.545 -0.378226 3.58611 0
M  V30 3173 O 304.649 -1.46081 3.85661 0
M  V30 3174 H 303.99 0.00791392 0.663953 0
M  V30 3175 H 306.52 0.647329 1.9409 0
M  V30 3176 H 306.53 -0.622135 4.03229 0
M  V30 3177 H 305.205 0.526439 4.12555 0
M  V30 3178 H 303.782 -1.20511 3.5289 0
M  V30 3179 N 305.967 -1.56429 0.191757 0
M  V30 3180 C 307.213 -1.97777 -0.448554 0
M  V30 3181 C 307.546 -1.07847 -1.61501 0
M  V30 3182 O 306.821 -0.129774 -1.94067 0
M  V30 3183 C 307.104 -3.48362 -0.911906 0
M  V30 3184 C 306.957 -4.4907 0.256136 0
M  V30 3185 C 308.276 -4.02561 -1.77857 0
M  V30 3186 H 305.395 -0.719071 -0.161572 0
M  V30 3187 H 308.037 -1.87896 0.282007 0
M  V30 3188 H 306.187 -3.56914 -1.53442 0
M  V30 3189 H 307.859 -4.5256 0.893733 0
M  V30 3190 H 306.102 -4.24181 0.908436 0
M  V30 3191 H 306.773 -5.51889 -0.11053 0
M  V30 3192 H 309.249 -3.96767 -1.25359 0
M  V30 3193 H 308.125 -5.08301 -2.07174 0
M  V30 3194 H 308.386 -3.47616 -2.73158 0
M  V30 3195 N 307.445 0.0818655 -1.57387 0
M  V30 3196 C 308.375 1.09885 -2.06028 0
M  V30 3197 C 309.356 1.4098 -0.951774 0
M  V30 3198 O 310.541 1.50781 -1.22387 0
M  V30 3199 C 307.671 2.4151 -2.4958 0
M  V30 3200 C 306.625 2.24792 -3.64215 0
M  V30 3201 C 305.951 3.61712 -3.93787 0
M  V30 3202 C 307.251 1.67749 -4.94629 0
M  V30 3203 H 308.945 0.694128 -2.91243 0
M  V30 3204 H 306.491 0.332448 -1.4011 0
M  V30 3205 H 308.444 3.12939 -2.82219 0
M  V30 3206 H 307.168 2.83943 -1.61381 0
M  V30 3207 H 305.827 1.55807 -3.31843 0
M  V30 3208 H 305.475 4.01697 -3.02735 0
M  V30 3209 H 305.175 3.51368 -4.70971 0
M  V30 3210 H 306.699 4.34587 -4.28913 0
M  V30 3211 H 308.113 2.29032 -5.25564 0
M  V30 3212 H 306.51 1.68128 -5.76067 0
M  V30 3213 H 307.58 0.638059 -4.80684 0
M  V30 3214 N 308.923 1.53595 0.353017 0
M  V30 3215 C 309.871 1.81605 1.45335 0
M  V30 3216 C 310.865 0.685923 1.54892 0
M  V30 3217 O 312.071 0.869095 1.57628 0
M  V30 3218 H 308.446 0.575204 0.484401 0
M  V30 3219 H 310.417 2.73679 1.18921 0
M  V30 3220 C 309.166 2.03406 2.81995 0
M  V30 3221 H 308.489 2.89814 2.75405 0
M  V30 3222 H 309.929 2.26975 3.58132 0
M  V30 3223 C 308.388 0.816794 3.26849 0
M  V30 3224 O 308.918 0.0115856 4.01698 0
M  V30 3225 N 307.124 0.636682 2.8354 0
M  V30 3226 H 306.671 1.2931 2.22793 0
M  V30 3227 H 306.629 -0.176336 3.13905 0
M  V30 3228 N 310.401 -0.613514 1.45168 0
M  V30 3229 C 311.626 -1.40437 1.52618 0
M  V30 3230 C 312.051 -1.87438 0.157707 0
M  V30 3231 O 311.409 -1.59791 -0.856537 0
M  V30 3232 C 311.457 -2.58894 2.51011 0
M  V30 3233 O 310.561 -3.59326 2.02382 0
M  V30 3234 H 309.902 -0.419506 0.514695 0
M  V30 3235 H 312.432 -0.747215 1.90467 0
M  V30 3236 H 312.442 -3.06214 2.69624 0
M  V30 3237 H 311.117 -2.24032 3.50403 0
M  V30 3238 H 309.694 -3.18695 1.93618 0
M  V30 3239 N 311.879 -1.3236 -0.855495 0
M  V30 3240 C 313.127 -1.22629 -1.60644 0
M  V30 3241 C 313.448 0.212136 -1.93843 0
M  V30 3242 O 312.718 1.13666 -1.59552 0
M  V30 3243 H 311.298 -0.450882 -0.595579 0
M  V30 3244 H 313.96 -1.65871 -1.02337 0
M  V30 3245 H 313.056 -1.80832 -2.54374 0
M  V30 3246 N 313.357 1.07166 -1.15556 0
M  V30 3247 C 314.585 1.83514 -0.955519 0
M  V30 3248 C 315 1.82163 0.49621 0
M  V30 3249 O 314.357 1.23441 1.34419 0
M  V30 3250 C 314.408 3.30515 -1.46432 0
M  V30 3251 O 314.129 3.31937 -2.85918 0
M  V30 3252 C 315.63 4.23625 -1.30603 0
M  V30 3253 H 312.85 0.578926 -0.339244 0
M  V30 3254 H 315.394 1.35265 -1.53374 0
M  V30 3255 H 313.549 3.76106 -0.928584 0
M  V30 3256 H 313.963 4.23794 -3.09029 0
M  V30 3257 H 315.437 5.24831 -1.71047 0
M  V30 3258 H 315.914 4.38485 -0.250441 0
M  V30 3259 H 316.52 3.83871 -1.83094 0
M  V30 3260 N 314.835 0.952656 1.25548 0
M  V30 3261 C 316.081 0.607272 1.93494 0
M  V30 3262 C 316.414 -0.853245 1.74452 0
M  V30 3263 O 315.689 -1.61194 1.08843 0
M  V30 3264 C 315.972 0.96435 3.46947 0
M  V30 3265 C 315.825 2.48045 3.75225 0
M  V30 3266 C 317.144 0.487987 4.37386 0
M  V30 3267 H 314.263 0.222096 0.702739 0
M  V30 3268 H 316.905 1.18895 1.48203 0
M  V30 3269 H 315.055 0.469361 3.85654 0
M  V30 3270 H 316.727 3.04905 3.46166 0
M  V30 3271 H 314.97 2.919 3.209 0
M  V30 3272 H 315.641 2.6808 4.82532 0
M  V30 3273 H 318.117 0.912558 4.0597 0
M  V30 3274 H 316.993 0.766547 5.43521 0
M  V30 3275 H 317.254 -0.612063 4.37843 0
M  V30 3276 N 316.313 -1.40141 0.720998 0
M  V30 3277 C 317.261 -2.3252 0.0608547 0
M  V30 3278 C 318.255 -1.52326 -0.741152 0
M  V30 3279 O 319.461 -1.68089 -0.643911 0
M  V30 3280 H 315.836 -0.751999 0.000876664 0
M  V30 3281 H 317.807 -2.8584 0.856614 0
M  V30 3282 C 316.556 -3.37331 -0.842809 0
M  V30 3283 H 315.879 -3.99108 -0.235084 0
M  V30 3284 H 317.319 -4.04452 -1.27257 0
M  V30 3285 C 315.778 -2.73246 -1.97074 0
M  V30 3286 O 316.308 -2.59998 -3.06209 0
M  V30 3287 N 314.514 -2.31547 -1.75597 0
M  V30 3288 H 314.061 -2.42522 -0.868368 0
M  V30 3289 H 314.019 -1.89007 -2.51244 0
M  V30 3290 N 317.792 -0.46758 -1.50504 0
M  V30 3291 C 318.74 0.342482 -2.30065 0
M  V30 3292 C 319.734 0.993596 -1.37201 0
M  V30 3293 O 320.94 0.925102 -1.54408 0
M  V30 3294 H 317.315 0.129283 -0.740803 0
M  V30 3295 H 319.286 -0.34899 -2.96352 0
M  V30 3296 C 318.035 1.4139 -3.17654 0
M  V30 3297 H 317.358 0.922264 -3.89017 0
M  V30 3298 H 318.798 1.95335 -3.76325 0
M  V30 3299 C 317.257 2.4139 -2.35016 0
M  V30 3300 O 317.787 3.46586 -2.03079 0
M  V30 3301 N 315.993 2.13021 -1.97662 0
M  V30 3302 H 315.54 1.27499 -2.23834 0
M  V30 3303 H 315.498 2.80164 -1.42673 0
M  V30 3304 N 319.27 1.56325 -0.20005 0
M  V30 3305 C 320.495 2.02548 0.44597 0
M  V30 3306 C 320.92 1.07922 1.5406 0
M  V30 3307 O 320.278 0.0635775 1.81188 0
M  V30 3308 C 320.326 3.47175 0.974761 0
M  V30 3309 O 319.43 3.55671 2.08739 0
M  V30 3310 H 318.771 0.655862 0.103638 0
M  V30 3311 H 321.301 2.02201 -0.312381 0
M  V30 3312 H 321.311 3.87067 1.2901 0
M  V30 3313 H 319.986 4.15538 0.17347 0
M  V30 3314 H 318.563 3.27657 1.78032 0
M  V30 3315 N 320.748 -0.0735177 1.57428 0
M  V30 3316 C 321.973 -0.789787 1.91774 0
M  V30 3317 C 322.398 -1.70413 0.796306 0
M  V30 3318 O 321.756 -1.79555 -0.250961 0
M  V30 3319 C 321.804 -1.5609 3.25067 0
M  V30 3320 O 320.908 -2.67144 3.14178 0
M  V30 3321 H 320.249 -0.215582 0.628029 0
M  V30 3322 H 322.779 -0.0422781 2.04556 0
M  V30 3323 H 322.789 -1.94052 3.58898 0
M  V30 3324 H 321.464 -0.890015 4.06265 0
M  V30 3325 H 320.041 -2.32052 2.91901 0
M  V30 3326 N 322.226 -1.5378 -0.344866 0
M  V30 3327 C 323.475 -1.7018 -1.08267 0
M  V30 3328 C 323.788 -0.471 -1.89845 0
M  V30 3329 O 324.994 -0.515917 -2.66553 0
M  V30 3330 C 323.45 -3.00923 -1.97417 0
M  V30 3331 C 323.058 -4.31335 -1.21053 0
M  V30 3332 C 324.802 -3.26688 -2.71063 0
M  V30 3333 C 322.709 -5.53153 -2.09225 0
M  V30 3334 H 321.639 -0.634138 -0.407903 0
M  V30 3335 H 324.29 -1.8028 -0.342246 0
M  V30 3336 H 322.672 -2.84676 -2.75274 0
M  V30 3337 H 323.846 -4.58281 -0.481159 0
M  V30 3338 H 322.161 -4.12173 -0.591813 0
M  V30 3339 H 324.758 -4.1489 -3.37299 0
M  V30 3340 H 325.101 -2.43639 -3.37558 0
M  V30 3341 H 325.634 -3.43705 -2.0028 0
M  V30 3342 H 322.373 -6.38741 -1.47274 0
M  V30 3343 H 321.893 -5.30458 -2.79955 0
M  V30 3344 H 323.572 -5.88744 -2.68308 0
M  V30 3345 N 323.704 0.605807 -1.45491 0
M  V30 3346 C 324.651 1.7164 -1.54299 0
M  V30 3347 C 325.621 1.61486 -0.388761 0
M  V30 3348 O 326.806 1.81039 -0.602445 0
M  V30 3349 C 323.946 3.09953 -1.51734 0
M  V30 3350 C 323.059 3.309 -2.77721 0
M  V30 3351 C 322.194 4.59329 -2.66816 0
M  V30 3352 C 321.233 4.7354 -3.87848 0
M  V30 3353 N 320.37 5.9327 -3.75467 0
M  V30 3354 H 325.21 1.63449 -2.49176 0
M  V30 3355 H 322.747 0.796957 -1.23641 0
M  V30 3356 H 324.705 3.89977 -1.48235 0
M  V30 3357 H 323.335 3.17098 -0.604068 0
M  V30 3358 H 322.387 2.44639 -2.913 0
M  V30 3359 H 323.699 3.37274 -3.67488 0
M  V30 3360 H 322.853 5.4755 -2.61292 0
M  V30 3361 H 321.592 4.55355 -1.74651 0
M  V30 3362 H 320.597 3.83741 -3.93729 0
M  V30 3363 H 321.822 4.79309 -4.81082 0
M  V30 3364 H 319.768 5.90338 -2.86072 0
M  V30 3365 H 319.685 6.00811 -4.5887 0
M  V30 3366 H 320.953 6.83984 -3.73879 0
M  V30 3367 N 325.182 1.32811 0.848464 0
M  V30 3368 C 326.145 1.22194 1.9391 0
M  V30 3369 C 327.145 0.143404 1.60159 0
M  V30 3370 O 328.335 0.394253 1.6968 0
M  V30 3371 C 325.467 0.88067 3.29328 0
M  V30 3372 H 326.66 2.19127 2.04752 0
M  V30 3373 H 324.213 1.16731 1.0394 0
M  V30 3374 H 324.948 -0.0865776 3.24184 0
M  V30 3375 H 324.733 1.66052 3.55203 0
M  V30 3376 H 326.223 0.830871 4.09251 0
M  V30 3377 N 326.66 -1.06551 1.16123 0
M  V30 3378 C 327.59 -2.15935 0.88851 0
M  V30 3379 C 328.571 -1.69306 -0.164135 0
M  V30 3380 O 329.756 -1.94193 -0.0167857 0
M  V30 3381 C 326.886 -3.45149 0.385942 0
M  V30 3382 C 325.84 -4.05271 1.3762 0
M  V30 3383 C 325.166 -5.29664 0.732137 0
M  V30 3384 C 326.466 -4.44355 2.74493 0
M  V30 3385 H 328.16 -2.39006 1.80323 0
M  V30 3386 H 325.706 -1.14866 0.868435 0
M  V30 3387 H 327.659 -4.21004 0.182647 0
M  V30 3388 H 326.383 -3.21689 -0.564274 0
M  V30 3389 H 325.042 -3.3147 1.56599 0
M  V30 3390 H 324.69 -5.02499 -0.224483 0
M  V30 3391 H 324.39 -5.70848 1.39307 0
M  V30 3392 H 325.914 -6.08218 0.538802 0
M  V30 3393 H 327.328 -5.11303 2.59311 0
M  V30 3394 H 325.725 -4.96515 3.37035 0
M  V30 3395 H 326.795 -3.55339 3.29943 0
M  V30 3396 N 328.138 -0.959301 -1.25041 0
M  V30 3397 C 329.387 -0.612254 -1.92183 0
M  V30 3398 C 329.7 0.855347 -1.75907 0
M  V30 3399 O 330.906 1.31256 -2.37664 0
M  V30 3400 C 329.362 -1.04435 -3.44414 0
M  V30 3401 C 328.97 -2.53482 -3.69393 0
M  V30 3402 C 330.714 -0.770055 -4.17457 0
M  V30 3403 C 328.621 -2.90468 -5.15153 0
M  V30 3404 H 327.551 -0.225279 -0.719559 0
M  V30 3405 H 330.202 -1.16438 -1.41825 0
M  V30 3406 H 328.584 -0.4206 -3.9376 0
M  V30 3407 H 329.758 -3.20916 -3.30681 0
M  V30 3408 H 328.073 -2.78432 -3.0962 0
M  V30 3409 H 330.67 -1.02249 -5.24832 0
M  V30 3410 H 331.013 0.293611 -4.15263 0
M  V30 3411 H 331.546 -1.35437 -3.74034 0
M  V30 3412 H 328.285 -3.95871 -5.22462 0
M  V30 3413 H 327.805 -2.27711 -5.54894 0
M  V30 3414 H 329.484 -2.79914 -5.83315 0
M  V30 3415 N 329.616 1.39756 -0.72842 0
M  V30 3416 C 330.546 2.33289 -0.0991354 0
M  V30 3417 C 331.527 1.53568 0.731489 0
M  V30 3418 O 332.712 1.81987 0.677807 0
M  V30 3419 C 329.842 3.3763 0.813834 0
M  V30 3420 C 328.796 4.2791 0.0878663 0
M  V30 3421 C 328.122 5.22894 1.11741 0
M  V30 3422 C 329.422 5.11314 -1.06563 0
M  V30 3423 H 331.116 2.86163 -0.880408 0
M  V30 3424 H 328.662 1.37591 -0.424819 0
M  V30 3425 H 330.615 4.0201 1.26355 0
M  V30 3426 H 329.339 2.83181 1.62715 0
M  V30 3427 H 327.998 3.65 -0.342159 0
M  V30 3428 H 327.646 4.64744 1.92412 0
M  V30 3429 H 327.346 5.84143 0.636477 0
M  V30 3430 H 328.87 5.90151 1.56697 0
M  V30 3431 H 330.284 5.69076 -0.694671 0
M  V30 3432 H 328.681 5.81671 -1.47577 0
M  V30 3433 H 329.751 4.46534 -1.89038 0
M  V30 3434 N 331.094 0.475555 1.50254 0
M  V30 3435 C 332.51 0.12997 1.5907 0
M  V30 3436 C 332.71 -1.36385 1.48328 0
M  V30 3437 O 331.766 -2.13754 1.34407 0
M  V30 3438 C 333.079 0.684139 2.92814 0
M  V30 3439 C 334.627 0.647965 3.0622 0
M  V30 3440 C 335.102 1.17975 4.42545 0
M  V30 3441 N 336.593 1.13936 4.48969 0
M  V30 3442 C 337.328 1.52129 5.52851 0
M  V30 3443 N 336.824 1.97793 6.63965 0
M  V30 3444 N 338.617 1.43704 5.4342 0
M  V30 3445 H 330.768 1.44706 1.55479 0
M  V30 3446 H 333.031 0.598691 0.735033 0
M  V30 3447 H 332.737 1.73079 3.06164 0
M  V30 3448 H 332.611 0.130204 3.76975 0
M  V30 3449 H 334.998 -0.38979 2.92514 0
M  V30 3450 H 335.079 1.23876 2.23805 0
M  V30 3451 H 334.723 2.21616 4.57 0
M  V30 3452 H 334.653 0.565138 5.23559 0
M  V30 3453 H 337.144 0.804488 3.69238 0
M  V30 3454 H 337.457 2.25072 7.39299 0
M  V30 3455 H 335.802 2.01749 6.65073 0
M  V30 3456 H 338.993 1.07867 4.55502 0
M  V30 3457 H 339.166 1.73794 6.24259 0
M  V30 3458 N 332.573 -1.56217 0.208337 0
M  V30 3459 C 333.483 -2.23316 -0.718836 0
M  V30 3460 C 334.499 -1.23648 -1.22422 0
M  V30 3461 O 335.675 -1.56423 -1.26861 0
M  V30 3462 C 332.74 -2.88968 -1.91568 0
M  V30 3463 C 331.801 -4.03943 -1.45357 0
M  V30 3464 C 331.034 -4.66455 -2.59337 0
M  V30 3465 O 331.257 -4.27919 -3.77149 0
M  V30 3466 O 330.191 -5.55686 -2.31293 0
M  V30 3467 H 334.017 -3.03182 -0.177315 0
M  V30 3468 H 331.602 -1.49384 -0.0215402 0
M  V30 3469 H 333.484 -3.30455 -2.61491 0
M  V30 3470 H 332.159 -2.12071 -2.44556 0
M  V30 3471 H 331.066 -3.67052 -0.722746 0
M  V30 3472 H 332.399 -4.82543 -0.970219 0
M  V30 3473 N 334.051 0.0651679 -1.57465 0
M  V30 3474 C 335.298 0.763063 -1.87573 0
M  V30 3475 C 335.626 1.77242 -0.800961 0
M  V30 3476 O 334.881 1.94651 0.202316 0
M  V30 3477 C 335.18 1.50081 -3.24362 0
M  V30 3478 C 334.846 0.630816 -4.46466 0
M  V30 3479 C 333.508 0.391082 -4.79608 0
M  V30 3480 C 335.86 0.0279465 -5.21193 0
M  V30 3481 C 333.188 -0.460894 -5.84887 0
M  V30 3482 C 335.54 -0.811522 -6.27373 0
M  V30 3483 C 334.204 -1.06106 -6.59013 0
M  V30 3484 H 333.474 0.279224 -0.686378 0
M  V30 3485 H 336.121 0.0236726 -1.91485 0
M  V30 3486 H 334.426 2.31258 -3.16271 0
M  V30 3487 H 336.123 2.04571 -3.44894 0
M  V30 3488 H 332.713 0.8278 -4.2053 0
M  V30 3489 H 336.897 0.200262 -4.95896 0
M  V30 3490 H 332.153 -0.662907 -6.07796 0
M  V30 3491 H 336.327 -1.28537 -6.84435 0
M  V30 3492 H 333.954 -1.723 -7.40417 0
M  V30 3493 N 335.529 1.53961 0.336706 0
M  V30 3494 C 336.477 1.83136 1.43401 0
M  V30 3495 C 337.471 0.702313 1.54156 0
M  V30 3496 O 338.677 0.885765 1.56698 0
M  V30 3497 H 335.052 0.580309 0.478273 0
M  V30 3498 H 337.023 2.74925 1.16012 0
M  V30 3499 C 335.772 2.06385 2.79822 0
M  V30 3500 H 335.095 2.92718 2.72316 0
M  V30 3501 H 336.535 2.30761 3.55704 0
M  V30 3502 C 334.994 0.851414 3.25964 0
M  V30 3503 O 335.524 0.0541904 4.01663 0
M  V30 3504 N 333.73 0.66672 2.82848 0
M  V30 3505 H 333.277 1.31665 2.21409 0
M  V30 3506 H 333.235 -0.143032 3.14074 0
M  V30 3507 N 337.007 -0.598083 1.45811 0
M  V30 3508 C 338.232 -1.3881 1.54099 0
M  V30 3509 C 338.657 -1.8726 0.177578 0
M  V30 3510 O 338.015 -1.6069 -0.839541 0
M  V30 3511 C 338.063 -2.56217 2.53743 0
M  V30 3512 O 337.167 -3.5716 2.06182 0
M  V30 3513 H 336.508 -0.414024 0.519115 0
M  V30 3514 H 339.038 -0.726971 1.91249 0
M  V30 3515 H 339.048 -3.03337 2.72856 0
M  V30 3516 H 337.723 -2.20303 3.5276 0
M  V30 3517 H 336.3 -3.16624 1.96987 0
M  V30 3518 N 338.485 -1.33259 -0.841409 0
M  V30 3519 C 339.734 -1.23921 -1.59143 0
M  V30 3520 C 340.047 0.1941 -1.94635 0
M  V30 3521 O 341.253 0.409474 -2.68394 0
M  V30 3522 C 339.709 -2.17119 -2.87032 0
M  V30 3523 C 339.317 -3.65606 -2.58914 0
M  V30 3524 C 341.061 -2.16648 -3.65053 0
M  V30 3525 C 338.968 -4.50726 -3.82884 0
M  V30 3526 H 337.898 -0.460264 -0.597221 0
M  V30 3527 H 340.549 -1.58307 -0.927959 0
M  V30 3528 H 338.931 -1.75663 -3.54906 0
M  V30 3529 H 340.105 -4.15487 -1.99267 0
M  V30 3530 H 338.42 -3.68341 -1.942 0
M  V30 3531 H 341.017 -2.77474 -4.57069 0
M  V30 3532 H 341.36 -1.16088 -3.99787 0
M  V30 3533 H 341.893 -2.56453 -3.041 0
M  V30 3534 H 338.632 -5.52151 -3.53283 0
M  V30 3535 H 338.152 -4.0559 -4.41879 0
M  V30 3536 H 339.831 -4.64401 -4.50489 0
M  V30 3537 N 339.963 1.05934 -1.16686 0
M  V30 3538 C 341.191 1.8249 -0.974929 0
M  V30 3539 C 341.606 1.82679 0.476861 0
M  V30 3540 O 340.963 1.2486 1.33103 0
M  V30 3541 C 341.014 3.28943 -1.49929 0
M  V30 3542 O 340.735 3.28886 -2.89423 0
M  V30 3543 C 342.236 4.22215 -1.35089 0
M  V30 3544 H 339.456 0.575295 -0.345365 0
M  V30 3545 H 342 1.33631 -1.548 0
M  V30 3546 H 340.155 3.751 -0.968423 0
M  V30 3547 H 340.569 4.20493 -3.13506 0
M  V30 3548 H 342.043 5.22987 -1.76603 0
M  V30 3549 H 342.52 4.38195 -0.296935 0
M  V30 3550 H 343.126 3.81907 -1.87155 0
M  V30 3551 N 341.441 0.965919 1.2453 0
M  V30 3552 C 342.681 0.634656 1.94297 0
M  V30 3553 C 343.045 -0.814822 1.73852 0
M  V30 3554 O 344.246 -1.25622 2.3764 0
M  V30 3555 C 342.517 0.99702 3.43212 0
M  V30 3556 S 344.076 0.780038 4.31811 0
M  V30 3557 H 340.894 0.232893 0.671775 0
M  V30 3558 H 343.496 1.24249 1.50938 0
M  V30 3559 H 342.2 2.04886 3.55598 0
M  V30 3560 H 341.731 0.379888 3.91562 0
M  V30 3561 H 343.746 -0.343512 4.9501 0
M  V30 3562 N 342.919 -1.39368 0.735821 0
M  V30 3563 C 343.829 -2.34395 0.0979693 0
M  V30 3564 C 344.845 -1.58361 -0.720968 0
M  V30 3565 O 346.021 -1.90648 -0.649245 0
M  V30 3566 C 343.086 -3.37393 -0.797916 0
M  V30 3567 C 342.147 -4.29287 0.0333662 0
M  V30 3568 C 341.38 -5.27365 -0.819854 0
M  V30 3569 O 341.603 -5.31959 -2.05855 0
M  V30 3570 O 340.537 -6.01389 -0.248079 0
M  V30 3571 H 344.363 -2.90601 0.882315 0
M  V30 3572 H 341.948 -1.40909 0.4965 0
M  V30 3573 H 343.83 -4.00505 -1.31048 0
M  V30 3574 H 342.505 -2.83571 -1.56106 0
M  V30 3575 H 341.412 -3.69395 0.591475 0
M  V30 3576 H 342.745 -4.86317 0.758752 0
M  V30 3577 N 344.397 -0.483516 -1.5 0
M  V30 3578 C 345.345 0.318061 -2.30415 0
M  V30 3579 C 346.339 0.978988 -1.38247 0
M  V30 3580 O 347.545 0.908673 -1.55381 0
M  V30 3581 H 343.92 0.121419 -0.742133 0
M  V30 3582 H 345.891 -0.380403 -2.95965 0
M  V30 3583 C 344.64 1.38013 -3.19136 0
M  V30 3584 H 343.963 0.880952 -3.89973 0
M  V30 3585 H 345.403 1.91332 -3.78375 0
M  V30 3586 C 343.862 2.38884 -2.37563 0
M  V30 3587 O 344.392 3.44412 -2.06744 0
M  V30 3588 N 342.598 2.10912 -1.99911 0
M  V30 3589 H 342.145 1.25118 -2.25174 0
M  V30 3590 H 342.103 2.78635 -1.45636 0
M  V30 3591 N 345.875 1.56104 -0.216619 0
M  V30 3592 C 346.785 2.23694 0.706982 0
M  V30 3593 C 347.801 1.24295 1.21765 0
M  V30 3594 O 348.977 1.57094 1.2603 0
M  V30 3595 C 346.042 2.8998 1.90033 0
M  V30 3596 C 345.103 4.04708 1.43213 0
M  V30 3597 C 344.336 4.67824 2.56859 0
M  V30 3598 O 344.559 4.29913 3.74874 0
M  V30 3599 O 343.493 5.56905 2.28343 0
M  V30 3600 H 347.319 3.03272 0.161235 0
M  V30 3601 H 344.904 1.49394 0.0136177 0
M  V30 3602 H 346.786 3.31837 2.59735 0
M  V30 3603 H 345.461 2.13365 2.43428 0
M  V30 3604 H 344.368 3.6743 0.70327 0
M  V30 3605 H 345.701 4.83051 0.944615 0
M  V30 3606 N 347.353 -0.0568162 1.57498 0
M  V30 3607 C 348.286 -1.09817 2.00039 0
M  V30 3608 C 349.264 -1.3674 0.879819 0
M  V30 3609 O 350.448 -1.49863 1.14338 0
M  V30 3610 C 347.575 -2.43924 2.34986 0
M  V30 3611 C 346.621 -2.33039 3.57204 0
M  V30 3612 S 347.454 -1.7102 5.07457 0
M  V30 3613 C 348.61 -3.06674 5.45621 0
M  V30 3614 H 348.843 -0.735701 2.88053 0
M  V30 3615 H 346.376 -0.265871 1.52094 0
M  V30 3616 H 348.334 -3.2106 2.55795 0
M  V30 3617 H 346.995 -2.77327 1.47474 0
M  V30 3618 H 346.188 -3.31973 3.79223 0
M  V30 3619 H 345.79 -1.64043 3.36104 0
M  V30 3620 H 348.082 -4.03 5.44608 0
M  V30 3621 H 349.025 -2.8942 6.46252 0
M  V30 3622 H 349.433 -3.07969 4.73091 0
M  V30 3623 N 348.832 -1.54138 -0.328536 0
M  V30 3624 C 349.779 -1.83176 -1.40411 0
M  V30 3625 C 350.749 -0.678494 -1.5161 0
M  V30 3626 O 351.934 -0.92443 -1.6691 0
M  V30 3627 C 349.074 -2.06035 -2.76846 0
M  V30 3628 C 348.187 -3.33727 -2.74318 0
M  V30 3629 C 347.322 -3.46574 -4.02567 0
M  V30 3630 C 346.361 -4.68159 -3.94327 0
M  V30 3631 N 345.498 -4.77959 -5.14296 0
M  V30 3632 H 350.338 -2.74938 -1.14948 0
M  V30 3633 H 347.875 -1.36166 -0.556538 0
M  V30 3634 H 349.833 -2.1728 -3.56153 0
M  V30 3635 H 348.463 -1.1757 -3.00628 0
M  V30 3636 H 347.515 -3.31246 -1.8703 0
M  V30 3637 H 348.827 -4.23139 -2.64111 0
M  V30 3638 H 347.981 -3.57333 -4.90304 0
M  V30 3639 H 346.72 -2.55245 -4.15574 0
M  V30 3640 H 345.725 -4.57461 -3.04974 0
M  V30 3641 H 346.95 -5.60868 -3.82889 0
M  V30 3642 H 344.896 -3.89544 -5.27818 0
M  V30 3643 H 344.813 -5.6133 -5.06404 0
M  V30 3644 H 346.081 -4.93044 -6.03761 0
M  V30 3645 N 350.31 0.590341 -1.46126 0
M  V30 3646 C 351.721 1.17243 -1.45296 0
M  V30 3647 C 352.072 1.95281 -0.189723 0
M  V30 3648 O 351.197 2.04502 0.707674 0
M  V30 3649 C 351.792 2.13284 -2.6324 0
M  V30 3650 C 350.351 2.66832 -2.65476 0
M  V30 3651 C 349.498 1.42557 -2.3785 0
M  V30 3652 H 352.449 0.378692 -1.54116 0
M  V30 3653 H 352.47 2.96619 -2.38323 0
M  V30 3654 H 351.982 1.56459 -3.55165 0
M  V30 3655 H 350.083 3.27548 -1.77603 0
M  V30 3656 H 350.196 3.10088 -3.65215 0
M  V30 3657 H 348.56 1.72107 -1.87753 0
M  V30 3658 H 349.343 0.875741 -3.31942 0
M  V30 3659 N 351.788 1.33704 0.83433 0
M  V30 3660 C 353.065 1.16011 1.57483 0
M  V30 3661 C 353.445 -0.27176 2.09343 0
M  V30 3662 O 352.793 -1.27146 1.89858 0
M  V30 3663 C 353.003 2.20507 2.70514 0
M  V30 3664 C 354.351 2.54898 3.39577 0
M  V30 3665 O 355.375 2.19209 2.80759 0
M  V30 3666 O 354.234 3.16158 4.45765 0
M  V30 3667 H 351.328 0.448992 0.694503 0
M  V30 3668 H 353.874 1.453 0.876691 0
M  V30 3669 H 352.646 3.16667 2.29865 0
M  V30 3670 H 352.269 1.92329 3.47987 0
M  V30 3671 N 353.266 -1.05314 1.17247 0
M  V30 3672 C 354.229 -2.112 0.890357 0
M  V30 3673 C 355.229 -1.60359 -0.118943 0
M  V30 3674 O 356.419 -1.73833 0.113086 0
M  V30 3675 C 353.551 -3.39266 0.333422 0
M  V30 3676 H 354.744 -2.37659 1.82916 0
M  V30 3677 H 352.297 -1.21538 0.982758 0
M  V30 3678 H 353.032 -3.18462 -0.612587 0
M  V30 3679 H 352.817 -3.77477 1.06082 0
M  V30 3680 H 354.307 -4.17315 0.154322 0
M  V30 3681 N 354.744 -0.972509 -1.24016 0
M  V30 3682 C 355.972 -0.654803 -1.96265 0
M  V30 3683 C 356.387 0.776708 -1.72083 0
M  V30 3684 O 355.744 1.52171 -1.00748 0
M  V30 3685 C 355.795 -0.92592 -3.49441 0
M  V30 3686 O 355.516 -2.30116 -3.72798 0
M  V30 3687 C 357.017 -0.623068 -4.38899 0
M  V30 3688 H 354.237 -0.243907 -0.6251 0
M  V30 3689 H 356.781 -1.30175 -1.57717 0
M  V30 3690 H 354.936 -0.325108 -3.86033 0
M  V30 3691 H 355.35 -2.38483 -4.67147 0
M  V30 3692 H 356.824 -0.863189 -5.45209 0
M  V30 3693 H 357.301 0.442754 -4.36963 0
M  V30 3694 H 357.907 -1.204 -4.07902 0
M  V30 3695 N 356.222 1.38976 -0.743202 0
M  V30 3696 C 357.152 2.33171 -0.123873 0
M  V30 3697 C 358.133 1.54336 0.71516 0
M  V30 3698 O 359.318 1.82696 0.658467 0
M  V30 3699 C 356.448 3.38474 0.777978 0
M  V30 3700 C 355.402 4.27979 0.0424758 0
M  V30 3701 C 354.728 5.2405 1.06189 0
M  V30 3702 C 356.028 5.10155 -1.1198 0
M  V30 3703 H 357.722 2.85213 -0.910709 0
M  V30 3704 H 355.268 1.37133 -0.439388 0
M  V30 3705 H 357.221 4.03328 1.22084 0
M  V30 3706 H 355.945 2.84891 1.59702 0
M  V30 3707 H 354.604 3.64616 -0.380853 0
M  V30 3708 H 354.252 4.66758 1.87472 0
M  V30 3709 H 353.952 5.84785 0.574485 0
M  V30 3710 H 355.476 5.9178 1.50428 0
M  V30 3711 H 356.89 5.68307 -0.75499 0
M  V30 3712 H 355.287 5.80073 -1.53738 0
M  V30 3713 H 356.357 4.44504 -1.93764 0
M  V30 3714 N 357.7 0.491464 1.49741 0
M  V30 3715 C 358.946 -0.0565092 2.02721 0
M  V30 3716 C 359.279 -1.37522 1.37118 0
M  V30 3717 O 358.554 -1.87866 0.503645 0
M  V30 3718 C 358.837 -0.219051 3.59433 0
M  V30 3719 C 358.69 1.12211 4.35579 0
M  V30 3720 C 360.009 -0.964157 4.29409 0
M  V30 3721 H 357.128 -0.0190627 0.736753 0
M  V30 3722 H 359.77 0.641021 1.7886 0
M  V30 3723 H 357.92 -0.813165 3.79895 0
M  V30 3724 H 359.592 1.75437 4.26637 0
M  V30 3725 H 357.835 1.71377 3.98513 0
M  V30 3726 H 358.506 0.961794 5.43556 0
M  V30 3727 H 360.982 -0.460378 4.13545 0
M  V30 3728 H 359.858 -1.04671 5.38828 0
M  V30 3729 H 360.119 -2.00563 3.93988 0
M  V30 3730 N 359.178 -1.55987 0.224894 0
M  V30 3731 C 360.11 -2.17722 -0.716224 0
M  V30 3732 C 361.123 -1.14723 -1.15509 0
M  V30 3733 O 362.312 -1.41688 -1.08567 0
M  V30 3734 C 359.412 -2.74873 -1.98238 0
M  V30 3735 C 358.585 -4.03074 -1.69853 0
M  V30 3736 C 357.644 -4.44757 -2.81208 0
M  V30 3737 O 356.67 -5.11587 -2.49534 0
M  V30 3738 N 357.872 -4.10716 -4.10235 0
M  V30 3739 H 360.637 -2.99109 -0.188123 0
M  V30 3740 H 358.198 -1.6184 0.0440123 0
M  V30 3741 H 360.19 -2.99727 -2.7193 0
M  V30 3742 H 358.76 -1.9777 -2.42086 0
M  V30 3743 H 357.98 -3.86041 -0.797875 0
M  V30 3744 H 359.268 -4.86701 -1.48324 0
M  V30 3745 H 358.666 -3.57019 -4.38809 0
M  V30 3746 H 357.223 -4.40455 -4.80461 0
M  V30 3747 N 360.656 0.0484629 -1.57525 0
M  V30 3748 C 361.881 0.759177 -1.93006 0
M  V30 3749 C 362.306 1.69125 -0.823317 0
M  V30 3750 O 361.664 1.79931 0.222364 0
M  V30 3751 C 361.712 1.50899 -3.27509 0
M  V30 3752 O 360.816 2.62112 -3.18388 0
M  V30 3753 H 360.157 0.205564 -0.631379 0
M  V30 3754 H 362.687 0.00972959 -2.04598 0
M  V30 3755 H 362.697 1.88317 -3.6194 0
M  V30 3756 H 361.372 0.825269 -4.0763 0
M  V30 3757 H 359.949 2.27379 -2.95556 0
M  V30 3758 N 362.134 1.5431 0.320358 0
M  V30 3759 C 363.382 1.72327 1.05583 0
M  V30 3760 C 363.703 0.50149 1.88441 0
M  V30 3761 O 362.973 -0.48448 1.89815 0
M  V30 3762 H 361.553 0.635387 0.3928 0
M  V30 3763 H 364.215 1.91621 0.356019 0
M  V30 3764 H 363.311 2.60426 1.72003 0
M  V30 3765 N 363.613 -0.582584 1.46437 0
M  V30 3766 C 364.838 -1.37168 1.55563 0
M  V30 3767 C 365.263 -1.87061 0.19743 0
M  V30 3768 O 364.621 -1.61572 -0.822451 0
M  V30 3769 C 364.669 -2.53511 2.56446 0
M  V30 3770 O 363.773 -3.54953 2.09958 0
M  V30 3771 H 363.114 -0.408494 0.523477 0
M  V30 3772 H 365.644 -0.706646 1.9201 0
M  V30 3773 H 365.654 -3.00426 2.76058 0
M  V30 3774 H 364.329 -2.16549 3.55076 0
M  V30 3775 H 362.906 -3.14516 2.00334 0
M  V30 3776 N 365.091 -1.34144 -0.827227 0
M  V30 3777 C 366.319 -1.29325 -1.61501 0
M  V30 3778 C 366.734 0.13354 -1.88327 0
M  V30 3779 O 366.091 1.0793 -1.47164 0
M  V30 3780 C 366.142 -2.07746 -2.95844 0
M  V30 3781 O 365.863 -3.4486 -2.70191 0
M  V30 3782 C 367.364 -2.10273 -3.90256 0
M  V30 3783 H 364.584 -0.445069 -0.50215 0
M  V30 3784 H 367.128 -1.76693 -1.02955 0
M  V30 3785 H 365.283 -1.6403 -3.5096 0
M  V30 3786 H 365.697 -3.85345 -3.55822 0
M  V30 3787 H 367.171 -2.69575 -4.81698 0
M  V30 3788 H 367.648 -1.096 -4.25305 0
M  V30 3789 H 368.254 -2.54059 -3.41078 0
M  V30 3790 N 366.569 1.04691 -1.17803 0
M  V30 3791 C 367.517 2.14665 -0.895635 0
M  V30 3792 C 368.511 1.68806 0.141679 0
M  V30 3793 O 369.717 1.79999 -0.00587914 0
M  V30 3794 H 366.092 0.701038 -0.272121 0
M  V30 3795 H 368.063 2.35685 -1.83017 0
M  V30 3796 C 366.812 3.45019 -0.430962 0
M  V30 3797 H 366.135 3.8071 -1.22064 0
M  V30 3798 H 367.575 4.23125 -0.272301 0
M  V30 3799 C 366.034 3.25943 0.852207 0
M  V30 3800 O 366.564 3.5296 1.91786 0
M  V30 3801 N 364.77 2.79304 0.802346 0
M  V30 3802 H 364.317 2.57518 -0.0650788 0
M  V30 3803 H 364.275 2.66921 1.66134 0
M  V30 3804 N 368.047 0.979072 1.23499 0
M  V30 3805 C 369.275 0.665202 1.95915 0
M  V30 3806 C 369.69 -0.767571 1.72493 0
M  V30 3807 O 369.047 -1.51635 1.01554 0
M  V30 3808 C 369.098 0.944438 3.48945 0
M  V30 3809 O 368.819 2.3209 3.71572 0
M  V30 3810 C 370.32 0.646336 4.38563 0
M  V30 3811 H 367.54 0.247218 0.623798 0
M  V30 3812 H 370.084 1.31009 1.57025 0
M  V30 3813 H 368.239 0.345575 3.85856 0
M  V30 3814 H 368.653 2.40957 4.65876 0
M  V30 3815 H 370.127 0.892091 5.44744 0
M  V30 3816 H 370.604 -0.419575 4.37191 0
M  V30 3817 H 371.21 1.22562 4.07258 0
M  V30 3818 N 369.525 -1.3858 0.750561 0
M  V30 3819 C 370.473 -2.32339 0.110162 0
M  V30 3820 C 371.467 -1.53864 -0.708674 0
M  V30 3821 O 372.673 -1.69417 -0.608112 0
M  V30 3822 H 369.048 -0.751812 0.0168275 0
M  V30 3823 H 371.019 -2.83959 0.917053 0
M  V30 3824 C 369.768 -3.39043 -0.771067 0
M  V30 3825 H 369.091 -3.99517 -0.150374 0
M  V30 3826 H 370.531 -4.07061 -1.1865 0
M  V30 3827 C 368.99 -2.77365 -1.91234 0
M  V30 3828 O 369.52 -2.66434 -3.00626 0
M  V30 3829 N 367.726 -2.35219 -1.70646 0
M  V30 3830 H 367.273 -2.4431 -0.81673 0
M  V30 3831 H 367.231 -1.94294 -2.47178 0
M  V30 3832 N 371.003 -0.499398 -1.49478 0
M  V30 3833 C 372.252 0.0475259 -2.01644 0
M  V30 3834 C 372.565 1.38195 -1.38425 0
M  V30 3835 O 373.771 2.01547 -1.8191 0
M  V30 3836 C 372.227 0.135164 -3.59646 0
M  V30 3837 C 371.835 -1.19252 -4.31837 0
M  V30 3838 C 373.579 0.632538 -4.19761 0
M  V30 3839 C 371.486 -1.06713 -5.81693 0
M  V30 3840 H 370.416 0.0215349 -0.753692 0
M  V30 3841 H 373.067 -0.638577 -1.7203 0
M  V30 3842 H 371.449 0.885681 -3.85969 0
M  V30 3843 H 372.623 -1.9562 -4.17216 0
M  V30 3844 H 370.938 -1.62321 -3.83459 0
M  V30 3845 H 373.535 0.743833 -5.29501 0
M  V30 3846 H 373.878 1.63098 -3.83021 0
M  V30 3847 H 374.411 -0.0613987 -3.97753 0
M  V30 3848 H 371.15 -2.03979 -6.22955 0
M  V30 3849 H 370.67 -0.344307 -5.98811 0
M  V30 3850 H 372.349 -0.745208 -6.42694 0
M  V30 3851 N 372.481 1.55866 -0.233164 0
M  V30 3852 C 373.897 1.59133 0.121988 0
M  V30 3853 C 374.097 1.25016 1.58029 0
M  V30 3854 O 373.153 0.990922 2.32243 0
M  V30 3855 C 374.466 2.99932 -0.214792 0
M  V30 3856 C 376.014 3.12601 -0.157971 0
M  V30 3857 C 376.489 4.55597 -0.46859 0
M  V30 3858 N 377.98 4.61305 -0.418585 0
M  V30 3859 C 378.715 5.69903 -0.63227 0
M  V30 3860 N 378.211 6.86819 -0.90835 0
M  V30 3861 N 380.004 5.59264 -0.563913 0
M  V30 3862 H 372.155 1.76315 -1.18434 0
M  V30 3863 H 374.418 0.820093 -0.475553 0
M  V30 3864 H 374.124 3.29588 -1.22739 0
M  V30 3865 H 373.998 3.74327 0.464691 0
M  V30 3866 H 376.385 2.82735 0.845283 0
M  V30 3867 H 376.466 2.40511 -0.871102 0
M  V30 3868 H 376.11 4.86182 -1.46934 0
M  V30 3869 H 376.04 5.25928 0.265865 0
M  V30 3870 H 378.531 3.77297 -0.213368 0
M  V30 3871 H 378.844 7.65507 -1.05919 0
M  V30 3872 H 377.189 6.88536 -0.945673 0
M  V30 3873 H 380.38 4.66802 -0.348372 0
M  V30 3874 H 380.553 6.43831 -0.733847 0
M  V30 3875 N 373.959 -0.0401083 1.57549 0
M  V30 3876 C 375.205 -0.734211 1.89043 0
M  V30 3877 C 375.538 -1.75591 0.829535 0
M  V30 3878 O 374.813 -1.93868 -0.156706 0
M  V30 3879 C 375.096 -1.41374 3.31188 0
M  V30 3880 C 374.949 -0.406299 4.47961 0
M  V30 3881 C 376.268 -2.35061 3.72068 0
M  V30 3882 H 373.387 -0.265447 0.687537 0
M  V30 3883 H 376.029 0.00294087 1.9 0
M  V30 3884 H 374.179 -2.04206 3.30503 0
M  V30 3885 H 375.851 0.219255 4.60779 0
M  V30 3886 H 374.094 0.275485 4.32924 0
M  V30 3887 H 374.765 -0.920022 5.44279 0
M  V30 3888 H 377.241 -1.82282 3.74049 0
M  V30 3889 H 376.117 -2.79593 4.72355 0
M  V30 3890 H 376.378 -3.21258 3.0372 0
M  V30 3891 N 375.437 -1.54477 -0.31217 0
M  V30 3892 C 376.662 -1.77526 -1.07235 0
M  V30 3893 C 377.087 -0.527775 -1.80544 0
M  V30 3894 O 376.445 0.52121 -1.73646 0
M  V30 3895 C 376.493 -2.97535 -2.03728 0
M  V30 3896 O 375.597 -2.69878 -3.11833 0
M  V30 3897 H 374.938 -0.58792 -0.30862 0
M  V30 3898 H 377.468 -2.01532 -0.352993 0
M  V30 3899 H 377.478 -3.25198 -2.46395 0
M  V30 3900 H 376.153 -3.87996 -1.49774 0
M  V30 3901 H 374.73 -2.53199 -2.7376 0
M  V30 3902 N 376.915 0.57481 -1.46744 0
M  V30 3903 C 377.845 1.69337 -1.60771 0
M  V30 3904 C 378.826 1.63825 -0.457736 0
M  V30 3905 O 380.011 1.8172 -0.684947 0
M  V30 3906 C 377.141 3.0798 -1.60517 0
M  V30 3907 C 376.095 3.28327 -2.74564 0
M  V30 3908 C 375.421 4.67578 -2.59373 0
M  V30 3909 C 376.721 3.15398 -4.16319 0
M  V30 3910 H 378.415 1.57853 -2.54407 0
M  V30 3911 H 375.961 0.75799 -1.22436 0
M  V30 3912 H 377.914 3.86061 -1.68923 0
M  V30 3913 H 376.638 3.20381 -0.634305 0
M  V30 3914 H 375.297 2.52649 -2.65639 0
M  V30 3915 H 374.945 4.76755 -1.60353 0
M  V30 3916 H 374.645 4.82144 -3.35873 0
M  V30 3917 H 376.169 5.47817 -2.69682 0
M  V30 3918 H 377.583 3.83315 -4.26313 0
M  V30 3919 H 375.98 3.41482 -4.93468 0
M  V30 3920 H 377.05 2.12372 -4.3592 0
M  V30 3921 N 378.394 1.34581 0.820102 0
M  V30 3922 C 379.342 1.26401 1.95258 0
M  V30 3923 C 380.336 0.161553 1.68628 0
M  V30 3924 O 381.542 0.326703 1.7701 0
M  V30 3925 H 377.917 0.392749 0.64129 0
M  V30 3926 H 379.888 2.22105 1.99279 0
M  V30 3927 C 378.637 1.03919 3.31807 0
M  V30 3928 H 377.96 1.87984 3.52848 0
M  V30 3929 H 379.4 1.02232 4.11491 0
M  V30 3930 C 377.859 -0.257433 3.35915 0
M  V30 3931 O 378.389 -1.25784 3.81499 0
M  V30 3932 N 376.595 -0.291524 2.89134 0
M  V30 3933 H 376.142 0.523161 2.52232 0
M  V30 3934 H 376.1 -1.15883 2.92264 0
M  V30 3935 N 379.872 -1.04064 1.18357 0
M  V30 3936 C 381.288 -1.2947 0.933258 0
M  V30 3937 C 381.488 -1.97466 -0.401169 0
M  V30 3938 O 380.544 -2.25528 -1.13549 0
M  V30 3939 C 381.857 -2.15337 2.09882 0
M  V30 3940 C 383.405 -2.28683 2.13712 0
M  V30 3941 C 383.88 -3.17917 3.29686 0
M  V30 3942 N 385.371 -3.25504 3.29547 0
M  V30 3943 C 386.106 -3.94706 4.15926 0
M  V30 3944 N 385.602 -4.66239 5.12439 0
M  V30 3945 N 387.395 -3.90986 4.0384 0
M  V30 3946 H 379.546 -0.583359 2.04232 0
M  V30 3947 H 381.809 -0.319921 0.892387 0
M  V30 3948 H 381.515 -1.72682 3.06389 0
M  V30 3949 H 381.389 -3.16015 2.05947 0
M  V30 3950 H 383.776 -2.70575 1.17784 0
M  V30 3951 H 383.857 -1.27596 2.21705 0
M  V30 3952 H 383.501 -2.76736 4.25887 0
M  V30 3953 H 383.431 -4.19036 3.1893 0
M  V30 3954 H 385.922 -2.74547 2.59677 0
M  V30 3955 H 386.235 -5.16638 5.74722 0
M  V30 3956 H 384.58 -4.65143 5.16398 0
M  V30 3957 H 387.771 -3.34234 3.27727 0
M  V30 3958 H 387.944 -4.44646 4.71375 0
M  V30 3959 N 381.35 -0.985608 -1.22978 0
M  V30 3960 C 382.313 -0.535071 -2.22867 0
M  V30 3961 C 383.313 0.378123 -1.56291 0
M  V30 3962 O 384.503 0.171092 -1.73358 0
M  V30 3963 C 381.635 0.222702 -3.40172 0
M  V30 3964 H 382.828 -1.41835 -2.6424 0
M  V30 3965 H 380.381 -0.772042 -1.35901 0
M  V30 3966 H 381.116 1.12229 -3.04262 0
M  V30 3967 H 380.901 -0.43288 -3.89703 0
M  V30 3968 H 382.391 0.526335 -4.1427 0
M  V30 3969 N 382.828 1.3818 -0.7579 0
M  V30 3970 C 383.791 2.28764 -0.141286 0
M  V30 3971 C 384.791 1.47388 0.642907 0
M  V30 3972 O 385.981 1.67781 0.468536 0
M  V30 3973 C 383.113 3.31184 0.808069 0
M  V30 3974 H 384.306 2.848 -0.939633 0
M  V30 3975 H 381.859 1.47212 -0.525191 0
M  V30 3976 H 382.594 2.80247 1.63193 0
M  V30 3977 H 382.379 3.91314 0.248104 0
M  V30 3978 H 383.869 3.98909 1.23536 0
M  V30 3979 N 384.306 0.507319 1.49211 0
M  V30 3980 C 385.531 -0.033725 2.07373 0
M  V30 3981 C 385.956 -1.29485 1.36437 0
M  V30 3982 O 385.314 -1.76294 0.423087 0
M  V30 3983 C 385.362 -0.263945 3.59633 0
M  V30 3984 O 384.466 -1.33737 3.90113 0
M  V30 3985 H 383.807 0.0290331 0.663365 0
M  V30 3986 H 386.337 0.708749 1.91932 0
M  V30 3987 H 386.347 -0.493536 4.05004 0
M  V30 3988 H 385.022 0.657424 4.10671 0
M  V30 3989 H 383.599 -1.09224 3.56545 0
M  V30 3990 N 385.784 -1.5574 0.241426 0
M  V30 3991 C 387.033 -1.97986 -0.385295 0
M  V30 3992 C 387.346 -1.13267 -1.59468 0
M  V30 3993 O 388.552 -1.45501 -2.2922 0
M  V30 3994 C 387.008 -3.52275 -0.736884 0
M  V30 3995 C 386.616 -4.45726 0.450796 0
M  V30 3996 C 388.36 -4.03189 -1.3281 0
M  V30 3997 C 386.267 -5.91352 0.0756662 0
M  V30 3998 H 385.197 -0.739386 -0.147731 0
M  V30 3999 H 387.848 -1.80308 0.340779 0
M  V30 4000 H 386.23 -3.65628 -1.52094 0
M  V30 4001 H 387.404 -4.44131 1.22819 0
M  V30 4002 H 385.719 -4.05264 0.956573 0
M  V30 4003 H 388.316 -5.09505 -1.62201 0
M  V30 4004 H 388.659 -3.50212 -2.25071 0
M  V30 4005 H 389.192 -3.93141 -0.607069 0
M  V30 4006 H 385.931 -6.48354 0.965272 0
M  V30 4007 H 385.451 -5.96095 -0.665635 0
M  V30 4008 H 387.13 -6.46084 -0.344075 0
M  V30 4009 N 387.262 0.0317525 -1.57568 0
M  V30 4010 C 388.192 1.03274 -2.0942 0
M  V30 4011 C 389.173 1.3788 -0.996143 0
M  V30 4012 O 390.358 1.46811 -1.27122 0
M  V30 4013 C 387.488 2.33448 -2.57137 0
M  V30 4014 C 386.442 2.13091 -3.71182 0
M  V30 4015 C 385.768 3.49001 -4.05095 0
M  V30 4016 C 387.068 1.51928 -4.99715 0
M  V30 4017 H 388.762 0.60112 -2.93303 0
M  V30 4018 H 386.308 0.287705 -1.41097 0
M  V30 4019 H 388.261 3.03802 -2.92032 0
M  V30 4020 H 386.985 2.78665 -1.70333 0
M  V30 4021 H 385.644 1.45171 -3.36632 0
M  V30 4022 H 385.292 3.91862 -3.15362 0
M  V30 4023 H 384.992 3.36207 -4.81911 0
M  V30 4024 H 386.516 4.20721 -4.42522 0
M  V30 4025 H 387.93 2.12196 -5.32584 0
M  V30 4026 H 386.327 1.49716 -5.81124 0
M  V30 4027 H 387.397 0.484811 -4.8247 0
M  V30 4028 N 388.74 1.54641 0.303973 0
M  V30 4029 C 389.688 1.86137 1.39484 0
M  V30 4030 C 390.682 0.734854 1.52631 0
M  V30 4031 O 391.888 0.918803 1.54784 0
M  V30 4032 H 388.263 0.590324 0.465856 0
M  V30 4033 H 390.234 2.77324 1.10154 0
M  V30 4034 C 388.983 2.12274 2.75382 0
M  V30 4035 H 388.306 2.98429 2.66046 0
M  V30 4036 H 389.746 2.38254 3.5073 0
M  V30 4037 C 388.205 0.920365 3.24085 0
M  V30 4038 O 388.735 0.139377 4.01458 0
M  V30 4039 N 386.941 0.726566 2.81371 0
M  V30 4040 H 386.488 1.36332 2.18567 0
M  V30 4041 H 386.446 -0.0763799 3.14307 0
M  V30 4042 N 390.218 -0.567019 1.47046 0
M  V30 4043 C 391.465 -1.32462 1.53167 0
M  V30 4044 C 391.793 -1.93571 0.189841 0
M  V30 4045 O 391.048 -1.77865 -0.816243 0
M  V30 4046 C 391.347 -2.4623 2.59047 0
M  V30 4047 C 391.013 -2.03014 4.02612 0
M  V30 4048 C 389.675 -1.90944 4.41694 0
M  V30 4049 C 392.027 -1.69895 4.92732 0
M  V30 4050 C 389.355 -1.44035 5.68745 0
M  V30 4051 C 391.707 -1.2446 6.20236 0
M  V30 4052 C 390.371 -1.10979 6.5821 0
M  V30 4053 H 389.641 -0.484713 0.560477 0
M  V30 4054 H 392.288 -0.636888 1.80599 0
M  V30 4055 H 390.593 -3.20517 2.25335 0
M  V30 4056 H 392.29 -3.04427 2.61008 0
M  V30 4057 H 388.88 -2.13348 3.71726 0
M  V30 4058 H 393.064 -1.78098 4.63244 0
M  V30 4059 H 388.32 -1.32254 5.96925 0
M  V30 4060 H 392.494 -0.978924 6.89485 0
M  V30 4061 H 390.121 -0.744078 7.5655 0
M  V30 4062 N 391.696 -1.35014 -0.812953 0
M  V30 4063 C 392.936 -1.29289 -1.58315 0
M  V30 4064 C 393.3 0.132727 -1.91541 0
M  V30 4065 O 394.501 0.314269 -2.66957 0
M  V30 4066 C 392.772 -2.1681 -2.84127 0
M  V30 4067 S 394.331 -2.28538 -3.74588 0
M  V30 4068 H 391.149 -0.459569 -0.542511 0
M  V30 4069 H 393.751 -1.70336 -0.959467 0
M  V30 4070 H 392.455 -3.19379 -2.57731 0
M  V30 4071 H 391.986 -1.76697 -3.51485 0
M  V30 4072 H 394.001 -1.4655 -4.74065 0
M  V30 4073 N 393.175 1.03435 -1.18907 0
M  V30 4074 C 394.138 2.09756 -0.923844 0
M  V30 4075 C 395.138 1.60528 0.093416 0
M  V30 4076 O 396.328 1.73631 -0.140727 0
M  V30 4077 C 393.46 3.38692 -0.387354 0
M  V30 4078 H 394.653 2.34719 -1.86674 0
M  V30 4079 H 392.206 1.19959 -1.00197 0
M  V30 4080 H 392.941 3.19396 0.561845 0
M  V30 4081 H 392.726 3.75742 -1.12074 0
M  V30 4082 H 394.216 4.17016 -0.220694 0
M  V30 4083 N 394.653 0.992116 1.22453 0
M  V30 4084 C 395.585 0.500024 2.23679 0
M  V30 4085 C 396.598 -0.404463 1.57696 0
M  V30 4086 O 397.787 -0.206722 1.77299 0
M  V30 4087 C 394.887 -0.294711 3.37616 0
M  V30 4088 C 394.06 0.605723 4.33186 0
M  V30 4089 C 393.119 -0.13717 5.26021 0
M  V30 4090 O 392.145 0.477164 5.67196 0
M  V30 4091 N 393.347 -1.4197 5.62872 0
M  V30 4092 H 396.112 1.37045 2.66531 0
M  V30 4093 H 393.673 0.866741 1.36745 0
M  V30 4094 H 395.665 -0.800329 3.96707 0
M  V30 4095 H 394.235 -1.06623 2.93854 0
M  V30 4096 H 393.455 1.29202 3.72425 0
M  V30 4097 H 394.743 1.21896 4.93983 0
M  V30 4098 H 394.141 -1.94015 5.31389 0
M  V30 4099 H 392.698 -1.87052 6.24383 0
M  V30 4100 N 396.131 -1.37776 0.765217 0
M  V30 4101 C 397.079 -2.32209 0.134798 0
M  V30 4102 C 398.073 -1.54607 -0.692315 0
M  V30 4103 O 399.279 -1.70052 -0.590109 0
M  V30 4104 H 395.654 -0.751591 0.0248005 0
M  V30 4105 H 397.625 -2.8297 0.947119 0
M  V30 4106 C 396.374 -3.39841 -0.735063 0
M  V30 4107 H 395.697 -3.99654 -0.107991 0
M  V30 4108 H 397.137 -4.08296 -1.14326 0
M  V30 4109 C 395.596 -2.79378 -1.88281 0
M  V30 4110 O 396.126 -2.69608 -2.97783 0
M  V30 4111 N 394.332 -2.37016 -1.68142 0
M  V30 4112 H 393.879 -2.45162 -0.790772 0
M  V30 4113 H 393.837 -1.96905 -2.45104 0
M  V30 4114 N 397.609 -0.515225 -1.4894 0
M  V30 4115 C 398.557 0.269115 -2.31038 0
M  V30 4116 C 399.551 0.949443 -1.40292 0
M  V30 4117 O 400.757 0.87551 -1.57273 0
M  V30 4118 H 397.132 0.10565 -0.744542 0
M  V30 4119 H 399.103 -0.443096 -2.95092 0
M  V30 4120 C 397.852 1.31213 -3.21991 0
M  V30 4121 H 397.175 0.798034 -3.91754 0
M  V30 4122 H 398.615 1.83263 -3.82349 0
M  V30 4123 C 397.074 2.33791 -2.42576 0
M  V30 4124 O 397.604 3.3995 -2.14003 0
M  V30 4125 N 395.81 2.06625 -2.0434 0
M  V30 4126 H 395.357 1.20314 -2.27777 0
M  V30 4127 H 395.315 2.75483 -1.51514 0
M  V30 4128 N 399.087 1.5561 -0.249682 0
M  V30 4129 C 400.336 1.98187 0.37479 0
M  V30 4130 C 400.649 1.14111 1.58865 0
M  V30 4131 O 401.855 1.46714 2.28445 0
M  V30 4132 C 400.311 3.52661 0.718192 0
M  V30 4133 C 399.919 4.45481 -0.474428 0
M  V30 4134 C 401.663 4.03888 1.3067 0
M  V30 4135 C 399.57 5.91303 -0.107026 0
M  V30 4136 H 398.5 0.740159 0.143808 0
M  V30 4137 H 401.151 1.80125 -0.350336 0
M  V30 4138 H 399.533 3.66429 1.50152 0
M  V30 4139 H 400.707 4.43473 -1.25172 0
M  V30 4140 H 399.022 4.04751 -0.978052 0
M  V30 4141 H 401.619 5.10358 1.59496 0
M  V30 4142 H 401.962 3.51401 2.23211 0
M  V30 4143 H 402.495 3.93457 0.586211 0
M  V30 4144 H 399.234 6.47833 -0.999642 0
M  V30 4145 H 398.754 5.9644 0.634013 0
M  V30 4146 H 400.433 6.46258 0.309807 0
M  V30 4147 N 400.565 -0.0233959 1.57583 0
M  V30 4148 C 401.528 -1.00693 2.05897 0
M  V30 4149 C 402.528 -1.28693 0.964092 0
M  V30 4150 O 403.718 -1.23602 1.22753 0
M  V30 4151 C 400.85 -2.33825 2.4807 0
M  V30 4152 H 402.043 -0.589476 2.9405 0
M  V30 4153 H 399.596 -0.270354 1.53944 0
M  V30 4154 H 400.331 -2.80307 1.6309 0
M  V30 4155 H 400.116 -2.1483 3.2801 0
M  V30 4156 H 401.606 -3.04426 2.85857 0
M  V30 4157 N 402.043 -1.548 -0.295768 0
M  V30 4158 C 403.289 -1.74588 -1.03184 0
M  V30 4159 C 403.622 -0.532962 -1.86744 0
M  V30 4160 O 402.897 0.469872 -1.88739 0
M  V30 4161 C 403.18 -3.03791 -1.93347 0
M  V30 4162 C 403.033 -4.35392 -1.12933 0
M  V30 4163 C 404.352 -3.28892 -2.92435 0
M  V30 4164 H 401.471 -0.635221 -0.373715 0
M  V30 4165 H 404.113 -1.87519 -0.30606 0
M  V30 4166 H 402.263 -2.92898 -2.55232 0
M  V30 4167 H 403.935 -4.58211 -0.532943 0
M  V30 4168 H 402.178 -4.31642 -0.432168 0
M  V30 4169 H 402.849 -5.22074 -1.79284 0
M  V30 4170 H 405.325 -3.39429 -2.4068 0
M  V30 4171 H 404.201 -4.20603 -3.52682 0
M  V30 4172 H 404.462 -2.47437 -3.6637 0
M  V30 4173 N 403.521 0.559213 -1.47345 0
M  V30 4174 C 404.937 0.884943 -1.32819 0
M  V30 4175 C 405.137 1.98988 -0.317173 0
M  V30 4176 O 404.193 2.51031 0.272011 0
M  V30 4177 C 405.506 1.28007 -2.72093 0
M  V30 4178 C 407.054 1.39161 -2.80363 0
M  V30 4179 C 407.529 1.82031 -4.20272 0
M  V30 4180 N 409.02 1.89185 -4.22804 0
M  V30 4181 C 409.755 2.2368 -5.27973 0
M  V30 4182 N 409.251 2.56802 -6.43447 0
M  V30 4183 N 411.044 2.24436 -5.15349 0
M  V30 4184 H 403.195 -0.170304 -2.11716 0
M  V30 4185 H 405.458 -0.0135247 -0.947904 0
M  V30 4186 H 405.164 0.542027 -3.47498 0
M  V30 4187 H 405.038 2.23665 -3.03733 0
M  V30 4188 H 407.425 2.12048 -2.05231 0
M  V30 4189 H 407.506 0.41696 -2.52379 0
M  V30 4190 H 407.15 1.09715 -4.95908 0
M  V30 4191 H 407.08 2.80495 -4.45679 0
M  V30 4192 H 409.571 1.65982 -3.39497 0
M  V30 4193 H 409.884 2.82144 -7.19454 0
M  V30 4194 H 408.229 2.54387 -6.46771 0
M  V30 4195 H 411.42 1.97998 -4.24163 0
M  V30 4196 H 411.593 2.50989 -5.97418 0
M  V30 4197 N 404.999 1.35443 0.805782 0
M  V30 4198 C 406.247 1.28507 1.55982 0
M  V30 4199 C 406.568 -0.140046 1.94496 0
M  V30 4200 O 405.838 -1.07666 1.63661 0
M  V30 4201 H 404.418 0.472676 0.578434 0
M  V30 4202 H 407.08 1.69555 0.961098 0
M  V30 4203 H 406.176 1.90148 2.47488 0
M  V30 4204 N 406.477 -1.02803 1.19454 0
M  V30 4205 C 407.427 -2.0945 0.900827 0
M  V30 4206 C 408.411 -1.60335 -0.134715 0
M  V30 4207 O 409.603 -1.76857 0.0710924 0
M  V30 4208 C 406.732 -3.4044 0.442229 0
M  V30 4209 C 405.818 -3.96286 1.51056 0
M  V30 4210 N 406.209 -4.25785 2.73021 0
M  V30 4211 C 404.507 -4.24307 1.37404 0
M  V30 4212 C 405.208 -4.70654 3.41848 0
M  V30 4213 N 404.184 -4.72238 2.69243 0
M  V30 4214 H 407.986 -2.3015 1.82779 0
M  V30 4215 H 405.5 -1.20672 1.08683 0
M  V30 4216 H 407.497 -4.16354 0.21326 0
M  V30 4217 H 406.157 -3.21159 -0.478238 0
M  V30 4218 H 407.168 -4.15041 3.09776 0
M  V30 4219 H 403.845 -4.14285 0.517103 0
M  V30 4220 H 405.235 -5.02392 4.46152 0
M  V30 4221 N 407.956 -0.998596 -1.21925 0
M  V30 4222 C 409.184 -0.696286 -1.94832 0
M  V30 4223 C 409.599 0.740032 -1.73692 0
M  V30 4224 O 408.956 1.5 -1.03953 0
M  V30 4225 C 409.007 -0.999833 -3.47398 0
M  V30 4226 O 408.728 -2.37972 -3.67833 0
M  V30 4227 C 410.229 -0.716025 -4.37479 0
M  V30 4228 H 407.449 -0.257111 -0.619786 0
M  V30 4229 H 409.993 -1.33491 -1.54921 0
M  V30 4230 H 408.148 -0.406918 -3.85257 0
M  V30 4231 H 408.562 -2.48338 -4.61983 0
M  V30 4232 H 410.036 -0.978642 -5.43256 0
M  V30 4233 H 410.513 0.349968 -4.37803 0
M  V30 4234 H 411.119 -1.29025 -4.05256 0
M  V30 4235 N 409.434 1.37368 -0.772513 0
M  V30 4236 C 410.364 2.32856 -0.173304 0
M  V30 4237 C 411.345 1.55818 0.682262 0
M  V30 4238 O 412.53 1.84052 0.619566 0
M  V30 4239 C 409.66 3.40048 0.706007 0
M  V30 4240 C 408.614 4.27973 -0.0483144 0
M  V30 4241 C 407.94 5.26184 0.950491 0
M  V30 4242 C 409.24 5.07665 -1.22776 0
M  V30 4243 H 410.934 2.83217 -0.971002 0
M  V30 4244 H 408.48 1.3617 -0.468377 0
M  V30 4245 H 410.433 4.05827 1.13501 0
M  V30 4246 H 409.157 2.88214 1.53623 0
M  V30 4247 H 407.816 3.63726 -0.458107 0
M  V30 4248 H 407.464 4.7063 1.77529 0
M  V30 4249 H 407.164 5.85872 0.450314 0
M  V30 4250 H 408.688 5.94838 1.37842 0
M  V30 4251 H 410.102 5.66578 -0.875366 0
M  V30 4252 H 408.499 5.76681 -1.66007 0
M  V30 4253 H 409.569 4.40294 -2.03149 0
M  V30 4254 N 410.912 0.523116 1.48665 0
M  V30 4255 C 412.158 -0.0134963 2.02796 0
M  V30 4256 C 412.491 -1.34582 1.40004 0
M  V30 4257 O 411.766 -1.86756 0.543381 0
M  V30 4258 C 412.049 -0.14276 3.59817 0
M  V30 4259 C 411.902 1.21425 4.331 0
M  V30 4260 C 413.221 -0.872856 4.31357 0
M  V30 4261 H 410.34 -0.00343074 0.736992 0
M  V30 4262 H 412.982 0.678816 1.7746 0
M  V30 4263 H 411.132 -0.732401 3.81534 0
M  V30 4264 H 412.804 1.84447 4.2282 0
M  V30 4265 H 411.047 1.79791 3.94788 0
M  V30 4266 H 411.718 1.07687 5.41394 0
M  V30 4267 H 414.194 -0.372555 4.14429 0
M  V30 4268 H 413.07 -0.932185 5.40927 0
M  V30 4269 H 413.331 -1.92161 3.98154 0
M  V30 4270 N 412.39 -1.55475 0.257931 0
M  V30 4271 C 413.636 -2.00237 -0.357338 0
M  V30 4272 C 413.991 -1.14313 -1.54759 0
M  V30 4273 O 413.284 -0.201187 -1.90541 0
M  V30 4274 C 413.478 -3.48183 -0.806433 0
M  V30 4275 C 413.307 -4.48422 0.338758 0
M  V30 4276 C 412.077 -4.98651 0.817011 0
M  V30 4277 C 414.275 -5.00827 1.16949 0
M  V30 4278 N 412.257 -5.82658 1.93346 0
M  V30 4279 C 413.628 -5.82113 2.13413 0
M  V30 4280 C 415.683 -4.83104 1.2048 0
M  V30 4281 C 414.386 -6.47566 3.13131 0
M  V30 4282 C 416.412 -5.49343 2.19034 0
M  V30 4283 C 415.774 -6.30427 3.14232 0
M  V30 4284 H 411.873 -0.776034 -0.0964083 0
M  V30 4285 H 414.457 -1.90995 0.37803 0
M  V30 4286 H 412.628 -3.57801 -1.51107 0
M  V30 4287 H 414.36 -3.79802 -1.39758 0
M  V30 4288 H 411.115 -4.71914 0.39925 0
M  V30 4289 H 411.539 -6.29356 2.49478 0
M  V30 4290 H 416.181 -4.20036 0.482634 0
M  V30 4291 H 413.899 -7.09793 3.8629 0
M  V30 4292 H 417.485 -5.37579 2.22485 0
M  V30 4293 H 416.365 -6.80777 3.89246 0
M  V30 4294 N 413.868 0.0150385 -1.57593 0
M  V30 4295 C 414.818 1.01943 -2.0394 0
M  V30 4296 C 415.802 1.31209 -0.931286 0
M  V30 4297 O 416.994 1.30559 -1.19513 0
M  V30 4298 C 414.123 2.31621 -2.53391 0
M  V30 4299 C 413.209 2.05384 -3.7105 0
M  V30 4300 N 413.6 1.49253 -4.83278 0
M  V30 4301 C 411.898 2.35601 -3.78693 0
M  V30 4302 C 412.599 1.39143 -5.64813 0
M  V30 4303 N 411.575 1.87187 -5.10355 0
M  V30 4304 H 415.377 0.57969 -2.88126 0
M  V30 4305 H 412.891 0.221056 -1.60888 0
M  V30 4306 H 414.888 3.044 -2.84862 0
M  V30 4307 H 413.548 2.76261 -1.70616 0
M  V30 4308 H 414.559 1.17334 -5.04433 0
M  V30 4309 H 411.236 2.8322 -3.06746 0
M  V30 4310 H 412.626 0.961153 -6.6499 0
M  V30 4311 N 415.346 1.54954 0.287554 0
M  V30 4312 C 416.571 1.79209 1.04397 0
M  V30 4313 C 416.996 0.556431 1.79682 0
M  V30 4314 O 416.354 -0.493518 1.74454 0
M  V30 4315 C 416.402 3.00739 1.98969 0
M  V30 4316 O 415.506 2.74805 3.075 0
M  V30 4317 H 414.847 0.592755 0.299227 0
M  V30 4318 H 417.377 2.02068 0.320886 0
M  V30 4319 H 417.387 3.29077 2.4119 0
M  V30 4320 H 416.062 3.90329 1.43582 0
M  V30 4321 H 414.639 2.57523 2.69697 0
M  V30 4322 N 416.824 -0.551391 1.4764 0
M  V30 4323 C 417.756 -1.67333 1.56628 0
M  V30 4324 C 418.769 -1.56398 0.452045 0
M  V30 4325 O 419.958 -1.6325 0.721926 0
M  V30 4326 C 417.058 -3.05841 1.45994 0
M  V30 4327 C 416.231 -3.42472 2.72088 0
M  V30 4328 C 415.29 -4.60168 2.55209 0
M  V30 4329 O 414.316 -4.64458 3.2904 0
M  V30 4330 N 415.518 -5.57024 1.63416 0
M  V30 4331 H 418.283 -1.60066 2.53375 0
M  V30 4332 H 415.844 -0.738169 1.44093 0
M  V30 4333 H 417.836 -3.8242 1.32428 0
M  V30 4334 H 416.406 -3.07302 0.573071 0
M  V30 4335 H 415.626 -2.55284 3.00373 0
M  V30 4336 H 416.914 -3.63723 3.55785 0
M  V30 4337 H 416.312 -5.56319 1.02594 0
M  V30 4338 H 414.869 -6.32906 1.558 0
M  V30 4339 N 418.302 -1.35869 -0.798587 0
M  V30 4340 C 419.53 -1.32722 -1.58722 0
M  V30 4341 C 419.945 0.0935631 -1.88568 0
M  V30 4342 O 419.302 1.04784 -1.49421 0
M  V30 4343 C 419.353 -2.13974 -2.91371 0
M  V30 4344 O 419.074 -3.50514 -2.62815 0
M  V30 4345 C 420.575 -2.18504 -3.85708 0
M  V30 4346 H 417.795 -0.45562 -0.492596 0
M  V30 4347 H 420.339 -1.78837 -0.991843 0
M  V30 4348 H 418.494 -1.71438 -3.47402 0
M  V30 4349 H 418.908 -3.92806 -3.47568 0
M  V30 4350 H 420.382 -2.79732 -4.75872 0
M  V30 4351 H 420.859 -1.18597 -4.22885 0
M  V30 4352 H 421.465 -2.61236 -3.35612 0
M  V30 4353 N 419.78 1.02168 -1.19998 0
M  V30 4354 C 421.191 1.57135 -1.00825 0
M  V30 4355 C 421.542 1.91276 0.436818 0
M  V30 4356 O 420.667 1.71679 1.3174 0
M  V30 4357 C 421.262 2.85514 -1.82393 0
M  V30 4358 C 419.821 3.37027 -1.67601 0
M  V30 4359 C 418.968 2.10388 -1.80644 0
M  V30 4360 H 421.919 0.846106 -1.34264 0
M  V30 4361 H 421.94 3.56711 -1.32429 0
M  V30 4362 H 421.452 2.60634 -2.87561 0
M  V30 4363 H 419.553 3.66878 -0.650485 0
M  V30 4364 H 419.666 4.09572 -2.4857 0
M  V30 4365 H 418.03 2.22601 -1.23778 0
M  V30 4366 H 418.813 1.8794 -2.87286 0
M  V30 4367 N 421.258 1.00505 1.21394 0
M  V30 4368 C 422.19 0.52372 2.23136 0
M  V30 4369 C 423.203 -0.387714 1.58116 0
M  V30 4370 O 424.392 -0.187905 1.77508 0
M  V30 4371 C 421.492 -0.258885 3.3791 0
M  V30 4372 C 420.665 0.651634 4.32519 0
M  V30 4373 C 419.724 -0.0813705 5.26137 0
M  V30 4374 O 418.75 0.537295 5.66658 0
M  V30 4375 N 419.952 -1.35992 5.64346 0
M  V30 4376 H 422.717 1.39865 2.65062 0
M  V30 4377 H 420.278 0.881196 1.35818 0
M  V30 4378 H 422.27 -0.758208 3.97534 0
M  V30 4379 H 420.84 -1.035 2.94968 0
M  V30 4380 H 420.06 1.33145 3.71034 0
M  V30 4381 H 421.348 1.27129 4.92662 0
M  V30 4382 H 420.746 -1.88368 5.33417 0
M  V30 4383 H 419.303 -1.8042 6.26332 0
M  V30 4384 N 422.737 -1.36956 0.779787 0
M  V30 4385 C 423.983 -2.00237 0.357324 0
M  V30 4386 C 424.338 -1.60787 -1.05666 0
M  V30 4387 O 423.631 -0.847836 -1.71821 0
M  V30 4388 C 423.825 -3.54585 0.447686 0
M  V30 4389 C 423.654 -4.09025 1.86891 0
M  V30 4390 C 422.424 -4.39612 2.49138 0
M  V30 4391 C 424.622 -4.29461 2.82963 0
M  V30 4392 N 422.604 -4.79816 3.82949 0
M  V30 4393 C 423.975 -4.72363 4.01588 0
M  V30 4394 C 426.03 -4.1161 2.80145 0
M  V30 4395 C 424.733 -4.99284 5.17791 0
M  V30 4396 C 426.759 -4.39672 3.95528 0
M  V30 4397 C 426.121 -4.82822 5.12896 0
M  V30 4398 H 422.22 -0.76148 0.177968 0
M  V30 4399 H 424.804 -1.6613 1.01533 0
M  V30 4400 H 422.975 -3.87982 -0.180184 0
M  V30 4401 H 424.707 -4.047 0.0023955 0
M  V30 4402 H 421.462 -4.28975 2.00693 0
M  V30 4403 H 421.886 -5.04216 4.51769 0
M  V30 4404 H 426.528 -3.77415 1.90572 0
M  V30 4405 H 424.246 -5.32365 6.07958 0
M  V30 4406 H 427.832 -4.27441 3.94697 0
M  V30 4407 H 426.712 -5.04118 6.00695 0
M  V30 4408 N 424.215 -0.530993 -1.48385 0
M  V30 4409 C 425.462 0.0027373 -2.025 0
M  V30 4410 C 425.79 1.34186 -1.40799 0
M  V30 4411 O 425.045 1.88 -0.543544 0
M  V30 4412 C 425.344 0.172742 -3.56982 0
M  V30 4413 C 425.01 -1.09215 -4.37473 0
M  V30 4414 C 423.672 -1.43881 -4.59186 0
M  V30 4415 C 426.024 -1.93153 -4.84088 0
M  V30 4416 C 423.352 -2.62381 -5.2476 0
M  V30 4417 C 425.704 -3.10833 -5.50968 0
M  V30 4418 C 424.368 -3.45843 -5.70919 0
M  V30 4419 H 423.638 0.00100165 -0.740999 0
M  V30 4420 H 426.285 -0.697219 -1.78357 0
M  V30 4421 H 424.59 0.955473 -3.79971 0
M  V30 4422 H 426.287 0.600642 -3.96476 0
M  V30 4423 H 422.877 -0.812177 -4.20834 0
M  V30 4424 H 427.061 -1.67683 -4.67115 0
M  V30 4425 H 422.317 -2.89707 -5.38405 0
M  V30 4426 H 426.491 -3.7618 -5.86056 0
M  V30 4427 H 424.118 -4.37764 -6.21503 0
M  V30 4428 N 425.693 1.55336 -0.266172 0
M  V30 4429 C 426.94 1.99397 0.353158 0
M  V30 4430 C 427.268 1.15451 1.56529 0
M  V30 4431 O 426.523 0.209974 1.9457 0
M  V30 4432 C 426.822 3.48606 0.787957 0
M  V30 4433 C 426.488 4.49773 -0.318541 0
M  V30 4434 C 425.15 4.77158 -0.62239 0
M  V30 4435 C 427.502 5.10212 -1.06459 0
M  V30 4436 C 424.83 5.62251 -1.67602 0
M  V30 4437 C 427.182 5.96449 -2.10788 0
M  V30 4438 C 425.846 6.22158 -2.41817 0
M  V30 4439 H 425.116 0.729644 0.12923 0
M  V30 4440 H 427.763 1.87732 -0.37802 0
M  V30 4441 H 426.068 3.57701 1.59866 0
M  V30 4442 H 427.765 3.80098 1.27775 0
M  V30 4443 H 424.355 4.2854 -0.0715925 0
M  V30 4444 H 428.539 4.89086 -0.843098 0
M  V30 4445 H 423.795 5.80419 -1.92155 0
M  V30 4446 H 427.969 6.42317 -2.69076 0
M  V30 4447 H 425.596 6.87888 -3.23596 0
M  V30 4448 N 427.171 -0.0066808 1.57599 0
M  V30 4449 C 428.118 -1.00024 2.08 0
M  V30 4450 C 429.088 -1.34549 0.973943 0
M  V30 4451 O 430.273 -1.44502 1.24595 0
M  V30 4452 C 427.413 -2.2891 2.58252 0
M  V30 4453 C 426.526 -2.00346 3.82734 0
M  V30 4454 C 425.661 -3.23265 4.21513 0
M  V30 4455 C 424.7 -2.90357 5.3885 0
M  V30 4456 N 423.837 -4.05793 5.72954 0
M  V30 4457 H 428.677 -0.563499 2.92624 0
M  V30 4458 H 426.214 -0.266592 1.44664 0
M  V30 4459 H 428.172 -3.04247 2.85464 0
M  V30 4460 H 426.802 -2.70265 1.76512 0
M  V30 4461 H 425.854 -1.15406 3.62471 0
M  V30 4462 H 427.166 -1.72086 4.68175 0
M  V30 4463 H 426.32 -4.06953 4.49971 0
M  V30 4464 H 425.059 -3.54657 3.34768 0
M  V30 4465 H 424.064 -2.05075 5.10122 0
M  V30 4466 H 425.289 -2.60219 6.27266 0
M  V30 4467 H 423.235 -4.37094 4.89167 0
M  V30 4468 H 423.152 -3.81034 6.52954 0
M  V30 4469 H 424.42 -4.90289 6.06001 0
M  V30 4470 N 428.649 -1.55105 -0.279332 0
M  V30 4471 C 429.926 -1.66119 -1.03267 0
M  V30 4472 C 430.306 -0.523525 -2.04505 0
M  V30 4473 O 429.654 0.477194 -2.23462 0
M  V30 4474 C 429.864 -3.05067 -1.69515 0
M  V30 4475 C 431.212 -3.62606 -2.20912 0
M  V30 4476 O 432.236 -3.07659 -1.79512 0
M  V30 4477 O 431.095 -4.58861 -2.96831 0
M  V30 4478 H 428.189 -0.674429 -0.478618 0
M  V30 4479 H 430.735 -1.67446 -0.275694 0
M  V30 4480 H 429.507 -3.79311 -0.9612 0
M  V30 4481 H 429.13 -3.07611 -2.51915 0
M  V30 4482 N 430.127 0.543554 -1.4793 0
M  V30 4483 C 431.075 1.67039 -1.61866 0
M  V30 4484 C 432.069 1.62294 -0.48549 0
M  V30 4485 O 433.275 1.67315 -0.66376 0
M  V30 4486 H 429.65 0.552954 -0.509652 0
M  V30 4487 H 431.621 1.52426 -2.56533 0
M  V30 4488 C 430.37 3.05357 -1.6629 0
M  V30 4489 H 429.693 3.09696 -2.5284 0
M  V30 4490 H 431.133 3.83855 -1.80088 0
M  V30 4491 C 429.592 3.34531 -0.398861 0
M  V30 4492 O 430.122 3.98649 0.494162 0
M  V30 4493 N 428.328 2.89299 -0.2747 0
M  V30 4494 H 427.875 2.37298 -1.00236 0
M  V30 4495 H 427.833 3.09188 0.570075 0
M  V30 4496 N 431.605 1.3629 0.791371 0
M  V30 4497 C 432.852 1.30412 1.54916 0
M  V30 4498 C 433.18 -0.117162 1.94147 0
M  V30 4499 O 432.435 -1.08599 1.62803 0
M  V30 4500 C 432.734 2.17068 2.8393 0
M  V30 4501 C 432.4 3.65645 2.63846 0
M  V30 4502 C 431.062 4.0614 2.58077 0
M  V30 4503 C 433.414 4.59855 2.45322 0
M  V30 4504 C 430.742 5.3899 2.31748 0
M  V30 4505 C 433.094 5.9292 2.2052 0
M  V30 4506 C 431.758 6.32542 2.13183 0
M  V30 4507 H 431.028 0.47721 0.566879 0
M  V30 4508 H 433.675 1.68325 0.913172 0
M  V30 4509 H 431.98 1.72085 3.51986 0
M  V30 4510 H 433.677 2.09846 3.4171 0
M  V30 4511 H 430.267 3.33518 2.69191 0
M  V30 4512 H 434.451 4.29443 2.48782 0
M  V30 4513 H 429.707 5.68672 2.24548 0
M  V30 4514 H 433.881 6.65487 2.05182 0
M  V30 4515 H 431.508 7.35412 1.92544 0
M  V30 4516 N 433.083 -1.0153 1.20538 0
M  V30 4517 C 434.015 -2.10224 0.913155 0
M  V30 4518 C 435.028 -1.62495 -0.0995998 0
M  V30 4519 O 436.217 -1.78014 0.131582 0
M  V30 4520 C 433.317 -3.37111 0.347717 0
M  V30 4521 C 432.49 -4.13971 1.41233 0
M  V30 4522 C 431.549 -5.19158 0.857976 0
M  V30 4523 O 430.575 -5.48 1.53897 0
M  V30 4524 N 431.777 -5.7955 -0.331966 0
M  V30 4525 H 434.542 -2.35879 1.84881 0
M  V30 4526 H 432.103 -1.17931 1.10923 0
M  V30 4527 H 434.095 -4.04683 -0.0373026 0
M  V30 4528 H 432.665 -3.08696 -0.492527 0
M  V30 4529 H 431.885 -3.41351 1.97163 0
M  V30 4530 H 433.173 -4.62103 2.12928 0
M  V30 4531 H 432.571 -5.58455 -0.902478 0
M  V30 4532 H 431.128 -6.48464 -0.65861 0
M  V30 4533 N 434.561 -1.01147 -1.20859 0
M  V30 4534 C 435.838 -0.613136 -1.85742 0
M  V30 4535 C 436.218 0.909004 -1.90526 0
M  V30 4536 O 435.566 1.79862 -1.40932 0
M  V30 4537 C 435.776 -1.255 -3.25654 0
M  V30 4538 C 437.124 -1.3672 -4.01986 0
M  V30 4539 O 438.148 -1.21082 -3.34989 0
M  V30 4540 O 437.007 -1.6194 -5.21956 0
M  V30 4541 H 434.101 -0.210878 -0.799662 0
M  V30 4542 H 436.647 -1.10853 -1.2849 0
M  V30 4543 H 435.419 -2.29532 -3.16908 0
M  V30 4544 H 435.042 -0.746369 -3.90532 0
M  V30 4545 N 436.039 1.36541 -0.78704 0
M  V30 4546 C 436.987 2.31965 -0.171724 0
M  V30 4547 C 437.981 1.55689 0.667631 0
M  V30 4548 O 439.187 1.70969 0.562981 0
M  V30 4549 H 435.562 0.751101 -0.0367545 0
M  V30 4550 H 437.533 2.81428 -0.992017 0
M  V30 4551 C 436.282 3.40968 0.680904 0
M  V30 4552 H 435.605 3.99775 0.0443961 0
M  V30 4553 H 437.045 4.10063 1.07815 0
M  V30 4554 C 435.504 2.82338 1.83813 0
M  V30 4555 O 436.034 2.74311 2.93456 0
M  V30 4556 N 434.24 2.39661 1.6435 0
M  V30 4557 H 433.787 2.46389 0.751668 0
M  V30 4558 H 433.745 2.00779 2.4194 0
M  V30 4559 N 437.518 0.538854 1.48102 0
M  V30 4560 C 438.766 0.00798599 2.02098 0
M  V30 4561 C 439.087 -1.33922 1.41739 0
M  V30 4562 O 438.357 -1.86932 0.585934 0
M  V30 4563 H 436.937 -3.62179e-05 0.747 0
M  V30 4564 H 439.599 0.7047 1.81714 0
M  V30 4565 H 438.695 -0.0937672 3.11959 0
M  V30 4566 N 438.996 -1.55193 0.274407 0
M  V30 4567 C 439.944 -2.23924 -0.629362 0
M  V30 4568 C 440.938 -1.23602 -1.1584 0
M  V30 4569 O 442.144 -1.41535 -1.11211 0
M  V30 4570 H 438.519 -0.718637 -0.221507 0
M  V30 4571 H 440.49 -2.98388 -0.0268322 0
M  V30 4572 C 439.239 -2.97329 -1.80252 0
M  V30 4573 H 438.562 -3.74313 -1.40462 0
M  V30 4574 H 440.002 -3.48743 -2.41152 0
M  V30 4575 C 438.461 -2.0276 -2.69054 0
M  V30 4576 O 438.991 -1.57836 -3.69392 0
M  V30 4577 N 437.197 -1.69275 -2.36208 0
M  V30 4578 H 436.744 -2.06004 -1.54661 0
M  V30 4579 H 436.702 -1.06271 -2.95895 0
M  V30 4580 N 440.474 -0.00167713 -1.576 0
M  V30 4581 C 441.72 0.67819 -1.91761 0
M  V30 4582 C 442.075 1.71288 -0.876256 0
M  V30 4583 O 441.368 1.91276 0.111333 0
M  V30 4584 C 441.562 1.36189 -3.30435 0
M  V30 4585 C 441.391 0.394938 -4.47962 0
M  V30 4586 C 440.161 0.00472875 -5.053 0
M  V30 4587 C 442.359 -0.339521 -5.13178 0
M  V30 4588 N 440.341 -0.960257 -6.06343 0
M  V30 4589 C 441.712 -1.15914 -6.09068 0
M  V30 4590 C 443.767 -0.403177 -4.96265 0
M  V30 4591 C 442.47 -2.03661 -6.89866 0
M  V30 4592 C 444.496 -1.26788 -5.77649 0
M  V30 4593 C 443.858 -2.07535 -6.73134 0
M  V30 4594 H 439.957 0.221317 -0.750028 0
M  V30 4595 H 442.541 -0.0624182 -1.946 0
M  V30 4596 H 440.712 2.07278 -3.28467 0
M  V30 4597 H 442.444 1.99658 -3.52021 0
M  V30 4598 H 439.199 0.373452 -4.72125 0
M  V30 4599 H 439.623 -1.43817 -6.61548 0
M  V30 4600 H 444.265 0.206818 -4.22294 0
M  V30 4601 H 441.983 -2.65727 -7.63161 0
M  V30 4602 H 445.569 -1.32107 -5.66603 0
M  V30 4603 H 444.449 -2.73363 -7.35012 0
M  V30 4604 N 441.952 1.55251 0.271103 0
M  V30 4605 C 443.198 1.76207 1.00394 0
M  V30 4606 C 443.531 0.562604 1.85872 0
M  V30 4607 O 442.806 -0.439785 1.89463 0
M  V30 4608 C 443.089 3.06828 1.8849 0
M  V30 4609 C 442.942 4.37134 1.05992 0
M  V30 4610 C 444.261 3.33503 2.87165 0
M  V30 4611 H 441.38 0.641086 0.363562 0
M  V30 4612 H 444.022 1.87982 0.276189 0
M  V30 4613 H 442.172 2.96921 2.5054 0
M  V30 4614 H 443.844 4.59001 0.459978 0
M  V30 4615 H 442.087 4.32275 0.363443 0
M  V30 4616 H 442.758 5.2486 1.70955 0
M  V30 4617 H 445.234 3.43215 2.3525 0
M  V30 4618 H 444.11 4.2616 3.45946 0
M  V30 4619 H 444.371 2.53235 3.62387 0
M  V30 4620 N 443.43 -0.535701 1.48216 0
M  V30 4621 C 444.655 -1.32149 1.59848 0
M  V30 4622 C 445.08 -1.86338 0.256842 0
M  V30 4623 O 444.438 -1.64107 -0.770632 0
M  V30 4624 C 444.486 -2.45224 2.64381 0
M  V30 4625 O 443.59 -3.48093 2.21144 0
M  V30 4626 H 442.931 -0.391634 0.536208 0
M  V30 4627 H 445.461 -0.645202 1.94161 0
M  V30 4628 H 445.471 -2.91491 2.85476 0
M  V30 4629 H 444.146 -2.05143 3.61786 0
M  V30 4630 H 442.723 -3.07984 2.10239 0
M  V30 4631 N 444.908 -1.36708 -0.784132 0
M  V30 4632 C 445.84 -1.27333 -1.90575 0
M  V30 4633 C 446.853 -0.191706 -1.61667 0
M  V30 4634 O 448.042 -0.446854 -1.72816 0
M  V30 4635 C 445.142 -0.943177 -3.25511 0
M  V30 4636 C 444.315 -2.12776 -3.82158 0
M  V30 4637 C 443.374 -1.76983 -4.95544 0
M  V30 4638 O 442.4 -2.49134 -5.11782 0
M  V30 4639 N 443.602 -0.706624 -5.76183 0
M  V30 4640 H 446.367 -2.23974 -1.99138 0
M  V30 4641 H 443.928 -1.30171 -0.962656 0
M  V30 4642 H 445.92 -0.684799 -3.98864 0
M  V30 4643 H 444.49 -0.0657333 -3.12531 0
M  V30 4644 H 443.71 -2.54863 -3.0073 0
M  V30 4645 H 444.998 -2.91904 -4.16737 0
M  V30 4646 H 444.396 -0.107643 -5.65598 0
M  V30 4647 H 442.953 -0.50808 -6.49817 0
M  V30 4648 N 446.386 1.0089 -1.21074 0
M  V30 4649 C 447.611 1.78727 -1.05221 0
M  V30 4650 C 448.036 1.83932 0.393795 0
M  V30 4651 O 447.394 1.28004 1.28393 0
M  V30 4652 C 447.442 3.20665 -1.64944 0
M  V30 4653 O 446.546 4.02632 -0.892273 0
M  V30 4654 H 445.887 0.550973 -0.370574 0
M  V30 4655 H 448.417 1.26847 -1.60534 0
M  V30 4656 H 448.427 3.71352 -1.69002 0
M  V30 4657 H 447.102 3.16191 -2.70177 0
M  V30 4658 H 445.679 3.61207 -0.926492 0
M  V30 4659 N 447.864 1.01787 1.20321 0
M  V30 4660 C 449.11 0.708985 1.90003 0
M  V30 4661 C 449.443 -0.759572 1.78729 0
M  V30 4662 O 448.718 -1.55198 1.17234 0
M  V30 4663 C 449.001 1.1469 3.41348 0
M  V30 4664 C 448.854 2.67586 3.61549 0
M  V30 4665 C 450.173 0.71915 4.34185 0
M  V30 4666 H 447.292 0.259034 0.689978 0
M  V30 4667 H 449.934 1.26584 1.41692 0
M  V30 4668 H 448.084 0.673128 3.82624 0
M  V30 4669 H 449.756 3.22826 3.29517 0
M  V30 4670 H 447.999 3.085 3.04976 0
M  V30 4671 H 448.67 2.93281 4.67643 0
M  V30 4672 H 451.146 1.12647 4.00562 0
M  V30 4673 H 450.022 1.05358 5.38694 0
M  V30 4674 H 450.283 -0.379111 4.40472 0
M  V30 4675 N 449.342 -1.36122 0.79427 0
M  V30 4676 C 450.275 -2.27759 0.141845 0
M  V30 4677 C 451.253 -1.47471 -0.684921 0
M  V30 4678 O 452.437 -1.76759 -0.654857 0
M  V30 4679 C 449.564 -3.29008 -0.804446 0
M  V30 4680 C 448.61 -4.26459 -0.0588617 0
M  V30 4681 S 449.443 -5.20253 1.26873 0
M  V30 4682 C 450.599 -6.25048 0.326562 0
M  V30 4683 H 450.832 -2.82746 0.918818 0
M  V30 4684 H 448.365 -1.42736 0.588722 0
M  V30 4685 H 450.323 -3.87842 -1.34495 0
M  V30 4686 H 448.984 -2.72924 -1.5547 0
M  V30 4687 H 448.177 -4.97973 -0.777087 0
M  V30 4688 H 447.779 -3.71731 0.411309 0
M  V30 4689 H 450.071 -6.75705 -0.492795 0
M  V30 4690 H 451.014 -7.00852 1.01053 0
M  V30 4691 H 451.422 -5.64454 -0.0722627 0
M  V30 4692 N 450.82 -0.546701 -1.47814 0
M  V30 4693 C 452.097 0.0464413 -1.95545 0
M  V30 4694 C 452.477 1.4962 -1.48919 0
M  V30 4695 O 451.825 2.16752 -0.723232 0
M  V30 4696 C 452.035 -0.0881298 -3.48889 0
M  V30 4697 C 453.383 0.0626059 -4.24554 0
M  V30 4698 O 454.407 -0.0151555 -3.56197 0
M  V30 4699 O 453.266 0.228071 -5.46024 0
M  V30 4700 H 450.36 0.0700004 -0.824032 0
M  V30 4701 H 452.906 -0.612482 -1.58262 0
M  V30 4702 H 451.678 -1.09737 -3.75597 0
M  V30 4703 H 451.301 0.608886 -3.9291 0
M  V30 4704 N 452.299 1.55045 -0.282633 0
M  V30 4705 C 453.231 2.2023 0.634924 0
M  V30 4706 C 454.244 1.18931 1.11172 0
M  V30 4707 O 455.433 1.4562 1.03233 0
M  V30 4708 C 452.533 2.82041 1.87899 0
M  V30 4709 C 451.706 4.091 1.54776 0
M  V30 4710 C 450.765 4.54887 2.64507 0
M  V30 4711 O 449.791 5.20496 2.30375 0
M  V30 4712 N 450.993 4.25659 3.94709 0
M  V30 4713 H 453.758 2.99601 0.0769811 0
M  V30 4714 H 451.319 1.61565 -0.104048 0
M  V30 4715 H 453.311 3.09613 2.60619 0
M  V30 4716 H 451.881 2.06618 2.3458 0
M  V30 4717 H 451.101 3.88736 0.654049 0
M  V30 4718 H 452.389 4.9187 1.30158 0
M  V30 4719 H 451.787 3.7306 4.25256 0
M  V30 4720 H 450.344 4.57984 4.63782 0
M  V30 4721 N 453.777 0.010035 1.57597 0
M  V30 4722 C 455.193 -0.346164 1.55801 0
M  V30 4723 C 455.393 -1.74144 1.01371 0
M  V30 4724 O 454.449 -2.43938 0.651968 0
M  V30 4725 C 455.762 -0.212216 2.9995 0
M  V30 4726 C 457.31 -0.286409 3.11687 0
M  V30 4727 C 457.785 -0.18147 4.5764 0
M  V30 4728 N 459.276 -0.239056 4.62583 0
M  V30 4729 C 460.011 -0.181351 5.73113 0
M  V30 4730 N 459.507 -0.073661 6.92761 0
M  V30 4731 N 461.3 -0.233949 5.61613 0
M  V30 4732 H 453.451 0.922657 1.91313 0
M  V30 4733 H 455.714 0.354595 0.879185 0
M  V30 4734 H 455.42 0.748169 3.4365 0
M  V30 4735 H 455.294 -0.990224 3.6397 0
M  V30 4736 H 457.681 -1.23724 2.67911 0
M  V30 4737 H 457.762 0.521645 2.50425 0
M  V30 4738 H 457.406 0.765863 5.02093 0
M  V30 4739 H 457.336 -1.00814 5.1686 0
M  V30 4740 H 459.827 -0.32321 3.76515 0
M  V30 4741 H 460.14 -0.0358003 7.72792 0
M  V30 4742 H 458.485 -0.0391461 6.94989 0
M  V30 4743 H 461.676 -0.316347 4.6703 0
M  V30 4744 H 461.849 -0.185514 6.47734 0
M  V30 4745 N 455.255 -1.55392 -0.262866 0
M  V30 4746 C 456.185 -1.91978 -1.32917 0
M  V30 4747 C 457.166 -0.7828 -1.51017 0
M  V30 4748 O 458.351 -1.04178 -1.63892 0
M  V30 4749 C 455.481 -2.20055 -2.68687 0
M  V30 4750 C 454.435 -3.35854 -2.65304 0
M  V30 4751 C 453.761 -3.49435 -4.04721 0
M  V30 4752 C 455.061 -4.71977 -2.23685 0
M  V30 4753 H 456.755 -2.81292 -1.02544 0
M  V30 4754 H 454.301 -1.3534 -0.491846 0
M  V30 4755 H 456.254 -2.44237 -3.43404 0
M  V30 4756 H 454.978 -1.27551 -3.00663 0
M  V30 4757 H 453.637 -3.11655 -1.93045 0
M  V30 4758 H 453.285 -2.54379 -4.33936 0
M  V30 4759 H 452.985 -4.27297 -4.0335 0
M  V30 4760 H 454.509 -3.7592 -4.81161 0
M  V30 4761 H 455.923 -4.95637 -2.88127 0
M  V30 4762 H 454.32 -5.52828 -2.33456 0
M  V30 4763 H 455.39 -4.70115 -1.18827 0
M  V30 4764 N 456.733 0.527833 -1.48498 0
M  V30 4765 C 457.643 1.65907 -1.65867 0
M  V30 4766 C 458.659 1.6537 -0.541192 0
M  V30 4767 O 459.835 1.84282 -0.812534 0
M  V30 4768 C 456.9 3.02364 -1.69637 0
M  V30 4769 C 455.961 3.1374 -2.93028 0
M  V30 4770 C 455.194 4.43688 -2.96609 0
M  V30 4771 O 455.417 5.30913 -2.08538 0
M  V30 4772 O 454.351 4.59475 -3.88802 0
M  V30 4773 H 458.177 1.5419 -2.61647 0
M  V30 4774 H 455.762 0.701163 -1.31924 0
M  V30 4775 H 457.644 3.83515 -1.74625 0
M  V30 4776 H 456.319 3.14401 -0.770312 0
M  V30 4777 H 455.226 2.31877 -2.93571 0
M  V30 4778 H 456.559 3.06621 -3.85026 0
M  V30 4779 N 458.211 1.37122 0.776871 0
M  V30 4780 C 459.436 1.354 1.57104 0
M  V30 4781 C 459.861 -0.0595562 1.88006 0
M  V30 4782 O 459.219 -1.03514 1.48844 0
M  V30 4783 C 459.267 2.19472 2.8612 0
M  V30 4784 O 458.371 1.59582 3.80273 0
M  V30 4785 H 457.712 0.462869 0.476076 0
M  V30 4786 H 460.242 1.80577 0.961932 0
M  V30 4787 H 460.252 2.32502 3.35271 0
M  V30 4788 H 458.927 3.22222 2.62956 0
M  V30 4789 H 457.504 1.55564 3.38902 0
M  V30 4790 N 459.689 -1.00246 1.21608 0
M  V30 4791 C 460.919 -1.77373 1.05935 0
M  V30 4792 C 461.327 -1.85059 -0.393686 0
M  V30 4793 O 460.67 -1.31289 -1.28487 0
M  V30 4794 C 460.732 -3.22705 1.58435 0
M  V30 4795 C 460.396 -3.38591 3.06929 0
M  V30 4796 C 461.393 -3.2667 4.04454 0
M  V30 4797 C 459.078 -3.6395 3.46187 0
M  V30 4798 C 461.072 -3.39877 5.39224 0
M  V30 4799 C 458.759 -3.768 4.81108 0
M  V30 4800 C 459.757 -3.6477 5.77436 0
M  V30 4801 O 459.445 -3.77206 7.09909 0
M  V30 4802 H 459.177 -0.56419 0.372378 0
M  V30 4803 H 461.731 -1.26971 1.61454 0
M  V30 4804 H 459.961 -3.74255 0.973147 0
M  V30 4805 H 461.65 -3.81515 1.38568 0
M  V30 4806 H 462.416 -3.06999 3.75468 0
M  V30 4807 H 458.295 -3.72395 2.71741 0
M  V30 4808 H 461.839 -3.30404 6.14393 0
M  V30 4809 H 457.736 -3.95975 5.09779 0
M  V30 4810 H 458.504 -3.94138 7.17355 0
M  V30 4811 N 461.167 -1.02423 -1.1978 0
M  V30 4812 C 462.416 -0.713265 -1.88667 0
M  V30 4813 C 462.729 0.7609 -1.80193 0
M  V30 4814 O 463.935 1.18473 -2.44288 0
M  V30 4815 C 462.391 -1.22545 -3.38394 0
M  V30 4816 C 461.999 -2.72706 -3.55437 0
M  V30 4817 C 463.743 -0.990257 -4.12788 0
M  V30 4818 C 461.65 -3.17367 -4.99031 0
M  V30 4819 H 460.58 -0.263105 -0.706606 0
M  V30 4820 H 463.231 -1.23792 -1.35454 0
M  V30 4821 H 461.613 -0.628732 -3.90977 0
M  V30 4822 H 462.787 -3.37993 -3.13205 0
M  V30 4823 H 461.102 -2.94453 -2.94425 0
M  V30 4824 H 463.699 -1.29926 -5.18675 0
M  V30 4825 H 464.042 0.0730761 -4.16236 0
M  V30 4826 H 464.575 -1.55074 -3.66329 0
M  V30 4827 H 461.314 -4.23009 -5.00743 0
M  V30 4828 H 460.834 -2.56805 -5.42044 0
M  V30 4829 H 462.513 -3.10441 -5.67658 0
M  V30 4830 N 462.645 1.35699 -0.801477 0
M  V30 4831 C 463.592 2.29876 -0.206294 0
M  V30 4832 C 464.562 1.52565 0.656752 0
M  V30 4833 O 465.747 1.81024 0.602906 0
M  V30 4834 C 462.887 3.39052 0.643272 0
M  V30 4835 C 462 4.31335 -0.239644 0
M  V30 4836 C 461.135 5.27599 0.61744 0
M  V30 4837 C 460.174 6.11521 -0.26619 0
M  V30 4838 N 459.311 6.99938 0.550571 0
M  V30 4839 H 464.151 2.80187 -1.01484 0
M  V30 4840 H 461.688 1.37902 -0.511997 0
M  V30 4841 H 463.646 4.0101 1.15094 0
M  V30 4842 H 462.276 2.9003 1.41713 0
M  V30 4843 H 461.328 3.70426 -0.865381 0
M  V30 4844 H 462.64 4.90243 -0.919985 0
M  V30 4845 H 461.794 5.94906 1.19045 0
M  V30 4846 H 460.533 4.69176 1.33137 0
M  V30 4847 H 459.538 5.43166 -0.851507 0
M  V30 4848 H 460.763 6.72022 -0.9779 0
M  V30 4849 H 458.709 6.44008 1.24856 0
M  V30 4850 H 458.626 7.55966 -0.071832 0
M  V30 4851 H 459.894 7.71599 1.10702 0
M  V30 4852 N 464.123 0.554532 1.47522 0
M  V30 4853 C 465.071 -0.207765 2.3167 0
M  V30 4854 C 466.065 -0.911914 1.4276 0
M  V30 4855 O 467.271 -0.833504 1.59539 0
M  V30 4856 H 463.646 -0.0858726 0.747081 0
M  V30 4857 H 465.617 0.521178 2.93813 0
M  V30 4858 C 464.366 -1.2263 3.25357 0
M  V30 4859 H 463.689 -0.693887 3.93732 0
M  V30 4860 H 465.129 -1.73062 3.87073 0
M  V30 4861 C 463.588 -2.27278 2.4869 0
M  V30 4862 O 464.118 -3.34156 2.22941 0
M  V30 4863 N 462.324 -2.01134 2.09746 0
M  V30 4864 H 461.871 -1.14232 2.30887 0
M  V30 4865 H 461.829 -2.71369 1.58765 0
M  V30 4866 N 465.601 -1.54893 0.290851 0
M  V30 4867 C 466.534 -2.19289 -0.631489 0
M  V30 4868 C 467.512 -1.15893 -1.14051 0
M  V30 4869 O 468.696 -1.4449 -1.21058 0
M  V30 4870 C 465.823 -2.82866 -1.86291 0
M  V30 4871 C 464.869 -3.997 -1.48801 0
M  V30 4872 S 465.702 -5.32641 -0.552644 0
M  V30 4873 C 466.858 -5.99696 -1.79209 0
M  V30 4874 H 467.091 -2.9718 -0.0843791 0
M  V30 4875 H 464.624 -1.54218 0.075031 0
M  V30 4876 H 466.582 -3.20124 -2.56964 0
M  V30 4877 H 465.243 -2.04839 -2.38117 0
M  V30 4878 H 464.436 -4.42932 -2.40473 0
M  V30 4879 H 464.038 -3.63947 -0.861321 0
M  V30 4880 H 466.33 -6.19886 -2.734 0
M  V30 4881 H 467.273 -6.94071 -1.40251 0
M  V30 4882 H 467.681 -5.29226 -1.96419 0
M  V30 4883 N 467.08 -0.0183926 -1.57589 0
M  V30 4884 C 468.327 0.662562 -1.91354 0
M  V30 4885 C 468.655 1.72747 -0.893788 0
M  V30 4886 O 467.91 1.9545 0.0988509 0
M  V30 4887 C 468.209 1.32676 -3.31861 0
M  V30 4888 C 467.875 0.393267 -4.49182 0
M  V30 4889 C 466.537 0.136302 -4.81007 0
M  V30 4890 C 468.889 -0.248366 -5.20608 0
M  V30 4891 C 466.217 -0.770282 -5.81621 0
M  V30 4892 C 468.569 -1.14294 -6.22189 0
M  V30 4893 C 467.233 -1.4089 -6.52462 0
M  V30 4894 H 466.503 0.242448 -0.700214 0
M  V30 4895 H 469.15 -0.0778629 -1.91342 0
M  V30 4896 H 467.455 2.14168 -3.28084 0
M  V30 4897 H 469.152 1.86001 -3.55253 0
M  V30 4898 H 465.742 0.603723 -4.24327 0
M  V30 4899 H 469.926 -0.062883 -4.9626 0
M  V30 4900 H 465.182 -0.984154 -6.03427 0
M  V30 4901 H 469.356 -1.64637 -6.76659 0
M  V30 4902 H 466.983 -2.11306 -7.30242 0
M  V30 4903 N 468.558 1.5553 0.254621 0
M  V30 4904 C 469.521 1.88872 1.29846 0
M  V30 4905 C 470.521 0.764591 1.41459 0
M  V30 4906 O 471.711 1.03265 1.40293 0
M  V30 4907 C 468.843 2.11032 2.67728 0
M  V30 4908 H 470.036 2.82201 1.01502 0
M  V30 4909 H 467.589 1.48303 0.493556 0
M  V30 4910 H 468.324 1.20146 3.01223 0
M  V30 4911 H 468.109 2.92895 2.60682 0
M  V30 4912 H 469.599 2.38038 3.43115 0
M  V30 4913 N 470.036 -0.519951 1.48776 0
M  V30 4914 C 470.946 -1.65025 1.66745 0
M  V30 4915 C 471.962 -1.6508 0.549954 0
M  V30 4916 O 473.138 -1.83848 0.822295 0
M  V30 4917 C 470.203 -3.0146 1.71238 0
M  V30 4918 C 469.264 -3.12182 2.94688 0
M  V30 4919 C 468.497 -4.42109 2.98958 0
M  V30 4920 O 468.72 -5.29799 2.1135 0
M  V30 4921 O 467.654 -4.57406 3.91233 0
M  V30 4922 H 471.48 -1.52801 2.62461 0
M  V30 4923 H 469.065 -0.694157 1.32294 0
M  V30 4924 H 470.947 -3.82584 1.76657 0
M  V30 4925 H 469.622 -3.13988 0.786975 0
M  V30 4926 H 468.529 -2.30316 2.94797 0
M  V30 4927 H 469.862 -3.04574 3.86646 0
M  V30 4928 N 471.514 -1.37532 -0.769588 0
M  V30 4929 C 472.763 -1.32183 -1.5235 0
M  V30 4930 C 473.076 0.0906555 -1.9539 0
M  V30 4931 O 474.282 0.266628 -2.70188 0
M  V30 4932 C 472.738 -2.32029 -2.75119 0
M  V30 4933 C 472.346 -3.78816 -2.3917 0
M  V30 4934 C 474.09 -2.35694 -3.53056 0
M  V30 4935 C 471.997 -4.70388 -3.58453 0
M  V30 4936 H 470.927 -0.491275 -0.571984 0
M  V30 4937 H 473.578 -1.63004 -0.842739 0
M  V30 4938 H 471.96 -1.94229 -3.45096 0
M  V30 4939 H 473.134 -4.25466 -1.76962 0
M  V30 4940 H 471.449 -3.78117 -1.74402 0
M  V30 4941 H 474.046 -3.01312 -4.41718 0
M  V30 4942 H 474.389 -1.37117 -3.93071 0
M  V30 4943 H 474.922 -2.72212 -2.90078 0
M  V30 4944 H 471.661 -5.70102 -3.23518 0
M  V30 4945 H 471.181 -4.28442 -4.19758 0
M  V30 4946 H 472.86 -4.87628 -4.25239 0
M  V30 4947 N 472.992 0.995999 -1.22138 0
M  V30 4948 C 473.924 2.08745 -0.946485 0
M  V30 4949 C 474.937 1.62633 0.0737356 0
M  V30 4950 O 476.126 1.77782 -0.159886 0
M  V30 4951 C 473.226 3.36516 -0.401305 0
M  V30 4952 C 472.399 4.11672 -1.47801 0
M  V30 4953 C 471.458 5.17728 -0.940461 0
M  V30 4954 O 470.484 5.45482 -1.62596 0
M  V30 4955 N 471.686 5.80005 0.239723 0
M  V30 4956 H 474.451 2.32908 -1.88611 0
M  V30 4957 H 472.012 1.16152 -1.12785 0
M  V30 4958 H 474.004 4.04691 -0.0270837 0
M  V30 4959 H 472.574 3.0944 0.443354 0
M  V30 4960 H 471.794 3.38171 -2.02568 0
M  V30 4961 H 473.082 4.58657 -2.20253 0
M  V30 4962 H 472.48 5.5982 0.813518 0
M  V30 4963 H 471.037 6.4943 0.555361 0
M  V30 4964 N 474.47 1.03057 1.19235 0
M  V30 4965 C 475.886 0.747947 1.40989 0
M  V30 4966 C 476.086 -0.666752 1.90149 0
M  V30 4967 O 475.142 -1.43249 2.07933 0
M  V30 4968 C 476.455 1.7855 2.41951 0
M  V30 4969 C 478.003 1.80524 2.55695 0
M  V30 4970 C 478.478 2.83243 3.59913 0
M  V30 4971 N 479.969 2.8207 3.67411 0
M  V30 4972 C 480.704 3.58204 4.47747 0
M  V30 4973 N 480.2 4.44057 5.31775 0
M  V30 4974 N 481.993 3.46738 4.42413 0
M  V30 4975 H 474.144 1.94367 0.856468 0
M  V30 4976 H 476.407 0.840412 0.438647 0
M  V30 4977 H 476.113 2.79973 2.12857 0
M  V30 4978 H 475.987 1.6092 3.41152 0
M  V30 4979 H 478.374 0.79778 2.84112 0
M  V30 4980 H 478.455 2.02229 1.56643 0
M  V30 4981 H 478.099 3.84161 3.32239 0
M  V30 4982 H 478.029 2.58795 4.5862 0
M  V30 4983 H 480.52 2.19803 3.074 0
M  V30 4984 H 480.833 4.98884 5.90199 0
M  V30 4985 H 479.178 4.48129 5.3123 0
M  V30 4986 H 482.369 2.79077 3.75811 0
M  V30 4987 H 482.542 4.06322 5.04783 0
M  V30 4988 N 475.948 -1.35272 0.808662 0
M  V30 4989 C 476.88 -2.28507 0.178149 0
M  V30 4990 C 477.893 -1.50377 -0.623754 0
M  V30 4991 O 479.082 -1.72583 -0.455774 0
M  V30 4992 C 476.182 -3.30038 -0.769959 0
M  V30 4993 C 475.355 -4.37398 -0.0139749 0
M  V30 4994 C 474.414 -5.18775 -0.880875 0
M  V30 4995 O 473.44 -5.68236 -0.331059 0
M  V30 4996 N 474.642 -5.37087 -2.20267 0
M  V30 4997 H 477.407 -2.83255 0.979106 0
M  V30 4998 H 474.968 -1.47643 0.664308 0
M  V30 4999 H 476.96 -3.81371 -1.35418 0
M  V30 5000 H 475.53 -2.75789 -1.47171 0
M  V30 5001 H 474.75 -3.86971 0.751468 0
M  V30 5002 H 476.038 -5.06268 0.506965 0
M  V30 5003 H 475.436 -4.9855 -2.67328 0
M  V30 5004 H 473.993 -5.91593 -2.73608 0
M  V30 5005 N 477.426 -0.562348 -1.47226 0
M  V30 5006 C 478.656 -0.0451619 -2.06551 0
M  V30 5007 C 479.064 1.25626 -1.41473 0
M  V30 5008 O 478.407 1.76563 -0.507061 0
M  V30 5009 C 478.469 0.216068 -3.5885 0
M  V30 5010 C 478.133 -0.996691 -4.45999 0
M  V30 5011 C 479.13 -1.90358 -4.83797 0
M  V30 5012 C 476.815 -1.21281 -4.87438 0
M  V30 5013 C 478.809 -3.01023 -5.6184 0
M  V30 5014 C 476.496 -2.32255 -5.65244 0
M  V30 5015 C 477.494 -3.21956 -6.02356 0
M  V30 5016 O 477.182 -4.31005 -6.78594 0
M  V30 5017 H 476.914 -0.0451646 -0.67449 0
M  V30 5018 H 479.468 -0.776842 -1.90143 0
M  V30 5019 H 477.698 1.00212 -3.7349 0
M  V30 5020 H 479.387 0.679264 -4.00176 0
M  V30 5021 H 480.153 -1.74868 -4.52378 0
M  V30 5022 H 476.032 -0.523767 -4.58015 0
M  V30 5023 H 479.576 -3.71064 -5.90726 0
M  V30 5024 H 475.473 -2.47715 -5.96077 0
M  V30 5025 H 476.241 -4.29118 -6.96994 0
M  V30 5026 N 478.904 1.54736 -0.299062 0
M  V30 5027 C 480.315 1.8569 0.193971 0
M  V30 5028 C 480.666 1.22101 1.53577 0
M  V30 5029 O 479.791 0.51799 2.10109 0
M  V30 5030 C 480.386 3.36895 0.358733 0
M  V30 5031 C 478.945 3.67887 0.795986 0
M  V30 5032 C 478.092 2.77131 -0.096807 0
M  V30 5033 H 481.043 1.49934 -0.520134 0
M  V30 5034 H 481.064 3.61294 1.19361 0
M  V30 5035 H 480.576 3.83148 -0.617998 0
M  V30 5036 H 478.677 3.27151 1.78334 0
M  V30 5037 H 478.79 4.75114 0.616718 0
M  V30 5038 H 477.154 2.51153 0.423581 0
M  V30 5039 H 477.937 3.26204 -1.06986 0
M  V30 5040 N 480.382 0.0267497 1.57577 0
M  V30 5041 C 481.607 -0.666227 1.96408 0
M  V30 5042 C 482.032 -1.65004 0.903071 0
M  V30 5043 O 481.39 -1.80787 -0.136263 0
M  V30 5044 C 481.438 -1.35101 3.34335 0
M  V30 5045 O 480.542 -2.46623 3.30531 0
M  V30 5046 H 479.883 -0.175206 0.640468 0
M  V30 5047 H 482.413 0.0878977 2.04411 0
M  V30 5048 H 482.423 -1.70834 3.70513 0
M  V30 5049 H 481.098 -0.629844 4.11103 0
M  V30 5050 H 479.675 -2.13019 3.06068 0
M  V30 5051 N 481.861 -1.55662 -0.24637 0
M  V30 5052 C 482.791 -1.93377 -1.30873 0
M  V30 5053 C 483.772 -0.798773 -1.50179 0
M  V30 5054 O 484.957 -1.0591 -1.62778 0
M  V30 5055 C 482.087 -2.22893 -2.66338 0
M  V30 5056 C 481.041 -3.38649 -2.61727 0
M  V30 5057 C 480.367 -3.53708 -4.00992 0
M  V30 5058 C 481.667 -4.74323 -2.18666 0
M  V30 5059 H 483.361 -2.82363 -0.995552 0
M  V30 5060 H 480.907 -1.35854 -0.477464 0
M  V30 5061 H 482.86 -2.47866 -3.40794 0
M  V30 5062 H 481.584 -1.30733 -2.99293 0
M  V30 5063 H 480.243 -3.13685 -1.89729 0
M  V30 5064 H 479.891 -2.58967 -4.31214 0
M  V30 5065 H 479.591 -4.31551 -3.98795 0
M  V30 5066 H 481.115 -3.81003 -4.77147 0
M  V30 5067 H 482.529 -4.98665 -2.82854 0
M  V30 5068 H 480.926 -5.55273 -2.27579 0
M  V30 5069 H 481.996 -4.71349 -1.13834 0
M  V30 5070 N 483.339 0.512053 -1.4905 0
M  V30 5071 C 484.287 1.63568 -1.65373 0
M  V30 5072 C 485.281 1.61228 -0.519806 0
M  V30 5073 O 486.487 1.65869 -0.699101 0
M  V30 5074 H 482.862 0.542019 -0.521267 0
M  V30 5075 H 484.833 1.4695 -2.59708 0
M  V30 5076 C 483.582 3.01761 -1.7273 0
M  V30 5077 H 482.905 3.04263 -2.59353 0
M  V30 5078 H 484.345 3.79948 -1.8819 0
M  V30 5079 C 482.804 3.33609 -0.46973 0
M  V30 5080 O 483.334 3.99607 0.409492 0
M  V30 5081 N 481.54 2.88651 -0.336003 0
M  V30 5082 H 481.087 2.35119 -1.05247 0
M  V30 5083 H 481.045 3.10328 0.504363 0
M  V30 5084 N 484.817 1.37938 0.762283 0
M  V30 5085 C 485.747 1.37176 1.88958 0
M  V30 5086 C 486.728 0.238945 1.68413 0
M  V30 5087 O 487.913 0.440726 1.89133 0
M  V30 5088 C 485.043 1.18742 3.2637 0
M  V30 5089 C 483.997 2.29136 3.61498 0
M  V30 5090 C 483.323 1.95816 4.97554 0
M  V30 5091 C 484.623 3.71363 3.6727 0
M  V30 5092 H 486.317 2.31509 1.89853 0
M  V30 5093 H 483.863 1.11438 0.912005 0
M  V30 5094 H 485.816 1.16837 4.04879 0
M  V30 5095 H 484.54 0.208683 3.25933 0
M  V30 5096 H 483.199 2.30213 2.85303 0
M  V30 5097 H 482.847 0.964475 4.93667 0
M  V30 5098 H 482.547 2.69745 5.22026 0
M  V30 5099 H 484.071 1.95513 5.78452 0
M  V30 5100 H 485.485 3.72364 4.35911 0
M  V30 5101 H 483.882 4.44425 4.03245 0
M  V30 5102 H 484.952 4.04305 2.67704 0
M  V30 5103 N 486.295 -0.989507 1.22664 0
M  V30 5104 C 487.525 -1.7624 1.0781 0
M  V30 5105 C 487.933 -1.85466 -0.374036 0
M  V30 5106 O 487.276 -1.32645 -1.27087 0
M  V30 5107 C 487.338 -3.21007 1.61849 0
M  V30 5108 C 487.002 -3.35316 3.10503 0
M  V30 5109 C 487.999 -3.22362 4.07896 0
M  V30 5110 C 485.684 -3.60258 3.50028 0
M  V30 5111 C 487.678 -3.34139 5.42798 0
M  V30 5112 C 485.365 -3.71676 4.85078 0
M  V30 5113 C 486.363 -3.58625 5.81272 0
M  V30 5114 O 486.051 -3.69655 7.1387 0
M  V30 5115 H 485.783 -0.560209 0.378341 0
M  V30 5116 H 488.337 -1.25252 1.62792 0
M  V30 5117 H 486.567 -3.73202 1.01279 0
M  V30 5118 H 488.256 -3.80024 1.42606 0
M  V30 5119 H 489.022 -3.03 3.78703 0
M  V30 5120 H 484.901 -3.69492 2.75675 0
M  V30 5121 H 488.445 -3.23869 6.17863 0
M  V30 5122 H 484.342 -3.90545 5.1395 0
M  V30 5123 H 485.11 -3.86507 7.21495 0
M  V30 5124 N 487.773 -1.03688 -1.18687 0
M  V30 5125 C 488.736 -0.629115 -2.20397 0
M  V30 5126 C 489.736 0.311495 -1.57754 0
M  V30 5127 O 490.926 0.0974107 -1.73927 0
M  V30 5128 C 488.058 0.0782231 -3.4081 0
M  V30 5129 H 489.251 -1.52915 -2.57987 0
M  V30 5130 H 486.804 -0.828988 -1.32505 0
M  V30 5131 H 487.539 0.992233 -3.08748 0
M  V30 5132 H 487.324 -0.597776 -3.87517 0
M  V30 5133 H 488.814 0.350156 -4.16129 0
M  V30 5134 N 489.251 1.34841 -0.815825 0
M  V30 5135 C 490.481 2.02436 -0.412695 0
M  V30 5136 C 490.889 1.61604 0.983906 0
M  V30 5137 O 490.232 0.813729 1.64694 0
M  V30 5138 C 490.294 3.56953 -0.427182 0
M  V30 5139 C 489.958 4.21083 -1.77589 0
M  V30 5140 C 490.955 4.42107 -2.73564 0
M  V30 5141 C 488.64 4.58006 -2.06243 0
M  V30 5142 C 490.634 4.99169 -3.9637 0
M  V30 5143 C 488.321 5.1478 -3.2931 0
M  V30 5144 C 489.319 5.35304 -4.24191 0
M  V30 5145 O 489.007 5.90878 -5.45086 0
M  V30 5146 H 488.739 0.655631 -0.164695 0
M  V30 5147 H 491.293 1.73246 -1.1034 0
M  V30 5148 H 489.523 3.85372 0.320175 0
M  V30 5149 H 491.212 4.05875 -0.0450875 0
M  V30 5150 H 491.978 4.13953 -2.52721 0
M  V30 5151 H 487.857 4.41339 -1.33196 0
M  V30 5152 H 491.401 5.15105 -4.70439 0
M  V30 5153 H 487.298 5.42362 -3.5002 0
M  V30 5154 H 488.066 6.0932 -5.46508 0
M  V30 5155 N 490.729 0.570148 1.46925 0
M  V30 5156 C 492.006 -0.0153259 1.95594 0
M  V30 5157 C 492.386 -1.47232 1.51281 0
M  V30 5158 O 491.734 -2.15574 0.757624 0
M  V30 5159 C 491.944 0.143624 3.48704 0
M  V30 5160 C 493.292 0.00494484 4.246 0
M  V30 5161 O 494.316 0.0718214 3.56128 0
M  V30 5162 O 493.175 -0.141175 5.46318 0
M  V30 5163 H 490.269 -0.0568819 0.825041 0
M  V30 5164 H 492.815 0.637583 1.57267 0
M  V30 5165 H 491.587 1.15699 3.73804 0
M  V30 5166 H 491.21 -0.5463 3.93829 0
M  V30 5167 N 492.207 -1.54576 0.307264 0
M  V30 5168 C 493.453 -2.0056 -0.300612 0
M  V30 5169 C 493.786 -1.1953 -1.53057 0
M  V30 5170 O 493.061 -0.27337 -1.92569 0
M  V30 5171 C 493.344 -3.54167 -0.650987 0
M  V30 5172 C 493.197 -4.45933 0.588539 0
M  V30 5173 C 494.516 -4.14645 -1.47506 0
M  V30 5174 H 491.635 -0.729075 -0.107788 0
M  V30 5175 H 494.277 -1.85286 0.420606 0
M  V30 5176 H 492.427 -3.67313 -1.26544 0
M  V30 5177 H 494.099 -4.44683 1.22697 0
M  V30 5178 H 492.342 -4.16274 1.22058 0
M  V30 5179 H 493.013 -5.51189 0.299153 0
M  V30 5180 H 495.489 -4.04973 -0.955821 0
M  V30 5181 H 494.365 -5.22269 -1.68899 0
M  V30 5182 H 494.626 -3.66921 -2.4662 0
M  V30 5183 N 493.685 -0.035106 -1.57561 0
M  V30 5184 C 494.931 0.64318 -1.92331 0
M  V30 5185 C 495.264 1.71434 -0.912368 0
M  V30 5186 O 494.539 1.94395 0.0640303 0
M  V30 5187 C 494.822 1.25411 -3.37556 0
M  V30 5188 C 494.675 0.192109 -4.4939 0
M  V30 5189 C 495.994 2.17041 -3.82859 0
M  V30 5190 H 493.113 0.232341 -0.699419 0
M  V30 5191 H 495.755 -0.0935889 -1.89769 0
M  V30 5192 H 493.905 1.88205 -3.39869 0
M  V30 5193 H 495.577 -0.438849 -4.59208 0
M  V30 5194 H 493.82 -0.481725 -4.31117 0
M  V30 5195 H 494.491 0.659292 -5.48049 0
M  V30 5196 H 496.967 1.64228 -3.8232 0
M  V30 5197 H 495.843 2.56738 -4.85157 0
M  V30 5198 H 496.104 3.06401 -3.18702 0
M  V30 5199 N 495.163 1.55791 0.238111 0
M  V30 5200 C 496.111 1.91885 1.31464 0
M  V30 5201 C 497.105 0.798929 1.49377 0
M  V30 5202 O 498.311 0.983626 1.50747 0
M  V30 5203 H 494.686 0.609551 0.440399 0
M  V30 5204 H 496.657 2.81747 0.982925 0
M  V30 5205 C 495.406 2.23763 2.6613 0
M  V30 5206 H 494.729 3.09444 2.53149 0
M  V30 5207 H 496.169 2.52915 3.40309 0
M  V30 5208 C 494.628 1.05699 3.1989 0
M  V30 5209 O 495.158 0.309524 4.00506 0
M  V30 5210 N 493.364 0.845251 2.78036 0
M  V30 5211 H 492.911 1.4548 2.12588 0
M  V30 5212 H 492.869 0.0569973 3.14348 0
M  V30 5213 N 496.642 -0.504142 1.49319 0
M  V30 5214 C 497.552 -1.63248 1.68486 0
M  V30 5215 C 498.568 -1.64488 0.567432 0
M  V30 5216 O 499.744 -1.82966 0.841749 0
M  V30 5217 C 496.809 -2.99627 1.74426 0
M  V30 5218 C 495.87 -3.09039 2.97982 0
M  V30 5219 C 495.103 -4.38913 3.0363 0
M  V30 5220 O 495.326 -5.27528 2.16958 0
M  V30 5221 O 494.26 -4.53231 3.96062 0
M  V30 5222 H 498.086 -1.50008 2.64067 0
M  V30 5223 H 495.671 -0.680086 1.33023 0
M  V30 5224 H 497.553 -3.80689 1.80705 0
M  V30 5225 H 496.228 -3.13136 0.820233 0
M  V30 5226 H 495.135 -2.27177 2.97223 0
M  V30 5227 H 496.468 -3.00456 3.89855 0
M  V30 5228 N 498.12 -1.38341 -0.754957 0
M  V30 5229 C 499.083 -1.35262 -1.85032 0
M  V30 5230 C 500.083 -0.253393 -1.58791 0
M  V30 5231 O 501.273 -0.510205 -1.66561 0
M  V30 5232 C 498.405 -1.10544 -3.22479 0
M  V30 5233 H 499.598 -2.32712 -1.8917 0
M  V30 5234 H 497.151 -1.23614 -0.956515 0
M  V30 5235 H 497.886 -0.136952 -3.24011 0
M  V30 5236 H 497.671 -1.90127 -3.4292 0
M  V30 5237 H 499.161 -1.11082 -4.02555 0
M  V30 5238 N 499.598 0.982988 -1.23187 0
M  V30 5239 C 500.844 1.72648 -1.06398 0
M  V30 5240 C 501.177 1.90066 0.398561 0
M  V30 5241 O 500.452 1.45105 1.29518 0
M  V30 5242 C 500.735 3.12627 -1.78707 0
M  V30 5243 C 500.588 3.02795 -3.32618 0
M  V30 5244 C 501.907 4.11997 -1.54747 0
M  V30 5245 H 499.026 0.626649 -0.387918 0
M  V30 5246 H 501.668 1.14455 -1.51658 0
M  V30 5247 H 499.818 3.62308 -1.40234 0
M  V30 5248 H 501.49 2.60659 -3.80598 0
M  V30 5249 H 499.733 2.39362 -3.61785 0
M  V30 5250 H 500.404 4.01893 -3.78399 0
M  V30 5251 H 502.88 3.71114 -1.88186 0
M  V30 5252 H 501.756 5.08037 -2.07821 0
M  V30 5253 H 502.017 4.39462 -0.482249 0
M  V30 5254 N 501.076 1.04316 1.18135 0
M  V30 5255 C 502.301 0.768047 1.92655 0
M  V30 5256 C 502.726 -0.66904 1.758 0
M  V30 5257 O 502.084 -1.46372 1.06981 0
M  V30 5258 C 502.132 1.14239 3.42026 0
M  V30 5259 O 501.236 0.269333 4.1152 0
M  V30 5260 H 500.577 0.282436 0.600937 0
M  V30 5261 H 503.107 1.39367 1.49793 0
M  V30 5262 H 503.117 1.10538 3.92741 0
M  V30 5263 H 501.792 2.18928 3.53615 0
M  V30 5264 H 500.369 0.366175 3.71098 0
M  V30 5265 N 502.554 -1.34406 0.822964 0
M  V30 5266 C 503.831 -1.92733 0.333641 0
M  V30 5267 C 504.211 -1.75107 -1.17901 0
M  V30 5268 O 503.559 -1.12983 -1.98613 0
M  V30 5269 C 503.769 -3.40557 0.763023 0
M  V30 5270 C 505.117 -4.17709 0.761879 0
M  V30 5271 O 506.141 -3.49141 0.705606 0
M  V30 5272 O 505 -5.40082 0.835109 0
M  V30 5273 H 502.094 -0.821964 0.0911249 0
M  V30 5274 H 504.64 -1.4338 0.907757 0
M  V30 5275 H 503.412 -3.47187 1.8049 0
M  V30 5276 H 503.035 -3.97259 0.164605 0
M  V30 5277 N 504.032 -0.577932 -1.46621 0
M  V30 5278 C 505.309 0.00495287 -1.95599 0
M  V30 5279 C 505.689 1.46428 -1.5206 0
M  V30 5280 O 505.037 2.1517 -0.769046 0
M  V30 5281 C 505.247 -0.162114 -3.48623 0
M  V30 5282 C 506.595 -0.0274623 -4.24591 0
M  V30 5283 O 507.619 -0.0907067 -3.56084 0
M  V30 5284 O 506.478 0.1122 -5.46385 0
M  V30 5285 H 503.572 0.0525057 -0.825332 0
M  V30 5286 H 506.118 -0.645914 -1.56927 0
M  V30 5287 H 504.89 -1.17679 -3.73185 0
M  V30 5288 H 504.513 0.525407 -3.94113 0
M  V30 5289 N 505.51 1.54411 -0.315457 0
M  V30 5290 C 506.473 2.22713 0.54142 0
M  V30 5291 C 507.473 1.2179 1.04995 0
M  V30 5292 O 508.663 1.46426 0.943667 0
M  V30 5293 C 505.795 2.92485 1.75116 0
M  V30 5294 H 506.988 2.99849 -0.0555508 0
M  V30 5295 H 504.541 1.56159 -0.0664453 0
M  V30 5296 H 505.276 2.19466 2.38758 0
M  V30 5297 H 505.061 3.66483 1.39401 0
M  V30 5298 H 506.551 3.44548 2.35959 0
M  V30 5299 N 506.988 0.0434614 1.5754 0
M  V30 5300 C 507.936 -0.951465 2.1225 0
M  V30 5301 C 508.93 -1.3274 1.05245 0
M  V30 5302 O 510.136 -1.30795 1.23663 0
M  V30 5303 H 506.511 -0.324667 0.678303 0
M  V30 5304 H 508.482 -0.464855 2.94757 0
M  V30 5305 C 507.231 -2.21972 2.67626 0
M  V30 5306 H 506.554 -1.93923 3.4962 0
M  V30 5307 H 507.994 -2.89765 3.09536 0
M  V30 5308 C 506.453 -2.95919 1.61038 0
M  V30 5309 O 506.983 -3.8857 1.01862 0
M  V30 5310 N 505.189 -2.58511 1.32741 0
M  V30 5311 H 504.736 -1.83244 1.81051 0
M  V30 5312 H 504.694 -3.08296 0.616531 0
M  V30 5313 N 508.466 -1.55915 -0.229846 0
M  V30 5314 C 509.882 -1.48721 -0.579166 0
M  V30 5315 C 510.082 -0.736976 -1.87539 0
M  V30 5316 O 509.138 -0.273258 -2.51017 0
M  V30 5317 C 510.451 -2.9323 -0.666082 0
M  V30 5318 C 511.999 -3.03701 -0.757267 0
M  V30 5319 C 512.474 -4.49552 -0.8756 0
M  V30 5320 N 513.965 -4.53561 -0.940035 0
M  V30 5321 C 514.7 -5.63683 -1.05116 0
M  V30 5322 N 514.196 -6.83576 -1.12675 0
M  V30 5323 N 515.989 -5.51516 -1.08565 0
M  V30 5324 H 508.14 -2.03123 0.620857 0
M  V30 5325 H 510.403 -0.922898 0.21671 0
M  V30 5326 H 510.109 -3.51032 0.21664 0
M  V30 5327 H 509.983 -3.44668 -1.53243 0
M  V30 5328 H 512.37 -2.45969 -1.63043 0
M  V30 5329 H 512.451 -2.55446 0.134583 0
M  V30 5330 H 512.095 -5.079 -0.00692351 0
M  V30 5331 H 512.025 -4.95506 -1.78274 0
M  V30 5332 H 514.516 -3.67215 -0.892269 0
M  V30 5333 H 514.829 -7.63251 -1.21109 0
M  V30 5334 H 513.174 -6.86303 -1.09603 0
M  V30 5335 H 516.365 -4.5678 -1.02319 0
M  V30 5336 H 516.538 -6.37372 -1.1688 0
M  V30 5337 N 509.944 0.496216 -1.49584 0
M  V30 5338 C 511.172 1.27394 -1.63029 0
M  V30 5339 C 511.587 1.86344 -0.303569 0
M  V30 5340 O 510.944 1.68057 0.711547 0
M  V30 5341 C 510.995 2.40077 -2.70269 0
M  V30 5342 O 510.716 1.83549 -3.97796 0
M  V30 5343 C 512.217 3.31372 -2.94462 0
M  V30 5344 H 509.437 0.386211 -0.54871 0
M  V30 5345 H 511.981 0.595163 -1.95648 0
M  V30 5346 H 510.136 3.03775 -2.40415 0
M  V30 5347 H 510.55 2.57561 -4.56905 0
M  V30 5348 H 512.024 4.06707 -3.73221 0
M  V30 5349 H 512.501 3.88654 -2.0456 0
M  V30 5350 H 513.107 2.73435 -3.25751 0
M  V30 5351 N 511.423 1.38739 0.74761 0
M  V30 5352 C 512.839 1.20067 1.05148 0
M  V30 5353 C 513.039 0.0534835 2.01429 0
M  V30 5354 O 512.095 -0.59886 2.45296 0
M  V30 5355 C 513.408 2.52957 1.62584 0
M  V30 5356 C 514.956 2.59692 1.74726 0
M  V30 5357 C 515.431 3.92772 2.35573 0
M  V30 5358 N 516.922 3.94343 2.42997 0
M  V30 5359 C 517.657 4.9408 2.90985 0
M  V30 5360 N 517.153 6.04214 3.38965 0
M  V30 5361 N 518.946 4.81466 2.9008 0
M  V30 5362 H 511.097 2.12121 0.108808 0
M  V30 5363 H 513.36 0.941491 0.110899 0
M  V30 5364 H 513.066 3.37389 0.993051 0
M  V30 5365 H 512.94 2.71779 2.61565 0
M  V30 5366 H 515.327 1.75651 2.3713 0
M  V30 5367 H 515.408 2.44731 0.744326 0
M  V30 5368 H 515.052 4.77238 1.738 0
M  V30 5369 H 514.982 4.05046 3.36519 0
M  V30 5370 H 517.473 3.14799 2.0907 0
M  V30 5371 H 517.786 6.76241 3.74056 0
M  V30 5372 H 516.131 6.07825 3.37007 0
M  V30 5373 H 519.322 3.94535 2.51912 0
M  V30 5374 H 519.495 5.59344 3.27166 0
M  V30 5375 N 512.901 -0.976442 1.23707 0
M  V30 5376 C 514.131 -1.75087 1.09673 0
M  V30 5377 C 514.539 -1.85852 -0.354344 0
M  V30 5378 O 513.882 -1.33985 -1.25673 0
M  V30 5379 C 513.944 -3.19272 1.65245 0
M  V30 5380 C 513.608 -3.32004 3.14042 0
M  V30 5381 C 514.605 -3.18017 4.11292 0
M  V30 5382 C 512.29 -3.56525 3.53829 0
M  V30 5383 C 514.284 -3.28363 5.46312 0
M  V30 5384 C 511.971 -3.6651 4.88993 0
M  V30 5385 C 512.969 -3.52439 5.85043 0
M  V30 5386 O 512.657 -3.62063 7.1775 0
M  V30 5387 H 512.389 -0.556164 0.384262 0
M  V30 5388 H 514.943 -1.23518 1.64111 0
M  V30 5389 H 513.173 -3.72107 1.05231 0
M  V30 5390 H 514.862 -3.7849 1.46629 0
M  V30 5391 H 515.628 -2.98966 3.81896 0
M  V30 5392 H 511.507 -3.66547 2.79579 0
M  V30 5393 H 515.051 -3.17297 6.21263 0
M  V30 5394 H 510.948 -3.85072 5.18063 0
M  V30 5395 H 511.716 -3.78833 7.25553 0
M  V30 5396 N 514.379 -1.04941 -1.1758 0
M  V30 5397 C 515.609 -0.777166 -1.91425 0
M  V30 5398 C 516.017 0.670647 -1.76915 0
M  V30 5399 O 515.36 1.46965 -1.10213 0
M  V30 5400 C 515.422 -1.07495 -3.43052 0
M  V30 5401 C 515.086 -2.51844 -3.81345 0
M  V30 5402 C 516.083 -3.50047 -3.844 0
M  V30 5403 C 513.768 -2.86787 -4.12382 0
M  V30 5404 C 515.762 -4.81239 -4.17957 0
M  V30 5405 C 513.449 -4.18182 -4.45608 0
M  V30 5406 C 514.447 -5.15219 -4.48373 0
M  V30 5407 O 514.135 -6.44258 -4.80819 0
M  V30 5408 H 513.867 -0.282209 -0.614275 0
M  V30 5409 H 516.421 -1.40258 -1.50056 0
M  V30 5410 H 514.651 -0.392437 -3.84704 0
M  V30 5411 H 516.34 -0.78912 -3.98155 0
M  V30 5412 H 517.106 -3.24391 -3.60548 0
M  V30 5413 H 512.985 -2.11922 -4.09402 0
M  V30 5414 H 516.529 -5.56974 -4.2003 0
M  V30 5415 H 512.426 -4.43602 -4.68922 0
M  V30 5416 H 513.194 -6.49041 -4.98686 0
M  V30 5417 N 515.857 1.33968 -0.830081 0
M  V30 5418 C 517.105 1.97672 -0.420734 0
M  V30 5419 C 517.426 1.66111 1.02138 0
M  V30 5420 O 516.696 0.955503 1.71017 0
M  V30 5421 H 515.276 0.73125 -0.152587 0
M  V30 5422 H 517.938 1.63483 -1.0611 0
M  V30 5423 H 517.034 3.07294 -0.545588 0
M  V30 5424 N 517.335 0.585699 1.46312 0
M  V30 5425 C 518.583 0.072278 2.01971 0
M  V30 5426 C 518.904 -1.29345 1.45928 0
M  V30 5427 O 518.174 -1.84973 0.645109 0
M  V30 5428 H 516.754 0.023729 0.746623 0
M  V30 5429 H 519.416 0.762155 1.7938 0
M  V30 5430 H 518.512 0.00552767 3.121 0
M  V30 5431 N 518.813 -1.54241 0.323641 0
M  V30 5432 C 519.776 -2.22997 -0.529602 0
M  V30 5433 C 520.776 -1.22345 -1.04347 0
M  V30 5434 O 521.966 -1.46924 -0.935889 0
M  V30 5435 C 519.098 -2.93409 -1.73562 0
M  V30 5436 H 520.291 -2.99815 0.0714518 0
M  V30 5437 H 517.844 -1.56121 0.0747258 0
M  V30 5438 H 518.579 -2.20729 -2.37591 0
M  V30 5439 H 518.364 -3.67217 -1.37456 0
M  V30 5440 H 519.854 -3.45794 -2.34128 0
M  V30 5441 N 520.291 -0.0518155 -1.57515 0
M  V30 5442 C 521.707 0.304735 -1.56664 0
M  V30 5443 C 521.907 1.71395 -1.05953 0
M  V30 5444 O 520.963 2.42123 -0.716414 0
M  V30 5445 C 522.276 0.132614 -3.00407 0
M  V30 5446 C 523.824 0.20367 -3.12337 0
M  V30 5447 C 524.299 0.0600706 -4.57961 0
M  V30 5448 N 525.79 0.116326 -4.63054 0
M  V30 5449 C 526.525 0.0293363 -5.73392 0
M  V30 5450 N 526.021 -0.110038 -6.92713 0
M  V30 5451 N 527.814 0.0849651 -5.62036 0
M  V30 5452 H 519.965 -0.973056 -1.888 0
M  V30 5453 H 522.228 -0.377781 -0.869474 0
M  V30 5454 H 521.934 -0.839019 -3.41546 0
M  V30 5455 H 521.808 0.893376 -3.66468 0
M  V30 5456 H 524.195 1.16578 -2.71097 0
M  V30 5457 H 524.276 -0.587857 -2.48954 0
M  V30 5458 H 523.92 -0.898715 -4.99886 0
M  V30 5459 H 523.85 0.87075 -5.19351 0
M  V30 5460 H 526.341 0.22327 -3.7724 0
M  V30 5461 H 526.654 -0.169104 -7.72615 0
M  V30 5462 H 524.999 -0.145132 -6.94848 0
M  V30 5463 H 528.19 0.192411 -4.67704 0
M  V30 5464 H 528.363 0.0137131 -6.47999 0
M  V30 5465 N 521.769 1.56035 0.221574 0
M  V30 5466 C 522.679 1.95581 1.29558 0
M  V30 5467 C 523.695 0.859639 1.51282 0
M  V30 5468 O 524.871 1.16321 1.64413 0
M  V30 5469 C 521.936 2.26447 2.62531 0
M  V30 5470 C 520.997 3.49632 2.4911 0
M  V30 5471 C 520.23 3.79017 3.75742 0
M  V30 5472 O 520.453 3.10077 4.78757 0
M  V30 5473 O 519.387 4.72507 3.72855 0
M  V30 5474 H 523.213 2.8711 0.990035 0
M  V30 5475 H 520.798 1.43244 0.424434 0
M  V30 5476 H 522.68 2.47494 3.41064 0
M  V30 5477 H 521.355 1.38092 2.92766 0
M  V30 5478 H 520.262 3.33864 1.68777 0
M  V30 5479 H 521.595 4.3837 2.23814 0
M  V30 5480 N 523.247 -0.488276 1.49845 0
M  V30 5481 C 524.658 -1.06955 1.53028 0
M  V30 5482 C 525.009 -1.9351 0.323797 0
M  V30 5483 O 524.134 -2.08891 -0.565116 0
M  V30 5484 C 524.729 -1.94643 2.77307 0
M  V30 5485 C 523.288 -2.4791 2.83227 0
M  V30 5486 C 522.435 -1.25833 2.47106 0
M  V30 5487 H 525.386 -0.271626 1.56358 0
M  V30 5488 H 525.407 -2.79496 2.5819 0
M  V30 5489 H 524.919 -1.31621 3.65099 0
M  V30 5490 H 523.02 -3.14535 1.99745 0
M  V30 5491 H 523.133 -2.84193 3.85709 0
M  V30 5492 H 521.497 -1.58764 1.99163 0
M  V30 5493 H 522.28 -0.644993 3.37186 0
M  V30 5494 N 524.725 -1.39134 -0.740242 0
M  V30 5495 C 525.973 -1.35803 -1.49673 0
M  V30 5496 C 526.294 0.0470897 -1.94943 0
M  V30 5497 O 525.564 0.997347 -1.68611 0
M  V30 5498 H 524.144 -0.499736 -0.555224 0
M  V30 5499 H 526.806 -1.73947 -0.879107 0
M  V30 5500 H 525.902 -2.0174 -2.38133 0
M  V30 5501 N 526.204 0.969867 -1.24223 0
M  V30 5502 C 527.434 1.74502 -1.106 0
M  V30 5503 C 527.842 1.86038 0.344483 0
M  V30 5504 O 527.185 1.3465 1.24961 0
M  V30 5505 C 527.247 3.18391 -1.66935 0
M  V30 5506 C 526.911 3.30334 -3.15798 0
M  V30 5507 C 527.908 3.15832 -4.12973 0
M  V30 5508 C 525.593 3.54644 -3.55715 0
M  V30 5509 C 527.587 3.25461 -5.48045 0
M  V30 5510 C 525.274 3.63912 -4.90929 0
M  V30 5511 C 526.272 3.49332 -5.86904 0
M  V30 5512 O 525.96 3.58251 -7.1966 0
M  V30 5513 H 525.692 0.554119 -0.387206 0
M  V30 5514 H 528.246 1.22646 -1.64764 0
M  V30 5515 H 526.476 3.71543 -1.07203 0
M  V30 5516 H 528.165 3.77707 -1.48634 0
M  V30 5517 H 528.931 2.96937 -3.83476 0
M  V30 5518 H 524.81 3.65059 -2.81519 0
M  V30 5519 H 528.354 3.13998 -6.22937 0
M  V30 5520 H 524.251 3.82319 -5.20098 0
M  V30 5521 H 525.019 3.7498 -7.27552 0
M  V30 5522 N 527.682 1.05563 1.17022 0
M  V30 5523 C 528.93 0.76642 1.87004 0
M  V30 5524 C 529.251 -0.708854 1.8166 0
M  V30 5525 O 528.521 -1.51242 1.2451 0
M  V30 5526 H 527.101 0.280516 0.692329 0
M  V30 5527 H 529.763 1.33557 1.41945 0
M  V30 5528 H 528.859 1.08472 2.92644 0
M  V30 5529 N 529.16 -1.33526 0.837174 0
M  V30 5530 C 530.108 -2.31168 0.257698 0
M  V30 5531 C 531.102 -1.5806 -0.609388 0
M  V30 5532 O 532.308 -1.72941 -0.499139 0
M  V30 5533 H 528.683 -0.74922 0.0646058 0
M  V30 5534 H 530.654 -2.77552 1.09578 0
M  V30 5535 C 529.403 -3.4326 -0.553887 0
M  V30 5536 H 528.726 -3.99665 0.104008 0
M  V30 5537 H 530.166 -4.13782 -0.925219 0
M  V30 5538 C 528.625 -2.88965 -1.73207 0
M  V30 5539 O 529.155 -2.85013 -2.83073 0
M  V30 5540 N 527.361 -2.45596 -1.55342 0
M  V30 5541 H 526.908 -2.49009 -0.659705 0
M  V30 5542 H 526.866 -2.0962 -2.34322 0
M  V30 5543 N 530.638 -0.59345 -1.46 0
M  V30 5544 C 531.886 -0.082988 -2.0193 0
M  V30 5545 C 532.207 1.28569 -1.46612 0
M  V30 5546 O 531.477 1.84629 -0.654909 0
M  V30 5547 H 530.057 -0.0276882 -0.746487 0
M  V30 5548 H 532.719 -0.771657 -1.78973 0
M  V30 5549 H 531.815 -0.022079 -3.12092 0
M  V30 5550 N 532.116 1.54067 -0.331816 0
M  V30 5551 C 533.532 1.59587 0.0205388 0
M  V30 5552 C 533.732 1.34813 1.49759 0
M  V30 5553 O 532.788 1.13661 2.25471 0
M  V30 5554 C 534.101 2.97959 -0.405103 0
M  V30 5555 C 535.649 3.10964 -0.356454 0
M  V30 5556 C 536.124 4.51694 -0.757384 0
M  V30 5557 N 537.615 4.57709 -0.71111 0
M  V30 5558 C 538.35 5.64729 -0.993427 0
M  V30 5559 N 537.846 6.79652 -1.3433 0
M  V30 5560 N 539.639 5.54546 -0.918442 0
M  V30 5561 H 531.79 1.68426 -1.29407 0
M  V30 5562 H 534.053 0.78819 -0.526745 0
M  V30 5563 H 533.759 3.21115 -1.43451 0
M  V30 5564 H 533.633 3.76524 0.225692 0
M  V30 5565 H 536.02 2.87538 0.663763 0
M  V30 5566 H 536.101 2.34484 -1.02229 0
M  V30 5567 H 535.745 4.75853 -1.77555 0
M  V30 5568 H 535.675 5.26555 -0.0691444 0
M  V30 5569 H 538.166 3.75176 -0.452883 0
M  V30 5570 H 538.479 7.57221 -1.54388 0
M  V30 5571 H 536.824 6.81128 -1.38164 0
M  V30 5572 H 540.015 4.63641 -0.644536 0
M  V30 5573 H 540.188 6.37861 -1.14181 0
M  V30 5574 N 533.594 0.0601682 1.57485 0
M  V30 5575 C 534.819 -0.624416 1.97777 0
M  V30 5576 C 535.244 -1.63051 0.937867 0
M  V30 5577 O 534.602 -1.81036 -0.0978845 0
M  V30 5578 C 534.65 -1.27979 3.37126 0
M  V30 5579 O 533.754 -2.39556 3.35688 0
M  V30 5580 H 533.095 -0.161581 0.64404 0
M  V30 5581 H 535.625 0.131237 2.04179 0
M  V30 5582 H 535.635 -1.62937 3.74053 0
M  V30 5583 H 534.31 -0.542501 4.12347 0
M  V30 5584 H 532.887 -2.06478 3.10517 0
M  V30 5585 N 535.072 -1.5615 -0.213296 0
M  V30 5586 C 536.483 -1.69645 -0.779582 0
M  V30 5587 C 536.834 -0.663615 -1.84636 0
M  V30 5588 O 535.959 0.183633 -2.15619 0
M  V30 5589 C 536.554 -3.07567 -1.42084 0
M  V30 5590 C 535.113 -3.22889 -1.93442 0
M  V30 5591 C 534.26 -2.65581 -0.797612 0
M  V30 5592 H 537.211 -1.58696 0.0114951 0
M  V30 5593 H 537.232 -3.03884 -2.28986 0
M  V30 5594 H 536.744 -3.82716 -0.644187 0
M  V30 5595 H 534.845 -2.52623 -2.73884 0
M  V30 5596 H 534.958 -4.30197 -2.10872 0
M  V30 5597 H 533.322 -2.24278 -1.20712 0
M  V30 5598 H 534.105 -3.43284 -0.033494 0
M  V30 5599 N 536.55 0.480323 -1.50102 0
M  V30 5600 C 537.796 1.23208 -1.61837 0
M  V30 5601 C 538.151 1.89878 -0.310509 0
M  V30 5602 O 537.444 1.7871 0.690897 0
M  V30 5603 C 537.638 2.30708 -2.72963 0
M  V30 5604 C 537.467 1.74583 -4.14428 0
M  V30 5605 C 536.237 1.54964 -4.80951 0
M  V30 5606 C 538.435 1.24597 -4.98979 0
M  V30 5607 N 536.417 0.939855 -6.06663 0
M  V30 5608 C 537.788 0.758834 -6.15339 0
M  V30 5609 C 539.843 1.13365 -4.84822 0
M  V30 5610 C 538.546 0.17046 -7.19098 0
M  V30 5611 C 540.572 0.559221 -5.8875 0
M  V30 5612 C 539.934 0.082415 -7.04352 0
M  V30 5613 H 536.033 0.440065 -0.646426 0
M  V30 5614 H 538.617 0.535632 -1.87187 0
M  V30 5615 H 536.788 2.9779 -2.4935 0
M  V30 5616 H 538.52 2.97738 -2.74106 0
M  V30 5617 H 535.275 1.79926 -4.38091 0
M  V30 5618 H 535.699 0.653641 -6.73837 0
M  V30 5619 H 540.341 1.48823 -3.95742 0
M  V30 5620 H 538.059 -0.196347 -8.07861 0
M  V30 5621 H 541.645 0.474804 -5.79859 0
M  V30 5622 H 540.525 -0.355119 -7.83396 0
M  V30 5623 N 538.028 1.39524 0.732853 0
M  V30 5624 C 539.274 1.37068 1.49467 0
M  V30 5625 C 539.607 -0.0327166 1.94172 0
M  V30 5626 O 538.882 -0.998071 1.66939 0
M  V30 5627 C 539.165 2.34494 2.73285 0
M  V30 5628 C 539.018 3.83784 2.34585 0
M  V30 5629 C 540.337 2.29717 3.75391 0
M  V30 5630 H 537.456 0.499206 0.542183 0
M  V30 5631 H 540.098 1.70532 0.837783 0
M  V30 5632 H 538.248 2.06087 3.29333 0
M  V30 5633 H 539.92 4.22949 1.84151 0
M  V30 5634 H 538.163 4.00455 1.66787 0
M  V30 5635 H 538.834 4.47444 3.23262 0
M  V30 5636 H 541.31 2.54839 3.28932 0
M  V30 5637 H 540.186 2.99962 4.59689 0
M  V30 5638 H 540.447 1.30291 4.22465 0
M  V30 5639 N 539.506 -0.963266 1.24736 0
M  V30 5640 C 540.438 -2.06162 1.0015 0
M  V30 5641 C 541.451 -1.62771 -0.0305905 0
M  V30 5642 O 542.64 -1.77296 0.206966 0
M  V30 5643 C 539.74 -3.35333 0.490385 0
M  V30 5644 C 538.913 -4.07609 1.58663 0
M  V30 5645 C 537.972 -5.15052 1.0774 0
M  V30 5646 O 536.998 -5.4098 1.77002 0
M  V30 5647 N 538.2 -5.80436 -0.0858605 0
M  V30 5648 H 540.965 -2.27825 1.94719 0
M  V30 5649 H 538.526 -1.13121 1.15825 0
M  V30 5650 H 540.518 -4.04477 0.134371 0
M  V30 5651 H 539.088 -3.10507 -0.361155 0
M  V30 5652 H 538.308 -3.32681 2.11463 0
M  V30 5653 H 539.596 -4.52656 2.32336 0
M  V30 5654 H 538.994 -5.6178 -0.664806 0
M  V30 5655 H 537.551 -6.50674 -0.382981 0
M  V30 5656 N 540.985 -1.06182 -1.16461 0
M  V30 5657 C 542.234 -0.772927 -1.86303 0
M  V30 5658 C 542.547 0.703187 -1.82523 0
M  V30 5659 O 543.753 1.10641 -2.47933 0
M  V30 5660 C 542.209 -1.33249 -3.34324 0
M  V30 5661 C 541.817 -2.83876 -3.46581 0
M  V30 5662 C 543.561 -1.12108 -4.09429 0
M  V30 5663 C 541.468 -3.33082 -4.88682 0
M  V30 5664 H 540.398 -0.285452 -0.697878 0
M  V30 5665 H 543.049 -1.28039 -1.31447 0
M  V30 5666 H 541.431 -0.7528 -3.88779 0
M  V30 5667 H 542.605 -3.47786 -3.02293 0
M  V30 5668 H 540.92 -3.03671 -2.84909 0
M  V30 5669 H 543.517 -1.46361 -5.14279 0
M  V30 5670 H 543.86 -0.0593832 -4.16258 0
M  V30 5671 H 544.393 -1.6665 -3.6121 0
M  V30 5672 H 541.132 -4.38726 -4.87032 0
M  V30 5673 H 540.652 -2.73919 -5.33599 0
M  V30 5674 H 542.331 -3.28344 -5.57494 0
M  V30 5675 N 542.463 1.3308 -0.844243 0
M  V30 5676 C 543.693 2.01515 -0.455541 0
M  V30 5677 C 544.101 1.63655 0.949406 0
M  V30 5678 O 543.444 0.84848 1.62931 0
M  V30 5679 C 543.506 3.55967 -0.502801 0
M  V30 5680 C 543.17 4.17222 -1.86481 0
M  V30 5681 C 544.167 4.36205 -2.8288 0
M  V30 5682 C 541.852 4.53528 -2.15911 0
M  V30 5683 C 543.846 4.90649 -4.06869 0
M  V30 5684 C 541.533 5.07679 -3.40155 0
M  V30 5685 C 542.531 5.26186 -4.35451 0
M  V30 5686 O 542.219 5.79183 -5.57496 0
M  V30 5687 H 541.951 0.65199 -0.178565 0
M  V30 5688 H 544.505 1.70867 -1.1399 0
M  V30 5689 H 542.735 3.85965 0.23836 0
M  V30 5690 H 544.424 4.05688 -0.131169 0
M  V30 5691 H 545.19 4.085 -2.61444 0
M  V30 5692 H 541.069 4.38414 -1.42528 0
M  V30 5693 H 544.613 5.0501 -4.81259 0
M  V30 5694 H 540.51 5.34815 -3.61446 0
M  V30 5695 H 541.278 5.97591 -5.5931 0
M  V30 5696 N 543.941 0.601185 1.45683 0
M  V30 5697 C 545.189 0.0936957 2.01883 0
M  V30 5698 C 545.51 -1.2779 1.47291 0
M  V30 5699 O 544.78 -1.84279 0.664691 0
M  V30 5700 H 543.36 0.0316466 0.746329 0
M  V30 5701 H 546.022 0.781137 1.78562 0
M  V30 5702 H 545.118 0.0386297 3.12076 0
M  V30 5703 N 545.419 -1.53889 0.339982 0
M  V30 5704 C 546.696 -1.93084 -0.312719 0
M  V30 5705 C 547.076 -1.2712 -1.68534 0
M  V30 5706 O 546.424 -0.420835 -2.24591 0
M  V30 5707 C 546.634 -3.4683 -0.388558 0
M  V30 5708 C 547.982 -4.19732 -0.641088 0
M  V30 5709 O 549.006 -3.53075 -0.470818 0
M  V30 5710 O 547.865 -5.3781 -0.970685 0
M  V30 5711 H 544.959 -0.806784 -0.18174 0
M  V30 5712 H 547.505 -1.65137 0.390898 0
M  V30 5713 H 546.277 -3.87055 0.574821 0
M  V30 5714 H 545.9 -3.80933 -1.1391 0
M  V30 5715 N 546.897 -0.0685191 -1.57451 0
M  V30 5716 C 547.845 0.917577 -2.13736 0
M  V30 5717 C 548.839 1.31049 -1.07344 0
M  V30 5718 O 550.045 1.28811 -1.25728 0
M  V30 5719 H 546.42 0.313835 -0.683382 0
M  V30 5720 H 548.391 0.417903 -2.95459 0
M  V30 5721 C 547.14 2.17686 -2.71123 0
M  V30 5722 H 546.463 1.88336 -3.52661 0
M  V30 5723 H 547.903 2.84803 -3.14107 0
M  V30 5724 C 546.362 2.9332 -1.65726 0
M  V30 5725 O 546.892 3.86901 -1.08031 0
M  V30 5726 N 545.098 2.56367 -1.36837 0
M  V30 5727 H 544.645 1.80341 -1.83943 0
M  V30 5728 H 544.603 3.07276 -0.665501 0
M  V30 5729 N 548.375 1.56261 0.205012 0
M  V30 5730 C 549.322 1.93754 1.25411 0
M  V30 5731 C 550.292 0.796826 1.45739 0
M  V30 5732 O 551.477 1.05414 1.59036 0
M  V30 5733 C 548.617 2.27383 2.59598 0
M  V30 5734 C 547.73 3.5447 2.46931 0
M  V30 5735 C 546.865 3.77468 3.73753 0
M  V30 5736 C 545.904 4.98014 3.55877 0
M  V30 5737 N 545.041 5.17316 4.74688 0
M  V30 5738 H 549.881 2.83203 0.92737 0
M  V30 5739 H 547.418 1.40158 0.446574 0
M  V30 5740 H 549.376 2.44895 3.37761 0
M  V30 5741 H 548.006 1.41088 2.90335 0
M  V30 5742 H 547.058 3.45061 1.60116 0
M  V30 5743 H 548.37 4.42789 2.29651 0
M  V30 5744 H 547.524 3.95165 4.60358 0
M  V30 5745 H 546.263 2.87461 3.93976 0
M  V30 5746 H 545.268 4.80249 2.67657 0
M  V30 5747 H 546.493 5.8952 3.37109 0
M  V30 5748 H 544.439 4.30255 4.95194 0
M  V30 5749 H 544.356 5.99796 4.60197 0
M  V30 5750 H 545.624 5.39463 5.62672 0
M  V30 5751 N 549.853 -0.472356 1.50355 0
M  V30 5752 C 551.1 -1.22453 1.61281 0
M  V30 5753 C 551.428 -1.91972 0.31256 0
M  V30 5754 O 550.683 -1.82696 -0.701475 0
M  V30 5755 C 550.982 -2.29257 2.74182 0
M  V30 5756 C 550.648 -1.76999 4.14708 0
M  V30 5757 C 549.31 -1.62467 4.52944 0
M  V30 5758 C 551.662 -1.38215 5.0254 0
M  V30 5759 C 548.99 -1.07574 5.76754 0
M  V30 5760 C 551.342 -0.847638 6.26895 0
M  V30 5761 C 550.006 -0.688946 6.63935 0
M  V30 5762 H 549.276 -0.448087 0.590168 0
M  V30 5763 H 551.923 -0.520744 1.84284 0
M  V30 5764 H 550.228 -3.05538 2.45263 0
M  V30 5765 H 551.925 -2.87212 2.7984 0
M  V30 5766 H 548.515 -1.89276 3.84542 0
M  V30 5767 H 552.699 -1.48276 4.73633 0
M  V30 5768 H 547.955 -0.940237 6.04127 0
M  V30 5769 H 552.129 -0.538455 6.94315 0
M  V30 5770 H 549.756 -0.261435 7.5975 0
M  V30 5771 N 551.331 -1.39911 -0.725443 0
M  V30 5772 C 552.58 -1.36963 -1.48068 0
M  V30 5773 C 552.893 0.0284478 -1.95579 0
M  V30 5774 O 554.099 0.180535 -2.70899 0
M  V30 5775 C 552.555 -2.40664 -2.67598 0
M  V30 5776 C 552.163 -3.86234 -2.26997 0
M  V30 5777 C 553.907 -2.46807 -3.45379 0
M  V30 5778 C 551.814 -4.81554 -3.43307 0
M  V30 5779 H 550.744 -0.509223 -0.556065 0
M  V30 5780 H 553.395 -1.65602 -0.790454 0
M  V30 5781 H 551.777 -2.05109 -3.38742 0
M  V30 5782 H 552.951 -4.3088 -1.63337 0
M  V30 5783 H 551.266 -3.83475 -1.62284 0
M  V30 5784 H 553.863 -3.15213 -4.31909 0
M  V30 5785 H 554.206 -1.49552 -3.8851 0
M  V30 5786 H 554.739 -2.81303 -2.81271 0
M  V30 5787 H 551.478 -5.80106 -3.05217 0
M  V30 5788 H 550.998 -4.4158 -4.05915 0
M  V30 5789 H 552.677 -5.0091 -4.0951 0
M  V30 5790 N 552.809 0.956637 -1.25245 0
M  V30 5791 C 553.719 2.0868 -1.0719 0
M  V30 5792 C 554.735 1.73997 -0.00959074 0
M  V30 5793 O 555.911 2.00301 -0.210104 0
M  V30 5794 C 552.976 3.39754 -0.690526 0
M  V30 5795 C 552.037 3.88316 -1.83055 0
M  V30 5796 C 551.27 5.13134 -1.46728 0
M  V30 5797 O 551.493 5.6925 -0.362029 0
M  V30 5798 O 550.427 5.56356 -2.29677 0
M  V30 5799 H 554.253 2.26813 -2.01965 0
M  V30 5800 H 551.838 1.07098 -1.04165 0
M  V30 5801 H 553.72 4.18543 -0.489871 0
M  V30 5802 H 552.395 3.22896 0.227981 0
M  V30 5803 H 551.302 3.1054 -2.08604 0
M  V30 5804 H 552.635 4.09669 -2.72822 0
M  V30 5805 N 554.287 1.06798 1.15896 0
M  V30 5806 C 555.234 0.683314 2.20453 0
M  V30 5807 C 556.204 -0.32255 1.62938 0
M  V30 5808 O 557.389 -0.210276 1.89638 0
M  V30 5809 C 554.529 0.0813266 3.45004 0
M  V30 5810 C 553.642 1.13799 4.16742 0
M  V30 5811 C 552.777 0.501598 5.28826 0
M  V30 5812 C 551.816 1.54144 5.92373 0
M  V30 5813 N 550.953 0.928038 6.9594 0
M  V30 5814 H 555.793 1.57932 2.52708 0
M  V30 5815 H 553.33 0.789544 1.24115 0
M  V30 5816 H 555.288 -0.285274 4.16224 0
M  V30 5817 H 553.918 -0.77806 3.13283 0
M  V30 5818 H 552.97 1.62223 3.44075 0
M  V30 5819 H 554.282 1.92664 4.60089 0
M  V30 5820 H 553.436 0.0823162 6.06644 0
M  V30 5821 H 552.175 -0.318883 4.86656 0
M  V30 5822 H 551.18 1.97056 5.13273 0
M  V30 5823 H 552.405 2.3641 6.36621 0
M  V30 5824 H 550.351 0.12836 6.55874 0
M  V30 5825 H 550.268 1.65401 7.37685 0
M  V30 5826 H 551.536 0.534071 7.77668 0
M  V30 5827 N 555.766 -1.3263 0.851289 0
M  V30 5828 C 556.729 -2.27247 0.298541 0
M  V30 5829 C 557.729 -1.51467 -0.539847 0
M  V30 5830 O 558.919 -1.7061 -0.351843 0
M  V30 5831 C 556.051 -3.35964 -0.578004 0
M  V30 5832 H 557.244 -2.7765 1.13359 0
M  V30 5833 H 554.797 -1.43245 0.625354 0
M  V30 5834 H 555.532 -2.90823 -1.435 0
M  V30 5835 H 555.317 -3.92094 0.0220539 0
M  V30 5836 H 556.807 -4.06472 -0.957626 0
M  V30 5837 N 557.244 -0.608902 -1.45362 0
M  V30 5838 C 558.491 -0.104607 -2.0223 0
M  V30 5839 C 558.819 1.26534 -1.47714 0
M  V30 5840 O 558.074 1.84855 -0.642435 0
M  V30 5841 C 558.373 -0.0167296 -3.57396 0
M  V30 5842 C 558.039 -1.32251 -4.31069 0
M  V30 5843 C 556.701 -1.68019 -4.50914 0
M  V30 5844 C 559.053 -2.18542 -4.73169 0
M  V30 5845 C 556.381 -2.89828 -5.10114 0
M  V30 5846 C 558.733 -3.39602 -5.33717 0
M  V30 5847 C 557.397 -3.7562 -5.51784 0
M  V30 5848 H 556.667 -0.0382785 -0.740011 0
M  V30 5849 H 559.314 -0.790782 -1.7441 0
M  V30 5850 H 557.619 0.752715 -3.84502 0
M  V30 5851 H 559.316 0.389634 -3.99103 0
M  V30 5852 H 555.906 -1.03411 -4.15938 0
M  V30 5853 H 560.09 -1.92208 -4.5757 0
M  V30 5854 H 555.346 -3.17839 -5.22291 0
M  V30 5855 H 559.52 -4.06716 -5.65292 0
M  V30 5856 H 557.147 -4.70093 -5.97425 0
M  V30 5857 N 558.722 1.53707 -0.348139 0
M  V30 5858 C 559.95 2.05406 0.248224 0
M  V30 5859 C 560.365 1.22282 1.43849 0
M  V30 5860 O 559.722 0.259244 1.80649 0
M  V30 5861 C 559.773 3.55446 0.658793 0
M  V30 5862 O 559.494 4.35417 -0.484149 0
M  V30 5863 C 560.995 4.23335 1.31539 0
M  V30 5864 H 558.215 0.669344 0.0471075 0
M  V30 5865 H 560.759 1.98257 -0.501456 0
M  V30 5866 H 558.914 3.62803 1.35841 0
M  V30 5867 H 559.328 5.24268 -0.155949 0
M  V30 5868 H 560.802 5.29692 1.55338 0
M  V30 5869 H 561.279 3.75967 2.27036 0
M  V30 5870 H 561.885 4.20184 0.657683 0
M  V30 5871 N 560.2 0.0768682 1.57412 0
M  V30 5872 C 561.43 -0.5991 1.97723 0
M  V30 5873 C 561.838 -1.63378 0.954166 0
M  V30 5874 O 561.181 -1.83578 -0.0668706 0
M  V30 5875 C 561.243 -1.32078 3.34358 0
M  V30 5876 C 560.907 -0.438985 4.54887 0
M  V30 5877 C 561.904 0.305492 5.19002 0
M  V30 5878 C 559.589 -0.362378 5.00991 0
M  V30 5879 C 561.583 1.11475 6.27576 0
M  V30 5880 C 559.27 0.450543 6.09437 0
M  V30 5881 C 560.268 1.18777 6.72593 0
M  V30 5882 O 559.956 1.98727 7.7895 0
M  V30 5883 H 559.688 -0.166725 0.655117 0
M  V30 5884 H 562.242 0.147337 2.04871 0
M  V30 5885 H 560.472 -2.1134 3.2384 0
M  V30 5886 H 562.161 -1.88949 3.5924 0
M  V30 5887 H 562.927 0.25593 4.84324 0
M  V30 5888 H 558.806 -0.925832 4.51608 0
M  V30 5889 H 562.35 1.69068 6.76803 0
M  V30 5890 H 558.247 0.501651 6.43548 0
M  V30 5891 H 559.015 1.91214 7.95851 0
M  V30 5892 N 561.678 -1.56367 -0.196722 0
M  V30 5893 C 562.641 -1.93561 -1.22746 0
M  V30 5894 C 563.641 -0.816566 -1.38524 0
M  V30 5895 O 564.831 -1.084 -1.36363 0
M  V30 5896 C 561.963 -2.20823 -2.59712 0
M  V30 5897 H 563.156 -2.85774 -0.909586 0
M  V30 5898 H 560.709 -1.50032 -0.438174 0
M  V30 5899 H 561.444 -1.31243 -2.96557 0
M  V30 5900 H 561.229 -3.02368 -2.49632 0
M  V30 5901 H 562.719 -2.50608 -3.34044 0
M  V30 5902 N 563.156 0.464375 -1.50603 0
M  V30 5903 C 564.572 0.798684 -1.38178 0
M  V30 5904 C 564.772 1.96568 -0.44308 0
M  V30 5905 O 563.828 2.52252 0.111814 0
M  V30 5906 C 565.141 1.10444 -2.79683 0
M  V30 5907 C 566.689 1.2105 -2.88645 0
M  V30 5908 C 567.164 1.54934 -4.30998 0
M  V30 5909 N 568.655 1.61913 -4.3398 0
M  V30 5910 C 569.39 1.8965 -5.41129 0
M  V30 5911 N 568.886 2.15361 -6.58477 0
M  V30 5912 N 570.679 1.91207 -5.28579 0
M  V30 5913 H 562.83 -0.304603 -2.10204 0
M  V30 5914 H 565.093 -0.0737804 -0.945125 0
M  V30 5915 H 564.799 0.319934 -3.50242 0
M  V30 5916 H 564.673 2.03896 -3.17342 0
M  V30 5917 H 567.06 1.98567 -2.18301 0
M  V30 5918 H 567.141 0.255613 -2.5452 0
M  V30 5919 H 566.785 0.779549 -5.01882 0
M  V30 5920 H 566.715 2.51584 -4.62615 0
M  V30 5921 H 569.206 1.44055 -3.49366 0
M  V30 5922 H 569.519 2.35818 -7.35941 0
M  V30 5923 H 567.864 2.1274 -6.6164 0
M  V30 5924 H 571.055 1.70622 -4.35897 0
M  V30 5925 H 571.228 2.12488 -6.12171 0
M  V30 5926 N 564.634 1.40294 0.718013 0
M  V30 5927 C 565.581 1.40367 1.8321 0
M  V30 5928 C 566.551 0.260952 1.64037 0
M  V30 5929 O 567.736 0.458648 1.85205 0
M  V30 5930 C 564.876 1.26965 3.20895 0
M  V30 5931 C 563.989 2.50922 3.51656 0
M  V30 5932 C 563.124 2.29981 4.78834 0
M  V30 5933 C 562.163 3.49527 5.02491 0
M  V30 5934 N 561.3 3.27796 6.20882 0
M  V30 5935 H 566.14 2.35593 1.82482 0
M  V30 5936 H 563.677 1.17012 0.891444 0
M  V30 5937 H 565.635 1.17202 4.00399 0
M  V30 5938 H 564.265 0.353591 3.20858 0
M  V30 5939 H 563.317 2.71223 2.66725 0
M  V30 5940 H 564.629 3.39913 3.65048 0
M  V30 5941 H 563.783 2.17558 5.66351 0
M  V30 5942 H 562.522 1.38411 4.67647 0
M  V30 5943 H 561.527 3.6243 4.1343 0
M  V30 5944 H 562.752 4.42021 5.15553 0
M  V30 5945 H 560.698 2.38906 6.1095 0
M  V30 5946 H 560.615 4.10351 6.34939 0
M  V30 5947 H 561.883 3.19101 7.11193 0
M  V30 5948 N 566.112 -0.949982 1.2575 0
M  V30 5949 C 567.342 -1.72721 1.13363 0
M  V30 5950 C 567.75 -1.86562 -0.314842 0
M  V30 5951 O 567.093 -1.36621 -1.22803 0
M  V30 5952 C 567.155 -3.15695 1.7198 0
M  V30 5953 C 566.819 -3.25268 3.21014 0
M  V30 5954 C 567.816 -3.09222 4.17945 0
M  V30 5955 C 565.501 -3.4894 3.61312 0
M  V30 5956 C 567.495 -3.16701 5.53154 0
M  V30 5957 C 565.182 -3.56055 4.96657 0
M  V30 5958 C 566.18 -3.3995 5.92387 0
M  V30 5959 O 565.868 -3.46757 7.25269 0
M  V30 5960 H 565.6 -0.547888 0.395973 0
M  V30 5961 H 568.154 -1.20009 1.66694 0
M  V30 5962 H 566.384 -3.69791 1.13101 0
M  V30 5963 H 568.073 -3.75295 1.54624 0
M  V30 5964 H 568.839 -2.90798 3.88151 0
M  V30 5965 H 564.718 -3.60534 2.87291 0
M  V30 5966 H 568.262 -3.04048 6.27854 0
M  V30 5967 H 564.159 -3.73997 5.26115 0
M  V30 5968 H 564.927 -3.63358 7.33426 0
M  V30 5969 N 567.59 -1.07411 -1.15328 0
M  V30 5970 C 568.553 -0.698914 -2.18284 0
M  V30 5971 C 569.553 0.261149 -1.58665 0
M  V30 5972 O 570.743 0.0420277 -1.74149 0
M  V30 5973 C 567.875 -0.0302427 -3.40887 0
M  V30 5974 H 569.068 -1.61045 -2.52991 0
M  V30 5975 H 566.621 -0.870724 -1.298 0
M  V30 5976 H 567.356 0.893505 -3.11748 0
M  V30 5977 H 567.141 -0.720759 -3.85419 0
M  V30 5978 H 568.631 0.21759 -4.17033 0
M  V30 5979 N 569.068 1.32177 -0.85831 0
M  V30 5980 C 570.479 1.79381 -0.517621 0
M  V30 5981 C 570.83 1.70841 0.964769 0
M  V30 5982 O 569.955 1.26917 1.75274 0
M  V30 5983 C 570.55 3.25706 -0.932801 0
M  V30 5984 C 569.109 3.70851 -0.643953 0
M  V30 5985 C 568.256 2.53208 -1.13054 0
M  V30 5986 H 571.207 1.19424 -1.04516 0
M  V30 5987 H 571.228 3.79673 -0.250674 0
M  V30 5988 H 570.74 3.31889 -2.01174 0
M  V30 5989 H 568.841 3.70178 0.424112 0
M  V30 5990 H 568.954 4.63495 -1.21281 0
M  V30 5991 H 567.318 2.48676 -0.550679 0
M  V30 5992 H 568.101 2.62143 -2.21666 0
M  V30 5993 N 570.547 0.616602 1.45037 0
M  V30 5994 C 571.51 -0.0871112 2.29034 0
M  V30 5995 C 572.51 -0.786414 1.40258 0
M  V30 5996 O 573.7 -0.633207 1.62284 0
M  V30 5997 C 570.832 -1.13369 3.21497 0
M  V30 5998 H 572.025 0.651497 2.92738 0
M  V30 5999 H 569.578 0.376058 1.51709 0
M  V30 6000 H 570.313 -1.90277 2.62612 0
M  V30 6001 H 570.098 -0.636358 3.86902 0
M  V30 6002 H 571.588 -1.62627 3.84633 0
M  V30 6003 N 572.025 -1.5352 0.356285 0
M  V30 6004 C 572.973 -2.26945 -0.50978 0
M  V30 6005 C 573.967 -1.29569 -1.09125 0
M  V30 6006 O 575.173 -1.47231 -1.03552 0
M  V30 6007 H 571.548 -0.729368 -0.183102 0
M  V30 6008 H 573.519 -2.98111 0.131374 0
M  V30 6009 C 572.268 -3.06466 -1.64237 0
M  V30 6010 H 571.591 -3.81233 -1.20423 0
M  V30 6011 H 573.031 -3.61035 -2.22327 0
M  V30 6012 C 571.49 -2.16737 -2.57928 0
M  V30 6013 O 572.02 -1.77195 -3.60507 0
M  V30 6014 N 570.226 -1.81558 -2.26903 0
M  V30 6015 H 569.773 -2.13913 -1.43524 0
M  V30 6016 H 569.731 -1.21806 -2.89846 0
M  V30 6017 N 573.503 -0.0852151 -1.57369 0
M  V30 6018 C 574.743 0.584297 -1.95871 0
M  V30 6019 C 575.107 1.6596 -0.965473 0
M  V30 6020 O 576.308 2.38561 -1.23862 0
M  V30 6021 C 574.579 1.13411 -3.38929 0
M  V30 6022 S 576.138 1.81687 -3.99419 0
M  V30 6023 H 572.956 0.19095 -0.684879 0
M  V30 6024 H 575.558 -0.162267 -1.94825 0
M  V30 6025 H 574.262 0.339845 -4.0899 0
M  V30 6026 H 573.793 1.91672 -3.43548 0
M  V30 6027 H 575.808 3.10037 -3.87417 0
M  V30 6028 N 574.981 1.5647 0.188427 0
M  V30 6029 C 575.928 1.95073 1.23349 0
M  V30 6030 C 576.898 0.812238 1.44886 0
M  V30 6031 O 578.083 1.07095 1.57909 0
M  V30 6032 C 575.223 2.30124 2.57171 0
M  V30 6033 C 574.336 3.57069 2.43157 0
M  V30 6034 C 573.471 3.81411 3.69729 0
M  V30 6035 C 572.51 5.0176 3.50575 0
M  V30 6036 N 571.647 5.22321 4.69175 0
M  V30 6037 H 576.487 2.84171 0.89728 0
M  V30 6038 H 574.024 1.40623 0.431683 0
M  V30 6039 H 575.982 2.48463 3.35145 0
M  V30 6040 H 574.612 1.44159 2.88822 0
M  V30 6041 H 573.664 3.4674 1.56447 0
M  V30 6042 H 574.976 4.452 2.24942 0
M  V30 6043 H 574.13 4.00026 4.56141 0
M  V30 6044 H 572.869 2.91624 3.90905 0
M  V30 6045 H 571.874 4.83061 2.62549 0
M  V30 6046 H 573.099 5.93063 3.30837 0
M  V30 6047 H 571.045 4.35483 4.90602 0
M  V30 6048 H 570.962 6.04643 4.53809 0
M  V30 6049 H 572.23 5.45401 5.56919 0
M  V30 6050 N 576.459 -0.456382 1.50847 0
M  V30 6051 C 577.389 -1.56025 1.73719 0
M  V30 6052 C 578.37 -1.5967 0.586473 0
M  V30 6053 O 579.555 -1.75702 0.827185 0
M  V30 6054 C 576.685 -2.94251 1.84483 0
M  V30 6055 C 575.639 -3.05471 2.99786 0
M  V30 6056 C 574.965 -4.45489 2.95709 0
M  V30 6057 C 576.265 -2.81318 4.40065 0
M  V30 6058 H 577.959 -1.37138 2.66146 0
M  V30 6059 H 575.505 -0.658299 1.28072 0
M  V30 6060 H 577.458 -3.71417 1.99067 0
M  V30 6061 H 576.182 -3.14328 0.886891 0
M  V30 6062 H 574.841 -2.30741 2.84876 0
M  V30 6063 H 574.489 -4.62505 1.97732 0
M  V30 6064 H 574.189 -4.53929 3.73125 0
M  V30 6065 H 575.713 -5.24655 3.12362 0
M  V30 6066 H 577.127 -3.48226 4.55425 0
M  V30 6067 H 575.524 -3.01188 5.19043 0
M  V30 6068 H 576.594 -1.7706 4.51418 0
M  V30 6069 N 577.937 -1.40673 -0.710563 0
M  V30 6070 C 579.167 -1.4234 -1.49742 0
M  V30 6071 C 579.575 -0.022821 -1.89186 0
M  V30 6072 O 578.918 0.964773 -1.56326 0
M  V30 6073 C 578.98 -2.25509 -2.79975 0
M  V30 6074 C 578.644 -3.73862 -2.62824 0
M  V30 6075 C 579.641 -4.66379 -2.29752 0
M  V30 6076 C 577.326 -4.17735 -2.78932 0
M  V30 6077 C 579.32 -6.00756 -2.13006 0
M  V30 6078 C 577.007 -5.5218 -2.61802 0
M  V30 6079 C 578.005 -6.43505 -2.28888 0
M  V30 6080 O 577.693 -7.75472 -2.11894 0
M  V30 6081 H 577.425 -0.487311 -0.468513 0
M  V30 6082 H 579.979 -1.8542 -0.883668 0
M  V30 6083 H 578.209 -1.77218 -3.43701 0
M  V30 6084 H 579.898 -2.19058 -3.41714 0
M  V30 6085 H 580.664 -4.33778 -2.16936 0
M  V30 6086 H 576.543 -3.46967 -3.03537 0
M  V30 6087 H 580.087 -6.72003 -1.87237 0
M  V30 6088 H 575.984 -5.84365 -2.74204 0
M  V30 6089 H 576.752 -7.86458 -2.26775 0
M  V30 6090 N 579.415 0.9433 -1.26252 0
M  V30 6091 C 580.645 1.72117 -1.14277 0
M  V30 6092 C 581.053 1.86726 0.304944 0
M  V30 6093 O 580.396 1.3727 1.22076 0
M  V30 6094 C 580.458 3.14778 -1.73651 0
M  V30 6095 C 580.122 3.23561 -3.22734 0
M  V30 6096 C 581.119 3.07001 -4.19579 0
M  V30 6097 C 578.804 3.47019 -3.63157 0
M  V30 6098 C 580.798 3.13763 -5.54826 0
M  V30 6099 C 578.485 3.53416 -4.98538 0
M  V30 6100 C 579.483 3.36804 -5.94182 0
M  V30 6101 O 579.171 3.42906 -7.27098 0
M  V30 6102 H 578.903 0.545781 -0.398873 0
M  V30 6103 H 581.457 1.19123 -1.67328 0
M  V30 6104 H 579.687 3.69186 -1.1506 0
M  V30 6105 H 581.376 3.74469 -1.56613 0
M  V30 6106 H 582.142 2.88736 -3.89688 0
M  V30 6107 H 578.021 3.59006 -2.89199 0
M  V30 6108 H 581.565 3.00714 -6.29458 0
M  V30 6109 H 577.462 3.71201 -5.28091 0
M  V30 6110 H 578.23 3.59463 -7.35342 0
M  V30 6111 N 580.893 1.08022 1.14757 0
M  V30 6112 C 581.841 0.701088 2.21783 0
M  V30 6113 C 582.835 -0.291311 1.66876 0
M  V30 6114 O 584.041 -0.154296 1.79337 0
M  V30 6115 H 580.416 0.208668 0.722469 0
M  V30 6116 H 582.387 1.61321 2.51034 0
M  V30 6117 C 581.136 0.122278 3.47485 0
M  V30 6118 H 580.459 0.877065 3.90061 0
M  V30 6119 H 581.899 -0.105248 4.23869 0
M  V30 6120 C 580.358 -1.13883 3.17068 0
M  V30 6121 O 580.888 -2.22429 3.34497 0
M  V30 6122 N 579.094 -1.04767 2.71058 0
M  V30 6123 H 578.641 -0.164302 2.57075 0
M  V30 6124 H 578.599 -1.89224 2.51081 0
M  V30 6125 N 582.371 -1.3172 0.865308 0
M  V30 6126 C 583.648 -1.91574 0.394789 0
M  V30 6127 C 584.028 -1.78769 -1.12271 0
M  V30 6128 O 583.376 -1.19245 -1.94918 0
M  V30 6129 C 583.586 -3.37957 0.870982 0
M  V30 6130 C 584.934 -4.15073 0.894384 0
M  V30 6131 O 585.958 -3.4672 0.816325 0
M  V30 6132 O 584.817 -5.37151 1.00651 0
M  V30 6133 H 581.911 -0.818649 0.117229 0
M  V30 6134 H 584.457 -1.4042 0.952913 0
M  V30 6135 H 583.229 -3.41269 1.91444 0
M  V30 6136 H 582.852 -3.96534 0.290907 0
M  V30 6137 N 583.85 -0.624285 -1.44708 0
M  V30 6138 C 585.08 -0.132726 -2.06173 0
M  V30 6139 C 585.488 1.19513 -1.46674 0
M  V30 6140 O 584.831 1.74254 -0.581491 0
M  V30 6141 C 584.893 0.0636732 -3.59444 0
M  V30 6142 C 584.557 -1.18496 -4.4137 0
M  V30 6143 C 585.553 -2.10706 -4.75288 0
M  V30 6144 C 583.239 -1.41846 -4.81856 0
M  V30 6145 C 585.233 -3.24582 -5.48567 0
M  V30 6146 C 582.92 -2.5602 -5.54885 0
M  V30 6147 C 583.918 -3.47215 -5.88159 0
M  V30 6148 O 583.606 -4.59399 -6.59703 0
M  V30 6149 H 583.338 -0.0737313 -0.671967 0
M  V30 6150 H 585.892 -0.856789 -1.86677 0
M  V30 6151 H 584.122 0.842809 -3.77404 0
M  V30 6152 H 585.811 0.508924 -4.02697 0
M  V30 6153 H 586.577 -1.93898 -4.44554 0
M  V30 6154 H 582.456 -0.717556 -4.55381 0
M  V30 6155 H 586 -3.95785 -5.74456 0
M  V30 6156 H 581.897 -2.72774 -5.85034 0
M  V30 6157 H 582.665 -4.58293 -6.78166 0
M  V30 6158 N 585.328 1.53329 -0.364422 0
M  V30 6159 C 586.276 2.27212 0.497737 0
M  V30 6160 C 587.27 1.30146 1.08437 0
M  V30 6161 O 588.476 1.47778 1.0277 0
M  V30 6162 H 584.851 0.730329 0.179232 0
M  V30 6163 H 586.822 2.98037 -0.147182 0
M  V30 6164 C 585.571 3.07333 1.6261 0
M  V30 6165 H 584.894 3.81866 1.184 0
M  V30 6166 H 586.334 3.62209 2.20409 0
M  V30 6167 C 584.793 2.18102 2.56775 0
M  V30 6168 O 585.323 1.79104 3.59562 0
M  V30 6169 N 583.529 1.82759 2.25937 0
M  V30 6170 H 583.076 2.14671 1.42387 0
M  V30 6171 H 583.034 1.23342 2.89196 0
M  V30 6172 N 586.806 0.0935595 1.57322 0
M  V30 6173 C 587.716 -0.880192 2.17462 0
M  V30 6174 C 588.732 -1.31135 1.14366 0
M  V30 6175 O 589.908 -1.37958 1.46729 0
M  V30 6176 C 586.973 -2.12184 2.74188 0
M  V30 6177 C 586.034 -1.74503 3.92234 0
M  V30 6178 C 585.267 -2.92748 4.46245 0
M  V30 6179 O 585.49 -4.07427 3.99198 0
M  V30 6180 O 584.424 -2.71303 5.37288 0
M  V30 6181 H 588.25 -0.398516 3.01074 0
M  V30 6182 H 585.835 -0.130707 1.48827 0
M  V30 6183 H 587.717 -2.84953 3.10451 0
M  V30 6184 H 586.392 -2.59407 1.93623 0
M  V30 6185 H 585.299 -0.989186 3.60785 0
M  V30 6186 H 586.632 -1.32044 4.74157 0
M  V30 6187 N 588.284 -1.56567 -0.180126 0
M  V30 6188 C 589.514 -1.85349 -0.912647 0
M  V30 6189 C 589.922 -0.675795 -1.76719 0
M  V30 6190 O 589.265 0.3645 -1.80047 0
M  V30 6191 C 589.327 -3.08431 -1.84691 0
M  V30 6192 C 588.991 -4.41694 -1.17284 0
M  V30 6193 C 589.988 -5.17062 -0.542532 0
M  V30 6194 C 587.673 -4.8843 -1.17223 0
M  V30 6195 C 589.667 -6.37351 0.0793953 0
M  V30 6196 C 587.354 -6.08652 -0.54647 0
M  V30 6197 C 588.352 -6.82955 0.0782458 0
M  V30 6198 O 588.04 -8.00897 0.694158 0
M  V30 6199 H 587.772 -0.619286 -0.271036 0
M  V30 6200 H 590.326 -2.0454 -0.187768 0
M  V30 6201 H 588.556 -2.85163 -2.61188 0
M  V30 6202 H 590.245 -3.23733 -2.44851 0
M  V30 6203 H 591.011 -4.8204 -0.535045 0
M  V30 6204 H 586.89 -4.30542 -1.64788 0
M  V30 6205 H 590.434 -6.95287 0.567612 0
M  V30 6206 H 586.331 -6.4314 -0.55151 0
M  V30 6207 H 587.099 -8.16352 0.592537 0
M  V30 6208 N 589.762 0.448376 -1.51087 0
M  V30 6209 C 591.008 1.19748 -1.64414 0
M  V30 6210 C 591.363 1.89177 -0.350715 0
M  V30 6211 O 590.656 1.80135 0.652834 0
M  V30 6212 C 590.85 2.24866 -2.77795 0
M  V30 6213 C 590.679 1.65753 -4.18038 0
M  V30 6214 C 589.449 1.44728 -4.8413 0
M  V30 6215 C 591.647 1.13985 -5.0151 0
M  V30 6216 N 589.629 0.810962 -6.0852 0
M  V30 6217 C 591 0.628141 -6.1681 0
M  V30 6218 C 593.055 1.03055 -4.87118 0
M  V30 6219 C 591.758 0.0178906 -7.19298 0
M  V30 6220 C 593.784 0.434212 -5.89804 0
M  V30 6221 C 593.146 -0.0670069 -7.04368 0
M  V30 6222 H 589.245 0.426254 -0.655615 0
M  V30 6223 H 591.829 0.495806 -1.88281 0
M  V30 6224 H 590 2.92434 -2.55611 0
M  V30 6225 H 591.732 2.91857 -2.8036 0
M  V30 6226 H 588.487 1.70593 -4.41809 0
M  V30 6227 H 588.911 0.510563 -6.75072 0
M  V30 6228 H 593.553 1.40395 -3.9881 0
M  V30 6229 H 591.271 -0.367662 -8.07263 0
M  V30 6230 H 594.857 0.3517 -5.80736 0
M  V30 6231 H 593.737 -0.521209 -7.82466 0
M  V30 6232 N 591.24 1.41047 0.703093 0
M  V30 6233 C 592.517 1.30493 1.45708 0
M  V30 6234 C 592.897 -0.0709892 2.10981 0
M  V30 6235 O 592.245 -1.08471 2.01113 0
M  V30 6236 C 592.455 2.45287 2.48265 0
M  V30 6237 C 593.803 2.86104 3.13735 0
M  V30 6238 O 594.827 2.44971 2.58587 0
M  V30 6239 O 593.686 3.57206 4.13601 0
M  V30 6240 H 590.78 0.513144 0.648546 0
M  V30 6241 H 593.326 1.52995 0.734208 0
M  V30 6242 H 592.098 3.37135 1.98635 0
M  V30 6243 H 591.721 2.24622 3.28071 0
M  V30 6244 N 592.718 -0.936591 1.26751 0
M  V30 6245 C 593.668 -2.0219 1.05371 0
M  V30 6246 C 594.652 -1.60893 -0.0154112 0
M  V30 6247 O 595.844 -1.75843 0.202085 0
M  V30 6248 C 592.973 -3.36222 0.693541 0
M  V30 6249 C 592.059 -3.8399 1.80035 0
M  V30 6250 N 592.45 -4.0436 3.03852 0
M  V30 6251 C 590.748 -4.12945 1.685 0
M  V30 6252 C 591.449 -4.44 3.75818 0
M  V30 6253 N 590.425 -4.50966 3.03531 0
M  V30 6254 H 594.227 -2.15958 1.99347 0
M  V30 6255 H 591.741 -1.12277 1.17335 0
M  V30 6256 H 593.738 -4.13625 0.521513 0
M  V30 6257 H 592.398 -3.23821 -0.238693 0
M  V30 6258 H 593.409 -3.9092 3.39709 0
M  V30 6259 H 590.086 -4.09308 0.822986 0
M  V30 6260 H 591.476 -4.67914 4.82189 0
M  V30 6261 N 594.196 -1.08629 -1.14182 0
M  V30 6262 C 595.143 -0.718299 -2.19338 0
M  V30 6263 C 596.113 0.296587 -1.63431 0
M  V30 6264 O 597.298 0.180079 -1.89948 0
M  V30 6265 C 594.438 -0.136203 -3.44831 0
M  V30 6266 C 593.551 -1.20414 -4.14879 0
M  V30 6267 C 592.686 -0.585666 -5.27962 0
M  V30 6268 C 591.725 -1.63548 -5.89846 0
M  V30 6269 N 590.862 -1.03864 -6.94375 0
M  V30 6270 H 595.702 -1.61932 -2.50164 0
M  V30 6271 H 593.239 -0.80919 -1.22844 0
M  V30 6272 H 595.197 0.219021 -4.16625 0
M  V30 6273 H 593.827 0.728121 -3.14481 0
M  V30 6274 H 592.879 -1.67676 -3.41451 0
M  V30 6275 H 594.191 -1.99959 -4.56966 0
M  V30 6276 H 593.345 -0.178818 -6.06436 0
M  V30 6277 H 592.084 0.24142 -4.87102 0
M  V30 6278 H 591.089 -2.05197 -5.10073 0
M  V30 6279 H 592.314 -2.46509 -6.3278 0
M  V30 6280 H 590.26 -0.232687 -6.55587 0
M  V30 6281 H 590.177 -1.77116 -7.3496 0
M  V30 6282 H 591.445 -0.657724 -7.7672 0
M  V30 6283 N 595.674 1.31259 -0.872281 0
M  V30 6284 C 597.09 1.49283 -0.564521 0
M  V30 6285 C 597.29 1.80243 0.900807 0
M  V30 6286 O 596.346 1.88246 1.68284 0
M  V30 6287 C 597.659 2.62503 -1.46673 0
M  V30 6288 C 599.207 2.76386 -1.46901 0
M  V30 6289 C 599.682 3.92705 -2.35684 0
M  V30 6290 N 601.173 3.99995 -2.33577 0
M  V30 6291 C 601.908 4.89276 -2.98992 0
M  V30 6292 N 601.404 5.83443 -3.73585 0
M  V30 6293 N 603.197 4.82541 -2.88289 0
M  V30 6294 H 595.348 1.09432 -1.82039 0
M  V30 6295 H 597.611 0.540949 -0.77851 0
M  V30 6296 H 597.317 2.46407 -2.50951 0
M  V30 6297 H 597.191 3.58695 -1.16696 0
M  V30 6298 H 599.578 2.91894 -0.433796 0
M  V30 6299 H 599.659 1.80853 -1.80903 0
M  V30 6300 H 599.303 3.77954 -3.39283 0
M  V30 6301 H 599.233 4.87549 -1.99006 0
M  V30 6302 H 601.724 3.32624 -1.7936 0
M  V30 6303 H 602.037 6.48303 -4.20622 0
M  V30 6304 H 600.382 5.83415 -3.77694 0
M  V30 6305 H 603.573 4.07951 -2.2955 0
M  V30 6306 H 603.746 5.51916 -3.39549 0
M  V30 6307 N 597.152 0.631951 1.44375 0
M  V30 6308 C 598.429 0.067646 1.95483 0
M  V30 6309 C 598.809 -1.40683 1.57389 0
M  V30 6310 O 598.157 -2.12167 0.848375 0
M  V30 6311 C 598.367 0.291392 3.47781 0
M  V30 6312 C 599.715 0.185028 4.24197 0
M  V30 6313 O 600.739 0.222803 3.55503 0
M  V30 6314 O 599.598 0.0906642 5.46425 0
M  V30 6315 H 596.692 -0.0218379 0.826712 0
M  V30 6316 H 599.238 0.703711 1.54421 0
M  V30 6317 H 598.01 1.31449 3.68561 0
M  V30 6318 H 597.633 -0.378772 3.95792 0
M  V30 6319 N 598.631 -1.53133 0.372548 0
M  V30 6320 C 599.871 -2.03267 -0.214943 0
M  V30 6321 C 600.235 -1.25362 -1.45425 0
M  V30 6322 O 601.436 -1.65536 -2.11781 0
M  V30 6323 C 599.707 -3.53985 -0.492897 0
M  V30 6324 S 601.266 -4.25977 -1.05307 0
M  V30 6325 H 598.084 -0.708289 -0.062029 0
M  V30 6326 H 600.686 -1.88539 0.517025 0
M  V30 6327 H 599.39 -4.08282 0.416442 0
M  V30 6328 H 598.921 -3.72887 -1.25375 0
M  V30 6329 H 600.936 -4.37731 -2.33679 0
M  V30 6330 N 600.109 -0.101901 -1.5727 0
M  V30 6331 C 601.358 0.559922 -1.93772 0
M  V30 6332 C 601.671 1.68913 -0.98629 0
M  V30 6333 O 602.877 2.41256 -1.24529 0
M  V30 6334 C 601.333 1.04739 -3.44322 0
M  V30 6335 C 600.941 -0.05243 -4.47969 0
M  V30 6336 C 602.685 1.68157 -3.89774 0
M  V30 6337 C 600.592 0.450781 -5.8968 0
M  V30 6338 H 599.522 0.212931 -0.723309 0
M  V30 6339 H 602.173 -0.179001 -1.82625 0
M  V30 6340 H 600.555 1.84021 -3.50645 0
M  V30 6341 H 601.729 -0.828157 -4.53297 0
M  V30 6342 H 600.044 -0.592202 -4.12167 0
M  V30 6343 H 602.641 2.0689 -4.93052 0
M  V30 6344 H 602.984 2.55338 -3.28798 0
M  V30 6345 H 603.517 0.954453 -3.8618 0
M  V30 6346 H 600.256 -0.38458 -6.54371 0
M  V30 6347 H 599.776 1.19336 -5.87809 0
M  V30 6348 H 601.455 0.917555 -6.40461 0
M  V30 6349 N 601.587 1.56661 0.17182 0
M  V30 6350 C 602.55 1.9549 1.19651 0
M  V30 6351 C 603.55 0.838501 1.37207 0
M  V30 6352 O 604.74 1.10556 1.34622 0
M  V30 6353 C 601.872 2.24927 2.56166 0
M  V30 6354 H 603.065 2.87184 0.864007 0
M  V30 6355 H 600.618 1.50711 0.41425 0
M  V30 6356 H 601.353 1.35944 2.94431 0
M  V30 6357 H 601.138 3.06301 2.4479 0
M  V30 6358 H 602.628 2.55891 3.30014 0
M  V30 6359 N 603.065 -0.440357 1.51323 0
M  V30 6360 C 604.29 -1.21716 1.67928 0
M  V30 6361 C 604.715 -1.84328 0.374826 0
M  V30 6362 O 604.073 -1.68675 -0.664706 0
M  V30 6363 C 604.121 -2.27914 2.79442 0
M  V30 6364 O 603.225 -3.33325 2.42834 0
M  V30 6365 H 602.566 -0.35674 0.560029 0
M  V30 6366 H 605.096 -0.520417 1.97871 0
M  V30 6367 H 605.106 -2.72746 3.03436 0
M  V30 6368 H 603.781 -1.8172 3.741 0
M  V30 6369 H 602.358 -2.9399 2.294 0
M  V30 6370 N 604.543 -1.41418 -0.695603 0
M  V30 6371 C 605.792 -1.40073 -1.4513 0
M  V30 6372 C 606.105 -0.0130439 -1.95596 0
M  V30 6373 O 607.311 0.123032 -2.71221 0
M  V30 6374 C 605.767 -2.46286 -2.62433 0
M  V30 6375 C 605.375 -3.90962 -2.18753 0
M  V30 6376 C 607.119 -2.54077 -3.40066 0
M  V30 6377 C 605.026 -4.88728 -3.33015 0
M  V30 6378 H 603.956 -0.520903 -0.545138 0
M  V30 6379 H 606.607 -1.67242 -0.75515 0
M  V30 6380 H 604.989 -2.12248 -3.34315 0
M  V30 6381 H 606.163 -4.34248 -1.54161 0
M  V30 6382 H 604.478 -3.86831 -1.54114 0
M  V30 6383 H 607.075 -3.24303 -4.25125 0
M  V30 6384 H 607.418 -1.5776 -3.8525 0
M  V30 6385 H 607.951 -2.87206 -2.75241 0
M  V30 6386 H 604.69 -5.86449 -2.92844 0
M  V30 6387 H 604.21 -4.50091 -3.96457 0
M  V30 6388 H 605.889 -5.09483 -3.98793 0
M  V30 6389 N 606.021 0.929856 -1.27246 0
M  V30 6390 C 607.261 1.6919 -1.14691 0
M  V30 6391 C 607.625 1.896 0.302621 0
M  V30 6392 O 608.826 2.63102 0.550543 0
M  V30 6393 C 607.097 3.02291 -1.9067 0
M  V30 6394 S 608.656 3.93436 -1.94303 0
M  V30 6395 H 605.474 0.581248 -0.409477 0
M  V30 6396 H 608.076 1.10722 -1.61124 0
M  V30 6397 H 606.78 2.85125 -2.95181 0
M  V30 6398 H 606.311 3.65813 -1.44723 0
M  V30 6399 H 608.326 4.85224 -1.0379 0
M  V30 6400 N 607.499 1.09233 1.13605 0
M  V30 6401 C 608.462 0.733553 2.17144 0
M  V30 6402 C 609.462 -0.235873 1.59061 0
M  V30 6403 O 610.652 -0.0143167 1.74194 0
M  V30 6404 C 607.784 0.084471 3.40795 0
M  V30 6405 H 608.977 1.65049 2.50397 0
M  V30 6406 H 606.53 0.891264 1.28399 0
M  V30 6407 H 607.265 -0.843795 3.1313 0
M  V30 6408 H 607.05 0.781985 3.84223 0
M  V30 6409 H 608.54 -0.151216 4.17326 0
M  V30 6410 N 608.977 -1.30795 0.87923 0
M  V30 6411 C 609.925 -2.30231 0.331112 0
M  V30 6412 C 610.919 -1.59918 -0.558794 0
M  V30 6413 O 612.125 -1.74441 -0.443866 0
M  V30 6414 H 608.5 -0.746785 0.088409 0
M  V30 6415 H 610.471 -2.73925 1.18353 0
M  V30 6416 C 609.22 -3.44848 -0.444401 0
M  V30 6417 H 608.543 -3.99131 0.231106 0
M  V30 6418 H 609.983 -4.16516 -0.793109 0
M  V30 6419 C 608.442 -2.94329 -1.63926 0
M  V30 6420 O 608.972 -2.93875 -2.73862 0
M  V30 6421 N 607.178 -2.50413 -1.4745 0
M  V30 6422 H 606.725 -2.50982 -0.58015 0
M  V30 6423 H 606.683 -2.16969 -2.27534 0
M  V30 6424 N 610.455 -0.639598 -1.44038 0
M  V30 6425 C 611.385 0.0469443 -2.33453 0
M  V30 6426 C 612.366 0.82609 -1.48694 0
M  V30 6427 O 613.551 0.790285 -1.77393 0
M  V30 6428 C 610.681 1.02338 -3.3188 0
M  V30 6429 C 609.635 0.355284 -4.26523 0
M  V30 6430 C 608.961 1.44221 -5.14883 0
M  V30 6431 C 610.261 -0.743798 -5.16977 0
M  V30 6432 H 611.955 -0.699735 -2.91108 0
M  V30 6433 H 609.501 -0.337946 -1.39978 0
M  V30 6434 H 611.454 1.51247 -3.93322 0
M  V30 6435 H 610.178 1.80105 -2.72451 0
M  V30 6436 H 608.837 -0.113239 -3.66425 0
M  V30 6437 H 608.485 2.21097 -4.51802 0
M  V30 6438 H 608.185 1.00052 -5.79019 0
M  V30 6439 H 609.709 1.93295 -5.79197 0
M  V30 6440 H 611.123 -0.337444 -5.72306 0
M  V30 6441 H 609.52 -1.10914 -5.89761 0
M  V30 6442 H 610.59 -1.60745 -4.57481 0
M  V30 6443 N 611.933 1.52934 -0.380664 0
M  V30 6444 C 613.163 2.05587 0.204302 0
M  V30 6445 C 613.571 1.25288 1.41773 0
M  V30 6446 O 612.914 0.290394 1.8139 0
M  V30 6447 C 612.976 3.53624 0.647324 0
M  V30 6448 C 612.64 4.54765 -0.451465 0
M  V30 6449 C 613.637 5.03226 -1.30614 0
M  V30 6450 C 611.322 4.98508 -0.616025 0
M  V30 6451 C 613.316 5.94046 -2.31058 0
M  V30 6452 C 611.003 5.89131 -1.62381 0
M  V30 6453 C 612.001 6.36792 -2.46952 0
M  V30 6454 O 611.689 7.25626 -3.46009 0
M  V30 6455 H 611.421 0.675013 0.0365198 0
M  V30 6456 H 613.975 1.98125 -0.541827 0
M  V30 6457 H 612.205 3.58676 1.44529 0
M  V30 6458 H 613.894 3.89061 1.15698 0
M  V30 6459 H 614.66 4.70167 -1.19027 0
M  V30 6460 H 610.539 4.60989 0.0324987 0
M  V30 6461 H 614.083 6.3117 -2.97104 0
M  V30 6462 H 609.98 6.21603 -1.7401 0
M  V30 6463 H 610.748 7.43664 -3.41916 0
M  V30 6464 N 613.412 0.11024 1.57214 0
M  V30 6465 C 614.36 -0.860586 2.16094 0
M  V30 6466 C 615.354 -1.28156 1.1078 0
M  V30 6467 O 616.56 -1.25433 1.29099 0
M  V30 6468 H 612.935 -0.295606 0.691463 0
M  V30 6469 H 614.906 -0.33942 2.96463 0
M  V30 6470 C 613.655 -2.10421 2.768 0
M  V30 6471 H 612.978 -1.7892 3.5753 0
M  V30 6472 H 614.418 -2.76375 3.21547 0
M  V30 6473 C 612.877 -2.88823 1.73444 0
M  V30 6474 O 613.407 -3.839 1.18251 0
M  V30 6475 N 611.613 -2.52649 1.43586 0
M  V30 6476 H 611.16 -1.754 1.8866 0
M  V30 6477 H 611.118 -3.05403 0.746735 0
M  V30 6478 N 614.89 -1.56749 -0.16351 0
M  V30 6479 C 615.837 -1.97011 -1.2023 0
M  V30 6480 C 616.807 -0.835186 -1.43575 0
M  V30 6481 O 617.992 -1.09594 -1.56185 0
M  V30 6482 C 615.132 -2.34186 -2.53478 0
M  V30 6483 C 614.245 -3.60893 -2.37446 0
M  V30 6484 C 613.38 -3.87245 -3.63614 0
M  V30 6485 C 612.419 -5.07274 -3.42548 0
M  V30 6486 N 611.556 -5.29719 -4.60806 0
M  V30 6487 H 616.396 -2.85562 -0.851958 0
M  V30 6488 H 613.933 -1.41292 -0.409257 0
M  V30 6489 H 615.891 -2.53764 -3.31149 0
M  V30 6490 H 614.521 -1.48736 -2.86492 0
M  V30 6491 H 613.573 -3.49185 -1.50911 0
M  V30 6492 H 614.885 -4.48722 -2.1783 0
M  V30 6493 H 614.039 -4.07232 -4.49719 0
M  V30 6494 H 612.778 -2.97806 -3.86216 0
M  V30 6495 H 611.783 -4.87177 -2.5483 0
M  V30 6496 H 613.008 -5.98251 -3.2136 0
M  V30 6497 H 610.954 -4.43233 -4.83612 0
M  V30 6498 H 610.871 -6.11786 -4.44132 0
M  V30 6499 H 612.139 -5.54192 -5.48171 0
M  V30 6500 N 616.368 0.432326 -1.51554 0
M  V30 6501 C 617.616 1.17901 -1.64146 0
M  V30 6502 C 617.937 1.91604 -0.362367 0
M  V30 6503 O 617.207 1.85764 0.621968 0
M  V30 6504 H 615.787 0.438206 -0.604966 0
M  V30 6505 H 618.449 0.495172 -1.88505 0
M  V30 6506 H 617.545 1.90584 -2.47152 0
M  V30 6507 N 617.846 1.41785 0.688094 0
M  V30 6508 C 618.776 1.47 1.8142 0
M  V30 6509 C 619.757 0.327881 1.6691 0
M  V30 6510 O 620.942 0.540362 1.86531 0
M  V30 6511 C 618.072 1.35876 3.19617 0
M  V30 6512 C 617.026 2.47976 3.48844 0
M  V30 6513 C 616.352 2.21915 4.86475 0
M  V30 6514 C 617.652 3.90309 3.47068 0
M  V30 6515 H 619.346 2.41247 1.77314 0
M  V30 6516 H 616.892 1.16116 0.851651 0
M  V30 6517 H 618.845 1.38134 3.98117 0
M  V30 6518 H 617.569 0.38116 3.24368 0
M  V30 6519 H 616.228 2.45013 2.72698 0
M  V30 6520 H 615.876 1.2248 4.8786 0
M  V30 6521 H 615.576 2.97037 5.06994 0
M  V30 6522 H 617.1 2.25901 5.67275 0
M  V30 6523 H 618.514 3.94947 4.1556 0
M  V30 6524 H 616.911 4.65175 3.7912 0
M  V30 6525 H 617.981 4.17927 2.45896 0
M  V30 6526 N 619.324 -0.923095 1.27737 0
M  V30 6527 C 620.254 -2.04124 1.13383 0
M  V30 6528 C 621.235 -1.70066 0.0340658 0
M  V30 6529 O 622.42 -1.93068 0.209383 0
M  V30 6530 C 619.55 -3.3831 0.785097 0
M  V30 6531 C 618.504 -3.86496 1.8386 0
M  V30 6532 C 617.83 -5.1754 1.34373 0
M  V30 6533 C 619.13 -4.09381 3.24353 0
M  V30 6534 H 620.824 -2.1639 2.06919 0
M  V30 6535 H 618.37 -1.03976 0.996243 0
M  V30 6536 H 620.323 -4.16016 0.671485 0
M  V30 6537 H 619.047 -3.2607 -0.185969 0
M  V30 6538 H 617.706 -3.10987 1.9412 0
M  V30 6539 H 617.354 -5.01696 0.361989 0
M  V30 6540 H 617.054 -5.50751 2.04811 0
M  V30 6541 H 618.578 -5.97811 1.24315 0
M  V30 6542 H 619.992 -4.77641 3.17067 0
M  V30 6543 H 618.389 -4.53906 3.92542 0
M  V30 6544 H 619.459 -3.14515 3.69064 0
M  V30 6545 N 620.802 -1.09834 -1.13024 0
M  V30 6546 C 622.079 -0.749225 -1.80682 0
M  V30 6547 C 622.459 0.765171 -1.96744 0
M  V30 6548 O 621.807 1.68912 -1.53886 0
M  V30 6549 C 622.017 -1.49311 -3.15448 0
M  V30 6550 C 623.365 -1.66162 -3.90737 0
M  V30 6551 O 624.389 -1.45597 -3.25085 0
M  V30 6552 O 623.248 -2.00211 -5.08505 0
M  V30 6553 H 620.342 -0.269614 -0.781817 0
M  V30 6554 H 622.888 -1.20078 -1.19914 0
M  V30 6555 H 621.66 -2.52407 -2.99009 0
M  V30 6556 H 621.283 -1.034 -3.8392 0
M  V30 6557 N 622.28 1.30327 -0.886154 0
M  V30 6558 C 623.528 1.9571 -0.504195 0
M  V30 6559 C 623.849 1.70294 0.950003 0
M  V30 6560 O 623.119 1.02718 1.66811 0
M  V30 6561 H 621.699 0.72412 -0.183465 0
M  V30 6562 H 624.361 1.58835 -1.12949 0
M  V30 6563 H 623.457 3.04704 -0.675431 0
M  V30 6564 N 623.758 0.647228 1.43697 0
M  V30 6565 C 625.004 0.158422 2.0218 0
M  V30 6566 C 625.337 -1.22233 1.50907 0
M  V30 6567 O 624.612 -1.81478 0.699702 0
M  V30 6568 C 624.895 0.1627 3.59732 0
M  V30 6569 C 624.748 1.57694 4.21251 0
M  V30 6570 C 626.067 -0.504138 4.37203 0
M  V30 6571 H 623.186 0.059042 0.734631 0
M  V30 6572 H 625.828 0.826772 1.71069 0
M  V30 6573 H 623.978 -0.406414 3.86368 0
M  V30 6574 H 625.65 2.19618 4.05667 0
M  V30 6575 H 623.893 2.12603 3.7813 0
M  V30 6576 H 624.564 1.53183 5.3032 0
M  V30 6577 H 627.04 -0.0199841 4.16095 0
M  V30 6578 H 625.916 -0.470394 5.46881 0
M  V30 6579 H 626.177 -1.57726 4.13007 0
M  V30 6580 N 625.236 -1.5273 0.388769 0
M  V30 6581 C 626.484 -2.01174 -0.193208 0
M  V30 6582 C 626.805 -1.27705 -1.47365 0
M  V30 6583 O 626.075 -0.396966 -1.91836 0
M  V30 6584 H 624.655 -0.743287 -0.0743871 0
M  V30 6585 H 627.317 -1.87826 0.520336 0
M  V30 6586 H 626.413 -3.09477 -0.403803 0
M  V30 6587 N 626.714 -0.118576 -1.57153 0
M  V30 6588 C 627.647 0.869046 -2.11004 0
M  V30 6589 C 628.625 1.26115 -1.02634 0
M  V30 6590 O 629.809 1.36228 -1.30285 0
M  V30 6591 C 626.936 2.16297 -2.6064 0
M  V30 6592 C 625.982 1.91896 -3.80891 0
M  V30 6593 S 626.815 1.13562 -5.2332 0
M  V30 6594 C 627.971 2.44135 -5.76324 0
M  V30 6595 H 628.204 0.411005 -2.94445 0
M  V30 6596 H 625.737 0.0951891 -1.54106 0
M  V30 6597 H 627.695 2.90642 -2.89892 0
M  V30 6598 H 626.356 2.59219 -1.77382 0
M  V30 6599 H 625.549 2.8777 -4.13768 0
M  V30 6600 H 625.151 1.25672 -3.52253 0
M  V30 6601 H 627.443 3.39976 -5.86022 0
M  V30 6602 H 628.386 2.15803 -6.74414 0
M  V30 6603 H 628.794 2.53483 -5.04387 0
M  V30 6604 N 628.193 1.56834 0.155195 0
M  V30 6605 C 629.125 1.94235 1.21677 0
M  V30 6606 C 630.138 0.83724 1.39621 0
M  V30 6607 O 631.327 1.11567 1.39338 0
M  V30 6608 C 628.427 2.19402 2.58294 0
M  V30 6609 C 627.6 3.50671 2.61436 0
M  V30 6610 C 626.659 3.64475 3.79532 0
M  V30 6611 O 625.685 4.36945 3.64784 0
M  V30 6612 N 626.887 3.00526 4.96653 0
M  V30 6613 H 629.652 2.85901 0.898932 0
M  V30 6614 H 627.213 1.58185 0.34483 0
M  V30 6615 H 629.205 2.25886 3.35794 0
M  V30 6616 H 627.775 1.34042 2.82403 0
M  V30 6617 H 626.995 3.55702 1.69912 0
M  V30 6618 H 628.283 4.3702 2.60559 0
M  V30 6619 H 627.681 2.41549 5.11538 0
M  V30 6620 H 626.238 3.12583 5.71958 0
M  V30 6621 N 629.671 -0.424282 1.51781 0
M  V30 6622 C 630.896 -1.19928 1.6921 0
M  V30 6623 C 631.321 -1.8392 0.394355 0
M  V30 6624 O 630.679 -1.69371 -0.646778 0
M  V30 6625 C 630.727 -2.24937 2.81843 0
M  V30 6626 O 629.831 -3.3073 2.46356 0
M  V30 6627 H 629.172 -0.35078 0.563781 0
M  V30 6628 H 631.702 -0.499401 1.98412 0
M  V30 6629 H 631.712 -2.69512 3.06312 0
M  V30 6630 H 630.387 -1.77742 3.76006 0
M  V30 6631 H 628.964 -2.9154 2.32505 0
M  V30 6632 N 631.149 -1.42148 -0.680565 0
M  V30 6633 C 632.099 -1.41634 -1.78672 0
M  V30 6634 C 633.083 -0.288494 -1.58293 0
M  V30 6635 O 634.275 -0.530295 -1.68869 0
M  V30 6636 C 631.404 -1.31558 -3.17092 0
M  V30 6637 C 630.49 -2.49265 -3.43115 0
M  V30 6638 N 630.881 -3.74702 -3.39753 0
M  V30 6639 C 629.179 -2.43401 -3.73727 0
M  V30 6640 C 629.88 -4.52854 -3.651 0
M  V30 6641 N 628.856 -3.83181 -3.85582 0
M  V30 6642 H 632.658 -2.3652 -1.74458 0
M  V30 6643 H 630.172 -1.36415 -0.881171 0
M  V30 6644 H 632.169 -1.29272 -3.96351 0
M  V30 6645 H 630.829 -0.376696 -3.22508 0
M  V30 6646 H 631.84 -4.07378 -3.19787 0
M  V30 6647 H 628.517 -1.58062 -3.86423 0
M  V30 6648 H 629.907 -5.61827 -3.6851 0
M  V30 6649 N 632.627 0.916307 -1.28225 0
M  V30 6650 C 633.876 1.65975 -1.14608 0
M  V30 6651 C 634.189 1.93204 0.305191 0
M  V30 6652 O 635.395 2.65611 0.562432 0
M  V30 6653 C 633.851 2.98989 -2.00333 0
M  V30 6654 C 633.459 2.79417 -3.50186 0
M  V30 6655 C 635.203 3.76856 -1.95397 0
M  V30 6656 C 633.11 4.08056 -4.28071 0
M  V30 6657 H 632.04 0.622587 -0.425324 0
M  V30 6658 H 634.691 1.01705 -1.52736 0
M  V30 6659 H 633.073 3.6438 -1.5506 0
M  V30 6660 H 634.247 2.22723 -4.034 0
M  V30 6661 H 632.562 2.14966 -3.56621 0
M  V30 6662 H 635.159 4.72203 -2.50856 0
M  V30 6663 H 635.502 4.05776 -0.930137 0
M  V30 6664 H 636.035 3.1828 -2.38626 0
M  V30 6665 H 632.774 3.8431 -5.31024 0
M  V30 6666 H 632.294 4.64371 -3.79631 0
M  V30 6667 H 633.973 4.76333 -4.37854 0
M  V30 6668 N 634.105 1.10431 1.1244 0
M  V30 6669 C 635.053 0.747974 2.20246 0
M  V30 6670 C 636.047 -0.255848 1.67457 0
M  V30 6671 O 637.253 -0.116221 1.79624 0
M  V30 6672 H 633.628 0.223946 0.71788 0
M  V30 6673 H 635.599 1.6661 2.47556 0
M  V30 6674 C 634.348 0.195957 3.47147 0
M  V30 6675 H 633.671 0.959606 3.88113 0
M  V30 6676 H 635.111 -0.0153154 4.23997 0
M  V30 6677 C 633.57 -1.07132 3.19413 0
M  V30 6678 O 634.1 -2.15284 3.3914 0
M  V30 6679 N 632.306 -0.98994 2.73219 0
M  V30 6680 H 631.853 -0.109736 2.57366 0
M  V30 6681 H 631.811 -1.83856 2.55038 0
M  V30 6682 N 635.583 -1.29855 0.893053 0
M  V30 6683 C 636.546 -2.26183 0.370687 0
M  V30 6684 C 637.546 -1.53108 -0.491385 0
M  V30 6685 O 638.736 -1.71643 -0.297386 0
M  V30 6686 C 635.868 -3.37633 -0.470827 0
M  V30 6687 H 637.061 -2.73903 1.22135 0
M  V30 6688 H 634.614 -1.41183 0.67061 0
M  V30 6689 H 635.349 -2.95241 -1.34175 0
M  V30 6690 H 635.134 -3.91825 0.146784 0
M  V30 6691 H 636.624 -4.09313 -0.827825 0
M  V30 6692 N 637.061 -0.65484 -1.43351 0
M  V30 6693 C 638.338 -0.0987371 -1.95351 0
M  V30 6694 C 638.718 1.38161 -1.59608 0
M  V30 6695 O 638.066 2.10791 -0.882021 0
M  V30 6696 C 638.276 -0.346684 -3.47274 0
M  V30 6697 C 639.624 -0.25249 -4.23849 0
M  V30 6698 O 640.648 -0.279332 -3.55103 0
M  V30 6699 O 639.507 -0.177584 -5.46211 0
M  V30 6700 H 636.601 0.0086829 -0.826954 0
M  V30 6701 H 639.147 -0.728189 -1.53282 0
M  V30 6702 H 637.919 -1.37296 -3.66423 0
M  V30 6703 H 637.542 0.315757 -3.96344 0
M  V30 6704 N 638.539 1.52521 -0.396863 0
M  V30 6705 C 639.472 2.23118 0.478926 0
M  V30 6706 C 640.45 1.23475 1.05796 0
M  V30 6707 O 641.634 1.52486 1.10817 0
M  V30 6708 C 638.761 2.95028 1.66362 0
M  V30 6709 C 637.807 4.09002 1.20913 0
M  V30 6710 S 638.64 5.35182 0.184407 0
M  V30 6711 C 639.796 6.10616 1.37471 0
M  V30 6712 H 640.029 2.97056 -0.120542 0
M  V30 6713 H 637.562 1.53334 -0.18109 0
M  V30 6714 H 639.52 3.37066 2.34301 0
M  V30 6715 H 638.181 2.20756 2.23441 0
M  V30 6716 H 637.374 4.58445 2.09389 0
M  V30 6717 H 636.976 3.69016 0.608559 0
M  V30 6718 H 639.268 6.37247 2.30048 0
M  V30 6719 H 640.211 7.02084 0.921051 0
M  V30 6720 H 640.619 5.41499 1.59495 0
M  V30 6721 N 640.017 0.126909 1.57088 0
M  V30 6722 C 640.965 -0.837618 2.16995 0
M  V30 6723 C 641.959 -1.26974 1.12133 0
M  V30 6724 O 643.165 -1.24056 1.30423 0
M  V30 6725 H 639.54 -0.288256 0.694559 0
M  V30 6726 H 641.511 -0.307957 2.96807 0
M  V30 6727 C 640.26 -2.07474 2.79016 0
M  V30 6728 H 639.583 -1.75117 3.59408 0
M  V30 6729 H 641.023 -2.72949 3.24461 0
M  V30 6730 C 639.482 -2.86967 1.76498 0
M  V30 6731 O 640.012 -3.82625 1.22316 0
M  V30 6732 N 638.218 -2.51111 1.46258 0
M  V30 6733 H 637.765 -1.73389 1.90509 0
M  V30 6734 H 637.723 -3.04594 0.779085 0
M  V30 6735 N 641.495 -1.56914 -0.146875 0
M  V30 6736 C 642.743 -1.82994 -0.85777 0
M  V30 6737 C 643.064 -0.707814 -1.817 0
M  V30 6738 O 642.334 0.270521 -1.94023 0
M  V30 6739 H 640.914 -0.675106 -0.319751 0
M  V30 6740 H 643.576 -1.9439 -0.140849 0
M  V30 6741 H 642.672 -2.77928 -1.41994 0
M  V30 6742 N 642.974 0.416227 -1.52004 0
M  V30 6743 C 644.221 1.16383 -1.65714 0
M  V30 6744 C 644.549 1.9068 -0.383594 0
M  V30 6745 O 643.804 1.85174 0.633185 0
M  V30 6746 C 644.103 2.18923 -2.82502 0
M  V30 6747 C 643.769 1.61485 -4.20991 0
M  V30 6748 C 642.431 1.45545 -4.58661 0
M  V30 6749 C 644.783 1.19468 -5.07323 0
M  V30 6750 C 642.111 0.860937 -5.80349 0
M  V30 6751 C 644.463 0.614386 -6.29609 0
M  V30 6752 C 643.127 0.442056 -6.66035 0
M  V30 6753 H 642.397 0.425875 -0.606392 0
M  V30 6754 H 645.044 0.45199 -1.8609 0
M  V30 6755 H 643.349 2.96225 -2.56433 0
M  V30 6756 H 645.046 2.76628 -2.90307 0
M  V30 6757 H 641.636 1.74873 -3.91302 0
M  V30 6758 H 645.82 1.30596 -4.78809 0
M  V30 6759 H 641.076 0.715372 -6.072 0
M  V30 6760 H 645.25 0.280393 -6.95835 0
M  V30 6761 H 642.877 -0.0207218 -7.60197 0
M  V30 6762 N 644.452 1.42507 0.673017 0
M  V30 6763 C 645.677 1.4668 1.46627 0
M  V30 6764 C 646.102 0.080066 1.8793 0
M  V30 6765 O 645.46 -0.921879 1.56112 0
M  V30 6766 C 645.508 2.40091 2.69051 0
M  V30 6767 O 644.612 1.8735 3.67387 0
M  V30 6768 H 643.953 0.496908 0.44043 0
M  V30 6769 H 646.483 1.87215 0.825334 0
M  V30 6770 H 646.493 2.56731 3.17101 0
M  V30 6771 H 645.168 3.4084 2.3833 0
M  V30 6772 H 643.745 1.80274 3.26429 0
M  V30 6773 N 645.93 -0.909495 1.28709 0
M  V30 6774 C 647.178 -1.65577 1.15882 0
M  V30 6775 C 647.499 -1.928 -0.292108 0
M  V30 6776 O 646.769 -1.54716 -1.20166 0
M  V30 6777 H 645.349 -0.613714 0.425869 0
M  V30 6778 H 648.011 -1.09108 1.61498 0
M  V30 6779 H 647.107 -2.61634 1.70159 0
M  V30 6780 N 647.408 -1.11026 -1.11852 0
M  V30 6781 C 648.657 -0.851249 -1.82857 0
M  V30 6782 C 648.97 0.62514 -1.85341 0
M  V30 6783 O 650.176 1.00026 -2.52403 0
M  V30 6784 C 648.632 -1.47309 -3.28372 0
M  V30 6785 C 648.24 -2.9832 -3.34229 0
M  V30 6786 C 649.984 -1.29373 -4.04306 0
M  V30 6787 C 647.891 -3.53509 -4.74115 0
M  V30 6788 H 646.821 -0.314794 -0.685143 0
M  V30 6789 H 649.472 -1.33499 -1.25898 0
M  V30 6790 H 647.854 -0.917017 -3.85236 0
M  V30 6791 H 649.028 -3.60295 -2.87271 0
M  V30 6792 H 647.343 -3.15482 -2.71772 0
M  V30 6793 H 649.94 -1.68042 -5.07608 0
M  V30 6794 H 650.283 -0.235879 -4.15631 0
M  V30 6795 H 650.816 -1.8182 -3.53817 0
M  V30 6796 H 647.555 -4.58987 -4.67986 0
M  V30 6797 H 647.075 -2.96305 -5.21501 0
M  V30 6798 H 648.754 -3.51693 -5.43066 0
M  V30 6799 N 648.886 1.2938 -0.899927 0
M  V30 6800 C 649.818 2.26737 -0.335139 0
M  V30 6801 C 650.831 1.54316 0.518681 0
M  V30 6802 O 652.02 1.75313 0.335803 0
M  V30 6803 C 649.12 3.34558 0.540774 0
M  V30 6804 C 648.293 4.36455 -0.287372 0
M  V30 6805 C 647.352 5.2361 0.52141 0
M  V30 6806 O 646.378 5.69167 -0.0611735 0
M  V30 6807 N 647.58 5.50985 1.82745 0
M  V30 6808 H 650.345 2.75838 -1.17191 0
M  V30 6809 H 647.906 1.42716 -0.764438 0
M  V30 6810 H 649.898 3.89794 1.08825 0
M  V30 6811 H 648.468 2.85272 1.27823 0
M  V30 6812 H 647.688 3.80875 -1.01626 0
M  V30 6813 H 648.976 5.01573 -0.854518 0
M  V30 6814 H 648.374 5.15781 2.32349 0
M  V30 6815 H 646.931 6.09036 2.32204 0
M  V30 6816 N 650.364 0.662433 1.43002 0
M  V30 6817 C 651.312 -0.035345 2.32573 0
M  V30 6818 C 652.306 -0.803505 1.49131 0
M  V30 6819 O 653.512 -0.712865 1.65282 0
M  V30 6820 H 649.887 -0.0302194 0.751393 0
M  V30 6821 H 651.858 0.737686 2.89138 0
M  V30 6822 C 650.607 -0.981575 3.33557 0
M  V30 6823 H 649.93 -0.399914 3.97795 0
M  V30 6824 H 651.37 -1.43873 3.98844 0
M  V30 6825 C 649.829 -2.08204 2.64863 0
M  V30 6826 O 650.359 -3.16698 2.47113 0
M  V30 6827 N 648.565 -1.85022 2.24088 0
M  V30 6828 H 648.112 -0.967909 2.38724 0
M  V30 6829 H 648.07 -2.58845 1.78457 0
M  V30 6830 N 651.842 -1.52309 0.404946 0
M  V30 6831 C 653.072 -2.05886 -0.171569 0
M  V30 6832 C 653.48 -1.27527 -1.39762 0
M  V30 6833 O 652.823 -0.319215 -1.80905 0
M  V30 6834 C 652.885 -3.54609 -0.590983 0
M  V30 6835 C 652.549 -4.53989 0.523757 0
M  V30 6836 C 653.546 -5.01084 1.38604 0
M  V30 6837 C 651.231 -4.97465 0.695255 0
M  V30 6838 C 653.225 -5.90295 2.4048 0
M  V30 6839 C 650.912 -5.86473 1.71733 0
M  V30 6840 C 651.91 -6.32782 2.57051 0
M  V30 6841 O 651.598 -7.20029 3.57509 0
M  V30 6842 H 651.33 -0.675508 -0.0257763 0
M  V30 6843 H 653.884 -1.97238 0.573278 0
M  V30 6844 H 652.114 -3.60929 -1.38805 0
M  V30 6845 H 653.803 -3.90853 -1.09494 0
M  V30 6846 H 654.569 -4.68214 1.26492 0
M  V30 6847 H 650.448 -4.60982 0.0408447 0
M  V30 6848 H 653.992 -6.26363 3.07108 0
M  V30 6849 H 649.889 -6.18756 1.83877 0
M  V30 6850 H 650.657 -7.3813 3.53703 0
M  V30 6851 N 653.32 -0.135238 -1.57019 0
M  V30 6852 C 654.267 0.808908 -2.1616 0
M  V30 6853 C 655.237 1.25234 -1.09113 0
M  V30 6854 O 656.422 1.32697 -1.37099 0
M  V30 6855 C 653.562 2.04729 -2.77813 0
M  V30 6856 C 652.675 1.65074 -3.99218 0
M  V30 6857 C 651.81 2.84002 -4.48906 0
M  V30 6858 C 650.849 2.40663 -5.62803 0
M  V30 6859 N 649.986 3.5256 -6.07162 0
M  V30 6860 H 654.826 0.297751 -2.96509 0
M  V30 6861 H 652.363 0.135264 -1.46477 0
M  V30 6862 H 654.321 2.7731 -3.11697 0
M  V30 6863 H 652.951 2.53275 -2.00128 0
M  V30 6864 H 652.003 0.823029 -3.7139 0
M  V30 6865 H 653.315 1.29236 -4.81767 0
M  V30 6866 H 652.469 3.64788 -4.84783 0
M  V30 6867 H 651.208 3.23076 -3.65339 0
M  V30 6868 H 650.213 1.58314 -5.26514 0
M  V30 6869 H 651.438 2.02687 -6.48147 0
M  V30 6870 H 649.384 3.91278 -5.26534 0
M  V30 6871 H 649.301 3.20699 -6.84608 0
M  V30 6872 H 650.569 4.33738 -6.47682 0
M  V30 6873 N 654.798 1.5699 0.138552 0
M  V30 6874 C 655.761 1.97984 1.15478 0
M  V30 6875 C 656.761 0.867416 1.35398 0
M  V30 6876 O 657.951 1.13387 1.32246 0
M  V30 6877 C 655.083 2.3031 2.51337 0
M  V30 6878 H 656.276 2.88953 0.802896 0
M  V30 6879 H 653.829 1.51555 0.382189 0
M  V30 6880 H 654.564 1.42159 2.91481 0
M  V30 6881 H 654.349 3.11425 2.38237 0
M  V30 6882 H 655.839 2.62834 3.24512 0
M  V30 6883 N 656.276 -0.40816 1.52223 0
M  V30 6884 C 657.239 -1.48 1.7501 0
M  V30 6885 C 658.239 -1.48367 0.619996 0
M  V30 6886 O 659.429 -1.49874 0.887881 0
M  V30 6887 C 656.561 -2.87403 1.83336 0
M  V30 6888 H 657.754 -1.29086 2.70697 0
M  V30 6889 H 655.307 -0.638715 1.42654 0
M  V30 6890 H 656.042 -3.11686 0.895677 0
M  V30 6891 H 655.827 -2.8854 2.65494 0
M  V30 6892 H 657.317 -3.65103 2.02705 0
M  V30 6893 N 657.755 -1.42862 -0.66545 0
M  V30 6894 C 658.685 -1.49867 -1.79059 0
M  V30 6895 C 659.666 -0.354394 -1.66367 0
M  V30 6896 O 660.851 -0.569969 -1.85647 0
M  V30 6897 C 657.981 -1.40943 -3.17415 0
M  V30 6898 C 656.935 -2.53495 -3.44854 0
M  V30 6899 C 656.261 -2.29626 -4.82883 0
M  V30 6900 C 657.561 -3.95781 -3.40815 0
M  V30 6901 H 659.255 -2.44037 -1.73453 0
M  V30 6902 H 656.801 -1.17456 -0.833071 0
M  V30 6903 H 658.754 -1.4445 -3.95869 0
M  V30 6904 H 657.478 -0.432716 -3.23721 0
M  V30 6905 H 656.137 -2.4932 -2.68766 0
M  V30 6906 H 655.785 -1.30226 -4.8585 0
M  V30 6907 H 655.485 -3.05065 -5.02204 0
M  V30 6908 H 657.009 -2.34897 -5.63609 0
M  V30 6909 H 658.423 -4.01508 -4.09224 0
M  V30 6910 H 656.82 -4.71148 -3.71672 0
M  V30 6911 H 657.89 -4.21786 -2.39216 0
M  V30 6912 N 659.233 0.902656 -1.29189 0
M  V30 6913 C 660.165 2.01149 -1.09872 0
M  V30 6914 C 661.178 1.62732 -0.0471046 0
M  V30 6915 O 662.367 1.76107 -0.29132 0
M  V30 6916 C 659.467 3.32612 -0.649818 0
M  V30 6917 C 658.64 3.99574 -1.7793 0
M  V30 6918 C 657.699 5.09325 -1.32191 0
M  V30 6919 O 656.725 5.31919 -2.02611 0
M  V30 6920 N 657.927 5.80185 -0.191171 0
M  V30 6921 H 660.692 2.18276 -2.05368 0
M  V30 6922 H 658.253 1.07466 -1.2109 0
M  V30 6923 H 660.245 4.03375 -0.327199 0
M  V30 6924 H 658.815 3.11876 0.212597 0
M  V30 6925 H 658.035 3.22213 -2.27095 0
M  V30 6926 H 659.323 4.41056 -2.53668 0
M  V30 6927 H 658.721 5.64312 0.396016 0
M  V30 6928 H 657.278 6.5176 0.0721001 0
M  V30 6929 N 660.711 1.11618 1.11262 0
M  V30 6930 C 661.658 0.7762 2.17356 0
M  V30 6931 C 662.628 -0.253152 1.6416 0
M  V30 6932 O 663.813 -0.129655 1.90359 0
M  V30 6933 C 660.953 0.227581 3.44349 0
M  V30 6934 C 660.066 1.31372 4.1154 0
M  V30 6935 C 659.201 0.72544 5.26223 0
M  V30 6936 C 658.24 1.7913 5.85302 0
M  V30 6937 N 657.377 1.22237 6.91377 0
M  V30 6938 H 662.217 1.68508 2.45783 0
M  V30 6939 H 659.754 0.841475 1.20655 0
M  V30 6940 H 661.712 -0.108483 4.17059 0
M  V30 6941 H 660.342 -0.644486 3.16301 0
M  V30 6942 H 659.394 1.7667 3.36885 0
M  V30 6943 H 660.706 2.12005 4.51504 0
M  V30 6944 H 659.86 0.339541 6.05749 0
M  V30 6945 H 658.599 -0.112188 4.87571 0
M  V30 6946 H 657.604 2.18648 5.04453 0
M  V30 6947 H 658.829 2.63199 6.26022 0
M  V30 6948 H 656.775 0.406423 6.5474 0
M  V30 6949 H 656.692 1.9654 7.30006 0
M  V30 6950 H 657.96 0.863426 7.74703 0
M  V30 6951 N 662.189 -1.289 0.906776 0
M  V30 6952 C 663.419 -1.99112 0.551168 0
M  V30 6953 C 663.827 -1.67998 -0.870243 0
M  V30 6954 O 663.17 -0.92525 -1.58697 0
M  V30 6955 C 663.232 -3.53162 0.672065 0
M  V30 6956 C 662.896 -4.07849 2.06174 0
M  V30 6957 C 663.893 -4.22212 3.0337 0
M  V30 6958 C 661.578 -4.4271 2.37304 0
M  V30 6959 C 663.572 -4.70678 4.29815 0
M  V30 6960 C 661.259 -4.90871 3.6399 0
M  V30 6961 C 662.257 -5.04811 4.6006 0
M  V30 6962 O 661.945 -5.51925 5.84495 0
M  V30 6963 H 661.677 -0.642728 0.209469 0
M  V30 6964 H 664.231 -1.65234 1.22012 0
M  V30 6965 H 662.461 -3.86662 -0.05394 0
M  V30 6966 H 664.15 -4.046 0.324579 0
M  V30 6967 H 664.916 -3.9556 2.80637 0
M  V30 6968 H 660.795 -4.31114 1.63283 0
M  V30 6969 H 664.339 -4.81474 5.04806 0
M  V30 6970 H 660.236 -5.16961 3.86551 0
M  V30 6971 H 661.004 -5.70225 5.87185 0
M  V30 6972 N 663.667 -0.670007 -1.42649 0
M  V30 6973 C 664.916 -0.187526 -2.00826 0
M  V30 6974 C 665.229 1.21142 -1.53571 0
M  V30 6975 O 666.435 1.79001 -2.04134 0
M  V30 6976 C 664.891 -0.284409 -3.58774 0
M  V30 6977 C 664.499 -1.6871 -4.15019 0
M  V30 6978 C 666.243 0.139605 -4.2427 0
M  V30 6979 C 664.15 -1.73701 -5.65316 0
M  V30 6980 H 663.08 -0.0663468 -0.751075 0
M  V30 6981 H 665.731 -0.834492 -1.63427 0
M  V30 6982 H 664.113 0.430364 -3.93655 0
M  V30 6983 H 665.287 -2.42857 -3.91608 0
M  V30 6984 H 663.602 -2.05855 -3.61957 0
M  V30 6985 H 666.199 0.122398 -5.3456 0
M  V30 6986 H 666.542 1.17403 -3.99402 0
M  V30 6987 H 667.075 -0.523995 -3.94334 0
M  V30 6988 H 663.814 -2.75109 -5.94975 0
M  V30 6989 H 663.334 -1.03903 -5.90732 0
M  V30 6990 H 665.013 -1.48829 -6.2965 0
M  V30 6991 N 665.145 1.52092 -0.413018 0
M  V30 6992 C 666.093 2.28681 0.425199 0
M  V30 6993 C 667.087 1.3353 1.04241 0
M  V30 6994 O 668.293 1.50973 0.980166 0
M  V30 6995 H 664.668 0.735661 0.155906 0
M  V30 6996 H 666.639 2.97418 -0.241926 0
M  V30 6997 C 665.388 3.1235 1.5275 0
M  V30 6998 H 664.711 3.85439 1.06191 0
M  V30 6999 H 666.151 3.69038 2.08774 0
M  V30 7000 C 664.61 2.26161 2.49706 0
M  V30 7001 O 665.14 1.90452 3.53682 0
M  V30 7002 N 663.346 1.89854 2.20008 0
M  V30 7003 H 662.893 2.19092 1.35486 0
M  V30 7004 H 662.851 1.3248 2.85125 0
M  V30 7005 N 666.623 0.143563 1.56945 0
M  V30 7006 C 667.872 -0.50835 1.95189 0
M  V30 7007 C 668.185 -1.66239 1.03073 0
M  V30 7008 O 669.391 -2.3787 1.30882 0
M  V30 7009 C 667.847 -0.955735 3.46978 0
M  V30 7010 C 667.455 0.171183 4.47673 0
M  V30 7011 C 669.199 -1.57763 3.94095 0
M  V30 7012 C 667.106 -0.294279 5.90667 0
M  V30 7013 H 666.036 -0.193679 0.728701 0
M  V30 7014 H 668.687 0.227357 1.82086 0
M  V30 7015 H 667.069 -1.7466 3.55401 0
M  V30 7016 H 668.243 0.948049 4.50942 0
M  V30 7017 H 666.558 0.701273 4.10452 0
M  V30 7018 H 669.155 -1.93745 4.98364 0
M  V30 7019 H 669.498 -2.46531 3.35452 0
M  V30 7020 H 670.031 -0.851728 3.88575 0
M  V30 7021 H 666.77 0.557939 6.53121 0
M  V30 7022 H 666.29 -1.0371 5.90766 0
M  V30 7023 H 667.969 -0.747426 6.42668 0
M  V30 7024 N 668.101 -1.57061 -0.130224 0
M  V30 7025 C 669.349 -1.83893 -0.838313 0
M  V30 7026 C 669.67 -0.727046 -1.80939 0
M  V30 7027 O 668.94 0.249927 -1.94299 0
M  V30 7028 H 667.52 -0.67846 -0.312573 0
M  V30 7029 H 670.182 -1.94529 -0.120224 0
M  V30 7030 H 669.278 -2.79419 -1.39038 0
M  V30 7031 N 669.579 0.400081 -1.52437 0
M  V30 7032 C 670.819 1.15526 -1.68622 0
M  V30 7033 C 671.183 1.87533 -0.411744 0
M  V30 7034 O 672.384 2.6501 -0.449804 0
M  V30 7035 C 670.655 2.11618 -2.88015 0
M  V30 7036 S 672.214 2.95121 -3.24729 0
M  V30 7037 H 669.032 0.39123 -0.593683 0
M  V30 7038 H 671.634 0.441255 -1.90455 0
M  V30 7039 H 670.338 1.5742 -3.79008 0
M  V30 7040 H 669.869 2.87544 -2.68481 0
M  V30 7041 H 671.884 4.13653 -2.74055 0
M  V30 7042 N 671.057 1.43213 0.657864 0
M  V30 7043 C 672.334 1.35063 1.41483 0
M  V30 7044 C 672.714 -0.0038314 2.111 0
M  V30 7045 O 672.062 -1.02018 2.04462 0
M  V30 7046 C 672.272 2.53061 2.40335 0
M  V30 7047 C 673.62 2.9594 3.04474 0
M  V30 7048 O 674.644 2.53074 2.50663 0
M  V30 7049 O 673.503 3.70184 4.02027 0
M  V30 7050 H 670.597 0.533517 0.631893 0
M  V30 7051 H 673.143 1.55253 0.685162 0
M  V30 7052 H 671.915 3.43283 1.87809 0
M  V30 7053 H 671.538 2.34945 3.20759 0
M  V30 7054 N 672.536 -0.895792 1.29666 0
M  V30 7055 C 673.782 -1.64908 1.18039 0
M  V30 7056 C 674.115 -1.9236 -0.266682 0
M  V30 7057 O 673.39 -1.53682 -1.19214 0
M  V30 7058 C 673.673 -2.99574 1.99819 0
M  V30 7059 C 673.526 -2.79163 3.52687 0
M  V30 7060 C 674.845 -4.00358 1.82761 0
M  V30 7061 H 671.964 -0.598437 0.430165 0
M  V30 7062 H 674.606 -1.03736 1.59182 0
M  V30 7063 H 672.756 -3.51786 1.64859 0
M  V30 7064 H 674.428 -2.33821 3.9765 0
M  V30 7065 H 672.671 -2.13871 3.77414 0
M  V30 7066 H 673.342 -3.74871 4.05186 0
M  V30 7067 H 675.818 -3.57268 2.13304 0
M  V30 7068 H 674.694 -4.92514 2.42325 0
M  V30 7069 H 674.955 -4.35096 0.783839 0
M  V30 7070 N 674.014 -1.12206 -1.10668 0
M  V30 7071 C 674.946 -0.74552 -2.16736 0
M  V30 7072 C 675.959 0.226696 -1.61214 0
M  V30 7073 O 677.148 0.0083936 -1.78498 0
M  V30 7074 C 674.248 -0.0823368 -3.388 0
M  V30 7075 C 673.421 -1.08341 -4.2377 0
M  V30 7076 C 672.48 -0.448292 -5.24287 0
M  V30 7077 O 671.506 -1.10458 -5.58379 0
M  V30 7078 N 672.708 0.785336 -5.75163 0
M  V30 7079 H 675.473 -1.65818 -2.49649 0
M  V30 7080 H 673.034 -1.01335 -1.26265 0
M  V30 7081 H 675.026 0.354476 -4.03145 0
M  V30 7082 H 673.596 0.733041 -3.03884 0
M  V30 7083 H 672.816 -1.69792 -3.55759 0
M  V30 7084 H 674.104 -1.76042 -4.77375 0
M  V30 7085 H 673.502 1.33755 -5.4966 0
M  V30 7086 H 672.059 1.16501 -6.41304 0
M  V30 7087 N 675.492 1.28418 -0.913599 0
M  V30 7088 C 676.741 1.94265 -0.542572 0
M  V30 7089 C 677.054 1.72709 0.918207 0
M  V30 7090 O 678.26 2.32778 1.39738 0
M  V30 7091 C 676.716 3.47956 -0.919507 0
M  V30 7092 C 676.324 3.78291 -2.4 0
M  V30 7093 C 678.068 4.19962 -0.619057 0
M  V30 7094 C 675.975 5.2529 -2.71707 0
M  V30 7095 H 674.905 0.727213 -0.199192 0
M  V30 7096 H 677.556 1.45931 -1.11249 0
M  V30 7097 H 675.938 3.9502 -0.278372 0
M  V30 7098 H 677.112 3.42035 -3.08786 0
M  V30 7099 H 675.427 3.19456 -2.67089 0
M  V30 7100 H 678.024 5.28178 -0.832623 0
M  V30 7101 H 678.367 4.13935 0.443126 0
M  V30 7102 H 678.9 3.78674 -1.21865 0
M  V30 7103 H 675.639 5.36394 -3.76778 0
M  V30 7104 H 675.159 5.62743 -2.07559 0
M  V30 7105 H 676.838 5.93027 -2.58703 0
M  V30 7106 N 676.97 0.677563 1.42291 0
M  V30 7107 C 678.198 0.209459 2.05837 0
M  V30 7108 C 678.613 -1.13444 1.50917 0
M  V30 7109 O 677.97 -1.70529 0.65008 0
M  V30 7110 C 678.021 0.138819 3.61233 0
M  V30 7111 O 677.742 1.42962 4.14118 0
M  V30 7112 C 679.243 -0.352449 4.41897 0
M  V30 7113 H 676.463 0.101209 0.663323 0
M  V30 7114 H 679.007 0.925077 1.8238 0
M  V30 7115 H 677.162 -0.527505 3.83792 0
M  V30 7116 H 677.576 1.3048 5.08011 0
M  V30 7117 H 679.05 -0.350778 5.50884 0
M  V30 7118 H 679.527 -1.3882 4.16684 0
M  V30 7119 H 680.133 0.282236 4.24362 0
M  V30 7120 N 678.448 -1.51871 0.421078 0
M  V30 7121 C 679.358 -2.31077 -0.405069 0
M  V30 7122 C 680.374 -1.39301 -1.04265 0
M  V30 7123 O 681.55 -1.72376 -1.04157 0
M  V30 7124 C 678.615 -3.12556 -1.50032 0
M  V30 7125 C 677.676 -4.20088 -0.884559 0
M  V30 7126 C 676.909 -4.97673 -1.92762 0
M  V30 7127 O 677.132 -4.75696 -3.14753 0
M  V30 7128 O 676.066 -5.82203 -1.52719 0
M  V30 7129 H 679.892 -3.02742 0.241086 0
M  V30 7130 H 677.477 -1.48263 0.183991 0
M  V30 7131 H 679.359 -3.6326 -2.13589 0
M  V30 7132 H 678.034 -2.43672 -2.13086 0
M  V30 7133 H 676.941 -3.73502 -0.211379 0
M  V30 7134 H 678.274 -4.91298 -0.297763 0
M  V30 7135 N 679.926 -0.151884 -1.56866 0
M  V30 7136 C 680.856 0.781943 -2.20018 0
M  V30 7137 C 681.837 1.25347 -1.14987 0
M  V30 7138 O 683.022 1.31015 -1.43348 0
M  V30 7139 C 680.152 2.01928 -2.82564 0
M  V30 7140 C 679.106 1.68434 -3.93464 0
M  V30 7141 C 678.432 2.99472 -4.42968 0
M  V30 7142 C 679.732 0.927244 -5.14003 0
M  V30 7143 H 681.426 0.255607 -2.98307 0
M  V30 7144 H 678.972 0.121502 -1.43486 0
M  V30 7145 H 680.925 2.67741 -3.25411 0
M  V30 7146 H 679.649 2.56943 -2.01614 0
M  V30 7147 H 678.308 1.04998 -3.51242 0
M  V30 7148 H 677.956 3.52488 -3.58834 0
M  V30 7149 H 677.656 2.77823 -5.17772 0
M  V30 7150 H 679.18 3.66348 -4.88489 0
M  V30 7151 H 680.594 1.48756 -5.53665 0
M  V30 7152 H 678.991 0.810513 -5.94601 0
M  V30 7153 H 680.061 -0.0801163 -4.84834 0
M  V30 7154 N 681.404 1.57128 0.121893 0
M  V30 7155 C 682.681 1.75664 0.860327 0
M  V30 7156 C 683.061 0.726585 1.98202 0
M  V30 7157 O 682.409 -0.24999 2.27128 0
M  V30 7158 C 682.619 3.20571 1.37968 0
M  V30 7159 C 683.967 3.82988 1.83317 0
M  V30 7160 O 684.991 3.24156 1.47654 0
M  V30 7161 O 683.85 4.86393 2.49168 0
M  V30 7162 H 680.944 0.719153 0.408348 0
M  V30 7163 H 683.49 1.6937 0.105859 0
M  V30 7164 H 682.262 3.87056 0.57477 0
M  V30 7165 H 681.885 3.31392 2.19694 0
M  V30 7166 N 682.882 -0.391992 1.52647 0
M  V30 7167 C 684.131 -1.13449 1.6677 0
M  V30 7168 C 684.444 -1.91203 0.412399 0
M  V30 7169 O 685.65 -2.68013 0.433707 0
M  V30 7170 C 684.106 -2.06577 2.9471 0
M  V30 7171 C 683.714 -1.3426 4.27409 0
M  V30 7172 C 685.458 -2.80981 3.18198 0
M  V30 7173 C 683.365 -2.26136 5.46458 0
M  V30 7174 H 682.295 -0.427211 0.621295 0
M  V30 7175 H 684.946 -0.397522 1.79142 0
M  V30 7176 H 683.328 -2.83898 2.76076 0
M  V30 7177 H 684.502 -0.621856 4.56585 0
M  V30 7178 H 682.817 -0.718279 4.10158 0
M  V30 7179 H 685.414 -3.49898 4.04321 0
M  V30 7180 H 685.757 -3.44891 2.33144 0
M  V30 7181 H 686.29 -2.10754 3.37383 0
M  V30 7182 H 683.029 -1.66846 6.33911 0
M  V30 7183 H 682.549 -2.96134 5.21598 0
M  V30 7184 H 684.228 -2.86286 5.80215 0
M  V30 7185 N 684.36 -1.4356 -0.65026 0
M  V30 7186 C 685.585 -1.48995 -1.44275 0
M  V30 7187 C 686.01 -0.109954 -1.87778 0
M  V30 7188 O 685.368 0.896926 -1.57559 0
M  V30 7189 C 685.416 -2.44341 -2.65198 0
M  V30 7190 O 684.52 -1.93172 -3.6436 0
M  V30 7191 H 683.861 -0.503852 -0.432469 0
M  V30 7192 H 686.391 -1.88504 -0.795446 0
M  V30 7193 H 686.401 -2.61743 -3.12977 0
M  V30 7194 H 685.076 -3.44588 -2.32877 0
M  V30 7195 H 683.653 -1.85445 -3.23519 0
M  V30 7196 N 685.838 0.888903 -1.30139 0
M  V30 7197 C 687.066 1.67358 -1.21651 0
M  V30 7198 C 687.481 1.87499 0.221246 0
M  V30 7199 O 686.838 1.41969 1.14677 0
M  V30 7200 C 686.889 3.05213 -1.93719 0
M  V30 7201 O 686.61 2.85984 -3.31881 0
M  V30 7202 C 688.111 3.9964 -1.9184 0
M  V30 7203 H 685.331 0.522365 -0.42116 0
M  V30 7204 H 687.875 1.11086 -1.71698 0
M  V30 7205 H 686.03 3.5823 -1.4748 0
M  V30 7206 H 686.444 3.73411 -3.68327 0
M  V30 7207 H 687.918 4.93749 -2.46811 0
M  V30 7208 H 688.395 4.29955 -0.896409 0
M  V30 7209 H 689.001 3.52558 -2.37872 0
M  V30 7210 N 687.317 1.12792 1.10072 0
M  V30 7211 C 688.227 0.812369 2.20086 0
M  V30 7212 C 689.243 -0.200349 1.72843 0
M  V30 7213 O 690.419 -0.0330262 2.01373 0
M  V30 7214 C 687.484 0.275685 3.45602 0
M  V30 7215 C 686.545 1.34881 4.07561 0
M  V30 7216 C 685.778 0.837639 5.27086 0
M  V30 7217 O 686.001 -0.327224 5.69461 0
M  V30 7218 O 684.935 1.60894 5.79997 0
M  V30 7219 H 688.761 1.73133 2.49517 0
M  V30 7220 H 686.346 0.904863 1.18881 0
M  V30 7221 H 688.228 -0.0185375 4.21396 0
M  V30 7222 H 686.903 -0.615783 3.17789 0
M  V30 7223 H 685.81 1.69625 3.33434 0
M  V30 7224 H 687.143 2.21418 4.39585 0
M  V30 7225 N 688.795 -1.27931 0.920396 0
M  V30 7226 C 689.743 -2.29061 0.404191 0
M  V30 7227 C 690.737 -1.61615 -0.507634 0
M  V30 7228 O 691.943 -1.75765 -0.388144 0
M  V30 7229 H 688.318 -0.743594 0.112123 0
M  V30 7230 H 690.289 -2.70021 1.27008 0
M  V30 7231 C 689.038 -3.46088 -0.334466 0
M  V30 7232 H 688.361 -3.98194 0.35797 0
M  V30 7233 H 689.801 -4.18829 -0.660196 0
M  V30 7234 C 688.26 -2.99396 -1.54479 0
M  V30 7235 O 688.79 -3.02439 -2.64374 0
M  V30 7236 N 686.996 -2.54978 -1.39408 0
M  V30 7237 H 686.543 -2.52701 -0.500009 0
M  V30 7238 H 686.501 -2.24098 -2.20516 0
M  V30 7239 N 690.273 -0.685099 -1.4193 0
M  V30 7240 C 691.521 -0.21124 -2.00993 0
M  V30 7241 C 691.842 1.18985 -1.54491 0
M  V30 7242 O 691.112 1.8009 -0.771 0
M  V30 7243 H 689.692 -0.0751059 -0.743215 0
M  V30 7244 H 692.354 -0.883915 -1.73704 0
M  V30 7245 H 691.45 -0.220513 -3.1132 0
M  V30 7246 N 691.751 1.51645 -0.429126 0
M  V30 7247 C 692.698 2.27542 0.386446 0
M  V30 7248 C 693.668 1.30786 1.02393 0
M  V30 7249 O 694.853 1.59678 1.0444 0
M  V30 7250 C 691.993 3.11457 1.48623 0
M  V30 7251 C 691.106 4.23196 0.867691 0
M  V30 7252 C 690.241 4.94435 1.94183 0
M  V30 7253 C 689.28 5.98108 1.30129 0
M  V30 7254 N 688.417 6.62786 2.31644 0
M  V30 7255 H 693.257 2.968 -0.267155 0
M  V30 7256 H 690.794 1.46397 -0.143591 0
M  V30 7257 H 692.752 3.58429 2.13506 0
M  V30 7258 H 691.382 2.44329 2.10957 0
M  V30 7259 H 690.434 3.80248 0.107373 0
M  V30 7260 H 691.746 4.97499 0.35997 0
M  V30 7261 H 690.9 5.44914 2.66747 0
M  V30 7262 H 689.639 4.19744 2.48326 0
M  V30 7263 H 688.644 5.4693 0.561082 0
M  V30 7264 H 689.869 6.74751 0.767303 0
M  V30 7265 H 687.815 5.90913 2.84883 0
M  V30 7266 H 687.732 7.32828 1.85741 0
M  V30 7267 H 689 7.17897 3.03717 0
M  V30 7268 N 693.229 0.160201 1.56784 0
M  V30 7269 C 694.476 -0.487588 1.96542 0
M  V30 7270 C 694.804 -1.63999 1.04569 0
M  V30 7271 O 694.059 -1.95546 0.0775211 0
M  V30 7272 C 694.358 -1.02259 3.42459 0
M  V30 7273 C 694.024 0.0127436 4.50898 0
M  V30 7274 C 692.686 0.297318 4.80281 0
M  V30 7275 C 695.038 0.716078 5.16257 0
M  V30 7276 C 692.366 1.29081 5.72324 0
M  V30 7277 C 694.718 1.69847 6.09372 0
M  V30 7278 C 693.382 1.99061 6.37127 0
M  V30 7279 H 692.652 -0.178421 0.719199 0
M  V30 7280 H 695.299 0.249818 1.89864 0
M  V30 7281 H 693.604 -1.8376 3.46034 0
M  V30 7282 H 695.301 -1.53261 3.70556 0
M  V30 7283 H 691.891 -0.219235 4.28039 0
M  V30 7284 H 696.075 0.509428 4.93679 0
M  V30 7285 H 691.331 1.52344 5.92116 0
M  V30 7286 H 695.505 2.2489 6.59088 0
M  V30 7287 H 693.132 2.76194 7.08252 0
M  V30 7288 N 694.707 -1.5719 -0.113559 0
M  V30 7289 C 695.932 -1.89702 -0.838336 0
M  V30 7290 C 696.357 -0.752679 -1.72384 0
M  V30 7291 O 695.715 0.296575 -1.78858 0
M  V30 7292 C 695.763 -3.20989 -1.64312 0
M  V30 7293 O 694.867 -3.07278 -2.75053 0
M  V30 7294 H 694.208 -0.622339 -0.231496 0
M  V30 7295 H 696.738 -2.04382 -0.0943228 0
M  V30 7296 H 696.748 -3.53843 -2.03123 0
M  V30 7297 H 695.423 -4.03869 -0.993119 0
M  V30 7298 H 694 -2.85901 -2.39406 0
M  V30 7299 N 696.185 0.383891 -1.52853 0
M  V30 7300 C 697.115 1.47559 -1.80965 0
M  V30 7301 C 698.096 1.5669 -0.661986 0
M  V30 7302 O 699.281 1.71556 -0.910072 0
M  V30 7303 C 696.411 2.85114 -1.98312 0
M  V30 7304 C 695.365 2.9082 -3.14019 0
M  V30 7305 C 694.691 4.30873 -3.16627 0
M  V30 7306 C 695.991 2.60001 -4.52986 0
M  V30 7307 H 697.685 1.24283 -2.72386 0
M  V30 7308 H 695.231 0.596445 -1.31067 0
M  V30 7309 H 697.184 3.61496 -2.16561 0
M  V30 7310 H 695.908 3.09738 -1.03585 0
M  V30 7311 H 694.567 2.16886 -2.9556 0
M  V30 7312 H 694.215 4.52545 -2.19573 0
M  V30 7313 H 693.915 4.3561 -3.94357 0
M  V30 7314 H 695.439 5.09154 -3.37038 0
M  V30 7315 H 696.853 3.261 -4.71521 0
M  V30 7316 H 695.25 2.76081 -5.32822 0
M  V30 7317 H 696.32 1.5532 -4.59351 0
M  V30 7318 N 697.663 1.43903 0.642637 0
M  V30 7319 C 698.595 1.45857 1.768 0
M  V30 7320 C 699.608 0.353358 1.58919 0
M  V30 7321 O 700.797 0.618426 1.67445 0
M  V30 7322 C 697.897 1.26583 3.14372 0
M  V30 7323 C 697.07 2.50139 3.58817 0
M  V30 7324 C 696.129 2.25933 4.75227 0
M  V30 7325 O 695.155 2.99351 4.84125 0
M  V30 7326 N 696.357 1.28263 5.66153 0
M  V30 7327 H 699.122 2.42869 1.75598 0
M  V30 7328 H 696.683 1.39194 0.826832 0
M  V30 7329 H 698.675 1.08255 3.89953 0
M  V30 7330 H 697.245 0.37978 3.10284 0
M  V30 7331 H 696.465 2.83821 2.73568 0
M  V30 7332 H 697.753 3.32344 3.8526 0
M  V30 7333 H 697.151 0.676041 5.61646 0
M  V30 7334 H 695.708 1.15916 6.4141 0
M  V30 7335 N 699.141 -0.881989 1.30609 0
M  V30 7336 C 700.073 -1.99375 1.13058 0
M  V30 7337 C 701.086 -1.62636 0.0729879 0
M  V30 7338 O 702.275 -1.75621 0.319301 0
M  V30 7339 C 699.375 -3.31536 0.702651 0
M  V30 7340 C 698.548 -3.96693 1.84265 0
M  V30 7341 C 697.607 -5.07158 1.40277 0
M  V30 7342 O 696.633 -5.28628 2.11048 0
M  V30 7343 N 697.835 -5.79808 0.283449 0
M  V30 7344 H 700.6 -2.14981 2.08814 0
M  V30 7345 H 698.161 -1.05526 1.22784 0
M  V30 7346 H 700.153 -4.02804 0.391331 0
M  V30 7347 H 698.723 -3.12175 -0.162954 0
M  V30 7348 H 697.943 -3.1856 2.32192 0
M  V30 7349 H 699.231 -4.36964 2.60653 0
M  V30 7350 H 698.629 -5.64871 -0.306189 0
M  V30 7351 H 697.186 -6.51792 0.0315985 0
M  V30 7352 N 700.619 -1.13374 -1.09472 0
M  V30 7353 C 701.551 -0.768466 -2.15933 0
M  V30 7354 C 702.564 0.209585 -1.61445 0
M  V30 7355 O 703.753 -0.010539 -1.78497 0
M  V30 7356 C 700.853 -0.118266 -3.38694 0
M  V30 7357 C 700.026 -1.12829 -4.22597 0
M  V30 7358 C 699.085 -0.503875 -5.23782 0
M  V30 7359 O 698.111 -1.16374 -5.57177 0
M  V30 7360 N 699.313 0.724288 -5.75964 0
M  V30 7361 H 702.078 -1.68457 -2.47876 0
M  V30 7362 H 699.639 -1.02668 -1.25183 0
M  V30 7363 H 701.631 0.311698 -4.03498 0
M  V30 7364 H 700.201 0.700769 -3.04644 0
M  V30 7365 H 699.421 -1.73556 -3.53938 0
M  V30 7366 H 700.709 -1.81095 -4.75481 0
M  V30 7367 H 700.107 1.27918 -5.51048 0
M  V30 7368 H 698.664 1.09692 -6.42504 0
M  V30 7369 N 702.098 1.27442 -0.927168 0
M  V30 7370 C 703.061 2.2512 -0.430525 0
M  V30 7371 C 704.061 1.54357 0.450619 0
M  V30 7372 O 705.251 1.72371 0.251774 0
M  V30 7373 C 702.383 3.38763 0.381144 0
M  V30 7374 H 703.576 2.70569 -1.29354 0
M  V30 7375 H 701.129 1.39355 -0.707806 0
M  V30 7376 H 701.864 2.98695 1.263 0
M  V30 7377 H 701.649 3.91298 -0.250618 0
M  V30 7378 H 703.139 4.11364 0.719012 0
M  V30 7379 N 703.576 0.692616 1.41565 0
M  V30 7380 C 704.853 0.150496 1.9502 0
M  V30 7381 C 705.233 -1.33881 1.63215 0
M  V30 7382 O 704.581 -2.08378 0.937598 0
M  V30 7383 C 704.791 0.438636 3.46233 0
M  V30 7384 C 706.139 0.364777 4.2303 0
M  V30 7385 O 707.163 0.373383 3.54238 0
M  V30 7386 O 706.022 0.32234 5.45549 0
M  V30 7387 H 703.116 0.0132454 0.826894 0
M  V30 7388 H 705.662 0.768574 1.51298 0
M  V30 7389 H 704.434 1.46962 3.62654 0
M  V30 7390 H 704.057 -0.210562 3.97042 0
M  V30 7391 N 705.054 -1.51416 0.437162 0
M  V30 7392 C 706.001 -2.27743 -0.374374 0
M  V30 7393 C 706.971 -1.31327 -1.01698 0
M  V30 7394 O 708.156 -1.60229 -1.03592 0
M  V30 7395 C 705.296 -3.12241 -1.46969 0
M  V30 7396 C 704.409 -4.23651 -0.845236 0
M  V30 7397 C 703.544 -4.95458 -1.91559 0
M  V30 7398 C 702.583 -5.98789 -1.26956 0
M  V30 7399 N 701.72 -6.64005 -2.28126 0
M  V30 7400 H 706.56 -2.96654 0.282892 0
M  V30 7401 H 704.097 -1.46319 0.151352 0
M  V30 7402 H 706.055 -3.59556 -2.11602 0
M  V30 7403 H 704.685 -2.45445 -2.09659 0
M  V30 7404 H 703.737 -3.803 -0.0872059 0
M  V30 7405 H 705.049 -4.97683 -0.333582 0
M  V30 7406 H 704.203 -5.46321 -2.63854 0
M  V30 7407 H 702.942 -4.21055 -2.46097 0
M  V30 7408 H 701.947 -5.47219 -0.53207 0
M  V30 7409 H 703.172 -6.75149 -0.731509 0
M  V30 7410 H 701.118 -5.92415 -2.81745 0
M  V30 7411 H 701.035 -7.33802 -1.81852 0
M  V30 7412 H 702.303 -7.19498 -2.99905 0
M  V30 7413 N 706.532 -0.168513 -1.56696 0
M  V30 7414 C 707.762 0.482802 -2.0088 0
M  V30 7415 C 708.17 1.57537 -1.0478 0
M  V30 7416 O 707.513 1.83656 -0.0402746 0
M  V30 7417 C 707.575 1.1236 -3.4149 0
M  V30 7418 C 707.239 0.173027 -4.56672 0
M  V30 7419 C 708.236 -0.607565 -5.16338 0
M  V30 7420 C 705.921 0.0696691 -5.02252 0
M  V30 7421 C 707.915 -1.47874 -6.2001 0
M  V30 7422 C 705.602 -0.805096 -6.05773 0
M  V30 7423 C 706.6 -1.57789 -6.64524 0
M  V30 7424 O 706.288 -2.43804 -7.66038 0
M  V30 7425 H 706.02 0.128246 -0.663723 0
M  V30 7426 H 708.574 -0.266532 -2.03663 0
M  V30 7427 H 706.804 1.921 -3.35611 0
M  V30 7428 H 708.493 1.67683 -3.69645 0
M  V30 7429 H 709.259 -0.53787 -4.82008 0
M  V30 7430 H 705.138 0.660957 -4.56237 0
M  V30 7431 H 708.682 -2.0824 -6.65794 0
M  V30 7432 H 704.579 -0.876005 -6.39528 0
M  V30 7433 H 705.347 -2.37289 -7.83349 0
M  V30 7434 N 708.01 1.57248 0.105221 0
M  V30 7435 C 708.957 2.01338 1.12835 0
M  V30 7436 C 709.927 0.887897 1.40377 0
M  V30 7437 O 711.112 1.15315 1.5201 0
M  V30 7438 C 708.252 2.43432 2.44611 0
M  V30 7439 C 707.365 3.69457 2.23888 0
M  V30 7440 C 706.5 4.00473 3.48991 0
M  V30 7441 C 705.539 5.19638 3.23485 0
M  V30 7442 N 704.676 5.46457 4.40828 0
M  V30 7443 H 709.516 2.88527 0.745386 0
M  V30 7444 H 707.053 1.42714 0.356535 0
M  V30 7445 H 709.011 2.65879 3.21503 0
M  V30 7446 H 707.641 1.59266 2.80774 0
M  V30 7447 H 706.693 3.54545 1.37847 0
M  V30 7448 H 708.005 4.56497 2.01026 0
M  V30 7449 H 707.159 4.23642 4.34295 0
M  V30 7450 H 705.898 3.11935 3.74897 0
M  V30 7451 H 704.903 4.96299 2.36574 0
M  V30 7452 H 706.128 6.09766 2.98935 0
M  V30 7453 H 704.074 4.60876 4.66829 0
M  V30 7454 H 703.991 6.27849 4.2112 0
M  V30 7455 H 705.259 5.74155 5.27225 0
M  V30 7456 N 709.488 -0.375779 1.53054 0
M  V30 7457 C 710.451 -1.44254 1.7811 0
M  V30 7458 C 711.451 -1.47018 0.651328 0
M  V30 7459 O 712.641 -1.47957 0.919472 0
M  V30 7460 C 709.773 -2.8345 1.89391 0
M  V30 7461 H 710.966 -1.23316 2.73374 0
M  V30 7462 H 708.519 -0.608312 1.43977 0
M  V30 7463 H 709.254 -3.09716 0.961589 0
M  V30 7464 H 709.039 -2.82844 2.71555 0
M  V30 7465 H 710.529 -3.60722 2.10404 0
M  V30 7466 N 710.966 -1.44241 -0.634997 0
M  V30 7467 C 712.212 -1.47038 -1.39669 0
M  V30 7468 C 712.545 -0.101122 -1.93937 0
M  V30 7469 O 711.82 0.880699 -1.73418 0
M  V30 7470 C 712.103 -2.52763 -2.56482 0
M  V30 7471 C 711.956 -3.99032 -2.07589 0
M  V30 7472 C 713.275 -2.55031 -3.58674 0
M  V30 7473 H 710.394 -0.53537 -0.506506 0
M  V30 7474 H 713.036 -1.75898 -0.718317 0
M  V30 7475 H 711.186 -2.28284 -3.14354 0
M  V30 7476 H 712.858 -4.3463 -1.54577 0
M  V30 7477 H 711.101 -4.10994 -1.38804 0
M  V30 7478 H 711.772 -4.68649 -2.91671 0
M  V30 7479 H 714.248 -2.76893 -3.10595 0
M  V30 7480 H 713.124 -3.30916 -4.37934 0
M  V30 7481 H 713.385 -1.59085 -4.12486 0
M  V30 7482 N 712.444 0.87505 -1.31075 0
M  V30 7483 C 713.691 1.62768 -1.20469 0
M  V30 7484 C 714.019 1.93034 0.23834 0
M  V30 7485 O 713.274 1.55693 1.18567 0
M  V30 7486 C 713.573 2.96948 -1.98888 0
M  V30 7487 C 713.239 2.86195 -3.4843 0
M  V30 7488 C 711.901 2.82969 -3.89207 0
M  V30 7489 C 714.253 2.73599 -4.43614 0
M  V30 7490 C 711.581 2.64999 -5.23443 0
M  V30 7491 C 713.933 2.57166 -5.77969 0
M  V30 7492 C 712.597 2.52321 -6.17973 0
M  V30 7493 H 711.867 0.595611 -0.440827 0
M  V30 7494 H 714.514 1.01665 -1.62285 0
M  V30 7495 H 712.819 3.62058 -1.49737 0
M  V30 7496 H 714.516 3.54164 -1.88067 0
M  V30 7497 H 711.106 2.8952 -3.16032 0
M  V30 7498 H 715.29 2.7515 -4.13045 0
M  V30 7499 H 710.546 2.5967 -5.53517 0
M  V30 7500 H 714.72 2.46396 -6.51354 0
M  V30 7501 H 712.347 2.38156 -7.21932 0
M  V30 7502 N 713.922 1.13953 1.08869 0
M  V30 7503 C 714.854 0.779906 2.15523 0
M  V30 7504 C 715.867 -0.20102 1.61554 0
M  V30 7505 O 717.056 0.0200049 1.78489 0
M  V30 7506 C 714.156 0.136226 3.38626 0
M  V30 7507 C 713.329 1.15069 4.21993 0
M  V30 7508 C 712.388 0.531645 5.23507 0
M  V30 7509 O 711.414 1.19327 5.56552 0
M  V30 7510 N 712.616 -0.693734 5.7634 0
M  V30 7511 H 715.381 1.69769 2.46979 0
M  V30 7512 H 712.942 1.03331 1.24637 0
M  V30 7513 H 714.934 -0.290295 4.03658 0
M  V30 7514 H 713.504 -0.684603 3.05011 0
M  V30 7515 H 712.724 1.75431 3.53012 0
M  V30 7516 H 714.012 1.83614 4.74514 0
M  V30 7517 H 713.41 -1.24994 5.51718 0
M  V30 7518 H 711.967 -1.06283 6.43076 0
M  V30 7519 N 715.4 -1.26948 0.933913 0
M  V30 7520 C 716.363 -2.24889 0.442457 0
M  V30 7521 C 717.363 -1.54594 -0.442426 0
M  V30 7522 O 718.553 -1.72502 -0.242629 0
M  V30 7523 C 715.685 -3.3896 -0.363173 0
M  V30 7524 H 716.878 -2.69879 1.30787 0
M  V30 7525 H 714.431 -1.38978 0.715187 0
M  V30 7526 H 715.166 -2.99361 -1.24714 0
M  V30 7527 H 714.951 -3.9116 0.271366 0
M  V30 7528 H 716.441 -4.11739 -0.697186 0
M  V30 7529 N 716.879 -0.700114 -1.41195 0
M  V30 7530 C 717.842 -0.0465706 -2.29153 0
M  V30 7531 C 718.842 0.703302 -1.44604 0
M  V30 7532 O 720.032 0.537513 -1.657 0
M  V30 7533 C 717.164 0.944324 -3.2756 0
M  V30 7534 H 718.357 -0.821064 -2.88442 0
M  V30 7535 H 715.91 -0.463869 -1.49258 0
M  V30 7536 H 716.645 1.74642 -2.73259 0
M  V30 7537 H 716.43 0.409701 -3.89954 0
M  V30 7538 H 717.92 1.39925 -3.9346 0
M  V30 7539 N 718.357 1.51182 -0.445186 0
M  V30 7540 C 719.603 2.02452 0.11882 0
M  V30 7541 C 719.936 1.32824 1.41673 0
M  V30 7542 O 719.211 0.445637 1.89326 0
M  V30 7543 C 719.494 3.5859 0.329475 0
M  V30 7544 C 719.347 4.38823 -0.987638 0
M  V30 7545 C 720.666 4.26241 1.09575 0
M  V30 7546 H 717.785 0.735819 0.0417092 0
M  V30 7547 H 720.427 1.80747 -0.585718 0
M  V30 7548 H 718.577 3.77214 0.9296 0
M  V30 7549 H 720.249 4.3183 -1.62235 0
M  V30 7550 H 718.492 4.03594 -1.59041 0
M  V30 7551 H 719.163 5.46257 -0.794192 0
M  V30 7552 H 721.639 4.11934 0.587328 0
M  V30 7553 H 720.515 5.35354 1.21191 0
M  V30 7554 H 720.776 3.87635 2.12584 0
M  V30 7555 N 719.835 0.176821 1.56605 0
M  V30 7556 C 721.112 -0.513365 1.88743 0
M  V30 7557 C 721.492 -1.80929 1.08757 0
M  V30 7558 O 720.84 -2.27765 0.183127 0
M  V30 7559 C 721.05 -0.749925 3.40848 0
M  V30 7560 C 722.398 -1.07747 4.10701 0
M  V30 7561 O 723.422 -0.838277 3.46196 0
M  V30 7562 O 722.281 -1.52901 5.24675 0
M  V30 7563 H 719.375 -0.265296 0.783292 0
M  V30 7564 H 721.921 0.215669 1.68324 0
M  V30 7565 H 720.693 0.16599 3.90948 0
M  V30 7566 H 720.316 -1.53208 3.66897 0
M  V30 7567 N 721.313 -1.57302 -0.09688 0
M  V30 7568 C 722.562 -1.85183 -0.799388 0
M  V30 7569 C 722.875 -0.765818 -1.79985 0
M  V30 7570 O 724.081 -0.931696 -2.55013 0
M  V30 7571 C 722.537 -3.28399 -1.47249 0
M  V30 7572 C 722.145 -4.45066 -0.511888 0
M  V30 7573 C 723.889 -3.65506 -2.15883 0
M  V30 7574 C 721.796 -5.79315 -1.18948 0
M  V30 7575 H 720.726 -0.690752 -0.302287 0
M  V30 7576 H 723.377 -1.83425 -0.0523104 0
M  V30 7577 H 721.759 -3.24692 -2.26697 0
M  V30 7578 H 722.933 -4.60116 0.250962 0
M  V30 7579 H 721.248 -4.16343 0.0686576 0
M  V30 7580 H 723.845 -4.63087 -2.67309 0
M  V30 7581 H 724.188 -2.94041 -2.94696 0
M  V30 7582 H 724.721 -3.71094 -1.43298 0
M  V30 7583 H 721.46 -6.54007 -0.442198 0
M  V30 7584 H 720.98 -5.68111 -1.9238 0
M  V30 7585 H 722.659 -6.23816 -1.71646 0
M  V30 7586 N 722.791 0.367657 -1.53252 0
M  V30 7587 C 723.739 1.47061 -1.8021 0
M  V30 7588 C 724.733 1.55539 -0.671112 0
M  V30 7589 O 725.939 1.58451 -0.854014 0
M  V30 7590 H 722.314 0.489868 -0.570555 0
M  V30 7591 H 724.285 1.21527 -2.72532 0
M  V30 7592 C 723.034 2.83924 -2.00706 0
M  V30 7593 H 722.357 2.78158 -2.87172 0
M  V30 7594 H 723.797 3.60281 -2.23547 0
M  V30 7595 C 722.256 3.27613 -0.785568 0
M  V30 7596 O 722.786 4.01691 0.0267459 0
M  V30 7597 N 720.992 2.84134 -0.609597 0
M  V30 7598 H 720.539 2.24017 -1.27178 0
M  V30 7599 H 720.497 3.13723 0.206281 0
M  V30 7600 N 724.269 1.44576 0.627338 0
M  V30 7601 C 725.685 1.28546 0.945938 0
M  V30 7602 C 725.885 0.224003 2.00251 0
M  V30 7603 O 724.941 -0.388817 2.49488 0
M  V30 7604 C 726.254 2.65825 1.40561 0
M  V30 7605 C 727.802 2.73566 1.52088 0
M  V30 7606 C 728.277 4.11323 2.01438 0
M  V30 7607 N 729.768 4.13519 2.08702 0
M  V30 7608 C 730.503 5.16964 2.48065 0
M  V30 7609 N 729.999 6.30768 2.86538 0
M  V30 7610 N 731.792 5.04319 2.48232 0
M  V30 7611 H 723.943 2.1228 -0.0713567 0
M  V30 7612 H 726.206 0.947503 0.0307081 0
M  V30 7613 H 725.912 3.44591 0.703539 0
M  V30 7614 H 725.786 2.92969 2.37591 0
M  V30 7615 H 728.173 1.95116 2.21391 0
M  V30 7616 H 728.254 2.50159 0.534237 0
M  V30 7617 H 727.898 4.9025 1.32729 0
M  V30 7618 H 727.828 4.32109 3.0098 0
M  V30 7619 H 730.319 3.31385 1.81638 0
M  V30 7620 H 730.632 7.0551 3.15398 0
M  V30 7621 H 728.977 6.342 2.84281 0
M  V30 7622 H 732.168 4.14465 2.17569 0
M  V30 7623 H 732.341 5.85059 2.78585 0
M  V30 7624 N 725.747 -0.868086 1.31537 0
M  V30 7625 C 726.975 -1.65402 1.24298 0
M  V30 7626 C 727.39 -1.87827 -0.191389 0
M  V30 7627 O 726.747 -1.43776 -1.12404 0
M  V30 7628 C 726.798 -3.02093 1.9855 0
M  V30 7629 O 726.519 -2.80668 3.36388 0
M  V30 7630 C 728.02 -3.96538 1.98173 0
M  V30 7631 H 725.24 -0.515598 0.429417 0
M  V30 7632 H 727.784 -1.0834 1.73444 0
M  V30 7633 H 725.939 -3.55838 1.53161 0
M  V30 7634 H 726.353 -3.67504 3.74221 0
M  V30 7635 H 727.827 -4.8976 2.54635 0
M  V30 7636 H 728.304 -4.28474 0.964697 0
M  V30 7637 H 728.91 -3.48729 2.4345 0
M  V30 7638 N 727.225 -1.14528 -1.08264 0
M  V30 7639 C 728.45 -0.938381 -1.84957 0
M  V30 7640 C 728.875 0.508044 -1.81109 0
M  V30 7641 O 728.233 1.36146 -1.19724 0
M  V30 7642 C 728.281 -1.44568 -3.30352 0
M  V30 7643 O 727.385 -0.638745 -4.07423 0
M  V30 7644 H 726.726 -0.335394 -0.573068 0
M  V30 7645 H 729.256 -1.52287 -1.36637 0
M  V30 7646 H 729.266 -1.45449 -3.81194 0
M  V30 7647 H 727.941 -2.49876 -3.32468 0
M  V30 7648 H 726.518 -0.698801 -3.66294 0
M  V30 7649 N 728.703 1.26451 -0.940633 0
M  V30 7650 C 729.928 1.98407 -0.60412 0
M  V30 7651 C 730.353 1.69584 0.81382 0
M  V30 7652 O 729.711 0.943553 1.54812 0
M  V30 7653 C 729.759 3.50387 -0.852136 0
M  V30 7654 O 728.863 4.1233 0.076013 0
M  V30 7655 H 728.204 0.622466 -0.231153 0
M  V30 7656 H 730.734 1.60932 -1.26342 0
M  V30 7657 H 730.744 4.00614 -0.772816 0
M  V30 7658 H 729.419 3.70696 -1.88566 0
M  V30 7659 H 727.996 3.7286 -0.0543187 0
M  V30 7660 N 730.181 0.707592 1.40822 0
M  V30 7661 C 731.128 0.0499029 2.30746 0
M  V30 7662 C 732.098 -0.758718 1.47759 0
M  V30 7663 O 733.283 -0.724299 1.76518 0
M  V30 7664 C 730.423 -0.871756 3.33908 0
M  V30 7665 C 729.536 -0.0534655 4.31967 0
M  V30 7666 C 728.671 -0.973869 5.22197 0
M  V30 7667 C 727.71 -0.149194 6.11918 0
M  V30 7668 N 726.847 -1.02404 6.94592 0
M  V30 7669 H 731.687 0.822461 2.86426 0
M  V30 7670 H 729.224 0.417285 1.41057 0
M  V30 7671 H 731.182 -1.42028 3.9228 0
M  V30 7672 H 729.812 -1.61058 2.7975 0
M  V30 7673 H 728.864 0.612142 3.75442 0
M  V30 7674 H 730.176 0.585354 4.95353 0
M  V30 7675 H 729.33 -1.59121 5.85462 0
M  V30 7676 H 728.069 -1.64652 4.59065 0
M  V30 7677 H 727.074 0.481137 5.47691 0
M  V30 7678 H 728.299 0.519841 6.77107 0
M  V30 7679 H 726.245 -1.6825 6.34057 0
M  V30 7680 H 726.162 -0.441076 7.54712 0
M  V30 7681 H 727.43 -1.62782 7.62314 0
M  V30 7682 N 731.66 -1.50943 0.453197 0
M  V30 7683 C 732.908 -2.01813 -0.107709 0
M  V30 7684 C 733.229 -1.33841 -1.41816 0
M  V30 7685 O 732.499 -0.477973 -1.8998 0
M  V30 7686 H 731.079 -0.745773 -0.0427948 0
M  V30 7687 H 733.741 -1.8545 0.599531 0
M  V30 7688 H 732.837 -3.10911 -0.27218 0
M  V30 7689 N 733.138 -0.185124 -1.56509 0
M  V30 7690 C 734.085 0.739729 -2.18624 0
M  V30 7691 C 735.055 1.217 -1.13042 0
M  V30 7692 O 736.24 1.28268 -1.41251 0
M  V30 7693 C 733.38 1.95787 -2.84186 0
M  V30 7694 C 732.493 1.52289 -4.04267 0
M  V30 7695 C 731.628 2.69576 -4.57714 0
M  V30 7696 C 730.667 2.22636 -5.70175 0
M  V30 7697 N 729.804 3.33065 -6.18071 0
M  V30 7698 H 734.644 0.203269 -2.97306 0
M  V30 7699 H 732.181 0.0885946 -1.46833 0
M  V30 7700 H 734.139 2.67253 -3.20361 0
M  V30 7701 H 732.769 2.4678 -2.08085 0
M  V30 7702 H 731.821 0.704458 -3.7382 0
M  V30 7703 H 733.133 1.13843 -4.85635 0
M  V30 7704 H 732.287 3.4918 -4.96143 0
M  V30 7705 H 731.026 3.1129 -3.75433 0
M  V30 7706 H 730.031 1.41483 -5.31284 0
M  V30 7707 H 731.256 1.81964 -6.54267 0
M  V30 7708 H 729.202 3.74328 -5.38715 0
M  V30 7709 H 729.119 2.98756 -6.94464 0
M  V30 7710 H 730.387 4.12912 -6.61153 0
M  V30 7711 N 734.616 1.57351 0.0885366 0
M  V30 7712 C 735.862 1.86696 0.791996 0
M  V30 7713 C 736.195 0.775148 1.78059 0
M  V30 7714 O 735.47 -0.216247 1.93294 0
M  V30 7715 C 735.753 3.26684 1.51491 0
M  V30 7716 C 735.606 4.465 0.543858 0
M  V30 7717 C 736.925 3.64664 2.46391 0
M  V30 7718 H 734.044 0.679049 0.286463 0
M  V30 7719 H 736.686 1.89919 0.0554866 0
M  V30 7720 H 734.836 3.24067 2.14273 0
M  V30 7721 H 736.508 4.61235 -0.0774597 0
M  V30 7722 H 734.751 4.33567 -0.142228 0
M  V30 7723 H 735.422 5.41192 1.08696 0
M  V30 7724 H 737.898 3.68267 1.93698 0
M  V30 7725 H 736.774 4.63534 2.93986 0
M  V30 7726 H 737.035 2.93698 3.30445 0
M  V30 7727 N 736.094 -0.359525 1.53444 0
M  V30 7728 C 737.322 -1.12198 1.73837 0
M  V30 7729 C 737.737 -1.82854 0.470107 0
M  V30 7730 O 737.094 -1.73781 -0.557349 0
M  V30 7731 C 737.145 -2.14769 2.90786 0
M  V30 7732 O 736.866 -1.46989 4.12706 0
M  V30 7733 C 738.367 -3.03514 3.231 0
M  V30 7734 H 735.587 -0.33524 0.581253 0
M  V30 7735 H 738.131 -0.416598 2.00212 0
M  V30 7736 H 736.286 -2.80896 2.66788 0
M  V30 7737 H 736.7 -2.15378 4.78239 0
M  V30 7738 H 738.174 -3.71453 4.08322 0
M  V30 7739 H 738.651 -3.68658 2.38721 0
M  V30 7740 H 739.257 -2.42996 3.49046 0
M  V30 7741 N 737.572 -1.44907 -0.619662 0
M  V30 7742 C 738.535 -1.52282 -1.71297 0
M  V30 7743 C 739.535 -0.40359 -1.55653 0
M  V30 7744 O 740.725 -0.666638 -1.6094 0
M  V30 7745 C 737.857 -1.40778 -3.10474 0
M  V30 7746 H 739.05 -2.49683 -1.66128 0
M  V30 7747 H 736.603 -1.32168 -0.834339 0
M  V30 7748 H 737.338 -0.445156 -3.2123 0
M  V30 7749 H 737.123 -2.21947 -3.23237 0
M  V30 7750 H 738.613 -1.48946 -3.90135 0
M  V30 7751 N 739.05 0.861098 -1.31996 0
M  V30 7752 C 740.296 1.61721 -1.22369 0
M  V30 7753 C 740.629 1.93 0.215587 0
M  V30 7754 O 739.904 1.56789 1.15098 0
M  V30 7755 C 740.187 2.9417 -2.07691 0
M  V30 7756 C 740.04 2.69714 -3.59965 0
M  V30 7757 C 741.359 3.95372 -1.93312 0
M  V30 7758 H 738.478 0.586822 -0.44588 0
M  V30 7759 H 741.12 0.994788 -1.61876 0
M  V30 7760 H 739.27 3.47292 -1.74128 0
M  V30 7761 H 740.942 2.23196 -4.03709 0
M  V30 7762 H 739.185 2.03789 -3.82952 0
M  V30 7763 H 739.856 3.63996 -4.14983 0
M  V30 7764 H 742.332 3.51487 -2.22701 0
M  V30 7765 H 741.208 4.85916 -2.55298 0
M  V30 7766 H 741.469 4.32865 -0.898922 0
M  V30 7767 N 740.528 1.15101 1.07655 0
M  V30 7768 C 741.768 0.934462 1.81789 0
M  V30 7769 C 742.132 -0.529101 1.84566 0
M  V30 7770 O 743.333 -0.863868 2.5454 0
M  V30 7771 C 741.604 1.52817 3.23082 0
M  V30 7772 S 743.163 1.45429 4.14 0
M  V30 7773 H 739.981 0.336379 0.626395 0
M  V30 7774 H 742.583 1.46593 1.29347 0
M  V30 7775 H 741.287 2.58635 3.18647 0
M  V30 7776 H 740.818 0.995432 3.80598 0
M  V30 7777 H 742.833 0.445058 4.942 0
M  V30 7778 N 742.006 -1.2595 0.947325 0
M  V30 7779 C 743.252 -1.9375 0.599064 0
M  V30 7780 C 743.585 -1.74088 -0.860632 0
M  V30 7781 O 742.86 -1.08158 -1.61654 0
M  V30 7782 C 743.143 -3.47353 0.949634 0
M  V30 7783 C 742.996 -3.76273 2.46452 0
M  V30 7784 C 744.315 -4.37589 0.469442 0
M  V30 7785 H 741.434 -0.703674 0.219115 0
M  V30 7786 H 744.076 -1.48705 1.18266 0
M  V30 7787 H 742.226 -3.8585 0.453008 0
M  V30 7788 H 743.898 -3.47455 3.03435 0
M  V30 7789 H 742.141 -3.22135 2.90537 0
M  V30 7790 H 742.812 -4.83664 2.66032 0
M  V30 7791 H 745.288 -4.06353 0.89534 0
M  V30 7792 H 744.164 -5.43841 0.7435 0
M  V30 7793 H 744.425 -4.37579 -0.630618 0
M  V30 7794 N 743.484 -0.715051 -1.40445 0
M  V30 7795 C 744.73 -0.263528 -2.01686 0
M  V30 7796 C 745.085 1.13052 -1.55683 0
M  V30 7797 O 744.378 1.75588 -0.766762 0
M  V30 7798 C 744.572 -0.281791 -3.56287 0
M  V30 7799 C 744.401 -1.67607 -4.17298 0
M  V30 7800 C 743.171 -2.2836 -4.50755 0
M  V30 7801 C 745.369 -2.62621 -4.42193 0
M  V30 7802 N 743.351 -3.6015 -4.97157 0
M  V30 7803 C 744.722 -3.79116 -4.90582 0
M  V30 7804 C 746.777 -2.60639 -4.24231 0
M  V30 7805 C 745.48 -4.93937 -5.22895 0
M  V30 7806 C 747.506 -3.74587 -4.57644 0
M  V30 7807 C 746.868 -4.89815 -5.06222 0
M  V30 7808 H 742.967 -0.142252 -0.768953 0
M  V30 7809 H 745.551 -0.936732 -1.70685 0
M  V30 7810 H 743.722 0.360975 -3.86719 0
M  V30 7811 H 745.454 0.186393 -4.04271 0
M  V30 7812 H 742.209 -1.80463 -4.3787 0
M  V30 7813 H 742.633 -4.27757 -5.24741 0
M  V30 7814 H 747.275 -1.72759 -3.85894 0
M  V30 7815 H 744.993 -5.82462 -5.60146 0
M  V30 7816 H 748.579 -3.74328 -4.45387 0
M  V30 7817 H 747.459 -5.76525 -5.3159 0
M  V30 7818 N 744.962 1.50701 -0.461195 0
M  V30 7819 C 746.21 2.01867 0.0970051 0
M  V30 7820 C 746.531 1.34591 1.41104 0
M  V30 7821 O 745.801 0.488041 1.89723 0
M  V30 7822 H 744.381 0.74599 0.0388392 0
M  V30 7823 H 747.043 1.85129 -0.609357 0
M  V30 7824 H 746.139 3.11051 0.255688 0
M  V30 7825 N 746.441 0.193421 1.56409 0
M  V30 7826 C 747.852 -0.319471 1.83946 0
M  V30 7827 C 748.203 -1.61505 1.11403 0
M  V30 7828 O 747.328 -2.13139 0.374289 0
M  V30 7829 C 747.923 -0.586411 3.33686 0
M  V30 7830 C 746.482 -1.04368 3.61641 0
M  V30 7831 C 745.629 -0.0913834 2.77149 0
M  V30 7832 H 748.58 0.417242 1.53117 0
M  V30 7833 H 748.601 -1.43591 3.52366 0
M  V30 7834 H 748.113 0.356701 3.86457 0
M  V30 7835 H 746.214 -2.00113 3.14302 0
M  V30 7836 H 746.327 -0.937549 4.69837 0
M  V30 7837 H 744.691 -0.592954 2.47702 0
M  V30 7838 H 745.474 0.846142 3.32709 0
M  V30 7839 N 747.919 -1.57396 -0.0801906 0
M  V30 7840 C 748.867 -2.04136 -1.11495 0
M  V30 7841 C 749.861 -0.945137 -1.40583 0
M  V30 7842 O 751.067 -1.13028 -1.40088 0
M  V30 7843 H 747.442 -0.65076 -0.37685 0
M  V30 7844 H 749.413 -2.90205 -0.694526 0
M  V30 7845 C 748.162 -2.49399 -2.42272 0
M  V30 7846 H 747.485 -3.33339 -2.20737 0
M  V30 7847 H 748.925 -2.85864 -3.13142 0
M  V30 7848 C 747.384 -1.37341 -3.07635 0
M  V30 7849 O 747.914 -0.710829 -3.95361 0
M  V30 7850 N 746.12 -1.12064 -2.68123 0
M  V30 7851 H 745.667 -1.66126 -1.96875 0
M  V30 7852 H 745.625 -0.372916 -3.12181 0
M  V30 7853 N 749.397 0.351382 -1.53633 0
M  V30 7854 C 750.674 1.10903 -1.6112 0
M  V30 7855 C 751.054 2.06725 -0.427556 0
M  V30 7856 O 750.402 2.20992 0.580916 0
M  V30 7857 C 750.612 1.83561 -2.96827 0
M  V30 7858 C 751.96 2.37587 -3.51906 0
M  V30 7859 O 752.984 1.93669 -2.9895 0
M  V30 7860 O 751.843 3.17913 -4.44515 0
M  V30 7861 H 748.937 0.509558 -0.651368 0
M  V30 7862 H 751.483 0.353504 -1.65977 0
M  V30 7863 H 750.255 1.1371 -3.74414 0
M  V30 7864 H 749.878 2.6599 -2.95525 0
M  V30 7865 N 750.875 1.45233 0.611969 0
M  V30 7866 C 751.838 1.53189 1.70487 0
M  V30 7867 C 752.838 0.411839 1.55437 0
M  V30 7868 O 754.028 0.675164 1.60584 0
M  V30 7869 C 751.16 1.42422 3.09723 0
M  V30 7870 H 752.353 2.5056 1.64802 0
M  V30 7871 H 749.906 1.32609 0.827318 0
M  V30 7872 H 750.641 0.462185 3.2099 0
M  V30 7873 H 750.426 2.23658 3.22055 0
M  V30 7874 H 751.916 1.51012 3.89339 0
M  V30 7875 N 752.353 -0.854086 1.3245 0
M  V30 7876 C 753.301 -1.98411 1.21391 0
M  V30 7877 C 754.295 -1.68984 0.118586 0
M  V30 7878 O 755.501 -1.77784 0.281549 0
M  V30 7879 H 751.876 -0.651077 0.376301 0
M  V30 7880 H 753.847 -2.04867 2.16961 0
M  V30 7881 C 752.596 -3.34345 0.954407 0
M  V30 7882 H 751.919 -3.57518 1.78944 0
M  V30 7883 H 753.359 -4.13959 0.917269 0
M  V30 7884 C 751.818 -3.35151 -0.342838 0
M  V30 7885 O 752.348 -3.78174 -1.35452 0
M  V30 7886 N 750.554 -2.88298 -0.365012 0
M  V30 7887 H 750.101 -2.53481 0.4588 0
M  V30 7888 H 750.059 -2.8922 -1.23284 0
M  V30 7889 N 753.831 -1.1567 -1.07043 0
M  V30 7890 C 755.059 -0.957471 -1.83412 0
M  V30 7891 C 755.474 0.494271 -1.82215 0
M  V30 7892 O 754.831 1.34288 -1.23584 0
M  V30 7893 C 754.882 -1.46784 -3.30359 0
M  V30 7894 O 754.603 -2.86271 -3.31633 0
M  V30 7895 C 756.104 -1.31054 -4.23485 0
M  V30 7896 H 753.324 -0.33986 -0.578564 0
M  V30 7897 H 755.868 -1.53518 -1.35102 0
M  V30 7898 H 754.023 -0.932586 -3.76007 0
M  V30 7899 H 754.437 -3.0948 -4.23465 0
M  V30 7900 H 755.911 -1.71605 -5.24648 0
M  V30 7901 H 756.388 -0.255107 -4.38458 0
M  V30 7902 H 756.994 -1.83503 -3.83676 0
M  V30 7903 N 755.309 1.25446 -0.953992 0
M  V30 7904 C 756.555 1.93756 -0.618888 0
M  V30 7905 C 756.91 1.73344 0.83484 0
M  V30 7906 O 756.203 1.06753 1.59105 0
M  V30 7907 C 756.397 3.45555 -0.912496 0
M  V30 7908 C 756.226 3.8073 -2.39321 0
M  V30 7909 C 754.996 4.02819 -3.05065 0
M  V30 7910 C 757.194 3.88286 -3.37251 0
M  V30 7911 N 755.176 4.24981 -4.43017 0
M  V30 7912 C 756.547 4.1513 -4.60507 0
M  V30 7913 C 758.602 3.70965 -3.32099 0
M  V30 7914 C 757.305 4.26454 -5.79249 0
M  V30 7915 C 759.331 3.83528 -4.50178 0
M  V30 7916 C 758.693 4.10783 -5.72221 0
M  V30 7917 H 754.792 0.731271 -0.277069 0
M  V30 7918 H 757.376 1.5125 -1.22604 0
M  V30 7919 H 755.547 3.86959 -0.334284 0
M  V30 7920 H 757.279 4.01117 -0.537362 0
M  V30 7921 H 754.034 3.9868 -2.55639 0
M  V30 7922 H 754.458 4.4007 -5.14459 0
M  V30 7923 H 759.1 3.4891 -2.38791 0
M  V30 7924 H 756.818 4.47325 -6.72998 0
M  V30 7925 H 760.404 3.71513 -4.47738 0
M  V30 7926 H 759.284 4.20285 -6.62065 0
M  V30 7927 N 756.787 0.722489 1.40064 0
M  V30 7928 C 757.717 0.0892452 2.33329 0
M  V30 7929 C 758.698 -0.737992 1.53257 0
M  V30 7930 O 759.883 -0.685516 1.81698 0
M  V30 7931 C 757.013 -0.828139 3.37282 0
M  V30 7932 C 755.967 -0.106005 4.27869 0
M  V30 7933 C 755.293 -1.13957 5.22415 0
M  V30 7934 C 756.593 1.04395 5.11761 0
M  V30 7935 H 758.287 0.868269 2.86534 0
M  V30 7936 H 755.833 0.418982 1.3777 0
M  V30 7937 H 757.786 -1.28058 4.01471 0
M  V30 7938 H 756.51 -1.63914 2.82489 0
M  V30 7939 H 755.169 0.326683 3.65142 0
M  V30 7940 H 754.817 -1.9438 4.63924 0
M  V30 7941 H 754.517 -0.661233 5.83868 0
M  V30 7942 H 756.041 -1.59197 5.89482 0
M  V30 7943 H 757.455 0.670541 5.69365 0
M  V30 7944 H 755.852 1.4511 5.82291 0
M  V30 7945 H 756.922 1.87144 4.47331 0
M  V30 7946 N 758.265 -1.50454 0.469181 0
M  V30 7947 C 759.513 -2.01916 -0.0862982 0
M  V30 7948 C 759.834 -1.35337 -1.40388 0
M  V30 7949 O 759.104 -0.498096 -1.89462 0
M  V30 7950 H 757.684 -0.746185 -0.0348825 0
M  V30 7951 H 760.346 -1.84804 0.619167 0
M  V30 7952 H 759.442 -3.11182 -0.239189 0
M  V30 7953 N 759.743 -0.201713 -1.56304 0
M  V30 7954 C 760.968 0.443815 -2.02596 0
M  V30 7955 C 761.393 1.53945 -1.08086 0
M  V30 7956 O 760.751 1.81182 -0.0655056 0
M  V30 7957 C 760.799 0.971066 -3.47279 0
M  V30 7958 O 759.903 2.0836 -3.55893 0
M  V30 7959 H 759.244 0.10294 -0.655972 0
M  V30 7960 H 761.774 -0.314533 -2.02168 0
M  V30 7961 H 761.784 1.28598 -3.87204 0
M  V30 7962 H 760.459 0.169048 -4.15556 0
M  V30 7963 H 759.036 1.77683 -3.27846 0
M  V30 7964 N 761.222 1.57436 0.0718424 0
M  V30 7965 C 762.154 2.00412 1.1121 0
M  V30 7966 C 763.167 0.910074 1.34987 0
M  V30 7967 O 764.356 1.18796 1.33228 0
M  V30 7968 C 761.456 2.32786 2.46301 0
M  V30 7969 C 760.629 3.64036 2.4248 0
M  V30 7970 C 759.688 3.8408 3.59679 0
M  V30 7971 O 758.714 4.55667 3.4111 0
M  V30 7972 N 759.916 3.2643 4.80025 0
M  V30 7973 H 762.681 2.90264 0.746118 0
M  V30 7974 H 760.242 1.59791 0.260495 0
M  V30 7975 H 762.234 2.43368 3.23348 0
M  V30 7976 H 760.804 1.48824 2.74901 0
M  V30 7977 H 760.024 3.64208 1.50818 0
M  V30 7978 H 761.312 4.50217 2.37027 0
M  V30 7979 H 760.71 2.68325 4.98014 0
M  V30 7980 H 759.267 3.42461 5.54584 0
M  V30 7981 N 762.7 -0.34323 1.53817 0
M  V30 7982 C 763.648 -1.44176 1.82527 0
M  V30 7983 C 764.642 -1.54452 0.695772 0
M  V30 7984 O 765.848 -1.57072 0.879114 0
M  V30 7985 H 762.223 -0.480729 0.578277 0
M  V30 7986 H 764.194 -1.17176 2.74431 0
M  V30 7987 C 762.943 -2.80695 2.05197 0
M  V30 7988 H 762.266 -2.73554 2.91561 0
M  V30 7989 H 763.706 -3.56679 2.29251 0
M  V30 7990 C 762.165 -3.26322 0.837589 0
M  V30 7991 O 762.695 -4.01683 0.0371631 0
M  V30 7992 N 760.901 -2.83128 0.654724 0
M  V30 7993 H 760.448 -2.21965 1.30725 0
M  V30 7994 H 760.406 -3.14011 -0.156345 0
M  V30 7995 N 764.178 -1.45556 -0.604258 0
M  V30 7996 C 765.141 -1.54091 -1.69672 0
M  V30 7997 C 766.141 -0.420076 -1.55216 0
M  V30 7998 O 767.331 -0.683671 -1.60224 0
M  V30 7999 C 764.463 -1.44063 -3.08964 0
M  V30 8000 H 765.656 -2.51431 -1.6347 0
M  V30 8001 H 763.209 -1.33046 -0.820273 0
M  V30 8002 H 763.944 -0.479201 -3.2074 0
M  V30 8003 H 763.729 -2.25362 -3.20865 0
M  V30 8004 H 765.219 -1.53075 -3.88533 0
M  V30 8005 N 765.656 0.84705 -1.32902 0
M  V30 8006 C 767.067 1.41785 -1.21466 0
M  V30 8007 C 767.418 1.95464 0.169767 0
M  V30 8008 O 766.543 1.88157 1.06892 0
M  V30 8009 C 767.138 2.57734 -2.19906 0
M  V30 8010 C 765.697 3.10791 -2.12334 0
M  V30 8011 C 764.844 1.83562 -2.07847 0
M  V30 8012 H 767.795 0.653532 -1.44619 0
M  V30 8013 H 767.816 3.35123 -1.80202 0
M  V30 8014 H 767.328 2.18635 -3.20656 0
M  V30 8015 H 765.429 3.54455 -1.14858 0
M  V30 8016 H 765.542 3.71519 -3.02506 0
M  V30 8017 H 763.906 2.03475 -1.53199 0
M  V30 8018 H 764.689 1.4667 -3.10392 0
M  V30 8019 N 767.134 1.16236 1.06428 0
M  V30 8020 C 768.064 0.890807 2.1584 0
M  V30 8021 C 769.045 -0.162333 1.69324 0
M  V30 8022 O 770.23 -0.0147191 1.94194 0
M  V30 8023 C 767.36 0.389615 3.45108 0
M  V30 8024 C 766.314 1.38051 4.05125 0
M  V30 8025 C 765.64 0.737773 5.29586 0
M  V30 8026 C 766.94 2.74965 4.44062 0
M  V30 8027 H 768.634 1.80577 2.38814 0
M  V30 8028 H 766.18 0.869657 1.14774 0
M  V30 8029 H 768.133 0.187127 4.20984 0
M  V30 8030 H 766.857 -0.560851 3.21748 0
M  V30 8031 H 765.516 1.56952 3.31303 0
M  V30 8032 H 765.164 -0.219135 5.02522 0
M  V30 8033 H 764.864 1.39914 5.70699 0
M  V30 8034 H 766.388 0.545275 6.0816 0
M  V30 8035 H 767.802 2.59855 5.11027 0
M  V30 8036 H 766.199 3.37563 4.96156 0
M  V30 8037 H 767.269 3.30321 3.54987 0
M  V30 8038 N 768.612 -1.24939 0.960631 0
M  V30 8039 C 769.542 -2.28 0.503815 0
M  V30 8040 C 770.523 -1.63959 -0.452928 0
M  V30 8041 O 771.708 -1.91009 -0.350585 0
M  V30 8042 C 768.838 -3.46643 -0.213535 0
M  V30 8043 C 767.792 -4.22903 0.658535 0
M  V30 8044 C 767.118 -5.34363 -0.189902 0
M  V30 8045 C 768.418 -4.84949 1.93963 0
M  V30 8046 H 770.112 -2.66462 1.36521 0
M  V30 8047 H 767.658 -1.28093 0.657897 0
M  V30 8048 H 769.611 -4.1787 -0.544286 0
M  V30 8049 H 768.335 -3.07187 -1.10923 0
M  V30 8050 H 766.994 -3.53467 0.972455 0
M  V30 8051 H 766.642 -4.91147 -1.08553 0
M  V30 8052 H 766.342 -5.86302 0.390331 0
M  V30 8053 H 767.866 -6.0842 -0.515484 0
M  V30 8054 H 769.28 -5.48288 1.67491 0
M  V30 8055 H 767.677 -5.47091 2.46601 0
M  V30 8056 H 768.747 -4.06799 2.639 0
M  V30 8057 N 770.09 -0.729906 -1.39679 0
M  V30 8058 C 771.337 -0.275622 -2.00615 0
M  V30 8059 C 771.665 1.13559 -1.57907 0
M  V30 8060 O 770.92 1.78745 -0.796789 0
M  V30 8061 C 771.219 -0.319564 -3.55968 0
M  V30 8062 C 770.885 -1.68308 -4.1831 0
M  V30 8063 C 769.547 -2.05629 -4.35052 0
M  V30 8064 C 771.899 -2.57857 -4.52945 0
M  V30 8065 C 769.227 -3.32018 -4.83716 0
M  V30 8066 C 771.579 -3.83613 -5.03015 0
M  V30 8067 C 770.243 -4.21033 -5.17965 0
M  V30 8068 H 769.513 -0.100857 -0.734104 0
M  V30 8069 H 772.16 -0.93575 -1.67081 0
M  V30 8070 H 770.465 0.42414 -3.89497 0
M  V30 8071 H 772.162 0.0499905 -4.00969 0
M  V30 8072 H 768.752 -1.3829 -4.05677 0
M  V30 8073 H 772.936 -2.30295 -4.39634 0
M  V30 8074 H 768.192 -3.6096 -4.93475 0
M  V30 8075 H 772.366 -4.53162 -5.28788 0
M  V30 8076 H 769.993 -5.19034 -5.55435 0
M  V30 8077 N 771.568 1.50203 -0.477153 0
M  V30 8078 C 772.516 2.30278 0.327826 0
M  V30 8079 C 773.51 1.37831 0.984839 0
M  V30 8080 O 774.716 1.54994 0.915251 0
M  V30 8081 H 771.091 0.741612 0.124564 0
M  V30 8082 H 773.062 2.96124 -0.367853 0
M  V30 8083 C 771.811 3.18548 1.39365 0
M  V30 8084 H 771.134 3.89596 0.897475 0
M  V30 8085 H 772.574 3.77561 1.92934 0
M  V30 8086 C 771.033 2.36548 2.39889 0
M  V30 8087 O 771.563 2.05282 3.45286 0
M  V30 8088 N 769.769 1.99015 2.11758 0
M  V30 8089 H 769.316 2.24641 1.26071 0
M  V30 8090 H 769.274 1.44454 2.7925 0
M  V30 8091 N 773.046 0.209999 1.56195 0
M  V30 8092 C 774.009 -0.691232 2.18528 0
M  V30 8093 C 775.009 -1.13013 1.14388 0
M  V30 8094 O 776.199 -1.04081 1.39688 0
M  V30 8095 C 773.331 -1.94551 2.79934 0
M  V30 8096 H 774.524 -0.147953 2.99535 0
M  V30 8097 H 772.077 -0.0396243 1.5625 0
M  V30 8098 H 772.812 -2.53094 2.02766 0
M  V30 8099 H 772.597 -1.63938 3.56184 0
M  V30 8100 H 774.087 -2.58785 3.2775 0
M  V30 8101 N 774.524 -1.57472 -0.0634922 0
M  V30 8102 C 775.472 -2.05307 -1.09323 0
M  V30 8103 C 776.466 -0.959995 -1.39572 0
M  V30 8104 O 777.672 -1.14507 -1.38882 0
M  V30 8105 H 774.047 -0.65472 -0.369927 0
M  V30 8106 H 776.018 -2.90925 -0.663707 0
M  V30 8107 C 774.767 -2.51954 -2.39613 0
M  V30 8108 H 774.09 -3.35662 -2.1719 0
M  V30 8109 H 775.53 -2.89169 -3.10092 0
M  V30 8110 C 773.989 -1.40596 -3.06161 0
M  V30 8111 O 774.519 -0.752722 -3.94585 0
M  V30 8112 N 772.725 -1.14902 -2.66919 0
M  V30 8113 H 772.272 -1.68205 -1.95102 0
M  V30 8114 H 772.23 -0.406006 -3.11767 0
M  V30 8115 N 776.003 0.335068 -1.53997 0
M  V30 8116 C 776.951 1.43206 -1.83289 0
M  V30 8117 C 777.945 1.54081 -0.703953 0
M  V30 8118 O 779.151 1.56603 -0.887432 0
M  V30 8119 H 775.526 0.477655 -0.580818 0
M  V30 8120 H 777.497 1.15719 -2.75049 0
M  V30 8121 C 776.246 2.79602 -2.06683 0
M  V30 8122 H 775.569 2.72004 -2.93008 0
M  V30 8123 H 777.009 3.55459 -2.31139 0
M  V30 8124 C 775.468 3.25873 -0.854883 0
M  V30 8125 O 775.998 4.01657 -0.0584648 0
M  V30 8126 N 774.204 2.82777 -0.669729 0
M  V30 8127 H 773.751 2.21269 -1.31901 0
M  V30 8128 H 773.709 3.1409 0.13969 0
M  V30 8129 N 777.481 1.45874 0.596531 0
M  V30 8130 C 778.413 1.51408 1.7207 0
M  V30 8131 C 779.426 0.403738 1.57714 0
M  V30 8132 O 780.615 0.671384 1.65393 0
M  V30 8133 C 777.715 1.3652 3.10186 0
M  V30 8134 C 776.888 2.61428 3.50677 0
M  V30 8135 C 775.947 2.40937 4.67799 0
M  V30 8136 O 774.973 3.14602 4.74357 0
M  V30 8137 N 776.175 1.4621 5.61785 0
M  V30 8138 H 778.94 2.48333 1.67782 0
M  V30 8139 H 776.501 1.41755 0.782129 0
M  V30 8140 H 778.493 1.20606 3.86311 0
M  V30 8141 H 777.063 0.478302 3.08919 0
M  V30 8142 H 776.283 2.92381 2.644 0
M  V30 8143 H 777.571 3.44432 3.74491 0
M  V30 8144 H 776.969 0.854382 5.59211 0
M  V30 8145 H 775.526 1.36264 6.37397 0
M  V30 8146 N 778.959 -0.83999 1.33349 0
M  V30 8147 C 780.37 -1.41139 1.22216 0
M  V30 8148 C 780.721 -1.95551 -0.159398 0
M  V30 8149 O 779.846 -1.88721 -1.05893 0
M  V30 8150 C 780.441 -2.56564 2.21269 0
M  V30 8151 C 779 -3.09661 2.13979 0
M  V30 8152 C 778.147 -1.82457 2.08818 0
M  V30 8153 H 781.098 -0.645853 1.44964 0
M  V30 8154 H 781.119 -3.34163 1.81976 0
M  V30 8155 H 780.631 -2.16932 3.21811 0
M  V30 8156 H 778.732 -3.53841 1.16736 0
M  V30 8157 H 778.845 -3.6991 3.04472 0
M  V30 8158 H 777.209 -2.0266 1.54276 0
M  V30 8159 H 777.992 -1.45022 3.11165 0
M  V30 8160 N 780.437 -1.16799 -1.0581 0
M  V30 8161 C 781.384 -0.87902 -2.13405 0
M  V30 8162 C 782.354 0.174541 -1.6518 0
M  V30 8163 O 783.539 0.0386843 -1.90761 0
M  V30 8164 C 780.679 -0.391616 -3.42871 0
M  V30 8165 C 779.792 -1.50857 -4.04804 0
M  V30 8166 C 778.927 -0.975682 -5.22163 0
M  V30 8167 C 777.966 -2.06851 -5.76089 0
M  V30 8168 N 777.103 -1.55085 -6.84758 0
M  V30 8169 H 781.943 -1.80043 -2.37463 0
M  V30 8170 H 779.48 -0.898083 -1.16503 0
M  V30 8171 H 781.438 -0.0906247 -4.17102 0
M  V30 8172 H 780.068 0.49284 -3.19016 0
M  V30 8173 H 779.12 -1.92542 -3.28073 0
M  V30 8174 H 780.432 -2.33305 -4.40874 0
M  V30 8175 H 779.586 -0.628165 -6.03439 0
M  V30 8176 H 778.325 -0.120566 -4.87551 0
M  V30 8177 H 777.33 -2.42467 -4.93447 0
M  V30 8178 H 778.555 -2.92768 -6.12751 0
M  V30 8179 H 776.501 -0.718345 -6.52055 0
M  V30 8180 H 776.418 -2.31145 -7.19797 0
M  V30 8181 H 777.686 -1.23206 -7.69702 0
M  V30 8182 N 781.915 1.24427 -0.967243 0
M  V30 8183 C 783.326 1.74349 -0.667785 0
M  V30 8184 C 783.677 1.78403 0.816509 0
M  V30 8185 O 782.802 1.41315 1.63887 0
M  V30 8186 C 783.397 3.16628 -1.20548 0
M  V30 8187 C 781.956 3.64059 -0.955934 0
M  V30 8188 C 781.103 2.42715 -1.34106 0
M  V30 8189 H 784.054 1.10136 -1.14262 0
M  V30 8190 H 784.075 3.76183 -0.571547 0
M  V30 8191 H 783.587 3.13646 -2.28578 0
M  V30 8192 H 781.688 3.72441 0.108858 0
M  V30 8193 H 781.801 4.51549 -1.60126 0
M  V30 8194 H 780.165 2.43114 -0.759452 0
M  V30 8195 H 780.948 2.42414 -2.43085 0
M  V30 8196 N 783.393 0.737304 1.3929 0
M  V30 8197 C 784.356 0.10731 2.28949 0
M  V30 8198 C 785.356 -0.664716 1.46418 0
M  V30 8199 O 786.546 -0.493392 1.67067 0
M  V30 8200 C 783.678 -0.857145 3.29948 0
M  V30 8201 H 784.871 0.89725 2.86163 0
M  V30 8202 H 782.424 0.503279 1.47976 0
M  V30 8203 H 783.159 -1.67336 2.77794 0
M  V30 8204 H 782.944 -0.306167 3.90903 0
M  V30 8205 H 784.434 -1.29444 3.97031 0
M  V30 8206 N 784.871 -1.49948 0.485112 0
M  V30 8207 C 786.101 -2.06506 -0.0621921 0
M  V30 8208 C 786.509 -1.34756 -1.32806 0
M  V30 8209 O 785.852 -0.41466 -1.78959 0
M  V30 8210 C 785.914 -3.57243 -0.402182 0
M  V30 8211 C 785.578 -4.50574 0.763671 0
M  V30 8212 C 786.575 -4.93032 1.6497 0
M  V30 8213 C 784.26 -4.9308 0.957973 0
M  V30 8214 C 786.254 -5.76718 2.71432 0
M  V30 8215 C 783.941 -5.76546 2.0258 0
M  V30 8216 C 784.939 -6.18267 2.90232 0
M  V30 8217 O 784.627 -7.00066 3.95174 0
M  V30 8218 H 784.359 -0.675925 0.0100672 0
M  V30 8219 H 786.913 -1.93922 0.677023 0
M  V30 8220 H 785.143 -3.6778 -1.19478 0
M  V30 8221 H 786.832 -3.96107 -0.886219 0
M  V30 8222 H 787.598 -4.60851 1.51134 0
M  V30 8223 H 783.477 -4.60117 0.285144 0
M  V30 8224 H 787.021 -6.09203 3.39878 0
M  V30 8225 H 782.918 -6.0814 2.16417 0
M  V30 8226 H 783.686 -7.18343 3.92333 0
M  V30 8227 N 786.349 -0.21828 -1.56081 0
M  V30 8228 C 787.297 0.709679 -2.21509 0
M  V30 8229 C 788.291 1.20221 -1.19346 0
M  V30 8230 O 789.497 1.16241 -1.37433 0
M  V30 8231 H 785.872 0.247271 -0.710184 0
M  V30 8232 H 787.843 0.134386 -2.98097 0
M  V30 8233 C 786.592 1.90853 -2.90638 0
M  V30 8234 H 785.915 1.53865 -3.69006 0
M  V30 8235 H 787.355 2.53568 -3.39822 0
M  V30 8236 C 785.814 2.76189 -1.92929 0
M  V30 8237 O 786.344 3.74842 -1.44416 0
M  V30 8238 N 784.55 2.42157 -1.6065 0
M  V30 8239 H 784.097 1.61987 -2.00294 0
M  V30 8240 H 784.055 2.99534 -0.955347 0
M  V30 8241 N 787.827 1.57504 0.0551401 0
M  V30 8242 C 788.79 2.03826 1.04821 0
M  V30 8243 C 789.79 0.937968 1.30609 0
M  V30 8244 O 790.98 1.20237 1.2605 0
M  V30 8245 C 788.112 2.43309 2.38775 0
M  V30 8246 H 789.305 2.92802 0.6486 0
M  V30 8247 H 786.858 1.53368 0.301315 0
M  V30 8248 H 787.593 1.5741 2.83536 0
M  V30 8249 H 787.378 3.23615 2.21395 0
M  V30 8250 H 788.868 2.79666 3.10124 0
M  V30 8251 N 789.305 -0.326896 1.54172 0
M  V30 8252 C 790.551 -1.06681 1.72473 0
M  V30 8253 C 790.884 -1.87779 0.49523 0
M  V30 8254 O 790.159 -1.87754 -0.507803 0
M  V30 8255 C 790.442 -1.99429 2.99834 0
M  V30 8256 C 790.295 -1.21682 4.33028 0
M  V30 8257 C 791.614 -2.99002 3.22933 0
M  V30 8258 H 788.733 -0.386438 0.627563 0
M  V30 8259 H 791.375 -0.343779 1.86864 0
M  V30 8260 H 789.525 -2.61081 2.87696 0
M  V30 8261 H 791.197 -0.625153 4.57044 0
M  V30 8262 H 789.44 -0.519045 4.30684 0
M  V30 8263 H 790.111 -1.89766 5.18356 0
M  V30 8264 H 792.587 -2.4747 3.34511 0
M  V30 8265 H 791.463 -3.61085 4.13412 0
M  V30 8266 H 791.724 -3.71281 2.40006 0
M  V30 8267 N 790.784 -1.46188 -0.588786 0
M  V30 8268 C 791.747 -1.55882 -1.68029 0
M  V30 8269 C 792.747 -0.436515 -1.54762 0
M  V30 8270 O 793.937 -0.700626 -1.59489 0
M  V30 8271 C 791.069 -1.47332 -3.07418 0
M  V30 8272 H 792.262 -2.5315 -1.60795 0
M  V30 8273 H 789.815 -1.33908 -0.806116 0
M  V30 8274 H 790.55 -0.513193 -3.20214 0
M  V30 8275 H 790.335 -2.28753 -3.18456 0
M  V30 8276 H 791.825 -1.57187 -3.86887 0
M  V30 8277 N 792.262 0.832906 -1.33792 0
M  V30 8278 C 793.487 1.62568 -1.28788 0
M  V30 8279 C 793.912 1.87599 0.137246 0
M  V30 8280 O 793.27 1.44436 1.0958 0
M  V30 8281 C 793.318 2.9495 -2.07453 0
M  V30 8282 O 792.422 3.86546 -1.43722 0
M  V30 8283 H 791.763 0.494809 -0.442787 0
M  V30 8284 H 794.293 1.03578 -1.76445 0
M  V30 8285 H 794.303 3.44599 -2.1844 0
M  V30 8286 H 792.978 2.76055 -3.11073 0
M  V30 8287 H 791.555 3.45044 -1.41417 0
M  V30 8288 N 793.74 1.17359 1.05189 0
M  V30 8289 C 794.989 0.956412 1.77583 0
M  V30 8290 C 795.302 -0.516018 1.88671 0
M  V30 8291 O 796.508 -0.851401 2.57805 0
M  V30 8292 C 794.964 1.66203 3.19225 0
M  V30 8293 C 794.572 3.17299 3.16267 0
M  V30 8294 C 796.316 1.52725 3.96075 0
M  V30 8295 C 794.223 3.8055 4.52698 0
M  V30 8296 H 793.153 0.354204 0.665624 0
M  V30 8297 H 795.804 1.40612 1.17901 0
M  V30 8298 H 794.186 1.14006 3.79234 0
M  V30 8299 H 795.36 3.76431 2.65776 0
M  V30 8300 H 793.675 3.3079 2.52917 0
M  V30 8301 H 796.272 1.97351 4.96947 0
M  V30 8302 H 796.615 0.477803 4.13549 0
M  V30 8303 H 797.148 2.02139 3.42614 0
M  V30 8304 H 793.887 4.85492 4.4043 0
M  V30 8305 H 793.407 3.26206 5.03339 0
M  V30 8306 H 795.086 3.82757 5.21638 0
M  V30 8307 N 795.218 -1.23913 0.973828 0
M  V30 8308 C 796.467 -1.91455 0.63464 0
M  V30 8309 C 796.78 -1.76893 -0.834759 0
M  V30 8310 O 797.986 -2.3918 -1.28473 0
M  V30 8311 C 796.442 -3.43172 1.08447 0
M  V30 8312 C 796.05 -3.66409 2.57776 0
M  V30 8313 C 797.794 -4.1653 0.818721 0
M  V30 8314 C 795.701 -5.11728 2.9646 0
M  V30 8315 H 794.631 -0.716881 0.233661 0
M  V30 8316 H 797.282 -1.40457 1.18085 0
M  V30 8317 H 795.664 -3.93242 0.466524 0
M  V30 8318 H 796.838 -3.26913 3.24753 0
M  V30 8319 H 795.153 -3.06349 2.82027 0
M  V30 8320 H 797.75 -5.23603 1.08367 0
M  V30 8321 H 798.093 -4.15578 -0.245128 0
M  V30 8322 H 798.626 -3.72428 1.39793 0
M  V30 8323 H 795.365 -5.17806 4.01941 0
M  V30 8324 H 794.885 -5.52199 2.34172 0
M  V30 8325 H 796.564 -5.80009 2.86703 0
M  V30 8326 N 796.696 -0.74468 -1.38897 0
M  V30 8327 C 798.107 -0.36568 -1.83084 0
M  V30 8328 C 798.458 1.10436 -1.62168 0
M  V30 8329 O 797.583 1.85281 -1.11804 0
M  V30 8330 C 798.178 -0.656946 -3.3237 0
M  V30 8331 C 796.737 -0.331329 -3.74939 0
M  V30 8332 C 795.884 -0.914661 -2.61781 0
M  V30 8333 H 798.835 -0.941551 -1.27752 0
M  V30 8334 H 798.856 0.0679546 -3.80439 0
M  V30 8335 H 798.368 -1.72693 -3.47561 0
M  V30 8336 H 796.469 0.732426 -3.6533 0
M  V30 8337 H 796.582 -0.820655 -4.72019 0
M  V30 8338 H 794.946 -0.34063 -2.52412 0
M  V30 8339 H 795.729 -1.98949 -2.79775 0
M  V30 8340 N 798.174 1.49689 -0.493057 0
M  V30 8341 C 799.106 2.26867 0.326195 0
M  V30 8342 C 800.119 1.33083 0.937697 0
M  V30 8343 O 801.308 1.58427 0.822382 0
M  V30 8344 C 798.408 3.0519 1.4735 0
M  V30 8345 C 797.581 4.26491 0.970767 0
M  V30 8346 C 796.64 4.86926 1.99473 0
M  V30 8347 O 795.666 5.47221 1.56647 0
M  V30 8348 N 796.868 4.75871 3.32456 0
M  V30 8349 H 799.633 2.97816 -0.335547 0
M  V30 8350 H 797.194 1.58602 -0.325129 0
M  V30 8351 H 799.186 3.42496 2.15589 0
M  V30 8352 H 797.756 2.369 2.03954 0
M  V30 8353 H 796.976 3.94036 0.113529 0
M  V30 8354 H 798.264 5.05092 0.613156 0
M  V30 8355 H 797.662 4.2797 3.69944 0
M  V30 8356 H 796.219 5.17383 3.96431 0
M  V30 8357 N 799.652 0.226554 1.55963 0
M  V30 8358 C 800.877 -0.411527 2.03276 0
M  V30 8359 C 801.302 -1.52206 1.10521 0
M  V30 8360 O 800.66 -1.81054 0.0943217 0
M  V30 8361 C 800.708 -0.915694 3.4878 0
M  V30 8362 O 799.812 -2.02672 3.59163 0
M  V30 8363 H 799.153 -0.0924907 0.657527 0
M  V30 8364 H 801.683 0.346656 2.01642 0
M  V30 8365 H 801.693 -1.22421 3.892 0
M  V30 8366 H 800.368 -0.102915 4.15773 0
M  V30 8367 H 798.945 -1.72445 3.30632 0
M  V30 8368 N 801.13 -1.57531 -0.0467866 0
M  V30 8369 C 802.04 -2.08768 -1.07018 0
M  V30 8370 C 803.056 -1.02245 -1.40791 0
M  V30 8371 O 804.232 -1.33873 -1.50466 0
M  V30 8372 C 801.297 -2.54221 -2.35738 0
M  V30 8373 C 800.358 -3.75152 -2.08709 0
M  V30 8374 C 799.591 -4.18428 -3.31291 0
M  V30 8375 O 799.814 -3.61365 -4.4133 0
M  V30 8376 O 798.748 -5.11018 -3.18032 0
M  V30 8377 H 802.574 -2.96334 -0.664812 0
M  V30 8378 H 800.159 -1.47074 -0.262605 0
M  V30 8379 H 802.041 -2.83866 -3.11445 0
M  V30 8380 H 800.716 -1.69774 -2.75605 0
M  V30 8381 H 799.623 -3.50553 -1.30627 0
M  V30 8382 H 800.956 -4.60528 -1.73708 0
M  V30 8383 N 802.608 0.318715 -1.54344 0
M  V30 8384 C 803.854 1.05383 -1.73971 0
M  V30 8385 C 804.209 1.85524 -0.509781 0
M  V30 8386 O 803.502 1.8502 0.49782 0
M  V30 8387 C 803.696 2.00514 -2.95853 0
M  V30 8388 C 803.525 1.29728 -4.30582 0
M  V30 8389 C 802.295 1.03177 -4.94654 0
M  V30 8390 C 804.493 0.710718 -5.09366 0
M  V30 8391 N 802.475 0.29232 -6.13204 0
M  V30 8392 C 803.846 0.103132 -6.19914 0
M  V30 8393 C 805.901 0.614011 -4.94099 0
M  V30 8394 C 804.604 -0.591782 -7.16862 0
M  V30 8395 C 806.63 -0.0672115 -5.91362 0
M  V30 8396 C 805.992 -0.663721 -7.01266 0
M  V30 8397 H 802.091 0.369157 -0.689382 0
M  V30 8398 H 804.675 0.334453 -1.91806 0
M  V30 8399 H 802.846 2.69719 -2.79475 0
M  V30 8400 H 804.578 2.67046 -3.04086 0
M  V30 8401 H 801.333 1.32536 -4.54677 0
M  V30 8402 H 801.757 -0.0634005 -6.7697 0
M  V30 8403 H 806.399 1.06091 -4.09273 0
M  V30 8404 H 804.117 -1.0505 -8.01243 0
M  V30 8405 H 807.703 -0.141742 -5.81627 0
M  V30 8406 H 806.583 -1.18248 -7.75234 0
M  V30 8407 N 804.086 1.46499 0.581025 0
M  V30 8408 C 805.334 1.51596 1.33653 0
M  V30 8409 C 805.655 0.169859 1.94259 0
M  V30 8410 O 804.925 -0.803776 1.78651 0
M  V30 8411 H 803.505 0.558346 0.496244 0
M  V30 8412 H 806.167 1.8264 0.680338 0
M  V30 8413 H 805.263 2.26956 2.14237 0
M  V30 8414 N 805.565 -0.825799 1.34232 0
M  V30 8415 C 806.842 -1.56741 1.17011 0
M  V30 8416 C 807.222 -2.09512 -0.258425 0
M  V30 8417 O 806.57 -1.90664 -1.25935 0
M  V30 8418 C 806.78 -2.69104 2.22225 0
M  V30 8419 C 808.128 -3.37947 2.57055 0
M  V30 8420 O 809.152 -2.79358 2.20992 0
M  V30 8421 O 808.011 -4.43743 3.1899 0
M  V30 8422 H 805.105 -0.69163 0.453405 0
M  V30 8423 H 807.651 -0.867422 1.45856 0
M  V30 8424 H 806.423 -2.27844 3.18124 0
M  V30 8425 H 806.046 -3.46756 1.94541 0
M  V30 8426 N 807.043 -1.17915 -1.04565 0
M  V30 8427 C 808.291 -0.969505 -1.77327 0
M  V30 8428 C 808.612 0.502569 -1.88412 0
M  V30 8429 O 807.882 1.36467 -1.40547 0
M  V30 8430 H 806.462 -0.355723 -0.656864 0
M  V30 8431 H 809.124 -1.48506 -1.26223 0
M  V30 8432 H 808.22 -1.40324 -2.78775 0
M  V30 8433 N 808.521 1.23394 -0.980386 0
M  V30 8434 C 809.469 2.26872 -0.513018 0
M  V30 8435 C 810.463 1.63853 0.429948 0
M  V30 8436 O 811.669 1.77417 0.303842 0
M  V30 8437 H 808.044 0.737398 -0.147473 0
M  V30 8438 H 810.015 2.63654 -1.39746 0
M  V30 8439 C 808.764 3.47289 0.168962 0
M  V30 8440 H 808.087 3.96033 -0.547546 0
M  V30 8441 H 809.527 4.21502 0.459616 0
M  V30 8442 C 807.986 3.06425 1.40019 0
M  V30 8443 O 808.516 3.14708 2.49643 0
M  V30 8444 N 806.722 2.61339 1.27084 0
M  V30 8445 H 806.269 2.54799 0.378872 0
M  V30 8446 H 806.227 2.34364 2.09573 0
M  V30 8447 N 809.999 0.752036 1.385 0
M  V30 8448 C 810.947 0.112634 2.32327 0
M  V30 8449 C 811.941 -0.707037 1.53939 0
M  V30 8450 O 813.147 -0.606309 1.69481 0
M  V30 8451 H 809.522 0.0176275 0.751793 0
M  V30 8452 H 811.493 0.920074 2.83861 0
M  V30 8453 C 810.242 -0.767458 3.39124 0
M  V30 8454 H 809.565 -0.146122 3.99533 0
M  V30 8455 H 811.005 -1.18216 4.07187 0
M  V30 8456 C 809.464 -1.90938 2.77568 0
M  V30 8457 O 809.994 -3.00342 2.66754 0
M  V30 8458 N 808.2 -1.70396 2.35401 0
M  V30 8459 H 807.747 -0.81413 2.44397 0
M  V30 8460 H 807.705 -2.46972 1.94557 0
M  V30 8461 N 811.477 -1.49425 0.500989 0
M  V30 8462 C 812.888 -1.86624 0.0532011 0
M  V30 8463 C 813.239 -1.41331 -1.36088 0
M  V30 8464 O 812.364 -0.791195 -2.01418 0
M  V30 8465 C 812.959 -3.38681 0.0897693 0
M  V30 8466 C 811.518 -3.75181 -0.302677 0
M  V30 8467 C 810.665 -2.73419 0.462307 0
M  V30 8468 H 813.616 -1.41743 0.713773 0
M  V30 8469 H 813.637 -3.73902 -0.705528 0
M  V30 8470 H 813.149 -3.71616 1.11907 0
M  V30 8471 H 811.25 -3.47855 -1.33521 0
M  V30 8472 H 811.363 -4.79097 0.0167653 0
M  V30 8473 H 809.727 -2.54548 -0.0878557 0
M  V30 8474 H 810.51 -3.09198 1.49169 0
M  V30 8475 N 812.955 -0.234822 -1.55841 0
M  V30 8476 C 813.918 0.656378 -2.196 0
M  V30 8477 C 814.918 1.11179 -1.16171 0
M  V30 8478 O 816.108 1.01845 -1.41326 0
M  V30 8479 C 813.24 1.90072 -2.82993 0
M  V30 8480 H 814.433 0.100281 -2.99732 0
M  V30 8481 H 811.986 0.0147613 -1.56293 0
M  V30 8482 H 812.721 2.49836 -2.06767 0
M  V30 8483 H 812.506 1.5825 -3.58747 0
M  V30 8484 H 813.996 2.53538 -3.31826 0
M  V30 8485 N 814.433 1.57553 0.0384317 0
M  V30 8486 C 815.681 1.88468 0.729672 0
M  V30 8487 C 816.002 0.831302 1.76393 0
M  V30 8488 O 815.272 -0.13622 1.95426 0
M  V30 8489 H 813.852 0.695529 0.272485 0
M  V30 8490 H 816.514 1.94899 0.0066032 0
M  V30 8491 H 815.61 2.8705 1.22511 0
M  V30 8492 N 815.911 -0.310526 1.54511 0
M  V30 8493 C 817.159 -1.04484 1.72996 0
M  V30 8494 C 817.48 -1.88118 0.513479 0
M  V30 8495 O 816.75 -1.90119 -0.472384 0
M  V30 8496 H 815.33 -0.388747 0.637875 0
M  V30 8497 H 817.992 -0.343811 1.91844 0
M  V30 8498 H 817.088 -1.70341 2.61515 0
M  V30 8499 N 817.389 -1.46805 -0.573248 0
M  V30 8500 C 818.637 -1.52302 -1.32847 0
M  V30 8501 C 818.958 -0.180159 -1.94166 0
M  V30 8502 O 818.228 0.794291 -1.79075 0
M  V30 8503 H 816.808 -0.56097 -0.493276 0
M  V30 8504 H 819.47 -1.82998 -0.670642 0
M  V30 8505 H 818.566 -2.28089 -2.13031 0
M  V30 8506 N 818.867 0.818669 -1.34668 0
M  V30 8507 C 820.115 1.57201 -1.27013 0
M  V30 8508 C 820.436 1.94354 0.158599 0
M  V30 8509 O 819.706 1.62626 1.09223 0
M  V30 8510 H 818.286 0.582919 -0.467135 0
M  V30 8511 H 820.948 0.977234 -1.6863 0
M  V30 8512 H 820.044 2.49291 -1.87778 0
M  V30 8513 N 820.346 1.18468 1.03938 0
M  V30 8514 C 821.594 0.978895 1.76811 0
M  V30 8515 C 821.915 -0.49257 1.88676 0
M  V30 8516 O 821.185 -1.3572 1.41269 0
M  V30 8517 H 819.765 0.359201 0.654968 0
M  V30 8518 H 822.427 1.49173 1.25433 0
M  V30 8519 H 821.523 1.418 2.78027 0
M  V30 8520 N 821.824 -1.22873 0.986916 0
M  V30 8521 C 823.072 -1.91084 0.658121 0
M  V30 8522 C 823.393 -1.77304 -0.811675 0
M  V30 8523 O 822.663 -1.15649 -1.58121 0
M  V30 8524 H 821.243 -0.707251 0.240427 0
M  V30 8525 H 823.905 -1.49357 1.25213 0
M  V30 8526 H 823.001 -2.98373 0.915428 0
M  V30 8527 N 823.302 -0.75937 -1.38099 0
M  V30 8528 C 824.249 -0.135508 -2.30402 0
M  V30 8529 C 825.219 0.703356 -1.50473 0
M  V30 8530 O 826.404 0.658287 -1.79084 0
M  V30 8531 C 823.544 0.747228 -3.36913 0
M  V30 8532 C 822.657 -0.106893 -4.31868 0
M  V30 8533 C 821.792 0.779388 -5.25451 0
M  V30 8534 C 820.831 -0.0780179 -6.1205 0
M  V30 8535 N 819.968 0.765545 -6.97914 0
M  V30 8536 H 824.808 -0.9282 -2.83176 0
M  V30 8537 H 822.345 -0.46935 -1.39411 0
M  V30 8538 H 824.303 1.27371 -3.97281 0
M  V30 8539 H 822.933 1.50565 -2.85535 0
M  V30 8540 H 821.985 -0.751063 -3.72912 0
M  V30 8541 H 823.297 -0.768798 -4.9284 0
M  V30 8542 H 822.451 1.37282 -5.90964 0
M  V30 8543 H 821.19 1.47501 -4.6486 0
M  V30 8544 H 820.195 -0.684078 -5.45528 0
M  V30 8545 H 821.42 -0.770786 -6.74712 0
M  V30 8546 H 819.366 1.44601 -6.39864 0
M  V30 8547 H 819.283 0.160666 -7.55829 0
M  V30 8548 H 820.551 1.34377 -7.6783 0
M  V30 8549 N 824.78 1.49157 -0.508906 0
M  V30 8550 C 826.191 1.86593 -0.0630975 0
M  V30 8551 C 826.542 1.42051 1.35337 0
M  V30 8552 O 825.667 0.801866 2.00995 0
M  V30 8553 C 826.262 3.38629 -0.107729 0
M  V30 8554 C 824.821 3.75336 0.282776 0
M  V30 8555 C 823.968 2.7317 -0.4768 0
M  V30 8556 H 826.919 1.41362 -0.72128 0
M  V30 8557 H 826.94 3.74271 0.685689 0
M  V30 8558 H 826.452 3.71017 -1.13876 0
M  V30 8559 H 824.553 3.48558 1.31675 0
M  V30 8560 H 824.666 4.79081 -0.0421728 0
M  V30 8561 H 823.03 2.54591 0.0743552 0
M  V30 8562 H 823.813 3.08403 -1.50807 0
M  V30 8563 N 826.258 0.243083 1.55714 0
M  V30 8564 C 827.168 -0.668913 2.24862 0
M  V30 8565 C 828.184 -1.19638 1.26344 0
M  V30 8566 O 829.36 -1.23345 1.5921 0
M  V30 8567 C 826.425 -1.85084 2.93163 0
M  V30 8568 C 825.486 -1.36323 4.07081 0
M  V30 8569 C 824.719 -2.48882 4.72116 0
M  V30 8570 O 824.942 -3.67523 4.36214 0
M  V30 8571 O 823.876 -2.18857 5.60701 0
M  V30 8572 H 827.702 -0.109737 3.03502 0
M  V30 8573 H 825.287 0.0117411 1.49395 0
M  V30 8574 H 827.169 -2.54065 3.36197 0
M  V30 8575 H 825.844 -2.39771 2.17466 0
M  V30 8576 H 824.751 -0.640804 3.68571 0
M  V30 8577 H 826.084 -0.86249 4.84584 0
M  V30 8578 N 827.736 -1.57571 -0.0300757 0
M  V30 8579 C 828.646 -2.09892 -1.04798 0
M  V30 8580 C 829.662 -1.03732 -1.39698 0
M  V30 8581 O 830.838 -1.35461 -1.49038 0
M  V30 8582 C 827.903 -2.56707 -2.33028 0
M  V30 8583 C 826.964 -3.77345 -2.04718 0
M  V30 8584 C 826.197 -4.21918 -3.26834 0
M  V30 8585 O 826.42 -3.66025 -4.37472 0
M  V30 8586 O 825.354 -5.14362 -3.12594 0
M  V30 8587 H 829.18 -2.97023 -0.633344 0
M  V30 8588 H 826.765 -1.47344 -0.246991 0
M  V30 8589 H 828.647 -2.87154 -3.08417 0
M  V30 8590 H 827.322 -1.72688 -2.73789 0
M  V30 8591 H 826.229 -3.51919 -1.26901 0
M  V30 8592 H 827.562 -4.62345 -1.68813 0
M  V30 8593 N 829.214 0.302327 -1.54673 0
M  V30 8594 C 830.625 0.875409 -1.64904 0
M  V30 8595 C 830.976 1.88132 -0.55684 0
M  V30 8596 O 830.101 2.14215 0.306754 0
M  V30 8597 C 830.696 1.59457 -2.9893 0
M  V30 8598 C 829.255 2.11607 -3.11287 0
M  V30 8599 C 828.402 0.948324 -2.6058 0
M  V30 8600 H 831.353 0.079362 -1.58501 0
M  V30 8601 H 831.374 2.46005 -2.90279 0
M  V30 8602 H 830.886 0.8622 -3.78402 0
M  V30 8603 H 828.987 2.87895 -2.36532 0
M  V30 8604 H 829.1 2.35151 -4.17422 0
M  V30 8605 H 827.464 1.33352 -2.17001 0
M  V30 8606 H 828.247 0.229936 -3.42529 0
M  V30 8607 N 830.692 1.47107 0.565454 0
M  V30 8608 C 831.969 1.43787 1.32607 0
M  V30 8609 C 832.349 0.130428 2.10697 0
M  V30 8610 O 831.697 -0.888086 2.10536 0
M  V30 8611 C 831.907 2.67833 2.23755 0
M  V30 8612 C 833.255 3.14704 2.85037 0
M  V30 8613 O 834.279 2.68503 2.34061 0
M  V30 8614 O 833.138 3.95002 3.77671 0
M  V30 8615 H 830.232 0.572623 0.596684 0
M  V30 8616 H 832.778 1.59296 0.58504 0
M  V30 8617 H 831.55 3.54532 1.65597 0
M  V30 8618 H 831.173 2.54869 3.05168 0
M  V30 8619 N 832.17 -0.811516 1.35101 0
M  V30 8620 C 833.133 -1.90467 1.27495 0
M  V30 8621 C 834.133 -1.59703 0.187516 0
M  V30 8622 O 835.323 -1.68528 0.440896 0
M  V30 8623 C 832.455 -3.26774 0.971154 0
M  V30 8624 H 833.648 -1.98631 2.2469 0
M  V30 8625 H 831.201 -1.00681 1.19553 0
M  V30 8626 H 831.936 -3.243 0.0028557 0
M  V30 8627 H 831.721 -3.50488 1.75785 0
M  V30 8628 H 833.211 -4.06804 0.943414 0
M  V30 8629 N 833.648 -1.19017 -1.03309 0
M  V30 8630 C 834.596 -0.920627 -2.13605 0
M  V30 8631 C 835.59 0.121969 -1.6896 0
M  V30 8632 O 836.796 -0.0268854 -1.7998 0
M  V30 8633 H 833.171 -0.280284 -0.697814 0
M  V30 8634 H 835.142 -1.85755 -2.33533 0
M  V30 8635 C 833.891 -0.471198 -3.44492 0
M  V30 8636 H 833.214 -1.26499 -3.7926 0
M  V30 8637 H 834.654 -0.321663 -4.22778 0
M  V30 8638 C 833.113 0.81411 -3.26916 0
M  V30 8639 O 833.643 1.87654 -3.55175 0
M  V30 8640 N 831.849 0.769695 -2.80221 0
M  V30 8641 H 831.396 -0.0951278 -2.57424 0
M  V30 8642 H 831.354 1.63008 -2.68842 0
M  V30 8643 N 835.127 1.22348 -0.993418 0
M  V30 8644 C 836.375 1.90733 -0.668246 0
M  V30 8645 C 836.696 1.77732 0.802261 0
M  V30 8646 O 835.966 1.16486 1.57505 0
M  V30 8647 H 834.546 0.705966 -0.244174 0
M  V30 8648 H 837.208 1.48691 -1.26004 0
M  V30 8649 H 836.304 2.97883 -0.931239 0
M  V30 8650 N 836.605 0.766683 1.37694 0
M  V30 8651 C 837.835 0.339446 2.03792 0
M  V30 8652 C 838.243 -1.04153 1.57952 0
M  V30 8653 O 837.586 -1.67521 0.753826 0
M  V30 8654 C 837.648 0.29822 3.58261 0
M  V30 8655 C 837.312 1.62293 4.27212 0
M  V30 8656 C 838.309 2.57447 4.51682 0
M  V30 8657 C 835.994 1.89597 4.65143 0
M  V30 8658 C 837.988 3.78117 5.13134 0
M  V30 8659 C 835.675 3.10538 5.26317 0
M  V30 8660 C 836.673 4.04617 5.50249 0
M  V30 8661 O 836.361 5.23429 6.10145 0
M  V30 8662 H 836.093 0.140952 0.661142 0
M  V30 8663 H 838.647 1.04022 1.77111 0
M  V30 8664 H 836.877 -0.458897 3.83967 0
M  V30 8665 H 838.566 -0.101263 4.05774 0
M  V30 8666 H 839.332 2.37633 4.22795 0
M  V30 8667 H 835.211 1.17199 4.45854 0
M  V30 8668 H 838.755 4.51563 5.3173 0
M  V30 8669 H 834.652 3.3024 5.54628 0
M  V30 8670 H 835.42 5.24187 6.28626 0
M  V30 8671 N 838.083 -1.48885 0.516809 0
M  V30 8672 C 839.313 -2.06592 -0.018375 0
M  V30 8673 C 839.721 -1.37543 -1.29917 0
M  V30 8674 O 839.064 -0.452527 -1.78039 0
M  V30 8675 C 839.126 -3.58016 -0.326315 0
M  V30 8676 C 838.79 -4.48853 0.859072 0
M  V30 8677 C 839.787 -4.89422 1.75391 0
M  V30 8678 C 837.472 -4.90937 1.06235 0
M  V30 8679 C 839.466 -5.70831 2.83604 0
M  V30 8680 C 837.153 -5.72119 2.14763 0
M  V30 8681 C 838.151 -6.11972 3.03281 0
M  V30 8682 O 837.839 -6.91527 4.09934 0
M  V30 8683 H 837.571 -0.675559 0.0244023 0
M  V30 8684 H 840.125 -1.92442 0.718005 0
M  V30 8685 H 838.355 -3.70231 -1.1165 0
M  V30 8686 H 840.044 -3.97898 -0.801999 0
M  V30 8687 H 840.81 -4.57542 1.60875 0
M  V30 8688 H 836.689 -4.59409 0.382677 0
M  V30 8689 H 840.233 -6.01857 3.52724 0
M  V30 8690 H 836.13 -6.03412 2.29268 0
M  V30 8691 H 836.898 -7.0986 4.07482 0
M  V30 8692 N 839.561 -0.251338 -1.55583 0
M  V30 8693 C 840.791 0.375642 -2.03156 0
M  V30 8694 C 841.199 1.51761 -1.12983 0
M  V30 8695 O 840.542 1.83184 -0.13757 0
M  V30 8696 C 840.604 0.941001 -3.46966 0
M  V30 8697 C 840.268 -0.0692886 -4.56947 0
M  V30 8698 C 841.265 -0.88041 -5.12391 0
M  V30 8699 C 838.95 -0.196661 -5.01915 0
M  V30 8700 C 840.944 -1.80532 -6.11299 0
M  V30 8701 C 838.631 -1.12507 -6.00654 0
M  V30 8702 C 839.629 -1.92792 -6.55225 0
M  V30 8703 O 839.317 -2.84067 -7.52038 0
M  V30 8704 H 839.049 0.0928836 -0.669588 0
M  V30 8705 H 841.603 -0.374115 -2.01964 0
M  V30 8706 H 839.833 1.7404 -3.45322 0
M  V30 8707 H 841.522 1.47853 -3.78014 0
M  V30 8708 H 842.288 -0.792615 -4.78479 0
M  V30 8709 H 838.167 0.418187 -4.59099 0
M  V30 8710 H 841.711 -2.43239 -6.5382 0
M  V30 8711 H 837.608 -1.21377 -6.33986 0
M  V30 8712 H 838.376 -2.78479 -7.6967 0
M  V30 8713 N 841.039 1.57585 0.0217189 0
M  V30 8714 C 841.989 2.03506 1.02807 0
M  V30 8715 C 842.973 0.925716 1.31603 0
M  V30 8716 O 844.165 1.18958 1.31065 0
M  V30 8717 C 841.294 2.52407 2.32693 0
M  V30 8718 C 840.38 3.70176 2.06955 0
M  V30 8719 N 840.771 4.82641 1.513 0
M  V30 8720 C 839.069 3.77691 2.37204 0
M  V30 8721 C 839.77 5.64218 1.41536 0
M  V30 8722 N 838.746 5.09557 1.89348 0
M  V30 8723 H 842.548 2.87878 0.591899 0
M  V30 8724 H 840.062 1.60793 0.227875 0
M  V30 8725 H 842.059 2.83569 3.05605 0
M  V30 8726 H 840.719 1.69444 2.76982 0
M  V30 8727 H 841.73 5.03931 1.19472 0
M  V30 8728 H 838.407 3.05542 2.84517 0
M  V30 8729 H 839.797 6.64576 0.989333 0
M  V30 8730 N 842.517 -0.29412 1.54831 0
M  V30 8731 C 843.794 -1.04847 1.65126 0
M  V30 8732 C 844.174 -2.04996 0.503986 0
M  V30 8733 O 843.522 -2.22996 -0.498496 0
M  V30 8734 C 843.732 -1.72418 3.03435 0
M  V30 8735 C 845.08 -2.24362 3.60481 0
M  V30 8736 O 846.104 -1.8244 3.05932 0
M  V30 8737 O 844.963 -3.01196 4.56008 0
M  V30 8738 H 842.057 -0.485032 0.669831 0
M  V30 8739 H 844.603 -0.291659 1.67175 0
M  V30 8740 H 843.375 -0.997351 3.78376 0
M  V30 8741 H 842.998 -2.54839 3.05193 0
M  V30 8742 N 843.995 -1.47404 -0.557645 0
M  V30 8743 C 845.223 -1.57622 -1.34026 0
M  V30 8744 C 845.638 -0.226256 -1.87439 0
M  V30 8745 O 844.995 0.78043 -1.64971 0
M  V30 8746 C 845.046 -2.60111 -2.51047 0
M  V30 8747 O 844.767 -3.89866 -1.99841 0
M  V30 8748 C 846.268 -2.80508 -3.43264 0
M  V30 8749 H 843.488 -0.532271 -0.40857 0
M  V30 8750 H 846.032 -1.93019 -0.675555 0
M  V30 8751 H 844.187 -2.27648 -3.13457 0
M  V30 8752 H 844.601 -4.45864 -2.76234 0
M  V30 8753 H 846.075 -3.56084 -4.21792 0
M  V30 8754 H 846.552 -1.88314 -3.9678 0
M  V30 8755 H 847.158 -3.14166 -2.86671 0
M  V30 8756 N 845.473 0.80434 -1.35529 0
M  V30 8757 C 846.72 1.56154 -1.28927 0
M  V30 8758 C 847.048 1.94026 0.135682 0
M  V30 8759 O 846.303 1.61759 1.10148 0
M  V30 8760 C 846.602 2.85988 -2.14349 0
M  V30 8761 C 846.268 2.67323 -3.6311 0
M  V30 8762 C 844.93 2.61941 -4.03659 0
M  V30 8763 C 847.282 2.49699 -4.57493 0
M  V30 8764 C 844.61 2.3688 -5.36754 0
M  V30 8765 C 846.962 2.26168 -5.90788 0
M  V30 8766 C 845.626 2.19209 -6.30479 0
M  V30 8767 H 844.896 0.571407 -0.471779 0
M  V30 8768 H 847.543 0.929193 -1.67446 0
M  V30 8769 H 845.848 3.53612 -1.68718 0
M  V30 8770 H 847.545 3.43697 -2.06576 0
M  V30 8771 H 844.135 2.72361 -3.30934 0
M  V30 8772 H 848.319 2.52869 -4.27049 0
M  V30 8773 H 843.575 2.29964 -5.66504 0
M  V30 8774 H 847.749 2.11522 -6.63499 0
M  V30 8775 H 845.376 1.99553 -7.33541 0
M  V30 8776 N 846.951 1.19563 1.02676 0
M  V30 8777 C 847.861 0.950691 2.14474 0
M  V30 8778 C 848.877 -0.0900219 1.73767 0
M  V30 8779 O 850.053 0.0951063 2.01175 0
M  V30 8780 C 847.118 0.494917 3.43149 0
M  V30 8781 C 846.179 1.60527 3.98158 0
M  V30 8782 C 845.412 1.17115 5.20692 0
M  V30 8783 O 845.635 0.0355937 5.70389 0
M  V30 8784 O 844.569 1.97454 5.68591 0
M  V30 8785 H 848.395 1.88651 2.38001 0
M  V30 8786 H 845.98 0.978635 1.12885 0
M  V30 8787 H 847.862 0.249492 4.20661 0
M  V30 8788 H 846.537 -0.412434 3.21062 0
M  V30 8789 H 845.444 1.90487 3.21971 0
M  V30 8790 H 846.777 2.48925 4.24614 0
M  V30 8791 N 848.429 -1.21819 0.999893 0
M  V30 8792 C 849.677 -1.90375 0.678351 0
M  V30 8793 C 849.998 -1.78155 -0.792824 0
M  V30 8794 O 849.268 -1.17319 -1.56885 0
M  V30 8795 H 847.848 -0.704661 0.247915 0
M  V30 8796 H 850.51 -1.48021 1.2679 0
M  V30 8797 H 849.606 -2.97385 0.947023 0
M  V30 8798 N 849.908 -0.773975 -1.37286 0
M  V30 8799 C 851.133 -0.349561 -2.04433 0
M  V30 8800 C 851.558 1.02082 -1.5799 0
M  V30 8801 O 850.916 1.65458 -0.741172 0
M  V30 8802 C 850.964 -0.404292 -3.58326 0
M  V30 8803 O 850.068 0.594447 -4.08093 0
M  V30 8804 H 849.409 -0.150959 -0.646612 0
M  V30 8805 H 851.939 -1.05079 -1.75555 0
M  V30 8806 H 851.949 -0.262378 -4.07155 0
M  V30 8807 H 850.624 -1.40403 -3.91484 0
M  V30 8808 H 849.201 0.415468 -3.70578 0
M  V30 8809 N 851.386 1.48609 -0.524698 0
M  V30 8810 C 852.632 2.02797 0.0113382 0
M  V30 8811 C 852.965 1.40147 1.34433 0
M  V30 8812 O 852.24 0.545368 1.86698 0
M  V30 8813 C 852.523 3.59832 0.138931 0
M  V30 8814 C 852.376 4.32971 -1.21886 0
M  V30 8815 C 853.695 4.3145 0.868265 0
M  V30 8816 H 850.814 0.736995 0.00264645 0
M  V30 8817 H 853.456 1.77388 -0.680704 0
M  V30 8818 H 851.606 3.81612 0.72834 0
M  V30 8819 H 853.278 4.22624 -1.84897 0
M  V30 8820 H 851.521 3.94597 -1.80211 0
M  V30 8821 H 852.192 5.41279 -1.08263 0
M  V30 8822 H 854.668 4.14468 0.368145 0
M  V30 8823 H 853.544 5.41025 0.926428 0
M  V30 8824 H 853.805 3.98358 1.91737 0
M  V30 8825 N 852.864 0.259585 1.55447 0
M  V30 8826 C 854.112 -0.360893 1.98852 0
M  V30 8827 C 854.433 -1.57535 1.14924 0
M  V30 8828 O 853.703 -1.94485 0.235025 0
M  V30 8829 H 852.283 -0.136332 0.734454 0
M  V30 8830 H 854.945 0.361319 1.91522 0
M  V30 8831 H 854.041 -0.661388 3.05012 0
M  V30 8832 N 854.342 -1.57594 -0.0133615 0
M  V30 8833 C 855.274 -2.04402 -1.03695 0
M  V30 8834 C 856.287 -0.959546 -1.31516 0
M  V30 8835 O 857.476 -1.23659 -1.28727 0
M  V30 8836 C 854.576 -2.41766 -2.37491 0
M  V30 8837 C 853.749 -3.72785 -2.28802 0
M  V30 8838 C 852.808 -3.97165 -3.45176 0
M  V30 8839 O 851.834 -4.68013 -3.23963 0
M  V30 8840 N 853.036 -3.44021 -4.67579 0
M  V30 8841 H 855.801 -2.92833 -0.637874 0
M  V30 8842 H 853.362 -1.60647 -0.20101 0
M  V30 8843 H 855.354 -2.55201 -3.14093 0
M  V30 8844 H 853.924 -1.58924 -2.69188 0
M  V30 8845 H 853.144 -3.69555 -1.37197 0
M  V30 8846 H 854.432 -4.58704 -2.20154 0
M  V30 8847 H 853.83 -2.86623 -4.87713 0
M  V30 8848 H 852.387 -3.62808 -5.41492 0
M  V30 8849 N 855.82 0.285905 -1.54985 0
M  V30 8850 C 857.066 1.01669 -1.76168 0
M  V30 8851 C 857.421 1.84401 -0.549019 0
M  V30 8852 O 856.714 1.86034 0.458463 0
M  V30 8853 C 856.908 1.94193 -3.0004 0
M  V30 8854 C 856.737 1.20565 -4.33237 0
M  V30 8855 C 855.507 0.92661 -4.96731 0
M  V30 8856 C 857.705 0.602514 -5.10759 0
M  V30 8857 N 855.687 0.162185 -6.13686 0
M  V30 8858 C 857.058 -0.0283843 -6.19994 0
M  V30 8859 C 859.113 0.509067 -4.95291 0
M  V30 8860 C 857.816 -0.743706 -7.15445 0
M  V30 8861 C 859.842 -0.192633 -5.91086 0
M  V30 8862 C 859.204 -0.812321 -6.997 0
M  V30 8863 H 855.303 0.354451 -0.697057 0
M  V30 8864 H 857.887 0.293693 -1.92472 0
M  V30 8865 H 856.058 2.6373 -2.85133 0
M  V30 8866 H 857.79 2.60536 -3.09682 0
M  V30 8867 H 854.545 1.22861 -4.57386 0
M  V30 8868 H 854.969 -0.206982 -6.76684 0
M  V30 8869 H 859.611 0.973856 -4.11432 0
M  V30 8870 H 857.329 -1.22022 -7.98834 0
M  V30 8871 H 860.915 -0.265082 -5.81196 0
M  V30 8872 H 859.795 -1.34665 -7.72551 0
M  V30 8873 N 857.298 1.47698 0.54982 0
M  V30 8874 C 858.526 1.5833 1.33188 0
M  V30 8875 C 858.941 0.236193 1.87317 0
M  V30 8876 O 858.298 -0.77167 1.65383 0
M  V30 8877 C 858.349 2.61438 2.49664 0
M  V30 8878 O 858.07 3.9092 1.97771 0
M  V30 8879 C 859.571 2.82324 3.41772 0
M  V30 8880 H 856.791 0.53443 0.405741 0
M  V30 8881 H 859.335 1.93375 0.665309 0
M  V30 8882 H 857.49 2.29307 3.12245 0
M  V30 8883 H 857.904 4.47323 2.73866 0
M  V30 8884 H 859.378 3.58316 4.19897 0
M  V30 8885 H 859.855 1.90416 3.95776 0
M  V30 8886 H 860.461 3.15682 2.85 0
M  V30 8887 N 858.776 -0.797141 1.35954 0
M  V30 8888 C 859.739 -1.89104 1.29508 0
M  V30 8889 C 860.739 -1.59495 0.204444 0
M  V30 8890 O 861.929 -1.68051 0.458746 0
M  V30 8891 C 859.061 -3.25726 1.00576 0
M  V30 8892 H 860.254 -1.96237 2.26785 0
M  V30 8893 H 857.807 -0.994075 1.20614 0
M  V30 8894 H 858.542 -3.24279 0.0372519 0
M  V30 8895 H 858.327 -3.48604 1.79492 0
M  V30 8896 H 859.817 -4.0578 0.986508 0
M  V30 8897 N 860.254 -1.20106 -1.0204 0
M  V30 8898 C 861.67 -0.955099 -1.27867 0
M  V30 8899 C 861.87 0.367595 -1.98119 0
M  V30 8900 O 860.926 1.09705 -2.27423 0
M  V30 8901 C 862.239 -2.13507 -2.11744 0
M  V30 8902 C 863.787 -2.17563 -2.25023 0
M  V30 8903 C 864.262 -3.35035 -3.12275 0
M  V30 8904 N 865.753 -3.35024 -3.19864 0
M  V30 8905 C 866.488 -4.22566 -3.8759 0
M  V30 8906 N 865.984 -5.20278 -4.57474 0
M  V30 8907 N 867.777 -4.10418 -3.84075 0
M  V30 8908 H 859.928 -2.05193 -0.54861 0
M  V30 8909 H 862.191 -0.897689 -0.304728 0
M  V30 8910 H 861.897 -3.09275 -1.67456 0
M  V30 8911 H 861.771 -2.11281 -3.12474 0
M  V30 8912 H 864.158 -1.22359 -2.68537 0
M  V30 8913 H 864.239 -2.23838 -1.23815 0
M  V30 8914 H 863.883 -4.30522 -2.69468 0
M  V30 8915 H 863.813 -3.25996 -4.13563 0
M  V30 8916 H 866.304 -2.64299 -2.701 0
M  V30 8917 H 866.617 -5.83408 -5.06809 0
M  V30 8918 H 864.962 -5.24219 -4.56311 0
M  V30 8919 H 868.153 -3.33353 -3.28623 0
M  V30 8920 H 868.326 -4.78854 -4.36581 0
M  V30 8921 N 861.732 1.21287 -1.00634 0
M  V30 8922 C 862.98 1.90013 -0.688438 0
M  V30 8923 C 863.301 1.78573 0.783365 0
M  V30 8924 O 862.571 1.1815 1.56261 0
M  V30 8925 H 861.151 0.703336 -0.251648 0
M  V30 8926 H 863.813 1.47346 -1.27574 0
M  V30 8927 H 862.909 2.96879 -0.962781 0
M  V30 8928 N 863.21 0.781244 1.36873 0
M  V30 8929 C 864.621 0.414093 1.8205 0
M  V30 8930 C 864.972 -1.06098 1.65039 0
M  V30 8931 O 864.097 -1.82251 1.16677 0
M  V30 8932 C 864.692 0.744837 3.30511 0
M  V30 8933 C 863.251 0.430621 3.73929 0
M  V30 8934 C 862.398 0.983746 2.59264 0
M  V30 8935 H 865.349 0.975091 1.2521 0
M  V30 8936 H 865.37 0.032936 3.80486 0
M  V30 8937 H 864.882 1.81847 3.42861 0
M  V30 8938 H 862.983 -0.635308 3.67144 0
M  V30 8939 H 863.096 0.945514 4.69677 0
M  V30 8940 H 861.46 0.407433 2.5142 0
M  V30 8941 H 862.243 2.06297 2.74402 0
M  V30 8942 N 864.689 -1.48329 0.532571 0
M  V30 8943 C 865.652 -2.2816 -0.218069 0
M  V30 8944 C 866.652 -1.35526 -0.865409 0
M  V30 8945 O 867.842 -1.58394 -0.725061 0
M  V30 8946 C 864.974 -3.1448 -1.31586 0
M  V30 8947 H 866.167 -2.95987 0.482865 0
M  V30 8948 H 863.72 -1.53612 0.288603 0
M  V30 8949 H 864.455 -2.5129 -2.04997 0
M  V30 8950 H 864.24 -3.82625 -0.856779 0
M  V30 8951 H 865.73 -3.74693 -1.84377 0
M  V30 8952 N 866.167 -0.267825 -1.55308 0
M  V30 8953 C 867.077 0.633055 -2.25897 0
M  V30 8954 C 868.093 1.17613 -1.28231 0
M  V30 8955 O 869.269 1.20797 -1.61153 0
M  V30 8956 C 866.334 1.80397 -2.96071 0
M  V30 8957 C 865.395 1.29829 -4.09198 0
M  V30 8958 C 864.628 2.4134 -4.76016 0
M  V30 8959 O 864.851 3.60537 -4.42006 0
M  V30 8960 O 863.785 2.09909 -5.64111 0
M  V30 8961 H 867.611 0.0614381 -3.03638 0
M  V30 8962 H 865.196 -0.0355072 -1.49358 0
M  V30 8963 H 867.078 2.48685 -3.40197 0
M  V30 8964 H 865.753 2.36281 -2.21253 0
M  V30 8965 H 864.66 0.582086 -3.69544 0
M  V30 8966 H 865.993 0.785288 -4.85895 0
M  V30 8967 N 867.645 1.57599 0.00500368 0
M  V30 8968 C 868.891 1.90631 0.691919 0
M  V30 8969 C 869.224 0.868443 1.737 0
M  V30 8970 O 868.499 -0.113482 1.94169 0
M  V30 8971 C 868.782 3.34255 1.33961 0
M  V30 8972 C 868.635 4.48755 0.306413 0
M  V30 8973 C 869.954 3.77211 2.26715 0
M  V30 8974 H 867.073 0.693279 0.250066 0
M  V30 8975 H 869.715 1.89946 -0.0452634 0
M  V30 8976 H 867.865 3.3497 1.96793 0
M  V30 8977 H 869.537 4.60176 -0.321841 0
M  V30 8978 H 867.78 4.32203 -0.371852 0
M  V30 8979 H 868.451 5.46193 0.798554 0
M  V30 8980 H 870.927 3.78017 1.73904 0
M  V30 8981 H 869.803 4.78466 2.69002 0
M  V30 8982 H 870.064 3.10801 3.14413 0
M  V30 8983 N 869.123 -0.277682 1.55134 0
M  V30 8984 C 870.053 -1.34742 1.90701 0
M  V30 8985 C 871.034 -1.51757 0.768354 0
M  V30 8986 O 872.219 -1.64879 1.02609 0
M  V30 8987 C 869.349 -2.70775 2.17481 0
M  V30 8988 C 868.303 -2.68497 3.33307 0
M  V30 8989 C 867.629 -4.08037 3.45557 0
M  V30 8990 C 868.929 -2.28178 4.69821 0
M  V30 8991 H 870.623 -1.05224 2.803 0
M  V30 8992 H 868.169 -0.504738 1.34864 0
M  V30 8993 H 870.122 -3.45719 2.40949 0
M  V30 8994 H 868.846 -3.01867 1.24676 0
M  V30 8995 H 867.505 -1.9601 3.09799 0
M  V30 8996 H 867.153 -4.36344 2.50226 0
M  V30 8997 H 866.853 -4.07409 4.23429 0
M  V30 8998 H 868.377 -4.84726 3.71312 0
M  V30 8999 H 869.791 -2.92843 4.92865 0
M  V30 9000 H 868.188 -2.3872 5.50575 0
M  V30 9001 H 869.258 -1.23308 4.6896 0
M  V30 9002 N 870.601 -1.47988 -0.541979 0
M  V30 9003 C 871.531 -1.64503 -1.65713 0
M  V30 9004 C 872.512 -0.494116 -1.62765 0
M  V30 9005 O 873.697 -0.725256 -1.80149 0
M  V30 9006 C 870.827 -1.67337 -3.04328 0
M  V30 9007 C 869.781 -2.81809 -3.2213 0
M  V30 9008 C 869.107 -2.69724 -4.61685 0
M  V30 9009 C 870.407 -4.23241 -3.06046 0
M  V30 9010 H 872.101 -2.5786 -1.52147 0
M  V30 9011 H 869.647 -1.24094 -0.730529 0
M  V30 9012 H 871.6 -1.77481 -3.82202 0
M  V30 9013 H 870.324 -0.705514 -3.18889 0
M  V30 9014 H 868.983 -2.71201 -2.46669 0
M  V30 9015 H 868.631 -1.70934 -4.73065 0
M  V30 9016 H 868.331 -3.4653 -4.74543 0
M  V30 9017 H 869.855 -2.81818 -5.41674 0
M  V30 9018 H 871.269 -4.34746 -3.73723 0
M  V30 9019 H 869.666 -5.00952 -3.30405 0
M  V30 9020 H 870.736 -4.40543 -2.02609 0
M  V30 9021 N 872.079 0.78992 -1.36375 0
M  V30 9022 C 873.304 1.58389 -1.33895 0
M  V30 9023 C 873.729 1.8794 0.0774934 0
M  V30 9024 O 873.087 1.4785 1.0493 0
M  V30 9025 C 873.135 2.88201 -2.16732 0
M  V30 9026 O 872.239 3.81778 -1.55946 0
M  V30 9027 H 871.58 0.480471 -0.458305 0
M  V30 9028 H 874.11 0.979119 -1.79651 0
M  V30 9029 H 874.12 3.37475 -2.29292 0
M  V30 9030 H 872.795 2.66019 -3.19698 0
M  V30 9031 H 871.372 3.40371 -1.52323 0
M  V30 9032 N 873.557 1.20646 1.01402 0
M  V30 9033 C 874.805 1.01618 1.74695 0
M  V30 9034 C 875.126 -0.452438 1.89679 0
M  V30 9035 O 874.396 -1.32693 1.44116 0
M  V30 9036 H 872.976 0.373013 0.647202 0
M  V30 9037 H 875.638 1.518 1.22241 0
M  V30 9038 H 874.734 1.47666 2.74957 0
M  V30 9039 N 875.035 -1.20752 1.01276 0
M  V30 9040 C 876.451 -1.42084 0.726934 0
M  V30 9041 C 876.651 -1.89138 -0.694907 0
M  V30 9042 O 875.707 -2.05783 -1.4632 0
M  V30 9043 C 877.02 -2.44575 1.74938 0
M  V30 9044 C 878.568 -2.58347 1.76708 0
M  V30 9045 C 879.043 -3.64078 2.77869 0
M  V30 9046 N 880.534 -3.71558 2.76585 0
M  V30 9047 C 881.269 -4.53016 3.51517 0
M  V30 9048 N 880.765 -5.38309 4.36114 0
M  V30 9049 N 882.558 -4.47512 3.40132 0
M  V30 9050 H 874.709 -0.885228 1.93074 0
M  V30 9051 H 876.972 -0.451075 0.833808 0
M  V30 9052 H 876.678 -2.1699 2.76782 0
M  V30 9053 H 876.552 -3.43503 1.55838 0
M  V30 9054 H 878.939 -2.85265 0.755516 0
M  V30 9055 H 879.02 -1.59628 1.99882 0
M  V30 9056 H 878.664 -3.37905 3.79187 0
M  V30 9057 H 878.594 -4.62412 2.51958 0
M  V30 9058 H 881.085 -3.10629 2.15216 0
M  V30 9059 H 881.398 -5.9754 4.90068 0
M  V30 9060 H 879.743 -5.37824 4.40194 0
M  V30 9061 H 882.934 -3.79912 2.73467 0
M  V30 9062 H 883.107 -5.10759 3.98784 0
M  V30 9063 N 876.513 -0.788492 -1.36457 0
M  V30 9064 C 877.741 -0.372365 -2.03522 0
M  V30 9065 C 878.156 1.01093 -1.59454 0
M  V30 9066 O 877.513 1.64824 -0.783535 0
M  V30 9067 C 877.564 -0.425435 -3.58988 0
M  V30 9068 O 877.285 -1.75418 -4.01448 0
M  V30 9069 C 878.786 0.000180167 -4.433 0
M  V30 9070 H 876.006 -0.1536 -0.653183 0
M  V30 9071 H 878.55 -1.06708 -1.74452 0
M  V30 9072 H 876.705 0.220856 -3.8677 0
M  V30 9073 H 877.119 -1.70437 -4.96036 0
M  V30 9074 H 878.593 -0.0880919 -5.5193 0
M  V30 9075 H 879.07 1.05269 -4.26398 0
M  V30 9076 H 879.676 -0.618563 -4.20778 0
M  V30 9077 N 877.991 1.48044 -0.54043 0
M  V30 9078 C 878.954 2.28273 0.205966 0
M  V30 9079 C 879.954 1.35983 0.858209 0
M  V30 9080 O 881.144 1.58776 0.716651 0
M  V30 9081 C 878.276 3.15174 1.29917 0
M  V30 9082 H 879.469 2.95727 -0.498555 0
M  V30 9083 H 877.022 1.53457 -0.296745 0
M  V30 9084 H 877.757 2.52374 2.03661 0
M  V30 9085 H 877.542 3.83074 0.836475 0
M  V30 9086 H 879.032 3.75666 1.82387 0
M  V30 9087 N 879.47 0.276058 1.55163 0
M  V30 9088 C 880.7 -0.343274 2.03728 0
M  V30 9089 C 881.108 -1.49945 1.15383 0
M  V30 9090 O 880.451 -1.82942 0.166696 0
M  V30 9091 C 880.513 -0.885683 3.48419 0
M  V30 9092 C 880.177 0.141976 4.56779 0
M  V30 9093 C 881.174 0.961816 5.10926 0
M  V30 9094 C 878.859 0.276487 5.01538 0
M  V30 9095 C 880.853 1.90234 6.0835 0
M  V30 9096 C 878.54 1.22049 5.98788 0
M  V30 9097 C 879.538 2.03192 6.52075 0
M  V30 9098 O 879.226 2.95996 7.47423 0
M  V30 9099 H 878.958 -0.0822192 0.670981 0
M  V30 9100 H 881.512 0.406199 2.01343 0
M  V30 9101 H 879.742 -1.68524 3.48047 0
M  V30 9102 H 881.431 -1.4182 3.80318 0
M  V30 9103 H 882.197 0.868637 4.77158 0
M  V30 9104 H 878.076 -0.345095 4.59707 0
M  V30 9105 H 881.62 2.5361 6.49867 0
M  V30 9106 H 877.517 1.31448 6.31974 0
M  V30 9107 H 878.285 2.90688 7.65142 0
M  V30 9108 N 880.948 -1.576 0.00335426 0
M  V30 9109 C 881.895 -2.08632 -0.986975 0
M  V30 9110 C 882.865 -0.982491 -1.33927 0
M  V30 9111 O 884.05 -1.25513 -1.43705 0
M  V30 9112 C 881.19 -2.59705 -2.27261 0
M  V30 9113 C 880.303 -3.84002 -1.97905 0
M  V30 9114 C 879.438 -4.23563 -3.20574 0
M  V30 9115 C 878.477 -5.40688 -2.8692 0
M  V30 9116 N 877.614 -5.75526 -4.02136 0
M  V30 9117 H 882.454 -2.92977 -0.544855 0
M  V30 9118 H 879.991 -1.44831 -0.257376 0
M  V30 9119 H 881.949 -2.87395 -3.02423 0
M  V30 9120 H 880.579 -1.7823 -2.69136 0
M  V30 9121 H 879.631 -3.63199 -1.13096 0
M  V30 9122 H 880.943 -4.69261 -1.69102 0
M  V30 9123 H 880.097 -4.52554 -4.04079 0
M  V30 9124 H 878.836 -3.37019 -3.52518 0
M  V30 9125 H 877.841 -5.11417 -2.01822 0
M  V30 9126 H 879.066 -6.2891 -2.5622 0
M  V30 9127 H 877.012 -4.9194 -4.33971 0
M  V30 9128 H 876.929 -6.55367 -3.76869 0
M  V30 9129 H 878.197 -6.0911 -4.8642 0
M  V30 9130 N 882.426 0.269451 -1.5528 0
M  V30 9131 C 883.674 0.998604 -1.75705 0
M  V30 9132 C 883.995 1.86691 -0.563175 0
M  V30 9133 O 883.265 1.91305 0.421811 0
M  V30 9134 H 881.845 0.371698 -0.647958 0
M  V30 9135 H 884.507 0.292826 -1.92688 0
M  V30 9136 H 883.603 1.63348 -2.6594 0
M  V30 9137 N 883.904 1.48273 0.534124 0
M  V30 9138 C 885.129 1.59988 1.31979 0
M  V30 9139 C 885.554 0.258824 1.86311 0
M  V30 9140 O 884.912 -0.768885 1.64188 0
M  V30 9141 C 884.96 2.64642 2.44943 0
M  V30 9142 O 884.064 2.21515 3.47858 0
M  V30 9143 H 883.405 0.536625 0.391063 0
M  V30 9144 H 885.935 1.94229 0.643135 0
M  V30 9145 H 885.945 2.85786 2.91187 0
M  V30 9146 H 884.62 3.62004 2.04758 0
M  V30 9147 H 883.197 2.10567 3.0776 0
M  V30 9148 N 885.382 -0.782676 1.36792 0
M  V30 9149 C 886.292 -1.92679 1.33835 0
M  V30 9150 C 887.308 -1.72344 0.23952 0
M  V30 9151 O 888.484 -1.95766 0.473045 0
M  V30 9152 C 885.549 -3.27644 1.1336 0
M  V30 9153 C 884.61 -3.6071 2.32781 0
M  V30 9154 C 883.843 -4.89234 2.13273 0
M  V30 9155 O 884.066 -5.59468 1.11136 0
M  V30 9156 O 883 -5.21112 3.01208 0
M  V30 9157 H 886.826 -1.98124 2.30175 0
M  V30 9158 H 884.411 -0.923887 1.17408 0
M  V30 9159 H 886.293 -4.08394 1.03886 0
M  V30 9160 H 884.968 -3.23076 0.200868 0
M  V30 9161 H 883.875 -2.80238 2.47825 0
M  V30 9162 H 885.208 -3.70008 3.24584 0
M  V30 9163 N 886.86 -1.21182 -1.00761 0
M  V30 9164 C 888.085 -1.05411 -1.78615 0
M  V30 9165 C 888.51 0.391837 -1.83973 0
M  V30 9166 O 887.868 1.28256 -1.28141 0
M  V30 9167 C 887.916 -1.65285 -3.20489 0
M  V30 9168 O 887.02 -0.896558 -4.02536 0
M  V30 9169 H 886.361 -0.37116 -0.550578 0
M  V30 9170 H 888.891 -1.60669 -1.26676 0
M  V30 9171 H 888.901 -1.69397 -3.71172 0
M  V30 9172 H 887.576 -2.70514 -3.15904 0
M  V30 9173 H 886.153 -0.930335 -3.61108 0
M  V30 9174 N 888.338 1.20213 -1.01915 0
M  V30 9175 C 889.268 2.25336 -0.612023 0
M  V30 9176 C 890.249 1.65933 0.374186 0
M  V30 9177 O 891.434 1.92464 0.259053 0
M  V30 9178 C 888.564 3.47267 0.047904 0
M  V30 9179 C 887.518 4.1928 -0.859557 0
M  V30 9180 C 886.844 5.3466 -0.0652655 0
M  V30 9181 C 888.144 4.75143 -2.1688 0
M  V30 9182 H 889.838 2.59645 -1.49079 0
M  V30 9183 H 887.384 1.24808 -0.718263 0
M  V30 9184 H 889.337 4.19991 0.344294 0
M  V30 9185 H 888.061 3.12129 0.961404 0
M  V30 9186 H 886.72 3.48425 -1.13999 0
M  V30 9187 H 886.368 4.95767 0.849964 0
M  V30 9188 H 886.068 5.83772 -0.669618 0
M  V30 9189 H 887.592 6.10187 0.224612 0
M  V30 9190 H 889.006 5.39672 -1.9346 0
M  V30 9191 H 887.403 5.34702 -2.72422 0
M  V30 9192 H 888.473 3.93744 -2.83008 0
M  V30 9193 N 889.816 0.795718 1.36037 0
M  V30 9194 C 890.746 0.212803 2.32528 0
M  V30 9195 C 891.727 -0.655716 1.56953 0
M  V30 9196 O 892.912 -0.588238 1.85077 0
M  V30 9197 C 890.042 -0.648189 3.41198 0
M  V30 9198 C 888.996 0.120948 4.27829 0
M  V30 9199 C 888.322 -0.861044 5.27722 0
M  V30 9200 C 889.622 1.31375 5.05508 0
M  V30 9201 H 891.316 1.01893 2.81528 0
M  V30 9202 H 888.862 0.491422 1.35355 0
M  V30 9203 H 890.815 -1.06597 4.07695 0
M  V30 9204 H 889.539 -1.48709 2.9078 0
M  V30 9205 H 888.198 0.519777 3.62897 0
M  V30 9206 H 887.846 -1.69515 4.73575 0
M  V30 9207 H 887.546 -0.350808 5.86552 0
M  V30 9208 H 889.07 -1.27726 5.97092 0
M  V30 9209 H 890.484 0.971406 5.6501 0
M  V30 9210 H 888.881 1.75772 5.73781 0
M  V30 9211 H 889.951 2.10593 4.36782 0
M  V30 9212 N 891.294 -1.47756 0.548274 0
M  V30 9213 C 892.54 -2.02789 0.0209265 0
M  V30 9214 C 892.873 -1.42268 -1.32187 0
M  V30 9215 O 892.148 -0.575001 -1.85806 0
M  V30 9216 C 892.431 -3.60007 -0.0816674 0
M  V30 9217 C 892.284 -4.30977 1.28759 0
M  V30 9218 C 893.603 -4.32777 -0.799515 0
M  V30 9219 H 890.722 -0.736944 0.00907884 0
M  V30 9220 H 893.364 -1.76282 0.708839 0
M  V30 9221 H 891.514 -3.82722 -0.667537 0
M  V30 9222 H 893.186 -4.19629 1.91597 0
M  V30 9223 H 891.429 -3.9168 1.86466 0
M  V30 9224 H 892.1 -5.39488 1.16861 0
M  V30 9225 H 894.576 -4.15001 -0.30216 0
M  V30 9226 H 893.452 -5.42431 -0.840239 0
M  V30 9227 H 893.713 -4.01358 -1.85375 0
M  V30 9228 N 892.772 -0.284283 -1.55015 0
M  V30 9229 C 894.188 0.069603 -1.59448 0
M  V30 9230 C 894.388 1.53833 -1.30144 0
M  V30 9231 O 893.444 2.2886 -1.06674 0
M  V30 9232 C 894.757 -0.313287 -2.99064 0
M  V30 9233 C 896.305 -0.260662 -3.11913 0
M  V30 9234 C 896.78 -0.618127 -4.5381 0
M  V30 9235 N 898.271 -0.570026 -4.59679 0
M  V30 9236 C 899.006 -0.8193 -5.67517 0
M  V30 9237 N 898.502 -1.13367 -6.83462 0
M  V30 9238 N 900.295 -0.747482 -5.57108 0
M  V30 9239 H 892.446 -1.24167 -1.72326 0
M  V30 9240 H 894.709 -0.502259 -0.804015 0
M  V30 9241 H 894.415 -1.33509 -3.25374 0
M  V30 9242 H 894.289 0.341369 -3.75652 0
M  V30 9243 H 896.676 0.751869 -2.85361 0
M  V30 9244 H 896.757 -0.949706 -2.37517 0
M  V30 9245 H 896.401 -1.62839 -4.81088 0
M  V30 9246 H 896.331 0.092807 -5.26518 0
M  V30 9247 H 898.822 -0.3373 -3.76392 0
M  V30 9248 H 899.135 -1.3103 -7.61611 0
M  V30 9249 H 897.48 -1.17154 -6.85055 0
M  V30 9250 H 900.671 -0.501658 -4.65404 0
M  V30 9251 H 900.844 -0.945128 -6.4107 0
M  V30 9252 N 894.251 1.57596 -0.0117121 0
M  V30 9253 C 895.199 2.1029 0.994035 0
M  V30 9254 C 896.193 1.02549 1.34833 0
M  V30 9255 O 897.399 1.21003 1.3326 0
M  V30 9256 H 893.774 0.671624 0.338268 0
M  V30 9257 H 895.745 2.93761 0.524147 0
M  V30 9258 C 894.494 2.63099 2.27319 0
M  V30 9259 H 893.817 3.45642 2.00927 0
M  V30 9260 H 895.257 3.03635 2.95942 0
M  V30 9261 C 893.716 1.55044 2.99104 0
M  V30 9262 O 894.246 0.940127 3.90544 0
M  V30 9263 N 892.452 1.27506 2.61133 0
M  V30 9264 H 891.999 1.77322 1.86855 0
M  V30 9265 H 891.957 0.554292 3.09475 0
M  V30 9266 N 895.729 -0.261212 1.5542 0
M  V30 9267 C 897.145 -0.609012 1.47524 0
M  V30 9268 C 897.345 -1.88986 0.699042 0
M  V30 9269 O 896.401 -2.51517 0.222628 0
M  V30 9270 C 897.714 -0.725025 2.91828 0
M  V30 9271 C 899.262 -0.818302 3.02114 0
M  V30 9272 C 899.737 -0.965996 4.47697 0
M  V30 9273 N 901.228 -1.03123 4.51575 0
M  V30 9274 C 901.963 -1.16451 5.6145 0
M  V30 9275 N 901.459 -1.26425 6.81167 0
M  V30 9276 N 903.252 -1.19655 5.49217 0
M  V30 9277 H 895.403 0.579807 2.04333 0
M  V30 9278 H 897.666 0.198072 0.927077 0
M  V30 9279 H 897.372 0.145871 3.51397 0
M  V30 9280 H 897.246 -1.60156 3.41511 0
M  V30 9281 H 899.633 -1.67966 2.42634 0
M  V30 9282 H 899.714 0.0830895 2.55665 0
M  V30 9283 H 899.358 -0.109251 5.07782 0
M  V30 9284 H 899.288 -1.88221 4.91813 0
M  V30 9285 H 901.779 -0.966072 3.65343 0
M  V30 9286 H 902.092 -1.36462 7.60656 0
M  V30 9287 H 900.437 -1.23408 6.83956 0
M  V30 9288 H 903.628 -1.11501 4.54626 0
M  V30 9289 H 903.801 -1.29698 6.34888 0
M  V30 9290 N 897.207 -1.48554 -0.526253 0
M  V30 9291 C 898.435 -1.60429 -1.30652 0
M  V30 9292 C 898.85 -0.265963 -1.86917 0
M  V30 9293 O 898.207 0.745262 -1.6659 0
M  V30 9294 C 898.258 -2.65377 -2.45473 0
M  V30 9295 O 897.979 -3.94017 -1.91527 0
M  V30 9296 C 899.48 -2.87726 -3.37237 0
M  V30 9297 H 896.7 -0.540817 -0.397187 0
M  V30 9298 H 899.244 -1.94409 -0.634461 0
M  V30 9299 H 897.399 -2.34246 -3.08557 0
M  V30 9300 H 897.813 -4.51623 -2.66715 0
M  V30 9301 H 899.287 -3.64951 -4.14144 0
M  V30 9302 H 899.764 -1.96688 -3.92696 0
M  V30 9303 H 900.37 -3.20176 -2.79942 0
M  V30 9304 N 898.685 0.775411 -1.37205 0
M  V30 9305 C 899.648 1.8702 -1.325 0
M  V30 9306 C 900.648 1.5915 -0.229793 0
M  V30 9307 O 901.838 1.673 -0.485423 0
M  V30 9308 C 898.97 3.24085 -1.05745 0
M  V30 9309 H 900.163 1.92604 -2.29878 0
M  V30 9310 H 897.716 0.97476 -1.22181 0
M  V30 9311 H 898.451 3.24178 -0.0888371 0
M  V30 9312 H 898.236 3.45705 -1.85016 0
M  V30 9313 H 899.726 4.0416 -1.05094 0
M  V30 9314 N 900.163 1.21714 1.00117 0
M  V30 9315 C 901.126 0.981338 2.07129 0
M  V30 9316 C 902.126 -0.0491116 1.60725 0
M  V30 9317 O 903.316 0.188555 1.73177 0
M  V30 9318 C 900.448 0.480608 3.37495 0
M  V30 9319 H 901.641 1.93075 2.29482 0
M  V30 9320 H 899.194 1.03467 1.17151 0
M  V30 9321 H 899.929 -0.473552 3.20824 0
M  V30 9322 H 899.714 1.22393 3.72508 0
M  V30 9323 H 901.204 0.33561 4.16249 0
M  V30 9324 N 901.641 -1.19671 1.02551 0
M  V30 9325 C 902.887 -1.89818 0.730801 0
M  V30 9326 C 903.242 -1.77917 -0.732355 0
M  V30 9327 O 902.535 -1.15848 -1.5261 0
M  V30 9328 C 902.729 -3.39647 1.11241 0
M  V30 9329 C 902.558 -3.66129 2.61112 0
M  V30 9330 C 901.328 -3.84348 3.28032 0
M  V30 9331 C 903.526 -3.67963 3.59316 0
M  V30 9332 N 901.508 -3.98429 4.67041 0
M  V30 9333 C 902.879 -3.87575 4.83927 0
M  V30 9334 C 904.934 -3.50971 3.53162 0
M  V30 9335 C 903.637 -3.91957 6.03127 0
M  V30 9336 C 905.663 -3.56629 4.71773 0
M  V30 9337 C 905.025 -3.76722 5.95197 0
M  V30 9338 H 901.124 -0.713873 0.319232 0
M  V30 9339 H 903.708 -1.43844 1.31213 0
M  V30 9340 H 901.879 -3.84352 0.559324 0
M  V30 9341 H 903.611 -3.97301 0.77031 0
M  V30 9342 H 900.366 -3.83097 2.78448 0
M  V30 9343 H 900.79 -4.09327 5.39241 0
M  V30 9344 H 905.432 -3.34395 2.58728 0
M  V30 9345 H 903.15 -4.07326 6.97933 0
M  V30 9346 H 906.736 -3.44777 4.68637 0
M  V30 9347 H 905.616 -3.8097 6.85442 0
M  V30 9348 N 903.119 -0.802921 -1.35613 0
M  V30 9349 C 904.067 -0.198783 -2.31749 0
M  V30 9350 C 905.061 0.649416 -1.56458 0
M  V30 9351 O 906.267 0.542989 -1.71615 0
M  V30 9352 H 902.642 -0.0455177 -0.750621 0
M  V30 9353 H 904.613 -1.02479 -2.80251 0
M  V30 9354 C 903.362 0.641066 -3.41739 0
M  V30 9355 H 902.685 -0.00226244 -3.998 0
M  V30 9356 H 904.125 1.03022 -4.11294 0
M  V30 9357 C 902.584 1.80505 -2.84464 0
M  V30 9358 O 903.114 2.90235 -2.77717 0
M  V30 9359 N 901.32 1.61542 -2.41563 0
M  V30 9360 H 900.867 0.722863 -2.4725 0
M  V30 9361 H 900.825 2.39581 -2.03589 0
M  V30 9362 N 904.597 1.47463 -0.556102 0
M  V30 9363 C 905.845 2.02075 -0.0315712 0
M  V30 9364 C 906.166 1.43292 1.32259 0
M  V30 9365 O 905.436 0.60771 1.86236 0
M  V30 9366 H 904.016 0.74695 -0.0086816 0
M  V30 9367 H 906.678 1.80879 -0.725859 0
M  V30 9368 H 905.774 3.12047 0.0573538 0
M  V30 9369 N 906.075 0.2925 1.54862 0
M  V30 9370 C 907.038 -0.574423 2.21885 0
M  V30 9371 C 908.038 -1.06791 1.20218 0
M  V30 9372 O 909.228 -0.9653 1.45009 0
M  V30 9373 C 906.36 -1.79438 2.89853 0
M  V30 9374 H 907.553 0.0110319 2.99898 0
M  V30 9375 H 905.106 0.043256 1.5624 0
M  V30 9376 H 905.841 -2.4199 2.15897 0
M  V30 9377 H 905.626 -1.44827 3.64373 0
M  V30 9378 H 907.116 -2.41048 3.41007 0
M  V30 9379 N 907.553 -1.57587 0.0200696 0
M  V30 9380 C 908.485 -2.06555 -0.993359 0
M  V30 9381 C 909.498 -0.987227 -1.29451 0
M  V30 9382 O 910.687 -1.26361 -1.26075 0
M  V30 9383 C 907.787 -2.4675 -2.3231 0
M  V30 9384 C 906.96 -3.77554 -2.20843 0
M  V30 9385 C 906.019 -4.04397 -3.36674 0
M  V30 9386 O 905.045 -4.7478 -3.13963 0
M  V30 9387 N 906.247 -3.53861 -4.60176 0
M  V30 9388 H 909.012 -2.9412 -0.575617 0
M  V30 9389 H 906.573 -1.61038 -0.166889 0
M  V30 9390 H 908.565 -2.61806 -3.08609 0
M  V30 9391 H 907.135 -1.64598 -2.65756 0
M  V30 9392 H 906.355 -3.72382 -1.29327 0
M  V30 9393 H 907.643 -4.63271 -2.10375 0
M  V30 9394 H 907.041 -2.96904 -4.81523 0
M  V30 9395 H 905.598 -3.74213 -5.33674 0
M  V30 9396 N 909.032 0.252966 -1.55557 0
M  V30 9397 C 910.448 0.60118 -1.47844 0
M  V30 9398 C 910.648 1.88612 -0.709055 0
M  V30 9399 O 909.704 2.51395 -0.235964 0
M  V30 9400 C 911.017 0.709539 -2.92209 0
M  V30 9401 C 912.565 0.802269 -3.02544 0
M  V30 9402 C 913.04 0.94224 -4.48203 0
M  V30 9403 N 914.531 1.00726 -4.52116 0
M  V30 9404 C 915.266 1.13472 -5.6206 0
M  V30 9405 N 914.762 1.22811 -6.81828 0
M  V30 9406 N 916.555 1.1674 -5.49844 0
M  V30 9407 H 908.706 -0.590635 -2.04023 0
M  V30 9408 H 910.969 -0.202986 -0.926013 0
M  V30 9409 H 910.675 -0.164505 -3.51315 0
M  V30 9410 H 910.549 1.58343 -3.42356 0
M  V30 9411 H 912.936 1.66677 -2.43522 0
M  V30 9412 H 913.017 -0.0966469 -2.55617 0
M  V30 9413 H 912.661 0.0823209 -5.07833 0
M  V30 9414 H 912.591 1.85611 -4.92805 0
M  V30 9415 H 915.082 0.946684 -3.6585 0
M  V30 9416 H 915.395 1.32426 -7.61369 0
M  V30 9417 H 913.74 1.19779 -6.84601 0
M  V30 9418 H 916.931 1.09089 -4.55211 0
M  V30 9419 H 917.104 1.26329 -6.35567 0
M  V30 9420 N 910.51 1.48831 0.518367 0
M  V30 9421 C 911.473 1.63721 1.604 0
M  V30 9422 C 912.473 0.509857 1.52503 0
M  V30 9423 O 913.663 0.775922 1.55965 0
M  V30 9424 C 910.795 1.61831 3.00039 0
M  V30 9425 H 911.988 2.60534 1.48533 0
M  V30 9426 H 909.541 1.37602 0.741309 0
M  V30 9427 H 910.276 0.665387 3.17401 0
M  V30 9428 H 910.061 2.43686 3.0718 0
M  V30 9429 H 911.551 1.75467 3.78947 0
M  V30 9430 N 911.988 -0.768124 1.37614 0
M  V30 9431 C 912.918 -1.89537 1.36374 0
M  V30 9432 C 913.899 -1.68513 0.231803 0
M  V30 9433 O 915.084 -1.89318 0.432705 0
M  V30 9434 C 912.214 -3.26871 1.17358 0
M  V30 9435 C 911.168 -3.62466 2.27602 0
M  V30 9436 C 910.494 -4.9838 1.93705 0
M  V30 9437 C 911.794 -3.68841 3.69802 0
M  V30 9438 H 913.488 -1.90832 2.30702 0
M  V30 9439 H 911.034 -0.91672 1.11051 0
M  V30 9440 H 912.987 -4.05371 1.15119 0
M  V30 9441 H 911.711 -3.26018 0.194865 0
M  V30 9442 H 910.37 -2.86276 2.29002 0
M  V30 9443 H 910.018 -4.94071 0.943539 0
M  V30 9444 H 909.718 -5.23165 2.6753 0
M  V30 9445 H 911.242 -5.79276 1.93059 0
M  V30 9446 H 912.656 -4.37485 3.70513 0
M  V30 9447 H 911.053 -4.05126 4.42711 0
M  V30 9448 H 912.123 -2.69415 4.03167 0
M  V30 9449 N 913.466 -1.22244 -0.994698 0
M  V30 9450 C 914.414 -0.988118 -2.10568 0
M  V30 9451 C 915.408 0.0681541 -1.69263 0
M  V30 9452 O 916.614 -0.0841311 -1.79803 0
M  V30 9453 H 912.989 -0.302343 -0.688544 0
M  V30 9454 H 914.96 -1.93091 -2.27505 0
M  V30 9455 C 913.709 -0.580557 -3.42819 0
M  V30 9456 H 913.032 -1.385 -3.75044 0
M  V30 9457 H 914.472 -0.456004 -4.21541 0
M  V30 9458 C 912.931 0.709692 -3.2934 0
M  V30 9459 O 913.461 1.76259 -3.60965 0
M  V30 9460 N 911.667 0.680155 -2.82528 0
M  V30 9461 H 911.214 -0.176977 -2.56991 0
M  V30 9462 H 911.172 1.54372 -2.73892 0
M  V30 9463 N 914.944 1.19125 -1.03184 0
M  V30 9464 C 916.355 1.70564 -0.759264 0
M  V30 9465 C 916.706 1.8248 0.720794 0
M  V30 9466 O 915.831 1.49804 1.56166 0
M  V30 9467 C 916.426 3.09793 -1.37163 0
M  V30 9468 C 914.985 3.5848 -1.14757 0
M  V30 9469 C 914.132 2.35265 -1.46784 0
M  V30 9470 H 917.083 1.03925 -1.19939 0
M  V30 9471 H 917.104 3.72624 -0.77015 0
M  V30 9472 H 916.616 3.01088 -2.44882 0
M  V30 9473 H 914.717 3.72494 -0.0887182 0
M  V30 9474 H 914.83 4.42426 -1.83836 0
M  V30 9475 H 913.194 2.38747 -0.887254 0
M  V30 9476 H 913.977 2.29188 -2.55593 0
M  V30 9477 N 916.422 0.810101 1.35185 0
M  V30 9478 C 917.838 0.494269 1.51754 0
M  V30 9479 C 918.038 -0.983907 1.75845 0
M  V30 9480 O 917.094 -1.76882 1.80191 0
M  V30 9481 C 918.407 1.34268 2.69059 0
M  V30 9482 C 919.955 1.33848 2.82938 0
M  V30 9483 C 920.43 2.17109 4.03271 0
M  V30 9484 N 921.921 2.14664 4.10456 0
M  V30 9485 C 922.656 2.75843 5.02691 0
M  V30 9486 N 922.152 3.45962 6.00235 0
M  V30 9487 N 923.945 2.65465 4.95464 0
M  V30 9488 H 916.096 1.76736 1.17805 0
M  V30 9489 H 918.359 0.752429 0.576676 0
M  V30 9490 H 918.065 2.39183 2.57845 0
M  V30 9491 H 917.939 0.998362 3.63748 0
M  V30 9492 H 920.326 0.29716 2.936 0
M  V30 9493 H 920.407 1.72269 1.89095 0
M  V30 9494 H 920.051 3.21283 3.93369 0
M  V30 9495 H 919.981 1.76046 4.96302 0
M  V30 9496 H 922.472 1.63648 3.40628 0
M  V30 9497 H 922.785 3.89922 6.67219 0
M  V30 9498 H 921.13 3.50067 6.00398 0
M  V30 9499 H 924.321 2.1027 4.18215 0
M  V30 9500 H 924.494 3.13433 5.67154 0
M  V30 9501 N 917.9 -1.47166 0.563914 0
M  V30 9502 C 919.128 -2.06846 0.0474287 0
M  V30 9503 C 919.543 -1.41557 -1.24928 0
M  V30 9504 O 918.9 -0.514376 -1.75101 0
M  V30 9505 C 918.951 -3.6121 -0.144831 0
M  V30 9506 O 918.672 -4.24052 1.10053 0
M  V30 9507 C 920.173 -4.37773 -0.69783 0
M  V30 9508 H 917.393 -0.669217 0.0488896 0
M  V30 9509 H 919.937 -1.89072 0.779235 0
M  V30 9510 H 918.092 -3.78474 -0.82679 0
M  V30 9511 H 918.506 -5.16677 0.902481 0
M  V30 9512 H 919.98 -5.46438 -0.781616 0
M  V30 9513 H 920.457 -4.04517 -1.71063 0
M  V30 9514 H 921.063 -4.25269 -0.0513516 0
M  V30 9515 N 919.378 -0.300708 -1.54705 0
M  V30 9516 C 920.625 0.308654 -2.00134 0
M  V30 9517 C 920.953 1.53918 -1.1891 0
M  V30 9518 O 920.208 1.94054 -0.253263 0
M  V30 9519 C 920.507 0.710108 -3.50275 0
M  V30 9520 C 920.173 -0.418651 -4.48952 0
M  V30 9521 C 918.835 -0.728524 -4.75653 0
M  V30 9522 C 921.187 -1.17797 -5.07714 0
M  V30 9523 C 918.515 -1.80085 -5.58378 0
M  V30 9524 C 920.867 -2.24022 -5.91606 0
M  V30 9525 C 919.531 -2.55616 -6.16617 0
M  V30 9526 H 918.801 0.112945 -0.732342 0
M  V30 9527 H 921.448 -0.419744 -1.86843 0
M  V30 9528 H 919.753 1.51859 -3.61173 0
M  V30 9529 H 921.45 1.19277 -3.8285 0
M  V30 9530 H 918.04 -0.167034 -4.28274 0
M  V30 9531 H 922.224 -0.951835 -4.87087 0
M  V30 9532 H 917.48 -2.05036 -5.75995 0
M  V30 9533 H 921.654 -2.83317 -6.36164 0
M  V30 9534 H 919.281 -3.38839 -6.80509 0
M  V30 9535 N 920.856 1.57574 -0.0284266 0
M  V30 9536 C 922.102 1.92056 0.651327 0
M  V30 9537 C 922.435 0.905092 1.71819 0
M  V30 9538 O 921.71 -0.0722703 1.94366 0
M  V30 9539 C 921.993 3.37021 1.26841 0
M  V30 9540 C 921.846 4.49304 0.211157 0
M  V30 9541 C 923.165 3.81936 2.18662 0
M  V30 9542 H 920.284 0.698428 0.235304 0
M  V30 9543 H 922.926 1.89807 -0.0855435 0
M  V30 9544 H 921.076 3.39068 1.89644 0
M  V30 9545 H 922.748 4.5939 -0.419379 0
M  V30 9546 H 920.991 4.31317 -0.463445 0
M  V30 9547 H 921.662 5.47764 0.682518 0
M  V30 9548 H 924.138 3.8162 1.65847 0
M  V30 9549 H 923.014 4.84064 2.58792 0
M  V30 9550 H 923.275 3.174 3.07749 0
M  V30 9551 N 922.334 -0.244713 1.55689 0
M  V30 9552 C 923.745 -0.813603 1.6804 0
M  V30 9553 C 924.096 -1.85936 0.626281 0
M  V30 9554 O 923.221 -2.15206 -0.227038 0
M  V30 9555 C 923.816 -1.48252 3.04642 0
M  V30 9556 C 922.375 -1.99908 3.18926 0
M  V30 9557 C 921.522 -0.850958 2.6392 0
M  V30 9558 H 924.473 -0.0204805 1.58687 0
M  V30 9559 H 924.494 -2.35062 2.99209 0
M  V30 9560 H 924.006 -0.721164 3.81341 0
M  V30 9561 H 922.107 -2.78918 2.47054 0
M  V30 9562 H 922.22 -2.19497 4.25862 0
M  V30 9563 H 920.584 -1.25206 2.21801 0
M  V30 9564 H 921.367 -0.10265 3.43146 0
M  V30 9565 N 923.813 -1.49104 -0.510467 0
M  V30 9566 C 925.061 -1.578 -1.26268 0
M  V30 9567 C 925.382 -0.262349 -1.93227 0
M  V30 9568 O 924.652 0.717624 -1.82283 0
M  V30 9569 H 923.232 -0.581387 -0.46904 0
M  V30 9570 H 925.894 -1.85678 -0.592423 0
M  V30 9571 H 924.99 -2.36919 -2.03165 0
M  V30 9572 N 925.291 0.760815 -1.38019 0
M  V30 9573 C 926.239 1.89578 -1.34771 0
M  V30 9574 C 927.233 1.67766 -0.234714 0
M  V30 9575 O 928.439 1.75423 -0.403352 0
M  V30 9576 H 924.814 0.623608 -0.420258 0
M  V30 9577 H 926.785 1.89434 -2.30558 0
M  V30 9578 C 925.534 3.26976 -1.18246 0
M  V30 9579 H 924.857 3.44342 -2.03147 0
M  V30 9580 H 926.297 4.06657 -1.20026 0
M  V30 9581 C 924.756 3.36717 0.111145 0
M  V30 9582 O 925.286 3.86607 1.09079 0
M  V30 9583 N 923.492 2.90128 0.165542 0
M  V30 9584 H 923.039 2.49719 -0.632328 0
M  V30 9585 H 922.997 2.97026 1.03067 0
M  V30 9586 N 926.769 1.22769 0.988202 0
M  V30 9587 C 927.997 1.08155 1.76381 0
M  V30 9588 C 928.412 -0.367573 1.85187 0
M  V30 9589 O 927.769 -1.25455 1.32541 0
M  V30 9590 C 927.82 1.69193 3.19462 0
M  V30 9591 O 927.541 3.08437 3.11125 0
M  V30 9592 C 929.042 1.59915 4.13451 0
M  V30 9593 H 926.262 0.378908 0.553778 0
M  V30 9594 H 928.806 1.6246 1.24206 0
M  V30 9595 H 926.961 1.18939 3.6869 0
M  V30 9596 H 927.375 3.37916 4.0114 0
M  V30 9597 H 928.849 2.07339 5.1158 0
M  V30 9598 H 929.326 0.556546 4.3566 0
M  V30 9599 H 929.932 2.09497 3.70123 0
M  V30 9600 N 928.247 -1.18576 1.03814 0
M  V30 9601 C 929.477 -1.92158 0.758864 0
M  V30 9602 C 929.885 -1.76267 -0.687498 0
M  V30 9603 O 929.228 -1.08806 -1.4801 0
M  V30 9604 C 929.29 -3.44063 1.04217 0
M  V30 9605 C 928.954 -3.8373 2.48193 0
M  V30 9606 C 929.951 -3.87722 3.46363 0
M  V30 9607 C 927.636 -4.151 2.82838 0
M  V30 9608 C 929.63 -4.2253 4.77229 0
M  V30 9609 C 927.317 -4.49578 4.13911 0
M  V30 9610 C 928.315 -4.53269 5.10917 0
M  V30 9611 O 928.003 -4.86945 6.39641 0
M  V30 9612 H 927.735 -0.61694 0.276335 0
M  V30 9613 H 930.289 -1.51388 1.38819 0
M  V30 9614 H 928.519 -3.85061 0.355709 0
M  V30 9615 H 930.208 -3.9889 0.751091 0
M  V30 9616 H 930.974 -3.63627 3.20936 0
M  V30 9617 H 926.853 -4.11406 2.08006 0
M  V30 9618 H 930.397 -4.25326 5.52941 0
M  V30 9619 H 926.294 -4.73133 4.39107 0
M  V30 9620 H 927.062 -5.04857 6.44253 0
M  V30 9621 N 929.725 -0.817259 -1.34754 0
M  V30 9622 C 930.965 -0.408429 -2.00278 0
M  V30 9623 C 931.329 1.00818 -1.634 0
M  V30 9624 O 932.53 1.51959 -2.21725 0
M  V30 9625 C 930.801 -0.598219 -3.52358 0
M  V30 9626 S 932.36 -0.281395 -4.37897 0
M  V30 9627 H 929.178 -0.154587 -0.693991 0
M  V30 9628 H 931.78 -1.06184 -1.6415 0
M  V30 9629 H 930.484 -1.62901 -3.76685 0
M  V30 9630 H 930.015 0.0701299 -3.93337 0
M  V30 9631 H 932.03 0.907024 -4.8784 0
M  V30 9632 N 931.203 1.46865 -0.571711 0
M  V30 9633 C 932.45 2.0243 -0.0531071 0
M  V30 9634 C 932.778 1.44446 1.30252 0
M  V30 9635 O 932.033 0.595182 1.8643 0
M  V30 9636 C 932.332 3.57323 0.0742311 0
M  V30 9637 C 931.998 4.34295 -1.21237 0
M  V30 9638 C 930.66 4.55044 -1.56489 0
M  V30 9639 C 933.012 4.78577 -2.0643 0
M  V30 9640 C 930.34 5.17325 -2.76752 0
M  V30 9641 C 932.692 5.42186 -3.25909 0
M  V30 9642 C 931.356 5.61165 -3.61456 0
M  V30 9643 H 930.626 0.740745 -0.0194333 0
M  V30 9644 H 933.273 1.76366 -0.74614 0
M  V30 9645 H 931.578 3.82461 0.850325 0
M  V30 9646 H 933.275 3.97982 0.491077 0
M  V30 9647 H 929.865 4.18435 -0.927922 0
M  V30 9648 H 934.049 4.62313 -1.80501 0
M  V30 9649 H 929.305 5.30211 -3.04444 0
M  V30 9650 H 933.479 5.75459 -3.92198 0
M  V30 9651 H 931.106 6.09195 -4.54737 0
M  V30 9652 N 932.681 0.308908 1.54543 0
M  V30 9653 C 933.906 -0.303196 2.05172 0
M  V30 9654 C 934.331 -1.46133 1.18434 0
M  V30 9655 O 933.689 -1.803 0.190162 0
M  V30 9656 C 933.737 -0.729526 3.53143 0
M  V30 9657 O 932.841 -1.83348 3.69401 0
M  V30 9658 H 932.182 -0.0575066 0.661505 0
M  V30 9659 H 934.712 0.453055 1.99521 0
M  V30 9660 H 934.722 -1.01619 3.95143 0
M  V30 9661 H 933.397 0.117622 4.15734 0
M  V30 9662 H 931.974 -1.54676 3.39308 0
M  V30 9663 N 934.159 -1.57557 0.0367827 0
M  V30 9664 C 935.405 -1.92399 -0.641133 0
M  V30 9665 C 935.738 -0.914191 -1.71336 0
M  V30 9666 O 935.013 0.0619616 -1.94401 0
M  V30 9667 C 935.296 -3.37689 -1.25052 0
M  V30 9668 C 935.149 -4.4941 -0.187326 0
M  V30 9669 C 936.468 -3.8309 -2.16634 0
M  V30 9670 H 933.587 -0.699666 -0.231597 0
M  V30 9671 H 936.229 -1.89759 0.0956083 0
M  V30 9672 H 934.379 -3.40069 -1.87843 0
M  V30 9673 H 936.051 -4.59161 0.443736 0
M  V30 9674 H 934.294 -4.31065 0.486313 0
M  V30 9675 H 934.965 -5.48119 -0.653459 0
M  V30 9676 H 937.441 -3.82494 -1.63821 0
M  V30 9677 H 936.317 -4.85429 -2.56222 0
M  V30 9678 H 936.578 -3.19028 -3.06062 0
M  V30 9679 N 935.637 0.236453 -1.55816 0
M  V30 9680 C 936.883 0.964439 -1.784 0
M  V30 9681 C 937.216 1.84573 -0.603868 0
M  V30 9682 O 936.491 1.90395 0.397473 0
M  V30 9683 C 936.774 1.81608 -3.10951 0
M  V30 9684 C 936.627 0.962283 -4.39386 0
M  V30 9685 C 937.946 2.79665 -3.39817 0
M  V30 9686 H 935.065 0.349192 -0.649026 0
M  V30 9687 H 937.707 0.234247 -1.8855 0
M  V30 9688 H 935.857 2.43864 -3.02428 0
M  V30 9689 H 937.529 0.35762 -4.59912 0
M  V30 9690 H 935.772 0.267062 -4.32977 0
M  V30 9691 H 936.443 1.59222 -5.28538 0
M  V30 9692 H 938.919 2.27546 -3.4837 0
M  V30 9693 H 937.795 3.36367 -4.33761 0
M  V30 9694 H 938.056 3.56657 -2.61244 0
M  V30 9695 N 937.115 1.49373 0.502552 0
M  V30 9696 C 938.078 1.65413 1.58654 0
M  V30 9697 C 939.078 0.526003 1.51953 0
M  V30 9698 O 940.268 0.792421 1.55133 0
M  V30 9699 C 937.4 1.65005 2.98306 0
M  V30 9700 H 938.593 2.62095 1.45762 0
M  V30 9701 H 936.146 1.38381 0.726672 0
M  V30 9702 H 936.881 0.699014 3.16677 0
M  V30 9703 H 936.666 2.46931 3.04578 0
M  V30 9704 H 938.156 1.79477 3.77065 0
M  V30 9705 N 938.594 -0.753485 1.38421 0
M  V30 9706 C 939.819 -1.54783 1.38047 0
M  V30 9707 C 940.244 -1.8808 -0.0276371 0
M  V30 9708 O 939.602 -1.5058 -1.00973 0
M  V30 9709 C 939.65 -2.82353 2.24297 0
M  V30 9710 O 938.754 -3.77509 1.66014 0
M  V30 9711 H 938.095 -0.468151 0.470883 0
M  V30 9712 H 940.625 -0.931144 1.82184 0
M  V30 9713 H 940.635 -3.31277 2.38159 0
M  V30 9714 H 939.31 -2.57449 3.26639 0
M  V30 9715 H 937.887 -3.36212 1.61294 0
M  V30 9716 N 940.072 -1.23292 -0.981677 0
M  V30 9717 C 941.319 -1.06424 -1.72279 0
M  V30 9718 C 941.647 0.399055 -1.90362 0
M  V30 9719 O 940.902 1.31181 -1.45224 0
M  V30 9720 C 941.201 -1.73339 -3.12551 0
M  V30 9721 C 940.867 -3.23256 -3.14351 0
M  V30 9722 C 939.529 -3.64159 -3.14549 0
M  V30 9723 C 941.881 -4.1916 -3.09765 0
M  V30 9724 C 939.209 -4.99428 -3.07877 0
M  V30 9725 C 941.561 -5.54419 -3.04635 0
M  V30 9726 C 940.225 -5.94688 -3.03154 0
M  V30 9727 H 939.495 -0.389434 -0.630415 0
M  V30 9728 H 942.142 -1.53208 -1.1489 0
M  V30 9729 H 940.447 -1.18911 -3.73319 0
M  V30 9730 H 942.144 -1.57767 -3.68661 0
M  V30 9731 H 938.734 -2.90693 -3.14953 0
M  V30 9732 H 942.918 -3.88569 -3.08753 0
M  V30 9733 H 938.174 -5.29844 -3.05083 0
M  V30 9734 H 942.348 -6.28448 -3.00043 0
M  V30 9735 H 939.975 -6.99468 -2.97739 0
M  V30 9736 N 941.55 1.18024 -1.04442 0
M  V30 9737 C 942.799 1.8743 -0.745185 0
M  V30 9738 C 943.112 1.81459 0.730206 0
M  V30 9739 O 944.318 2.46263 1.1431 0
M  V30 9740 C 942.774 3.36266 -1.28271 0
M  V30 9741 C 942.382 3.50757 -2.787 0
M  V30 9742 C 944.126 4.11048 -1.06018 0
M  V30 9743 C 942.033 4.93573 -3.25791 0
M  V30 9744 H 940.963 0.702038 -0.27506 0
M  V30 9745 H 943.614 1.33333 -1.26073 0
M  V30 9746 H 941.996 3.89853 -0.695002 0
M  V30 9747 H 943.17 3.07423 -3.43261 0
M  V30 9748 H 941.485 2.89385 -2.99408 0
M  V30 9749 H 944.082 5.16395 -1.38711 0
M  V30 9750 H 944.425 4.163 0.00241716 0
M  V30 9751 H 944.958 3.63644 -1.61269 0
M  V30 9752 H 941.697 4.93491 -4.31447 0
M  V30 9753 H 941.217 5.37607 -2.65968 0
M  V30 9754 H 942.896 5.62307 -3.20031 0
M  V30 9755 N 943.028 0.824394 1.34319 0
M  V30 9756 C 943.938 0.24932 2.33271 0
M  V30 9757 C 944.954 -0.617066 1.62691 0
M  V30 9758 O 946.13 -0.524616 1.94447 0
M  V30 9759 C 943.195 -0.578094 3.41846 0
M  V30 9760 C 942.256 0.310866 4.28173 0
M  V30 9761 C 941.489 -0.477153 5.31563 0
M  V30 9762 O 941.712 -1.71028 5.44156 0
M  V30 9763 O 940.646 0.141287 6.01734 0
M  V30 9764 H 944.472 1.06837 2.84288 0
M  V30 9765 H 942.057 0.58657 1.37403 0
M  V30 9766 H 943.939 -1.04878 4.0814 0
M  V30 9767 H 942.614 -1.37444 2.93071 0
M  V30 9768 H 941.521 0.829081 3.64797 0
M  V30 9769 H 942.854 1.07161 4.80393 0
M  V30 9770 N 944.506 -1.46559 0.579492 0
M  V30 9771 C 945.754 -2.02 0.0637157 0
M  V30 9772 C 946.075 -1.45378 -1.29962 0
M  V30 9773 O 945.345 -0.637262 -1.85245 0
M  V30 9774 H 943.925 -0.746717 0.0205638 0
M  V30 9775 H 946.587 -1.79702 0.754544 0
M  V30 9776 H 945.683 -3.12099 -0.00770254 0
M  V30 9777 N 945.984 -0.3171 -1.54377 0
M  V30 9778 C 946.947 0.53905 -2.22771 0
M  V30 9779 C 947.947 1.04865 -1.21901 0
M  V30 9780 O 949.137 0.942108 -1.46526 0
M  V30 9781 C 946.269 1.74804 -2.92671 0
M  V30 9782 H 947.462 -0.0587417 -2.99842 0
M  V30 9783 H 945.015 -0.068107 -1.56152 0
M  V30 9784 H 945.75 2.38524 -2.1972 0
M  V30 9785 H 945.535 1.39011 -3.66631 0
M  V30 9786 H 947.025 2.35592 -3.44799 0
M  V30 9787 N 947.462 1.57535 -0.0451378 0
M  V30 9788 C 948.687 1.97172 0.64326 0
M  V30 9789 C 949.112 0.922266 1.63939 0
M  V30 9790 O 948.47 -0.115155 1.80934 0
M  V30 9791 C 948.518 3.35889 1.3119 0
M  V30 9792 O 947.622 3.33387 2.42748 0
M  V30 9793 H 946.963 0.642469 0.167719 0
M  V30 9794 H 949.493 2.04295 -0.111747 0
M  V30 9795 H 949.503 3.72481 1.66499 0
M  V30 9796 H 948.178 4.1181 0.581823 0
M  V30 9797 H 946.755 3.08533 2.09432 0
M  V30 9798 N 948.94 -0.228186 1.55939 0
M  V30 9799 C 950.165 -0.974795 1.83064 0
M  V30 9800 C 950.59 -1.77426 0.624624 0
M  V30 9801 O 949.948 -1.76211 -0.426556 0
M  V30 9802 C 949.996 -1.87342 3.08116 0
M  V30 9803 O 949.1 -2.96784 2.86344 0
M  V30 9804 H 948.441 -0.276379 0.603747 0
M  V30 9805 H 950.971 -0.243507 2.03146 0
M  V30 9806 H 950.981 -2.28451 3.38045 0
M  V30 9807 H 949.656 -1.28575 3.95526 0
M  V30 9808 H 948.233 -2.59669 2.67631 0
M  V30 9809 N 950.418 -1.49637 -0.494624 0
M  V30 9810 C 951.646 -1.63164 -1.2722 0
M  V30 9811 C 952.061 -0.305552 -1.86311 0
M  V30 9812 O 951.418 0.709758 -1.68133 0
M  V30 9813 C 951.469 -2.70524 -2.39789 0
M  V30 9814 O 951.19 -3.97991 -1.83126 0
M  V30 9815 C 952.691 -2.94814 -3.31058 0
M  V30 9816 H 949.911 -0.54912 -0.385627 0
M  V30 9817 H 952.455 -1.95711 -0.593081 0
M  V30 9818 H 950.61 -2.40738 -3.03519 0
M  V30 9819 H 951.024 -4.57179 -2.57075 0
M  V30 9820 H 952.498 -3.73653 -4.06309 0
M  V30 9821 H 952.975 -2.04974 -3.88436 0
M  V30 9822 H 953.581 -3.26042 -2.73088 0
M  V30 9823 N 951.896 0.746133 -1.38819 0
M  V30 9824 C 953.124 1.53539 -1.38685 0
M  V30 9825 C 953.539 1.88788 0.0215039 0
M  V30 9826 O 952.896 1.53312 0.990031 0
M  V30 9827 C 952.947 2.8299 -2.24942 0
M  V30 9828 O 952.668 2.49242 -3.60292 0
M  V30 9829 C 954.169 3.77085 -2.3307 0
M  V30 9830 H 951.389 0.474842 -0.474095 0
M  V30 9831 H 953.933 0.922844 -1.82493 0
M  V30 9832 H 952.088 3.40603 -1.84576 0
M  V30 9833 H 952.502 3.32319 -4.05789 0
M  V30 9834 H 953.976 4.64845 -2.97696 0
M  V30 9835 H 954.453 4.18049 -1.34655 0
M  V30 9836 H 955.059 3.25394 -2.73859 0
M  V30 9837 N 953.375 1.23811 0.975125 0
M  V30 9838 C 954.622 1.07336 1.71712 0
M  V30 9839 C 954.95 -0.388954 1.90571 0
M  V30 9840 O 954.205 -1.30409 1.45918 0
M  V30 9841 C 954.504 1.74994 3.11628 0
M  V30 9842 C 954.17 3.24918 3.12632 0
M  V30 9843 C 952.832 3.65822 3.12614 0
M  V30 9844 C 955.184 4.20797 3.07538 0
M  V30 9845 C 952.512 5.01054 3.05224 0
M  V30 9846 C 954.864 5.56027 3.0169 0
M  V30 9847 C 953.528 5.96287 2.99996 0
M  V30 9848 H 952.798 0.392771 0.62834 0
M  V30 9849 H 955.445 1.53815 1.14075 0
M  V30 9850 H 953.75 1.20889 3.72684 0
M  V30 9851 H 955.447 1.5972 3.67819 0
M  V30 9852 H 952.037 2.92359 3.13407 0
M  V30 9853 H 956.221 3.902 3.06688 0
M  V30 9854 H 951.477 5.31454 3.02268 0
M  V30 9855 H 955.651 6.3003 2.96706 0
M  V30 9856 H 953.278 7.01037 2.94025 0
M  V30 9857 N 954.853 -1.17469 1.05066 0
M  V30 9858 C 956.093 -1.89382 0.769012 0
M  V30 9859 C 956.457 -1.79126 -0.691217 0
M  V30 9860 O 957.658 -2.45845 -1.08692 0
M  V30 9861 C 955.929 -3.35397 1.23465 0
M  V30 9862 S 957.488 -4.25297 1.08018 0
M  V30 9863 H 954.306 -0.653839 0.279312 0
M  V30 9864 H 956.908 -1.41877 1.34503 0
M  V30 9865 H 955.612 -3.40395 2.29258 0
M  V30 9866 H 955.143 -3.87945 0.652853 0
M  V30 9867 H 957.158 -4.962 0.00358573 0
M  V30 9868 N 956.331 -0.831506 -1.3388 0
M  V30 9869 C 957.264 -0.2046 -2.27281 0
M  V30 9870 C 958.242 0.643992 -1.49303 0
M  V30 9871 O 959.426 0.605863 -1.78498 0
M  V30 9872 C 956.553 0.713409 -3.31101 0
M  V30 9873 C 955.599 -0.0587654 -4.2646 0
M  V30 9874 S 956.432 -1.41172 -5.16557 0
M  V30 9875 C 957.588 -0.498807 -6.23909 0
M  V30 9876 H 957.821 -0.996442 -2.80104 0
M  V30 9877 H 955.354 -0.62786 -1.41058 0
M  V30 9878 H 957.312 1.23748 -3.91403 0
M  V30 9879 H 955.973 1.47885 -2.77108 0
M  V30 9880 H 955.166 0.639466 -4.99927 0
M  V30 9881 H 954.768 -0.513665 -3.70456 0
M  V30 9882 H 957.06 0.306268 -6.76807 0
M  V30 9883 H 958.003 -1.20342 -6.97799 0
M  V30 9884 H 958.411 -0.0834242 -5.64438 0
M  V30 9885 N 957.809 1.4625 -0.587256 0
M  V30 9886 C 958.756 2.30354 0.143384 0
M  V30 9887 C 959.726 1.40891 0.879716 0
M  V30 9888 O 960.911 1.69837 0.869486 0
M  V30 9889 C 958.051 3.25441 1.14815 0
M  V30 9890 C 957.164 4.30004 0.414792 0
M  V30 9891 C 956.299 5.12214 1.40748 0
M  V30 9892 C 955.338 6.08523 0.660786 0
M  V30 9893 N 954.475 6.83585 1.60176 0
M  V30 9894 H 959.315 2.92304 -0.579866 0
M  V30 9895 H 956.852 1.44055 -0.29777 0
M  V30 9896 H 958.81 3.79018 1.7436 0
M  V30 9897 H 957.44 2.6529 1.83906 0
M  V30 9898 H 956.492 3.79248 -0.295787 0
M  V30 9899 H 957.804 4.98515 -0.168738 0
M  V30 9900 H 956.958 5.70091 2.0756 0
M  V30 9901 H 955.697 4.43675 2.02494 0
M  V30 9902 H 954.702 5.49796 -0.0210864 0
M  V30 9903 H 955.927 6.79083 0.0486551 0
M  V30 9904 H 953.873 6.17752 2.20724 0
M  V30 9905 H 953.79 7.48373 1.07115 0
M  V30 9906 H 955.058 7.46016 2.26009 0
M  V30 9907 N 959.287 0.325282 1.54207 0
M  V30 9908 C 960.217 -0.532574 2.27345 0
M  V30 9909 C 961.198 -1.11791 1.28206 0
M  V30 9910 O 962.383 -1.14272 1.57021 0
M  V30 9911 C 959.513 -1.69274 3.03255 0
M  V30 9912 C 958.467 -1.23662 4.09746 0
M  V30 9913 C 957.793 -2.48386 4.73506 0
M  V30 9914 C 959.093 -0.350244 5.21124 0
M  V30 9915 H 960.787 0.0775108 2.993 0
M  V30 9916 H 958.333 0.0387193 1.43948 0
M  V30 9917 H 960.286 -2.29917 3.53152 0
M  V30 9918 H 959.01 -2.32944 2.28921 0
M  V30 9919 H 957.669 -0.653106 3.60735 0
M  V30 9920 H 957.317 -3.10424 3.95786 0
M  V30 9921 H 957.017 -2.18558 5.45441 0
M  V30 9922 H 958.541 -3.09789 5.26178 0
M  V30 9923 H 959.955 -0.863011 5.66767 0
M  V30 9924 H 958.352 -0.14466 5.99926 0
M  V30 9925 H 959.422 0.618457 4.8094 0
M  V30 9926 N 960.765 -1.57509 0.0534917 0
M  V30 9927 C 961.697 -2.08616 -0.949322 0
M  V30 9928 C 962.71 -1.01446 -1.27328 0
M  V30 9929 O 963.899 -1.29007 -1.23367 0
M  V30 9930 C 960.999 -2.51622 -2.27024 0
M  V30 9931 C 960.172 -3.82154 -2.12785 0
M  V30 9932 C 959.231 -4.11448 -3.2802 0
M  V30 9933 O 958.257 -4.81333 -3.03822 0
M  V30 9934 N 959.459 -3.63543 -4.52567 0
M  V30 9935 H 962.224 -2.95275 -0.5131 0
M  V30 9936 H 959.785 -1.61355 -0.132693 0
M  V30 9937 H 961.777 -2.68293 -3.02986 0
M  V30 9938 H 960.347 -1.70198 -2.62205 0
M  V30 9939 H 959.567 -3.75041 -1.21399 0
M  V30 9940 H 960.855 -4.67629 -2.00501 0
M  V30 9941 H 960.253 -3.07051 -4.75117 0
M  V30 9942 H 958.81 -3.85448 -5.25617 0
M  V30 9943 N 962.243 0.219913 -1.56058 0
M  V30 9944 C 963.473 0.959521 -1.82967 0
M  V30 9945 C 963.881 1.78382 -0.630602 0
M  V30 9946 O 963.224 1.79062 0.410203 0
M  V30 9947 C 963.286 1.92481 -3.0363 0
M  V30 9948 C 962.95 1.28487 -4.38566 0
M  V30 9949 C 963.947 0.673946 -5.15513 0
M  V30 9950 C 961.632 1.29615 -4.85289 0
M  V30 9951 C 963.626 0.0828324 -6.37346 0
M  V30 9952 C 961.313 0.701191 -6.07064 0
M  V30 9953 C 962.311 0.0955877 -6.82933 0
M  V30 9954 O 961.999 -0.490109 -8.02405 0
M  V30 9955 H 961.731 0.286709 -0.612188 0
M  V30 9956 H 964.285 0.239761 -2.03996 0
M  V30 9957 H 962.515 2.6836 -2.78424 0
M  V30 9958 H 964.204 2.5301 -3.17397 0
M  V30 9959 H 964.97 0.657548 -4.80522 0
M  V30 9960 H 960.849 1.75691 -4.26208 0
M  V30 9961 H 964.393 -0.390482 -6.96506 0
M  V30 9962 H 960.29 0.715007 -6.41528 0
M  V30 9963 H 961.058 -0.384588 -8.17596 0
M  V30 9964 N 963.721 1.49897 0.486681 0
M  V30 9965 C 964.967 1.60342 1.2417 0
M  V30 9966 C 965.3 0.295694 1.91936 0
M  V30 9967 O 964.575 -0.701788 1.81398 0
M  V30 9968 C 964.858 2.77281 2.29755 0
M  V30 9969 C 964.711 4.1789 1.66397 0
M  V30 9970 C 966.03 2.89817 3.31201 0
M  V30 9971 H 963.149 0.583605 0.450083 0
M  V30 9972 H 965.791 1.82232 0.537734 0
M  V30 9973 H 963.941 2.58748 2.89796 0
M  V30 9974 H 965.613 4.47975 1.10073 0
M  V30 9975 H 963.856 4.22872 0.967579 0
M  V30 9976 H 964.527 4.95612 2.43049 0
M  V30 9977 H 967.003 3.06732 2.81167 0
M  V30 9978 H 965.879 3.7329 4.02425 0
M  V30 9979 H 966.14 1.9977 3.94391 0
M  V30 9980 N 965.199 -0.738761 1.39212 0
M  V30 9981 C 966.476 -1.48982 1.26742 0
M  V30 9982 C 966.856 -2.10732 -0.12466 0
M  V30 9983 O 966.204 -1.98287 -1.13554 0
M  V30 9984 C 966.414 -2.54427 2.38889 0
M  V30 9985 C 967.762 -3.20915 2.78027 0
M  V30 9986 O 968.786 -2.64738 2.38311 0
M  V30 9987 O 967.645 -4.22558 3.46565 0
M  V30 9988 H 964.739 -0.661395 0.496473 0
M  V30 9989 H 967.285 -0.772907 1.51077 0
M  V30 9990 H 966.057 -2.07151 3.3197 0
M  V30 9991 H 965.68 -3.33682 2.162 0
M  V30 9992 N 966.677 -1.24326 -0.968545 0
M  V30 9993 C 967.925 -1.08032 -1.70803 0
M  V30 9994 C 968.246 0.381728 -1.91227 0
M  V30 9995 O 967.516 1.27253 -1.48942 0
M  V30 9996 H 966.096 -0.396777 -0.632912 0
M  V30 9997 H 968.758 -1.56232 -1.16523 0
M  V30 9998 H 967.854 -1.57769 -2.69287 0
M  V30 9999 N 968.156 1.1691 -1.05688 0
M  V30 10000 C 969.381 1.91745 -0.790478 0
M  V30 10001 C 969.806 1.76568 0.648478 0
M  V30 10002 O 969.164 1.08682 1.45114 0
M  V30 10003 C 969.212 3.4067 -1.18222 0
M  V30 10004 O 968.316 4.11177 -0.317341 0
M  V30 10005 H 967.657 0.5976 -0.28943 0
M  V30 10006 H 970.187 1.48157 -1.41105 0
M  V30 10007 H 970.197 3.91424 -1.15114 0
M  V30 10008 H 968.872 3.51036 -2.2304 0
M  V30 10009 H 967.449 3.70645 -0.409459 0
M  V30 10010 N 969.634 0.838594 1.33437 0
M  V30 10011 C 970.882 0.433312 1.974 0
M  V30 10012 C 971.203 -1.01078 1.66758 0
M  V30 10013 O 970.473 -1.70406 0.966373 0
M  V30 10014 H 969.053 0.15724 0.730263 0
M  V30 10015 H 971.715 1.07149 1.62804 0
M  V30 10016 H 970.811 0.565144 3.06941 0
M  V30 10017 N 971.112 -1.45937 0.595003 0
M  V30 10018 C 972.34 -2.06698 0.091293 0
M  V30 10019 C 972.755 -1.44176 -1.21897 0
M  V30 10020 O 972.112 -0.551402 -1.73971 0
M  V30 10021 C 972.163 -3.61436 -0.0681801 0
M  V30 10022 O 971.884 -4.21622 1.19023 0
M  V30 10023 C 973.385 -4.39155 -0.604814 0
M  V30 10024 H 970.605 -0.668029 0.0630737 0
M  V30 10025 H 973.149 -1.87376 0.819165 0
M  V30 10026 H 971.304 -3.80143 -0.746324 0
M  V30 10027 H 971.718 -5.14647 1.01187 0
M  V30 10028 H 973.192 -5.47973 -0.665532 0
M  V30 10029 H 973.669 -4.08055 -1.62444 0
M  V30 10030 H 974.275 -4.25282 0.0388658 0
M  V30 10031 N 972.59 -0.333456 -1.54032 0
M  V30 10032 C 973.522 0.562174 -2.22199 0
M  V30 10033 C 974.535 1.07202 -1.22522 0
M  V30 10034 O 975.724 0.983897 -1.48935 0
M  V30 10035 C 972.824 1.78525 -2.88066 0
M  V30 10036 C 971.997 1.41242 -4.13968 0
M  V30 10037 C 971.056 2.49408 -4.63338 0
M  V30 10038 O 970.082 2.13138 -5.27789 0
M  V30 10039 N 971.284 3.805 -4.38406 0
M  V30 10040 H 974.049 -0.0215629 -2.99692 0
M  V30 10041 H 971.61 -0.157111 -1.61136 0
M  V30 10042 H 973.602 2.50298 -3.18014 0
M  V30 10043 H 972.172 2.2766 -2.14219 0
M  V30 10044 H 971.392 0.525887 -3.90676 0
M  V30 10045 H 972.68 1.13916 -4.95884 0
M  V30 10046 H 972.078 4.12761 -3.86839 0
M  V30 10047 H 970.635 4.48474 -4.72984 0
M  V30 10048 N 974.068 1.57479 -0.061844 0
M  V30 10049 C 975.484 1.56855 0.294753 0
M  V30 10050 C 975.684 1.07042 1.70717 0
M  V30 10051 O 974.74 0.731817 2.41662 0
M  V30 10052 C 976.053 3.00486 0.113484 0
M  V30 10053 C 977.601 3.1246 0.183778 0
M  V30 10054 C 978.076 4.5799 0.0309092 0
M  V30 10055 N 979.567 4.63119 0.0868393 0
M  V30 10056 C 980.302 5.734 -0.00717446 0
M  V30 10057 N 979.798 6.92628 -0.154144 0
M  V30 10058 N 981.591 5.62078 0.0491763 0
M  V30 10059 H 973.742 1.88176 -0.985058 0
M  V30 10060 H 976.005 0.867051 -0.383309 0
M  V30 10061 H 975.711 3.41004 -0.86075 0
M  V30 10062 H 975.585 3.67029 0.870023 0
M  V30 10063 H 977.972 2.71834 1.14849 0
M  V30 10064 H 978.053 2.48574 -0.603697 0
M  V30 10065 H 977.697 4.99303 -0.930526 0
M  V30 10066 H 977.627 5.19895 0.837664 0
M  V30 10067 H 980.118 3.77374 0.199245 0
M  V30 10068 H 980.431 7.72492 -0.218296 0
M  V30 10069 H 978.776 6.94742 -0.189372 0
M  V30 10070 H 981.967 4.67817 0.162626 0
M  V30 10071 H 982.14 6.47994 -0.0275478 0
M  V30 10072 N 975.546 -0.211634 1.56173 0
M  V30 10073 C 976.776 -0.949805 1.83473 0
M  V30 10074 C 977.184 -1.78045 0.640053 0
M  V30 10075 O 976.527 -1.79277 -0.400702 0
M  V30 10076 C 976.589 -1.90868 3.04647 0
M  V30 10077 C 976.253 -1.26159 4.39241 0
M  V30 10078 C 977.25 -0.646597 5.15863 0
M  V30 10079 C 974.935 -1.27039 4.85969 0
M  V30 10080 C 976.929 -0.0490313 6.37381 0
M  V30 10081 C 974.616 -0.668987 6.07427 0
M  V30 10082 C 975.614 -0.0593687 6.82974 0
M  V30 10083 O 975.302 0.532656 8.02133 0
M  V30 10084 H 975.034 -0.283458 0.6137 0
M  V30 10085 H 977.588 -0.22894 2.0412 0
M  V30 10086 H 975.818 -2.6688 2.79843 0
M  V30 10087 H 977.507 -2.51323 3.18734 0
M  V30 10088 H 978.273 -0.632056 4.80864 0
M  V30 10089 H 974.152 -1.73429 4.27134 0
M  V30 10090 H 977.696 0.427414 6.96289 0
M  V30 10091 H 973.593 -0.680975 6.41898 0
M  V30 10092 H 974.361 0.427942 8.17381 0
M  V30 10093 N 977.024 -1.50153 -0.478725 0
M  V30 10094 C 978.301 -1.51274 -1.23999 0
M  V30 10095 C 978.681 -0.253048 -2.09578 0
M  V30 10096 O 978.029 0.763827 -2.15355 0
M  V30 10097 C 978.239 -2.80423 -2.07759 0
M  V30 10098 C 979.587 -3.30788 -2.66204 0
M  V30 10099 O 980.611 -2.81693 -2.18008 0
M  V30 10100 O 979.47 -4.1635 -3.53999 0
M  V30 10101 H 976.564 -0.606438 -0.562283 0
M  V30 10102 H 979.11 -1.62436 -0.491171 0
M  V30 10103 H 977.882 -3.63584 -1.44645 0
M  V30 10104 H 977.505 -2.72228 -2.89789 0
M  V30 10105 N 978.502 0.731368 -1.39602 0
M  V30 10106 C 979.73 1.52059 -1.40305 0
M  V30 10107 C 980.145 1.888 0.00147921 0
M  V30 10108 O 979.502 1.54354 0.973715 0
M  V30 10109 C 979.553 2.80588 -2.27931 0
M  V30 10110 O 979.274 2.45406 -3.62915 0
M  V30 10111 C 980.775 3.74592 -2.37056 0
M  V30 10112 H 977.995 0.469787 -0.479104 0
M  V30 10113 H 980.539 0.903436 -1.83462 0
M  V30 10114 H 978.694 3.38626 -1.88178 0
M  V30 10115 H 979.108 3.27996 -4.09291 0
M  V30 10116 H 980.582 4.61662 -3.02609 0
M  V30 10117 H 981.059 4.16597 -1.39081 0
M  V30 10118 H 981.665 3.22471 -2.77295 0
M  V30 10119 N 979.98 1.24838 0.961938 0
M  V30 10120 C 981.229 1.0855 1.69999 0
M  V30 10121 C 981.542 -0.374645 1.91979 0
M  V30 10122 O 982.748 -0.657822 2.6341 0
M  V30 10123 C 981.204 1.89424 3.06017 0
M  V30 10124 C 980.812 3.39885 2.9186 0
M  V30 10125 C 982.556 1.81684 3.83655 0
M  V30 10126 C 980.463 4.13082 4.23223 0
M  V30 10127 H 979.393 0.402603 0.637516 0
M  V30 10128 H 982.044 1.4897 1.07146 0
M  V30 10129 H 980.426 1.41823 3.69733 0
M  V30 10130 H 981.6 3.95108 2.37121 0
M  V30 10131 H 979.915 3.4864 2.27683 0
M  V30 10132 H 982.512 2.3367 4.80939 0
M  V30 10133 H 982.855 0.783247 4.08865 0
M  V30 10134 H 983.388 2.26997 3.26676 0
M  V30 10135 H 980.127 5.16824 4.03204 0
M  V30 10136 H 979.647 3.62644 4.77755 0
M  V30 10137 H 981.326 4.20397 4.91808 0
M  V30 10138 N 981.458 -1.16348 1.06306 0
M  V30 10139 C 982.735 -1.829 0.69331 0
M  V30 10140 C 983.115 -1.94298 -0.82531 0
M  V30 10141 O 982.463 -1.48619 -1.73565 0
M  V30 10142 C 982.673 -3.1989 1.3954 0
M  V30 10143 C 984.021 -3.95662 1.54068 0
M  V30 10144 O 985.045 -3.29408 1.35532 0
M  V30 10145 O 983.904 -5.14422 1.84479 0
M  V30 10146 H 980.998 -0.789738 0.245445 0
M  V30 10147 H 983.544 -1.23549 1.16334 0
M  V30 10148 H 982.316 -3.06629 2.43093 0
M  V30 10149 H 981.939 -3.86918 0.915453 0
M  V30 10150 N 982.937 -0.845659 -1.3299 0
M  V30 10151 C 983.87 -0.228695 -2.27051 0
M  V30 10152 C 984.848 0.62812 -1.49978 0
M  V30 10153 O 986.032 0.586897 -1.79131 0
M  V30 10154 C 983.159 0.678251 -3.31839 0
M  V30 10155 C 982.205 -0.103994 -4.26373 0
M  V30 10156 S 983.038 -1.46642 -5.1503 0
M  V30 10157 C 984.194 -0.564953 -6.23345 0
M  V30 10158 H 984.427 -1.02609 -2.79032 0
M  V30 10159 H 981.96 -0.642786 -1.40384 0
M  V30 10160 H 983.918 1.1959 -3.92694 0
M  V30 10161 H 982.579 1.44937 -2.78661 0
M  V30 10162 H 981.772 0.586406 -5.00577 0
M  V30 10163 H 981.374 -0.552927 -3.6989 0
M  V30 10164 H 983.666 0.234466 -6.77094 0
M  V30 10165 H 984.609 -1.27736 -6.96483 0
M  V30 10166 H 985.017 -0.143286 -5.64318 0
M  V30 10167 N 984.415 1.45619 -0.602734 0
M  V30 10168 C 985.362 2.30493 0.118944 0
M  V30 10169 C 986.332 1.41816 0.864723 0
M  V30 10170 O 987.517 1.7075 0.851424 0
M  V30 10171 C 984.657 3.2664 1.11356 0
M  V30 10172 C 983.77 4.3042 0.369161 0
M  V30 10173 C 982.905 5.13678 1.35307 0
M  V30 10174 C 981.944 6.09189 0.596207 0
M  V30 10175 N 981.081 6.85245 1.52916 0
M  V30 10176 H 985.921 2.91672 -0.610836 0
M  V30 10177 H 983.458 1.43731 -0.313032 0
M  V30 10178 H 985.416 3.80846 1.7033 0
M  V30 10179 H 984.046 2.67225 1.81081 0
M  V30 10180 H 983.098 3.78913 -0.335994 0
M  V30 10181 H 984.41 4.98307 -0.221603 0
M  V30 10182 H 983.564 5.7226 2.01502 0
M  V30 10183 H 982.303 4.45798 1.97777 0
M  V30 10184 H 981.308 5.49743 -0.0793984 0
M  V30 10185 H 982.533 6.79096 -0.0233734 0
M  V30 10186 H 980.479 6.20058 2.14159 0
M  V30 10187 H 980.396 7.49467 0.991713 0
M  V30 10188 H 981.664 7.48371 2.18083 0
M  V30 10189 N 985.893 0.34162 1.53853 0
M  V30 10190 C 987.121 -0.256929 2.05299 0
M  V30 10191 C 987.536 -1.44366 1.21671 0
M  V30 10192 O 986.893 -1.80758 0.251584 0
M  V30 10193 C 986.944 -0.673854 3.55164 0
M  V30 10194 O 986.665 0.465687 4.35618 0
M  V30 10195 C 988.166 -1.33332 4.22773 0
M  V30 10196 H 985.386 -0.0499445 0.669139 0
M  V30 10197 H 987.93 0.493048 1.98467 0
M  V30 10198 H 986.085 -1.37378 3.62224 0
M  V30 10199 H 986.499 0.133723 5.2433 0
M  V30 10200 H 987.973 -1.57582 5.29029 0
M  V30 10201 H 988.45 -2.28628 3.75001 0
M  V30 10202 H 989.056 -0.675489 4.19901 0
M  V30 10203 N 987.371 -1.57444 0.0701946 0
M  V30 10204 C 988.617 -1.93716 -0.600178 0
M  V30 10205 C 988.95 -0.950329 -1.69359 0
M  V30 10206 O 988.225 0.0207123 -1.94489 0
M  V30 10207 C 988.508 -3.40266 -1.17861 0
M  V30 10208 C 988.361 -4.49706 -0.0919575 0
M  V30 10209 C 989.68 -3.87599 -2.08459 0
M  V30 10210 H 986.799 -0.704421 -0.216704 0
M  V30 10211 H 989.441 -1.89514 0.135838 0
M  V30 10212 H 987.591 -3.43977 -1.80587 0
M  V30 10213 H 989.263 -4.58116 0.541031 0
M  V30 10214 H 987.506 -4.29937 0.577639 0
M  V30 10215 H 988.177 -5.49381 -0.537048 0
M  V30 10216 H 990.653 -3.85883 -1.5567 0
M  V30 10217 H 989.529 -4.90755 -2.45867 0
M  V30 10218 H 989.79 -3.25448 -2.99226 0
M  V30 10219 N 988.849 0.203349 -1.56283 0
M  V30 10220 C 990.097 0.923183 -1.79782 0
M  V30 10221 C 990.418 1.84134 -0.64185 0
M  V30 10222 O 989.688 1.92922 0.340292 0
M  V30 10223 H 988.268 0.343881 -0.66314 0
M  V30 10224 H 990.93 0.210837 -1.93756 0
M  V30 10225 H 990.026 1.51921 -2.72629 0
M  V30 10226 N 990.327 1.50405 0.470755 0
M  V30 10227 C 991.738 1.54266 1.05162 0
M  V30 10228 C 992.089 0.346359 1.93119 0
M  V30 10229 O 991.214 -0.540699 2.09536 0
M  V30 10230 C 991.809 2.7956 1.91394 0
M  V30 10231 C 990.368 2.86101 2.44588 0
M  V30 10232 C 989.515 2.48557 1.22941 0
M  V30 10233 H 992.466 1.56665 0.253359 0
M  V30 10234 H 992.487 2.61434 2.76464 0
M  V30 10235 H 991.999 3.66611 1.27351 0
M  V30 10236 H 990.1 2.03403 3.12183 0
M  V30 10237 H 990.213 3.88999 2.79672 0
M  V30 10238 H 988.577 2.01003 1.56429 0
M  V30 10239 H 989.36 3.37916 0.605598 0
M  V30 10240 N 991.805 -0.723954 1.39988 0
M  V30 10241 C 992.753 -1.85938 1.39749 0
M  V30 10242 C 993.747 -1.67085 0.279112 0
M  V30 10243 O 994.953 -1.74291 0.44972 0
M  V30 10244 H 991.328 -0.612246 0.436644 0
M  V30 10245 H 993.299 -1.83255 2.355 0
M  V30 10246 C 992.048 -3.23726 1.26874 0
M  V30 10247 H 991.371 -3.38835 2.12206 0
M  V30 10248 H 992.811 -4.03332 1.30765 0
M  V30 10249 C 991.27 -3.36893 -0.0218317 0
M  V30 10250 O 991.8 -3.89363 -0.987905 0
M  V30 10251 N 990.006 -2.90465 -0.0885618 0
M  V30 10252 H 989.553 -2.47954 0.698314 0
M  V30 10253 H 989.511 -2.99654 -0.951557 0
M  V30 10254 N 993.283 -1.25346 -0.955304 0
M  V30 10255 C 994.215 -1.0146 -2.0552 0
M  V30 10256 C 995.228 0.0202256 -1.62787 0
M  V30 10257 O 996.417 -0.218251 -1.77161 0
M  V30 10258 C 993.517 -0.511727 -3.35014 0
M  V30 10259 C 992.69 -1.61256 -4.0659 0
M  V30 10260 C 991.749 -1.11017 -5.14356 0
M  V30 10261 O 990.775 -1.80443 -5.39842 0
M  V30 10262 N 991.977 0.0489001 -5.80479 0
M  V30 10263 H 994.742 -1.96166 -2.26581 0
M  V30 10264 H 992.303 -1.16543 -1.12381 0
M  V30 10265 H 994.295 -0.160123 -4.04383 0
M  V30 10266 H 992.865 0.341377 -3.1073 0
M  V30 10267 H 992.085 -2.13577 -3.31328 0
M  V30 10268 H 993.373 -2.35213 -4.51168 0
M  V30 10269 H 992.771 0.629021 -5.62192 0
M  V30 10270 H 991.328 0.341542 -6.50905 0
M  V30 10271 N 994.761 1.15782 -1.06922 0
M  V30 10272 C 996.007 1.86975 -0.800747 0
M  V30 10273 C 996.362 1.80512 0.665818 0
M  V30 10274 O 995.655 1.21432 1.48205 0
M  V30 10275 C 995.849 3.35284 -1.2377 0
M  V30 10276 C 995.678 3.56186 -2.74521 0
M  V30 10277 C 994.448 3.71908 -3.42071 0
M  V30 10278 C 996.646 3.54373 -3.72725 0
M  V30 10279 N 994.628 3.80821 -4.81507 0
M  V30 10280 C 995.999 3.69347 -4.97978 0
M  V30 10281 C 998.054 3.37622 -3.65945 0
M  V30 10282 C 996.757 3.69302 -6.17259 0
M  V30 10283 C 998.783 3.38873 -4.84684 0
M  V30 10284 C 998.145 3.54373 -6.08769 0
M  V30 10285 H 994.244 0.701533 -0.345507 0
M  V30 10286 H 996.828 1.38875 -1.36462 0
M  V30 10287 H 994.999 3.82011 -0.701588 0
M  V30 10288 H 996.731 3.94169 -0.917235 0
M  V30 10289 H 993.486 3.72499 -2.92475 0
M  V30 10290 H 993.91 3.89031 -5.54061 0
M  V30 10291 H 998.552 3.24562 -2.7096 0
M  V30 10292 H 996.27 3.81142 -7.1257 0
M  V30 10293 H 999.856 3.27146 -4.8111 0
M  V30 10294 H 998.736 3.55268 -6.9911 0
M  V30 10295 N 996.239 0.8527 1.3254 0
M  V30 10296 C 997.485 0.455798 1.97612 0
M  V30 10297 C 997.818 -0.985616 1.6733 0
M  V30 10298 O 997.093 -1.69129 0.960493 0
M  V30 10299 C 997.376 0.69312 3.53366 0
M  V30 10300 C 997.229 2.18281 3.93285 0
M  V30 10301 C 998.548 0.148236 4.3985 0
M  V30 10302 H 995.667 0.167078 0.717812 0
M  V30 10303 H 998.309 1.07076 1.56954 0
M  V30 10304 H 996.459 0.169677 3.88129 0
M  V30 10305 H 998.131 2.77218 3.68711 0
M  V30 10306 H 996.374 2.66206 3.42515 0
M  V30 10307 H 997.045 2.29957 5.01821 0
M  V30 10308 H 999.521 0.595834 4.11812 0
M  V30 10309 H 998.397 0.343873 5.47822 0
M  V30 10310 H 998.658 -0.948872 4.31797 0
M  V30 10311 N 997.718 -1.45297 0.610449 0
M  V30 10312 C 998.668 -2.27639 -0.128194 0
M  V30 10313 C 999.652 -1.37485 -0.835861 0
M  V30 10314 O 1000.84 -1.61454 -0.725378 0
M  V30 10315 C 997.973 -3.24413 -1.123 0
M  V30 10316 C 997.059 -4.22055 -0.416029 0
M  V30 10317 N 997.45 -5.02867 0.543921 0
M  V30 10318 C 995.748 -4.41041 -0.663208 0
M  V30 10319 C 996.449 -5.73728 0.959731 0
M  V30 10320 N 995.425 -5.42756 0.302873 0
M  V30 10321 H 999.227 -2.8752 0.609056 0
M  V30 10322 H 996.741 -1.56484 0.434338 0
M  V30 10323 H 998.738 -3.82139 -1.6666 0
M  V30 10324 H 997.398 -2.66092 -1.86078 0
M  V30 10325 H 998.409 -5.09649 0.920799 0
M  V30 10326 H 995.086 -3.93842 -1.38544 0
M  V30 10327 H 996.476 -6.48666 1.75163 0
M  V30 10328 N 999.196 -0.349774 -1.5367 0
M  V30 10329 C 1000.13 0.496338 -2.28164 0
M  V30 10330 C 1001.11 1.09737 -1.29968 0
M  V30 10331 O 1002.29 1.11759 -1.58819 0
M  V30 10332 C 999.422 1.64428 -3.0591 0
M  V30 10333 C 998.376 1.17127 -4.11661 0
M  V30 10334 C 997.702 2.40822 -4.77398 0
M  V30 10335 C 999.002 0.267293 -5.21616 0
M  V30 10336 H 1000.7 -0.125117 -2.99138 0
M  V30 10337 H 998.242 -0.0616152 -1.43868 0
M  V30 10338 H 1000.19 2.2427 -3.56765 0
M  V30 10339 H 998.919 2.29272 -2.32598 0
M  V30 10340 H 997.578 0.595634 -3.61729 0
M  V30 10341 H 997.226 3.04088 -4.00674 0
M  V30 10342 H 996.926 2.09852 -5.48849 0
M  V30 10343 H 998.45 3.01378 -5.3104 0
M  V30 10344 H 999.864 0.772734 -5.68068 0
M  V30 10345 H 998.261 0.0491991 -6.0008 0
M  V30 10346 H 999.331 -0.694892 -4.79895 0
M  V30 10347 N 1000.67 1.57404 -0.0785433 0
M  V30 10348 C 1001.9 1.97787 0.596995 0
M  V30 10349 C 1002.31 0.955904 1.63276 0
M  V30 10350 O 1001.65 -0.0649169 1.83585 0
M  V30 10351 C 1001.72 3.34499 1.31723 0
M  V30 10352 C 1001.38 4.54933 0.434144 0
M  V30 10353 C 1002.38 5.18969 -0.311015 0
M  V30 10354 C 1000.06 5.01029 0.357046 0
M  V30 10355 C 1002.06 6.27457 -1.12142 0
M  V30 10356 C 999.744 6.09389 -0.457029 0
M  V30 10357 C 1000.74 6.72466 -1.19493 0
M  V30 10358 O 1000.43 7.78738 -1.99556 0
M  V30 10359 H 1000.16 0.655294 0.166028 0
M  V30 10360 H 1002.72 2.04855 -0.149517 0
M  V30 10361 H 1000.95 3.24064 2.10996 0
M  V30 10362 H 1002.63 3.5944 1.88567 0
M  V30 10363 H 1003.4 4.84297 -0.261084 0
M  V30 10364 H 999.28 4.51706 0.921026 0
M  V30 10365 H 1002.82 6.76622 -1.69788 0
M  V30 10366 H 998.721 6.43494 -0.508499 0
M  V30 10367 H 999.489 7.95648 -1.9206 0
M  V30 10368 N 1002.15 -0.195058 1.56388 0
M  V30 10369 C 1003.1 -1.26122 1.95438 0
M  V30 10370 C 1004.09 -1.47117 0.839818 0
M  V30 10371 O 1005.3 -1.47978 1.02482 0
M  V30 10372 H 1001.67 -0.423422 0.621464 0
M  V30 10373 H 1003.65 -0.904854 2.8435 0
M  V30 10374 C 1002.39 -2.59858 2.31017 0
M  V30 10375 H 1001.72 -2.44519 3.16308 0
M  V30 10376 H 1003.16 -3.33205 2.62203 0
M  V30 10377 C 1001.62 -3.16853 1.14481 0
M  V30 10378 O 1002.15 -3.995 0.419853 0
M  V30 10379 N 1000.35 -2.75599 0.921604 0
M  V30 10380 H 999.9 -2.08495 1.51287 0
M  V30 10381 H 999.858 -3.14072 0.143663 0
M  V30 10382 N 1003.63 -1.50653 -0.462772 0
M  V30 10383 C 1005.04 -1.54821 -1.04342 0
M  V30 10384 C 1005.39 -0.356595 -1.92932 0
M  V30 10385 O 1004.52 0.529579 -2.0982 0
M  V30 10386 C 1005.11 -2.80571 -1.89909 0
M  V30 10387 C 1003.67 -2.87394 -2.43067 0
M  V30 10388 C 1002.82 -2.49206 -1.21621 0
M  V30 10389 H 1005.77 -1.56797 -0.245048 0
M  V30 10390 H 1005.79 -2.62897 -2.75074 0
M  V30 10391 H 1005.3 -3.67281 -1.25405 0
M  V30 10392 H 1003.4 -2.05055 -3.111 0
M  V30 10393 H 1003.52 -3.90477 -2.77605 0
M  V30 10394 H 1001.88 -2.01829 -1.55361 0
M  V30 10395 H 1002.66 -3.38233 -0.587669 0
M  V30 10396 N 1005.11 0.71652 -1.4037 0
M  V30 10397 C 1006.04 1.84138 -1.36477 0
M  V30 10398 C 1007.05 1.6054 -0.27033 0
M  V30 10399 O 1008.24 1.70431 -0.530612 0
M  V30 10400 C 1005.34 3.20523 -1.10082 0
M  V30 10401 C 1004.52 3.71326 -2.31162 0
M  V30 10402 C 1003.57 4.86322 -2.00942 0
M  V30 10403 O 1002.6 4.99022 -2.73799 0
M  V30 10404 N 1003.8 5.72051 -0.986812 0
M  V30 10405 H 1006.57 1.87977 -2.3342 0
M  V30 10406 H 1004.13 0.89802 -1.34712 0
M  V30 10407 H 1006.12 3.95049 -0.878526 0
M  V30 10408 H 1004.69 3.11838 -0.21809 0
M  V30 10409 H 1003.91 2.87941 -2.69227 0
M  V30 10410 H 1005.2 4.02003 -3.11883 0
M  V30 10411 H 1004.6 5.64399 -0.383381 0
M  V30 10412 H 1003.15 6.46565 -0.824419 0
M  V30 10413 N 1006.59 1.25851 0.948643 0
M  V30 10414 C 1007.82 1.13546 1.726 0
M  V30 10415 C 1008.22 -0.312857 1.86595 0
M  V30 10416 O 1007.57 -1.22657 1.36751 0
M  V30 10417 C 1007.63 1.72315 3.15512 0
M  V30 10418 C 1007.29 3.2136 3.24926 0
M  V30 10419 C 1008.29 4.18274 3.08777 0
M  V30 10420 C 1005.98 3.61683 3.48555 0
M  V30 10421 C 1007.97 5.53491 3.16112 0
M  V30 10422 C 1005.66 4.97035 3.55526 0
M  V30 10423 C 1006.65 5.92749 3.3932 0
M  V30 10424 O 1006.34 7.25637 3.45985 0
M  V30 10425 H 1006.07 0.396555 0.547467 0
M  V30 10426 H 1008.63 1.66822 1.19832 0
M  V30 10427 H 1006.86 1.13494 3.6967 0
M  V30 10428 H 1008.55 1.55024 3.7513 0
M  V30 10429 H 1009.31 3.88461 2.90385 0
M  V30 10430 H 1005.19 2.87674 3.60229 0
M  V30 10431 H 1008.74 6.28177 3.0338 0
M  V30 10432 H 1004.63 5.26512 3.73437 0
M  V30 10433 H 1005.4 7.33812 3.62577 0
M  V30 10434 N 1008.06 -1.15214 1.07534 0
M  V30 10435 C 1009.48 -1.38031 0.801228 0
M  V30 10436 C 1009.68 -1.92556 -0.593672 0
M  V30 10437 O 1008.74 -2.1325 -1.35206 0
M  V30 10438 C 1010.05 -2.34958 1.87657 0
M  V30 10439 C 1011.6 -2.48617 1.90154 0
M  V30 10440 C 1012.07 -3.48837 2.96777 0
M  V30 10441 N 1013.56 -3.56374 2.95892 0
M  V30 10442 C 1014.3 -4.33746 3.75036 0
M  V30 10443 N 1013.79 -5.14435 4.64036 0
M  V30 10444 N 1015.59 -4.28853 3.63375 0
M  V30 10445 H 1007.74 -0.781639 1.97495 0
M  V30 10446 H 1010 -0.406243 0.856546 0
M  V30 10447 H 1009.71 -2.02013 2.87895 0
M  V30 10448 H 1009.58 -3.3476 1.73827 0
M  V30 10449 H 1011.97 -2.80859 0.905666 0
M  V30 10450 H 1012.05 -1.48808 2.08062 0
M  V30 10451 H 1011.69 -3.1733 3.96565 0
M  V30 10452 H 1011.62 -4.48406 2.76116 0
M  V30 10453 H 1014.11 -2.98784 2.31379 0
M  V30 10454 H 1014.43 -5.70722 5.21053 0
M  V30 10455 H 1012.77 -5.13734 4.68084 0
M  V30 10456 H 1015.96 -3.64882 2.93221 0
M  V30 10457 H 1016.14 -4.88903 4.25298 0
M  V30 10458 N 1009.54 -0.859717 -1.32086 0
M  V30 10459 C 1010.79 -0.461779 -1.96343 0
M  V30 10460 C 1011.1 0.988837 -1.68764 0
M  V30 10461 O 1012.31 1.49244 -2.268 0
M  V30 10462 C 1010.77 -0.77484 -3.5146 0
M  V30 10463 C 1010.37 -2.24153 -3.87891 0
M  V30 10464 C 1012.12 -0.444873 -4.22162 0
M  V30 10465 C 1010.03 -2.49754 -5.36075 0
M  V30 10466 H 1008.96 -0.168951 -0.734828 0
M  V30 10467 H 1011.61 -1.0512 -1.50406 0
M  V30 10468 H 1009.99 -0.114792 -3.95834 0
M  V30 10469 H 1011.16 -2.94378 -3.54511 0
M  V30 10470 H 1009.48 -2.53651 -3.30227 0
M  V30 10471 H 1012.07 -0.613508 -5.31169 0
M  V30 10472 H 1012.42 0.61391 -4.11749 0
M  V30 10473 H 1012.95 -1.06103 -3.83389 0
M  V30 10474 H 1009.69 -3.54276 -5.51515 0
M  V30 10475 H 1009.21 -1.84112 -5.70844 0
M  V30 10476 H 1010.89 -2.3396 -6.03218 0
M  V30 10477 N 1011.02 1.44971 -0.618145 0
M  V30 10478 C 1012.43 1.85611 -0.201334 0
M  V30 10479 C 1012.78 1.51698 1.24427 0
M  V30 10480 O 1011.91 0.94875 1.94493 0
M  V30 10481 C 1012.5 3.36897 -0.358619 0
M  V30 10482 C 1011.06 3.764 0.00358196 0
M  V30 10483 C 1010.21 2.68881 -0.678118 0
M  V30 10484 H 1013.16 1.35622 -0.824152 0
M  V30 10485 H 1013.18 3.78326 0.406176 0
M  V30 10486 H 1012.69 3.61548 -1.41084 0
M  V30 10487 H 1010.79 3.57365 1.05457 0
M  V30 10488 H 1010.91 4.77449 -0.397427 0
M  V30 10489 H 1009.27 2.54442 -0.114699 0
M  V30 10490 H 1010.05 2.96367 -1.73268 0
M  V30 10491 N 1012.5 0.357919 1.53482 0
M  V30 10492 C 1013.72 -0.237769 2.06033 0
M  V30 10493 C 1014.15 -1.42292 1.23023 0
M  V30 10494 O 1013.51 -1.79604 0.247427 0
M  V30 10495 C 1013.55 -0.616806 3.55286 0
M  V30 10496 O 1012.66 -1.71503 3.75047 0
M  V30 10497 H 1012 -0.0364322 0.663 0
M  V30 10498 H 1014.53 0.516301 1.97979 0
M  V30 10499 H 1014.54 -0.88996 3.98175 0
M  V30 10500 H 1013.21 0.249825 4.15149 0
M  V30 10501 H 1011.79 -1.43803 3.44057 0
M  V30 10502 N 1013.98 -1.5736 0.0868897 0
M  V30 10503 C 1015.25 -1.85495 -0.620561 0
M  V30 10504 C 1015.63 -0.982218 -1.86857 0
M  V30 10505 O 1014.98 -0.0524529 -2.2844 0
M  V30 10506 C 1015.19 -3.35996 -0.943798 0
M  V30 10507 C 1016.54 -4.03861 -1.31079 0
M  V30 10508 O 1017.56 -3.4083 -1.03507 0
M  V30 10509 O 1016.42 -5.15062 -1.82683 0
M  V30 10510 H 1013.52 -0.766822 -0.309697 0
M  V30 10511 H 1016.06 -1.69282 0.118966 0
M  V30 10512 H 1014.83 -3.91257 -0.0580628 0
M  V30 10513 H 1014.46 -3.57525 -1.73958 0
M  V30 10514 N 1015.45 0.186762 -1.56489 0
M  V30 10515 C 1016.42 1.21511 -1.94339 0
M  V30 10516 C 1017.42 1.38001 -0.82537 0
M  V30 10517 O 1018.61 1.3567 -1.09266 0
M  V30 10518 C 1015.74 2.583 -2.22472 0
M  V30 10519 H 1016.93 0.891371 -2.86347 0
M  V30 10520 H 1014.49 0.428612 -1.50308 0
M  V30 10521 H 1015.22 2.95715 -1.33129 0
M  V30 10522 H 1015.01 2.47701 -3.03951 0
M  V30 10523 H 1016.5 3.32441 -2.5273 0
M  V30 10524 N 1016.93 1.50896 0.454776 0
M  V30 10525 C 1018.16 1.6648 1.22849 0
M  V30 10526 C 1018.58 0.354841 1.85435 0
M  V30 10527 O 1017.93 -0.664931 1.69956 0
M  V30 10528 C 1017.98 2.76787 2.32532 0
M  V30 10529 O 1017.7 4.02706 1.72509 0
M  V30 10530 C 1019.21 3.03488 3.23125 0
M  V30 10531 H 1016.43 0.559152 0.370932 0
M  V30 10532 H 1018.97 1.97215 0.540983 0
M  V30 10533 H 1017.12 2.48701 2.9703 0
M  V30 10534 H 1017.54 4.63834 2.44863 0
M  V30 10535 H 1019.01 3.84294 3.9626 0
M  V30 10536 H 1019.49 2.152 3.82865 0
M  V30 10537 H 1020.1 3.33167 2.64347 0
M  V30 10538 N 1018.41 -0.709066 1.40748 0
M  V30 10539 C 1019.69 -1.4626 1.29874 0
M  V30 10540 C 1020.07 -2.10949 -0.0799322 0
M  V30 10541 O 1019.42 -2.00651 -1.09323 0
M  V30 10542 C 1019.63 -2.49302 2.44232 0
M  V30 10543 C 1020.97 -3.14945 2.84771 0
M  V30 10544 O 1022 -2.59623 2.43873 0
M  V30 10545 O 1020.86 -4.15111 3.5545 0
M  V30 10546 H 1017.95 -0.650716 0.51039 0
M  V30 10547 H 1020.5 -0.740687 1.52682 0
M  V30 10548 H 1019.27 -2.00063 3.36289 0
M  V30 10549 H 1018.89 -3.29021 2.23229 0
M  V30 10550 N 1019.89 -1.26353 -0.941956 0
M  V30 10551 C 1020.82 -1.02163 -2.04054 0
M  V30 10552 C 1021.8 0.0533514 -1.62512 0
M  V30 10553 O 1022.98 -0.0889063 -1.8829 0
M  V30 10554 C 1020.11 -0.546908 -3.34255 0
M  V30 10555 C 1019.16 -1.61433 -3.94768 0
M  V30 10556 S 1019.99 -3.20306 -4.29144 0
M  V30 10557 C 1021.15 -2.746 -5.62446 0
M  V30 10558 H 1021.38 -1.9518 -2.24259 0
M  V30 10559 H 1018.91 -1.10024 -1.08324 0
M  V30 10560 H 1020.87 -0.279673 -4.09546 0
M  V30 10561 H 1019.53 0.36297 -3.11996 0
M  V30 10562 H 1018.72 -1.23315 -4.88681 0
M  V30 10563 H 1018.33 -1.8329 -3.26007 0
M  V30 10564 H 1020.62 -2.19015 -6.41123 0
M  V30 10565 H 1021.56 -3.67202 -6.05449 0
M  V30 10566 H 1021.97 -2.1419 -5.22286 0
M  V30 10567 N 1021.37 1.14642 -1.08144 0
M  V30 10568 C 1022.6 1.89209 -0.82966 0
M  V30 10569 C 1023.01 1.78697 0.621604 0
M  V30 10570 O 1022.35 1.14224 1.4387 0
M  V30 10571 C 1022.41 3.39958 -1.16915 0
M  V30 10572 C 1022.07 3.74254 -2.62264 0
M  V30 10573 C 1023.07 3.746 -3.60514 0
M  V30 10574 C 1020.76 4.04316 -2.9805 0
M  V30 10575 C 1022.75 4.04527 -4.92582 0
M  V30 10576 C 1020.44 4.33906 -4.30312 0
M  V30 10577 C 1021.44 4.33995 -5.27388 0
M  V30 10578 O 1021.12 4.62869 -6.57273 0
M  V30 10579 H 1020.86 0.606259 -0.299042 0
M  V30 10580 H 1023.41 1.46132 -1.44342 0
M  V30 10581 H 1021.64 3.83475 -0.498377 0
M  V30 10582 H 1023.33 3.95828 -0.89862 0
M  V30 10583 H 1024.09 3.51466 -3.34211 0
M  V30 10584 H 1019.97 4.03402 -2.23132 0
M  V30 10585 H 1023.52 4.04511 -5.68346 0
M  V30 10586 H 1019.41 4.5651 -4.56365 0
M  V30 10587 H 1020.18 4.80598 -6.62546 0
M  V30 10588 N 1022.85 0.866709 1.31628 0
M  V30 10589 C 1024.09 0.476731 1.97117 0
M  V30 10590 C 1024.42 -0.967813 1.68366 0
M  V30 10591 O 1023.7 -1.68101 0.978377 0
M  V30 10592 C 1023.98 0.730561 3.52611 0
M  V30 10593 C 1023.84 2.2244 3.90948 0
M  V30 10594 C 1025.15 0.19488 4.39668 0
M  V30 10595 H 1022.27 0.174682 0.715999 0
M  V30 10596 H 1024.92 1.08735 1.5581 0
M  V30 10597 H 1023.07 0.210834 3.87927 0
M  V30 10598 H 1024.74 2.81113 3.6575 0
M  V30 10599 H 1022.98 2.69824 3.39673 0
M  V30 10600 H 1023.65 2.35266 4.99353 0
M  V30 10601 H 1026.13 0.639478 4.11157 0
M  V30 10602 H 1025 0.401958 5.47426 0
M  V30 10603 H 1025.26 -0.90302 4.32779 0
M  V30 10604 N 1024.32 -1.44642 0.625825 0
M  V30 10605 C 1025.55 -2.06159 0.13492 0
M  V30 10606 C 1025.96 -1.46801 -1.19357 0
M  V30 10607 O 1025.3 -0.583345 -1.74192 0
M  V30 10608 C 1025.37 -3.5945 -0.0598481 0
M  V30 10609 C 1025.03 -4.41244 1.18965 0
M  V30 10610 C 1026.03 -4.75064 2.11212 0
M  V30 10611 C 1023.71 -4.81705 1.42359 0
M  V30 10612 C 1025.71 -5.48221 3.25165 0
M  V30 10613 C 1023.39 -5.54612 2.5661 0
M  V30 10614 C 1024.39 -5.87789 3.4784 0
M  V30 10615 O 1024.08 -6.59213 4.60101 0
M  V30 10616 H 1023.81 -0.671888 0.0744464 0
M  V30 10617 H 1026.37 -1.86586 0.858775 0
M  V30 10618 H 1024.6 -3.77493 -0.838792 0
M  V30 10619 H 1026.28 -4.02751 -0.504639 0
M  V30 10620 H 1027.05 -4.44348 1.94371 0
M  V30 10621 H 1022.93 -4.55305 0.722401 0
M  V30 10622 H 1026.47 -5.74035 3.96396 0
M  V30 10623 H 1022.37 -5.84743 2.73396 0
M  V30 10624 H 1023.14 -6.77678 4.59015 0
M  V30 10625 N 1025.8 -0.366053 -1.5329 0
M  V30 10626 C 1027.05 0.223824 -2.01561 0
M  V30 10627 C 1027.38 1.48382 -1.25286 0
M  V30 10628 O 1026.66 1.91385 -0.34669 0
M  V30 10629 C 1026.94 0.5153 -3.56394 0
M  V30 10630 C 1026.79 -0.758357 -4.43361 0
M  V30 10631 C 1028.11 1.31568 -4.19974 0
M  V30 10632 H 1025.23 0.0798751 -0.732659 0
M  V30 10633 H 1027.87 -0.491038 -1.83545 0
M  V30 10634 H 1026.02 1.12429 -3.71876 0
M  V30 10635 H 1027.69 -1.39584 -4.39675 0
M  V30 10636 H 1025.94 -1.37862 -4.11311 0
M  V30 10637 H 1026.61 -0.509366 -5.49645 0
M  V30 10638 H 1029.08 0.800514 -4.08327 0
M  V30 10639 H 1027.96 1.48837 -5.28336 0
M  V30 10640 H 1028.22 2.32432 -3.76069 0
M  V30 10641 N 1027.28 1.57312 -0.0952337 0
M  V30 10642 C 1028.19 2.17556 0.877877 0
M  V30 10643 C 1029.21 1.14505 1.31014 0
M  V30 10644 O 1030.38 1.46876 1.37802 0
M  V30 10645 C 1027.45 2.74413 2.11892 0
M  V30 10646 C 1026.51 3.92419 1.74085 0
M  V30 10647 C 1025.74 4.46556 2.92273 0
M  V30 10648 O 1025.96 3.99631 4.07002 0
M  V30 10649 O 1024.9 5.37576 2.70732 0
M  V30 10650 H 1028.72 3.01116 0.395312 0
M  V30 10651 H 1026.31 1.48841 0.129123 0
M  V30 10652 H 1028.19 3.10754 2.84622 0
M  V30 10653 H 1026.87 1.93899 2.59201 0
M  V30 10654 H 1025.77 3.6089 0.985346 0
M  V30 10655 H 1027.11 4.74298 1.31539 0
M  V30 10656 N 1028.76 -0.17846 1.56586 0
M  V30 10657 C 1029.99 -0.911996 1.85715 0
M  V30 10658 C 1030.4 -1.76138 0.679766 0
M  V30 10659 O 1029.76 -1.79088 -0.351266 0
M  V30 10660 C 1029.81 -1.79459 3.1381 0
M  V30 10661 O 1029.53 -0.979476 4.2701 0
M  V30 10662 C 1031.03 -2.6384 3.56235 0
M  V30 10663 H 1028.25 -0.265299 0.616326 0
M  V30 10664 H 1030.79 -0.180704 2.037 0
M  V30 10665 H 1028.95 -2.4793 2.97673 0
M  V30 10666 H 1029.36 -1.58244 5.00059 0
M  V30 10667 H 1030.84 -3.21396 4.48786 0
M  V30 10668 H 1031.31 -3.38363 2.80013 0
M  V30 10669 H 1031.92 -2.00712 3.7496 0
M  V30 10670 N 1030.24 -1.51135 -0.446768 0
M  V30 10671 C 1031.2 -1.71187 -1.52406 0
M  V30 10672 C 1032.2 -0.582037 -1.49897 0
M  V30 10673 O 1033.39 -0.849452 -1.52085 0
M  V30 10674 C 1030.52 -1.75962 -2.91976 0
M  V30 10675 H 1031.71 -2.67324 -1.35934 0
M  V30 10676 H 1029.27 -1.40982 -0.674813 0
M  V30 10677 H 1030 -0.816065 -3.13864 0
M  V30 10678 H 1029.79 -2.58065 -2.95203 0
M  V30 10679 H 1031.28 -1.93347 -3.70144 0
M  V30 10680 N 1031.71 0.701592 -1.41122 0
M  V30 10681 C 1032.99 1.45569 -1.30648 0
M  V30 10682 C 1033.37 2.10988 0.068744 0
M  V30 10683 O 1032.72 2.01228 1.08257 0
M  V30 10684 C 1032.93 2.48003 -2.45551 0
M  V30 10685 C 1034.28 3.13431 -2.86437 0
M  V30 10686 O 1035.3 2.58327 -2.45247 0
M  V30 10687 O 1034.16 4.13221 -3.57646 0
M  V30 10688 H 1031.25 0.648 -0.513834 0
M  V30 10689 H 1033.8 0.73258 -1.53073 0
M  V30 10690 H 1032.57 1.98276 -3.37346 0
M  V30 10691 H 1032.19 3.27832 -2.24971 0
M  V30 10692 N 1033.19 1.2685 0.935242 0
M  V30 10693 C 1034.47 1.03483 1.65984 0
M  V30 10694 C 1034.85 -0.432859 2.06614 0
M  V30 10695 O 1034.2 -1.4145 1.79455 0
M  V30 10696 C 1034.41 1.98924 2.86758 0
M  V30 10697 C 1035.75 2.2787 3.58274 0
M  V30 10698 O 1036.78 1.96838 2.96873 0
M  V30 10699 O 1035.64 2.80734 4.68882 0
M  V30 10700 H 1032.73 0.393932 0.72715 0
M  V30 10701 H 1035.28 1.38085 0.986445 0
M  V30 10702 H 1034.05 2.9794 2.53668 0
M  V30 10703 H 1033.67 1.64839 3.6182 0
M  V30 10704 N 1034.67 -1.14067 1.0875 0
M  V30 10705 C 1035.9 -1.89041 0.840902 0
M  V30 10706 C 1036.31 -1.78768 -0.60725 0
M  V30 10707 O 1035.67 -1.14945 -1.41753 0
M  V30 10708 C 1035.72 -3.38891 1.25838 0
M  V30 10709 O 1035.44 -3.48886 2.64972 0
M  V30 10710 C 1036.94 -4.30852 1.04315 0
M  V30 10711 H 1034.16 -0.598685 0.303014 0
M  V30 10712 H 1036.71 -1.44438 1.44769 0
M  V30 10713 H 1034.86 -3.81103 0.695627 0
M  V30 10714 H 1035.28 -4.41989 2.82393 0
M  V30 10715 H 1036.75 -5.34353 1.38461 0
M  V30 10716 H 1037.23 -4.39196 -0.0195784 0
M  V30 10717 H 1037.83 -3.944 1.59151 0
M  V30 10718 N 1036.15 -0.873678 -1.31166 0
M  V30 10719 C 1037.4 -0.482577 -1.95842 0
M  V30 10720 C 1037.71 0.970881 -1.69804 0
M  V30 10721 O 1038.92 1.4683 -2.28371 0
M  V30 10722 C 1037.37 -0.812074 -3.50619 0
M  V30 10723 C 1036.98 -2.28254 -3.85492 0
M  V30 10724 C 1038.72 -0.489624 -4.21667 0
M  V30 10725 C 1036.63 -2.55426 -5.33396 0
M  V30 10726 H 1035.56 -0.176736 -0.732994 0
M  V30 10727 H 1038.21 -1.06709 -1.49283 0
M  V30 10728 H 1036.59 -0.156769 -3.9569 0
M  V30 10729 H 1037.77 -2.98122 -3.51369 0
M  V30 10730 H 1036.08 -2.5714 -3.27518 0
M  V30 10731 H 1038.68 -0.669811 -5.30488 0
M  V30 10732 H 1039.02 0.570204 -4.12376 0
M  V30 10733 H 1039.56 -1.10163 -3.82242 0
M  V30 10734 H 1036.3 -3.60106 -5.47726 0
M  V30 10735 H 1035.82 -1.90156 -5.68859 0
M  V30 10736 H 1037.49 -2.40345 -6.00702 0
M  V30 10737 N 1037.63 1.44308 -0.633487 0
M  V30 10738 C 1038.57 2.32455 0.0821956 0
M  V30 10739 C 1039.57 1.47482 0.833388 0
M  V30 10740 O 1040.77 1.63812 0.746021 0
M  V30 10741 H 1037.15 0.750631 0.045352 0
M  V30 10742 H 1039.12 2.90566 -0.679282 0
M  V30 10743 C 1037.87 3.31512 1.04858 0
M  V30 10744 H 1037.19 3.96908 0.479979 0
M  V30 10745 H 1038.63 3.95865 1.51879 0
M  V30 10746 C 1037.09 2.60615 2.13498 0
M  V30 10747 O 1037.62 2.40682 3.21613 0
M  V30 10748 N 1035.83 2.20315 1.89499 0
M  V30 10749 H 1035.37 2.36726 1.01581 0
M  V30 10750 H 1035.33 1.73205 2.62388 0
M  V30 10751 N 1039.1 0.374177 1.53094 0
M  V30 10752 C 1040.35 -0.212816 2.01379 0
M  V30 10753 C 1040.68 -1.48069 1.26118 0
M  V30 10754 O 1039.93 -1.92625 0.345561 0
M  V30 10755 C 1040.23 -0.542179 3.53264 0
M  V30 10756 C 1039.9 0.632375 4.46444 0
M  V30 10757 C 1038.56 0.954635 4.71636 0
M  V30 10758 C 1040.91 1.41887 5.01515 0
M  V30 10759 C 1038.24 2.06521 5.4915 0
M  V30 10760 C 1040.59 2.51993 5.80243 0
M  V30 10761 C 1039.26 2.84744 6.03719 0
M  V30 10762 H 1038.53 -0.0778749 0.736897 0
M  V30 10763 H 1041.17 0.508412 1.84628 0
M  V30 10764 H 1039.48 -1.34454 3.68007 0
M  V30 10765 H 1041.18 -1.00874 3.88105 0
M  V30 10766 H 1037.77 0.371179 4.2699 0
M  V30 10767 H 1041.95 1.18315 4.81991 0
M  V30 10768 H 1037.21 2.32284 5.65557 0
M  V30 10769 H 1041.38 3.13346 6.21922 0
M  V30 10770 H 1039.01 3.70921 6.63568 0
M  V30 10771 N 1040.58 -1.57259 0.103575 0
M  V30 10772 C 1041.81 -1.98711 -0.565454 0
M  V30 10773 C 1042.22 -0.981759 -1.61735 0
M  V30 10774 O 1041.56 0.0357019 -1.83665 0
M  V30 10775 C 1041.63 -3.36552 -1.26384 0
M  V30 10776 C 1041.29 -4.55566 -0.361714 0
M  V30 10777 C 1042.29 -5.18408 0.393539 0
M  V30 10778 C 1039.97 -5.01534 -0.277292 0
M  V30 10779 C 1041.97 -6.25594 1.2211 0
M  V30 10780 C 1039.65 -6.08584 0.553919 0
M  V30 10781 C 1040.65 -6.7048 1.30176 0
M  V30 10782 O 1040.34 -7.75464 2.1192 0
M  V30 10783 H 1040.07 -0.657853 -0.155582 0
M  V30 10784 H 1042.62 -2.04591 0.182089 0
M  V30 10785 H 1040.85 -3.2738 -2.05813 0
M  V30 10786 H 1042.54 -3.62395 -1.82824 0
M  V30 10787 H 1043.31 -4.8382 0.338098 0
M  V30 10788 H 1039.19 -4.53114 -0.849047 0
M  V30 10789 H 1042.73 -6.73836 1.80531 0
M  V30 10790 H 1038.63 -6.42604 0.610809 0
M  V30 10791 H 1039.4 -7.92491 2.04694 0
M  V30 10792 N 1042.06 0.170153 -1.56679 0
M  V30 10793 C 1043.31 0.884902 -1.81252 0
M  V30 10794 C 1043.62 1.83361 -0.681024 0
M  V30 10795 O 1044.83 2.59082 -0.811722 0
M  V30 10796 C 1043.28 1.62408 -3.21172 0
M  V30 10797 C 1042.89 0.718947 -4.42194 0
M  V30 10798 C 1044.64 2.32699 -3.55037 0
M  V30 10799 C 1042.54 1.45843 -5.73135 0
M  V30 10800 H 1041.47 0.33418 -0.675899 0
M  V30 10801 H 1044.12 0.137818 -1.82982 0
M  V30 10802 H 1042.51 2.41596 -3.13763 0
M  V30 10803 H 1043.68 -0.0360521 -4.60786 0
M  V30 10804 H 1042 0.125634 -4.1621 0
M  V30 10805 H 1044.59 2.88621 -4.50114 0
M  V30 10806 H 1044.94 3.08092 -2.79974 0
M  V30 10807 H 1045.47 1.60453 -3.64005 0
M  V30 10808 H 1042.21 0.746799 -6.51232 0
M  V30 10809 H 1041.73 2.18672 -5.58518 0
M  V30 10810 H 1043.41 2.0056 -6.1513 0
M  V30 10811 N 1043.54 1.5137 0.438746 0
M  V30 10812 C 1044.82 1.54508 1.19944 0
M  V30 10813 C 1045.2 0.308525 2.08833 0
M  V30 10814 O 1044.54 -0.706461 2.17305 0
M  V30 10815 C 1044.75 2.85833 2.00251 0
M  V30 10816 C 1046.1 3.37729 2.5734 0
M  V30 10817 O 1047.13 2.87374 2.10463 0
M  V30 10818 O 1045.98 4.25589 3.42836 0
M  V30 10819 H 1043.08 0.621132 0.546007 0
M  V30 10820 H 1045.62 1.63682 0.447931 0
M  V30 10821 H 1044.4 3.67291 1.34955 0
M  V30 10822 H 1044.02 2.79815 2.8247 0
M  V30 10823 N 1045.02 -0.694098 1.41492 0
M  V30 10824 C 1045.93 -1.83778 1.45818 0
M  V30 10825 C 1046.94 -1.70471 0.348639 0
M  V30 10826 O 1048.12 -1.92361 0.596588 0
M  V30 10827 C 1045.18 -3.19771 1.33967 0
M  V30 10828 C 1044.24 -3.45175 2.5525 0
M  V30 10829 C 1043.48 -4.74681 2.43955 0
M  V30 10830 O 1043.7 -5.51268 1.46491 0
M  V30 10831 O 1042.63 -5.00901 3.33739 0
M  V30 10832 H 1046.46 -1.83084 2.42309 0
M  V30 10833 H 1044.05 -0.847349 1.23046 0
M  V30 10834 H 1045.93 -4.00961 1.29648 0
M  V30 10835 H 1044.6 -3.21145 0.405926 0
M  V30 10836 H 1043.51 -2.6391 2.65146 0
M  V30 10837 H 1044.84 -3.48617 3.47458 0
M  V30 10838 N 1046.49 -1.27344 -0.928501 0
M  V30 10839 C 1047.46 -1.10043 -2.01055 0
M  V30 10840 C 1048.46 -0.0446793 -1.60738 0
M  V30 10841 O 1049.65 -0.289202 -1.71783 0
M  V30 10842 C 1046.78 -0.676559 -3.34119 0
M  V30 10843 H 1047.97 -2.06126 -2.17835 0
M  V30 10844 H 1045.53 -1.10121 -1.10919 0
M  V30 10845 H 1046.26 0.285697 -3.23039 0
M  V30 10846 H 1046.05 -1.43903 -3.64739 0
M  V30 10847 H 1047.54 -0.577725 -4.13584 0
M  V30 10848 N 1047.97 1.13488 -1.09353 0
M  V30 10849 C 1049.22 1.841 -0.82401 0
M  V30 10850 C 1049.53 1.84393 0.652586 0
M  V30 10851 O 1050.74 2.5089 1.03762 0
M  V30 10852 C 1049.2 3.30523 -1.42418 0
M  V30 10853 C 1048.8 3.38621 -2.93326 0
M  V30 10854 C 1050.55 4.06182 -1.23356 0
M  V30 10855 C 1048.46 4.79311 -3.46432 0
M  V30 10856 H 1047.39 0.68974 -0.304589 0
M  V30 10857 H 1050.04 1.27866 -1.31615 0
M  V30 10858 H 1048.42 3.86555 -0.859727 0
M  V30 10859 H 1049.59 2.92587 -3.5599 0
M  V30 10860 H 1047.91 2.76426 -3.11412 0
M  V30 10861 H 1050.5 5.10047 -1.60488 0
M  V30 10862 H 1050.85 4.15936 -0.174152 0
M  V30 10863 H 1051.38 3.56477 -1.76547 0
M  V30 10864 H 1048.12 4.74748 -4.5199 0
M  V30 10865 H 1047.64 5.25842 -2.8853 0
M  V30 10866 H 1049.32 5.48227 -3.43593 0
M  V30 10867 N 1049.45 0.880621 1.30701 0
M  V30 10868 C 1050.7 0.495894 1.95922 0
M  V30 10869 C 1051.02 -0.957214 1.69889 0
M  V30 10870 O 1050.29 -1.67245 1.0201 0
M  V30 10871 H 1048.87 0.180394 0.724891 0
M  V30 10872 H 1051.53 1.12274 1.59313 0
M  V30 10873 H 1050.63 0.662508 3.04987 0
M  V30 10874 N 1050.93 -1.4397 0.641131 0
M  V30 10875 C 1051.89 -2.29149 -0.0482243 0
M  V30 10876 C 1052.89 -1.41572 -0.762495 0
M  V30 10877 O 1054.08 -1.63335 -0.605571 0
M  V30 10878 C 1051.21 -3.23375 -1.07896 0
M  V30 10879 H 1052.41 -2.9159 0.70109 0
M  V30 10880 H 1049.96 -1.51048 0.401754 0
M  V30 10881 H 1050.7 -2.65804 -1.85792 0
M  V30 10882 H 1050.48 -3.87926 -0.570597 0
M  V30 10883 H 1051.97 -3.87337 -1.56075 0
M  V30 10884 N 1052.41 -0.382291 -1.52893 0
M  V30 10885 C 1053.65 0.202433 -2.01787 0
M  V30 10886 C 1053.99 1.47044 -1.26853 0
M  V30 10887 O 1053.26 1.91007 -0.366969 0
M  V30 10888 C 1053.54 0.477471 -3.5692 0
M  V30 10889 C 1053.4 -0.805339 -4.42532 0
M  V30 10890 C 1054.72 1.27106 -4.21346 0
M  V30 10891 H 1051.84 0.0720998 -0.733465 0
M  V30 10892 H 1054.48 -0.510478 -1.83014 0
M  V30 10893 H 1052.63 1.08478 -3.73048 0
M  V30 10894 H 1054.3 -1.4424 -4.3817 0
M  V30 10895 H 1052.54 -1.42216 -4.09826 0
M  V30 10896 H 1053.21 -0.567635 -5.49074 0
M  V30 10897 H 1055.69 0.757161 -4.09153 0
M  V30 10898 H 1054.57 1.43225 -5.29885 0
M  V30 10899 H 1054.83 2.28431 -3.78513 0
M  V30 10900 N 1053.89 1.57202 -0.111913 0
M  V30 10901 C 1054.85 2.13778 0.826534 0
M  V30 10902 C 1055.85 1.07097 1.19945 0
M  V30 10903 O 1057.04 1.32906 1.12613 0
M  V30 10904 C 1054.17 2.6722 2.11675 0
M  V30 10905 H 1055.36 2.98023 0.334975 0
M  V30 10906 H 1052.92 1.55696 0.137256 0
M  V30 10907 H 1053.65 1.86542 2.65278 0
M  V30 10908 H 1053.44 3.45235 1.8589 0
M  V30 10909 H 1054.93 3.10926 2.78774 0
M  V30 10910 N 1055.36 -0.161842 1.56767 0
M  V30 10911 C 1056.61 -0.875192 1.82167 0
M  V30 10912 C 1056.93 -1.82367 0.690444 0
M  V30 10913 O 1056.2 -1.93756 -0.289023 0
M  V30 10914 H 1054.78 -0.326178 0.672024 0
M  V30 10915 H 1057.44 -0.159392 1.94247 0
M  V30 10916 H 1056.54 -1.44639 2.76561 0
M  V30 10917 N 1056.84 -1.516 -0.430713 0
M  V30 10918 C 1058.07 -1.68414 -1.20185 0
M  V30 10919 C 1058.48 -0.384297 -1.84847 0
M  V30 10920 O 1057.84 0.637808 -1.70992 0
M  V30 10921 C 1057.89 -2.80451 -2.28099 0
M  V30 10922 O 1057.61 -4.05399 -1.66081 0
M  V30 10923 C 1059.11 -3.0859 -3.18256 0
M  V30 10924 H 1056.33 -0.564982 -0.361989 0
M  V30 10925 H 1058.88 -1.9805 -0.50954 0
M  V30 10926 H 1057.03 -2.53395 -2.93036 0
M  V30 10927 H 1057.45 -4.67671 -2.37453 0
M  V30 10928 H 1058.92 -3.9055 -3.90096 0
M  V30 10929 H 1059.4 -2.21264 -3.79393 0
M  V30 10930 H 1060 -3.37331 -2.59014 0
M  V30 10931 N 1058.32 0.686584 -1.41858 0
M  V30 10932 C 1059.57 1.44879 -1.41908 0
M  V30 10933 C 1059.9 1.94175 -0.0311408 0
M  V30 10934 O 1059.17 1.70131 0.942646 0
M  V30 10935 C 1059.46 2.65428 -2.43352 0
M  V30 10936 C 1059.31 2.2184 -3.91289 0
M  V30 10937 C 1060.63 3.67635 -2.41934 0
M  V30 10938 H 1057.75 0.525477 -0.516762 0
M  V30 10939 H 1060.39 0.781263 -1.73194 0
M  V30 10940 H 1058.54 3.2238 -2.16803 0
M  V30 10941 H 1060.21 1.70146 -4.28775 0
M  V30 10942 H 1058.45 1.53531 -4.05722 0
M  V30 10943 H 1059.13 3.08376 -4.5783 0
M  V30 10944 H 1061.6 3.20376 -2.65516 0
M  V30 10945 H 1060.48 4.49579 -3.14913 0
M  V30 10946 H 1060.74 4.17953 -1.44111 0
M  V30 10947 N 1059.8 1.27835 0.921735 0
M  V30 10948 C 1061.05 1.13904 1.6646 0
M  V30 10949 C 1061.36 -0.313379 1.93073 0
M  V30 10950 O 1062.57 -0.573687 2.6537 0
M  V30 10951 C 1061.02 1.99064 2.99836 0
M  V30 10952 C 1060.63 3.48998 2.80899 0
M  V30 10953 C 1062.37 1.93797 3.77681 0
M  V30 10954 C 1060.28 4.26337 4.09867 0
M  V30 10955 H 1059.21 0.422681 0.624385 0
M  V30 10956 H 1061.86 1.52303 1.02352 0
M  V30 10957 H 1060.24 1.53514 3.65034 0
M  V30 10958 H 1061.42 4.02452 2.24431 0
M  V30 10959 H 1059.73 3.55707 2.16476 0
M  V30 10960 H 1062.33 2.48852 4.73262 0
M  V30 10961 H 1062.67 0.912928 4.06167 0
M  V30 10962 H 1063.21 2.37275 3.19289 0
M  V30 10963 H 1059.94 5.2939 3.86557 0
M  V30 10964 H 1059.46 3.77659 4.65976 0
M  V30 10965 H 1061.14 4.3583 4.78185 0
M  V30 10966 N 1061.28 -1.12907 1.09954 0
M  V30 10967 C 1062.19 -2.22082 0.756095 0
M  V30 10968 C 1063.2 -1.72277 -0.244272 0
M  V30 10969 O 1064.38 -2.01224 -0.0842637 0
M  V30 10970 C 1061.44 -3.46192 0.187642 0
M  V30 10971 C 1060.5 -4.10861 1.24465 0
M  V30 10972 C 1059.74 -5.29047 0.703227 0
M  V30 10973 O 1059.96 -5.68443 -0.472043 0
M  V30 10974 O 1058.89 -5.83904 1.46082 0
M  V30 10975 H 1062.72 -2.53842 1.66727 0
M  V30 10976 H 1060.3 -1.21145 0.874316 0
M  V30 10977 H 1062.19 -4.21212 -0.125774 0
M  V30 10978 H 1060.86 -3.16119 -0.696459 0
M  V30 10979 H 1059.77 -3.37643 1.61085 0
M  V30 10980 H 1061.1 -4.45078 2.10159 0
M  V30 10981 N 1062.75 -0.88754 -1.30232 0
M  V30 10982 C 1064 -0.506277 -1.95656 0
M  V30 10983 C 1064.32 0.948191 -1.70395 0
M  V30 10984 O 1063.59 1.66701 -1.02895 0
M  V30 10985 H 1062.17 -0.184235 -0.723924 0
M  V30 10986 H 1064.83 -1.13118 -1.58715 0
M  V30 10987 H 1063.93 -0.678673 -3.04632 0
M  V30 10988 N 1064.23 1.43628 -0.648757 0
M  V30 10989 C 1065.64 1.85142 -0.24066 0
M  V30 10990 C 1065.99 1.54304 1.21181 0
M  V30 10991 O 1065.12 0.989792 1.92437 0
M  V30 10992 C 1065.71 3.3606 -0.429999 0
M  V30 10993 C 1064.27 3.76323 -0.0762588 0
M  V30 10994 C 1063.42 2.67382 -0.734999 0
M  V30 10995 H 1066.37 1.33844 -0.852734 0
M  V30 10996 H 1066.39 3.79102 0.325836 0
M  V30 10997 H 1065.9 3.58474 -1.48721 0
M  V30 10998 H 1064.01 3.59521 0.978529 0
M  V30 10999 H 1064.12 4.76498 -0.498612 0
M  V30 11000 H 1062.48 2.54141 -0.168644 0
M  V30 11001 H 1063.27 2.92625 -1.79515 0
M  V30 11002 N 1065.71 0.390394 1.52688 0
M  V30 11003 C 1066.67 -0.432149 2.25089 0
M  V30 11004 C 1067.67 -0.989296 1.26766 0
M  V30 11005 O 1068.86 -0.871126 1.50854 0
M  V30 11006 C 1066 -1.60642 3.00678 0
M  V30 11007 H 1067.19 0.201734 2.99221 0
M  V30 11008 H 1064.74 0.142531 1.55649 0
M  V30 11009 H 1065.48 -2.2777 2.3085 0
M  V30 11010 H 1065.26 -1.21361 3.72846 0
M  V30 11011 H 1066.75 -2.18873 3.55647 0
M  V30 11012 N 1067.19 -1.57141 0.120249 0
M  V30 11013 C 1068.6 -1.82256 -0.404931 0
M  V30 11014 C 1068.95 -1.03748 -1.66526 0
M  V30 11015 O 1068.08 -0.274456 -2.14653 0
M  V30 11016 C 1068.67 -3.30588 -0.741431 0
M  V30 11017 C 1067.23 -3.56379 -1.21124 0
M  V30 11018 C 1066.38 -2.76421 -0.220569 0
M  V30 11019 H 1069.33 -1.54897 0.345361 0
M  V30 11020 H 1069.35 -3.45284 -1.59872 0
M  V30 11021 H 1068.86 -3.87701 0.176036 0
M  V30 11022 H 1066.96 -3.04625 -2.14556 0
M  V30 11023 H 1067.07 -4.64952 -1.1557 0
M  V30 11024 H 1065.44 -2.44666 -0.707857 0
M  V30 11025 H 1066.22 -3.36294 0.690018 0
M  V30 11026 N 1068.67 0.153526 -1.5685 0
M  V30 11027 C 1069.6 1.2147 -1.94365 0
M  V30 11028 C 1070.61 1.39532 -0.838726 0
M  V30 11029 O 1071.8 1.39219 -1.11715 0
M  V30 11030 C 1068.9 2.5806 -2.19677 0
M  V30 11031 C 1068.07 2.61062 -3.50949 0
M  V30 11032 C 1067.13 3.79144 -3.64878 0
M  V30 11033 O 1066.16 3.64319 -4.37333 0
M  V30 11034 N 1067.36 4.96333 -3.01054 0
M  V30 11035 H 1070.13 0.895889 -2.85996 0
M  V30 11036 H 1067.69 0.343147 -1.58222 0
M  V30 11037 H 1069.68 3.35553 -2.26243 0
M  V30 11038 H 1068.25 2.8226 -1.34343 0
M  V30 11039 H 1067.47 1.69533 -3.55882 0
M  V30 11040 H 1068.76 2.60094 -4.37297 0
M  V30 11041 H 1068.15 5.1128 -2.42093 0
M  V30 11042 H 1066.71 5.71625 -3.13191 0
M  V30 11043 N 1070.14 1.51827 0.422667 0
M  V30 11044 C 1071.56 1.57533 1.00201 0
M  V30 11045 C 1071.91 0.407623 1.91919 0
M  V30 11046 O 1071.03 -0.473763 2.1115 0
M  V30 11047 C 1071.63 2.85508 1.82403 0
M  V30 11048 C 1070.19 2.93737 2.35362 0
M  V30 11049 C 1069.33 2.52343 1.14971 0
M  V30 11050 H 1072.28 1.57391 0.20339 0
M  V30 11051 H 1072.3 2.70097 2.68007 0
M  V30 11052 H 1071.82 3.70477 1.15623 0
M  V30 11053 H 1069.92 2.13231 3.05554 0
M  V30 11054 H 1070.03 3.977 2.67155 0
M  V30 11055 H 1068.39 2.05878 1.49955 0
M  V30 11056 H 1069.18 3.39672 0.497786 0
M  V30 11057 N 1071.62 -0.679052 1.4222 0
M  V30 11058 C 1072.85 -1.46747 1.45852 0
M  V30 11059 C 1073.27 -1.88675 0.0685937 0
M  V30 11060 O 1072.62 -1.57861 -0.915757 0
M  V30 11061 C 1072.67 -2.71935 2.38188 0
M  V30 11062 O 1072.39 -2.31768 3.71773 0
M  V30 11063 C 1073.9 -3.65536 2.50796 0
M  V30 11064 H 1071.12 -0.451682 0.49621 0
M  V30 11065 H 1073.66 -0.834723 1.86689 0
M  V30 11066 H 1071.81 -3.31409 2.00616 0
M  V30 11067 H 1072.23 -3.12579 4.21182 0
M  V30 11068 H 1073.7 -4.50113 3.19535 0
M  V30 11069 H 1074.18 -4.11148 1.54447 0
M  V30 11070 H 1074.79 -3.11957 2.89072 0
M  V30 11071 N 1073.1 -1.28322 -0.914942 0
M  V30 11072 C 1074.03 -1.07947 -2.02188 0
M  V30 11073 C 1075.05 -0.0315743 -1.62769 0
M  V30 11074 O 1076.23 -0.274503 -1.76377 0
M  V30 11075 C 1073.33 -0.61805 -3.33217 0
M  V30 11076 C 1072.51 -1.74109 -4.01254 0
M  V30 11077 C 1071.57 -1.27325 -5.10563 0
M  V30 11078 O 1070.59 -1.97526 -5.33828 0
M  V30 11079 N 1071.79 -0.1358 -5.80341 0
M  V30 11080 H 1074.56 -2.03275 -2.20225 0
M  V30 11081 H 1072.12 -1.20059 -1.08616 0
M  V30 11082 H 1074.11 -0.288693 -4.03669 0
M  V30 11083 H 1072.68 0.242348 -3.11659 0
M  V30 11084 H 1071.9 -2.2401 -3.24366 0
M  V30 11085 H 1073.19 -2.49448 -4.43456 0
M  V30 11086 H 1072.59 0.449846 -5.63909 0
M  V30 11087 H 1071.15 0.134289 -6.51662 0
M  V30 11088 N 1074.58 1.12322 -1.10551 0
M  V30 11089 C 1075.99 1.6539 -0.8662 0
M  V30 11090 C 1076.34 1.86695 0.603284 0
M  V30 11091 O 1075.47 1.59432 1.46323 0
M  V30 11092 C 1076.06 3.00443 -1.56587 0
M  V30 11093 C 1074.62 3.50456 -1.37323 0
M  V30 11094 C 1073.77 2.25454 -1.61449 0
M  V30 11095 H 1076.72 0.960866 -1.26305 0
M  V30 11096 H 1076.74 3.66972 -1.00557 0
M  V30 11097 H 1076.25 2.84905 -2.63535 0
M  V30 11098 H 1074.35 3.71176 -0.325431 0
M  V30 11099 H 1074.46 4.29839 -2.11601 0
M  V30 11100 H 1072.83 2.32621 -1.03729 0
M  V30 11101 H 1073.61 2.12469 -2.69651 0
M  V30 11102 N 1076.06 0.894434 1.2976 0
M  V30 11103 C 1077.47 0.566892 1.77885 0
M  V30 11104 C 1077.82 -0.917289 1.73437 0
M  V30 11105 O 1076.94 -1.71707 1.31703 0
M  V30 11106 C 1077.54 1.02227 3.2301 0
M  V30 11107 C 1076.1 0.745978 3.68934 0
M  V30 11108 C 1075.24 1.19993 2.49994 0
M  V30 11109 H 1078.2 1.0777 1.16496 0
M  V30 11110 H 1078.22 0.355281 3.78838 0
M  V30 11111 H 1077.73 2.1025 3.26215 0
M  V30 11112 H 1075.83 -0.321866 3.71207 0
M  V30 11113 H 1075.94 1.34017 4.59974 0
M  V30 11114 H 1074.31 0.619047 2.47063 0
M  V30 11115 H 1075.09 2.28811 2.55931 0
M  V30 11116 N 1077.53 -1.43282 0.656365 0
M  V30 11117 C 1078.78 -2.02075 0.171293 0
M  V30 11118 C 1079.11 -1.51682 -1.21269 0
M  V30 11119 O 1078.39 -0.711243 -1.81029 0
M  V30 11120 C 1078.67 -3.59621 0.185602 0
M  V30 11121 C 1078.52 -4.20239 1.60373 0
M  V30 11122 C 1079.84 -4.37515 -0.476289 0
M  V30 11123 H 1076.96 -0.73424 0.0637185 0
M  V30 11124 H 1079.6 -1.70539 0.837648 0
M  V30 11125 H 1077.75 -3.86619 -0.381804 0
M  V30 11126 H 1079.43 -4.0426 2.22197 0
M  V30 11127 H 1077.67 -3.76769 2.15006 0
M  V30 11128 H 1078.34 -5.29333 1.56557 0
M  V30 11129 H 1080.82 -4.16099 0.00651073 0
M  V30 11130 H 1079.69 -5.47169 -0.435562 0
M  V30 11131 H 1079.95 -4.14003 -1.55093 0
M  V30 11132 N 1079.01 -0.398486 -1.52479 0
M  V30 11133 C 1079.94 0.423498 -2.29627 0
M  V30 11134 C 1080.92 1.05547 -1.33394 0
M  V30 11135 O 1082.11 1.0665 -1.62294 0
M  V30 11136 C 1079.24 1.54612 -3.10986 0
M  V30 11137 C 1078.19 1.03971 -4.15179 0
M  V30 11138 C 1077.52 2.25512 -4.84818 0
M  V30 11139 C 1078.82 0.10121 -5.22202 0
M  V30 11140 H 1080.51 -0.220222 -2.98589 0
M  V30 11141 H 1078.06 -0.107355 -1.43599 0
M  V30 11142 H 1080.01 2.12806 -3.63719 0
M  V30 11143 H 1078.74 2.21756 -2.39774 0
M  V30 11144 H 1077.4 0.480251 -3.63441 0
M  V30 11145 H 1077.04 2.91187 -4.10145 0
M  V30 11146 H 1076.74 1.92285 -5.55248 0
M  V30 11147 H 1078.27 2.84331 -5.40359 0
M  V30 11148 H 1079.68 0.591617 -5.70239 0
M  V30 11149 H 1078.08 -0.141737 -5.99933 0
M  V30 11150 H 1079.15 -0.847216 -4.77441 0
M  V30 11151 N 1080.49 1.57075 -0.12858 0
M  V30 11152 C 1081.42 2.18833 0.814519 0
M  V30 11153 C 1082.4 1.13114 1.2704 0
M  V30 11154 O 1083.59 1.41387 1.33129 0
M  V30 11155 C 1080.72 2.79535 2.06101 0
M  V30 11156 C 1079.67 3.9092 1.74257 0
M  V30 11157 C 1079 4.38473 3.06015 0
M  V30 11158 C 1080.3 5.1257 1.00345 0
M  V30 11159 H 1081.99 2.97895 0.299862 0
M  V30 11160 H 1079.54 1.4329 0.14279 0
M  V30 11161 H 1081.49 3.21401 2.72543 0
M  V30 11162 H 1080.21 1.97777 2.59907 0
M  V30 11163 H 1078.87 3.49645 1.102 0
M  V30 11164 H 1078.52 3.53561 3.57776 0
M  V30 11165 H 1078.22 5.13591 2.85479 0
M  V30 11166 H 1079.75 4.82997 3.7356 0
M  V30 11167 H 1081.16 5.51395 1.56959 0
M  V30 11168 H 1079.56 5.93333 0.898693 0
M  V30 11169 H 1080.63 4.84899 -0.0081335 0
M  V30 11170 N 1081.97 -0.145205 1.5693 0
M  V30 11171 C 1083.22 -0.855822 1.83085 0
M  V30 11172 C 1083.54 -1.81625 0.709747 0
M  V30 11173 O 1082.81 -1.94052 -0.268456 0
M  V30 11174 H 1081.39 -0.319032 0.675446 0
M  V30 11175 H 1084.05 -0.138781 1.94405 0
M  V30 11176 H 1083.15 -1.41698 2.78079 0
M  V30 11177 N 1083.45 -1.52049 -0.414609 0
M  V30 11178 C 1084.72 -1.56397 -1.17471 0
M  V30 11179 C 1085.1 -0.34171 -2.08316 0
M  V30 11180 O 1084.45 0.6718 -2.18401 0
M  V30 11181 C 1084.66 -2.88983 -1.95678 0
M  V30 11182 C 1086.01 -3.41781 -2.51935 0
M  V30 11183 O 1087.03 -2.90686 -2.05865 0
M  V30 11184 O 1085.89 -4.30989 -3.36022 0
M  V30 11185 H 1082.99 -0.62974 -0.536056 0
M  V30 11186 H 1085.53 -1.64374 -0.421834 0
M  V30 11187 H 1084.31 -3.69392 -1.29094 0
M  V30 11188 H 1083.93 -2.84274 -2.77983 0
M  V30 11189 N 1084.93 0.6715 -1.42579 0
M  V30 11190 C 1086.17 1.43366 -1.43436 0
M  V30 11191 C 1086.5 1.94131 -0.0517339 0
M  V30 11192 O 1085.78 1.71121 0.924548 0
M  V30 11193 C 1086.06 2.62832 -2.46154 0
M  V30 11194 C 1085.92 2.17677 -3.9362 0
M  V30 11195 C 1087.23 3.65049 -2.4582 0
M  V30 11196 H 1084.35 0.519967 -0.522306 0
M  V30 11197 H 1087 0.762849 -1.74013 0
M  V30 11198 H 1085.15 3.20062 -2.2021 0
M  V30 11199 H 1086.82 1.65588 -4.30556 0
M  V30 11200 H 1085.06 1.49219 -4.07328 0
M  V30 11201 H 1085.73 3.03503 -4.61075 0
M  V30 11202 H 1088.21 3.17541 -2.68899 0
M  V30 11203 H 1087.08 4.46213 -3.19664 0
M  V30 11204 H 1087.34 4.16401 -1.48536 0
M  V30 11205 N 1086.4 1.28806 0.908124 0
M  V30 11206 C 1087.35 1.13083 2.03261 0
M  V30 11207 C 1088.35 0.0486094 1.6933 0
M  V30 11208 O 1089.55 0.207794 1.78797 0
M  V30 11209 H 1085.93 0.349057 0.666081 0
M  V30 11210 H 1087.9 2.08304 2.13663 0
M  V30 11211 C 1086.65 0.815339 3.38005 0
M  V30 11212 H 1085.97 1.64007 3.64612 0
M  V30 11213 H 1087.41 0.745311 4.17398 0
M  V30 11214 C 1085.87 -0.48113 3.33447 0
M  V30 11215 O 1086.4 -1.50974 3.7225 0
M  V30 11216 N 1084.6 -0.483912 2.86543 0
M  V30 11217 H 1084.15 0.353593 2.55162 0
M  V30 11218 H 1084.11 -1.35138 2.83875 0
M  V30 11219 N 1087.88 -1.11734 1.11145 0
M  V30 11220 C 1089.13 -1.83043 0.856717 0
M  V30 11221 C 1089.45 -1.84901 -0.619407 0
M  V30 11222 O 1088.72 -1.31738 -1.44989 0
M  V30 11223 H 1087.3 -0.677823 0.31395 0
M  V30 11224 H 1089.96 -1.35262 1.40322 0
M  V30 11225 H 1089.06 -2.87005 1.22616 0
M  V30 11226 N 1089.36 -0.901303 -1.29284 0
M  V30 11227 C 1090.64 -0.44747 -1.90413 0
M  V30 11228 C 1091.02 1.07298 -1.81797 0
M  V30 11229 O 1090.36 1.91555 -1.24574 0
M  V30 11230 C 1090.57 -0.963849 -3.35427 0
M  V30 11231 C 1091.92 -1.00851 -4.12449 0
M  V30 11232 O 1092.95 -0.91163 -3.44337 0
M  V30 11233 O 1091.81 -1.15426 -5.34171 0
M  V30 11234 H 1088.9 -0.13976 -0.815105 0
M  V30 11235 H 1091.45 -0.991274 -1.37738 0
M  V30 11236 H 1090.22 -2.00782 -3.3586 0
M  V30 11237 H 1089.84 -0.400149 -3.95581 0
M  V30 11238 N 1090.84 1.42931 -0.663954 0
M  V30 11239 C 1092.09 2.01284 -0.181379 0
M  V30 11240 C 1092.41 1.52708 1.21265 0
M  V30 11241 O 1091.68 0.744181 1.81215 0
M  V30 11242 H 1090.26 0.744248 -0.0640646 0
M  V30 11243 H 1092.92 1.74997 -0.858031 0
M  V30 11244 H 1092.01 3.11613 -0.174273 0
M  V30 11245 N 1092.32 0.406567 1.52266 0
M  V30 11246 C 1093.54 -0.169624 2.06204 0
M  V30 11247 C 1093.96 -1.39076 1.27684 0
M  V30 11248 O 1093.32 -1.79528 0.328023 0
M  V30 11249 C 1093.37 -0.522611 3.57702 0
M  V30 11250 O 1093.09 0.650028 4.33251 0
M  V30 11251 C 1094.59 -1.15281 4.28048 0
M  V30 11252 H 1091.81 -0.0215191 0.670655 0
M  V30 11253 H 1094.35 0.576781 1.96198 0
M  V30 11254 H 1092.51 -1.21891 3.67725 0
M  V30 11255 H 1092.92 0.355989 5.23291 0
M  V30 11256 H 1094.4 -1.35002 5.35237 0
M  V30 11257 H 1094.87 -2.12517 3.84361 0
M  V30 11258 H 1095.48 -0.496786 4.22389 0
M  V30 11259 N 1093.79 -1.57004 0.136909 0
M  V30 11260 C 1095.04 -1.94972 -0.51662 0
M  V30 11261 C 1095.36 -1.02367 -1.66674 0
M  V30 11262 O 1096.56 -1.29873 -2.38423 0
M  V30 11263 C 1095.02 -3.4657 -0.970435 0
M  V30 11264 C 1094.63 -4.47741 0.152204 0
M  V30 11265 C 1096.37 -3.93423 -1.59432 0
M  V30 11266 C 1094.28 -5.90537 -0.319315 0
M  V30 11267 H 1093.21 -0.727873 -0.196766 0
M  V30 11268 H 1095.86 -1.82181 0.219637 0
M  V30 11269 H 1094.24 -3.54657 -1.76165 0
M  V30 11270 H 1095.41 -4.5134 0.928925 0
M  V30 11271 H 1093.73 -4.10746 0.683867 0
M  V30 11272 H 1096.33 -4.97539 -1.95856 0
M  V30 11273 H 1096.67 -3.34404 -2.47951 0
M  V30 11274 H 1097.2 -3.8821 -0.868193 0
M  V30 11275 H 1093.94 -6.53352 0.530248 0
M  V30 11276 H 1093.46 -5.90321 -1.06213 0
M  V30 11277 H 1095.14 -6.42346 -0.774662 0
M  V30 11278 N 1095.27 0.136881 -1.57004 0
M  V30 11279 C 1096.22 1.18782 -1.99984 0
M  V30 11280 C 1097.21 1.43899 -0.893841 0
M  V30 11281 O 1098.42 1.44072 -1.07904 0
M  V30 11282 H 1094.8 0.400065 -0.636751 0
M  V30 11283 H 1096.77 0.798696 -2.87512 0
M  V30 11284 C 1095.52 2.51105 -2.40502 0
M  V30 11285 H 1094.84 2.32611 -3.25165 0
M  V30 11286 H 1096.28 3.23244 -2.74389 0
M  V30 11287 C 1094.74 3.12386 -1.26161 0
M  V30 11288 O 1095.27 3.97666 -0.567836 0
M  V30 11289 N 1093.47 2.71989 -1.02326 0
M  V30 11290 H 1093.02 2.02736 -1.58921 0
M  V30 11291 H 1092.98 3.13322 -0.26013 0
M  V30 11292 N 1096.75 1.52266 0.40654 0
M  V30 11293 C 1097.98 1.70598 1.17945 0
M  V30 11294 C 1098.4 0.415793 1.83447 0
M  V30 11295 O 1097.76 -0.626968 1.70114 0
M  V30 11296 C 1097.81 2.84449 2.21633 0
M  V30 11297 O 1096.91 2.50199 3.27833 0
M  V30 11298 H 1096.25 0.567837 0.344177 0
M  V30 11299 H 1098.78 1.98981 0.476211 0
M  V30 11300 H 1098.79 3.09436 2.65919 0
M  V30 11301 H 1097.47 3.78055 1.73341 0
M  V30 11302 H 1096.04 2.35892 2.88807 0
M  V30 11303 N 1098.23 -0.663929 1.42933 0
M  V30 11304 C 1099.46 -1.45192 1.474 0
M  V30 11305 C 1099.87 -1.88592 0.0886014 0
M  V30 11306 O 1099.23 -1.58824 -0.898962 0
M  V30 11307 C 1099.28 -2.69394 2.41059 0
M  V30 11308 O 1099 -2.27812 3.7421 0
M  V30 11309 C 1100.5 -3.62855 2.54659 0
M  V30 11310 H 1097.72 -0.446394 0.500973 0
M  V30 11311 H 1100.27 -0.814875 1.87563 0
M  V30 11312 H 1098.42 -3.29262 2.0412 0
M  V30 11313 H 1098.83 -3.08095 4.24474 0
M  V30 11314 H 1100.31 -4.46698 3.24291 0
M  V30 11315 H 1100.79 -4.09487 1.58799 0
M  V30 11316 H 1101.39 -3.08874 2.92364 0
M  V30 11317 N 1099.71 -1.29285 -0.901281 0
M  V30 11318 C 1100.98 -1.07847 -1.63182 0
M  V30 11319 C 1101.36 0.377927 -2.07689 0
M  V30 11320 O 1100.71 1.36642 -1.83143 0
M  V30 11321 C 1100.92 -2.06457 -2.81383 0
M  V30 11322 C 1102.27 -2.37289 -3.52107 0
M  V30 11323 O 1103.29 -2.0464 -2.91549 0
M  V30 11324 O 1102.15 -2.93067 -4.61274 0
M  V30 11325 H 1099.25 -0.413073 -0.71645 0
M  V30 11326 H 1101.79 -1.40651 -0.949488 0
M  V30 11327 H 1100.56 -3.04561 -2.4568 0
M  V30 11328 H 1100.19 -1.74374 -3.57323 0
M  V30 11329 N 1101.18 1.11143 -1.11736 0
M  V30 11330 C 1102.11 2.19339 -0.800795 0
M  V30 11331 C 1103.1 1.68508 0.23221 0
M  V30 11332 O 1104.28 1.93967 0.0950063 0
M  V30 11333 C 1101.41 3.46424 -0.246579 0
M  V30 11334 C 1100.36 4.10487 -1.21181 0
M  V30 11335 C 1099.69 5.32183 -0.518158 0
M  V30 11336 C 1100.99 4.55052 -2.56368 0
M  V30 11337 H 1102.68 2.46077 -1.70548 0
M  V30 11338 H 1100.23 1.18271 -0.821454 0
M  V30 11339 H 1102.18 4.21398 -0.0128889 0
M  V30 11340 H 1100.91 3.19154 0.693415 0
M  V30 11341 H 1099.57 3.3751 -1.43118 0
M  V30 11342 H 1099.21 5.01187 0.426742 0
M  V30 11343 H 1098.91 5.75997 -1.16196 0
M  V30 11344 H 1100.44 6.09895 -0.293333 0
M  V30 11345 H 1101.85 5.21335 -2.38501 0
M  V30 11346 H 1100.25 5.0969 -3.16758 0
M  V30 11347 H 1101.32 3.68343 -3.1536 0
M  V30 11348 N 1102.66 0.908147 1.28804 0
M  V30 11349 C 1103.89 0.55409 1.99343 0
M  V30 11350 C 1104.31 -0.863262 1.67908 0
M  V30 11351 O 1103.66 -1.571 0.92875 0
M  V30 11352 C 1103.71 0.746916 3.537 0
M  V30 11353 O 1103.43 2.10849 3.84024 0
M  V30 11354 C 1104.94 0.398939 4.41501 0
M  V30 11355 H 1102.16 0.211784 0.636701 0
M  V30 11356 H 1104.7 1.21981 1.64137 0
M  V30 11357 H 1102.85 0.128264 3.87188 0
M  V30 11358 H 1103.27 2.14404 4.78676 0
M  V30 11359 H 1104.74 0.584656 5.48895 0
M  V30 11360 H 1105.22 -0.664517 4.34144 0
M  V30 11361 H 1105.83 0.994892 4.135 0
M  V30 11362 N 1104.14 -1.42577 0.671525 0
M  V30 11363 C 1105.07 -2.28124 -0.0589347 0
M  V30 11364 C 1106.05 -1.40878 -0.811915 0
M  V30 11365 O 1107.24 -1.70318 -0.807717 0
M  V30 11366 C 1104.36 -3.20662 -1.09057 0
M  V30 11367 C 1103.41 -4.24291 -0.43355 0
M  V30 11368 S 1104.24 -5.29393 0.806442 0
M  V30 11369 C 1105.4 -6.25498 -0.224204 0
M  V30 11370 H 1105.63 -2.89728 0.666689 0
M  V30 11371 H 1103.16 -1.47359 0.460959 0
M  V30 11372 H 1105.12 -3.74516 -1.68071 0
M  V30 11373 H 1103.78 -2.582 -1.78862 0
M  V30 11374 H 1102.98 -4.89213 -1.21186 0
M  V30 11375 H 1102.58 -3.73908 0.0829136 0
M  V30 11376 H 1104.87 -6.68757 -1.08492 0
M  V30 11377 H 1105.81 -7.07023 0.390469 0
M  V30 11378 H 1106.22 -5.61633 -0.568214 0
M  V30 11379 N 1105.62 -0.414636 -1.52048 0
M  V30 11380 C 1106.55 0.399119 -2.30064 0
M  V30 11381 C 1107.53 1.04126 -1.34506 0
M  V30 11382 O 1108.71 1.04923 -1.63416 0
M  V30 11383 C 1105.84 1.51305 -3.12608 0
M  V30 11384 C 1104.8 0.995621 -4.16259 0
M  V30 11385 C 1104.12 2.20357 -4.87183 0
M  V30 11386 C 1105.42 0.0458178 -5.2228 0
M  V30 11387 H 1107.12 -0.251879 -2.98339 0
M  V30 11388 H 1104.66 -0.122579 -1.43477 0
M  V30 11389 H 1106.62 2.08936 -3.65956 0
M  V30 11390 H 1105.34 2.19201 -2.42113 0
M  V30 11391 H 1104 0.441676 -3.6393 0
M  V30 11392 H 1103.65 2.8682 -4.13211 0
M  V30 11393 H 1103.35 1.86385 -5.57256 0
M  V30 11394 H 1104.87 2.78584 -5.43345 0
M  V30 11395 H 1106.29 0.531102 -5.70835 0
M  V30 11396 H 1104.68 -0.20536 -5.99749 0
M  V30 11397 H 1105.75 -0.897807 -4.76516 0
M  V30 11398 N 1107.1 1.56929 -0.145233 0
M  V30 11399 C 1108.04 2.16671 0.795128 0
M  V30 11400 C 1109.01 1.09908 1.24537 0
M  V30 11401 O 1110.2 1.37941 1.31821 0
M  V30 11402 C 1107.34 2.79111 2.02956 0
M  V30 11403 C 1106.45 4.00261 1.62528 0
M  V30 11404 C 1105.59 4.50705 2.81137 0
M  V30 11405 C 1104.63 5.64324 2.37075 0
M  V30 11406 N 1103.76 6.09395 3.48687 0
M  V30 11407 H 1108.6 2.96692 0.278865 0
M  V30 11408 H 1106.14 1.4656 0.125934 0
M  V30 11409 H 1108.1 3.13456 2.7532 0
M  V30 11410 H 1106.73 2.01737 2.51996 0
M  V30 11411 H 1105.78 3.71906 0.799365 0
M  V30 11412 H 1107.09 4.8258 1.26166 0
M  V30 11413 H 1106.25 4.87096 3.61693 0
M  V30 11414 H 1104.98 3.67389 3.20744 0
M  V30 11415 H 1103.99 5.27511 1.54958 0
M  V30 11416 H 1105.21 6.49425 1.98556 0
M  V30 11417 H 1103.16 5.29014 3.87917 0
M  V30 11418 H 1103.08 6.86636 3.16333 0
M  V30 11419 H 1104.35 6.50431 4.29605 0
M  V30 11420 N 1108.58 -0.128553 1.57075 0
M  V30 11421 C 1109.99 -0.481794 1.52154 0
M  V30 11422 C 1110.19 -1.82381 0.856694 0
M  V30 11423 O 1109.25 -2.48725 0.434989 0
M  V30 11424 C 1110.56 -0.475091 2.96923 0
M  V30 11425 C 1112.11 -0.559315 3.07962 0
M  V30 11426 C 1112.58 -0.583095 4.54273 0
M  V30 11427 N 1114.07 -0.644803 4.5869 0
M  V30 11428 C 1114.81 -0.684493 5.693 0
M  V30 11429 N 1114.31 -0.682407 6.89431 0
M  V30 11430 N 1116.1 -0.726777 5.57382 0
M  V30 11431 H 1108.25 0.750894 1.98684 0
M  V30 11432 H 1110.51 0.27593 0.906955 0
M  V30 11433 H 1110.22 0.443157 3.48897 0
M  V30 11434 H 1110.09 -1.30637 3.53856 0
M  V30 11435 H 1112.48 -1.46798 2.55997 0
M  V30 11436 H 1112.56 0.299468 2.54041 0
M  V30 11437 H 1112.2 0.32149 5.06881 0
M  V30 11438 H 1112.13 -1.45863 5.05996 0
M  V30 11439 H 1114.63 -0.652967 3.72216 0
M  V30 11440 H 1114.94 -0.715051 7.69485 0
M  V30 11441 H 1113.28 -0.649984 6.91954 0
M  V30 11442 H 1116.47 -0.725704 4.6244 0
M  V30 11443 H 1116.65 -0.754242 6.43596 0
M  V30 11444 N 1110.05 -1.5248 -0.398459 0
M  V30 11445 C 1111.28 -1.71221 -1.17039 0
M  V30 11446 C 1111.7 -0.425515 -1.83224 0
M  V30 11447 O 1111.06 0.617938 -1.70444 0
M  V30 11448 C 1111.11 -2.8562 -2.20121 0
M  V30 11449 O 1110.21 -2.51934 -3.26501 0
M  V30 11450 H 1109.55 -0.569654 -0.34116 0
M  V30 11451 H 1112.08 -1.99231 -0.465652 0
M  V30 11452 H 1112.09 -3.10842 -2.64275 0
M  V30 11453 H 1110.77 -3.78969 -1.71334 0
M  V30 11454 H 1109.35 -2.3742 -2.87552 0
M  V30 11455 N 1111.53 0.65634 -1.43283 0
M  V30 11456 C 1112.78 1.41837 -1.44949 0
M  V30 11457 C 1113.11 1.94065 -0.0723212 0
M  V30 11458 O 1112.39 1.72092 0.906346 0
M  V30 11459 C 1112.67 2.60206 -2.48927 0
M  V30 11460 C 1112.52 2.1349 -3.95907 0
M  V30 11461 C 1113.84 3.62421 -2.49678 0
M  V30 11462 H 1110.96 0.514398 -0.527792 0
M  V30 11463 H 1113.6 0.74435 -1.74813 0
M  V30 11464 H 1111.75 3.17708 -2.23592 0
M  V30 11465 H 1113.42 1.61012 -4.32288 0
M  V30 11466 H 1111.67 1.4489 -4.08888 0
M  V30 11467 H 1112.34 2.98596 -4.64268 0
M  V30 11468 H 1114.81 3.14671 -2.72252 0
M  V30 11469 H 1113.69 4.42798 -3.24378 0
M  V30 11470 H 1113.95 4.14802 -1.52944 0
M  V30 11471 N 1113.01 1.29761 0.894412 0
M  V30 11472 C 1113.94 1.17902 2.01547 0
M  V30 11473 C 1114.92 0.0719402 1.69948 0
M  V30 11474 O 1116.11 0.252338 1.92554 0
M  V30 11475 C 1113.24 0.860262 3.36477 0
M  V30 11476 C 1112.19 1.92424 3.82305 0
M  V30 11477 C 1111.52 1.45868 5.14419 0
M  V30 11478 C 1112.82 3.33391 4.02054 0
M  V30 11479 H 1114.51 2.11688 2.11727 0
M  V30 11480 H 1112.06 1.01916 1.01731 0
M  V30 11481 H 1114.01 0.763987 4.14417 0
M  V30 11482 H 1112.73 -0.113289 3.26403 0
M  V30 11483 H 1111.39 2.00999 3.06586 0
M  V30 11484 H 1111.04 0.473654 5.00765 0
M  V30 11485 H 1110.74 2.17028 5.46052 0
M  V30 11486 H 1112.26 1.37601 5.94894 0
M  V30 11487 H 1113.68 3.27628 4.7046 0
M  V30 11488 H 1112.07 4.02555 4.4505 0
M  V30 11489 H 1113.14 3.75978 3.06216 0
M  V30 11490 N 1114.49 -1.10549 1.12324 0
M  V30 11491 C 1115.9 -1.34508 0.85905 0
M  V30 11492 C 1116.1 -1.94901 -0.511468 0
M  V30 11493 O 1115.16 -2.18793 -1.2604 0
M  V30 11494 C 1116.47 -2.26788 1.97453 0
M  V30 11495 C 1118.02 -2.40328 2.00528 0
M  V30 11496 C 1118.5 -3.35936 3.11305 0
M  V30 11497 N 1119.99 -3.43504 3.1074 0
M  V30 11498 C 1120.72 -4.17449 3.93096 0
M  V30 11499 N 1120.22 -4.9429 4.85437 0
M  V30 11500 N 1122.01 -4.13055 3.81237 0
M  V30 11501 H 1114.16 -0.697171 2.00632 0
M  V30 11502 H 1116.42 -0.369548 0.873005 0
M  V30 11503 H 1116.13 -1.89621 2.96204 0
M  V30 11504 H 1116 -3.27086 1.87869 0
M  V30 11505 H 1118.39 -2.76765 1.02397 0
M  V30 11506 H 1118.47 -1.39849 2.14186 0
M  V30 11507 H 1118.12 -3.00225 4.09667 0
M  V30 11508 H 1118.05 -4.36291 2.94886 0
M  V30 11509 H 1120.54 -2.88702 2.43843 0
M  V30 11510 H 1120.85 -5.48109 5.4479 0
M  V30 11511 H 1119.2 -4.93419 4.89452 0
M  V30 11512 H 1122.39 -3.52117 3.08433 0
M  V30 11513 H 1122.56 -4.70424 4.45651 0
M  V30 11514 N 1115.97 -0.914965 -1.28321 0
M  V30 11515 C 1116.93 -0.409024 -2.25521 0
M  V30 11516 C 1117.93 0.465327 -1.5392 0
M  V30 11517 O 1119.12 0.26821 -1.72123 0
M  V30 11518 C 1116.25 0.413452 -3.38383 0
M  V30 11519 H 1117.44 -1.26767 -2.71791 0
M  V30 11520 H 1115 -0.694477 -1.40024 0
M  V30 11521 H 1115.73 1.29145 -2.97476 0
M  V30 11522 H 1115.52 -0.213268 -3.9152 0
M  V30 11523 H 1117.01 0.758232 -4.10659 0
M  V30 11524 N 1117.44 1.42219 -0.679077 0
M  V30 11525 C 1118.69 2.00703 -0.200309 0
M  V30 11526 C 1119.01 1.54339 1.20161 0
M  V30 11527 O 1120.21 2.0527 1.77698 0
M  V30 11528 C 1118.67 3.58586 -0.307248 0
M  V30 11529 C 1118.28 4.13937 -1.71349 0
M  V30 11530 C 1120.02 4.24351 0.112588 0
M  V30 11531 C 1117.93 5.64198 -1.77297 0
M  V30 11532 H 1116.86 0.750638 -0.0711279 0
M  V30 11533 H 1119.51 1.62893 -0.844881 0
M  V30 11534 H 1117.89 3.93921 0.40529 0
M  V30 11535 H 1119.06 3.90054 -2.45346 0
M  V30 11536 H 1117.38 3.60639 -2.08155 0
M  V30 11537 H 1119.98 5.34627 0.0883578 0
M  V30 11538 H 1120.32 4.00142 1.14857 0
M  V30 11539 H 1120.85 3.93992 -0.549093 0
M  V30 11540 H 1117.59 5.93211 -2.78892 0
M  V30 11541 H 1117.11 5.90058 -1.07662 0
M  V30 11542 H 1118.79 6.2869 -1.52835 0
M  V30 11543 N 1118.92 0.422693 1.51826 0
M  V30 11544 C 1120.15 -0.147744 2.06372 0
M  V30 11545 C 1120.56 -1.37714 1.29152 0
M  V30 11546 O 1119.92 -1.7917 0.347046 0
M  V30 11547 C 1119.97 -0.484642 3.58237 0
M  V30 11548 O 1119.69 0.695944 4.32537 0
M  V30 11549 C 1121.19 -1.10734 4.29247 0
M  V30 11550 H 1118.41 -0.0144047 0.670845 0
M  V30 11551 H 1120.96 0.597558 1.95575 0
M  V30 11552 H 1119.11 -1.17984 3.68997 0
M  V30 11553 H 1119.53 0.411471 5.22884 0
M  V30 11554 H 1121 -1.29318 5.36639 0
M  V30 11555 H 1121.48 -2.08429 3.86593 0
M  V30 11556 H 1122.08 -0.451958 4.22892 0
M  V30 11557 N 1120.4 -1.5685 0.153553 0
M  V30 11558 C 1121.33 -2.20101 -0.779601 0
M  V30 11559 C 1122.31 -1.15121 -1.25225 0
M  V30 11560 O 1123.5 -1.43487 -1.30862 0
M  V30 11561 C 1120.63 -2.82778 -2.01628 0
M  V30 11562 C 1119.58 -3.93643 -1.68015 0
M  V30 11563 C 1118.91 -4.43286 -2.99001 0
M  V30 11564 C 1120.21 -5.14102 -0.921774 0
M  V30 11565 H 1121.9 -2.98334 -0.252432 0
M  V30 11566 H 1119.45 -1.43499 -0.119975 0
M  V30 11567 H 1121.4 -3.25696 -2.67395 0
M  V30 11568 H 1120.12 -2.01887 -2.56728 0
M  V30 11569 H 1118.78 -3.51354 -1.04624 0
M  V30 11570 H 1118.43 -3.59208 -3.52106 0
M  V30 11571 H 1118.13 -5.18068 -2.77272 0
M  V30 11572 H 1119.65 -4.88878 -3.65828 0
M  V30 11573 H 1121.07 -5.53823 -1.48167 0
M  V30 11574 H 1119.46 -5.94687 -0.804185 0
M  V30 11575 H 1120.53 -4.84825 0.0852757 0
M  V30 11576 N 1121.88 0.120221 -1.57141 0
M  V30 11577 C 1123.11 0.842441 -1.88972 0
M  V30 11578 C 1123.52 1.73494 -0.744671 0
M  V30 11579 O 1122.88 1.80268 0.284557 0
M  V30 11580 C 1122.93 1.67688 -3.20254 0
M  V30 11581 O 1122.65 0.820319 -4.30351 0
M  V30 11582 C 1124.15 2.50436 -3.65782 0
M  V30 11583 H 1121.37 0.242241 -0.625748 0
M  V30 11584 H 1123.91 0.104978 -2.0423 0
M  V30 11585 H 1122.07 2.36712 -3.0667 0
M  V30 11586 H 1122.48 1.39575 -5.05588 0
M  V30 11587 H 1123.96 3.04518 -4.60405 0
M  V30 11588 H 1124.43 3.27737 -2.92378 0
M  V30 11589 H 1125.04 1.86657 -3.82151 0
M  V30 11590 N 1123.36 1.52689 0.390367 0
M  V30 11591 C 1124.63 1.58246 1.14968 0
M  V30 11592 C 1125.01 0.374808 2.07746 0
M  V30 11593 O 1124.36 -0.636969 2.19442 0
M  V30 11594 C 1124.57 2.92059 1.91056 0
M  V30 11595 C 1125.92 3.45745 2.46466 0
M  V30 11596 O 1126.94 2.93924 2.01214 0
M  V30 11597 O 1125.8 4.3628 3.29122 0
M  V30 11598 H 1122.9 0.638189 0.52597 0
M  V30 11599 H 1125.44 1.65024 0.39563 0
M  V30 11600 H 1124.21 3.71399 1.23201 0
M  V30 11601 H 1123.84 2.8866 2.73425 0
M  V30 11602 N 1124.83 -0.648732 1.43629 0
M  V30 11603 C 1126.11 -1.4062 1.35961 0
M  V30 11604 C 1126.49 -2.11098 0.00961023 0
M  V30 11605 O 1125.84 -2.05107 -1.00714 0
M  V30 11606 C 1126.05 -2.38719 2.54586 0
M  V30 11607 C 1127.4 -3.02584 2.97873 0
M  V30 11608 O 1128.42 -2.49046 2.54665 0
M  V30 11609 O 1127.28 -3.99662 3.72736 0
M  V30 11610 H 1124.37 -0.628483 0.53753 0
M  V30 11611 H 1126.92 -0.675263 1.55687 0
M  V30 11612 H 1125.69 -1.85619 3.44472 0
M  V30 11613 H 1125.32 -3.19257 2.36983 0
M  V30 11614 N 1126.31 -1.30234 -0.887518 0
M  V30 11615 C 1127.28 -1.16384 -1.97452 0
M  V30 11616 C 1128.28 -0.0957942 -1.60514 0
M  V30 11617 O 1129.47 -0.343706 -1.70776 0
M  V30 11618 C 1126.6 -0.782514 -3.31797 0
M  V30 11619 H 1127.79 -2.12952 -2.11167 0
M  V30 11620 H 1125.34 -1.13594 -1.07359 0
M  V30 11621 H 1126.08 0.18278 -3.23785 0
M  V30 11622 H 1125.86 -1.55434 -3.59976 0
M  V30 11623 H 1127.35 -0.709011 -4.11537 0
M  V30 11624 N 1127.79 1.09952 -1.12909 0
M  V30 11625 C 1128.74 2.16436 -0.801514 0
M  V30 11626 C 1129.71 1.64444 0.233976 0
M  V30 11627 O 1130.89 1.90497 0.10743 0
M  V30 11628 C 1128.03 3.4406 -0.267753 0
M  V30 11629 C 1127.15 4.09979 -1.36165 0
M  V30 11630 C 1126.28 5.25341 -0.786803 0
M  V30 11631 C 1125.32 5.83172 -1.85948 0
M  V30 11632 N 1124.46 6.89904 -1.30298 0
M  V30 11633 H 1129.3 2.43799 -1.71365 0
M  V30 11634 H 1126.83 1.19665 -0.855499 0
M  V30 11635 H 1128.79 4.17157 0.0598031 0
M  V30 11636 H 1127.42 3.17031 0.607528 0
M  V30 11637 H 1126.47 3.34801 -1.8059 0
M  V30 11638 H 1127.79 4.48999 -2.17259 0
M  V30 11639 H 1126.94 6.05312 -0.410211 0
M  V30 11640 H 1125.68 4.87669 0.055279 0
M  V30 11641 H 1124.68 5.01867 -2.24521 0
M  V30 11642 H 1125.91 6.22907 -2.70487 0
M  V30 11643 H 1123.85 6.54221 -0.482806 0
M  V30 11644 H 1123.77 7.27662 -2.05046 0
M  V30 11645 H 1125.04 7.73643 -0.953779 0
M  V30 11646 N 1129.27 0.921757 1.27833 0
M  V30 11647 C 1130.23 0.420978 2.25301 0
M  V30 11648 C 1131.23 -0.457158 1.54165 0
M  V30 11649 O 1132.42 -0.259079 1.72263 0
M  V30 11650 C 1129.55 -0.395501 3.38598 0
M  V30 11651 H 1130.75 1.28206 2.71115 0
M  V30 11652 H 1128.3 0.701893 1.39654 0
M  V30 11653 H 1129.03 -1.27565 2.98157 0
M  V30 11654 H 1128.82 0.234029 3.91401 0
M  V30 11655 H 1130.31 -0.736444 4.11055 0
M  V30 11656 N 1130.75 -1.41857 0.686609 0
M  V30 11657 C 1132.16 -1.55549 0.357288 0
M  V30 11658 C 1132.36 -1.66394 -1.13646 0
M  V30 11659 O 1131.42 -1.63739 -1.92213 0
M  V30 11660 C 1132.73 -2.79938 1.09796 0
M  V30 11661 C 1134.28 -2.93724 1.08143 0
M  V30 11662 C 1134.75 -4.20989 1.80367 0
M  V30 11663 N 1136.25 -4.27927 1.77293 0
M  V30 11664 C 1136.98 -5.2524 2.30022 0
M  V30 11665 N 1136.48 -6.28636 2.91185 0
M  V30 11666 N 1138.27 -5.17118 2.20329 0
M  V30 11667 H 1130.42 -1.33063 1.65554 0
M  V30 11668 H 1132.68 -0.641335 0.698135 0
M  V30 11669 H 1132.39 -2.78104 2.15293 0
M  V30 11670 H 1132.26 -3.71188 0.670763 0
M  V30 11671 H 1134.65 -2.9508 0.0347554 0
M  V30 11672 H 1134.73 -2.03673 1.54761 0
M  V30 11673 H 1134.38 -4.20395 2.85009 0
M  V30 11674 H 1134.31 -5.09997 1.3119 0
M  V30 11675 H 1136.8 -3.53838 1.32692 0
M  V30 11676 H 1137.11 -6.99265 3.29011 0
M  V30 11677 H 1135.45 -6.29164 2.95259 0
M  V30 11678 H 1138.65 -4.35265 1.72226 0
M  V30 11679 H 1138.82 -5.92792 2.61728 0
M  V30 11680 N 1132.22 -0.430739 -1.51599 0
M  V30 11681 C 1133.19 0.372319 -2.26156 0
M  V30 11682 C 1134.19 0.955338 -1.29344 0
M  V30 11683 O 1135.38 0.830823 -1.53111 0
M  V30 11684 C 1132.51 1.52613 -3.04831 0
M  V30 11685 H 1133.7 -0.280996 -2.98581 0
M  V30 11686 H 1131.26 -0.183749 -1.55216 0
M  V30 11687 H 1131.99 2.21569 -2.36807 0
M  V30 11688 H 1131.78 1.11433 -3.75932 0
M  V30 11689 H 1133.27 2.09366 -3.61325 0
M  V30 11690 N 1133.7 1.56767 -0.161869 0
M  V30 11691 C 1134.98 1.88245 0.531352 0
M  V30 11692 C 1135.36 1.07025 1.81958 0
M  V30 11693 O 1134.71 0.161385 2.27929 0
M  V30 11694 C 1134.92 3.40117 0.782416 0
M  V30 11695 C 1136.27 4.09655 1.11661 0
M  V30 11696 O 1137.29 3.4538 0.871274 0
M  V30 11697 O 1136.15 5.23192 1.57901 0
M  V30 11698 H 1133.24 0.780725 0.272759 0
M  V30 11699 H 1135.79 1.68522 -0.199597 0
M  V30 11700 H 1134.56 3.91088 -0.128677 0
M  V30 11701 H 1134.18 3.65418 1.56702 0
M  V30 11702 N 1135.18 -0.111886 1.57202 0
M  V30 11703 C 1136.43 -0.819623 1.85499 0
M  V30 11704 C 1136.76 -1.7919 0.748629 0
M  V30 11705 O 1136.03 -1.92952 -0.244918 0
M  V30 11706 C 1136.32 -1.56324 3.24399 0
M  V30 11707 C 1136.17 -0.610081 4.45643 0
M  V30 11708 C 1137.49 -2.51777 3.60966 0
M  V30 11709 H 1134.61 -0.296512 0.674722 0
M  V30 11710 H 1137.25 -0.0836741 1.89816 0
M  V30 11711 H 1135.4 -2.1906 3.2085 0
M  V30 11712 H 1137.07 0.00898038 4.61299 0
M  V30 11713 H 1135.32 0.0778488 4.3373 0
M  V30 11714 H 1135.99 -1.16718 5.39519 0
M  V30 11715 H 1138.46 -1.99143 3.65351 0
M  V30 11716 H 1137.34 -3.00835 4.59118 0
M  V30 11717 H 1137.6 -3.34769 2.8876 0
M  V30 11718 N 1136.66 -1.52894 -0.382264 0
M  V30 11719 C 1137.94 -1.58853 -1.14127 0
M  V30 11720 C 1138.32 -0.38582 -2.07544 0
M  V30 11721 O 1137.66 0.625323 -2.19777 0
M  V30 11722 C 1137.87 -2.93068 -1.89504 0
M  V30 11723 C 1139.22 -3.47048 -2.44629 0
M  V30 11724 O 1140.25 -2.94987 -1.99652 0
M  V30 11725 O 1139.1 -4.3802 -3.26804 0
M  V30 11726 H 1136.2 -0.640969 -0.522578 0
M  V30 11727 H 1138.74 -1.65231 -0.386873 0
M  V30 11728 H 1137.52 -3.72047 -1.2123 0
M  V30 11729 H 1137.14 -2.90106 -2.7189 0
M  V30 11730 N 1138.14 0.641106 -1.43971 0
M  V30 11731 C 1139.08 1.75352 -1.50068 0
M  V30 11732 C 1140.05 1.62386 -0.349266 0
M  V30 11733 O 1141.24 1.82455 -0.558118 0
M  V30 11734 C 1138.38 3.13561 -1.4413 0
M  V30 11735 C 1137.49 3.37574 -2.6957 0
M  V30 11736 C 1136.63 4.65698 -2.55535 0
M  V30 11737 C 1135.67 4.82857 -3.76186 0
M  V30 11738 N 1134.8 6.02249 -3.60888 0
M  V30 11739 H 1139.64 1.69477 -2.45116 0
M  V30 11740 H 1137.18 0.826871 -1.2166 0
M  V30 11741 H 1139.14 3.93476 -1.38681 0
M  V30 11742 H 1137.77 3.18476 -0.526563 0
M  V30 11743 H 1136.82 2.5167 -2.85248 0
M  V30 11744 H 1138.13 3.46135 -3.59154 0
M  V30 11745 H 1137.29 5.53759 -2.47862 0
M  V30 11746 H 1136.03 4.59479 -1.63495 0
M  V30 11747 H 1135.03 3.93229 -3.84254 0
M  V30 11748 H 1136.26 4.90898 -4.6925 0
M  V30 11749 H 1134.2 5.97138 -2.71591 0
M  V30 11750 H 1134.12 6.11822 -4.44083 0
M  V30 11751 H 1135.39 6.92898 -3.57088 0
M  V30 11752 N 1139.62 1.30703 0.880598 0
M  V30 11753 C 1140.56 1.17369 2.00817 0
M  V30 11754 C 1141.56 0.0845159 1.69189 0
M  V30 11755 O 1142.76 0.245673 1.78316 0
M  V30 11756 H 1139.14 0.363107 0.658527 0
M  V30 11757 H 1141.11 2.12789 2.09197 0
M  V30 11758 C 1139.86 0.886851 3.362 0
M  V30 11759 H 1139.18 1.71704 3.61051 0
M  V30 11760 H 1140.62 0.83368 4.15723 0
M  V30 11761 C 1139.08 -0.410293 3.34392 0
M  V30 11762 O 1139.61 -1.43044 3.75368 0
M  V30 11763 N 1137.82 -0.423023 2.87505 0
M  V30 11764 H 1137.36 0.407637 2.54354 0
M  V30 11765 H 1137.32 -1.29086 2.86678 0
M  V30 11766 N 1141.09 -1.09351 1.1349 0
M  V30 11767 C 1142.34 -1.81185 0.89535 0
M  V30 11768 C 1142.66 -1.86173 -0.580048 0
M  V30 11769 O 1141.93 -1.34784 -1.42162 0
M  V30 11770 H 1140.51 -0.671011 0.328257 0
M  V30 11771 H 1143.17 -1.32255 1.43159 0
M  V30 11772 H 1142.27 -2.84339 1.28676 0
M  V30 11773 N 1142.57 -0.928524 -1.27343 0
M  V30 11774 C 1143.8 -0.58516 -1.98974 0
M  V30 11775 C 1144.22 0.829964 -1.68799 0
M  V30 11776 O 1143.58 1.55705 -0.928738 0
M  V30 11777 C 1143.63 -0.818662 -3.51184 0
M  V30 11778 O 1142.73 0.115355 -4.12239 0
M  V30 11779 H 1142.07 -0.225203 -0.624644 0
M  V30 11780 H 1144.6 -1.248 -1.6213 0
M  V30 11781 H 1144.61 -0.734554 -4.01333 0
M  V30 11782 H 1143.29 -1.8502 -3.72479 0
M  V30 11783 H 1141.86 -0.0187371 -3.72895 0
M  V30 11784 N 1144.05 1.41491 -0.694123 0
M  V30 11785 C 1145.3 2.00479 -0.221585 0
M  V30 11786 C 1145.61 1.55605 1.18518 0
M  V30 11787 O 1146.82 2.07143 1.7551 0
M  V30 11788 C 1145.27 3.5824 -0.345264 0
M  V30 11789 C 1144.88 4.12096 -1.7573 0
M  V30 11790 C 1146.63 4.24446 0.0675731 0
M  V30 11791 C 1144.53 5.62286 -1.83271 0
M  V30 11792 H 1143.46 0.749841 -0.0790854 0
M  V30 11793 H 1146.11 1.61987 -0.86211 0
M  V30 11794 H 1144.5 3.94328 0.363487 0
M  V30 11795 H 1145.67 3.8743 -2.49469 0
M  V30 11796 H 1143.98 3.58411 -2.11969 0
M  V30 11797 H 1146.58 5.34691 0.0316485 0
M  V30 11798 H 1146.92 4.01338 1.10606 0
M  V30 11799 H 1147.46 3.93388 -0.59085 0
M  V30 11800 H 1144.2 5.9022 -2.85168 0
M  V30 11801 H 1143.72 5.88883 -1.13914 0
M  V30 11802 H 1145.4 6.27033 -1.59494 0
M  V30 11803 N 1145.53 0.438773 1.51369 0
M  V30 11804 C 1146.48 -0.386324 2.29369 0
M  V30 11805 C 1147.47 -1.0196 1.3528 0
M  V30 11806 O 1148.68 -0.9544 1.52615 0
M  V30 11807 H 1145.05 -0.143397 0.738201 0
M  V30 11808 H 1147.02 0.292372 2.96964 0
M  V30 11809 C 1145.77 -1.47426 3.14898 0
M  V30 11810 H 1145.09 -0.996335 3.87186 0
M  V30 11811 H 1146.53 -2.02481 3.72529 0
M  V30 11812 C 1144.99 -2.45831 2.30366 0
M  V30 11813 O 1145.52 -3.50398 1.96428 0
M  V30 11814 N 1143.73 -2.16754 1.93561 0
M  V30 11815 H 1143.28 -1.31748 2.2136 0
M  V30 11816 H 1143.23 -2.82836 1.373 0
M  V30 11817 N 1147.01 -1.56678 0.170181 0
M  V30 11818 C 1148.23 -2.0166 -0.484543 0
M  V30 11819 C 1148.66 -1.04962 -1.56091 0
M  V30 11820 O 1148.01 -0.0289887 -1.81277 0
M  V30 11821 C 1148.06 -3.45252 -1.04084 0
M  V30 11822 O 1147.17 -3.51623 -2.15488 0
M  V30 11823 H 1146.51 -0.653765 -0.116135 0
M  V30 11824 H 1149.04 -2.02761 0.273737 0
M  V30 11825 H 1149.05 -3.84534 -1.36373 0
M  V30 11826 H 1147.72 -4.15131 -0.252738 0
M  V30 11827 H 1146.3 -3.242 -1.84252 0
M  V30 11828 N 1148.48 0.103547 -1.57259 0
M  V30 11829 C 1149.71 0.82235 -1.89855 0
M  V30 11830 C 1150.13 1.72694 -0.76303 0
M  V30 11831 O 1149.48 1.8056 0.265421 0
M  V30 11832 C 1149.53 1.64282 -3.22015 0
M  V30 11833 O 1149.26 0.774628 -4.31197 0
M  V30 11834 C 1150.76 2.46543 -3.68418 0
M  V30 11835 H 1147.98 0.235591 -0.628282 0
M  V30 11836 H 1150.52 0.0833106 -2.0433 0
M  V30 11837 H 1148.68 2.33446 -3.09163 0
M  V30 11838 H 1149.09 1.34205 -5.0704 0
M  V30 11839 H 1150.56 2.99618 -4.63609 0
M  V30 11840 H 1151.04 3.24618 -2.95838 0
M  V30 11841 H 1151.65 1.82594 -3.84109 0
M  V30 11842 N 1149.96 1.53094 0.37415 0
M  V30 11843 C 1151.24 1.59456 1.13283 0
M  V30 11844 C 1151.62 0.396821 2.07337 0
M  V30 11845 O 1150.97 -0.613659 2.20106 0
M  V30 11846 C 1151.18 2.94069 1.87948 0
M  V30 11847 C 1152.52 3.4834 2.42785 0
M  V30 11848 O 1153.55 2.96042 1.98085 0
M  V30 11849 O 1152.41 4.39747 3.24477 0
M  V30 11850 H 1149.5 0.643731 0.519171 0
M  V30 11851 H 1152.05 1.65434 0.378105 0
M  V30 11852 H 1150.82 3.72685 1.19255 0
M  V30 11853 H 1150.44 2.91544 2.70348 0
M  V30 11854 N 1151.44 -0.633461 1.44309 0
M  V30 11855 C 1152.69 -1.39513 1.47187 0
M  V30 11856 C 1153.02 -1.93926 0.103186 0
M  V30 11857 O 1152.29 -1.73512 -0.878853 0
M  V30 11858 C 1152.58 -2.56213 2.53036 0
M  V30 11859 C 1152.43 -2.07164 3.99253 0
M  V30 11860 C 1153.75 -3.58403 2.55412 0
M  V30 11861 H 1150.87 -0.505936 0.535908 0
M  V30 11862 H 1153.51 -0.716445 1.75975 0
M  V30 11863 H 1151.66 -3.14111 2.28619 0
M  V30 11864 H 1153.33 -1.54115 4.34795 0
M  V30 11865 H 1151.57 -1.38367 4.11141 0
M  V30 11866 H 1152.25 -2.91172 4.6896 0
M  V30 11867 H 1154.72 -3.103 2.77224 0
M  V30 11868 H 1153.6 -4.37581 3.31382 0
M  V30 11869 H 1153.86 -4.12316 1.59523 0
M  V30 11870 N 1152.92 -1.31168 -0.873655 0
M  V30 11871 C 1153.85 -1.21094 -1.99646 0
M  V30 11872 C 1154.83 -0.0989684 -1.69812 0
M  V30 11873 O 1156.01 -0.282939 -1.92128 0
M  V30 11874 C 1153.14 -0.913684 -3.35066 0
M  V30 11875 C 1152.1 -1.98482 -3.79195 0
M  V30 11876 C 1151.42 -1.54033 -5.12033 0
M  V30 11877 C 1152.72 -3.39745 -3.96699 0
M  V30 11878 H 1154.42 -2.1503 -2.08333 0
M  V30 11879 H 1151.96 -1.03521 -1.00097 0
M  V30 11880 H 1153.92 -0.829821 -4.13149 0
M  V30 11881 H 1152.64 0.0613471 -3.26542 0
M  V30 11882 H 1151.3 -2.05851 -3.03349 0
M  V30 11883 H 1150.95 -0.553261 -4.99948 0
M  V30 11884 H 1150.65 -2.25688 -5.4253 0
M  V30 11885 H 1152.17 -1.47047 -5.92629 0
M  V30 11886 H 1153.59 -3.35071 -4.65188 0
M  V30 11887 H 1151.98 -4.09585 -4.38589 0
M  V30 11888 H 1153.05 -3.80802 -3.00196 0
M  V30 11889 N 1154.4 1.08748 -1.14068 0
M  V30 11890 C 1155.33 2.17591 -0.84714 0
M  V30 11891 C 1156.31 1.68962 0.196415 0
M  V30 11892 O 1157.49 1.94125 0.0538415 0
M  V30 11893 C 1154.62 3.45823 -0.320005 0
M  V30 11894 C 1153.58 4.07824 -1.2986 0
M  V30 11895 C 1152.9 5.30965 -0.630925 0
M  V30 11896 C 1154.2 4.49512 -2.65963 0
M  V30 11897 H 1155.9 2.42404 -1.75729 0
M  V30 11898 H 1153.44 1.16502 -0.846356 0
M  V30 11899 H 1155.4 4.21276 -0.102271 0
M  V30 11900 H 1154.12 3.20553 0.625561 0
M  V30 11901 H 1152.78 3.34398 -1.50245 0
M  V30 11902 H 1152.43 5.01979 0.320337 0
M  V30 11903 H 1152.13 5.73402 -1.28388 0
M  V30 11904 H 1153.65 6.09136 -0.422635 0
M  V30 11905 H 1155.06 5.16159 -2.49506 0
M  V30 11906 H 1153.46 5.02857 -3.27498 0
M  V30 11907 H 1154.53 3.6157 -3.23102 0
M  V30 11908 N 1155.87 0.935264 1.26849 0
M  V30 11909 C 1156.8 0.457776 2.28969 0
M  V30 11910 C 1157.79 -0.48587 1.63013 0
M  V30 11911 O 1158.97 -0.388998 1.90264 0
M  V30 11912 C 1156.1 -0.283332 3.46142 0
M  V30 11913 C 1155.05 0.573196 4.24144 0
M  V30 11914 C 1154.38 -0.297525 5.33872 0
M  V30 11915 C 1155.68 1.84153 4.88759 0
M  V30 11916 H 1157.37 1.31125 2.69159 0
M  V30 11917 H 1154.92 0.631956 1.29392 0
M  V30 11918 H 1156.87 -0.628366 4.16689 0
M  V30 11919 H 1155.6 -1.1709 3.04889 0
M  V30 11920 H 1154.26 0.901043 3.55354 0
M  V30 11921 H 1153.9 -1.18427 4.8886 0
M  V30 11922 H 1153.6 0.272126 5.8697 0
M  V30 11923 H 1155.13 -0.637961 6.07258 0
M  V30 11924 H 1156.54 1.5641 5.51551 0
M  V30 11925 H 1154.94 2.35528 5.51948 0
M  V30 11926 H 1156.01 2.5565 4.12033 0
M  V30 11927 N 1157.35 -1.41121 0.701616 0
M  V30 11928 C 1158.58 -2.05973 0.242896 0
M  V30 11929 C 1159 -1.52474 -1.10151 0
M  V30 11930 O 1158.36 -0.654224 -1.69085 0
M  V30 11931 C 1158.41 -3.59943 0.217614 0
M  V30 11932 O 1157.51 -4.04454 -0.805629 0
M  V30 11933 H 1156.85 -0.653581 0.117166 0
M  V30 11934 H 1159.38 -1.80777 0.958175 0
M  V30 11935 H 1159.39 -4.07969 0.0505267 0
M  V30 11936 H 1158.07 -3.98249 1.19877 0
M  V30 11937 H 1156.65 -3.6792 -0.607404 0
M  V30 11938 N 1158.83 -0.446794 -1.51134 0
M  V30 11939 C 1160.25 -0.0995905 -1.59289 0
M  V30 11940 C 1160.45 1.39191 -1.45699 0
M  V30 11941 O 1159.5 2.1628 -1.30303 0
M  V30 11942 C 1160.82 -0.628135 -2.94066 0
M  V30 11943 C 1162.36 -0.589409 -3.074 0
M  V30 11944 C 1162.84 -1.09509 -4.44715 0
M  V30 11945 N 1164.33 -1.05347 -4.51061 0
M  V30 11946 C 1165.06 -1.41551 -5.55654 0
M  V30 11947 N 1164.56 -1.85086 -6.67619 0
M  V30 11948 N 1166.35 -1.33307 -5.46064 0
M  V30 11949 H 1158.5 -1.41713 -1.58213 0
M  V30 11950 H 1160.77 -0.584555 -0.746324 0
M  V30 11951 H 1160.47 -1.67205 -3.09411 0
M  V30 11952 H 1160.35 -0.0582398 -3.77155 0
M  V30 11953 H 1162.73 0.445541 -2.91717 0
M  V30 11954 H 1162.82 -1.19582 -2.26128 0
M  V30 11955 H 1162.46 -2.12855 -4.61146 0
M  V30 11956 H 1162.39 -0.465122 -5.24542 0
M  V30 11957 H 1164.88 -0.733877 -3.70706 0
M  V30 11958 H 1165.19 -2.10923 -7.43459 0
M  V30 11959 H 1163.54 -1.8902 -6.68802 0
M  V30 11960 H 1166.73 -0.991547 -4.57478 0
M  V30 11961 H 1166.9 -1.6185 -6.27462 0
M  V30 11962 N 1160.31 1.56586 -0.178487 0
M  V30 11963 C 1161.54 2.01183 0.470002 0
M  V30 11964 C 1161.95 1.05781 1.56866 0
M  V30 11965 O 1161.29 0.0519678 1.83626 0
M  V30 11966 C 1161.35 3.42199 1.10183 0
M  V30 11967 C 1161.02 4.56773 0.143945 0
M  V30 11968 C 1162.01 5.1594 -0.64043 0
M  V30 11969 C 1159.7 5.02286 0.0376874 0
M  V30 11970 C 1161.69 6.19055 -1.51819 0
M  V30 11971 C 1159.38 6.05248 -0.843652 0
M  V30 11972 C 1160.38 6.63505 -1.62017 0
M  V30 11973 O 1160.06 7.6447 -2.48677 0
M  V30 11974 H 1159.8 0.664527 0.124018 0
M  V30 11975 H 1162.35 2.0349 -0.279495 0
M  V30 11976 H 1160.58 3.36827 1.89959 0
M  V30 11977 H 1162.27 3.70705 1.65326 0
M  V30 11978 H 1163.04 4.81656 -0.56855 0
M  V30 11979 H 1158.91 4.56649 0.631893 0
M  V30 11980 H 1162.46 6.64455 -2.12475 0
M  V30 11981 H 1158.36 6.38958 -0.916708 0
M  V30 11982 H 1159.12 7.81823 -2.42272 0
M  V30 11983 N 1161.79 -0.095206 1.57312 0
M  V30 11984 C 1162.72 -1.11627 2.05089 0
M  V30 11985 C 1163.7 -1.41782 0.939787 0
M  V30 11986 O 1164.88 -1.51813 1.21105 0
M  V30 11987 C 1162.01 -2.43618 2.47523 0
M  V30 11988 C 1160.97 -2.27872 3.62296 0
M  V30 11989 C 1160.29 -3.65038 3.90706 0
M  V30 11990 C 1161.59 -1.71936 4.93189 0
M  V30 11991 H 1163.29 -0.718795 2.90644 0
M  V30 11992 H 1160.83 -0.344315 1.39823 0
M  V30 11993 H 1162.79 -3.1532 2.79556 0
M  V30 11994 H 1161.51 -2.85301 1.58968 0
M  V30 11995 H 1160.17 -1.58615 3.3051 0
M  V30 11996 H 1159.82 -4.04249 2.99319 0
M  V30 11997 H 1159.52 -3.55349 4.67976 0
M  V30 11998 H 1161.04 -4.38208 4.25213 0
M  V30 11999 H 1162.45 -2.33479 5.23603 0
M  V30 12000 H 1160.85 -1.73006 5.74621 0
M  V30 12001 H 1161.92 -0.678789 4.80125 0
M  V30 12002 N 1163.26 -1.53291 -0.366026 0
M  V30 12003 C 1164.19 -1.82675 -1.45437 0
M  V30 12004 C 1165.18 -0.680227 -1.55907 0
M  V30 12005 O 1166.36 -0.930032 -1.70482 0
M  V30 12006 C 1163.49 -2.01626 -2.8278 0
M  V30 12007 C 1162.44 -3.17391 -2.87135 0
M  V30 12008 C 1161.77 -3.21634 -4.27148 0
M  V30 12009 C 1163.07 -4.5599 -2.54697 0
M  V30 12010 H 1164.76 -2.73818 -1.21096 0
M  V30 12011 H 1162.31 -1.31754 -0.581108 0
M  V30 12012 H 1164.26 -2.20765 -3.58944 0
M  V30 12013 H 1162.99 -1.07193 -3.08508 0
M  V30 12014 H 1161.65 -2.98071 -2.13422 0
M  V30 12015 H 1161.29 -2.2484 -4.49951 0
M  V30 12016 H 1160.99 -3.99414 -4.30978 0
M  V30 12017 H 1162.52 -3.42957 -5.05186 0
M  V30 12018 H 1163.93 -4.75294 -3.20575 0
M  V30 12019 H 1162.33 -5.36008 -2.69844 0
M  V30 12020 H 1163.4 -4.61133 -1.49949 0
M  V30 12021 N 1164.74 0.6258 -1.44643 0
M  V30 12022 C 1166.16 0.944569 -1.28647 0
M  V30 12023 C 1166.36 2.00227 -0.226134 0
M  V30 12024 O 1165.41 2.4953 0.386161 0
M  V30 12025 C 1166.73 1.40278 -2.65975 0
M  V30 12026 C 1168.28 1.51797 -2.73727 0
M  V30 12027 C 1168.75 2.01 -4.11537 0
M  V30 12028 N 1170.24 2.08262 -4.13741 0
M  V30 12029 C 1170.98 2.47515 -5.17227 0
M  V30 12030 N 1170.47 2.85867 -6.31072 0
M  V30 12031 N 1172.27 2.47695 -5.04583 0
M  V30 12032 H 1164.42 -0.0736157 -2.12272 0
M  V30 12033 H 1166.68 0.0296998 -0.947535 0
M  V30 12034 H 1166.39 0.699871 -3.44666 0
M  V30 12035 H 1166.26 2.37279 -2.93221 0
M  V30 12036 H 1168.65 2.21183 -1.95351 0
M  V30 12037 H 1168.73 0.531574 -2.50216 0
M  V30 12038 H 1168.37 1.32207 -4.90391 0
M  V30 12039 H 1168.3 3.0052 -4.32429 0
M  V30 12040 H 1170.79 1.81286 -3.31578 0
M  V30 12041 H 1171.11 3.14647 -7.05845 0
M  V30 12042 H 1169.45 2.83605 -6.34502 0
M  V30 12043 H 1172.64 2.17127 -4.14697 0
M  V30 12044 H 1172.81 2.77962 -5.85356 0
M  V30 12045 N 1166.22 1.31629 0.866686 0
M  V30 12046 C 1167.47 1.21683 1.62238 0
M  V30 12047 C 1167.8 -0.223767 1.92907 0
M  V30 12048 O 1167.07 -1.15761 1.563 0
M  V30 12049 C 1167.36 2.06443 2.95048 0
M  V30 12050 C 1167.21 3.58818 2.71237 0
M  V30 12051 C 1168.53 1.91634 3.96187 0
M  V30 12052 H 1165.65 0.443389 0.588707 0
M  V30 12053 H 1168.29 1.61453 1.00164 0
M  V30 12054 H 1166.44 1.72654 3.48027 0
M  V30 12055 H 1168.11 4.0276 2.24905 0
M  V30 12056 H 1166.36 3.82085 2.05411 0
M  V30 12057 H 1167.03 4.13436 3.65752 0
M  V30 12058 H 1169.5 2.21209 3.52428 0
M  V30 12059 H 1168.38 2.53236 4.86993 0
M  V30 12060 H 1168.64 0.880564 4.33242 0
M  V30 12061 N 1167.7 -1.08142 1.14644 0
M  V30 12062 C 1168.95 -1.79959 0.910908 0
M  V30 12063 C 1169.26 -1.87296 -0.563866 0
M  V30 12064 O 1170.47 -2.55555 -0.916735 0
M  V30 12065 C 1168.92 -3.23351 1.58025 0
M  V30 12066 C 1168.53 -3.2424 3.09148 0
M  V30 12067 C 1170.28 -3.99834 1.42595 0
M  V30 12068 C 1168.18 -4.62236 3.68906 0
M  V30 12069 H 1167.11 -0.674423 0.33715 0
M  V30 12070 H 1169.76 -1.21441 1.37566 0
M  V30 12071 H 1168.15 -3.82013 1.04318 0
M  V30 12072 H 1169.32 -2.75269 3.69545 0
M  V30 12073 H 1167.63 -2.61253 3.24246 0
M  V30 12074 H 1170.23 -5.01809 1.8464 0
M  V30 12075 H 1170.57 -4.14631 0.372402 0
M  V30 12076 H 1171.11 -3.47648 1.93354 0
M  V30 12077 H 1167.85 -4.52642 4.74126 0
M  V30 12078 H 1167.37 -5.11477 3.1329 0
M  V30 12079 H 1169.05 -5.3121 3.69358 0
M  V30 12080 N 1169.18 -0.941978 -1.26351 0
M  V30 12081 C 1170.45 -0.507822 -1.88893 0
M  V30 12082 C 1170.83 1.0146 -1.85119 0
M  V30 12083 O 1170.18 1.87495 -1.30606 0
M  V30 12084 C 1170.39 -1.07007 -3.3219 0
M  V30 12085 C 1171.74 -1.13922 -4.09032 0
M  V30 12086 O 1172.76 -1.02072 -3.41262 0
M  V30 12087 O 1171.62 -1.32362 -5.30229 0
M  V30 12088 H 1168.72 -0.165621 -0.810246 0
M  V30 12089 H 1171.26 -1.03459 -1.34515 0
M  V30 12090 H 1170.04 -2.11366 -3.29302 0
M  V30 12091 H 1169.66 -0.525797 -3.94108 0
M  V30 12092 N 1170.66 1.40747 -0.709091 0
M  V30 12093 C 1171.6 2.30741 -0.0523584 0
M  V30 12094 C 1172.57 1.4784 0.757145 0
M  V30 12095 O 1173.76 1.76595 0.72242 0
M  V30 12096 C 1170.9 3.34 0.868203 0
M  V30 12097 C 1170.01 4.31972 0.0488686 0
M  V30 12098 C 1169.15 5.223 0.968311 0
M  V30 12099 C 1168.18 6.11934 0.142682 0
M  V30 12100 N 1167.32 6.947 1.01665 0
M  V30 12101 H 1172.16 2.86338 -0.825509 0
M  V30 12102 H 1169.7 1.41013 -0.418785 0
M  V30 12103 H 1171.66 3.92431 1.41611 0
M  V30 12104 H 1170.29 2.79921 1.6076 0
M  V30 12105 H 1169.34 3.75377 -0.616137 0
M  V30 12106 H 1170.65 4.95291 -0.590625 0
M  V30 12107 H 1169.8 5.85631 1.58498 0
M  V30 12108 H 1168.54 4.5924 1.64164 0
M  V30 12109 H 1167.55 5.47639 -0.486965 0
M  V30 12110 H 1168.77 6.77052 -0.527046 0
M  V30 12111 H 1166.72 6.34236 1.67575 0
M  V30 12112 H 1166.64 7.54759 0.433045 0
M  V30 12113 H 1167.9 7.62487 1.6197 0
M  V30 12114 N 1172.13 0.454803 1.50895 0
M  V30 12115 C 1173.38 -0.10577 2.02224 0
M  V30 12116 C 1173.71 -1.41176 1.33789 0
M  V30 12117 O 1172.96 -1.90522 0.447181 0
M  V30 12118 C 1173.26 -0.354159 3.55641 0
M  V30 12119 C 1172.93 0.868136 4.42464 0
M  V30 12120 C 1171.59 1.2033 4.65912 0
M  V30 12121 C 1173.94 1.68272 4.93289 0
M  V30 12122 C 1171.27 2.3534 5.37431 0
M  V30 12123 C 1173.62 2.82396 5.6607 0
M  V30 12124 C 1172.29 3.16346 5.87777 0
M  V30 12125 H 1171.56 -0.0387041 0.739989 0
M  V30 12126 H 1174.2 0.605564 1.81673 0
M  V30 12127 H 1172.51 -1.14757 3.74617 0
M  V30 12128 H 1174.21 -0.8016 3.92906 0
M  V30 12129 H 1170.8 0.596995 4.24422 0
M  V30 12130 H 1174.98 1.43698 4.75042 0
M  V30 12131 H 1170.24 2.61936 5.52449 0
M  V30 12132 H 1174.41 3.45873 6.04438 0
M  V30 12133 H 1172.04 4.05574 6.42973 0
M  V30 12134 N 1173.61 -1.56489 0.186789 0
M  V30 12135 C 1175.02 -1.83809 -0.327265 0
M  V30 12136 C 1175.37 -1.10718 -1.61976 0
M  V30 12137 O 1174.5 -0.36525 -2.13295 0
M  V30 12138 C 1175.09 -3.33435 -0.600551 0
M  V30 12139 C 1173.65 -3.61195 -1.059 0
M  V30 12140 C 1172.8 -2.77108 -0.103131 0
M  V30 12141 H 1175.75 -1.53292 0.410747 0
M  V30 12142 H 1175.77 -3.51754 -1.45084 0
M  V30 12143 H 1175.28 -3.86605 0.340315 0
M  V30 12144 H 1173.38 -3.13451 -2.01443 0
M  V30 12145 H 1173.5 -4.69435 -0.957458 0
M  V30 12146 H 1171.86 -2.47448 -0.603449 0
M  V30 12147 H 1172.64 -3.33065 0.832031 0
M  V30 12148 N 1175.09 0.086862 -1.5736 0
M  V30 12149 C 1176.34 0.790008 -1.8678 0
M  V30 12150 C 1176.67 1.77977 -0.777042 0
M  V30 12151 O 1175.94 1.93317 0.21419 0
M  V30 12152 C 1176.23 1.51143 -3.26845 0
M  V30 12153 C 1176.08 0.539106 -4.46558 0
M  V30 12154 C 1177.4 2.46003 -3.64926 0
M  V30 12155 H 1174.52 0.285741 -0.679354 0
M  V30 12156 H 1177.16 0.0534655 -1.89925 0
M  V30 12157 H 1175.31 2.13928 -3.24295 0
M  V30 12158 H 1176.98 -0.0823679 -4.61226 0
M  V30 12159 H 1175.22 -0.146842 -4.33551 0
M  V30 12160 H 1175.9 1.0812 -5.41308 0
M  V30 12161 H 1178.37 1.93306 -3.68473 0
M  V30 12162 H 1177.25 2.93493 -4.63846 0
M  V30 12163 H 1177.51 3.30133 -2.94049 0
M  V30 12164 N 1176.57 1.53483 0.357892 0
M  V30 12165 C 1177.53 1.79782 1.42166 0
M  V30 12166 C 1178.53 0.668441 1.46248 0
M  V30 12167 O 1179.72 0.936677 1.46874 0
M  V30 12168 C 1176.85 1.92686 2.8122 0
M  V30 12169 H 1178.05 2.74794 1.20117 0
M  V30 12170 H 1175.6 1.44677 0.591468 0
M  V30 12171 H 1176.33 0.997669 3.08573 0
M  V30 12172 H 1176.12 2.74837 2.79655 0
M  V30 12173 H 1177.61 2.14599 3.58242 0
M  V30 12174 N 1178.05 -0.61812 1.44973 0
M  V30 12175 C 1178.96 -1.7579 1.55355 0
M  V30 12176 C 1179.97 -1.68384 0.438512 0
M  V30 12177 O 1181.15 -1.88928 0.697715 0
M  V30 12178 C 1178.21 -3.1222 1.50729 0
M  V30 12179 C 1177.27 -3.3116 2.73188 0
M  V30 12180 C 1176.51 -4.61082 2.68774 0
M  V30 12181 O 1176.73 -5.42728 1.75507 0
M  V30 12182 O 1175.66 -4.82506 3.59821 0
M  V30 12183 H 1179.49 -1.69983 2.51674 0
M  V30 12184 H 1177.07 -0.780934 1.27365 0
M  V30 12185 H 1178.96 -3.93524 1.5072 0
M  V30 12186 H 1177.63 -3.18541 0.575587 0
M  V30 12187 H 1176.54 -2.49485 2.78762 0
M  V30 12188 H 1177.87 -3.29709 3.65449 0
M  V30 12189 N 1179.52 -1.32087 -0.859693 0
M  V30 12190 C 1180.47 -1.20549 -1.98924 0
M  V30 12191 C 1181.47 -0.111422 -1.69033 0
M  V30 12192 O 1182.67 -0.27401 -1.77902 0
M  V30 12193 H 1179.05 -0.373538 -0.652667 0
M  V30 12194 H 1181.02 -2.16091 -2.05785 0
M  V30 12195 C 1179.77 -0.940226 -3.34746 0
M  V30 12196 H 1179.09 -1.77427 -3.58273 0
M  V30 12197 H 1180.53 -0.899712 -4.14344 0
M  V30 12198 C 1178.99 0.357042 -3.35003 0
M  V30 12199 O 1179.52 1.37054 -3.77596 0
M  V30 12200 N 1177.72 0.37723 -2.88141 0
M  V30 12201 H 1177.27 -0.448051 -2.53674 0
M  V30 12202 H 1177.23 1.24509 -2.88695 0
M  V30 12203 N 1181 1.07532 -1.15215 0
M  V30 12204 C 1182.41 1.61567 -0.935568 0
M  V30 12205 C 1182.76 1.89085 0.523557 0
M  V30 12206 O 1181.89 1.65495 1.39429 0
M  V30 12207 C 1182.48 2.93531 -1.69189 0
M  V30 12208 C 1181.04 3.44316 -1.52063 0
M  V30 12209 C 1180.19 2.18404 -1.70866 0
M  V30 12210 H 1183.14 0.906431 -1.30267 0
M  V30 12211 H 1183.16 3.62377 -1.16031 0
M  V30 12212 H 1182.67 2.73471 -2.75381 0
M  V30 12213 H 1180.77 3.69462 -0.482567 0
M  V30 12214 H 1180.89 4.20478 -2.29642 0
M  V30 12215 H 1179.25 2.28012 -1.13502 0
M  V30 12216 H 1180.03 2.00841 -2.7842 0
M  V30 12217 N 1182.48 0.948665 1.2585 0
M  V30 12218 C 1183.71 0.616741 1.98018 0
M  V30 12219 C 1184.13 -0.803005 1.70098 0
M  V30 12220 O 1183.49 -1.54208 0.953392 0
M  V30 12221 C 1183.54 0.874429 3.49837 0
M  V30 12222 O 1182.64 -0.0497568 4.1237 0
M  V30 12223 H 1181.98 0.235112 0.620982 0
M  V30 12224 H 1184.51 1.27364 1.60124 0
M  V30 12225 H 1184.52 0.798309 4.00114 0
M  V30 12226 H 1183.2 1.90922 3.69488 0
M  V30 12227 H 1181.77 0.0780591 3.72818 0
M  V30 12228 N 1183.96 -1.40369 0.716545 0
M  V30 12229 C 1185.18 -2.05704 0.264729 0
M  V30 12230 C 1185.61 -1.53634 -1.08527 0
M  V30 12231 O 1184.97 -0.67212 -1.68381 0
M  V30 12232 C 1185.01 -3.59692 0.255778 0
M  V30 12233 O 1184.12 -4.05286 -0.762686 0
M  V30 12234 H 1183.46 -0.652301 0.124092 0
M  V30 12235 H 1185.99 -1.7975 0.977295 0
M  V30 12236 H 1186 -4.07892 0.0937944 0
M  V30 12237 H 1184.67 -3.96955 1.24095 0
M  V30 12238 H 1183.25 -3.68543 -0.568347 0
M  V30 12239 N 1185.44 -0.462799 -1.50652 0
M  V30 12240 C 1186.66 0.0952726 -2.07181 0
M  V30 12241 C 1187.09 1.33479 -1.32533 0
M  V30 12242 O 1186.44 1.77473 -0.370564 0
M  V30 12243 C 1186.49 0.370592 -3.58691 0
M  V30 12244 O 1185.6 1.4526 -3.85971 0
M  V30 12245 H 1184.94 -0.00932702 -0.663934 0
M  V30 12246 H 1187.47 -0.651458 -1.93951 0
M  V30 12247 H 1187.48 0.613551 -4.0336 0
M  V30 12248 H 1186.15 -0.535219 -4.12442 0
M  V30 12249 H 1184.73 1.1976 -3.53146 0
M  V30 12250 N 1186.91 1.56388 -0.195085 0
M  V30 12251 C 1188.16 1.9758 0.443686 0
M  V30 12252 C 1188.49 1.08196 1.61629 0
M  V30 12253 O 1187.74 0.121061 1.95325 0
M  V30 12254 C 1188.04 3.44651 0.946051 0
M  V30 12255 C 1187.71 4.50758 -0.11318 0
M  V30 12256 C 1186.37 4.79499 -0.404229 0
M  V30 12257 C 1188.72 5.14534 -0.830899 0
M  V30 12258 C 1186.05 5.69307 -1.41797 0
M  V30 12259 C 1188.4 6.05438 -1.83379 0
M  V30 12260 C 1187.07 6.32535 -2.13204 0
M  V30 12261 H 1186.34 0.722995 0.162356 0
M  V30 12262 H 1188.98 1.8926 -0.292049 0
M  V30 12263 H 1187.29 3.50042 1.76006 0
M  V30 12264 H 1188.99 3.73878 1.44969 0
M  V30 12265 H 1185.58 4.28421 0.123833 0
M  V30 12266 H 1189.76 4.92421 -0.61927 0
M  V30 12267 H 1185.02 5.88575 -1.65496 0
M  V30 12268 H 1189.19 6.53915 -2.39516 0
M  V30 12269 H 1186.82 7.01924 -2.91902 0
M  V30 12270 N 1188.39 -0.0785156 1.57404 0
M  V30 12271 C 1189.34 -1.09402 2.03224 0
M  V30 12272 C 1190.31 -1.38849 0.911596 0
M  V30 12273 O 1191.49 -1.50031 1.17878 0
M  V30 12274 C 1188.63 -2.40444 2.47549 0
M  V30 12275 C 1187.75 -2.17585 3.73203 0
M  V30 12276 C 1186.88 -3.42143 4.06339 0
M  V30 12277 C 1185.92 -3.14619 5.25054 0
M  V30 12278 N 1185.06 -4.31489 5.5386 0
M  V30 12279 H 1189.9 -0.696307 2.89751 0
M  V30 12280 H 1187.44 -0.332261 1.43298 0
M  V30 12281 H 1189.39 -3.16944 2.71298 0
M  V30 12282 H 1188.02 -2.78031 1.64009 0
M  V30 12283 H 1187.08 -1.3181 3.56834 0
M  V30 12284 H 1188.39 -1.93249 4.59844 0
M  V30 12285 H 1187.54 -4.27042 4.30953 0
M  V30 12286 H 1186.28 -3.69549 3.18253 0
M  V30 12287 H 1185.29 -2.28116 5.00243 0
M  V30 12288 H 1186.51 -2.88543 6.14752 0
M  V30 12289 H 1184.46 -4.58939 4.68734 0
M  V30 12290 H 1184.37 -4.10403 6.34906 0
M  V30 12291 H 1185.64 -5.17404 5.83021 0
M  V30 12292 N 1189.87 -1.5367 -0.349747 0
M  V30 12293 C 1191.1 -1.74294 -1.10928 0
M  V30 12294 C 1191.51 -0.479102 -1.83033 0
M  V30 12295 O 1190.85 0.558621 -1.75 0
M  V30 12296 C 1190.91 -2.86457 -2.17216 0
M  V30 12297 C 1190.58 -4.26274 -1.6474 0
M  V30 12298 C 1191.57 -5.08065 -1.10302 0
M  V30 12299 C 1189.26 -4.72739 -1.69774 0
M  V30 12300 C 1191.25 -6.34417 -0.615938 0
M  V30 12301 C 1188.94 -5.99066 -1.20678 0
M  V30 12302 C 1189.94 -6.79737 -0.6668 0
M  V30 12303 O 1189.63 -8.03691 -0.183143 0
M  V30 12304 H 1189.36 -0.586046 -0.336937 0
M  V30 12305 H 1191.91 -2.01274 -0.409645 0
M  V30 12306 H 1190.14 -2.54988 -2.9072 0
M  V30 12307 H 1191.83 -2.95109 -2.78686 0
M  V30 12308 H 1192.6 -4.73333 -1.05739 0
M  V30 12309 H 1188.48 -4.1001 -2.10744 0
M  V30 12310 H 1192.02 -6.97331 -0.193795 0
M  V30 12311 H 1187.92 -6.33293 -1.24939 0
M  V30 12312 H 1188.69 -8.17946 -0.301008 0
M  V30 12313 N 1191.35 0.610423 -1.45298 0
M  V30 12314 C 1192.26 1.74964 -1.56285 0
M  V30 12315 C 1193.27 1.68149 -0.447436 0
M  V30 12316 O 1194.45 1.88556 -0.707725 0
M  V30 12317 C 1191.52 3.11417 -1.52383 0
M  V30 12318 C 1190.58 3.29707 -2.7494 0
M  V30 12319 C 1189.81 4.5965 -2.71215 0
M  V30 12320 O 1190.03 5.41789 -1.78383 0
M  V30 12321 O 1188.97 4.80591 -3.62375 0
M  V30 12322 H 1192.79 1.68646 -2.52571 0
M  V30 12323 H 1190.38 0.774168 -1.27777 0
M  V30 12324 H 1192.26 3.9272 -1.52805 0
M  V30 12325 H 1190.93 3.18232 -0.592472 0
M  V30 12326 H 1189.84 2.48003 -2.80081 0
M  V30 12327 H 1191.17 3.27766 -3.67192 0
M  V30 12328 N 1192.83 1.32541 0.852676 0
M  V30 12329 C 1194.05 1.2636 1.64462 0
M  V30 12330 C 1194.48 -0.16508 1.87374 0
M  V30 12331 O 1193.83 -1.11712 1.42794 0
M  V30 12332 C 1193.88 2.03052 2.97997 0
M  V30 12333 O 1192.99 1.37967 3.88637 0
M  V30 12334 H 1192.33 0.435393 0.501327 0
M  V30 12335 H 1194.86 1.74888 1.06186 0
M  V30 12336 H 1194.87 2.133 3.47803 0
M  V30 12337 H 1193.54 3.06941 2.80642 0
M  V30 12338 H 1192.12 1.36279 3.47106 0
M  V30 12339 N 1194.3 -1.0692 1.15784 0
M  V30 12340 C 1195.27 -2.12407 0.861167 0
M  V30 12341 C 1196.27 -1.6018 -0.141031 0
M  V30 12342 O 1197.46 -1.73972 0.0891192 0
M  V30 12343 C 1194.59 -3.39693 0.286636 0
M  V30 12344 H 1195.78 -2.40157 1.79623 0
M  V30 12345 H 1193.34 -1.22881 0.965916 0
M  V30 12346 H 1194.07 -3.17587 -0.656417 0
M  V30 12347 H 1193.86 -3.78903 1.0087 0
M  V30 12348 H 1195.35 -4.17488 0.0967971 0
M  V30 12349 N 1195.78 -0.955326 -1.25345 0
M  V30 12350 C 1197.03 -0.611388 -1.93365 0
M  V30 12351 C 1197.36 0.84953 -1.74633 0
M  V30 12352 O 1196.64 1.60962 -1.09185 0
M  V30 12353 C 1196.92 -0.971732 -3.46741 0
M  V30 12354 C 1196.77 -2.48843 -3.74696 0
M  V30 12355 C 1198.09 -0.497295 -4.37281 0
M  V30 12356 H 1195.21 -0.223591 -0.702265 0
M  V30 12357 H 1197.85 -1.1921 -1.47949 0
M  V30 12358 H 1196 -0.477568 -3.85554 0
M  V30 12359 H 1197.67 -3.05641 -3.45516 0
M  V30 12360 H 1195.92 -2.92582 -3.20278 0
M  V30 12361 H 1196.59 -2.69107 -4.8196 0
M  V30 12362 H 1199.06 -0.921196 -4.05775 0
M  V30 12363 H 1197.94 -0.778113 -5.43357 0
M  V30 12364 H 1198.2 0.602743 -4.37972 0
M  V30 12365 N 1197.26 1.39987 -0.723979 0
M  V30 12366 C 1198.19 2.2917 -0.0373445 0
M  V30 12367 C 1199.21 1.46258 0.715015 0
M  V30 12368 O 1200.4 1.69455 0.561003 0
M  V30 12369 C 1197.5 3.2468 0.971384 0
M  V30 12370 C 1196.67 4.36485 0.282826 0
M  V30 12371 C 1195.73 5.12379 1.19811 0
M  V30 12372 O 1194.75 5.65127 0.67974 0
M  V30 12373 N 1195.96 5.22531 2.52866 0
M  V30 12374 H 1198.72 2.88738 -0.803131 0
M  V30 12375 H 1196.28 1.51448 -0.572292 0
M  V30 12376 H 1198.27 3.72326 1.58606 0
M  V30 12377 H 1196.84 2.6622 1.63846 0
M  V30 12378 H 1196.06 3.90859 -0.512167 0
M  V30 12379 H 1197.35 5.08427 -0.194793 0
M  V30 12380 H 1196.75 4.81174 2.97469 0
M  V30 12381 H 1195.31 5.73655 3.09457 0
M  V30 12382 N 1198.74 0.470782 1.50404 0
M  V30 12383 C 1199.97 -0.0818945 2.06438 0
M  V30 12384 C 1200.38 -1.34085 1.33483 0
M  V30 12385 O 1199.72 -1.79346 0.397565 0
M  V30 12386 C 1199.78 -0.436252 3.56843 0
M  V30 12387 C 1199.45 0.720641 4.51282 0
M  V30 12388 C 1200.44 1.60258 4.94584 0
M  V30 12389 C 1198.13 0.910879 4.93972 0
M  V30 12390 C 1200.12 2.65916 5.79282 0
M  V30 12391 C 1197.81 1.97069 5.78452 0
M  V30 12392 C 1198.81 2.84319 6.21008 0
M  V30 12393 O 1198.5 3.88476 7.03805 0
M  V30 12394 H 1198.23 0.00361688 0.67599 0
M  V30 12395 H 1200.78 0.658488 1.94559 0
M  V30 12396 H 1199.01 -1.22982 3.66623 0
M  V30 12397 H 1200.7 -0.923976 3.95244 0
M  V30 12398 H 1201.47 1.46729 4.62272 0
M  V30 12399 H 1197.35 0.241225 4.60368 0
M  V30 12400 H 1200.89 3.3405 6.12419 0
M  V30 12401 H 1196.79 2.10605 6.10177 0
M  V30 12402 H 1197.55 3.8546 7.22054 0
M  V30 12403 N 1200.22 -1.56282 0.203376 0
M  V30 12404 C 1201.63 -1.58871 -0.152335 0
M  V30 12405 C 1201.83 -1.21978 -1.60386 0
M  V30 12406 O 1200.89 -0.946422 -2.34092 0
M  V30 12407 C 1202.2 -3.00287 0.157515 0
M  V30 12408 C 1203.75 -3.12846 0.098287 0
M  V30 12409 C 1204.23 -4.56408 0.38156 0
M  V30 12410 N 1205.72 -4.6202 0.330475 0
M  V30 12411 C 1206.45 -5.71006 0.523397 0
M  V30 12412 N 1205.95 -6.88428 0.777115 0
M  V30 12413 N 1207.74 -5.60238 0.457082 0
M  V30 12414 H 1199.89 -1.78543 1.15048 0
M  V30 12415 H 1202.15 -0.829019 0.459816 0
M  V30 12416 H 1201.86 -3.3187 1.16427 0
M  V30 12417 H 1201.73 -3.73372 -0.536041 0
M  V30 12418 H 1204.12 -2.8107 -0.899085 0
M  V30 12419 H 1204.2 -2.42129 0.825045 0
M  V30 12420 H 1203.85 -4.88897 1.37629 0
M  V30 12421 H 1203.78 -5.25325 -0.366182 0
M  V30 12422 H 1206.27 -3.77636 0.141327 0
M  V30 12423 H 1206.58 -7.67389 0.912911 0
M  V30 12424 H 1204.93 -6.90215 0.814104 0
M  V30 12425 H 1208.12 -4.67382 0.259226 0
M  V30 12426 H 1208.29 -6.45114 0.610848 0
M  V30 12427 N 1201.7 0.070167 -1.57444 0
M  V30 12428 C 1203.11 0.621805 -1.76041 0
M  V30 12429 C 1203.46 1.77824 -0.829047 0
M  V30 12430 O 1202.58 2.16396 -0.0135453 0
M  V30 12431 C 1203.18 1.13476 -3.19231 0
M  V30 12432 C 1201.74 1.63225 -3.39167 0
M  V30 12433 C 1200.88 0.552369 -2.71743 0
M  V30 12434 H 1203.83 -0.156009 -1.57931 0
M  V30 12435 H 1203.86 2.00352 -3.2348 0
M  V30 12436 H 1203.37 0.29288 -3.86993 0
M  V30 12437 H 1201.47 2.49733 -2.76522 0
M  V30 12438 H 1201.58 1.70807 -4.47618 0
M  V30 12439 H 1199.95 0.997797 -2.34342 0
M  V30 12440 H 1200.73 -0.279354 -3.42162 0
M  V30 12441 N 1203.17 1.53854 0.341593 0
M  V30 12442 C 1204.14 1.8128 1.40251 0
M  V30 12443 C 1205.14 0.683915 1.45531 0
M  V30 12444 O 1206.33 0.952202 1.45872 0
M  V30 12445 C 1203.46 1.95658 2.79161 0
M  V30 12446 H 1204.65 2.76053 1.17195 0
M  V30 12447 H 1202.2 1.45296 0.57609 0
M  V30 12448 H 1202.94 1.03034 3.07497 0
M  V30 12449 H 1202.72 2.77788 2.76724 0
M  V30 12450 H 1204.21 2.18387 3.55945 0
M  V30 12451 N 1204.65 -0.602709 1.4562 0
M  V30 12452 C 1206.06 -1.1847 1.44297 0
M  V30 12453 C 1206.41 -1.95434 0.17316 0
M  V30 12454 O 1205.54 -2.03894 -0.724986 0
M  V30 12455 C 1206.13 -2.15508 2.61422 0
M  V30 12456 C 1204.69 -2.69073 2.63204 0
M  V30 12457 C 1203.84 -1.44568 2.36633 0
M  V30 12458 H 1206.79 -0.391745 1.53789 0
M  V30 12459 H 1206.81 -2.98628 2.35799 0
M  V30 12460 H 1206.32 -1.59464 3.53826 0
M  V30 12461 H 1204.42 -3.29042 1.7482 0
M  V30 12462 H 1204.54 -3.13173 3.62573 0
M  V30 12463 H 1202.9 -1.73692 1.86287 0
M  V30 12464 H 1203.68 -0.903852 3.31188 0
M  V30 12465 N 1206.13 -1.32992 -0.845635 0
M  V30 12466 C 1207.41 -1.14671 -1.58461 0
M  V30 12467 C 1207.79 0.289498 -2.09106 0
M  V30 12468 O 1207.13 1.28751 -1.88773 0
M  V30 12469 C 1207.34 -2.18206 -2.72373 0
M  V30 12470 C 1208.69 -2.5201 -3.41726 0
M  V30 12471 O 1209.72 -2.16821 -2.82608 0
M  V30 12472 O 1208.58 -3.12368 -4.48429 0
M  V30 12473 H 1205.67 -0.443088 -0.698285 0
M  V30 12474 H 1208.22 -1.44552 -0.888978 0
M  V30 12475 H 1206.99 -3.14707 -2.32541 0
M  V30 12476 H 1206.61 -1.89372 -3.49605 0
M  V30 12477 N 1207.61 1.06304 -1.1635 0
M  V30 12478 C 1208.83 1.83338 -0.969639 0
M  V30 12479 C 1209.26 1.81945 0.477231 0
M  V30 12480 O 1208.62 1.22018 1.34094 0
M  V30 12481 C 1208.66 3.2785 -1.50155 0
M  V30 12482 O 1207.77 4.06281 -0.707805 0
M  V30 12483 H 1207.11 0.567293 -0.345072 0
M  V30 12484 H 1209.64 1.34033 -1.54584 0
M  V30 12485 H 1209.65 3.7867 -1.51898 0
M  V30 12486 H 1208.32 3.28179 -2.55483 0
M  V30 12487 H 1206.9 3.65055 -0.760872 0
M  V30 12488 N 1209.09 0.96196 1.24836 0
M  V30 12489 C 1210.32 0.637214 1.96528 0
M  V30 12490 C 1210.72 -0.79638 1.71623 0
M  V30 12491 O 1210.07 -1.54524 0.993372 0
M  V30 12492 C 1210.13 0.824972 3.49906 0
M  V30 12493 C 1209.79 2.23711 3.985 0
M  V30 12494 C 1210.79 3.21439 4.08623 0
M  V30 12495 C 1208.47 2.56327 4.31974 0
M  V30 12496 C 1210.47 4.49872 4.51546 0
M  V30 12497 C 1208.16 3.84987 4.74582 0
M  V30 12498 C 1209.15 4.81572 4.84332 0
M  V30 12499 O 1208.84 6.07938 5.25991 0
M  V30 12500 H 1208.57 0.237214 0.633013 0
M  V30 12501 H 1211.13 1.29081 1.59773 0
M  V30 12502 H 1209.36 0.114219 3.86531 0
M  V30 12503 H 1211.05 0.500179 4.02806 0
M  V30 12504 H 1211.81 2.97569 3.82985 0
M  V30 12505 H 1207.69 1.81872 4.23608 0
M  V30 12506 H 1211.24 5.25261 4.59071 0
M  V30 12507 H 1207.13 4.08661 4.99666 0
M  V30 12508 H 1207.9 6.11421 5.44157 0
M  V30 12509 N 1210.56 -1.39601 0.731392 0
M  V30 12510 C 1211.49 -2.33268 0.1041 0
M  V30 12511 C 1212.47 -1.53724 -0.728219 0
M  V30 12512 O 1213.66 -1.82131 -0.673933 0
M  V30 12513 C 1210.79 -3.37802 -0.806646 0
M  V30 12514 C 1209.74 -4.27928 -0.0787588 0
M  V30 12515 C 1209.07 -5.23131 -1.10628 0
M  V30 12516 C 1210.37 -5.11086 1.07651 0
M  V30 12517 H 1212.06 -2.85975 0.886496 0
M  V30 12518 H 1209.61 -1.375 0.427746 0
M  V30 12519 H 1211.56 -4.02278 -1.25499 0
M  V30 12520 H 1210.29 -2.83527 -1.62112 0
M  V30 12521 H 1208.95 -3.64926 0.349926 0
M  V30 12522 H 1208.59 -4.65152 -1.91422 0
M  V30 12523 H 1208.29 -5.84277 -0.624043 0
M  V30 12524 H 1209.82 -5.90483 -1.5544 0
M  V30 12525 H 1211.23 -5.68927 0.706781 0
M  V30 12526 H 1209.63 -5.81356 1.48814 0
M  V30 12527 H 1210.7 -4.46131 1.89988 0
M  V30 12528 N 1212.04 -0.478751 -1.50152 0
M  V30 12529 C 1212.99 0.325375 -2.30313 0
M  V30 12530 C 1213.98 0.983372 -1.37935 0
M  V30 12531 O 1215.19 0.913601 -1.55091 0
M  V30 12532 H 1211.57 0.123775 -0.741744 0
M  V30 12533 H 1213.54 -0.371004 -2.96085 0
M  V30 12534 C 1212.29 1.39026 -3.18696 0
M  V30 12535 H 1211.61 0.893329 -3.89692 0
M  V30 12536 H 1213.05 1.92533 -3.77766 0
M  V30 12537 C 1211.51 2.39637 -2.36803 0
M  V30 12538 O 1212.04 3.45067 -2.05649 0
M  V30 12539 N 1210.24 2.11546 -1.9924 0
M  V30 12540 H 1209.79 1.25832 -2.24775 0
M  V30 12541 H 1209.75 2.79096 -1.44751 0
M  V30 12542 N 1213.52 1.56172 -0.211661 0
M  V30 12543 C 1214.93 1.84307 0.297982 0
M  V30 12544 C 1215.28 1.1328 1.60194 0
M  V30 12545 O 1214.41 0.399137 2.12687 0
M  V30 12546 C 1215 3.34348 0.547428 0
M  V30 12547 C 1213.56 3.62835 1.0014 0
M  V30 12548 C 1212.71 2.77237 0.0590326 0
M  V30 12549 H 1215.66 1.5262 -0.435083 0
M  V30 12550 H 1215.68 3.54018 1.39469 0
M  V30 12551 H 1215.19 3.86015 -0.401778 0
M  V30 12552 H 1213.29 3.16616 1.96431 0
M  V30 12553 H 1213.41 4.70899 0.882653 0
M  V30 12554 H 1211.77 2.48377 0.564005 0
M  V30 12555 H 1212.55 3.31699 -0.884913 0
M  V30 12556 N 1215 -0.0618163 1.57479 0
M  V30 12557 C 1216.24 -0.764296 1.89573 0
M  V30 12558 C 1216.6 -1.74235 0.806605 0
M  V30 12559 O 1217.8 -2.49067 1.0109 0
M  V30 12560 C 1216.07 -1.44503 3.26885 0
M  V30 12561 S 1217.63 -2.1812 3.80748 0
M  V30 12562 H 1214.45 -0.253946 0.664103 0
M  V30 12563 H 1217.05 -0.0200064 1.9549 0
M  V30 12564 H 1215.76 -0.719525 4.04043 0
M  V30 12565 H 1215.29 -2.22855 3.2419 0
M  V30 12566 H 1217.3 -3.44793 3.56837 0
M  V30 12567 N 1216.48 -1.54033 -0.333429 0
M  V30 12568 C 1217.89 -1.63107 -0.908455 0
M  V30 12569 C 1218.24 -0.518823 -1.89216 0
M  V30 12570 O 1217.36 0.34985 -2.13553 0
M  V30 12571 C 1217.96 -2.95657 -1.65447 0
M  V30 12572 C 1216.52 -3.0696 -2.17836 0
M  V30 12573 C 1215.66 -2.58617 -1.00063 0
M  V30 12574 H 1218.62 -1.58309 -0.11128 0
M  V30 12575 H 1218.64 -2.85263 -2.51804 0
M  V30 12576 H 1218.15 -3.76588 -0.938263 0
M  V30 12577 H 1216.25 -2.30683 -2.92602 0
M  V30 12578 H 1216.36 -4.12599 -2.43513 0
M  V30 12579 H 1214.73 -2.1427 -1.37697 0
M  V30 12580 H 1215.51 -3.41996 -0.298901 0
M  V30 12581 N 1217.95 0.594978 -1.45938 0
M  V30 12582 C 1218.89 1.71909 -1.51591 0
M  V30 12583 C 1219.9 1.57671 -0.405416 0
M  V30 12584 O 1221.09 1.65321 -0.673144 0
M  V30 12585 C 1218.19 3.10041 -1.3685 0
M  V30 12586 C 1217.36 3.50399 -2.61801 0
M  V30 12587 C 1216.42 4.67542 -2.41435 0
M  V30 12588 O 1215.45 4.74022 -3.15106 0
M  V30 12589 N 1216.65 5.6163 -1.46808 0
M  V30 12590 H 1219.41 1.67518 -2.48511 0
M  V30 12591 H 1216.97 0.78062 -1.41838 0
M  V30 12592 H 1218.97 3.86183 -1.21017 0
M  V30 12593 H 1217.54 3.08868 -0.481589 0
M  V30 12594 H 1216.76 2.64088 -2.92662 0
M  V30 12595 H 1218.04 3.74125 -3.44831 0
M  V30 12596 H 1217.44 5.5912 -0.860333 0
M  V30 12597 H 1216 6.37252 -1.36942 0
M  V30 12598 N 1219.43 1.33438 0.838571 0
M  V30 12599 C 1220.4 1.23632 1.92997 0
M  V30 12600 C 1221.4 0.155302 1.60048 0
M  V30 12601 O 1222.59 0.406852 1.69382 0
M  V30 12602 C 1219.72 0.90512 3.28665 0
M  V30 12603 H 1220.91 2.20643 2.03117 0
M  V30 12604 H 1218.46 1.17501 1.03069 0
M  V30 12605 H 1219.2 -0.0624833 3.2424 0
M  V30 12606 H 1218.98 1.68688 3.53959 0
M  V30 12607 H 1220.47 0.861262 4.08622 0
M  V30 12608 N 1220.91 -1.05686 1.16912 0
M  V30 12609 C 1222.16 -1.78244 0.95254 0
M  V30 12610 C 1222.48 -1.87924 -0.520525 0
M  V30 12611 O 1221.75 -1.39239 -1.37802 0
M  V30 12612 H 1220.33 -0.660228 0.349439 0
M  V30 12613 H 1222.99 -1.27634 1.47294 0
M  V30 12614 H 1222.09 -2.80102 1.37657 0
M  V30 12615 N 1222.39 -0.968567 -1.24324 0
M  V30 12616 C 1223.8 -0.675239 -1.44612 0
M  V30 12617 C 1224 0.762641 -1.8651 0
M  V30 12618 O 1223.06 1.53644 -2.00374 0
M  V30 12619 C 1224.37 -1.66007 -2.50723 0
M  V30 12620 C 1225.92 -1.6728 -2.6455 0
M  V30 12621 C 1226.4 -2.64563 -3.73859 0
M  V30 12622 N 1227.89 -2.6301 -3.81287 0
M  V30 12623 C 1228.62 -3.34957 -4.65394 0
M  V30 12624 N 1228.12 -4.16424 -5.53681 0
M  V30 12625 N 1229.91 -3.23778 -4.59483 0
M  V30 12626 H 1222.06 -1.89757 -0.954257 0
M  V30 12627 H 1224.33 -0.817004 -0.480841 0
M  V30 12628 H 1224.03 -2.68779 -2.26827 0
M  V30 12629 H 1223.91 -1.43353 -3.48898 0
M  V30 12630 H 1226.29 -0.652184 -2.87803 0
M  V30 12631 H 1226.37 -1.93997 -1.6673 0
M  V30 12632 H 1226.02 -3.66759 -3.51355 0
M  V30 12633 H 1225.95 -2.35124 -4.71194 0
M  V30 12634 H 1228.44 -2.03877 -3.18186 0
M  V30 12635 H 1228.75 -4.68207 -6.14818 0
M  V30 12636 H 1227.1 -4.20518 -5.53344 0
M  V30 12637 H 1230.29 -2.59594 -3.89524 0
M  V30 12638 H 1230.46 -3.80112 -5.24804 0
M  V30 12639 N 1223.87 1.39211 -0.738786 0
M  V30 12640 C 1225.12 1.99673 -0.285254 0
M  V30 12641 C 1225.43 1.59297 1.13507 0
M  V30 12642 O 1226.63 2.12622 1.68832 0
M  V30 12643 C 1225.09 3.5696 -0.45906 0
M  V30 12644 C 1224.7 4.06297 -1.88751 0
M  V30 12645 C 1226.44 4.24446 -0.0674954 0
M  V30 12646 C 1224.35 5.56171 -2.01067 0
M  V30 12647 H 1223.28 0.746945 -0.102901 0
M  V30 12648 H 1225.93 1.59163 -0.913209 0
M  V30 12649 H 1224.31 3.95285 0.23785 0
M  V30 12650 H 1225.49 3.79297 -2.61669 0
M  V30 12651 H 1223.8 3.51486 -2.23264 0
M  V30 12652 H 1226.4 5.34521 -0.138475 0
M  V30 12653 H 1226.74 4.04653 0.977823 0
M  V30 12654 H 1227.27 3.91309 -0.715704 0
M  V30 12655 H 1224.01 5.80849 -3.03801 0
M  V30 12656 H 1223.53 5.84961 -1.32591 0
M  V30 12657 H 1225.21 6.21642 -1.79362 0
M  V30 12658 N 1225.34 0.486708 1.49896 0
M  V30 12659 C 1226.59 -0.0629451 2.02702 0
M  V30 12660 C 1226.92 -1.37956 1.36681 0
M  V30 12661 O 1226.2 -1.88025 0.497678 0
M  V30 12662 C 1226.48 -0.230461 3.59362 0
M  V30 12663 C 1226.33 1.10828 4.35933 0
M  V30 12664 C 1227.65 -0.977785 4.29101 0
M  V30 12665 H 1224.77 -0.0214017 0.736689 0
M  V30 12666 H 1227.41 0.635339 1.79063 0
M  V30 12667 H 1225.56 -0.825222 3.79634 0
M  V30 12668 H 1227.24 1.74082 4.27192 0
M  V30 12669 H 1225.48 1.7011 3.99055 0
M  V30 12670 H 1226.15 0.944532 5.43859 0
M  V30 12671 H 1228.63 -0.473505 4.13397 0
M  V30 12672 H 1227.5 -1.06382 5.38492 0
M  V30 12673 H 1227.76 -2.01813 3.9335 0
M  V30 12674 N 1226.82 -1.56058 0.219941 0
M  V30 12675 C 1227.77 -2.20218 -0.690846 0
M  V30 12676 C 1228.74 -1.15725 -1.19151 0
M  V30 12677 O 1229.93 -1.44073 -1.2509 0
M  V30 12678 C 1227.07 -2.88477 -1.89408 0
M  V30 12679 C 1226.18 -4.07559 -1.43246 0
M  V30 12680 C 1225.31 -4.63605 -2.59314 0
M  V30 12681 C 1224.35 -5.74993 -2.0988 0
M  V30 12682 N 1223.49 -6.25337 -3.19214 0
M  V30 12683 H 1228.33 -2.97685 -0.136992 0
M  V30 12684 H 1225.87 -1.46994 -0.055865 0
M  V30 12685 H 1227.82 -3.26235 -2.60051 0
M  V30 12686 H 1226.45 -2.1353 -2.42084 0
M  V30 12687 H 1225.51 -3.75297 -0.621013 0
M  V30 12688 H 1226.82 -4.8805 -1.02997 0
M  V30 12689 H 1225.97 -5.03798 -3.38041 0
M  V30 12690 H 1224.71 -3.82274 -3.0285 0
M  V30 12691 H 1223.72 -5.34304 -1.29613 0
M  V30 12692 H 1224.94 -6.58158 -1.67345 0
M  V30 12693 H 1222.89 -5.4692 -3.62236 0
M  V30 12694 H 1222.8 -7.00947 -2.83213 0
M  V30 12695 H 1224.07 -6.70187 -3.98083 0
M  V30 12696 N 1228.3 0.053464 -1.57509 0
M  V30 12697 C 1229.21 1.07902 -2.08313 0
M  V30 12698 C 1230.23 1.41223 -1.01647 0
M  V30 12699 O 1231.4 1.51032 -1.33233 0
M  V30 12700 C 1228.47 2.36813 -2.5322 0
M  V30 12701 C 1227.53 2.10297 -3.74264 0
M  V30 12702 C 1226.76 3.33062 -4.1702 0
M  V30 12703 O 1226.99 4.42857 -3.59491 0
M  V30 12704 O 1225.92 3.20195 -5.09665 0
M  V30 12705 H 1229.75 0.677368 -2.9605 0
M  V30 12706 H 1227.33 0.268838 -1.46961 0
M  V30 12707 H 1229.21 3.12645 -2.82544 0
M  V30 12708 H 1227.89 2.76323 -1.68605 0
M  V30 12709 H 1226.79 1.32111 -3.49996 0
M  V30 12710 H 1228.13 1.75658 -4.59788 0
M  V30 12711 N 1229.78 1.54207 0.325255 0
M  V30 12712 C 1231.01 1.76293 1.08298 0
M  V30 12713 C 1231.42 0.510722 1.81761 0
M  V30 12714 O 1230.78 -0.5185 1.7498 0
M  V30 12715 C 1230.83 2.95498 2.08238 0
M  V30 12716 O 1230.55 4.15877 1.37759 0
M  V30 12717 C 1232.05 3.29781 2.96242 0
M  V30 12718 H 1229.27 0.588576 0.322209 0
M  V30 12719 H 1231.82 2.0109 0.371896 0
M  V30 12720 H 1229.97 2.72979 2.74884 0
M  V30 12721 H 1230.39 4.82918 2.04672 0
M  V30 12722 H 1231.86 4.16495 3.62265 0
M  V30 12723 H 1232.34 2.46874 3.63249 0
M  V30 12724 H 1232.94 3.54372 2.3516 0
M  V30 12725 N 1231.26 -0.58723 1.46251 0
M  V30 12726 C 1232.49 -1.36976 1.54665 0
M  V30 12727 C 1232.9 -1.88293 0.185079 0
M  V30 12728 O 1232.24 -1.64028 -0.82707 0
M  V30 12729 C 1232.3 -2.59591 2.48702 0
M  V30 12730 C 1231.96 -2.29773 3.95036 0
M  V30 12731 C 1232.96 -1.88885 4.84374 0
M  V30 12732 C 1230.65 -2.42057 4.40129 0
M  V30 12733 C 1232.64 -1.60669 6.16818 0
M  V30 12734 C 1230.33 -2.13454 5.72609 0
M  V30 12735 C 1231.33 -1.72824 6.60773 0
M  V30 12736 O 1231.01 -1.44569 7.90794 0
M  V30 12737 H 1230.75 -0.424968 0.525717 0
M  V30 12738 H 1233.3 -0.721298 1.92319 0
M  V30 12739 H 1231.53 -3.27226 2.06058 0
M  V30 12740 H 1233.22 -3.21656 2.47573 0
M  V30 12741 H 1233.98 -1.78913 4.50794 0
M  V30 12742 H 1229.86 -2.72644 3.71734 0
M  V30 12743 H 1233.41 -1.28882 6.85591 0
M  V30 12744 H 1229.3 -2.23048 6.05739 0
M  V30 12745 H 1230.07 -1.58452 8.03016 0
M  V30 12746 N 1232.74 -1.33881 -0.831482 0
M  V30 12747 C 1233.96 -1.28812 -1.61911 0
M  V30 12748 C 1234.38 0.139519 -1.88284 0
M  V30 12749 O 1233.74 1.08397 -1.46821 0
M  V30 12750 C 1233.79 -2.06806 -2.96502 0
M  V30 12751 O 1233.51 -3.44 -2.71285 0
M  V30 12752 C 1235.01 -2.09033 -3.90922 0
M  V30 12753 H 1232.23 -0.443473 -0.50356 0
M  V30 12754 H 1234.77 -1.76365 -1.03516 0
M  V30 12755 H 1232.93 -1.62915 -3.51479 0
M  V30 12756 H 1233.34 -3.84213 -3.57044 0
M  V30 12757 H 1234.82 -2.68044 -4.82552 0
M  V30 12758 H 1235.29 -1.08249 -4.25651 0
M  V30 12759 H 1235.9 -2.52975 -3.41883 0
M  V30 12760 N 1234.21 1.05064 -1.1747 0
M  V30 12761 C 1235.46 1.77737 -0.961979 0
M  V30 12762 C 1235.78 1.88198 0.510551 0
M  V30 12763 O 1235.05 1.39968 1.37062 0
M  V30 12764 H 1233.63 0.658366 -0.352935 0
M  V30 12765 H 1236.29 1.26851 -1.47969 0
M  V30 12766 H 1235.39 2.79368 -1.39141 0
M  V30 12767 N 1235.69 0.975146 1.23809 0
M  V30 12768 C 1236.94 0.636678 1.91388 0
M  V30 12769 C 1237.25 -0.832876 1.76982 0
M  V30 12770 O 1238.46 -1.28218 2.39316 0
M  V30 12771 C 1236.92 1.08813 3.43057 0
M  V30 12772 C 1236.52 2.58165 3.66135 0
M  V30 12773 C 1238.27 0.823154 4.16443 0
M  V30 12774 C 1236.17 2.97004 5.11412 0
M  V30 12775 H 1235.1 0.234424 0.716632 0
M  V30 12776 H 1237.76 1.18235 1.40331 0
M  V30 12777 H 1236.14 0.470709 3.93192 0
M  V30 12778 H 1237.31 3.25101 3.26567 0
M  V30 12779 H 1235.63 2.82353 3.06049 0
M  V30 12780 H 1238.22 1.08925 5.23488 0
M  V30 12781 H 1238.57 -0.240705 4.15604 0
M  V30 12782 H 1239.1 1.4019 3.72279 0
M  V30 12783 H 1235.84 4.02492 5.17378 0
M  V30 12784 H 1235.36 2.34759 5.51949 0
M  V30 12785 H 1237.04 2.8732 5.79704 0
M  V30 12786 N 1237.17 -1.38817 0.746158 0
M  V30 12787 C 1238.12 -2.32373 0.102785 0
M  V30 12788 C 1239.11 -1.53638 -0.713556 0
M  V30 12789 O 1240.32 -1.69223 -0.613488 0
M  V30 12790 H 1236.69 -0.751861 0.0144405 0
M  V30 12791 H 1238.66 -2.84249 0.908032 0
M  V30 12792 C 1237.41 -3.38796 -0.781827 0
M  V30 12793 H 1236.74 -3.99467 -0.163057 0
M  V30 12794 H 1238.18 -4.06682 -1.19941 0
M  V30 12795 C 1236.63 -2.76756 -1.92113 0
M  V30 12796 O 1237.16 -2.65478 -3.0147 0
M  V30 12797 N 1235.37 -2.34676 -1.71392 0
M  V30 12798 H 1234.92 -2.44049 -0.824483 0
M  V30 12799 H 1234.88 -1.93508 -2.47794 0
M  V30 12800 N 1238.65 -0.49465 -1.49636 0
M  V30 12801 C 1239.9 0.0520143 -2.02033 0
M  V30 12802 C 1240.22 1.38071 -1.37701 0
M  V30 12803 O 1239.49 1.88589 -0.530181 0
M  V30 12804 H 1238.07 0.0222123 -0.74667 0
M  V30 12805 H 1240.73 -0.650445 -1.83726 0
M  V30 12806 H 1239.82 0.186337 -3.11543 0
M  V30 12807 N 1240.13 1.55939 -0.228214 0
M  V30 12808 C 1241.35 2.0287 0.406348 0
M  V30 12809 C 1241.77 1.1079 1.52876 0
M  V30 12810 O 1241.13 0.118747 1.82113 0
M  V30 12811 C 1241.18 3.49286 0.931734 0
M  V30 12812 O 1240.9 4.37857 -0.145933 0
M  V30 12813 C 1242.4 4.11893 1.63887 0
M  V30 12814 H 1239.62 0.663696 0.0987358 0
M  V30 12815 H 1242.16 2.01541 -0.346616 0
M  V30 12816 H 1240.32 3.5121 1.63494 0
M  V30 12817 H 1240.73 5.23904 0.250005 0
M  V30 12818 H 1242.21 5.16091 1.95841 0
M  V30 12819 H 1242.68 3.57281 2.55435 0
M  V30 12820 H 1243.29 4.13839 0.980697 0
M  V30 12821 N 1241.6 -0.0451101 1.57535 0
M  V30 12822 C 1242.55 -1.05066 2.05499 0
M  V30 12823 C 1243.52 -1.36884 0.940843 0
M  V30 12824 O 1244.71 -1.47497 1.21034 0
M  V30 12825 C 1241.85 -2.35139 2.52594 0
M  V30 12826 C 1240.96 -2.0962 3.77735 0
M  V30 12827 C 1240.09 -3.33447 4.13505 0
M  V30 12828 C 1239.13 -3.03411 5.31609 0
M  V30 12829 N 1238.27 -4.19644 5.62888 0
M  V30 12830 H 1243.11 -0.63469 2.91163 0
M  V30 12831 H 1240.65 -0.30179 1.43971 0
M  V30 12832 H 1242.61 -3.11118 2.7796 0
M  V30 12833 H 1241.24 -2.74489 1.69869 0
M  V30 12834 H 1240.29 -1.24211 3.59549 0
M  V30 12835 H 1241.6 -1.83452 4.63839 0
M  V30 12836 H 1240.75 -4.17805 4.39914 0
M  V30 12837 H 1239.49 -3.62715 3.2602 0
M  V30 12838 H 1238.5 -2.17453 5.04969 0
M  V30 12839 H 1239.72 -2.75438 6.20734 0
M  V30 12840 H 1237.67 -4.48893 4.78363 0
M  V30 12841 H 1237.59 -3.96843 6.43468 0
M  V30 12842 H 1238.85 -5.04921 5.93865 0
M  V30 12843 N 1243.08 -1.54377 -0.317073 0
M  V30 12844 C 1244.31 -1.77184 -1.07798 0
M  V30 12845 C 1244.73 -0.52204 -1.80711 0
M  V30 12846 O 1244.09 0.52672 -1.7348 0
M  V30 12847 C 1244.14 -2.96887 -2.04671 0
M  V30 12848 O 1243.24 -2.68887 -3.12688 0
M  V30 12849 H 1242.58 -0.586937 -0.310485 0
M  V30 12850 H 1245.11 -2.01419 -0.35939 0
M  V30 12851 H 1245.12 -3.24414 -2.47426 0
M  V30 12852 H 1243.8 -3.87518 -1.51005 0
M  V30 12853 H 1242.38 -2.52329 -2.74562 0
M  V30 12854 N 1244.56 0.579466 -1.4656 0
M  V30 12855 C 1245.49 1.69846 -1.60233 0
M  V30 12856 C 1246.47 1.6397 -0.452533 0
M  V30 12857 O 1247.66 1.81936 -0.679174 0
M  V30 12858 C 1244.79 3.08488 -1.59538 0
M  V30 12859 C 1243.74 3.29197 -2.7352 0
M  V30 12860 C 1243.07 4.684 -2.57887 0
M  V30 12861 C 1244.37 3.16718 -4.15315 0
M  V30 12862 H 1246.06 1.5866 -2.53904 0
M  V30 12863 H 1243.61 0.761873 -1.22194 0
M  V30 12864 H 1245.56 3.86595 -1.67696 0
M  V30 12865 H 1244.28 3.20581 -0.62413 0
M  V30 12866 H 1242.94 2.53491 -2.64836 0
M  V30 12867 H 1242.59 4.77262 -1.58839 0
M  V30 12868 H 1242.29 4.83208 -3.34341 0
M  V30 12869 H 1243.81 5.48671 -2.67942 0
M  V30 12870 H 1245.23 3.84666 -4.25094 0
M  V30 12871 H 1243.63 3.43047 -4.92381 0
M  V30 12872 H 1244.7 2.13755 -4.35244 0
M  V30 12873 N 1246.04 1.3432 0.824371 0
M  V30 12874 C 1246.99 1.2578 1.95658 0
M  V30 12875 C 1247.98 0.156199 1.68678 0
M  V30 12876 O 1249.19 0.321081 1.77113 0
M  V30 12877 H 1245.56 0.390711 0.642533 0
M  V30 12878 H 1247.53 2.21471 1.99983 0
M  V30 12879 C 1246.28 1.02865 3.32136 0
M  V30 12880 H 1245.6 1.86863 3.53443 0
M  V30 12881 H 1247.04 1.00925 4.11813 0
M  V30 12882 C 1245.5 -0.268097 3.35832 0
M  V30 12883 O 1246.03 -1.26995 3.81097 0
M  V30 12884 N 1244.24 -0.300702 2.8904 0
M  V30 12885 H 1243.79 0.51515 2.52396 0
M  V30 12886 H 1243.74 -1.16811 2.91895 0
M  V30 12887 N 1247.52 -1.0444 1.18026 0
M  V30 12888 C 1248.76 -1.77838 0.974756 0
M  V30 12889 C 1249.1 -1.87792 -0.494755 0
M  V30 12890 O 1248.37 -1.38327 -1.36733 0
M  V30 12891 C 1248.65 -3.21315 1.62569 0
M  V30 12892 C 1248.51 -3.19327 3.16781 0
M  V30 12893 C 1249.83 -4.19337 1.33583 0
M  V30 12894 H 1246.94 -0.645575 0.35553 0
M  V30 12895 H 1249.59 -1.22023 1.45638 0
M  V30 12896 H 1247.74 -3.68974 1.21617 0
M  V30 12897 H 1249.41 -2.79687 3.66842 0
M  V30 12898 H 1247.65 -2.57461 3.49137 0
M  V30 12899 H 1248.32 -4.20626 3.5746 0
M  V30 12900 H 1250.8 -3.80208 1.69059 0
M  V30 12901 H 1249.67 -5.17953 1.81702 0
M  V30 12902 H 1249.94 -4.41346 0.258016 0
M  V30 12903 N 1248.99 -0.981699 -1.2329 0
M  V30 12904 C 1250.22 -0.668399 -1.95489 0
M  V30 12905 C 1250.63 0.768976 -1.72868 0
M  V30 12906 O 1249.98 1.52925 -1.01783 0
M  V30 12907 C 1250.04 -0.880535 -3.4855 0
M  V30 12908 C 1249.7 -2.30023 -3.9489 0
M  V30 12909 C 1250.7 -3.27899 -4.03458 0
M  V30 12910 C 1248.38 -2.63167 -4.27842 0
M  V30 12911 C 1250.38 -4.56999 -4.44332 0
M  V30 12912 C 1248.06 -3.92489 -4.68397 0
M  V30 12913 C 1249.06 -4.89216 -4.76609 0
M  V30 12914 O 1248.75 -6.16229 -5.16253 0
M  V30 12915 H 1248.48 -0.247255 -0.629159 0
M  V30 12916 H 1251.04 -1.31606 -1.57699 0
M  V30 12917 H 1249.27 -0.175698 -3.86301 0
M  V30 12918 H 1250.96 -0.564198 -4.0196 0
M  V30 12919 H 1251.72 -3.03624 -3.78203 0
M  V30 12920 H 1247.6 -1.88588 -4.20661 0
M  V30 12921 H 1251.14 -5.32498 -4.50656 0
M  V30 12922 H 1247.04 -4.16558 -4.93102 0
M  V30 12923 H 1247.81 -6.20001 -5.34361 0
M  V30 12924 N 1250.47 1.3842 -0.753509 0
M  V30 12925 C 1251.4 2.33073 -0.141198 0
M  V30 12926 C 1252.38 1.54863 0.70367 0
M  V30 12927 O 1253.57 1.8318 0.644872 0
M  V30 12928 C 1250.7 3.39043 0.752802 0
M  V30 12929 C 1249.65 4.27999 0.0106692 0
M  V30 12930 C 1248.98 5.24824 1.02291 0
M  V30 12931 C 1250.28 5.09308 -1.15768 0
M  V30 12932 H 1251.97 2.84528 -0.93188 0
M  V30 12933 H 1249.52 1.36802 -0.449567 0
M  V30 12934 H 1251.47 4.04224 1.19083 0
M  V30 12935 H 1250.2 2.8607 1.57581 0
M  V30 12936 H 1248.85 3.64323 -0.407939 0
M  V30 12937 H 1248.5 4.68139 1.83998 0
M  V30 12938 H 1248.2 5.85196 0.53101 0
M  V30 12939 H 1249.73 5.92882 1.46026 0
M  V30 12940 H 1251.14 5.6773 -0.797203 0
M  V30 12941 H 1249.54 5.78914 -1.58044 0
M  V30 12942 H 1250.61 4.43051 -1.97062 0
M  V30 12943 N 1251.95 0.502579 1.49372 0
M  V30 12944 C 1253.36 0.055187 1.86618 0
M  V30 12945 C 1253.71 -1.35938 1.41476 0
M  V30 12946 O 1252.84 -2.01333 0.793338 0
M  V30 12947 C 1253.43 0.0933734 3.38671 0
M  V30 12948 C 1251.99 -0.298685 3.75213 0
M  V30 12949 C 1251.14 0.465216 2.7337 0
M  V30 12950 H 1254.09 0.715281 1.41667 0
M  V30 12951 H 1254.11 -0.701549 3.73977 0
M  V30 12952 H 1253.62 1.12303 3.71497 0
M  V30 12953 H 1251.72 -1.33151 3.47996 0
M  V30 12954 H 1251.84 0.0218637 4.79095 0
M  V30 12955 H 1250.2 -0.0851469 2.54558 0
M  V30 12956 H 1250.98 1.49498 3.09039 0
M  V30 12957 N 1253.43 -1.55816 0.23648 0
M  V30 12958 C 1254.66 -2.02789 -0.39501 0
M  V30 12959 C 1255.07 -1.1153 -1.52832 0
M  V30 12960 O 1254.41 -0.120084 -1.83307 0
M  V30 12961 C 1254.47 -3.46052 -0.974066 0
M  V30 12962 C 1254.14 -4.56993 0.0256825 0
M  V30 12963 C 1255.13 -5.13208 0.831477 0
M  V30 12964 C 1252.82 -5.0208 0.148759 0
M  V30 12965 C 1254.81 -6.12994 1.74691 0
M  V30 12966 C 1252.5 -6.017 1.0677 0
M  V30 12967 C 1253.5 -6.57035 1.86531 0
M  V30 12968 O 1253.18 -7.54714 2.76878 0
M  V30 12969 H 1252.92 -0.668672 -0.0992687 0
M  V30 12970 H 1255.47 -2.02312 0.354826 0
M  V30 12971 H 1253.7 -3.43645 -1.77327 0
M  V30 12972 H 1255.39 -3.76586 -1.51453 0
M  V30 12973 H 1256.16 -4.79214 0.746922 0
M  V30 12974 H 1252.03 -4.58679 -0.461976 0
M  V30 12975 H 1255.58 -6.56111 2.36989 0
M  V30 12976 H 1251.48 -6.35115 1.15322 0
M  V30 12977 H 1252.24 -7.72292 2.71122 0
M  V30 12978 N 1254.91 0.036755 -1.57557 0
M  V30 12979 C 1256.15 0.727665 -1.88546 0
M  V30 12980 C 1256.48 1.76304 -0.833179 0
M  V30 12981 O 1255.75 1.9544 0.13414 0
M  V30 12982 H 1254.33 0.271744 -0.695819 0
M  V30 12983 H 1256.99 0.00452915 -1.94899 0
M  V30 12984 H 1256.08 1.22205 -2.8718 0
M  V30 12985 N 1256.39 1.54543 0.308881 0
M  V30 12986 C 1257.62 1.77174 1.06268 0
M  V30 12987 C 1258.02 0.527461 1.81699 0
M  V30 12988 O 1257.37 -0.512027 1.7642 0
M  V30 12989 C 1257.43 2.92115 2.09545 0
M  V30 12990 C 1257.09 4.30492 1.5338 0
M  V30 12991 C 1258.09 5.1081 0.967923 0
M  V30 12992 C 1255.77 4.77074 1.5718 0
M  V30 12993 C 1257.77 6.35827 0.447517 0
M  V30 12994 C 1255.46 6.02055 1.04753 0
M  V30 12995 C 1256.45 6.81266 0.486345 0
M  V30 12996 O 1256.14 8.03894 -0.0300055 0
M  V30 12997 H 1255.87 0.594773 0.321281 0
M  V30 12998 H 1258.43 2.02289 0.356136 0
M  V30 12999 H 1256.66 2.62606 2.83857 0
M  V30 13000 H 1258.35 3.02394 2.70763 0
M  V30 13001 H 1259.11 4.7597 0.931523 0
M  V30 13002 H 1254.99 4.15453 1.998 0
M  V30 13003 H 1258.54 6.97599 0.00884212 0
M  V30 13004 H 1254.43 6.36383 1.08105 0
M  V30 13005 H 1255.2 8.18457 0.0840381 0
M  V30 13006 N 1257.86 -0.571685 1.46866 0
M  V30 13007 C 1259.14 -1.33216 1.43223 0
M  V30 13008 C 1259.52 -2.1075 0.121495 0
M  V30 13009 O 1258.87 -2.10157 -0.897003 0
M  V30 13010 C 1259.08 -2.24888 2.66882 0
M  V30 13011 C 1260.43 -2.86369 3.13493 0
M  V30 13012 O 1261.45 -2.35197 2.67509 0
M  V30 13013 O 1260.31 -3.79342 3.93398 0
M  V30 13014 H 1257.4 -0.599106 0.570089 0
M  V30 13015 H 1259.95 -0.591788 1.59047 0
M  V30 13016 H 1258.72 -1.67099 3.53827 0
M  V30 13017 H 1258.34 -3.06246 2.53573 0
M  V30 13018 N 1259.34 -1.34755 -0.817236 0
M  V30 13019 C 1260.75 -1.24594 -1.39044 0
M  V30 13020 C 1261.1 0.126184 -1.95794 0
M  V30 13021 O 1260.23 1.02675 -1.90491 0
M  V30 13022 C 1260.82 -2.25592 -2.52772 0
M  V30 13023 C 1259.38 -2.19204 -3.05984 0
M  V30 13024 C 1258.53 -2.11884 -1.78886 0
M  V30 13025 H 1261.48 -1.46039 -0.621155 0
M  V30 13026 H 1261.5 -1.87622 -3.31026 0
M  V30 13027 H 1261.01 -3.25447 -2.11438 0
M  V30 13028 H 1259.11 -1.22725 -3.51809 0
M  V30 13029 H 1259.23 -3.10707 -3.64689 0
M  V30 13030 H 1257.59 -1.57694 -2.00012 0
M  V30 13031 H 1258.37 -3.13582 -1.39719 0
M  V30 13032 N 1260.82 1.03812 -1.18578 0
M  V30 13033 C 1261.77 2.13994 -0.911563 0
M  V30 13034 C 1262.76 1.68907 0.129131 0
M  V30 13035 O 1263.97 1.7999 -0.0192557 0
M  V30 13036 H 1260.34 0.698996 -0.277324 0
M  V30 13037 H 1262.31 2.34318 -1.84763 0
M  V30 13038 C 1261.06 3.44689 -0.456591 0
M  V30 13039 H 1260.39 3.79793 -1.2489 0
M  V30 13040 H 1261.83 4.22911 -0.303738 0
M  V30 13041 C 1260.28 3.26568 0.827961 0
M  V30 13042 O 1260.81 3.54376 1.89158 0
M  V30 13043 N 1259.02 2.79893 0.781567 0
M  V30 13044 H 1258.57 2.57462 -0.0842145 0
M  V30 13045 H 1258.53 2.68148 1.64146 0
M  V30 13046 N 1262.3 0.988223 1.22768 0
M  V30 13047 C 1263.24 0.534605 2.24523 0
M  V30 13048 C 1264.21 -0.430615 1.60421 0
M  V30 13049 O 1265.4 -0.336417 1.87811 0
M  V30 13050 C 1262.54 -0.149195 3.44777 0
M  V30 13051 C 1261.65 0.85721 4.2341 0
M  V30 13052 C 1260.79 0.147411 5.30995 0
M  V30 13053 C 1259.83 1.1425 6.01343 0
M  V30 13054 N 1258.96 0.461327 7.00583 0
M  V30 13055 H 1263.8 1.40708 2.62689 0
M  V30 13056 H 1261.34 0.704918 1.2911 0
M  V30 13057 H 1263.3 -0.562527 4.1339 0
M  V30 13058 H 1261.93 -0.985485 3.07389 0
M  V30 13059 H 1260.98 1.38889 3.54138 0
M  V30 13060 H 1262.29 1.61517 4.71926 0
M  V30 13061 H 1261.45 -0.32289 6.0584 0
M  V30 13062 H 1260.19 -0.643085 4.83442 0
M  V30 13063 H 1259.19 1.62348 5.25284 0
M  V30 13064 H 1260.42 1.93379 6.50985 0
M  V30 13065 H 1258.36 -0.309818 6.55268 0
M  V30 13066 H 1258.28 1.15781 7.47082 0
M  V30 13067 H 1259.55 0.0136734 7.79499 0
M  V30 13068 N 1263.78 -1.38018 0.760839 0
M  V30 13069 C 1264.72 -2.30387 0.13796 0
M  V30 13070 C 1265.69 -1.50548 -0.701754 0
M  V30 13071 O 1266.88 -1.79154 -0.656381 0
M  V30 13072 C 1264.02 -3.36993 -0.743642 0
M  V30 13073 C 1263.13 -4.31856 0.111489 0
M  V30 13074 C 1262.27 -5.25534 -0.773796 0
M  V30 13075 C 1261.3 -6.12042 0.0845311 0
M  V30 13076 N 1260.44 -6.97995 -0.758118 0
M  V30 13077 H 1265.28 -2.83077 0.931212 0
M  V30 13078 H 1262.82 -1.39361 0.470833 0
M  V30 13079 H 1264.78 -3.97417 -1.26948 0
M  V30 13080 H 1263.41 -2.85695 -1.50261 0
M  V30 13081 H 1262.46 -3.72832 0.755031 0
M  V30 13082 H 1263.77 -4.92758 0.774042 0
M  V30 13083 H 1262.92 -5.9111 -1.36653 0
M  V30 13084 H 1261.66 -4.65017 -1.47006 0
M  V30 13085 H 1260.67 -5.45455 0.689883 0
M  V30 13086 H 1261.89 -6.74629 0.777966 0
M  V30 13087 H 1259.84 -6.40018 -1.4392 0
M  V30 13088 H 1259.76 -7.55846 -0.152623 0
M  V30 13089 H 1261.02 -7.67973 -1.33559 0
M  V30 13090 N 1265.25 -0.510493 -1.49103 0
M  V30 13091 C 1266.48 0.0271324 -2.06582 0
M  V30 13092 C 1266.89 1.30499 -1.36991 0
M  V30 13093 O 1266.23 1.78229 -0.444976 0
M  V30 13094 C 1266.3 0.341488 -3.57874 0
M  V30 13095 C 1265.96 -0.840037 -4.49213 0
M  V30 13096 C 1266.96 -1.73315 -4.90161 0
M  V30 13097 C 1264.64 -1.04153 -4.91383 0
M  V30 13098 C 1266.64 -2.81182 -5.72028 0
M  V30 13099 C 1264.32 -2.12336 -5.73024 0
M  V30 13100 C 1265.32 -3.00684 -6.13252 0
M  V30 13101 O 1265.01 -4.06999 -6.93258 0
M  V30 13102 H 1264.74 -0.0215383 -0.675657 0
M  V30 13103 H 1267.3 -0.709841 -1.92744 0
M  V30 13104 H 1265.53 1.13218 -3.69755 0
M  V30 13105 H 1267.21 0.818859 -3.97554 0
M  V30 13106 H 1267.98 -1.58934 -4.58219 0
M  V30 13107 H 1263.86 -0.363199 -4.59567 0
M  V30 13108 H 1267.4 -3.50169 -6.03347 0
M  V30 13109 H 1263.3 -2.26708 -6.04379 0
M  V30 13110 H 1264.07 -4.04469 -7.11581 0
M  V30 13111 N 1266.73 1.55688 -0.24474 0
M  V30 13112 C 1267.68 2.22682 0.67198 0
M  V30 13113 C 1268.67 1.21369 1.18178 0
M  V30 13114 O 1269.88 1.39387 1.13892 0
M  V30 13115 H 1266.25 0.714279 0.235181 0
M  V30 13116 H 1268.23 2.98282 0.0837704 0
M  V30 13117 C 1266.97 2.93835 1.85893 0
M  V30 13118 H 1266.3 3.71565 1.4758 0
M  V30 13119 H 1267.74 3.44077 2.47764 0
M  V30 13120 C 1266.2 1.97589 2.72874 0
M  V30 13121 O 1266.73 1.50758 3.72337 0
M  V30 13122 N 1264.93 1.64737 2.39395 0
M  V30 13123 H 1264.48 2.03015 1.58564 0
M  V30 13124 H 1264.44 1.00605 2.97869 0
M  V30 13125 N 1268.21 -0.0283989 1.57574 0
M  V30 13126 C 1269.46 -0.718121 1.88483 0
M  V30 13127 C 1269.77 -1.76485 0.843345 0
M  V30 13128 O 1270.98 -2.50721 1.04169 0
M  V30 13129 C 1269.43 -1.32832 3.3449 0
M  V30 13130 C 1269.04 -0.317905 4.46871 0
M  V30 13131 C 1270.79 -1.99788 3.74546 0
M  V30 13132 C 1268.69 -0.936489 5.83938 0
M  V30 13133 H 1267.62 -0.271969 0.703242 0
M  V30 13134 H 1270.27 0.0274862 1.83479 0
M  V30 13135 H 1268.66 -2.12366 3.34241 0
M  V30 13136 H 1269.83 0.450767 4.5859 0
M  V30 13137 H 1268.14 0.249605 4.15651 0
M  V30 13138 H 1270.74 -2.46923 4.74271 0
M  V30 13139 H 1271.08 -2.81633 3.06575 0
M  V30 13140 H 1271.62 -1.27029 3.76973 0
M  V30 13141 H 1268.36 -0.15744 6.55311 0
M  V30 13142 H 1267.88 -1.67499 5.75938 0
M  V30 13143 H 1269.56 -1.44363 6.30689 0
M  V30 13144 N 1269.69 -1.54705 -0.300681 0
M  V30 13145 C 1270.93 -1.74001 -1.03585 0
M  V30 13146 C 1271.26 -0.525972 -1.87253 0
M  V30 13147 O 1270.52 0.492068 -1.89413 0
M  V30 13148 C 1270.82 -2.98173 -1.97047 0
M  V30 13149 C 1270.48 -4.31948 -1.29352 0
M  V30 13150 C 1269.14 -4.68312 -1.10623 0
M  V30 13151 C 1271.5 -5.14874 -0.809594 0
M  V30 13152 C 1268.82 -5.85181 -0.42185 0
M  V30 13153 C 1271.18 -6.32447 -0.138935 0
M  V30 13154 C 1269.84 -6.67473 0.0603129 0
M  V30 13155 H 1269.11 -0.636716 -0.379044 0
M  V30 13156 H 1271.76 -1.88963 -0.310697 0
M  V30 13157 H 1270.06 -2.77994 -2.76091 0
M  V30 13158 H 1271.76 -3.10297 -2.54001 0
M  V30 13159 H 1268.35 -4.0335 -1.44937 0
M  V30 13160 H 1272.53 -4.87278 -0.942006 0
M  V30 13161 H 1267.79 -6.10862 -0.256494 0
M  V30 13162 H 1271.96 -6.95973 0.243939 0
M  V30 13163 H 1269.59 -7.57887 0.592626 0
M  V30 13164 N 1271.17 0.563888 -1.47167 0
M  V30 13165 C 1272.4 1.34498 -1.56825 0
M  V30 13166 C 1272.8 1.87974 -0.215011 0
M  V30 13167 O 1272.15 1.65323 0.80087 0
M  V30 13168 C 1272.21 2.55602 -2.528 0
M  V30 13169 C 1271.87 2.23459 -3.98642 0
M  V30 13170 C 1272.87 1.81155 -4.87318 0
M  V30 13171 C 1270.56 2.35024 -4.43925 0
M  V30 13172 C 1272.55 1.50835 -6.19296 0
M  V30 13173 C 1270.24 2.04317 -5.75932 0
M  V30 13174 C 1271.23 1.6229 -6.63439 0
M  V30 13175 O 1270.92 1.31969 -7.92994 0
M  V30 13176 H 1270.65 0.416551 -0.532411 0
M  V30 13177 H 1273.21 0.690611 -1.93442 0
M  V30 13178 H 1271.44 3.23907 -2.11237 0
M  V30 13179 H 1273.13 3.17677 -2.52659 0
M  V30 13180 H 1273.89 1.71719 -4.53583 0
M  V30 13181 H 1269.77 2.66696 -3.76024 0
M  V30 13182 H 1273.32 1.17958 -6.87555 0
M  V30 13183 H 1269.21 2.13383 -6.09211 0
M  V30 13184 H 1269.98 1.45656 -8.05436 0
M  V30 13185 N 1272.64 1.35187 0.810078 0
M  V30 13186 C 1273.57 1.30481 1.93641 0
M  V30 13187 C 1274.56 0.179875 1.69146 0
M  V30 13188 O 1275.74 0.374284 1.90559 0
M  V30 13189 C 1272.87 1.07251 3.30325 0
M  V30 13190 C 1271.82 2.16348 3.69293 0
M  V30 13191 C 1271.15 1.78288 5.04101 0
M  V30 13192 C 1272.45 3.58285 3.80038 0
M  V30 13193 H 1274.14 2.24725 1.97836 0
M  V30 13194 H 1271.69 1.08179 0.950436 0
M  V30 13195 H 1273.64 1.02599 4.08719 0
M  V30 13196 H 1272.37 0.0945203 3.26463 0
M  V30 13197 H 1271.03 2.2009 2.93182 0
M  V30 13198 H 1270.67 0.791163 4.96739 0
M  V30 13199 H 1270.37 2.51315 5.31144 0
M  V30 13200 H 1271.9 1.75155 5.84938 0
M  V30 13201 H 1273.31 3.56884 4.48672 0
M  V30 13202 H 1271.71 4.30044 4.18548 0
M  V30 13203 H 1272.78 3.94691 2.81685 0
M  V30 13204 N 1274.12 -1.03182 1.19127 0
M  V30 13205 C 1275.06 -2.10977 0.869702 0
M  V30 13206 C 1276.03 -1.61687 -0.172032 0
M  V30 13207 O 1277.22 -1.88436 -0.0490025 0
M  V30 13208 C 1274.34 -3.37359 0.301049 0
M  V30 13209 C 1273.39 -4.05515 1.32137 0
M  V30 13210 S 1274.22 -4.51415 2.88071 0
M  V30 13211 C 1275.38 -5.81018 2.32741 0
M  V30 13212 H 1275.61 -2.37929 1.78261 0
M  V30 13213 H 1273.15 -1.16079 1.01809 0
M  V30 13214 H 1275.1 -4.10495 -0.0205205 0
M  V30 13215 H 1273.76 -3.08507 -0.590118 0
M  V30 13216 H 1272.96 -4.9639 0.872547 0
M  V30 13217 H 1272.56 -3.38536 1.58963 0
M  V30 13218 H 1274.85 -6.5542 1.71552 0
M  V30 13219 H 1275.79 -6.30677 3.21951 0
M  V30 13220 H 1276.2 -5.36549 1.75429 0
M  V30 13221 N 1275.6 -0.99472 -1.22242 0
M  V30 13222 C 1276.55 -0.517696 -2.22045 0
M  V30 13223 C 1277.53 0.415108 -1.55453 0
M  V30 13224 O 1278.73 0.241632 -1.75343 0
M  V30 13225 C 1275.86 0.164524 -3.42906 0
M  V30 13226 C 1274.94 -0.788692 -4.16702 0
M  V30 13227 N 1275.33 -1.93729 -4.67229 0
M  V30 13228 C 1273.63 -0.604946 -4.41878 0
M  V30 13229 C 1274.33 -2.53573 -5.23522 0
M  V30 13230 N 1273.31 -1.81825 -5.12289 0
M  V30 13231 H 1277.11 -1.39368 -2.58754 0
M  V30 13232 H 1274.62 -0.857215 -1.37933 0
M  V30 13233 H 1276.62 0.523668 -4.13598 0
M  V30 13234 H 1275.28 1.03662 -3.07708 0
M  V30 13235 H 1276.29 -2.31802 -4.63129 0
M  V30 13236 H 1272.97 0.220932 -4.16915 0
M  V30 13237 H 1274.36 -3.50653 -5.73142 0
M  V30 13238 N 1277.08 1.37613 -0.768148 0
M  V30 13239 C 1278.33 1.99384 -0.330187 0
M  V30 13240 C 1278.65 1.61283 1.09604 0
M  V30 13241 O 1277.92 0.876551 1.75195 0
M  V30 13242 H 1276.5 0.737445 -0.119095 0
M  V30 13243 H 1279.16 1.6815 -0.985476 0
M  V30 13244 H 1278.26 3.09462 -0.40494 0
M  V30 13245 N 1278.56 0.518393 1.4883 0
M  V30 13246 C 1279.8 -0.019866 2.0209 0
M  V30 13247 C 1280.13 -1.35863 1.3988 0
M  V30 13248 O 1279.4 -1.87722 0.560117 0
M  V30 13249 H 1277.98 -0.0103306 0.746929 0
M  V30 13250 H 1280.64 0.679591 1.82668 0
M  V30 13251 H 1279.73 -0.136749 3.118 0
M  V30 13252 N 1280.03 -1.55556 0.252993 0
M  V30 13253 C 1281.28 -1.98697 -0.369319 0
M  V30 13254 C 1281.6 -1.14256 -1.58021 0
M  V30 13255 O 1280.87 -0.226779 -1.94583 0
M  V30 13256 H 1279.45 -0.733869 -0.139444 0
M  V30 13257 H 1282.12 -1.91673 0.353197 0
M  V30 13258 H 1281.21 -3.04728 -0.674312 0
M  V30 13259 N 1281.51 0.0200419 -1.57587 0
M  V30 13260 C 1282.42 1.0346 -2.10555 0
M  V30 13261 C 1283.44 1.39035 -1.0462 0
M  V30 13262 O 1284.61 1.48172 -1.36407 0
M  V30 13263 C 1281.68 2.31389 -2.58186 0
M  V30 13264 C 1280.74 2.02311 -3.7864 0
M  V30 13265 C 1279.97 3.24141 -4.23991 0
M  V30 13266 O 1280.2 4.35132 -3.68803 0
M  V30 13267 O 1279.13 3.09312 -5.16342 0
M  V30 13268 H 1282.96 0.614419 -2.9742 0
M  V30 13269 H 1280.54 0.237604 -1.47498 0
M  V30 13270 H 1282.42 3.06582 -2.89112 0
M  V30 13271 H 1281.1 2.72684 -1.74428 0
M  V30 13272 H 1280.01 1.24658 -3.5272 0
M  V30 13273 H 1281.34 1.65866 -4.6341 0
M  V30 13274 N 1282.99 1.54862 0.292472 0
M  V30 13275 C 1283.94 1.87168 1.38097 0
M  V30 13276 C 1284.93 0.746176 1.52081 0
M  V30 13277 O 1286.14 0.930281 1.54097 0
M  V30 13278 H 1282.51 0.593769 0.461456 0
M  V30 13279 H 1284.48 2.78135 1.0809 0
M  V30 13280 C 1283.23 2.14315 2.73796 0
M  V30 13281 H 1282.56 3.00398 2.63821 0
M  V30 13282 H 1284 2.40853 3.48949 0
M  V30 13283 C 1282.46 0.944424 3.23392 0
M  V30 13284 O 1282.99 0.169208 4.01343 0
M  V30 13285 N 1281.19 0.747456 2.80823 0
M  V30 13286 H 1280.74 1.37953 2.17547 0
M  V30 13287 H 1280.7 -0.0530199 3.14355 0
M  V30 13288 N 1284.47 -0.556076 1.47464 0
M  V30 13289 C 1285.38 -1.69043 1.62671 0
M  V30 13290 C 1286.39 -1.66372 0.509535 0
M  V30 13291 O 1287.57 -1.85799 0.777218 0
M  V30 13292 C 1284.64 -3.05546 1.63836 0
M  V30 13293 C 1283.7 -3.19275 2.86988 0
M  V30 13294 C 1282.93 -4.49267 2.88088 0
M  V30 13295 O 1283.15 -5.34796 1.98368 0
M  V30 13296 O 1282.09 -4.66811 3.79962 0
M  V30 13297 H 1285.91 -1.59155 2.58657 0
M  V30 13298 H 1283.5 -0.726211 1.30562 0
M  V30 13299 H 1285.38 -3.86778 1.67275 0
M  V30 13300 H 1284.05 -3.15814 0.710173 0
M  V30 13301 H 1282.96 -2.37437 2.89093 0
M  V30 13302 H 1284.29 -3.13912 3.79104 0
M  V30 13303 N 1285.95 -1.35615 -0.802897 0
M  V30 13304 C 1286.9 -1.28877 -1.93632 0
M  V30 13305 C 1287.89 -0.183014 -1.68408 0
M  V30 13306 O 1289.1 -0.349218 -1.7658 0
M  V30 13307 H 1285.47 -0.400883 -0.636236 0
M  V30 13308 H 1287.44 -2.24624 -1.96435 0
M  V30 13309 C 1286.19 -1.08136 -3.30457 0
M  V30 13310 H 1285.51 -1.92463 -3.50426 0
M  V30 13311 H 1286.95 -1.07464 -4.10155 0
M  V30 13312 C 1285.41 0.214635 -3.36216 0
M  V30 13313 O 1285.94 1.20916 -3.8307 0
M  V30 13314 N 1284.15 0.25468 -2.89482 0
M  V30 13315 H 1283.7 -0.555239 -2.51545 0
M  V30 13316 H 1283.65 1.12152 -2.93716 0
M  V30 13317 N 1287.43 1.02549 -1.19673 0
M  V30 13318 C 1288.65 1.79623 -1.0268 0
M  V30 13319 C 1289.07 1.83969 0.424345 0
M  V30 13320 O 1288.43 1.28621 1.29472 0
M  V30 13321 C 1288.48 3.24514 -1.59289 0
M  V30 13322 O 1288.2 3.20462 -2.98723 0
M  V30 13323 C 1289.7 4.18173 -1.47126 0
M  V30 13324 H 1286.92 0.565167 -0.3617 0
M  V30 13325 H 1289.46 1.29143 -1.58564 0
M  V30 13326 H 1287.62 3.72173 -1.07546 0
M  V30 13327 H 1288.03 4.11341 -3.25421 0
M  V30 13328 H 1289.51 5.17714 -1.9151 0
M  V30 13329 H 1289.98 4.37165 -0.422315 0
M  V30 13330 H 1290.59 3.7639 -1.98017 0
M  V30 13331 N 1288.9 1.00119 1.21713 0
M  V30 13332 C 1290.15 0.67713 1.89994 0
M  V30 13333 C 1290.47 -0.795149 1.78709 0
M  V30 13334 O 1291.67 -1.23113 2.41982 0
M  V30 13335 C 1290.13 1.16065 3.40671 0
M  V30 13336 C 1289.74 2.65874 3.60576 0
M  V30 13337 C 1291.48 0.911302 4.14603 0
M  V30 13338 C 1289.39 3.07785 5.04997 0
M  V30 13339 H 1288.32 0.249572 0.711498 0
M  V30 13340 H 1290.97 1.21185 1.37792 0
M  V30 13341 H 1289.35 0.554005 3.92106 0
M  V30 13342 H 1290.52 3.31954 3.19598 0
M  V30 13343 H 1288.84 2.88781 2.99991 0
M  V30 13344 H 1291.44 1.20004 5.2106 0
M  V30 13345 H 1291.78 -0.152495 4.16021 0
M  V30 13346 H 1292.31 1.48055 3.69222 0
M  V30 13347 H 1289.05 4.13376 5.08724 0
M  V30 13348 H 1288.57 2.46414 5.46846 0
M  V30 13349 H 1290.25 2.99552 5.73479 0
M  V30 13350 N 1290.38 -1.37203 0.775435 0
M  V30 13351 C 1291.63 -1.99601 0.341431 0
M  V30 13352 C 1291.96 -1.61555 -1.08306 0
M  V30 13353 O 1291.21 -0.855126 -1.76029 0
M  V30 13354 C 1291.51 -3.54725 0.436426 0
M  V30 13355 C 1291.18 -4.1255 1.8197 0
M  V30 13356 C 1289.84 -4.28056 2.19822 0
M  V30 13357 C 1292.19 -4.44222 2.7261 0
M  V30 13358 C 1289.52 -4.72538 3.47742 0
M  V30 13359 C 1291.87 -4.90131 3.99943 0
M  V30 13360 C 1290.53 -5.03842 4.37835 0
M  V30 13361 H 1289.8 -0.730391 0.124938 0
M  V30 13362 H 1292.45 -1.63914 0.990177 0
M  V30 13363 H 1290.76 -3.90681 -0.295852 0
M  V30 13364 H 1292.45 -4.00916 0.0818664 0
M  V30 13365 H 1289.04 -4.00911 1.51553 0
M  V30 13366 H 1293.23 -4.31824 2.44625 0
M  V30 13367 H 1288.48 -4.81341 3.76989 0
M  V30 13368 H 1292.66 -5.13604 4.70302 0
M  V30 13369 H 1290.28 -5.3807 5.37015 0
M  V30 13370 N 1291.86 -0.526279 -1.48553 0
M  V30 13371 C 1293.08 0.00731432 -2.07399 0
M  V30 13372 C 1293.51 1.27737 -1.38075 0
M  V30 13373 O 1292.87 1.75741 -0.445503 0
M  V30 13374 C 1292.92 0.218126 -3.5994 0
M  V30 13375 O 1292.02 1.28759 -3.91784 0
M  V30 13376 H 1291.36 -0.0374784 -0.662941 0
M  V30 13377 H 1293.89 -0.733133 -1.91014 0
M  V30 13378 H 1293.9 0.44192 -4.056 0
M  V30 13379 H 1292.58 -0.709668 -4.09801 0
M  V30 13380 H 1291.15 1.04674 -3.57907 0
M  V30 13381 N 1293.34 1.5542 -0.261239 0
M  V30 13382 C 1294.29 2.23382 0.648324 0
M  V30 13383 C 1295.28 1.22615 1.16884 0
M  V30 13384 O 1296.49 1.40587 1.12407 0
M  V30 13385 H 1292.86 0.716733 0.227592 0
M  V30 13386 H 1294.83 2.98354 0.0521289 0
M  V30 13387 C 1293.58 2.9579 1.82766 0
M  V30 13388 H 1292.9 3.73109 1.4363 0
M  V30 13389 H 1294.34 3.46686 2.441 0
M  V30 13390 C 1292.8 2.00472 2.70763 0
M  V30 13391 O 1293.33 1.54698 3.70717 0
M  V30 13392 N 1291.54 1.67267 2.37635 0
M  V30 13393 H 1291.09 2.04685 1.56402 0
M  V30 13394 H 1291.04 1.03759 2.96785 0
M  V30 13395 N 1294.82 -0.0116844 1.57596 0
M  V30 13396 C 1296.09 -0.735344 1.81251 0
M  V30 13397 C 1296.47 -1.92634 0.863446 0
M  V30 13398 O 1295.82 -2.28321 -0.0905028 0
M  V30 13399 C 1296.03 -1.15206 3.29437 0
M  V30 13400 C 1297.38 -1.56078 3.94873 0
M  V30 13401 O 1298.4 -1.24618 3.3369 0
M  V30 13402 O 1297.26 -2.14534 5.0263 0
M  V30 13403 H 1294.36 -0.357044 0.745955 0
M  V30 13404 H 1296.9 0.0128733 1.69695 0
M  V30 13405 H 1295.67 -0.302619 3.90128 0
M  V30 13406 H 1295.3 -1.95975 3.45947 0
M  V30 13407 N 1296.29 -1.55015 -0.284256 0
M  V30 13408 C 1297.54 -1.7535 -1.01884 0
M  V30 13409 C 1297.87 -0.546825 -1.86342 0
M  V30 13410 O 1297.15 0.455832 -1.89083 0
M  V30 13411 C 1297.43 -3.05219 -1.91084 0
M  V30 13412 C 1297.28 -4.36219 -1.09694 0
M  V30 13413 C 1298.6 -3.31056 -2.89983 0
M  V30 13414 H 1295.72 -0.637981 -0.368984 0
M  V30 13415 H 1298.36 -1.87741 -0.292116 0
M  V30 13416 H 1296.51 -2.94786 -2.53048 0
M  V30 13417 H 1298.19 -4.58594 -0.498876 0
M  V30 13418 H 1296.43 -4.31951 -0.400078 0
M  V30 13419 H 1297.1 -5.23392 -1.75399 0
M  V30 13420 H 1299.58 -3.41209 -2.38151 0
M  V30 13421 H 1298.45 -4.23212 -3.49547 0
M  V30 13422 H 1298.71 -2.50153 -3.64521 0
M  V30 13423 N 1297.77 0.548248 -1.47757 0
M  V30 13424 C 1298.72 1.65453 -1.60916 0
M  V30 13425 C 1299.69 1.59836 -0.451831 0
M  V30 13426 O 1300.87 1.78536 -0.673023 0
M  V30 13427 C 1298.01 3.0376 -1.6378 0
M  V30 13428 C 1297.13 3.19747 -2.90492 0
M  V30 13429 C 1296.26 4.48505 -2.84635 0
M  V30 13430 C 1295.3 4.57956 -4.06132 0
M  V30 13431 N 1294.44 5.78079 -3.98458 0
M  V30 13432 H 1299.28 1.53545 -2.55398 0
M  V30 13433 H 1296.81 0.747826 -1.26673 0
M  V30 13434 H 1298.77 3.8386 -1.63424 0
M  V30 13435 H 1297.4 3.14483 -0.728036 0
M  V30 13436 H 1296.45 2.3302 -3.00676 0
M  V30 13437 H 1297.77 3.22594 -3.8044 0
M  V30 13438 H 1296.92 5.36875 -2.82577 0
M  V30 13439 H 1295.66 4.48151 -1.92385 0
M  V30 13440 H 1294.66 3.67995 -4.08484 0
M  V30 13441 H 1295.89 4.60062 -4.9952 0
M  V30 13442 H 1293.84 5.78657 -3.09017 0
M  V30 13443 H 1293.75 5.82342 -4.82093 0
M  V30 13444 H 1295.02 6.68786 -4.00431 0
M  V30 13445 N 1299.25 1.36039 0.795694 0
M  V30 13446 C 1300.18 1.32528 1.92246 0
M  V30 13447 C 1301.16 0.197805 1.68946 0
M  V30 13448 O 1302.35 0.394474 1.90151 0
M  V30 13449 C 1299.48 1.10748 3.29169 0
M  V30 13450 C 1298.43 2.20253 3.66978 0
M  V30 13451 C 1297.76 1.83624 5.02181 0
M  V30 13452 C 1299.06 3.62296 3.76216 0
M  V30 13453 H 1300.75 2.2681 1.95442 0
M  V30 13454 H 1298.3 1.09181 0.938908 0
M  V30 13455 H 1300.25 1.06929 4.07608 0
M  V30 13456 H 1298.97 0.129141 3.26345 0
M  V30 13457 H 1297.63 2.23187 2.90832 0
M  V30 13458 H 1297.28 0.843804 4.95872 0
M  V30 13459 H 1296.98 2.56935 5.28449 0
M  V30 13460 H 1298.5 1.81349 5.83048 0
M  V30 13461 H 1299.92 3.61623 4.44861 0
M  V30 13462 H 1298.31 4.34459 4.13963 0
M  V30 13463 H 1299.38 3.97657 2.77483 0
M  V30 13464 N 1300.73 -1.01913 1.20215 0
M  V30 13465 C 1301.66 -2.10513 0.906476 0
M  V30 13466 C 1302.67 -1.62463 -0.104758 0
M  V30 13467 O 1303.86 -1.78055 0.12593 0
M  V30 13468 C 1300.96 -3.3722 0.337012 0
M  V30 13469 C 1300.14 -4.14417 1.39917 0
M  V30 13470 C 1299.19 -5.19428 0.841489 0
M  V30 13471 O 1298.22 -5.48486 1.52157 0
M  V30 13472 N 1299.42 -5.79442 -0.350365 0
M  V30 13473 H 1302.19 -2.36465 1.84132 0
M  V30 13474 H 1299.75 -1.18283 1.10548 0
M  V30 13475 H 1301.74 -4.04669 -0.0501507 0
M  V30 13476 H 1300.31 -3.08538 -0.502325 0
M  V30 13477 H 1299.53 -3.41975 1.96078 0
M  V30 13478 H 1300.82 -4.62777 2.1146 0
M  V30 13479 H 1300.22 -5.58166 -0.920204 0
M  V30 13480 H 1298.77 -6.48252 -0.679194 0
M  V30 13481 N 1302.21 -1.00763 -1.2118 0
M  V30 13482 C 1303.15 -0.563428 -2.25673 0
M  V30 13483 C 1304.15 0.393342 -1.6477 0
M  V30 13484 O 1305.35 0.264246 -1.7805 0
M  V30 13485 H 1301.73 -0.163862 -0.73393 0
M  V30 13486 H 1303.7 -1.45585 -2.60476 0
M  V30 13487 C 1302.45 0.0915599 -3.47579 0
M  V30 13488 H 1301.77 -0.635628 -3.94715 0
M  V30 13489 H 1303.21 0.36561 -4.22421 0
M  V30 13490 C 1301.67 1.33159 -3.09468 0
M  V30 13491 O 1302.2 2.42571 -3.20191 0
M  V30 13492 N 1300.41 1.21231 -2.64105 0
M  V30 13493 H 1299.95 0.322021 -2.55579 0
M  V30 13494 H 1299.91 2.04301 -2.38974 0
M  V30 13495 N 1303.68 1.3679 -0.7827 0
M  V30 13496 C 1304.93 1.98664 -0.348634 0
M  V30 13497 C 1305.25 1.62827 1.08382 0
M  V30 13498 O 1306.45 2.17886 1.61982 0
M  V30 13499 C 1304.91 3.55319 -0.572392 0
M  V30 13500 C 1304.52 4.00086 -2.01582 0
M  V30 13501 C 1306.26 4.24017 -0.202496 0
M  V30 13502 C 1304.17 5.49493 -2.18659 0
M  V30 13503 H 1303.1 0.743294 -0.126612 0
M  V30 13504 H 1305.75 1.56177 -0.963383 0
M  V30 13505 H 1304.13 3.95842 0.111973 0
M  V30 13506 H 1305.3 3.7078 -2.73603 0
M  V30 13507 H 1303.62 3.44205 -2.34333 0
M  V30 13508 H 1306.22 5.3381 -0.308459 0
M  V30 13509 H 1306.56 4.07559 0.84859 0
M  V30 13510 H 1307.09 3.88834 -0.839834 0
M  V30 13511 H 1303.83 5.7089 -3.22126 0
M  V30 13512 H 1303.35 5.80447 -1.51134 0
M  V30 13513 H 1305.03 6.15621 -1.99048 0
M  V30 13514 N 1305.16 0.53415 1.48272 0
M  V30 13515 C 1306.09 -0.215037 2.32508 0
M  V30 13516 C 1307.07 -0.931083 1.42355 0
M  V30 13517 O 1308.26 -0.916051 1.71237 0
M  V30 13518 C 1305.39 -1.25985 3.23643 0
M  V30 13519 C 1304.34 -0.661692 4.22854 0
M  V30 13520 C 1303.67 -1.80946 5.03153 0
M  V30 13521 C 1304.97 0.369358 5.20992 0
M  V30 13522 H 1306.66 0.488158 2.95394 0
M  V30 13523 H 1304.21 0.236206 1.4205 0
M  V30 13524 H 1306.16 -1.79195 3.81402 0
M  V30 13525 H 1304.89 -1.99268 2.58766 0
M  V30 13526 H 1303.54 -0.151082 3.66289 0
M  V30 13527 H 1303.19 -2.53077 4.34696 0
M  V30 13528 H 1302.89 -1.41513 5.70305 0
M  V30 13529 H 1304.42 -2.34526 5.63764 0
M  V30 13530 H 1305.83 -0.0758076 5.7325 0
M  V30 13531 H 1304.23 0.681301 5.9622 0
M  V30 13532 H 1305.3 1.27363 4.67875 0
M  V30 13533 N 1306.64 -1.55279 0.269478 0
M  V30 13534 C 1307.92 -1.91458 -0.400412 0
M  V30 13535 C 1308.3 -1.19306 -1.74153 0
M  V30 13536 O 1307.65 -0.318017 -2.26276 0
M  V30 13537 C 1307.86 -3.44698 -0.546258 0
M  V30 13538 C 1309.2 -4.16374 -0.831758 0
M  V30 13539 O 1310.23 -3.50561 -0.631279 0
M  V30 13540 O 1309.09 -5.32826 -1.21484 0
M  V30 13541 H 1306.18 -0.79766 -0.218328 0
M  V30 13542 H 1308.73 -1.66747 0.315214 0
M  V30 13543 H 1307.5 -3.89273 0.397784 0
M  V30 13544 H 1307.12 -3.75345 -1.31157 0
M  V30 13545 N 1308.12 0.00332656 -1.576 0
M  V30 13546 C 1309.07 1.00425 -2.04692 0
M  V30 13547 C 1310.05 1.30514 -0.941011 0
M  V30 13548 O 1311.24 1.29667 -1.2048 0
M  V30 13549 C 1308.37 2.29731 -2.55105 0
M  V30 13550 C 1307.46 2.02621 -3.72566 0
M  V30 13551 N 1307.85 1.45657 -4.84373 0
M  V30 13552 C 1306.15 2.3278 -3.80433 0
M  V30 13553 C 1306.85 1.34942 -5.65832 0
M  V30 13554 N 1305.83 1.83389 -5.11732 0
M  V30 13555 H 1309.63 0.558262 -2.88549 0
M  V30 13556 H 1307.14 0.209094 -1.61048 0
M  V30 13557 H 1309.14 3.02274 -2.87116 0
M  V30 13558 H 1307.8 2.74985 -1.72665 0
M  V30 13559 H 1308.81 1.13582 -5.05291 0
M  V30 13560 H 1305.49 2.80932 -3.08842 0
M  V30 13561 H 1306.88 0.911707 -6.65686 0
M  V30 13562 N 1309.6 1.55164 0.276031 0
M  V30 13563 C 1310.56 1.87065 1.32436 0
M  V30 13564 C 1311.56 0.745024 1.42499 0
M  V30 13565 O 1312.75 1.01321 1.41702 0
M  V30 13566 C 1309.88 2.07322 2.70611 0
M  V30 13567 H 1311.07 2.80775 1.05382 0
M  V30 13568 H 1308.63 1.47609 0.513947 0
M  V30 13569 H 1309.36 1.15983 3.0285 0
M  V30 13570 H 1309.15 2.89275 2.64693 0
M  V30 13571 H 1310.64 2.33287 3.46362 0
M  V30 13572 N 1311.07 -0.540404 1.48045 0
M  V30 13573 C 1312.32 -1.2932 1.54787 0
M  V30 13574 C 1312.64 -1.94335 0.222109 0
M  V30 13575 O 1313.84 -2.70982 0.167675 0
M  V30 13576 C 1312.3 -2.34594 2.72935 0
M  V30 13577 C 1311.91 -1.75696 4.1211 0
M  V30 13578 C 1313.65 -3.10949 2.88982 0
M  V30 13579 C 1311.56 -2.78849 5.21534 0
M  V30 13580 H 1310.49 -0.486315 0.576206 0
M  V30 13581 H 1313.14 -0.571998 1.74357 0
M  V30 13582 H 1311.52 -3.09704 2.46778 0
M  V30 13583 H 1312.69 -1.06845 4.48242 0
M  V30 13584 H 1311.01 -1.11869 4.01091 0
M  V30 13585 H 1313.61 -3.88012 3.679 0
M  V30 13586 H 1313.95 -3.66173 1.98048 0
M  V30 13587 H 1314.48 -2.42953 3.1499 0
M  V30 13588 H 1311.22 -2.28459 6.144 0
M  V30 13589 H 1310.74 -3.46059 4.89901 0
M  V30 13590 H 1312.42 -3.4203 5.49203 0
M  V30 13591 N 1312.55 -1.36459 -0.788468 0
M  V30 13592 C 1313.49 -1.25222 -1.90774 0
M  V30 13593 C 1314.46 -0.136188 -1.62029 0
M  V30 13594 O 1315.65 -0.307486 -1.85975 0
M  V30 13595 C 1312.77 -0.932287 -3.25616 0
M  V30 13596 C 1311.82 -2.0629 -3.73292 0
M  V30 13597 S 1312.65 -3.68084 -3.8894 0
M  V30 13598 C 1313.81 -3.38206 -5.26657 0
M  V30 13599 H 1314.04 -2.19959 -2.00013 0
M  V30 13600 H 1311.58 -1.21886 -0.947801 0
M  V30 13601 H 1313.53 -0.754514 -4.03506 0
M  V30 13602 H 1312.19 -0.00268413 -3.141 0
M  V30 13603 H 1311.39 -1.79363 -4.71004 0
M  V30 13604 H 1310.99 -2.19994 -3.02454 0
M  V30 13605 H 1313.28 -2.92158 -6.11269 0
M  V30 13606 H 1314.22 -4.35185 -5.58587 0
M  V30 13607 H 1314.63 -2.73531 -4.93802 0
M  V30 13608 N 1314.03 1.01274 -1.20754 0
M  V30 13609 C 1314.98 2.12012 -0.95675 0
M  V30 13610 C 1315.97 1.69143 0.0932738 0
M  V30 13611 O 1317.18 1.79908 -0.0574298 0
M  V30 13612 H 1313.55 0.692956 -0.292088 0
M  V30 13613 H 1315.52 2.30347 -1.89692 0
M  V30 13614 C 1314.27 3.43643 -0.529602 0
M  V30 13615 H 1313.6 3.77058 -1.32918 0
M  V30 13616 H 1315.04 4.22171 -0.393376 0
M  V30 13617 C 1313.5 3.2825 0.758505 0
M  V30 13618 O 1314.03 3.58309 1.81598 0
M  V30 13619 N 1312.23 2.81487 0.722022 0
M  V30 13620 H 1311.78 2.57226 -0.138807 0
M  V30 13621 H 1311.74 2.7157 1.58421 0
M  V30 13622 N 1315.51 1.01404 1.20644 0
M  V30 13623 C 1316.76 0.700523 1.89571 0
M  V30 13624 C 1317.08 -0.771978 1.79068 0
M  V30 13625 O 1316.35 -1.55506 1.19142 0
M  V30 13626 H 1314.93 0.256122 0.70172 0
M  V30 13627 H 1317.59 1.28509 1.46531 0
M  V30 13628 H 1316.69 0.981665 2.9626 0
M  V30 13629 N 1316.99 -1.36373 0.789944 0
M  V30 13630 C 1317.9 -2.3383 0.189873 0
M  V30 13631 C 1318.91 -1.61068 -0.65827 0
M  V30 13632 O 1320.09 -1.93049 -0.573932 0
M  V30 13633 C 1317.15 -3.40264 -0.664905 0
M  V30 13634 C 1316.22 -4.28825 0.201798 0
M  V30 13635 C 1315.45 -5.30176 -0.612278 0
M  V30 13636 O 1315.67 -5.39627 -1.84821 0
M  V30 13637 O 1314.61 -6.01899 -0.0118964 0
M  V30 13638 H 1318.43 -2.86915 0.995671 0
M  V30 13639 H 1316.02 -1.38852 0.551412 0
M  V30 13640 H 1317.9 -4.05339 -1.15231 0
M  V30 13641 H 1316.57 -2.89478 -1.44858 0
M  V30 13642 H 1315.48 -3.66789 0.735974 0
M  V30 13643 H 1316.81 -4.82965 0.949003 0
M  V30 13644 N 1318.47 -0.542005 -1.47987 0
M  V30 13645 C 1319.4 0.202703 -2.32618 0
M  V30 13646 C 1320.38 0.923521 -1.42846 0
M  V30 13647 O 1321.56 0.906957 -1.7172 0
M  V30 13648 C 1318.69 1.24267 -3.24307 0
M  V30 13649 C 1317.65 0.639257 -4.23199 0
M  V30 13650 C 1316.97 1.78275 -5.04105 0
M  V30 13651 C 1318.27 -0.396982 -5.20789 0
M  V30 13652 H 1319.97 -0.503817 -2.95131 0
M  V30 13653 H 1317.51 -0.243736 -1.41922 0
M  V30 13654 H 1319.46 1.7717 -3.82347 0
M  V30 13655 H 1318.19 1.97893 -2.59819 0
M  V30 13656 H 1316.85 0.131655 -3.66364 0
M  V30 13657 H 1316.5 2.50768 -4.36032 0
M  V30 13658 H 1316.2 1.38487 -5.71047 0
M  V30 13659 H 1317.72 2.31533 -5.65 0
M  V30 13660 H 1319.13 0.0454057 -5.73282 0
M  V30 13661 H 1317.53 -0.712911 -5.9585 0
M  V30 13662 H 1318.6 -1.29843 -4.67193 0
M  V30 13663 N 1319.94 1.55134 -0.277709 0
M  V30 13664 C 1320.85 2.26296 0.618658 0
M  V30 13665 C 1321.87 1.28978 1.16794 0
M  V30 13666 O 1323.05 1.61918 1.19768 0
M  V30 13667 C 1320.11 2.97214 1.78508 0
M  V30 13668 C 1319.17 4.10016 1.27221 0
M  V30 13669 C 1318.4 4.77543 2.38304 0
M  V30 13670 O 1318.63 4.44293 3.57715 0
M  V30 13671 O 1317.56 5.65437 2.06313 0
M  V30 13672 H 1321.39 3.03671 0.0421031 0
M  V30 13673 H 1318.97 1.49332 -0.0450166 0
M  V30 13674 H 1320.85 3.41773 2.46513 0
M  V30 13675 H 1319.53 2.22753 2.34867 0
M  V30 13676 H 1318.44 3.69907 0.558544 0
M  V30 13677 H 1319.77 4.86385 0.754333 0
M  V30 13678 N 1321.42 0.00503138 1.57599 0
M  V30 13679 C 1322.83 -0.537106 1.78807 0
M  V30 13680 C 1323.18 -1.73666 0.912945 0
M  V30 13681 O 1322.31 -2.16085 0.116775 0
M  V30 13682 C 1322.9 -0.98116 3.24282 0
M  V30 13683 C 1321.46 -1.46857 3.46569 0
M  V30 13684 C 1320.61 -0.422088 2.74069 0
M  V30 13685 H 1323.56 0.231182 1.57007 0
M  V30 13686 H 1323.58 -1.8469 3.32671 0
M  V30 13687 H 1323.09 -0.107907 3.8795 0
M  V30 13688 H 1321.19 -2.36255 2.88122 0
M  V30 13689 H 1321.31 -1.49256 4.55258 0
M  V30 13690 H 1319.67 -0.884853 2.38836 0
M  V30 13691 H 1320.45 0.442285 3.40439 0
M  V30 13692 N 1322.9 -1.55308 -0.267798 0
M  V30 13693 C 1323.83 -1.91555 -1.33525 0
M  V30 13694 C 1324.81 -0.778001 -1.51265 0
M  V30 13695 O 1326 -1.03657 -1.64222 0
M  V30 13696 C 1323.13 -2.19201 -2.69385 0
M  V30 13697 C 1322.08 -3.3501 -2.66369 0
M  V30 13698 C 1321.41 -3.48148 -4.05829 0
M  V30 13699 C 1322.71 -4.71265 -2.25182 0
M  V30 13700 H 1324.4 -2.80965 -1.03437 0
M  V30 13701 H 1321.95 -1.35183 -0.496141 0
M  V30 13702 H 1323.9 -2.43146 -3.44177 0
M  V30 13703 H 1322.62 -1.26596 -3.01067 0
M  V30 13704 H 1321.28 -3.11041 -1.94034 0
M  V30 13705 H 1320.93 -2.53 -4.34741 0
M  V30 13706 H 1320.63 -4.26014 -4.04704 0
M  V30 13707 H 1322.15 -3.74391 -4.82352 0
M  V30 13708 H 1323.57 -4.94719 -2.89699 0
M  V30 13709 H 1321.96 -5.52084 -2.3521 0
M  V30 13710 H 1323.03 -4.69735 -1.20319 0
M  V30 13711 N 1324.38 0.532545 -1.4833 0
M  V30 13712 C 1325.63 1.28498 -1.55471 0
M  V30 13713 C 1325.94 1.94214 -0.232412 0
M  V30 13714 O 1327.15 2.70889 -0.182044 0
M  V30 13715 C 1325.6 2.33144 -2.74175 0
M  V30 13716 C 1325.21 1.73508 -4.13036 0
M  V30 13717 C 1326.95 3.09413 -2.90627 0
M  V30 13718 C 1324.86 2.76079 -5.23005 0
M  V30 13719 H 1323.79 0.483253 -0.578777 0
M  V30 13720 H 1326.44 0.562744 -1.74658 0
M  V30 13721 H 1324.82 3.08391 -2.48417 0
M  V30 13722 H 1326 1.04466 -4.48802 0
M  V30 13723 H 1324.31 1.0974 -4.01679 0
M  V30 13724 H 1326.91 3.86056 -3.69953 0
M  V30 13725 H 1327.25 3.65118 -1.99987 0
M  V30 13726 H 1327.79 2.4128 -3.16274 0
M  V30 13727 H 1324.52 2.25197 -6.15602 0
M  V30 13728 H 1324.04 3.43456 -4.9173 0
M  V30 13729 H 1325.72 3.39113 -5.51009 0
M  V30 13730 N 1325.86 1.36875 0.78122 0
M  V30 13731 C 1327.1 1.31754 1.54171 0
M  V30 13732 C 1327.43 -0.100632 1.93939 0
M  V30 13733 O 1326.71 -1.05587 1.63345 0
M  V30 13734 C 1326.99 2.24789 2.81322 0
M  V30 13735 C 1326.85 3.75342 2.47868 0
M  V30 13736 C 1328.16 2.16442 3.83198 0
M  V30 13737 H 1325.28 0.479931 0.559317 0
M  V30 13738 H 1327.93 1.67497 0.896935 0
M  V30 13739 H 1326.08 1.94438 3.36342 0
M  V30 13740 H 1327.75 4.16247 1.98836 0
M  V30 13741 H 1325.99 3.94375 1.80696 0
M  V30 13742 H 1326.66 4.3586 3.38719 0
M  V30 13743 H 1329.14 2.43175 3.37647 0
M  V30 13744 H 1328.01 2.83695 4.69903 0
M  V30 13745 H 1328.27 1.15431 4.26765 0
M  V30 13746 N 1327.33 -1.00632 1.21289 0
M  V30 13747 C 1328.58 -1.74647 1.03084 0
M  V30 13748 C 1328.91 -1.89271 -0.43476 0
M  V30 13749 O 1328.19 -1.42607 -1.32263 0
M  V30 13750 C 1328.47 -3.15981 1.72709 0
M  V30 13751 C 1328.32 -3.09088 3.2678 0
M  V30 13752 C 1329.64 -4.14875 1.46857 0
M  V30 13753 H 1326.76 -0.633938 0.375889 0
M  V30 13754 H 1329.4 -1.17328 1.49446 0
M  V30 13755 H 1327.55 -3.64918 1.33294 0
M  V30 13756 H 1329.23 -2.67875 3.75554 0
M  V30 13757 H 1327.47 -2.46223 3.57151 0
M  V30 13758 H 1328.14 -4.09041 3.70661 0
M  V30 13759 H 1330.62 -3.74637 1.81069 0
M  V30 13760 H 1329.49 -5.1191 1.98088 0
M  V30 13761 H 1329.75 -4.40302 0.398296 0
M  V30 13762 N 1328.81 -1.02043 -1.20104 0
M  V30 13763 C 1330.04 -0.731315 -1.93544 0
M  V30 13764 C 1330.45 0.708582 -1.74999 0
M  V30 13765 O 1329.81 1.481 -1.06642 0
M  V30 13766 C 1329.86 -1.06233 -3.45538 0
M  V30 13767 O 1329.58 -2.44568 -3.63481 0
M  V30 13768 C 1331.08 -0.794818 -4.36116 0
M  V30 13769 H 1328.3 -0.268248 -0.615048 0
M  V30 13770 H 1330.85 -1.36264 -1.52488 0
M  V30 13771 H 1329 -0.476341 -3.8446 0
M  V30 13772 H 1329.42 -2.5663 -4.57429 0
M  V30 13773 H 1330.89 -1.07647 -5.41402 0
M  V30 13774 H 1331.37 0.270944 -4.38363 0
M  V30 13775 H 1331.97 -1.36314 -4.02863 0
M  V30 13776 N 1330.29 1.35952 -0.797165 0
M  V30 13777 C 1331.7 1.81554 -0.435311 0
M  V30 13778 C 1332.05 1.66266 1.04164 0
M  V30 13779 O 1331.18 1.18796 1.80877 0
M  V30 13780 C 1331.77 3.29619 -0.783358 0
M  V30 13781 C 1330.33 3.73401 -0.47423 0
M  V30 13782 C 1329.48 2.58098 -1.01394 0
M  V30 13783 H 1332.43 1.24064 -0.989638 0
M  V30 13784 H 1332.45 3.80421 -0.0773381 0
M  V30 13785 H 1331.96 3.40715 -1.85836 0
M  V30 13786 H 1330.06 3.6786 0.592418 0
M  V30 13787 H 1330.18 4.68542 -1.00026 0
M  V30 13788 H 1328.54 2.50927 -0.436747 0
M  V30 13789 H 1329.32 2.71976 -2.09485 0
M  V30 13790 N 1331.77 0.549846 1.47697 0
M  V30 13791 C 1333 0.0276889 2.06881 0
M  V30 13792 C 1333.41 -1.26273 1.40359 0
M  V30 13793 O 1332.77 -1.75584 0.497644 0
M  V30 13794 C 1332.82 -0.179291 3.61055 0
M  V30 13795 O 1332.54 1.06002 4.25083 0
M  V30 13796 C 1334.04 -0.739571 4.37087 0
M  V30 13797 H 1331.26 0.0425016 0.669653 0
M  V30 13798 H 1333.81 0.761158 1.89807 0
M  V30 13799 H 1331.96 -0.862867 3.77668 0
M  V30 13800 H 1332.37 0.853137 5.17515 0
M  V30 13801 H 1333.85 -0.833722 5.45668 0
M  V30 13802 H 1334.33 -1.74915 4.02867 0
M  V30 13803 H 1334.93 -0.0919294 4.25201 0
M  V30 13804 N 1333.25 -1.54984 0.285932 0
M  V30 13805 C 1334.49 -1.9983 -0.327737 0
M  V30 13806 C 1334.82 -1.17435 -1.55046 0
M  V30 13807 O 1334.08 -0.234735 -1.94287 0
M  V30 13808 C 1334.38 -3.49581 -0.7435 0
M  V30 13809 C 1334.04 -4.49331 0.375792 0
M  V30 13810 C 1332.7 -4.76327 0.683103 0
M  V30 13811 C 1335.06 -5.08815 1.12947 0
M  V30 13812 C 1332.38 -5.60071 1.74748 0
M  V30 13813 C 1334.74 -5.93716 2.18366 0
M  V30 13814 C 1333.4 -6.19028 2.4972 0
M  V30 13815 H 1332.67 -0.731231 -0.119928 0
M  V30 13816 H 1335.32 -1.87235 0.401896 0
M  V30 13817 H 1333.62 -3.59708 -1.55298 0
M  V30 13818 H 1335.32 -3.81694 -1.22924 0
M  V30 13819 H 1331.91 -4.28414 0.126159 0
M  V30 13820 H 1336.09 -4.87973 0.905313 0
M  V30 13821 H 1331.35 -5.77925 1.9953 0
M  V30 13822 H 1335.52 -6.38838 2.77233 0
M  V30 13823 H 1333.15 -6.83711 3.3233 0
M  V30 13824 N 1334.72 -0.0133892 -1.57594 0
M  V30 13825 C 1335.67 0.991796 -2.10395 0
M  V30 13826 C 1336.67 1.34724 -1.02693 0
M  V30 13827 O 1337.87 1.33131 -1.21145 0
M  V30 13828 H 1334.25 0.337553 -0.671984 0
M  V30 13829 H 1336.22 0.52102 -2.93816 0
M  V30 13830 C 1334.97 2.27039 -2.63341 0
M  V30 13831 H 1334.29 2.00559 -3.45855 0
M  V30 13832 H 1335.73 2.95619 -3.0395 0
M  V30 13833 C 1334.19 2.98939 -1.55362 0
M  V30 13834 O 1334.72 3.90444 -0.944282 0
M  V30 13835 N 1332.93 2.60997 -1.27784 0
M  V30 13836 H 1332.47 1.86666 -1.77521 0
M  V30 13837 H 1332.43 3.09416 -0.557585 0
M  V30 13838 N 1336.2 1.55448 0.259558 0
M  V30 13839 C 1337.45 1.76337 0.987396 0
M  V30 13840 C 1337.77 0.57505 1.86328 0
M  V30 13841 O 1337.04 -0.409621 1.9157 0
M  V30 13842 H 1335.62 0.650312 0.367565 0
M  V30 13843 H 1338.28 1.9287 0.280551 0
M  V30 13844 H 1337.38 2.66975 1.61651 0
M  V30 13845 N 1337.68 -0.524672 1.4861 0
M  V30 13846 C 1338.93 -1.27768 1.56588 0
M  V30 13847 C 1339.25 -1.93469 0.243899 0
M  V30 13848 O 1338.52 -1.8159 -0.734985 0
M  V30 13849 H 1337.1 -0.474566 0.576885 0
M  V30 13850 H 1339.76 -0.610114 1.85104 0
M  V30 13851 H 1338.86 -2.05416 2.34969 0
M  V30 13852 N 1339.16 -1.37287 -0.77395 0
M  V30 13853 C 1340.11 -1.32955 -1.90855 0
M  V30 13854 C 1341.1 -0.218695 -1.67982 0
M  V30 13855 O 1342.31 -0.386594 -1.75799 0
M  V30 13856 H 1338.68 -0.414289 -0.62759 0
M  V30 13857 H 1340.65 -2.2874 -1.91626 0
M  V30 13858 C 1339.4 -1.15121 -3.28089 0
M  V30 13859 H 1338.72 -1.99852 -3.46264 0
M  V30 13860 H 1340.16 -1.1614 -4.07784 0
M  V30 13861 C 1338.62 0.14327 -3.36595 0
M  V30 13862 O 1339.15 1.12763 -3.85548 0
M  V30 13863 N 1337.36 0.193219 -2.89957 0
M  V30 13864 H 1336.91 -0.608471 -2.50311 0
M  V30 13865 H 1336.86 1.05897 -2.96029 0
M  V30 13866 N 1340.64 0.999871 -1.21821 0
M  V30 13867 C 1341.88 1.75366 -1.05005 0
M  V30 13868 C 1342.24 1.87601 0.408656 0
M  V30 13869 O 1343.44 2.59593 0.697479 0
M  V30 13870 C 1341.71 3.12525 -1.73387 0
M  V30 13871 S 1343.27 4.0373 -1.71894 0
M  V30 13872 H 1340.09 0.603334 -0.376177 0
M  V30 13873 H 1342.69 1.19598 -1.5465 0
M  V30 13874 H 1341.4 3.01258 -2.78697 0
M  V30 13875 H 1340.93 3.73365 -1.23944 0
M  V30 13876 H 1342.94 4.90288 -0.763668 0
M  V30 13877 N 1342.11 1.02678 1.19562 0
M  V30 13878 C 1343.34 0.741569 1.93154 0
M  V30 13879 C 1343.76 -0.699292 1.75372 0
M  V30 13880 O 1343.11 -1.47533 1.07426 0
M  V30 13881 C 1343.17 1.08064 3.4497 0
M  V30 13882 O 1342.89 2.46492 3.62179 0
M  V30 13883 C 1344.39 0.817935 4.35689 0
M  V30 13884 H 1341.61 0.271506 0.613617 0
M  V30 13885 H 1344.15 1.3707 1.51763 0
M  V30 13886 H 1342.31 0.496723 3.84202 0
M  V30 13887 H 1342.72 2.59053 4.56061 0
M  V30 13888 H 1344.19 1.10517 5.40823 0
M  V30 13889 H 1344.67 -0.247693 4.38501 0
M  V30 13890 H 1345.28 1.38449 4.02134 0
M  V30 13891 N 1343.59 -1.35528 0.804364 0
M  V30 13892 C 1344.56 -2.28153 0.21885 0
M  V30 13893 C 1345.56 -1.49486 -0.592511 0
M  V30 13894 O 1346.75 -1.69274 -0.411319 0
M  V30 13895 C 1343.88 -3.33736 -0.695195 0
M  V30 13896 H 1345.07 -2.81446 1.03576 0
M  V30 13897 H 1342.62 -1.45345 0.574854 0
M  V30 13898 H 1343.36 -2.85625 -1.53587 0
M  V30 13899 H 1343.14 -3.91931 -0.115143 0
M  V30 13900 H 1344.63 -4.02872 -1.09925 0
M  V30 13901 N 1345.07 -0.557671 -1.47404 0
M  V30 13902 C 1346 0.227253 -2.28071 0
M  V30 13903 C 1347.02 0.878951 -1.37034 0
M  V30 13904 O 1348.21 0.752725 -1.61853 0
M  V30 13905 C 1345.31 1.33942 -3.11308 0
M  V30 13906 C 1344.48 0.784425 -4.30309 0
M  V30 13907 C 1343.54 1.78114 -4.95138 0
M  V30 13908 O 1342.56 1.32708 -5.53514 0
M  V30 13909 N 1343.77 3.11453 -4.89875 0
M  V30 13910 H 1346.53 -0.464709 -2.96075 0
M  V30 13911 H 1344.09 -0.393777 -1.57038 0
M  V30 13912 H 1346.08 2.00495 -3.51545 0
M  V30 13913 H 1344.65 1.93461 -2.45543 0
M  V30 13914 H 1343.87 -0.0578917 -3.94157 0
M  V30 13915 H 1345.16 0.39298 -5.0728 0
M  V30 13916 H 1344.56 3.50987 -4.43649 0
M  V30 13917 H 1343.12 3.73563 -5.34129 0
M  V30 13918 N 1346.55 1.54831 -0.294147 0
M  V30 13919 C 1347.5 2.24707 0.600795 0
M  V30 13920 C 1348.49 1.25067 1.14257 0
M  V30 13921 O 1349.7 1.42939 1.094 0
M  V30 13922 H 1346.07 0.721399 0.212338 0
M  V30 13923 H 1348.04 2.98398 -0.0111682 0
M  V30 13924 C 1346.79 2.996 1.76451 0
M  V30 13925 H 1346.12 3.76072 1.35684 0
M  V30 13926 H 1347.56 3.51785 2.36692 0
M  V30 13927 C 1346.01 2.0617 2.6645 0
M  V30 13928 O 1346.54 1.62527 3.67353 0
M  V30 13929 N 1344.75 1.7227 2.34033 0
M  V30 13930 H 1344.3 2.07957 1.52025 0
M  V30 13931 H 1344.26 1.10031 2.94518 0
M  V30 13932 N 1348.03 0.0217466 1.57585 0
M  V30 13933 C 1349.27 -0.658487 1.91495 0
M  V30 13934 C 1349.6 -1.72557 0.897462 0
M  V30 13935 O 1348.86 -1.95471 -0.0946909 0
M  V30 13936 C 1349.16 -1.3197 3.32143 0
M  V30 13937 C 1348.82 -0.383706 4.49264 0
M  V30 13938 C 1347.48 -0.126065 4.81035 0
M  V30 13939 C 1349.84 0.259445 5.20554 0
M  V30 13940 C 1347.16 0.782659 5.81456 0
M  V30 13941 C 1349.52 1.15618 6.21945 0
M  V30 13942 C 1348.18 1.42278 6.5216 0
M  V30 13943 H 1347.45 -0.240958 0.700729 0
M  V30 13944 H 1350.1 0.0819351 1.91325 0
M  V30 13945 H 1348.4 -2.13469 3.28539 0
M  V30 13946 H 1350.1 -1.85245 3.55648 0
M  V30 13947 H 1346.69 -0.59469 4.24454 0
M  V30 13948 H 1350.87 0.073445 4.96246 0
M  V30 13949 H 1346.13 0.996995 6.03216 0
M  V30 13950 H 1350.3 1.66077 6.76307 0
M  V30 13951 H 1347.93 2.1286 7.29791 0
M  V30 13952 N 1349.51 -1.55583 -0.251311 0
M  V30 13953 C 1350.74 -1.80996 -0.99619 0
M  V30 13954 C 1351.14 -0.594534 -1.79616 0
M  V30 13955 O 1350.49 0.446197 -1.78199 0
M  V30 13956 C 1350.55 -2.99691 -1.98559 0
M  V30 13957 C 1350.21 -4.35888 -1.37297 0
M  V30 13958 C 1351.21 -5.14051 -0.777672 0
M  V30 13959 C 1348.89 -4.82579 -1.39366 0
M  V30 13960 C 1350.89 -6.3705 -0.211225 0
M  V30 13961 C 1348.58 -6.05528 -0.823357 0
M  V30 13962 C 1349.57 -6.82602 -0.233163 0
M  V30 13963 O 1349.26 -8.03229 0.328345 0
M  V30 13964 H 1348.99 -0.606287 -0.298985 0
M  V30 13965 H 1351.55 -2.03471 -0.280813 0
M  V30 13966 H 1349.78 -2.7296 -2.73915 0
M  V30 13967 H 1351.47 -3.12235 -2.59354 0
M  V30 13968 H 1352.23 -4.791 -0.754228 0
M  V30 13969 H 1348.11 -4.22582 -1.84243 0
M  V30 13970 H 1351.66 -6.97152 0.250073 0
M  V30 13971 H 1347.55 -6.39957 -0.844114 0
M  V30 13972 H 1348.32 -8.18205 0.219785 0
M  V30 13973 N 1350.98 0.516783 -1.48886 0
M  V30 13974 C 1351.92 1.63632 -1.60491 0
M  V30 13975 C 1352.93 1.55301 -0.488424 0
M  V30 13976 O 1354.12 1.6152 -0.75983 0
M  V30 13977 C 1351.22 3.02351 -1.53093 0
M  V30 13978 C 1350.39 3.36028 -2.80006 0
M  V30 13979 C 1349.45 4.54087 -2.65879 0
M  V30 13980 O 1348.48 4.56652 -3.3979 0
M  V30 13981 N 1349.68 5.53058 -1.76372 0
M  V30 13982 H 1352.44 1.54109 -2.57042 0
M  V30 13983 H 1350 0.704338 -1.45776 0
M  V30 13984 H 1352 3.79225 -1.41318 0
M  V30 13985 H 1350.57 3.05881 -0.644637 0
M  V30 13986 H 1349.79 2.48204 -3.06249 0
M  V30 13987 H 1351.07 3.5532 -3.64177 0
M  V30 13988 H 1350.47 5.53773 -1.1555 0
M  V30 13989 H 1349.03 6.29097 -1.70529 0
M  V30 13990 N 1352.46 1.37696 0.766659 0
M  V30 13991 C 1353.37 1.36075 1.91104 0
M  V30 13992 C 1354.39 0.259617 1.72052 0
M  V30 13993 O 1355.56 0.49586 1.952 0
M  V30 13994 C 1352.63 1.17176 3.26298 0
M  V30 13995 C 1351.69 2.36975 3.57968 0
M  V30 13996 C 1350.92 2.18968 4.86712 0
M  V30 13997 O 1351.15 1.17658 5.58133 0
M  V30 13998 O 1350.08 3.07269 5.17561 0
M  V30 13999 H 1353.91 2.32472 1.95424 0
M  V30 14000 H 1351.49 1.18478 0.910122 0
M  V30 14001 H 1353.37 1.08645 4.07154 0
M  V30 14002 H 1352.05 0.238559 3.2282 0
M  V30 14003 H 1350.95 2.51079 2.77327 0
M  V30 14004 H 1352.29 3.2888 3.66195 0
M  V30 14005 N 1353.94 -0.993397 1.22349 0
M  V30 14006 C 1355.19 -1.73287 1.04775 0
M  V30 14007 C 1355.51 -1.89973 -0.417201 0
M  V30 14008 O 1354.77 -1.43966 -1.32561 0
M  V30 14009 C 1355.07 -3.14191 1.70349 0
M  V30 14010 C 1354.73 -3.17421 3.20241 0
M  V30 14011 C 1353.4 -3.1801 3.61141 0
M  V30 14012 C 1355.75 -3.13751 4.16185 0
M  V30 14013 C 1353.08 -3.12628 4.96468 0
M  V30 14014 C 1355.43 -3.09911 5.51487 0
M  V30 14015 C 1354.09 -3.08815 5.91768 0
M  V30 14016 H 1353.36 -0.634102 0.3834 0
M  V30 14017 H 1356.01 -1.16346 1.52105 0
M  V30 14018 H 1354.31 -3.74437 1.15343 0
M  V30 14019 H 1356.01 -3.70149 1.54242 0
M  V30 14020 H 1352.6 -3.17713 2.87674 0
M  V30 14021 H 1356.79 -3.12446 3.85605 0
M  V30 14022 H 1352.04 -3.10125 5.26909 0
M  V30 14023 H 1356.22 -3.06026 6.25556 0
M  V30 14024 H 1353.84 -3.044 6.96595 0
M  V30 14025 N 1355.42 -1.03311 -1.19015 0
M  V30 14026 C 1356.83 -0.750946 -1.4083 0
M  V30 14027 C 1357.03 0.662704 -1.90291 0
M  V30 14028 O 1356.09 1.42806 -2.08237 0
M  V30 14029 C 1357.4 -1.79064 -2.41571 0
M  V30 14030 C 1358.95 -1.81068 -2.55311 0
M  V30 14031 C 1359.43 -2.84008 -3.59309 0
M  V30 14032 N 1360.92 -2.82852 -3.6681 0
M  V30 14033 C 1361.65 -3.59156 -4.46984 0
M  V30 14034 N 1361.15 -4.45188 -5.30829 0
M  V30 14035 N 1362.94 -3.47679 -4.41674 0
M  V30 14036 H 1355.09 -1.94548 -0.852329 0
M  V30 14037 H 1357.35 -0.841344 -0.436858 0
M  V30 14038 H 1357.06 -2.80425 -2.12261 0
M  V30 14039 H 1356.93 -1.61646 -3.40809 0
M  V30 14040 H 1359.32 -0.803825 -2.83941 0
M  V30 14041 H 1359.4 -2.02562 -1.56212 0
M  V30 14042 H 1359.05 -3.84867 -3.3142 0
M  V30 14043 H 1358.98 -2.59771 -4.58069 0
M  V30 14044 H 1361.47 -2.20457 -3.06932 0
M  V30 14045 H 1361.78 -5.00139 -5.89135 0
M  V30 14046 H 1360.13 -4.49259 -5.30275 0
M  V30 14047 H 1363.32 -2.79876 -3.75216 0
M  V30 14048 H 1363.49 -4.07396 -5.03917 0
M  V30 14049 N 1356.9 1.35099 -0.81154 0
M  V30 14050 C 1357.83 2.28468 -0.183012 0
M  V30 14051 C 1358.84 1.50509 0.620553 0
M  V30 14052 O 1360.03 1.7268 0.4521 0
M  V30 14053 C 1357.13 3.30201 0.762933 0
M  V30 14054 C 1356.3 4.374 0.00466561 0
M  V30 14055 C 1355.36 5.18961 0.869832 0
M  V30 14056 O 1354.39 5.68306 0.318964 0
M  V30 14057 N 1355.59 5.37555 2.19123 0
M  V30 14058 H 1358.35 2.83046 -0.985132 0
M  V30 14059 H 1355.92 1.47502 -0.667449 0
M  V30 14060 H 1357.91 3.81659 1.34606 0
M  V30 14061 H 1356.48 2.76101 1.46584 0
M  V30 14062 H 1355.7 3.8681 -0.759702 0
M  V30 14063 H 1356.99 5.06159 -0.517739 0
M  V30 14064 H 1356.38 4.99118 2.66266 0
M  V30 14065 H 1354.94 5.92174 2.72348 0
M  V30 14066 N 1358.37 0.56548 1.47106 0
M  V30 14067 C 1359.32 -0.190542 2.31818 0
M  V30 14068 C 1360.32 -0.901279 1.43434 0
M  V30 14069 O 1361.52 -0.821625 1.60154 0
M  V30 14070 H 1357.9 -0.0803183 0.747698 0
M  V30 14071 H 1359.87 0.542999 2.93418 0
M  V30 14072 C 1358.62 -1.20208 3.2626 0
M  V30 14073 H 1357.94 -0.664608 3.94237 0
M  V30 14074 H 1359.38 -1.7018 3.88349 0
M  V30 14075 C 1357.84 -2.25423 2.50372 0
M  V30 14076 O 1358.37 -3.3249 2.25418 0
M  V30 14077 N 1356.57 -1.9957 2.11235 0
M  V30 14078 H 1356.12 -1.12513 2.31729 0
M  V30 14079 H 1356.08 -2.70182 1.60777 0
M  V30 14080 N 1359.85 -1.54672 0.302354 0
M  V30 14081 C 1361.1 -2.00463 -0.306978 0
M  V30 14082 C 1361.43 -1.19043 -1.53435 0
M  V30 14083 O 1360.71 -0.267255 -1.92655 0
M  V30 14084 C 1360.99 -3.53958 -0.662229 0
M  V30 14085 C 1360.84 -4.46118 0.574378 0
M  V30 14086 C 1362.16 -4.14174 -1.48821 0
M  V30 14087 H 1359.28 -0.728729 -0.110102 0
M  V30 14088 H 1361.92 -1.85419 0.414722 0
M  V30 14089 H 1360.07 -3.66909 -1.2771 0
M  V30 14090 H 1361.74 -4.45071 1.21284 0
M  V30 14091 H 1359.99 -4.1666 1.20736 0
M  V30 14092 H 1360.66 -5.51281 0.281651 0
M  V30 14093 H 1363.13 -4.04668 -0.968674 0
M  V30 14094 H 1362.01 -5.2173 -1.70556 0
M  V30 14095 H 1362.27 -3.66136 -2.47784 0
M  V30 14096 N 1361.33 -0.0301034 -1.57571 0
M  V30 14097 C 1362.58 0.647672 -1.91019 0
M  V30 14098 C 1362.89 1.73234 -0.908265 0
M  V30 14099 O 1364.1 2.46682 -1.13402 0
M  V30 14100 C 1362.55 1.20327 -3.3919 0
M  V30 14101 C 1362.16 0.151833 -4.47743 0
M  V30 14102 C 1363.91 1.8575 -3.81703 0
M  V30 14103 C 1361.81 0.719119 -5.87012 0
M  V30 14104 H 1360.74 0.245682 -0.712851 0
M  V30 14105 H 1363.39 -0.0955645 -1.83251 0
M  V30 14106 H 1361.78 1.99814 -3.41892 0
M  V30 14107 H 1362.95 -0.620659 -4.56601 0
M  V30 14108 H 1361.27 -0.403699 -4.14438 0
M  V30 14109 H 1363.86 2.29151 -4.83109 0
M  V30 14110 H 1364.21 2.70061 -3.16817 0
M  V30 14111 H 1364.74 1.1295 -3.81428 0
M  V30 14112 H 1361.48 -0.0858832 -6.55444 0
M  V30 14113 H 1361 1.46008 -5.81758 0
M  V30 14114 H 1362.68 1.20856 -6.35612 0
M  V30 14115 N 1362.81 1.55714 0.243056 0
M  V30 14116 C 1364.22 1.68126 0.811814 0
M  V30 14117 C 1364.57 0.628259 1.85869 0
M  V30 14118 O 1363.7 -0.224747 2.1523 0
M  V30 14119 C 1364.29 3.048 1.47928 0
M  V30 14120 C 1362.85 3.19138 1.99569 0
M  V30 14121 C 1362 2.64011 0.848149 0
M  V30 14122 H 1364.95 1.58689 0.0187918 0
M  V30 14123 H 1364.97 2.99459 2.34743 0
M  V30 14124 H 1364.48 3.81417 0.717106 0
M  V30 14125 H 1362.58 2.4735 2.78655 0
M  V30 14126 H 1362.69 4.26095 2.19043 0
M  V30 14127 H 1361.06 2.21934 1.2497 0
M  V30 14128 H 1361.84 3.43157 0.0989987 0
M  V30 14129 N 1364.29 -0.50888 1.49158 0
M  V30 14130 C 1365.53 -1.2635 1.58247 0
M  V30 14131 C 1365.86 -1.92677 0.265654 0
M  V30 14132 O 1365.12 -1.80931 -0.745818 0
M  V30 14133 C 1365.42 -2.35875 2.6851 0
M  V30 14134 C 1365.08 -1.87059 4.10268 0
M  V30 14135 C 1363.74 -1.73464 4.48847 0
M  V30 14136 C 1366.1 -1.50429 4.9902 0
M  V30 14137 C 1363.42 -1.21606 5.73959 0
M  V30 14138 C 1365.78 -1.00026 6.24642 0
M  V30 14139 C 1364.44 -0.850646 6.62058 0
M  V30 14140 H 1363.71 -0.462346 0.579066 0
M  V30 14141 H 1366.36 -0.565528 1.82959 0
M  V30 14142 H 1364.66 -3.11428 2.37739 0
M  V30 14143 H 1366.36 -2.9395 2.72753 0
M  V30 14144 H 1362.95 -1.98597 3.79812 0
M  V30 14145 H 1367.13 -1.59782 4.69876 0
M  V30 14146 H 1362.39 -1.08728 6.01655 0
M  V30 14147 H 1366.56 -0.707608 6.92796 0
M  V30 14148 H 1364.19 -0.446627 7.58887 0
M  V30 14149 N 1365.76 -1.381 -0.759346 0
M  V30 14150 C 1367.01 -1.3419 -1.52055 0
M  V30 14151 C 1367.34 0.0697657 -1.94075 0
M  V30 14152 O 1366.62 1.02975 -1.65004 0
M  V30 14153 C 1366.9 -2.29236 -2.7771 0
M  V30 14154 C 1366.75 -3.79237 -2.41866 0
M  V30 14155 C 1368.07 -2.22511 -3.79706 0
M  V30 14156 H 1365.19 -0.488768 -0.551611 0
M  V30 14157 H 1367.83 -1.68902 -0.870174 0
M  V30 14158 H 1365.98 -1.99764 -3.33206 0
M  V30 14159 H 1367.66 -4.19358 -1.92189 0
M  V30 14160 H 1365.9 -3.97199 -1.74399 0
M  V30 14161 H 1366.57 -4.41193 -3.31742 0
M  V30 14162 H 1369.05 -2.48516 -3.33735 0
M  V30 14163 H 1367.92 -2.91134 -4.6533 0
M  V30 14164 H 1368.18 -1.22206 -4.24874 0
M  V30 14165 N 1367.24 0.986894 -1.22875 0
M  V30 14166 C 1368.15 2.11232 -1.02069 0
M  V30 14167 C 1369.17 1.73969 0.0328424 0
M  V30 14168 O 1370.34 2.00754 -0.161197 0
M  V30 14169 C 1367.41 3.41337 -0.60747 0
M  V30 14170 C 1366.47 3.92665 -1.73531 0
M  V30 14171 C 1365.7 5.1656 -1.34171 0
M  V30 14172 O 1365.93 5.69964 -0.223106 0
M  V30 14173 O 1364.86 5.61791 -2.16041 0
M  V30 14174 H 1368.69 2.3167 -1.96374 0
M  V30 14175 H 1366.27 1.09607 -1.01522 0
M  V30 14176 H 1368.15 4.19613 -0.387661 0
M  V30 14177 H 1366.83 3.22244 0.306653 0
M  V30 14178 H 1365.74 3.15534 -2.0097 0
M  V30 14179 H 1367.07 4.162 -2.62751 0
M  V30 14180 N 1368.72 1.0394 1.18466 0
M  V30 14181 C 1369.95 0.761926 1.92897 0
M  V30 14182 C 1370.37 -0.674618 1.75586 0
M  V30 14183 O 1369.73 -1.46711 1.06515 0
M  V30 14184 C 1369.78 1.13152 3.42387 0
M  V30 14185 O 1368.88 0.256266 4.11603 0
M  V30 14186 H 1368.22 0.280527 0.601831 0
M  V30 14187 H 1370.75 1.3889 1.50235 0
M  V30 14188 H 1370.76 1.0929 3.9309 0
M  V30 14189 H 1369.44 2.17804 3.54308 0
M  V30 14190 H 1368.01 0.354392 3.71212 0
M  V30 14191 N 1370.2 -1.34667 0.818693 0
M  V30 14192 C 1371.15 -2.29595 0.235551 0
M  V30 14193 C 1372.12 -1.53389 -0.63727 0
M  V30 14194 O 1373.3 -1.81777 -0.579804 0
M  V30 14195 C 1370.44 -3.39843 -0.600043 0
M  V30 14196 C 1369.55 -4.30995 0.294553 0
M  V30 14197 C 1368.69 -5.28343 -0.550203 0
M  V30 14198 C 1367.73 -6.11132 0.344043 0
M  V30 14199 N 1366.86 -7.00582 -0.461392 0
M  V30 14200 H 1371.7 -2.78872 1.05044 0
M  V30 14201 H 1369.24 -1.37239 0.529517 0
M  V30 14202 H 1371.2 -4.02443 -1.09978 0
M  V30 14203 H 1369.83 -2.91811 -1.38008 0
M  V30 14204 H 1368.88 -3.69294 0.912483 0
M  V30 14205 H 1370.19 -4.89031 0.982341 0
M  V30 14206 H 1369.35 -5.96374 -1.11459 0
M  V30 14207 H 1368.09 -4.70833 -1.27151 0
M  V30 14208 H 1367.09 -5.42038 0.920608 0
M  V30 14209 H 1368.32 -6.70722 1.0634 0
M  V30 14210 H 1366.26 -6.45546 -1.16645 0
M  V30 14211 H 1366.18 -7.55813 0.168095 0
M  V30 14212 H 1367.45 -7.72946 -1.00867 0
M  V30 14213 N 1371.68 -0.573274 -1.46804 0
M  V30 14214 C 1372.91 -0.0605105 -2.06511 0
M  V30 14215 C 1373.31 1.24572 -1.42403 0
M  V30 14216 O 1372.66 1.76182 -0.520168 0
M  V30 14217 C 1372.72 0.189394 -3.59001 0
M  V30 14218 C 1372.38 -1.02981 -4.45246 0
M  V30 14219 C 1373.38 -1.93948 -4.82369 0
M  V30 14220 C 1371.07 -1.249 -4.86524 0
M  V30 14221 C 1373.06 -3.0519 -5.59587 0
M  V30 14222 C 1370.75 -2.36449 -5.63503 0
M  V30 14223 C 1371.74 -3.26424 -5.99947 0
M  V30 14224 O 1371.43 -4.36037 -6.75372 0
M  V30 14225 H 1371.16 -0.0501758 -0.674135 0
M  V30 14226 H 1373.72 -0.790951 -1.8956 0
M  V30 14227 H 1371.95 0.974337 -3.74224 0
M  V30 14228 H 1373.64 0.649506 -4.0067 0
M  V30 14229 H 1374.4 -1.78226 -4.51066 0
M  V30 14230 H 1370.28 -0.55779 -4.57613 0
M  V30 14231 H 1373.83 -3.75444 -5.87952 0
M  V30 14232 H 1369.72 -2.52138 -5.94219 0
M  V30 14233 H 1370.49 -4.34285 -6.93786 0
M  V30 14234 N 1373.15 1.5451 -0.310553 0
M  V30 14235 C 1374.38 2.05204 0.301013 0
M  V30 14236 C 1374.8 1.1859 1.46007 0
M  V30 14237 O 1374.16 0.192081 1.8028 0
M  V30 14238 C 1374.21 3.53221 0.725767 0
M  V30 14239 O 1373.31 3.69596 1.82955 0
M  V30 14240 H 1372.66 0.661566 0.0568026 0
M  V30 14241 H 1375.19 1.99473 -0.455178 0
M  V30 14242 H 1375.2 3.9525 1.01198 0
M  V30 14243 H 1373.87 4.15721 -0.122046 0
M  V30 14244 H 1372.45 3.39472 1.54315 0
M  V30 14245 N 1374.63 0.0384594 1.57553 0
M  V30 14246 C 1375.86 -0.648077 1.96488 0
M  V30 14247 C 1376.28 -1.65123 0.915414 0
M  V30 14248 O 1375.63 -1.82216 -0.101779 0
M  V30 14249 C 1375.68 -1.34623 3.35498 0
M  V30 14250 O 1375.41 -0.383261 4.3642 0
M  V30 14251 C 1376.91 -2.12372 3.89119 0
M  V30 14252 H 1374.13 -0.178068 0.646941 0
M  V30 14253 H 1376.67 0.100993 2.0425 0
M  V30 14254 H 1374.83 -2.04663 3.28926 0
M  V30 14255 H 1375.24 -0.880095 5.17063 0
M  V30 14256 H 1376.71 -2.5666 4.88702 0
M  V30 14257 H 1377.19 -2.96664 3.23863 0
M  V30 14258 H 1377.8 -1.4727 3.98988 0
M  V30 14259 N 1376.11 -1.55841 -0.234795 0
M  V30 14260 C 1377.34 -1.82043 -0.976937 0
M  V30 14261 C 1377.75 -0.613552 -1.78975 0
M  V30 14262 O 1377.09 0.427271 -1.78662 0
M  V30 14263 C 1377.15 -3.0178 -1.95369 0
M  V30 14264 C 1376.82 -4.3732 -1.32666 0
M  V30 14265 C 1377.82 -5.14847 -0.723107 0
M  V30 14266 C 1375.5 -4.8403 -1.3424 0
M  V30 14267 C 1377.49 -6.37238 -0.143646 0
M  V30 14268 C 1375.18 -6.06367 -0.759087 0
M  V30 14269 C 1376.18 -6.82811 -0.16075 0
M  V30 14270 O 1375.87 -8.02836 0.41352 0
M  V30 14271 H 1375.6 -0.609424 -0.292537 0
M  V30 14272 H 1378.15 -2.03758 -0.259216 0
M  V30 14273 H 1376.38 -2.7585 -2.71005 0
M  V30 14274 H 1378.07 -3.14968 -2.56027 0
M  V30 14275 H 1378.84 -4.79873 -0.703371 0
M  V30 14276 H 1374.72 -4.24512 -1.7975 0
M  V30 14277 H 1378.26 -6.96847 0.324002 0
M  V30 14278 H 1374.16 -6.40816 -0.776191 0
M  V30 14279 H 1374.93 -8.17926 0.306554 0
M  V30 14280 N 1377.59 0.500963 -1.49426 0
M  V30 14281 C 1378.55 1.58478 -1.65582 0
M  V30 14282 C 1379.55 1.51897 -0.52762 0
M  V30 14283 O 1380.74 1.55049 -0.794071 0
M  V30 14284 C 1377.87 2.9813 -1.65322 0
M  V30 14285 H 1379.07 1.45483 -2.6225 0
M  V30 14286 H 1376.62 0.725199 -1.38458 0
M  V30 14287 H 1377.36 3.16602 -0.702384 0
M  V30 14288 H 1377.14 3.04315 -2.47255 0
M  V30 14289 H 1378.63 3.76874 -1.79878 0
M  V30 14290 N 1379.07 1.38501 0.752011 0
M  V30 14291 C 1379.98 1.38094 1.8965 0
M  V30 14292 C 1380.99 0.277851 1.71767 0
M  V30 14293 O 1382.17 0.516536 1.94663 0
M  V30 14294 C 1379.23 1.2063 3.25037 0
M  V30 14295 C 1378.3 2.40758 3.55435 0
M  V30 14296 C 1377.53 2.24118 4.84362 0
M  V30 14297 O 1377.75 1.23571 5.56854 0
M  V30 14298 O 1376.69 3.12741 5.14273 0
M  V30 14299 H 1380.51 2.34532 1.92947 0
M  V30 14300 H 1378.1 1.19437 0.897504 0
M  V30 14301 H 1379.98 1.12957 4.05979 0
M  V30 14302 H 1378.65 0.272785 3.22549 0
M  V30 14303 H 1377.56 2.54006 2.74648 0
M  V30 14304 H 1378.89 3.32745 3.62686 0
M  V30 14305 N 1380.55 -0.980364 1.23396 0
M  V30 14306 C 1381.77 -1.76223 1.09363 0
M  V30 14307 C 1382.2 -1.84801 -0.350759 0
M  V30 14308 O 1381.55 -1.30966 -1.2537 0
M  V30 14309 C 1381.6 -3.16728 1.72383 0
M  V30 14310 O 1380.71 -4.00439 0.986002 0
M  V30 14311 H 1380.05 -0.542174 0.383332 0
M  V30 14312 H 1382.58 -1.23066 1.6345 0
M  V30 14313 H 1382.59 -3.67307 1.77623 0
M  V30 14314 H 1381.26 -3.098 2.77483 0
M  V30 14315 H 1379.84 -3.58946 1.01054 0
M  V30 14316 N 1382.02 -1.04567 -1.17913 0
M  V30 14317 C 1383.25 -0.772204 -1.9195 0
M  V30 14318 C 1383.67 0.671303 -1.76462 0
M  V30 14319 O 1383.02 1.45805 -1.0976 0
M  V30 14320 C 1383.07 -1.13539 -3.43207 0
M  V30 14321 O 1382.8 -2.52223 -3.58211 0
M  V30 14322 C 1384.3 -0.887146 -4.34332 0
M  V30 14323 H 1381.52 -0.281234 -0.609219 0
M  V30 14324 H 1384.06 -1.39467 -1.49563 0
M  V30 14325 H 1382.22 -0.557784 -3.83363 0
M  V30 14326 H 1382.63 -2.66275 -4.51882 0
M  V30 14327 H 1384.1 -1.19107 -5.38997 0
M  V30 14328 H 1384.58 0.1779 -4.3884 0
M  V30 14329 H 1385.19 -1.44829 -3.99881 0
M  V30 14330 N 1383.5 1.34231 -0.825823 0
M  V30 14331 C 1384.73 2.02417 -0.428348 0
M  V30 14332 C 1385.14 1.62181 0.966573 0
M  V30 14333 O 1384.5 0.828691 1.62601 0
M  V30 14334 C 1384.55 3.57678 -0.524271 0
M  V30 14335 O 1384.27 3.96458 -1.86422 0
M  V30 14336 C 1385.77 4.43132 -0.122069 0
M  V30 14337 H 1382.99 0.648699 -0.171554 0
M  V30 14338 H 1385.54 1.71443 -1.11478 0
M  V30 14339 H 1383.69 3.87232 0.114112 0
M  V30 14340 H 1384.11 4.91147 -1.84051 0
M  V30 14341 H 1385.58 5.51477 -0.240264 0
M  V30 14342 H 1386.06 4.29139 0.934705 0
M  V30 14343 H 1386.66 4.18912 -0.734366 0
M  V30 14344 N 1384.98 0.581051 1.46498 0
M  V30 14345 C 1386.39 0.154032 1.86064 0
M  V30 14346 C 1386.74 -1.28247 1.48483 0
M  V30 14347 O 1385.87 -1.96845 0.898945 0
M  V30 14348 C 1386.46 0.272764 3.377 0
M  V30 14349 C 1385.02 -0.0993724 3.76269 0
M  V30 14350 C 1384.17 0.60947 2.70519 0
M  V30 14351 H 1387.12 0.78937 1.37676 0
M  V30 14352 H 1387.14 -0.502326 3.7717 0
M  V30 14353 H 1386.65 1.31837 3.65021 0
M  V30 14354 H 1384.75 -1.14517 3.54565 0
M  V30 14355 H 1384.87 0.275791 4.78306 0
M  V30 14356 H 1383.23 0.0499083 2.54651 0
M  V30 14357 H 1384.01 1.65669 3.0068 0
M  V30 14358 N 1386.46 -1.54343 0.318742 0
M  V30 14359 C 1387.39 -2.21652 -0.583351 0
M  V30 14360 C 1388.4 -1.21494 -1.08366 0
M  V30 14361 O 1389.59 -1.4799 -0.998064 0
M  V30 14362 C 1386.69 -2.86349 -1.81266 0
M  V30 14363 C 1385.86 -4.12601 -1.45186 0
M  V30 14364 C 1384.92 -4.60937 -2.53818 0
M  V30 14365 O 1383.95 -5.25731 -2.18164 0
M  V30 14366 N 1385.15 -4.34755 -3.84667 0
M  V30 14367 H 1387.92 -2.99699 -0.00703539 0
M  V30 14368 H 1385.48 -1.61278 0.141728 0
M  V30 14369 H 1387.47 -3.15611 -2.53321 0
M  V30 14370 H 1386.04 -2.12037 -2.29693 0
M  V30 14371 H 1385.26 -3.90157 -0.563143 0
M  V30 14372 H 1386.55 -4.94774 -1.18642 0
M  V30 14373 H 1385.95 -3.82883 -4.16434 0
M  V30 14374 H 1384.5 -4.68683 -4.52967 0
M  V30 14375 N 1387.94 -0.0468143 -1.5753 0
M  V30 14376 C 1389.18 0.626699 -1.92138 0
M  V30 14377 C 1389.5 1.7164 -0.925463 0
M  V30 14378 O 1388.77 1.95876 0.0303531 0
M  V30 14379 H 1387.35 0.234479 -0.709245 0
M  V30 14380 H 1390.02 -0.0987892 -1.94649 0
M  V30 14381 H 1389.11 1.06811 -2.93254 0
M  V30 14382 N 1389.41 1.55964 0.226527 0
M  V30 14383 C 1390.66 1.77944 0.94967 0
M  V30 14384 C 1390.98 0.614478 1.85697 0
M  V30 14385 O 1392.18 0.717793 2.6184 0
M  V30 14386 C 1390.64 3.15108 1.73881 0
M  V30 14387 C 1390.25 4.39314 0.877894 0
M  V30 14388 C 1391.99 3.46418 2.45347 0
M  V30 14389 C 1389.9 5.67505 1.6641 0
M  V30 14390 H 1388.83 0.663412 0.35833 0
M  V30 14391 H 1391.48 1.82366 0.203695 0
M  V30 14392 H 1389.86 3.04849 2.52751 0
M  V30 14393 H 1391.03 4.60616 0.130089 0
M  V30 14394 H 1389.35 4.15487 0.2756 0
M  V30 14395 H 1391.95 4.39416 3.0466 0
M  V30 14396 H 1392.29 2.68685 3.17985 0
M  V30 14397 H 1392.82 3.57984 1.73471 0
M  V30 14398 H 1389.56 6.48116 0.981089 0
M  V30 14399 H 1389.08 5.50272 2.38665 0
M  V30 14400 H 1390.76 6.075 2.22605 0
M  V30 14401 N 1390.89 -0.493031 1.4969 0
M  V30 14402 C 1391.86 -1.57598 1.6642 0
M  V30 14403 C 1392.86 -1.51615 0.535668 0
M  V30 14404 O 1394.05 -1.54626 0.802283 0
M  V30 14405 C 1391.18 -2.97249 1.66901 0
M  V30 14406 H 1392.37 -1.4409 2.63017 0
M  V30 14407 H 1389.92 -0.717846 1.3884 0
M  V30 14408 H 1390.66 -3.16225 0.719164 0
M  V30 14409 H 1390.44 -3.02999 2.48865 0
M  V30 14410 H 1391.93 -3.75914 1.81874 0
M  V30 14411 N 1392.37 -1.38898 -0.744656 0
M  V30 14412 C 1393.33 -1.36633 -1.84022 0
M  V30 14413 C 1394.33 -0.265187 -1.58598 0
M  V30 14414 O 1395.52 -0.522569 -1.66177 0
M  V30 14415 C 1392.66 -1.12938 -3.21649 0
M  V30 14416 H 1393.85 -2.34111 -1.87435 0
M  V30 14417 H 1391.4 -1.24322 -0.947302 0
M  V30 14418 H 1392.14 -0.161027 -3.239 0
M  V30 14419 H 1391.92 -1.9267 -3.41498 0
M  V30 14420 H 1393.41 -1.14071 -4.01718 0
M  V30 14421 N 1393.85 0.973806 -1.23914 0
M  V30 14422 C 1395.07 1.7564 -1.10296 0
M  V30 14423 C 1395.5 1.84984 0.340954 0
M  V30 14424 O 1394.86 1.31629 1.24674 0
M  V30 14425 C 1394.9 3.15809 -1.7406 0
M  V30 14426 O 1394.01 3.99911 -1.00722 0
M  V30 14427 H 1393.35 0.540133 -0.386202 0
M  V30 14428 H 1395.88 1.22197 -1.64101 0
M  V30 14429 H 1395.89 3.66359 -1.79568 0
M  V30 14430 H 1394.56 3.08324 -2.79122 0
M  V30 14431 H 1393.14 3.58405 -1.02956 0
M  V30 14432 N 1395.33 1.05191 1.17357 0
M  V30 14433 C 1396.74 0.773255 1.39617 0
M  V30 14434 C 1396.94 -0.632346 1.91321 0
M  V30 14435 O 1396 -1.39475 2.10483 0
M  V30 14436 C 1397.31 1.82885 2.38692 0
M  V30 14437 C 1398.86 1.85106 2.52398 0
M  V30 14438 C 1399.33 2.89689 3.54746 0
M  V30 14439 N 1400.83 2.88651 3.62263 0
M  V30 14440 C 1401.56 3.66221 4.41214 0
M  V30 14441 N 1401.06 4.53577 5.23679 0
M  V30 14442 N 1402.85 3.54661 4.36087 0
M  V30 14443 H 1395 1.9588 0.82127 0
M  V30 14444 H 1397.26 0.848187 0.423417 0
M  V30 14445 H 1396.97 2.83766 2.07773 0
M  V30 14446 H 1396.84 1.67047 3.38194 0
M  V30 14447 H 1399.23 0.848896 2.82627 0
M  V30 14448 H 1399.31 2.05022 1.5297 0
M  V30 14449 H 1398.96 3.90091 3.25255 0
M  V30 14450 H 1398.89 2.67025 4.53878 0
M  V30 14451 H 1401.38 2.25312 3.03386 0
M  V30 14452 H 1401.69 5.09449 5.81104 0
M  V30 14453 H 1400.03 4.57638 5.23061 0
M  V30 14454 H 1403.23 2.8581 3.70716 0
M  V30 14455 H 1403.4 4.15361 4.97372 0
M  V30 14456 N 1396.8 -1.33791 0.83293 0
M  V30 14457 C 1397.74 -2.27259 0.207019 0
M  V30 14458 C 1398.72 -1.49372 -0.642403 0
M  V30 14459 O 1399.9 -1.78562 -0.603963 0
M  V30 14460 C 1397.03 -3.31177 -0.709885 0
M  V30 14461 C 1396.07 -4.26453 0.0633036 0
M  V30 14462 S 1396.91 -5.16406 1.41721 0
M  V30 14463 C 1398.06 -6.23856 0.505446 0
M  V30 14464 H 1398.29 -2.79998 0.999422 0
M  V30 14465 H 1395.83 -1.40991 0.629361 0
M  V30 14466 H 1397.79 -3.91535 -1.23332 0
M  V30 14467 H 1396.45 -2.77265 -1.4759 0
M  V30 14468 H 1395.64 -4.99995 -0.634145 0
M  V30 14469 H 1395.24 -3.70401 0.517607 0
M  V30 14470 H 1397.53 -6.7684 -0.299066 0
M  V30 14471 H 1398.48 -6.97671 1.21084 0
M  V30 14472 H 1398.88 -5.64429 0.0894308 0
M  V30 14473 N 1398.28 -0.588812 -1.46187 0
M  V30 14474 C 1399.23 0.161973 -2.27424 0
M  V30 14475 C 1400.22 0.856178 -1.36229 0
M  V30 14476 O 1401.41 0.749266 -1.60359 0
M  V30 14477 C 1398.54 1.17104 -3.2271 0
M  V30 14478 C 1397.62 0.478637 -4.2139 0
M  V30 14479 N 1398.01 -0.46921 -5.03619 0
M  V30 14480 C 1396.31 0.728608 -4.40008 0
M  V30 14481 C 1397.01 -0.874455 -5.7509 0
M  V30 14482 N 1395.99 -0.222267 -5.43145 0
M  V30 14483 H 1399.79 -0.566306 -2.88392 0
M  V30 14484 H 1397.31 -0.41106 -1.57112 0
M  V30 14485 H 1399.3 1.72314 -3.79623 0
M  V30 14486 H 1397.96 1.90008 -2.63301 0
M  V30 14487 H 1398.97 -0.84504 -5.10959 0
M  V30 14488 H 1395.65 1.44375 -3.91742 0
M  V30 14489 H 1397.04 -1.65514 -6.51195 0
M  V30 14490 N 1399.76 1.54172 -0.326923 0
M  V30 14491 C 1401.18 1.59579 0.0256055 0
M  V30 14492 C 1401.38 1.34337 1.50186 0
M  V30 14493 O 1400.43 1.12945 2.25831 0
M  V30 14494 C 1401.75 2.98086 -0.395641 0
M  V30 14495 C 1403.29 3.11075 -0.346579 0
M  V30 14496 C 1403.77 4.51932 -0.743039 0
M  V30 14497 N 1405.26 4.57932 -0.696575 0
M  V30 14498 C 1405.99 5.65041 -0.975493 0
M  V30 14499 N 1405.49 6.80075 -1.32172 0
M  V30 14500 N 1407.28 5.54835 -0.900831 0
M  V30 14501 H 1399.43 1.68836 -1.28872 0
M  V30 14502 H 1401.7 0.789858 -0.52424 0
M  V30 14503 H 1401.4 3.21568 -1.42431 0
M  V30 14504 H 1401.28 3.76451 0.237645 0
M  V30 14505 H 1403.66 2.87326 0.672889 0
M  V30 14506 H 1403.75 2.34807 -1.01484 0
M  V30 14507 H 1403.39 4.76415 -1.76044 0
M  V30 14508 H 1403.32 5.26574 -0.0524263 0
M  V30 14509 H 1405.81 3.75318 -0.440969 0
M  V30 14510 H 1406.12 7.57708 -1.51983 0
M  V30 14511 H 1404.47 6.81563 -1.36001 0
M  V30 14512 H 1407.66 4.63844 -0.629812 0
M  V30 14513 H 1407.83 6.3822 -1.12156 0
M  V30 14514 N 1401.24 0.0551678 1.57503 0
M  V30 14515 C 1402.49 -0.6165 1.92467 0
M  V30 14516 C 1402.81 -1.71147 0.934552 0
M  V30 14517 O 1402.08 -1.9589 -0.0199649 0
M  V30 14518 H 1400.66 -0.230714 0.710479 0
M  V30 14519 H 1403.32 0.109111 1.94594 0
M  V30 14520 H 1402.42 -1.05254 2.93816 0
M  V30 14521 N 1402.72 -1.56081 -0.218252 0
M  V30 14522 C 1403.96 -1.79247 -0.942157 0
M  V30 14523 C 1404.29 -0.624492 -1.84202 0
M  V30 14524 O 1403.55 0.390973 -1.91755 0
M  V30 14525 C 1403.85 -3.08199 -1.80965 0
M  V30 14526 C 1403.51 -4.38197 -1.06274 0
M  V30 14527 C 1402.17 -4.73517 -0.856432 0
M  V30 14528 C 1404.53 -5.18441 -0.535532 0
M  V30 14529 C 1401.85 -5.86595 -0.111065 0
M  V30 14530 C 1404.21 -6.32295 0.196507 0
M  V30 14531 C 1402.87 -6.66215 0.414041 0
M  V30 14532 H 1402.14 -0.655913 -0.34476 0
M  V30 14533 H 1404.79 -1.90344 -0.210095 0
M  V30 14534 H 1403.09 -2.92238 -2.60967 0
M  V30 14535 H 1404.79 -3.23325 -2.37196 0
M  V30 14536 H 1401.38 -4.10466 -1.23352 0
M  V30 14537 H 1405.56 -4.91586 -0.682386 0
M  V30 14538 H 1400.82 -6.11363 0.0676711 0
M  V30 14539 H 1404.99 -6.93701 0.612516 0
M  V30 14540 H 1402.62 -7.5368 0.993532 0
M  V30 14541 N 1404.2 0.485086 -1.49949 0
M  V30 14542 C 1405.44 1.23571 -1.5992 0
M  V30 14543 C 1405.76 1.92754 -0.295108 0
M  V30 14544 O 1405.03 1.83474 0.686582 0
M  V30 14545 H 1403.61 0.459104 -0.589264 0
M  V30 14546 H 1406.28 0.560822 -1.86657 0
M  V30 14547 H 1405.37 1.99114 -2.40333 0
M  V30 14548 N 1405.67 1.39291 0.737279 0
M  V30 14549 C 1406.92 1.36121 1.49384 0
M  V30 14550 C 1407.24 -0.0429406 1.94953 0
M  V30 14551 O 1406.51 -0.993756 1.68823 0
M  V30 14552 H 1405.09 0.500916 0.554159 0
M  V30 14553 H 1407.75 1.74134 0.875402 0
M  V30 14554 H 1406.85 2.02246 2.37704 0
M  V30 14555 N 1407.15 -0.967221 1.24429 0
M  V30 14556 C 1408.4 -1.71026 1.08427 0
M  V30 14557 C 1408.73 -1.90815 -0.376812 0
M  V30 14558 O 1407.98 -1.46745 -1.29477 0
M  V30 14559 C 1408.28 -3.10507 1.76975 0
M  V30 14560 C 1407.95 -3.10557 3.26902 0
M  V30 14561 C 1406.61 -3.10278 3.67806 0
M  V30 14562 C 1408.96 -3.04852 4.22746 0
M  V30 14563 C 1406.29 -3.02027 5.02988 0
M  V30 14564 C 1408.64 -2.98143 5.57937 0
M  V30 14565 C 1407.3 -2.96193 5.98185 0
M  V30 14566 H 1406.57 -0.625827 0.396764 0
M  V30 14567 H 1409.22 -1.13094 1.54538 0
M  V30 14568 H 1407.53 -3.71906 1.2326 0
M  V30 14569 H 1409.22 -3.66794 1.62058 0
M  V30 14570 H 1405.81 -3.11539 2.94349 0
M  V30 14571 H 1410 -3.04197 3.92145 0
M  V30 14572 H 1405.25 -2.98878 5.33368 0
M  V30 14573 H 1409.43 -2.92688 6.31907 0
M  V30 14574 H 1407.05 -2.89555 7.02895 0
M  V30 14575 N 1408.63 -1.05812 -1.16797 0
M  V30 14576 C 1409.85 -0.792518 -1.91661 0
M  V30 14577 C 1410.28 0.646598 -1.76637 0
M  V30 14578 O 1409.64 1.44998 -1.08836 0
M  V30 14579 C 1409.69 -1.18585 -3.40544 0
M  V30 14580 O 1408.79 -0.321716 -4.11143 0
M  V30 14581 H 1408.13 -0.290066 -0.597292 0
M  V30 14582 H 1410.66 -1.41263 -1.48007 0
M  V30 14583 H 1410.67 -1.1553 -3.91301 0
M  V30 14584 H 1409.35 -2.23413 -3.50798 0
M  V30 14585 H 1407.92 -0.413403 -3.70601 0
M  V30 14586 N 1410.11 1.33347 -0.840014 0
M  V30 14587 C 1411.04 2.27146 -0.219068 0
M  V30 14588 C 1412.02 1.4971 0.634472 0
M  V30 14589 O 1413.2 1.7888 0.594485 0
M  V30 14590 C 1410.33 3.31549 0.692312 0
M  V30 14591 C 1409.38 4.26413 -0.0859186 0
M  V30 14592 S 1410.21 5.15647 -1.44458 0
M  V30 14593 C 1411.36 6.23579 -0.538524 0
M  V30 14594 H 1411.6 2.79464 -1.01426 0
M  V30 14595 H 1409.13 1.40655 -0.636829 0
M  V30 14596 H 1411.09 3.92183 1.21254 0
M  V30 14597 H 1409.75 2.78044 1.46117 0
M  V30 14598 H 1408.94 5.00324 0.60762 0
M  V30 14599 H 1408.54 3.70121 -0.537243 0
M  V30 14600 H 1410.84 6.76989 0.263167 0
M  V30 14601 H 1411.78 6.97019 -1.24782 0
M  V30 14602 H 1412.19 5.64374 -0.119363 0
M  V30 14603 N 1411.59 0.596556 1.45873 0
M  V30 14604 C 1412.83 0.0872856 2.01911 0
M  V30 14605 C 1413.15 -1.28257 1.46885 0
M  V30 14606 O 1412.42 -1.84489 0.658837 0
M  V30 14607 H 1411 0.0292769 0.746426 0
M  V30 14608 H 1413.67 0.775464 1.78809 0
M  V30 14609 H 1412.76 0.0287213 3.12087 0
M  V30 14610 N 1413.06 -1.53996 0.335095 0
M  V30 14611 C 1414.31 -2.00375 -0.263475 0
M  V30 14612 C 1414.63 -1.22471 -1.51742 0
M  V30 14613 O 1413.9 -0.329604 -1.93107 0
M  V30 14614 H 1412.48 -0.740229 -0.100347 0
M  V30 14615 H 1415.14 -1.89531 0.454302 0
M  V30 14616 H 1414.24 -3.07874 -0.511834 0
M  V30 14617 N 1414.54 -0.0635198 -1.57472 0
M  V30 14618 C 1415.47 0.90431 -2.15278 0
M  V30 14619 C 1416.45 1.31609 -1.07764 0
M  V30 14620 O 1417.64 1.38861 -1.35762 0
M  V30 14621 C 1414.77 2.17483 -2.70774 0
M  V30 14622 C 1413.72 1.90272 -3.8338 0
M  V30 14623 C 1413.05 3.23885 -4.25444 0
M  V30 14624 C 1414.35 1.21454 -5.07983 0
M  V30 14625 H 1416.04 0.422786 -2.964 0
M  V30 14626 H 1413.59 0.201918 -1.42577 0
M  V30 14627 H 1415.54 2.856 -3.09856 0
M  V30 14628 H 1414.26 2.67863 -1.86861 0
M  V30 14629 H 1412.92 1.24564 -3.44789 0
M  V30 14630 H 1412.57 3.72089 -3.38465 0
M  V30 14631 H 1412.27 3.06472 -5.01347 0
M  V30 14632 H 1413.8 3.93212 -4.67137 0
M  V30 14633 H 1415.21 1.79625 -5.44433 0
M  V30 14634 H 1413.61 1.14327 -5.89109 0
M  V30 14635 H 1414.68 0.19238 -4.84518 0
M  V30 14636 N 1416.02 1.56195 0.209972 0
M  V30 14637 C 1417.25 1.8384 0.949228 0
M  V30 14638 C 1417.66 0.644141 1.77472 0
M  V30 14639 O 1417.02 -0.387276 1.78344 0
M  V30 14640 C 1417.07 3.10131 1.85745 0
M  V30 14641 O 1416.79 4.2495 1.06531 0
M  V30 14642 C 1418.29 3.50847 2.70963 0
M  V30 14643 H 1415.51 0.610856 0.277662 0
M  V30 14644 H 1418.06 2.03295 0.221708 0
M  V30 14645 H 1416.21 2.92618 2.53877 0
M  V30 14646 H 1416.63 4.96769 1.68287 0
M  V30 14647 H 1418.1 4.4222 3.30372 0
M  V30 14648 H 1418.58 2.73139 3.43936 0
M  V30 14649 H 1419.18 3.7084 2.08226 0
M  V30 14650 N 1417.5 -0.477127 1.50204 0
M  V30 14651 C 1418.73 -1.25307 1.64638 0
M  V30 14652 C 1419.14 -1.85942 0.327274 0
M  V30 14653 O 1418.5 -1.6895 -0.690088 0
M  V30 14654 C 1418.55 -2.36616 2.73304 0
M  V30 14655 O 1418.27 -1.78469 4.00101 0
M  V30 14656 C 1419.77 -3.27595 2.98658 0
M  V30 14657 H 1416.99 -0.379192 0.553583 0
M  V30 14658 H 1419.53 -0.5702 1.9639 0
M  V30 14659 H 1417.69 -3.00689 2.44264 0
M  V30 14660 H 1418.1 -2.51722 4.60148 0
M  V30 14661 H 1419.58 -4.01921 3.7837 0
M  V30 14662 H 1420.05 -3.86017 2.09493 0
M  V30 14663 H 1420.66 -2.69264 3.29206 0
M  V30 14664 N 1418.98 -1.3968 -0.729882 0
M  V30 14665 C 1420.22 -1.38389 -1.49064 0
M  V30 14666 C 1420.58 0.0186997 -1.92391 0
M  V30 14667 O 1419.87 0.986266 -1.64266 0
M  V30 14668 C 1420.06 -2.29499 -2.7398 0
M  V30 14669 C 1419.89 -3.78478 -2.42868 0
M  V30 14670 C 1418.66 -4.47375 -2.34911 0
M  V30 14671 C 1420.86 -4.70329 -2.08074 0
M  V30 14672 N 1418.84 -5.81662 -1.96324 0
M  V30 14673 C 1420.21 -5.93305 -1.79971 0
M  V30 14674 C 1422.27 -4.58302 -1.94586 0
M  V30 14675 C 1420.97 -7.05596 -1.3974 0
M  V30 14676 C 1423 -5.7052 -1.55758 0
M  V30 14677 C 1422.36 -6.92572 -1.28544 0
M  V30 14678 H 1418.46 -0.56167 -0.544106 0
M  V30 14679 H 1421.04 -1.75273 -0.847782 0
M  V30 14680 H 1419.21 -1.94765 -3.36037 0
M  V30 14681 H 1420.95 -2.19166 -3.40218 0
M  V30 14682 H 1417.7 -4.00878 -2.52178 0
M  V30 14683 H 1418.13 -6.5274 -1.79608 0
M  V30 14684 H 1422.77 -3.6447 -2.14292 0
M  V30 14685 H 1420.49 -7.99323 -1.18776 0
M  V30 14686 H 1424.07 -5.63204 -1.45921 0
M  V30 14687 H 1422.95 -7.77932 -0.989491 0
M  V30 14688 N 1420.45 0.960609 -1.2494 0
M  V30 14689 C 1421.68 1.73676 -1.11894 0
M  V30 14690 C 1422.09 1.86288 0.330648 0
M  V30 14691 O 1421.44 1.35575 1.23957 0
M  V30 14692 C 1421.5 3.17142 -1.69297 0
M  V30 14693 C 1421.16 3.27978 -3.18244 0
M  V30 14694 C 1422.16 3.12754 -4.15308 0
M  V30 14695 C 1419.84 3.51991 -3.5834 0
M  V30 14696 C 1421.84 3.21379 -5.50449 0
M  V30 14697 C 1419.52 3.60253 -4.9362 0
M  V30 14698 C 1420.52 3.44961 -5.89484 0
M  V30 14699 O 1420.21 3.52893 -7.22303 0
M  V30 14700 H 1419.94 0.551226 -0.391313 0
M  V30 14701 H 1422.5 1.21418 -1.65671 0
M  V30 14702 H 1420.73 3.70736 -1.09961 0
M  V30 14703 H 1422.42 3.76592 -1.51437 0
M  V30 14704 H 1423.18 2.94079 -3.85672 0
M  V30 14705 H 1419.06 3.62957 -2.84224 0
M  V30 14706 H 1422.6 3.0936 -6.25254 0
M  V30 14707 H 1418.5 3.78444 -5.22925 0
M  V30 14708 H 1419.27 3.69563 -7.30319 0
M  V30 14709 N 1421.93 1.0643 1.16234 0
M  V30 14710 C 1423.18 0.782998 1.87075 0
M  V30 14711 C 1423.51 -0.688852 1.81572 0
M  V30 14712 O 1422.79 -1.50478 1.23234 0
M  V30 14713 C 1423.07 1.27997 3.36584 0
M  V30 14714 C 1422.92 2.81568 3.5077 0
M  V30 14715 C 1424.24 0.888975 4.31028 0
M  V30 14716 H 1421.36 0.28591 0.679282 0
M  V30 14717 H 1424 1.32046 1.36615 0
M  V30 14718 H 1422.15 0.822756 3.79688 0
M  V30 14719 H 1423.82 3.35508 3.16595 0
M  V30 14720 H 1422.07 3.2023 2.92635 0
M  V30 14721 H 1422.74 3.11406 4.55774 0
M  V30 14722 H 1425.21 1.28279 3.95833 0
M  V30 14723 H 1424.09 1.26416 5.34144 0
M  V30 14724 H 1424.35 -0.205973 4.4162 0
M  V30 14725 N 1423.41 -1.329 0.847073 0
M  V30 14726 C 1424.34 -2.27027 0.231111 0
M  V30 14727 C 1425.32 -1.50045 -0.626524 0
M  V30 14728 O 1426.51 -1.79193 -0.58499 0
M  V30 14729 C 1423.63 -3.31911 -0.67472 0
M  V30 14730 C 1422.68 -4.26362 0.108531 0
M  V30 14731 S 1423.51 -5.14874 1.4719 0
M  V30 14732 C 1424.67 -6.23285 0.571586 0
M  V30 14733 H 1424.9 -2.78922 1.02906 0
M  V30 14734 H 1422.43 -1.40315 0.64428 0
M  V30 14735 H 1424.39 -3.92821 -1.19172 0
M  V30 14736 H 1423.05 -2.78815 -1.44641 0
M  V30 14737 H 1422.25 -5.00639 -0.581079 0
M  V30 14738 H 1421.85 -3.69831 0.556863 0
M  V30 14739 H 1424.14 -6.77119 -0.227261 0
M  V30 14740 H 1425.08 -6.96347 1.28477 0
M  V30 14741 H 1425.49 -5.64303 0.149291 0
M  V30 14742 N 1424.89 -0.604284 -1.45555 0
M  V30 14743 C 1426.13 -0.0983316 -2.02561 0
M  V30 14744 C 1426.47 1.26659 -1.47211 0
M  V30 14745 O 1425.74 1.83476 -0.645519 0
M  V30 14746 C 1426.03 -0.0558349 -3.60057 0
M  V30 14747 C 1425.88 -1.45119 -4.25747 0
M  V30 14748 C 1427.2 0.633708 -4.35514 0
M  V30 14749 H 1424.32 -0.0372071 -0.73606 0
M  V30 14750 H 1426.96 -0.775623 -1.73448 0
M  V30 14751 H 1425.11 0.520935 -3.84992 0
M  V30 14752 H 1426.78 -2.07478 -4.12008 0
M  V30 14753 H 1425.02 -2.01283 -3.84275 0
M  V30 14754 H 1425.69 -1.37372 -5.34633 0
M  V30 14755 H 1428.17 0.143501 -4.15852 0
M  V30 14756 H 1427.05 0.632538 -5.45243 0
M  V30 14757 H 1427.31 1.69917 -4.08143 0
M  V30 14758 N 1426.37 1.53816 -0.343257 0
M  V30 14759 C 1427.31 2.26505 0.529002 0
M  V30 14760 C 1428.31 1.28639 1.1022 0
M  V30 14761 O 1429.51 1.46348 1.04797 0
M  V30 14762 H 1425.89 0.727789 0.189279 0
M  V30 14763 H 1427.86 2.98211 -0.106096 0
M  V30 14764 C 1426.61 3.05062 1.6683 0
M  V30 14765 H 1425.93 3.80198 1.23651 0
M  V30 14766 H 1427.37 3.59138 2.2538 0
M  V30 14767 C 1425.83 2.14543 2.59756 0
M  V30 14768 O 1426.36 1.74132 3.61996 0
M  V30 14769 N 1424.57 1.79628 2.28434 0
M  V30 14770 H 1424.11 2.12688 1.45332 0
M  V30 14771 H 1424.07 1.19345 2.90868 0
M  V30 14772 N 1427.84 0.0718701 1.57436 0
M  V30 14773 C 1429.08 -0.600882 1.95368 0
M  V30 14774 C 1429.45 -1.66772 0.951368 0
M  V30 14775 O 1430.65 -2.39603 1.21835 0
M  V30 14776 C 1428.92 -1.1628 3.37955 0
M  V30 14777 S 1430.48 -1.85067 3.97864 0
M  V30 14778 H 1427.3 -0.196749 0.683235 0
M  V30 14779 H 1429.9 0.145744 1.94956 0
M  V30 14780 H 1428.6 -0.374507 4.08688 0
M  V30 14781 H 1428.13 -1.94578 3.41911 0
M  V30 14782 H 1430.15 -3.1331 3.84774 0
M  V30 14783 N 1429.32 -1.56304 -0.201686 0
M  V30 14784 C 1430.25 -1.97046 -1.25281 0
M  V30 14785 C 1431.23 -0.841458 -1.47829 0
M  V30 14786 O 1432.42 -1.10529 -1.59678 0
M  V30 14787 C 1429.55 -2.30429 -2.59845 0
M  V30 14788 C 1428.5 -3.46006 -2.5192 0
M  V30 14789 C 1427.83 -3.65047 -3.90697 0
M  V30 14790 C 1429.13 -4.80391 -2.04992 0
M  V30 14791 H 1430.82 -2.85099 -0.914272 0
M  V30 14792 H 1428.37 -1.37166 -0.438359 0
M  V30 14793 H 1430.32 -2.57525 -3.33555 0
M  V30 14794 H 1429.05 -1.39251 -2.95426 0
M  V30 14795 H 1427.7 -3.18991 -1.80667 0
M  V30 14796 H 1427.35 -2.71211 -4.2362 0
M  V30 14797 H 1427.05 -4.42796 -3.86271 0
M  V30 14798 H 1428.58 -3.94512 -4.66039 0
M  V30 14799 H 1429.99 -5.06561 -2.68456 0
M  V30 14800 H 1428.39 -5.61563 -2.11582 0
M  V30 14801 H 1429.46 -4.74416 -1.00288 0
M  V30 14802 N 1430.8 0.469154 -1.50455 0
M  V30 14803 C 1432.08 1.23033 -1.5206 0
M  V30 14804 C 1432.46 2.09412 -0.266388 0
M  V30 14805 O 1431.81 2.15837 0.750099 0
M  V30 14806 C 1432.02 2.05969 -2.81741 0
M  V30 14807 C 1433.36 2.64093 -3.32476 0
M  V30 14808 O 1434.39 2.1621 -2.83075 0
M  V30 14809 O 1433.25 3.51341 -4.18595 0
M  V30 14810 H 1430.34 0.55841 -0.610006 0
M  V30 14811 H 1432.89 0.480818 -1.62746 0
M  V30 14812 H 1431.66 1.42327 -3.64498 0
M  V30 14813 H 1431.28 2.8805 -2.74067 0
M  V30 14814 N 1432.28 1.40065 0.722464 0
M  V30 14815 C 1433.51 1.41066 1.50944 0
M  V30 14816 C 1433.92 0.00678083 1.89199 0
M  V30 14817 O 1433.26 -0.977992 1.55502 0
M  V30 14818 C 1433.32 2.23127 2.81877 0
M  V30 14819 C 1432.99 3.7162 2.65984 0
M  V30 14820 C 1433.98 4.64415 2.33698 0
M  V30 14821 C 1431.67 4.15355 2.82463 0
M  V30 14822 C 1433.66 5.98928 2.18091 0
M  V30 14823 C 1431.35 5.49941 2.66474 0
M  V30 14824 C 1432.35 6.41542 2.34335 0
M  V30 14825 O 1432.03 7.73647 2.18461 0
M  V30 14826 H 1431.77 0.483321 0.472628 0
M  V30 14827 H 1434.32 1.84664 0.899356 0
M  V30 14828 H 1432.55 1.74298 3.45192 0
M  V30 14829 H 1434.24 2.16153 3.43559 0
M  V30 14830 H 1435.01 4.31924 2.20606 0
M  V30 14831 H 1430.88 3.44381 3.06468 0
M  V30 14832 H 1434.43 6.70391 1.92928 0
M  V30 14833 H 1430.33 5.82019 2.79149 0
M  V30 14834 H 1431.09 7.84507 2.33434 0
M  V30 14835 N 1433.76 -0.95397 1.25448 0
M  V30 14836 C 1435 -1.70118 1.10399 0
M  V30 14837 C 1435.34 -1.90945 -0.354093 0
M  V30 14838 O 1434.61 -1.48088 -1.26096 0
M  V30 14839 C 1434.89 -3.08371 1.85955 0
M  V30 14840 C 1434.75 -2.9495 3.39595 0
M  V30 14841 C 1436.07 -4.08273 1.64321 0
M  V30 14842 H 1433.19 -0.617424 0.402438 0
M  V30 14843 H 1435.83 -1.10884 1.54288 0
M  V30 14844 H 1433.98 -3.58936 1.48651 0
M  V30 14845 H 1435.65 -2.51705 3.86578 0
M  V30 14846 H 1433.89 -2.30853 3.67273 0
M  V30 14847 H 1434.56 -3.92952 3.87676 0
M  V30 14848 H 1437.04 -3.6662 1.96796 0
M  V30 14849 H 1435.92 -5.03048 2.19622 0
M  V30 14850 H 1436.18 -4.38217 0.584685 0
M  V30 14851 N 1435.24 -1.07045 -1.15668 0
M  V30 14852 C 1436.2 -0.69198 -2.18505 0
M  V30 14853 C 1437.2 0.266185 -1.58582 0
M  V30 14854 O 1438.39 0.0475566 -1.74135 0
M  V30 14855 C 1435.52 -0.0194196 -3.40894 0
M  V30 14856 H 1436.71 -1.60241 -2.53501 0
M  V30 14857 H 1434.27 -0.866598 -1.30076 0
M  V30 14858 H 1435 0.903398 -3.11463 0
M  V30 14859 H 1434.79 -0.708519 -3.85645 0
M  V30 14860 H 1436.28 0.230829 -4.16962 0
M  V30 14861 N 1436.71 1.32449 -0.85411 0
M  V30 14862 C 1437.94 2.01171 -0.470505 0
M  V30 14863 C 1438.35 1.64356 0.937218 0
M  V30 14864 O 1437.69 0.860565 1.62296 0
M  V30 14865 C 1437.76 3.55583 -0.529241 0
M  V30 14866 C 1437.42 4.15824 -1.89576 0
M  V30 14867 C 1438.42 4.34091 -2.86114 0
M  V30 14868 C 1436.1 4.51911 -2.19276 0
M  V30 14869 C 1438.1 4.87612 -4.10504 0
M  V30 14870 C 1435.78 5.05137 -3.43919 0
M  V30 14871 C 1436.78 5.22936 -4.39349 0
M  V30 14872 O 1436.47 5.75024 -5.61785 0
M  V30 14873 H 1436.2 0.650645 -0.183405 0
M  V30 14874 H 1438.76 1.70015 -1.15257 0
M  V30 14875 H 1436.99 3.86131 0.209671 0
M  V30 14876 H 1438.67 4.05579 -0.161315 0
M  V30 14877 H 1439.44 4.06545 -2.64473 0
M  V30 14878 H 1435.32 4.37343 -1.45782 0
M  V30 14879 H 1438.86 5.0142 -4.84999 0
M  V30 14880 H 1434.76 5.32114 -3.6541 0
M  V30 14881 H 1435.53 5.93418 -5.63736 0
M  V30 14882 N 1438.19 0.611994 1.45232 0
M  V30 14883 C 1439.44 0.108911 2.02207 0
M  V30 14884 C 1439.77 -1.26219 1.47983 0
M  V30 14885 O 1439.02 -1.84718 0.646368 0
M  V30 14886 C 1439.32 0.0243361 3.57392 0
M  V30 14887 C 1438.99 1.33168 4.30787 0
M  V30 14888 C 1437.65 1.68978 4.50555 0
M  V30 14889 C 1440 2.19549 4.72703 0
M  V30 14890 C 1437.33 2.90913 5.09496 0
M  V30 14891 C 1439.68 3.40737 5.32993 0
M  V30 14892 C 1438.34 3.76794 5.50983 0
M  V30 14893 H 1437.61 0.0398534 0.739927 0
M  V30 14894 H 1440.26 0.794492 1.74241 0
M  V30 14895 H 1438.57 -0.74453 3.84661 0
M  V30 14896 H 1440.26 -0.381139 3.99185 0
M  V30 14897 H 1436.85 1.04296 4.15717 0
M  V30 14898 H 1441.04 1.93181 4.57159 0
M  V30 14899 H 1436.29 3.1895 5.21614 0
M  V30 14900 H 1440.47 4.07919 5.64425 0
M  V30 14901 H 1438.09 4.71364 5.96423 0
M  V30 14902 N 1439.67 -1.53632 0.351409 0
M  V30 14903 C 1440.6 -2.21598 -0.544952 0
M  V30 14904 C 1441.58 -1.20279 -1.09415 0
M  V30 14905 O 1442.76 -1.49129 -1.15295 0
M  V30 14906 C 1439.89 -2.89959 -1.75048 0
M  V30 14907 C 1438.94 -4.05232 -1.33002 0
M  V30 14908 S 1439.77 -5.34399 -0.343204 0
M  V30 14909 C 1440.93 -6.06266 -1.55538 0
M  V30 14910 H 1441.16 -2.97282 0.0323028 0
M  V30 14911 H 1438.69 -1.53804 0.13549 0
M  V30 14912 H 1440.65 -3.29961 -2.44204 0
M  V30 14913 H 1439.31 -2.14025 -2.29896 0
M  V30 14914 H 1438.5 -4.52027 -2.22907 0
M  V30 14915 H 1438.11 -3.67046 -0.717841 0
M  V30 14916 H 1440.4 -6.30137 -2.48865 0
M  V30 14917 H 1441.34 -6.9904 -1.12907 0
M  V30 14918 H 1441.75 -5.36526 -1.755 0
M  V30 14919 N 1441.15 -0.0802183 -1.57396 0
M  V30 14920 C 1442.56 0.451183 -1.81166 0
M  V30 14921 C 1442.91 1.69112 -0.994764 0
M  V30 14922 O 1442.03 2.15281 -0.219739 0
M  V30 14923 C 1442.63 0.825324 -3.28594 0
M  V30 14924 C 1441.19 1.30154 -3.53181 0
M  V30 14925 C 1440.34 0.290846 -2.75771 0
M  V30 14926 H 1443.29 -0.305829 -1.55725 0
M  V30 14927 H 1443.31 1.68608 -3.41104 0
M  V30 14928 H 1442.82 -0.0773119 -3.88023 0
M  V30 14929 H 1440.92 2.22239 -2.99066 0
M  V30 14930 H 1441.03 1.27365 -4.6186 0
M  V30 14931 H 1439.4 0.769894 -2.42785 0
M  V30 14932 H 1440.18 -0.604209 -3.37941 0
M  V30 14933 N 1442.63 1.56409 0.193394 0
M  V30 14934 C 1443.56 1.97707 1.24234 0
M  V30 14935 C 1444.54 0.849286 1.47381 0
M  V30 14936 O 1445.72 1.11374 1.59089 0
M  V30 14937 C 1442.85 2.31804 2.5862 0
M  V30 14938 C 1441.81 3.47337 2.50082 0
M  V30 14939 C 1441.13 3.67114 3.88756 0
M  V30 14940 C 1442.43 4.81472 2.02441 0
M  V30 14941 H 1444.13 2.8558 0.89914 0
M  V30 14942 H 1441.67 1.37396 0.431078 0
M  V30 14943 H 1443.62 2.5929 3.32185 0
M  V30 14944 H 1442.35 1.40816 2.94684 0
M  V30 14945 H 1441.01 3.19944 1.78973 0
M  V30 14946 H 1440.66 2.73454 4.22175 0
M  V30 14947 H 1440.36 4.44838 3.83918 0
M  V30 14948 H 1441.88 3.96978 4.6394 0
M  V30 14949 H 1443.29 5.07978 2.65766 0
M  V30 14950 H 1441.69 5.62677 2.08601 0
M  V30 14951 H 1442.76 4.74941 0.977704 0
M  V30 14952 N 1444.1 -0.461169 1.50702 0
M  V30 14953 C 1445.33 -1.24019 1.66235 0
M  V30 14954 C 1445.75 -1.84827 0.349388 0
M  V30 14955 O 1445.11 -1.67743 -0.687888 0
M  V30 14956 C 1445.16 -2.31743 2.76274 0
M  V30 14957 O 1444.26 -3.3664 2.38217 0
M  V30 14958 H 1443.6 -0.364424 0.55506 0
M  V30 14959 H 1446.13 -0.547636 1.97135 0
M  V30 14960 H 1446.14 -2.76902 2.99649 0
M  V30 14961 H 1444.82 -1.86858 3.7156 0
M  V30 14962 H 1443.4 -2.97123 2.25327 0
M  V30 14963 N 1445.58 -1.40446 -0.715026 0
M  V30 14964 C 1446.83 -1.3848 -1.47199 0
M  V30 14965 C 1447.15 0.0119198 -1.94996 0
M  V30 14966 O 1446.42 0.966772 -1.70383 0
M  V30 14967 H 1445 -0.509669 -0.54612 0
M  V30 14968 H 1447.66 -1.75505 -0.847588 0
M  V30 14969 H 1446.76 -2.06002 -2.34456 0
M  V30 14970 N 1447.06 0.947303 -1.25952 0
M  V30 14971 C 1448.34 1.66964 -1.01894 0
M  V30 14972 C 1448.72 2.06192 0.452555 0
M  V30 14973 O 1448.06 1.78098 1.43156 0
M  V30 14974 C 1448.27 2.88643 -1.96179 0
M  V30 14975 C 1449.62 3.60432 -2.24441 0
M  V30 14976 O 1450.65 2.98737 -1.93996 0
M  V30 14977 O 1449.51 4.7154 -2.76247 0
M  V30 14978 H 1446.6 0.730875 -0.386976 0
M  V30 14979 H 1449.15 0.999577 -1.37137 0
M  V30 14980 H 1447.92 2.565 -2.95506 0
M  V30 14981 H 1447.54 3.63377 -1.61379 0
M  V30 14982 N 1448.54 1.07657 1.15099 0
M  V30 14983 C 1449.77 0.821631 1.89559 0
M  V30 14984 C 1450.18 -0.629174 1.78432 0
M  V30 14985 O 1449.52 -1.44353 1.13613 0
M  V30 14986 C 1449.58 1.15473 3.4045 0
M  V30 14987 C 1449.25 2.60675 3.75363 0
M  V30 14988 C 1450.24 3.58923 3.76125 0
M  V30 14989 C 1447.93 2.96333 4.05576 0
M  V30 14990 C 1449.92 4.90863 4.06611 0
M  V30 14991 C 1447.61 4.28469 4.35727 0
M  V30 14992 C 1448.61 5.25543 4.36226 0
M  V30 14993 O 1448.29 6.55305 4.65651 0
M  V30 14994 H 1448.03 0.296469 0.607521 0
M  V30 14995 H 1450.58 1.43722 1.46742 0
M  V30 14996 H 1448.81 0.482117 3.83683 0
M  V30 14997 H 1450.5 0.881832 3.96205 0
M  V30 14998 H 1451.27 3.32718 3.52879 0
M  V30 14999 H 1447.14 2.2142 4.04344 0
M  V30 15000 H 1450.69 5.66626 4.06916 0
M  V30 15001 H 1446.59 4.54425 4.58441 0
M  V30 15002 H 1447.35 6.60503 4.83402 0
M  V30 15003 N 1450.02 -1.31994 0.861122 0
M  V30 15004 C 1451.26 -1.97712 0.477669 0
M  V30 15005 C 1451.62 -1.66878 -0.957573 0
M  V30 15006 O 1450.91 -0.950114 -1.66383 0
M  V30 15007 C 1451.1 -3.51232 0.661135 0
M  V30 15008 C 1450.93 -3.96985 2.11266 0
M  V30 15009 C 1449.7 -4.23753 2.75247 0
M  V30 15010 C 1451.9 -4.11577 3.08397 0
M  V30 15011 N 1449.88 -4.55798 4.11243 0
M  V30 15012 C 1451.25 -4.47233 4.29398 0
M  V30 15013 C 1453.31 -3.9393 3.04506 0
M  V30 15014 C 1452.01 -4.67083 5.47015 0
M  V30 15015 C 1454.04 -4.14968 4.21373 0
M  V30 15016 C 1453.4 -4.50947 5.41134 0
M  V30 15017 H 1449.5 -0.749334 0.223657 0
M  V30 15018 H 1452.08 -1.59691 1.11387 0
M  V30 15019 H 1450.25 -3.88362 0.0545925 0
M  V30 15020 H 1451.99 -4.03946 0.246941 0
M  V30 15021 H 1448.74 -4.16064 2.26248 0
M  V30 15022 H 1449.17 -4.75995 4.81412 0
M  V30 15023 H 1453.81 -3.6521 2.1303 0
M  V30 15024 H 1451.53 -4.94655 6.39016 0
M  V30 15025 H 1455.11 -4.02809 4.19805 0
M  V30 15026 H 1453.99 -4.66898 6.3006 0
M  V30 15027 N 1451.49 -0.619688 -1.44906 0
M  V30 15028 C 1452.72 -0.12618 -2.06214 0
M  V30 15029 C 1453.13 1.19978 -1.46294 0
M  V30 15030 O 1452.48 1.74437 -0.575956 0
M  V30 15031 C 1452.54 0.075085 -3.59422 0
M  V30 15032 C 1452.2 -1.17094 -4.41744 0
M  V30 15033 C 1453.2 -2.09196 -4.75955 0
M  V30 15034 C 1450.88 -1.40315 -4.82304 0
M  V30 15035 C 1452.88 -3.22839 -5.49594 0
M  V30 15036 C 1450.56 -2.54257 -5.55695 0
M  V30 15037 C 1451.56 -3.45346 -5.89258 0
M  V30 15038 O 1451.25 -4.57302 -6.61158 0
M  V30 15039 H 1450.98 -0.0715975 -0.672198 0
M  V30 15040 H 1453.54 -0.850858 -1.86948 0
M  V30 15041 H 1451.77 0.854787 -3.77134 0
M  V30 15042 H 1453.46 0.521707 -4.02533 0
M  V30 15043 H 1454.22 -1.92486 -4.45168 0
M  V30 15044 H 1450.1 -0.703094 -4.55607 0
M  V30 15045 H 1453.64 -3.93959 -5.7571 0
M  V30 15046 H 1449.54 -2.70915 -5.85897 0
M  V30 15047 H 1450.31 -4.56138 -6.79618 0
M  V30 15048 N 1452.97 1.53444 -0.359552 0
M  V30 15049 C 1454.22 2.00769 0.231564 0
M  V30 15050 C 1454.54 1.2487 1.49775 0
M  V30 15051 O 1453.81 0.360284 1.92558 0
M  V30 15052 H 1452.39 0.741732 0.0885581 0
M  V30 15053 H 1455.05 1.88785 -0.484397 0
M  V30 15054 H 1454.15 3.0865 0.462789 0
M  V30 15055 N 1454.45 0.0885642 1.57351 0
M  V30 15056 C 1455.4 -0.890284 2.14888 0
M  V30 15057 C 1456.39 -1.29671 1.09004 0
M  V30 15058 O 1457.6 -1.272 1.27359 0
M  V30 15059 H 1453.97 -0.305107 0.687324 0
M  V30 15060 H 1455.94 -0.380243 2.95967 0
M  V30 15061 C 1454.69 -2.14216 2.73874 0
M  V30 15062 H 1454.02 -1.8383 3.55031 0
M  V30 15063 H 1455.46 -2.8078 3.17708 0
M  V30 15064 C 1453.92 -2.91186 1.69448 0
M  V30 15065 O 1454.45 -3.85494 1.12949 0
M  V30 15066 N 1452.65 -2.54603 1.40091 0
M  V30 15067 H 1452.2 -1.77984 1.86225 0
M  V30 15068 H 1452.16 -3.06403 0.704577 0
M  V30 15069 N 1455.93 -1.56509 -0.185096 0
M  V30 15070 C 1457.15 -1.85683 -0.923941 0
M  V30 15071 C 1457.58 -0.673315 -1.75636 0
M  V30 15072 O 1456.94 0.3778 -1.7732 0
M  V30 15073 C 1456.98 -3.13165 -1.78774 0
M  V30 15074 O 1456.09 -2.9442 -2.88775 0
M  V30 15075 H 1455.43 -0.611139 -0.259624 0
M  V30 15076 H 1457.96 -2.0374 -0.187393 0
M  V30 15077 H 1457.97 -3.44216 -2.19042 0
M  V30 15078 H 1456.64 -3.98922 -1.17619 0
M  V30 15079 H 1455.22 -2.7469 -2.5219 0
M  V30 15080 N 1457.41 0.45317 -1.50944 0
M  V30 15081 C 1458.82 1.03354 -1.55482 0
M  V30 15082 C 1459.17 1.92701 -0.368873 0
M  V30 15083 O 1458.29 2.10153 0.516208 0
M  V30 15084 C 1458.89 1.88118 -2.81775 0
M  V30 15085 C 1457.45 2.41232 -2.88936 0
M  V30 15086 C 1456.59 1.20032 -2.49975 0
M  V30 15087 H 1459.55 0.235059 -1.5695 0
M  V30 15088 H 1459.57 2.73394 -2.64643 0
M  V30 15089 H 1459.08 1.23064 -3.68072 0
M  V30 15090 H 1457.18 3.09788 -2.07032 0
M  V30 15091 H 1457.29 2.75113 -3.92237 0
M  V30 15092 H 1455.66 1.54072 -2.02815 0
M  V30 15093 H 1456.44 0.56612 -3.386 0
M  V30 15094 N 1458.88 1.40823 0.707568 0
M  V30 15095 C 1459.82 1.37646 1.83265 0
M  V30 15096 C 1460.83 0.280547 1.60365 0
M  V30 15097 O 1462.02 0.541453 1.7009 0
M  V30 15098 C 1459.12 1.12121 3.19816 0
M  V30 15099 C 1458.29 2.33522 3.69846 0
M  V30 15100 C 1457.35 2.04035 4.85032 0
M  V30 15101 O 1456.38 2.76971 4.97268 0
M  V30 15102 N 1457.58 1.02322 5.71411 0
M  V30 15103 H 1460.34 2.34612 1.86486 0
M  V30 15104 H 1457.9 1.35281 0.889424 0
M  V30 15105 H 1459.9 0.903663 3.94482 0
M  V30 15106 H 1458.47 0.237941 3.11693 0
M  V30 15107 H 1457.69 2.71055 2.86221 0
M  V30 15108 H 1458.97 3.14436 4.00009 0
M  V30 15109 H 1458.37 0.419311 5.64144 0
M  V30 15110 H 1456.93 0.865571 6.46027 0
M  V30 15111 N 1460.36 -0.94061 1.26453 0
M  V30 15112 C 1461.64 -1.66421 1.02779 0
M  V30 15113 C 1462.02 -2.06429 -0.441614 0
M  V30 15114 O 1461.37 -1.78854 -1.42209 0
M  V30 15115 C 1461.58 -2.87599 1.97707 0
M  V30 15116 C 1462.93 -3.59237 2.26349 0
M  V30 15117 O 1463.95 -2.97704 1.95577 0
M  V30 15118 O 1462.81 -4.70068 2.78744 0
M  V30 15119 H 1459.9 -0.728813 0.390846 0
M  V30 15120 H 1462.45 -0.99229 1.37665 0
M  V30 15121 H 1461.22 -2.54929 2.96862 0
M  V30 15122 H 1460.84 -3.62516 1.63303 0
M  V30 15123 N 1461.84 -1.08266 -1.14527 0
M  V30 15124 C 1462.79 -0.711332 -2.19565 0
M  V30 15125 C 1463.76 0.301774 -1.63336 0
M  V30 15126 O 1464.94 0.186109 -1.8989 0
M  V30 15127 C 1462.08 -0.125255 -3.44873 0
M  V30 15128 C 1461.2 -1.19096 -4.15259 0
M  V30 15129 C 1460.33 -0.568901 -5.28145 0
M  V30 15130 C 1459.37 -1.61675 -5.90362 0
M  V30 15131 N 1458.51 -1.01659 -6.94701 0
M  V30 15132 H 1463.35 -1.61137 -2.50677 0
M  V30 15133 H 1460.88 -0.805286 -1.231 0
M  V30 15134 H 1462.84 0.232247 -4.16553 0
M  V30 15135 H 1461.47 0.738101 -3.14248 0
M  V30 15136 H 1460.52 -1.66591 -3.41982 0
M  V30 15137 H 1461.84 -1.98508 -4.57598 0
M  V30 15138 H 1460.99 -0.159563 -6.0649 0
M  V30 15139 H 1459.73 0.256884 -4.87023 0
M  V30 15140 H 1458.73 -2.03576 -5.10722 0
M  V30 15141 H 1459.96 -2.44498 -6.33559 0
M  V30 15142 H 1457.9 -0.211872 -6.55658 0
M  V30 15143 H 1457.82 -1.74781 -7.35518 0
M  V30 15144 H 1459.09 -0.63306 -7.76925 0
M  V30 15145 N 1463.32 1.31536 -0.86811 0
M  V30 15146 C 1464.28 2.26849 -0.327456 0
M  V30 15147 C 1465.28 1.52142 0.520514 0
M  V30 15148 O 1466.47 1.71044 0.330088 0
M  V30 15149 C 1463.6 3.36673 0.535174 0
M  V30 15150 H 1464.8 2.76184 -1.16886 0
M  V30 15151 H 1462.35 1.42437 -0.643545 0
M  V30 15152 H 1463.09 2.92627 1.39785 0
M  V30 15153 H 1462.87 3.92034 -0.0719835 0
M  V30 15154 H 1464.36 4.07658 0.905786 0
M  V30 15155 N 1464.8 0.627364 1.44575 0
M  V30 15156 C 1465.75 -0.0920488 2.32418 0
M  V30 15157 C 1466.74 -0.839633 1.47128 0
M  V30 15158 O 1467.95 -0.752958 1.63495 0
M  V30 15159 H 1464.32 -0.0485336 0.750432 0
M  V30 15160 H 1466.29 0.666959 2.90851 0
M  V30 15161 C 1465.04 -1.06262 3.31064 0
M  V30 15162 H 1464.36 -0.4968 3.96701 0
M  V30 15163 H 1465.8 -1.53556 3.95217 0
M  V30 15164 C 1464.26 -2.14601 2.59707 0
M  V30 15165 O 1464.79 -3.2263 2.39317 0
M  V30 15166 N 1463 -1.90431 2.19509 0
M  V30 15167 H 1462.55 -1.02584 2.36293 0
M  V30 15168 H 1462.5 -2.6312 1.72091 0
M  V30 15169 N 1466.28 -1.53251 0.367684 0
M  V30 15170 C 1467.5 -2.0618 -0.224645 0
M  V30 15171 C 1467.93 -1.23927 -1.41505 0
M  V30 15172 O 1467.28 -0.258858 -1.79443 0
M  V30 15173 C 1467.33 -3.55671 -0.594171 0
M  V30 15174 O 1466.44 -3.76132 -1.69112 0
M  V30 15175 H 1465.78 -0.663218 -0.0322099 0
M  V30 15176 H 1468.31 -1.97646 0.528897 0
M  V30 15177 H 1468.32 -3.98734 -0.864589 0
M  V30 15178 H 1466.99 -4.14982 0.276254 0
M  V30 15179 H 1465.57 -3.44965 -1.41609 0
M  V30 15180 N 1467.75 -0.0969077 -1.57302 0
M  V30 15181 C 1469 0.566072 -1.93594 0
M  V30 15182 C 1469.32 1.69226 -0.980922 0
M  V30 15183 O 1470.52 2.41651 -1.23763 0
M  V30 15184 C 1468.98 1.05832 -3.43988 0
M  V30 15185 C 1468.59 -0.038207 -4.47984 0
M  V30 15186 C 1470.33 1.69393 -3.89238 0
M  V30 15187 C 1468.24 0.4695 -5.89533 0
M  V30 15188 H 1467.17 0.215226 -0.72263 0
M  V30 15189 H 1469.82 -0.173202 -1.82681 0
M  V30 15190 H 1468.2 1.85134 -3.50059 0
M  V30 15191 H 1469.37 -0.813761 -4.53558 0
M  V30 15192 H 1467.69 -0.579113 -4.12353 0
M  V30 15193 H 1470.29 2.08454 -4.92393 0
M  V30 15194 H 1470.63 2.56381 -3.27986 0
M  V30 15195 H 1471.16 0.966709 -3.85875 0
M  V30 15196 H 1467.9 -0.363802 -6.5449 0
M  V30 15197 H 1467.42 1.21202 -5.87427 0
M  V30 15198 H 1469.1 0.937885 -6.40166 0
M  V30 15199 N 1469.23 1.56605 0.176793 0
M  V30 15200 C 1470.19 1.95109 1.20271 0
M  V30 15201 C 1471.19 0.83414 1.37473 0
M  V30 15202 O 1472.38 1.10128 1.34972 0
M  V30 15203 C 1469.52 2.24112 2.56878 0
M  V30 15204 H 1470.71 2.86909 0.87312 0
M  V30 15205 H 1468.26 1.50578 0.419033 0
M  V30 15206 H 1469 1.35009 2.94861 0
M  V30 15207 H 1468.78 3.05523 2.45761 0
M  V30 15208 H 1470.27 2.54842 3.30825 0
M  V30 15209 N 1470.71 -0.445159 1.51182 0
M  V30 15210 C 1471.62 -1.5651 1.74762 0
M  V30 15211 C 1472.64 -1.62134 0.631542 0
M  V30 15212 O 1473.81 -1.79522 0.912898 0
M  V30 15213 C 1470.88 -2.92552 1.86049 0
M  V30 15214 C 1469.94 -2.97108 3.0988 0
M  V30 15215 C 1469.17 -4.2666 3.2062 0
M  V30 15216 O 1469.39 -5.18608 2.37491 0
M  V30 15217 O 1468.33 -4.3734 4.13542 0
M  V30 15218 H 1472.15 -1.3953 2.6975 0
M  V30 15219 H 1469.74 -0.627363 1.3559 0
M  V30 15220 H 1471.62 -3.73304 1.95504 0
M  V30 15221 H 1470.3 -3.09676 0.94248 0
M  V30 15222 H 1469.2 -2.15338 3.05909 0
M  V30 15223 H 1470.54 -2.84927 4.01345 0
M  V30 15224 N 1472.19 -1.41197 -0.700089 0
M  V30 15225 C 1473.15 -1.42419 -1.79582 0
M  V30 15226 C 1474.15 -0.31551 -1.57674 0
M  V30 15227 O 1475.34 -0.575173 -1.64431 0
M  V30 15228 C 1472.47 -1.23114 -3.17893 0
M  V30 15229 H 1473.67 -2.39956 -1.79892 0
M  V30 15230 H 1471.22 -1.27273 -0.907271 0
M  V30 15231 H 1471.95 -0.263992 -3.23224 0
M  V30 15232 H 1471.74 -2.03437 -3.35195 0
M  V30 15233 H 1473.23 -1.26793 -3.97886 0
M  V30 15234 N 1473.67 0.933891 -1.2695 0
M  V30 15235 C 1474.91 1.67539 -1.1231 0
M  V30 15236 C 1475.23 1.92765 0.331788 0
M  V30 15237 O 1476.43 2.6481 0.598983 0
M  V30 15238 C 1474.89 3.01722 -1.96194 0
M  V30 15239 C 1474.5 2.84216 -3.46302 0
M  V30 15240 C 1476.24 3.79513 -1.90185 0
M  V30 15241 C 1474.15 4.13916 -4.22407 0
M  V30 15242 H 1473.08 0.62839 -0.416704 0
M  V30 15243 H 1475.73 1.03801 -1.5132 0
M  V30 15244 H 1474.11 3.66482 -1.50023 0
M  V30 15245 H 1475.29 2.28261 -4.00292 0
M  V30 15246 H 1473.6 2.1986 -3.53625 0
M  V30 15247 H 1476.2 4.75615 -2.44325 0
M  V30 15248 H 1476.54 4.07019 -0.874129 0
M  V30 15249 H 1477.07 3.21539 -2.34217 0
M  V30 15250 H 1473.81 3.91591 -5.25677 0
M  V30 15251 H 1473.33 4.69558 -3.73196 0
M  V30 15252 H 1475.01 4.82322 -4.31248 0
M  V30 15253 N 1475.14 1.08871 1.13951 0
M  V30 15254 C 1476.09 0.71755 2.21255 0
M  V30 15255 C 1477.09 -0.278901 1.67088 0
M  V30 15256 O 1478.29 -0.140964 1.79447 0
M  V30 15257 H 1474.67 0.214032 0.720898 0
M  V30 15258 H 1476.64 1.63182 2.49828 0
M  V30 15259 C 1475.39 0.148098 3.47384 0
M  V30 15260 H 1474.71 0.906028 3.89398 0
M  V30 15261 H 1476.15 -0.0737451 4.23936 0
M  V30 15262 C 1474.61 -1.11524 3.17906 0
M  V30 15263 O 1475.14 -2.19937 3.3614 0
M  V30 15264 N 1473.34 -1.0275 2.71829 0
M  V30 15265 H 1472.89 -0.145193 2.5719 0
M  V30 15266 H 1472.85 -1.87353 2.5248 0
M  V30 15267 N 1476.62 -1.31073 0.875073 0
M  V30 15268 C 1478.04 -1.49162 0.567697 0
M  V30 15269 C 1478.24 -1.80435 -0.896969 0
M  V30 15270 O 1477.29 -1.88604 -1.67883 0
M  V30 15271 C 1478.61 -2.6219 1.47231 0
M  V30 15272 C 1480.15 -2.76072 1.47489 0
M  V30 15273 C 1480.63 -3.92202 2.36519 0
M  V30 15274 N 1482.12 -3.99497 2.34428 0
M  V30 15275 C 1482.86 -4.88639 3.00033 0
M  V30 15276 N 1482.35 -5.82647 3.74826 0
M  V30 15277 N 1484.14 -4.81926 2.89315 0
M  V30 15278 H 1476.3 -1.09045 1.82272 0
M  V30 15279 H 1478.56 -0.539291 0.77966 0
M  V30 15280 H 1478.26 -2.45872 2.51475 0
M  V30 15281 H 1478.14 -3.58446 1.17459 0
M  V30 15282 H 1480.53 -2.91801 0.440008 0
M  V30 15283 H 1480.61 -1.80468 1.81287 0
M  V30 15284 H 1480.25 -3.77231 3.40087 0
M  V30 15285 H 1480.18 -4.87125 2.00043 0
M  V30 15286 H 1482.67 -3.32241 1.80067 0
M  V30 15287 H 1482.98 -6.47406 4.22001 0
M  V30 15288 H 1481.33 -5.82609 3.78934 0
M  V30 15289 H 1484.52 -4.07462 2.30418 0
M  V30 15290 H 1484.69 -5.51192 3.40722 0
M  V30 15291 N 1478.1 -0.635022 -1.4424 0
M  V30 15292 C 1479.33 -0.146549 -2.06882 0
M  V30 15293 C 1479.75 1.17143 -1.4717 0
M  V30 15294 O 1479.11 1.71952 -0.574636 0
M  V30 15295 C 1479.16 -0.0494694 -3.60566 0
M  V30 15296 O 1478.26 0.993423 -4.00256 0
M  V30 15297 H 1477.6 -0.0865505 -0.658335 0
M  V30 15298 H 1480.13 -0.872803 -1.85049 0
M  V30 15299 H 1480.14 0.139839 -4.0776 0
M  V30 15300 H 1478.82 -1.01169 -4.03407 0
M  V30 15301 H 1477.39 0.778372 -3.64686 0
M  V30 15302 N 1479.58 1.53054 -0.375806 0
M  V30 15303 C 1480.83 2.01003 0.210257 0
M  V30 15304 C 1481.15 1.26451 1.48442 0
M  V30 15305 O 1480.42 0.380687 1.92166 0
M  V30 15306 H 1479 0.74263 0.0806861 0
M  V30 15307 H 1481.66 1.8826 -0.504393 0
M  V30 15308 H 1480.76 3.09123 0.430027 0
M  V30 15309 N 1481.06 0.105248 1.57248 0
M  V30 15310 C 1481.99 -0.846915 2.176 0
M  V30 15311 C 1482.97 -1.28706 1.11216 0
M  V30 15312 O 1484.15 -1.35213 1.39396 0
M  V30 15313 C 1481.28 -2.10228 2.76445 0
M  V30 15314 C 1480.24 -1.80041 3.8829 0
M  V30 15315 C 1479.56 -3.12491 4.33882 0
M  V30 15316 C 1480.86 -1.07943 5.11024 0
M  V30 15317 H 1482.56 -0.344052 2.97417 0
M  V30 15318 H 1480.1 -0.164045 1.43063 0
M  V30 15319 H 1482.06 -2.77284 3.17319 0
M  V30 15320 H 1480.78 -2.62815 1.93897 0
M  V30 15321 H 1479.44 -1.15379 3.4797 0
M  V30 15322 H 1479.09 -3.62985 3.48211 0
M  V30 15323 H 1478.79 -2.93072 5.09296 0
M  V30 15324 H 1480.31 -3.80688 4.77398 0
M  V30 15325 H 1481.72 -1.65127 5.49004 0
M  V30 15326 H 1480.12 -0.986674 5.91933 0
M  V30 15327 H 1481.19 -0.0638511 4.84858 0
M  V30 15328 N 1482.53 -1.56697 -0.168486 0
M  V30 15329 C 1483.76 -1.86652 -0.904195 0
M  V30 15330 C 1484.18 -0.691906 -1.74912 0
M  V30 15331 O 1483.54 0.358971 -1.77711 0
M  V30 15332 C 1483.59 -3.15043 -1.75442 0
M  V30 15333 O 1482.69 -2.97466 -2.85636 0
M  V30 15334 H 1482.04 -0.613859 -0.253128 0
M  V30 15335 H 1484.57 -2.03927 -0.165773 0
M  V30 15336 H 1484.58 -3.4652 -2.15378 0
M  V30 15337 H 1483.25 -4.00147 -1.13381 0
M  V30 15338 H 1481.83 -2.7735 -2.49262 0
M  V30 15339 N 1484.01 0.437135 -1.51416 0
M  V30 15340 C 1484.96 1.53061 -1.72745 0
M  V30 15341 C 1485.93 1.56045 -0.569149 0
M  V30 15342 O 1487.11 1.73052 -0.803602 0
M  V30 15343 C 1484.25 2.90774 -1.85861 0
M  V30 15344 C 1483.37 2.97318 -3.1341 0
M  V30 15345 C 1482.5 4.26156 -3.1712 0
M  V30 15346 C 1481.54 4.26568 -4.38983 0
M  V30 15347 N 1480.68 5.4693 -4.40241 0
M  V30 15348 H 1485.52 1.34177 -2.66084 0
M  V30 15349 H 1483.06 0.651803 -1.31871 0
M  V30 15350 H 1485.01 3.7068 -1.91447 0
M  V30 15351 H 1483.64 3.08216 -0.959306 0
M  V30 15352 H 1482.7 2.10074 -3.17132 0
M  V30 15353 H 1484.01 2.93485 -4.03321 0
M  V30 15354 H 1483.16 5.14435 -3.21623 0
M  V30 15355 H 1481.9 4.32646 -2.25098 0
M  V30 15356 H 1480.91 3.36681 -4.34656 0
M  V30 15357 H 1482.13 4.21741 -5.3227 0
M  V30 15358 H 1480.08 5.54141 -3.51089 0
M  V30 15359 H 1479.99 5.44977 -5.23962 0
M  V30 15360 H 1481.26 6.37241 -4.48937 0
M  V30 15361 N 1485.49 1.41566 0.692592 0
M  V30 15362 C 1486.91 1.24101 1.00355 0
M  V30 15363 C 1487.11 0.132485 2.01064 0
M  V30 15364 O 1486.16 -0.502142 2.47457 0
M  V30 15365 C 1487.48 2.59142 1.52532 0
M  V30 15366 C 1489.02 2.66348 1.64401 0
M  V30 15367 C 1489.5 4.01713 2.19978 0
M  V30 15368 N 1490.99 4.03575 2.27335 0
M  V30 15369 C 1491.72 5.05118 2.71373 0
M  V30 15370 N 1491.22 6.1705 3.14994 0
M  V30 15371 N 1493.01 4.92479 2.70963 0
M  V30 15372 H 1485.16 2.12385 0.0254859 0
M  V30 15373 H 1487.43 0.945118 0.0738684 0
M  V30 15374 H 1487.13 3.41026 0.85989 0
M  V30 15375 H 1487.01 2.81833 2.50699 0
M  V30 15376 H 1489.39 1.84821 2.30055 0
M  V30 15377 H 1489.48 2.47464 0.647717 0
M  V30 15378 H 1489.12 4.8369 1.54939 0
M  V30 15379 H 1489.05 4.1794 3.20365 0
M  V30 15380 H 1491.54 3.2276 1.96556 0
M  V30 15381 H 1491.85 6.90399 3.47231 0
M  V30 15382 H 1490.2 6.20582 3.12895 0
M  V30 15383 H 1493.39 4.04117 2.36236 0
M  V30 15384 H 1493.56 5.71752 3.04965 0
M  V30 15385 N 1486.97 -0.927146 1.27443 0
M  V30 15386 C 1487.88 -2.06122 1.12031 0
M  V30 15387 C 1488.89 -1.73928 0.0501979 0
M  V30 15388 O 1490.07 -1.99756 0.256796 0
M  V30 15389 C 1487.14 -3.3805 0.769634 0
M  V30 15390 C 1486.2 -3.83938 1.92068 0
M  V30 15391 C 1485.43 -5.0957 1.58664 0
M  V30 15392 O 1485.65 -5.6825 0.494789 0
M  V30 15393 O 1484.59 -5.50844 2.42599 0
M  V30 15394 H 1488.41 -2.22037 2.07203 0
M  V30 15395 H 1486 -1.04638 1.06636 0
M  V30 15396 H 1487.88 -4.17286 0.587423 0
M  V30 15397 H 1486.55 -3.2334 -0.152557 0
M  V30 15398 H 1485.46 -3.05587 2.15795 0
M  V30 15399 H 1486.79 -4.0319 2.8231 0
M  V30 15400 N 1488.45 -1.09474 -1.13372 0
M  V30 15401 C 1489.68 -0.851685 -1.88228 0
M  V30 15402 C 1490.08 0.600707 -1.79411 0
M  V30 15403 O 1489.43 1.42527 -1.15895 0
M  V30 15404 C 1489.49 -1.20874 -3.3857 0
M  V30 15405 C 1489.15 -2.66614 -3.71168 0
M  V30 15406 C 1490.15 -3.64862 -3.70367 0
M  V30 15407 C 1487.84 -3.02748 -4.0081 0
M  V30 15408 C 1489.83 -4.97269 -3.98751 0
M  V30 15409 C 1487.52 -4.35347 -4.28855 0
M  V30 15410 C 1488.51 -5.32417 -4.2781 0
M  V30 15411 O 1488.2 -6.6263 -4.55167 0
M  V30 15412 H 1487.93 -0.306097 -0.602728 0
M  V30 15413 H 1490.49 -1.46038 -1.44437 0
M  V30 15414 H 1488.72 -0.543096 -3.82867 0
M  V30 15415 H 1490.41 -0.944753 -3.94752 0
M  V30 15416 H 1491.17 -3.3829 -3.47541 0
M  V30 15417 H 1487.05 -2.27824 -4.00771 0
M  V30 15418 H 1490.6 -5.73028 -3.9785 0
M  V30 15419 H 1486.49 -4.61661 -4.51153 0
M  V30 15420 H 1487.26 -6.6811 -4.72833 0
M  V30 15421 N 1489.92 1.30607 -0.882012 0
M  V30 15422 C 1491.17 1.96256 -0.498964 0
M  V30 15423 C 1491.5 1.69651 0.951259 0
M  V30 15424 O 1490.75 0.992303 1.68677 0
M  V30 15425 C 1491.05 3.50136 -0.716929 0
M  V30 15426 C 1490.72 3.96785 -2.14178 0
M  V30 15427 C 1489.38 4.09234 -2.53142 0
M  V30 15428 C 1491.73 4.21154 -3.07048 0
M  V30 15429 C 1489.06 4.43411 -3.84192 0
M  V30 15430 C 1491.41 4.56799 -4.37627 0
M  V30 15431 C 1490.08 4.67456 -4.76488 0
M  V30 15432 H 1489.35 0.718153 -0.182584 0
M  V30 15433 H 1491.99 1.55527 -1.1173 0
M  V30 15434 H 1490.3 3.91797 -0.0155388 0
M  V30 15435 H 1492 3.98998 -0.400196 0
M  V30 15436 H 1488.59 3.876 -1.82932 0
M  V30 15437 H 1492.77 4.1102 -2.78167 0
M  V30 15438 H 1488.03 4.49861 -4.14047 0
M  V30 15439 H 1492.2 4.74607 -5.09629 0
M  V30 15440 H 1489.83 4.93694 -5.78074 0
M  V30 15441 N 1491.4 0.642663 1.43901 0
M  V30 15442 C 1492.65 0.152003 2.0223 0
M  V30 15443 C 1492.98 -1.22711 1.50518 0
M  V30 15444 O 1492.26 -1.817 0.693937 0
M  V30 15445 C 1492.54 0.151278 3.59782 0
M  V30 15446 C 1492.39 1.56356 4.2175 0
M  V30 15447 C 1493.71 -0.518016 4.37041 0
M  V30 15448 H 1490.83 0.0567094 0.734815 0
M  V30 15449 H 1493.47 0.821337 1.7133 0
M  V30 15450 H 1491.62 -0.418679 3.86237 0
M  V30 15451 H 1493.29 2.18329 4.06362 0
M  V30 15452 H 1491.54 2.11401 3.78803 0
M  V30 15453 H 1492.21 1.51499 5.30803 0
M  V30 15454 H 1494.68 -0.0331947 4.16087 0
M  V30 15455 H 1493.56 -0.487754 5.46729 0
M  V30 15456 H 1493.82 -1.59036 4.12504 0
M  V30 15457 N 1492.88 -1.52852 0.383918 0
M  V30 15458 C 1494.13 -2.0151 -0.199989 0
M  V30 15459 C 1494.46 -1.27058 -1.47263 0
M  V30 15460 O 1493.71 -0.357819 -1.92401 0
M  V30 15461 C 1494.01 -3.53602 -0.519674 0
M  V30 15462 C 1493.68 -4.46032 0.660789 0
M  V30 15463 C 1492.34 -4.71018 0.984646 0
M  V30 15464 C 1494.69 -5.00602 1.45077 0
M  V30 15465 C 1492.02 -5.47824 2.10013 0
M  V30 15466 C 1494.37 -5.78627 2.55682 0
M  V30 15467 C 1493.03 -6.01894 2.88582 0
M  V30 15468 H 1492.3 -0.737377 -0.0731812 0
M  V30 15469 H 1494.95 -1.843 0.520157 0
M  V30 15470 H 1493.26 -3.68856 -1.32108 0
M  V30 15471 H 1494.95 -3.88739 -0.984011 0
M  V30 15472 H 1491.54 -4.26745 0.398359 0
M  V30 15473 H 1495.73 -4.81228 1.21381 0
M  V30 15474 H 1490.98 -5.64066 2.3588 0
M  V30 15475 H 1495.16 -6.19914 3.173 0
M  V30 15476 H 1492.78 -6.61192 3.75138 0
M  V30 15477 N 1494.36 -0.113586 -1.5719 0
M  V30 15478 C 1495.32 0.824258 -2.13866 0
M  V30 15479 C 1496.32 1.19831 -1.07224 0
M  V30 15480 O 1497.51 1.12471 -1.33026 0
M  V30 15481 C 1494.64 2.11391 -2.67445 0
M  V30 15482 H 1495.84 0.331803 -2.98059 0
M  V30 15483 H 1493.39 0.135599 -1.55711 0
M  V30 15484 H 1494.13 2.65079 -1.86824 0
M  V30 15485 H 1493.91 1.85523 -3.45433 0
M  V30 15486 H 1495.4 2.78443 -3.11222 0
M  V30 15487 N 1495.84 1.56784 0.160173 0
M  V30 15488 C 1496.8 1.96373 1.18195 0
M  V30 15489 C 1497.8 0.848674 1.3658 0
M  V30 15490 O 1498.99 1.11553 1.33796 0
M  V30 15491 C 1496.12 2.26824 2.54487 0
M  V30 15492 H 1497.32 2.87819 0.842641 0
M  V30 15493 H 1494.87 1.51014 0.403038 0
M  V30 15494 H 1495.6 1.38129 2.93413 0
M  V30 15495 H 1495.39 3.08112 2.42507 0
M  V30 15496 H 1496.88 2.58337 3.28104 0
M  V30 15497 N 1497.32 -0.429099 1.51646 0
M  V30 15498 C 1498.54 -1.20006 1.68541 0
M  V30 15499 C 1498.96 -1.84806 0.386264 0
M  V30 15500 O 1498.32 -1.7106 -0.635988 0
M  V30 15501 C 1498.37 -2.27801 2.80694 0
M  V30 15502 O 1498.09 -1.65649 4.05576 0
M  V30 15503 C 1499.59 -3.17927 3.08929 0
M  V30 15504 H 1496.81 -0.361388 0.565367 0
M  V30 15505 H 1499.35 -0.507432 1.98104 0
M  V30 15506 H 1497.51 -2.92766 2.53706 0
M  V30 15507 H 1497.92 -2.36955 4.67924 0
M  V30 15508 H 1499.4 -3.8968 3.90965 0
M  V30 15509 H 1499.87 -3.79157 2.21668 0
M  V30 15510 H 1500.48 -2.58654 3.37606 0
M  V30 15511 N 1498.79 -1.41931 -0.685074 0
M  V30 15512 C 1500.04 -1.41571 -1.44229 0
M  V30 15513 C 1500.36 -0.0294445 -1.94978 0
M  V30 15514 O 1499.63 0.930414 -1.72395 0
M  V30 15515 H 1498.21 -0.521138 -0.535186 0
M  V30 15516 H 1500.87 -1.77263 -0.81017 0
M  V30 15517 H 1499.97 -2.10929 -2.30034 0
M  V30 15518 N 1500.27 0.920374 -1.27933 0
M  V30 15519 C 1501.5 1.70804 -1.17647 0
M  V30 15520 C 1501.92 1.86264 0.262189 0
M  V30 15521 O 1501.28 1.36798 1.18979 0
M  V30 15522 C 1501.33 3.08142 -1.87298 0
M  V30 15523 O 1500.43 3.95279 -1.17593 0
M  V30 15524 H 1499.77 0.523267 -0.408763 0
M  V30 15525 H 1502.3 1.15127 -1.69136 0
M  V30 15526 H 1502.31 3.58414 -1.94945 0
M  V30 15527 H 1500.99 2.96208 -2.91948 0
M  V30 15528 H 1499.56 3.53716 -1.18065 0
M  V30 15529 N 1501.75 1.10074 1.1279 0
M  V30 15530 C 1503.03 0.753069 1.80522 0
M  V30 15531 C 1503.41 -0.760982 1.96907 0
M  V30 15532 O 1502.75 -1.68584 1.54245 0
M  V30 15533 C 1502.96 1.49982 3.15129 0
M  V30 15534 C 1504.31 1.66993 3.90382 0
M  V30 15535 O 1505.34 1.46289 3.24774 0
M  V30 15536 O 1504.2 2.01293 5.08078 0
M  V30 15537 H 1501.29 0.271277 0.781241 0
M  V30 15538 H 1503.84 1.20333 1.19658 0
M  V30 15539 H 1502.61 2.53043 2.98471 0
M  V30 15540 H 1502.23 1.04217 3.83699 0
M  V30 15541 N 1503.23 -1.30138 0.888926 0
M  V30 15542 C 1504.18 -2.25598 0.33005 0
M  V30 15543 C 1505.16 -1.51434 -0.543751 0
M  V30 15544 O 1506.35 -1.72706 -0.387529 0
M  V30 15545 C 1503.48 -3.40326 -0.450925 0
M  V30 15546 C 1502.57 -4.21841 0.437187 0
M  V30 15547 N 1502.96 -4.81803 1.53947 0
M  V30 15548 C 1501.26 -4.45391 0.233015 0
M  V30 15549 C 1501.96 -5.42907 2.0887 0
M  V30 15550 N 1500.93 -5.25709 1.38314 0
M  V30 15551 H 1504.74 -2.6951 1.17224 0
M  V30 15552 H 1502.25 -1.44623 0.738771 0
M  V30 15553 H 1504.25 -4.07764 -0.867971 0
M  V30 15554 H 1502.91 -2.97953 -1.2905 0
M  V30 15555 H 1503.92 -4.80904 1.92229 0
M  V30 15556 H 1500.6 -4.13603 -0.569074 0
M  V30 15557 H 1501.99 -6.00478 3.01457 0
M  V30 15558 N 1504.71 -0.650285 -1.43559 0
M  V30 15559 C 1505.95 -0.159832 -2.01066 0
M  V30 15560 C 1506.27 1.23246 -1.51887 0
M  V30 15561 O 1507.47 1.81797 -2.01648 0
M  V30 15562 C 1505.93 -0.23494 -3.59132 0
M  V30 15563 C 1505.54 -1.62975 -4.17305 0
M  V30 15564 C 1507.28 0.198061 -4.24038 0
M  V30 15565 C 1505.19 -1.65894 -5.67656 0
M  V30 15566 H 1504.12 -0.0559899 -0.751918 0
M  V30 15567 H 1506.77 -0.811891 -1.64562 0
M  V30 15568 H 1505.15 0.484573 -3.93024 0
M  V30 15569 H 1506.33 -2.37438 -3.94918 0
M  V30 15570 H 1504.64 -2.00847 -3.64759 0
M  V30 15571 H 1507.24 0.196054 -5.3434 0
M  V30 15572 H 1507.58 1.22896 -3.97747 0
M  V30 15573 H 1508.11 -0.469602 -3.95018 0
M  V30 15574 H 1504.85 -2.66883 -5.9871 0
M  V30 15575 H 1504.37 -0.957519 -5.92108 0
M  V30 15576 H 1506.05 -1.40137 -6.31641 0
M  V30 15577 N 1506.18 1.52647 -0.392018 0
M  V30 15578 C 1507.15 2.25135 0.429754 0
M  V30 15579 C 1508.15 1.26871 0.987946 0
M  V30 15580 O 1509.34 1.50947 0.86952 0
M  V30 15581 C 1506.47 3.00849 1.60321 0
M  V30 15582 H 1507.66 2.99199 -0.204918 0
M  V30 15583 H 1505.21 1.55634 -0.144188 0
M  V30 15584 H 1505.95 2.31092 2.27524 0
M  V30 15585 H 1505.73 3.72975 1.20964 0
M  V30 15586 H 1507.22 3.55879 2.18494 0
M  V30 15587 N 1507.66 0.121921 1.57128 0
M  V30 15588 C 1508.89 -0.542225 1.99358 0
M  V30 15589 C 1509.3 -1.60578 1.00057 0
M  V30 15590 O 1508.64 -1.83694 -0.0142649 0
M  V30 15591 C 1508.71 -1.22448 3.38004 0
M  V30 15592 C 1508.37 -0.308522 4.55957 0
M  V30 15593 C 1509.37 0.454012 5.17914 0
M  V30 15594 C 1507.05 -0.218741 5.01823 0
M  V30 15595 C 1509.05 1.29403 6.24126 0
M  V30 15596 C 1506.73 0.624906 6.07896 0
M  V30 15597 C 1507.73 1.37992 6.68915 0
M  V30 15598 O 1507.42 2.20955 7.72938 0
M  V30 15599 H 1507.15 -0.147894 0.659624 0
M  V30 15600 H 1509.7 0.205954 2.04365 0
M  V30 15601 H 1507.93 -2.01979 3.2976 0
M  V30 15602 H 1509.62 -1.78583 3.64504 0
M  V30 15603 H 1510.39 0.394539 4.83393 0
M  V30 15604 H 1506.27 -0.796109 4.54074 0
M  V30 15605 H 1509.81 1.88382 6.71683 0
M  V30 15606 H 1505.71 0.685762 6.41847 0
M  V30 15607 H 1506.48 2.13929 7.90049 0
M  V30 15608 N 1509.14 -1.56867 -0.151857 0
M  V30 15609 C 1510.1 -1.96997 -1.17152 0
M  V30 15610 C 1511.1 -0.855905 -1.36128 0
M  V30 15611 O 1512.29 -1.12261 -1.33203 0
M  V30 15612 C 1509.43 -2.28171 -2.5328 0
M  V30 15613 H 1510.62 -2.88261 -0.827365 0
M  V30 15614 H 1508.17 -1.51226 -0.395024 0
M  V30 15615 H 1508.91 -1.39683 -2.92676 0
M  V30 15616 H 1508.69 -3.09394 -2.40869 0
M  V30 15617 H 1510.18 -2.60073 -3.26729 0
M  V30 15618 N 1510.62 0.421051 -1.51871 0
M  V30 15619 C 1511.57 1.53277 -1.74954 0
M  V30 15620 C 1512.56 1.57792 -0.616282 0
M  V30 15621 O 1513.77 1.61342 -0.798054 0
M  V30 15622 H 1510.14 0.50953 -0.553067 0
M  V30 15623 H 1512.11 1.30988 -2.68113 0
M  V30 15624 C 1510.86 2.90772 -1.90649 0
M  V30 15625 H 1510.18 2.88035 -2.77265 0
M  V30 15626 H 1511.62 3.67882 -2.10805 0
M  V30 15627 C 1510.08 3.30161 -0.670463 0
M  V30 15628 O 1510.61 4.01352 0.167271 0
M  V30 15629 N 1508.82 2.86093 -0.509813 0
M  V30 15630 H 1508.37 2.28329 -1.19262 0
M  V30 15631 H 1508.32 3.12809 0.315918 0
M  V30 15632 N 1512.1 1.42293 0.677538 0
M  V30 15633 C 1513.03 1.39986 1.8022 0
M  V30 15634 C 1514.01 0.264513 1.60434 0
M  V30 15635 O 1515.19 0.454299 1.82944 0
M  V30 15636 C 1512.32 1.18809 3.17178 0
M  V30 15637 C 1511.36 2.35301 3.55719 0
M  V30 15638 S 1512.2 3.97827 3.5846 0
M  V30 15639 C 1513.35 3.78987 4.98116 0
M  V30 15640 H 1513.59 2.35157 1.81902 0
M  V30 15641 H 1511.12 1.29032 0.847947 0
M  V30 15642 H 1513.08 1.07277 3.96235 0
M  V30 15643 H 1511.74 0.252276 3.13085 0
M  V30 15644 H 1510.93 2.16224 4.55262 0
M  V30 15645 H 1510.53 2.43333 2.84016 0
M  V30 15646 H 1512.83 3.39808 5.8612 0
M  V30 15647 H 1513.77 4.78197 5.22239 0
M  V30 15648 H 1514.18 3.11906 4.70505 0
M  V30 15649 N 1513.57 -0.913576 1.28419 0
M  V30 15650 C 1514.52 -2.03739 1.1222 0
M  V30 15651 C 1515.52 -1.69349 0.0414309 0
M  V30 15652 O 1516.72 -1.78883 0.200213 0
M  V30 15653 H 1513.1 -0.667554 0.34623 0
M  V30 15654 H 1515.07 -2.14544 2.07397 0
M  V30 15655 C 1513.82 -3.38348 0.801003 0
M  V30 15656 H 1513.14 -3.65304 1.6246 0
M  V30 15657 H 1514.58 -4.1771 0.727611 0
M  V30 15658 C 1513.04 -3.3324 -0.495261 0
M  V30 15659 O 1513.57 -3.71606 -1.52551 0
M  V30 15660 N 1511.78 -2.86335 -0.496054 0
M  V30 15661 H 1511.32 -2.55309 0.342773 0
M  V30 15662 H 1511.28 -2.833 -1.3634 0
M  V30 15663 N 1515.05 -1.1067 -1.12204 0
M  V30 15664 C 1516.46 -0.867959 -1.65298 0
M  V30 15665 C 1516.81 0.601297 -1.86759 0
M  V30 15666 O 1515.94 1.46153 -1.59588 0
M  V30 15667 C 1516.53 -1.56906 -3.00276 0
M  V30 15668 C 1515.09 -1.37696 -3.5031 0
M  V30 15669 C 1514.24 -1.61688 -2.25282 0
M  V30 15670 H 1517.19 -1.26408 -0.959521 0
M  V30 15671 H 1517.21 -1.00947 -3.66865 0
M  V30 15672 H 1516.72 -2.63838 -2.84625 0
M  V30 15673 H 1514.83 -0.329381 -3.71141 0
M  V30 15674 H 1514.94 -2.12058 -4.29614 0
M  V30 15675 H 1513.3 -1.03977 -2.3251 0
M  V30 15676 H 1514.09 -2.69877 -2.12182 0
M  V30 15677 N 1516.53 1.29665 -0.895815 0
M  V30 15678 C 1517.46 2.26842 -0.327939 0
M  V30 15679 C 1518.48 1.54151 0.523578 0
M  V30 15680 O 1519.66 1.75205 0.341367 0
M  V30 15681 C 1516.76 3.34384 0.551393 0
M  V30 15682 C 1515.94 4.36544 -0.273514 0
M  V30 15683 C 1515 5.23442 0.538031 0
M  V30 15684 O 1514.02 5.69184 -0.0431025 0
M  V30 15685 N 1515.22 5.50402 1.84493 0
M  V30 15686 H 1517.99 2.76208 -1.16315 0
M  V30 15687 H 1515.55 1.42958 -0.759903 0
M  V30 15688 H 1517.54 3.89446 1.10062 0
M  V30 15689 H 1516.11 2.84864 1.28728 0
M  V30 15690 H 1515.33 3.81196 -1.00416 0
M  V30 15691 H 1516.62 5.01842 -0.838589 0
M  V30 15692 H 1516.02 5.15041 2.33985 0
M  V30 15693 H 1514.58 6.08295 2.34137 0
M  V30 15694 N 1518.01 0.657889 1.43212 0
M  V30 15695 C 1519.26 0.170493 2.00978 0
M  V30 15696 C 1519.57 -1.22439 1.52539 0
M  V30 15697 O 1520.78 -1.80725 2.02609 0
M  V30 15698 C 1519.23 0.253982 3.59003 0
M  V30 15699 C 1518.84 1.65185 4.16435 0
M  V30 15700 C 1520.58 -0.17557 4.24137 0
M  V30 15701 C 1518.49 1.68902 5.66768 0
M  V30 15702 H 1517.42 0.0599767 0.751611 0
M  V30 15703 H 1520.07 0.820606 1.64129 0
M  V30 15704 H 1518.45 -0.463723 3.93275 0
M  V30 15705 H 1519.63 2.39529 3.93653 0
M  V30 15706 H 1517.94 2.02779 3.63689 0
M  V30 15707 H 1520.54 -0.167714 5.34437 0
M  V30 15708 H 1520.88 -1.20784 3.98393 0
M  V30 15709 H 1521.42 0.490544 3.94764 0
M  V30 15710 H 1518.16 2.70055 5.97286 0
M  V30 15711 H 1517.68 0.988906 5.91592 0
M  V30 15712 H 1519.35 1.43485 6.30889 0
M  V30 15713 N 1519.49 -1.52437 0.400108 0
M  V30 15714 C 1520.4 -2.30496 -0.436875 0
M  V30 15715 C 1521.41 -1.37851 -1.06175 0
M  V30 15716 O 1522.59 -1.70924 -1.06522 0
M  V30 15717 C 1519.65 -3.10459 -1.54325 0
M  V30 15718 C 1518.71 -4.18829 -0.942367 0
M  V30 15719 C 1517.95 -4.94969 -1.99602 0
M  V30 15720 O 1518.17 -4.71314 -3.21278 0
M  V30 15721 O 1517.1 -5.80043 -1.60728 0
M  V30 15722 H 1520.93 -3.03045 0.199343 0
M  V30 15723 H 1518.52 -1.48502 0.163541 0
M  V30 15724 H 1520.4 -3.60282 -2.18575 0
M  V30 15725 H 1519.07 -2.40713 -2.16423 0
M  V30 15726 H 1517.98 -3.73176 -0.262831 0
M  V30 15727 H 1519.31 -4.90841 -0.365441 0
M  V30 15728 N 1520.96 -0.130252 -1.57061 0
M  V30 15729 C 1521.93 0.801529 -2.14728 0
M  V30 15730 C 1522.93 1.18687 -1.08489 0
M  V30 15731 O 1524.12 1.11054 -1.34211 0
M  V30 15732 C 1521.25 2.08542 -2.69672 0
M  V30 15733 H 1522.44 0.300172 -2.98394 0
M  V30 15734 H 1520 0.119077 -1.55846 0
M  V30 15735 H 1520.73 2.63083 -1.89625 0
M  V30 15736 H 1520.52 1.81849 -3.47381 0
M  V30 15737 H 1522.01 2.75126 -3.14158 0
M  V30 15738 N 1522.44 1.56945 0.143535 0
M  V30 15739 C 1523.38 1.93682 1.20675 0
M  V30 15740 C 1524.35 0.803117 1.41382 0
M  V30 15741 O 1525.54 1.05905 1.55937 0
M  V30 15742 C 1522.67 2.21185 2.56505 0
M  V30 15743 C 1521.71 3.43817 2.52372 0
M  V30 15744 S 1522.54 4.9726 1.98728 0
M  V30 15745 C 1523.7 5.27889 3.3628 0
M  V30 15746 H 1523.93 2.83561 0.893345 0
M  V30 15747 H 1521.47 1.50397 0.349294 0
M  V30 15748 H 1523.42 2.3771 3.3467 0
M  V30 15749 H 1522.09 1.31964 2.85034 0
M  V30 15750 H 1521.28 3.60349 3.5237 0
M  V30 15751 H 1520.88 3.26552 1.82318 0
M  V30 15752 H 1523.17 5.21568 4.32404 0
M  V30 15753 H 1524.12 6.29318 3.24598 0
M  V30 15754 H 1524.52 4.55398 3.33576 0
M  V30 15755 N 1523.92 -0.412991 1.52093 0
M  V30 15756 C 1524.87 -1.50294 1.75158 0
M  V30 15757 C 1525.84 -1.55119 0.593902 0
M  V30 15758 O 1527.02 -1.71751 0.831032 0
M  V30 15759 C 1524.16 -2.87781 1.90463 0
M  V30 15760 C 1523.28 -2.92295 3.181 0
M  V30 15761 C 1522.41 -4.21056 3.23859 0
M  V30 15762 C 1521.45 -4.1953 4.45714 0
M  V30 15763 N 1520.59 -5.39857 4.48886 0
M  V30 15764 H 1525.43 -1.29927 2.68185 0
M  V30 15765 H 1522.96 -0.630741 1.32891 0
M  V30 15766 H 1524.92 -3.67588 1.9732 0
M  V30 15767 H 1523.55 -3.06651 1.00822 0
M  V30 15768 H 1522.6 -2.05002 3.20434 0
M  V30 15769 H 1523.92 -2.87031 4.0794 0
M  V30 15770 H 1523.07 -5.09253 3.29767 0
M  V30 15771 H 1521.81 -4.2901 2.31952 0
M  V30 15772 H 1520.81 -3.29724 4.39957 0
M  V30 15773 H 1522.04 -4.1322 5.38912 0
M  V30 15774 H 1519.99 -5.48486 3.59861 0
M  V30 15775 H 1519.9 -5.36572 5.32566 0
M  V30 15776 H 1521.17 -6.30018 4.59018 0
M  V30 15777 N 1525.4 -1.4265 -0.669982 0
M  V30 15778 C 1526.36 -1.46196 -1.7652 0
M  V30 15779 C 1527.36 -0.348884 -1.5697 0
M  V30 15780 O 1528.55 -0.609921 -1.63174 0
M  V30 15781 C 1525.68 -1.29829 -3.1521 0
M  V30 15782 H 1526.88 -2.43718 -1.74762 0
M  V30 15783 H 1524.43 -1.29168 -0.88007 0
M  V30 15784 H 1525.17 -0.332493 -3.22591 0
M  V30 15785 H 1524.95 -2.10501 -3.30804 0
M  V30 15786 H 1526.44 -1.35205 -3.95107 0
M  V30 15787 N 1526.88 0.906753 -1.28902 0
M  V30 15788 C 1527.81 2.02663 -1.15974 0
M  V30 15789 C 1528.79 1.70009 -0.0557202 0
M  V30 15790 O 1529.97 1.92786 -0.233952 0
M  V30 15791 C 1527.1 3.37283 -0.828115 0
M  V30 15792 C 1526.06 3.84123 -1.88767 0
M  V30 15793 C 1525.38 5.15787 -1.40953 0
M  V30 15794 C 1526.68 4.05217 -3.2954 0
M  V30 15795 H 1528.38 2.13738 -2.09658 0
M  V30 15796 H 1525.92 1.02699 -1.0094 0
M  V30 15797 H 1527.88 4.15127 -0.724408 0
M  V30 15798 H 1526.6 3.2628 0.14443 0
M  V30 15799 H 1525.26 3.0849 -1.98065 0
M  V30 15800 H 1524.91 5.01194 -0.425848 0
M  V30 15801 H 1524.61 5.48098 -2.11807 0
M  V30 15802 H 1526.13 5.9618 -1.31918 0
M  V30 15803 H 1527.55 4.73565 -3.23124 0
M  V30 15804 H 1525.94 4.48871 -3.9829 0
M  V30 15805 H 1527.01 3.0979 -3.73039 0
M  V30 15806 N 1528.36 1.11264 1.11616 0
M  V30 15807 C 1529.77 0.876713 1.64835 0
M  V30 15808 C 1530.12 -0.591384 1.87075 0
M  V30 15809 O 1529.24 -1.45304 1.60361 0
M  V30 15810 C 1529.84 1.58496 2.9944 0
M  V30 15811 C 1528.4 1.39551 3.49575 0
M  V30 15812 C 1527.54 1.62881 2.24422 0
M  V30 15813 H 1530.49 1.26915 0.952804 0
M  V30 15814 H 1530.52 1.02891 3.66325 0
M  V30 15815 H 1530.03 2.65344 2.83221 0
M  V30 15816 H 1528.13 0.349059 3.70961 0
M  V30 15817 H 1528.24 2.14334 4.28483 0
M  V30 15818 H 1526.61 1.05208 2.31955 0
M  V30 15819 H 1527.39 2.70999 2.10748 0
M  V30 15820 N 1529.83 -1.29188 0.902679 0
M  V30 15821 C 1530.78 -2.25236 0.353959 0
M  V30 15822 C 1531.77 -1.52002 -0.527659 0
M  V30 15823 O 1532.96 -1.73107 -0.369189 0
M  V30 15824 C 1530.09 -3.40785 -0.414803 0
M  V30 15825 C 1529.17 -4.21353 0.481904 0
M  V30 15826 N 1529.57 -4.80143 1.59048 0
M  V30 15827 C 1527.86 -4.45119 0.280241 0
M  V30 15828 C 1528.56 -5.40661 2.14616 0
M  V30 15829 N 1527.54 -5.24213 1.43882 0
M  V30 15830 H 1531.34 -2.68252 1.20076 0
M  V30 15831 H 1528.86 -1.43832 0.754069 0
M  V30 15832 H 1530.85 -4.08662 -0.824674 0
M  V30 15833 H 1529.51 -2.99305 -1.25883 0
M  V30 15834 H 1530.52 -4.78838 1.97319 0
M  V30 15835 H 1527.2 -4.14184 -0.525174 0
M  V30 15836 H 1528.59 -5.97246 3.07809 0
M  V30 15837 N 1531.31 -0.665475 -1.42861 0
M  V30 15838 C 1532.56 -0.183884 -2.01663 0
M  V30 15839 C 1532.89 1.2064 -1.52566 0
M  V30 15840 O 1532.14 1.82191 -0.714479 0
M  V30 15841 C 1532.44 -0.156963 -3.57055 0
M  V30 15842 C 1532.11 -1.49065 -4.25547 0
M  V30 15843 C 1530.77 -1.85584 -4.43973 0
M  V30 15844 C 1533.12 -2.36942 -4.64228 0
M  V30 15845 C 1530.45 -3.09622 -4.98348 0
M  V30 15846 C 1532.8 -3.60284 -5.19979 0
M  V30 15847 C 1531.46 -3.96984 -5.36619 0
M  V30 15848 H 1530.73 -0.0672879 -0.737939 0
M  V30 15849 H 1533.38 -0.858614 -1.71173 0
M  V30 15850 H 1531.69 0.601253 -3.87159 0
M  V30 15851 H 1533.38 0.232721 -4.00324 0
M  V30 15852 H 1529.97 -1.19653 -4.11559 0
M  V30 15853 H 1534.16 -2.10015 -4.49675 0
M  V30 15854 H 1529.41 -3.3809 -5.09417 0
M  V30 15855 H 1533.59 -4.28586 -5.48896 0
M  V30 15856 H 1531.21 -4.93175 -5.78518 0
M  V30 15857 N 1532.79 1.52222 -0.408187 0
M  V30 15858 C 1534.07 1.94285 0.22641 0
M  V30 15859 C 1534.45 1.34501 1.62705 0
M  V30 15860 O 1533.79 0.52045 2.22494 0
M  V30 15861 C 1534 3.48217 0.233695 0
M  V30 15862 C 1535.35 4.22171 0.453504 0
M  V30 15863 O 1536.38 3.54821 0.313093 0
M  V30 15864 O 1535.24 5.416 0.730183 0
M  V30 15865 H 1532.33 0.814078 0.145625 0
M  V30 15866 H 1534.88 1.63232 -0.464062 0
M  V30 15867 H 1533.65 3.84111 -0.746644 0
M  V30 15868 H 1533.27 3.85629 0.968305 0
M  V30 15869 N 1534.27 0.138579 1.5699 0
M  V30 15870 C 1535.5 -0.521049 1.99922 0
M  V30 15871 C 1535.91 -1.59508 1.01754 0
M  V30 15872 O 1535.25 -1.83699 0.00521913 0
M  V30 15873 C 1535.31 -1.18856 3.39284 0
M  V30 15874 C 1534.97 -0.260145 4.56259 0
M  V30 15875 C 1535.97 0.508919 5.17403 0
M  V30 15876 C 1533.66 -0.165504 5.02027 0
M  V30 15877 C 1535.65 1.36016 6.22719 0
M  V30 15878 C 1533.34 0.689346 6.07199 0
M  V30 15879 C 1534.34 1.45079 6.67414 0
M  V30 15880 O 1534.02 2.29141 7.70551 0
M  V30 15881 H 1533.76 -0.140889 0.661155 0
M  V30 15882 H 1536.31 0.227618 2.04135 0
M  V30 15883 H 1534.54 -1.9847 3.31883 0
M  V30 15884 H 1536.23 -1.74706 3.66377 0
M  V30 15885 H 1536.99 0.445787 4.82947 0
M  V30 15886 H 1532.87 -0.747903 4.54893 0
M  V30 15887 H 1536.42 1.95496 6.69647 0
M  V30 15888 H 1532.31 0.7538 6.41084 0
M  V30 15889 H 1533.08 2.22296 7.87735 0
M  V30 15890 N 1535.75 -1.57019 -0.13521 0
M  V30 15891 C 1536.97 -1.8816 -0.860434 0
M  V30 15892 C 1537.39 -0.728081 -1.74196 0
M  V30 15893 O 1536.75 0.301745 -1.79988 0
M  V30 15894 C 1536.8 -3.1864 -1.70737 0
M  V30 15895 O 1536.52 -4.29549 -0.861347 0
M  V30 15896 C 1538.02 -3.63376 -2.53915 0
M  V30 15897 H 1535.24 -0.623408 -0.248201 0
M  V30 15898 H 1537.78 -2.04121 -0.124461 0
M  V30 15899 H 1535.94 -3.04397 -2.39627 0
M  V30 15900 H 1536.35 -5.04233 -1.44393 0
M  V30 15901 H 1537.83 -4.57478 -3.08897 0
M  V30 15902 H 1538.3 -2.89238 -3.30512 0
M  V30 15903 H 1538.91 -3.80352 -1.90296 0
M  V30 15904 N 1537.22 0.404919 -1.52309 0
M  V30 15905 C 1538.45 1.17764 -1.70723 0
M  V30 15906 C 1538.87 1.83403 -0.417744 0
M  V30 15907 O 1538.23 1.70181 0.625157 0
M  V30 15908 C 1538.28 2.2133 -2.84685 0
M  V30 15909 O 1537.38 3.27566 -2.50548 0
M  V30 15910 H 1536.73 0.343572 -0.568203 0
M  V30 15911 H 1539.26 0.474093 -1.99031 0
M  V30 15912 H 1539.27 2.6559 -3.09719 0
M  V30 15913 H 1537.94 1.72939 -3.78239 0
M  V30 15914 H 1536.52 2.88556 -2.36199 0
M  V30 15915 N 1538.7 1.43003 0.662408 0
M  V30 15916 C 1539.98 1.34613 1.41911 0
M  V30 15917 C 1540.36 -0.0105336 2.11097 0
M  V30 15918 O 1539.71 -1.02667 2.04137 0
M  V30 15919 C 1539.92 2.52297 2.41137 0
M  V30 15920 C 1541.27 2.94972 3.05412 0
M  V30 15921 O 1542.29 2.52277 2.51465 0
M  V30 15922 O 1541.15 3.68906 4.03201 0
M  V30 15923 H 1538.24 0.531508 0.633583 0
M  V30 15924 H 1540.79 1.55035 0.690088 0
M  V30 15925 H 1539.56 3.42685 1.88898 0
M  V30 15926 H 1539.18 2.33926 3.21503 0
M  V30 15927 N 1540.18 -0.899904 1.29381 0
M  V30 15928 C 1541.43 -1.65038 1.17341 0
M  V30 15929 C 1541.76 -1.92544 -0.275135 0
M  V30 15930 O 1541.01 -1.53402 -1.21517 0
M  V30 15931 C 1541.31 -3.0069 1.93185 0
M  V30 15932 C 1540.98 -2.92792 3.42905 0
M  V30 15933 C 1539.64 -2.90345 3.83736 0
M  V30 15934 C 1541.99 -2.82015 4.38312 0
M  V30 15935 C 1539.32 -2.7494 5.1829 0
M  V30 15936 C 1541.67 -2.68149 5.72956 0
M  V30 15937 C 1540.33 -2.64068 6.13045 0
M  V30 15938 H 1539.6 -0.603915 0.42938 0
M  V30 15939 H 1542.25 -1.04743 1.60316 0
M  V30 15940 H 1540.56 -3.6485 1.428 0
M  V30 15941 H 1542.25 -3.57688 1.81274 0
M  V30 15942 H 1538.84 -2.95498 3.10449 0
M  V30 15943 H 1543.03 -2.82982 4.07719 0
M  V30 15944 H 1538.28 -2.70186 5.48461 0
M  V30 15945 H 1542.46 -2.58781 6.46533 0
M  V30 15946 H 1540.08 -2.51889 7.17256 0
M  V30 15947 N 1541.66 -1.11854 -1.11024 0
M  V30 15948 C 1542.88 -0.892999 -1.8719 0
M  V30 15949 C 1543.31 0.552058 -1.79816 0
M  V30 15950 O 1542.67 1.39025 -1.16369 0
M  V30 15951 C 1542.71 -1.3647 -3.33779 0
M  V30 15952 O 1541.82 -0.539202 -4.0886 0
M  V30 15953 H 1541.16 -0.321319 -0.581076 0
M  V30 15954 H 1543.69 -1.4891 -1.4031 0
M  V30 15955 H 1543.7 -1.3611 -3.84627 0
M  V30 15956 H 1542.37 -2.41694 -3.38462 0
M  V30 15957 H 1540.95 -0.60927 -3.67889 0
M  V30 15958 N 1543.14 1.28707 -0.909517 0
M  V30 15959 C 1544.08 2.27427 -0.393155 0
M  V30 15960 C 1545.05 1.57414 0.53009 0
M  V30 15961 O 1546.24 1.85339 0.453205 0
M  V30 15962 C 1543.38 3.4317 0.364507 0
M  V30 15963 C 1542.49 4.27942 -0.590757 0
M  V30 15964 C 1541.63 5.30878 0.184931 0
M  V30 15965 C 1540.67 6.07311 -0.764222 0
M  V30 15966 N 1539.8 7.02096 -0.0223203 0
M  V30 15967 H 1544.64 2.70974 -1.24005 0
M  V30 15968 H 1542.18 1.33265 -0.6228 0
M  V30 15969 H 1544.14 4.09063 0.819937 0
M  V30 15970 H 1542.77 3.00625 1.17578 0
M  V30 15971 H 1541.82 3.62131 -1.16471 0
M  V30 15972 H 1543.13 4.81102 -1.31689 0
M  V30 15973 H 1542.29 6.02635 0.701116 0
M  V30 15974 H 1541.02 4.78474 0.944143 0
M  V30 15975 H 1540.03 5.34408 -1.29182 0
M  V30 15976 H 1541.25 6.61804 -1.52292 0
M  V30 15977 H 1539.2 6.52048 0.718978 0
M  V30 15978 H 1539.12 7.5286 -0.688359 0
M  V30 15979 H 1540.39 7.78059 0.473807 0
M  V30 15980 N 1544.61 0.673042 1.42506 0
M  V30 15981 C 1545.86 0.194192 2.01165 0
M  V30 15982 C 1546.18 -1.2029 1.53477 0
M  V30 15983 O 1545.45 -1.80737 0.755704 0
M  V30 15984 H 1544.03 0.0688022 0.743825 0
M  V30 15985 H 1546.7 0.869157 1.74447 0
M  V30 15986 H 1545.79 0.194111 3.11496 0
M  V30 15987 N 1546.09 -1.52004 0.416254 0
M  V30 15988 C 1547.04 -2.28771 -0.420331 0
M  V30 15989 C 1548.03 -1.33751 -1.03957 0
M  V30 15990 O 1549.24 -1.51181 -0.976951 0
M  V30 15991 H 1545.62 -0.735991 -0.15434 0
M  V30 15992 H 1547.59 -2.97366 0.248255 0
M  V30 15993 C 1546.34 -3.12675 -1.52085 0
M  V30 15994 H 1545.66 -3.85665 -1.0537 0
M  V30 15995 H 1547.1 -3.69482 -2.07989 0
M  V30 15996 C 1545.56 -2.26692 -2.49224 0
M  V30 15997 O 1546.09 -1.91205 -3.53276 0
M  V30 15998 N 1544.29 -1.90322 -2.19604 0
M  V30 15999 H 1543.84 -2.1938 -1.35019 0
M  V30 16000 H 1543.8 -1.33086 -2.84843 0
M  V30 16001 N 1547.57 -0.146903 -1.56914 0
M  V30 16002 C 1548.82 0.504234 -1.96122 0
M  V30 16003 C 1549.15 1.64879 -1.03175 0
M  V30 16004 O 1548.4 1.95605 -0.0609397 0
M  V30 16005 C 1548.7 1.05159 -3.41579 0
M  V30 16006 C 1548.37 0.0254845 -4.50893 0
M  V30 16007 C 1547.03 -0.256589 -4.80515 0
M  V30 16008 C 1549.38 -0.672284 -5.16846 0
M  V30 16009 C 1546.71 -1.24224 -5.73398 0
M  V30 16010 C 1549.06 -1.64675 -6.1079 0
M  V30 16011 C 1547.72 -1.93652 -6.38792 0
M  V30 16012 H 1546.99 0.184512 -0.71766 0
M  V30 16013 H 1549.64 -0.233712 -1.90069 0
M  V30 16014 H 1547.95 1.86687 -3.44464 0
M  V30 16015 H 1549.64 1.56398 -3.69244 0
M  V30 16016 H 1546.23 0.255517 -4.27838 0
M  V30 16017 H 1550.42 -0.467555 -4.94093 0
M  V30 16018 H 1545.67 -1.47319 -5.93386 0
M  V30 16019 H 1549.85 -2.19294 -6.60971 0
M  V30 16020 H 1547.47 -2.70179 -7.10568 0
M  V30 16021 N 1549.05 1.57088 0.126881 0
M  V30 16022 C 1550.28 1.8834 0.849211 0
M  V30 16023 C 1550.69 0.735386 1.74324 0
M  V30 16024 O 1550.03 -0.30318 1.81181 0
M  V30 16025 C 1550.09 3.14522 1.74116 0
M  V30 16026 C 1549.76 4.4542 1.02225 0
M  V30 16027 C 1550.75 5.18605 0.366722 0
M  V30 16028 C 1548.44 4.92128 1.00577 0
M  V30 16029 C 1550.43 6.36714 -0.295675 0
M  V30 16030 C 1548.12 6.10156 0.33957 0
M  V30 16031 C 1549.12 6.82296 -0.310005 0
M  V30 16032 O 1548.8 7.9808 -0.965594 0
M  V30 16033 H 1548.54 0.628129 0.24986 0
M  V30 16034 H 1551.09 2.05059 0.118236 0
M  V30 16035 H 1549.32 2.93864 2.51358 0
M  V30 16036 H 1551.01 3.31857 2.33722 0
M  V30 16037 H 1551.78 4.83578 0.371126 0
M  V30 16038 H 1547.65 4.35887 1.5008 0
M  V30 16039 H 1551.2 6.9296 -0.803275 0
M  V30 16040 H 1547.1 6.44641 0.332902 0
M  V30 16041 H 1547.86 8.13871 -0.869277 0
M  V30 16042 N 1550.53 -0.396836 1.52522 0
M  V30 16043 C 1551.77 -1.14263 1.67183 0
M  V30 16044 C 1552.1 -1.90176 0.407845 0
M  V30 16045 O 1551.36 -1.85965 -0.609553 0
M  V30 16046 C 1551.66 -2.15308 2.85267 0
M  V30 16047 C 1551.32 -1.56111 4.23013 0
M  V30 16048 C 1549.98 -1.39692 4.60478 0
M  V30 16049 C 1552.34 -1.12998 5.08803 0
M  V30 16050 C 1549.66 -0.786963 5.81398 0
M  V30 16051 C 1552.02 -0.534159 6.30341 0
M  V30 16052 C 1550.68 -0.357204 6.66544 0
M  V30 16053 H 1549.95 -0.418118 0.611766 0
M  V30 16054 H 1552.6 -0.428255 1.8665 0
M  V30 16055 H 1550.9 -2.92935 2.60185 0
M  V30 16056 H 1552.6 -2.72908 2.93806 0
M  V30 16057 H 1549.19 -1.69876 3.93497 0
M  V30 16058 H 1553.37 -1.24488 4.80434 0
M  V30 16059 H 1548.63 -0.63799 6.08062 0
M  V30 16060 H 1552.8 -0.191759 6.96136 0
M  V30 16061 H 1550.43 0.117528 7.60109 0
M  V30 16062 N 1552.01 -1.43353 -0.654814 0
M  V30 16063 C 1552.94 -1.51194 -1.7794 0
M  V30 16064 C 1553.92 -0.366747 -1.66099 0
M  V30 16065 O 1555.1 -0.58375 -1.85219 0
M  V30 16066 C 1552.23 -1.43298 -3.16359 0
M  V30 16067 C 1551.19 -2.5605 -3.42961 0
M  V30 16068 C 1550.51 -2.33208 -4.81163 0
M  V30 16069 C 1551.81 -3.98303 -3.37864 0
M  V30 16070 H 1553.51 -2.4532 -1.71635 0
M  V30 16071 H 1551.05 -1.18072 -0.824319 0
M  V30 16072 H 1553 -1.47388 -3.94784 0
M  V30 16073 H 1551.73 -0.456761 -3.2339 0
M  V30 16074 H 1550.39 -2.5131 -2.66906 0
M  V30 16075 H 1550.04 -1.33833 -4.84869 0
M  V30 16076 H 1549.74 -3.08789 -4.99923 0
M  V30 16077 H 1551.26 -2.39079 -5.61848 0
M  V30 16078 H 1552.67 -4.04538 -4.06229 0
M  V30 16079 H 1551.07 -4.73897 -3.6816 0
M  V30 16080 H 1552.14 -4.23552 -2.36075 0
M  V30 16081 N 1553.48 0.89303 -1.29857 0
M  V30 16082 C 1554.73 1.64657 -1.18389 0
M  V30 16083 C 1555.06 1.92417 0.262587 0
M  V30 16084 O 1554.34 1.53936 1.18887 0
M  V30 16085 C 1554.62 2.99148 -2.00456 0
M  V30 16086 C 1554.47 2.78411 -3.53281 0
M  V30 16087 C 1555.79 3.99968 -1.83613 0
M  V30 16088 H 1552.91 0.59752 -0.431438 0
M  V30 16089 H 1555.55 1.03397 -1.59402 0
M  V30 16090 H 1553.7 3.51435 -1.65607 0
M  V30 16091 H 1555.38 2.32974 -3.98147 0
M  V30 16092 H 1553.62 2.13067 -3.77869 0
M  V30 16093 H 1554.29 3.74008 -4.05983 0
M  V30 16094 H 1556.77 3.56813 -2.14064 0
M  V30 16095 H 1555.64 4.91997 -2.43373 0
M  V30 16096 H 1555.9 4.34928 -0.793098 0
M  V30 16097 N 1554.96 1.12442 1.10429 0
M  V30 16098 C 1555.92 0.795443 2.14954 0
M  V30 16099 C 1556.92 -0.19022 1.59671 0
M  V30 16100 O 1558.11 0.0355797 1.74164 0
M  V30 16101 C 1555.25 0.182043 3.40414 0
M  V30 16102 H 1556.44 1.72153 2.45567 0
M  V30 16103 H 1553.99 0.927672 1.25793 0
M  V30 16104 H 1554.73 -0.753766 3.15419 0
M  V30 16105 H 1554.51 0.891708 3.81826 0
M  V30 16106 H 1556 -0.0316286 4.17588 0
M  V30 16107 N 1556.44 -1.28223 0.91633 0
M  V30 16108 C 1557.85 -1.76898 0.597003 0
M  V30 16109 C 1558.2 -1.74969 -0.887719 0
M  V30 16110 O 1557.33 -1.34598 -1.69447 0
M  V30 16111 C 1557.92 -3.21228 1.07694 0
M  V30 16112 C 1556.48 -3.67614 0.80849 0
M  V30 16113 C 1555.63 -2.47921 1.24219 0
M  V30 16114 H 1558.58 -1.1465 1.09732 0
M  V30 16115 H 1558.6 -3.7818 0.419531 0
M  V30 16116 H 1558.11 -3.226 2.15757 0
M  V30 16117 H 1556.21 -3.717 -0.258814 0
M  V30 16118 H 1556.33 -4.57633 1.41804 0
M  V30 16119 H 1554.69 -2.45976 0.660892 0
M  V30 16120 H 1555.47 -2.5201 2.33122 0
M  V30 16121 N 1557.92 -0.68059 -1.42147 0
M  V30 16122 C 1559.17 -0.204857 -2.01059 0
M  V30 16123 C 1559.49 1.19475 -1.54113 0
M  V30 16124 O 1558.76 1.80334 -0.765279 0
M  V30 16125 H 1557.34 -0.0727459 -0.743449 0
M  V30 16126 H 1560 -0.878396 -1.73983 0
M  V30 16127 H 1559.09 -0.210628 -3.11388 0
M  V30 16128 N 1559.4 1.51781 -0.424309 0
M  V30 16129 C 1560.36 2.25996 0.381903 0
M  V30 16130 C 1561.36 1.28938 0.960813 0
M  V30 16131 O 1562.55 1.52757 0.837306 0
M  V30 16132 C 1559.68 3.04181 1.53904 0
M  V30 16133 H 1560.87 2.98697 -0.268336 0
M  V30 16134 H 1558.43 1.55293 -0.177167 0
M  V30 16135 H 1559.16 2.35866 2.22571 0
M  V30 16136 H 1558.95 3.75457 1.13025 0
M  V30 16137 H 1560.44 3.60434 2.10896 0
M  V30 16138 N 1560.87 0.155222 1.56834 0
M  V30 16139 C 1562.1 -0.500542 2.00754 0
M  V30 16140 C 1562.52 -1.57878 1.03538 0
M  V30 16141 O 1561.87 -1.82469 0.0336651 0
M  V30 16142 C 1561.92 -1.09366 3.4456 0
M  V30 16143 O 1561.65 -0.0584788 4.38061 0
M  V30 16144 C 1563.15 -1.82923 4.038 0
M  V30 16145 H 1560.37 -0.129589 0.658368 0
M  V30 16146 H 1562.91 0.252223 2.02939 0
M  V30 16147 H 1561.07 -1.797 3.43201 0
M  V30 16148 H 1561.48 -0.494125 5.22167 0
M  V30 16149 H 1562.95 -2.19703 5.06394 0
M  V30 16150 H 1563.43 -2.71823 3.44976 0
M  V30 16151 H 1564.04 -1.17268 4.08813 0
M  V30 16152 N 1562.35 -1.57153 -0.118549 0
M  V30 16153 C 1563.3 -1.96802 -1.15122 0
M  V30 16154 C 1564.29 -0.843066 -1.37045 0
M  V30 16155 O 1565.48 -1.10676 -1.38129 0
M  V30 16156 C 1562.61 -2.37625 -2.47768 0
M  V30 16157 C 1561.69 -3.56754 -2.29319 0
M  V30 16158 N 1562.08 -4.72427 -1.80683 0
M  V30 16159 C 1560.38 -3.62395 -2.59973 0
M  V30 16160 C 1561.08 -5.54451 -1.75952 0
M  V30 16161 N 1560.06 -4.96954 -2.20314 0
M  V30 16162 H 1563.86 -2.83695 -0.767744 0
M  V30 16163 H 1561.37 -1.59088 -0.326287 0
M  V30 16164 H 1563.37 -2.64247 -3.22458 0
M  V30 16165 H 1562.03 -1.52097 -2.86874 0
M  V30 16166 H 1563.04 -4.95634 -1.50223 0
M  V30 16167 H 1559.72 -2.87475 -3.02762 0
M  V30 16168 H 1561.11 -6.57238 -1.39599 0
M  V30 16169 N 1563.83 0.388742 -1.5273 0
M  V30 16170 C 1565.08 1.13204 -1.68987 0
M  V30 16171 C 1565.43 1.87655 -0.42468 0
M  V30 16172 O 1564.72 1.82558 0.581645 0
M  V30 16173 C 1564.92 2.13792 -2.86405 0
M  V30 16174 C 1564.75 1.49221 -4.24221 0
M  V30 16175 C 1563.52 1.25618 -4.89437 0
M  V30 16176 C 1565.71 0.942175 -5.05596 0
M  V30 16177 N 1563.7 0.571547 -6.11234 0
M  V30 16178 C 1565.07 0.385614 -6.188 0
M  V30 16179 C 1567.12 0.83861 -4.90787 0
M  V30 16180 C 1565.83 -0.264384 -7.18814 0
M  V30 16181 C 1567.85 0.202432 -5.91053 0
M  V30 16182 C 1567.21 -0.343357 -7.03563 0
M  V30 16183 H 1563.31 0.400199 -0.671837 0
M  V30 16184 H 1565.9 0.421541 -1.90082 0
M  V30 16185 H 1564.07 2.82178 -2.66889 0
M  V30 16186 H 1565.8 2.8063 -2.91597 0
M  V30 16187 H 1562.55 1.53124 -4.48163 0
M  V30 16188 H 1562.98 0.245264 -6.76556 0
M  V30 16189 H 1567.62 1.24637 -4.04012 0
M  V30 16190 H 1565.34 -0.684158 -8.05199 0
M  V30 16191 H 1568.92 0.123542 -5.81669 0
M  V30 16192 H 1567.8 -0.827856 -7.79818 0
M  V30 16193 N 1565.31 1.43698 0.647203 0
M  V30 16194 C 1566.55 1.46845 1.40742 0
M  V30 16195 C 1566.91 0.0935016 1.92173 0
M  V30 16196 O 1566.2 -0.888817 1.69737 0
M  V30 16197 C 1566.4 2.45083 2.60133 0
M  V30 16198 C 1566.22 3.91994 2.20388 0
M  V30 16199 C 1564.99 4.6031 2.08428 0
M  V30 16200 C 1567.19 4.81661 1.80298 0
M  V30 16201 N 1565.17 5.92118 1.62077 0
M  V30 16202 C 1566.55 6.02788 1.45074 0
M  V30 16203 C 1568.6 4.68867 1.67535 0
M  V30 16204 C 1567.3 7.12543 0.983642 0
M  V30 16205 C 1569.33 5.78631 1.2223 0
M  V30 16206 C 1568.69 6.98888 0.879465 0
M  V30 16207 H 1564.79 0.592437 0.510433 0
M  V30 16208 H 1567.37 1.79918 0.74415 0
M  V30 16209 H 1565.55 2.14026 3.2411 0
M  V30 16210 H 1567.28 2.38628 3.26862 0
M  V30 16211 H 1564.03 4.14899 2.28376 0
M  V30 16212 H 1564.46 6.62102 1.41246 0
M  V30 16213 H 1569.1 3.76344 1.92678 0
M  V30 16214 H 1566.82 8.04889 0.719706 0
M  V30 16215 H 1570.4 5.70753 1.12836 0
M  V30 16216 H 1569.28 7.82378 0.534251 0
M  V30 16217 N 1566.79 -0.886131 1.30328 0
M  V30 16218 C 1568.03 -1.6346 1.18849 0
M  V30 16219 C 1568.36 -1.93295 -0.257285 0
M  V30 16220 O 1567.63 -1.56858 -1.17356 0
M  V30 16221 H 1566.21 -0.605932 0.43687 0
M  V30 16222 H 1568.87 -1.06177 1.63439 0
M  V30 16223 H 1567.96 -2.58522 1.7485 0
M  V30 16224 N 1568.26 -1.13026 -1.09832 0
M  V30 16225 C 1569.49 -0.911137 -1.85423 0
M  V30 16226 C 1569.9 0.543325 -1.81231 0
M  V30 16227 O 1569.25 1.38768 -1.20371 0
M  V30 16228 C 1569.31 -1.31584 -3.34553 0
M  V30 16229 C 1568.97 -2.78288 -3.62498 0
M  V30 16230 C 1569.97 -3.7646 -3.58572 0
M  V30 16231 C 1567.65 -3.15346 -3.90976 0
M  V30 16232 C 1569.65 -5.09703 -3.82729 0
M  V30 16233 C 1567.33 -4.4877 -4.14788 0
M  V30 16234 C 1568.33 -5.45758 -4.10655 0
M  V30 16235 O 1568.02 -6.76775 -4.33856 0
M  V30 16236 H 1567.75 -0.325117 -0.592684 0
M  V30 16237 H 1570.31 -1.50559 -1.39718 0
M  V30 16238 H 1568.54 -0.664628 -3.80946 0
M  V30 16239 H 1570.23 -1.06986 -3.91547 0
M  V30 16240 H 1570.99 -3.49175 -3.36603 0
M  V30 16241 H 1566.87 -2.40459 -3.9332 0
M  V30 16242 H 1570.41 -5.85395 -3.79418 0
M  V30 16243 H 1566.31 -4.75781 -4.36237 0
M  V30 16244 H 1567.08 -6.82815 -4.51338 0
M  V30 16245 N 1569.74 1.27735 -0.923117 0
M  V30 16246 C 1570.99 1.94858 -0.56198 0
M  V30 16247 C 1571.32 1.72414 0.893698 0
M  V30 16248 O 1570.6 1.05054 1.63689 0
M  V30 16249 C 1570.88 3.49102 -0.883173 0
M  V30 16250 C 1570.73 3.80908 -2.39227 0
M  V30 16251 C 1572.05 4.38405 -0.385848 0
M  V30 16252 H 1569.17 0.707728 -0.205646 0
M  V30 16253 H 1571.81 1.50935 -1.15406 0
M  V30 16254 H 1569.96 3.86644 -0.379292 0
M  V30 16255 H 1571.63 3.53182 -2.96749 0
M  V30 16256 H 1569.88 3.2762 -2.84337 0
M  V30 16257 H 1570.55 4.88653 -2.56754 0
M  V30 16258 H 1573.02 4.07988 -0.817631 0
M  V30 16259 H 1571.9 5.45161 -0.63958 0
M  V30 16260 H 1572.16 4.36296 0.714009 0
M  V30 16261 N 1571.22 0.688118 1.41784 0
M  V30 16262 C 1572.64 0.358943 1.55511 0
M  V30 16263 C 1572.84 -1.13469 1.66514 0
M  V30 16264 O 1571.89 -1.92039 1.63943 0
M  V30 16265 C 1573.21 1.10094 2.79821 0
M  V30 16266 C 1574.75 1.08456 2.93609 0
M  V30 16267 C 1575.23 1.80815 4.20797 0
M  V30 16268 N 1576.72 1.77748 4.27738 0
M  V30 16269 C 1577.45 2.30581 5.24995 0
M  V30 16270 N 1576.95 2.91854 6.28326 0
M  V30 16271 N 1578.74 2.2088 5.16884 0
M  V30 16272 H 1570.89 1.65695 1.32886 0
M  V30 16273 H 1573.16 0.698818 0.640592 0
M  V30 16274 H 1572.86 2.15589 2.77874 0
M  V30 16275 H 1572.74 0.674713 3.71117 0
M  V30 16276 H 1575.12 0.0378955 2.95076 0
M  V30 16277 H 1575.21 1.54978 2.03508 0
M  V30 16278 H 1574.85 2.85457 4.20092 0
M  V30 16279 H 1574.78 1.31732 5.09857 0
M  V30 16280 H 1577.27 1.33069 3.53696 0
M  V30 16281 H 1577.58 3.29755 6.98915 0
M  V30 16282 H 1575.93 2.95929 6.28849 0
M  V30 16283 H 1579.12 1.72689 4.35082 0
M  V30 16284 H 1579.29 2.62359 5.92513 0
M  V30 16285 N 1572.7 -1.51554 0.432352 0
M  V30 16286 C 1573.65 -2.24474 -0.39944 0
M  V30 16287 C 1574.63 -1.26505 -0.994242 0
M  V30 16288 O 1575.82 -1.51623 -0.913209 0
M  V30 16289 C 1572.95 -3.08659 -1.50282 0
M  V30 16290 C 1572.04 -4.14053 -0.917654 0
M  V30 16291 N 1572.43 -5.05763 -0.061209 0
M  V30 16292 C 1570.73 -4.29949 -1.18576 0
M  V30 16293 C 1571.43 -5.81087 0.266897 0
M  V30 16294 N 1570.41 -5.42484 -0.348218 0
M  V30 16295 H 1574.21 -2.92739 0.260928 0
M  V30 16296 H 1571.72 -1.60555 0.24413 0
M  V30 16297 H 1573.72 -3.59472 -2.11153 0
M  V30 16298 H 1572.38 -2.41936 -2.16557 0
M  V30 16299 H 1573.39 -5.17002 0.304858 0
M  V30 16300 H 1570.07 -3.74453 -1.84638 0
M  V30 16301 H 1571.46 -6.64956 0.963519 0
M  V30 16302 N 1574.18 -0.163538 -1.56749 0
M  V30 16303 C 1575.41 0.489178 -2.00725 0
M  V30 16304 C 1575.81 1.57869 -1.04279 0
M  V30 16305 O 1575.16 1.83668 -0.0344434 0
M  V30 16306 C 1575.22 1.13443 -3.41132 0
M  V30 16307 C 1574.88 0.187525 -4.56615 0
M  V30 16308 C 1575.88 -0.591169 -5.16528 0
M  V30 16309 C 1573.57 0.0856149 -5.02227 0
M  V30 16310 C 1575.56 -1.45905 -6.20476 0
M  V30 16311 C 1573.25 -0.785859 -6.06026 0
M  V30 16312 C 1574.24 -1.55678 -6.65021 0
M  V30 16313 O 1573.93 -2.41371 -7.66809 0
M  V30 16314 H 1573.66 0.130353 -0.663313 0
M  V30 16315 H 1576.22 -0.260065 -2.03747 0
M  V30 16316 H 1574.45 1.93165 -3.34999 0
M  V30 16317 H 1576.14 1.68856 -3.69111 0
M  V30 16318 H 1576.9 -0.522563 -4.82177 0
M  V30 16319 H 1572.78 0.675439 -4.56025 0
M  V30 16320 H 1576.33 -2.06125 -6.66452 0
M  V30 16321 H 1572.22 -0.855696 -6.39803 0
M  V30 16322 H 1572.99 -2.34801 -7.84099 0
M  V30 16323 N 1575.65 1.57214 0.110213 0
M  V30 16324 C 1576.9 1.84498 0.815059 0
M  V30 16325 C 1577.22 0.750531 1.80628 0
M  V30 16326 O 1578.42 0.910042 2.55794 0
M  V30 16327 C 1576.88 3.27138 1.50028 0
M  V30 16328 C 1576.49 4.44616 0.549603 0
M  V30 16329 C 1578.23 3.63662 2.18975 0
M  V30 16330 C 1576.14 5.78285 1.23855 0
M  V30 16331 H 1575.07 0.688165 0.308132 0
M  V30 16332 H 1577.72 1.83374 0.0678595 0
M  V30 16333 H 1576.1 3.22758 2.29441 0
M  V30 16334 H 1577.27 4.60312 -0.211944 0
M  V30 16335 H 1575.59 4.16387 -0.0333571 0
M  V30 16336 H 1578.19 4.60804 2.71226 0
M  V30 16337 H 1578.53 2.91532 2.97178 0
M  V30 16338 H 1579.06 3.69865 1.46439 0
M  V30 16339 H 1575.8 6.53608 0.497629 0
M  V30 16340 H 1575.32 5.66459 1.9719 0
M  V30 16341 H 1577 6.22338 1.76929 0
M  V30 16342 N 1577.13 -0.380637 1.52934 0
M  V30 16343 C 1578.36 -1.14417 1.72024 0
M  V30 16344 C 1578.77 -1.83962 0.442128 0
M  V30 16345 O 1578.11 -1.73839 -0.593766 0
M  V30 16346 C 1578.18 -2.22944 2.82022 0
M  V30 16347 C 1577.84 -1.73295 4.22869 0
M  V30 16348 C 1578.84 -1.20515 5.05739 0
M  V30 16349 C 1576.52 -1.79264 4.69222 0
M  V30 16350 C 1578.52 -0.743632 6.33047 0
M  V30 16351 C 1576.2 -1.32724 5.96513 0
M  V30 16352 C 1577.2 -0.803615 6.78256 0
M  V30 16353 O 1576.89 -0.34503 8.03159 0
M  V30 16354 H 1576.62 -0.348676 0.579138 0
M  V30 16355 H 1579.17 -0.450113 2.00407 0
M  V30 16356 H 1577.4 -2.95798 2.49079 0
M  V30 16357 H 1579.09 -2.84575 2.89434 0
M  V30 16358 H 1579.86 -1.15254 4.71107 0
M  V30 16359 H 1575.74 -2.18962 4.0568 0
M  V30 16360 H 1579.28 -0.334251 6.96799 0
M  V30 16361 H 1575.18 -1.37673 6.30648 0
M  V30 16362 H 1575.95 -0.465743 8.17174 0
M  V30 16363 N 1578.61 -1.44039 -0.639573 0
M  V30 16364 C 1579.89 -1.36853 -1.39752 0
M  V30 16365 C 1580.27 -0.0230515 -2.11087 0
M  V30 16366 O 1579.62 0.994061 -2.05744 0
M  V30 16367 C 1579.83 -2.56101 -2.37093 0
M  V30 16368 C 1581.17 -2.99793 -3.00681 0
M  V30 16369 O 1582.2 -2.56246 -2.4742 0
M  V30 16370 O 1581.06 -3.75274 -3.97281 0
M  V30 16371 H 1578.15 -0.541521 -0.625047 0
M  V30 16372 H 1580.7 -1.56113 -0.665336 0
M  V30 16373 H 1579.47 -3.45647 -1.83422 0
M  V30 16374 H 1579.09 -2.39011 -3.17741 0
M  V30 16375 N 1580.09 0.879207 -1.30796 0
M  V30 16376 C 1581.05 1.96707 -1.17639 0
M  V30 16377 C 1582.05 1.6045 -0.106013 0
M  V30 16378 O 1583.24 1.70553 -0.354573 0
M  V30 16379 C 1580.37 3.31292 -0.803625 0
M  V30 16380 H 1581.57 2.09806 -2.14293 0
M  V30 16381 H 1579.12 1.06634 -1.14276 0
M  V30 16382 H 1579.85 3.23894 0.162159 0
M  V30 16383 H 1579.64 3.58979 -1.57723 0
M  V30 16384 H 1581.13 4.11077 -0.735201 0
M  V30 16385 N 1581.57 1.13606 1.09231 0
M  V30 16386 C 1582.5 0.837908 2.17948 0
M  V30 16387 C 1583.48 -0.203575 1.68877 0
M  V30 16388 O 1584.66 -0.0620702 1.94101 0
M  V30 16389 C 1581.79 0.305342 3.45955 0
M  V30 16390 C 1580.75 1.2813 4.08371 0
M  V30 16391 C 1580.07 0.608412 5.31227 0
M  V30 16392 C 1581.37 2.64055 4.50636 0
M  V30 16393 H 1583.07 1.747 2.43147 0
M  V30 16394 H 1580.61 0.84141 1.1686 0
M  V30 16395 H 1582.57 0.0844116 4.21315 0
M  V30 16396 H 1581.29 -0.639144 3.20285 0
M  V30 16397 H 1579.95 1.48826 3.35032 0
M  V30 16398 H 1579.6 -0.341613 5.01839 0
M  V30 16399 H 1579.3 1.25956 5.73942 0
M  V30 16400 H 1580.82 0.396809 6.09309 0
M  V30 16401 H 1582.24 2.47316 5.17212 0
M  V30 16402 H 1580.63 3.25364 5.0424 0
M  V30 16403 H 1581.7 3.21566 3.62937 0
M  V30 16404 N 1583.05 -1.27244 0.929878 0
M  V30 16405 C 1584.46 -1.76254 0.615732 0
M  V30 16406 C 1584.81 -1.759 -0.869111 0
M  V30 16407 O 1583.93 -1.36388 -1.6801 0
M  V30 16408 C 1584.53 -3.20068 1.11095 0
M  V30 16409 C 1583.09 -3.66736 0.847435 0
M  V30 16410 C 1582.23 -2.4659 1.26842 0
M  V30 16411 H 1585.18 -1.1348 1.10942 0
M  V30 16412 H 1585.21 -3.77714 0.459618 0
M  V30 16413 H 1584.72 -3.20293 2.19166 0
M  V30 16414 H 1582.82 -3.71954 -0.219376 0
M  V30 16415 H 1582.93 -4.56104 1.4665 0
M  V30 16416 H 1581.3 -2.45261 0.686944 0
M  V30 16417 H 1582.08 -2.49524 2.35781 0
M  V30 16418 N 1584.52 -0.695628 -1.41417 0
M  V30 16419 C 1585.75 -0.235312 -2.05256 0
M  V30 16420 C 1586.16 1.12055 -1.52448 0
M  V30 16421 O 1585.5 1.71139 -0.667612 0
M  V30 16422 C 1585.57 -0.115542 -3.59314 0
M  V30 16423 C 1585.23 -1.40345 -4.34916 0
M  V30 16424 C 1586.23 -2.34131 -4.64197 0
M  V30 16425 C 1583.91 -1.65684 -4.74188 0
M  V30 16426 C 1585.91 -3.51518 -5.31709 0
M  V30 16427 C 1583.59 -2.83355 -5.41436 0
M  V30 16428 C 1584.59 -3.76095 -5.70124 0
M  V30 16429 O 1584.28 -4.91706 -6.35988 0
M  V30 16430 H 1584.01 -0.107129 -0.667457 0
M  V30 16431 H 1586.57 -0.948759 -1.82175 0
M  V30 16432 H 1584.8 0.653675 -3.81135 0
M  V30 16433 H 1586.48 0.307599 -4.04733 0
M  V30 16434 H 1587.25 -2.15812 -4.34339 0
M  V30 16435 H 1583.13 -0.943613 -4.51239 0
M  V30 16436 H 1586.67 -4.23923 -5.54017 0
M  V30 16437 H 1582.57 -3.01591 -5.70713 0
M  V30 16438 H 1583.34 -4.91522 -6.54484 0
M  V30 16439 N 1586 1.51322 -0.440383 0
M  V30 16440 C 1587.25 2.02113 0.125062 0
M  V30 16441 C 1587.58 1.32436 1.42446 0
M  V30 16442 O 1586.83 0.428981 1.9094 0
M  V30 16443 C 1587.13 3.55287 0.388079 0
M  V30 16444 C 1586.8 4.43272 -0.825876 0
M  V30 16445 C 1585.46 4.67039 -1.15878 0
M  V30 16446 C 1587.81 4.94872 -1.63557 0
M  V30 16447 C 1585.14 5.39652 -2.30201 0
M  V30 16448 C 1587.49 5.68739 -2.76981 0
M  V30 16449 C 1586.15 5.90769 -3.10722 0
M  V30 16450 H 1585.42 0.739585 0.0457635 0
M  V30 16451 H 1588.07 1.82243 -0.588201 0
M  V30 16452 H 1586.38 3.73505 1.18327 0
M  V30 16453 H 1588.07 3.92124 0.839055 0
M  V30 16454 H 1584.66 4.24972 -0.556468 0
M  V30 16455 H 1588.85 4.76391 -1.39158 0
M  V30 16456 H 1584.1 5.54923 -2.56653 0
M  V30 16457 H 1588.28 6.07711 -3.40089 0
M  V30 16458 H 1585.9 6.46814 -3.9942 0
M  V30 16459 N 1587.48 0.171848 1.5666 0
M  V30 16460 C 1588.73 -0.472968 1.96899 0
M  V30 16461 C 1589.05 -1.63217 1.05785 0
M  V30 16462 O 1588.31 -1.95483 0.0920511 0
M  V30 16463 C 1588.61 -0.99711 3.43209 0
M  V30 16464 C 1588.27 0.0462519 4.50876 0
M  V30 16465 C 1586.94 0.333002 4.80046 0
M  V30 16466 C 1589.29 0.754424 5.15711 0
M  V30 16467 C 1586.62 1.3333 5.71349 0
M  V30 16468 C 1588.97 1.74371 6.08093 0
M  V30 16469 C 1587.63 2.03791 6.3563 0
M  V30 16470 H 1586.9 -0.173071 0.720505 0
M  V30 16471 H 1589.55 0.263921 1.89673 0
M  V30 16472 H 1587.85 -1.81183 3.4739 0
M  V30 16473 H 1589.55 -1.50503 3.71685 0
M  V30 16474 H 1586.14 -0.187419 4.2819 0
M  V30 16475 H 1590.33 0.546102 4.93286 0
M  V30 16476 H 1585.58 1.56741 5.90967 0
M  V30 16477 H 1589.76 2.29782 6.57399 0
M  V30 16478 H 1587.38 2.8145 7.0618 0
M  V30 16479 N 1588.96 -1.5727 -0.101874 0
M  V30 16480 C 1589.91 -1.98011 -1.13029 0
M  V30 16481 C 1590.89 -0.857554 -1.36143 0
M  V30 16482 O 1592.08 -1.12135 -1.36948 0
M  V30 16483 C 1589.21 -2.4024 -2.45234 0
M  V30 16484 C 1588.3 -3.59166 -2.25522 0
M  V30 16485 N 1588.69 -4.74317 -1.75662 0
M  V30 16486 C 1586.99 -3.65132 -2.56115 0
M  V30 16487 C 1587.69 -5.56286 -1.70061 0
M  V30 16488 N 1586.66 -4.99262 -2.15031 0
M  V30 16489 H 1590.47 -2.84493 -0.737611 0
M  V30 16490 H 1587.98 -1.59426 -0.309395 0
M  V30 16491 H 1589.98 -2.67652 -3.19637 0
M  V30 16492 H 1588.64 -1.55131 -2.85245 0
M  V30 16493 H 1589.65 -4.972 -1.44958 0
M  V30 16494 H 1586.33 -2.9067 -2.99696 0
M  V30 16495 H 1587.72 -6.58682 -1.3262 0
M  V30 16496 N 1590.44 0.372521 -1.53134 0
M  V30 16497 C 1591.35 1.47994 -1.8203 0
M  V30 16498 C 1592.36 1.58937 -0.708179 0
M  V30 16499 O 1593.54 1.74962 -0.997511 0
M  V30 16500 C 1590.6 2.83342 -1.99796 0
M  V30 16501 C 1589.66 2.81984 -3.23702 0
M  V30 16502 C 1588.9 4.10877 -3.40611 0
M  V30 16503 O 1589.12 5.06686 -2.61964 0
M  V30 16504 O 1588.05 4.17111 -4.33938 0
M  V30 16505 H 1591.88 1.26501 -2.761 0
M  V30 16506 H 1589.46 0.561957 -1.38428 0
M  V30 16507 H 1591.35 3.63551 -2.13092 0
M  V30 16508 H 1590.02 3.04826 -1.08916 0
M  V30 16509 H 1588.93 2.00498 -3.15834 0
M  V30 16510 H 1590.26 2.65453 -4.14482 0
M  V30 16511 O 1591.95 1.52951 0.518488 0
M  V30 16512 H 1592.64 1.54104 1.17353 0
M  V30 END ATOM
M  V30 BEGIN BOND
M  V30 END BOND
M  V30 END CTAB
M  END
$$$$
