drugbank_target|Q59931 NADP-dependent glyceraldehyde-3-phosphate dehydrogenase (DB02263; DB03461)
 OpenBabel12092120243D

  0  0  0     0  0            999 V3000
M  V30 BEGIN CTAB
M  V30 COUNTS 7259 7317 0 0 0
M  V30 BEGIN ATOM
M  V30 1 H -0.908 1.98254 -0.117106 0
M  V30 2 N 0 1.576 0 0
M  V30 3 C 0.933 2.03868 1.02534 0
M  V30 4 C 1.911 0.928543 1.3348 0
M  V30 5 O 3.095 1.19667 1.45644 0
M  V30 6 C 0.222 2.43627 2.35294 0
M  V30 7 C -0.732 3.65373 2.2001 0
M  V30 8 S 0.101 5.13292 1.52614 0
M  V30 9 C 1.257 5.56322 2.86805 0
M  V30 10 H 1.49 2.90518 0.631377 0
M  V30 11 H -0.977 1.52953 0.210867 0
M  V30 12 H 0.981 2.67203 3.11629 0
M  V30 13 H -0.358 1.57376 2.7183 0
M  V30 14 H -1.165 3.90944 3.18086 0
M  V30 15 H -1.563 3.418 1.51819 0
M  V30 16 H 0.729 5.58782 3.83104 0
M  V30 17 H 1.672 6.56266 2.65933 0
M  V30 18 H 2.08 4.83886 2.90714 0
M  V30 19 N 1.4781 -0.272755 1.55222 0
M  V30 20 C 2.7061 -1.02255 1.79865 0
M  V30 21 C 3.1211 -1.79924 0.572088 0
M  V30 22 O 2.4781 -1.76638 -0.458842 0
M  V30 23 C 2.5291 -1.98094 3.02392 0
M  V30 24 O 2.2501 -1.23572 4.20311 0
M  V30 25 C 3.7511 -2.84884 3.39641 0
M  V30 26 H 0.9711 -0.302057 0.599168 0
M  V30 27 H 3.5151 -0.303465 2.02236 0
M  V30 28 H 1.6701 -2.65465 2.82147 0
M  V30 29 H 2.0841 -1.88172 4.89583 0
M  V30 30 H 3.5581 -3.47927 4.28545 0
M  V30 31 H 4.0351 -3.54665 2.59055 0
M  V30 32 H 4.6411 -2.23003 3.62146 0
M  V30 33 N 2.9562 -1.48159 -0.537278 0
M  V30 34 C 3.9032 -1.62138 -1.64256 0
M  V30 35 C 4.8732 -0.463668 -1.59497 0
M  V30 36 O 6.0582 -0.686241 -1.78032 0
M  V30 37 C 3.1982 -1.66028 -3.02537 0
M  V30 38 C 2.3112 -2.92855 -3.17585 0
M  V30 39 C 1.4462 -2.87952 -4.46382 0
M  V30 40 C 0.4852 -4.09516 -4.54932 0
M  V30 41 N -0.3778 -4.02733 -5.75109 0
M  V30 42 H 4.4622 -2.56529 -1.51647 0
M  V30 43 H 1.9992 -1.27224 -0.738414 0
M  V30 44 H 3.9572 -1.66265 -3.82638 0
M  V30 45 H 2.5872 -0.751331 -3.13934 0
M  V30 46 H 1.6392 -3.02395 -2.30784 0
M  V30 47 H 2.9512 -3.82822 -3.19764 0
M  V30 48 H 2.1052 -2.8655 -5.34765 0
M  V30 49 H 0.8442 -1.95702 -4.46712 0
M  V30 50 H -0.1508 -4.11201 -3.64957 0
M  V30 51 H 1.0742 -5.02917 -4.56346 0
M  V30 52 H -0.9798 -3.13299 -5.76351 0
M  V30 53 H -1.0628 -4.86397 -5.78752 0
M  V30 54 H 0.2052 -4.05379 -6.65799 0
M  V30 55 N 4.4343 0.785586 -1.36625 0
M  V30 56 C 5.3663 1.90711 -1.2713 0
M  V30 57 C 6.3793 1.61688 -0.189986 0
M  V30 58 O 7.5683 1.72864 -0.445014 0
M  V30 59 C 4.6683 3.25611 -0.939713 0
M  V30 60 C 3.8413 3.82385 -2.12369 0
M  V30 61 C 2.9003 4.95732 -1.76456 0
M  V30 62 O 1.9263 5.12047 -2.48589 0
M  V30 63 N 3.1283 5.76258 -0.700492 0
M  V30 64 H 5.8933 1.99376 -2.23762 0
M  V30 65 H 3.4543 0.964041 -1.30069 0
M  V30 66 H 5.4463 3.98937 -0.680554 0
M  V30 67 H 4.0163 3.12538 -0.0624074 0
M  V30 68 H 3.2363 3.01001 -2.54543 0
M  V30 69 H 4.5243 4.17047 -2.9146 0
M  V30 70 H 3.9223 5.65609 -0.101624 0
M  V30 71 H 2.4793 6.4987 -0.501165 0
M  V30 72 N 5.9124 1.20967 1.01018 0
M  V30 73 C 7.1424 1.04803 1.78044 0
M  V30 74 C 7.5504 -0.405462 1.84804 0
M  V30 75 O 6.8934 -1.2932 1.30468 0
M  V30 76 C 6.9554 1.56377 3.23707 0
M  V30 77 C 6.6194 3.04767 3.40538 0
M  V30 78 C 7.6164 4.02366 3.29239 0
M  V30 79 C 5.3014 3.43862 3.66147 0
M  V30 80 C 7.2954 5.37049 3.43304 0
M  V30 81 C 4.9824 4.78699 3.79855 0
M  V30 82 C 5.9804 5.75101 3.68439 0
M  V30 83 O 5.6684 7.07493 3.81719 0
M  V30 84 H 5.4004 0.368778 0.56655 0
M  V30 85 H 7.9544 1.60642 1.27997 0
M  V30 86 H 6.1844 0.949297 3.74867 0
M  V30 87 H 7.8734 1.36136 3.8239 0
M  V30 88 H 8.6394 3.73506 3.09384 0
M  V30 89 H 4.5184 2.69364 3.74118 0
M  V30 90 H 8.0624 6.12277 3.34309 0
M  V30 91 H 3.9594 5.07247 3.99213 0
M  V30 92 H 4.7274 7.1483 3.98697 0
M  V30 93 N 7.3905 -1.2043 1.01659 0
M  V30 94 C 8.3375 -2.23215 0.586822 0
M  V30 95 C 9.3075 -1.61382 -0.393085 0
M  V30 96 O 10.4925 -1.88544 -0.292525 0
M  V30 97 C 7.6325 -3.45032 -0.0687464 0
M  V30 98 C 6.7455 -4.21296 0.955724 0
M  V30 99 C 5.8805 -5.30507 0.271208 0
M  V30 100 C 4.9195 -5.98515 1.28244 0
M  V30 101 N 4.0565 -6.99316 0.62459 0
M  V30 102 H 8.8965 -2.59336 1.46796 0
M  V30 103 H 6.4335 -1.27431 0.734836 0
M  V30 104 H 8.3915 -4.1459 -0.465965 0
M  V30 105 H 7.0215 -3.09604 -0.913529 0
M  V30 106 H 6.0735 -3.50803 1.4711 0
M  V30 107 H 7.3855 -4.6803 1.72479 0
M  V30 108 H 6.5395 -6.06428 -0.18151 0
M  V30 109 H 5.2785 -4.8481 -0.530163 0
M  V30 110 H 4.2835 -5.21355 1.74554 0
M  V30 111 H 5.5085 -6.46298 2.08509 0
M  V30 112 H 3.4545 -6.55812 -0.156914 0
M  V30 113 H 3.3715 -7.44178 1.33172 0
M  V30 114 H 4.6395 -7.79255 0.195462 0
M  V30 115 N 8.8686 -0.792821 -1.36206 0
M  V30 116 C 9.8166 -0.181555 -2.3189 0
M  V30 117 C 10.8106 0.661025 -1.55971 0
M  V30 118 O 12.0166 0.555728 -1.71206 0
M  V30 119 H 8.3916 -0.0399382 -0.750939 0
M  V30 120 H 10.3626 -1.00394 -2.81005 0
M  V30 121 C 9.1116 0.666444 -3.41253 0
M  V30 122 H 8.4346 0.0274489 -3.99791 0
M  V30 123 H 9.8746 1.06076 -4.10517 0
M  V30 124 C 8.3336 1.82614 -2.83114 0
M  V30 125 O 8.8636 2.9229 -2.75553 0
M  V30 126 N 7.0696 1.63333 -2.40356 0
M  V30 127 H 6.6166 0.741217 -2.46706 0
M  V30 128 H 6.5746 2.41087 -2.01803 0
M  V30 129 N 10.3467 1.47872 -0.545128 0
M  V30 130 C 11.5767 2.06589 -0.0210534 0
M  V30 131 C 11.9847 1.39997 1.27269 0
M  V30 132 O 11.3277 0.486421 1.77143 0
M  V30 133 C 11.3897 3.58574 0.257933 0
M  V30 134 C 11.0537 4.47132 -0.944573 0
M  V30 135 C 12.0507 4.85986 -1.84699 0
M  V30 136 C 9.7357 4.88821 -1.15584 0
M  V30 137 C 11.7297 5.65314 -2.94446 0
M  V30 138 C 9.4167 5.67916 -2.25642 0
M  V30 139 C 10.4147 6.06073 -3.14905 0
M  V30 140 O 10.1027 6.83578 -4.23057 0
M  V30 141 H 9.8347 0.674971 -0.0372899 0
M  V30 142 H 12.3887 1.91037 -0.754599 0
M  V30 143 H 10.6187 3.72295 1.04564 0
M  V30 144 H 12.3077 3.99356 0.72592 0
M  V30 145 H 13.0737 4.54388 -1.69577 0
M  V30 146 H 8.9527 4.58595 -0.470279 0
M  V30 147 H 12.4967 5.95016 -3.64145 0
M  V30 148 H 8.3937 5.98927 -2.40742 0
M  V30 149 H 9.1617 7.01954 -4.20954 0
M  V30 150 N 11.8248 0.280983 1.55075 0
M  V30 151 C 13.0708 -0.33461 2.00021 0
M  V30 152 C 13.4038 -1.55063 1.16915 0
M  V30 153 O 12.6788 -1.93006 0.240646 0
M  V30 154 C 12.9618 -0.711007 3.53011 0
M  V30 155 C 12.8148 0.512766 4.46868 0
M  V30 156 C 14.1338 -1.54522 4.12081 0
M  V30 157 H 11.2528 -0.120147 0.727141 0
M  V30 158 H 13.8948 0.389097 1.85973 0
M  V30 159 H 12.0448 -1.32761 3.65112 0
M  V30 160 H 13.7168 1.15131 4.46702 0
M  V30 161 H 11.9598 1.14975 4.18286 0
M  V30 162 H 12.6308 0.205556 5.51617 0
M  V30 163 H 15.1068 -1.02442 4.03293 0
M  V30 164 H 13.9828 -1.77739 5.19327 0
M  V30 165 H 14.2438 -2.52813 3.62682 0
M  V30 166 N 13.3029 -1.57598 0.00835791 0
M  V30 167 C 14.2509 -2.10078 -0.998508 0
M  V30 168 C 15.2449 -1.02262 -1.35051 0
M  V30 169 O 16.4509 -1.20719 -1.33518 0
M  V30 170 H 12.8259 -0.670903 -0.339696 0
M  V30 171 H 14.7969 -2.93648 -0.530398 0
M  V30 172 C 13.5459 -2.62615 -2.27879 0
M  V30 173 H 12.8689 -3.45213 -2.01662 0
M  V30 174 H 14.3089 -3.03004 -2.96588 0
M  V30 175 C 12.7679 -1.54407 -2.99433 0
M  V30 176 O 13.2979 -0.931812 -3.90743 0
M  V30 177 N 11.5039 -1.2695 -2.61404 0
M  V30 178 H 11.0509 -1.76924 -1.87232 0
M  V30 179 H 11.0089 -0.547704 -3.09593 0
M  V30 180 N 14.781 0.264519 -1.55364 0
M  V30 181 C 16.029 0.993021 -1.76021 0
M  V30 182 C 16.35 1.86511 -0.569099 0
M  V30 183 O 15.62 1.91438 0.415735 0
M  V30 184 H 14.2 0.369639 -0.649135 0
M  V30 185 H 16.862 0.286707 -1.9278 0
M  V30 186 H 15.958 1.62502 -2.66457 0
M  V30 187 N 16.2591 1.48442 0.529413 0
M  V30 188 C 17.1691 1.6569 1.66084 0
M  V30 189 C 18.1851 0.539432 1.65427 0
M  V30 190 O 19.3611 0.810572 1.84368 0
M  V30 191 C 16.4261 1.69315 3.02545 0
M  V30 192 C 15.4871 2.92694 3.14052 0
M  V30 193 C 14.7201 2.96137 4.44003 0
M  V30 194 O 14.9431 2.07973 5.31134 0
M  V30 195 O 13.8771 3.88312 4.59888 0
M  V30 196 H 17.7031 2.61483 1.54469 0
M  V30 197 H 15.2881 1.3185 0.702567 0
M  V30 198 H 17.1701 1.74217 3.83701 0
M  V30 199 H 15.8451 0.766966 3.14483 0
M  V30 200 H 14.7521 2.93324 2.32189 0
M  V30 201 H 16.0851 3.84699 3.0703 0
M  V30 202 N 17.7372 -0.778329 1.37039 0
M  V30 203 C 18.9832 -1.53817 1.33086 0
M  V30 204 C 19.3382 -1.92208 -0.0860346 0
M  V30 205 O 18.6312 -1.60713 -1.04316 0
M  V30 206 C 18.8252 -2.81845 2.19768 0
M  V30 207 C 18.6542 -2.55967 3.69744 0
M  V30 208 C 17.4242 -2.50428 4.38878 0
M  V30 209 C 19.6222 -2.2441 4.62758 0
M  V30 210 N 17.6042 -2.16564 5.74433 0
M  V30 211 C 18.9752 -2.0063 5.86641 0
M  V30 212 C 21.0302 -2.1051 4.5121 0
M  V30 213 C 19.7332 -1.64354 7.00272 0
M  V30 214 C 21.7592 -1.75634 5.64718 0
M  V30 215 C 21.1212 -1.52709 6.87648 0
M  V30 216 H 17.2202 -0.563434 0.542279 0
M  V30 217 H 19.8042 -0.908617 1.72198 0
M  V30 218 H 17.9752 -3.42649 1.82883 0
M  V30 219 H 19.7072 -3.47682 2.07122 0
M  V30 220 H 16.4622 -2.66056 3.91805 0
M  V30 221 H 16.8862 -2.02348 6.46053 0
M  V30 222 H 21.5282 -2.26919 3.56746 0
M  V30 223 H 19.2462 -1.46683 7.94676 0
M  V30 224 H 22.8322 -1.65546 5.57751 0
M  V30 225 H 21.7122 -1.2612 7.73992 0
M  V30 226 N 19.2153 -1.21501 -1.00376 0
M  V30 227 C 20.1623 -0.975387 -2.09177 0
M  V30 228 C 21.1323 0.0990615 -1.65804 0
M  V30 229 O 22.3173 -0.0483147 -1.90739 0
M  V30 230 C 19.4573 -0.547507 -3.40729 0
M  V30 231 C 18.5703 -1.69153 -3.97506 0
M  V30 232 C 17.7053 -1.2127 -5.17172 0
M  V30 233 C 16.7443 -2.32897 -5.66061 0
M  V30 234 N 15.8813 -1.86138 -6.76976 0
M  V30 235 H 20.7213 -1.9068 -2.29009 0
M  V30 236 H 18.2583 -0.950257 -1.12288 0
M  V30 237 H 20.2163 -0.280667 -4.16255 0
M  V30 238 H 18.8463 0.346904 -3.20931 0
M  V30 239 H 17.8983 -2.07298 -3.18954 0
M  V30 240 H 19.2103 -2.5316 -4.29781 0
M  V30 241 H 18.3643 -0.902591 -5.99948 0
M  V30 242 H 17.1033 -0.342692 -4.86495 0
M  V30 243 H 16.1083 -2.64709 -4.81881 0
M  V30 244 H 17.3333 -3.20396 -5.98768 0
M  V30 245 H 15.2793 -1.01484 -6.48103 0
M  V30 246 H 15.1963 -2.63717 -7.08512 0
M  V30 247 H 16.4643 -1.58165 -7.63285 0
M  V30 248 N 20.6934 1.19889 -1.02296 0
M  V30 249 C 21.6234 2.25141 -0.619174 0
M  V30 250 C 22.6044 1.66051 0.368915 0
M  V30 251 O 23.7894 1.92546 0.252941 0
M  V30 252 C 20.9194 3.4728 0.0368783 0
M  V30 253 C 19.8734 4.19005 -0.872865 0
M  V30 254 C 19.1994 5.34637 -0.0822402 0
M  V30 255 C 20.4994 4.74452 -2.18387 0
M  V30 256 H 22.1934 2.59171 -1.49903 0
M  V30 257 H 19.7394 1.24579 -0.722222 0
M  V30 258 H 21.6924 4.20098 0.330958 0
M  V30 259 H 20.4164 3.12433 0.95149 0
M  V30 260 H 19.0754 3.48061 -1.15105 0
M  V30 261 H 18.7234 4.96034 0.83422 0
M  V30 262 H 18.4234 5.83557 -0.688149 0
M  V30 263 H 19.9474 6.10255 0.205238 0
M  V30 264 H 21.3614 5.39055 -1.95172 0
M  V30 265 H 19.7584 5.33834 -2.74119 0
M  V30 266 H 20.8284 3.92844 -2.84257 0
M  V30 267 N 22.1715 0.800033 1.35784 0
M  V30 268 C 23.3965 0.388511 2.03729 0
M  V30 269 C 23.8215 -0.990481 1.5991 0
M  V30 270 O 23.1795 -1.64013 0.772612 0
M  V30 271 C 23.2275 0.4726 3.5749 0
M  V30 272 O 22.3315 -0.51646 4.09153 0
M  V30 273 H 21.6725 0.163271 0.643614 0
M  V30 274 H 24.2025 1.0841 1.73518 0
M  V30 275 H 24.2125 0.34003 4.06581 0
M  V30 276 H 22.8875 1.47848 3.88734 0
M  V30 277 H 21.4645 -0.344673 3.71304 0
M  V30 278 N 23.6496 -1.47581 0.552962 0
M  V30 279 C 24.5596 -2.33743 -0.200353 0
M  V30 280 C 25.5756 -1.47928 -0.916151 0
M  V30 281 O 26.7516 -1.80865 -0.885993 0
M  V30 282 C 23.8166 -3.24536 -1.21973 0
M  V30 283 C 22.8776 -4.26238 -0.511819 0
M  V30 284 C 22.1106 -5.12693 -1.48263 0
M  V30 285 O 22.3336 -5.01525 -2.71714 0
M  V30 286 O 21.2676 -5.93375 -1.00945 0
M  V30 287 H 25.0936 -2.9945 0.506304 0
M  V30 288 H 22.6786 -1.46071 0.313622 0
M  V30 289 H 24.5606 -3.80631 -1.80827 0
M  V30 290 H 23.2356 -2.61462 -1.90839 0
M  V30 291 H 22.1426 -3.73914 0.117799 0
M  V30 292 H 23.4756 -4.92014 0.135308 0
M  V30 293 N 25.1277 -0.289203 -1.54924 0
M  V30 294 C 26.0757 0.607966 -2.24514 0
M  V30 295 C 27.0697 1.14655 -1.24702 0
M  V30 296 O 28.2757 1.09856 -1.4259 0
M  V30 297 H 24.6507 0.21464 -0.720718 0
M  V30 298 H 26.6217 -0.00164182 -2.984 0
M  V30 299 C 25.3707 1.77406 -2.99036 0
M  V30 300 H 24.6937 1.36884 -3.75637 0
M  V30 301 H 26.1337 2.37814 -3.51028 0
M  V30 302 C 24.5927 2.67107 -2.05318 0
M  V30 303 O 25.1227 3.6787 -1.61353 0
M  V30 304 N 23.3287 2.34582 -1.71521 0
M  V30 305 H 22.8757 1.52688 -2.07471 0
M  V30 306 H 22.8337 2.94867 -1.0909 0
M  V30 307 N 26.6058 1.57591 -0.0167156 0
M  V30 308 C 27.5158 2.1291 0.98521 0
M  V30 309 C 28.5318 1.07834 1.36557 0
M  V30 310 O 29.7078 1.39826 1.44951 0
M  V30 311 C 26.7728 2.63512 2.25305 0
M  V30 312 C 25.8338 3.83256 1.93426 0
M  V30 313 C 25.0668 4.31435 3.14165 0
M  V30 314 O 25.2898 3.78851 4.26413 0
M  V30 315 O 24.2238 5.23416 2.97186 0
M  V30 316 H 28.0498 2.98772 0.544888 0
M  V30 317 H 25.6348 1.48012 0.203141 0
M  V30 318 H 27.5168 2.96183 2.99756 0
M  V30 319 H 26.1918 1.8074 2.68542 0
M  V30 320 H 25.0988 3.55531 1.16398 0
M  V30 321 H 26.4318 4.67153 1.55013 0
M  V30 322 N 28.0839 -0.256276 1.55502 0
M  V30 323 C 29.3329 -0.983486 1.76098 0
M  V30 324 C 29.6459 -1.86837 0.578896 0
M  V30 325 O 30.8519 -2.63163 0.667648 0
M  V30 326 C 29.3079 -1.79868 3.1173 0
M  V30 327 C 28.9159 -0.961648 4.37557 0
M  V30 328 C 30.6599 -2.51919 3.41668 0
M  V30 329 C 28.5669 -1.77219 5.64223 0
M  V30 330 H 27.4969 -0.370936 0.656447 0
M  V30 331 H 30.1479 -0.238492 1.81944 0
M  V30 332 H 28.5299 -2.58527 2.99966 0
M  V30 333 H 29.7039 -0.218048 4.60284 0
M  V30 334 H 28.0189 -0.354913 4.14885 0
M  V30 335 H 30.6159 -3.12998 4.33516 0
M  V30 336 H 30.9589 -3.23059 2.62562 0
M  V30 337 H 31.4919 -1.80278 3.54605 0
M  V30 338 H 28.2309 -1.10471 6.46124 0
M  V30 339 H 27.7509 -2.49132 5.45613 0
M  V30 340 H 29.4299 -2.34169 6.03137 0
M  V30 341 N 29.562 -1.4872 -0.521534 0
M  V30 342 C 30.509 -1.63871 -1.62527 0
M  V30 343 C 31.479 -0.480559 -1.58996 0
M  V30 344 O 32.664 -0.705085 -1.77294 0
M  V30 345 C 29.804 -1.69227 -3.00759 0
M  V30 346 C 28.917 -2.96207 -3.14461 0
M  V30 347 C 28.052 -2.92671 -4.43303 0
M  V30 348 C 27.091 -4.14318 -4.50563 0
M  V30 349 N 26.228 -4.0881 -5.70805 0
M  V30 350 H 31.068 -2.58123 -1.48918 0
M  V30 351 H 28.605 -1.28 -0.724878 0
M  V30 352 H 30.563 -1.70314 -3.80853 0
M  V30 353 H 29.193 -0.784586 -3.1312 0
M  V30 354 H 28.245 -3.04826 -2.27564 0
M  V30 355 H 29.557 -3.86192 -3.15686 0
M  V30 356 H 28.711 -2.92206 -5.31696 0
M  V30 357 H 27.45 -2.00429 -4.44612 0
M  V30 358 H 26.455 -4.15049 -3.60575 0
M  V30 359 H 27.68 -5.07729 -4.50986 0
M  V30 360 H 25.626 -3.19394 -5.72995 0
M  V30 361 H 25.543 -4.92509 -5.7356 0
M  V30 362 H 26.811 -4.12418 -6.61462 0
M  V30 363 N 31.0401 0.771051 -1.3745 0
M  V30 364 C 32.2891 1.52491 -1.3202 0
M  V30 365 C 32.6021 1.9538 0.0927347 0
M  V30 366 O 33.8081 2.70159 0.269503 0
M  V30 367 C 32.2641 2.75366 -2.31736 0
M  V30 368 C 31.8721 2.39573 -3.78562 0
M  V30 369 C 33.6161 3.53307 -2.35318 0
M  V30 370 C 31.5231 3.58954 -4.70007 0
M  V30 371 H 30.4531 0.572506 -0.490666 0
M  V30 372 H 33.1041 0.844474 -1.62914 0
M  V30 373 H 31.4861 3.45303 -1.93861 0
M  V30 374 H 32.6601 1.77415 -4.25277 0
M  V30 375 H 30.9751 1.74805 -3.77932 0
M  V30 376 H 33.5721 4.42039 -3.00842 0
M  V30 377 H 33.9151 3.93217 -1.36698 0
M  V30 378 H 34.4481 2.90367 -2.71904 0
M  V30 379 H 31.1871 3.24125 -5.69757 0
M  V30 380 H 30.7071 4.20214 -4.27996 0
M  V30 381 H 32.3861 4.25758 -4.87175 0
M  V30 382 N 32.5182 1.22032 0.997298 0
M  V30 383 C 33.7482 1.06686 1.76923 0
M  V30 384 C 34.1562 -0.385838 1.85224 0
M  V30 385 O 33.4992 -1.27929 1.31833 0
M  V30 386 C 33.5612 1.59802 3.22031 0
M  V30 387 C 33.2252 3.08362 3.37286 0
M  V30 388 C 34.2222 4.05835 3.24952 0
M  V30 389 C 31.9072 3.47727 3.6248 0
M  V30 390 C 33.9012 5.4066 3.37588 0
M  V30 391 C 31.5882 4.82701 3.74757 0
M  V30 392 C 32.5862 5.78977 3.62319 0
M  V30 393 O 32.2742 7.11502 3.74193 0
M  V30 394 H 32.0062 0.374767 0.562606 0
M  V30 395 H 34.5602 1.61991 1.26286 0
M  V30 396 H 32.7902 0.989003 3.73839 0
M  V30 397 H 34.4792 1.40184 3.80924 0
M  V30 398 H 35.2452 3.76766 3.05405 0
M  V30 399 H 31.1242 2.73317 3.7124 0
M  V30 400 H 34.6682 6.15788 3.27796 0
M  V30 401 H 30.5652 5.11453 3.9381 0
M  V30 402 H 31.3332 7.19019 3.91093 0
M  V30 403 N 33.9963 -1.19345 1.0293 0
M  V30 404 C 34.9063 -2.26245 0.620515 0
M  V30 405 C 35.9223 -1.70486 -0.347928 0
M  V30 406 O 37.0983 -2.00347 -0.205704 0
M  V30 407 C 34.1633 -3.46693 -0.0218957 0
M  V30 408 C 33.2243 -4.17632 0.994102 0
M  V30 409 C 32.4573 -5.32329 0.382253 0
M  V30 410 O 32.6803 -5.64552 -0.814676 0
M  V30 411 O 31.6143 -5.91664 1.10531 0
M  V30 412 H 35.4403 -2.63453 1.51083 0
M  V30 413 H 33.0253 -1.26207 0.799513 0
M  V30 414 H 34.9073 -4.19683 -0.380072 0
M  V30 415 H 33.5823 -3.11333 -0.886209 0
M  V30 416 H 32.4893 -3.4676 1.40387 0
M  V30 417 H 33.8223 -4.56964 1.8288 0
M  V30 418 N 35.4744 -0.807222 -1.35358 0
M  V30 419 C 36.8854 -0.44876 -1.81226 0
M  V30 420 C 37.2364 1.02929 -1.67033 0
M  V30 421 O 36.3614 1.79991 -1.20133 0
M  V30 422 C 36.9564 -0.807774 -3.2903 0
M  V30 423 C 35.5154 -0.501901 -3.73039 0
M  V30 424 C 34.6624 -1.03304 -2.57339 0
M  V30 425 H 37.6134 -0.998808 -1.23327 0
M  V30 426 H 37.6344 -0.10554 -3.80354 0
M  V30 427 H 37.1464 -1.88357 -3.39328 0
M  V30 428 H 35.2474 0.565128 -3.68289 0
M  V30 429 H 35.3604 -1.03497 -4.67787 0
M  V30 430 H 33.7244 -0.455339 -2.50597 0
M  V30 431 H 34.5074 -2.11496 -2.70415 0
M  V30 432 N 36.9525 1.47285 -0.560781 0
M  V30 433 C 37.9155 2.28535 0.174488 0
M  V30 434 C 38.9155 1.37153 0.839388 0
M  V30 435 O 40.1055 1.59748 0.694702 0
M  V30 436 C 37.2375 3.16934 1.25561 0
M  V30 437 H 38.4305 2.95012 -0.539262 0
M  V30 438 H 35.9835 1.53034 -0.317865 0
M  V30 439 H 36.7185 2.55157 2.00164 0
M  V30 440 H 36.5035 3.8419 0.783604 0
M  V30 441 H 37.9935 3.78143 1.77193 0
M  V30 442 N 38.4306 0.297415 1.54768 0
M  V30 443 C 39.6556 -0.318435 2.04941 0
M  V30 444 C 40.0806 -1.4701 1.17345 0
M  V30 445 O 39.4386 -1.80436 0.176758 0
M  V30 446 C 39.4866 -0.755749 3.52592 0
M  V30 447 O 38.5906 -1.86088 3.68028 0
M  V30 448 H 37.9316 -0.062421 0.661059 0
M  V30 449 H 40.4616 0.438215 1.99852 0
M  V30 450 H 40.4716 -1.04552 3.94376 0
M  V30 451 H 39.1466 0.0867233 4.1581 0
M  V30 452 H 37.7236 -1.57193 3.38149 0
M  V30 453 N 39.9087 -1.5758 0.0250728 0
M  V30 454 C 41.1567 -1.91255 -0.653151 0
M  V30 455 C 41.4777 -0.901691 -1.729 0
M  V30 456 O 40.7477 0.0573785 -1.95816 0
M  V30 457 H 39.3277 -0.705942 -0.244243 0
M  V30 458 H 41.9897 -1.94767 0.0719209 0
M  V30 459 H 41.0857 -2.91752 -1.10847 0
M  V30 460 N 41.3868 0.248026 -1.55636 0
M  V30 461 C 42.3498 1.29044 -1.89421 0
M  V30 462 C 43.3498 1.41134 -0.770581 0
M  V30 463 O 44.5398 1.39854 -1.03858 0
M  V30 464 C 41.6718 2.66831 -2.12165 0
M  V30 465 H 42.8648 1.00305 -2.82629 0
M  V30 466 H 40.4178 0.487265 -1.48511 0
M  V30 467 H 41.1528 3.00711 -1.21422 0
M  V30 468 H 40.9378 2.59438 -2.93997 0
M  V30 469 H 42.4278 3.42103 -2.3949 0
M  V30 470 N 42.8649 1.48995 0.513639 0
M  V30 471 C 43.7749 1.67443 1.64317 0
M  V30 472 C 44.7909 0.556947 1.64846 0
M  V30 473 O 45.9669 0.830082 1.83498 0
M  V30 474 C 43.0319 1.72515 3.00732 0
M  V30 475 C 42.0929 2.96009 3.1093 0
M  V30 476 C 41.3259 3.00829 4.40837 0
M  V30 477 O 41.5489 2.13594 5.28898 0
M  V30 478 O 40.4829 3.93168 4.55744 0
M  V30 479 H 44.3089 2.63106 1.51687 0
M  V30 480 H 41.8939 1.32588 0.688543 0
M  V30 481 H 43.7759 1.78277 3.81831 0
M  V30 482 H 42.4509 0.800278 3.13651 0
M  V30 483 H 41.3579 2.9577 2.29065 0
M  V30 484 H 42.6909 3.87934 3.02933 0
M  V30 485 N 44.343 -0.763751 1.37857 0
M  V30 486 C 45.273 -1.89103 1.36975 0
M  V30 487 C 46.254 -1.68439 0.237152 0
M  V30 488 O 47.439 -1.8918 0.438713 0
M  V30 489 C 44.569 -3.26496 1.18395 0
M  V30 490 C 43.523 -3.61741 2.28751 0
M  V30 491 C 42.849 -4.97762 1.95286 0
M  V30 492 C 44.149 -3.67665 3.70972 0
M  V30 493 H 45.843 -1.90099 2.31307 0
M  V30 494 H 43.389 -0.91319 1.11341 0
M  V30 495 H 45.342 -4.05003 1.16406 0
M  V30 496 H 44.066 -3.25955 0.205215 0
M  V30 497 H 42.725 -2.85547 2.29909 0
M  V30 498 H 42.373 -4.93769 0.959221 0
M  V30 499 H 42.073 -5.22313 2.69189 0
M  V30 500 H 43.597 -5.7866 1.94898 0
M  V30 501 H 45.011 -4.36307 3.719 0
M  V30 502 H 43.408 -4.03718 4.43995 0
M  V30 503 H 44.478 -2.68134 4.0402 0
M  V30 504 N 45.8211 -1.22559 -0.990812 0
M  V30 505 C 47.0691 -1.04933 -1.72724 0
M  V30 506 C 47.3901 0.416158 -1.90508 0
M  V30 507 O 46.6601 1.29918 -1.46622 0
M  V30 508 H 45.2401 -0.385296 -0.639965 0
M  V30 509 H 47.9021 -1.54105 -1.19322 0
M  V30 510 H 46.9981 -1.52886 -2.72089 0
M  V30 511 N 47.2992 1.18797 -1.03562 0
M  V30 512 C 48.5242 1.9314 -0.755764 0
M  V30 513 C 48.9492 1.7537 0.68022 0
M  V30 514 O 48.3072 1.06046 1.47051 0
M  V30 515 C 48.3552 3.42747 -1.12058 0
M  V30 516 O 47.4592 4.11683 -0.243124 0
M  V30 517 H 46.8002 0.602724 -0.278604 0
M  V30 518 H 49.3302 1.50678 -1.3841 0
M  V30 519 H 49.3402 3.93437 -1.08035 0
M  V30 520 H 48.0152 3.55002 -2.16672 0
M  V30 521 H 46.5922 3.71323 -0.342539 0
M  V30 522 N 48.7773 0.814389 1.34928 0
M  V30 523 C 50.0233 0.399013 1.98836 0
M  V30 524 C 50.3563 -1.03314 1.64438 0
M  V30 525 O 49.6313 -1.71811 0.911659 0
M  V30 526 C 49.9143 0.591629 3.55207 0
M  V30 527 C 49.7673 2.06928 3.99376 0
M  V30 528 C 51.0863 0.022199 4.40094 0
M  V30 529 H 48.2053 0.146451 0.722303 0
M  V30 530 H 50.8473 1.02537 1.59957 0
M  V30 531 H 48.9973 0.0584441 3.88456 0
M  V30 532 H 50.6693 2.66544 3.76499 0
M  V30 533 H 48.9123 2.56287 3.49999 0
M  V30 534 H 49.5833 2.1549 5.08201 0
M  V30 535 H 52.0593 0.477643 4.13349 0
M  V30 536 H 50.9353 0.186832 5.48582 0
M  V30 537 H 51.1963 -1.07215 4.28902 0
M  V30 538 N 50.2554 -1.46986 0.568584 0
M  V30 539 C 51.6664 -1.86188 0.138219 0
M  V30 540 C 52.0174 -1.47388 -1.29504 0
M  V30 541 O 51.1424 -0.88219 -1.97602 0
M  V30 542 C 51.7374 -3.3792 0.244065 0
M  V30 543 C 50.2964 -3.76171 -0.131335 0
M  V30 544 C 49.4434 -2.71027 0.586465 0
M  V30 545 H 52.3944 -1.38342 0.777645 0
M  V30 546 H 52.4154 -3.76729 -0.534351 0
M  V30 547 H 51.9274 -3.66128 1.28731 0
M  V30 548 H 50.0284 -3.5358 -1.17526 0
M  V30 549 H 50.1414 -4.78523 0.235146 0
M  V30 550 H 48.5054 -2.54684 0.0282722 0
M  V30 551 H 49.2884 -3.02077 1.63109 0
M  V30 552 N 51.7335 -0.305618 -1.54608 0
M  V30 553 C 52.6965 0.555591 -2.22364 0
M  V30 554 C 53.6965 1.05768 -1.21119 0
M  V30 555 O 54.8865 0.952972 -1.45822 0
M  V30 556 C 52.0185 1.76974 -2.91364 0
M  V30 557 H 53.2115 -0.0364572 -2.99878 0
M  V30 558 H 50.7645 -0.0565007 -1.56198 0
M  V30 559 H 51.4995 2.40151 -2.17941 0
M  V30 560 H 51.2845 1.41732 -3.65588 0
M  V30 561 H 52.7745 2.38148 -3.43038 0
M  V30 562 N 53.2116 1.57565 -0.0334293 0
M  V30 563 C 54.1446 2.05997 0.981866 0
M  V30 564 C 55.1226 0.956647 1.3148 0
M  V30 565 O 56.3066 1.22729 1.43073 0
M  V30 566 C 53.4336 2.48564 2.30074 0
M  V30 567 C 52.4796 3.69958 2.12211 0
M  V30 568 S 53.3126 5.16414 1.41692 0
M  V30 569 C 54.4686 5.6228 2.7494 0
M  V30 570 H 54.7016 2.91792 0.569612 0
M  V30 571 H 52.2346 1.53366 0.178376 0
M  V30 572 H 54.1926 2.73753 3.05892 0
M  V30 573 H 52.8536 1.63106 2.68431 0
M  V30 574 H 52.0466 3.97603 3.09722 0
M  V30 575 H 51.6486 3.44943 1.44535 0
M  V30 576 H 53.9406 5.66783 3.71165 0
M  V30 577 H 54.8836 6.61759 2.51953 0
M  V30 578 H 55.2916 4.89944 2.80384 0
M  V30 579 N 54.6897 -0.239769 1.55765 0
M  V30 580 C 55.9147 -0.988373 1.82335 0
M  V30 581 C 56.3397 -1.77886 0.611421 0
M  V30 582 O 55.6977 -1.75889 -0.439639 0
M  V30 583 C 55.7457 -1.89627 3.06715 0
M  V30 584 O 54.8497 -2.98904 2.84131 0
M  V30 585 H 54.1907 -0.280858 0.601677 0
M  V30 586 H 56.7207 -0.258597 2.02959 0
M  V30 587 H 56.7307 -2.30957 3.36338 0
M  V30 588 H 55.4057 -1.31511 3.9456 0
M  V30 589 H 53.9827 -2.61651 2.65694 0
M  V30 590 N 56.1678 -1.49265 -0.50573 0
M  V30 591 C 57.3958 -1.62215 -1.28429 0
M  V30 592 C 57.8108 -0.291697 -1.86533 0
M  V30 593 O 57.1678 0.722233 -1.67601 0
M  V30 594 C 57.2188 -2.68735 -2.41793 0
M  V30 595 O 56.9398 -3.96619 -1.86078 0
M  V30 596 C 58.4408 -2.92346 -3.3324 0
M  V30 597 H 55.6608 -0.546239 -0.389697 0
M  V30 598 H 58.2048 -1.95265 -0.607609 0
M  V30 599 H 56.3598 -2.38476 -3.053 0
M  V30 600 H 56.7738 -4.55256 -2.60465 0
M  V30 601 H 58.2478 -3.70623 -4.09075 0
M  V30 602 H 58.7248 -2.02081 -3.89948 0
M  V30 603 H 59.3308 -3.24003 -2.75503 0
M  V30 604 N 57.6459 0.756429 -1.3826 0
M  V30 605 C 58.5559 1.9009 -1.37488 0
M  V30 606 C 59.5719 1.71855 -0.272366 0
M  V30 607 O 60.7479 1.94827 -0.510318 0
M  V30 608 C 57.8129 3.25421 -1.19592 0
M  V30 609 C 56.8739 3.56202 -2.39622 0
M  V30 610 C 56.1069 4.85075 -2.2257 0
M  V30 611 O 56.3299 5.57246 -1.21793 0
M  V30 612 O 55.2639 5.15269 -3.11098 0
M  V30 613 H 59.0899 1.93695 -2.33914 0
M  V30 614 H 56.6749 0.901313 -1.1915 0
M  V30 615 H 58.5569 4.06337 -1.11661 0
M  V30 616 H 57.2319 3.22634 -0.262486 0
M  V30 617 H 56.1389 2.75458 -2.53128 0
M  V30 618 H 57.4719 3.63747 -3.31586 0
M  V30 619 N 59.124 1.23083 0.984299 0
M  V30 620 C 60.034 1.02515 2.11016 0
M  V30 621 C 61.05 -0.0291702 1.73976 0
M  V30 622 O 62.226 0.165434 2.00719 0
M  V30 623 C 59.291 0.614673 3.41208 0
M  V30 624 C 58.352 1.74359 3.92297 0
M  V30 625 C 57.585 1.35261 5.16275 0
M  V30 626 O 57.808 0.235136 5.69915 0
M  V30 627 O 56.742 2.17227 5.61334 0
M  V30 628 H 60.568 1.96862 2.31255 0
M  V30 629 H 58.153 1.01753 1.09392 0
M  V30 630 H 60.035 0.396518 4.1953 0
M  V30 631 H 58.71 -0.299851 3.22308 0
M  V30 632 H 57.617 2.01635 3.1511 0
M  V30 633 H 58.95 2.63629 4.15645 0
M  V30 634 N 60.6021 -1.18246 1.0419 0
M  V30 635 C 61.8481 -1.88536 0.747122 0
M  V30 636 C 62.1811 -1.80223 -0.723409 0
M  V30 637 O 61.4561 -1.20337 -1.52804 0
M  V30 638 C 61.7391 -3.38968 1.21544 0
M  V30 639 C 61.5921 -3.56084 2.74816 0
M  V30 640 C 62.9111 -4.32648 0.806482 0
M  V30 641 H 60.0301 -0.684619 0.272883 0
M  V30 642 H 62.6721 -1.39113 1.29413 0
M  V30 643 H 60.8221 -3.8119 0.750081 0
M  V30 644 H 62.4941 -3.22946 3.29399 0
M  V30 645 H 60.7371 -2.98699 3.14582 0
M  V30 646 H 61.4081 -4.61639 3.02644 0
M  V30 647 H 63.8841 -3.98211 1.20695 0
M  V30 648 H 62.7601 -5.36462 1.1619 0
M  V30 649 H 63.0211 -4.41146 -0.29029 0
M  V30 650 N 62.0802 -0.821533 -1.34494 0
M  V30 651 C 63.3572 -0.33159 -1.92769 0
M  V30 652 C 63.7372 1.18088 -1.74981 0
M  V30 653 O 63.0852 1.98733 -1.12772 0
M  V30 654 C 63.2952 -0.759398 -3.40638 0
M  V30 655 C 64.6432 -0.757433 -4.1779 0
M  V30 656 O 65.6672 -0.70189 -3.49216 0
M  V30 657 O 64.5262 -0.829361 -5.4017 0
M  V30 658 H 61.6202 -0.0902502 -0.822061 0
M  V30 659 H 64.1662 -0.906231 -1.43477 0
M  V30 660 H 62.9382 -1.8012 -3.47379 0
M  V30 661 H 62.5612 -0.160378 -3.97276 0
M  V30 662 N 63.5583 1.46682 -0.576371 0
M  V30 663 C 64.7883 2.06498 -0.0648694 0
M  V30 664 C 65.1963 1.42665 1.24271 0
M  V30 665 O 64.5393 0.523886 1.76071 0
M  V30 666 C 64.6013 3.5904 0.181816 0
M  V30 667 C 64.2653 4.45028 -1.0392 0
M  V30 668 C 65.2623 4.81959 -1.94966 0
M  V30 669 C 62.9473 4.86259 -1.25927 0
M  V30 670 C 64.9413 5.58942 -3.06371 0
M  V30 671 C 62.6283 5.63002 -2.37638 0
M  V30 672 C 63.6263 5.99257 -3.2769 0
M  V30 673 O 63.3143 6.7445 -4.37461 0
M  V30 674 H 63.0463 0.674028 -0.0515987 0
M  V30 675 H 65.6003 1.89393 -0.794951 0
M  V30 676 H 63.8303 3.74429 0.966436 0
M  V30 677 H 65.5193 4.00806 0.641047 0
M  V30 678 H 66.2853 4.50689 -1.79177 0
M  V30 679 H 62.1643 4.57494 -0.567448 0
M  V30 680 H 65.7083 5.87158 -3.76684 0
M  V30 681 H 61.6053 5.93686 -2.53392 0
M  V30 682 H 62.3733 6.92867 -4.35749 0
M  V30 683 N 65.0364 0.313813 1.54444 0
M  V30 684 C 66.2824 -0.292108 2.00685 0
M  V30 685 C 66.6154 -1.52548 1.20177 0
M  V30 686 O 65.8904 -1.92452 0.281531 0
M  V30 687 C 66.1734 -0.635968 3.5444 0
M  V30 688 C 66.0264 0.607437 4.4568 0
M  V30 689 C 67.3454 -1.45747 4.15266 0
M  V30 690 H 64.4644 -0.104697 0.729526 0
M  V30 691 H 67.1064 0.428457 1.85106 0
M  V30 692 H 65.2564 -1.24986 3.67846 0
M  V30 693 H 66.9284 1.24581 4.44159 0
M  V30 694 H 65.1714 1.23822 4.15753 0
M  V30 695 H 65.8424 0.322515 5.51057 0
M  V30 696 H 68.3184 -0.938645 4.05375 0
M  V30 697 H 67.1944 -1.66683 5.2298 0
M  V30 698 H 67.4554 -2.45063 3.67963 0
M  V30 699 N 66.5145 -1.57545 0.0417849 0
M  V30 700 C 67.7445 -1.96339 -0.642995 0
M  V30 701 C 68.1525 -0.917536 -1.65463 0
M  V30 702 O 67.4955 0.107747 -1.83384 0
M  V30 703 C 67.5575 -3.31333 -1.39494 0
M  V30 704 C 67.2215 -4.53796 -0.540204 0
M  V30 705 C 68.2185 -5.19553 0.189806 0
M  V30 706 C 65.9035 -5.0006 -0.473886 0
M  V30 707 C 67.8975 -6.29904 0.974674 0
M  V30 708 C 65.5845 -6.10289 0.314677 0
M  V30 709 C 66.5825 -6.75072 1.03765 0
M  V30 710 O 66.2705 -7.83183 1.81327 0
M  V30 711 H 66.0025 -0.651241 -0.181277 0
M  V30 712 H 68.5565 -2.05148 0.101665 0
M  V30 713 H 66.7865 -3.19052 -2.18502 0
M  V30 714 H 68.4755 -3.54942 -1.96904 0
M  V30 715 H 69.2415 -4.84774 0.147981 0
M  V30 716 H 65.1205 -4.49433 -1.0262 0
M  V30 717 H 68.6645 -6.80401 1.5395 0
M  V30 718 H 64.5615 -6.44506 0.358174 0
M  V30 719 H 65.3295 -7.99913 1.73438 0
M  V30 720 N 67.9926 0.231505 -1.5589 0
M  V30 721 C 68.9556 1.27028 -1.90779 0
M  V30 722 C 69.9556 1.40308 -0.785507 0
M  V30 723 O 71.1456 1.38744 -1.05336 0
M  V30 724 C 68.2776 2.64566 -2.14983 0
M  V30 725 H 69.4706 0.973017 -2.83677 0
M  V30 726 H 67.0236 0.471486 -1.49019 0
M  V30 727 H 67.7586 2.99406 -1.24604 0
M  V30 728 H 67.5436 2.56305 -2.96732 0
M  V30 729 H 69.0336 3.39543 -2.43105 0
M  V30 730 N 69.4707 1.49531 0.497807 0
M  V30 731 C 70.6957 1.63159 1.28039 0
M  V30 732 C 71.1207 0.30418 1.85624 0
M  V30 733 O 70.4787 -0.728618 1.66015 0
M  V30 734 C 70.5267 2.70537 2.38416 0
M  V30 735 O 69.6307 2.29931 3.42353 0
M  V30 736 H 68.9717 0.546001 0.377861 0
M  V30 737 H 71.5017 1.9574 0.59558 0
M  V30 738 H 71.5117 2.92802 2.84132 0
M  V30 739 H 70.1867 3.6689 1.95869 0
M  V30 740 H 68.7637 2.18009 3.02533 0
M  V30 741 N 70.9488 -0.749086 1.3866 0
M  V30 742 C 71.9118 -1.84457 1.36045 0
M  V30 743 C 72.9118 -1.58682 0.260122 0
M  V30 744 O 74.1018 -1.66343 0.517261 0
M  V30 745 C 71.2338 -3.22008 1.11911 0
M  V30 746 H 72.4268 -1.88182 2.33512 0
M  V30 747 H 69.9798 -0.951266 1.24019 0
M  V30 748 H 70.7148 -3.2395 0.150686 0
M  V30 749 H 70.4998 -3.42111 1.91579 0
M  V30 750 H 71.9898 -4.0208 1.12788 0
M  V30 751 N 72.4269 -1.23603 -0.977757 0
M  V30 752 C 73.3739 -1.01954 -2.07061 0
M  V30 753 C 74.3439 0.0638697 -1.65977 0
M  V30 754 O 75.5289 -0.0887624 -1.90593 0
M  V30 755 C 72.6689 -0.619658 -3.39491 0
M  V30 756 C 71.7819 -1.77547 -3.93829 0
M  V30 757 C 70.9169 -1.32212 -5.14484 0
M  V30 758 C 69.9559 -2.44852 -5.60994 0
M  V30 759 N 69.0929 -2.00456 -6.72876 0
M  V30 760 H 73.9329 -1.95495 -2.24913 0
M  V30 761 H 71.4699 -0.973861 -1.10247 0
M  V30 762 H 73.4279 -0.368898 -4.15566 0
M  V30 763 H 72.0579 0.278752 -3.21594 0
M  V30 764 H 71.1099 -2.14016 -3.14486 0
M  V30 765 H 72.4219 -2.62219 -4.24314 0
M  V30 766 H 71.5759 -1.02965 -5.97899 0
M  V30 767 H 70.3149 -0.445808 -4.85658 0
M  V30 768 H 69.3199 -2.74871 -4.76157 0
M  V30 769 H 70.5449 -3.33024 -5.91837 0
M  V30 770 H 68.4909 -1.15208 -6.45804 0
M  V30 771 H 68.4079 -2.78687 -7.02759 0
M  V30 772 H 69.6759 -1.7432 -7.59758 0
M  V30 773 N 73.905 1.17692 -1.04816 0
M  V30 774 C 74.852 2.21581 -0.645797 0
M  V30 775 C 75.822 1.62367 0.350159 0
M  V30 776 O 77.007 1.89254 0.242433 0
M  V30 777 C 74.147 3.45092 -0.0227568 0
M  V30 778 C 73.26 4.18613 -1.06709 0
M  V30 779 C 72.395 5.29602 -0.411767 0
M  V30 780 C 71.434 5.94904 -1.44067 0
M  V30 781 N 70.571 6.97414 -0.809781 0
M  V30 782 H 75.411 2.55353 -1.5362 0
M  V30 783 H 72.948 1.25438 -0.768364 0
M  V30 784 H 74.906 4.15679 0.35588 0
M  V30 785 H 73.536 3.11917 0.831122 0
M  V30 786 H 72.588 3.46779 -1.5636 0
M  V30 787 H 73.9 4.63293 -1.84827 0
M  V30 788 H 73.054 6.06696 0.0206623 0
M  V30 789 H 71.793 4.86045 0.401438 0
M  V30 790 H 70.798 5.16544 -1.88316 0
M  V30 791 H 72.023 6.40542 -2.25571 0
M  V30 792 H 69.969 6.55998 -0.0170186 0
M  V30 793 H 69.886 7.40386 -1.52856 0
M  V30 794 H 71.154 7.78463 -0.401999 0
M  V30 795 N 75.3831 0.828654 1.34056 0
M  V30 796 C 76.3461 0.259927 2.27721 0
M  V30 797 C 77.3461 -0.565478 1.50529 0
M  V30 798 O 78.5361 -0.38075 1.69988 0
M  V30 799 C 75.6681 -0.634944 3.34935 0
M  V30 800 H 76.8611 1.0863 2.79534 0
M  V30 801 H 74.4141 0.600951 1.44285 0
M  V30 802 H 75.1491 -1.48416 2.88346 0
M  V30 803 H 74.9341 -0.0444999 3.92075 0
M  V30 804 H 76.4241 -1.02648 4.04788 0
M  V30 805 N 76.8612 -1.46375 0.584142 0
M  V30 806 C 77.7932 -2.28443 -0.186119 0
M  V30 807 C 78.8062 -1.38596 -0.854115 0
M  V30 808 O 79.9952 -1.63183 -0.723438 0
M  V30 809 C 77.0952 -3.13671 -1.28311 0
M  V30 810 C 76.2682 -4.31652 -0.706758 0
M  V30 811 C 75.3272 -4.98267 -1.69163 0
M  V30 812 O 74.3532 -5.55815 -1.22712 0
M  V30 813 N 75.5552 -4.95408 -3.02575 0
M  V30 814 H 78.3202 -2.9519 0.517986 0
M  V30 815 H 75.8812 -1.56303 0.42201 0
M  V30 816 H 77.8732 -3.55101 -1.94128 0
M  V30 817 H 76.4432 -2.48989 -1.89005 0
M  V30 818 H 75.6632 -3.93989 0.128908 0
M  V30 819 H 76.9512 -5.07906 -0.301506 0
M  V30 820 H 76.3492 -4.49902 -3.42936 0
M  V30 821 H 74.9062 -5.40774 -3.63877 0
M  V30 822 N 78.3393 -0.321999 -1.54275 0
M  V30 823 C 79.7503 0.166384 -1.85957 0
M  V30 824 C 80.1013 1.51747 -1.24367 0
M  V30 825 O 79.2263 2.09317 -0.549124 0
M  V30 826 C 79.8213 0.308681 -3.37391 0
M  V30 827 C 78.3803 0.741286 -3.69028 0
M  V30 828 C 77.5273 -0.137937 -2.76957 0
M  V30 829 H 80.4783 -0.542335 -1.49146 0
M  V30 830 H 80.4993 1.13984 -3.63026 0
M  V30 831 H 80.0113 -0.674809 -3.82188 0
M  V30 832 H 78.1123 1.73458 -3.29762 0
M  V30 833 H 78.2253 0.546118 -4.75977 0
M  V30 834 H 76.5893 0.386251 -2.51754 0
M  V30 835 H 77.3723 -1.11816 -3.2458 0
M  V30 836 N 79.8174 1.5752 -0.0501392 0
M  V30 837 C 80.7804 2.1037 0.909786 0
M  V30 838 C 81.7804 1.02308 1.24056 0
M  V30 839 O 82.9704 1.28385 1.17741 0
M  V30 840 C 80.1024 2.58708 2.21998 0
M  V30 841 H 81.2954 2.96479 0.451665 0
M  V30 842 H 78.8484 1.55038 0.198248 0
M  V30 843 H 79.5834 1.75989 2.72394 0
M  V30 844 H 79.3684 3.37675 1.99295 0
M  V30 845 H 80.8584 2.99747 2.9076 0
M  V30 846 N 81.2955 -0.223234 1.56011 0
M  V30 847 C 82.5415 -0.944891 1.8012 0
M  V30 848 C 82.8965 -1.82039 0.622862 0
M  V30 849 O 82.1895 -1.8773 -0.383143 0
M  V30 850 C 82.3835 -1.81948 3.0762 0
M  V30 851 C 82.2125 -1.03014 4.37742 0
M  V30 852 C 80.9825 -0.72574 5.00061 0
M  V30 853 C 83.1805 -0.396256 5.12771 0
M  V30 854 N 81.1625 0.0851816 6.13841 0
M  V30 855 C 82.5335 0.278137 6.19376 0
M  V30 856 C 84.5885 -0.309117 4.9694 0
M  V30 857 C 83.2915 1.03133 7.11868 0
M  V30 858 C 85.3175 0.430607 5.8983 0
M  V30 859 C 84.6795 1.09355 6.9586 0
M  V30 860 H 80.7785 -0.326081 0.710771 0
M  V30 861 H 83.3625 -0.215914 1.93499 0
M  V30 862 H 81.5335 -2.52029 2.95527 0
M  V30 863 H 83.2655 -2.47848 3.19927 0
M  V30 864 H 80.0205 -1.04335 4.61964 0
M  V30 865 H 80.4445 0.479428 6.753 0
M  V30 866 H 85.0865 -0.807313 4.15021 0
M  V30 867 H 82.8045 1.54105 7.9327 0
M  V30 868 H 86.3905 0.499012 5.79656 0
M  V30 869 H 85.2705 1.65679 7.66499 0
M  V30 870 N 82.7736 -1.49793 -0.48987 0
M  V30 871 C 84.1896 -1.36803 -0.822022 0
M  V30 872 C 84.3896 -0.409652 -1.97292 0
M  V30 873 O 83.4456 0.154614 -2.52026 0
M  V30 874 C 84.7586 -2.77768 -1.15175 0
M  V30 875 C 86.3066 -2.86549 -1.25931 0
M  V30 876 C 86.7816 -4.28306 -1.62228 0
M  V30 877 N 88.2726 -4.31169 -1.69256 0
M  V30 878 C 89.0076 -5.37832 -1.98807 0
M  V30 879 N 88.5036 -6.54726 -2.26507 0
M  V30 880 N 90.2966 -5.25258 -2.00152 0
M  V30 881 H 82.4476 -2.10691 0.268881 0
M  V30 882 H 84.7106 -0.946241 0.057728 0
M  V30 883 H 84.4166 -3.49648 -0.379335 0
M  V30 884 H 84.2906 -3.13836 -2.09253 0
M  V30 885 H 86.6776 -2.14899 -2.02243 0
M  V30 886 H 86.7586 -2.54049 -0.298776 0
M  V30 887 H 86.4026 -5.00486 -0.864622 0
M  V30 888 H 86.3326 -4.58279 -2.594 0
M  V30 889 H 88.8236 -3.4687 -1.49965 0
M  V30 890 H 89.1366 -7.31833 -2.48276 0
M  V30 891 H 87.4816 -6.57933 -2.23939 0
M  V30 892 H 90.6726 -4.32938 -1.77996 0
M  V30 893 H 90.8456 -6.08476 -2.22848 0
M  V30 894 N 84.2517 0.741722 -1.39055 0
M  V30 895 C 85.4767 1.53607 -1.39354 0
M  V30 896 C 85.9017 1.88096 0.0116905 0
M  V30 897 O 85.2597 1.5143 0.996924 0
M  V30 898 C 85.3077 2.80441 -2.26682 0
M  V30 899 O 84.4117 3.76088 -1.69208 0
M  V30 900 H 83.7527 0.464142 -0.474835 0
M  V30 901 H 86.2827 0.915665 -1.82967 0
M  V30 902 H 86.2927 3.29246 -2.40959 0
M  V30 903 H 84.9677 2.5467 -3.2881 0
M  V30 904 H 83.5447 3.34833 -1.64138 0
M  V30 905 N 85.7298 1.2412 0.971189 0
M  V30 906 C 86.6598 1.05508 2.08304 0
M  V30 907 C 87.6408 -0.0308864 1.70072 0
M  V30 908 O 88.8258 0.135521 1.93727 0
M  V30 909 C 85.9558 0.655365 3.4106 0
M  V30 910 C 84.9098 1.68971 3.93234 0
M  V30 911 C 84.2358 1.14516 5.22293 0
M  V30 912 C 85.5358 3.08487 4.21465 0
M  V30 913 H 87.2298 1.98507 2.24132 0
M  V30 914 H 84.7758 0.955821 1.07704 0
M  V30 915 H 86.7288 0.51217 4.18276 0
M  V30 916 H 85.4528 -0.31032 3.25122 0
M  V30 917 H 84.1118 1.82106 3.18171 0
M  V30 918 H 83.7598 0.170189 5.02712 0
M  V30 919 H 83.4598 1.83635 5.58168 0
M  V30 920 H 84.9838 1.01401 6.02121 0
M  V30 921 H 86.3978 2.98601 4.89398 0
M  V30 922 H 84.7948 3.74926 4.68562 0
M  V30 923 H 85.8648 3.56787 3.28376 0
M  V30 924 N 87.2079 -1.17134 1.05439 0
M  V30 925 C 88.4329 -1.91913 0.786396 0
M  V30 926 C 88.8579 -1.7643 -0.652234 0
M  V30 927 O 88.2159 -1.08372 -1.45345 0
M  V30 928 C 88.2639 -3.40921 1.17497 0
M  V30 929 O 87.3679 -4.11244 0.308589 0
M  V30 930 H 86.7089 -0.598215 0.288158 0
M  V30 931 H 89.2389 -1.48457 1.4079 0
M  V30 932 H 89.2489 -3.91668 1.14281 0
M  V30 933 H 87.9239 -3.5151 2.22292 0
M  V30 934 H 86.5009 -3.70731 0.40157 0
M  V30 935 N 88.686 -0.835752 -1.33615 0
M  V30 936 C 89.916 -0.442701 -2.01801 0
M  V30 937 C 90.324 0.959807 -1.63047 0
M  V30 938 O 89.667 1.63468 -0.838088 0
M  V30 939 C 89.729 -0.480125 -3.56279 0
M  V30 940 C 89.393 -1.8382 -4.18401 0
M  V30 941 C 90.39 -2.80097 -4.37998 0
M  V30 942 C 88.075 -2.13019 -4.54894 0
M  V30 943 C 90.069 -4.03736 -4.9323 0
M  V30 944 C 87.756 -3.36916 -5.09834 0
M  V30 945 C 88.754 -4.32091 -5.28948 0
M  V30 946 O 88.442 -5.53797 -5.82721 0
M  V30 947 H 88.174 -0.17441 -0.653114 0
M  V30 948 H 90.728 -1.129 -1.71589 0
M  V30 949 H 88.958 0.262931 -3.85805 0
M  V30 950 H 90.647 -0.105335 -4.05763 0
M  V30 951 H 91.413 -2.58838 -4.10156 0
M  V30 952 H 87.292 -1.39733 -4.39313 0
M  V30 953 H 90.836 -4.78034 -5.08064 0
M  V30 954 H 86.733 -3.58033 -5.37106 0
M  V30 955 H 87.501 -5.55494 -6.0114 0
M  V30 956 N 90.1641 1.46063 -0.591896 0
M  V30 957 C 91.4131 2.01547 -0.0786637 0
M  V30 958 C 91.7261 1.46796 1.29268 0
M  V30 959 O 92.9321 1.94157 1.89777 0
M  V30 960 C 91.3881 3.59787 -0.0900024 0
M  V30 961 C 90.9961 4.23534 -1.46023 0
M  V30 962 C 92.7401 4.22895 0.368806 0
M  V30 963 C 90.6471 5.73881 -1.4288 0
M  V30 964 H 89.5771 0.753564 -0.0256388 0
M  V30 965 H 92.2281 1.677 -0.744905 0
M  V30 966 H 90.6101 3.90752 0.642586 0
M  V30 967 H 91.7841 4.04167 -2.21328 0
M  V30 968 H 90.0991 3.72558 -1.85982 0
M  V30 969 H 92.6961 5.33116 0.411258 0
M  V30 970 H 93.0391 3.9247 1.38827 0
M  V30 971 H 93.5721 3.9659 -0.31001 0
M  V30 972 H 90.3111 6.0898 -2.42536 0
M  V30 973 H 89.8311 5.95486 -0.718095 0
M  V30 974 H 91.5101 6.36776 -1.14565 0
M  V30 975 N 91.6422 0.330177 1.54103 0
M  V30 976 C 92.5522 -0.541534 2.28264 0
M  V30 977 C 93.5682 -1.12351 1.32866 0
M  V30 978 O 94.7442 -1.14206 1.65888 0
M  V30 979 C 91.8092 -1.68322 3.03098 0
M  V30 980 C 90.8702 -1.13238 4.14096 0
M  V30 981 C 90.1032 -2.21966 4.85352 0
M  V30 982 O 90.3262 -3.42437 4.56172 0
M  V30 983 O 89.2602 -1.87013 5.7211 0
M  V30 984 H 93.0862 0.060938 3.03639 0
M  V30 985 H 90.6712 0.09565 1.49093 0
M  V30 986 H 92.5532 -2.34777 3.49939 0
M  V30 987 H 91.2282 -2.27176 2.30593 0
M  V30 988 H 90.1352 -0.432736 3.71589 0
M  V30 989 H 91.4682 -0.588898 4.88664 0
M  V30 990 N 93.1203 -1.57491 0.0584922 0
M  V30 991 C 94.5363 -1.56792 -0.298091 0
M  V30 992 C 94.7363 -1.06679 -1.70944 0
M  V30 993 O 93.7923 -0.726672 -2.41818 0
M  V30 994 C 95.1053 -3.00461 -0.119879 0
M  V30 995 C 96.6533 -3.1242 -0.190428 0
M  V30 996 C 97.1283 -4.57982 -0.0406567 0
M  V30 997 N 98.6193 -4.63099 -0.0966958 0
M  V30 998 C 99.3543 -5.734 -0.00502943 0
M  V30 999 N 98.8503 -6.9266 0.139402 0
M  V30 1000 N 100.643 -5.62067 -0.0611391 0
M  V30 1001 H 92.7943 -1.88386 0.98105 0
M  V30 1002 H 95.0573 -0.867865 0.381463 0
M  V30 1003 H 94.7633 -3.41187 0.85349 0
M  V30 1004 H 94.6373 -3.66843 -0.877833 0
M  V30 1005 H 97.0243 -2.71589 -1.15427 0
M  V30 1006 H 97.1053 -2.48702 0.598405 0
M  V30 1007 H 96.7493 -4.995 0.919897 0
M  V30 1008 H 96.6793 -5.19715 -0.848727 0
M  V30 1009 H 99.1703 -3.77331 -0.207277 0
M  V30 1010 H 99.4833 -7.72536 0.201855 0
M  V30 1011 H 97.8283 -6.94781 0.174586 0
M  V30 1012 H 101.019 -4.67782 -0.172583 0
M  V30 1013 H 101.192 -6.47999 0.0137562 0
M  V30 1014 N 94.5984 0.214957 -1.56127 0
M  V30 1015 C 95.5614 1.24997 -1.92116 0
M  V30 1016 C 96.5614 1.39467 -0.800344 0
M  V30 1017 O 97.7514 1.37619 -1.06802 0
M  V30 1018 C 94.8834 2.62271 -2.17777 0
M  V30 1019 H 96.0764 0.942875 -2.84693 0
M  V30 1020 H 93.6294 0.455654 -1.49511 0
M  V30 1021 H 94.3644 2.98068 -1.27773 0
M  V30 1022 H 94.1494 2.53143 -2.99434 0
M  V30 1023 H 95.6394 3.36946 -2.46693 0
M  V30 1024 N 96.0765 1.50051 0.48192 0
M  V30 1025 C 97.0395 1.67584 1.5636 0
M  V30 1026 C 98.0395 0.546894 1.51214 0
M  V30 1027 O 99.2295 0.813725 1.54026 0
M  V30 1028 C 96.3615 1.691 2.96003 0
M  V30 1029 H 97.5545 2.64078 1.42136 0
M  V30 1030 H 95.1075 1.39369 0.707533 0
M  V30 1031 H 95.8425 0.742589 3.15684 0
M  V30 1032 H 95.6275 2.51105 3.01146 0
M  V30 1033 H 97.1175 1.84656 3.74556 0
M  V30 1034 N 97.5546 -0.734337 1.39446 0
M  V30 1035 C 98.7846 -1.52137 1.39778 0
M  V30 1036 C 99.1926 -1.89198 -0.00929312 0
M  V30 1037 O 98.5356 -1.54666 -0.991168 0
M  V30 1038 C 98.5976 -2.83762 2.20724 0
M  V30 1039 C 98.2616 -2.69131 3.69347 0
M  V30 1040 C 99.2586 -2.37635 4.62413 0
M  V30 1041 C 96.9436 -2.85982 4.1294 0
M  V30 1042 C 98.9376 -2.23172 5.97054 0
M  V30 1043 C 96.6246 -2.71137 5.47657 0
M  V30 1044 C 97.6226 -2.39777 6.39528 0
M  V30 1045 O 97.3106 -2.25026 7.71763 0
M  V30 1046 H 97.0426 -0.476717 0.479288 0
M  V30 1047 H 99.5966 -0.915012 1.83893 0
M  V30 1048 H 97.8266 -3.4666 1.71359 0
M  V30 1049 H 99.5156 -3.45383 2.13226 0
M  V30 1050 H 100.282 -2.24267 4.30034 0
M  V30 1051 H 96.1606 -3.09383 3.41765 0
M  V30 1052 H 99.7046 -1.98617 6.68728 0
M  V30 1053 H 95.6016 -2.84083 5.79626 0
M  V30 1054 H 96.3696 -2.40091 7.82495 0
M  V30 1055 N 99.0327 -1.24633 -0.964593 0
M  V30 1056 C 99.9627 -1.06611 -2.07741 0
M  V30 1057 C 100.944 0.0218666 -1.70086 0
M  V30 1058 O 102.129 -0.145793 -1.93652 0
M  V30 1059 C 99.2587 -0.673444 -3.40708 0
M  V30 1060 C 98.2127 -1.71054 -3.92332 0
M  V30 1061 C 97.5387 -1.17285 -5.21678 0
M  V30 1062 C 98.8387 -3.10718 -4.19824 0
M  V30 1063 H 100.533 -1.99693 -2.23076 0
M  V30 1064 H 98.0787 -0.96152 -1.07195 0
M  V30 1065 H 100.032 -0.534345 -4.17998 0
M  V30 1066 H 98.7557 0.293073 -3.25282 0
M  V30 1067 H 97.4147 -1.83791 -3.17201 0
M  V30 1068 H 97.0627 -0.196847 -5.02615 0
M  V30 1069 H 96.7627 -1.86592 -5.57187 0
M  V30 1070 H 98.2867 -1.04593 -6.01575 0
M  V30 1071 H 99.7007 -3.01192 -4.87808 0
M  V30 1072 H 98.0977 -3.77406 -4.66567 0
M  V30 1073 H 99.1677 -3.58524 -3.26479 0
M  V30 1074 N 100.511 1.16574 -1.06058 0
M  V30 1075 C 101.461 2.18854 -0.63929 0
M  V30 1076 C 102.445 1.57505 0.328798 0
M  V30 1077 O 103.637 1.76408 0.144623 0
M  V30 1078 C 100.766 3.43291 -0.0247203 0
M  V30 1079 C 99.8518 4.11722 -1.01716 0
M  V30 1080 N 100.243 4.55841 -2.19186 0
M  V30 1081 C 98.5408 4.37872 -0.847569 0
M  V30 1082 C 99.2418 5.08751 -2.82042 0
M  V30 1083 N 98.2178 5.01489 -2.09784 0
M  V30 1084 H 102.02 2.5068 -1.53417 0
M  V30 1085 H 99.5338 1.32999 -0.931935 0
M  V30 1086 H 101.531 4.15856 0.294915 0
M  V30 1087 H 100.191 3.12954 0.865448 0
M  V30 1088 H 101.202 4.49649 -2.56975 0
M  V30 1089 H 97.8788 4.17499 -0.00918848 0
M  V30 1090 H 99.2688 5.52944 -3.81709 0
M  V30 1091 N 101.989 0.842826 1.3317 0
M  V30 1092 C 102.936 0.276885 2.29133 0
M  V30 1093 C 103.906 -0.609527 1.54512 0
M  V30 1094 O 105.091 -0.546955 1.82792 0
M  V30 1095 C 102.231 -0.538707 3.40869 0
M  V30 1096 C 101.344 0.372169 4.30394 0
M  V30 1097 C 100.479 -0.454908 5.29249 0
M  V30 1098 C 99.5179 0.45411 6.10413 0
M  V30 1099 N 98.6549 -0.335075 7.013 0
M  V30 1100 H 103.495 1.10052 2.76934 0
M  V30 1101 H 101.032 0.554161 1.36262 0
M  V30 1102 H 102.99 -1.02709 4.0436 0
M  V30 1103 H 101.62 -1.32727 2.9425 0
M  V30 1104 H 100.672 0.97888 3.6759 0
M  V30 1105 H 101.984 1.0703 4.87182 0
M  V30 1106 H 101.138 -1.00695 5.98285 0
M  V30 1107 H 99.8769 -1.18646 4.73048 0
M  V30 1108 H 98.8819 1.01813 5.40291 0
M  V30 1109 H 100.107 1.18409 6.68697 0
M  V30 1110 H 98.0529 -1.04994 6.47543 0
M  V30 1111 H 97.9699 0.304262 7.55387 0
M  V30 1112 H 99.2379 -0.869224 7.74638 0
M  V30 1113 N 103.467 -1.45747 0.599634 0
M  V30 1114 C 104.713 -2.02592 0.0918643 0
M  V30 1115 C 105.046 -1.46806 -1.27128 0
M  V30 1116 O 104.321 -0.639658 -1.83681 0
M  V30 1117 C 104.604 -3.60073 0.0443398 0
M  V30 1118 C 104.457 -4.26208 1.43759 0
M  V30 1119 C 105.776 -4.35309 -0.647608 0
M  V30 1120 H 102.895 -0.736175 0.034857 0
M  V30 1121 H 105.537 -1.73694 0.770081 0
M  V30 1122 H 103.687 -3.84823 -0.533224 0
M  V30 1123 H 105.359 -4.12668 2.06162 0
M  V30 1124 H 103.602 -3.84916 2.00056 0
M  V30 1125 H 104.273 -5.35069 1.35665 0
M  V30 1126 H 106.749 -4.15805 -0.156776 0
M  V30 1127 H 105.625 -5.45038 -0.649942 0
M  V30 1128 H 105.886 -4.07598 -1.71219 0
M  V30 1129 N 104.945 -0.338344 -1.53925 0
M  V30 1130 C 105.908 0.508299 -2.23493 0
M  V30 1131 C 106.908 1.03175 -1.23335 0
M  V30 1132 O 108.098 0.921826 -1.47811 0
M  V30 1133 C 105.23 1.70754 -2.95052 0
M  V30 1134 H 106.423 -0.100058 -2.99733 0
M  V30 1135 H 103.976 -0.0896198 -1.56043 0
M  V30 1136 H 104.711 2.35474 -2.22986 0
M  V30 1137 H 104.496 1.33946 -3.68512 0
M  V30 1138 H 105.986 2.30818 -3.48013 0
M  V30 1139 N 106.423 1.57458 -0.0668435 0
M  V30 1140 C 107.7 1.8469 0.644132 0
M  V30 1141 C 108.08 0.958343 1.88093 0
M  V30 1142 O 107.428 0.0233579 2.28488 0
M  V30 1143 C 107.638 3.34767 0.986509 0
M  V30 1144 C 108.986 4.02159 1.36212 0
M  V30 1145 O 110.01 3.39484 1.07839 0
M  V30 1146 O 108.869 5.12694 1.89227 0
M  V30 1147 H 105.963 0.762816 0.319437 0
M  V30 1148 H 108.509 1.6942 -0.0973986 0
M  V30 1149 H 107.281 3.91151 0.107883 0
M  V30 1150 H 106.904 3.55281 1.78497 0
M  V30 1151 N 107.901 -0.206675 1.56239 0
M  V30 1152 C 109.15 -0.926964 1.79138 0
M  V30 1153 C 109.463 -1.84901 0.638043 0
M  V30 1154 O 110.669 -2.60906 0.751033 0
M  V30 1155 C 109.125 -1.6986 3.17294 0
M  V30 1156 C 108.733 -0.821956 4.40395 0
M  V30 1157 C 110.477 -2.40922 3.4951 0
M  V30 1158 C 108.384 -1.59179 5.69575 0
M  V30 1159 H 107.314 -0.349864 0.667915 0
M  V30 1160 H 109.965 -0.180487 1.8261 0
M  V30 1161 H 108.347 -2.48853 3.08039 0
M  V30 1162 H 109.521 -0.0715019 4.60745 0
M  V30 1163 H 107.836 -0.222741 4.15804 0
M  V30 1164 H 110.433 -2.99047 4.43255 0
M  V30 1165 H 110.776 -3.14542 2.72707 0
M  V30 1166 H 111.309 -1.68905 3.60161 0
M  V30 1167 H 108.048 -0.898589 6.49312 0
M  V30 1168 H 107.568 -2.31648 5.53262 0
M  V30 1169 H 109.247 -2.14862 6.10281 0
M  V30 1170 N 109.379 -1.50304 -0.473955 0
M  V30 1171 C 110.309 -1.71886 -1.58042 0
M  V30 1172 C 111.29 -0.567799 -1.60344 0
M  V30 1173 O 112.475 -0.806623 -1.76656 0
M  V30 1174 C 109.605 -1.81036 -2.96384 0
M  V30 1175 C 108.559 -2.962 -3.08949 0
M  V30 1176 C 107.885 -2.9049 -4.48909 0
M  V30 1177 C 109.185 -4.36752 -2.86434 0
M  V30 1178 H 110.879 -2.64527 -1.40234 0
M  V30 1179 H 108.425 -1.27295 -0.673201 0
M  V30 1180 H 110.378 -1.94719 -3.73714 0
M  V30 1181 H 109.102 -0.850147 -3.15341 0
M  V30 1182 H 107.761 -2.82164 -2.3405 0
M  V30 1183 H 107.409 -1.92321 -4.64781 0
M  V30 1184 H 107.109 -3.67802 -4.58253 0
M  V30 1185 H 108.633 -3.06218 -5.28264 0
M  V30 1186 H 110.047 -4.5133 -3.53517 0
M  V30 1187 H 108.444 -5.15493 -3.07225 0
M  V30 1188 H 109.514 -4.49321 -1.82316 0
M  V30 1189 N 110.857 0.726932 -1.39834 0
M  V30 1190 C 111.79 1.8501 -1.33592 0
M  V30 1191 C 112.768 1.61262 -0.208191 0
M  V30 1192 O 113.952 1.84422 -0.389981 0
M  V30 1193 C 111.079 3.21143 -1.07633 0
M  V30 1194 C 110.125 3.63737 -2.22705 0
M  V30 1195 S 110.958 3.72167 -3.85035 0
M  V30 1196 C 112.114 5.11077 -3.61318 0
M  V30 1197 H 112.347 1.90022 -2.28646 0
M  V30 1198 H 109.88 0.892595 -1.25985 0
M  V30 1199 H 111.838 3.99747 -0.933415 0
M  V30 1200 H 110.499 3.13776 -0.142526 0
M  V30 1201 H 109.692 4.62551 -2.00155 0
M  V30 1202 H 109.294 2.9236 -2.33242 0
M  V30 1203 H 111.586 5.97656 -3.19083 0
M  V30 1204 H 112.529 5.38658 -4.59623 0
M  V30 1205 H 112.937 4.81135 -2.95245 0
M  V30 1206 N 112.336 1.25143 0.95797 0
M  V30 1207 C 113.752 1.01892 1.22842 0
M  V30 1208 C 113.952 -0.266311 1.99732 0
M  V30 1209 O 113.008 -0.979913 2.3271 0
M  V30 1210 C 114.321 2.24004 2.00606 0
M  V30 1211 C 115.869 2.28731 2.13662 0
M  V30 1212 C 116.344 3.5049 2.94823 0
M  V30 1213 N 117.835 3.50866 3.02403 0
M  V30 1214 C 118.57 4.4174 3.65586 0
M  V30 1215 N 118.066 5.42882 4.30408 0
M  V30 1216 N 119.859 4.29429 3.62694 0
M  V30 1217 H 112.01 2.07718 0.443493 0
M  V30 1218 H 114.273 0.912031 0.258657 0
M  V30 1219 H 113.979 3.17395 1.51503 0
M  V30 1220 H 113.853 2.26907 3.01319 0
M  V30 1221 H 116.24 1.35865 2.61963 0
M  V30 1222 H 116.321 2.29848 1.12265 0
M  V30 1223 H 115.965 4.43676 2.47213 0
M  V30 1224 H 115.895 3.46617 3.96439 0
M  V30 1225 H 118.386 2.777 2.56302 0
M  V30 1226 H 118.699 6.0844 4.76467 0
M  V30 1227 H 117.044 5.46758 4.29047 0
M  V30 1228 H 120.235 3.49643 3.11236 0
M  V30 1229 H 120.408 5.00448 4.1165 0
M  V30 1230 N 113.814 -1.1601 1.06675 0
M  V30 1231 C 115.091 -1.82679 0.699114 0
M  V30 1232 C 115.471 -1.94559 -0.819137 0
M  V30 1233 O 114.819 -1.49169 -1.73092 0
M  V30 1234 C 115.029 -3.19445 1.40555 0
M  V30 1235 C 116.377 -3.95171 1.55323 0
M  V30 1236 O 117.401 -3.28976 1.36577 0
M  V30 1237 O 116.26 -5.13833 1.86112 0
M  V30 1238 H 113.354 -0.788954 0.247951 0
M  V30 1239 H 115.9 -1.23179 1.16726 0
M  V30 1240 H 114.672 -3.05856 2.44065 0
M  V30 1241 H 114.295 -3.86625 0.927733 0
M  V30 1242 N 115.292 -0.849877 -1.32721 0
M  V30 1243 C 116.239 -0.289033 -2.28983 0
M  V30 1244 C 117.209 0.601324 -1.54833 0
M  V30 1245 O 118.394 0.537253 -1.8308 0
M  V30 1246 C 115.534 0.520623 -3.4115 0
M  V30 1247 C 114.647 -0.394989 -4.3019 0
M  V30 1248 C 113.782 0.426834 -5.29482 0
M  V30 1249 C 112.821 -0.486476 -6.10164 0
M  V30 1250 N 111.958 0.297879 -7.01468 0
M  V30 1251 H 116.798 -1.11519 -2.76347 0
M  V30 1252 H 114.335 -0.56138 -1.35967 0
M  V30 1253 H 116.293 1.00563 -4.04899 0
M  V30 1254 H 114.923 1.31165 -2.9495 0
M  V30 1255 H 113.975 -0.99836 -3.67065 0
M  V30 1256 H 115.287 -1.09612 -4.86607 0
M  V30 1257 H 114.441 0.975205 -5.98811 0
M  V30 1258 H 113.18 1.16136 -4.73671 0
M  V30 1259 H 112.185 -1.04677 -5.39743 0
M  V30 1260 H 113.41 -1.21953 -6.6806 0
M  V30 1261 H 111.356 1.01558 -6.48091 0
M  V30 1262 H 111.273 -0.344318 -7.55216 0
M  V30 1263 H 112.541 0.828131 -7.75089 0
M  V30 1264 N 116.77 1.45427 -0.607355 0
M  V30 1265 C 117.68 2.34325 0.113463 0
M  V30 1266 C 118.696 1.51226 0.860617 0
M  V30 1267 O 119.872 1.84029 0.818255 0
M  V30 1268 C 116.937 3.28839 1.09844 0
M  V30 1269 C 115.998 4.27844 0.353271 0
M  V30 1270 C 115.231 5.17842 1.29133 0
M  V30 1271 O 115.454 5.11264 2.52913 0
M  V30 1272 O 114.388 5.96713 0.788523 0
M  V30 1273 H 118.214 2.97364 -0.617094 0
M  V30 1274 H 115.799 1.44807 -0.367619 0
M  V30 1275 H 117.681 3.8708 1.66575 0
M  V30 1276 H 116.356 2.68365 1.81003 0
M  V30 1277 H 115.263 3.7322 -0.256494 0
M  V30 1278 H 116.596 4.91173 -0.317822 0
M  V30 1279 N 118.248 0.346503 1.53744 0
M  V30 1280 C 119.195 -0.508914 2.25119 0
M  V30 1281 C 120.165 -1.09315 1.25058 0
M  V30 1282 O 121.35 -1.12921 1.53797 0
M  V30 1283 C 118.49 -1.65246 3.02965 0
M  V30 1284 C 117.603 -1.09525 4.17886 0
M  V30 1285 C 116.738 -2.20634 4.83212 0
M  V30 1286 C 115.777 -1.62279 5.90196 0
M  V30 1287 N 114.914 -2.67143 6.49291 0
M  V30 1288 H 119.754 0.106283 2.9781 0
M  V30 1289 H 117.291 0.0642227 1.4696 0
M  V30 1290 H 119.249 -2.32574 3.4636 0
M  V30 1291 H 117.879 -2.2386 2.32565 0
M  V30 1292 H 116.931 -0.312818 3.79112 0
M  V30 1293 H 118.243 -0.628444 4.94825 0
M  V30 1294 H 117.397 -2.95821 5.29693 0
M  V30 1295 H 116.136 -2.70659 4.05703 0
M  V30 1296 H 115.141 -0.855989 5.43096 0
M  V30 1297 H 116.366 -1.13102 6.69615 0
M  V30 1298 H 114.312 -3.16417 5.74645 0
M  V30 1299 H 114.229 -2.25093 7.21713 0
M  V30 1300 H 115.497 -3.4209 7.00425 0
M  V30 1301 N 119.726 -1.57421 0.075193 0
M  V30 1302 C 120.975 -1.92794 -0.592731 0
M  V30 1303 C 121.288 -0.957478 -1.70563 0
M  V30 1304 O 122.494 -1.20417 -2.43335 0
M  V30 1305 C 120.95 -3.42495 -1.10569 0
M  V30 1306 C 120.558 -4.47994 -0.0236121 0
M  V30 1307 C 122.302 -3.86864 -1.74748 0
M  V30 1308 C 120.209 -5.88829 -0.550803 0
M  V30 1309 H 119.139 -0.719591 -0.225177 0
M  V30 1310 H 121.79 -1.82902 0.147978 0
M  V30 1311 H 120.172 -3.47471 -1.89947 0
M  V30 1312 H 121.346 -4.54637 0.751099 0
M  V30 1313 H 119.661 -4.13113 0.522159 0
M  V30 1314 H 122.258 -4.8947 -2.15229 0
M  V30 1315 H 122.601 -3.24417 -2.60882 0
M  V30 1316 H 123.134 -3.84504 -1.01986 0
M  V30 1317 H 119.873 -6.54929 0.273457 0
M  V30 1318 H 119.393 -5.85698 -1.29296 0
M  V30 1319 H 121.072 -6.38811 -1.02613 0
M  V30 1320 N 121.204 0.198386 -1.56346 0
M  V30 1321 C 122.452 0.91747 -1.80075 0
M  V30 1322 C 122.773 1.83929 -0.647692 0
M  V30 1323 O 122.043 1.93029 0.334166 0
M  V30 1324 H 120.623 0.341774 -0.664228 0
M  V30 1325 H 123.285 0.204684 -1.93822 0
M  V30 1326 H 122.381 1.51055 -2.7311 0
M  V30 1327 N 122.682 1.50554 0.465978 0
M  V30 1328 C 123.645 1.69233 1.54574 0
M  V30 1329 C 124.645 0.562901 1.50626 0
M  V30 1330 O 125.835 0.830016 1.53155 0
M  V30 1331 C 122.967 1.7223 2.94193 0
M  V30 1332 H 124.16 2.65571 1.39327 0
M  V30 1333 H 121.713 1.40111 0.692711 0
M  V30 1334 H 122.448 0.77603 3.14878 0
M  V30 1335 H 122.233 2.54285 2.98466 0
M  V30 1336 H 123.723 1.88618 3.72576 0
M  V30 1337 N 124.16 -0.719506 1.40217 0
M  V30 1338 C 125.406 -1.48152 1.38488 0
M  V30 1339 C 125.739 -1.94195 -0.0141867 0
M  V30 1340 O 125.014 -1.67884 -0.982096 0
M  V30 1341 C 125.297 -2.71035 2.37091 0
M  V30 1342 C 125.15 -2.30912 3.86005 0
M  V30 1343 C 126.469 -3.73182 2.33288 0
M  V30 1344 H 123.588 -0.537395 0.504357 0
M  V30 1345 H 126.23 -0.821472 1.71324 0
M  V30 1346 H 124.38 -3.27352 2.0922 0
M  V30 1347 H 126.052 -1.80107 4.24687 0
M  V30 1348 H 124.295 -1.62958 4.02029 0
M  V30 1349 H 124.966 -3.18978 4.50508 0
M  V30 1350 H 127.442 -3.26485 2.57966 0
M  V30 1351 H 126.318 -4.56806 3.04334 0
M  V30 1352 H 126.579 -4.21202 1.34317 0
M  V30 1353 N 125.638 -1.25649 -0.95132 0
M  V30 1354 C 126.568 -1.08808 -2.06599 0
M  V30 1355 C 127.549 0.00382547 -1.701 0
M  V30 1356 O 128.734 -0.166325 -1.93486 0
M  V30 1357 C 125.864 -0.709542 -3.39975 0
M  V30 1358 C 124.818 -1.75206 -3.90496 0
M  V30 1359 C 124.144 -1.22811 -5.20405 0
M  V30 1360 C 125.444 -3.15153 -4.16504 0
M  V30 1361 H 127.138 -2.02048 -2.20946 0
M  V30 1362 H 124.684 -0.972835 -1.06169 0
M  V30 1363 H 126.637 -0.578649 -4.17408 0
M  V30 1364 H 125.361 0.258556 -3.25575 0
M  V30 1365 H 124.02 -1.87145 -3.15234 0
M  V30 1366 H 123.668 -0.250145 -5.02378 0
M  V30 1367 H 123.368 -1.92492 -5.55176 0
M  V30 1368 H 124.892 -1.10968 -6.00432 0
M  V30 1369 H 126.306 -3.06349 -4.84586 0
M  V30 1370 H 124.703 -3.82333 -4.62538 0
M  V30 1371 H 125.773 -3.61966 -3.22658 0
M  V30 1372 N 127.117 1.15442 -1.07289 0
M  V30 1373 C 128.342 1.90638 -0.816828 0
M  V30 1374 C 128.767 1.77445 0.624083 0
M  V30 1375 O 128.125 1.10671 1.43602 0
M  V30 1376 C 128.173 3.39008 -1.22906 0
M  V30 1377 O 127.277 4.10701 -0.373975 0
M  V30 1378 H 126.618 0.593555 -0.297638 0
M  V30 1379 H 129.148 1.46198 -1.43134 0
M  V30 1380 H 129.158 3.89801 -1.20497 0
M  V30 1381 H 127.833 3.47929 -2.27856 0
M  V30 1382 H 126.41 3.70046 -0.460499 0
M  V30 1383 N 128.595 0.856903 1.32268 0
M  V30 1384 C 129.542 0.301172 2.28827 0
M  V30 1385 C 130.512 -0.593104 1.5515 0
M  V30 1386 O 131.697 -0.527537 1.83362 0
M  V30 1387 C 128.837 -0.502523 3.41422 0
M  V30 1388 C 127.95 0.417797 4.29975 0
M  V30 1389 C 127.085 -0.398749 5.29701 0
M  V30 1390 C 126.124 0.518827 6.09897 0
M  V30 1391 N 125.261 -0.260674 7.01616 0
M  V30 1392 H 130.101 1.12983 2.75751 0
M  V30 1393 H 127.638 0.568582 1.35667 0
M  V30 1394 H 129.596 -0.984141 4.05426 0
M  V30 1395 H 128.226 -1.29599 2.95642 0
M  V30 1396 H 127.278 1.01781 3.66531 0
M  V30 1397 H 128.59 1.12191 4.86019 0
M  V30 1398 H 127.744 -0.943435 5.9932 0
M  V30 1399 H 126.483 -1.13622 4.7428 0
M  V30 1400 H 125.488 1.07538 5.39181 0
M  V30 1401 H 126.713 1.25495 6.67404 0
M  V30 1402 H 124.659 -0.981198 6.4862 0
M  V30 1403 H 124.576 0.384364 7.55022 0
M  V30 1404 H 125.844 -0.787014 7.75517 0
M  V30 1405 N 130.073 -1.45103 0.615059 0
M  V30 1406 C 130.983 -2.34382 -0.101034 0
M  V30 1407 C 131.999 -1.51681 -0.852585 0
M  V30 1408 O 133.175 -1.8446 -0.808484 0
M  V30 1409 C 130.24 -3.29417 -1.08099 0
M  V30 1410 C 129.301 -4.28025 -0.330577 0
M  V30 1411 C 128.534 -5.1852 -1.26385 0
M  V30 1412 O 128.757 -5.12598 -2.50198 0
M  V30 1413 O 127.691 -5.97122 -0.756866 0
M  V30 1414 H 131.517 -2.97033 0.632855 0
M  V30 1415 H 129.102 -1.4461 0.375293 0
M  V30 1416 H 130.984 -3.87958 -1.6452 0
M  V30 1417 H 129.659 -2.69321 -1.79577 0
M  V30 1418 H 128.566 -3.73078 0.276283 0
M  V30 1419 H 129.899 -4.90997 0.343866 0
M  V30 1420 N 131.551 -0.354651 -1.53558 0
M  V30 1421 C 132.797 0.238797 -2.01389 0
M  V30 1422 C 133.13 1.49309 -1.2418 0
M  V30 1423 O 132.405 1.91638 -0.332457 0
M  V30 1424 C 132.688 0.541771 -3.56001 0
M  V30 1425 C 132.541 -0.725388 -4.43912 0
M  V30 1426 C 133.86 1.34685 -4.18984 0
M  V30 1427 H 130.979 0.0853177 -0.732045 0
M  V30 1428 H 133.621 -0.477384 -1.83905 0
M  V30 1429 H 131.771 1.15189 -3.71031 0
M  V30 1430 H 133.443 -1.36313 -4.407 0
M  V30 1431 H 131.686 -1.34801 -4.12324 0
M  V30 1432 H 132.357 -0.468505 -5.50008 0
M  V30 1433 H 134.833 0.830837 -4.07721 0
M  V30 1434 H 133.709 1.52759 -5.27215 0
M  V30 1435 H 133.97 2.35221 -3.74331 0
M  V30 1436 N 133.029 1.57378 -0.0835403 0
M  V30 1437 C 133.992 2.12252 0.864959 0
M  V30 1438 C 134.992 1.04916 1.21858 0
M  V30 1439 O 136.182 1.30853 1.14991 0
M  V30 1440 C 133.314 2.63358 2.16461 0
M  V30 1441 H 134.507 2.97371 0.388676 0
M  V30 1442 H 132.06 1.55423 0.165317 0
M  V30 1443 H 132.795 1.81727 2.686 0
M  V30 1444 H 132.58 3.41826 1.92087 0
M  V30 1445 H 134.07 3.05847 2.84337 0
M  V30 1446 N 134.507 -0.190092 1.56449 0
M  V30 1447 C 135.454 -1.23557 1.94942 0
M  V30 1448 C 136.424 -1.44972 0.810696 0
M  V30 1449 O 137.609 -1.58023 1.06927 0
M  V30 1450 C 134.749 -2.57416 2.2985 0
M  V30 1451 C 133.862 -2.43537 3.5681 0
M  V30 1452 C 132.997 -3.70134 3.81017 0
M  V30 1453 C 132.036 -3.51109 5.01387 0
M  V30 1454 N 131.173 -4.6973 5.21822 0
M  V30 1455 H 136.013 -0.900304 2.84075 0
M  V30 1456 H 133.55 -0.43318 1.40577 0
M  V30 1457 H 135.508 -3.35409 2.48106 0
M  V30 1458 H 134.138 -2.88975 1.43852 0
M  V30 1459 H 133.19 -1.56816 3.46573 0
M  V30 1460 H 134.502 -2.25415 4.4496 0
M  V30 1461 H 133.656 -4.56566 3.9954 0
M  V30 1462 H 132.395 -3.91215 2.91207 0
M  V30 1463 H 131.4 -2.63063 4.82782 0
M  V30 1464 H 132.625 -3.31468 5.9271 0
M  V30 1465 H 130.571 -4.91065 4.34961 0
M  V30 1466 H 130.488 -4.54452 6.0416 0
M  V30 1467 H 131.756 -5.57499 5.44808 0
M  V30 1468 N 135.985 -1.50799 -0.457987 0
M  V30 1469 C 137.233 -1.62121 -1.2067 0
M  V30 1470 C 137.554 -0.329793 -1.92191 0
M  V30 1471 O 136.824 0.653409 -1.84682 0
M  V30 1472 H 135.404 -0.597441 -0.448411 0
M  V30 1473 H 138.066 -1.87637 -0.527096 0
M  V30 1474 H 137.162 -2.43882 -1.94751 0
M  V30 1475 N 137.463 0.71206 -1.40597 0
M  V30 1476 C 138.693 1.49894 -1.42181 0
M  V30 1477 C 139.101 1.89189 -0.0208078 0
M  V30 1478 O 138.444 1.56223 0.966436 0
M  V30 1479 C 138.506 2.80215 -2.25211 0
M  V30 1480 C 138.17 2.63221 -3.73582 0
M  V30 1481 C 139.167 2.30249 -4.66135 0
M  V30 1482 C 136.852 2.79376 -4.17438 0
M  V30 1483 C 138.846 2.13645 -6.00529 0
M  V30 1484 C 136.533 2.6239 -5.51901 0
M  V30 1485 C 137.531 2.29573 -6.43262 0
M  V30 1486 O 137.219 2.12719 -7.75246 0
M  V30 1487 H 136.951 0.469031 -0.486812 0
M  V30 1488 H 139.505 0.88564 -1.85326 0
M  V30 1489 H 137.735 3.4389 -1.76852 0
M  V30 1490 H 139.424 3.41947 -2.18694 0
M  V30 1491 H 140.19 2.17398 -4.33547 0
M  V30 1492 H 136.069 3.03906 -3.46644 0
M  V30 1493 H 139.613 1.87953 -6.71803 0
M  V30 1494 H 135.51 2.74826 -5.84073 0
M  V30 1495 H 136.278 2.27611 -7.86216 0
M  V30 1496 N 138.941 1.26152 0.944643 0
M  V30 1497 C 139.888 1.07408 2.04285 0
M  V30 1498 C 140.858 -0.0198413 1.66088 0
M  V30 1499 O 142.043 0.139264 1.90291 0
M  V30 1500 C 139.183 0.70945 3.37729 0
M  V30 1501 C 138.296 1.87926 3.88983 0
M  V30 1502 C 137.431 1.45807 5.10797 0
M  V30 1503 C 136.47 2.5964 5.54305 0
M  V30 1504 N 135.607 2.18226 6.67324 0
M  V30 1505 H 140.447 2.01389 2.1965 0
M  V30 1506 H 137.984 1.00275 1.07626 0
M  V30 1507 H 139.942 0.478948 4.14442 0
M  V30 1508 H 138.572 -0.193389 3.2222 0
M  V30 1509 H 137.624 2.22279 3.08701 0
M  V30 1510 H 138.936 2.73377 4.17213 0
M  V30 1511 H 138.09 1.18781 5.94959 0
M  V30 1512 H 136.829 0.574414 4.84305 0
M  V30 1513 H 135.834 2.87399 4.68702 0
M  V30 1514 H 137.059 3.48599 5.828 0
M  V30 1515 H 135.005 1.3229 6.42523 0
M  V30 1516 H 134.922 2.97221 6.95123 0
M  V30 1517 H 136.19 1.94403 7.54869 0
M  V30 1518 N 140.419 -1.14872 1.07899 0
M  V30 1519 C 141.644 -1.90202 0.826926 0
M  V30 1520 C 142.069 -1.77774 -0.614664 0
M  V30 1521 O 141.427 -1.11431 -1.43013 0
M  V30 1522 C 141.475 -3.38352 1.24702 0
M  V30 1523 O 140.579 -4.10497 0.39575 0
M  V30 1524 H 139.92 -0.591968 0.300782 0
M  V30 1525 H 142.45 -1.45437 1.43907 0
M  V30 1526 H 142.46 -3.89156 1.22563 0
M  V30 1527 H 141.135 -3.46715 2.29698 0
M  V30 1528 H 139.712 -3.69796 0.480117 0
M  V30 1529 N 141.898 -0.863906 -1.31812 0
M  V30 1530 C 142.861 -0.320212 -2.26952 0
M  V30 1531 C 143.861 0.525369 -1.51975 0
M  V30 1532 O 145.051 0.335547 -1.70938 0
M  V30 1533 C 142.183 0.545919 -3.365 0
M  V30 1534 H 143.376 -1.16004 -2.76556 0
M  V30 1535 H 140.929 -0.638995 -1.42641 0
M  V30 1536 H 141.664 1.40718 -2.92179 0
M  V30 1537 H 141.449 -0.0594674 -3.92055 0
M  V30 1538 H 142.939 0.918796 -4.07367 0
M  V30 1539 N 143.376 1.44774 -0.622745 0
M  V30 1540 C 144.622 2.0242 -0.124083 0
M  V30 1541 C 144.955 1.4881 1.24777 0
M  V30 1542 O 144.23 0.668799 1.8264 0
M  V30 1543 C 144.513 3.59957 -0.101619 0
M  V30 1544 C 144.366 4.23867 -1.50521 0
M  V30 1545 C 145.685 4.36284 0.578272 0
M  V30 1546 H 142.804 0.735528 -0.0465645 0
M  V30 1547 H 145.446 1.72447 -0.797617 0
M  V30 1548 H 143.596 3.85623 0.471934 0
M  V30 1549 H 145.268 4.09336 -2.12701 0
M  V30 1550 H 143.511 3.81684 -2.06154 0
M  V30 1551 H 144.182 5.32843 -1.4416 0
M  V30 1552 H 146.658 4.16001 0.0906057 0
M  V30 1553 H 145.534 5.46004 0.563149 0
M  V30 1554 H 145.795 4.10271 1.64713 0
M  V30 1555 N 144.854 0.36279 1.53368 0
M  V30 1556 C 146.079 -0.231226 2.06107 0
M  V30 1557 C 146.504 -1.419 1.23474 0
M  V30 1558 O 145.862 -1.79524 0.253128 0
M  V30 1559 C 145.91 -0.605523 3.5548 0
M  V30 1560 O 145.014 -1.70312 3.7559 0
M  V30 1561 H 144.355 -0.034327 0.663112 0
M  V30 1562 H 146.885 0.522584 1.97814 0
M  V30 1563 H 146.895 -0.877314 3.98456 0
M  V30 1564 H 145.57 0.263004 4.15068 0
M  V30 1565 H 144.147 -1.4271 3.44512 0
M  V30 1566 N 146.332 -1.57332 0.0918853 0
M  V30 1567 C 147.242 -2.17368 -0.882505 0
M  V30 1568 C 148.258 -1.14226 -1.31257 0
M  V30 1569 O 149.434 -1.46582 -1.38115 0
M  V30 1570 C 146.499 -2.73962 -2.12476 0
M  V30 1571 C 145.56 -3.92048 -1.7492 0
M  V30 1572 C 144.793 -4.45933 -2.93223 0
M  V30 1573 O 145.016 -3.98764 -4.07852 0
M  V30 1574 O 143.95 -5.36999 -2.71875 0
M  V30 1575 H 147.776 -3.01031 -0.40172 0
M  V30 1576 H 145.361 -1.48813 -0.132291 0
M  V30 1577 H 147.243 -3.10147 -2.85283 0
M  V30 1578 H 145.918 -1.93347 -2.59613 0
M  V30 1579 H 144.825 -3.6068 -0.993025 0
M  V30 1580 H 146.158 -4.74017 -1.32548 0
M  V30 1581 N 147.81 0.181792 -1.56548 0
M  V30 1582 C 149.056 0.901431 -1.81665 0
M  V30 1583 C 149.389 1.82347 -0.668075 0
M  V30 1584 O 148.664 1.91669 0.330615 0
M  V30 1585 C 148.947 1.70618 -3.17115 0
M  V30 1586 C 148.8 0.807964 -4.42484 0
M  V30 1587 C 150.119 2.67605 -3.49393 0
M  V30 1588 H 147.238 0.32627 -0.660846 0
M  V30 1589 H 149.88 0.168134 -1.89255 0
M  V30 1590 H 148.03 2.33133 -3.10775 0
M  V30 1591 H 149.702 0.19649 -4.60881 0
M  V30 1592 H 147.945 0.115411 -4.33646 0
M  V30 1593 H 148.616 1.40632 -5.33785 0
M  V30 1594 H 151.092 2.15218 -3.56118 0
M  V30 1595 H 149.968 3.20985 -4.45264 0
M  V30 1596 H 150.229 3.47298 -2.73563 0
M  V30 1597 N 149.288 1.51039 0.449983 0
M  V30 1598 C 150.534 1.63322 1.20223 0
M  V30 1599 C 150.867 0.34241 1.91158 0
M  V30 1600 O 150.142 -0.657344 1.83055 0
M  V30 1601 C 150.425 2.82801 2.22925 0
M  V30 1602 C 150.278 4.21823 1.56157 0
M  V30 1603 C 151.597 2.97807 3.24035 0
M  V30 1604 H 148.716 0.594407 0.435718 0
M  V30 1605 H 151.358 1.83489 0.493136 0
M  V30 1606 H 149.508 2.65738 2.834 0
M  V30 1607 H 151.18 4.50526 0.991162 0
M  V30 1608 H 149.423 4.25105 0.864172 0
M  V30 1609 H 150.094 5.01391 2.30891 0
M  V30 1610 H 152.57 3.13497 2.73603 0
M  V30 1611 H 151.446 3.82992 3.93202 0
M  V30 1612 H 151.707 2.09328 3.89402 0
M  V30 1613 N 150.766 -0.704594 1.40972 0
M  V30 1614 C 152.182 -1.01406 1.23244 0
M  V30 1615 C 152.382 -2.01169 0.115399 0
M  V30 1616 O 151.438 -2.47021 -0.523147 0
M  V30 1617 C 152.751 -1.54728 2.57836 0
M  V30 1618 C 154.299 -1.66658 2.64942 0
M  V30 1619 C 154.774 -2.23383 3.9983 0
M  V30 1620 N 156.265 -2.30756 4.01629 0
M  V30 1621 C 157 -2.75655 5.02794 0
M  V30 1622 N 156.496 -3.20225 6.14352 0
M  V30 1623 N 158.289 -2.75138 4.90159 0
M  V30 1624 H 150.44 -0.0435285 2.12355 0
M  V30 1625 H 152.703 -0.0818951 0.944456 0
M  V30 1626 H 152.409 -0.888832 3.40283 0
M  V30 1627 H 152.283 -2.53084 2.79693 0
M  V30 1628 H 154.67 -2.31617 1.8286 0
M  V30 1629 H 154.751 -0.668717 2.46904 0
M  V30 1630 H 154.395 -1.59043 4.82357 0
M  V30 1631 H 154.325 -3.23904 4.15203 0
M  V30 1632 H 156.816 -1.99291 3.21079 0
M  V30 1633 H 157.129 -3.53084 6.87424 0
M  V30 1634 H 155.474 -3.18156 6.17901 0
M  V30 1635 H 158.665 -2.39661 4.02095 0
M  V30 1636 H 158.838 -3.09812 5.6914 0
M  V30 1637 N 152.244 -1.26651 -0.937939 0
M  V30 1638 C 153.472 -1.15173 -1.7188 0
M  V30 1639 C 153.887 0.292668 -1.86518 0
M  V30 1640 O 153.244 1.20014 -1.37488 0
M  V30 1641 C 153.295 -1.81925 -3.12387 0
M  V30 1642 O 153.016 -3.2072 -2.98446 0
M  V30 1643 C 154.517 -1.76442 -4.06673 0
M  V30 1644 H 151.737 -0.400911 -0.538063 0
M  V30 1645 H 154.281 -1.67332 -1.1756 0
M  V30 1646 H 152.436 -1.33696 -3.63599 0
M  V30 1647 H 152.85 -3.53802 -3.872 0
M  V30 1648 H 154.324 -2.27781 -5.02812 0
M  V30 1649 H 154.801 -0.731608 -4.33064 0
M  V30 1650 H 155.407 -2.24238 -3.61382 0
M  V30 1651 N 153.722 1.14298 -1.08507 0
M  V30 1652 C 154.685 2.17607 -0.719711 0
M  V30 1653 C 155.685 1.58907 0.245997 0
M  V30 1654 O 156.875 1.74181 0.0254081 0
M  V30 1655 C 154.007 3.40842 -0.0627695 0
M  V30 1656 H 155.2 2.51443 -1.63452 0
M  V30 1657 H 152.753 1.28963 -0.88307 0
M  V30 1658 H 153.488 3.12587 0.863716 0
M  V30 1659 H 153.273 3.84713 -0.757504 0
M  V30 1660 H 154.763 4.17221 0.177786 0
M  V30 1661 N 155.201 0.870884 1.31352 0
M  V30 1662 C 156.111 0.330783 2.32256 0
M  V30 1663 C 157.127 -0.559767 1.6475 0
M  V30 1664 O 158.303 -0.456263 1.96164 0
M  V30 1665 C 155.368 -0.458137 3.4366 0
M  V30 1666 C 154.429 0.460482 4.26823 0
M  V30 1667 C 153.662 -0.290881 5.32907 0
M  V30 1668 O 153.885 -1.51885 5.49806 0
M  V30 1669 O 152.819 0.351732 6.00871 0
M  V30 1670 H 156.645 1.16718 2.80376 0
M  V30 1671 H 154.23 0.634285 1.35267 0
M  V30 1672 H 156.112 -0.905343 4.1156 0
M  V30 1673 H 154.787 -1.27106 2.97701 0
M  V30 1674 H 153.694 0.956207 3.61673 0
M  V30 1675 H 155.027 1.23903 4.7635 0
M  V30 1676 N 156.679 -1.44442 0.630414 0
M  V30 1677 C 157.928 -2.01267 0.132073 0
M  V30 1678 C 158.241 -1.50172 -1.25331 0
M  V30 1679 O 159.447 -1.9912 -1.84562 0
M  V30 1680 C 157.903 -3.59422 0.185362 0
M  V30 1681 C 157.511 -4.19514 1.57201 0
M  V30 1682 C 159.255 -4.23724 -0.256553 0
M  V30 1683 C 157.162 -5.69891 1.58045 0
M  V30 1684 H 156.092 -0.752619 0.0456092 0
M  V30 1685 H 158.743 -1.65666 0.789106 0
M  V30 1686 H 157.125 -3.92318 -0.538759 0
M  V30 1687 H 158.299 -3.98156 2.31966 0
M  V30 1688 H 156.614 -3.67496 1.95795 0
M  V30 1689 H 159.211 -5.34019 -0.269767 0
M  V30 1690 H 159.554 -3.96013 -1.28372 0
M  V30 1691 H 160.087 -3.95629 0.41505 0
M  V30 1692 H 156.826 -6.02336 2.58597 0
M  V30 1693 H 156.346 -5.93373 0.875725 0
M  V30 1694 H 158.025 -6.33515 1.31408 0
M  V30 1695 N 158.157 -0.370918 -1.53173 0
M  V30 1696 C 159.406 0.218249 -2.00516 0
M  V30 1697 C 159.719 1.49429 -1.26215 0
M  V30 1698 O 160.925 2.16239 -1.64174 0
M  V30 1699 C 159.381 0.43948 -3.57207 0
M  V30 1700 C 158.989 -0.822244 -4.4039 0
M  V30 1701 C 160.733 0.986012 -4.1289 0
M  V30 1702 C 158.64 -0.570304 -5.88644 0
M  V30 1703 H 157.57 0.0853333 -0.749156 0
M  V30 1704 H 160.221 -0.490483 -1.76823 0
M  V30 1705 H 158.603 1.20961 -3.77074 0
M  V30 1706 H 159.777 -1.59557 -4.32294 0
M  V30 1707 H 158.092 -1.29238 -3.95836 0
M  V30 1708 H 160.689 1.18991 -5.21292 0
M  V30 1709 H 161.032 1.94972 -3.6782 0
M  V30 1710 H 161.565 0.27592 -3.96842 0
M  V30 1711 H 158.304 -1.50449 -6.38001 0
M  V30 1712 H 157.824 0.164427 -5.99575 0
M  V30 1713 H 159.503 -0.19784 -6.46697 0
M  V30 1714 N 159.635 1.57281 -0.100228 0
M  V30 1715 C 160.583 2.15542 0.874328 0
M  V30 1716 C 161.577 1.09962 1.28859 0
M  V30 1717 O 162.783 1.28298 1.26252 0
M  V30 1718 H 159.158 0.689567 0.300003 0
M  V30 1719 H 161.129 2.96241 0.35829 0
M  V30 1720 C 159.878 2.75454 2.1218 0
M  V30 1721 H 159.201 3.56384 1.81193 0
M  V30 1722 H 160.641 3.19781 2.78417 0
M  V30 1723 C 159.1 1.71602 2.89921 0
M  V30 1724 O 159.63 1.15804 3.84646 0
M  V30 1725 N 157.836 1.41975 2.53558 0
M  V30 1726 H 157.383 1.87539 1.76598 0
M  V30 1727 H 157.341 0.727274 3.05873 0
M  V30 1728 N 161.113 -0.173488 1.56642 0
M  V30 1729 C 162.343 -0.904781 1.85734 0
M  V30 1730 C 162.751 -1.76431 0.68328 0
M  V30 1731 O 162.094 -1.802 -0.356865 0
M  V30 1732 C 162.156 -1.83382 3.09211 0
M  V30 1733 C 161.82 -1.15411 4.42187 0
M  V30 1734 C 162.817 -0.520609 5.17287 0
M  V30 1735 C 160.502 -1.15151 4.88923 0
M  V30 1736 C 162.496 0.106412 6.37311 0
M  V30 1737 C 160.183 -0.520664 6.08878 0
M  V30 1738 C 161.181 0.107196 6.82916 0
M  V30 1739 O 160.869 0.728102 8.00596 0
M  V30 1740 H 160.601 -0.268408 0.62043 0
M  V30 1741 H 163.155 -0.179096 2.04618 0
M  V30 1742 H 161.385 -2.59976 2.86268 0
M  V30 1743 H 163.074 -2.43476 3.24768 0
M  V30 1744 H 163.84 -0.514606 4.82262 0
M  V30 1745 H 159.719 -1.62961 4.31236 0
M  V30 1746 H 163.263 0.597081 6.9504 0
M  V30 1747 H 159.16 -0.524242 6.43368 0
M  V30 1748 H 159.928 0.627138 8.16094 0
M  V30 1749 N 162.591 -1.51276 -0.441967 0
M  V30 1750 C 163.554 -1.7167 -1.51862 0
M  V30 1751 C 164.554 -0.586793 -1.49711 0
M  V30 1752 O 165.744 -0.854276 -1.51815 0
M  V30 1753 C 162.876 -1.76889 -2.91416 0
M  V30 1754 H 164.069 -2.67754 -1.35084 0
M  V30 1755 H 161.622 -1.41196 -0.670333 0
M  V30 1756 H 162.357 -0.826026 -3.13604 0
M  V30 1757 H 162.142 -2.59001 -2.94382 0
M  V30 1758 H 163.632 -1.94522 -3.69528 0
M  V30 1759 N 164.069 0.697108 -1.41344 0
M  V30 1760 C 165.032 1.79281 -1.42797 0
M  V30 1761 C 166.032 1.57607 -0.318837 0
M  V30 1762 O 167.222 1.64309 -0.578642 0
M  V30 1763 C 164.354 3.17632 -1.23785 0
M  V30 1764 H 165.547 1.79385 -2.40335 0
M  V30 1765 H 163.1 0.904582 -1.27464 0
M  V30 1766 H 163.835 3.23167 -0.270814 0
M  V30 1767 H 163.62 3.34765 -2.04144 0
M  V30 1768 H 165.11 3.97617 -1.27633 0
M  V30 1769 N 165.547 1.27147 0.931209 0
M  V30 1770 C 166.457 1.11372 2.06478 0
M  V30 1771 C 167.473 0.044645 1.73943 0
M  V30 1772 O 168.649 0.250417 1.99837 0
M  V30 1773 C 165.714 0.758838 3.38294 0
M  V30 1774 C 164.775 1.90841 3.84549 0
M  V30 1775 C 164.008 1.57036 5.10074 0
M  V30 1776 O 164.231 0.476645 5.68405 0
M  V30 1777 O 163.165 2.40839 5.51616 0
M  V30 1778 H 166.991 2.06493 2.22698 0
M  V30 1779 H 164.576 1.06301 1.04978 0
M  V30 1780 H 166.458 0.574098 4.17471 0
M  V30 1781 H 165.133 -0.162879 3.2329 0
M  V30 1782 H 164.04 2.14819 3.06274 0
M  V30 1783 H 165.373 2.81021 4.04089 0
M  V30 1784 N 167.025 -1.13721 1.09112 0
M  V30 1785 C 167.935 -2.22638 0.73957 0
M  V30 1786 C 168.951 -1.72091 -0.257068 0
M  V30 1787 O 170.127 -2.01155 -0.0992154 0
M  V30 1788 C 167.192 -3.46322 0.16191 0
M  V30 1789 C 166.253 -4.11775 1.21408 0
M  V30 1790 C 165.486 -5.29555 0.663891 0
M  V30 1791 O 165.709 -5.68077 -0.514274 0
M  V30 1792 O 164.643 -5.84973 1.41738 0
M  V30 1793 H 168.469 -2.55074 1.64836 0
M  V30 1794 H 166.054 -1.21791 0.865289 0
M  V30 1795 H 167.936 -4.21107 -0.157073 0
M  V30 1796 H 166.611 -3.15593 -0.719932 0
M  V30 1797 H 165.518 -3.3883 1.58571 0
M  V30 1798 H 166.851 -4.46627 2.06845 0
M  V30 1799 N 168.503 -0.877838 -1.30888 0
M  V30 1800 C 169.751 -0.491723 -1.96027 0
M  V30 1801 C 170.072 0.960827 -1.69685 0
M  V30 1802 O 169.342 1.67462 -1.01654 0
M  V30 1803 H 167.922 -0.17885 -0.725273 0
M  V30 1804 H 170.584 -1.11935 -1.59551 0
M  V30 1805 H 169.68 -0.656016 -3.05128 0
M  V30 1806 N 169.982 1.44106 -0.638065 0
M  V30 1807 C 170.912 2.33448 0.0494287 0
M  V30 1808 C 171.893 1.48606 0.827672 0
M  V30 1809 O 173.078 1.77308 0.792173 0
M  V30 1810 C 170.208 3.31771 1.02691 0
M  V30 1811 C 169.162 4.26485 0.359823 0
M  V30 1812 C 168.488 5.14729 1.44769 0
M  V30 1813 C 169.788 5.17056 -0.738296 0
M  V30 1814 H 171.482 2.91183 -0.696636 0
M  V30 1815 H 169.028 1.40014 -0.336456 0
M  V30 1816 H 170.981 3.93161 1.51666 0
M  V30 1817 H 169.705 2.7226 1.80395 0
M  V30 1818 H 168.364 3.66437 -0.10934 0
M  V30 1819 H 168.012 4.51566 2.21578 0
M  V30 1820 H 167.712 5.78913 1.00668 0
M  V30 1821 H 169.236 5.78991 1.93911 0
M  V30 1822 H 170.65 5.72342 -0.331354 0
M  V30 1823 H 169.047 5.89879 -1.10286 0
M  V30 1824 H 170.117 4.57652 -1.60258 0
M  V30 1825 N 171.46 0.379036 1.52974 0
M  V30 1826 C 172.876 0.0285448 1.59574 0
M  V30 1827 C 173.076 -1.45542 1.39355 0
M  V30 1828 O 172.132 -2.2187 1.20541 0
M  V30 1829 C 173.445 0.496535 2.96572 0
M  V30 1830 C 174.993 0.451909 3.0972 0
M  V30 1831 C 175.468 0.895924 4.49152 0
M  V30 1832 N 176.959 0.851522 4.55306 0
M  V30 1833 C 177.694 1.16661 5.61407 0
M  V30 1834 N 177.19 1.55166 6.752 0
M  V30 1835 N 178.983 1.08853 5.51459 0
M  V30 1836 H 171.134 1.34525 1.64367 0
M  V30 1837 H 173.397 0.550733 0.771619 0
M  V30 1838 H 173.103 1.53258 3.16552 0
M  V30 1839 H 172.977 -0.109802 3.7704 0
M  V30 1840 H 175.364 -0.575029 2.89443 0
M  V30 1841 H 175.445 1.09392 2.3123 0
M  V30 1842 H 175.089 1.92104 4.70168 0
M  V30 1843 H 175.019 0.23103 5.26093 0
M  V30 1844 H 177.51 0.568038 3.73606 0
M  V30 1845 H 177.823 1.776 7.52116 0
M  V30 1846 H 176.168 1.59044 6.76557 0
M  V30 1847 H 179.359 0.786803 4.6144 0
M  V30 1848 H 179.532 1.33742 6.34048 0
M  V30 1849 N 172.938 -1.57226 0.108567 0
M  V30 1850 C 173.871 -2.10447 -0.882464 0
M  V30 1851 C 174.849 -1.01829 -1.26766 0
M  V30 1852 O 176.033 -1.29415 -1.37054 0
M  V30 1853 C 173.16 -2.59258 -2.17952 0
M  V30 1854 C 172.206 -3.79662 -1.94318 0
M  V30 1855 S 173.039 -5.22586 -1.16892 0
M  V30 1856 C 174.195 -5.74758 -2.47799 0
M  V30 1857 H 174.428 -2.94178 -0.429745 0
M  V30 1858 H 171.961 -1.54043 -0.105 0
M  V30 1859 H 173.919 -2.88036 -2.92482 0
M  V30 1860 H 172.58 -1.75728 -2.60343 0
M  V30 1861 H 171.773 -4.11928 -2.90399 0
M  V30 1862 H 171.375 -3.51446 -1.27913 0
M  V30 1863 H 173.667 -5.83846 -3.43701 0
M  V30 1864 H 174.61 -6.73027 -2.20093 0
M  V30 1865 H 175.018 -5.02763 -2.56689 0
M  V30 1866 N 174.416 0.165178 -1.56732 0
M  V30 1867 C 175.326 1.22423 -2.00125 0
M  V30 1868 C 176.342 1.48084 -0.913619 0
M  V30 1869 O 177.518 1.60112 -1.22172 0
M  V30 1870 C 174.583 2.54197 -2.35764 0
M  V30 1871 C 173.644 2.36343 -3.58386 0
M  V30 1872 C 172.877 3.61834 -3.92316 0
M  V30 1873 O 173.1 4.67267 -3.27135 0
M  V30 1874 O 172.034 3.55579 -4.85641 0
M  V30 1875 H 175.86 0.885886 -2.90492 0
M  V30 1876 H 173.445 0.372518 -1.44681 0
M  V30 1877 H 175.327 3.3192 -2.59629 0
M  V30 1878 H 174.002 2.87598 -1.48557 0
M  V30 1879 H 172.909 1.56632 -3.39731 0
M  V30 1880 H 174.242 2.07865 -4.46154 0
M  V30 1881 N 175.894 1.51508 0.433938 0
M  V30 1882 C 177.142 1.6402 1.18075 0
M  V30 1883 C 177.463 0.360328 1.91642 0
M  V30 1884 O 176.733 -0.623945 1.85698 0
M  V30 1885 H 175.313 0.6045 0.43885 0
M  V30 1886 H 177.975 1.88452 0.497178 0
M  V30 1887 H 177.071 2.46949 1.90847 0
M  V30 1888 N 177.372 -0.689602 1.41712 0
M  V30 1889 C 178.282 -1.83314 1.46401 0
M  V30 1890 C 179.298 -1.7036 0.35405 0
M  V30 1891 O 180.474 -1.92171 0.602692 0
M  V30 1892 C 177.539 -3.19344 1.34982 0
M  V30 1893 C 176.6 -3.44363 2.56344 0
M  V30 1894 C 175.833 -4.73904 2.45461 0
M  V30 1895 O 176.056 -5.508 1.48241 0
M  V30 1896 O 174.99 -4.99839 3.35328 0
M  V30 1897 H 178.816 -1.82314 2.42889 0
M  V30 1898 H 176.401 -0.843438 1.23315 0
M  V30 1899 H 178.283 -4.00547 1.3092 0
M  V30 1900 H 176.958 -3.21014 0.41612 0
M  V30 1901 H 175.865 -2.63067 2.65982 0
M  V30 1902 H 177.198 -3.47512 3.48563 0
M  V30 1903 N 178.85 -1.27639 -0.924453 0
M  V30 1904 C 180.096 -1.14336 -1.67497 0
M  V30 1905 C 180.429 0.309465 -1.91718 0
M  V30 1906 O 179.704 1.22608 -1.50989 0
M  V30 1907 C 179.987 -1.93096 -3.0395 0
M  V30 1908 C 179.84 -3.46381 -2.8695 0
M  V30 1909 C 181.159 -1.73798 -4.0433 0
M  V30 1910 H 178.278 -0.416728 -0.607871 0
M  V30 1911 H 180.92 -1.56832 -1.07256 0
M  V30 1912 H 179.07 -1.56982 -3.55372 0
M  V30 1913 H 180.742 -3.92343 -2.42621 0
M  V30 1914 H 178.985 -3.72557 -2.22225 0
M  V30 1915 H 179.656 -3.96735 -3.83804 0
M  V30 1916 H 182.132 -2.05293 -3.61931 0
M  V30 1917 H 181.008 -2.31294 -4.97789 0
M  V30 1918 H 181.269 -0.686725 -4.36734 0
M  V30 1919 N 180.328 1.1314 -1.09713 0
M  V30 1920 C 181.258 2.20748 -0.761102 0
M  V30 1921 C 182.239 1.68061 0.262566 0
M  V30 1922 O 183.424 1.93765 0.129977 0
M  V30 1923 C 180.554 3.46812 -0.184054 0
M  V30 1924 C 179.508 4.12606 -1.13757 0
M  V30 1925 C 178.834 5.33031 -0.422083 0
M  V30 1926 C 180.134 4.59603 -2.48118 0
M  V30 1927 H 181.828 2.49113 -1.66082 0
M  V30 1928 H 179.374 1.19734 -0.799987 0
M  V30 1929 H 181.327 4.21353 0.0631215 0
M  V30 1930 H 180.051 3.17851 0.750868 0
M  V30 1931 H 178.71 3.40036 -1.37007 0
M  V30 1932 H 178.358 5.00335 0.517072 0
M  V30 1933 H 178.058 5.77999 -1.05788 0
M  V30 1934 H 179.582 6.10325 -0.183277 0
M  V30 1935 H 180.996 5.25552 -2.29059 0
M  V30 1936 H 179.393 5.15321 -3.07514 0
M  V30 1937 H 180.463 3.73971 -3.08665 0
M  V30 1938 N 181.806 0.884767 1.30421 0
M  V30 1939 C 182.716 0.355398 2.31892 0
M  V30 1940 C 183.732 -0.542261 1.65335 0
M  V30 1941 O 184.908 -0.435432 1.96637 0
M  V30 1942 C 181.973 -0.421661 3.44126 0
M  V30 1943 C 181.034 0.505727 4.26311 0
M  V30 1944 C 180.267 -0.234343 5.33185 0
M  V30 1945 O 180.49 -1.46045 5.51386 0
M  V30 1946 O 179.424 0.415443 6.00465 0
M  V30 1947 H 183.25 1.19685 2.79122 0
M  V30 1948 H 180.835 0.648596 1.34587 0
M  V30 1949 H 182.717 -0.861641 4.12497 0
M  V30 1950 H 181.392 -1.23942 2.99032 0
M  V30 1951 H 180.299 0.994513 3.60639 0
M  V30 1952 H 181.632 1.28948 4.75009 0
M  V30 1953 N 183.284 -1.43765 0.645699 0
M  V30 1954 C 184.532 -2.01499 0.155731 0
M  V30 1955 C 184.853 -1.51151 -1.232 0
M  V30 1956 O 184.123 -0.721044 -1.82148 0
M  V30 1957 H 182.703 -0.745003 0.0545817 0
M  V30 1958 H 185.365 -1.76075 0.835677 0
M  V30 1959 H 184.461 -3.1181 0.134577 0
M  V30 1960 N 184.763 -0.387143 -1.52771 0
M  V30 1961 C 186.011 0.195349 -2.01154 0
M  V30 1962 C 186.332 1.475 -1.27549 0
M  V30 1963 O 185.602 1.91878 -0.394924 0
M  V30 1964 H 184.182 0.075178 -0.743207 0
M  V30 1965 H 186.844 -0.518337 -1.87881 0
M  V30 1966 H 185.94 0.407096 -3.09434 0
M  V30 1967 N 186.241 1.57166 -0.116904 0
M  V30 1968 C 187.466 1.999 0.55271 0
M  V30 1969 C 187.891 0.996039 1.59564 0
M  V30 1970 O 187.249 -0.032556 1.81271 0
M  V30 1971 C 187.297 3.4152 1.15742 0
M  V30 1972 O 186.401 3.44106 2.27299 0
M  V30 1973 H 185.742 0.649447 0.138258 0
M  V30 1974 H 188.272 2.03573 -0.204759 0
M  V30 1975 H 188.282 3.79684 1.49346 0
M  V30 1976 H 186.957 4.14034 0.393493 0
M  V30 1977 H 185.534 3.17759 1.9515 0
M  V30 1978 N 187.719 -0.156864 1.56817 0
M  V30 1979 C 188.966 -0.871125 1.82805 0
M  V30 1980 C 189.294 -1.81611 0.696262 0
M  V30 1981 O 188.549 -1.93141 -0.315459 0
M  V30 1982 C 188.848 -1.68737 3.1506 0
M  V30 1983 C 188.514 -0.890045 4.42028 0
M  V30 1984 C 187.176 -0.670042 4.76512 0
M  V30 1985 C 189.528 -0.331769 5.20143 0
M  V30 1986 C 186.856 0.119104 5.86579 0
M  V30 1987 C 189.208 0.444365 6.31037 0
M  V30 1988 C 187.872 0.675035 6.64078 0
M  V30 1989 H 187.142 -0.318767 0.668931 0
M  V30 1990 H 189.789 -0.135274 1.91022 0
M  V30 1991 H 188.094 -2.49304 3.0225 0
M  V30 1992 H 189.791 -2.24331 3.3238 0
M  V30 1993 H 186.381 -1.07157 4.14988 0
M  V30 1994 H 190.565 -0.489043 4.93885 0
M  V30 1995 H 185.821 0.307417 6.10627 0
M  V30 1996 H 189.995 0.884139 6.90765 0
M  V30 1997 H 187.622 1.28839 7.49203 0
M  V30 1998 N 189.197 -1.51736 -0.425897 0
M  V30 1999 C 190.107 -1.76738 -1.54275 0
M  V30 2000 C 191.123 -0.65211 -1.61318 0
M  V30 2001 O 192.299 -0.935654 -1.78346 0
M  V30 2002 C 189.364 -1.89755 -2.90162 0
M  V30 2003 C 188.425 -3.13633 -2.93143 0
M  V30 2004 C 187.658 -3.2602 -4.22548 0
M  V30 2005 O 187.881 -2.44067 -5.15546 0
M  V30 2006 O 186.815 -4.19071 -4.32046 0
M  V30 2007 H 190.641 -2.71502 -1.36089 0
M  V30 2008 H 188.226 -1.36376 -0.610069 0
M  V30 2009 H 190.108 -2.00236 -3.70788 0
M  V30 2010 H 188.783 -0.981785 -3.08452 0
M  V30 2011 H 187.69 -3.08622 -2.11431 0
M  V30 2012 H 189.023 -4.04936 -2.798 0
M  V30 2013 N 190.675 0.682077 -1.42076 0
M  V30 2014 C 191.638 1.77756 -1.44691 0
M  V30 2015 C 192.638 1.5726 -0.335535 0
M  V30 2016 O 193.828 1.63686 -0.596037 0
M  V30 2017 C 190.96 3.16301 -1.27146 0
M  V30 2018 H 192.153 1.76826 -2.42224 0
M  V30 2019 H 189.706 0.891012 -1.28416 0
M  V30 2020 H 190.441 3.22862 -0.305075 0
M  V30 2021 H 190.226 3.32581 -2.07683 0
M  V30 2022 H 191.716 3.96241 -1.31843 0
M  V30 2023 N 192.153 1.28127 0.917671 0
M  V30 2024 C 193.116 1.11744 2.00115 0
M  V30 2025 C 194.116 0.0583052 1.60694 0
M  V30 2026 O 195.306 0.303755 1.71531 0
M  V30 2027 C 192.438 0.704862 3.33533 0
M  V30 2028 H 193.631 2.07966 2.16079 0
M  V30 2029 H 191.184 1.11058 1.09981 0
M  V30 2030 H 191.919 -0.258299 3.2327 0
M  V30 2031 H 191.704 1.4699 3.63505 0
M  V30 2032 H 193.194 0.612768 4.1308 0
M  V30 2033 N 193.631 -1.12557 1.10312 0
M  V30 2034 C 194.856 -1.88405 0.867085 0
M  V30 2035 C 195.281 -1.79038 -0.576817 0
M  V30 2036 O 194.639 -1.14439 -1.40618 0
M  V30 2037 C 194.687 -3.3563 1.31851 0
M  V30 2038 O 193.791 -4.09565 0.482734 0
M  V30 2039 H 193.132 -0.585455 0.313271 0
M  V30 2040 H 195.662 -1.42352 1.4696 0
M  V30 2041 H 195.672 -3.86469 1.3079 0
M  V30 2042 H 194.347 -3.41765 2.37001 0
M  V30 2043 H 192.924 -3.68695 0.558448 0
M  V30 2044 N 195.109 -0.891671 -1.2995 0
M  V30 2045 C 196.056 -0.361736 -2.27948 0
M  V30 2046 C 197.026 0.551761 -1.56668 0
M  V30 2047 O 198.211 0.478736 -1.84696 0
M  V30 2048 C 195.351 0.411825 -3.42634 0
M  V30 2049 C 194.464 -0.531651 -4.28716 0
M  V30 2050 C 193.599 0.258167 -5.30572 0
M  V30 2051 C 192.638 -0.680349 -6.08307 0
M  V30 2052 N 191.775 0.0745613 -7.0206 0
M  V30 2053 H 196.615 -1.20254 -2.72659 0
M  V30 2054 H 194.152 -0.604352 -1.34112 0
M  V30 2055 H 196.11 0.876304 -4.07893 0
M  V30 2056 H 194.74 1.21715 -2.98974 0
M  V30 2057 H 193.792 -1.11463 -3.63703 0
M  V30 2058 H 195.104 -1.25038 -4.82874 0
M  V30 2059 H 194.258 0.784204 -6.0161 0
M  V30 2060 H 192.997 1.01008 -4.77126 0
M  V30 2061 H 192.002 -1.21796 -5.3614 0
M  V30 2062 H 193.227 -1.43145 -6.63842 0
M  V30 2063 H 191.173 0.808883 -6.50994 0
M  V30 2064 H 191.09 -0.584409 -7.53738 0
M  V30 2065 H 192.358 0.581123 -7.77331 0
M  V30 2066 N 196.587 1.43421 -0.653314 0
M  V30 2067 C 197.534 2.30768 0.0382271 0
M  V30 2068 C 198.504 1.44755 0.814576 0
M  V30 2069 O 199.689 1.73624 0.791162 0
M  V30 2070 C 196.829 3.30336 0.998599 0
M  V30 2071 C 195.942 4.31448 0.218342 0
M  V30 2072 C 195.077 5.18098 1.17252 0
M  V30 2073 C 194.116 6.10902 0.382702 0
M  V30 2074 N 193.253 6.90176 1.28848 0
M  V30 2075 H 198.093 2.89357 -0.712511 0
M  V30 2076 H 195.63 1.42548 -0.363128 0
M  V30 2077 H 197.588 3.86572 1.56901 0
M  V30 2078 H 196.218 2.73397 1.71621 0
M  V30 2079 H 195.27 3.77506 -0.46836 0
M  V30 2080 H 196.582 4.97227 -0.395812 0
M  V30 2081 H 195.736 5.7896 1.81356 0
M  V30 2082 H 194.475 4.52444 1.82058 0
M  V30 2083 H 193.48 5.49128 -0.27169 0
M  V30 2084 H 194.705 6.78598 -0.260957 0
M  V30 2085 H 192.651 6.27171 1.92334 0
M  V30 2086 H 192.568 7.52478 0.728887 0
M  V30 2087 H 193.836 7.55543 1.91766 0
M  V30 2088 N 198.065 0.39524 1.52563 0
M  V30 2089 C 199.012 -0.437036 2.26624 0
M  V30 2090 C 199.982 -1.05281 1.28472 0
M  V30 2091 O 201.167 -1.07971 1.57311 0
M  V30 2092 C 198.307 -1.55524 3.08069 0
M  V30 2093 C 197.42 -0.961745 4.21158 0
M  V30 2094 C 196.555 -2.05149 4.89987 0
M  V30 2095 C 195.594 -1.4342 5.95061 0
M  V30 2096 N 194.731 -2.46351 6.57462 0
M  V30 2097 H 199.571 0.200976 2.97322 0
M  V30 2098 H 197.108 0.110944 1.46681 0
M  V30 2099 H 199.066 -2.21437 3.53584 0
M  V30 2100 H 197.696 -2.16348 2.3957 0
M  V30 2101 H 196.748 -0.192048 3.79915 0
M  V30 2102 H 198.06 -0.470701 4.96574 0
M  V30 2103 H 197.214 -2.78819 5.38837 0
M  V30 2104 H 195.953 -2.57615 4.14109 0
M  V30 2105 H 194.958 -0.682774 5.45544 0
M  V30 2106 H 196.183 -0.917416 6.72875 0
M  V30 2107 H 194.129 -2.97975 5.8442 0
M  V30 2108 H 194.046 -2.02019 7.28508 0
M  V30 2109 H 195.314 -3.19633 7.10954 0
M  V30 2110 N 199.544 -1.57102 0.125237 0
M  V30 2111 C 200.793 -1.94582 -0.531095 0
M  V30 2112 C 201.106 -1.01126 -1.6743 0
M  V30 2113 O 202.312 -1.28097 -2.39381 0
M  V30 2114 C 200.768 -3.45839 -0.996164 0
M  V30 2115 C 200.376 -4.47842 0.118926 0
M  V30 2116 C 202.12 -3.92227 -1.62352 0
M  V30 2117 C 200.027 -5.90284 -0.363192 0
M  V30 2118 H 198.957 -0.726391 -0.20217 0
M  V30 2119 H 201.608 -1.82339 0.206092 0
M  V30 2120 H 199.99 -3.53338 -1.78796 0
M  V30 2121 H 201.164 -4.52018 0.895358 0
M  V30 2122 H 199.479 -4.11243 0.653324 0
M  V30 2123 H 202.076 -4.96069 -1.99548 0
M  V30 2124 H 202.419 -3.32552 -2.50429 0
M  V30 2125 H 202.952 -3.87554 -0.897019 0
M  V30 2126 H 199.691 -6.53728 0.481679 0
M  V30 2127 H 199.211 -5.89515 -1.10597 0
M  V30 2128 H 200.89 -6.41752 -0.822377 0
M  V30 2129 N 201.022 0.148545 -1.56898 0
M  V30 2130 C 201.985 1.16736 -1.97244 0
M  V30 2131 C 202.985 1.35947 -0.858777 0
M  V30 2132 O 204.175 1.32966 -1.12542 0
M  V30 2133 C 201.307 2.52798 -2.28705 0
M  V30 2134 H 202.5 0.821279 -2.88435 0
M  V30 2135 H 200.053 0.391831 -1.51309 0
M  V30 2136 H 200.788 2.92381 -1.403 0
M  V30 2137 H 200.573 2.40216 -3.09901 0
M  V30 2138 H 202.063 3.26179 -2.60762 0
M  V30 2139 N 202.5 1.5196 0.417844 0
M  V30 2140 C 203.746 1.65836 1.16732 0
M  V30 2141 C 204.079 0.382881 1.90388 0
M  V30 2142 O 203.354 -0.618368 1.84408 0
M  V30 2143 C 203.637 2.87466 2.16876 0
M  V30 2144 C 203.49 4.25041 1.47174 0
M  V30 2145 C 204.809 3.04613 3.17646 0
M  V30 2146 H 201.928 0.603515 0.423011 0
M  V30 2147 H 204.57 1.84494 0.454105 0
M  V30 2148 H 202.72 2.71689 2.777 0
M  V30 2149 H 204.392 4.52527 0.895376 0
M  V30 2150 H 202.635 4.26843 0.773806 0
M  V30 2151 H 203.306 5.06176 2.20204 0
M  V30 2152 H 205.782 3.1923 2.66892 0
M  V30 2153 H 204.658 3.91247 3.8499 0
M  V30 2154 H 204.919 2.17541 3.84874 0
M  V30 2155 N 203.978 -0.674533 1.42435 0
M  V30 2156 C 205.224 -1.43671 1.43131 0
M  V30 2157 C 205.557 -1.94142 0.0476021 0
M  V30 2158 O 204.832 -1.70924 -0.928188 0
M  V30 2159 C 205.115 -2.63355 2.45594 0
M  V30 2160 C 204.968 -2.18514 3.93156 0
M  V30 2161 C 206.287 -3.65571 2.45043 0
M  V30 2162 H 203.406 -0.521077 0.521198 0
M  V30 2163 H 206.048 -0.766551 1.7385 0
M  V30 2164 H 204.198 -3.2053 2.19528 0
M  V30 2165 H 205.87 -1.66504 4.30202 0
M  V30 2166 H 204.113 -1.50086 4.07009 0
M  V30 2167 H 204.784 -3.04484 4.60428 0
M  V30 2168 H 207.26 -3.18113 2.68223 0
M  V30 2169 H 206.136 -4.46893 3.18713 0
M  V30 2170 H 206.397 -4.16716 1.47649 0
M  V30 2171 N 205.456 -1.28612 -0.910864 0
M  V30 2172 C 206.872 -1.06381 -1.18976 0
M  V30 2173 C 207.072 0.191998 -2.00583 0
M  V30 2174 O 206.128 0.892869 -2.36187 0
M  V30 2175 C 207.441 -2.31295 -1.92154 0
M  V30 2176 C 208.989 -2.36503 -2.05025 0
M  V30 2177 C 209.464 -3.61191 -2.81612 0
M  V30 2178 N 210.955 -3.61847 -2.89172 0
M  V30 2179 C 211.69 -4.55004 -3.4894 0
M  V30 2180 N 211.186 -5.58482 -4.09963 0
M  V30 2181 N 212.979 -4.42594 -3.46506 0
M  V30 2182 H 205.13 -2.09221 -0.366094 0
M  V30 2183 H 207.393 -0.921003 -0.224629 0
M  V30 2184 H 207.099 -3.228 -1.39618 0
M  V30 2185 H 206.973 -2.37934 -2.9269 0
M  V30 2186 H 209.36 -1.45494 -2.5674 0
M  V30 2187 H 209.441 -2.33857 -1.03657 0
M  V30 2188 H 209.085 -4.52545 -2.30576 0
M  V30 2189 H 209.015 -3.61092 -3.83302 0
M  V30 2190 H 211.506 -2.87022 -2.45819 0
M  V30 2191 H 211.819 -6.25704 -4.53557 0
M  V30 2192 H 210.164 -5.62305 -4.08459 0
M  V30 2193 H 213.355 -3.60953 -2.98045 0
M  V30 2194 H 213.528 -5.15381 -3.92793 0
M  V30 2195 N 206.934 1.1197 -1.10907 0
M  V30 2196 C 208.35 1.35591 -0.841852 0
M  V30 2197 C 208.55 1.94233 0.536246 0
M  V30 2198 O 207.606 2.1717 1.28816 0
M  V30 2199 C 208.919 2.29284 -1.94549 0
M  V30 2200 C 210.467 2.42862 -1.97451 0
M  V30 2201 C 210.942 3.39873 -3.07002 0
M  V30 2202 N 212.433 3.47433 -3.06341 0
M  V30 2203 C 213.168 4.22421 -3.87748 0
M  V30 2204 N 212.664 5.00432 -4.79103 0
M  V30 2205 N 214.457 4.17876 -3.75946 0
M  V30 2206 H 206.608 0.722664 -1.99728 0
M  V30 2207 H 208.871 0.380635 -0.868229 0
M  V30 2208 H 208.577 1.93378 -2.93765 0
M  V30 2209 H 208.451 3.29452 -1.83688 0
M  V30 2210 H 210.838 2.78046 -0.988645 0
M  V30 2211 H 210.919 1.42566 -2.12388 0
M  V30 2212 H 210.563 3.05417 -4.05811 0
M  V30 2213 H 210.493 4.40011 -2.89306 0
M  V30 2214 H 212.984 2.91784 -2.40147 0
M  V30 2215 H 213.297 5.55002 -5.37766 0
M  V30 2216 H 211.642 4.99612 -4.83128 0
M  V30 2217 H 214.833 3.56016 -3.03924 0
M  V30 2218 H 215.006 4.76061 -4.39624 0
M  V30 2219 N 208.412 0.89855 1.29475 0
M  V30 2220 C 209.322 0.379974 2.31502 0
M  V30 2221 C 210.338 -0.524695 1.659 0
M  V30 2222 O 211.514 -0.414551 1.97087 0
M  V30 2223 C 208.579 -0.385138 3.44554 0
M  V30 2224 C 207.64 0.550914 4.2575 0
M  V30 2225 C 206.873 -0.177778 5.33404 0
M  V30 2226 O 207.096 -1.40189 5.52904 0
M  V30 2227 O 206.03 0.479106 5.9999 0
M  V30 2228 H 209.856 1.22639 2.77837 0
M  V30 2229 H 207.441 0.662834 1.33891 0
M  V30 2230 H 209.323 -0.817841 4.13388 0
M  V30 2231 H 207.998 -1.20763 3.0033 0
M  V30 2232 H 206.905 1.03271 3.59564 0
M  V30 2233 H 208.238 1.33979 4.73614 0
M  V30 2234 N 209.89 -1.43072 0.660911 0
M  V30 2235 C 211.301 -1.84932 0.256348 0
M  V30 2236 C 211.652 -1.55325 -1.19868 0
M  V30 2237 O 210.777 -1.00607 -1.91591 0
M  V30 2238 C 211.372 -3.35684 0.458475 0
M  V30 2239 C 209.931 -3.76245 0.108161 0
M  V30 2240 C 209.078 -2.66749 0.757641 0
M  V30 2241 H 212.029 -1.33116 0.864051 0
M  V30 2242 H 212.05 -3.79365 -0.293683 0
M  V30 2243 H 211.562 -3.572 1.51755 0
M  V30 2244 H 209.663 -3.60338 -0.948014 0
M  V30 2245 H 209.776 -4.76058 0.538992 0
M  V30 2246 H 208.14 -2.53989 0.190185 0
M  V30 2247 H 208.923 -2.91092 1.81989 0
M  V30 2248 N 211.368 -0.403325 -1.52352 0
M  V30 2249 C 212.614 0.174605 -2.02047 0
M  V30 2250 C 212.947 1.45282 -1.28867 0
M  V30 2251 O 212.222 1.90483 -0.393257 0
M  V30 2252 C 212.505 0.428238 -3.57545 0
M  V30 2253 C 212.358 -0.866248 -4.4138 0
M  V30 2254 C 213.677 1.21287 -4.23057 0
M  V30 2255 H 210.796 0.0619851 -0.734389 0
M  V30 2256 H 213.438 -0.53565 -1.82293 0
M  V30 2257 H 211.588 1.03327 -3.74507 0
M  V30 2258 H 213.26 -1.50265 -4.3614 0
M  V30 2259 H 211.503 -1.47851 -4.07827 0
M  V30 2260 H 212.174 -0.643249 -5.48239 0
M  V30 2261 H 214.65 0.700703 -4.10158 0
M  V30 2262 H 213.526 1.35909 -5.31808 0
M  V30 2263 H 213.787 2.23193 -3.81625 0
M  V30 2264 N 212.846 1.57033 -0.133567 0
M  V30 2265 C 214.094 1.953 0.519848 0
M  V30 2266 C 214.415 1.01866 1.66278 0
M  V30 2267 O 213.685 0.0776513 1.95746 0
M  V30 2268 H 212.265 0.721091 0.195032 0
M  V30 2269 H 214.927 1.93809 -0.205921 0
M  V30 2270 H 214.023 2.98695 0.904854 0
M  V30 2271 N 214.325 -0.140222 1.56975 0
M  V30 2272 C 215.255 -1.17456 2.01808 0
M  V30 2273 C 216.236 -1.44415 0.898794 0
M  V30 2274 O 217.421 -1.5522 1.16707 0
M  V30 2275 C 214.551 -2.50607 2.40444 0
M  V30 2276 C 213.505 -2.38155 3.55621 0
M  V30 2277 C 212.831 -3.76078 3.80091 0
M  V30 2278 C 214.131 -1.85991 4.88062 0
M  V30 2279 H 215.825 -0.801743 2.88466 0
M  V30 2280 H 213.371 -0.38422 1.38779 0
M  V30 2281 H 215.324 -3.23197 2.7041 0
M  V30 2282 H 214.048 -2.89737 1.50732 0
M  V30 2283 H 212.707 -1.68016 3.25832 0
M  V30 2284 H 212.355 -4.12656 2.87618 0
M  V30 2285 H 212.055 -3.68606 4.57606 0
M  V30 2286 H 213.579 -4.50206 4.12488 0
M  V30 2287 H 214.993 -2.4838 5.16701 0
M  V30 2288 H 213.39 -1.89393 5.6943 0
M  V30 2289 H 214.46 -0.816023 4.77984 0
M  V30 2290 N 215.803 -1.52179 -0.40978 0
M  V30 2291 C 217.049 -1.66453 -1.15851 0
M  V30 2292 C 217.382 -0.392972 -1.90182 0
M  V30 2293 O 216.657 0.608579 -1.84734 0
M  V30 2294 C 216.94 -2.88612 -2.15349 0
M  V30 2295 C 216.793 -4.25815 -1.44918 0
M  V30 2296 C 218.112 -3.06294 -3.16026 0
M  V30 2297 H 215.231 -0.60575 -0.419805 0
M  V30 2298 H 217.873 -1.84732 -0.444314 0
M  V30 2299 H 216.023 -2.73158 -2.76255 0
M  V30 2300 H 217.695 -4.52995 -0.871365 0
M  V30 2301 H 215.938 -4.27247 -0.751159 0
M  V30 2302 H 216.609 -5.07337 -2.17516 0
M  V30 2303 H 219.085 -3.20641 -2.65195 0
M  V30 2304 H 217.961 -3.93283 -3.8291 0
M  V30 2305 H 218.222 -2.19579 -3.83715 0
M  V30 2306 N 217.281 0.66697 -1.42791 0
M  V30 2307 C 218.211 1.79218 -1.49677 0
M  V30 2308 C 219.192 1.66405 -0.352623 0
M  V30 2309 O 220.377 1.85708 -0.567993 0
M  V30 2310 C 217.507 3.17565 -1.40605 0
M  V30 2311 C 216.461 3.45124 -2.53127 0
M  V30 2312 C 215.787 4.83127 -2.29112 0
M  V30 2313 C 217.087 3.41236 -3.95418 0
M  V30 2314 H 218.781 1.73713 -2.43853 0
M  V30 2315 H 216.327 0.83432 -1.17367 0
M  V30 2316 H 218.28 3.96022 -1.44029 0
M  V30 2317 H 217.004 3.23767 -0.429271 0
M  V30 2318 H 215.663 2.69031 -2.49034 0
M  V30 2319 H 215.311 4.85988 -1.29709 0
M  V30 2320 H 215.011 5.02528 -3.04531 0
M  V30 2321 H 216.535 5.63859 -2.34297 0
M  V30 2322 H 217.949 4.09651 -4.01073 0
M  V30 2323 H 216.346 3.72173 -4.70752 0
M  V30 2324 H 217.416 2.39665 -4.21532 0
M  V30 2325 N 218.759 1.29093 0.90403 0
M  V30 2326 C 219.722 1.1386 1.98919 0
M  V30 2327 C 220.722 0.0753457 1.60623 0
M  V30 2328 O 221.912 0.321931 1.71199 0
M  V30 2329 C 219.044 0.740198 3.32767 0
M  V30 2330 H 220.237 2.10246 2.13861 0
M  V30 2331 H 217.79 1.12218 1.08797 0
M  V30 2332 H 218.525 -0.223997 3.23525 0
M  V30 2333 H 218.31 1.50838 3.61926 0
M  V30 2334 H 219.8 0.656546 4.12407 0
M  V30 2335 N 220.237 -1.11381 1.11499 0
M  V30 2336 C 221.486 -1.82494 0.858993 0
M  V30 2337 C 221.799 -1.85605 -0.617278 0
M  V30 2338 O 223.005 -2.52824 -0.989552 0
M  V30 2339 C 221.461 -3.27745 1.48699 0
M  V30 2340 C 221.069 -3.32961 2.99735 0
M  V30 2341 C 222.813 -4.03754 1.31085 0
M  V30 2342 C 220.72 -4.72612 3.55516 0
M  V30 2343 H 219.65 -0.683802 0.317696 0
M  V30 2344 H 222.301 -1.25331 1.34031 0
M  V30 2345 H 220.683 -3.84844 0.933339 0
M  V30 2346 H 221.857 -2.85741 3.61509 0
M  V30 2347 H 220.172 -2.70433 3.16631 0
M  V30 2348 H 222.769 -5.06891 1.70192 0
M  V30 2349 H 223.112 -4.15527 0.253496 0
M  V30 2350 H 223.645 -3.53043 1.83318 0
M  V30 2351 H 220.384 -4.66036 4.60967 0
M  V30 2352 H 219.904 -5.2024 2.98513 0
M  V30 2353 H 221.583 -5.4157 3.53992 0
M  V30 2354 N 221.715 -0.905404 -1.28997 0
M  V30 2355 C 222.94 -0.549175 -1.99997 0
M  V30 2356 C 223.365 0.860276 -1.67275 0
M  V30 2357 O 222.723 1.57355 -0.900502 0
M  V30 2358 C 222.771 -0.755185 -3.52604 0
M  V30 2359 O 221.875 0.189692 -4.11964 0
M  V30 2360 H 221.216 -0.213899 -0.628604 0
M  V30 2361 H 223.746 -1.21856 -1.64354 0
M  V30 2362 H 223.756 -0.662045 -4.02593 0
M  V30 2363 H 222.431 -1.78271 -3.75755 0
M  V30 2364 H 221.008 0.0485257 -3.72868 0
M  V30 2365 N 223.193 1.4272 -0.668489 0
M  V30 2366 C 224.604 1.84793 -0.266151 0
M  V30 2367 C 224.955 1.55959 1.19043 0
M  V30 2368 O 224.08 1.01622 1.91055 0
M  V30 2369 C 224.675 3.35436 -0.476271 0
M  V30 2370 C 223.234 3.76182 -0.128113 0
M  V30 2371 C 222.381 2.66344 -0.771777 0
M  V30 2372 H 225.332 1.32656 -0.871098 0
M  V30 2373 H 225.353 3.79515 0.273561 0
M  V30 2374 H 224.865 3.5639 -1.53647 0
M  V30 2375 H 222.966 3.60836 0.928891 0
M  V30 2376 H 223.079 4.75766 -0.564231 0
M  V30 2377 H 221.443 2.53885 -0.203652 0
M  V30 2378 H 222.226 2.90123 -1.83531 0
M  V30 2379 N 224.671 0.411399 1.52136 0
M  V30 2380 C 225.918 -0.163645 2.01838 0
M  V30 2381 C 226.246 -1.4495 1.29691 0
M  V30 2382 O 225.501 -1.91725 0.392431 0
M  V30 2383 C 225.8 -0.455872 3.54481 0
M  V30 2384 C 225.466 0.741055 4.44769 0
M  V30 2385 C 224.128 1.06936 4.69167 0
M  V30 2386 C 226.48 1.54075 4.97906 0
M  V30 2387 C 223.808 2.19851 5.43951 0
M  V30 2388 C 226.16 2.66067 5.73926 0
M  V30 2389 C 224.824 2.99381 5.96596 0
M  V30 2390 H 224.094 -0.0598821 0.738576 0
M  V30 2391 H 226.741 0.553283 1.83333 0
M  V30 2392 H 225.046 -1.2544 3.71177 0
M  V30 2393 H 226.743 -0.913802 3.90449 0
M  V30 2394 H 223.333 0.475192 4.25958 0
M  V30 2395 H 227.517 1.30033 4.78963 0
M  V30 2396 H 222.773 2.46006 5.59724 0
M  V30 2397 H 226.947 3.28419 6.14096 0
M  V30 2398 H 224.574 3.86992 6.54325 0
M  V30 2399 N 226.149 -1.5696 0.141893 0
M  V30 2400 C 227.097 -2.17784 -0.816874 0
M  V30 2401 C 228.091 -1.1334 -1.25899 0
M  V30 2402 O 229.297 -1.316 -1.22806 0
M  V30 2403 H 225.672 -0.697278 -0.281615 0
M  V30 2404 H 227.643 -2.97087 -0.279621 0
M  V30 2405 C 226.392 -2.80983 -2.04802 0
M  V30 2406 H 225.715 -3.61062 -1.7168 0
M  V30 2407 H 227.155 -3.2705 -2.69841 0
M  V30 2408 C 225.614 -1.79228 -2.8527 0
M  V30 2409 O 226.144 -1.25962 -3.8144 0
M  V30 2410 N 224.35 -1.48647 -2.49704 0
M  V30 2411 H 223.897 -1.92155 -1.71564 0
M  V30 2412 H 223.855 -0.808115 -3.03837 0
M  V30 2413 N 227.627 0.131896 -1.57047 0
M  V30 2414 C 228.857 0.855219 -1.88068 0
M  V30 2415 C 229.265 1.74557 -0.729817 0
M  V30 2416 O 228.608 1.81083 0.308962 0
M  V30 2417 C 228.67 1.75119 -3.13964 0
M  V30 2418 C 228.334 1.03646 -4.45091 0
M  V30 2419 C 229.331 0.383276 -5.18485 0
M  V30 2420 C 227.016 1.02148 -4.91804 0
M  V30 2421 C 229.01 -0.275347 -6.36805 0
M  V30 2422 C 226.697 0.359047 -6.10044 0
M  V30 2423 C 227.695 -0.288222 -6.82392 0
M  V30 2424 O 227.383 -0.94011 -7.98384 0
M  V30 2425 H 227.115 0.251864 -0.627328 0
M  V30 2426 H 229.669 0.124782 -2.05021 0
M  V30 2427 H 227.899 2.52295 -2.9306 0
M  V30 2428 H 229.588 2.3478 -3.31109 0
M  V30 2429 H 230.354 0.386562 -4.83457 0
M  V30 2430 H 226.233 1.5147 -4.35405 0
M  V30 2431 H 229.777 -0.781148 -6.93213 0
M  V30 2432 H 225.674 0.35348 -6.44531 0
M  V30 2433 H 226.442 -0.84329 -8.14144 0
M  V30 2434 N 229.106 1.52395 0.401703 0
M  V30 2435 C 230.517 1.58899 0.980202 0
M  V30 2436 C 230.868 0.434032 1.91339 0
M  V30 2437 O 229.993 -0.444619 2.11783 0
M  V30 2438 C 230.588 2.87994 1.78451 0
M  V30 2439 C 229.147 2.96953 2.31292 0
M  V30 2440 C 228.294 2.53903 1.11483 0
M  V30 2441 H 231.245 1.57657 0.18168 0
M  V30 2442 H 231.266 2.73765 2.64259 0
M  V30 2443 H 230.778 3.72035 1.10506 0
M  V30 2444 H 228.879 2.17422 3.02586 0
M  V30 2445 H 228.992 4.01344 2.61649 0
M  V30 2446 H 227.356 2.07925 1.47104 0
M  V30 2447 H 228.139 3.40326 0.450928 0
M  V30 2448 N 230.584 -0.659388 1.43143 0
M  V30 2449 C 231.83 -1.42145 1.44647 0
M  V30 2450 C 232.163 -1.9408 0.0681907 0
M  V30 2451 O 231.438 -1.71899 -0.910007 0
M  V30 2452 C 231.721 -2.60735 2.48373 0
M  V30 2453 C 231.574 -2.14332 3.95451 0
M  V30 2454 C 232.893 -3.62951 2.48906 0
M  V30 2455 H 230.012 -0.51552 0.526696 0
M  V30 2456 H 232.654 -0.748069 1.74654 0
M  V30 2457 H 230.804 -3.18184 2.22916 0
M  V30 2458 H 232.476 -1.61932 4.31944 0
M  V30 2459 H 230.719 -1.4576 4.08578 0
M  V30 2460 H 231.39 -2.99583 4.63631 0
M  V30 2461 H 233.866 -3.1525 2.71582 0
M  V30 2462 H 232.742 -4.43487 3.23435 0
M  V30 2463 H 233.003 -4.15126 1.52061 0
M  V30 2464 N 232.062 -1.29571 -0.897171 0
M  V30 2465 C 233.01 -1.14802 -2.02295 0
M  V30 2466 C 234.004 -0.0629637 -1.69283 0
M  V30 2467 O 235.21 -0.222945 -1.78614 0
M  V30 2468 H 231.585 -0.354692 -0.663097 0
M  V30 2469 H 233.556 -2.10108 -2.11889 0
M  V30 2470 C 232.305 -0.843966 -3.37302 0
M  V30 2471 H 231.628 -1.67093 -3.63208 0
M  V30 2472 H 233.068 -0.780672 -4.16751 0
M  V30 2473 C 231.527 0.452843 -3.33843 0
M  V30 2474 O 232.057 1.47813 -3.73516 0
M  V30 2475 N 230.263 0.459601 -2.86943 0
M  V30 2476 H 229.81 -0.375213 -2.54853 0
M  V30 2477 H 229.768 1.32726 -2.85011 0
M  V30 2478 N 233.54 1.10788 -1.12088 0
M  V30 2479 C 234.47 2.19083 -0.807755 0
M  V30 2480 C 235.451 1.6858 0.226859 0
M  V30 2481 O 236.636 1.93997 0.0888475 0
M  V30 2482 C 233.766 3.46344 -0.257576 0
M  V30 2483 C 232.72 4.101 -1.22483 0
M  V30 2484 C 232.046 5.32016 -0.535052 0
M  V30 2485 C 233.346 4.54236 -2.57811 0
M  V30 2486 H 235.04 2.45534 -1.71328 0
M  V30 2487 H 232.586 1.1801 -0.825205 0
M  V30 2488 H 234.539 4.21392 -0.0262679 0
M  V30 2489 H 233.263 3.19373 0.683278 0
M  V30 2490 H 231.922 3.37054 -1.44189 0
M  V30 2491 H 231.57 5.01319 0.410827 0
M  V30 2492 H 231.27 5.75625 -1.18024 0
M  V30 2493 H 232.794 6.09799 -0.312695 0
M  V30 2494 H 234.208 5.20575 -2.40155 0
M  V30 2495 H 232.605 5.08682 -3.18375 0
M  V30 2496 H 233.675 3.6734 -3.16528 0
M  V30 2497 N 235.018 0.912232 1.28515 0
M  V30 2498 C 235.981 0.404223 2.25607 0
M  V30 2499 C 236.981 -0.468602 1.53821 0
M  V30 2500 O 238.171 -0.271873 1.72065 0
M  V30 2501 C 235.303 -0.420653 3.38295 0
M  V30 2502 H 236.496 1.26188 2.7206 0
M  V30 2503 H 234.049 0.691495 1.40171 0
M  V30 2504 H 234.784 -1.29777 2.97201 0
M  V30 2505 H 234.569 0.204935 3.91564 0
M  V30 2506 H 236.059 -0.766971 4.10496 0
M  V30 2507 N 236.496 -1.42363 0.676048 0
M  V30 2508 C 237.744 -2.01123 0.198437 0
M  V30 2509 C 238.065 -1.53731 -1.19966 0
M  V30 2510 O 237.335 -0.759518 -1.80577 0
M  V30 2511 H 235.915 -0.743678 0.0703721 0
M  V30 2512 H 238.577 -1.74263 0.872837 0
M  V30 2513 H 237.673 -3.11454 0.200686 0
M  V30 2514 N 237.974 -0.419461 -1.51915 0
M  V30 2515 C 239.199 0.154572 -2.06823 0
M  V30 2516 C 239.624 1.3722 -1.28656 0
M  V30 2517 O 238.982 1.78461 -0.319583 0
M  V30 2518 C 239.03 0.473172 -3.57482 0
M  V30 2519 O 238.134 1.56255 -3.81652 0
M  V30 2520 H 237.475 0.0096924 -0.663929 0
M  V30 2521 H 240.005 -0.595642 -1.95738 0
M  V30 2522 H 240.015 0.728825 -4.01438 0
M  V30 2523 H 238.69 -0.416873 -4.13805 0
M  V30 2524 H 237.267 1.29825 -3.49571 0
M  V30 2525 N 239.452 1.56882 -0.150215 0
M  V30 2526 C 240.399 2.16922 0.788244 0
M  V30 2527 C 241.369 1.10303 1.24187 0
M  V30 2528 O 242.554 1.38359 1.31383 0
M  V30 2529 C 239.694 2.79754 2.02068 0
M  V30 2530 C 238.807 4.00775 1.61257 0
M  V30 2531 C 237.942 4.51595 2.79705 0
M  V30 2532 C 236.981 5.65074 2.35282 0
M  V30 2533 N 236.118 6.10499 3.4675 0
M  V30 2534 H 240.958 2.96779 0.269444 0
M  V30 2535 H 238.495 1.46599 0.12128 0
M  V30 2536 H 240.453 3.14329 2.74323 0
M  V30 2537 H 239.083 2.02536 2.51354 0
M  V30 2538 H 238.135 3.72158 0.787553 0
M  V30 2539 H 239.447 4.82978 1.24633 0
M  V30 2540 H 238.601 4.88242 3.60145 0
M  V30 2541 H 237.34 3.68406 3.19576 0
M  V30 2542 H 236.345 5.28 1.53283 0
M  V30 2543 H 237.57 6.50052 1.96493 0
M  V30 2544 H 235.516 5.30243 3.86236 0
M  V30 2545 H 235.433 6.87637 3.14152 0
M  V30 2546 H 236.701 6.51791 4.27537 0
M  V30 2547 N 240.93 -0.123565 1.57115 0
M  V30 2548 C 242.179 -0.830704 1.83799 0
M  V30 2549 C 242.492 -1.81259 0.735158 0
M  V30 2550 O 243.698 -2.56558 0.888278 0
M  V30 2551 C 242.154 -1.52802 3.25852 0
M  V30 2552 C 241.762 -0.587356 4.44133 0
M  V30 2553 C 243.506 -2.22056 3.61789 0
M  V30 2554 C 241.413 -1.28764 5.77212 0
M  V30 2555 H 240.343 -0.313967 0.685522 0
M  V30 2556 H 242.994 -0.0834359 1.8331 0
M  V30 2557 H 241.376 -2.32175 3.20797 0
M  V30 2558 H 242.55 0.172829 4.60476 0
M  V30 2559 H 240.865 -0.00201892 4.164 0
M  V30 2560 H 243.462 -2.75131 4.58483 0
M  V30 2561 H 243.805 -2.99644 2.88997 0
M  V30 2562 H 244.338 -1.49576 3.68608 0
M  V30 2563 H 241.077 -0.55314 6.53162 0
M  V30 2564 H 240.597 -2.01995 5.64764 0
M  V30 2565 H 242.276 -1.8221 6.20813 0
M  V30 2566 N 242.408 -1.52605 -0.393616 0
M  V30 2567 C 243.371 -1.76415 -1.46323 0
M  V30 2568 C 244.371 -0.634126 -1.47768 0
M  V30 2569 O 245.561 -0.902142 -1.4902 0
M  V30 2570 C 242.693 -1.8607 -2.85641 0
M  V30 2571 H 243.886 -2.71916 -1.26498 0
M  V30 2572 H 241.439 -1.43257 -0.625073 0
M  V30 2573 H 242.174 -0.925378 -3.10817 0
M  V30 2574 H 241.959 -2.68235 -2.85993 0
M  V30 2575 H 243.449 -2.06179 -3.63153 0
M  V30 2576 N 243.887 0.651787 -1.4349 0
M  V30 2577 C 245.298 1.233 -1.40193 0
M  V30 2578 C 245.649 1.9591 -0.106727 0
M  V30 2579 O 244.774 2.01316 0.793773 0
M  V30 2580 C 245.369 2.24257 -2.53957 0
M  V30 2581 C 243.928 2.77852 -2.5392 0
M  V30 2582 C 243.075 1.52517 -2.3159 0
M  V30 2583 H 246.026 0.443717 -1.52371 0
M  V30 2584 H 246.047 3.0646 -2.25528 0
M  V30 2585 H 245.559 1.71382 -3.4821 0
M  V30 2586 H 243.66 3.34786 -1.63551 0
M  V30 2587 H 243.773 3.25299 -3.51735 0
M  V30 2588 H 242.137 1.79915 -1.80285 0
M  V30 2589 H 242.92 1.01574 -3.27929 0
M  V30 2590 N 245.365 1.30045 0.890287 0
M  V30 2591 C 246.328 1.15963 1.977 0
M  V30 2592 C 247.328 0.0923777 1.60534 0
M  V30 2593 O 248.518 0.340071 1.70848 0
M  V30 2594 C 245.65 0.775451 3.31963 0
M  V30 2595 H 246.843 2.12502 2.11619 0
M  V30 2596 H 244.396 1.13366 1.07601 0
M  V30 2597 H 245.131 -0.189671 3.23745 0
M  V30 2598 H 244.916 1.54668 3.60306 0
M  V30 2599 H 246.406 0.700251 4.11687 0
M  V30 2600 N 246.843 -1.10192 1.12674 0
M  V30 2601 C 247.773 -2.18652 0.819362 0
M  V30 2602 C 248.754 -1.68698 -0.217915 0
M  V30 2603 O 249.939 -1.94041 -0.0785581 0
M  V30 2604 C 247.069 -3.46202 0.27594 0
M  V30 2605 C 246.023 -4.09444 1.24656 0
M  V30 2606 C 245.349 -5.31725 0.563258 0
M  V30 2607 C 246.649 -4.52863 2.60217 0
M  V30 2608 H 248.343 -2.44622 1.72628 0
M  V30 2609 H 245.889 -1.17571 0.831451 0
M  V30 2610 H 247.842 -4.21372 0.0486149 0
M  V30 2611 H 246.566 -3.1973 -0.666331 0
M  V30 2612 H 245.225 -3.36284 1.45974 0
M  V30 2613 H 244.873 -5.0153 -0.384235 0
M  V30 2614 H 244.573 -5.74991 1.21075 0
M  V30 2615 H 246.097 -6.09624 0.34503 0
M  V30 2616 H 247.511 -5.19294 2.42913 0
M  V30 2617 H 245.908 -5.06986 3.21068 0
M  V30 2618 H 246.978 -3.65656 3.18471 0
M  V30 2619 N 248.321 -0.919034 -1.28029 0
M  V30 2620 C 249.57 -0.550802 -1.94034 0
M  V30 2621 C 249.883 0.910877 -1.73096 0
M  V30 2622 O 251.089 1.3875 -2.33368 0
M  V30 2623 C 249.545 -0.934249 -3.47563 0
M  V30 2624 C 249.153 -2.41602 -3.7727 0
M  V30 2625 C 250.897 -0.636854 -4.19696 0
M  V30 2626 C 248.804 -2.73932 -5.24133 0
M  V30 2627 H 247.734 -0.202273 -0.726362 0
M  V30 2628 H 250.385 -1.11867 -1.45458 0
M  V30 2629 H 248.767 -0.295115 -3.94899 0
M  V30 2630 H 249.941 -3.10233 -3.40723 0
M  V30 2631 H 248.256 -2.68441 -3.18321 0
M  V30 2632 H 250.853 -0.855005 -5.2782 0
M  V30 2633 H 251.196 0.425575 -4.14119 0
M  V30 2634 H 251.729 -1.23469 -3.78154 0
M  V30 2635 H 248.468 -3.79049 -5.34792 0
M  V30 2636 H 247.988 -2.09942 -5.61858 0
M  V30 2637 H 249.667 -2.61215 -5.91925 0
M  V30 2638 N 249.799 1.42003 -0.683588 0
M  V30 2639 C 250.762 2.29191 -0.0198243 0
M  V30 2640 C 251.762 1.43773 0.72013 0
M  V30 2641 O 252.952 1.65061 0.556815 0
M  V30 2642 C 250.084 3.26435 0.982487 0
M  V30 2643 H 251.277 2.8938 -0.787345 0
M  V30 2644 H 248.83 1.49789 -0.446418 0
M  V30 2645 H 249.565 2.71203 1.77819 0
M  V30 2646 H 249.35 3.89449 0.455182 0
M  V30 2647 H 250.84 3.918 1.44508 0
M  V30 2648 N 251.277 0.427512 1.51691 0
M  V30 2649 C 252.525 -0.141948 2.01601 0
M  V30 2650 C 252.846 -1.44067 1.31414 0
M  V30 2651 O 252.116 -1.90763 0.445658 0
M  V30 2652 H 250.696 -0.0554468 0.744939 0
M  V30 2653 H 253.358 0.567968 1.86441 0
M  V30 2654 H 252.454 -0.324913 3.10404 0
M  V30 2655 N 252.755 -1.56801 0.158532 0
M  V30 2656 C 253.703 -2.18638 -0.793729 0
M  V30 2657 C 254.697 -1.14669 -1.24689 0
M  V30 2658 O 255.903 -1.32895 -1.21403 0
M  V30 2659 H 252.278 -0.700226 -0.274204 0
M  V30 2660 H 254.249 -2.97367 -0.248095 0
M  V30 2661 C 252.998 -2.83139 -2.0181 0
M  V30 2662 H 252.321 -3.62863 -1.67841 0
M  V30 2663 H 253.761 -3.29894 -2.66357 0
M  V30 2664 C 252.22 -1.82244 -2.83353 0
M  V30 2665 O 252.75 -1.3 -3.80083 0
M  V30 2666 N 250.956 -1.51288 -2.48114 0
M  V30 2667 H 250.503 -1.93964 -1.69516 0
M  V30 2668 H 250.461 -0.840296 -3.02963 0
M  V30 2669 N 254.233 0.115231 -1.57178 0
M  V30 2670 C 255.479 0.82357 -1.85325 0
M  V30 2671 C 255.812 1.79349 -0.744814 0
M  V30 2672 O 255.087 1.92899 0.249024 0
M  V30 2673 C 255.37 1.57014 -3.24066 0
M  V30 2674 C 255.223 0.619565 -4.45513 0
M  V30 2675 C 256.542 2.52545 -3.60429 0
M  V30 2676 H 253.661 0.297948 -0.674089 0
M  V30 2677 H 256.303 0.0877138 -1.89797 0
M  V30 2678 H 254.453 2.19742 -3.20383 0
M  V30 2679 H 256.125 0.000837639 -4.613 0
M  V30 2680 H 254.368 -0.0686174 -4.33746 0
M  V30 2681 H 255.039 1.17866 -5.3927 0
M  V30 2682 H 257.515 1.9992 -3.64926 0
M  V30 2683 H 256.391 3.01811 -4.58477 0
M  V30 2684 H 256.652 3.35383 -2.88047 0
M  V30 2685 N 255.711 1.52812 0.385517 0
M  V30 2686 C 256.96 1.67249 1.12741 0
M  V30 2687 C 257.273 0.4205 1.91027 0
M  V30 2688 O 258.479 0.445064 2.67827 0
M  V30 2689 C 256.935 2.95583 2.05326 0
M  V30 2690 C 256.543 4.27974 1.32447 0
M  V30 2691 C 258.287 3.19386 2.7963 0
M  V30 2692 C 256.194 5.47412 2.23818 0
M  V30 2693 H 255.124 0.6231 0.424573 0
M  V30 2694 H 257.775 1.79309 0.389924 0
M  V30 2695 H 256.157 2.77277 2.82725 0
M  V30 2696 H 257.331 4.56844 0.602495 0
M  V30 2697 H 255.646 4.10459 0.700885 0
M  V30 2698 H 258.243 4.05801 3.48181 0
M  V30 2699 H 258.586 2.34604 3.43899 0
M  V30 2700 H 259.119 3.38274 2.09322 0
M  V30 2701 H 255.858 6.34612 1.64157 0
M  V30 2702 H 255.378 5.22849 2.93921 0
M  V30 2703 H 257.057 5.81423 2.83824 0
M  V30 2704 N 257.189 -0.644168 1.43834 0
M  V30 2705 C 258.152 -1.73857 1.49353 0
M  V30 2706 C 259.152 -1.56315 0.377112 0
M  V30 2707 O 260.342 -1.62048 0.639226 0
M  V30 2708 C 257.474 -3.12819 1.35488 0
M  V30 2709 H 258.667 -1.70342 2.46827 0
M  V30 2710 H 256.22 -0.856652 1.30733 0
M  V30 2711 H 256.955 -3.2194 0.390569 0
M  V30 2712 H 256.74 -3.26958 2.16428 0
M  V30 2713 H 258.23 -3.92606 1.42302 0
M  V30 2714 N 258.668 -1.30515 -0.883378 0
M  V30 2715 C 259.915 -1.1943 -1.63532 0
M  V30 2716 C 260.243 0.250627 -1.92878 0
M  V30 2717 O 259.498 1.19556 -1.54935 0
M  V30 2718 C 259.797 -1.96994 -2.98209 0
M  V30 2719 C 259.463 -3.466 -2.88408 0
M  V30 2720 C 258.125 -3.87397 -2.85442 0
M  V30 2721 C 260.477 -4.41863 -2.76418 0
M  V30 2722 C 257.805 -5.21745 -2.68327 0
M  V30 2723 C 260.157 -5.7632 -2.60841 0
M  V30 2724 C 258.821 -6.16354 -2.56251 0
M  V30 2725 H 258.091 -0.437025 -0.598406 0
M  V30 2726 H 260.738 -1.61635 -1.02696 0
M  V30 2727 H 259.043 -1.47429 -3.63004 0
M  V30 2728 H 260.74 -1.85808 -3.55354 0
M  V30 2729 H 257.33 -3.14182 -2.91527 0
M  V30 2730 H 261.514 -4.11285 -2.77775 0
M  V30 2731 H 256.77 -5.51853 -2.63189 0
M  V30 2732 H 260.944 -6.49772 -2.50538 0
M  V30 2733 H 258.571 -7.20401 -2.42748 0
M  V30 2734 N 260.146 1.09593 -1.13257 0
M  V30 2735 C 261.093 2.1618 -0.808381 0
M  V30 2736 C 262.063 1.64517 0.228754 0
M  V30 2737 O 263.248 1.9053 0.101381 0
M  V30 2738 C 260.388 3.43973 -0.278675 0
M  V30 2739 C 259.501 4.09545 -1.37466 0
M  V30 2740 C 258.636 5.25088 -0.803479 0
M  V30 2741 C 257.675 5.82579 -1.87799 0
M  V30 2742 N 256.812 6.89486 -1.32488 0
M  V30 2743 H 261.652 2.43254 -1.72138 0
M  V30 2744 H 259.189 1.19392 -0.859294 0
M  V30 2745 H 261.147 4.17174 0.0465583 0
M  V30 2746 H 259.777 3.17223 0.597459 0
M  V30 2747 H 258.829 3.34226 -1.81652 0
M  V30 2748 H 260.141 4.48307 -2.18684 0
M  V30 2749 H 259.295 6.05178 -0.429427 0
M  V30 2750 H 258.034 4.87684 0.0397956 0
M  V30 2751 H 257.039 5.01152 -2.26113 0
M  V30 2752 H 258.264 6.22045 -2.72463 0
M  V30 2753 H 256.21 6.54064 -0.503575 0
M  V30 2754 H 256.127 7.27007 -2.07355 0
M  V30 2755 H 257.395 7.73336 -0.978336 0
M  V30 2756 N 261.624 0.925811 1.2754 0
M  V30 2757 C 263.035 0.610102 1.7645 0
M  V30 2758 C 263.386 -0.874723 1.75622 0
M  V30 2759 O 262.511 -1.68444 1.35851 0
M  V30 2760 C 263.106 1.10073 3.20421 0
M  V30 2761 C 261.665 0.835723 3.67005 0
M  V30 2762 C 260.812 1.26054 2.46993 0
M  V30 2763 H 263.763 1.10579 1.13833 0
M  V30 2764 H 263.784 0.447557 3.77859 0
M  V30 2765 H 263.296 2.18143 3.20991 0
M  V30 2766 H 261.397 -0.231249 3.71882 0
M  V30 2767 H 261.51 1.45193 4.56569 0
M  V30 2768 H 259.874 0.679111 2.45479 0
M  V30 2769 H 260.657 2.34984 2.50275 0
M  V30 2770 N 263.102 -1.41638 0.69111 0
M  V30 2771 C 264.513 -1.84346 0.295517 0
M  V30 2772 C 264.864 -1.57833 -1.16547 0
M  V30 2773 O 263.989 -1.04648 -1.89414 0
M  V30 2774 C 264.584 -3.34636 0.529575 0
M  V30 2775 C 263.143 -3.7593 0.187944 0
M  V30 2776 C 262.29 -2.65082 0.814052 0
M  V30 2777 H 265.241 -1.31253 0.892092 0
M  V30 2778 H 265.262 -3.79903 -0.213148 0
M  V30 2779 H 264.774 -3.53901 1.59297 0
M  V30 2780 H 262.875 -3.62268 -0.871367 0
M  V30 2781 H 262.988 -4.74808 0.63985 0
M  V30 2782 H 261.352 -2.53528 0.244017 0
M  V30 2783 H 262.135 -2.87167 1.88123 0
M  V30 2784 N 264.58 -0.43555 -1.51462 0
M  V30 2785 C 265.808 0.130242 -2.0649 0
M  V30 2786 C 266.223 1.36614 -1.30315 0
M  V30 2787 O 265.58 1.78869 -0.362223 0
M  V30 2788 C 265.631 0.454253 -3.58635 0
M  V30 2789 O 265.352 -0.73259 -4.31931 0
M  V30 2790 C 266.853 1.07091 -4.3017 0
M  V30 2791 H 264.073 0.00871669 -0.670943 0
M  V30 2792 H 266.617 -0.614117 -1.95061 0
M  V30 2793 H 264.772 1.14851 -3.69984 0
M  V30 2794 H 265.186 -0.455787 -5.22516 0
M  V30 2795 H 266.66 1.24764 -5.37716 0
M  V30 2796 H 267.137 2.05144 -3.88346 0
M  V30 2797 H 267.743 0.416089 -4.2326 0
M  V30 2798 N 266.058 1.56714 -0.166846 0
M  V30 2799 C 266.99 2.14914 0.796537 0
M  V30 2800 C 268.003 1.10357 1.19688 0
M  V30 2801 O 269.192 1.37561 1.13751 0
M  V30 2802 C 266.292 2.67326 2.08303 0
M  V30 2803 C 265.465 3.96493 1.84696 0
M  V30 2804 C 264.524 4.34014 2.97521 0
M  V30 2805 O 263.55 5.01973 2.6835 0
M  V30 2806 N 264.752 3.95208 4.25196 0
M  V30 2807 H 267.517 2.98205 0.299006 0
M  V30 2808 H 265.078 1.61892 0.0160839 0
M  V30 2809 H 267.07 2.89428 2.82867 0
M  V30 2810 H 265.64 1.88649 2.4926 0
M  V30 2811 H 264.86 3.82814 0.940602 0
M  V30 2812 H 266.148 4.8086 1.66285 0
M  V30 2813 H 265.546 3.40487 4.51758 0
M  V30 2814 H 264.103 4.2232 4.96477 0
M  V30 2815 N 267.536 -0.106894 1.57237 0
M  V30 2816 C 268.784 -0.810921 1.85117 0
M  V30 2817 C 269.105 -1.7984 0.753827 0
M  V30 2818 O 268.375 -1.94649 -0.221056 0
M  V30 2819 H 266.955 -0.302466 0.683025 0
M  V30 2820 H 269.617 -0.0913324 1.94686 0
M  V30 2821 H 268.713 -1.34875 2.81452 0
M  V30 2822 N 269.014 -1.53014 -0.377408 0
M  V30 2823 C 270.239 -1.72818 -1.14668 0
M  V30 2824 C 270.664 -0.450725 -1.8262 0
M  V30 2825 O 270.022 0.59439 -1.7128 0
M  V30 2826 C 270.07 -2.88627 -2.16164 0
M  V30 2827 O 269.174 -2.56409 -3.22998 0
M  V30 2828 H 268.515 -0.574301 -0.333278 0
M  V30 2829 H 271.045 -1.99853 -0.438152 0
M  V30 2830 H 271.055 -3.14455 -2.59966 0
M  V30 2831 H 269.73 -3.81294 -1.66095 0
M  V30 2832 H 268.307 -2.4136 -2.84253 0
M  V30 2833 N 270.492 0.636531 -1.44174 0
M  V30 2834 C 271.741 1.39213 -1.45954 0
M  V30 2835 C 272.054 1.95374 -0.0939119 0
M  V30 2836 O 273.26 2.71498 0.0107767 0
M  V30 2837 C 271.716 2.52025 -2.56927 0
M  V30 2838 C 271.324 2.024 -3.99673 0
M  V30 2839 C 273.068 3.29269 -2.67922 0
M  V30 2840 C 270.975 3.12521 -5.0208 0
M  V30 2841 H 269.905 0.523132 -0.542999 0
M  V30 2842 H 272.556 0.685349 -1.70221 0
M  V30 2843 H 270.938 3.25253 -2.25891 0
M  V30 2844 H 272.112 1.36073 -4.40251 0
M  V30 2845 H 270.427 1.37987 -3.92872 0
M  V30 2846 H 273.024 4.11352 -3.41605 0
M  V30 2847 H 273.367 3.78397 -1.73555 0
M  V30 2848 H 273.9 2.63129 -2.98342 0
M  V30 2849 H 270.639 2.68343 -5.98057 0
M  V30 2850 H 270.159 3.77507 -4.66099 0
M  V30 2851 H 271.838 3.77385 -5.25538 0
M  V30 2852 N 271.97 1.30982 0.876444 0
M  V30 2853 C 273.195 1.23373 1.66715 0
M  V30 2854 C 273.62 -0.19885 1.87046 0
M  V30 2855 O 272.978 -1.1427 1.40756 0
M  V30 2856 C 273.026 1.97644 3.01611 0
M  V30 2857 O 272.13 1.30935 3.91062 0
M  V30 2858 H 271.471 0.426279 0.509099 0
M  V30 2859 H 274.001 1.72944 1.09323 0
M  V30 2860 H 274.011 2.06992 3.51594 0
M  V30 2861 H 272.686 3.01829 2.86133 0
M  V30 2862 H 271.263 1.29996 3.49507 0
M  V30 2863 N 273.449 -1.08991 1.13837 0
M  V30 2864 C 274.697 -1.80899 0.901098 0
M  V30 2865 C 275.018 -1.86356 -0.574134 0
M  V30 2866 O 274.288 -1.35235 -1.41733 0
M  V30 2867 H 272.868 -0.669966 0.330386 0
M  V30 2868 H 275.53 -1.318 1.43578 0
M  V30 2869 H 274.626 -2.83929 1.29578 0
M  V30 2870 N 274.927 -0.932562 -1.27047 0
M  V30 2871 C 275.857 -0.452902 -2.29066 0
M  V30 2872 C 276.838 0.489338 -1.62909 0
M  V30 2873 O 278.023 0.393046 -1.90181 0
M  V30 2874 C 275.153 0.290698 -3.46081 0
M  V30 2875 C 274.107 -0.564168 -4.24265 0
M  V30 2876 C 273.433 0.308886 -5.33807 0
M  V30 2877 C 274.733 -1.83112 -4.89149 0
M  V30 2878 H 276.427 -1.30552 -2.69437 0
M  V30 2879 H 273.973 -0.629201 -1.29526 0
M  V30 2880 H 275.926 0.637233 -4.16554 0
M  V30 2881 H 274.65 1.17738 -3.0464 0
M  V30 2882 H 273.309 -0.893477 -3.55545 0
M  V30 2883 H 272.957 1.19467 -4.88607 0
M  V30 2884 H 272.657 -0.259633 -5.87026 0
M  V30 2885 H 274.181 0.650884 -6.07121 0
M  V30 2886 H 275.595 -1.55236 -5.51883 0
M  V30 2887 H 273.992 -2.34353 -5.52448 0
M  V30 2888 H 275.062 -2.54772 -4.12576 0
M  V30 2889 N 276.405 1.4127 -0.698611 0
M  V30 2890 C 277.335 2.33447 -0.049629 0
M  V30 2891 C 278.316 1.51982 0.763898 0
M  V30 2892 O 279.501 1.80509 0.716257 0
M  V30 2893 C 276.631 3.35828 0.885267 0
M  V30 2894 C 275.585 4.27627 0.178613 0
M  V30 2895 C 274.911 5.20406 1.22807 0
M  V30 2896 C 276.211 5.13459 -0.956933 0
M  V30 2897 H 277.905 2.87966 -0.81951 0
M  V30 2898 H 275.451 1.38461 -0.395538 0
M  V30 2899 H 277.404 3.9924 1.34854 0
M  V30 2900 H 276.128 2.79666 1.68685 0
M  V30 2901 H 274.787 3.65643 -0.26466 0
M  V30 2902 H 274.435 4.60558 2.02226 0
M  V30 2903 H 274.135 5.82661 0.760239 0
M  V30 2904 H 275.659 5.86695 1.69179 0
M  V30 2905 H 277.073 5.70421 -0.573805 0
M  V30 2906 H 275.47 5.8467 -1.35205 0
M  V30 2907 H 276.54 4.50443 -1.79524 0
M  V30 2908 N 277.883 0.443576 1.51229 0
M  V30 2909 C 278.813 -0.355142 2.30783 0
M  V30 2910 C 279.794 -1.0154 1.36468 0
M  V30 2911 O 280.979 -1.01785 1.65389 0
M  V30 2912 C 278.109 -1.45312 3.15439 0
M  V30 2913 C 277.063 -0.916002 4.18083 0
M  V30 2914 C 276.389 -2.1102 4.91299 0
M  V30 2915 C 277.689 0.0538602 5.22272 0
M  V30 2916 H 279.383 0.308767 2.97804 0
M  V30 2917 H 276.929 0.149937 1.43217 0
M  V30 2918 H 278.882 -2.01914 3.69876 0
M  V30 2919 H 277.606 -2.14541 2.46252 0
M  V30 2920 H 276.265 -0.372145 3.64706 0
M  V30 2921 H 275.913 -2.78882 4.18609 0
M  V30 2922 H 275.613 -1.75717 5.60712 0
M  V30 2923 H 277.137 -2.68164 5.48562 0
M  V30 2924 H 278.551 -0.422069 5.71744 0
M  V30 2925 H 276.948 0.319776 5.99247 0
M  V30 2926 H 278.018 0.98858 4.74716 0
M  V30 2927 N 279.361 -1.56624 0.175154 0
M  V30 2928 C 280.324 -2.16934 -0.739738 0
M  V30 2929 C 281.324 -1.11842 -1.15533 0
M  V30 2930 O 282.514 -1.37335 -1.07167 0
M  V30 2931 C 279.646 -2.75531 -2.00738 0
M  V30 2932 H 280.839 -2.99131 -0.214639 0
M  V30 2933 H 278.392 -1.56123 -0.0744197 0
M  V30 2934 H 279.127 -1.97078 -2.57548 0
M  V30 2935 H 278.912 -3.52444 -1.71831 0
M  V30 2936 H 280.402 -3.21904 -2.66021 0
M  V30 2937 N 280.839 0.0985539 -1.57292 0
M  V30 2938 C 281.749 1.13824 -2.05137 0
M  V30 2939 C 282.765 1.44076 -0.975604 0
M  V30 2940 O 283.941 1.54786 -1.28853 0
M  V30 2941 C 281.006 2.43969 -2.46333 0
M  V30 2942 C 280.067 2.2093 -3.68087 0
M  V30 2943 C 279.3 3.44869 -4.0731 0
M  V30 2944 O 279.523 4.52972 -3.46659 0
M  V30 2945 O 278.457 3.34661 -5.00285 0
M  V30 2946 H 282.283 0.761881 -2.93988 0
M  V30 2947 H 279.868 0.310818 -1.46131 0
M  V30 2948 H 281.75 3.20609 -2.73473 0
M  V30 2949 H 280.425 2.81038 -1.60621 0
M  V30 2950 H 279.332 1.42081 -3.46069 0
M  V30 2951 H 280.665 1.88755 -4.54568 0
M  V30 2952 N 282.317 1.53212 0.369288 0
M  V30 2953 C 283.28 1.7872 1.43498 0
M  V30 2954 C 284.28 0.657554 1.46741 0
M  V30 2955 O 285.47 0.925736 1.47566 0
M  V30 2956 C 282.602 1.90591 2.82645 0
M  V30 2957 H 283.795 2.73894 1.22156 0
M  V30 2958 H 281.348 1.44233 0.602203 0
M  V30 2959 H 282.083 0.974709 3.09306 0
M  V30 2960 H 281.868 2.72751 2.8169 0
M  V30 2961 H 283.358 2.11931 3.59826 0
M  V30 2962 N 283.795 -0.628877 1.44509 0
M  V30 2963 C 285.042 -1.38839 1.47411 0
M  V30 2964 C 285.37 -1.94202 0.10757 0
M  V30 2965 O 284.625 -1.74243 -0.890947 0
M  V30 2966 C 284.924 -2.56995 2.48371 0
M  V30 2967 C 284.59 -2.19908 3.93639 0
M  V30 2968 C 283.252 -2.09506 4.33198 0
M  V30 2969 C 285.604 -1.9064 4.85083 0
M  V30 2970 C 282.932 -1.68028 5.62124 0
M  V30 2971 C 285.284 -1.50655 6.14399 0
M  V30 2972 C 283.948 -1.38796 6.5291 0
M  V30 2973 H 283.218 -0.508048 0.539414 0
M  V30 2974 H 285.865 -0.712913 1.77735 0
M  V30 2975 H 284.17 -3.29786 2.11538 0
M  V30 2976 H 285.867 -3.15223 2.47861 0
M  V30 2977 H 282.457 -2.28922 3.62343 0
M  V30 2978 H 286.641 -1.97585 4.55273 0
M  V30 2979 H 281.897 -1.57452 5.90778 0
M  V30 2980 H 286.071 -1.27048 6.84713 0
M  V30 2981 H 283.698 -1.06429 7.52713 0
M  V30 2982 N 285.273 -1.31445 -0.869486 0
M  V30 2983 C 286.236 -1.19094 -1.9583 0
M  V30 2984 C 287.236 -0.117906 -1.60367 0
M  V30 2985 O 288.426 -0.367208 -1.70286 0
M  V30 2986 C 285.558 -0.828165 -3.30688 0
M  V30 2987 H 286.751 -2.15842 -2.08212 0
M  V30 2988 H 284.304 -1.15063 -1.05784 0
M  V30 2989 H 285.039 0.138142 -3.24006 0
M  V30 2990 H 284.824 -1.6038 -3.578 0
M  V30 2991 H 286.314 -0.765658 -4.10521 0
M  V30 2992 N 286.751 1.08385 -1.14413 0
M  V30 2993 C 287.661 2.18856 -0.844951 0
M  V30 2994 C 288.677 1.73121 0.174668 0
M  V30 2995 O 289.853 2.014 0.00312857 0
M  V30 2996 C 286.918 3.45155 -0.32696 0
M  V30 2997 C 285.979 4.05513 -1.40916 0
M  V30 2998 C 285.212 5.25784 -0.915793 0
M  V30 2999 O 285.435 5.69884 0.242651 0
M  V30 3000 O 284.369 5.77545 -1.69487 0
M  V30 3001 H 288.195 2.46919 -1.76818 0
M  V30 3002 H 285.78 1.17524 -0.922411 0
M  V30 3003 H 287.662 4.21377 -0.0440211 0
M  V30 3004 H 286.337 3.18668 0.568539 0
M  V30 3005 H 285.244 3.30879 -1.74556 0
M  V30 3006 H 286.577 4.3625 -2.27919 0
M  V30 3007 N 288.23 0.939286 1.26551 0
M  V30 3008 C 289.193 0.451987 2.24699 0
M  V30 3009 C 290.193 -0.435869 1.5478 0
M  V30 3010 O 291.383 -0.235314 1.72603 0
M  V30 3011 C 288.515 -0.348801 3.39111 0
M  V30 3012 H 289.708 1.3193 2.69322 0
M  V30 3013 H 287.261 0.721072 1.38673 0
M  V30 3014 H 287.996 -1.23444 2.99887 0
M  V30 3015 H 287.781 0.287945 3.91041 0
M  V30 3016 H 289.271 -0.679726 4.12031 0
M  V30 3017 N 289.708 -1.40897 0.706093 0
M  V30 3018 C 290.956 -2.00657 0.241054 0
M  V30 3019 C 291.277 -1.56241 -1.16678 0
M  V30 3020 O 290.547 -0.79765 -1.78926 0
M  V30 3021 H 289.127 -0.742018 0.0861308 0
M  V30 3022 H 291.789 -1.72372 0.909604 0
M  V30 3023 H 290.885 -3.10958 0.266705 0
M  V30 3024 N 291.186 -0.45159 -1.50991 0
M  V30 3025 C 292.116 0.342898 -2.30969 0
M  V30 3026 C 293.097 1.00815 -1.37005 0
M  V30 3027 O 294.282 1.00907 -1.65926 0
M  V30 3028 C 291.412 1.43637 -3.16205 0
M  V30 3029 C 290.366 0.893818 -4.18563 0
M  V30 3030 C 289.692 2.08411 -4.92411 0
M  V30 3031 C 290.992 -0.0815568 -5.22236 0
M  V30 3032 H 292.686 -0.324556 -2.97636 0
M  V30 3033 H 290.232 -0.157531 -1.43136 0
M  V30 3034 H 292.185 1.9995 -3.70942 0
M  V30 3035 H 290.909 2.13232 -2.47386 0
M  V30 3036 H 289.568 0.352798 -3.64898 0
M  V30 3037 H 289.216 2.76658 -4.20082 0
M  V30 3038 H 288.916 1.72741 -5.61636 0
M  V30 3039 H 290.44 2.65251 -5.49976 0
M  V30 3040 H 291.854 0.391742 -5.7196 0
M  V30 3041 H 290.251 -0.351551 -5.99069 0
M  V30 3042 H 291.321 -1.01374 -4.74185 0
M  V30 3043 N 292.664 1.56529 -0.183458 0
M  V30 3044 C 294.075 1.83739 0.331177 0
M  V30 3045 C 294.426 1.10373 1.62211 0
M  V30 3046 O 293.551 0.36071 2.13373 0
M  V30 3047 C 294.146 3.33306 0.607646 0
M  V30 3048 C 292.705 3.60969 1.06668 0
M  V30 3049 C 291.852 2.77086 0.109029 0
M  V30 3050 H 294.803 1.53379 -0.407484 0
M  V30 3051 H 294.824 3.51444 1.45832 0
M  V30 3052 H 294.336 3.86677 -0.332086 0
M  V30 3053 H 292.437 3.13021 2.0211 0
M  V30 3054 H 292.55 4.69231 0.967447 0
M  V30 3055 H 290.914 2.47319 0.608714 0
M  V30 3056 H 291.697 3.33241 -0.82494 0
M  V30 3057 N 294.142 -0.090211 1.57342 0
M  V30 3058 C 295.105 -1.09335 2.01441 0
M  V30 3059 C 296.105 -1.32666 0.908641 0
M  V30 3060 O 297.295 -1.28697 1.174 0
M  V30 3061 C 294.427 -2.44136 2.3793 0
M  V30 3062 H 295.62 -0.713662 2.91285 0
M  V30 3063 H 293.173 -0.335404 1.52659 0
M  V30 3064 H 293.908 -2.86972 1.51055 0
M  V30 3065 H 293.693 -2.28548 3.18603 0
M  V30 3066 H 295.183 -3.16277 2.72688 0
M  V30 3067 N 295.62 -1.53406 -0.361157 0
M  V30 3068 C 296.868 -1.69467 -1.10115 0
M  V30 3069 C 297.189 -0.451352 -1.89705 0
M  V30 3070 O 296.459 0.534636 -1.88463 0
M  V30 3071 H 295.039 -0.624749 -0.409508 0
M  V30 3072 H 297.701 -1.90609 -0.406699 0
M  V30 3073 H 296.797 -2.55774 -1.78847 0
M  V30 3074 N 297.098 0.621204 -1.44841 0
M  V30 3075 C 298.344 1.3826 -1.48365 0
M  V30 3076 C 298.677 1.93831 -0.119624 0
M  V30 3077 O 297.952 1.74251 0.864111 0
M  V30 3078 C 298.235 2.54058 -2.55199 0
M  V30 3079 C 298.088 2.03772 -4.00995 0
M  V30 3080 C 299.407 3.56225 -2.58442 0
M  V30 3081 H 296.526 0.501374 -0.540179 0
M  V30 3082 H 299.168 0.7015 -1.76576 0
M  V30 3083 H 297.318 3.12162 -2.31274 0
M  V30 3084 H 298.99 1.50423 -4.36086 0
M  V30 3085 H 297.233 1.34876 -4.12299 0
M  V30 3086 H 297.904 2.87185 -4.71411 0
M  V30 3087 H 300.38 3.07939 -2.79844 0
M  V30 3088 H 299.256 4.34756 -3.3508 0
M  V30 3089 H 299.517 4.10949 -1.63013 0
M  V30 3090 N 298.576 1.31904 0.862503 0
M  V30 3091 C 299.823 1.22017 1.61611 0
M  V30 3092 C 300.151 -0.21991 1.93253 0
M  V30 3093 O 299.406 -1.17076 1.56817 0
M  V30 3094 C 299.705 2.01713 2.95037 0
M  V30 3095 C 299.371 3.51145 2.82857 0
M  V30 3096 C 298.033 3.91889 2.79243 0
M  V30 3097 C 300.385 4.46204 2.69353 0
M  V30 3098 C 297.713 5.25947 2.59993 0
M  V30 3099 C 300.065 5.80397 2.5164 0
M  V30 3100 C 298.729 6.20352 2.46413 0
M  V30 3101 H 297.999 0.44649 0.591378 0
M  V30 3102 H 300.646 1.63248 1.00111 0
M  V30 3103 H 298.951 1.53185 3.60613 0
M  V30 3104 H 300.648 1.91437 3.52353 0
M  V30 3105 H 297.238 3.1878 2.86491 0
M  V30 3106 H 301.422 4.15652 2.71196 0
M  V30 3107 H 296.678 5.5597 2.54376 0
M  V30 3108 H 300.852 6.53676 2.40169 0
M  V30 3109 H 298.479 7.24172 2.31256 0
M  V30 3110 N 300.054 -1.07777 1.14986 0
M  V30 3111 C 301.002 -2.16964 0.838406 0
M  V30 3112 C 301.996 -1.68372 -0.186386 0
M  V30 3113 O 303.202 -1.79951 -0.0418465 0
M  V30 3114 H 299.577 -0.708006 0.253439 0
M  V30 3115 H 301.548 -2.40454 1.76704 0
M  V30 3116 C 300.297 -3.4604 0.339335 0
M  V30 3117 H 299.62 -3.83813 1.11927 0
M  V30 3118 H 301.06 -4.23698 0.160021 0
M  V30 3119 C 299.519 -3.23569 -0.938325 0
M  V30 3120 O 300.049 -3.47752 -2.01077 0
M  V30 3121 N 298.255 -2.77079 -0.876117 0
M  V30 3122 H 297.802 -2.576 -0.00322037 0
M  V30 3123 H 297.76 -2.62422 -1.73153 0
M  V30 3124 N 301.532 -0.945985 -1.26051 0
M  V30 3125 C 302.76 -0.613025 -1.9761 0
M  V30 3126 C 303.175 0.813035 -1.70397 0
M  V30 3127 O 302.532 1.54274 -0.974979 0
M  V30 3128 C 302.583 -0.85159 -3.51326 0
M  V30 3129 O 302.304 -2.22157 -3.77595 0
M  V30 3130 C 303.805 -0.529831 -4.40122 0
M  V30 3131 H 301.025 -0.230593 -0.630133 0
M  V30 3132 H 303.569 -1.268 -1.60443 0
M  V30 3133 H 301.724 -0.243151 -3.86636 0
M  V30 3134 H 302.138 -2.2852 -4.721 0
M  V30 3135 H 303.612 -0.747348 -5.46917 0
M  V30 3136 H 304.089 0.535341 -4.35925 0
M  V30 3137 H 304.695 -1.11721 -4.10364 0
M  V30 3138 N 303.011 1.40521 -0.713556 0
M  V30 3139 C 304.26 2.00155 -0.249192 0
M  V30 3140 C 304.573 1.57224 1.16362 0
M  V30 3141 O 305.779 2.09542 1.72639 0
M  V30 3142 C 304.235 3.5773 -0.3946 0
M  V30 3143 C 303.843 4.09635 -1.81392 0
M  V30 3144 C 305.587 4.24499 0.00907364 0
M  V30 3145 C 303.494 5.59707 -1.91003 0
M  V30 3146 H 302.424 0.74868 -0.0894114 0
M  V30 3147 H 305.075 1.60784 -0.884352 0
M  V30 3148 H 303.457 3.94792 0.30911 0
M  V30 3149 H 304.631 3.83955 -2.54785 0
M  V30 3150 H 302.946 3.55456 -2.16888 0
M  V30 3151 H 305.543 5.34683 -0.0420404 0
M  V30 3152 H 305.886 4.02824 1.05065 0
M  V30 3153 H 306.419 3.92536 -0.645007 0
M  V30 3154 H 303.158 5.86234 -2.93275 0
M  V30 3155 H 302.678 5.87258 -1.22019 0
M  V30 3156 H 304.357 6.24776 -1.6812 0
M  V30 3157 N 304.489 0.459591 1.5075 0
M  V30 3158 C 305.717 -0.0973749 2.06671 0
M  V30 3159 C 306.132 -1.34524 1.32472 0
M  V30 3160 O 305.489 -1.7827 0.390634 0
M  V30 3161 C 305.54 -0.39714 3.59312 0
M  V30 3162 O 305.261 0.801214 4.30711 0
M  V30 3163 C 306.762 -1.00234 4.31819 0
M  V30 3164 H 303.982 0.00195854 0.670997 0
M  V30 3165 H 306.526 0.645072 1.94059 0
M  V30 3166 H 304.681 -1.08951 3.71764 0
M  V30 3167 H 305.095 0.538857 5.21725 0
M  V30 3168 H 306.569 -1.16193 5.39632 0
M  V30 3169 H 307.046 -1.98939 3.91561 0
M  V30 3170 H 307.652 -0.348699 4.23868 0
M  V30 3171 N 305.967 -1.56429 0.191757 0
M  V30 3172 C 307.215 -1.97095 -0.447006 0
M  V30 3173 C 307.536 -1.07967 -1.62383 0
M  V30 3174 O 306.806 -0.150248 -1.95323 0
M  V30 3175 H 305.386 -0.727832 -0.168135 0
M  V30 3176 H 308.048 -1.92911 0.27771 0
M  V30 3177 H 307.144 -3.01848 -0.793371 0
M  V30 3178 N 307.445 0.0818655 -1.57387 0
M  V30 3179 C 308.861 0.436412 -1.53517 0
M  V30 3180 C 309.061 1.79758 -0.910459 0
M  V30 3181 O 308.117 2.47324 -0.508636 0
M  V30 3182 C 309.43 0.386734 -2.98203 0
M  V30 3183 C 310.978 0.467644 -3.09487 0
M  V30 3184 C 311.453 0.447978 -4.55804 0
M  V30 3185 N 312.944 0.508348 -4.60402 0
M  V30 3186 C 313.679 0.515184 -5.71081 0
M  V30 3187 N 313.175 0.477435 -6.91153 0
M  V30 3188 N 314.968 0.560988 -5.59294 0
M  V30 3189 H 307.119 -0.809546 -1.96367 0
M  V30 3190 H 309.382 -0.302733 -0.898363 0
M  V30 3191 H 309.088 -0.546539 -3.47427 0
M  V30 3192 H 308.962 1.20075 -3.57578 0
M  V30 3193 H 311.349 1.39134 -2.60242 0
M  V30 3194 H 311.43 -0.374753 -2.5304 0
M  V30 3195 H 311.074 -0.471826 -5.05704 0
M  V30 3196 H 311.004 1.30777 -5.10103 0
M  V30 3197 H 313.495 0.54218 -3.7399 0
M  V30 3198 H 313.808 0.486299 -7.71268 0
M  V30 3199 H 312.153 0.444278 -6.93579 0
M  V30 3200 H 315.344 0.5881 -4.64391 0
M  V30 3201 H 315.517 0.562846 -6.45551 0
M  V30 3202 N 308.923 1.53595 0.353017 0
M  V30 3203 C 310.171 1.70049 1.09215 0
M  V30 3204 C 310.492 0.461406 1.89463 0
M  V30 3205 O 309.762 -0.524633 1.88744 0
M  V30 3206 H 308.342 0.626912 0.40619 0
M  V30 3207 H 311.004 1.90822 0.396585 0
M  V30 3208 H 310.1 2.56718 1.77488 0
M  V30 3209 N 310.401 -0.613514 1.45168 0
M  V30 3210 C 311.626 -1.40437 1.52618 0
M  V30 3211 C 312.051 -1.87438 0.157707 0
M  V30 3212 O 311.409 -1.59791 -0.856537 0
M  V30 3213 C 311.457 -2.58894 2.51011 0
M  V30 3214 O 310.561 -3.59326 2.02382 0
M  V30 3215 H 309.902 -0.419506 0.514695 0
M  V30 3216 H 312.432 -0.747215 1.90467 0
M  V30 3217 H 312.442 -3.06214 2.69624 0
M  V30 3218 H 311.117 -2.24032 3.50403 0
M  V30 3219 H 309.694 -3.18695 1.93618 0
M  V30 3220 N 311.879 -1.3236 -0.855495 0
M  V30 3221 C 312.789 -1.23221 -1.99634 0
M  V30 3222 C 313.805 -0.145983 -1.73387 0
M  V30 3223 O 314.981 -0.366502 -1.98037 0
M  V30 3224 C 312.046 -0.954782 -3.33294 0
M  V30 3225 C 311.107 -2.12937 -3.72769 0
M  V30 3226 C 310.34 -1.86508 -5.00051 0
M  V30 3227 O 310.563 -0.807231 -5.64659 0
M  V30 3228 O 309.497 -2.72591 -5.36636 0
M  V30 3229 H 313.323 -2.19126 -2.1028 0
M  V30 3230 H 310.908 -1.12241 -0.986018 0
M  V30 3231 H 312.79 -0.816519 -4.13414 0
M  V30 3232 H 311.465 -0.0258854 -3.2369 0
M  V30 3233 H 310.372 -2.3231 -2.93228 0
M  V30 3234 H 311.705 -3.04102 -3.87018 0
M  V30 3235 N 313.357 1.07166 -1.15556 0
M  V30 3236 C 314.606 1.79181 -0.926132 0
M  V30 3237 C 314.919 1.87768 0.547967 0
M  V30 3238 O 316.125 2.56323 0.895036 0
M  V30 3239 C 314.581 3.22 -1.60761 0
M  V30 3240 C 314.189 3.21607 -3.11886 0
M  V30 3241 C 315.933 3.9861 -1.4598 0
M  V30 3242 C 313.84 4.59092 -3.72812 0
M  V30 3243 H 312.77 0.67154 -0.342856 0
M  V30 3244 H 315.421 1.2027 -1.3859 0
M  V30 3245 H 313.803 3.81115 -1.07553 0
M  V30 3246 H 314.977 2.72127 -3.71865 0
M  V30 3247 H 313.292 2.58495 -3.2645 0
M  V30 3248 H 315.889 5.00225 -1.88888 0
M  V30 3249 H 316.232 4.143 -0.407541 0
M  V30 3250 H 316.765 3.45996 -1.96295 0
M  V30 3251 H 313.504 4.48606 -4.77946 0
M  V30 3252 H 313.024 5.08803 -3.17616 0
M  V30 3253 H 314.703 5.28059 -3.73848 0
M  V30 3254 N 314.835 0.952656 1.25548 0
M  V30 3255 C 316.083 0.605176 1.92826 0
M  V30 3256 C 316.404 -0.860261 1.74999 0
M  V30 3257 O 315.674 -1.6125 1.11244 0
M  V30 3258 H 314.254 0.220832 0.713612 0
M  V30 3259 H 316.916 1.21047 1.52754 0
M  V30 3260 H 316.012 0.832798 3.00784 0
M  V30 3261 N 316.313 -1.40141 0.720998 0
M  V30 3262 C 317.59 -1.94677 0.189757 0
M  V30 3263 C 317.97 -1.65879 -1.30566 0
M  V30 3264 O 317.318 -0.979391 -2.06447 0
M  V30 3265 C 317.528 -3.45279 0.508304 0
M  V30 3266 C 318.876 -4.22209 0.449934 0
M  V30 3267 O 319.9 -3.53413 0.444677 0
M  V30 3268 O 318.759 -5.44788 0.432189 0
M  V30 3269 H 315.853 -0.826459 0.0299026 0
M  V30 3270 H 318.399 -1.49719 0.7989 0
M  V30 3271 H 317.171 -3.59619 1.54239 0
M  V30 3272 H 316.794 -3.97386 -0.130525 0
M  V30 3273 N 317.792 -0.46758 -1.50504 0
M  V30 3274 C 319.022 0.086288 -2.0642 0
M  V30 3275 C 319.43 1.34369 -1.33197 0
M  V30 3276 O 318.773 1.79431 -0.393747 0
M  V30 3277 C 318.835 0.443846 -3.5675 0
M  V30 3278 C 318.499 -0.711035 -4.51435 0
M  V30 3279 C 319.496 -1.59205 -4.94924 0
M  V30 3280 C 317.181 -0.900363 -4.94165 0
M  V30 3281 C 319.175 -2.64683 -5.79846 0
M  V30 3282 C 316.862 -1.95837 -5.7887 0
M  V30 3283 C 317.86 -2.82997 -6.21612 0
M  V30 3284 O 317.548 -3.86977 -7.0463 0
M  V30 3285 H 317.28 -0.00217814 -0.675996 0
M  V30 3286 H 319.834 -0.654346 -1.94698 0
M  V30 3287 H 318.064 1.23762 -3.6636 0
M  V30 3288 H 319.753 0.932386 -3.95046 0
M  V30 3289 H 320.519 -1.45745 -4.62583 0
M  V30 3290 H 316.398 -0.231427 -4.60419 0
M  V30 3291 H 319.942 -3.32745 -6.13128 0
M  V30 3292 H 315.839 -2.09305 -6.10624 0
M  V30 3293 H 316.607 -3.83923 -7.22873 0
M  V30 3294 N 319.27 1.56325 -0.20005 0
M  V30 3295 C 320.519 1.96895 0.437652 0
M  V30 3296 C 320.832 1.08999 1.62415 0
M  V30 3297 O 322.038 1.39372 2.32997 0
M  V30 3298 C 320.494 3.50198 0.830025 0
M  V30 3299 C 320.102 4.46765 -0.332461 0
M  V30 3300 C 321.846 3.99526 1.43453 0
M  V30 3301 C 319.753 5.91344 0.0811468 0
M  V30 3302 H 318.683 0.735209 0.167282 0
M  V30 3303 H 321.334 1.81148 -0.292853 0
M  V30 3304 H 319.716 3.61467 1.61734 0
M  V30 3305 H 320.89 4.47231 -1.11 0
M  V30 3306 H 319.205 4.07657 -0.848789 0
M  V30 3307 H 321.802 5.05025 1.75652 0
M  V30 3308 H 322.145 3.44122 2.34277 0
M  V30 3309 H 322.678 3.91393 0.71109 0
M  V30 3310 H 319.417 6.50685 -0.793033 0
M  V30 3311 H 318.937 5.94121 0.823445 0
M  V30 3312 H 320.616 6.44945 0.515252 0
M  V30 3313 N 320.748 -0.0735177 1.57428 0
M  V30 3314 C 321.994 -0.774145 1.87443 0
M  V30 3315 C 322.327 -1.77311 0.792103 0
M  V30 3316 O 321.602 -1.93492 -0.197793 0
M  V30 3317 C 321.885 -1.48367 3.28115 0
M  V30 3318 C 321.738 -0.501227 4.46999 0
M  V30 3319 C 323.057 -2.429 3.66998 0
M  V30 3320 H 320.176 -0.279971 0.681752 0
M  V30 3321 H 322.818 -0.0373616 1.89963 0
M  V30 3322 H 320.968 -2.11171 3.26097 0
M  V30 3323 H 322.64 0.121468 4.6114 0
M  V30 3324 H 320.883 0.183593 4.33411 0
M  V30 3325 H 321.554 -1.03526 5.42205 0
M  V30 3326 H 324.03 -1.90175 3.70098 0
M  V30 3327 H 322.906 -2.89549 4.66318 0
M  V30 3328 H 323.167 -3.27628 2.96837 0
M  V30 3329 N 322.226 -1.5378 -0.344866 0
M  V30 3330 C 323.136 -1.84667 -1.4469 0
M  V30 3331 C 324.152 -0.736704 -1.57635 0
M  V30 3332 O 325.328 -1.02888 -1.73136 0
M  V30 3333 C 322.393 -2.04869 -2.79696 0
M  V30 3334 C 321.454 -3.28731 -2.76106 0
M  V30 3335 C 320.687 -3.4796 -4.04673 0
M  V30 3336 O 320.91 -2.71052 -5.01883 0
M  V30 3337 O 319.844 -4.41383 -4.09224 0
M  V30 3338 H 323.67 -2.78334 -1.21506 0
M  V30 3339 H 321.255 -1.39418 -0.536921 0
M  V30 3340 H 323.137 -2.19609 -3.59652 0
M  V30 3341 H 321.812 -1.14391 -3.02814 0
M  V30 3342 H 320.719 -3.19396 -1.94774 0
M  V30 3343 H 322.052 -4.19198 -2.57941 0
M  V30 3344 N 323.704 0.605807 -1.45491 0
M  V30 3345 C 324.654 1.71074 -1.50724 0
M  V30 3346 C 325.638 1.5658 -0.37033 0
M  V30 3347 O 326.83 1.65887 -0.617299 0
M  V30 3348 C 323.959 3.0983 -1.47852 0
M  V30 3349 C 323.045 3.29704 -2.66751 0
M  V30 3350 N 323.436 3.19831 -3.91844 0
M  V30 3351 C 321.734 3.60579 -2.62486 0
M  V30 3352 C 322.435 3.41083 -4.71208 0
M  V30 3353 N 321.411 3.65157 -4.02693 0
M  V30 3354 H 325.213 1.61937 -2.45263 0
M  V30 3355 H 322.727 0.80912 -1.40808 0
M  V30 3356 H 324.724 3.89101 -1.49686 0
M  V30 3357 H 323.384 3.20115 -0.543714 0
M  V30 3358 H 324.395 2.98194 -4.23439 0
M  V30 3359 H 321.072 3.7769 -1.77922 0
M  V30 3360 H 322.462 3.38828 -5.80211 0
M  V30 3361 N 325.182 1.32811 0.848464 0
M  V30 3362 C 326.114 1.18095 1.96433 0
M  V30 3363 C 327.127 0.114354 1.62398 0
M  V30 3364 O 328.316 0.363892 1.74751 0
M  V30 3365 C 325.416 0.786798 3.2964 0
M  V30 3366 C 324.589 1.943 3.91875 0
M  V30 3367 C 323.648 1.53138 5.03423 0
M  V30 3368 O 322.674 2.24432 5.23086 0
M  V30 3369 N 323.876 0.430915 5.78898 0
M  V30 3370 H 326.641 2.14218 2.09597 0
M  V30 3371 H 324.202 1.2543 1.02367 0
M  V30 3372 H 326.194 0.493715 4.01677 0
M  V30 3373 H 324.764 -0.0834541 3.12489 0
M  V30 3374 H 323.984 2.40224 3.12547 0
M  V30 3375 H 325.272 2.71689 4.30189 0
M  V30 3376 H 324.67 -0.162333 5.65467 0
M  V30 3377 H 323.227 0.197466 6.51501 0
M  V30 3378 N 326.66 -1.06551 1.16123 0
M  V30 3379 C 327.623 -2.12132 0.867906 0
M  V30 3380 C 328.623 -1.60224 -0.135944 0
M  V30 3381 O 329.813 -1.73943 0.0946422 0
M  V30 3382 C 326.945 -3.396 0.297419 0
M  V30 3383 H 328.138 -2.39586 1.80385 0
M  V30 3384 H 325.691 -1.22574 0.969812 0
M  V30 3385 H 326.426 -3.17794 -0.64633 0
M  V30 3386 H 326.211 -3.78581 1.02073 0
M  V30 3387 H 327.701 -4.17455 0.110052 0
M  V30 3388 N 328.138 -0.959301 -1.25041 0
M  V30 3389 C 329.384 -0.617525 -1.9317 0
M  V30 3390 C 329.717 0.843981 -1.74902 0
M  V30 3391 O 328.992 1.60615 -1.09696 0
M  V30 3392 C 329.275 -0.982736 -3.46431 0
M  V30 3393 C 329.128 -2.50032 -3.73904 0
M  V30 3394 C 330.447 -0.511176 -4.37121 0
M  V30 3395 H 327.566 -0.22582 -0.701552 0
M  V30 3396 H 330.208 -1.19679 -1.4757 0
M  V30 3397 H 328.358 -0.489806 -3.854 0
M  V30 3398 H 330.03 -3.06737 -3.44544 0
M  V30 3399 H 328.273 -2.93598 -3.19348 0
M  V30 3400 H 328.944 -2.70635 -4.81103 0
M  V30 3401 H 331.42 -0.934075 -4.0548 0
M  V30 3402 H 330.296 -0.795361 -5.43107 0
M  V30 3403 H 330.557 0.588834 -4.38161 0
M  V30 3404 N 329.616 1.39756 -0.72842 0
M  V30 3405 C 330.564 2.32485 -0.0731849 0
M  V30 3406 C 331.558 1.52717 0.733063 0
M  V30 3407 O 332.764 1.68428 0.634988 0
M  V30 3408 H 329.139 0.751984 -0.00486469 0
M  V30 3409 H 331.11 2.85382 -0.871761 0
M  V30 3410 C 329.859 3.37773 0.824908 0
M  V30 3411 H 329.182 3.99227 0.213915 0
M  V30 3412 H 330.622 4.05121 1.25111 0
M  V30 3413 C 329.081 2.74287 1.95622 0
M  V30 3414 O 329.611 2.61618 3.04826 0
M  V30 3415 N 327.817 2.32475 1.74367 0
M  V30 3416 H 327.364 2.4298 0.855494 0
M  V30 3417 H 327.322 1.90337 2.50238 0
M  V30 3418 N 331.094 0.475555 1.50254 0
M  V30 3419 C 332.341 -0.0778919 2.0235 0
M  V30 3420 C 332.669 -1.39319 1.35722 0
M  V30 3421 O 331.924 -1.89888 0.473395 0
M  V30 3422 C 332.223 -0.305114 3.56095 0
M  V30 3423 C 331.889 0.92903 4.41225 0
M  V30 3424 C 330.551 1.26739 4.6421 0
M  V30 3425 C 332.903 1.75054 4.90923 0
M  V30 3426 C 330.231 2.42724 5.34137 0
M  V30 3427 C 332.583 2.9017 5.62125 0
M  V30 3428 C 331.247 3.24416 5.83362 0
M  V30 3429 H 330.517 -0.0285027 0.740452 0
M  V30 3430 H 333.164 0.630543 1.80821 0
M  V30 3431 H 331.469 -1.09584 3.76163 0
M  V30 3432 H 333.166 -0.747377 3.93974 0
M  V30 3433 H 329.756 0.655428 4.23559 0
M  V30 3434 H 333.94 1.50231 4.73016 0
M  V30 3435 H 329.196 2.69525 5.48786 0
M  V30 3436 H 333.37 3.54169 5.99614 0
M  V30 3437 H 330.997 4.14396 6.37323 0
M  V30 3438 N 332.573 -1.56217 0.208337 0
M  V30 3439 C 333.822 -1.97124 -0.427204 0
M  V30 3440 C 334.135 -1.09859 -1.61835 0
M  V30 3441 O 335.341 -1.40606 -2.32255 0
M  V30 3442 C 333.797 -3.50633 -0.811442 0
M  V30 3443 C 333.405 -4.46582 0.35615 0
M  V30 3444 C 335.149 -4.00282 -1.41332 0
M  V30 3445 C 333.056 -5.91379 -0.0497852 0
M  V30 3446 H 331.986 -0.736086 -0.163381 0
M  V30 3447 H 334.637 -1.8099 0.302456 0
M  V30 3448 H 333.019 -3.62319 -1.59815 0
M  V30 3449 H 334.193 -4.46636 1.1337 0
M  V30 3450 H 332.508 -4.07202 0.870396 0
M  V30 3451 H 335.105 -5.0595 -1.72972 0
M  V30 3452 H 335.448 -3.45359 -2.32449 0
M  V30 3453 H 335.981 -3.91764 -0.690323 0
M  V30 3454 H 332.72 -6.50255 0.827529 0
M  V30 3455 H 332.24 -5.94549 -0.791926 0
M  V30 3456 H 333.919 -6.45209 -0.481042 0
M  V30 3457 N 334.051 0.0651679 -1.57465 0
M  V30 3458 C 334.999 1.09542 -2.05191 0
M  V30 3459 C 335.993 1.39675 -0.958509 0
M  V30 3460 O 337.199 1.39003 -1.14359 0
M  V30 3461 H 333.574 0.370623 -0.654326 0
M  V30 3462 H 335.545 0.666802 -2.90854 0
M  V30 3463 C 334.294 2.39881 -2.51699 0
M  V30 3464 H 333.617 2.17547 -3.3543 0
M  V30 3465 H 335.057 3.104 -2.88839 0
M  V30 3466 C 333.516 3.0631 -1.40271 0
M  V30 3467 O 334.046 3.94664 -0.748523 0
M  V30 3468 N 332.252 2.67041 -1.14618 0
M  V30 3469 H 331.799 1.95281 -1.67997 0
M  V30 3470 H 331.757 3.1181 -0.402688 0
M  V30 3471 N 335.529 1.53961 0.336706 0
M  V30 3472 C 336.776 1.71536 1.07618 0
M  V30 3473 C 337.104 0.482125 1.8843 0
M  V30 3474 O 336.359 -0.536142 1.88213 0
M  V30 3475 C 336.658 2.93493 2.03953 0
M  V30 3476 C 336.324 4.28811 1.39399 0
M  V30 3477 C 334.986 4.65602 1.21523 0
M  V30 3478 C 337.338 5.12844 0.929541 0
M  V30 3479 C 334.666 5.84037 0.558312 0
M  V30 3480 C 337.018 6.31951 0.286505 0
M  V30 3481 C 335.682 6.67432 0.0954869 0
M  V30 3482 H 334.952 0.627696 0.393801 0
M  V30 3483 H 337.599 1.88186 0.354715 0
M  V30 3484 H 335.904 2.71475 2.82504 0
M  V30 3485 H 337.601 3.04285 2.61174 0
M  V30 3486 H 334.191 3.99858 1.54311 0
M  V30 3487 H 338.375 4.84947 1.05548 0
M  V30 3488 H 333.631 6.10097 0.398995 0
M  V30 3489 H 337.805 6.96352 -0.0814376 0
M  V30 3490 H 335.432 7.59063 -0.415579 0
M  V30 3491 N 337.007 -0.598083 1.45811 0
M  V30 3492 C 338.235 -1.38322 1.53866 0
M  V30 3493 C 338.65 -1.87992 0.174479 0
M  V30 3494 O 338.007 -1.62756 -0.825627 0
M  V30 3495 C 338.058 -2.58125 2.53089 0
M  V30 3496 O 337.779 -2.10516 3.84206 0
M  V30 3497 C 339.28 -3.50869 2.70935 0
M  V30 3498 H 336.5 -0.423093 0.520801 0
M  V30 3499 H 339.044 -0.728527 1.91083 0
M  V30 3500 H 337.199 -3.19615 2.18917 0
M  V30 3501 H 337.613 -2.88425 4.38077 0
M  V30 3502 H 339.087 -4.31451 3.44317 0
M  V30 3503 H 339.564 -4.01822 1.77301 0
M  V30 3504 H 340.17 -2.95225 3.06141 0
M  V30 3505 N 338.485 -1.33259 -0.841409 0
M  V30 3506 C 339.733 -1.24326 -1.59334 0
M  V30 3507 C 340.054 0.191564 -1.94057 0
M  V30 3508 O 339.324 1.11967 -1.60749 0
M  V30 3509 H 337.904 -0.457174 -0.590763 0
M  V30 3510 H 340.566 -1.66947 -1.00571 0
M  V30 3511 H 339.662 -1.8352 -2.52442 0
M  V30 3512 N 339.963 1.05934 -1.16686 0
M  V30 3513 C 341.188 1.83029 -0.975455 0
M  V30 3514 C 341.613 1.82096 0.471452 0
M  V30 3515 O 340.971 1.22443 1.33706 0
M  V30 3516 C 341.019 3.27372 -1.51195 0
M  V30 3517 O 340.123 4.06054 -0.720701 0
M  V30 3518 H 339.464 0.566194 -0.346872 0
M  V30 3519 H 341.994 1.33541 -1.55009 0
M  V30 3520 H 342.004 3.78186 -1.53099 0
M  V30 3521 H 340.679 3.27366 -2.56523 0
M  V30 3522 H 339.256 3.64812 -0.772458 0
M  V30 3523 N 341.441 0.965919 1.2453 0
M  V30 3524 C 342.669 0.644385 1.96609 0
M  V30 3525 C 343.084 -0.785823 1.71669 0
M  V30 3526 O 342.441 -1.52703 0.999399 0
M  V30 3527 C 342.492 0.907375 3.49927 0
M  V30 3528 O 342.213 2.28136 3.74013 0
M  V30 3529 C 343.714 0.599784 4.39224 0
M  V30 3530 H 340.934 0.240588 0.626385 0
M  V30 3531 H 343.478 1.29337 1.58405 0
M  V30 3532 H 341.633 0.304631 3.862 0
M  V30 3533 H 342.047 2.36002 4.68405 0
M  V30 3534 H 343.521 0.834263 5.45659 0
M  V30 3535 H 343.998 -0.465921 4.36722 0
M  V30 3536 H 344.604 1.18235 4.08535 0
M  V30 3537 N 342.919 -1.39368 0.735821 0
M  V30 3538 C 344.167 -2.00101 0.283562 0
M  V30 3539 C 344.488 -1.5868 -1.13338 0
M  V30 3540 O 343.758 -0.835423 -1.77193 0
M  V30 3541 H 342.338 -0.740024 0.101851 0
M  V30 3542 H 345 -1.70404 0.945962 0
M  V30 3543 H 344.096 -3.10323 0.332604 0
M  V30 3544 N 344.397 -0.483516 -1.5 0
M  V30 3545 C 345.646 0.0689102 -2.01582 0
M  V30 3546 C 345.959 1.39655 -1.36952 0
M  V30 3547 O 347.165 2.03465 -1.79762 0
M  V30 3548 C 345.621 0.173302 -3.59483 0
M  V30 3549 C 345.229 -1.14665 -4.33077 0
M  V30 3550 C 346.973 0.677024 -4.19066 0
M  V30 3551 C 344.88 -1.00537 -5.82792 0
M  V30 3552 H 343.81 0.0295277 -0.753422 0
M  V30 3553 H 346.461 -0.620295 -1.72698 0
M  V30 3554 H 344.843 0.926569 -3.85007 0
M  V30 3555 H 346.017 -1.91184 -4.19268 0
M  V30 3556 H 344.332 -1.58244 -3.85159 0
M  V30 3557 H 346.929 0.799952 -5.28682 0
M  V30 3558 H 347.272 1.67151 -3.81269 0
M  V30 3559 H 347.805 -0.0192083 -3.97795 0
M  V30 3560 H 344.544 -1.9736 -6.25083 0
M  V30 3561 H 344.064 -0.280776 -5.99142 0
M  V30 3562 H 345.743 -0.677 -6.43448 0
M  V30 3563 N 345.875 1.56104 -0.216619 0
M  V30 3564 C 347.123 1.97781 0.415593 0
M  V30 3565 C 347.444 1.10536 1.60645 0
M  V30 3566 O 346.714 0.181303 1.95059 0
M  V30 3567 H 345.294 0.730415 0.156534 0
M  V30 3568 H 347.956 1.92445 -0.308366 0
M  V30 3569 H 347.052 3.03072 0.74525 0
M  V30 3570 N 347.353 -0.0568162 1.57498 0
M  V30 3571 C 348.263 -1.08346 2.08083 0
M  V30 3572 C 349.279 -1.41439 1.01346 0
M  V30 3573 O 350.455 -1.51316 1.32912 0
M  V30 3574 C 347.52 -2.37352 2.52715 0
M  V30 3575 C 346.581 -2.11093 3.73816 0
M  V30 3576 C 345.814 -3.33949 4.1631 0
M  V30 3577 O 346.037 -4.43622 3.58547 0
M  V30 3578 O 344.971 -3.21279 5.08983 0
M  V30 3579 H 348.797 -0.683667 2.95905 0
M  V30 3580 H 346.382 -0.271965 1.46904 0
M  V30 3581 H 348.264 -3.13246 2.81877 0
M  V30 3582 H 346.939 -2.76681 1.68016 0
M  V30 3583 H 345.846 -1.32856 3.49714 0
M  V30 3584 H 347.179 -1.76637 4.59413 0
M  V30 3585 N 348.832 -1.54138 -0.328536 0
M  V30 3586 C 350.248 -1.44736 -0.672574 0
M  V30 3587 C 350.448 -0.616217 -1.91846 0
M  V30 3588 O 349.504 -0.113067 -2.52247 0
M  V30 3589 C 350.817 -2.884 -0.851217 0
M  V30 3590 C 352.365 -2.98271 -0.948877 0
M  V30 3591 C 352.84 -4.43074 -1.15973 0
M  V30 3592 N 354.331 -4.46665 -1.22658 0
M  V30 3593 C 355.066 -5.55857 -1.40751 0
M  V30 3594 N 354.562 -6.75026 -1.5592 0
M  V30 3595 N 356.355 -5.43495 -1.4342 0
M  V30 3596 H 348.506 -2.06661 0.490421 0
M  V30 3597 H 350.769 -0.934812 0.157579 0
M  V30 3598 H 350.475 -3.51699 -0.00704236 0
M  V30 3599 H 350.349 -3.34225 -1.74853 0
M  V30 3600 H 352.736 -2.35102 -1.78356 0
M  V30 3601 H 352.817 -2.55785 -0.0281435 0
M  V30 3602 H 352.461 -5.06827 -0.329915 0
M  V30 3603 H 352.391 -4.83165 -2.09426 0
M  V30 3604 H 354.882 -3.60797 -1.124 0
M  V30 3605 H 355.195 -7.54004 -1.69404 0
M  V30 3606 H 353.54 -6.77944 -1.53027 0
M  V30 3607 H 356.731 -4.49349 -1.31162 0
M  V30 3608 H 356.904 -6.28649 -1.57178 0
M  V30 3609 N 350.31 0.590341 -1.46126 0
M  V30 3610 C 351.559 1.34499 -1.50309 0
M  V30 3611 C 351.872 1.94977 -0.156021 0
M  V30 3612 O 353.078 2.71395 -0.0756037 0
M  V30 3613 C 351.534 2.43723 -2.64815 0
M  V30 3614 C 351.142 1.89582 -4.0591 0
M  V30 3615 C 352.886 3.20579 -2.78262 0
M  V30 3616 C 350.793 2.9639 -5.11769 0
M  V30 3617 H 349.723 0.505593 -0.559368 0
M  V30 3618 H 352.374 0.630848 -1.72315 0
M  V30 3619 H 350.756 3.17902 -2.36124 0
M  V30 3620 H 351.93 1.21997 -4.44357 0
M  V30 3621 H 350.245 1.25418 -3.97063 0
M  V30 3622 H 352.842 4.00276 -3.54519 0
M  V30 3623 H 353.185 3.72684 -1.85505 0
M  V30 3624 H 353.718 2.53505 -3.06562 0
M  V30 3625 H 350.457 2.49181 -6.06291 0
M  V30 3626 H 349.977 3.62487 -4.77873 0
M  V30 3627 H 351.656 3.60474 -5.37278 0
M  V30 3628 N 351.788 1.33704 0.83433 0
M  V30 3629 C 353.036 1.25169 1.58673 0
M  V30 3630 C 353.357 -0.18127 1.94156 0
M  V30 3631 O 352.627 -1.11113 1.6134 0
M  V30 3632 H 351.207 0.4603 0.58833 0
M  V30 3633 H 353.869 1.67478 0.996847 0
M  V30 3634 H 352.965 1.84856 2.51465 0
M  V30 3635 N 353.266 -1.05314 1.17247 0
M  V30 3636 C 354.213 -2.13031 0.888058 0
M  V30 3637 C 355.183 -1.65253 -0.167537 0
M  V30 3638 O 356.368 -1.90775 -0.0305974 0
M  V30 3639 C 353.508 -3.42702 0.406147 0
M  V30 3640 C 352.621 -4.04161 1.52572 0
M  V30 3641 C 351.756 -5.21744 0.997808 0
M  V30 3642 C 350.795 -5.75207 2.09291 0
M  V30 3643 N 349.932 -6.84094 1.57986 0
M  V30 3644 H 354.772 -2.36698 1.81048 0
M  V30 3645 H 352.309 -1.16121 0.903013 0
M  V30 3646 H 354.267 -4.17059 0.108305 0
M  V30 3647 H 352.897 -3.19222 -0.479313 0
M  V30 3648 H 351.949 -3.27253 1.93931 0
M  V30 3649 H 353.261 -4.39881 2.35172 0
M  V30 3650 H 352.415 -6.03168 0.653739 0
M  V30 3651 H 351.154 -4.87495 0.141232 0
M  V30 3652 H 350.159 -4.92414 2.44557 0
M  V30 3653 H 351.384 -6.11505 2.95362 0
M  V30 3654 H 349.33 -6.51745 0.74598 0
M  V30 3655 H 349.247 -7.18811 2.34195 0
M  V30 3656 H 350.515 -7.69172 1.26468 0
M  V30 3657 N 354.744 -0.972509 -1.24016 0
M  V30 3658 C 355.677 -0.45117 -2.23696 0
M  V30 3659 C 356.655 0.477378 -1.55434 0
M  V30 3660 O 357.839 0.407647 -1.84039 0
M  V30 3661 C 354.966 0.34818 -3.36906 0
M  V30 3662 C 354.012 -0.523355 -4.23277 0
M  V30 3663 S 354.845 -1.96647 -4.98087 0
M  V30 3664 C 356.001 -1.17604 -6.14752 0
M  V30 3665 H 356.234 -1.29588 -2.67571 0
M  V30 3666 H 353.767 -0.777903 -1.33372 0
M  V30 3667 H 355.725 0.803387 -4.02562 0
M  V30 3668 H 354.386 1.16792 -2.91579 0
M  V30 3669 H 353.579 0.0906181 -5.03919 0
M  V30 3670 H 353.181 -0.914485 -3.62647 0
M  V30 3671 H 355.473 -0.433434 -6.76112 0
M  V30 3672 H 356.416 -1.95701 -6.8052 0
M  V30 3673 H 356.824 -0.698295 -5.60164 0
M  V30 3674 N 356.222 1.38976 -0.743202 0
M  V30 3675 C 357.185 2.28901 -0.117014 0
M  V30 3676 C 358.185 1.46698 0.658503 0
M  V30 3677 O 359.375 1.67274 0.486305 0
M  V30 3678 C 356.507 3.30309 0.84315 0
M  V30 3679 H 357.7 2.8578 -0.909373 0
M  V30 3680 H 355.253 1.47761 -0.509547 0
M  V30 3681 H 355.988 2.785 1.66157 0
M  V30 3682 H 355.773 3.91029 0.289594 0
M  V30 3683 H 357.263 3.97577 1.2776 0
M  V30 3684 N 357.7 0.491464 1.49741 0
M  V30 3685 C 358.948 -0.0563141 2.02022 0
M  V30 3686 C 359.269 -1.38363 1.37407 0
M  V30 3687 O 358.539 -1.88702 0.526166 0
M  V30 3688 H 357.119 -0.0238014 0.746621 0
M  V30 3689 H 359.781 0.646533 1.83864 0
M  V30 3690 H 358.877 -0.192967 3.11503 0
M  V30 3691 N 359.178 -1.55987 0.224894 0
M  V30 3692 C 360.111 -2.16413 -0.723929 0
M  V30 3693 C 361.089 -1.10952 -1.18863 0
M  V30 3694 O 362.273 -1.39225 -1.27077 0
M  V30 3695 C 359.4 -2.74711 -1.98121 0
M  V30 3696 C 358.446 -3.9303 -1.6562 0
M  V30 3697 S 359.279 -5.29817 -0.778058 0
M  V30 3698 C 360.435 -5.91555 -2.04483 0
M  V30 3699 H 360.668 -2.96555 -0.210347 0
M  V30 3700 H 358.201 -1.54397 0.00955457 0
M  V30 3701 H 360.159 -3.08938 -2.70311 0
M  V30 3702 H 358.82 -1.94555 -2.46591 0
M  V30 3703 H 358.013 -4.32334 -2.59043 0
M  V30 3704 H 357.615 -3.59966 -1.01491 0
M  V30 3705 H 359.907 -6.07732 -2.99446 0
M  V30 3706 H 360.85 -6.87498 -1.69563 0
M  V30 3707 H 361.258 -5.20419 -2.18688 0
M  V30 3708 N 360.656 0.0484629 -1.57525 0
M  V30 3709 C 362.072 0.40375 -1.54409 0
M  V30 3710 C 362.272 1.77786 -0.948384 0
M  V30 3711 O 361.328 2.46189 -0.560983 0
M  V30 3712 C 362.641 0.323394 -2.98956 0
M  V30 3713 C 364.189 0.401892 -3.10409 0
M  V30 3714 C 364.664 0.351195 -4.56652 0
M  V30 3715 N 366.155 0.410576 -4.61377 0
M  V30 3716 C 366.89 0.393933 -5.72045 0
M  V30 3717 N 366.386 0.330724 -6.9201 0
M  V30 3718 N 368.179 0.442227 -5.60358 0
M  V30 3719 H 360.33 -0.851016 -1.94606 0
M  V30 3720 H 362.593 -0.321721 -0.89174 0
M  V30 3721 H 362.299 -0.62011 -3.4619 0
M  V30 3722 H 362.173 1.12463 -3.60044 0
M  V30 3723 H 364.56 1.33582 -2.63134 0
M  V30 3724 H 364.641 -0.428342 -2.52188 0
M  V30 3725 H 364.285 -0.578987 -5.04589 0
M  V30 3726 H 364.215 1.19928 -5.12762 0
M  V30 3727 H 366.706 0.462729 -3.75056 0
M  V30 3728 H 367.019 0.322592 -7.72126 0
M  V30 3729 H 365.364 0.29706 -6.94365 0
M  V30 3730 H 368.555 0.489464 -4.65534 0
M  V30 3731 H 368.728 0.425788 -6.466 0
M  V30 3732 N 362.134 1.5431 0.320358 0
M  V30 3733 C 363.545 1.63872 0.894594 0
M  V30 3734 C 363.896 0.534847 1.88769 0
M  V30 3735 O 363.021 -0.331732 2.13842 0
M  V30 3736 C 363.616 2.97049 1.62934 0
M  V30 3737 C 362.175 3.08796 2.15226 0
M  V30 3738 C 361.322 2.59456 0.978671 0
M  V30 3739 H 364.273 1.58398 0.0978544 0
M  V30 3740 H 364.294 2.87388 2.49376 0
M  V30 3741 H 363.806 3.7737 0.906302 0
M  V30 3742 H 361.907 2.33156 2.90636 0
M  V30 3743 H 362.02 4.14649 2.40006 0
M  V30 3744 H 360.384 2.1543 1.35875 0
M  V30 3745 H 361.167 3.42237 0.269895 0
M  V30 3746 N 363.613 -0.582584 1.46437 0
M  V30 3747 C 364.862 -1.337 1.5102 0
M  V30 3748 C 365.175 -1.94891 0.166359 0
M  V30 3749 O 366.381 -2.71351 0.0899954 0
M  V30 3750 C 364.837 -2.42315 2.66104 0
M  V30 3751 C 364.445 -1.87427 4.06909 0
M  V30 3752 C 366.189 -3.19099 2.79958 0
M  V30 3753 C 364.096 -2.93672 5.13333 0
M  V30 3754 H 363.026 -0.502619 0.562041 0
M  V30 3755 H 365.677 -0.621701 1.72647 0
M  V30 3756 H 364.059 -3.16645 2.37807 0
M  V30 3757 H 365.233 -1.19639 4.44998 0
M  V30 3758 H 363.548 -1.2331 3.97723 0
M  V30 3759 H 366.145 -3.9839 3.56636 0
M  V30 3760 H 366.488 -3.71695 1.87479 0
M  V30 3761 H 367.021 -2.51875 3.07902 0
M  V30 3762 H 363.76 -2.45962 6.07604 0
M  V30 3763 H 363.28 -3.59948 4.79789 0
M  V30 3764 H 364.959 -3.5762 5.39182 0
M  V30 3765 N 365.091 -1.34144 -0.827227 0
M  V30 3766 C 366.024 -1.19707 -1.94282 0
M  V30 3767 C 367.002 -0.0897256 -1.62352 0
M  V30 3768 O 368.186 -0.254095 -1.8678 0
M  V30 3769 C 365.313 -0.838646 -3.28153 0
M  V30 3770 C 364.359 -1.95514 -3.79047 0
M  V30 3771 S 365.192 -3.56793 -3.99323 0
M  V30 3772 C 366.348 -3.22983 -5.36127 0
M  V30 3773 H 366.581 -2.1414 -2.06231 0
M  V30 3774 H 364.114 -1.19121 -0.982321 0
M  V30 3775 H 366.072 -0.638637 -4.05502 0
M  V30 3776 H 364.733 0.0872776 -3.13979 0
M  V30 3777 H 363.926 -1.658 -4.75948 0
M  V30 3778 H 363.528 -2.11241 -3.08631 0
M  V30 3779 H 365.82 -2.74531 -6.19386 0
M  V30 3780 H 366.763 -4.19008 -5.70822 0
M  V30 3781 H 367.171 -2.59276 -5.01434 0
M  V30 3782 N 366.569 1.04691 -1.17803 0
M  V30 3783 C 367.499 2.14494 -0.92275 0
M  V30 3784 C 368.48 1.69546 0.137179 0
M  V30 3785 O 369.665 1.94195 -0.0141108 0
M  V30 3786 C 366.795 3.44491 -0.440803 0
M  V30 3787 C 365.749 4.03031 -1.4405 0
M  V30 3788 C 365.075 5.28432 -0.81631 0
M  V30 3789 C 366.375 4.39932 -2.81527 0
M  V30 3790 H 368.069 2.36107 -1.84103 0
M  V30 3791 H 365.615 1.1347 -0.886599 0
M  V30 3792 H 367.568 4.2066 -0.249602 0
M  V30 3793 H 366.292 3.22546 0.513025 0
M  V30 3794 H 364.951 3.28937 -1.61853 0
M  V30 3795 H 364.599 5.02792 0.144511 0
M  V30 3796 H 364.299 5.68559 -1.48371 0
M  V30 3797 H 365.823 6.07284 -0.635496 0
M  V30 3798 H 367.237 5.07113 -2.67412 0
M  V30 3799 H 365.634 4.9109 -3.44892 0
M  V30 3800 H 366.704 3.50045 -3.35554 0
M  V30 3801 N 368.047 0.979072 1.23499 0
M  V30 3802 C 368.957 0.526431 2.28617 0
M  V30 3803 C 369.973 -0.418126 1.68901 0
M  V30 3804 O 371.149 -0.288372 1.99325 0
M  V30 3805 C 368.214 -0.165235 3.46306 0
M  V30 3806 C 367.275 0.82056 4.21385 0
M  V30 3807 C 366.508 0.161807 5.33455 0
M  V30 3808 O 366.731 -1.04742 5.60701 0
M  V30 3809 O 365.665 0.859708 5.95729 0
M  V30 3810 H 369.491 1.4006 2.69475 0
M  V30 3811 H 367.076 0.746643 1.29405 0
M  V30 3812 H 368.958 -0.553287 4.17752 0
M  V30 3813 H 367.633 -1.01419 3.07402 0
M  V30 3814 H 366.54 1.25929 3.52268 0
M  V30 3815 H 367.873 1.63828 4.64135 0
M  V30 3816 N 369.525 -1.3858 0.750561 0
M  V30 3817 C 370.455 -2.33102 0.136237 0
M  V30 3818 C 371.436 -1.54713 -0.706965 0
M  V30 3819 O 372.621 -1.83043 -0.648769 0
M  V30 3820 C 369.751 -3.38882 -0.760017 0
M  V30 3821 C 368.705 -4.27995 -0.0197785 0
M  V30 3822 C 368.031 -5.24605 -1.03408 0
M  V30 3823 C 369.331 -5.09554 1.14684 0
M  V30 3824 H 371.025 -2.84726 0.925822 0
M  V30 3825 H 368.571 -1.36898 0.446654 0
M  V30 3826 H 370.524 -4.0397 -1.19943 0
M  V30 3827 H 369.248 -2.85734 -1.58189 0
M  V30 3828 H 367.907 -3.64409 0.400184 0
M  V30 3829 H 367.555 -4.67746 -1.84994 0
M  V30 3830 H 367.255 -5.85081 -0.543464 0
M  V30 3831 H 368.779 -5.9257 -1.47288 0
M  V30 3832 H 370.193 -5.67899 0.785118 0
M  V30 3833 H 368.59 -5.7925 1.56812 0
M  V30 3834 H 369.66 -4.4347 1.96118 0
M  V30 3835 N 371.003 -0.499398 -1.49478 0
M  V30 3836 C 372.251 0.0455996 -2.02049 0
M  V30 3837 C 372.572 1.37633 -1.38138 0
M  V30 3838 O 371.842 1.8842 -0.536166 0
M  V30 3839 H 370.422 0.0198416 -0.746736 0
M  V30 3840 H 373.084 -0.656274 -1.83519 0
M  V30 3841 H 372.18 0.176445 -3.11601 0
M  V30 3842 N 372.481 1.55866 -0.233164 0
M  V30 3843 C 373.729 1.9821 0.394593 0
M  V30 3844 C 374.05 1.12234 1.59463 0
M  V30 3845 O 373.32 0.201981 1.94856 0
M  V30 3846 H 371.9 0.732034 0.148778 0
M  V30 3847 H 374.562 1.92107 -0.32876 0
M  V30 3848 H 373.658 3.03845 0.713063 0
M  V30 3849 N 373.959 -0.0401083 1.57549 0
M  V30 3850 C 374.906 -1.04413 2.05831 0
M  V30 3851 C 375.876 -1.36585 0.945184 0
M  V30 3852 O 377.061 -1.47112 1.21502 0
M  V30 3853 C 374.201 -2.34336 2.53339 0
M  V30 3854 C 373.314 -2.08419 3.78398 0
M  V30 3855 C 372.449 -3.32133 4.14561 0
M  V30 3856 C 371.488 -3.01721 5.3257 0
M  V30 3857 N 370.625 -4.17855 5.64218 0
M  V30 3858 H 375.465 -0.625442 2.91363 0
M  V30 3859 H 373.002 -0.297218 1.44066 0
M  V30 3860 H 374.96 -3.10234 2.78946 0
M  V30 3861 H 373.59 -2.73948 1.7074 0
M  V30 3862 H 372.642 -1.23069 3.59942 0
M  V30 3863 H 373.954 -1.81978 4.64419 0
M  V30 3864 H 373.108 -4.16406 4.41238 0
M  V30 3865 H 371.847 -3.61678 3.2717 0
M  V30 3866 H 370.852 -2.15849 5.05657 0
M  V30 3867 H 372.077 -2.73466 6.21605 0
M  V30 3868 H 370.023 -4.47372 4.79786 0
M  V30 3869 H 369.94 -3.94798 6.44725 0
M  V30 3870 H 371.208 -5.03033 5.95465 0
M  V30 3871 N 375.437 -1.54477 -0.31217 0
M  V30 3872 C 376.714 -1.63891 -1.06767 0
M  V30 3873 C 377.094 -0.480028 -2.0557 0
M  V30 3874 O 376.442 0.524487 -2.22399 0
M  V30 3875 C 376.652 -3.01402 -1.75948 0
M  V30 3876 C 378 -3.57838 -2.28554 0
M  V30 3877 O 379.024 -3.03782 -1.85998 0
M  V30 3878 O 377.883 -4.52462 -3.06497 0
M  V30 3879 H 374.977 -0.664125 -0.492816 0
M  V30 3880 H 377.523 -1.66823 -0.311149 0
M  V30 3881 H 376.295 -3.77187 -1.04144 0
M  V30 3882 H 375.918 -3.02199 -2.58383 0
M  V30 3883 N 376.915 0.57481 -1.46744 0
M  V30 3884 C 378.14 1.36341 -1.56288 0
M  V30 3885 C 378.565 1.86954 -0.207347 0
M  V30 3886 O 377.923 1.62006 0.813871 0
M  V30 3887 C 377.971 2.52147 -2.57787 0
M  V30 3888 O 377.075 3.53834 -2.11838 0
M  V30 3889 H 376.416 0.405713 -0.525636 0
M  V30 3890 H 378.946 0.696453 -1.92382 0
M  V30 3891 H 378.956 2.98958 -2.77648 0
M  V30 3892 H 377.631 2.14663 -3.5622 0
M  V30 3893 H 376.208 3.1345 -2.01999 0
M  V30 3894 N 378.394 1.34581 0.820102 0
M  V30 3895 C 379.357 1.2628 1.91275 0
M  V30 3896 C 380.357 0.177344 1.59819 0
M  V30 3897 O 381.547 0.430156 1.68806 0
M  V30 3898 C 378.679 0.950327 3.27386 0
M  V30 3899 H 379.872 2.23421 2.00057 0
M  V30 3900 H 377.425 1.1891 1.0144 0
M  V30 3901 H 378.16 -0.0177938 3.24295 0
M  V30 3902 H 377.945 1.73549 3.51601 0
M  V30 3903 H 379.435 0.917492 4.07396 0
M  V30 3904 N 379.872 -1.04064 1.18357 0
M  V30 3905 C 381.121 -1.76662 0.973313 0
M  V30 3906 C 381.434 -1.89154 -0.497991 0
M  V30 3907 O 382.64 -2.58606 -0.826762 0
M  V30 3908 C 381.096 -3.17624 1.69242 0
M  V30 3909 C 380.704 -3.13225 3.20303 0
M  V30 3910 C 382.448 -3.946 1.56497 0
M  V30 3911 C 380.355 -4.49046 3.84853 0
M  V30 3912 H 379.285 -0.662214 0.36054 0
M  V30 3913 H 381.936 -1.16553 1.41731 0
M  V30 3914 H 380.318 -3.78129 1.1762 0
M  V30 3915 H 381.492 -2.62172 3.78949 0
M  V30 3916 H 379.807 -2.49749 3.33189 0
M  V30 3917 H 382.404 -4.95042 2.02084 0
M  V30 3918 H 382.747 -4.13074 0.517243 0
M  V30 3919 H 383.28 -3.4067 2.05399 0
M  V30 3920 H 380.019 -4.35777 4.89672 0
M  V30 3921 H 379.539 -5.00203 3.30994 0
M  V30 3922 H 381.218 -5.17961 3.87718 0
M  V30 3923 N 381.35 -0.985608 -1.22978 0
M  V30 3924 C 382.596 -0.65836 -1.91816 0
M  V30 3925 C 382.929 0.806692 -1.76653 0
M  V30 3926 O 382.204 1.58252 -1.13078 0
M  V30 3927 C 382.487 -1.056 -3.44268 0
M  V30 3928 C 382.34 -2.57906 -3.68516 0
M  V30 3929 C 383.659 -0.603781 -4.35939 0
M  V30 3930 H 380.778 -0.24065 -0.696604 0
M  V30 3931 H 383.42 -1.22783 -1.44998 0
M  V30 3932 H 381.57 -0.571445 -3.84274 0
M  V30 3933 H 383.242 -3.13976 -3.3796 0
M  V30 3934 H 381.485 -3.00305 -3.13048 0
M  V30 3935 H 382.156 -2.80779 -4.75255 0
M  V30 3936 H 384.632 -1.01987 -4.03408 0
M  V30 3937 H 383.508 -0.910383 -5.41298 0
M  V30 3938 H 383.769 0.495761 -4.39312 0
M  V30 3939 N 382.828 1.3818 -0.7579 0
M  V30 3940 C 383.758 2.33027 -0.148597 0
M  V30 3941 C 384.739 1.55085 0.69875 0
M  V30 3942 O 385.924 1.83384 0.639053 0
M  V30 3943 C 383.054 3.3928 0.742034 0
M  V30 3944 C 382.008 4.28 -0.00291946 0
M  V30 3945 C 381.334 5.25146 1.00625 0
M  V30 3946 C 382.634 5.08938 -1.17385 0
M  V30 3947 H 384.328 2.84231 -0.940909 0
M  V30 3948 H 381.874 1.36659 -0.453908 0
M  V30 3949 H 383.827 4.046 1.17799 0
M  V30 3950 H 382.551 2.86569 1.56671 0
M  V30 3951 H 381.21 3.64192 -0.419504 0
M  V30 3952 H 380.858 4.68721 1.8251 0
M  V30 3953 H 380.558 5.85361 0.512428 0
M  V30 3954 H 382.082 5.93342 1.44143 0
M  V30 3955 H 383.496 5.67474 -0.815224 0
M  V30 3956 H 381.893 5.7841 -1.59882 0
M  V30 3957 H 382.963 4.42424 -1.98468 0
M  V30 3958 N 384.306 0.507319 1.49211 0
M  V30 3959 C 385.216 -0.272136 2.33016 0
M  V30 3960 C 386.232 -0.961206 1.45041 0
M  V30 3961 O 387.408 -0.941191 1.78055 0
M  V30 3962 C 384.473 -1.31895 3.20631 0
M  V30 3963 C 383.534 -0.642648 4.24463 0
M  V30 3964 C 382.767 -1.63959 5.07891 0
M  V30 3965 O 382.99 -2.87007 4.92933 0
M  V30 3966 O 381.924 -1.19143 5.8999 0
M  V30 3967 H 385.75 0.413982 3.00865 0
M  V30 3968 H 383.335 0.268556 1.46966 0
M  V30 3969 H 385.217 -1.92446 3.7489 0
M  V30 3970 H 383.892 -1.98788 2.5547 0
M  V30 3971 H 382.799 0.00276252 3.741 0
M  V30 3972 H 384.132 -0.0160534 4.92197 0
M  V30 3973 N 385.784 -1.5574 0.241426 0
M  V30 3974 C 387.061 -1.90704 -0.434881 0
M  V30 3975 C 387.441 -1.16145 -1.76277 0
M  V30 3976 O 386.789 -0.277152 -2.26813 0
M  V30 3977 C 386.999 -3.43657 -0.608343 0
M  V30 3978 C 388.347 -4.14806 -0.906725 0
M  V30 3979 O 389.371 -3.49366 -0.694408 0
M  V30 3980 O 388.23 -5.30548 -1.31075 0
M  V30 3981 H 385.324 -0.793592 -0.23268 0
M  V30 3982 H 387.87 -1.67288 0.285086 0
M  V30 3983 H 386.642 -3.89927 0.327505 0
M  V30 3984 H 386.265 -3.72918 -1.37906 0
M  V30 3985 N 387.262 0.0317525 -1.57568 0
M  V30 3986 C 388.225 1.01783 -2.0536 0
M  V30 3987 C 389.225 1.29203 -0.957253 0
M  V30 3988 O 390.415 1.24251 -1.22095 0
M  V30 3989 C 387.547 2.35137 -2.46827 0
M  V30 3990 H 388.74 0.605062 -2.93733 0
M  V30 3991 H 386.293 0.278514 -1.53799 0
M  V30 3992 H 387.028 2.81168 -1.61602 0
M  V30 3993 H 386.813 2.16566 -3.26866 0
M  V30 3994 H 388.303 3.05938 -2.84239 0
M  V30 3995 N 388.74 1.54641 0.303973 0
M  V30 3996 C 390.017 1.64455 1.05896 0
M  V30 3997 C 390.397 0.490923 2.05312 0
M  V30 3998 O 389.745 -0.512685 2.22674 0
M  V30 3999 C 389.955 3.02331 1.74347 0
M  V30 4000 C 391.303 3.59045 2.26653 0
M  V30 4001 O 392.327 3.04764 1.84384 0
M  V30 4002 O 391.186 4.54081 3.04093 0
M  V30 4003 H 388.28 0.666729 0.489287 0
M  V30 4004 H 390.826 1.66986 0.302298 0
M  V30 4005 H 389.598 3.77734 1.02142 0
M  V30 4006 H 389.221 3.03565 2.56777 0
M  V30 4007 N 390.218 -0.567019 1.47046 0
M  V30 4008 C 391.148 -1.68482 1.61667 0
M  V30 4009 C 392.129 -1.6358 0.466418 0
M  V30 4010 O 393.314 -1.81354 0.694574 0
M  V30 4011 C 390.444 -3.07124 1.62148 0
M  V30 4012 C 389.398 -3.26867 2.76301 0
M  V30 4013 C 388.724 -4.66196 2.61849 0
M  V30 4014 C 390.024 -3.13186 4.17986 0
M  V30 4015 H 391.718 -1.56502 2.5524 0
M  V30 4016 H 389.264 -0.751486 1.22836 0
M  V30 4017 H 391.217 -3.8516 1.70968 0
M  V30 4018 H 389.941 -3.2004 0.651287 0
M  V30 4019 H 388.6 -2.51237 2.66975 0
M  V30 4020 H 388.248 -4.75898 1.62879 0
M  V30 4021 H 387.948 -4.80356 3.38425 0
M  V30 4022 H 389.472 -5.46379 2.72584 0
M  V30 4023 H 390.886 -3.81049 4.2834 0
M  V30 4024 H 389.283 -3.3886 4.95272 0
M  V30 4025 H 390.353 -2.10057 4.3704 0
M  V30 4026 N 391.696 -1.35014 -0.812953 0
M  V30 4027 C 392.606 -1.2951 -1.95613 0
M  V30 4028 C 393.622 -0.20107 -1.72834 0
M  V30 4029 O 394.798 -0.42932 -1.96771 0
M  V30 4030 C 391.863 -1.06033 -3.30088 0
M  V30 4031 C 390.924 -2.24688 -3.65805 0
M  V30 4032 C 390.157 -2.02322 -4.93864 0
M  V30 4033 O 390.38 -0.986464 -5.61805 0
M  V30 4034 O 389.314 -2.89525 -5.27692 0
M  V30 4035 H 393.14 -2.25705 -2.03202 0
M  V30 4036 H 390.725 -1.15321 -0.949811 0
M  V30 4037 H 392.607 -0.94763 -4.10607 0
M  V30 4038 H 391.282 -0.128852 -3.23443 0
M  V30 4039 H 390.189 -2.41521 -2.85689 0
M  V30 4040 H 391.522 -3.16261 -3.77147 0
M  V30 4041 N 393.175 1.03435 -1.18907 0
M  V30 4042 C 394.105 2.13503 -0.945448 0
M  V30 4043 C 395.086 1.69682 0.119189 0
M  V30 4044 O 396.271 1.94169 -0.034707 0
M  V30 4045 C 393.401 3.44004 -0.477316 0
M  V30 4046 C 392.355 4.0148 -1.48316 0
M  V30 4047 C 391.681 5.27537 -0.872311 0
M  V30 4048 C 392.981 4.36921 -2.86177 0
M  V30 4049 H 394.675 2.34141 -1.86597 0
M  V30 4050 H 392.221 1.12523 -0.898584 0
M  V30 4051 H 394.174 4.20372 -0.294204 0
M  V30 4052 H 392.898 3.23072 0.478786 0
M  V30 4053 H 391.557 3.27201 -1.65332 0
M  V30 4054 H 391.205 5.02917 0.0911752 0
M  V30 4055 H 390.905 5.66954 -1.54393 0
M  V30 4056 H 392.429 6.06576 -0.699871 0
M  V30 4057 H 393.843 5.04248 -2.72776 0
M  V30 4058 H 392.24 4.87405 -3.50081 0
M  V30 4059 H 393.31 3.46466 -3.39248 0
M  V30 4060 N 394.653 0.992116 1.22453 0
M  V30 4061 C 395.881 0.685944 1.95198 0
M  V30 4062 C 396.296 -0.749233 1.73297 0
M  V30 4063 O 395.653 -1.50549 1.03156 0
M  V30 4064 C 395.704 0.981395 3.47924 0
M  V30 4065 O 395.425 2.36018 3.6909 0
M  V30 4066 C 396.926 0.692815 4.37853 0
M  V30 4067 H 394.146 0.253821 0.621141 0
M  V30 4068 H 396.69 1.32668 1.55626 0
M  V30 4069 H 394.845 0.386481 3.85467 0
M  V30 4070 H 395.259 2.45884 4.63294 0
M  V30 4071 H 396.733 0.949818 5.43767 0
M  V30 4072 H 397.21 -0.373181 4.37612 0
M  V30 4073 H 397.816 1.26874 4.05935 0
M  V30 4074 N 396.131 -1.37776 0.765217 0
M  V30 4075 C 397.094 -2.28686 0.153416 0
M  V30 4076 C 398.094 -1.47727 -0.635081 0
M  V30 4077 O 399.284 -1.68027 -0.459632 0
M  V30 4078 C 396.416 -3.31608 -0.790495 0
M  V30 4079 H 397.609 -2.84297 0.954723 0
M  V30 4080 H 395.162 -1.46932 0.53299 0
M  V30 4081 H 395.897 -2.81109 -1.61705 0
M  V30 4082 H 395.682 -3.9144 -0.227348 0
M  V30 4083 H 397.172 -3.99559 -1.21419 0
M  V30 4084 N 397.609 -0.515225 -1.4894 0
M  V30 4085 C 398.556 0.255567 -2.29381 0
M  V30 4086 C 399.526 0.947387 -1.36432 0
M  V30 4087 O 400.711 0.951288 -1.65394 0
M  V30 4088 C 397.851 1.30551 -3.19453 0
M  V30 4089 C 396.964 0.624029 -4.27469 0
M  V30 4090 C 396.099 1.65563 -5.0474 0
M  V30 4091 C 395.138 0.956802 -6.04576 0
M  V30 4092 N 394.275 1.93326 -6.74959 0
M  V30 4093 H 399.115 -0.436607 -2.94784 0
M  V30 4094 H 396.652 -0.227154 -1.45336 0
M  V30 4095 H 398.61 1.92639 -3.70062 0
M  V30 4096 H 397.24 1.96626 -2.56004 0
M  V30 4097 H 396.292 -0.110459 -3.8024 0
M  V30 4098 H 397.604 0.0746092 -4.98744 0
M  V30 4099 H 396.758 2.35119 -5.59289 0
M  V30 4100 H 395.497 2.23893 -4.3327 0
M  V30 4101 H 394.502 0.247097 -5.49244 0
M  V30 4102 H 395.727 0.379814 -6.78037 0
M  V30 4103 H 393.673 2.50591 -6.06251 0
M  V30 4104 H 393.59 1.43489 -7.42258 0
M  V30 4105 H 394.858 2.62126 -7.34105 0
M  V30 4106 N 399.087 1.5561 -0.249682 0
M  V30 4107 C 400.035 2.22894 0.664906 0
M  V30 4108 C 401.029 1.21743 1.17792 0
M  V30 4109 O 402.235 1.39748 1.13449 0
M  V30 4110 H 398.61 0.715022 0.232912 0
M  V30 4111 H 400.581 2.98307 0.0742998 0
M  V30 4112 C 399.33 2.94424 1.84959 0
M  V30 4113 H 398.653 3.72031 1.46399 0
M  V30 4114 H 400.093 3.44862 2.4667 0
M  V30 4115 C 398.552 1.98454 2.72245 0
M  V30 4116 O 399.082 1.51939 3.71857 0
M  V30 4117 N 397.288 1.65496 2.38871 0
M  V30 4118 H 396.835 2.03517 1.57919 0
M  V30 4119 H 396.793 1.0155 2.97548 0
M  V30 4120 N 400.565 -0.0233959 1.57583 0
M  V30 4121 C 401.814 -0.712133 1.8871 0
M  V30 4122 C 402.127 -1.76217 0.848944 0
M  V30 4123 O 403.333 -2.50389 1.04964 0
M  V30 4124 C 401.789 -1.3177 3.3491 0
M  V30 4125 C 401.397 -0.303715 4.46969 0
M  V30 4126 C 403.141 -1.98598 3.75179 0
M  V30 4127 C 401.048 -0.917945 5.84233 0
M  V30 4128 H 399.978 -0.269735 0.704101 0
M  V30 4129 H 402.629 0.0333114 1.8347 0
M  V30 4130 H 401.011 -2.11304 3.34913 0
M  V30 4131 H 402.185 0.465325 4.58445 0
M  V30 4132 H 400.5 0.2628 4.1557 0
M  V30 4133 H 403.097 -2.45416 4.75053 0
M  V30 4134 H 403.44 -2.80659 3.07468 0
M  V30 4135 H 403.973 -1.25831 3.77374 0
M  V30 4136 H 400.712 -0.136633 6.55358 0
M  V30 4137 H 400.232 -1.65669 5.76467 0
M  V30 4138 H 401.911 -1.4236 6.31144 0
M  V30 4139 N 402.043 -1.548 -0.295768 0
M  V30 4140 C 403.292 -1.73538 -1.02798 0
M  V30 4141 C 403.605 -0.531159 -1.8825 0
M  V30 4142 O 404.811 -0.600458 -2.64777 0
M  V30 4143 C 403.267 -3.07051 -1.87744 0
M  V30 4144 C 402.875 -4.34968 -1.07269 0
M  V30 4145 C 404.619 -3.35146 -2.60533 0
M  V30 4146 C 402.526 -5.5953 -1.91521 0
M  V30 4147 H 401.456 -0.646794 -0.387522 0
M  V30 4148 H 404.107 -1.81278 -0.284718 0
M  V30 4149 H 402.489 -2.93289 -2.66078 0
M  V30 4150 H 403.663 -4.5958 -0.335117 0
M  V30 4151 H 401.978 -4.13847 -0.460384 0
M  V30 4152 H 404.575 -4.2541 -3.23929 0
M  V30 4153 H 404.918 -2.54255 -3.29636 0
M  V30 4154 H 405.451 -3.49902 -1.89244 0
M  V30 4155 H 402.19 -6.43103 -1.26878 0
M  V30 4156 H 401.71 -5.39096 -2.62937 0
M  V30 4157 H 403.389 -5.96982 -2.49442 0
M  V30 4158 N 403.521 0.559213 -1.47345 0
M  V30 4159 C 404.484 1.64854 -1.59235 0
M  V30 4160 C 405.484 1.53851 -0.467607 0
M  V30 4161 O 406.674 1.58045 -0.732617 0
M  V30 4162 C 403.806 3.04388 -1.53496 0
M  V30 4163 H 404.999 1.55662 -2.56339 0
M  V30 4164 H 402.552 0.778973 -1.35505 0
M  V30 4165 H 403.287 3.19115 -0.577604 0
M  V30 4166 H 403.072 3.13783 -2.35123 0
M  V30 4167 H 404.562 3.83642 -1.6495 0
M  V30 4168 N 404.999 1.35443 0.805782 0
M  V30 4169 C 406.247 1.28507 1.55982 0
M  V30 4170 C 406.568 -0.140046 1.94496 0
M  V30 4171 O 405.838 -1.07666 1.63661 0
M  V30 4172 H 404.418 0.472676 0.578434 0
M  V30 4173 H 407.08 1.69555 0.961098 0
M  V30 4174 H 406.176 1.90148 2.47488 0
M  V30 4175 N 406.477 -1.02803 1.19454 0
M  V30 4176 C 407.44 -2.09264 0.934955 0
M  V30 4177 C 408.44 -1.60576 -0.0849015 0
M  V30 4178 O 409.63 -1.73554 0.149933 0
M  V30 4179 C 406.762 -3.38482 0.40531 0
M  V30 4180 H 407.955 -2.33726 1.87916 0
M  V30 4181 H 405.508 -1.19426 1.00832 0
M  V30 4182 H 406.243 -3.19689 -0.544899 0
M  V30 4183 H 406.028 -3.75142 1.14065 0
M  V30 4184 H 407.518 -4.16894 0.242806 0
M  V30 4185 N 407.956 -0.998596 -1.21925 0
M  V30 4186 C 409.203 -0.677663 -1.90824 0
M  V30 4187 C 409.531 0.790905 -1.77693 0
M  V30 4188 O 408.786 1.58817 -1.14349 0
M  V30 4189 C 409.085 -1.03648 -3.42041 0
M  V30 4190 C 408.751 -2.49825 -3.75364 0
M  V30 4191 C 407.413 -2.8977 -3.8417 0
M  V30 4192 C 409.765 -3.44545 -3.91073 0
M  V30 4193 C 407.093 -4.23412 -4.06127 0
M  V30 4194 C 409.445 -4.77853 -4.14535 0
M  V30 4195 C 408.109 -5.17531 -4.21566 0
M  V30 4196 H 407.379 -0.247975 -0.698276 0
M  V30 4197 H 410.026 -1.25584 -1.44571 0
M  V30 4198 H 408.331 -0.376457 -3.89987 0
M  V30 4199 H 410.028 -0.766113 -3.93614 0
M  V30 4200 H 406.618 -2.17866 -3.69097 0
M  V30 4201 H 410.802 -3.14853 -3.83642 0
M  V30 4202 H 406.058 -4.53734 -4.09799 0
M  V30 4203 H 410.232 -5.51189 -4.25633 0
M  V30 4204 H 407.859 -6.21102 -4.38333 0
M  V30 4205 N 409.434 1.37368 -0.772513 0
M  V30 4206 C 410.682 1.99279 -0.336516 0
M  V30 4207 C 411.003 1.6163 1.09091 0
M  V30 4208 O 410.273 0.882109 1.74916 0
M  V30 4209 H 408.853 0.737063 -0.121435 0
M  V30 4210 H 411.515 1.67836 -0.990809 0
M  V30 4211 H 410.611 3.09332 -0.414763 0
M  V30 4212 N 410.912 0.523116 1.48665 0
M  V30 4213 C 412.142 -0.00961724 2.06598 0
M  V30 4214 C 412.55 -1.29333 1.38093 0
M  V30 4215 O 411.893 -1.77846 0.46007 0
M  V30 4216 C 411.955 -0.311135 3.58151 0
M  V30 4217 C 411.619 0.878092 4.48485 0
M  V30 4218 C 412.616 1.77464 4.88674 0
M  V30 4219 C 410.301 1.08315 4.90483 0
M  V30 4220 C 412.295 2.86021 5.69623 0
M  V30 4221 C 409.982 2.17187 5.71203 0
M  V30 4222 C 410.98 3.05873 6.10681 0
M  V30 4223 O 410.668 4.12862 6.89783 0
M  V30 4224 H 410.4 0.0272658 0.67545 0
M  V30 4225 H 412.954 0.726156 1.92136 0
M  V30 4226 H 411.184 -1.10079 3.70701 0
M  V30 4227 H 412.873 -0.785125 3.98234 0
M  V30 4228 H 413.639 1.62813 4.56855 0
M  V30 4229 H 409.518 0.402149 4.59243 0
M  V30 4230 H 413.062 3.55272 6.00356 0
M  V30 4231 H 408.959 2.31824 6.02435 0
M  V30 4232 H 409.727 4.10487 7.08126 0
M  V30 4233 N 412.39 -1.55475 0.257931 0
M  V30 4234 C 413.615 -2.04064 -0.370488 0
M  V30 4235 C 414.04 -1.13565 -1.49948 0
M  V30 4236 O 413.398 -0.130781 -1.80828 0
M  V30 4237 C 413.446 -3.50554 -0.845237 0
M  V30 4238 O 412.55 -3.63173 -1.95394 0
M  V30 4239 H 411.891 -0.659257 -0.0792243 0
M  V30 4240 H 414.421 -2.00903 0.387212 0
M  V30 4241 H 414.431 -3.91588 -1.14555 0
M  V30 4242 H 413.106 -4.15896 -0.0191259 0
M  V30 4243 H 411.683 -3.34039 -1.65748 0
M  V30 4244 N 413.868 0.0150385 -1.57593 0
M  V30 4245 C 415.116 0.701613 -1.8953 0
M  V30 4246 C 415.437 1.75139 -0.857396 0
M  V30 4247 O 414.707 1.95607 0.107194 0
M  V30 4248 H 413.287 0.26213 -0.699498 0
M  V30 4249 H 415.949 -0.0223304 -1.94887 0
M  V30 4250 H 415.045 1.18236 -2.88837 0
M  V30 4251 N 415.346 1.54954 0.287554 0
M  V30 4252 C 416.278 1.83224 1.37701 0
M  V30 4253 C 417.291 0.715898 1.46215 0
M  V30 4254 O 418.48 0.993565 1.48292 0
M  V30 4255 C 415.58 1.96723 2.75959 0
M  V30 4256 C 414.753 3.27253 2.90215 0
M  V30 4257 C 413.812 3.30998 4.09056 0
M  V30 4258 O 412.838 4.04457 4.00503 0
M  V30 4259 N 414.04 2.57353 5.20336 0
M  V30 4260 H 416.805 2.77254 1.138 0
M  V30 4261 H 414.366 1.54694 0.477652 0
M  V30 4262 H 416.358 1.96615 3.5373 0
M  V30 4263 H 414.928 1.09626 2.92747 0
M  V30 4264 H 414.148 3.40022 1.99447 0
M  V30 4265 H 415.436 4.13365 2.96659 0
M  V30 4266 H 414.834 1.97327 5.30169 0
M  V30 4267 H 413.391 2.62984 5.96391 0
M  V30 4268 N 416.824 -0.551391 1.4764 0
M  V30 4269 C 418.24 -0.877887 1.33287 0
M  V30 4270 C 418.44 -1.98817 0.327721 0
M  V30 4271 O 417.496 -2.51171 -0.258695 0
M  V30 4272 C 418.809 -1.26563 2.72768 0
M  V30 4273 C 420.357 -1.37673 2.81097 0
M  V30 4274 C 420.832 -1.79799 4.21232 0
M  V30 4275 N 422.323 -1.8694 4.23802 0
M  V30 4276 C 423.058 -2.20876 5.29151 0
M  V30 4277 N 422.554 -2.53386 6.448 0
M  V30 4278 N 424.347 -2.217 5.16532 0
M  V30 4279 H 416.498 0.18153 2.11623 0
M  V30 4280 H 418.761 0.0185514 0.947818 0
M  V30 4281 H 418.467 -0.523591 3.47781 0
M  V30 4282 H 418.341 -2.22052 3.04915 0
M  V30 4283 H 420.728 -2.10956 2.06353 0
M  V30 4284 H 420.809 -0.40357 2.52596 0
M  V30 4285 H 420.453 -1.07083 4.96483 0
M  V30 4286 H 420.383 -2.78128 4.4716 0
M  V30 4287 H 422.874 -1.64179 3.40373 0
M  V30 4288 H 423.187 -2.78325 7.20941 0
M  V30 4289 H 421.532 -2.50953 6.48111 0
M  V30 4290 H 424.723 -1.95745 4.25207 0
M  V30 4291 H 424.896 -2.47818 5.98741 0
M  V30 4292 N 418.302 -1.35869 -0.798587 0
M  V30 4293 C 419.542 -1.30961 -1.56935 0
M  V30 4294 C 419.906 0.112404 -1.91671 0
M  V30 4295 O 421.107 0.285937 -2.67275 0
M  V30 4296 C 419.378 -2.19811 -2.81811 0
M  V30 4297 S 420.937 -2.32498 -3.72143 0
M  V30 4298 H 417.755 -0.465297 -0.537606 0
M  V30 4299 H 420.357 -1.71344 -0.941346 0
M  V30 4300 H 419.061 -3.22095 -2.54329 0
M  V30 4301 H 418.592 -1.80415 -3.49591 0
M  V30 4302 H 420.607 -1.5157 -4.72484 0
M  V30 4303 N 419.78 1.02168 -1.19998 0
M  V30 4304 C 421.008 1.79296 -1.03249 0
M  V30 4305 C 421.423 1.84103 0.418502 0
M  V30 4306 O 420.78 1.29031 1.29063 0
M  V30 4307 C 420.831 3.24007 -1.60319 0
M  V30 4308 O 420.552 3.19512 -2.99739 0
M  V30 4309 C 422.053 4.17704 -1.48453 0
M  V30 4310 H 419.273 0.564016 -0.363493 0
M  V30 4311 H 421.817 1.28639 -1.58973 0
M  V30 4312 H 419.972 3.7183 -1.08727 0
M  V30 4313 H 420.386 4.10306 -3.26725 0
M  V30 4314 H 421.86 5.17104 -1.93153 0
M  V30 4315 H 422.337 4.37029 -0.436193 0
M  V30 4316 H 422.943 3.7576 -1.99211 0
M  V30 4317 N 421.258 1.00505 1.21394 0
M  V30 4318 C 422.221 0.570459 2.21987 0
M  V30 4319 C 423.221 -0.353211 1.56873 0
M  V30 4320 O 424.411 -0.14349 1.73608 0
M  V30 4321 C 421.543 -0.168555 3.40483 0
M  V30 4322 H 422.736 1.46021 2.6195 0
M  V30 4323 H 420.289 0.793565 1.34656 0
M  V30 4324 H 421.024 -1.07374 3.06009 0
M  V30 4325 H 420.809 0.494823 3.88965 0
M  V30 4326 H 422.299 -0.460362 4.15055 0
M  V30 4327 N 422.737 -1.36956 0.779787 0
M  V30 4328 C 423.983 -1.99787 0.348281 0
M  V30 4329 C 424.316 -1.61756 -1.07465 0
M  V30 4330 O 423.591 -0.867639 -1.74075 0
M  V30 4331 C 423.874 -3.56597 0.50104 0
M  V30 4332 C 423.727 -4.04513 1.96697 0
M  V30 4333 C 425.046 -4.40008 -0.0898097 0
M  V30 4334 H 422.165 -0.725796 0.128022 0
M  V30 4335 H 424.807 -1.62514 0.984331 0
M  V30 4336 H 422.957 -3.88479 -0.0404347 0
M  V30 4337 H 424.629 -3.83161 2.56876 0
M  V30 4338 H 422.872 -3.56408 2.47297 0
M  V30 4339 H 423.543 -5.1352 2.02486 0
M  V30 4340 H 426.019 -4.14431 0.372293 0
M  V30 4341 H 424.895 -5.4888 0.0471605 0
M  V30 4342 H 425.156 -4.26035 -1.18096 0
M  V30 4343 N 424.215 -0.530993 -1.48385 0
M  V30 4344 C 425.162 0.231223 -2.29639 0
M  V30 4345 C 426.132 0.932864 -1.37429 0
M  V30 4346 O 427.317 0.933692 -1.66394 0
M  V30 4347 C 424.457 1.27155 -3.2082 0
M  V30 4348 C 423.57 0.578655 -4.28107 0
M  V30 4349 C 422.705 1.602 -5.06467 0
M  V30 4350 C 421.744 0.892625 -6.05556 0
M  V30 4351 N 420.881 1.86157 -6.76971 0
M  V30 4352 H 425.721 -0.467848 -2.94305 0
M  V30 4353 H 423.258 -0.242556 -1.45086 0
M  V30 4354 H 425.216 1.88703 -3.72085 0
M  V30 4355 H 423.846 1.939 -2.58075 0
M  V30 4356 H 422.898 -0.150782 -3.80101 0
M  V30 4357 H 424.21 0.0217065 -4.98795 0
M  V30 4358 H 423.364 2.29173 -5.61751 0
M  V30 4359 H 422.103 2.19285 -4.35621 0
M  V30 4360 H 421.108 0.188829 -5.49476 0
M  V30 4361 H 422.333 0.307878 -6.78402 0
M  V30 4362 H 420.279 2.44147 -6.08875 0
M  V30 4363 H 420.196 1.35608 -7.43738 0
M  V30 4364 H 421.464 2.54325 -7.36844 0
M  V30 4365 N 425.693 1.55336 -0.266172 0
M  V30 4366 C 427.109 1.59356 0.0882065 0
M  V30 4367 C 427.309 1.2834 1.55342 0
M  V30 4368 O 426.365 1.03996 2.30089 0
M  V30 4369 C 427.678 2.99409 -0.278364 0
M  V30 4370 C 429.226 3.12196 -0.224243 0
M  V30 4371 C 429.701 4.545 -0.565123 0
M  V30 4372 N 431.192 4.60313 -0.51634 0
M  V30 4373 C 431.927 5.68434 -0.753013 0
M  V30 4374 N 431.423 6.84738 -1.05383 0
M  V30 4375 N 433.216 5.57942 -0.682414 0
M  V30 4376 H 425.367 1.73764 -1.22147 0
M  V30 4377 H 427.63 0.809822 -0.492841 0
M  V30 4378 H 427.336 3.2691 -1.29703 0
M  V30 4379 H 427.21 3.75228 0.385186 0
M  V30 4380 H 429.597 2.84464 0.78512 0
M  V30 4381 H 429.678 2.38609 -0.921922 0
M  V30 4382 H 429.322 4.82956 -1.57213 0
M  V30 4383 H 429.252 5.26374 0.154248 0
M  V30 4384 H 431.743 3.7676 -0.29335 0
M  V30 4385 H 432.056 7.63088 -1.22133 0
M  V30 4386 H 430.401 6.86375 -1.09151 0
M  V30 4387 H 433.592 4.65958 -0.44731 0
M  V30 4388 H 433.765 6.4213 -0.870248 0
M  V30 4389 N 427.171 -0.0066808 1.57599 0
M  V30 4390 C 428.417 -0.693947 1.90558 0
M  V30 4391 C 428.75 -1.73792 0.866594 0
M  V30 4392 O 428.025 -1.94156 -0.115548 0
M  V30 4393 C 428.308 -1.34317 3.34112 0
M  V30 4394 C 428.161 -0.311189 4.48722 0
M  V30 4395 C 429.48 -2.27116 3.7697 0
M  V30 4396 H 426.599 -0.250803 0.693013 0
M  V30 4397 H 429.241 0.043242 1.89951 0
M  V30 4398 H 427.391 -1.9715 3.3476 0
M  V30 4399 H 429.063 0.316944 4.6021 0
M  V30 4400 H 427.306 0.367253 4.32243 0
M  V30 4401 H 427.977 -0.804366 5.46108 0
M  V30 4402 H 430.453 -1.74306 3.77831 0
M  V30 4403 H 429.329 -2.69511 4.78179 0
M  V30 4404 H 429.59 -3.14743 3.10466 0
M  V30 4405 N 428.649 -1.55105 -0.279332 0
M  V30 4406 C 429.579 -1.90557 -1.34945 0
M  V30 4407 C 430.56 -0.766738 -1.51839 0
M  V30 4408 O 431.745 -1.02434 -1.64988 0
M  V30 4409 C 428.875 -2.17193 -2.71006 0
M  V30 4410 C 427.829 -3.33021 -2.68851 0
M  V30 4411 C 427.155 -3.45123 -4.08405 0
M  V30 4412 C 428.455 -4.69578 -2.28678 0
M  V30 4413 H 430.149 -2.80188 -1.05522 0
M  V30 4414 H 427.695 -1.34811 -0.506173 0
M  V30 4415 H 429.648 -2.40581 -3.45975 0
M  V30 4416 H 428.372 -1.24355 -3.01999 0
M  V30 4417 H 427.031 -3.0959 -1.9634 0
M  V30 4418 H 426.679 -2.49762 -4.3661 0
M  V30 4419 H 426.379 -4.22995 -4.07859 0
M  V30 4420 H 427.903 -3.70796 -4.85121 0
M  V30 4421 H 429.317 -4.92553 -2.93368 0
M  V30 4422 H 427.714 -5.5032 -2.39306 0
M  V30 4423 H 428.784 -4.68828 -1.23807 0
M  V30 4424 N 430.127 0.543554 -1.4793 0
M  V30 4425 C 431.373 1.30201 -1.55485 0
M  V30 4426 C 431.706 1.92925 -0.222201 0
M  V30 4427 O 430.981 1.78586 0.77053 0
M  V30 4428 C 431.264 2.40174 -2.68307 0
M  V30 4429 C 431.117 1.8223 -4.11233 0
M  V30 4430 C 432.436 3.42024 -2.76961 0
M  V30 4431 H 429.555 0.472036 -0.565996 0
M  V30 4432 H 432.197 0.606914 -1.80046 0
M  V30 4433 H 430.347 2.99463 -2.47495 0
M  V30 4434 H 432.019 1.27096 -4.43446 0
M  V30 4435 H 430.262 1.12832 -4.18869 0
M  V30 4436 H 430.933 2.61793 -4.85972 0
M  V30 4437 H 433.409 2.92672 -2.95774 0
M  V30 4438 H 432.285 4.16383 -3.57654 0
M  V30 4439 H 432.546 4.0173 -1.84568 0
M  V30 4440 N 431.605 1.3629 0.791371 0
M  V30 4441 C 432.538 1.24816 1.9104 0
M  V30 4442 C 433.516 0.132739 1.62057 0
M  V30 4443 O 434.7 0.303527 1.8604 0
M  V30 4444 C 431.827 0.925355 3.25814 0
M  V30 4445 C 430.873 2.05495 3.7373 0
M  V30 4446 S 431.706 3.67255 3.89723 0
M  V30 4447 C 432.862 3.37084 5.27376 0
M  V30 4448 H 433.095 2.19533 2.00481 0
M  V30 4449 H 430.628 1.21684 0.950393 0
M  V30 4450 H 432.586 0.745924 4.03666 0
M  V30 4451 H 431.247 -0.00400098 3.141 0
M  V30 4452 H 430.44 1.7836 4.71385 0
M  V30 4453 H 430.042 2.1935 3.02922 0
M  V30 4454 H 432.334 2.90856 6.1189 0
M  V30 4455 H 433.277 4.33995 5.59512 0
M  V30 4456 H 433.685 2.7248 4.94383 0
M  V30 4457 N 433.083 -1.0153 1.20538 0
M  V30 4458 C 433.993 -2.13557 0.971113 0
M  V30 4459 C 435.009 -1.73845 -0.0734366 0
M  V30 4460 O 436.185 -2.01075 0.114299 0
M  V30 4461 C 433.25 -3.42661 0.527639 0
M  V30 4462 C 432.311 -3.96608 1.64319 0
M  V30 4463 C 431.544 -5.1955 1.22078 0
M  V30 4464 O 431.767 -5.70329 0.0900198 0
M  V30 4465 O 430.701 -5.66681 2.02871 0
M  V30 4466 H 434.527 -2.3619 1.90913 0
M  V30 4467 H 432.112 -1.11946 0.989362 0
M  V30 4468 H 433.994 -4.20404 0.289621 0
M  V30 4469 H 432.669 -3.21441 -0.381779 0
M  V30 4470 H 431.576 -3.20139 1.93551 0
M  V30 4471 H 432.909 -4.22219 2.52966 0
M  V30 4472 N 434.561 -1.01147 -1.20859 0
M  V30 4473 C 435.786 -0.716698 -1.94623 0
M  V30 4474 C 436.211 0.715415 -1.73964 0
M  V30 4475 O 435.569 1.49157 -1.03062 0
M  V30 4476 C 435.617 -1.0513 -3.44935 0
M  V30 4477 O 434.721 -0.160131 -4.12089 0
M  V30 4478 H 434.062 -0.266404 -0.608214 0
M  V30 4479 H 436.592 -1.35346 -1.53436 0
M  V30 4480 H 436.602 -1.00086 -3.95533 0
M  V30 4481 H 435.277 -2.09475 -3.59295 0
M  V30 4482 H 433.854 -0.267657 -3.71938 0
M  V30 4483 N 436.039 1.36541 -0.78704 0
M  V30 4484 C 437.285 1.99599 -0.358872 0
M  V30 4485 C 437.618 1.62323 1.06606 0
M  V30 4486 O 436.893 0.876858 1.73613 0
M  V30 4487 C 437.176 3.56327 -0.519944 0
M  V30 4488 C 437.029 4.03464 -1.98839 0
M  V30 4489 C 438.348 4.4005 0.0664737 0
M  V30 4490 H 435.467 0.725107 -0.131869 0
M  V30 4491 H 438.109 1.6199 -0.992936 0
M  V30 4492 H 436.259 3.88495 0.0198321 0
M  V30 4493 H 437.931 3.81793 -2.58905 0
M  V30 4494 H 436.174 3.55092 -2.49183 0
M  V30 4495 H 436.845 5.12439 -2.05207 0
M  V30 4496 H 439.321 4.14228 -0.394267 0
M  V30 4497 H 438.197 5.48847 -0.0762682 0
M  V30 4498 H 438.458 4.26655 1.15835 0
M  V30 4499 N 437.518 0.538854 1.48102 0
M  V30 4500 C 438.481 -0.208395 2.28251 0
M  V30 4501 C 439.481 -0.859656 1.35892 0
M  V30 4502 O 440.671 -0.71834 1.58699 0
M  V30 4503 C 437.803 -1.30252 3.15035 0
M  V30 4504 H 438.996 0.495407 2.9578 0
M  V30 4505 H 436.549 0.295112 1.53489 0
M  V30 4506 H 437.284 -2.0393 2.52157 0
M  V30 4507 H 437.069 -0.840551 3.82985 0
M  V30 4508 H 438.559 -1.82787 3.75471 0
M  V30 4509 N 438.996 -1.55193 0.274407 0
M  V30 4510 C 440.273 -1.91584 -0.394331 0
M  V30 4511 C 440.653 -1.19858 -1.73774 0
M  V30 4512 O 440.001 -0.3252 -2.26174 0
M  V30 4513 C 440.211 -3.4487 -0.535311 0
M  V30 4514 C 441.559 -4.16636 -0.818534 0
M  V30 4515 O 442.583 -3.5076 -0.620146 0
M  V30 4516 O 441.442 -5.33209 -1.19792 0
M  V30 4517 H 438.536 -0.798349 -0.215794 0
M  V30 4518 H 441.082 -1.66646 0.320507 0
M  V30 4519 H 439.854 -3.89145 0.410141 0
M  V30 4520 H 439.477 -3.75759 -1.29964 0
M  V30 4521 N 440.474 -0.00167713 -1.576 0
M  V30 4522 C 441.384 1.00548 -2.1196 0
M  V30 4523 C 442.4 1.3758 -1.06526 0
M  V30 4524 O 443.576 1.46278 -1.38436 0
M  V30 4525 C 440.641 2.27809 -2.6135 0
M  V30 4526 C 439.702 1.97074 -3.81393 0
M  V30 4527 C 438.935 3.18267 -4.28417 0
M  V30 4528 O 439.158 4.30009 -3.74765 0
M  V30 4529 O 438.092 3.02167 -5.20556 0
M  V30 4530 H 441.918 0.573373 -2.98238 0
M  V30 4531 H 439.503 0.217255 -1.47812 0
M  V30 4532 H 441.385 3.02568 -2.93309 0
M  V30 4533 H 440.06 2.70254 -1.78169 0
M  V30 4534 H 438.967 1.19785 -3.54404 0
M  V30 4535 H 440.3 1.59464 -4.65652 0
M  V30 4536 N 441.952 1.55251 0.271103 0
M  V30 4537 C 442.882 1.9127 1.33933 0
M  V30 4538 C 443.863 0.77478 1.5143 0
M  V30 4539 O 445.048 1.03307 1.64442 0
M  V30 4540 C 442.178 2.18627 2.69851 0
M  V30 4541 C 441.132 3.34442 2.67081 0
M  V30 4542 C 440.458 3.47284 4.06569 0
M  V30 4543 C 441.758 4.70784 2.26185 0
M  V30 4544 H 443.452 2.80744 1.04035 0
M  V30 4545 H 440.998 1.35077 0.499017 0
M  V30 4546 H 442.951 2.42413 3.44694 0
M  V30 4547 H 441.675 1.25955 3.01335 0
M  V30 4548 H 440.334 3.10627 1.94695 0
M  V30 4549 H 439.982 2.52074 4.35279 0
M  V30 4550 H 439.682 4.25152 4.0561 0
M  V30 4551 H 441.206 3.73363 4.83148 0
M  V30 4552 H 442.62 4.94102 2.90751 0
M  V30 4553 H 441.017 5.51582 2.36384 0
M  V30 4554 H 442.087 4.69478 1.21319 0
M  V30 4555 N 443.43 -0.535701 1.48216 0
M  V30 4556 C 444.676 -1.29375 1.56173 0
M  V30 4557 C 445.009 -1.92804 0.232429 0
M  V30 4558 O 444.284 -1.78992 -0.761048 0
M  V30 4559 C 444.567 -2.38747 2.69577 0
M  V30 4560 C 444.42 -1.80046 4.12193 0
M  V30 4561 C 445.739 -3.40551 2.78771 0
M  V30 4562 H 442.858 -0.469027 0.568491 0
M  V30 4563 H 445.5 -0.597358 1.80365 0
M  V30 4564 H 443.65 -2.98147 2.4908 0
M  V30 4565 H 445.322 -1.24742 4.44114 0
M  V30 4566 H 443.565 -1.10609 4.19462 0
M  V30 4567 H 444.236 -2.59212 4.87353 0
M  V30 4568 H 446.712 -2.91099 2.97322 0
M  V30 4569 H 445.588 -4.1448 3.59857 0
M  V30 4570 H 445.849 -4.00746 1.86696 0
M  V30 4571 N 444.908 -1.36708 -0.784132 0
M  V30 4572 C 445.818 -1.3363 -1.92822 0
M  V30 4573 C 446.834 -0.237686 -1.72369 0
M  V30 4574 O 448.01 -0.470962 -1.95816 0
M  V30 4575 C 445.075 -1.13011 -3.27764 0
M  V30 4576 C 444.136 -2.32397 -3.60957 0
M  V30 4577 C 443.369 -2.12752 -4.89461 0
M  V30 4578 O 443.592 -1.10541 -5.59586 0
M  V30 4579 O 442.526 -3.00653 -5.21432 0
M  V30 4580 H 446.352 -2.29964 -1.98369 0
M  V30 4581 H 443.937 -1.1731 -0.925136 0
M  V30 4582 H 445.819 -1.03451 -4.08504 0
M  V30 4583 H 444.494 -0.19743 -3.23097 0
M  V30 4584 H 443.401 -2.47527 -2.80502 0
M  V30 4585 H 444.734 -3.2419 -3.70354 0
M  V30 4586 N 446.386 1.0089 -1.21074 0
M  V30 4587 C 447.333 2.09588 -0.966512 0
M  V30 4588 C 448.303 1.65761 0.106089 0
M  V30 4589 O 449.488 1.90758 -0.0402287 0
M  V30 4590 C 446.628 3.40958 -0.533058 0
M  V30 4591 C 445.741 3.9822 -1.67467 0
M  V30 4592 C 444.876 5.17682 -1.19076 0
M  V30 4593 C 443.915 5.67043 -2.30496 0
M  V30 4594 N 443.052 6.77759 -1.83267 0
M  V30 4595 H 447.892 2.29815 -1.89708 0
M  V30 4596 H 445.429 1.12689 -0.945489 0
M  V30 4597 H 447.387 4.1637 -0.263019 0
M  V30 4598 H 446.017 3.20781 0.360505 0
M  V30 4599 H 445.069 3.1983 -2.05944 0
M  V30 4600 H 446.381 4.3085 -2.51336 0
M  V30 4601 H 445.535 6.00326 -0.877151 0
M  V30 4602 H 444.274 4.86635 -0.322066 0
M  V30 4603 H 443.279 4.82999 -2.62664 0
M  V30 4604 H 444.504 6.00121 -3.17855 0
M  V30 4605 H 442.45 6.48527 -0.987356 0
M  V30 4606 H 442.367 7.09624 -2.60711 0
M  V30 4607 H 443.635 7.63949 -1.54928 0
M  V30 4608 N 447.864 1.01787 1.20321 0
M  V30 4609 C 449.113 0.703249 1.89043 0
M  V30 4610 C 449.426 -0.770445 1.79787 0
M  V30 4611 O 450.632 -1.19767 2.43656 0
M  V30 4612 C 449.088 1.20749 3.3904 0
M  V30 4613 C 448.696 2.70817 3.56878 0
M  V30 4614 C 450.44 0.968352 4.13308 0
M  V30 4615 C 448.347 3.14716 5.00708 0
M  V30 4616 H 447.277 0.259354 0.707991 0
M  V30 4617 H 449.928 1.23072 1.36108 0
M  V30 4618 H 448.31 0.607989 3.91305 0
M  V30 4619 H 449.484 3.36327 3.14993 0
M  V30 4620 H 447.799 2.92888 2.95983 0
M  V30 4621 H 450.396 1.27173 5.19356 0
M  V30 4622 H 450.739 -0.095149 4.16191 0
M  V30 4623 H 451.272 1.53129 3.67146 0
M  V30 4624 H 448.011 4.20347 5.02979 0
M  V30 4625 H 447.531 2.53927 5.43398 0
M  V30 4626 H 449.21 3.07426 5.69296 0
M  V30 4627 N 449.342 -1.36122 0.79427 0
M  V30 4628 C 450.758 -1.5232 0.476525 0
M  V30 4629 C 450.958 -1.74685 -1.00436 0
M  V30 4630 O 450.014 -1.78115 -1.78973 0
M  V30 4631 C 451.327 -2.70607 1.31119 0
M  V30 4632 C 452.875 -2.8448 1.30537 0
M  V30 4633 C 453.35 -4.05778 2.12387 0
M  V30 4634 N 454.841 -4.12933 2.09859 0
M  V30 4635 C 455.576 -5.05876 2.69957 0
M  V30 4636 N 455.072 -6.04232 3.38934 0
M  V30 4637 N 456.865 -4.98528 2.59665 0
M  V30 4638 H 449.016 -1.1986 1.75349 0
M  V30 4639 H 451.279 -0.585418 0.745647 0
M  V30 4640 H 450.985 -2.60619 2.36158 0
M  V30 4641 H 450.859 -3.64888 0.955843 0
M  V30 4642 H 453.246 -2.93927 0.262876 0
M  V30 4643 H 453.327 -1.91093 1.70051 0
M  V30 4644 H 452.971 -3.97092 3.1667 0
M  V30 4645 H 452.901 -4.98323 1.70242 0
M  V30 4646 H 455.392 -3.42515 1.59662 0
M  V30 4647 H 455.705 -6.71724 3.82109 0
M  V30 4648 H 454.05 -6.04443 3.43036 0
M  V30 4649 H 457.241 -4.20641 2.05375 0
M  V30 4650 H 457.414 -5.70773 3.06793 0
M  V30 4651 N 450.82 -0.546701 -1.47814 0
M  V30 4652 C 451.73 0.21026 -2.33656 0
M  V30 4653 C 452.746 0.922413 -1.47538 0
M  V30 4654 O 453.922 0.893652 -1.80488 0
M  V30 4655 C 450.987 1.23348 -3.24016 0
M  V30 4656 C 450.048 0.529883 -4.26017 0
M  V30 4657 C 449.281 1.50435 -5.12059 0
M  V30 4658 O 449.504 2.73837 -5.00369 0
M  V30 4659 O 448.438 1.03459 -5.92942 0
M  V30 4660 H 452.264 -0.493605 -2.99662 0
M  V30 4661 H 449.849 -0.307427 -1.46203 0
M  V30 4662 H 451.731 1.82438 -3.79861 0
M  V30 4663 H 450.406 1.91945 -2.60651 0
M  V30 4664 H 449.313 -0.101948 -3.73961 0
M  V30 4665 H 450.646 -0.11445 -4.92067 0
M  V30 4666 N 452.299 1.55045 -0.282633 0
M  V30 4667 C 453.246 2.22822 0.601566 0
M  V30 4668 C 454.216 1.20431 1.14392 0
M  V30 4669 O 455.401 1.48996 1.19184 0
M  V30 4670 C 452.541 2.95873 1.77632 0
M  V30 4671 C 451.654 4.12999 1.26711 0
M  V30 4672 C 450.789 4.73676 2.40426 0
M  V30 4673 C 449.828 5.82981 1.86545 0
M  V30 4674 N 448.965 6.3769 2.93762 0
M  V30 4675 H 453.805 2.97995 0.0169528 0
M  V30 4676 H 451.342 1.471 -0.00339964 0
M  V30 4677 H 453.3 3.36447 2.46697 0
M  V30 4678 H 451.93 2.2311 2.33285 0
M  V30 4679 H 450.982 3.77494 0.469314 0
M  V30 4680 H 452.294 4.91803 0.832518 0
M  V30 4681 H 451.448 5.17008 3.17471 0
M  V30 4682 H 450.187 3.94164 2.87203 0
M  V30 4683 H 449.192 5.39092 1.07983 0
M  V30 4684 H 450.417 6.64366 1.40694 0
M  V30 4685 H 448.363 5.61069 3.39908 0
M  V30 4686 H 448.28 7.11788 2.54744 0
M  V30 4687 H 449.548 6.8568 3.7076 0
M  V30 4688 N 453.777 0.010035 1.57597 0
M  V30 4689 C 455.023 -0.673697 1.91283 0
M  V30 4690 C 455.356 -1.72863 0.884979 0
M  V30 4691 O 454.631 -1.94268 -0.0949487 0
M  V30 4692 C 454.914 -1.30766 3.35518 0
M  V30 4693 C 454.767 -0.263578 4.49027 0
M  V30 4694 C 456.086 -2.23105 3.79358 0
M  V30 4695 H 453.205 -0.243439 0.695634 0
M  V30 4696 H 455.847 0.0633864 1.89894 0
M  V30 4697 H 453.997 -1.93588 3.36832 0
M  V30 4698 H 455.669 0.365738 4.59848 0
M  V30 4699 H 453.912 0.413077 4.31829 0
M  V30 4700 H 454.583 -0.746398 5.4693 0
M  V30 4701 H 457.059 -1.70289 3.79659 0
M  V30 4702 H 455.935 -2.64424 4.81011 0
M  V30 4703 H 456.196 -3.11433 3.13787 0
M  V30 4704 N 455.255 -1.55392 -0.262866 0
M  V30 4705 C 456.185 -1.91978 -1.32917 0
M  V30 4706 C 457.166 -0.7828 -1.51017 0
M  V30 4707 O 458.351 -1.04178 -1.63892 0
M  V30 4708 C 455.481 -2.20055 -2.68687 0
M  V30 4709 C 454.435 -3.35854 -2.65304 0
M  V30 4710 C 453.761 -3.49435 -4.04721 0
M  V30 4711 C 455.061 -4.71977 -2.23685 0
M  V30 4712 H 456.755 -2.81292 -1.02544 0
M  V30 4713 H 454.301 -1.3534 -0.491846 0
M  V30 4714 H 456.254 -2.44237 -3.43404 0
M  V30 4715 H 454.978 -1.27551 -3.00663 0
M  V30 4716 H 453.637 -3.11655 -1.93045 0
M  V30 4717 H 453.285 -2.54379 -4.33936 0
M  V30 4718 H 452.985 -4.27297 -4.0335 0
M  V30 4719 H 454.509 -3.7592 -4.81161 0
M  V30 4720 H 455.923 -4.95637 -2.88127 0
M  V30 4721 H 454.32 -5.52828 -2.33456 0
M  V30 4722 H 455.39 -4.70115 -1.18827 0
M  V30 4723 N 456.733 0.527833 -1.48498 0
M  V30 4724 C 457.696 1.61439 -1.62696 0
M  V30 4725 C 458.696 1.52824 -0.500136 0
M  V30 4726 O 459.886 1.56456 -0.765976 0
M  V30 4727 C 457.018 3.01063 -1.59918 0
M  V30 4728 H 458.211 1.50189 -2.59583 0
M  V30 4729 H 455.764 0.750055 -1.37127 0
M  V30 4730 H 456.499 3.17818 -0.645163 0
M  V30 4731 H 456.284 3.08725 -2.41726 0
M  V30 4732 H 457.774 3.80057 -1.73051 0
M  V30 4733 N 458.211 1.37122 0.776871 0
M  V30 4734 C 459.141 1.35164 1.90402 0
M  V30 4735 C 460.122 0.221069 1.68657 0
M  V30 4736 O 461.307 0.420642 1.8959 0
M  V30 4737 C 458.437 1.15274 3.27611 0
M  V30 4738 C 457.391 2.25289 3.63908 0
M  V30 4739 C 456.717 1.90527 4.99603 0
M  V30 4740 C 458.017 3.67446 3.71188 0
M  V30 4741 H 459.711 2.29482 1.92297 0
M  V30 4742 H 457.257 1.10465 0.923773 0
M  V30 4743 H 459.21 1.12536 4.06096 0
M  V30 4744 H 457.934 0.174102 3.26136 0
M  V30 4745 H 456.593 2.27174 2.87728 0
M  V30 4746 H 456.241 0.91206 4.94662 0
M  V30 4747 H 455.941 2.64193 5.24858 0
M  V30 4748 H 457.465 1.89367 5.80493 0
M  V30 4749 H 458.879 3.67719 4.39836 0
M  V30 4750 H 457.276 4.40123 4.07936 0
M  V30 4751 H 458.346 4.01443 2.71977 0
M  V30 4752 N 459.689 -1.00246 1.21608 0
M  V30 4753 C 460.917 -1.77631 1.06089 0
M  V30 4754 C 461.332 -1.84746 -0.38916 0
M  V30 4755 O 460.689 -1.31068 -1.26994 0
M  V30 4756 C 460.74 -3.21415 1.65453 0
M  V30 4757 O 460.461 -3.14703 3.04785 0
M  V30 4758 C 461.962 -4.15289 1.55079 0
M  V30 4759 H 459.182 -0.558162 0.37242 0
M  V30 4760 H 461.726 -1.26093 1.60999 0
M  V30 4761 H 459.881 -3.70053 1.14629 0
M  V30 4762 H 460.295 -4.05056 3.33212 0
M  V30 4763 H 461.769 -5.13965 2.01355 0
M  V30 4764 H 462.246 -4.36279 0.505665 0
M  V30 4765 H 462.852 -3.72543 2.05163 0
M  V30 4766 N 461.167 -1.02423 -1.1978 0
M  V30 4767 C 462.416 -0.713265 -1.88667 0
M  V30 4768 C 462.729 0.7609 -1.80193 0
M  V30 4769 O 463.935 1.18473 -2.44288 0
M  V30 4770 C 462.391 -1.22545 -3.38394 0
M  V30 4771 C 461.999 -2.72706 -3.55437 0
M  V30 4772 C 463.743 -0.990257 -4.12788 0
M  V30 4773 C 461.65 -3.17367 -4.99031 0
M  V30 4774 H 460.58 -0.263105 -0.706606 0
M  V30 4775 H 463.231 -1.23792 -1.35454 0
M  V30 4776 H 461.613 -0.628732 -3.90977 0
M  V30 4777 H 462.787 -3.37993 -3.13205 0
M  V30 4778 H 461.102 -2.94453 -2.94425 0
M  V30 4779 H 463.699 -1.29926 -5.18675 0
M  V30 4780 H 464.042 0.0730761 -4.16236 0
M  V30 4781 H 464.575 -1.55074 -3.66329 0
M  V30 4782 H 461.314 -4.23009 -5.00743 0
M  V30 4783 H 460.834 -2.56805 -5.42044 0
M  V30 4784 H 462.513 -3.10441 -5.67658 0
M  V30 4785 N 462.645 1.35699 -0.801477 0
M  V30 4786 C 463.893 1.9852 -0.37871 0
M  V30 4787 C 464.214 1.63907 1.05638 0
M  V30 4788 O 463.484 0.919013 1.73006 0
M  V30 4789 H 462.064 0.734322 -0.137042 0
M  V30 4790 H 464.726 1.65697 -1.02619 0
M  V30 4791 H 463.822 3.08382 -0.480284 0
M  V30 4792 N 464.123 0.554532 1.47522 0
M  V30 4793 C 465.071 -0.207765 2.3167 0
M  V30 4794 C 466.065 -0.911914 1.4276 0
M  V30 4795 O 467.271 -0.833504 1.59539 0
M  V30 4796 H 463.646 -0.0858726 0.747081 0
M  V30 4797 H 465.617 0.521178 2.93813 0
M  V30 4798 C 464.366 -1.2263 3.25357 0
M  V30 4799 H 463.689 -0.693887 3.93732 0
M  V30 4800 H 465.129 -1.73062 3.87073 0
M  V30 4801 C 463.588 -2.27278 2.4869 0
M  V30 4802 O 464.118 -3.34156 2.22941 0
M  V30 4803 N 462.324 -2.01134 2.09746 0
M  V30 4804 H 461.871 -1.14232 2.30887 0
M  V30 4805 H 461.829 -2.71369 1.58765 0
M  V30 4806 N 465.601 -1.54893 0.290851 0
M  V30 4807 C 467.012 -1.85584 -0.203816 0
M  V30 4808 C 467.363 -1.21285 -1.54222 0
M  V30 4809 O 466.488 -0.506841 -2.10381 0
M  V30 4810 C 467.083 -3.367 -0.376595 0
M  V30 4811 C 465.642 -3.6746 -0.815485 0
M  V30 4812 C 464.789 -2.77178 0.0821087 0
M  V30 4813 H 467.74 -1.50208 0.512175 0
M  V30 4814 H 467.761 -3.60656 -1.21275 0
M  V30 4815 H 467.273 -3.8347 0.59767 0
M  V30 4816 H 465.374 -3.26201 -1.80066 0
M  V30 4817 H 465.487 -4.7478 -0.641905 0
M  V30 4818 H 463.851 -2.50925 -0.436895 0
M  V30 4819 H 464.634 -3.26767 1.05254 0
M  V30 4820 N 467.08 -0.0183926 -1.57589 0
M  V30 4821 C 467.99 0.982943 -2.13015 0
M  V30 4822 C 469.006 1.36443 -1.07979 0
M  V30 4823 O 470.182 1.44802 -1.3998 0
M  V30 4824 C 467.247 2.25024 -2.63752 0
M  V30 4825 C 466.308 1.93018 -3.83461 0
M  V30 4826 C 465.541 3.13706 -4.31769 0
M  V30 4827 O 465.764 4.2601 -3.79305 0
M  V30 4828 O 464.698 2.96629 -5.23732 0
M  V30 4829 H 468.524 0.541709 -2.9883 0
M  V30 4830 H 466.109 0.201565 -1.48034 0
M  V30 4831 H 467.991 2.99441 -2.96502 0
M  V30 4832 H 466.666 2.68349 -1.81026 0
M  V30 4833 H 465.573 1.16019 -3.55655 0
M  V30 4834 H 466.906 1.54516 -4.67317 0
M  V30 4835 N 468.558 1.5553 0.254621 0
M  V30 4836 C 469.835 1.6774 1.00611 0
M  V30 4837 C 470.215 0.555993 2.03647 0
M  V30 4838 O 469.563 -0.441583 2.24193 0
M  V30 4839 C 469.773 3.07725 1.6464 0
M  V30 4840 C 471.121 3.66074 2.15116 0
M  V30 4841 O 472.145 3.10476 1.74595 0
M  V30 4842 O 471.004 4.63526 2.89493 0
M  V30 4843 H 468.098 0.681958 0.467828 0
M  V30 4844 H 470.644 1.67863 0.24902 0
M  V30 4845 H 469.416 3.80792 0.900734 0
M  V30 4846 H 469.039 3.1158 2.46989 0
M  V30 4847 N 470.036 -0.519951 1.48776 0
M  V30 4848 C 471.313 -1.28123 1.47797 0
M  V30 4849 C 471.693 -2.10196 0.195157 0
M  V30 4850 O 471.041 -2.13167 -0.822925 0
M  V30 4851 C 471.251 -2.15413 2.74587 0
M  V30 4852 C 472.599 -2.75225 3.23321 0
M  V30 4853 O 473.623 -2.25694 2.75574 0
M  V30 4854 O 472.482 -3.65346 4.06429 0
M  V30 4855 H 469.576 -0.578793 0.590701 0
M  V30 4856 H 472.122 -0.535779 1.6102 0
M  V30 4857 H 470.894 -1.54617 3.59457 0
M  V30 4858 H 470.517 -2.97186 2.64132 0
M  V30 4859 N 471.514 -1.37532 -0.769588 0
M  V30 4860 C 472.477 -1.33292 -1.86456 0
M  V30 4861 C 473.477 -0.236537 -1.59051 0
M  V30 4862 O 474.667 -0.492511 -1.67093 0
M  V30 4863 C 471.799 -1.07118 -3.23633 0
M  V30 4864 H 472.992 -2.30692 -1.91628 0
M  V30 4865 H 470.545 -1.22593 -0.969572 0
M  V30 4866 H 471.28 -0.102578 -3.24138 0
M  V30 4867 H 471.065 -1.86479 -3.44917 0
M  V30 4868 H 472.555 -1.06806 -4.03711 0
M  V30 4869 N 472.992 0.995999 -1.22138 0
M  V30 4870 C 474.269 1.70834 -0.952642 0
M  V30 4871 C 474.649 2.04257 0.533119 0
M  V30 4872 O 473.997 1.72343 1.50034 0
M  V30 4873 C 474.207 2.96119 -1.84701 0
M  V30 4874 C 475.555 3.68962 -2.10124 0
M  V30 4875 O 476.579 3.0612 -1.82124 0
M  V30 4876 O 475.438 4.82017 -2.57531 0
M  V30 4877 H 472.532 0.745498 -0.357997 0
M  V30 4878 H 475.078 1.05262 -1.33109 0
M  V30 4879 H 473.85 2.67898 -2.85213 0
M  V30 4880 H 473.473 3.6943 -1.46995 0
M  V30 4881 N 474.47 1.03057 1.19235 0
M  V30 4882 C 475.719 0.72326 1.88287 0
M  V30 4883 C 476.032 -0.751333 1.80594 0
M  V30 4884 O 477.238 -1.17176 2.44912 0
M  V30 4885 C 475.694 1.24338 3.3774 0
M  V30 4886 C 475.302 2.74587 3.53986 0
M  V30 4887 C 477.046 1.01213 4.12257 0
M  V30 4888 C 474.953 3.20009 4.97341 0
M  V30 4889 H 473.883 0.266848 0.705201 0
M  V30 4890 H 476.534 1.24509 1.34795 0
M  V30 4891 H 474.916 0.649457 3.90638 0
M  V30 4892 H 476.09 3.39649 3.11408 0
M  V30 4893 H 474.405 2.9601 2.9286 0
M  V30 4894 H 477.002 1.32675 5.17978 0
M  V30 4895 H 477.345 -0.051001 4.16269 0
M  V30 4896 H 477.878 1.57014 3.65501 0
M  V30 4897 H 474.617 4.25659 4.98493 0
M  V30 4898 H 474.137 2.59676 5.40674 0
M  V30 4899 H 475.816 3.13447 5.66003 0
M  V30 4900 N 475.948 -1.35272 0.808662 0
M  V30 4901 C 477.176 -2.02946 0.402537 0
M  V30 4902 C 477.591 -1.60937 -0.987147 0
M  V30 4903 O 476.948 -0.807917 -1.63643 0
M  V30 4904 C 476.999 -3.58317 0.47868 0
M  V30 4905 O 476.72 -3.98799 1.81358 0
M  V30 4906 C 478.221 -4.43251 0.0656281 0
M  V30 4907 H 475.441 -0.650831 0.163279 0
M  V30 4908 H 477.985 -1.72849 1.09286 0
M  V30 4909 H 476.14 -3.87055 -0.163415 0
M  V30 4910 H 476.554 -4.93451 1.77781 0
M  V30 4911 H 478.028 -5.51738 0.170017 0
M  V30 4912 H 478.505 -4.27913 -0.989278 0
M  V30 4913 H 479.111 -4.19813 0.68096 0
M  V30 4914 N 477.426 -0.562348 -1.47226 0
M  V30 4915 C 478.837 -0.130325 -1.86245 0
M  V30 4916 C 479.188 1.30128 -1.46838 0
M  V30 4917 O 478.313 1.97974 -0.873805 0
M  V30 4918 C 478.908 -0.229738 -3.3802 0
M  V30 4919 C 477.467 0.14728 -3.76112 0
M  V30 4920 C 476.614 -0.574971 -2.71274 0
M  V30 4921 H 479.565 -0.771773 -1.3867 0
M  V30 4922 H 479.586 0.550316 -3.76499 0
M  V30 4923 H 479.098 -1.27178 -3.66671 0
M  V30 4924 H 477.199 1.19023 -3.53078 0
M  V30 4925 H 477.312 -0.214858 -4.78618 0
M  V30 4926 H 475.676 -0.0174756 -2.54694 0
M  V30 4927 H 476.459 -1.61827 -3.02766 0
M  V30 4928 N 478.904 1.54736 -0.299062 0
M  V30 4929 C 479.834 2.26409 0.571085 0
M  V30 4930 C 480.815 1.2629 1.13951 0
M  V30 4931 O 482 1.55059 1.16921 0
M  V30 4932 C 479.13 3.00338 1.74396 0
M  V30 4933 C 478.084 4.07588 1.30599 0
M  V30 4934 C 477.41 4.69222 2.56387 0
M  V30 4935 C 478.71 5.20455 0.438645 0
M  V30 4936 H 480.404 2.99388 -0.0266991 0
M  V30 4937 H 477.95 1.43993 -0.0142812 0
M  V30 4938 H 479.903 3.49198 2.35878 0
M  V30 4939 H 478.627 2.24934 2.36796 0
M  V30 4940 H 477.286 3.59575 0.71424 0
M  V30 4941 H 476.934 3.9046 3.17097 0
M  V30 4942 H 476.634 5.41653 2.27784 0
M  V30 4943 H 478.158 5.20844 3.18675 0
M  V30 4944 H 479.572 5.65221 0.959085 0
M  V30 4945 H 477.969 5.99594 0.246466 0
M  V30 4946 H 479.039 4.8192 -0.536738 0
M  V30 4947 N 480.382 0.0267497 1.57577 0
M  V30 4948 C 481.631 -0.651736 1.9088 0
M  V30 4949 C 481.944 -1.73427 0.904576 0
M  V30 4950 O 483.15 -2.46923 1.12877 0
M  V30 4951 C 481.606 -1.21048 3.38933 0
M  V30 4952 C 481.214 -0.161362 4.47709 0
M  V30 4953 C 482.958 -1.86562 3.81307 0
M  V30 4954 C 480.865 -0.731611 5.86857 0
M  V30 4955 H 479.795 -0.247198 0.712326 0
M  V30 4956 H 482.446 0.0916641 1.83271 0
M  V30 4957 H 480.828 -2.00542 3.41466 0
M  V30 4958 H 482.002 0.61094 4.56732 0
M  V30 4959 H 480.317 0.394877 4.14523 0
M  V30 4960 H 482.914 -2.30178 4.8262 0
M  V30 4961 H 483.257 -2.70735 3.16241 0
M  V30 4962 H 483.79 -1.13762 3.81186 0
M  V30 4963 H 480.529 0.0719329 6.55461 0
M  V30 4964 H 480.049 -1.47245 5.81445 0
M  V30 4965 H 481.728 -1.22208 6.35354 0
M  V30 4966 N 481.861 -1.55662 -0.24637 0
M  V30 4967 C 483.138 -1.68272 -0.997198 0
M  V30 4968 C 483.518 -0.566785 -2.03349 0
M  V30 4969 O 482.866 0.429688 -2.24424 0
M  V30 4970 C 483.076 -3.08594 -1.63006 0
M  V30 4971 C 484.424 -3.6721 -2.13171 0
M  V30 4972 O 485.448 -3.11397 -1.72946 0
M  V30 4973 O 484.307 -4.65054 -2.87031 0
M  V30 4974 H 481.401 -0.684429 -0.464205 0
M  V30 4975 H 483.947 -1.67993 -0.240114 0
M  V30 4976 H 482.719 -3.81264 -0.880527 0
M  V30 4977 H 482.342 -3.12886 -2.45333 0
M  V30 4978 N 483.339 0.512053 -1.4905 0
M  V30 4979 C 484.567 1.29116 -1.61669 0
M  V30 4980 C 484.982 1.86655 -0.283787 0
M  V30 4981 O 484.339 1.67293 0.729331 0
M  V30 4982 C 484.39 2.4293 -2.67707 0
M  V30 4983 O 484.111 1.87758 -3.95826 0
M  V30 4984 C 485.612 3.34476 -2.90931 0
M  V30 4985 H 482.832 0.392009 -0.544583 0
M  V30 4986 H 485.376 0.615881 -1.95006 0
M  V30 4987 H 483.531 3.06308 -2.37179 0
M  V30 4988 H 483.945 2.62393 -4.54148 0
M  V30 4989 H 485.419 4.10642 -3.68886 0
M  V30 4990 H 485.896 3.90801 -2.00427 0
M  V30 4991 H 486.502 2.76874 -3.22832 0
M  V30 4992 N 484.817 1.37938 0.762283 0
M  V30 4993 C 485.764 1.34467 1.87583 0
M  V30 4994 C 486.734 0.208633 1.64785 0
M  V30 4995 O 487.919 0.399494 1.86571 0
M  V30 4996 C 485.059 1.16692 3.24772 0
M  V30 4997 C 484.172 2.39608 3.59461 0
M  V30 4998 C 483.307 2.14631 4.85908 0
M  V30 4999 C 482.346 3.33364 5.13357 0
M  V30 5000 N 481.483 3.07877 6.30996 0
M  V30 5001 H 486.323 2.29669 1.89885 0
M  V30 5002 H 483.86 1.14116 0.928219 0
M  V30 5003 H 485.818 1.04405 4.03925 0
M  V30 5004 H 484.448 0.251333 3.2182 0
M  V30 5005 H 483.5 2.626 2.75219 0
M  V30 5006 H 484.812 3.28128 3.75678 0
M  V30 5007 H 483.966 1.99429 5.72986 0
M  V30 5008 H 482.705 1.23463 4.71814 0
M  V30 5009 H 481.71 3.49094 4.24751 0
M  V30 5010 H 482.935 4.25395 5.29354 0
M  V30 5011 H 480.881 2.19348 6.18241 0
M  V30 5012 H 480.798 3.89944 6.47673 0
M  V30 5013 H 482.066 2.96313 7.20985 0
M  V30 5014 N 486.295 -0.989507 1.22664 0
M  V30 5015 C 487.52 -1.77031 1.08051 0
M  V30 5016 C 487.945 -1.84535 -0.364483 0
M  V30 5017 O 487.303 -1.3003 -1.2634 0
M  V30 5018 C 487.351 -3.18 1.70024 0
M  V30 5019 O 486.455 -4.01161 0.956216 0
M  V30 5020 H 485.796 -0.545008 0.379292 0
M  V30 5021 H 488.326 -1.24277 1.62531 0
M  V30 5022 H 488.336 -3.68616 1.74888 0
M  V30 5023 H 487.011 -3.11853 2.75174 0
M  V30 5024 H 485.588 -3.59687 0.98384 0
M  V30 5025 N 487.773 -1.03688 -1.18687 0
M  V30 5026 C 488.736 -0.629115 -2.20397 0
M  V30 5027 C 489.736 0.311495 -1.57754 0
M  V30 5028 O 490.926 0.0974107 -1.73927 0
M  V30 5029 C 488.058 0.0782231 -3.4081 0
M  V30 5030 H 489.251 -1.52915 -2.57987 0
M  V30 5031 H 486.804 -0.828988 -1.32505 0
M  V30 5032 H 487.539 0.992233 -3.08748 0
M  V30 5033 H 487.324 -0.597776 -3.87517 0
M  V30 5034 H 488.814 0.350156 -4.16129 0
M  V30 5035 N 489.251 1.34841 -0.815825 0
M  V30 5036 C 490.528 1.92908 -0.323416 0
M  V30 5037 C 490.908 1.74479 1.18828 0
M  V30 5038 O 490.256 1.11928 1.99209 0
M  V30 5039 C 490.466 3.40957 -0.744952 0
M  V30 5040 C 491.814 4.18107 -0.739716 0
M  V30 5041 O 492.838 3.49511 -0.68708 0
M  V30 5042 O 491.697 5.40517 -0.806456 0
M  V30 5043 H 488.791 0.822436 -0.0867646 0
M  V30 5044 H 491.337 1.4386 -0.90014 0
M  V30 5045 H 490.109 3.4814 -1.78646 0
M  V30 5046 H 489.732 3.97341 -0.143535 0
M  V30 5047 N 490.729 0.570148 1.46925 0
M  V30 5048 C 491.959 0.0561151 2.06524 0
M  V30 5049 C 492.367 -1.24874 1.42137 0
M  V30 5050 O 491.71 -1.76292 0.516417 0
M  V30 5051 C 491.772 -0.197035 3.5896 0
M  V30 5052 C 491.436 1.02033 4.45464 0
M  V30 5053 C 492.433 1.92921 4.82781 0
M  V30 5054 C 490.118 1.23864 4.86788 0
M  V30 5055 C 492.112 3.03999 5.60235 0
M  V30 5056 C 489.799 2.35249 5.64004 0
M  V30 5057 C 490.797 3.25146 6.0064 0
M  V30 5058 O 490.485 4.34598 6.76299 0
M  V30 5059 H 490.217 0.0487409 0.674241 0
M  V30 5060 H 492.771 0.786915 1.89728 0
M  V30 5061 H 491.001 -0.982299 3.74016 0
M  V30 5062 H 492.69 -0.658032 4.00531 0
M  V30 5063 H 493.456 1.77265 4.51444 0
M  V30 5064 H 489.335 0.54805 4.57731 0
M  V30 5065 H 492.879 3.74192 5.8875 0
M  V30 5066 H 488.776 2.50873 5.94755 0
M  V30 5067 H 489.544 4.32808 6.94708 0
M  V30 5068 N 492.207 -1.54576 0.307264 0
M  V30 5069 C 493.453 -2.0056 -0.300612 0
M  V30 5070 C 493.786 -1.1953 -1.53057 0
M  V30 5071 O 493.061 -0.27337 -1.92569 0
M  V30 5072 C 493.344 -3.54167 -0.650987 0
M  V30 5073 C 493.197 -4.45933 0.588539 0
M  V30 5074 C 494.516 -4.14645 -1.47506 0
M  V30 5075 H 491.635 -0.729075 -0.107788 0
M  V30 5076 H 494.277 -1.85286 0.420606 0
M  V30 5077 H 492.427 -3.67313 -1.26544 0
M  V30 5078 H 494.099 -4.44683 1.22697 0
M  V30 5079 H 492.342 -4.16274 1.22058 0
M  V30 5080 H 493.013 -5.51189 0.299153 0
M  V30 5081 H 495.489 -4.04973 -0.955821 0
M  V30 5082 H 494.365 -5.22269 -1.68899 0
M  V30 5083 H 494.626 -3.66921 -2.4662 0
M  V30 5084 N 493.685 -0.035106 -1.57561 0
M  V30 5085 C 494.595 0.960295 -2.14046 0
M  V30 5086 C 495.611 1.3529 -1.0942 0
M  V30 5087 O 496.787 1.43309 -1.41508 0
M  V30 5088 C 493.852 2.22214 -2.66124 0
M  V30 5089 C 492.913 1.8894 -3.85487 0
M  V30 5090 C 492.146 3.09109 -4.35072 0
M  V30 5091 O 492.369 4.21963 -3.83802 0
M  V30 5092 O 491.303 2.91058 -5.26848 0
M  V30 5093 H 495.129 0.509983 -2.99387 0
M  V30 5094 H 492.714 0.185853 -1.48239 0
M  V30 5095 H 494.596 2.96279 -2.99661 0
M  V30 5096 H 493.271 2.66414 -1.83862 0
M  V30 5097 H 492.178 1.12241 -3.56865 0
M  V30 5098 H 493.511 1.49551 -4.6893 0
M  V30 5099 N 495.163 1.55791 0.238111 0
M  V30 5100 C 496.411 1.77681 0.963001 0
M  V30 5101 C 496.732 0.600674 1.85518 0
M  V30 5102 O 496.002 -0.383182 1.92116 0
M  V30 5103 H 494.582 0.655315 0.358568 0
M  V30 5104 H 497.244 1.93239 0.253945 0
M  V30 5105 H 496.34 2.69177 1.57956 0
M  V30 5106 N 496.642 -0.504142 1.49319 0
M  V30 5107 C 497.572 -1.61473 1.68667 0
M  V30 5108 C 498.553 -1.61455 0.535378 0
M  V30 5109 O 499.738 -1.78245 0.770868 0
M  V30 5110 C 496.868 -2.99971 1.75028 0
M  V30 5111 C 495.822 -3.14854 2.89916 0
M  V30 5112 C 495.148 -4.54671 2.81387 0
M  V30 5113 C 496.448 -2.95176 4.30893 0
M  V30 5114 H 498.142 -1.45535 2.61648 0
M  V30 5115 H 495.688 -0.698711 1.25913 0
M  V30 5116 H 497.641 -3.77562 1.8715 0
M  V30 5117 H 496.365 -3.1699 0.786441 0
M  V30 5118 H 495.024 -2.39687 2.77391 0
M  V30 5119 H 494.672 -4.68562 1.82917 0
M  V30 5120 H 494.372 -4.6557 3.58494 0
M  V30 5121 H 495.896 -5.34327 2.95512 0
M  V30 5122 H 497.31 -3.62538 4.44116 0
M  V30 5123 H 495.707 -3.17549 5.09198 0
M  V30 5124 H 496.777 -1.91332 4.45556 0
M  V30 5125 N 498.12 -1.38341 -0.754957 0
M  V30 5126 C 499.369 -1.33791 -1.5094 0
M  V30 5127 C 499.682 0.0699267 -1.95475 0
M  V30 5128 O 500.888 0.237956 -2.70455 0
M  V30 5129 C 499.344 -2.34934 -2.72643 0
M  V30 5130 C 498.952 -3.81332 -2.35138 0
M  V30 5131 C 500.696 -2.39425 -3.50536 0
M  V30 5132 C 498.603 -4.74164 -3.53444 0
M  V30 5133 H 497.533 -0.497314 -0.566741 0
M  V30 5134 H 500.184 -1.63888 -0.825403 0
M  V30 5135 H 498.566 -1.97878 -3.43017 0
M  V30 5136 H 499.74 -4.27319 -1.7244 0
M  V30 5137 H 498.055 -3.79946 -1.70382 0
M  V30 5138 H 500.652 -3.0598 -4.38498 0
M  V30 5139 H 500.995 -1.41278 -3.91594 0
M  V30 5140 H 501.528 -2.75274 -2.87174 0
M  V30 5141 H 498.267 -5.73501 -3.17453 0
M  V30 5142 H 497.787 -4.3287 -4.15191 0
M  V30 5143 H 499.466 -4.92111 -4.20043 0
M  V30 5144 N 499.598 0.982988 -1.23187 0
M  V30 5145 C 500.546 2.09616 -1.00817 0
M  V30 5146 C 501.54 1.6932 0.0519995 0
M  V30 5147 O 502.746 1.79715 -0.101284 0
M  V30 5148 H 499.121 0.685628 -0.308899 0
M  V30 5149 H 501.092 2.25652 -1.95253 0
M  V30 5150 C 499.841 3.42249 -0.613243 0
M  V30 5151 H 499.164 3.73705 -1.42073 0
M  V30 5152 H 500.604 4.21086 -0.496208 0
M  V30 5153 C 499.063 3.30002 0.678233 0
M  V30 5154 O 499.593 3.6263 1.72807 0
M  V30 5155 N 497.799 2.83164 0.653165 0
M  V30 5156 H 497.346 2.56811 -0.201492 0
M  V30 5157 H 497.304 2.75352 1.51752 0
M  V30 5158 N 501.076 1.04316 1.18135 0
M  V30 5159 C 502.353 0.662166 1.84051 0
M  V30 5160 C 502.733 -0.858169 1.9287 0
M  V30 5161 O 502.081 -1.76062 1.45652 0
M  V30 5162 C 502.291 1.3409 3.22212 0
M  V30 5163 C 503.639 1.4733 3.9822 0
M  V30 5164 O 504.663 1.29921 3.31661 0
M  V30 5165 O 503.522 1.75722 5.17479 0
M  V30 5166 H 500.616 0.232005 0.79379 0
M  V30 5167 H 503.162 1.1422 1.25506 0
M  V30 5168 H 501.934 2.37853 3.10711 0
M  V30 5169 H 501.557 0.849649 3.88416 0
M  V30 5170 N 502.554 -1.34406 0.822964 0
M  V30 5171 C 503.517 -2.2783 0.250271 0
M  V30 5172 C 504.517 -1.50288 -0.571854 0
M  V30 5173 O 505.707 -1.69825 -0.387952 0
M  V30 5174 C 502.839 -3.34663 -0.649137 0
M  V30 5175 H 504.032 -2.79992 1.07444 0
M  V30 5176 H 501.585 -1.44539 0.594829 0
M  V30 5177 H 502.32 -2.87714 -1.49637 0
M  V30 5178 H 502.105 -3.92052 -0.0611199 0
M  V30 5179 H 503.595 -4.04349 -1.04363 0
M  V30 5180 N 504.032 -0.577932 -1.46621 0
M  V30 5181 C 504.98 0.170882 -2.31971 0
M  V30 5182 C 505.974 0.889086 -1.44193 0
M  V30 5183 O 507.18 0.808017 -1.60845 0
M  V30 5184 H 503.555 0.0739763 -0.748353 0
M  V30 5185 H 505.526 -0.567856 -2.92947 0
M  V30 5186 C 504.275 1.17438 -3.27267 0
M  V30 5187 H 503.598 0.63116 -3.94787 0
M  V30 5188 H 505.038 1.66882 -3.89778 0
M  V30 5189 C 503.497 2.23292 -2.52274 0
M  V30 5190 O 504.027 3.30567 -2.28229 0
M  V30 5191 N 502.233 1.97772 -2.12919 0
M  V30 5192 H 501.78 1.10545 -2.32675 0
M  V30 5193 H 501.738 2.68809 -1.63062 0
M  V30 5194 N 505.51 1.54411 -0.315457 0
M  V30 5195 C 506.787 1.92562 0.343398 0
M  V30 5196 C 507.167 1.24423 1.70535 0
M  V30 5197 O 506.515 0.385051 2.25232 0
M  V30 5198 C 506.725 3.46168 0.443687 0
M  V30 5199 C 508.073 4.18659 0.707783 0
M  V30 5200 O 509.097 3.52281 0.52693 0
M  V30 5201 O 507.956 5.36198 1.05612 0
M  V30 5202 H 505.05 0.80379 0.194552 0
M  V30 5203 H 507.596 1.65738 -0.364577 0
M  V30 5204 H 506.368 3.8792 -0.513172 0
M  V30 5205 H 505.991 3.79073 1.19956 0
M  V30 5206 N 506.988 0.0434614 1.5754 0
M  V30 5207 C 507.935 -0.93356 2.11077 0
M  V30 5208 C 508.905 -1.31383 1.01626 0
M  V30 5209 O 510.09 -1.40465 1.29129 0
M  V30 5210 C 507.23 -2.20578 2.65404 0
M  V30 5211 C 506.343 -1.88068 3.88914 0
M  V30 5212 C 505.478 -3.09691 4.31584 0
M  V30 5213 C 504.517 -2.73067 5.47815 0
M  V30 5214 N 503.654 -3.87359 5.85574 0
M  V30 5215 H 508.494 -0.470118 2.94268 0
M  V30 5216 H 506.031 -0.220434 1.45439 0
M  V30 5217 H 507.989 -2.95011 2.94999 0
M  V30 5218 H 506.619 -2.64513 1.85021 0
M  V30 5219 H 505.671 -1.03816 3.6596 0
M  V30 5220 H 506.983 -1.57104 4.73413 0
M  V30 5221 H 506.137 -3.92431 4.62691 0
M  V30 5222 H 504.876 -3.43827 3.45882 0
M  V30 5223 H 503.881 -1.88742 5.16388 0
M  V30 5224 H 505.106 -2.40131 6.35227 0
M  V30 5225 H 503.052 -4.21311 5.02825 0
M  V30 5226 H 502.969 -3.60068 6.64746 0
M  V30 5227 H 504.237 -4.70761 6.21292 0
M  V30 5228 N 508.466 -1.55915 -0.229846 0
M  V30 5229 C 509.714 -1.7819 -0.953565 0
M  V30 5230 C 510.035 -0.610504 -1.85197 0
M  V30 5231 O 509.305 0.372988 -1.92316 0
M  V30 5232 H 507.885 -0.657208 -0.355087 0
M  V30 5233 H 510.547 -1.9337 -0.243693 0
M  V30 5234 H 509.643 -2.70011 -1.56527 0
M  V30 5235 N 509.944 0.496216 -1.49584 0
M  V30 5236 C 510.907 1.57952 -1.66084 0
M  V30 5237 C 511.907 1.51729 -0.53244 0
M  V30 5238 O 513.097 1.54796 -0.79899 0
M  V30 5239 C 510.229 2.97604 -1.66268 0
M  V30 5240 H 511.422 1.44649 -2.6271 0
M  V30 5241 H 508.975 0.7208 -1.38687 0
M  V30 5242 H 509.71 3.16378 -0.712432 0
M  V30 5243 H 509.495 3.03528 -2.4822 0
M  V30 5244 H 510.985 3.76301 -1.81073 0
M  V30 5245 N 511.423 1.38739 0.74761 0
M  V30 5246 C 512.386 1.36241 1.84312 0
M  V30 5247 C 513.386 0.261811 1.58654 0
M  V30 5248 O 514.576 0.519031 1.66288 0
M  V30 5249 C 511.708 1.12253 3.21888 0
M  V30 5250 H 512.901 2.33712 1.87933 0
M  V30 5251 H 510.454 1.2412 0.949946 0
M  V30 5252 H 511.189 0.154133 3.23934 0
M  V30 5253 H 510.974 1.91943 3.41907 0
M  V30 5254 H 512.464 1.13215 4.0196 0
M  V30 5255 N 512.901 -0.976442 1.23707 0
M  V30 5256 C 513.864 -2.0511 1.02287 0
M  V30 5257 C 514.864 -1.60791 -0.0167195 0
M  V30 5258 O 516.054 -1.72761 0.223408 0
M  V30 5259 C 513.186 -3.36458 0.548507 0
M  V30 5260 H 514.379 -2.25545 1.9766 0
M  V30 5261 H 511.932 -1.15042 1.05806 0
M  V30 5262 H 512.667 -3.21713 -0.408818 0
M  V30 5263 H 512.452 -3.69967 1.29874 0
M  V30 5264 H 513.942 -4.15489 0.419406 0
M  V30 5265 N 514.379 -1.04941 -1.1758 0
M  V30 5266 C 515.309 -0.669172 -2.23706 0
M  V30 5267 C 516.29 0.331835 -1.66832 0
M  V30 5268 O 517.475 0.209988 -1.93061 0
M  V30 5269 C 514.605 -0.0404889 -3.47276 0
M  V30 5270 C 513.559 -0.965983 -4.16957 0
M  V30 5271 C 512.885 -0.201312 -5.34321 0
M  V30 5272 C 514.185 -2.28902 -4.69469 0
M  V30 5273 H 515.879 -1.55639 -2.55767 0
M  V30 5274 H 513.425 -0.749793 -1.22939 0
M  V30 5275 H 515.378 0.237298 -4.20731 0
M  V30 5276 H 514.102 0.881658 -3.14475 0
M  V30 5277 H 512.761 -1.22829 -3.45411 0
M  V30 5278 H 512.409 0.723519 -4.97769 0
M  V30 5279 H 512.109 -0.817968 -5.81879 0
M  V30 5280 H 513.633 0.0692499 -6.10561 0
M  V30 5281 H 515.047 -2.07132 -5.34574 0
M  V30 5282 H 513.444 -2.85942 -5.27596 0
M  V30 5283 H 514.514 -2.92937 -3.86414 0
M  V30 5284 N 515.857 1.33968 -0.830081 0
M  V30 5285 C 517.085 2.0228 -0.434773 0
M  V30 5286 C 517.5 1.62487 0.961419 0
M  V30 5287 O 516.857 0.833849 1.62337 0
M  V30 5288 C 516.908 3.5751 -0.535625 0
M  V30 5289 O 516.629 3.95864 -1.87679 0
M  V30 5290 C 518.13 4.43091 -0.136137 0
M  V30 5291 H 515.35 0.648151 -0.173613 0
M  V30 5292 H 517.894 1.71089 -1.12022 0
M  V30 5293 H 516.049 3.87266 0.101817 0
M  V30 5294 H 516.463 4.9056 -1.85609 0
M  V30 5295 H 517.937 5.51398 -0.257772 0
M  V30 5296 H 518.414 4.29433 0.921076 0
M  V30 5297 H 519.02 4.18677 -0.747662 0
M  V30 5298 N 517.335 0.585699 1.46312 0
M  V30 5299 C 518.245 -0.148236 2.34131 0
M  V30 5300 C 519.261 -0.882972 1.49932 0
M  V30 5301 O 520.437 -0.845484 1.82794 0
M  V30 5302 C 517.502 -1.14714 3.27172 0
M  V30 5303 C 516.563 -0.416746 4.27272 0
M  V30 5304 C 515.796 -1.36806 5.15868 0
M  V30 5305 O 516.019 -2.60475 5.07454 0
M  V30 5306 O 514.953 -0.877018 5.95476 0
M  V30 5307 H 518.779 0.572882 2.98248 0
M  V30 5308 H 516.364 0.346082 1.45336 0
M  V30 5309 H 518.246 -1.72303 3.84564 0
M  V30 5310 H 516.921 -1.84967 2.65648 0
M  V30 5311 H 515.828 0.201061 3.73559 0
M  V30 5312 H 517.161 0.244872 4.9159 0
M  V30 5313 N 518.813 -1.54241 0.323641 0
M  V30 5314 C 520.062 -1.9975 -0.279806 0
M  V30 5315 C 520.375 -1.2156 -1.5324 0
M  V30 5316 O 521.581 -1.57447 -2.21185 0
M  V30 5317 C 520.037 -3.55686 -0.549115 0
M  V30 5318 C 519.645 -4.4271 0.686432 0
M  V30 5319 C 521.389 -4.09663 -1.11251 0
M  V30 5320 C 519.296 -5.90119 0.389022 0
M  V30 5321 H 518.226 -0.746177 -0.10833 0
M  V30 5322 H 520.877 -1.78248 0.435877 0
M  V30 5323 H 519.259 -3.73176 -1.32499 0
M  V30 5324 H 520.433 -4.36996 1.46188 0
M  V30 5325 H 518.748 -3.99623 1.17005 0
M  V30 5326 H 521.345 -5.17386 -1.34965 0
M  V30 5327 H 521.688 -3.61651 -2.06191 0
M  V30 5328 H 522.221 -3.95806 -0.39782 0
M  V30 5329 H 518.96 -6.42326 1.30759 0
M  V30 5330 H 518.48 -5.98785 -0.348722 0
M  V30 5331 H 520.159 -6.47 -0.0011164 0
M  V30 5332 N 520.291 -0.0518155 -1.57515 0
M  V30 5333 C 521.238 0.922352 -2.11569 0
M  V30 5334 C 522.208 1.30842 -1.02321 0
M  V30 5335 O 523.393 1.39778 -1.29872 0
M  V30 5336 C 520.533 2.19167 -2.6657 0
M  V30 5337 C 519.646 1.86003 -3.89906 0
M  V30 5338 C 518.781 3.07398 -4.33221 0
M  V30 5339 C 517.82 2.70158 -5.49255 0
M  V30 5340 N 516.957 3.84248 -5.8762 0
M  V30 5341 H 521.797 0.454506 -2.94514 0
M  V30 5342 H 519.334 0.212718 -1.45554 0
M  V30 5343 H 521.292 2.93443 -2.96559 0
M  V30 5344 H 519.922 2.63528 -1.86421 0
M  V30 5345 H 518.974 1.01874 -3.66505 0
M  V30 5346 H 520.286 1.54592 -4.74239 0
M  V30 5347 H 519.44 3.89972 -4.64765 0
M  V30 5348 H 518.179 3.41988 -3.477 0
M  V30 5349 H 517.184 1.86001 -5.17382 0
M  V30 5350 H 518.409 2.36759 -6.36492 0
M  V30 5351 H 516.355 4.18638 -5.05053 0
M  V30 5352 H 516.272 3.56538 -6.66646 0
M  V30 5353 H 517.54 4.6746 -6.2378 0
M  V30 5354 N 521.769 1.56035 0.221574 0
M  V30 5355 C 523.185 1.49026 0.571271 0
M  V30 5356 C 523.385 0.746912 1.87146 0
M  V30 5357 O 522.441 0.286566 2.50869 0
M  V30 5358 C 523.754 2.93579 0.650522 0
M  V30 5359 C 525.302 3.04099 0.741151 0
M  V30 5360 C 525.777 4.5001 0.851747 0
M  V30 5361 N 527.268 4.54053 0.915968 0
M  V30 5362 C 528.003 5.64232 1.02125 0
M  V30 5363 N 527.499 6.84164 1.09049 0
M  V30 5364 N 529.292 5.52084 1.05639 0
M  V30 5365 H 521.443 2.02791 -0.63162 0
M  V30 5366 H 523.706 0.921736 -0.221602 0
M  V30 5367 H 523.412 3.50912 -0.235253 0
M  V30 5368 H 523.286 3.45476 1.51413 0
M  V30 5369 H 525.673 2.4683 1.61737 0
M  V30 5370 H 525.754 2.55371 -0.148128 0
M  V30 5371 H 525.398 5.07896 -0.0200117 0
M  V30 5372 H 525.328 4.96444 1.75644 0
M  V30 5373 H 527.819 3.67683 0.872782 0
M  V30 5374 H 528.132 7.63883 1.1706 0
M  V30 5375 H 526.477 6.86875 1.05962 0
M  V30 5376 H 529.668 4.57317 0.998953 0
M  V30 5377 H 529.841 6.37983 1.13498 0
M  V30 5378 N 523.247 -0.488276 1.49845 0
M  V30 5379 C 524.157 -1.61451 1.70207 0
M  V30 5380 C 525.173 -1.63877 0.584846 0
M  V30 5381 O 526.349 -1.82063 0.861107 0
M  V30 5382 C 523.414 -2.9776 1.77594 0
M  V30 5383 C 522.475 -3.05861 3.01243 0
M  V30 5384 C 521.708 -4.35668 3.08268 0
M  V30 5385 O 521.931 -5.25197 2.22541 0
M  V30 5386 O 520.865 -4.49005 4.00847 0
M  V30 5387 H 524.691 -1.47199 2.65643 0
M  V30 5388 H 522.276 -0.665939 1.33737 0
M  V30 5389 H 524.158 -3.7875 1.84732 0
M  V30 5390 H 522.833 -3.12248 0.8534 0
M  V30 5391 H 521.74 -2.24012 2.99616 0
M  V30 5392 H 523.073 -2.96304 3.9302 0
M  V30 5393 N 524.725 -1.39134 -0.740242 0
M  V30 5394 C 525.973 -1.35803 -1.49673 0
M  V30 5395 C 526.294 0.0470897 -1.94943 0
M  V30 5396 O 525.564 0.997347 -1.68611 0
M  V30 5397 H 524.144 -0.499736 -0.555224 0
M  V30 5398 H 526.806 -1.73947 -0.879107 0
M  V30 5399 H 525.902 -2.0174 -2.38133 0
M  V30 5400 N 526.204 0.969867 -1.24223 0
M  V30 5401 C 527.152 2.08535 -1.03034 0
M  V30 5402 C 528.146 1.69366 0.0340379 0
M  V30 5403 O 529.352 1.79597 -0.12034 0
M  V30 5404 H 525.727 0.682313 -0.316154 0
M  V30 5405 H 527.698 2.23569 -1.97635 0
M  V30 5406 C 526.447 3.4158 -0.649509 0
M  V30 5407 H 525.77 3.72177 -1.46028 0
M  V30 5408 H 527.21 4.20536 -0.540841 0
M  V30 5409 C 525.669 3.30703 0.643194 0
M  V30 5410 O 526.199 3.64443 1.68951 0
M  V30 5411 N 524.405 2.83841 0.623095 0
M  V30 5412 H 523.952 2.56583 -0.228719 0
M  V30 5413 H 523.91 2.76946 1.48823 0
M  V30 5414 N 527.682 1.05563 1.17022 0
M  V30 5415 C 528.612 0.681026 2.23348 0
M  V30 5416 C 529.593 -0.322983 1.67005 0
M  V30 5417 O 530.778 -0.199746 1.9317 0
M  V30 5418 C 527.908 0.0589053 3.4725 0
M  V30 5419 C 526.862 0.988082 4.16438 0
M  V30 5420 C 526.188 0.229646 5.34207 0
M  V30 5421 C 527.488 2.31388 4.68249 0
M  V30 5422 H 529.182 1.56993 2.54938 0
M  V30 5423 H 526.728 0.756302 1.2254 0
M  V30 5424 H 528.681 -0.214982 4.20851 0
M  V30 5425 H 527.405 -0.864968 3.14938 0
M  V30 5426 H 526.064 1.24659 3.44754 0
M  V30 5427 H 525.712 -0.697111 4.98146 0
M  V30 5428 H 525.412 0.848815 5.81437 0
M  V30 5429 H 526.936 -0.0368694 6.10589 0
M  V30 5430 H 528.35 2.09964 5.33468 0
M  V30 5431 H 526.747 2.88736 5.26072 0
M  V30 5432 H 527.817 2.94982 3.84855 0
M  V30 5433 N 529.16 -1.33526 0.837174 0
M  V30 5434 C 530.409 -1.97098 0.428387 0
M  V30 5435 C 530.722 -1.67062 -1.01734 0
M  V30 5436 O 531.928 -2.24235 -1.53072 0
M  V30 5437 C 530.384 -3.52725 0.715075 0
M  V30 5438 C 529.992 -3.9164 2.17537 0
M  V30 5439 C 531.736 -4.22857 0.373154 0
M  V30 5440 C 529.643 -5.40237 2.40619 0
M  V30 5441 H 528.573 -0.737589 0.156455 0
M  V30 5442 H 531.224 -1.52169 1.02552 0
M  V30 5443 H 529.606 -3.95971 0.0475904 0
M  V30 5444 H 530.78 -3.59456 2.88319 0
M  V30 5445 H 529.095 -3.34485 2.4801 0
M  V30 5446 H 531.692 -5.32133 0.523264 0
M  V30 5447 H 532.035 -4.10647 -0.683708 0
M  V30 5448 H 532.568 -3.85135 0.995801 0
M  V30 5449 H 529.307 -5.57449 3.44864 0
M  V30 5450 H 528.827 -5.73887 1.74396 0
M  V30 5451 H 530.506 -6.07102 2.23688 0
M  V30 5452 N 530.638 -0.59345 -1.46 0
M  V30 5453 C 531.878 -0.0859747 -2.04219 0
M  V30 5454 C 532.242 1.25432 -1.45364 0
M  V30 5455 O 533.443 1.85168 -1.9485 0
M  V30 5456 C 531.714 -0.0324314 -3.57385 0
M  V30 5457 S 533.273 0.415908 -4.36824 0
M  V30 5458 H 530.091 -0.0426872 -0.709717 0
M  V30 5459 H 532.693 -0.788369 -1.78899 0
M  V30 5460 H 531.397 -1.01166 -3.97735 0
M  V30 5461 H 530.928 0.6924 -3.87259 0
M  V30 5462 H 532.943 1.66844 -4.67309 0
M  V30 5463 N 532.116 1.54067 -0.331816 0
M  V30 5464 C 533.527 1.86059 0.15454 0
M  V30 5465 C 533.878 1.25331 1.50952 0
M  V30 5466 O 533.003 0.562441 2.08963 0
M  V30 5467 C 533.598 3.37581 0.287192 0
M  V30 5468 C 532.157 3.69493 0.717773 0
M  V30 5469 C 531.304 2.76863 -0.155569 0
M  V30 5470 H 534.255 1.48797 -0.55182 0
M  V30 5471 H 534.276 3.63744 1.11671 0
M  V30 5472 H 533.788 3.81751 -0.699131 0
M  V30 5473 H 531.889 3.3086 1.71354 0
M  V30 5474 H 532.002 4.76315 0.5158 0
M  V30 5475 H 530.366 2.51995 0.370213 0
M  V30 5476 H 531.149 3.23861 -1.13881 0
M  V30 5477 N 533.594 0.0601682 1.57485 0
M  V30 5478 C 534.843 -0.611101 1.9222 0
M  V30 5479 C 535.156 -1.71469 0.941159 0
M  V30 5480 O 536.362 -2.44473 1.18089 0
M  V30 5481 C 534.818 -1.13832 3.41424 0
M  V30 5482 C 534.426 -0.0663596 4.47951 0
M  V30 5483 C 536.17 -1.78432 3.85178 0
M  V30 5484 C 534.077 -0.606965 5.88277 0
M  V30 5485 H 533.007 -0.232033 0.71741 0
M  V30 5486 H 535.658 0.130518 1.83035 0
M  V30 5487 H 534.04 -1.93254 3.45643 0
M  V30 5488 H 535.214 0.707682 4.55333 0
M  V30 5489 H 533.529 0.482715 4.13593 0
M  V30 5490 H 536.126 -2.1989 4.87394 0
M  V30 5491 H 536.469 -2.63966 3.21913 0
M  V30 5492 H 537.002 -1.05651 3.83514 0
M  V30 5493 H 533.741 0.21095 6.5516 0
M  V30 5494 H 533.261 -1.34879 5.84438 0
M  V30 5495 H 534.94 -1.08704 6.37803 0
M  V30 5496 N 535.072 -1.5615 -0.213296 0
M  V30 5497 C 536.002 -1.96109 -1.26742 0
M  V30 5498 C 536.983 -0.830448 -1.48451 0
M  V30 5499 O 538.168 -1.09339 -1.60495 0
M  V30 5500 C 535.298 -2.28492 -2.61551 0
M  V30 5501 C 534.252 -3.44124 -2.54485 0
M  V30 5502 C 533.578 -3.62134 -3.93399 0
M  V30 5503 C 534.878 -4.78855 -2.08556 0
M  V30 5504 H 536.572 -2.84412 -0.935434 0
M  V30 5505 H 534.118 -1.36836 -0.44854 0
M  V30 5506 H 536.071 -2.55039 -3.3546 0
M  V30 5507 H 534.795 -1.37052 -2.96453 0
M  V30 5508 H 533.454 -3.17639 -1.83033 0
M  V30 5509 H 533.102 -2.68055 -4.25623 0
M  V30 5510 H 532.802 -4.39913 -3.89551 0
M  V30 5511 H 534.326 -3.91038 -4.68958 0
M  V30 5512 H 535.74 -5.04552 -2.72213 0
M  V30 5513 H 534.137 -5.59975 -2.1575 0
M  V30 5514 H 535.207 -4.73657 -1.03811 0
M  V30 5515 N 536.55 0.480323 -1.50102 0
M  V30 5516 C 537.797 1.23307 -1.60629 0
M  V30 5517 C 538.125 1.92135 -0.302375 0
M  V30 5518 O 537.38 1.82321 0.711154 0
M  V30 5519 C 537.679 2.30708 -2.72963 0
M  V30 5520 C 537.345 1.79195 -4.13763 0
M  V30 5521 C 536.007 1.64867 -4.52076 0
M  V30 5522 C 538.359 1.40878 -5.018 0
M  V30 5523 C 535.687 1.10631 -5.76175 0
M  V30 5524 C 538.039 0.880872 -6.26437 0
M  V30 5525 C 536.703 0.724146 -6.6356 0
M  V30 5526 H 535.973 0.451211 -0.587784 0
M  V30 5527 H 538.62 0.53051 -1.84005 0
M  V30 5528 H 536.925 3.06834 -2.43639 0
M  V30 5529 H 538.622 2.88692 -2.78313 0
M  V30 5530 H 535.212 1.91313 -3.83533 0
M  V30 5531 H 539.396 1.50786 -4.7284 0
M  V30 5532 H 534.652 0.972263 -6.0362 0
M  V30 5533 H 538.826 0.575269 -6.9402 0
M  V30 5534 H 536.453 0.301722 -7.59601 0
M  V30 5535 N 538.028 1.39524 0.732853 0
M  V30 5536 C 539.305 1.27373 1.48444 0
M  V30 5537 C 539.685 -0.115725 2.10783 0
M  V30 5538 O 539.033 -1.12713 1.98766 0
M  V30 5539 C 539.243 2.39966 2.53412 0
M  V30 5540 C 540.591 2.79384 3.19733 0
M  V30 5541 O 541.615 2.39431 2.63725 0
M  V30 5542 O 540.474 3.48353 4.21085 0
M  V30 5543 H 537.568 0.499272 0.659285 0
M  V30 5544 H 540.114 1.51403 0.766496 0
M  V30 5545 H 538.886 3.32845 2.05742 0
M  V30 5546 H 538.509 2.17612 3.32762 0
M  V30 5547 N 539.506 -0.963266 1.24736 0
M  V30 5548 C 540.453 -2.05857 1.04363 0
M  V30 5549 C 541.423 -1.6604 -0.0444951 0
M  V30 5550 O 542.608 -1.90477 0.110999 0
M  V30 5551 C 539.748 -3.38745 0.659235 0
M  V30 5552 C 538.861 -3.9173 1.82131 0
M  V30 5553 C 537.996 -5.12906 1.38208 0
M  V30 5554 C 537.035 -5.58098 2.51382 0
M  V30 5555 N 536.172 -6.7049 2.08295 0
M  V30 5556 H 541.012 -2.22616 1.98107 0
M  V30 5557 H 538.549 -1.09103 0.986661 0
M  V30 5558 H 540.507 -4.15107 0.417371 0
M  V30 5559 H 539.137 -3.21898 -0.241201 0
M  V30 5560 H 538.189 -3.11966 2.17672 0
M  V30 5561 H 539.501 -4.21225 2.67153 0
M  V30 5562 H 538.655 -5.96657 1.09935 0
M  V30 5563 H 537.394 -4.85105 0.502456 0
M  V30 5564 H 536.399 -4.72917 2.80409 0
M  V30 5565 H 537.624 -5.87911 3.39909 0
M  V30 5566 H 535.57 -6.44416 1.22737 0
M  V30 5567 H 535.487 -6.99458 2.86869 0
M  V30 5568 H 536.755 -7.57672 1.83175 0
M  V30 5569 N 540.985 -1.06182 -1.16461 0
M  V30 5570 C 542.231 -0.779015 -1.87241 0
M  V30 5571 C 542.564 0.692715 -1.81425 0
M  V30 5572 O 541.839 1.5074 -1.22913 0
M  V30 5573 C 542.122 -1.2728 -3.36856 0
M  V30 5574 C 541.975 -2.80821 -3.51368 0
M  V30 5575 C 543.294 -0.879799 -4.31216 0
M  V30 5576 H 540.413 -0.284464 -0.679889 0
M  V30 5577 H 543.055 -1.31755 -1.36896 0
M  V30 5578 H 541.205 -0.814673 -3.79862 0
M  V30 5579 H 542.877 -3.34833 -3.17308 0
M  V30 5580 H 541.12 -3.19606 -2.93316 0
M  V30 5581 H 541.791 -3.10435 -4.56436 0
M  V30 5582 H 544.267 -1.27436 -3.96105 0
M  V30 5583 H 543.143 -1.25278 -5.34412 0
M  V30 5584 H 543.404 0.215372 -4.41575 0
M  V30 5585 N 542.463 1.3308 -0.844243 0
M  V30 5586 C 543.691 2.01808 -0.456203 0
M  V30 5587 C 544.106 1.63498 0.944131 0
M  V30 5588 O 543.463 0.85102 1.61443 0
M  V30 5589 C 543.514 3.56922 -0.573513 0
M  V30 5590 O 543.235 3.93851 -1.91868 0
M  V30 5591 C 544.736 4.42922 -0.183125 0
M  V30 5592 H 541.956 0.646273 -0.180477 0
M  V30 5593 H 544.5 1.69891 -1.1383 0
M  V30 5594 H 542.655 3.87352 0.0607367 0
M  V30 5595 H 543.069 4.88564 -1.90802 0
M  V30 5596 H 544.543 5.51093 -0.316241 0
M  V30 5597 H 545.02 4.30386 0.875477 0
M  V30 5598 H 545.626 4.1786 -0.792027 0
M  V30 5599 N 543.941 0.601185 1.45683 0
M  V30 5600 C 545.169 0.100054 2.06658 0
M  V30 5601 C 545.584 -1.21285 1.44691 0
M  V30 5602 O 544.941 -1.73735 0.558772 0
M  V30 5603 C 544.992 -0.0528579 3.61461 0
M  V30 5604 O 544.713 1.20809 4.21114 0
M  V30 5605 C 546.214 -0.586193 4.39407 0
M  V30 5606 H 543.434 0.065905 0.667756 0
M  V30 5607 H 545.978 0.827101 1.87028 0
M  V30 5608 H 544.133 -0.730203 3.80456 0
M  V30 5609 H 544.547 1.03368 5.14213 0
M  V30 5610 H 546.021 -0.642297 5.4825 0
M  V30 5611 H 546.498 -1.60713 4.0874 0
M  V30 5612 H 547.104 0.0568935 4.25262 0
M  V30 5613 N 545.419 -1.53889 0.339982 0
M  V30 5614 C 546.696 -1.93084 -0.312719 0
M  V30 5615 C 547.076 -1.2712 -1.68534 0
M  V30 5616 O 546.424 -0.420835 -2.24591 0
M  V30 5617 C 546.634 -3.4683 -0.388558 0
M  V30 5618 C 547.982 -4.19732 -0.641088 0
M  V30 5619 O 549.006 -3.53075 -0.470818 0
M  V30 5620 O 547.865 -5.3781 -0.970685 0
M  V30 5621 H 544.959 -0.806784 -0.18174 0
M  V30 5622 H 547.505 -1.65137 0.390898 0
M  V30 5623 H 546.277 -3.87055 0.574821 0
M  V30 5624 H 545.9 -3.80933 -1.1391 0
M  V30 5625 N 546.897 -0.0685191 -1.57451 0
M  V30 5626 C 547.83 0.935736 -2.08133 0
M  V30 5627 C 548.808 1.29317 -0.985698 0
M  V30 5628 O 549.992 1.40304 -1.25886 0
M  V30 5629 C 547.119 2.2448 -2.53627 0
M  V30 5630 C 546.165 2.03917 -3.74593 0
M  V30 5631 S 546.998 1.30154 -5.19442 0
M  V30 5632 C 548.154 2.62346 -5.68265 0
M  V30 5633 H 548.387 0.504473 -2.92989 0
M  V30 5634 H 545.92 0.144169 -1.53725 0
M  V30 5635 H 547.878 2.99718 -2.80499 0
M  V30 5636 H 546.539 2.64731 -1.69045 0
M  V30 5637 H 545.732 3.00788 -4.04404 0
M  V30 5638 H 545.334 1.36815 -3.48077 0
M  V30 5639 H 547.626 3.58448 -5.7491 0
M  V30 5640 H 548.569 2.3715 -6.67207 0
M  V30 5641 H 548.977 2.69401 -4.96068 0
M  V30 5642 N 548.375 1.56261 0.205012 0
M  V30 5643 C 549.791 1.49623 0.555433 0
M  V30 5644 C 549.991 0.766719 1.86343 0
M  V30 5645 O 549.047 0.313158 2.50551 0
M  V30 5646 C 550.36 2.94253 0.619347 0
M  V30 5647 C 551.908 3.04868 0.708855 0
M  V30 5648 C 552.383 4.50888 0.803969 0
M  V30 5649 N 553.874 4.54999 0.867758 0
M  V30 5650 C 554.609 5.65284 0.96135 0
M  V30 5651 N 554.105 6.85282 1.01786 0
M  V30 5652 N 555.898 5.53174 0.997771 0
M  V30 5653 H 548.049 2.0211 -0.653094 0
M  V30 5654 H 550.312 0.919333 -0.231366 0
M  V30 5655 H 550.018 3.50643 -0.272458 0
M  V30 5656 H 549.892 3.47063 1.47741 0
M  V30 5657 H 552.279 2.48532 1.5911 0
M  V30 5658 H 552.36 2.55199 -0.175205 0
M  V30 5659 H 552.004 5.07846 -0.0738798 0
M  V30 5660 H 551.934 4.98279 1.70369 0
M  V30 5661 H 554.425 3.68588 0.833735 0
M  V30 5662 H 554.738 7.65081 1.08951 0
M  V30 5663 H 553.083 6.8796 0.986706 0
M  V30 5664 H 556.274 4.5835 0.950392 0
M  V30 5665 H 556.447 6.39151 1.06725 0
M  V30 5666 N 549.853 -0.472356 1.50355 0
M  V30 5667 C 550.783 -1.57859 1.72055 0
M  V30 5668 C 551.764 -1.60283 0.569505 0
M  V30 5669 O 552.949 -1.7657 0.808503 0
M  V30 5670 C 550.079 -2.96191 1.81351 0
M  V30 5671 C 549.033 -3.08633 2.96529 0
M  V30 5672 C 548.359 -4.486 2.90968 0
M  V30 5673 C 549.659 -2.85969 4.37057 0
M  V30 5674 H 551.353 -1.39953 2.64676 0
M  V30 5675 H 548.899 -0.671846 1.27367 0
M  V30 5676 H 550.852 -3.73507 1.95117 0
M  V30 5677 H 549.576 -3.15251 0.853502 0
M  V30 5678 H 548.235 -2.33749 2.82413 0
M  V30 5679 H 547.883 -4.64577 1.92815 0
M  V30 5680 H 547.583 -4.57861 3.68289 0
M  V30 5681 H 549.107 -5.27938 3.0678 0
M  V30 5682 H 550.521 -3.53036 4.51706 0
M  V30 5683 H 548.918 -3.06677 5.15819 0
M  V30 5684 H 549.988 -1.81838 4.49514 0
M  V30 5685 N 551.331 -1.39911 -0.725443 0
M  V30 5686 C 552.294 -1.39156 -1.82121 0
M  V30 5687 C 553.294 -0.287018 -1.58218 0
M  V30 5688 O 554.484 -0.545421 -1.65441 0
M  V30 5689 C 551.616 -1.1736 -3.20062 0
M  V30 5690 H 552.809 -2.36672 -1.84191 0
M  V30 5691 H 550.362 -1.25615 -0.930079 0
M  V30 5692 H 551.097 -0.205648 -3.23647 0
M  V30 5693 H 550.882 -1.97358 -3.3881 0
M  V30 5694 H 552.372 -1.19596 -4.00108 0
M  V30 5695 N 552.809 0.956637 -1.25245 0
M  V30 5696 C 554.055 1.70413 -1.11044 0
M  V30 5697 C 554.41 1.89275 0.345377 0
M  V30 5698 O 553.703 1.45116 1.25107 0
M  V30 5699 C 553.897 3.08996 -1.79601 0
M  V30 5700 C 553.726 3.03654 -3.317 0
M  V30 5701 C 552.496 3.07521 -4.00947 0
M  V30 5702 C 554.694 2.84975 -4.28128 0
M  V30 5703 N 552.676 2.92316 -5.39838 0
M  V30 5704 C 554.047 2.7818 -5.5409 0
M  V30 5705 C 556.102 2.6964 -4.18568 0
M  V30 5706 C 554.805 2.57616 -6.71585 0
M  V30 5707 C 556.831 2.50447 -5.35752 0
M  V30 5708 C 556.193 2.4437 -6.60653 0
M  V30 5709 H 552.292 0.631642 -0.461035 0
M  V30 5710 H 554.876 1.13331 -1.58317 0
M  V30 5711 H 553.047 3.64248 -1.34826 0
M  V30 5712 H 554.779 3.72515 -1.58161 0
M  V30 5713 H 551.534 3.16635 -3.52192 0
M  V30 5714 H 551.958 2.87923 -6.12723 0
M  V30 5715 H 556.6 2.73113 -3.22752 0
M  V30 5716 H 554.318 2.52885 -7.67512 0
M  V30 5717 H 557.904 2.39509 -5.30214 0
M  V30 5718 H 556.784 2.29712 -7.49801 0
M  V30 5719 N 554.287 1.06798 1.15896 0
M  V30 5720 C 555.197 0.694564 2.24083 0
M  V30 5721 C 556.213 -0.291687 1.71538 0
M  V30 5722 O 557.389 -0.139723 2.00915 0
M  V30 5723 C 554.454 0.0921014 3.46578 0
M  V30 5724 C 553.515 1.13087 4.14137 0
M  V30 5725 C 552.748 0.557064 5.30785 0
M  V30 5726 O 552.971 -0.628623 5.66925 0
M  V30 5727 O 551.905 1.29924 5.8771 0
M  V30 5728 H 555.731 1.59663 2.58344 0
M  V30 5729 H 553.316 0.840575 1.2351 0
M  V30 5730 H 555.198 -0.241884 4.20705 0
M  V30 5731 H 553.873 -0.78337 3.14078 0
M  V30 5732 H 552.78 1.51712 3.41957 0
M  V30 5733 H 554.113 1.97805 4.50704 0
M  V30 5734 N 555.766 -1.3263 0.851289 0
M  V30 5735 C 556.676 -2.32722 0.296268 0
M  V30 5736 C 557.692 -1.63901 -0.584162 0
M  V30 5737 O 558.868 -1.95465 -0.485334 0
M  V30 5738 C 555.933 -3.42942 -0.509103 0
M  V30 5739 C 554.994 -4.2746 0.397069 0
M  V30 5740 C 554.227 -5.32416 -0.36996 0
M  V30 5741 O 554.45 -5.47491 -1.6003 0
M  V30 5742 O 553.384 -6.01327 0.262493 0
M  V30 5743 H 557.21 -2.82078 1.12543 0
M  V30 5744 H 554.795 -1.36194 0.614135 0
M  V30 5745 H 556.677 -4.1017 -0.96634 0
M  V30 5746 H 555.352 -2.95781 -1.31512 0
M  V30 5747 H 554.259 -3.63053 0.902411 0
M  V30 5748 H 555.592 -4.78136 1.16818 0
M  V30 5749 N 557.244 -0.608902 -1.45362 0
M  V30 5750 C 558.655 -0.189511 -1.85736 0
M  V30 5751 C 559.006 1.2539 -1.50903 0
M  V30 5752 O 558.131 1.95094 -0.936347 0
M  V30 5753 C 558.726 -0.33716 -3.37118 0
M  V30 5754 C 557.285 0.0275487 -3.7639 0
M  V30 5755 C 556.432 -0.660983 -2.69307 0
M  V30 5756 H 559.383 -0.815499 -1.36144 0
M  V30 5757 H 559.404 0.430257 -3.7806 0
M  V30 5758 H 558.916 -1.38779 -3.62439 0
M  V30 5759 H 557.017 1.0773 -3.56686 0
M  V30 5760 H 557.13 -0.367018 -4.77692 0
M  V30 5761 H 555.494 -0.0984958 -2.54509 0
M  V30 5762 H 556.277 -1.71377 -2.97464 0
M  V30 5763 N 558.722 1.53707 -0.348139 0
M  V30 5764 C 559.969 2.00988 0.246966 0
M  V30 5765 C 560.297 1.23586 1.50189 0
M  V30 5766 O 559.552 0.312817 1.93184 0
M  V30 5767 C 559.851 3.52292 0.602061 0
M  V30 5768 C 559.517 4.47453 -0.556509 0
M  V30 5769 C 558.179 4.73188 -0.874446 0
M  V30 5770 C 560.531 5.03851 -1.33354 0
M  V30 5771 C 557.859 5.52577 -1.9717 0
M  V30 5772 C 560.211 5.84437 -2.42108 0
M  V30 5773 C 558.875 6.08465 -2.74456 0
M  V30 5774 H 558.145 0.735469 0.0903712 0
M  V30 5775 H 560.792 1.85464 -0.477001 0
M  V30 5776 H 559.097 3.65672 1.40681 0
M  V30 5777 H 560.794 3.86337 1.07447 0
M  V30 5778 H 557.384 4.27558 -0.298652 0
M  V30 5779 H 561.568 4.8393 -1.10117 0
M  V30 5780 H 556.824 5.69418 -2.22651 0
M  V30 5781 H 560.998 6.27151 -3.02745 0
M  V30 5782 H 558.625 6.69768 -3.59604 0
M  V30 5783 N 560.2 0.0768682 1.57412 0
M  V30 5784 C 561.448 -0.589918 1.93299 0
M  V30 5785 C 561.769 -1.69842 0.958049 0
M  V30 5786 O 561.039 -1.95899 0.00703261 0
M  V30 5787 H 559.619 -0.220901 0.713591 0
M  V30 5788 H 562.281 0.135917 1.94425 0
M  V30 5789 H 561.377 -1.01195 2.95239 0
M  V30 5790 N 561.678 -1.56367 -0.196722 0
M  V30 5791 C 563.089 -1.70462 -0.761545 0
M  V30 5792 C 563.44 -0.683161 -1.83922 0
M  V30 5793 O 562.565 0.160753 -2.15802 0
M  V30 5794 C 563.16 -3.09057 -1.38814 0
M  V30 5795 C 561.719 -3.24922 -1.90007 0
M  V30 5796 C 560.866 -2.66412 -0.769399 0
M  V30 5797 H 563.817 -1.58675 0.0283263 0
M  V30 5798 H 563.838 -3.06296 -2.2575 0
M  V30 5799 H 563.35 -3.83378 -0.603559 0
M  V30 5800 H 561.451 -2.55514 -2.71189 0
M  V30 5801 H 561.564 -4.3241 -2.06297 0
M  V30 5802 H 559.928 -2.25546 -1.18326 0
M  V30 5803 H 560.711 -3.433 0.00291773 0
M  V30 5804 N 563.156 0.464375 -1.50603 0
M  V30 5805 C 564.402 1.21776 -1.62168 0
M  V30 5806 C 564.735 1.91476 -0.324154 0
M  V30 5807 O 564.01 1.8242 0.674782 0
M  V30 5808 C 564.293 2.25614 -2.80661 0
M  V30 5809 C 564.146 1.60175 -4.20314 0
M  V30 5810 C 565.465 3.26862 -2.94702 0
M  V30 5811 H 562.584 0.44137 -0.590222 0
M  V30 5812 H 565.226 0.510623 -1.8301 0
M  V30 5813 H 563.376 2.85923 -2.63021 0
M  V30 5814 H 565.048 1.03411 -4.4956 0
M  V30 5815 H 563.291 0.904697 -4.24261 0
M  V30 5816 H 563.962 2.35665 -4.99165 0
M  V30 5817 H 566.438 2.76582 -3.10872 0
M  V30 5818 H 565.314 3.96839 -3.79223 0
M  V30 5819 H 565.575 3.91382 -2.05603 0
M  V30 5820 N 564.634 1.40294 0.718013 0
M  V30 5821 C 565.564 1.43118 1.84498 0
M  V30 5822 C 566.545 0.292403 1.67568 0
M  V30 5823 O 567.73 0.500675 1.87635 0
M  V30 5824 C 564.86 1.29065 3.22427 0
M  V30 5825 C 563.814 2.40521 3.54025 0
M  V30 5826 C 563.14 2.11546 4.91073 0
M  V30 5827 C 564.44 3.82859 3.55269 0
M  V30 5828 H 566.134 2.37432 1.82391 0
M  V30 5829 H 563.68 1.14283 0.87609 0
M  V30 5830 H 565.633 1.29658 4.00957 0
M  V30 5831 H 564.357 0.312271 3.25104 0
M  V30 5832 H 563.016 2.39173 2.77834 0
M  V30 5833 H 562.664 1.12104 4.90348 0
M  V30 5834 H 562.364 2.86216 5.1318 0
M  V30 5835 H 563.888 2.13817 5.71939 0
M  V30 5836 H 565.302 3.86044 4.23843 0
M  V30 5837 H 563.699 4.57029 3.88902 0
M  V30 5838 H 564.769 4.12617 2.54706 0
M  V30 5839 N 566.112 -0.949982 1.2575 0
M  V30 5840 C 567.523 -1.50989 1.09815 0
M  V30 5841 C 567.874 -1.93497 -0.324556 0
M  V30 5842 O 566.999 -1.79068 -1.21506 0
M  V30 5843 C 567.594 -2.74394 1.98729 0
M  V30 5844 C 566.153 -3.26682 1.86965 0
M  V30 5845 C 565.3 -1.99498 1.92603 0
M  V30 5846 H 568.251 -0.766387 1.38968 0
M  V30 5847 H 568.272 -3.48383 1.53001 0
M  V30 5848 H 567.784 -2.43425 3.02268 0
M  V30 5849 H 565.885 -3.62461 0.863279 0
M  V30 5850 H 565.998 -3.94383 2.72027 0
M  V30 5851 H 564.362 -2.15005 1.36546 0
M  V30 5852 H 565.145 -1.70871 2.97755 0
M  V30 5853 N 567.59 -1.07411 -1.15328 0
M  V30 5854 C 568.839 -0.792643 -1.85473 0
M  V30 5855 C 569.152 0.683789 -1.83259 0
M  V30 5856 O 570.358 1.08005 -2.49093 0
M  V30 5857 C 568.814 -1.36787 -3.32892 0
M  V30 5858 C 568.422 -2.87536 -3.43551 0
M  V30 5859 C 570.166 -1.16444 -4.08217 0
M  V30 5860 C 568.073 -3.38247 -4.85122 0
M  V30 5861 H 567.003 -0.292838 -0.694811 0
M  V30 5862 H 569.654 -1.29426 -1.30082 0
M  V30 5863 H 568.036 -0.793993 -3.87958 0
M  V30 5864 H 569.21 -3.50973 -2.98588 0
M  V30 5865 H 567.525 -3.06676 -2.81672 0
M  V30 5866 H 570.122 -1.51808 -5.12697 0
M  V30 5867 H 570.465 -0.10353 -4.16171 0
M  V30 5868 H 570.998 -1.70472 -3.59422 0
M  V30 5869 H 567.737 -4.43866 -4.82351 0
M  V30 5870 H 567.257 -2.79564 -5.30664 0
M  V30 5871 H 568.936 -3.34238 -5.5398 0
M  V30 5872 N 569.068 1.32177 -0.85831 0
M  V30 5873 C 570.317 1.96392 -0.459689 0
M  V30 5874 C 570.63 1.68659 0.990632 0
M  V30 5875 O 571.836 2.26641 1.49485 0
M  V30 5876 C 570.292 3.51542 -0.7711 0
M  V30 5877 C 569.9 3.8813 -2.2374 0
M  V30 5878 C 571.644 4.2221 -0.44038 0
M  V30 5879 C 569.551 5.36341 -2.49183 0
M  V30 5880 H 568.481 0.735007 -0.168169 0
M  V30 5881 H 571.132 1.50518 -1.0496 0
M  V30 5882 H 569.514 3.95846 -0.11058 0
M  V30 5883 H 570.688 3.54824 -2.94001 0
M  V30 5884 H 569.003 3.30497 -2.533 0
M  V30 5885 H 571.6 5.31234 -0.607855 0
M  V30 5886 H 571.943 4.11683 0.618291 0
M  V30 5887 H 572.476 3.83502 -1.05695 0
M  V30 5888 H 569.215 5.51892 -3.53689 0
M  V30 5889 H 568.735 5.7104 -1.83504 0
M  V30 5890 H 570.414 6.03466 -2.33318 0
M  V30 5891 N 570.547 0.616602 1.45037 0
M  V30 5892 C 571.963 0.280994 1.57107 0
M  V30 5893 C 572.163 -1.21627 1.60653 0
M  V30 5894 O 571.219 -1.9997 1.54169 0
M  V30 5895 C 572.532 0.960116 2.8496 0
M  V30 5896 C 574.08 0.936884 2.98649 0
M  V30 5897 C 574.555 1.59619 4.29285 0
M  V30 5898 N 576.046 1.5621 4.36065 0
M  V30 5899 C 576.781 2.04131 5.35834 0
M  V30 5900 N 576.277 2.60177 6.4209 0
M  V30 5901 N 578.07 1.94845 5.27249 0
M  V30 5902 H 570.221 1.58867 1.40979 0
M  V30 5903 H 572.484 0.666024 0.674623 0
M  V30 5904 H 572.19 2.01473 2.88273 0
M  V30 5905 H 572.064 0.488921 3.74018 0
M  V30 5906 H 574.451 -0.109209 2.94898 0
M  V30 5907 H 574.532 1.44643 2.10979 0
M  V30 5908 H 574.176 2.64166 4.33796 0
M  V30 5909 H 574.106 1.06159 5.15789 0
M  V30 5910 H 576.597 1.15276 3.59889 0
M  V30 5911 H 576.91 2.94513 7.1448 0
M  V30 5912 H 575.255 2.64221 6.42816 0
M  V30 5913 H 578.446 1.50792 4.43147 0
M  V30 5914 H 578.619 2.32504 6.04852 0
M  V30 5915 N 572.025 -1.5352 0.356285 0
M  V30 5916 C 573.271 -2.01414 -0.236653 0
M  V30 5917 C 573.604 -1.24339 -1.49176 0
M  V30 5918 O 572.879 -0.334496 -1.91602 0
M  V30 5919 C 573.162 -3.56059 -0.537982 0
M  V30 5920 C 573.015 -4.43835 0.730112 0
M  V30 5921 C 574.334 -4.19127 -1.34239 0
M  V30 5922 H 571.453 -0.732135 -0.0845386 0
M  V30 5923 H 574.095 -1.83854 0.479341 0
M  V30 5924 H 572.245 -3.71153 -1.14795 0
M  V30 5925 H 573.917 -4.40555 1.36782 0
M  V30 5926 H 572.16 -4.1218 1.3524 0
M  V30 5927 H 572.831 -5.49958 0.474358 0
M  V30 5928 H 575.307 -4.07809 -0.826498 0
M  V30 5929 H 574.183 -5.27378 -1.52198 0
M  V30 5930 H 574.444 -3.74581 -2.34822 0
M  V30 5931 N 573.503 -0.0852151 -1.57369 0
M  V30 5932 C 574.731 0.58946 -1.98325 0
M  V30 5933 C 575.146 1.62333 -0.96403 0
M  V30 5934 O 574.503 1.82438 0.0476395 0
M  V30 5935 C 574.554 1.24604 -3.39347 0
M  V30 5936 O 574.275 0.253532 -4.37366 0
M  V30 5937 C 575.776 2.00726 -3.95252 0
M  V30 5938 H 572.996 0.158783 -0.651942 0
M  V30 5939 H 575.54 -0.161584 -2.03861 0
M  V30 5940 H 573.695 1.94808 -3.34856 0
M  V30 5941 H 574.109 0.726207 -5.19448 0
M  V30 5942 H 575.583 2.42039 -4.96106 0
M  V30 5943 H 576.06 2.86919 -3.32527 0
M  V30 5944 H 576.666 1.3536 -4.03185 0
M  V30 5945 N 574.981 1.5647 0.188427 0
M  V30 5946 C 576.206 1.85486 0.927891 0
M  V30 5947 C 576.631 0.669575 1.75779 0
M  V30 5948 O 575.989 -0.381573 1.77239 0
M  V30 5949 C 576.037 3.12784 1.7944 0
M  V30 5950 O 575.141 2.93805 2.894 0
M  V30 5951 H 574.482 0.610585 0.260925 0
M  V30 5952 H 577.012 2.037 0.191729 0
M  V30 5953 H 577.022 3.43749 2.19774 0
M  V30 5954 H 575.697 3.98671 1.18468 0
M  V30 5955 H 574.274 2.74153 2.52774 0
M  V30 5956 N 576.459 -0.456382 1.50847 0
M  V30 5957 C 577.705 -1.20914 1.62811 0
M  V30 5958 C 578.038 -1.91301 0.334304 0
M  V30 5959 O 577.313 -1.82775 -0.665098 0
M  V30 5960 C 577.596 -2.24122 2.81853 0
M  V30 5961 C 577.449 -1.57944 4.21158 0
M  V30 5962 C 578.768 -3.25295 2.96431 0
M  V30 5963 H 575.887 -0.438233 0.592554 0
M  V30 5964 H 578.529 -0.50091 1.83278 0
M  V30 5965 H 576.679 -2.84524 2.64534 0
M  V30 5966 H 578.351 -1.01025 4.50102 0
M  V30 5967 H 576.594 -0.882185 4.24735 0
M  V30 5968 H 577.265 -2.33014 5.00408 0
M  V30 5969 H 579.741 -2.7493 3.12335 0
M  V30 5970 H 578.617 -3.94822 3.81322 0
M  V30 5971 H 578.878 -3.90286 2.07676 0
M  V30 5972 N 577.937 -1.40673 -0.710563 0
M  V30 5973 C 578.847 -1.43663 -1.85467 0
M  V30 5974 C 579.863 -0.328721 -1.70867 0
M  V30 5975 O 581.039 -0.574098 -1.93044 0
M  V30 5976 C 578.104 -1.30226 -3.21313 0
M  V30 5977 C 577.165 -2.51204 -3.48131 0
M  V30 5978 C 576.398 -2.38398 -4.77495 0
M  V30 5979 O 576.621 -1.40048 -5.5294 0
M  V30 5980 O 575.555 -3.2787 -5.04762 0
M  V30 5981 H 579.381 -2.40156 -1.859 0
M  V30 5982 H 576.966 -1.22049 -0.861652 0
M  V30 5983 H 578.848 -1.2496 -4.02446 0
M  V30 5984 H 577.523 -0.368419 -3.21597 0
M  V30 5985 H 576.43 -2.62048 -2.66987 0
M  V30 5986 H 577.763 -3.43366 -3.52648 0
M  V30 5987 N 579.415 0.9433 -1.26252 0
M  V30 5988 C 580.325 2.07532 -1.09397 0
M  V30 5989 C 581.341 1.73977 -0.0280449 0
M  V30 5990 O 582.517 2.00067 -0.231337 0
M  V30 5991 C 579.582 3.39002 -0.726523 0
M  V30 5992 C 578.643 3.86353 -1.87163 0
M  V30 5993 C 577.876 5.11549 -1.52162 0
M  V30 5994 O 578.099 5.68834 -0.422385 0
M  V30 5995 O 577.033 5.53889 -2.35565 0
M  V30 5996 H 580.859 2.24658 -2.04359 0
M  V30 5997 H 578.444 1.05988 -1.05295 0
M  V30 5998 H 580.326 4.18 -0.534236 0
M  V30 5999 H 579.001 3.2312 0.193721 0
M  V30 6000 H 577.908 3.0831 -2.11886 0
M  V30 6001 H 579.241 4.06752 -2.77152 0
M  V30 6002 N 580.893 1.08022 1.14757 0
M  V30 6003 C 581.856 0.71048 2.1791 0
M  V30 6004 C 582.856 -0.252731 1.58801 0
M  V30 6005 O 584.046 -0.0327915 1.74169 0
M  V30 6006 C 581.178 0.0483203 3.40866 0
M  V30 6007 H 582.371 1.62384 2.52134 0
M  V30 6008 H 579.924 0.877595 1.29337 0
M  V30 6009 H 580.659 -0.876959 3.12218 0
M  V30 6010 H 580.444 0.741189 3.85031 0
M  V30 6011 H 581.934 -0.195471 4.17142 0
M  V30 6012 N 582.371 -1.3172 0.865308 0
M  V30 6013 C 583.62 -1.96145 0.470098 0
M  V30 6014 C 583.933 -1.69182 -0.981674 0
M  V30 6015 O 585.139 -2.27431 -1.48281 0
M  V30 6016 C 583.595 -3.51129 0.789732 0
M  V30 6017 C 583.203 -3.86938 2.25795 0
M  V30 6018 C 584.947 -4.2197 0.462765 0
M  V30 6019 C 582.854 -5.35012 2.52024 0
M  V30 6020 H 581.784 -0.734105 0.172065 0
M  V30 6021 H 584.435 -1.49959 1.05757 0
M  V30 6022 H 582.817 -3.95781 0.131571 0
M  V30 6023 H 583.991 -3.5326 2.95879 0
M  V30 6024 H 582.306 -3.29149 2.55049 0
M  V30 6025 H 584.903 -5.30904 0.636019 0
M  V30 6026 H 585.246 -4.12005 -0.59645 0
M  V30 6027 H 585.779 -3.82936 1.07727 0
M  V30 6028 H 582.518 -5.50008 3.56611 0
M  V30 6029 H 582.038 -5.70058 1.8653 0
M  V30 6030 H 583.717 -6.0222 2.36515 0
M  V30 6031 N 583.85 -0.624285 -1.44708 0
M  V30 6032 C 584.76 0.0861083 -2.34442 0
M  V30 6033 C 585.776 0.84291 -1.5222 0
M  V30 6034 O 586.952 0.796723 -1.84971 0
M  V30 6035 C 584.017 1.05999 -3.30099 0
M  V30 6036 C 583.077 0.303316 -4.28227 0
M  V30 6037 C 582.311 1.23081 -5.19314 0
M  V30 6038 O 582.534 2.46929 -5.14181 0
M  V30 6039 O 581.468 0.71883 -5.97592 0
M  V30 6040 H 585.293 -0.651756 -2.96624 0
M  V30 6041 H 582.879 -0.384493 -1.44368 0
M  V30 6042 H 584.76 1.62046 -3.88997 0
M  V30 6043 H 583.436 1.77859 -2.70459 0
M  V30 6044 H 582.343 -0.300033 -3.72895 0
M  V30 6045 H 583.676 -0.375123 -4.90768 0
M  V30 6046 N 585.328 1.53329 -0.364422 0
M  V30 6047 C 586.577 2.00421 0.226747 0
M  V30 6048 C 586.89 1.25581 1.49963 0
M  V30 6049 O 588.096 1.63256 2.16933 0
M  V30 6050 C 586.552 3.57017 0.454618 0
M  V30 6051 C 586.16 4.40734 -0.803568 0
M  V30 6052 C 587.904 4.12468 1.00351 0
M  V30 6053 C 585.811 5.8888 -0.545345 0
M  V30 6054 H 584.741 0.748787 0.0885082 0
M  V30 6055 H 587.392 1.7703 -0.482983 0
M  V30 6056 H 585.774 3.76558 1.22558 0
M  V30 6057 H 586.948 4.32967 -1.57723 0
M  V30 6058 H 585.263 3.96381 -1.27559 0
M  V30 6059 H 587.86 5.20783 1.212 0
M  V30 6060 H 588.203 3.6699 1.9653 0
M  V30 6061 H 588.736 3.96721 0.29274 0
M  V30 6062 H 585.475 6.38633 -1.47743 0
M  V30 6063 H 584.995 5.99499 0.189842 0
M  V30 6064 H 586.674 6.46776 -0.170425 0
M  V30 6065 N 586.806 0.0935595 1.57322 0
M  V30 6066 C 588.031 -0.582324 1.99057 0
M  V30 6067 C 588.456 -1.61025 0.972242 0
M  V30 6068 O 587.814 -1.81202 -0.0594622 0
M  V30 6069 C 587.862 -1.20799 3.39765 0
M  V30 6070 O 586.966 -2.32382 3.40694 0
M  V30 6071 H 586.307 -0.147884 0.647323 0
M  V30 6072 H 588.837 0.174516 2.03854 0
M  V30 6073 H 588.847 -1.54966 3.77425 0
M  V30 6074 H 587.522 -0.454914 4.13405 0
M  V30 6075 H 586.099 -1.99845 3.14827 0
M  V30 6076 N 588.284 -1.56567 -0.180126 0
M  V30 6077 C 589.232 -1.96632 -1.24251 0
M  V30 6078 C 590.226 -0.853818 -1.46309 0
M  V30 6079 O 591.432 -1.0389 -1.46993 0
M  V30 6080 H 587.807 -0.625476 -0.417473 0
M  V30 6081 H 589.778 -2.85201 -0.877679 0
M  V30 6082 C 588.527 -2.33486 -2.57642 0
M  V30 6083 H 587.85 -3.18626 -2.4149 0
M  V30 6084 H 589.29 -2.65371 -3.30688 0
M  V30 6085 C 587.749 -1.17499 -3.15746 0
M  V30 6086 O 588.279 -0.457956 -3.99081 0
M  V30 6087 N 586.485 -0.94786 -2.74707 0
M  V30 6088 H 586.032 -1.53269 -2.07042 0
M  V30 6089 H 585.99 -0.173626 -3.1392 0
M  V30 6090 N 589.762 0.448376 -1.51087 0
M  V30 6091 C 590.709 1.54341 -1.71603 0
M  V30 6092 C 591.679 1.56463 -0.557536 0
M  V30 6093 O 592.864 1.73644 -0.79072 0
M  V30 6094 C 590.004 2.92148 -1.83695 0
M  V30 6095 C 589.117 2.99639 -3.11192 0
M  V30 6096 C 588.252 4.285 -3.13944 0
M  V30 6097 C 587.291 4.29819 -4.35801 0
M  V30 6098 N 586.428 5.50186 -4.36164 0
M  V30 6099 H 591.268 1.36151 -2.65079 0
M  V30 6100 H 588.805 0.661585 -1.31383 0
M  V30 6101 H 590.763 3.72093 -1.88687 0
M  V30 6102 H 589.393 3.0892 -0.936374 0
M  V30 6103 H 588.445 2.12425 -3.15562 0
M  V30 6104 H 589.757 2.96474 -4.01129 0
M  V30 6105 H 588.911 5.16811 -3.17791 0
M  V30 6106 H 587.65 4.34307 -2.21876 0
M  V30 6107 H 586.655 3.39902 -4.32142 0
M  V30 6108 H 587.88 4.25685 -5.29121 0
M  V30 6109 H 585.826 5.56735 -3.46961 0
M  V30 6110 H 585.743 5.48856 -5.19897 0
M  V30 6111 H 587.011 6.40559 -4.44189 0
M  V30 6112 N 591.24 1.41047 0.703093 0
M  V30 6113 C 592.465 1.43537 1.49706 0
M  V30 6114 C 592.89 0.0401853 1.88057 0
M  V30 6115 O 592.248 -0.954785 1.54122 0
M  V30 6116 C 592.296 2.3433 2.74084 0
M  V30 6117 O 591.4 1.79515 3.71279 0
M  V30 6118 H 590.741 0.487454 0.450871 0
M  V30 6119 H 593.271 1.85422 0.86486 0
M  V30 6120 H 593.281 2.49947 3.22476 0
M  V30 6121 H 591.956 3.35708 2.45506 0
M  V30 6122 H 590.533 1.7331 3.30179 0
M  V30 6123 N 592.718 -0.936591 1.26751 0
M  V30 6124 C 593.628 -2.06949 1.10496 0
M  V30 6125 C 594.644 -1.7396 0.037271 0
M  V30 6126 O 595.82 -1.99941 0.241944 0
M  V30 6127 C 592.885 -3.38612 0.744491 0
M  V30 6128 C 591.946 -3.85355 1.89209 0
M  V30 6129 C 591.179 -5.10735 1.54873 0
M  V30 6130 O 591.402 -5.68602 0.452546 0
M  V30 6131 O 590.336 -5.52632 2.38499 0
M  V30 6132 H 594.162 -2.23571 2.05547 0
M  V30 6133 H 591.747 -1.05428 1.05855 0
M  V30 6134 H 593.629 -4.17711 0.556396 0
M  V30 6135 H 592.304 -3.23218 -0.176582 0
M  V30 6136 H 591.211 -3.07182 2.13518 0
M  V30 6137 H 592.544 -4.05277 2.79305 0
M  V30 6138 N 594.196 -1.08629 -1.14182 0
M  V30 6139 C 595.426 -0.837673 -1.88856 0
M  V30 6140 C 595.834 0.614024 -1.78959 0
M  V30 6141 O 595.177 1.43384 -1.14833 0
M  V30 6142 C 595.239 -1.18355 -3.39459 0
M  V30 6143 C 594.903 -2.63848 -3.73139 0
M  V30 6144 C 595.9 -3.62099 -3.73069 0
M  V30 6145 C 593.585 -2.99761 -4.03049 0
M  V30 6146 C 595.579 -4.94292 -4.02435 0
M  V30 6147 C 593.266 -4.32147 -4.32078 0
M  V30 6148 C 594.264 -5.29223 -4.31755 0
M  V30 6149 O 593.952 -6.59229 -4.60079 0
M  V30 6150 H 593.684 -0.301609 -0.604986 0
M  V30 6151 H 596.238 -1.44961 -1.45518 0
M  V30 6152 H 594.468 -0.514628 -3.8326 0
M  V30 6153 H 596.157 -0.915391 -3.95443 0
M  V30 6154 H 596.923 -3.35698 -3.50046 0
M  V30 6155 H 592.802 -2.2484 -4.02453 0
M  V30 6156 H 596.346 -5.70055 -4.02098 0
M  V30 6157 H 592.243 -4.58296 -4.54571 0
M  V30 6158 H 593.011 -6.64578 -4.77785 0
M  V30 6159 N 595.674 1.31259 -0.872281 0
M  V30 6160 C 596.922 1.96233 -0.483409 0
M  V30 6161 C 597.243 1.69276 0.968012 0
M  V30 6162 O 596.513 1.00943 1.67891 0
M  V30 6163 H 595.093 0.726025 -0.175774 0
M  V30 6164 H 597.755 1.60024 -1.11258 0
M  V30 6165 H 596.851 3.05403 -0.643075 0
M  V30 6166 N 597.152 0.631951 1.44375 0
M  V30 6167 C 598.082 -0.0593243 2.33425 0
M  V30 6168 C 599.063 -0.833964 1.48253 0
M  V30 6169 O 600.248 -0.799682 1.76971 0
M  V30 6170 C 597.378 -1.04096 3.31333 0
M  V30 6171 C 596.332 -0.377899 4.26328 0
M  V30 6172 C 595.658 -1.4695 5.14111 0
M  V30 6173 C 596.958 0.716371 5.17364 0
M  V30 6174 H 598.652 0.684287 2.91475 0
M  V30 6175 H 596.198 0.330518 1.40156 0
M  V30 6176 H 598.151 -1.53331 3.92514 0
M  V30 6177 H 596.875 -1.81547 2.71493 0
M  V30 6178 H 595.534 0.0938054 3.6648 0
M  V30 6179 H 595.182 -2.2349 4.50623 0
M  V30 6180 H 594.882 -1.03121 5.78481 0
M  V30 6181 H 596.406 -1.96363 5.78164 0
M  V30 6182 H 597.82 0.307089 5.72477 0
M  V30 6183 H 596.217 1.07784 5.90341 0
M  V30 6184 H 597.287 1.58316 4.58327 0
M  V30 6185 N 598.631 -1.53133 0.372548 0
M  V30 6186 C 599.563 -2.23557 -0.505444 0
M  V30 6187 C 600.576 -1.25211 -1.04049 0
M  V30 6188 O 601.765 -1.51391 -0.945675 0
M  V30 6189 C 598.865 -2.92516 -1.71136 0
M  V30 6190 C 598.038 -4.17428 -1.30661 0
M  V30 6191 C 597.097 -4.69535 -2.37536 0
M  V30 6192 O 596.123 -5.33042 -1.99637 0
M  V30 6193 N 597.325 -4.47947 -3.6922 0
M  V30 6194 H 600.09 -2.9954 0.0978259 0
M  V30 6195 H 597.651 -1.60684 0.198068 0
M  V30 6196 H 599.643 -3.24281 -2.42124 0
M  V30 6197 H 598.213 -2.19944 -2.22134 0
M  V30 6198 H 597.433 -3.91888 -0.426292 0
M  V30 6199 H 598.721 -4.98622 -1.01259 0
M  V30 6200 H 598.119 -3.97219 -4.02783 0
M  V30 6201 H 596.676 -4.84245 -4.36292 0
M  V30 6202 N 600.109 -0.101901 -1.5727 0
M  V30 6203 C 601.072 0.840129 -2.13247 0
M  V30 6204 C 602.072 1.20625 -1.06331 0
M  V30 6205 O 603.262 1.13456 -1.32186 0
M  V30 6206 C 600.394 2.13372 -2.65867 0
M  V30 6207 H 601.587 0.353945 -2.97804 0
M  V30 6208 H 599.14 0.147167 -1.55606 0
M  V30 6209 H 599.875 2.66461 -1.84849 0
M  V30 6210 H 599.66 1.88085 -3.44044 0
M  V30 6211 H 601.15 2.80748 -3.09145 0
M  V30 6212 N 601.587 1.56661 0.17182 0
M  V30 6213 C 602.812 1.86459 0.908165 0
M  V30 6214 C 603.237 0.688181 1.75059 0
M  V30 6215 O 602.595 -0.362753 1.77634 0
M  V30 6216 C 602.643 3.14669 1.76112 0
M  V30 6217 O 601.747 2.96858 2.86268 0
M  V30 6218 H 601.088 0.613318 0.254434 0
M  V30 6219 H 603.618 2.03892 0.170113 0
M  V30 6220 H 603.628 3.46061 2.16115 0
M  V30 6221 H 602.303 3.99905 1.14233 0
M  V30 6222 H 600.88 2.76819 2.49852 0
M  V30 6223 N 603.065 -0.440357 1.51323 0
M  V30 6224 C 604.314 -1.18697 1.63076 0
M  V30 6225 C 604.627 -1.92418 0.35136 0
M  V30 6226 O 605.833 -2.69258 0.348221 0
M  V30 6227 C 604.289 -2.15849 2.87988 0
M  V30 6228 C 603.897 -1.47789 4.22921 0
M  V30 6229 C 605.641 -2.90962 3.09098 0
M  V30 6230 C 603.548 -2.43407 5.38987 0
M  V30 6231 H 602.478 -0.44676 0.607389 0
M  V30 6232 H 605.129 -0.454313 1.77787 0
M  V30 6233 H 603.511 -2.92537 2.66905 0
M  V30 6234 H 604.685 -0.7668 4.54375 0
M  V30 6235 H 603 -0.848404 4.07665 0
M  V30 6236 H 605.597 -3.62584 3.92985 0
M  V30 6237 H 605.94 -3.52133 2.22053 0
M  V30 6238 H 606.473 -2.21381 3.30507 0
M  V30 6239 H 603.212 -1.86929 6.28282 0
M  V30 6240 H 602.732 -3.12579 5.11913 0
M  V30 6241 H 604.411 -3.046 5.70813 0
M  V30 6242 N 604.543 -1.41418 -0.695603 0
M  V30 6243 C 605.79 -1.40774 -1.45564 0
M  V30 6244 C 606.118 -0.0168604 -1.94493 0
M  V30 6245 O 605.373 0.971259 -1.69897 0
M  V30 6246 C 605.672 -2.36112 -2.68302 0
M  V30 6247 C 605.338 -3.82952 -2.38031 0
M  V30 6248 C 604 -4.22954 -2.29486 0
M  V30 6249 C 606.352 -4.75662 -2.13061 0
M  V30 6250 C 603.68 -5.53674 -1.94067 0
M  V30 6251 C 606.032 -6.06702 -1.79151 0
M  V30 6252 C 604.696 -6.45725 -1.69102 0
M  V30 6253 H 603.966 -0.515128 -0.532658 0
M  V30 6254 H 606.613 -1.74216 -0.795047 0
M  V30 6255 H 604.918 -1.95924 -3.39295 0
M  V30 6256 H 606.615 -2.32887 -3.26442 0
M  V30 6257 H 603.205 -3.5127 -2.45576 0
M  V30 6258 H 607.389 -4.45561 -2.18608 0
M  V30 6259 H 602.645 -5.8279 -1.8484 0
M  V30 6260 H 606.819 -6.78041 -1.5885 0
M  V30 6261 H 604.446 -7.46929 -1.41426 0
M  V30 6262 N 606.021 0.929856 -1.27246 0
M  V30 6263 C 607.249 1.71144 -1.16265 0
M  V30 6264 C 607.664 1.867 0.280786 0
M  V30 6265 O 607.021 1.38249 1.19136 0
M  V30 6266 C 607.072 3.11222 -1.83911 0
M  V30 6267 O 606.793 2.96398 -3.22614 0
M  V30 6268 C 608.294 4.05541 -1.79028 0
M  V30 6269 H 605.514 0.535499 -0.404328 0
M  V30 6270 H 608.058 1.16492 -1.68077 0
M  V30 6271 H 606.213 3.6274 -1.36009 0
M  V30 6272 H 606.627 3.8494 -3.56261 0
M  V30 6273 H 608.101 5.01351 -2.30978 0
M  V30 6274 H 608.578 4.32589 -0.759168 0
M  V30 6275 H 609.184 3.59947 -2.26535 0
M  V30 6276 N 607.499 1.09233 1.13605 0
M  V30 6277 C 608.447 0.724572 2.21027 0
M  V30 6278 C 609.441 -0.273595 1.67176 0
M  V30 6279 O 610.647 -0.135266 1.79491 0
M  V30 6280 H 607.022 0.216319 0.720215 0
M  V30 6281 H 608.993 1.63975 2.49309 0
M  V30 6282 C 607.742 0.159126 3.47336 0
M  V30 6283 H 607.065 0.918387 3.89109 0
M  V30 6284 H 608.505 -0.0602851 4.23957 0
M  V30 6285 C 606.964 -1.10514 3.18258 0
M  V30 6286 O 607.494 -2.18869 3.36837 0
M  V30 6287 N 605.7 -1.01886 2.72154 0
M  V30 6288 H 605.247 -0.137027 2.57235 0
M  V30 6289 H 605.205 -1.8655 2.53074 0
M  V30 6290 N 608.977 -1.30795 0.87923 0
M  V30 6291 C 610.254 -1.91145 0.415086 0
M  V30 6292 C 610.634 -1.7995 -1.10368 0
M  V30 6293 O 609.982 -1.21305 -1.93642 0
M  V30 6294 C 610.192 -3.37014 0.906778 0
M  V30 6295 C 611.54 -4.14101 0.938358 0
M  V30 6296 O 612.564 -3.45834 0.853053 0
M  V30 6297 O 611.423 -5.36054 1.06342 0
M  V30 6298 H 608.517 -0.81736 0.125905 0
M  V30 6299 H 611.063 -1.39401 0.967753 0
M  V30 6300 H 609.835 -3.3922 1.95053 0
M  V30 6301 H 609.458 -3.96204 0.332948 0
M  V30 6302 N 610.455 -0.639598 -1.44038 0
M  V30 6303 C 611.702 -0.14748 -2.01962 0
M  V30 6304 C 612.03 1.23372 -1.50365 0
M  V30 6305 O 611.285 1.8345 -0.681501 0
M  V30 6306 C 611.584 -0.0925348 -3.5728 0
M  V30 6307 C 611.25 -1.41365 -4.28167 0
M  V30 6308 C 609.912 -1.77545 -4.47248 0
M  V30 6309 C 612.264 -2.2853 -4.68427 0
M  V30 6310 C 609.592 -3.00583 -5.03852 0
M  V30 6311 C 611.944 -3.50846 -5.26393 0
M  V30 6312 C 610.608 -3.8724 -5.43692 0
M  V30 6313 H 609.878 -0.0539666 -0.739032 0
M  V30 6314 H 612.525 -0.827599 -1.72694 0
M  V30 6315 H 610.83 0.670987 -3.86012 0
M  V30 6316 H 612.527 0.304891 -3.99839 0
M  V30 6317 H 609.117 -1.1221 -4.13651 0
M  V30 6318 H 613.301 -2.0187 -4.5339 0
M  V30 6319 H 608.557 -3.28846 -5.15432 0
M  V30 6320 H 612.731 -4.18616 -5.56537 0
M  V30 6321 H 610.358 -4.8266 -5.87319 0
M  V30 6322 N 611.933 1.52934 -0.380664 0
M  V30 6323 C 613.344 1.86457 0.0952684 0
M  V30 6324 C 613.695 1.3007 1.46889 0
M  V30 6325 O 612.82 0.628636 2.07068 0
M  V30 6326 C 613.415 3.38323 0.179648 0
M  V30 6327 C 611.974 3.71589 0.599858 0
M  V30 6328 C 611.121 2.76228 -0.243572 0
M  V30 6329 H 614.072 1.46966 -0.59888 0
M  V30 6330 H 614.093 3.67113 1.00042 0
M  V30 6331 H 613.605 3.79333 -0.820228 0
M  V30 6332 H 611.706 3.36144 1.60742 0
M  V30 6333 H 611.819 4.77715 0.364003 0
M  V30 6334 H 610.183 2.53045 0.289855 0
M  V30 6335 H 610.966 3.20074 -1.24127 0
M  V30 6336 N 613.412 0.11024 1.57214 0
M  V30 6337 C 614.828 -0.24638 1.57687 0
M  V30 6338 C 615.028 -1.67344 1.12241 0
M  V30 6339 O 614.084 -2.39298 0.805783 0
M  V30 6340 C 615.397 -0.0210288 3.00693 0
M  V30 6341 C 616.945 -0.0876077 3.12877 0
M  V30 6342 C 617.42 0.10994 4.57868 0
M  V30 6343 N 618.911 0.0556135 4.63167 0
M  V30 6344 C 619.646 0.183495 5.73106 0
M  V30 6345 N 619.142 0.367058 6.91827 0
M  V30 6346 N 620.935 0.123689 5.61964 0
M  V30 6347 H 613.086 1.04246 1.85058 0
M  V30 6348 H 615.349 0.40979 0.854854 0
M  V30 6349 H 615.055 0.965203 3.38196 0
M  V30 6350 H 614.929 -0.756748 3.69531 0
M  V30 6351 H 617.316 -1.06436 2.75237 0
M  V30 6352 H 617.397 0.67985 2.466 0
M  V30 6353 H 617.041 1.08362 4.96206 0
M  V30 6354 H 616.971 -0.677397 5.22225 0
M  V30 6355 H 619.462 -0.0831062 3.77809 0
M  V30 6356 H 619.775 0.455739 7.71455 0
M  V30 6357 H 618.12 0.40292 6.93831 0
M  V30 6358 H 621.311 -0.0186928 4.68096 0
M  V30 6359 H 621.484 0.226797 6.47603 0
M  V30 6360 N 614.89 -1.56749 -0.16351 0
M  V30 6361 C 615.853 -1.96121 -1.18613 0
M  V30 6362 C 616.853 -0.845765 -1.36761 0
M  V30 6363 O 618.043 -1.11268 -1.34033 0
M  V30 6364 C 615.175 -2.26282 -2.54969 0
M  V30 6365 H 616.368 -2.87639 -0.848764 0
M  V30 6366 H 613.921 -1.50928 -0.406251 0
M  V30 6367 H 614.656 -1.37504 -2.93706 0
M  V30 6368 H 614.441 -3.07595 -2.43162 0
M  V30 6369 H 615.931 -2.57638 -3.28653 0
M  V30 6370 N 616.368 0.432326 -1.51554 0
M  V30 6371 C 617.615 1.18134 -1.64471 0
M  V30 6372 C 617.943 1.91076 -0.363349 0
M  V30 6373 O 617.198 1.84492 0.65279 0
M  V30 6374 C 617.497 2.21907 -2.80164 0
M  V30 6375 C 617.163 1.65941 -4.19255 0
M  V30 6376 C 615.825 1.50401 -4.57092 0
M  V30 6377 C 618.177 1.24843 -5.06027 0
M  V30 6378 C 615.505 0.922443 -5.79403 0
M  V30 6379 C 617.857 0.68113 -6.28922 0
M  V30 6380 C 616.521 0.512673 -6.65528 0
M  V30 6381 H 615.791 0.432283 -0.601841 0
M  V30 6382 H 618.438 0.471701 -1.856 0
M  V30 6383 H 616.743 2.98928 -2.53277 0
M  V30 6384 H 618.44 2.79691 -2.87357 0
M  V30 6385 H 615.03 1.79014 -3.89425 0
M  V30 6386 H 619.214 1.35667 -4.77397 0
M  V30 6387 H 614.47 0.779733 -6.06408 0
M  V30 6388 H 618.644 0.35418 -6.95499 0
M  V30 6389 H 616.271 0.0599084 -7.60176 0
M  V30 6390 N 617.846 1.41785 0.688094 0
M  V30 6391 C 619.094 1.41264 1.4453 0
M  V30 6392 C 619.415 0.0252946 1.94984 0
M  V30 6393 O 618.685 -0.934081 1.72197 0
M  V30 6394 H 617.265 0.519998 0.536294 0
M  V30 6395 H 619.927 1.7709 0.813941 0
M  V30 6396 H 619.023 2.10439 2.30482 0
M  V30 6397 N 619.324 -0.923095 1.27737 0
M  V30 6398 C 620.573 -1.66581 1.13727 0
M  V30 6399 C 620.886 -1.9304 -0.315433 0
M  V30 6400 O 622.092 -2.65309 -0.57651 0
M  V30 6401 C 620.548 -3.00047 1.98745 0
M  V30 6402 C 620.156 -2.8127 3.48699 0
M  V30 6403 C 621.9 -3.77887 1.93395 0
M  V30 6404 C 619.807 -4.1032 4.25901 0
M  V30 6405 H 618.737 -0.624834 0.422017 0
M  V30 6406 H 621.388 -1.02514 1.52194 0
M  V30 6407 H 619.77 -3.65197 1.53125 0
M  V30 6408 H 620.944 -2.24859 4.02213 0
M  V30 6409 H 619.259 -2.16854 3.55476 0
M  V30 6410 H 621.856 -4.73526 2.48348 0
M  V30 6411 H 622.199 -4.06264 0.908605 0
M  V30 6412 H 622.732 -3.19541 2.36935 0
M  V30 6413 H 619.471 -3.8712 5.28978 0
M  V30 6414 H 618.991 -4.66377 3.77163 0
M  V30 6415 H 620.67 -4.78648 4.35321 0
M  V30 6416 N 620.802 -1.09834 -1.13024 0
M  V30 6417 C 621.765 -0.745058 -2.16752 0
M  V30 6418 C 622.765 0.227435 -1.59183 0
M  V30 6419 O 623.955 0.0050786 -1.74199 0
M  V30 6420 C 621.087 -0.102543 -3.40746 0
M  V30 6421 H 622.28 -1.66375 -2.49518 0
M  V30 6422 H 619.833 -0.898061 -1.27924 0
M  V30 6423 H 620.568 0.827177 -3.13573 0
M  V30 6424 H 620.353 -0.80235 -3.83803 0
M  V30 6425 H 621.843 0.129082 -4.174 0
M  V30 6426 N 622.28 1.30327 -0.886154 0
M  V30 6427 C 623.19 2.31854 -0.357866 0
M  V30 6428 C 624.206 1.65392 0.540502 0
M  V30 6429 O 625.382 1.96683 0.433339 0
M  V30 6430 C 622.447 3.44171 0.417999 0
M  V30 6431 C 621.508 4.26257 -0.510263 0
M  V30 6432 C 620.741 5.3321 0.228669 0
M  V30 6433 O 620.964 5.51542 1.45458 0
M  V30 6434 O 619.898 6.0042 -0.421832 0
M  V30 6435 H 623.724 2.78995 -1.19982 0
M  V30 6436 H 621.309 1.34518 -0.650028 0
M  V30 6437 H 623.191 4.12588 0.857251 0
M  V30 6438 H 621.866 2.99164 1.23623 0
M  V30 6439 H 620.773 3.60533 -0.99835 0
M  V30 6440 H 622.106 4.74871 -1.29454 0
M  V30 6441 N 623.758 0.647228 1.43697 0
M  V30 6442 C 624.69 -0.0866232 2.29036 0
M  V30 6443 C 625.703 -0.793051 1.42178 0
M  V30 6444 O 626.892 -0.651807 1.66174 0
M  V30 6445 C 623.992 -1.14552 3.18953 0
M  V30 6446 C 623.165 -0.518422 4.34317 0
M  V30 6447 C 622.224 -1.4734 5.05151 0
M  V30 6448 O 621.25 -0.984312 5.60625 0
M  V30 6449 N 622.452 -2.8075 5.08094 0
M  V30 6450 H 625.217 0.645834 2.92659 0
M  V30 6451 H 622.778 0.489567 1.54321 0
M  V30 6452 H 624.77 -1.78505 3.63205 0
M  V30 6453 H 623.34 -1.78001 2.56971 0
M  V30 6454 H 622.56 0.300079 3.93056 0
M  V30 6455 H 623.848 -0.080401 5.08736 0
M  V30 6456 H 623.246 -3.23052 4.64386 0
M  V30 6457 H 621.803 -3.40022 5.56083 0
M  V30 6458 N 625.236 -1.5273 0.388769 0
M  V30 6459 C 626.166 -2.29353 -0.438111 0
M  V30 6460 C 627.147 -1.32719 -1.06394 0
M  V30 6461 O 628.332 -1.61612 -1.07681 0
M  V30 6462 C 625.462 -3.09995 -1.56589 0
M  V30 6463 C 624.416 -4.14509 -1.06613 0
M  V30 6464 C 623.742 -4.83372 -2.28594 0
M  V30 6465 C 625.042 -5.22127 -0.134459 0
M  V30 6466 H 626.736 -2.98723 0.201206 0
M  V30 6467 H 624.282 -1.43665 0.0982089 0
M  V30 6468 H 626.235 -3.62357 -2.15118 0
M  V30 6469 H 624.959 -2.38357 -2.23279 0
M  V30 6470 H 623.618 -3.63128 -0.503383 0
M  V30 6471 H 623.266 -4.08283 -2.93792 0
M  V30 6472 H 622.966 -5.54012 -1.95817 0
M  V30 6473 H 624.49 -5.38538 -2.87766 0
M  V30 6474 H 625.904 -5.69851 -0.627914 0
M  V30 6475 H 624.301 -6.00011 0.103534 0
M  V30 6476 H 625.371 -4.77971 0.816798 0
M  V30 6477 N 626.714 -0.118576 -1.57153 0
M  V30 6478 C 627.624 0.845484 -2.18835 0
M  V30 6479 C 628.64 1.29299 -1.16438 0
M  V30 6480 O 629.816 1.35607 -1.48905 0
M  V30 6481 C 626.881 2.07795 -2.77529 0
M  V30 6482 C 625.942 1.6824 -3.9496 0
M  V30 6483 C 625.175 2.85612 -4.50845 0
M  V30 6484 O 625.398 4.01025 -4.05629 0
M  V30 6485 O 624.332 2.62721 -5.41536 0
M  V30 6486 H 628.158 0.350568 -3.0167 0
M  V30 6487 H 625.743 0.107013 -1.49016 0
M  V30 6488 H 627.625 2.79978 -3.14945 0
M  V30 6489 H 626.3 2.56294 -1.97725 0
M  V30 6490 H 625.207 0.931663 -3.62313 0
M  V30 6491 H 626.54 1.24484 -4.76198 0
M  V30 6492 N 628.193 1.56834 0.155195 0
M  V30 6493 C 629.439 1.83169 0.870467 0
M  V30 6494 C 629.772 0.698929 1.81187 0
M  V30 6495 O 629.047 -0.298035 1.92203 0
M  V30 6496 C 629.33 3.19965 1.65211 0
M  V30 6497 C 629.183 4.43792 0.732744 0
M  V30 6498 C 630.502 3.53885 2.61636 0
M  V30 6499 H 627.621 0.666288 0.315006 0
M  V30 6500 H 630.263 1.89513 0.135988 0
M  V30 6501 H 628.413 3.14687 2.27825 0
M  V30 6502 H 630.085 4.61148 0.118236 0
M  V30 6503 H 628.328 4.3378 0.0417906 0
M  V30 6504 H 628.999 5.36095 1.31552 0
M  V30 6505 H 631.475 3.5972 2.09143 0
M  V30 6506 H 630.351 4.50648 3.13381 0
M  V30 6507 H 630.612 2.79418 3.42605 0
M  V30 6508 N 629.671 -0.424282 1.51781 0
M  V30 6509 C 630.919 -1.17028 1.64769 0
M  V30 6510 C 631.24 -1.91409 0.372523 0
M  V30 6511 O 630.51 -1.86091 -0.612108 0
M  V30 6512 H 629.09 -0.434992 0.607282 0
M  V30 6513 H 631.752 -0.485169 1.88765 0
M  V30 6514 H 630.848 -1.8927 2.4816 0
M  V30 6515 N 631.149 -1.42148 -0.680565 0
M  V30 6516 C 632.377 -1.45696 -1.46902 0
M  V30 6517 C 632.792 -0.0665858 -1.88683 0
M  V30 6518 O 632.149 0.917436 -1.57764 0
M  V30 6519 C 632.2 -2.37898 -2.72188 0
M  V30 6520 O 631.921 -3.71526 -2.32163 0
M  V30 6521 C 633.422 -2.50407 -3.65802 0
M  V30 6522 H 630.642 -0.495729 -0.45221 0
M  V30 6523 H 633.186 -1.866 -0.836709 0
M  V30 6524 H 631.341 -2.00263 -3.31622 0
M  V30 6525 H 631.755 -4.20849 -3.13027 0
M  V30 6526 H 633.229 -3.19056 -4.50452 0
M  V30 6527 H 633.706 -1.5401 -4.11312 0
M  V30 6528 H 634.312 -2.8874 -3.12265 0
M  V30 6529 N 632.627 0.916307 -1.28225 0
M  V30 6530 C 633.873 1.66765 -1.154 0
M  V30 6531 C 634.206 1.91912 0.297251 0
M  V30 6532 O 633.481 1.51766 1.21644 0
M  V30 6533 C 633.764 3.02715 -1.95028 0
M  V30 6534 C 633.617 2.84738 -3.48201 0
M  V30 6535 C 634.936 4.03215 -1.76369 0
M  V30 6536 H 632.055 0.605205 -0.42059 0
M  V30 6537 H 634.697 1.06255 -1.57512 0
M  V30 6538 H 632.847 3.54365 -1.59242 0
M  V30 6539 H 634.519 2.40118 -3.9388 0
M  V30 6540 H 632.762 2.19848 -3.73964 0
M  V30 6541 H 633.433 3.8127 -3.99171 0
M  V30 6542 H 635.909 3.60617 -2.07593 0
M  V30 6543 H 634.785 4.96306 -2.34459 0
M  V30 6544 H 635.046 4.36288 -0.71452 0
M  V30 6545 N 634.105 1.10431 1.1244 0
M  V30 6546 C 635.055 0.722378 2.16254 0
M  V30 6547 C 636.039 -0.268427 1.58645 0
M  V30 6548 O 637.231 -0.077169 1.76832 0
M  V30 6549 C 634.36 0.155763 3.42946 0
M  V30 6550 C 633.446 1.17361 4.07538 0
M  V30 6551 N 633.837 2.36429 4.47141 0
M  V30 6552 C 632.135 1.01412 4.34317 0
M  V30 6553 C 632.836 3.01259 4.97612 0
M  V30 6554 N 631.812 2.28777 4.93115 0
M  V30 6555 H 635.614 1.62876 2.4464 0
M  V30 6556 H 633.128 0.982031 1.29344 0
M  V30 6557 H 635.125 -0.135936 4.16678 0
M  V30 6558 H 633.785 -0.745339 3.1603 0
M  V30 6559 H 634.796 2.73954 4.39511 0
M  V30 6560 H 631.473 0.168574 4.1716 0
M  V30 6561 H 632.863 4.02541 5.37968 0
M  V30 6562 N 635.583 -1.29855 0.893053 0
M  V30 6563 C 636.832 -1.95104 0.511597 0
M  V30 6564 C 637.145 -1.71226 -0.945567 0
M  V30 6565 O 638.351 -2.30525 -1.43424 0
M  V30 6566 C 636.807 -3.49374 0.864034 0
M  V30 6567 C 636.415 -3.82061 2.33952 0
M  V30 6568 C 638.159 -4.20894 0.552167 0
M  V30 6569 C 636.066 -5.29546 2.63316 0
M  V30 6570 H 634.996 -0.73029 0.187597 0
M  V30 6571 H 637.647 -1.47682 1.08914 0
M  V30 6572 H 636.029 -3.95413 0.215493 0
M  V30 6573 H 637.203 -3.46904 3.03305 0
M  V30 6574 H 635.518 -3.23665 2.61973 0
M  V30 6575 H 638.115 -5.29435 0.748489 0
M  V30 6576 H 638.458 -4.13178 -0.508924 0
M  V30 6577 H 638.991 -3.80564 1.15825 0
M  V30 6578 H 635.73 -5.4232 3.68197 0
M  V30 6579 H 635.25 -5.65974 1.9858 0
M  V30 6580 H 636.929 -5.97068 2.49236 0
M  V30 6581 N 637.061 -0.65484 -1.43351 0
M  V30 6582 C 638.009 0.0476784 -2.32551 0
M  V30 6583 C 639.003 0.811403 -1.48703 0
M  V30 6584 O 640.209 0.721621 -1.64902 0
M  V30 6585 H 636.584 0.0342038 -0.751222 0
M  V30 6586 H 638.555 -0.722342 -2.89525 0
M  V30 6587 C 637.304 0.999251 -3.33032 0
M  V30 6588 H 636.627 0.421005 -3.97577 0
M  V30 6589 H 638.067 1.45986 -3.98076 0
M  V30 6590 C 636.526 2.09606 -2.63756 0
M  V30 6591 O 637.056 3.18004 -2.4543 0
M  V30 6592 N 635.262 1.86207 -2.23103 0
M  V30 6593 H 634.809 0.980555 -2.38208 0
M  V30 6594 H 634.767 2.59787 -1.77081 0
M  V30 6595 N 638.539 1.52521 -0.396863 0
M  V30 6596 C 639.487 2.28217 0.44943 0
M  V30 6597 C 640.481 1.32416 1.05652 0
M  V30 6598 O 641.687 1.49925 0.996124 0
M  V30 6599 H 638.062 0.733966 0.1637 0
M  V30 6600 H 640.033 2.97658 -0.210367 0
M  V30 6601 C 638.782 3.10713 1.56054 0
M  V30 6602 H 638.105 3.84291 1.10273 0
M  V30 6603 H 639.545 3.66803 2.12677 0
M  V30 6604 C 638.004 2.23499 2.52091 0
M  V30 6605 O 638.534 1.8669 3.55682 0
M  V30 6606 N 636.74 1.8751 2.2201 0
M  V30 6607 H 636.287 2.17643 1.37802 0
M  V30 6608 H 636.245 1.29448 2.86514 0
M  V30 6609 N 640.017 0.126909 1.57088 0
M  V30 6610 C 640.964 -0.82036 2.15728 0
M  V30 6611 C 641.934 -1.25811 1.08447 0
M  V30 6612 O 643.119 -1.33422 1.36393 0
M  V30 6613 C 640.259 -2.06199 2.76724 0
M  V30 6614 C 639.372 -1.67188 3.98337 0
M  V30 6615 C 638.507 -2.86378 4.47393 0
M  V30 6616 C 637.546 -2.43644 5.61519 0
M  V30 6617 N 636.683 -3.55775 6.05284 0
M  V30 6618 H 641.523 -0.313472 2.96347 0
M  V30 6619 H 639.06 -0.14303 1.46403 0
M  V30 6620 H 641.018 -2.78959 3.10222 0
M  V30 6621 H 639.648 -2.54333 1.98782 0
M  V30 6622 H 638.7 -0.842714 3.70948 0
M  V30 6623 H 640.012 -1.31789 4.81075 0
M  V30 6624 H 639.166 -3.67353 4.82842 0
M  V30 6625 H 637.905 -3.25009 3.63621 0
M  V30 6626 H 636.91 -1.61104 5.25667 0
M  V30 6627 H 638.135 -2.06122 6.47063 0
M  V30 6628 H 636.081 -3.94065 5.24451 0
M  V30 6629 H 635.998 -3.24325 6.82898 0
M  V30 6630 H 637.266 -4.37166 6.45373 0
M  V30 6631 N 641.495 -1.56914 -0.146875 0
M  V30 6632 C 642.723 -1.87515 -0.874394 0
M  V30 6633 C 643.138 -0.715116 -1.74733 0
M  V30 6634 O 642.495 0.315113 -1.79759 0
M  V30 6635 C 642.546 -3.17362 -1.731 0
M  V30 6636 O 642.267 -4.28897 -0.893245 0
M  V30 6637 C 643.768 -3.61479 -2.56609 0
M  V30 6638 H 640.988 -0.621546 -0.252827 0
M  V30 6639 H 643.532 -2.04023 -0.139627 0
M  V30 6640 H 641.687 -3.02608 -2.41883 0
M  V30 6641 H 642.101 -5.03146 -1.48137 0
M  V30 6642 H 643.575 -4.5517 -3.12289 0
M  V30 6643 H 644.052 -2.86773 -3.32653 0
M  V30 6644 H 644.658 -3.78927 -1.93117 0
M  V30 6645 N 642.974 0.416227 -1.52004 0
M  V30 6646 C 643.906 1.52552 -1.71058 0
M  V30 6647 C 644.919 1.51693 -0.59102 0
M  V30 6648 O 646.108 1.56087 -0.865973 0
M  V30 6649 C 643.208 2.91455 -1.72937 0
M  V30 6650 C 642.381 3.16584 -3.01816 0
M  V30 6651 C 641.44 4.35322 -2.95603 0
M  V30 6652 O 640.466 4.32947 -3.6952 0
M  V30 6653 N 641.668 5.40049 -2.12903 0
M  V30 6654 H 644.433 1.36604 -2.66757 0
M  V30 6655 H 641.994 0.60544 -1.50153 0
M  V30 6656 H 643.986 3.68944 -1.66321 0
M  V30 6657 H 642.556 3.00895 -0.847418 0
M  V30 6658 H 641.776 2.27203 -3.22137 0
M  V30 6659 H 643.064 3.30213 -3.87088 0
M  V30 6660 H 642.462 5.44823 -1.52265 0
M  V30 6661 H 641.019 6.16308 -2.1215 0
M  V30 6662 N 644.452 1.42507 0.673017 0
M  V30 6663 C 645.868 1.25472 0.986355 0
M  V30 6664 C 646.068 0.160181 2.00862 0
M  V30 6665 O 645.124 -0.467993 2.48125 0
M  V30 6666 C 646.437 2.61219 1.48947 0
M  V30 6667 C 647.985 2.68589 1.60715 0
M  V30 6668 C 648.46 4.04707 2.14422 0
M  V30 6669 N 649.951 4.0667 2.21752 0
M  V30 6670 C 650.686 5.0881 2.64386 0
M  V30 6671 N 650.182 6.21332 3.0646 0
M  V30 6672 N 651.975 4.96166 2.64151 0
M  V30 6673 H 644.126 2.124 -0.00378532 0
M  V30 6674 H 646.389 0.946046 0.0608367 0
M  V30 6675 H 646.095 3.42179 0.812812 0
M  V30 6676 H 645.969 2.85261 2.46791 0
M  V30 6677 H 648.356 1.87974 2.27486 0
M  V30 6678 H 648.437 2.48333 0.613552 0
M  V30 6679 H 648.081 4.8578 1.48258 0
M  V30 6680 H 648.011 4.22315 3.14575 0
M  V30 6681 H 650.502 3.25438 1.92089 0
M  V30 6682 H 650.815 6.95118 3.37684 0
M  V30 6683 H 649.16 6.24835 3.04313 0
M  V30 6684 H 652.351 4.07334 2.30644 0
M  V30 6685 H 652.524 5.759 2.97057 0
M  V30 6686 N 645.93 -0.909495 1.28709 0
M  V30 6687 C 647.178 -1.65577 1.15882 0
M  V30 6688 C 647.499 -1.928 -0.292108 0
M  V30 6689 O 646.769 -1.54716 -1.20166 0
M  V30 6690 H 645.349 -0.613714 0.425869 0
M  V30 6691 H 648.011 -1.09108 1.61498 0
M  V30 6692 H 647.107 -2.61634 1.70159 0
M  V30 6693 N 647.408 -1.11026 -1.11852 0
M  V30 6694 C 648.636 -0.878818 -1.87308 0
M  V30 6695 C 649.051 0.57111 -1.79955 0
M  V30 6696 O 648.408 1.39409 -1.17777 0
M  V30 6697 C 648.459 -1.3264 -3.36287 0
M  V30 6698 O 648.18 -2.71948 -3.43476 0
M  V30 6699 C 649.681 -1.12974 -4.28663 0
M  V30 6700 H 646.901 -0.315015 -0.592458 0
M  V30 6701 H 649.445 -1.47649 -1.41492 0
M  V30 6702 H 647.6 -0.772269 -3.79625 0
M  V30 6703 H 648.014 -2.91241 -4.3621 0
M  V30 6704 H 649.488 -1.49198 -5.31454 0
M  V30 6705 H 649.965 -0.0689127 -4.39146 0
M  V30 6706 H 650.571 -1.67064 -3.91113 0
M  V30 6707 N 648.886 1.2938 -0.899927 0
M  V30 6708 C 650.163 1.9046 -0.445443 0
M  V30 6709 C 650.543 1.81683 1.07492 0
M  V30 6710 O 649.891 1.24371 1.91688 0
M  V30 6711 C 650.101 3.35529 -0.960279 0
M  V30 6712 C 651.449 4.12556 -1.00412 0
M  V30 6713 O 652.473 3.44434 -0.907965 0
M  V30 6714 O 651.332 5.34294 -1.14857 0
M  V30 6715 H 648.426 0.815253 -0.138893 0
M  V30 6716 H 650.972 1.37844 -0.989808 0
M  V30 6717 H 649.744 3.36074 -2.00425 0
M  V30 6718 H 649.367 3.95624 -0.395939 0
M  V30 6719 N 650.364 0.662433 1.43002 0
M  V30 6720 C 651.312 -0.035345 2.32573 0
M  V30 6721 C 652.306 -0.803505 1.49131 0
M  V30 6722 O 653.512 -0.712865 1.65282 0
M  V30 6723 H 649.887 -0.0302194 0.751393 0
M  V30 6724 H 651.858 0.737686 2.89138 0
M  V30 6725 C 650.607 -0.981575 3.33557 0
M  V30 6726 H 649.93 -0.399914 3.97795 0
M  V30 6727 H 651.37 -1.43873 3.98844 0
M  V30 6728 C 649.829 -2.08204 2.64863 0
M  V30 6729 O 650.359 -3.16698 2.47113 0
M  V30 6730 N 648.565 -1.85022 2.24088 0
M  V30 6731 H 648.112 -0.967909 2.38724 0
M  V30 6732 H 648.07 -2.58845 1.78457 0
M  V30 6733 N 651.842 -1.52309 0.404946 0
M  V30 6734 C 653.089 -2.01767 -0.1722 0
M  V30 6735 C 653.417 -1.29075 -1.45498 0
M  V30 6736 O 652.672 -0.3843 -1.9189 0
M  V30 6737 C 652.971 -3.54284 -0.470895 0
M  V30 6738 C 652.637 -4.45079 0.722194 0
M  V30 6739 C 651.299 -4.69617 1.04946 0
M  V30 6740 C 653.651 -4.98555 1.51962 0
M  V30 6741 C 650.979 -5.44878 2.17543 0
M  V30 6742 C 653.331 -5.75049 2.63632 0
M  V30 6743 C 651.995 -5.9786 2.9685 0
M  V30 6744 H 651.265 -0.738316 -0.0630125 0
M  V30 6745 H 653.912 -1.83566 0.545506 0
M  V30 6746 H 652.217 -3.70642 -1.27012 0
M  V30 6747 H 653.914 -3.90058 -0.930346 0
M  V30 6748 H 650.504 -4.26155 0.457131 0
M  V30 6749 H 654.688 -4.79509 1.28002 0
M  V30 6750 H 649.944 -5.60762 2.43631 0
M  V30 6751 H 654.118 -6.15483 3.25813 0
M  V30 6752 H 651.745 -6.5596 3.84215 0
M  V30 6753 N 653.32 -0.135238 -1.57019 0
M  V30 6754 C 654.731 0.387521 -1.82634 0
M  V30 6755 C 655.082 1.65528 -1.05332 0
M  V30 6756 O 654.207 2.14381 -0.294926 0
M  V30 6757 C 654.802 0.709852 -3.3128 0
M  V30 6758 C 653.361 1.17718 -3.57518 0
M  V30 6759 C 652.508 0.194183 -2.76619 0
M  V30 6760 H 655.459 -0.360126 -1.5456 0
M  V30 6761 H 655.48 1.5657 -3.46794 0
M  V30 6762 H 654.992 -0.213024 -3.87515 0
M  V30 6763 H 653.093 2.1164 -3.06658 0
M  V30 6764 H 653.206 1.11128 -4.66034 0
M  V30 6765 H 651.57 0.684478 -2.4533 0
M  V30 6766 H 652.353 -0.722076 -3.3562 0
M  V30 6767 N 654.798 1.5699 0.138552 0
M  V30 6768 C 656.045 1.83809 0.849732 0
M  V30 6769 C 656.373 0.717409 1.80786 0
M  V30 6770 O 655.628 -0.292897 1.93496 0
M  V30 6771 C 655.927 3.17007 1.65049 0
M  V30 6772 C 655.593 4.43037 0.838398 0
M  V30 6773 C 654.255 4.77262 0.614385 0
M  V30 6774 C 656.607 5.20495 0.271044 0
M  V30 6775 C 653.935 5.864 -0.187552 0
M  V30 6776 C 656.287 6.30476 -0.517979 0
M  V30 6777 C 654.951 6.63245 -0.75249 0
M  V30 6778 H 654.221 0.672605 0.310939 0
M  V30 6779 H 656.868 1.91166 0.112971 0
M  V30 6780 H 655.173 3.05138 2.4576 0
M  V30 6781 H 656.87 3.34975 2.20437 0
M  V30 6782 H 653.46 4.16211 1.02307 0
M  V30 6783 H 657.644 4.94422 0.431371 0
M  V30 6784 H 652.9 6.10226 -0.378659 0
M  V30 6785 H 657.074 6.89686 -0.964694 0
M  V30 6786 H 654.701 7.47648 -1.37573 0
M  V30 6787 N 656.276 -0.40816 1.52223 0
M  V30 6788 C 657.206 -1.5042 1.78595 0
M  V30 6789 C 658.187 -1.57723 0.636974 0
M  V30 6790 O 659.372 -1.72982 0.882664 0
M  V30 6791 C 656.502 -2.88232 1.93751 0
M  V30 6792 C 655.456 -2.95779 3.09352 0
M  V30 6793 C 654.782 -4.35855 3.09732 0
M  V30 6794 C 656.082 -2.67175 4.48793 0
M  V30 6795 H 657.776 -1.28601 2.70374 0
M  V30 6796 H 655.322 -0.617221 1.30101 0
M  V30 6797 H 657.275 -3.64895 2.10783 0
M  V30 6798 H 655.999 -3.11347 0.986443 0
M  V30 6799 H 654.658 -2.21561 2.92072 0
M  V30 6800 H 654.306 -4.55981 2.12346 0
M  V30 6801 H 654.006 -4.41829 3.87377 0
M  V30 6802 H 655.53 -5.14451 3.28895 0
M  V30 6803 H 656.944 -3.3356 4.66273 0
M  V30 6804 H 655.341 -2.84523 5.28362 0
M  V30 6805 H 656.411 -1.62609 4.56822 0
M  V30 6806 N 657.755 -1.42862 -0.66545 0
M  V30 6807 C 659.003 -1.43546 -1.42264 0
M  V30 6808 C 659.324 -0.0563116 -1.94919 0
M  V30 6809 O 658.594 0.906568 -1.73661 0
M  V30 6810 H 657.174 -0.528464 -0.527953 0
M  V30 6811 H 659.836 -1.78363 -0.785665 0
M  V30 6812 H 658.932 -2.14079 -2.27105 0
M  V30 6813 N 659.233 0.902656 -1.29189 0
M  V30 6814 C 660.196 1.98797 -1.14071 0
M  V30 6815 C 661.196 1.60615 -0.0770549 0
M  V30 6816 O 662.386 1.71165 -0.323753 0
M  V30 6817 C 659.518 3.32688 -0.743739 0
M  V30 6818 H 660.711 2.13637 -2.10473 0
M  V30 6819 H 658.264 1.08678 -1.12334 0
M  V30 6820 H 658.999 3.23549 0.220554 0
M  V30 6821 H 658.784 3.61765 -1.51223 0
M  V30 6822 H 660.274 4.12337 -0.660935 0
M  V30 6823 N 660.711 1.11618 1.11262 0
M  V30 6824 C 661.658 0.7762 2.17356 0
M  V30 6825 C 662.628 -0.253152 1.6416 0
M  V30 6826 O 663.813 -0.129655 1.90359 0
M  V30 6827 C 660.953 0.227581 3.44349 0
M  V30 6828 C 660.066 1.31372 4.1154 0
M  V30 6829 C 659.201 0.72544 5.26223 0
M  V30 6830 C 658.24 1.7913 5.85302 0
M  V30 6831 N 657.377 1.22237 6.91377 0
M  V30 6832 H 662.217 1.68508 2.45783 0
M  V30 6833 H 659.754 0.841475 1.20655 0
M  V30 6834 H 661.712 -0.108483 4.17059 0
M  V30 6835 H 660.342 -0.644486 3.16301 0
M  V30 6836 H 659.394 1.7667 3.36885 0
M  V30 6837 H 660.706 2.12005 4.51504 0
M  V30 6838 H 659.86 0.339541 6.05749 0
M  V30 6839 H 658.599 -0.112188 4.87571 0
M  V30 6840 H 657.604 2.18648 5.04453 0
M  V30 6841 H 658.829 2.63199 6.26022 0
M  V30 6842 H 656.775 0.406423 6.5474 0
M  V30 6843 H 656.692 1.9654 7.30006 0
M  V30 6844 H 657.96 0.863426 7.74703 0
M  V30 6845 N 662.189 -1.289 0.906776 0
M  V30 6846 C 663.136 -2.2751 0.388313 0
M  V30 6847 C 664.106 -1.57301 -0.533439 0
M  V30 6848 O 665.291 -1.85243 -0.457148 0
M  V30 6849 C 662.431 -3.43091 -0.37181 0
M  V30 6850 C 661.544 -4.28066 0.581647 0
M  V30 6851 C 660.679 -5.30837 -0.19623 0
M  V30 6852 C 659.718 -6.07472 0.751294 0
M  V30 6853 N 658.855 -7.021 0.00737727 0
M  V30 6854 H 663.695 -2.71237 1.23428 0
M  V30 6855 H 661.232 -1.33397 0.619962 0
M  V30 6856 H 663.19 -4.08888 -0.828641 0
M  V30 6857 H 661.82 -3.00374 -1.18218 0
M  V30 6858 H 660.872 -3.62378 1.157 0
M  V30 6859 H 662.184 -4.81382 1.30665 0
M  V30 6860 H 661.338 -6.02485 -0.71394 0
M  V30 6861 H 660.077 -4.78272 -0.954324 0
M  V30 6862 H 659.082 -5.34682 1.28044 0
M  V30 6863 H 660.307 -6.62126 1.50883 0
M  V30 6864 H 658.253 -6.51894 -0.732854 0
M  V30 6865 H 658.17 -7.53004 0.672334 0
M  V30 6866 H 659.438 -7.77956 -0.490365 0
M  V30 6867 N 663.667 -0.670007 -1.42649 0
M  V30 6868 C 664.892 -0.196955 -2.06463 0
M  V30 6869 C 665.317 1.1352 -1.49983 0
M  V30 6870 O 664.675 1.705 -0.616397 0
M  V30 6871 C 664.723 -0.137381 -3.60338 0
M  V30 6872 O 663.827 0.895523 -4.02559 0
M  V30 6873 H 663.168 -0.102579 -0.656029 0
M  V30 6874 H 665.698 -0.917669 -1.82866 0
M  V30 6875 H 665.708 0.0403625 -4.0798 0
M  V30 6876 H 664.383 -1.10977 -4.0082 0
M  V30 6877 H 662.96 0.689209 -3.66476 0
M  V30 6878 N 665.145 1.52092 -0.413018 0
M  V30 6879 C 666.393 2.01456 0.161178 0
M  V30 6880 C 666.714 1.30034 1.45314 0
M  V30 6881 O 665.984 0.427435 1.9118 0
M  V30 6882 H 664.564 0.744376 0.0625526 0
M  V30 6883 H 667.226 1.86974 -0.550151 0
M  V30 6884 H 666.322 3.1008 0.354517 0
M  V30 6885 N 666.623 0.143563 1.56945 0
M  V30 6886 C 667.586 -0.783295 2.154 0
M  V30 6887 C 668.586 -1.17763 1.09492 0
M  V30 6888 O 669.776 -1.09912 1.35148 0
M  V30 6889 C 666.908 -2.06248 2.7143 0
M  V30 6890 H 668.101 -0.274863 2.98638 0
M  V30 6891 H 665.654 -0.105859 1.55941 0
M  V30 6892 H 666.389 -2.61466 1.91849 0
M  V30 6893 H 666.174 -1.78897 3.4891 0
M  V30 6894 H 667.664 -2.72453 3.16479 0
M  V30 6895 N 668.101 -1.57061 -0.130224 0
M  V30 6896 C 669.349 -1.83893 -0.838313 0
M  V30 6897 C 669.67 -0.727046 -1.80939 0
M  V30 6898 O 668.94 0.249927 -1.94299 0
M  V30 6899 H 667.52 -0.67846 -0.312573 0
M  V30 6900 H 670.182 -1.94529 -0.120224 0
M  V30 6901 H 669.278 -2.79419 -1.39038 0
M  V30 6902 N 669.579 0.400081 -1.52437 0
M  V30 6903 C 670.828 1.14332 -1.66166 0
M  V30 6904 C 671.141 1.91419 -0.402253 0
M  V30 6905 O 672.347 2.6824 -0.419487 0
M  V30 6906 C 670.803 2.08137 -2.9361 0
M  V30 6907 C 670.411 1.36524 -4.26691 0
M  V30 6908 C 672.155 2.82664 -3.16703 0
M  V30 6909 C 670.062 2.29031 -5.45251 0
M  V30 6910 H 668.992 0.430499 -0.61902 0
M  V30 6911 H 671.643 0.407017 -1.78929 0
M  V30 6912 H 670.025 2.85358 -2.74567 0
M  V30 6913 H 671.199 0.646061 -4.56249 0
M  V30 6914 H 669.514 0.74002 -4.09771 0
M  V30 6915 H 672.111 3.52037 -4.0246 0
M  V30 6916 H 672.454 3.46122 -2.31312 0
M  V30 6917 H 672.987 2.12541 -3.36261 0
M  V30 6918 H 669.726 1.70206 -6.33017 0
M  V30 6919 H 669.246 2.98896 -5.2002 0
M  V30 6920 H 670.925 2.89359 -5.78689 0
M  V30 6921 N 671.057 1.43213 0.657864 0
M  V30 6922 C 671.989 1.43974 1.78337 0
M  V30 6923 C 673.002 0.336482 1.59285 0
M  V30 6924 O 674.191 0.600631 1.68091 0
M  V30 6925 C 671.291 1.23242 3.15697 0
M  V30 6926 C 670.464 2.46319 3.61449 0
M  V30 6927 C 669.523 2.2088 4.77597 0
M  V30 6928 O 668.549 2.942 4.87273 0
M  V30 6929 N 669.751 1.22251 5.67481 0
M  V30 6930 H 672.516 2.40993 1.78164 0
M  V30 6931 H 670.077 1.3831 0.841549 0
M  V30 6932 H 672.069 1.04113 3.91079 0
M  V30 6933 H 670.639 0.346849 3.1067 0
M  V30 6934 H 669.859 2.80904 2.76563 0
M  V30 6935 H 671.147 3.28239 3.88763 0
M  V30 6936 H 670.545 0.616433 5.62331 0
M  V30 6937 H 669.102 1.09107 6.42603 0
M  V30 6938 N 672.536 -0.895792 1.29666 0
M  V30 6939 C 673.784 -1.64339 1.17631 0
M  V30 6940 C 674.105 -1.93099 -0.271643 0
M  V30 6941 O 673.375 -1.55981 -1.18518 0
M  V30 6942 H 671.955 -0.609162 0.432354 0
M  V30 6943 H 674.617 -1.07389 1.62646 0
M  V30 6944 H 673.713 -2.59815 1.72924 0
M  V30 6945 N 674.014 -1.12206 -1.10668 0
M  V30 6946 C 675.26 -0.877172 -1.82848 0
M  V30 6947 C 675.593 0.595571 -1.84842 0
M  V30 6948 O 674.868 1.44013 -1.30731 0
M  V30 6949 C 675.151 -1.44957 -3.29635 0
M  V30 6950 C 675.004 -2.99051 -3.35989 0
M  V30 6951 C 676.323 -1.10714 -4.25946 0
M  V30 6952 H 673.442 -0.320103 -0.663854 0
M  V30 6953 H 676.084 -1.38827 -1.2972 0
M  V30 6954 H 674.234 -1.01488 -3.7501 0
M  V30 6955 H 675.906 -3.51182 -2.99113 0
M  V30 6956 H 674.149 -3.34705 -2.75962 0
M  V30 6957 H 674.82 -3.34194 -4.39339 0
M  V30 6958 H 677.296 -1.48254 -3.88793 0
M  V30 6959 H 676.172 -1.5343 -5.2702 0
M  V30 6960 H 676.433 -0.019 -4.42096 0
M  V30 6961 N 675.492 1.28418 -0.913599 0
M  V30 6962 C 676.439 2.27301 -0.400373 0
M  V30 6963 C 677.409 1.57582 0.52509 0
M  V30 6964 O 678.594 1.85482 0.447318 0
M  V30 6965 C 675.734 3.43284 0.35361 0
M  V30 6966 C 674.847 4.27752 -0.604341 0
M  V30 6967 C 673.982 5.30934 0.168075 0
M  V30 6968 C 673.021 6.07065 -0.783499 0
M  V30 6969 N 672.158 7.02086 -0.0446112 0
M  V30 6970 H 676.998 2.70579 -1.24865 0
M  V30 6971 H 674.535 1.33067 -0.627028 0
M  V30 6972 H 676.493 4.09322 0.806945 0
M  V30 6973 H 675.123 3.00997 1.16623 0
M  V30 6974 H 674.175 3.61759 -1.17621 0
M  V30 6975 H 675.487 4.80682 -1.33216 0
M  V30 6976 H 674.641 6.02855 0.681979 0
M  V30 6977 H 673.38 4.78771 0.928947 0
M  V30 6978 H 672.385 5.33995 -1.30878 0
M  V30 6979 H 673.61 6.61317 -1.54392 0
M  V30 6980 H 671.556 6.52273 0.698272 0
M  V30 6981 H 671.473 7.52637 -0.712258 0
M  V30 6982 H 672.741 7.78205 0.449102 0
M  V30 6983 N 676.97 0.677563 1.42291 0
M  V30 6984 C 678.2 0.209155 2.05539 0
M  V30 6985 C 678.608 -1.13987 1.51009 0
M  V30 6986 O 677.951 -1.71976 0.645764 0
M  V30 6987 C 678.013 0.0697758 3.59432 0
M  V30 6988 C 677.677 1.34795 4.36668 0
M  V30 6989 C 678.674 2.28201 4.67141 0
M  V30 6990 C 676.359 1.59632 4.76259 0
M  V30 6991 C 678.353 3.44718 5.36142 0
M  V30 6992 C 676.04 2.76437 5.45 0
M  V30 6993 C 677.038 3.68805 5.74867 0
M  V30 6994 O 676.726 4.83567 6.42198 0
M  V30 6995 H 676.458 0.0986202 0.668768 0
M  V30 6996 H 679.012 0.925483 1.83368 0
M  V30 6997 H 677.242 -0.702157 3.80272 0
M  V30 6998 H 678.931 -0.359115 4.04308 0
M  V30 6999 H 679.697 2.10264 4.37052 0
M  V30 7000 H 675.576 0.886073 4.52404 0
M  V30 7001 H 679.12 4.16833 5.59371 0
M  V30 7002 H 675.017 2.94299 5.74507 0
M  V30 7003 H 675.785 4.83147 6.6069 0
M  V30 7004 N 678.448 -1.51871 0.421078 0
M  V30 7005 C 679.673 -2.0684 -0.152371 0
M  V30 7006 C 680.098 -1.28802 -1.37083 0
M  V30 7007 O 679.456 -0.321482 -1.78427 0
M  V30 7008 C 679.504 -3.57532 -0.469368 0
M  V30 7009 O 678.608 -3.81818 -1.55848 0
M  V30 7010 H 677.949 -0.663939 -0.00898586 0
M  V30 7011 H 680.479 -1.95674 0.597724 0
M  V30 7012 H 680.489 -4.01515 -0.724553 0
M  V30 7013 H 679.164 -4.13761 0.421276 0
M  V30 7014 H 677.741 -3.49709 -1.29453 0
M  V30 7015 N 679.926 -0.151884 -1.56866 0
M  V30 7016 C 681.175 0.497992 -1.95456 0
M  V30 7017 C 681.488 1.6569 -1.03953 0
M  V30 7018 O 682.694 2.37173 -1.32142 0
M  V30 7019 C 681.15 0.93732 -3.4748 0
M  V30 7020 C 680.758 -0.194921 -4.47576 0
M  V30 7021 C 682.502 1.55671 -3.94926 0
M  V30 7022 C 680.409 0.26295 -5.90815 0
M  V30 7023 H 679.339 0.189811 -0.729717 0
M  V30 7024 H 681.99 -0.237011 -1.81963 0
M  V30 7025 H 680.372 1.72773 -3.56322 0
M  V30 7026 H 681.546 -0.971951 -4.50433 0
M  V30 7027 H 679.861 -0.72303 -4.10075 0
M  V30 7028 H 682.458 1.91099 -4.99385 0
M  V30 7029 H 682.801 2.44748 -3.36755 0
M  V30 7030 H 683.334 0.831109 -3.89021 0
M  V30 7031 H 680.073 -0.592568 -6.52816 0
M  V30 7032 H 679.593 1.00575 -5.91308 0
M  V30 7033 H 681.272 0.713333 -6.43056 0
M  V30 7034 N 681.404 1.57128 0.121893 0
M  V30 7035 C 682.314 2.03425 1.16857 0
M  V30 7036 C 683.33 0.954108 1.45509 0
M  V30 7037 O 684.506 1.26541 1.56682 0
M  V30 7038 C 681.571 2.42685 2.47599 0
M  V30 7039 C 680.632 3.64767 2.2637 0
M  V30 7040 C 679.865 4.02145 3.50878 0
M  V30 7041 O 680.088 3.39897 4.58068 0
M  V30 7042 O 679.022 4.95262 3.42051 0
M  V30 7043 H 682.848 2.92825 0.80544 0
M  V30 7044 H 680.433 1.45654 0.332477 0
M  V30 7045 H 682.315 2.68684 3.24634 0
M  V30 7046 H 680.99 1.56432 2.83392 0
M  V30 7047 H 679.897 3.43922 1.47203 0
M  V30 7048 H 681.23 4.51716 1.95482 0
M  V30 7049 N 682.882 -0.391992 1.52647 0
M  V30 7050 C 683.845 -1.46135 1.7657 0
M  V30 7051 C 684.845 -1.47701 0.635698 0
M  V30 7052 O 686.035 -1.48924 0.903728 0
M  V30 7053 C 683.167 -2.85443 1.86374 0
M  V30 7054 H 684.36 -1.26208 2.72051 0
M  V30 7055 H 681.913 -0.623549 1.43323 0
M  V30 7056 H 682.648 -3.10718 0.928685 0
M  V30 7057 H 682.433 -2.85708 2.68539 0
M  V30 7058 H 683.923 -3.62933 2.06566 0
M  V30 7059 N 684.36 -1.4356 -0.65026 0
M  V30 7060 C 685.293 -1.434 -1.77515 0
M  V30 7061 C 686.271 -0.295082 -1.599 0
M  V30 7062 O 687.455 -0.489128 -1.82043 0
M  V30 7063 C 684.582 -1.2484 -3.14853 0
M  V30 7064 C 683.628 -2.42046 -3.51163 0
M  V30 7065 S 684.461 -4.04595 -3.50803 0
M  V30 7066 C 685.617 -3.88424 -4.90793 0
M  V30 7067 H 685.85 -2.38586 -1.77381 0
M  V30 7068 H 683.383 -1.30627 -0.823169 0
M  V30 7069 H 685.341 -1.14819 -3.94115 0
M  V30 7070 H 684.002 -0.311977 -3.12547 0
M  V30 7071 H 683.195 -2.24873 -4.51052 0
M  V30 7072 H 682.797 -2.48708 -2.79321 0
M  V30 7073 H 685.089 -3.50932 -5.79528 0
M  V30 7074 H 686.032 -4.88076 -5.13018 0
M  V30 7075 H 686.44 -3.20829 -4.64467 0
M  V30 7076 N 685.838 0.888903 -1.30139 0
M  V30 7077 C 687.066 1.67358 -1.21651 0
M  V30 7078 C 687.481 1.87499 0.221246 0
M  V30 7079 O 686.838 1.41969 1.14677 0
M  V30 7080 C 686.889 3.05213 -1.93719 0
M  V30 7081 O 686.61 2.85984 -3.31881 0
M  V30 7082 C 688.111 3.9964 -1.9184 0
M  V30 7083 H 685.331 0.522365 -0.42116 0
M  V30 7084 H 687.875 1.11086 -1.71698 0
M  V30 7085 H 686.03 3.5823 -1.4748 0
M  V30 7086 H 686.444 3.73411 -3.68327 0
M  V30 7087 H 687.918 4.93749 -2.46811 0
M  V30 7088 H 688.395 4.29955 -0.896409 0
M  V30 7089 H 689.001 3.52558 -2.37872 0
M  V30 7090 N 687.317 1.12792 1.10072 0
M  V30 7091 C 688.545 0.908506 1.85886 0
M  V30 7092 C 688.96 -0.542408 1.80841 0
M  V30 7093 O 688.317 -1.37517 1.1998 0
M  V30 7094 C 688.368 1.37973 3.34134 0
M  V30 7095 O 688.089 2.77378 3.39106 0
M  V30 7096 C 689.59 1.1978 4.26811 0
M  V30 7097 H 686.81 0.3244 0.587372 0
M  V30 7098 H 689.354 1.49882 1.39125 0
M  V30 7099 H 687.509 0.832566 3.78348 0
M  V30 7100 H 687.923 2.98144 4.31521 0
M  V30 7101 H 689.397 1.57635 5.29014 0
M  V30 7102 H 689.874 0.138768 4.38981 0
M  V30 7103 H 690.48 1.73266 3.88406 0
M  V30 7104 N 688.795 -1.27931 0.920396 0
M  V30 7105 C 690.041 -1.94977 0.557832 0
M  V30 7106 C 690.374 -1.72224 -0.897365 0
M  V30 7107 O 689.649 -1.04705 -1.63912 0
M  V30 7108 C 689.932 -3.49289 0.875741 0
M  V30 7109 C 689.785 -3.81416 2.38416 0
M  V30 7110 C 691.104 -4.38486 0.376517 0
M  V30 7111 H 688.223 -0.708164 0.20414 0
M  V30 7112 H 690.865 -1.5118 1.15085 0
M  V30 7113 H 689.015 -3.86724 0.371062 0
M  V30 7114 H 690.687 -3.53813 2.95997 0
M  V30 7115 H 688.93 -3.28225 2.83639 0
M  V30 7116 H 689.601 -4.89198 2.55713 0
M  V30 7117 H 692.077 -4.08161 0.808945 0
M  V30 7118 H 690.953 -5.45296 0.627976 0
M  V30 7119 H 691.214 -4.36143 -0.723293 0
M  V30 7120 N 690.273 -0.685099 -1.4193 0
M  V30 7121 C 691.22 -0.0131869 -2.30796 0
M  V30 7122 C 692.19 0.782129 -1.46533 0
M  V30 7123 O 693.375 0.75229 -1.75343 0
M  V30 7124 C 690.515 0.924768 -3.32479 0
M  V30 7125 C 689.628 0.122181 -4.31827 0
M  V30 7126 C 688.763 1.05682 -5.20581 0
M  V30 7127 C 687.802 0.246526 -6.11603 0
M  V30 7128 N 686.939 1.13442 -6.92875 0
M  V30 7129 H 691.779 -0.776789 -2.87698 0
M  V30 7130 H 689.316 -0.394791 -1.41703 0
M  V30 7131 H 691.274 1.48251 -3.89971 0
M  V30 7132 H 689.904 1.65488 -2.77152 0
M  V30 7133 H 688.956 -0.552335 -3.76369 0
M  V30 7134 H 690.268 -0.506473 -4.96222 0
M  V30 7135 H 689.422 1.68415 -5.82856 0
M  V30 7136 H 688.161 1.71935 -4.56388 0
M  V30 7137 H 687.166 -0.393944 -5.48387 0
M  V30 7138 H 688.391 -0.412053 -6.77849 0
M  V30 7139 H 686.337 1.78316 -6.313 0
M  V30 7140 H 686.254 0.561089 -7.53915 0
M  V30 7141 H 687.522 1.74889 -7.59628 0
M  V30 7142 N 691.751 1.51645 -0.429126 0
M  V30 7143 C 692.976 2.06917 0.141399 0
M  V30 7144 C 693.401 1.29527 1.36398 0
M  V30 7145 O 692.759 0.33094 1.78254 0
M  V30 7146 C 692.807 3.57776 0.4504 0
M  V30 7147 O 691.911 3.82639 1.53821 0
M  V30 7148 H 691.252 0.663978 0.0054647 0
M  V30 7149 H 693.782 1.95355 -0.608093 0
M  V30 7150 H 693.792 4.01894 0.703249 0
M  V30 7151 H 692.467 4.13532 -0.443213 0
M  V30 7152 H 691.044 3.5039 1.27597 0
M  V30 7153 N 693.229 0.160201 1.56784 0
M  V30 7154 C 694.475 -0.48831 1.96833 0
M  V30 7155 C 694.808 -1.63641 1.04571 0
M  V30 7156 O 694.083 -1.94289 0.0906481 0
M  V30 7157 C 694.366 -0.981908 3.46454 0
M  V30 7158 C 694.219 0.165607 4.49495 0
M  V30 7159 C 695.538 -1.85931 3.98896 0
M  V30 7160 H 692.657 -0.176027 0.71567 0
M  V30 7161 H 695.299 0.244093 1.88426 0
M  V30 7162 H 693.449 -1.60602 3.5375 0
M  V30 7163 H 695.121 0.802372 4.54268 0
M  V30 7164 H 693.364 0.822789 4.25926 0
M  V30 7165 H 694.035 -0.221699 5.51555 0
M  V30 7166 H 696.511 -1.33327 3.94161 0
M  V30 7167 H 695.387 -2.17373 5.04024 0
M  V30 7168 H 695.648 -2.80106 3.42042 0
M  V30 7169 N 694.707 -1.5719 -0.113559 0
M  V30 7170 C 695.953 -1.85412 -0.821597 0
M  V30 7171 C 696.286 -0.746722 -1.7927 0
M  V30 7172 O 695.561 0.246971 -1.92926 0
M  V30 7173 C 695.844 -3.24233 -1.56669 0
M  V30 7174 C 695.697 -4.45578 -0.614823 0
M  V30 7175 C 697.016 -3.60697 -2.52161 0
M  V30 7176 H 694.135 -0.674406 -0.29723 0
M  V30 7177 H 696.777 -1.89807 -0.085694 0
M  V30 7178 H 694.927 -3.20617 -2.19401 0
M  V30 7179 H 696.599 -4.613 0.00407137 0
M  V30 7180 H 694.842 -4.33738 0.0732332 0
M  V30 7181 H 695.513 -5.39395 -1.17292 0
M  V30 7182 H 697.989 -3.65139 -1.99532 0
M  V30 7183 H 696.865 -4.58798 -3.01323 0
M  V30 7184 H 697.126 -2.88403 -3.35076 0
M  V30 7185 N 696.185 0.383891 -1.52853 0
M  V30 7186 C 697.432 1.12842 -1.68146 0
M  V30 7187 C 697.76 1.89823 -0.423954 0
M  V30 7188 O 697.015 1.86475 0.593765 0
M  V30 7189 C 697.314 2.12881 -2.87082 0
M  V30 7190 C 696.98 1.52519 -4.24322 0
M  V30 7191 C 695.642 1.35783 -4.61645 0
M  V30 7192 C 697.994 1.0868 -5.09743 0
M  V30 7193 C 695.322 0.737643 -5.82044 0
M  V30 7194 C 697.674 0.480699 -6.30771 0
M  V30 7195 C 696.338 0.300681 -6.66822 0
M  V30 7196 H 695.608 0.412917 -0.615289 0
M  V30 7197 H 698.255 0.412416 -1.87006 0
M  V30 7198 H 696.56 2.90719 -2.62659 0
M  V30 7199 H 698.257 2.70408 -2.96109 0
M  V30 7200 H 694.847 1.66534 -3.94923 0
M  V30 7201 H 699.031 1.2041 -4.81472 0
M  V30 7202 H 694.287 0.586415 -6.08581 0
M  V30 7203 H 698.461 0.132733 -6.96273 0
M  V30 7204 H 696.088 -0.181966 -7.59982 0
M  V30 7205 N 697.663 1.43903 0.642637 0
M  V30 7206 C 698.94 1.36556 1.40043 0
M  V30 7207 C 699.32 0.0185588 2.11092 0
M  V30 7208 O 698.668 -0.998438 2.05532 0
M  V30 7209 C 698.878 2.55596 2.37638 0
M  V30 7210 C 700.226 2.99153 3.01318 0
M  V30 7211 O 701.25 2.55719 2.47965 0
M  V30 7212 O 700.109 3.74427 3.98078 0
M  V30 7213 H 697.203 0.540189 0.626198 0
M  V30 7214 H 699.749 1.55971 0.668657 0
M  V30 7215 H 698.521 3.45256 1.84158 0
M  V30 7216 H 698.144 2.38334 3.18249 0
M  V30 7217 N 699.141 -0.881989 1.30609 0
M  V30 7218 C 700.39 -1.62878 1.18969 0
M  V30 7219 C 700.703 -1.93946 -0.253859 0
M  V30 7220 O 701.909 -2.67008 -0.491813 0
M  V30 7221 C 700.365 -2.93573 2.0819 0
M  V30 7222 C 699.973 -2.70034 3.57471 0
M  V30 7223 C 701.717 -3.71543 2.0532 0
M  V30 7224 C 699.624 -3.96563 4.38739 0
M  V30 7225 H 698.554 -0.611092 0.441682 0
M  V30 7226 H 701.205 -0.976201 1.55379 0
M  V30 7227 H 699.587 -3.6014 1.64666 0
M  V30 7228 H 700.761 -2.11949 4.09163 0
M  V30 7229 H 699.076 -2.05435 3.62195 0
M  V30 7230 H 701.673 -4.65386 2.63288 0
M  V30 7231 H 702.016 -4.03167 1.03739 0
M  V30 7232 H 702.549 -3.11842 2.46981 0
M  V30 7233 H 699.288 -3.70095 5.41027 0
M  V30 7234 H 698.808 -4.54142 3.9181 0
M  V30 7235 H 700.487 -4.64557 4.50329 0
M  V30 7236 N 700.619 -1.13374 -1.09472 0
M  V30 7237 C 701.566 -0.810682 -2.16094 0
M  V30 7238 C 702.536 0.227003 -1.64541 0
M  V30 7239 O 703.721 0.0993538 -1.90541 0
M  V30 7240 C 700.861 -0.282336 -3.43943 0
M  V30 7241 C 699.974 -1.37902 -4.09398 0
M  V30 7242 C 699.109 -0.809066 -5.25002 0
M  V30 7243 C 698.148 -1.88419 -5.82379 0
M  V30 7244 N 697.285 -1.33221 -6.89345 0
M  V30 7245 H 702.125 -1.72397 -2.43071 0
M  V30 7246 H 699.662 -0.860564 -1.19301 0
M  V30 7247 H 701.62 0.0421189 -4.17179 0
M  V30 7248 H 700.25 0.594083 -3.17286 0
M  V30 7249 H 699.302 -1.82008 -3.34032 0
M  V30 7250 H 700.614 -2.19161 -4.48074 0
M  V30 7251 H 699.768 -0.435867 -6.05132 0
M  V30 7252 H 698.507 0.0346058 -4.87688 0
M  V30 7253 H 697.512 -2.26646 -5.00911 0
M  V30 7254 H 698.737 -2.73125 -6.21755 0
M  V30 7255 H 696.683 -0.510535 -6.5401 0
M  V30 7256 H 696.6 -2.08129 -7.26786 0
M  V30 7257 H 697.868 -0.986565 -7.73232 0
M  V30 7258 O 702.136 1.21979 -1.05846 0
M  V30 7259 H 702.827 1.79103 -0.73768 0
M  V30 END ATOM
M  V30 BEGIN BOND
M  V30 END BOND
M  V30 END CTAB
M  END
$$$$
