drugbank_target|Q9R5V5 Nucleoside deoxyribosyltransferase (DB03763)
 OpenBabel12092119583D

  0  0  0     0  0            999 V3000
M  V30 BEGIN CTAB
M  V30 COUNTS 2503 2536 0 0 0
M  V30 BEGIN ATOM
M  V30 1 H -0.908 1.98254 -0.117106 0
M  V30 2 N 0 1.576 0 0
M  V30 3 C 0.933 2.03868 1.02534 0
M  V30 4 C 1.911 0.928543 1.3348 0
M  V30 5 O 3.095 1.19667 1.45644 0
M  V30 6 C 0.222 2.43627 2.35294 0
M  V30 7 C -0.732 3.65373 2.2001 0
M  V30 8 S 0.101 5.13292 1.52614 0
M  V30 9 C 1.257 5.56322 2.86805 0
M  V30 10 H 1.49 2.90518 0.631377 0
M  V30 11 H -0.977 1.52953 0.210867 0
M  V30 12 H 0.981 2.67203 3.11629 0
M  V30 13 H -0.358 1.57376 2.7183 0
M  V30 14 H -1.165 3.90944 3.18086 0
M  V30 15 H -1.563 3.418 1.51819 0
M  V30 16 H 0.729 5.58782 3.83104 0
M  V30 17 H 1.672 6.56266 2.65933 0
M  V30 18 H 2.08 4.83886 2.90714 0
M  V30 19 N 1.4781 -0.272755 1.55222 0
M  V30 20 C 2.8891 -0.84378 1.66545 0
M  V30 21 C 3.2401 -1.87035 0.592641 0
M  V30 22 O 2.3651 -2.14761 -0.265818 0
M  V30 23 C 2.9601 -1.53723 3.01918 0
M  V30 24 C 1.5191 -2.05628 3.15268 0
M  V30 25 C 0.6661 -0.898424 2.62343 0
M  V30 26 H 3.6171 -0.0490998 1.58624 0
M  V30 27 H 3.6381 -2.40421 2.94921 0
M  V30 28 H 3.1501 -0.78983 3.79978 0
M  V30 29 H 1.2511 -2.83329 2.41983 0
M  V30 30 H 1.3641 -2.27142 4.21833 0
M  V30 31 H -0.2719 -1.29186 2.19506 0
M  V30 32 H 0.5111 -0.164528 3.42906 0
M  V30 33 N 2.9562 -1.48159 -0.537278 0
M  V30 34 C 3.9032 -1.62138 -1.64256 0
M  V30 35 C 4.8732 -0.463668 -1.59497 0
M  V30 36 O 6.0582 -0.686241 -1.78032 0
M  V30 37 C 3.1982 -1.66028 -3.02537 0
M  V30 38 C 2.3112 -2.92855 -3.17585 0
M  V30 39 C 1.4462 -2.87952 -4.46382 0
M  V30 40 C 0.4852 -4.09516 -4.54932 0
M  V30 41 N -0.3778 -4.02733 -5.75109 0
M  V30 42 H 4.4622 -2.56529 -1.51647 0
M  V30 43 H 1.9992 -1.27224 -0.738414 0
M  V30 44 H 3.9572 -1.66265 -3.82638 0
M  V30 45 H 2.5872 -0.751331 -3.13934 0
M  V30 46 H 1.6392 -3.02395 -2.30784 0
M  V30 47 H 2.9512 -3.82822 -3.19764 0
M  V30 48 H 2.1052 -2.8655 -5.34765 0
M  V30 49 H 0.8442 -1.95702 -4.46712 0
M  V30 50 H -0.1508 -4.11201 -3.64957 0
M  V30 51 H 1.0742 -5.02917 -4.56346 0
M  V30 52 H -0.9798 -3.13299 -5.76351 0
M  V30 53 H -1.0628 -4.86397 -5.78752 0
M  V30 54 H 0.2052 -4.05379 -6.65799 0
M  V30 55 N 4.4343 0.785586 -1.36625 0
M  V30 56 C 5.3813 1.89838 -1.31264 0
M  V30 57 C 6.3513 1.65115 -0.180633 0
M  V30 58 O 7.5363 1.87222 -0.36777 0
M  V30 59 C 4.6763 3.26706 -1.11163 0
M  V30 60 C 3.7893 3.63476 -2.33472 0
M  V30 61 C 2.9243 4.89481 -2.06353 0
M  V30 62 C 1.9633 5.18941 -3.24602 0
M  V30 63 N 1.1003 6.36131 -2.97123 0
M  V30 64 H 5.9403 1.93756 -2.26413 0
M  V30 65 H 3.4773 0.947454 -1.12524 0
M  V30 66 H 5.4353 4.05639 -0.975337 0
M  V30 67 H 4.0653 3.222 -0.196674 0
M  V30 68 H 3.1173 2.79636 -2.57891 0
M  V30 69 H 4.4293 3.81193 -3.21704 0
M  V30 70 H 3.5833 5.76288 -1.89675 0
M  V30 71 H 2.3223 4.73841 -1.15437 0
M  V30 72 H 1.3273 4.30615 -3.41834 0
M  V30 73 H 2.5523 5.36498 -4.16349 0
M  V30 74 H 0.4983 6.21875 -2.08823 0
M  V30 75 H 0.4153 6.54198 -3.78894 0
M  V30 76 H 1.6833 7.2591 -2.84033 0
M  V30 77 N 5.9124 1.20967 1.01018 0
M  V30 78 C 7.1404 1.04956 1.78303 0
M  V30 79 C 7.5554 -0.400915 1.84494 0
M  V30 80 O 6.9124 -1.27826 1.30257 0
M  V30 81 C 6.9634 1.63403 3.22462 0
M  V30 82 O 6.6844 3.02775 3.16637 0
M  V30 83 C 8.1854 1.52432 4.16268 0
M  V30 84 H 5.4054 0.368858 0.560522 0
M  V30 85 H 7.9494 1.60193 1.27116 0
M  V30 86 H 6.1044 1.1227 3.70775 0
M  V30 87 H 6.5184 3.30626 4.07169 0
M  V30 88 H 7.9924 1.98078 5.15237 0
M  V30 89 H 8.4694 0.477875 4.36592 0
M  V30 90 H 9.0754 2.02787 3.73841 0
M  V30 91 N 7.3905 -1.2043 1.01659 0
M  V30 92 C 8.6395 -1.89118 0.701237 0
M  V30 93 C 8.9525 -1.79705 -0.772358 0
M  V30 94 O 10.1585 -2.43528 -1.20026 0
M  V30 95 C 8.6145 -3.39168 1.20388 0
M  V30 96 C 8.2225 -3.57166 2.70438 0
M  V30 97 C 9.9665 -4.1341 0.963953 0
M  V30 98 C 7.8735 -5.01042 3.14183 0
M  V30 99 H 6.8035 -0.708267 0.2586 0
M  V30 100 H 9.4545 -1.36239 1.22927 0
M  V30 101 H 7.8365 -3.91369 0.603824 0
M  V30 102 H 9.0105 -3.15351 3.35992 0
M  V30 103 H 7.3255 -2.96294 2.92572 0
M  V30 104 H 9.9225 -5.19491 1.26621 0
M  V30 105 H 10.2655 -4.16181 -0.099578 0
M  V30 106 H 10.7985 -3.67309 1.52738 0
M  V30 107 H 7.5375 -5.03426 4.19812 0
M  V30 108 H 7.0575 -5.43668 2.53348 0
M  V30 109 H 8.7365 -5.69623 3.0682 0
M  V30 110 N 8.8686 -0.792821 -1.36206 0
M  V30 111 C 10.0986 -0.378275 -2.03107 0
M  V30 112 C 10.5066 1.01119 -1.59911 0
M  V30 113 O 9.8496 1.66052 -0.785658 0
M  V30 114 C 9.9116 -0.366535 -3.57627 0
M  V30 115 C 9.5756 -1.70416 -4.24037 0
M  V30 116 C 10.5726 -2.6602 -4.46687 0
M  V30 117 C 8.2576 -1.98439 -4.6144 0
M  V30 118 C 10.2516 -3.8784 -5.05825 0
M  V30 119 C 7.9386 -3.20525 -5.20295 0
M  V30 120 C 8.9366 -4.15044 -5.42427 0
M  V30 121 O 8.6246 -5.34978 -6.00045 0
M  V30 122 H 8.3566 -0.153543 -0.658332 0
M  V30 123 H 10.9106 -1.07383 -1.75094 0
M  V30 124 H 9.1406 0.385539 -3.84773 0
M  V30 125 H 10.8296 0.0238088 -4.05893 0
M  V30 126 H 11.5956 -2.45658 -4.18183 0
M  V30 127 H 7.4746 -1.25686 -4.43536 0
M  V30 128 H 11.0186 -4.61628 -5.23015 0
M  V30 129 H 6.9156 -3.40764 -5.48225 0
M  V30 130 H 7.6836 -5.36088 -6.18508 0
M  V30 131 N 10.3467 1.47872 -0.545128 0
M  V30 132 C 11.5937 2.02493 -0.0165858 0
M  V30 133 C 11.9217 1.42073 1.32836 0
M  V30 134 O 11.1767 0.561459 1.87473 0
M  V30 135 C 11.4757 3.57131 0.13867 0
M  V30 136 C 11.1417 4.36411 -1.13384 0
M  V30 137 C 9.8037 4.57792 -1.48256 0
M  V30 138 C 12.1557 4.82223 -1.97764 0
M  V30 139 C 9.4837 5.22233 -2.67376 0
M  V30 140 C 11.8357 5.47977 -3.16076 0
M  V30 141 C 10.4997 5.67593 -3.51275 0
M  V30 142 H 9.7697 0.740975 -0.00606918 0
M  V30 143 H 12.4167 1.77683 -0.714207 0
M  V30 144 H 10.7217 3.80865 0.919172 0
M  V30 145 H 12.4187 3.97031 0.562782 0
M  V30 146 H 9.0087 4.2004 -0.852297 0
M  V30 147 H 13.1927 4.65493 -1.72132 0
M  V30 148 H 8.4487 5.35616 -2.94831 0
M  V30 149 H 12.6227 5.8244 -3.81755 0
M  V30 150 H 10.2497 6.17298 -4.43675 0
M  V30 151 N 11.8248 0.280983 1.55075 0
M  V30 152 C 13.0728 -0.333455 1.9933 0
M  V30 153 C 13.3938 -1.55937 1.17085 0
M  V30 154 O 12.6638 -1.94143 0.261805 0
M  V30 155 H 11.2438 -0.126197 0.736263 0
M  V30 156 H 13.9058 0.387678 1.91005 0
M  V30 157 H 13.0018 -0.619292 3.05894 0
M  V30 158 N 13.3029 -1.57598 0.00835791 0
M  V30 159 C 14.2659 -2.07884 -0.965242 0
M  V30 160 C 15.2659 -0.989825 -1.26725 0
M  V30 161 O 16.4559 -1.25218 -1.21104 0
M  V30 162 C 13.5879 -2.52731 -2.28779 0
M  V30 163 H 14.7809 -2.95178 -0.530112 0
M  V30 164 H 12.3339 -1.54458 -0.239283 0
M  V30 165 H 13.0689 -1.68705 -2.76964 0
M  V30 166 H 12.8539 -3.32272 -2.08177 0
M  V30 167 H 14.3439 -2.91933 -2.98605 0
M  V30 168 N 14.781 0.264519 -1.55364 0
M  V30 169 C 16.029 0.993021 -1.76021 0
M  V30 170 C 16.35 1.86511 -0.569099 0
M  V30 171 O 15.62 1.91438 0.415735 0
M  V30 172 H 14.2 0.369639 -0.649135 0
M  V30 173 H 16.862 0.286707 -1.9278 0
M  V30 174 H 15.958 1.62502 -2.66457 0
M  V30 175 N 16.2591 1.48442 0.529413 0
M  V30 176 C 17.5051 1.57699 1.28463 0
M  V30 177 C 17.8601 0.247913 1.90796 0
M  V30 178 O 17.1531 -0.749279 1.76342 0
M  V30 179 C 17.3471 2.6523 2.39558 0
M  V30 180 C 17.1761 4.08464 1.88114 0
M  V30 181 C 15.9461 4.75596 1.70693 0
M  V30 182 C 18.1441 4.94613 1.40935 0
M  V30 183 N 16.1261 6.03245 1.13881 0
M  V30 184 C 17.4971 6.12511 0.960734 0
M  V30 185 C 19.5521 4.80833 1.29243 0
M  V30 186 C 18.2551 7.18149 0.406792 0
M  V30 187 C 20.2811 5.86593 0.752487 0
M  V30 188 C 19.6431 7.037 0.313946 0
M  V30 189 H 15.7421 0.631608 0.46108 0
M  V30 190 H 18.3261 1.85325 0.596886 0
M  V30 191 H 16.4971 2.39425 3.05827 0
M  V30 192 H 18.2291 2.64169 3.06589 0
M  V30 193 H 14.9841 4.31938 1.94232 0
M  V30 194 H 15.4081 6.71324 0.874831 0
M  V30 195 H 20.0501 3.90635 1.61754 0
M  V30 196 H 17.7681 8.0807 0.0693671 0
M  V30 197 H 21.3541 5.77985 0.665192 0
M  V30 198 H 20.2341 7.8414 -0.0973632 0
M  V30 199 N 17.7372 -0.778329 1.37039 0
M  V30 200 C 18.9842 -1.53665 1.31884 0
M  V30 201 C 19.3122 -1.9425 -0.0986303 0
M  V30 202 O 18.5672 -1.63832 -1.07041 0
M  V30 203 C 18.8662 -2.81845 2.19768 0
M  V30 204 C 18.5322 -2.60345 3.68146 0
M  V30 205 C 17.1942 -2.5419 4.08584 0
M  V30 206 C 19.5462 -2.40923 4.62175 0
M  V30 207 C 16.8742 -2.26594 5.41177 0
M  V30 208 C 19.2262 -2.14852 5.94997 0
M  V30 209 C 17.8902 -2.07137 6.34547 0
M  V30 210 H 17.1602 -0.562299 0.482598 0
M  V30 211 H 19.8072 -0.897069 1.69189 0
M  V30 212 H 18.1122 -3.50328 1.75436 0
M  V30 213 H 19.8092 -3.39692 2.13097 0
M  V30 214 H 16.3992 -2.65996 3.36072 0
M  V30 215 H 20.5832 -2.44673 4.31797 0
M  V30 216 H 15.8392 -2.19111 5.70789 0
M  V30 217 H 20.0132 -1.98822 6.67415 0
M  V30 218 H 17.6402 -1.85518 7.37216 0
M  V30 219 N 19.2153 -1.21501 -1.00376 0
M  V30 220 C 20.4433 -1.059 -1.77744 0
M  V30 221 C 20.8583 0.391125 -1.84704 0
M  V30 222 O 20.2153 1.27133 -1.30933 0
M  V30 223 C 20.2663 -1.65111 -3.21591 0
M  V30 224 O 19.9873 -3.0445 -3.15027 0
M  V30 225 C 21.4883 -1.54637 -4.15454 0
M  V30 226 H 18.7083 -0.371825 -0.558558 0
M  V30 227 H 21.2523 -1.60865 -1.26264 0
M  V30 228 H 19.4073 -1.14235 -3.70175 0
M  V30 229 H 19.8213 -3.3278 -4.0541 0
M  V30 230 H 21.2953 -2.00808 -5.14179 0
M  V30 231 H 21.7723 -0.501022 -4.36333 0
M  V30 232 H 22.3783 -2.04767 -3.72761 0
M  V30 233 N 20.6934 1.19889 -1.02296 0
M  V30 234 C 21.9704 1.85148 -0.630832 0
M  V30 235 C 22.3504 1.91385 0.890782 0
M  V30 236 O 21.6984 1.42642 1.78509 0
M  V30 237 C 21.9084 3.24442 -1.28602 0
M  V30 238 C 23.2564 4.00663 -1.4055 0
M  V30 239 O 24.2804 3.33818 -1.24273 0
M  V30 240 O 23.1394 5.20387 -1.66913 0
M  V30 241 H 20.2334 0.797613 -0.218499 0
M  V30 242 H 22.7794 1.27427 -1.12074 0
M  V30 243 H 21.5514 3.14704 -2.32545 0
M  V30 244 H 21.1744 3.89802 -0.7836 0
M  V30 245 N 22.1715 0.800033 1.35784 0
M  V30 246 C 23.5875 0.482977 1.52117 0
M  V30 247 C 23.7875 -0.996948 1.75109 0
M  V30 248 O 22.8435 -1.78216 1.78872 0
M  V30 249 C 24.1565 1.32264 2.70049 0
M  V30 250 C 25.7045 1.31742 2.83924 0
M  V30 251 C 26.1795 2.14106 4.04874 0
M  V30 252 N 27.6705 2.11607 4.12039 0
M  V30 253 C 28.4055 2.72099 5.04727 0
M  V30 254 N 27.9015 3.41492 6.02789 0
M  V30 255 N 29.6945 2.61776 4.97423 0
M  V30 256 H 21.8455 1.75856 1.19115 0
M  V30 257 H 24.1085 0.748122 0.582252 0
M  V30 258 H 23.8145 2.37261 2.59616 0
M  V30 259 H 23.6885 0.971303 3.6448 0
M  V30 260 H 26.0755 0.275333 2.93813 0
M  V30 261 H 26.1565 1.70859 1.9037 0
M  V30 262 H 25.8005 3.18351 3.95746 0
M  V30 263 H 25.7305 1.72353 4.97596 0
M  V30 264 H 28.2215 1.61112 3.41835 0
M  V30 265 H 28.5345 3.84953 6.70098 0
M  V30 266 H 26.8795 3.45596 6.02983 0
M  V30 267 H 30.0705 2.07157 4.19766 0
M  V30 268 H 30.2435 3.0921 5.69468 0
M  V30 269 N 23.6496 -1.47581 0.552962 0
M  V30 270 C 24.5816 -2.27997 -0.234533 0
M  V30 271 C 25.5946 -1.36753 -0.883321 0
M  V30 272 O 26.7836 -1.61612 -0.757889 0
M  V30 273 C 23.8836 -3.10879 -1.34935 0
M  V30 274 C 23.0566 -4.30056 -0.798158 0
M  V30 275 C 22.1156 -4.94567 -1.79694 0
M  V30 276 O 21.1416 -5.53087 -1.34474 0
M  V30 277 N 22.3436 -4.88878 -3.13015 0
M  V30 278 H 25.1086 -2.96222 0.455255 0
M  V30 279 H 22.6696 -1.57163 0.388761 0
M  V30 280 H 24.6616 -3.50903 -2.01616 0
M  V30 281 H 23.2316 -2.44924 -1.94244 0
M  V30 282 H 22.4516 -3.94174 0.0453079 0
M  V30 283 H 23.7396 -5.07152 -0.409173 0
M  V30 284 H 23.1376 -4.42526 -3.52402 0
M  V30 285 H 21.6946 -5.32934 -3.75266 0
M  V30 286 N 25.1277 -0.289203 -1.54924 0
M  V30 287 C 26.0757 0.607966 -2.24514 0
M  V30 288 C 27.0697 1.14655 -1.24702 0
M  V30 289 O 28.2757 1.09856 -1.4259 0
M  V30 290 H 24.6507 0.21464 -0.720718 0
M  V30 291 H 26.6217 -0.00164182 -2.984 0
M  V30 292 C 25.3707 1.77406 -2.99036 0
M  V30 293 H 24.6937 1.36884 -3.75637 0
M  V30 294 H 26.1337 2.37814 -3.51028 0
M  V30 295 C 24.5927 2.67107 -2.05318 0
M  V30 296 O 25.1227 3.6787 -1.61353 0
M  V30 297 N 23.3287 2.34582 -1.71521 0
M  V30 298 H 22.8757 1.52688 -2.07471 0
M  V30 299 H 22.8337 2.94867 -1.0909 0
M  V30 300 N 26.6058 1.57591 -0.0167156 0
M  V30 301 C 27.5528 2.09462 0.969251 0
M  V30 302 C 28.5228 0.99381 1.33089 0
M  V30 303 O 29.7078 1.26726 1.42636 0
M  V30 304 C 26.8478 2.61622 2.25051 0
M  V30 305 C 25.9608 3.85666 1.94642 0
M  V30 306 C 25.0958 4.26266 3.16972 0
M  V30 307 C 24.1348 5.43101 2.82326 0
M  V30 308 N 23.2718 5.78915 3.97243 0
M  V30 309 H 28.1118 2.93428 0.519997 0
M  V30 310 H 25.6488 1.45044 0.245087 0
M  V30 311 H 27.6068 2.89949 2.99976 0
M  V30 312 H 26.2368 1.80505 2.67615 0
M  V30 313 H 25.2888 3.64145 1.10013 0
M  V30 314 H 26.6008 4.70678 1.65117 0
M  V30 315 H 25.7548 4.55963 4.00228 0
M  V30 316 H 24.4938 3.39996 3.49648 0
M  V30 317 H 23.4988 5.1311 1.97479 0
M  V30 318 H 24.7238 6.3106 2.50879 0
M  V30 319 H 22.6698 4.95602 4.29785 0
M  V30 320 H 22.5868 6.58539 3.71299 0
M  V30 321 H 23.8548 6.13212 4.81239 0
M  V30 322 N 28.0839 -0.256276 1.55502 0
M  V30 323 C 29.0469 -1.30047 1.88734 0
M  V30 324 C 30.0469 -1.4154 0.763086 0
M  V30 325 O 31.2369 -1.40403 1.03115 0
M  V30 326 C 28.3689 -2.67953 2.10747 0
M  V30 327 H 29.5619 -1.01802 2.82093 0
M  V30 328 H 27.1149 -0.495134 1.4825 0
M  V30 329 H 27.8499 -3.01351 1.19825 0
M  V30 330 H 27.6349 -2.60993 2.92617 0
M  V30 331 H 29.1249 -3.43368 2.37673 0
M  V30 332 N 29.562 -1.4872 -0.521534 0
M  V30 333 C 30.792 -1.6061 -1.29954 0
M  V30 334 C 31.2 -0.268728 -1.87282 0
M  V30 335 O 30.543 0.753221 -1.67548 0
M  V30 336 C 30.605 -2.60013 -2.48261 0
M  V30 337 C 30.269 -4.04874 -2.11957 0
M  V30 338 C 31.266 -4.92304 -1.67132 0
M  V30 339 C 28.951 -4.5047 -2.22221 0
M  V30 340 C 30.945 -6.2336 -1.33047 0
M  V30 341 C 28.632 -5.81544 -1.87748 0
M  V30 342 C 29.63 -6.67812 -1.43234 0
M  V30 343 O 29.318 -7.96446 -1.09217 0
M  V30 344 H 29.05 -0.544116 -0.401141 0
M  V30 345 H 31.604 -1.95339 -0.634958 0
M  V30 346 H 29.834 -2.20422 -3.17728 0
M  V30 347 H 31.523 -2.61648 -3.10315 0
M  V30 348 H 32.289 -4.58312 -1.58665 0
M  V30 349 H 28.168 -3.83504 -2.55823 0
M  V30 350 H 31.712 -6.90649 -0.982299 0
M  V30 351 H 27.609 -6.15069 -1.95858 0
M  V30 352 H 28.377 -8.09275 -1.22542 0
M  V30 353 N 31.0401 0.771051 -1.3745 0
M  V30 354 C 31.9871 1.88435 -1.3327 0
M  V30 355 C 32.9571 1.64914 -0.198136 0
M  V30 356 O 34.1421 1.86821 -0.387606 0
M  V30 357 C 31.2821 3.25509 -1.14622 0
M  V30 358 C 30.3951 3.60979 -2.37314 0
M  V30 359 C 29.5301 4.87265 -2.11533 0
M  V30 360 C 28.5691 5.15469 -3.30088 0
M  V30 361 N 27.7061 6.32944 -3.03853 0
M  V30 362 H 32.5461 1.91344 -2.28455 0
M  V30 363 H 30.0831 0.935466 -1.13523 0
M  V30 364 H 32.0411 4.04582 -1.01831 0
M  V30 365 H 30.6711 3.21974 -0.230837 0
M  V30 366 H 29.7231 2.76885 -2.60842 0
M  V30 367 H 31.0351 3.77759 -3.25729 0
M  V30 368 H 30.1891 5.74244 -1.95777 0
M  V30 369 H 28.9281 4.7259 -1.20457 0
M  V30 370 H 27.9331 4.26966 -3.46382 0
M  V30 371 H 29.1581 5.32052 -4.22016 0
M  V30 372 H 27.1041 6.19625 -2.15407 0
M  V30 373 H 27.0211 6.50143 -3.85812 0
M  V30 374 H 28.2891 7.22857 -2.91716 0
M  V30 375 N 32.5182 1.22032 0.997298 0
M  V30 376 C 33.4282 1.00271 2.12092 0
M  V30 377 C 34.4442 -0.047621 1.73935 0
M  V30 378 O 35.6202 0.144136 2.00884 0
M  V30 379 C 32.6852 0.578449 3.4184 0
M  V30 380 C 31.7462 1.70189 3.94125 0
M  V30 381 C 30.9792 1.29778 5.17681 0
M  V30 382 O 31.2022 0.174676 5.70132 0
M  V30 383 O 30.1362 2.11261 5.63607 0
M  V30 384 H 33.9622 1.94398 2.3333 0
M  V30 385 H 31.5472 1.00587 1.10465 0
M  V30 386 H 33.4292 0.351998 4.19927 0
M  V30 387 H 32.1042 -0.334019 3.21972 0
M  V30 388 H 31.0112 1.98282 3.1723 0
M  V30 389 H 32.3442 2.59206 4.18417 0
M  V30 390 N 33.9963 -1.19345 1.0293 0
M  V30 391 C 34.9593 -2.20793 0.615069 0
M  V30 392 C 35.9593 -1.57553 -0.321533 0
M  V30 393 O 37.1493 -1.73862 -0.108483 0
M  V30 394 C 34.2813 -3.40754 -0.0999222 0
M  V30 395 H 35.4743 -2.58955 1.51269 0
M  V30 396 H 33.0273 -1.3303 0.820534 0
M  V30 397 H 33.7623 -3.0811 -1.01187 0
M  V30 398 H 33.5473 -3.87889 0.57309 0
M  V30 399 H 35.0373 -4.15898 -0.376645 0
M  V30 400 N 35.4744 -0.807222 -1.35358 0
M  V30 401 C 36.4074 -0.163572 -2.27613 0
M  V30 402 C 37.3854 0.670817 -1.48118 0
M  V30 403 O 38.5694 0.63796 -1.77376 0
M  V30 404 C 35.6964 0.773015 -3.29761 0
M  V30 405 C 34.7424 0.0181653 -4.26496 0
M  V30 406 S 35.5754 -1.31831 -5.19019 0
M  V30 407 C 36.7314 -0.38619 -6.24707 0
M  V30 408 H 36.9644 -0.945757 -2.81856 0
M  V30 409 H 34.4974 -0.602315 -1.42167 0
M  V30 410 H 36.4554 1.30788 -3.89108 0
M  V30 411 H 35.1164 1.52859 -2.74396 0
M  V30 412 H 34.3094 0.729534 -4.98692 0
M  V30 413 H 33.9114 -0.446761 -3.71322 0
M  V30 414 H 36.2034 0.428295 -6.76145 0
M  V30 415 H 37.1464 -1.07736 -6.99856 0
M  V30 416 H 37.5544 0.018398 -5.64497 0
M  V30 417 N 36.9525 1.47285 -0.560781 0
M  V30 418 C 37.8625 2.33846 0.187954 0
M  V30 419 C 38.8785 1.48412 0.908293 0
M  V30 420 O 40.0545 1.81332 0.876388 0
M  V30 421 C 37.1195 3.25178 1.2025 0
M  V30 422 C 36.1805 4.26504 0.489208 0
M  V30 423 C 35.4135 5.13472 1.45542 0
M  V30 424 O 35.6365 5.02959 2.6905 0
M  V30 425 O 34.5705 5.93902 0.977963 0
M  V30 426 H 38.3965 2.99177 -0.522177 0
M  V30 427 H 35.9815 1.45903 -0.321364 0
M  V30 428 H 37.8635 3.81584 1.78805 0
M  V30 429 H 36.5385 2.6247 1.89449 0
M  V30 430 H 35.4455 3.73847 -0.137627 0
M  V30 431 H 36.7785 4.91935 -0.161399 0
M  V30 432 N 38.4306 0.297415 1.54768 0
M  V30 433 C 39.3936 -0.567375 2.22066 0
M  V30 434 C 40.3936 -1.06409 1.20556 0
M  V30 435 O 41.5836 -0.960691 1.45315 0
M  V30 436 C 38.7156 -1.78517 2.90421 0
M  V30 437 H 39.9086 0.0205534 2.99893 0
M  V30 438 H 37.4616 0.0482163 1.56226 0
M  V30 439 H 38.1966 -2.41303 2.16664 0
M  V30 440 H 37.9816 -1.43669 3.64831 0
M  V30 441 H 39.4716 -2.39964 3.41771 0
M  V30 442 N 39.9087 -1.5758 0.0250728 0
M  V30 443 C 40.8387 -2.13007 -0.956575 0
M  V30 444 C 41.8197 -1.0452 -1.342 0
M  V30 445 O 43.0047 -1.32332 -1.42133 0
M  V30 446 C 40.1347 -2.65386 -2.24026 0
M  V30 447 C 39.0887 -3.78623 -1.99571 0
M  V30 448 C 38.4147 -4.17414 -3.3417 0
M  V30 449 C 39.7147 -5.04867 -1.33814 0
M  V30 450 H 41.4087 -2.9528 -0.494991 0
M  V30 451 H 38.9547 -1.42042 -0.236651 0
M  V30 452 H 40.9077 -3.02794 -2.93076 0
M  V30 453 H 39.6317 -1.80268 -2.72343 0
M  V30 454 H 38.2907 -3.41646 -1.32941 0
M  V30 455 H 37.9387 -3.29284 -3.80238 0
M  V30 456 H 37.6387 -4.93719 -3.18615 0
M  V30 457 H 39.1627 -4.57402 -4.04495 0
M  V30 458 H 40.5767 -5.39888 -1.92857 0
M  V30 459 H 38.9737 -5.86144 -1.28669 0
M  V30 460 H 40.0437 -4.83904 -0.310561 0
M  V30 461 N 41.3868 0.248026 -1.55636 0
M  V30 462 C 42.3338 1.30707 -1.90222 0
M  V30 463 C 43.3038 1.47881 -0.756332 0
M  V30 464 O 44.4888 1.61883 -1.00988 0
M  V30 465 C 41.6288 2.65769 -2.20138 0
M  V30 466 C 40.7418 2.56612 -3.47526 0
M  V30 467 C 39.8768 3.8402 -3.67017 0
M  V30 468 C 38.9158 3.69476 -4.8801 0
M  V30 469 N 38.0528 4.88774 -5.04029 0
M  V30 470 H 42.8928 1.00512 -2.80538 0
M  V30 471 H 40.4298 0.485055 -1.38873 0
M  V30 472 H 42.3878 3.44386 -2.35487 0
M  V30 473 H 41.0178 2.94115 -1.33027 0
M  V30 474 H 40.0698 1.69571 -3.40514 0
M  V30 475 H 41.3818 2.41774 -4.36287 0
M  V30 476 H 40.5358 4.7108 -3.8232 0
M  V30 477 H 39.2748 4.01754 -2.76487 0
M  V30 478 H 38.2798 2.80799 -4.72686 0
M  V30 479 H 39.5048 3.53238 -5.8 0
M  V30 480 H 37.4508 5.0687 -4.16435 0
M  V30 481 H 37.3678 4.76562 -5.86877 0
M  V30 482 H 38.6358 5.77335 -5.23741 0
M  V30 483 N 42.8649 1.48995 0.513639 0
M  V30 484 C 43.7749 1.67443 1.64317 0
M  V30 485 C 44.7909 0.556947 1.64846 0
M  V30 486 O 45.9669 0.830082 1.83498 0
M  V30 487 C 43.0319 1.72515 3.00732 0
M  V30 488 C 42.0929 2.96009 3.1093 0
M  V30 489 C 41.3259 3.00829 4.40837 0
M  V30 490 O 41.5489 2.13594 5.28898 0
M  V30 491 O 40.4829 3.93168 4.55744 0
M  V30 492 H 44.3089 2.63106 1.51687 0
M  V30 493 H 41.8939 1.32588 0.688543 0
M  V30 494 H 43.7759 1.78277 3.81831 0
M  V30 495 H 42.4509 0.800278 3.13651 0
M  V30 496 H 41.3579 2.9577 2.29065 0
M  V30 497 H 42.6909 3.87934 3.02933 0
M  V30 498 N 44.343 -0.763751 1.37857 0
M  V30 499 C 45.291 -1.89864 1.34367 0
M  V30 500 C 46.285 -1.67816 0.231143 0
M  V30 501 O 47.491 -1.75508 0.399617 0
M  V30 502 H 43.866 -0.624501 0.41893 0
M  V30 503 H 45.837 -1.89925 2.30155 0
M  V30 504 C 44.586 -3.27227 1.1755 0
M  V30 505 H 43.909 -3.44773 2.02414 0
M  V30 506 H 45.349 -4.06911 1.1916 0
M  V30 507 C 43.808 -3.36692 -0.118311 0
M  V30 508 O 44.338 -3.86374 -1.09902 0
M  V30 509 N 42.544 -2.90092 -0.171717 0
M  V30 510 H 42.091 -2.49853 0.627012 0
M  V30 511 H 42.049 -2.96806 -1.03699 0
M  V30 512 N 45.8211 -1.22559 -0.990812 0
M  V30 513 C 47.2321 -1.04791 -1.54518 0
M  V30 514 C 47.5831 0.387998 -1.92325 0
M  V30 515 O 46.7081 1.27328 -1.74976 0
M  V30 516 C 47.3031 -1.896 -2.80779 0
M  V30 517 C 45.8621 -1.76124 -3.32652 0
M  V30 518 C 45.0091 -1.8594 -2.05722 0
M  V30 519 H 47.9601 -1.36374 -0.811662 0
M  V30 520 H 47.9811 -1.41464 -3.53225 0
M  V30 521 H 47.4931 -2.94101 -2.53231 0
M  V30 522 H 45.5941 -0.743643 -3.65104 0
M  V30 523 H 45.7071 -2.58913 -4.03114 0
M  V30 524 H 44.0711 -1.29403 -2.19379 0
M  V30 525 H 44.8541 -2.91976 -1.80568 0
M  V30 526 N 47.2992 1.18797 -1.03562 0
M  V30 527 C 48.5272 1.92599 -0.755869 0
M  V30 528 C 48.9422 1.75886 0.686271 0
M  V30 529 O 48.2992 1.08517 1.46732 0
M  V30 530 C 48.3502 3.44159 -1.10619 0
M  V30 531 O 48.0712 3.60341 -2.4917 0
M  V30 532 C 49.5722 4.3507 -0.850214 0
M  V30 533 H 46.7922 0.611587 -0.276048 0
M  V30 534 H 49.3362 1.50742 -1.38192 0
M  V30 535 H 47.4912 3.83823 -0.525194 0
M  V30 536 H 47.9052 4.54128 -2.62427 0
M  V30 537 H 49.3792 5.39989 -1.14523 0
M  V30 538 H 49.8562 4.38673 0.215176 0
M  V30 539 H 50.4622 4.01097 -1.41426 0
M  V30 540 N 48.7773 0.814389 1.34928 0
M  V30 541 C 50.0263 0.394871 1.97797 0
M  V30 542 C 50.3393 -1.04555 1.65311 0
M  V30 543 O 51.5453 -1.56856 2.21604 0
M  V30 544 C 50.0013 0.655103 3.53888 0
M  V30 545 C 49.6093 2.10858 3.95276 0
M  V30 546 C 51.3533 0.301329 4.23429 0
M  V30 547 C 49.2603 2.31415 5.44244 0
M  V30 548 H 48.1903 0.143913 0.740139 0
M  V30 549 H 50.8413 0.999544 1.53888 0
M  V30 550 H 49.2233 -0.0196253 3.95995 0
M  V30 551 H 50.3973 2.82176 3.64298 0
M  V30 552 H 48.7123 2.42297 3.38646 0
M  V30 553 H 51.3093 0.432869 5.32945 0
M  V30 554 H 51.6523 -0.75331 4.09428 0
M  V30 555 H 52.1853 0.930288 3.86769 0
M  V30 556 H 48.9243 3.35353 5.63222 0
M  V30 557 H 48.4443 1.6463 5.76764 0
M  V30 558 H 50.1233 2.13352 6.10811 0
M  V30 559 N 50.2554 -1.46986 0.568584 0
M  V30 560 C 51.5324 -1.95592 -0.0174074 0
M  V30 561 C 51.9124 -1.51124 -1.47393 0
M  V30 562 O 51.2604 -0.755329 -2.15655 0
M  V30 563 C 51.4704 -3.48719 0.139913 0
M  V30 564 C 52.8184 -4.246 0.000426376 0
M  V30 565 O 53.8424 -3.56135 0.0680316 0
M  V30 566 O 52.7014 -5.46302 -0.146988 0
M  V30 567 H 49.7954 -0.82498 -0.0577599 0
M  V30 568 H 52.3414 -1.57335 0.635909 0
M  V30 569 H 51.1134 -3.73927 1.15301 0
M  V30 570 H 50.7364 -3.93771 -0.550491 0
M  V30 571 N 51.7335 -0.305618 -1.54608 0
M  V30 572 C 52.6635 0.561482 -2.26649 0
M  V30 573 C 53.6445 1.13415 -1.26772 0
M  V30 574 O 54.8295 1.16262 -1.55553 0
M  V30 575 C 51.9595 1.73122 -3.01075 0
M  V30 576 C 50.9135 1.2887 -4.08138 0
M  V30 577 C 50.2395 2.54396 -4.70305 0
M  V30 578 C 51.5395 0.416578 -5.20636 0
M  V30 579 H 53.2335 -0.0393902 -2.99374 0
M  V30 580 H 50.7795 -0.020385 -1.43986 0
M  V30 581 H 52.7325 2.34396 -3.50195 0
M  V30 582 H 51.4565 2.3584 -2.25936 0
M  V30 583 H 50.1155 0.698991 -3.59875 0
M  V30 584 H 49.7635 3.15439 -3.918 0
M  V30 585 H 49.4635 2.25486 -5.42614 0
M  V30 586 H 50.9875 3.16464 -5.2219 0
M  V30 587 H 52.4015 0.935116 -5.65622 0
M  V30 588 H 50.7985 0.221046 -5.99693 0
M  V30 589 H 51.8685 -0.557162 -4.81688 0
M  V30 590 N 53.2116 1.57565 -0.0334293 0
M  V30 591 C 54.1216 2.13943 0.962572 0
M  V30 592 C 55.1376 1.09276 1.35406 0
M  V30 593 O 56.3136 1.41355 1.4346 0
M  V30 594 C 53.3786 2.65887 2.22497 0
M  V30 595 C 52.4396 3.85286 1.8935 0
M  V30 596 C 51.6726 4.34743 3.09571 0
M  V30 597 O 51.8956 3.83352 4.22371 0
M  V30 598 O 50.8296 5.26538 2.91618 0
M  V30 599 H 54.6556 2.99333 0.513169 0
M  V30 600 H 52.2406 1.4822 0.18743 0
M  V30 601 H 54.1226 2.99346 2.96598 0
M  V30 602 H 52.7976 1.83578 2.6661 0
M  V30 603 H 51.7046 3.56746 1.1262 0
M  V30 604 H 53.0376 4.68771 1.5005 0
M  V30 605 N 54.6897 -0.239769 1.55765 0
M  V30 606 C 55.6377 -1.31668 1.91745 0
M  V30 607 C 56.6317 -1.49462 0.797338 0
M  V30 608 O 57.8377 -1.50852 0.982021 0
M  V30 609 H 54.2127 -0.441048 0.609082 0
M  V30 610 H 56.1837 -0.985923 2.81642 0
M  V30 611 C 54.9327 -2.66368 2.2348 0
M  V30 612 H 54.2557 -2.53478 3.09175 0
M  V30 613 H 55.6957 -3.40578 2.52553 0
M  V30 614 C 54.1547 -3.20002 1.05359 0
M  V30 615 O 54.6847 -4.00538 0.305261 0
M  V30 616 N 52.8907 -2.78126 0.842292 0
M  V30 617 H 52.4377 -2.12742 1.45253 0
M  V30 618 H 52.3957 -3.14354 0.053652 0
M  V30 619 N 56.1678 -1.49265 -0.50573 0
M  V30 620 C 57.3928 -1.62478 -1.28902 0
M  V30 621 C 57.8178 -0.294332 -1.85783 0
M  V30 622 O 57.1758 0.737412 -1.65626 0
M  V30 623 C 57.2238 -2.69268 -2.39848 0
M  V30 624 O 56.3278 -2.28113 -3.43567 0
M  V30 625 H 55.6688 -0.54399 -0.380751 0
M  V30 626 H 58.1988 -1.95421 -0.605952 0
M  V30 627 H 58.2088 -2.91291 -2.85681 0
M  V30 628 H 56.8838 -3.65846 -1.97812 0
M  V30 629 H 55.4608 -2.16401 -3.03685 0
M  V30 630 N 57.6459 0.756429 -1.3826 0
M  V30 631 C 58.8759 1.54341 -1.3734 0
M  V30 632 C 59.2839 1.89159 0.0393917 0
M  V30 633 O 58.6269 1.5307 1.01565 0
M  V30 634 C 58.6889 2.87238 -2.16182 0
M  V30 635 C 58.3529 2.74973 -3.65019 0
M  V30 636 C 59.3499 2.44962 -4.58574 0
M  V30 637 C 57.0349 2.92515 -4.08338 0
M  V30 638 C 59.0289 2.32642 -5.93428 0
M  V30 639 C 56.7159 2.79815 -5.43274 0
M  V30 640 C 57.7139 2.49921 -6.35632 0
M  V30 641 O 57.4019 2.37275 -7.68086 0
M  V30 642 H 57.1339 0.484281 -0.471643 0
M  V30 643 H 59.6879 0.944152 -1.82414 0
M  V30 644 H 57.9179 3.49342 -1.65822 0
M  V30 645 H 59.6069 3.48731 -2.07705 0
M  V30 646 H 60.3729 2.31081 -4.26412 0
M  V30 647 H 56.2519 3.14781 -3.368 0
M  V30 648 H 59.7959 2.0923 -6.65484 0
M  V30 649 H 55.6929 2.93269 -5.75034 0
M  V30 650 H 56.4609 2.52509 -7.78577 0
M  V30 651 N 59.124 1.23083 0.984299 0
M  V30 652 C 60.37 1.06214 1.72761 0
M  V30 653 C 60.703 -0.400584 1.90024 0
M  V30 654 O 59.978 -1.29672 1.44967 0
M  V30 655 C 60.261 1.78375 3.12817 0
M  V30 656 C 60.114 3.32296 3.03149 0
M  V30 657 C 61.433 1.54309 4.12161 0
M  V30 658 H 58.552 0.387251 0.627061 0
M  V30 659 H 61.194 1.51536 1.14616 0
M  V30 660 H 59.344 1.39848 3.62457 0
M  V30 661 H 61.016 3.8032 2.61064 0
M  V30 662 H 59.259 3.6153 2.39747 0
M  V30 663 H 59.93 3.77972 4.02295 0
M  V30 664 H 62.406 1.87791 3.71314 0
M  V30 665 H 61.282 2.07281 5.08258 0
M  V30 666 H 61.543 0.477572 4.39513 0
M  V30 667 N 60.6021 -1.18246 1.0419 0
M  V30 668 C 62.0131 -1.69914 0.773698 0
M  V30 669 C 62.3641 -1.83085 -0.705297 0
M  V30 670 O 61.4891 -1.51123 -1.5489 0
M  V30 671 C 62.0841 -3.08619 1.39784 0
M  V30 672 C 60.6431 -3.57494 1.17792 0
M  V30 673 C 59.7901 -2.34013 1.48773 0
M  V30 674 H 62.7411 -1.02904 1.20816 0
M  V30 675 H 62.7621 -3.71958 0.801714 0
M  V30 676 H 62.2741 -2.99001 2.47426 0
M  V30 677 H 60.3751 -3.72406 0.120295 0
M  V30 678 H 60.4881 -4.40852 1.87581 0
M  V30 679 H 58.8521 -2.37986 0.907463 0
M  V30 680 H 59.6351 -2.27013 2.57527 0
M  V30 681 N 62.0802 -0.821533 -1.34494 0
M  V30 682 C 63.0102 -0.257138 -2.3208 0
M  V30 683 C 63.9912 0.625645 -1.58176 0
M  V30 684 O 65.1762 0.552811 -1.86166 0
M  V30 685 C 62.3062 0.582958 -3.42372 0
M  V30 686 C 61.2602 -0.202571 -4.2752 0
M  V30 687 C 60.5862 0.760179 -5.29269 0
M  V30 688 C 61.8862 -1.40998 -5.02908 0
M  V30 689 H 63.5802 -1.07247 -2.79532 0
M  V30 690 H 61.1262 -0.517163 -1.34393 0
M  V30 691 H 63.0792 0.987972 -4.09655 0
M  V30 692 H 61.8032 1.43133 -2.93565 0
M  V30 693 H 60.4622 -0.588936 -3.61838 0
M  V30 694 H 60.1102 1.60447 -4.76724 0
M  V30 695 H 59.8102 0.238809 -5.87115 0
M  V30 696 H 61.3342 1.16308 -5.9942 0
M  V30 697 H 62.7482 -1.07905 -5.63054 0
M  V30 698 H 61.1452 -1.86689 -5.70322 0
M  V30 699 H 62.2152 -2.1889 -4.32684 0
M  V30 700 N 63.5583 1.46682 -0.576371 0
M  V30 701 C 64.8353 1.95599 0.00703437 0
M  V30 702 C 65.2153 1.51904 1.46589 0
M  V30 703 O 64.5633 0.766755 2.15251 0
M  V30 704 C 64.7733 3.4864 -0.158404 0
M  V30 705 C 66.1213 4.24594 -0.0229439 0
M  V30 706 O 67.1453 3.56094 -0.0869173 0
M  V30 707 O 66.0043 5.46373 0.118015 0
M  V30 708 H 63.0983 0.825275 0.053384 0
M  V30 709 H 65.6443 1.56996 -0.644244 0
M  V30 710 H 64.4163 3.7331 -1.17282 0
M  V30 711 H 64.0393 3.94057 0.5296 0
M  V30 712 N 65.0364 0.313813 1.54444 0
M  V30 713 C 65.9844 -0.572171 2.25453 0
M  V30 714 C 66.9784 -1.12657 1.2651 0
M  V30 715 O 68.1844 -1.07573 1.44319 0
M  V30 716 H 64.5594 -0.203146 0.724041 0
M  V30 717 H 66.5304 0.0491145 2.9836 0
M  V30 718 C 65.2794 -1.72626 3.0182 0
M  V30 719 H 64.6024 -1.30891 3.77767 0
M  V30 720 H 66.0424 -2.32199 3.54767 0
M  V30 721 C 64.5014 -2.63806 2.09542 0
M  V30 722 O 65.0314 -3.65256 1.67185 0
M  V30 723 N 63.2374 -2.31824 1.75232 0
M  V30 724 H 62.7844 -1.49368 2.09873 0
M  V30 725 H 62.7424 -2.93095 1.13767 0
M  V30 726 N 66.5145 -1.57545 0.0417849 0
M  V30 727 C 67.4465 -2.07904 -0.964799 0
M  V30 728 C 68.4595 -1.00497 -1.28079 0
M  V30 729 O 69.6485 -1.28087 -1.24322 0
M  V30 730 C 66.7485 -2.49928 -2.28887 0
M  V30 731 C 65.9215 -3.80562 -2.15619 0
M  V30 732 C 64.9805 -4.08999 -3.31069 0
M  V30 733 O 64.0065 -4.79061 -3.0739 0
M  V30 734 N 65.2085 -3.6017 -4.55256 0
M  V30 735 H 67.9735 -2.94886 -0.535029 0
M  V30 736 H 65.5345 -1.61252 -0.144681 0
M  V30 737 H 67.5265 -2.66034 -3.04972 0
M  V30 738 H 66.0965 -1.68245 -2.63463 0
M  V30 739 H 65.3165 -3.74129 -1.24183 0
M  V30 740 H 66.6045 -4.66126 -2.03971 0
M  V30 741 H 66.0025 -3.03512 -4.77386 0
M  V30 742 H 64.5595 -3.81532 -5.28466 0
M  V30 743 N 67.9926 0.231505 -1.5589 0
M  V30 744 C 69.2226 0.973092 -1.82248 0
M  V30 745 C 69.6306 1.78845 -0.617328 0
M  V30 746 O 68.9736 1.78752 0.423499 0
M  V30 747 C 69.0356 1.94732 -3.02192 0
M  V30 748 C 68.6996 1.31743 -4.37599 0
M  V30 749 C 69.6966 0.712238 -5.14998 0
M  V30 750 C 67.3816 1.33218 -4.84312 0
M  V30 751 C 69.3756 0.130195 -6.37267 0
M  V30 752 C 67.0626 0.746286 -6.06526 0
M  V30 753 C 68.0606 0.146337 -6.82843 0
M  V30 754 O 67.7486 -0.430465 -8.02747 0
M  V30 755 H 67.4806 0.29125 -0.61004 0
M  V30 756 H 70.0346 0.254915 -2.03812 0
M  V30 757 H 68.2646 2.70422 -2.76422 0
M  V30 758 H 69.9536 2.55362 -3.15508 0
M  V30 759 H 70.7196 0.69324 -4.8002 0
M  V30 760 H 66.5986 1.78854 -4.24891 0
M  V30 761 H 70.1426 -0.33871 -6.96777 0
M  V30 762 H 66.0396 0.762663 -6.40979 0
M  V30 763 H 66.8076 -0.323818 -8.17859 0
M  V30 764 N 69.4707 1.49531 0.497807 0
M  V30 765 C 70.4177 1.66436 1.59899 0
M  V30 766 C 71.3877 0.505793 1.58212 0
M  V30 767 O 72.5727 0.733202 1.7615 0
M  V30 768 C 69.7127 1.7399 2.98029 0
M  V30 769 C 68.8257 3.01172 3.09708 0
M  V30 770 C 67.9607 2.99686 4.38591 0
M  V30 771 C 66.9997 4.21434 4.43914 0
M  V30 772 N 66.1367 4.1784 5.64229 0
M  V30 773 H 70.9767 2.60459 1.44793 0
M  V30 774 H 68.5137 1.29137 0.704423 0
M  V30 775 H 70.4717 1.76352 3.78095 0
M  V30 776 H 69.1017 0.834301 3.11832 0
M  V30 777 H 68.1537 3.08408 2.22685 0
M  V30 778 H 69.4657 3.91165 3.09502 0
M  V30 779 H 68.6197 3.00628 5.2698 0
M  V30 780 H 67.3587 2.07477 4.41367 0
M  V30 781 H 66.3637 4.20733 3.53926 0
M  V30 782 H 67.5887 5.14839 4.42851 0
M  V30 783 H 65.5347 3.28469 5.67841 0
M  V30 784 H 65.4517 5.01571 5.65652 0
M  V30 785 H 66.7197 4.22889 6.54817 0
M  V30 786 N 70.9488 -0.749086 1.3866 0
M  V30 787 C 72.1968 -1.50535 1.34847 0
M  V30 788 C 72.5178 -1.94909 -0.0595016 0
M  V30 789 O 71.7878 -1.67973 -1.00806 0
M  V30 790 H 70.3678 -0.558395 0.49619 0
M  V30 791 H 73.0298 -0.890165 1.73384 0
M  V30 792 H 72.1258 -2.39413 2.00219 0
M  V30 793 N 72.4269 -1.23603 -0.977757 0
M  V30 794 C 73.6759 -1.06377 -1.71368 0
M  V30 795 C 73.9889 0.399062 -1.91486 0
M  V30 796 O 75.1949 0.691312 -2.62551 0
M  V30 797 C 73.6509 -1.85512 -3.08404 0
M  V30 798 C 73.2589 -3.36141 -2.96164 0
M  V30 799 C 75.0029 -1.76783 -3.85938 0
M  V30 800 C 72.9099 -4.07659 -4.28449 0
M  V30 801 H 71.8399 -0.394452 -0.642591 0
M  V30 802 H 74.4909 -1.47594 -1.09034 0
M  V30 803 H 72.8729 -1.37103 -3.71509 0
M  V30 804 H 74.0469 -3.92056 -2.42133 0
M  V30 805 H 72.3619 -3.45712 -2.32104 0
M  V30 806 H 74.9589 -2.27526 -4.83876 0
M  V30 807 H 75.3019 -0.731116 -4.0983 0
M  V30 808 H 75.8349 -2.22818 -3.2954 0
M  V30 809 H 72.5739 -5.11648 -4.09752 0
M  V30 810 H 72.0939 -3.5653 -4.82334 0
M  V30 811 H 73.7729 -4.141 -4.97122 0
M  V30 812 N 73.905 1.17692 -1.04816 0
M  V30 813 C 75.321 1.39863 -0.768794 0
M  V30 814 C 75.521 1.91118 0.638451 0
M  V30 815 O 74.577 2.10036 1.40146 0
M  V30 816 C 75.89 2.39274 -1.82122 0
M  V30 817 C 77.438 2.52987 -1.843 0
M  V30 818 C 77.913 3.55669 -2.88555 0
M  V30 819 N 79.404 3.63183 -2.87493 0
M  V30 820 C 80.139 4.42381 -3.64811 0
M  V30 821 N 79.635 5.25125 -4.51903 0
M  V30 822 N 81.428 4.37217 -3.53267 0
M  V30 823 H 73.579 0.82752 -1.95617 0
M  V30 824 H 75.842 0.426123 -0.846831 0
M  V30 825 H 75.548 2.08678 -2.83102 0
M  V30 826 H 75.422 3.38725 -1.65967 0
M  V30 827 H 77.809 2.82896 -0.839869 0
M  V30 828 H 77.89 1.53623 -2.04532 0
M  V30 829 H 77.534 3.26499 -3.89051 0
M  V30 830 H 77.464 4.54728 -2.65575 0
M  V30 831 H 79.955 3.04103 -2.24343 0
M  V30 832 H 80.268 5.82728 -5.07591 0
M  V30 833 H 78.613 5.24519 -4.55966 0
M  V30 834 H 81.804 3.71626 -2.84625 0
M  V30 835 H 81.977 4.98696 -4.13771 0
M  V30 836 N 75.3831 0.828654 1.34056 0
M  V30 837 C 76.6291 0.42008 1.98402 0
M  V30 838 C 76.9621 -1.01564 1.65525 0
M  V30 839 O 76.2371 -1.70834 0.929831 0
M  V30 840 C 76.5201 0.62927 3.54559 0
M  V30 841 C 76.3731 2.11152 3.97159 0
M  V30 842 C 77.6921 0.0688756 4.40046 0
M  V30 843 H 74.8111 0.154104 0.720709 0
M  V30 844 H 77.4531 1.04228 1.5886 0
M  V30 845 H 75.6031 0.0996418 3.88372 0
M  V30 846 H 77.2751 2.70522 3.73651 0
M  V30 847 H 75.5181 2.59985 3.47261 0
M  V30 848 H 76.1891 2.20868 5.05887 0
M  V30 849 H 78.6651 0.521458 4.1282 0
M  V30 850 H 77.5411 0.245006 5.48353 0
M  V30 851 H 77.8021 -1.0266 4.30015 0
M  V30 852 N 76.8612 -1.46375 0.584142 0
M  V30 853 C 78.1382 -1.956 0.0033388 0
M  V30 854 C 78.5182 -1.52679 -1.45782 0
M  V30 855 O 77.8662 -0.77816 -2.14842 0
M  V30 856 C 78.0762 -3.48551 0.176891 0
M  V30 857 C 79.4242 -4.24576 0.0454609 0
M  V30 858 O 80.4482 -3.56043 0.105801 0
M  V30 859 O 79.3072 -5.46427 -0.0890376 0
M  V30 860 H 76.4012 -0.825547 -0.0490066 0
M  V30 861 H 78.9472 -1.56652 0.65256 0
M  V30 862 H 77.7192 -3.72683 1.1926 0
M  V30 863 H 77.3422 -3.94332 -0.508695 0
M  V30 864 N 78.3393 -0.321999 -1.54275 0
M  V30 865 C 79.2493 0.553631 -2.27974 0
M  V30 866 C 80.2653 1.13054 -1.32268 0
M  V30 867 O 81.4413 1.15084 -1.6528 0
M  V30 868 C 78.5063 1.69927 -3.02201 0
M  V30 869 C 77.5673 1.15433 -4.1349 0
M  V30 870 C 76.8003 2.24537 -4.84168 0
M  V30 871 O 77.0233 3.44852 -4.5435 0
M  V30 872 O 75.9573 1.90044 -5.7111 0
M  V30 873 H 79.7833 -0.0448345 -3.03667 0
M  V30 874 H 77.3683 -0.0877418 -1.49142 0
M  V30 875 H 79.2503 2.3663 -3.48689 0
M  V30 876 H 77.9253 2.28395 -2.29385 0
M  V30 877 H 76.8323 0.452436 -3.71354 0
M  V30 878 H 78.1653 0.614805 -4.88345 0
M  V30 879 N 79.8174 1.5752 -0.0501392 0
M  V30 880 C 80.7674 2.07981 0.934231 0
M  V30 881 C 81.7514 0.984745 1.27246 0
M  V30 882 O 82.9434 1.24809 1.25506 0
M  V30 883 C 80.0724 2.62751 2.20945 0
M  V30 884 C 79.1584 3.79225 1.89865 0
M  V30 885 N 79.5494 4.89036 1.29142 0
M  V30 886 C 77.8474 3.88111 2.19741 0
M  V30 887 C 78.5484 5.70084 1.15669 0
M  V30 888 N 77.5244 5.17659 1.65923 0
M  V30 889 H 81.3264 2.90277 0.460053 0
M  V30 890 H 78.8404 1.61665 0.15434 0
M  V30 891 H 80.8374 2.97205 2.9236 0
M  V30 892 H 79.4974 1.81894 2.6897 0
M  V30 893 H 80.5084 5.08854 0.963756 0
M  V30 894 H 77.1854 3.18194 2.70293 0
M  V30 895 H 78.5754 6.68395 0.685356 0
M  V30 896 N 81.2955 -0.223234 1.56011 0
M  V30 897 C 82.7065 -0.790368 1.69145 0
M  V30 898 C 83.0575 -1.85055 0.651845 0
M  V30 899 O 82.1825 -2.15498 -0.197359 0
M  V30 900 C 82.7775 -1.4404 3.06656 0
M  V30 901 C 81.3365 -1.95494 3.2165 0
M  V30 902 C 80.4835 -0.814506 2.65068 0
M  V30 903 H 83.4345 0.00139011 1.587 0
M  V30 904 H 83.4555 -2.30916 3.0242 0
M  V30 905 H 82.9675 -0.668543 3.82298 0
M  V30 906 H 81.0685 -2.75487 2.50874 0
M  V30 907 H 81.1815 -2.13607 4.28846 0
M  V30 908 H 79.5455 -1.22137 2.23505 0
M  V30 909 H 80.3285 -0.0553515 3.43255 0
M  V30 910 N 82.7736 -1.49793 -0.48987 0
M  V30 911 C 83.6836 -1.70036 -1.61632 0
M  V30 912 C 84.6996 -0.583102 -1.63939 0
M  V30 913 O 85.8756 -0.859169 -1.82154 0
M  V30 914 C 82.9406 -1.77277 -2.97949 0
M  V30 915 C 82.0016 -3.00918 -3.06181 0
M  V30 916 C 81.2346 -3.07804 -4.35996 0
M  V30 917 O 81.4576 -2.21982 -5.25433 0
M  V30 918 O 80.3916 -4.00369 -4.49431 0
M  V30 919 H 84.2176 -2.65486 -1.47482 0
M  V30 920 H 81.8026 -1.33666 -0.667362 0
M  V30 921 H 83.6846 -1.84329 -3.78947 0
M  V30 922 H 82.3596 -0.850076 -3.12339 0
M  V30 923 H 81.2666 -2.99377 -2.2433 0
M  V30 924 H 82.5996 -3.92704 -2.96723 0
M  V30 925 N 84.2517 0.741722 -1.39055 0
M  V30 926 C 85.4817 1.52876 -1.3897 0
M  V30 927 C 85.8897 1.8919 0.0193266 0
M  V30 928 O 85.2327 1.54138 0.999356 0
M  V30 929 C 85.2947 2.84929 -2.19216 0
M  V30 930 C 84.9587 2.71086 -3.67915 0
M  V30 931 C 85.9557 2.40084 -4.61146 0
M  V30 932 C 83.6407 2.88168 -4.11418 0
M  V30 933 C 85.6347 2.26335 -5.95862 0
M  V30 934 C 83.3217 2.74037 -5.46211 0
M  V30 935 C 84.3197 2.43166 -6.38247 0
M  V30 936 O 84.0077 2.29115 -7.70559 0
M  V30 937 H 83.7397 0.479252 -0.476753 0
M  V30 938 H 86.2937 0.924751 -1.83405 0
M  V30 939 H 84.5237 3.47564 -1.69518 0
M  V30 940 H 86.2127 3.46509 -2.11392 0
M  V30 941 H 86.9787 2.26545 -4.28838 0
M  V30 942 H 82.8577 3.11191 -3.40119 0
M  V30 943 H 86.4017 2.0216 -6.67665 0
M  V30 944 H 82.2987 2.87153 -5.78112 0
M  V30 945 H 83.0667 2.44237 -7.81211 0
M  V30 946 N 85.7298 1.2412 0.971189 0
M  V30 947 C 86.6598 1.05508 2.08304 0
M  V30 948 C 87.6408 -0.0308864 1.70072 0
M  V30 949 O 88.8258 0.135521 1.93727 0
M  V30 950 C 85.9558 0.655365 3.4106 0
M  V30 951 C 84.9098 1.68971 3.93234 0
M  V30 952 C 84.2358 1.14516 5.22293 0
M  V30 953 C 85.5358 3.08487 4.21465 0
M  V30 954 H 87.2298 1.98507 2.24132 0
M  V30 955 H 84.7758 0.955821 1.07704 0
M  V30 956 H 86.7288 0.51217 4.18276 0
M  V30 957 H 85.4528 -0.31032 3.25122 0
M  V30 958 H 84.1118 1.82106 3.18171 0
M  V30 959 H 83.7598 0.170189 5.02712 0
M  V30 960 H 83.4598 1.83635 5.58168 0
M  V30 961 H 84.9838 1.01401 6.02121 0
M  V30 962 H 86.3978 2.98601 4.89398 0
M  V30 963 H 84.7948 3.74926 4.68562 0
M  V30 964 H 85.8648 3.56787 3.28376 0
M  V30 965 N 87.2079 -1.17134 1.05439 0
M  V30 966 C 88.1579 -2.1919 0.627675 0
M  V30 967 C 89.1419 -1.57328 -0.337147 0
M  V30 968 O 90.3339 -1.76329 -0.153976 0
M  V30 969 C 87.4629 -3.43299 0.00651435 0
M  V30 970 C 86.5489 -4.12255 0.995312 0
M  V30 971 N 86.9399 -4.56997 2.16765 0
M  V30 972 C 85.2379 -4.38316 0.824336 0
M  V30 973 C 85.9389 -5.10239 2.7934 0
M  V30 974 N 84.9149 -5.02595 2.07122 0
M  V30 975 H 88.7169 -2.5149 1.52086 0
M  V30 976 H 86.2309 -1.33491 0.924868 0
M  V30 977 H 88.2279 -4.15693 -0.316965 0
M  V30 978 H 86.8879 -3.1249 -0.882033 0
M  V30 979 H 87.8989 -4.51006 2.54587 0
M  V30 980 H 84.5759 -4.17498 -0.0129526 0
M  V30 981 H 85.9659 -5.54961 3.78772 0
M  V30 982 N 88.686 -0.835752 -1.33615 0
M  V30 983 C 89.963 -0.352017 -1.92406 0
M  V30 984 C 90.343 1.16225 -1.76224 0
M  V30 985 O 89.691 1.97526 -1.14873 0
M  V30 986 C 89.901 -0.795485 -3.39813 0
M  V30 987 C 91.249 -0.801703 -4.16963 0
M  V30 988 O 92.273 -0.738889 -3.48452 0
M  V30 989 O 91.132 -0.886607 -5.3926 0
M  V30 990 H 88.226 -0.0989641 -0.821057 0
M  V30 991 H 90.772 -0.921397 -1.42507 0
M  V30 992 H 89.544 -1.83795 -3.45449 0
M  V30 993 H 89.167 -0.202505 -3.97084 0
M  V30 994 N 90.1641 1.46063 -0.591896 0
M  V30 995 C 91.1111 2.30399 0.136069 0
M  V30 996 C 92.0811 1.41169 0.875238 0
M  V30 997 O 93.2661 1.70112 0.86409 0
M  V30 998 C 90.4061 3.25804 1.13781 0
M  V30 999 C 89.5191 4.30134 0.401137 0
M  V30 1000 C 88.6541 5.12659 1.39121 0
M  V30 1001 C 87.6931 6.0873 0.641462 0
M  V30 1002 N 86.8301 6.8409 1.58004 0
M  V30 1003 H 91.6701 2.92118 -0.589144 0
M  V30 1004 H 89.2071 1.43959 -0.302342 0
M  V30 1005 H 91.1651 3.79569 1.73156 0
M  V30 1006 H 89.7951 2.65872 1.83062 0
M  V30 1007 H 88.8471 3.79152 -0.307826 0
M  V30 1008 H 90.1591 4.98458 -0.184565 0
M  V30 1009 H 89.3131 5.70747 2.05749 0
M  V30 1010 H 88.0521 4.44316 2.01084 0
M  V30 1011 H 87.0571 5.49786 -0.0385419 0
M  V30 1012 H 88.2821 6.79095 0.0270945 0
M  V30 1013 H 86.2281 6.18449 2.18761 0
M  V30 1014 H 86.1451 7.48709 1.04738 0
M  V30 1015 H 87.4131 7.4673 2.23639 0
M  V30 1016 N 91.6422 0.330177 1.54103 0
M  V30 1017 C 92.8882 -0.270806 2.00984 0
M  V30 1018 C 93.2212 -1.51265 1.21789 0
M  V30 1019 O 92.4962 -1.92142 0.301927 0
M  V30 1020 C 92.7792 -0.598339 3.55094 0
M  V30 1021 C 92.6322 0.654674 4.4501 0
M  V30 1022 C 93.9512 -1.41334 4.16789 0
M  V30 1023 H 91.0702 -0.0969531 0.730595 0
M  V30 1024 H 93.7122 0.448066 1.84641 0
M  V30 1025 H 91.8622 -1.21078 3.69151 0
M  V30 1026 H 93.5342 1.29285 4.42813 0
M  V30 1027 H 91.7772 1.28224 4.14416 0
M  V30 1028 H 92.4482 0.380944 5.50684 0
M  V30 1029 H 94.9242 -0.895597 4.06347 0
M  V30 1030 H 93.8002 -1.61127 5.24718 0
M  V30 1031 H 94.0612 -2.41146 3.70541 0
M  V30 1032 N 93.1203 -1.57491 0.0584922 0
M  V30 1033 C 94.3663 -1.94081 -0.608617 0
M  V30 1034 C 94.7213 -0.937438 -1.68017 0
M  V30 1035 O 94.0143 0.0423034 -1.91553 0
M  V30 1036 C 94.2083 -3.3513 -1.24188 0
M  V30 1037 C 94.0373 -4.49095 -0.233187 0
M  V30 1038 C 92.8073 -5.04988 0.177439 0
M  V30 1039 C 95.0053 -5.1162 0.524306 0
M  V30 1040 N 92.9873 -6.02487 1.17823 0
M  V30 1041 C 94.3583 -6.04493 1.37796 0
M  V30 1042 C 96.4133 -4.94489 0.581822 0
M  V30 1043 C 95.1163 -6.82075 2.28399 0
M  V30 1044 C 97.1423 -5.72703 1.47531 0
M  V30 1045 C 96.5043 -6.65214 2.31667 0
M  V30 1046 H 92.6033 -0.75752 -0.194134 0
M  V30 1047 H 95.1873 -1.94248 0.132533 0
M  V30 1048 H 93.3583 -3.35726 -1.95302 0
M  V30 1049 H 95.0903 -3.5899 -1.86838 0
M  V30 1050 H 91.8453 -4.73165 -0.203004 0
M  V30 1051 H 92.2693 -6.55933 1.67573 0
M  V30 1052 H 96.9113 -4.22765 -0.054443 0
M  V30 1053 H 94.6293 -7.53085 2.93067 0
M  V30 1054 H 98.2153 -5.61472 1.52448 0
M  V30 1055 H 97.0953 -7.24679 2.99683 0
M  V30 1056 N 94.5984 0.214957 -1.56127 0
M  V30 1057 C 95.5614 1.24997 -1.92116 0
M  V30 1058 C 96.5614 1.39467 -0.800344 0
M  V30 1059 O 97.7514 1.37619 -1.06802 0
M  V30 1060 C 94.8834 2.62271 -2.17777 0
M  V30 1061 H 96.0764 0.942875 -2.84693 0
M  V30 1062 H 93.6294 0.455654 -1.49511 0
M  V30 1063 H 94.3644 2.98068 -1.27773 0
M  V30 1064 H 94.1494 2.53143 -2.99434 0
M  V30 1065 H 95.6394 3.36946 -2.46693 0
M  V30 1066 N 96.0765 1.50051 0.48192 0
M  V30 1067 C 97.3045 1.64237 1.25832 0
M  V30 1068 C 97.7195 0.321336 1.86045 0
M  V30 1069 O 97.0765 -0.695478 1.68729 0
M  V30 1070 C 97.1275 2.72548 2.37487 0
M  V30 1071 O 96.8485 3.99529 1.79745 0
M  V30 1072 C 98.3495 2.9761 3.28547 0
M  V30 1073 H 95.5695 0.55237 0.380957 0
M  V30 1074 H 98.1135 1.96207 0.576467 0
M  V30 1075 H 96.2685 2.43303 3.01467 0
M  V30 1076 H 96.6825 4.59342 2.5319 0
M  V30 1077 H 98.1565 3.77084 4.03127 0
M  V30 1078 H 98.6335 2.0826 3.86684 0
M  V30 1079 H 99.2395 3.28345 2.70314 0
M  V30 1080 N 97.5546 -0.734337 1.39446 0
M  V30 1081 C 98.5176 -1.83004 1.37994 0
M  V30 1082 C 99.5176 -1.58397 0.276938 0
M  V30 1083 O 100.708 -1.65785 0.534875 0
M  V30 1084 C 97.8396 -3.20802 1.1532 0
M  V30 1085 H 99.0326 -1.85694 2.35494 0
M  V30 1086 H 96.5856 -0.938059 1.25021 0
M  V30 1087 H 97.3206 -3.23772 0.185036 0
M  V30 1088 H 97.1056 -3.4006 1.95197 0
M  V30 1089 H 98.5956 -4.00862 1.17046 0
M  V30 1090 N 99.0327 -1.24633 -0.964593 0
M  V30 1091 C 100.261 -1.11501 -1.74285 0
M  V30 1092 C 100.676 0.332165 -1.85855 0
M  V30 1093 O 100.033 1.22903 -1.34911 0
M  V30 1094 C 100.084 -1.75258 -3.16175 0
M  V30 1095 O 99.8047 -3.14318 -3.05182 0
M  V30 1096 C 101.306 -1.67776 -4.10324 0
M  V30 1097 H 98.5257 -0.389407 -0.546446 0
M  V30 1098 H 101.07 -1.64801 -1.21083 0
M  V30 1099 H 99.2247 -1.25954 -3.66353 0
M  V30 1100 H 99.6387 -3.4551 -3.94618 0
M  V30 1101 H 101.113 -2.17064 -5.0753 0
M  V30 1102 H 101.59 -0.639584 -4.34518 0
M  V30 1103 H 102.196 -2.16522 -3.66058 0
M  V30 1104 N 100.511 1.16574 -1.06058 0
M  V30 1105 C 101.741 1.90675 -0.795397 0
M  V30 1106 C 102.149 1.77547 0.653735 0
M  V30 1107 O 101.492 1.11611 1.45907 0
M  V30 1108 C 101.554 3.42011 -1.10764 0
M  V30 1109 C 101.218 3.78924 -2.55471 0
M  V30 1110 C 102.215 3.81042 -3.53699 0
M  V30 1111 C 99.8998 4.09626 -2.90708 0
M  V30 1112 C 101.894 4.13346 -4.85205 0
M  V30 1113 C 99.5808 4.41597 -4.22416 0
M  V30 1114 C 100.579 4.43436 -5.19474 0
M  V30 1115 O 100.267 4.74649 -6.48817 0
M  V30 1116 H 99.9988 0.611554 -0.288058 0
M  V30 1117 H 102.553 1.48711 -1.41683 0
M  V30 1118 H 100.783 3.84312 -0.429128 0
M  V30 1119 H 102.472 3.97384 -0.827077 0
M  V30 1120 H 103.238 3.57437 -3.27817 0
M  V30 1121 H 99.1168 4.07361 -2.15819 0
M  V30 1122 H 102.661 4.14696 -5.60957 0
M  V30 1123 H 98.5578 4.64667 -4.48056 0
M  V30 1124 H 99.3258 4.9247 -6.5377 0
M  V30 1125 N 101.989 0.842826 1.3317 0
M  V30 1126 C 102.937 0.267495 2.31057 0
M  V30 1127 C 103.931 -0.602682 1.58316 0
M  V30 1128 O 105.137 -0.491803 1.73151 0
M  V30 1129 H 101.512 0.0677813 0.748939 0
M  V30 1130 H 103.483 1.10754 2.77085 0
M  V30 1131 C 102.232 -0.539331 3.43492 0
M  V30 1132 H 101.555 0.12095 3.99617 0
M  V30 1133 H 102.995 -0.90767 4.14171 0
M  V30 1134 C 101.454 -1.71981 2.89697 0
M  V30 1135 O 101.984 -2.81862 2.86211 0
M  V30 1136 N 100.19 -1.54299 2.46252 0
M  V30 1137 H 99.7369 -0.649143 2.49287 0
M  V30 1138 H 99.6949 -2.33431 2.10612 0
M  V30 1139 N 103.467 -1.45747 0.599634 0
M  V30 1140 C 104.415 -2.322 -0.136426 0
M  V30 1141 C 105.409 -1.45497 -0.867583 0
M  V30 1142 O 106.615 -1.62027 -0.78405 0
M  V30 1143 H 102.99 -0.749368 -0.0628588 0
M  V30 1144 H 104.961 -2.92072 0.611281 0
M  V30 1145 C 103.71 -3.28974 -1.12567 0
M  V30 1146 H 103.033 -3.9568 -0.572484 0
M  V30 1147 H 104.473 -3.92212 -1.61077 0
M  V30 1148 C 102.932 -2.55561 -2.19523 0
M  V30 1149 O 103.462 -2.33111 -3.27143 0
M  V30 1150 N 101.668 -2.15832 -1.94589 0
M  V30 1151 H 101.215 -2.3429 -1.07078 0
M  V30 1152 H 101.173 -1.67034 -2.66359 0
M  V30 1153 N 104.945 -0.338344 -1.53925 0
M  V30 1154 C 106.222 0.314774 -1.93051 0
M  V30 1155 C 106.602 1.68669 -1.26941 0
M  V30 1156 O 105.95 2.24636 -0.418445 0
M  V30 1157 C 106.16 0.392249 -3.46789 0
M  V30 1158 C 107.508 0.645554 -4.19664 0
M  V30 1159 O 108.532 0.474575 -3.53024 0
M  V30 1160 O 107.391 0.976408 -5.37707 0
M  V30 1161 H 104.485 0.182598 -0.80659 0
M  V30 1162 H 107.031 -0.389141 -1.65178 0
M  V30 1163 H 105.803 -0.570702 -3.87116 0
M  V30 1164 H 105.426 1.14316 -3.80812 0
M  V30 1165 N 106.423 1.57458 -0.0668435 0
M  V30 1166 C 107.353 2.15468 0.899764 0
M  V30 1167 C 108.334 1.08042 1.31381 0
M  V30 1168 O 109.519 1.36054 1.38574 0
M  V30 1169 C 106.649 2.71232 2.16911 0
M  V30 1170 C 105.603 3.83781 1.89463 0
M  V30 1171 C 104.929 4.26127 3.22986 0
M  V30 1172 C 106.229 5.08238 1.20381 0
M  V30 1173 H 107.923 2.96488 0.416529 0
M  V30 1174 H 105.469 1.4262 0.198908 0
M  V30 1175 H 107.422 3.10458 2.84945 0
M  V30 1176 H 106.146 1.87426 2.67468 0
M  V30 1177 H 104.805 3.45051 1.23836 0
M  V30 1178 H 104.453 3.39249 3.71374 0
M  V30 1179 H 104.153 5.01993 3.05413 0
M  V30 1180 H 105.677 4.67966 3.92225 0
M  V30 1181 H 107.091 5.44811 1.78475 0
M  V30 1182 H 105.488 5.89349 1.13083 0
M  V30 1183 H 106.558 4.84558 0.182153 0
M  V30 1184 N 107.901 -0.206675 1.56239 0
M  V30 1185 C 108.849 -1.27571 1.94495 0
M  V30 1186 C 109.843 -1.47737 0.828862 0
M  V30 1187 O 111.049 -1.48735 1.0138 0
M  V30 1188 H 107.424 -0.428029 0.6183 0
M  V30 1189 H 109.395 -0.925961 2.8367 0
M  V30 1190 C 108.144 -2.61568 2.29079 0
M  V30 1191 H 107.467 -2.46863 3.14482 0
M  V30 1192 H 108.907 -3.35144 2.5972 0
M  V30 1193 C 107.366 -3.17695 1.12123 0
M  V30 1194 O 107.896 -3.99801 0.390153 0
M  V30 1195 N 106.102 -2.76276 0.901097 0
M  V30 1196 H 105.649 -2.09613 1.49733 0
M  V30 1197 H 105.607 -3.1417 0.120319 0
M  V30 1198 N 109.379 -1.50304 -0.473955 0
M  V30 1199 C 110.627 -1.60832 -1.22382 0
M  V30 1200 C 110.948 -0.30939 -1.9253 0
M  V30 1201 O 110.218 0.67296 -1.83978 0
M  V30 1202 H 108.798 -0.592652 -0.454723 0
M  V30 1203 H 111.46 -1.87068 -0.546968 0
M  V30 1204 H 110.556 -2.41803 -1.97327 0
M  V30 1205 N 110.857 0.726932 -1.39834 0
M  V30 1206 C 112.106 1.48214 -1.36805 0
M  V30 1207 C 112.419 1.95576 0.0305291 0
M  V30 1208 O 113.625 2.7088 0.183417 0
M  V30 1209 C 112.081 2.67854 -2.40379 0
M  V30 1210 C 111.689 2.27408 -3.85992 0
M  V30 1211 C 113.433 3.45641 -2.46439 0
M  V30 1212 C 111.34 3.43819 -4.81189 0
M  V30 1213 H 110.27 0.556606 -0.508631 0
M  V30 1214 H 112.921 0.792216 -1.65518 0
M  V30 1215 H 111.303 3.3896 -2.04749 0
M  V30 1216 H 112.477 1.63795 -4.30706 0
M  V30 1217 H 110.792 1.62692 -3.83302 0
M  V30 1218 H 113.389 4.32244 -3.14753 0
M  V30 1219 H 113.732 3.88669 -1.49139 0
M  V30 1220 H 114.265 2.8157 -2.81004 0
M  V30 1221 H 111.004 3.05834 -5.79781 0
M  V30 1222 H 110.524 4.06385 -4.41148 0
M  V30 1223 H 112.203 4.10043 -5.00474 0
M  V30 1224 N 112.336 1.25143 0.95797 0
M  V30 1225 C 113.283 1.05235 2.05412 0
M  V30 1226 C 114.253 -0.0374561 1.66058 0
M  V30 1227 O 115.438 0.119073 1.90428 0
M  V30 1228 C 112.578 0.673589 3.38462 0
M  V30 1229 C 111.691 1.8379 3.90954 0
M  V30 1230 C 110.826 1.40381 5.12315 0
M  V30 1231 C 109.865 2.53746 5.57027 0
M  V30 1232 N 109.002 2.11136 6.69601 0
M  V30 1233 H 113.842 1.99048 2.21774 0
M  V30 1234 H 111.379 0.991277 1.08683 0
M  V30 1235 H 113.337 0.434964 4.14926 0
M  V30 1236 H 111.967 -0.227554 3.21997 0
M  V30 1237 H 111.019 2.18992 3.11041 0
M  V30 1238 H 112.331 2.68937 4.20089 0
M  V30 1239 H 111.485 1.12464 5.96185 0
M  V30 1240 H 110.224 0.523015 4.84887 0
M  V30 1241 H 109.229 2.82412 4.71724 0
M  V30 1242 H 110.454 3.42398 5.86464 0
M  V30 1243 H 108.4 1.25468 6.4389 0
M  V30 1244 H 108.317 2.89832 6.98236 0
M  V30 1245 H 109.585 1.86385 7.56889 0
M  V30 1246 N 113.814 -1.1601 1.06675 0
M  V30 1247 C 115.042 -1.90527 0.806667 0
M  V30 1248 C 115.457 -1.77643 -0.639396 0
M  V30 1249 O 114.814 -1.12369 -1.43803 0
M  V30 1250 C 114.865 -3.41106 1.19705 0
M  V30 1251 O 114.586 -3.53608 2.58636 0
M  V30 1252 C 116.087 -4.32663 0.965266 0
M  V30 1253 H 113.307 -0.604053 0.292166 0
M  V30 1254 H 115.851 -1.47026 1.4214 0
M  V30 1255 H 114.006 -3.82296 0.626774 0
M  V30 1256 H 114.42 -4.47011 2.74375 0
M  V30 1257 H 115.894 -5.36763 1.288 0
M  V30 1258 H 116.371 -4.39089 -0.0987936 0
M  V30 1259 H 116.977 -3.97206 1.52011 0
M  V30 1260 N 115.292 -0.849877 -1.32721 0
M  V30 1261 C 116.24 -0.279745 -2.30912 0
M  V30 1262 C 117.234 0.594278 -1.58634 0
M  V30 1263 O 118.44 0.482613 -1.73409 0
M  V30 1264 H 114.815 -0.0717521 -0.748569 0
M  V30 1265 H 116.786 -1.12222 -2.76494 0
M  V30 1266 C 115.535 0.521108 -3.43773 0
M  V30 1267 H 114.858 -0.142141 -3.99547 0
M  V30 1268 H 116.298 0.885693 -4.14646 0
M  V30 1269 C 114.757 1.70442 -2.90605 0
M  V30 1270 O 115.287 2.8034 -2.87702 0
M  V30 1271 N 113.493 1.52991 -2.47067 0
M  V30 1272 H 113.04 0.635914 -2.49628 0
M  V30 1273 H 112.998 2.32311 -2.11847 0
M  V30 1274 N 116.77 1.45427 -0.607355 0
M  V30 1275 C 118.047 1.9557 -0.0344566 0
M  V30 1276 C 118.427 1.54979 1.43334 0
M  V30 1277 O 117.775 0.812241 2.13576 0
M  V30 1278 C 117.985 3.48226 -0.232321 0
M  V30 1279 C 119.333 4.2445 -0.113001 0
M  V30 1280 O 120.357 3.55829 -0.162431 0
M  V30 1281 O 119.216 5.465 0.00209442 0
M  V30 1282 H 116.31 0.826222 0.0358667 0
M  V30 1283 H 118.856 1.55594 -0.6774 0
M  V30 1284 H 117.628 3.70739 -1.25174 0
M  V30 1285 H 117.251 3.95092 0.445896 0
M  V30 1286 N 118.248 0.346503 1.53744 0
M  V30 1287 C 119.497 -0.250122 2.00143 0
M  V30 1288 C 119.81 -1.51418 1.23822 0
M  V30 1289 O 121.016 -2.18823 1.60713 0
M  V30 1290 C 119.472 -0.496252 3.56462 0
M  V30 1291 C 119.08 0.752077 4.41642 0
M  V30 1292 C 120.824 -1.05157 4.11269 0
M  V30 1293 C 118.731 0.476583 5.89477 0
M  V30 1294 H 117.661 -0.0972409 0.747703 0
M  V30 1295 H 120.312 0.46229 1.77581 0
M  V30 1296 H 118.694 -1.26944 3.75102 0
M  V30 1297 H 119.868 1.5266 4.34778 0
M  V30 1298 H 118.183 1.22925 3.97842 0
M  V30 1299 H 120.78 -1.27269 5.19333 0
M  V30 1300 H 121.123 -2.00799 3.64672 0
M  V30 1301 H 121.656 -0.339019 3.96353 0
M  V30 1302 H 118.395 1.4028 6.40314 0
M  V30 1303 H 117.915 -0.259794 5.99237 0
M  V30 1304 H 119.594 0.0949315 6.4693 0
M  V30 1305 N 119.726 -1.57421 0.075193 0
M  V30 1306 C 120.659 -2.08528 -0.926904 0
M  V30 1307 C 121.637 -0.991171 -1.28898 0
M  V30 1308 O 122.821 -1.26479 -1.39769 0
M  V30 1309 C 119.948 -2.54576 -2.23402 0
M  V30 1310 C 118.994 -3.75454 -2.02327 0
M  V30 1311 S 119.827 -5.19989 -1.27951 0
M  V30 1312 C 120.983 -5.69372 -2.59935 0
M  V30 1313 H 121.216 -2.932 -0.492048 0
M  V30 1314 H 118.749 -1.53785 -0.137651 0
M  V30 1315 H 120.707 -2.81767 -2.98526 0
M  V30 1316 H 119.368 -1.70166 -2.64012 0
M  V30 1317 H 118.561 -4.05675 -2.99071 0
M  V30 1318 H 118.163 -3.48654 -1.35339 0
M  V30 1319 H 120.455 -5.76424 -3.56008 0
M  V30 1320 H 121.398 -6.68207 -2.34319 0
M  V30 1321 H 121.806 -4.97205 -2.67296 0
M  V30 1322 N 121.204 0.198386 -1.56346 0
M  V30 1323 C 122.134 1.24865 -1.9731 0
M  V30 1324 C 123.115 1.47651 -0.844576 0
M  V30 1325 O 124.3 1.59444 -1.10866 0
M  V30 1326 C 121.43 2.59358 -2.30977 0
M  V30 1327 C 120.384 2.5119 -3.46537 0
M  V30 1328 C 119.71 3.89926 -3.65871 0
M  V30 1329 C 121.01 2.03977 -4.80823 0
M  V30 1330 H 122.704 0.908252 -2.85291 0
M  V30 1331 H 120.25 0.435462 -1.37258 0
M  V30 1332 H 122.203 3.33011 -2.58228 0
M  V30 1333 H 120.927 2.95132 -1.39874 0
M  V30 1334 H 119.586 1.79993 -3.19371 0
M  V30 1335 H 119.234 4.23046 -2.72105 0
M  V30 1336 H 118.934 3.85336 -4.4361 0
M  V30 1337 H 120.458 4.65205 -3.95495 0
M  V30 1338 H 121.872 2.67386 -5.07127 0
M  V30 1339 H 120.269 2.10397 -5.62008 0
M  V30 1340 H 121.339 0.992861 -4.74626 0
M  V30 1341 N 122.682 1.50554 0.465978 0
M  V30 1342 C 123.93 1.61479 1.21528 0
M  V30 1343 C 124.251 0.319596 1.92363 0
M  V30 1344 O 123.521 -0.663194 1.84333 0
M  V30 1345 H 122.101 0.595055 0.451573 0
M  V30 1346 H 124.763 1.87355 0.53704 0
M  V30 1347 H 123.859 2.42846 1.96042 0
M  V30 1348 N 124.16 -0.719506 1.40217 0
M  V30 1349 C 125.406 -1.48152 1.38488 0
M  V30 1350 C 125.739 -1.94195 -0.0141867 0
M  V30 1351 O 125.014 -1.67884 -0.982096 0
M  V30 1352 C 125.297 -2.71035 2.37091 0
M  V30 1353 C 125.15 -2.30912 3.86005 0
M  V30 1354 C 126.469 -3.73182 2.33288 0
M  V30 1355 H 123.588 -0.537395 0.504357 0
M  V30 1356 H 126.23 -0.821472 1.71324 0
M  V30 1357 H 124.38 -3.27352 2.0922 0
M  V30 1358 H 126.052 -1.80107 4.24687 0
M  V30 1359 H 124.295 -1.62958 4.02029 0
M  V30 1360 H 124.966 -3.18978 4.50508 0
M  V30 1361 H 127.442 -3.26485 2.57966 0
M  V30 1362 H 126.318 -4.56806 3.04334 0
M  V30 1363 H 126.579 -4.21202 1.34317 0
M  V30 1364 N 125.638 -1.25649 -0.95132 0
M  V30 1365 C 126.868 -1.13179 -1.72841 0
M  V30 1366 C 127.276 0.316827 -1.86528 0
M  V30 1367 O 126.619 1.22948 -1.3649 0
M  V30 1368 C 126.681 -1.71644 -3.15878 0
M  V30 1369 C 126.345 -3.20667 -3.25609 0
M  V30 1370 C 127.342 -4.17616 -3.09666 0
M  V30 1371 C 125.027 -3.6094 -3.49324 0
M  V30 1372 C 127.021 -5.52817 -3.17289 0
M  V30 1373 C 124.708 -4.96278 -3.56584 0
M  V30 1374 C 125.706 -5.92025 -3.40581 0
M  V30 1375 O 125.394 -7.24899 -3.47528 0
M  V30 1376 H 125.126 -0.395389 -0.54831 0
M  V30 1377 H 127.68 -1.66566 -1.20187 0
M  V30 1378 H 125.91 -1.12707 -3.69911 0
M  V30 1379 H 127.599 -1.54225 -3.75459 0
M  V30 1380 H 128.365 -3.87842 -2.91211 0
M  V30 1381 H 124.244 -2.86907 -3.6084 0
M  V30 1382 H 127.788 -6.2753 -3.04716 0
M  V30 1383 H 123.685 -5.25716 -3.74556 0
M  V30 1384 H 124.453 -7.33039 -3.64138 0
M  V30 1385 N 127.117 1.15442 -1.07289 0
M  V30 1386 C 128.366 1.85557 -0.790669 0
M  V30 1387 C 128.679 1.83186 0.685739 0
M  V30 1388 O 129.885 2.48977 1.0827 0
M  V30 1389 C 128.341 3.33038 -1.36433 0
M  V30 1390 C 127.949 3.43856 -2.8717 0
M  V30 1391 C 129.693 4.0834 -1.1601 0
M  V30 1392 C 127.6 4.85482 -3.3773 0
M  V30 1393 H 126.53 0.695122 -0.292098 0
M  V30 1394 H 129.181 1.30219 -1.29287 0
M  V30 1395 H 127.563 3.88043 -0.789864 0
M  V30 1396 H 128.737 2.98961 -3.50655 0
M  V30 1397 H 127.052 2.81998 -3.06376 0
M  V30 1398 H 129.649 5.12859 -1.51262 0
M  V30 1399 H 129.992 4.16182 -0.0991007 0
M  V30 1400 H 130.525 3.59603 -1.70089 0
M  V30 1401 H 127.264 4.82823 -4.43353 0
M  V30 1402 H 126.784 5.30961 -2.78999 0
M  V30 1403 H 128.463 5.54335 -3.33648 0
M  V30 1404 N 128.595 0.856903 1.32268 0
M  V30 1405 C 130.006 0.515711 1.79436 0
M  V30 1406 C 130.357 -0.966586 1.70738 0
M  V30 1407 O 129.482 -1.75409 1.26731 0
M  V30 1408 C 130.077 0.929335 3.25805 0
M  V30 1409 C 128.636 0.640006 3.70919 0
M  V30 1410 C 127.783 1.12784 2.53328 0
M  V30 1411 H 130.734 1.04389 1.19535 0
M  V30 1412 H 130.755 0.246633 3.797 0
M  V30 1413 H 130.267 2.00821 3.32103 0
M  V30 1414 H 128.368 -0.428051 3.70133 0
M  V30 1415 H 128.481 1.20788 4.63624 0
M  V30 1416 H 126.845 0.548033 2.48734 0
M  V30 1417 H 127.628 2.21387 2.62379 0
M  V30 1418 N 130.073 -1.45103 0.615059 0
M  V30 1419 C 131.35 -1.95549 0.0448276 0
M  V30 1420 C 131.73 -1.55737 -1.4251 0
M  V30 1421 O 131.078 -0.823556 -2.13143 0
M  V30 1422 C 131.288 -3.48098 0.250785 0
M  V30 1423 C 132.636 -4.24384 0.135509 0
M  V30 1424 O 133.66 -3.55738 0.181299 0
M  V30 1425 O 132.519 -5.46493 0.0268878 0
M  V30 1426 H 129.613 -0.8264 -0.0314845 0
M  V30 1427 H 132.159 -1.55232 0.685642 0
M  V30 1428 H 130.931 -3.7007 1.27139 0
M  V30 1429 H 130.554 -3.95323 -0.424937 0
M  V30 1430 N 131.551 -0.354651 -1.53558 0
M  V30 1431 C 132.461 0.50515 -2.29097 0
M  V30 1432 C 133.477 1.10223 -1.34636 0
M  V30 1433 O 134.653 1.11553 -1.67684 0
M  V30 1434 C 131.718 1.63479 -3.05738 0
M  V30 1435 C 130.779 1.06636 -4.15845 0
M  V30 1436 C 130.012 2.14217 -4.88822 0
M  V30 1437 O 130.235 3.35137 -4.61562 0
M  V30 1438 O 129.169 1.77887 -5.75013 0
M  V30 1439 H 132.995 -0.109237 -3.03503 0
M  V30 1440 H 130.58 -0.119357 -1.48922 0
M  V30 1441 H 132.462 2.2918 -3.5363 0
M  V30 1442 H 131.137 2.23478 -2.34178 0
M  V30 1443 H 130.044 0.373565 -3.7223 0
M  V30 1444 H 131.377 0.511081 -4.89539 0
M  V30 1445 N 133.029 1.57378 -0.0835403 0
M  V30 1446 C 133.939 2.16897 0.894021 0
M  V30 1447 C 134.955 1.13528 1.31861 0
M  V30 1448 O 136.131 1.45848 1.3889 0
M  V30 1449 C 133.196 2.72831 2.13925 0
M  V30 1450 C 132.257 3.91115 1.76997 0
M  V30 1451 C 131.49 4.44371 2.95584 0
M  V30 1452 O 131.713 3.96596 4.09961 0
M  V30 1453 O 130.647 5.35549 2.74719 0
M  V30 1454 H 134.473 3.00814 0.417679 0
M  V30 1455 H 132.058 1.48741 0.140181 0
M  V30 1456 H 133.94 3.0863 2.86924 0
M  V30 1457 H 132.615 1.91967 2.60635 0
M  V30 1458 H 131.522 3.60148 1.01214 0
M  V30 1459 H 132.855 4.73307 1.3506 0
M  V30 1460 N 134.507 -0.190092 1.56449 0
M  V30 1461 C 135.784 -0.935886 1.71757 0
M  V30 1462 C 136.164 -2.01173 0.639726 0
M  V30 1463 O 135.512 -2.25827 -0.348502 0
M  V30 1464 C 135.722 -1.51775 3.1427 0
M  V30 1465 C 137.07 -1.99794 3.74656 0
M  V30 1466 O 138.094 -1.61607 3.1743 0
M  V30 1467 O 136.953 -2.70079 4.751 0
M  V30 1468 H 134.047 -0.439229 0.700719 0
M  V30 1469 H 136.593 -0.179395 1.68749 0
M  V30 1470 H 135.365 -0.742505 3.84191 0
M  V30 1471 H 134.988 -2.33894 3.21527 0
M  V30 1472 N 135.985 -1.50799 -0.457987 0
M  V30 1473 C 137.231 -1.62683 -1.21088 0
M  V30 1474 C 137.564 -0.332268 -1.91336 0
M  V30 1475 O 136.839 0.667043 -1.82704 0
M  V30 1476 C 137.122 -2.81615 -2.24422 0
M  V30 1477 C 136.975 -4.20989 -1.58392 0
M  V30 1478 C 138.294 -2.96085 -3.2561 0
M  V30 1479 H 135.413 -0.592087 -0.438864 0
M  V30 1480 H 138.055 -1.83225 -0.50286 0
M  V30 1481 H 136.205 -2.64231 -2.84806 0
M  V30 1482 H 137.877 -4.49994 -1.01504 0
M  V30 1483 H 136.12 -4.24641 -0.886704 0
M  V30 1484 H 136.791 -5.0016 -2.33547 0
M  V30 1485 H 139.267 -3.12042 -2.75262 0
M  V30 1486 H 138.143 -3.80902 -3.95228 0
M  V30 1487 H 138.404 -2.0726 -3.90507 0
M  V30 1488 N 137.463 0.71206 -1.40597 0
M  V30 1489 C 138.711 1.46907 -1.38791 0
M  V30 1490 C 139.032 1.94998 0.00780391 0
M  V30 1491 O 138.302 1.70587 0.963174 0
M  V30 1492 H 136.882 0.545043 -0.51082 0
M  V30 1493 H 139.544 0.843882 -1.75683 0
M  V30 1494 H 138.64 2.34021 -2.06496 0
M  V30 1495 N 138.941 1.26152 0.944643 0
M  V30 1496 C 139.871 1.09902 2.06019 0
M  V30 1497 C 140.852 0.00519538 1.70099 0
M  V30 1498 O 142.037 0.176583 1.93396 0
M  V30 1499 C 139.167 0.727562 3.39594 0
M  V30 1500 C 138.121 1.77274 3.89561 0
M  V30 1501 C 137.447 1.25569 5.19747 0
M  V30 1502 C 138.747 3.17357 4.14827 0
M  V30 1503 H 140.441 2.03217 2.19871 0
M  V30 1504 H 137.987 0.978452 1.05652 0
M  V30 1505 H 139.94 0.600777 4.17095 0
M  V30 1506 H 138.664 -0.241287 3.25707 0
M  V30 1507 H 137.323 1.88814 3.14237 0
M  V30 1508 H 136.971 0.276783 5.02238 0
M  V30 1509 H 136.671 1.95433 5.54148 0
M  V30 1510 H 138.195 1.1415 5.99835 0
M  V30 1511 H 139.609 3.08914 4.82954 0
M  V30 1512 H 138.006 3.84781 4.60504 0
M  V30 1513 H 139.076 3.63673 3.20734 0
M  V30 1514 N 140.419 -1.14872 1.07899 0
M  V30 1515 C 141.667 -1.85422 0.803941 0
M  V30 1516 C 141.988 -1.83051 -0.67211 0
M  V30 1517 O 141.258 -1.27532 -1.48703 0
M  V30 1518 H 139.838 -0.686537 0.294408 0
M  V30 1519 H 142.5 -1.39226 1.3639 0
M  V30 1520 H 141.596 -2.90399 1.14346 0
M  V30 1521 N 141.898 -0.863906 -1.31812 0
M  V30 1522 C 142.831 -0.259963 -2.26714 0
M  V30 1523 C 143.809 0.607392 -1.50829 0
M  V30 1524 O 144.993 0.562155 -1.79922 0
M  V30 1525 C 142.12 0.632456 -3.32743 0
M  V30 1526 C 141.166 -0.162743 -4.26189 0
M  V30 1527 S 141.999 -1.53726 -5.12961 0
M  V30 1528 C 143.155 -0.650803 -6.22507 0
M  V30 1529 H 143.388 -1.06445 -2.77591 0
M  V30 1530 H 140.921 -0.662071 -1.39485 0
M  V30 1531 H 142.879 1.14167 -3.94305 0
M  V30 1532 H 141.54 1.41083 -2.80632 0
M  V30 1533 H 140.733 0.517366 -5.01338 0
M  V30 1534 H 140.335 -0.60385 -3.69093 0
M  V30 1535 H 142.627 0.141134 -6.77353 0
M  V30 1536 H 143.57 -1.37322 -6.94657 0
M  V30 1537 H 143.978 -0.221041 -5.64067 0
M  V30 1538 N 143.376 1.44774 -0.622745 0
M  V30 1539 C 144.286 2.34433 0.0886031 0
M  V30 1540 C 145.302 1.52131 0.844529 0
M  V30 1541 O 146.478 1.84886 0.798691 0
M  V30 1542 C 143.543 3.29986 1.0635 0
M  V30 1543 C 142.604 4.28195 0.307873 0
M  V30 1544 C 141.837 5.19183 1.23633 0
M  V30 1545 O 142.06 5.13918 2.47476 0
M  V30 1546 O 140.994 5.97515 0.725189 0
M  V30 1547 H 144.82 2.96693 -0.648599 0
M  V30 1548 H 142.405 1.44408 -0.382957 0
M  V30 1549 H 144.287 3.88825 1.6246 0
M  V30 1550 H 142.962 2.70269 1.78146 0
M  V30 1551 H 141.869 3.72927 -0.296064 0
M  V30 1552 H 143.202 4.90808 -0.3699 0
M  V30 1553 N 144.854 0.36279 1.53368 0
M  V30 1554 C 145.784 -0.476976 2.28576 0
M  V30 1555 C 146.765 -1.08631 1.30894 0
M  V30 1556 O 147.95 -1.10409 1.59761 0
M  V30 1557 C 145.08 -1.61828 3.07293 0
M  V30 1558 C 144.034 -1.13633 4.1264 0
M  V30 1559 C 143.36 -2.36766 4.79423 0
M  V30 1560 C 144.66 -0.223061 5.21823 0
M  V30 1561 H 146.354 0.150474 2.99022 0
M  V30 1562 H 143.9 0.0738103 1.43811 0
M  V30 1563 H 145.853 -2.21237 3.58653 0
M  V30 1564 H 144.577 -2.27292 2.34533 0
M  V30 1565 H 143.236 -0.564945 3.62221 0
M  V30 1566 H 142.884 -3.0068 4.03238 0
M  V30 1567 H 142.584 -2.05192 5.50609 0
M  V30 1568 H 144.108 -2.96865 5.33576 0
M  V30 1569 H 145.522 -0.724545 5.68703 0
M  V30 1570 H 143.919 0.001678 6.001 0
M  V30 1571 H 144.989 0.735553 4.79289 0
M  V30 1572 N 146.332 -1.57332 0.0918853 0
M  V30 1573 C 147.58 -1.93853 -0.571446 0
M  V30 1574 C 147.901 -0.974212 -1.6892 0
M  V30 1575 O 147.171 -0.0257254 -1.95883 0
M  V30 1576 H 145.751 -0.715666 -0.214082 0
M  V30 1577 H 148.413 -1.94287 0.154464 0
M  V30 1578 H 147.509 -2.96191 -0.983729 0
M  V30 1579 N 147.81 0.181792 -1.56548 0
M  V30 1580 C 149.04 0.914618 -1.85252 0
M  V30 1581 C 149.448 1.76791 -0.673914 0
M  V30 1582 O 148.791 1.80009 0.366416 0
M  V30 1583 C 148.853 1.85019 -3.08234 0
M  V30 1584 C 148.517 1.17754 -4.41569 0
M  V30 1585 C 149.514 0.548035 -5.17003 0
M  V30 1586 C 147.199 1.17742 -4.88305 0
M  V30 1587 C 149.193 -0.0726128 -6.37359 0
M  V30 1588 C 146.88 0.552946 -6.08593 0
M  V30 1589 C 147.878 -0.070978 -6.82963 0
M  V30 1590 O 147.566 -0.685635 -8.00971 0
M  V30 1591 H 147.298 0.271695 -0.618998 0
M  V30 1592 H 149.852 0.189944 -2.0452 0
M  V30 1593 H 148.082 2.61491 -2.84885 0
M  V30 1594 H 149.771 2.45195 -3.23472 0
M  V30 1595 H 150.537 0.540174 -4.81982 0
M  V30 1596 H 146.416 1.65246 -4.30366 0
M  V30 1597 H 149.96 -0.560213 -6.95347 0
M  V30 1598 H 145.857 0.558354 -6.43081 0
M  V30 1599 H 146.625 -0.58385 -8.16415 0
M  V30 1600 N 149.288 1.51039 0.449983 0
M  V30 1601 C 150.251 1.70863 1.5277 0
M  V30 1602 C 151.251 0.578846 1.5002 0
M  V30 1603 O 152.441 0.846213 1.52266 0
M  V30 1604 C 149.573 1.75341 2.9235 0
M  V30 1605 H 150.766 2.67034 1.36502 0
M  V30 1606 H 148.319 1.40838 0.677812 0
M  V30 1607 H 149.054 0.809383 3.14037 0
M  V30 1608 H 148.839 2.57436 2.95752 0
M  V30 1609 H 150.329 1.92559 3.70555 0
M  V30 1610 N 150.766 -0.704594 1.40972 0
M  V30 1611 C 151.696 -1.83124 1.44872 0
M  V30 1612 C 152.677 -1.67281 0.30838 0
M  V30 1613 O 153.862 -1.87149 0.518556 0
M  V30 1614 C 150.992 -3.21181 1.32136 0
M  V30 1615 C 149.946 -3.51714 2.43888 0
M  V30 1616 C 149.272 -4.89032 2.16222 0
M  V30 1617 C 150.572 -3.516 3.86232 0
M  V30 1618 H 152.266 -1.80117 2.39161 0
M  V30 1619 H 149.812 -0.865145 1.15114 0
M  V30 1620 H 151.765 -3.99702 1.33479 0
M  V30 1621 H 150.489 -3.24791 0.343279 0
M  V30 1622 H 149.148 -2.75539 2.41813 0
M  V30 1623 H 148.796 -4.89256 1.16778 0
M  V30 1624 H 148.496 -5.10426 2.911 0
M  V30 1625 H 150.02 -5.69873 2.19265 0
M  V30 1626 H 151.434 -4.2014 3.9007 0
M  V30 1627 H 149.831 -3.84523 4.60719 0
M  V30 1628 H 150.901 -2.50757 4.15029 0
M  V30 1629 N 152.244 -1.26651 -0.937939 0
M  V30 1630 C 153.469 -1.15279 -1.72411 0
M  V30 1631 C 153.894 0.287866 -1.85884 0
M  V30 1632 O 153.252 1.20855 -1.35143 0
M  V30 1633 C 153.3 -1.83028 -3.10698 0
M  V30 1634 O 152.404 -1.12128 -3.96864 0
M  V30 1635 H 151.745 -0.401504 -0.528858 0
M  V30 1636 H 154.275 -1.67531 -1.1745 0
M  V30 1637 H 154.285 -1.89981 -3.6107 0
M  V30 1638 H 152.96 -2.87833 -3.00208 0
M  V30 1639 H 151.537 -1.13173 -3.55312 0
M  V30 1640 N 153.722 1.14298 -1.08507 0
M  V30 1641 C 154.654 2.1907 -0.673859 0
M  V30 1642 C 155.667 1.60381 0.279577 0
M  V30 1643 O 156.856 1.78374 0.0670754 0
M  V30 1644 C 153.956 3.38888 0.0290979 0
M  V30 1645 C 153.129 4.27103 -0.943494 0
M  V30 1646 C 152.188 5.25477 -0.275676 0
M  V30 1647 O 151.214 5.61709 -0.920401 0
M  V30 1648 N 152.416 5.7227 0.974013 0
M  V30 1649 H 155.181 2.54965 -1.57521 0
M  V30 1650 H 152.742 1.29528 -0.971287 0
M  V30 1651 H 154.734 4.01761 0.48683 0
M  V30 1652 H 153.304 3.01309 0.832555 0
M  V30 1653 H 152.524 3.61149 -1.58004 0
M  V30 1654 H 153.812 4.82905 -1.60251 0
M  V30 1655 H 153.21 5.44965 1.51755 0
M  V30 1656 H 151.767 6.37127 1.37522 0
M  V30 1657 N 155.201 0.870884 1.31352 0
M  V30 1658 C 156.449 0.48132 1.96285 0
M  V30 1659 C 156.77 -0.969813 1.69173 0
M  V30 1660 O 156.04 -1.67998 1.00764 0
M  V30 1661 H 154.62 0.175002 0.726212 0
M  V30 1662 H 157.282 1.11087 1.60143 0
M  V30 1663 H 156.378 0.639825 3.05471 0
M  V30 1664 N 156.679 -1.44442 0.630414 0
M  V30 1665 C 157.626 -2.30678 -0.0749355 0
M  V30 1666 C 158.596 -1.4344 -0.837502 0
M  V30 1667 O 159.781 -1.72343 -0.818684 0
M  V30 1668 C 156.921 -3.28706 -1.05103 0
M  V30 1669 C 156.034 -4.31046 -0.286954 0
M  V30 1670 C 155.169 -5.16167 -1.2548 0
M  V30 1671 C 154.208 -6.10216 -0.479843 0
M  V30 1672 N 153.345 -6.88039 -1.39811 0
M  V30 1673 H 158.185 -2.90454 0.666386 0
M  V30 1674 H 155.722 -1.43107 0.340404 0
M  V30 1675 H 157.68 -3.84027 -1.63031 0
M  V30 1676 H 156.31 -2.70632 -1.75949 0
M  V30 1677 H 155.362 -3.78203 0.408243 0
M  V30 1678 H 156.674 -4.97794 0.316657 0
M  V30 1679 H 155.828 -5.76002 -1.90544 0
M  V30 1680 H 154.567 -4.49491 -1.89233 0
M  V30 1681 H 153.572 -5.49491 0.184295 0
M  V30 1682 H 154.797 -6.78928 0.152965 0
M  V30 1683 H 152.743 -6.24032 -2.02287 0
M  V30 1684 H 152.66 -7.51223 -0.848508 0
M  V30 1685 H 153.928 -7.52397 -2.03762 0
M  V30 1686 N 158.157 -0.370918 -1.53173 0
M  V30 1687 C 159.387 0.217389 -2.05453 0
M  V30 1688 C 159.795 1.42568 -1.24382 0
M  V30 1689 O 159.138 1.81571 -0.278839 0
M  V30 1690 C 159.2 0.669827 -3.53205 0
M  V30 1691 C 158.864 -0.4225 -4.55043 0
M  V30 1692 C 159.861 -1.27407 -5.04047 0
M  V30 1693 C 157.546 -0.58427 -4.9889 0
M  V30 1694 C 159.54 -2.27271 -5.95505 0
M  V30 1695 C 157.227 -1.58627 -5.90153 0
M  V30 1696 C 158.225 -2.42892 -6.38351 0
M  V30 1697 O 157.913 -3.41382 -7.27814 0
M  V30 1698 H 157.645 0.0408171 -0.674767 0
M  V30 1699 H 160.199 -0.5292 -1.98466 0
M  V30 1700 H 158.429 1.4681 -3.57748 0
M  V30 1701 H 160.118 1.18173 -3.88317 0
M  V30 1702 H 160.884 -1.16031 -4.70916 0
M  V30 1703 H 156.763 0.061851 -4.60959 0
M  V30 1704 H 160.307 -2.93079 -6.33049 0
M  V30 1705 H 156.204 -1.70048 -6.22699 0
M  V30 1706 H 156.972 -3.37173 -7.45826 0
M  V30 1707 N 159.635 1.57281 -0.100228 0
M  V30 1708 C 160.881 1.94826 0.563101 0
M  V30 1709 C 161.214 0.982475 1.67514 0
M  V30 1710 O 160.489 0.0164069 1.94493 0
M  V30 1711 C 160.772 3.42453 1.11346 0
M  V30 1712 C 160.625 4.498 0.00612081 0
M  V30 1713 C 161.944 3.91506 2.01024 0
M  V30 1714 H 159.063 0.708428 0.203221 0
M  V30 1715 H 161.705 1.8922 -0.171979 0
M  V30 1716 H 159.855 3.47361 1.7399 0
M  V30 1717 H 161.527 4.57 -0.628357 0
M  V30 1718 H 159.77 4.28756 -0.659581 0
M  V30 1719 H 160.441 5.50306 0.432109 0
M  V30 1720 H 162.917 3.88784 1.48278 0
M  V30 1721 H 161.793 4.95358 2.36457 0
M  V30 1722 H 162.054 3.31099 2.92961 0
M  V30 1723 N 161.113 -0.173488 1.56642 0
M  V30 1724 C 162.043 -1.2171 1.99271 0
M  V30 1725 C 163.024 -1.46289 0.867959 0
M  V30 1726 O 164.209 -1.5766 1.13388 0
M  V30 1727 C 161.339 -2.55651 2.35074 0
M  V30 1728 C 160.293 -2.45645 3.50489 0
M  V30 1729 C 159.619 -3.84056 3.72028 0
M  V30 1730 C 160.919 -1.96302 4.84007 0
M  V30 1731 H 162.613 -0.86275 2.867 0
M  V30 1732 H 160.159 -0.413571 1.37933 0
M  V30 1733 H 162.112 -3.2886 2.63494 0
M  V30 1734 H 160.836 -2.92869 1.44552 0
M  V30 1735 H 159.495 -1.7489 3.22194 0
M  V30 1736 H 159.143 -4.18664 2.788 0
M  V30 1737 H 158.843 -3.7823 4.49684 0
M  V30 1738 H 160.367 -4.58854 4.02846 0
M  V30 1739 H 161.781 -2.59284 5.11317 0
M  V30 1740 H 160.178 -2.01429 5.65284 0
M  V30 1741 H 161.248 -0.917226 4.76146 0
M  V30 1742 N 162.591 -1.51276 -0.441967 0
M  V30 1743 C 163.521 -1.752 -1.54361 0
M  V30 1744 C 164.502 -0.601682 -1.59103 0
M  V30 1745 O 165.687 -0.843913 -1.74905 0
M  V30 1746 C 162.817 -1.87282 -2.92477 0
M  V30 1747 C 161.771 -3.02687 -3.02596 0
M  V30 1748 C 161.097 -2.99947 -4.42647 0
M  V30 1749 C 162.397 -4.4273 -2.77106 0
M  V30 1750 H 164.091 -2.67442 -1.34592 0
M  V30 1751 H 161.637 -1.28694 -0.646048 0
M  V30 1752 H 163.59 -2.02602 -3.695 0
M  V30 1753 H 162.314 -0.916844 -3.13467 0
M  V30 1754 H 160.973 -2.87065 -2.28012 0
M  V30 1755 H 160.621 -2.02136 -4.60597 0
M  V30 1756 H 160.321 -3.77439 -4.50348 0
M  V30 1757 H 161.845 -3.17354 -5.2165 0
M  V30 1758 H 163.259 -4.58727 -3.43864 0
M  V30 1759 H 161.656 -5.21893 -2.96222 0
M  V30 1760 H 162.726 -4.53087 -1.72744 0
M  V30 1761 N 164.069 0.697108 -1.41344 0
M  V30 1762 C 165.315 1.4593 -1.40827 0
M  V30 1763 C 165.648 1.94193 -0.0167098 0
M  V30 1764 O 164.923 1.69425 0.955263 0
M  V30 1765 C 165.206 2.67229 -2.41373 0
M  V30 1766 C 165.059 2.24741 -3.8963 0
M  V30 1767 C 166.378 3.69423 -2.39196 0
M  V30 1768 H 163.497 0.529303 -0.512842 0
M  V30 1769 H 166.139 0.794112 -1.72609 0
M  V30 1770 H 164.289 3.23982 -2.14401 0
M  V30 1771 H 165.961 1.73327 -4.27499 0
M  V30 1772 H 164.204 1.56542 -4.0457 0
M  V30 1773 H 164.875 3.1177 -4.55525 0
M  V30 1774 H 167.351 3.2234 -2.63128 0
M  V30 1775 H 166.227 4.51907 -3.11563 0
M  V30 1776 H 166.488 4.19012 -1.41001 0
M  V30 1777 N 165.547 1.27147 0.931209 0
M  V30 1778 C 166.796 1.12664 1.67302 0
M  V30 1779 C 167.109 -0.327718 1.92835 0
M  V30 1780 O 168.315 -0.593392 2.64936 0
M  V30 1781 C 166.771 1.9683 3.01307 0
M  V30 1782 C 166.379 3.46901 2.83485 0
M  V30 1783 C 168.123 1.90985 3.79111 0
M  V30 1784 C 166.03 4.23279 4.13024 0
M  V30 1785 H 164.96 0.41803 0.627509 0
M  V30 1786 H 167.611 1.51539 1.03481 0
M  V30 1787 H 165.993 1.50797 3.66164 0
M  V30 1788 H 167.167 4.00773 2.27415 0
M  V30 1789 H 165.482 3.54088 2.19113 0
M  V30 1790 H 168.079 2.45328 4.75098 0
M  V30 1791 H 168.422 0.882718 4.06834 0
M  V30 1792 H 168.955 2.34895 3.21044 0
M  V30 1793 H 165.694 5.26503 3.90481 0
M  V30 1794 H 165.214 3.74186 4.6877 0
M  V30 1795 H 166.893 4.32265 4.81411 0
M  V30 1796 N 167.025 -1.13721 1.09112 0
M  V30 1797 C 168.436 -1.6648 0.845068 0
M  V30 1798 C 168.787 -1.85911 -0.62701 0
M  V30 1799 O 167.912 -1.57556 -1.48341 0
M  V30 1800 C 168.507 -3.02413 1.52748 0
M  V30 1801 C 167.066 -3.52176 1.32849 0
M  V30 1802 C 166.213 -2.27492 1.58564 0
M  V30 1803 H 169.164 -0.976872 1.25072 0
M  V30 1804 H 169.185 -3.68223 0.958752 0
M  V30 1805 H 168.697 -2.88238 2.59885 0
M  V30 1806 H 166.798 -3.7156 0.278137 0
M  V30 1807 H 166.911 -4.32499 2.0611 0
M  V30 1808 H 165.275 -2.33923 1.00758 0
M  V30 1809 H 166.058 -2.15886 2.66924 0
M  V30 1810 N 168.503 -0.877838 -1.30888 0
M  V30 1811 C 169.78 -0.413052 -1.91189 0
M  V30 1812 C 170.16 1.1056 -1.79832 0
M  V30 1813 O 169.508 1.93771 -1.21099 0
M  V30 1814 C 169.718 -0.903191 -3.3711 0
M  V30 1815 C 171.066 -0.93395 -4.14201 0
M  V30 1816 O 172.09 -0.849373 -3.45925 0
M  V30 1817 O 170.949 -1.05772 -5.36167 0
M  V30 1818 H 168.043 -0.125035 -0.817493 0
M  V30 1819 H 170.589 -0.966269 -1.39504 0
M  V30 1820 H 169.361 -1.94692 -3.39427 0
M  V30 1821 H 168.984 -0.328732 -3.96239 0
M  V30 1822 N 169.982 1.44106 -0.638065 0
M  V30 1823 C 170.892 2.34513 0.0637334 0
M  V30 1824 C 171.908 1.53018 0.828346 0
M  V30 1825 O 173.084 1.85723 0.779036 0
M  V30 1826 C 170.149 3.31095 1.02844 0
M  V30 1827 C 169.21 4.28497 0.26244 0
M  V30 1828 C 168.443 5.20465 1.1812 0
M  V30 1829 O 168.666 5.16514 2.42011 0
M  V30 1830 O 167.6 5.98251 0.661774 0
M  V30 1831 H 171.426 2.95989 -0.68003 0
M  V30 1832 H 169.011 1.43994 -0.398252 0
M  V30 1833 H 170.893 3.90526 1.58327 0
M  V30 1834 H 169.568 2.72144 1.7527 0
M  V30 1835 H 168.475 3.72592 -0.335602 0
M  V30 1836 H 169.808 4.90388 -0.421936 0
M  V30 1837 N 171.46 0.379036 1.52974 0
M  V30 1838 C 172.737 -0.263479 1.93817 0
M  V30 1839 C 173.117 -1.65244 1.31368 0
M  V30 1840 O 172.465 -2.23448 0.477856 0
M  V30 1841 C 172.675 -0.300166 3.47707 0
M  V30 1842 C 174.023 -0.534061 4.21228 0
M  V30 1843 O 175.047 -0.38081 3.54159 0
M  V30 1844 O 173.906 -0.833501 5.40106 0
M  V30 1845 H 171 -0.161149 0.811147 0
M  V30 1846 H 173.546 0.432798 1.64088 0
M  V30 1847 H 172.318 0.673138 3.85467 0
M  V30 1848 H 171.941 -1.04179 3.83709 0
M  V30 1849 N 172.938 -1.57226 0.108567 0
M  V30 1850 C 174.168 -1.9889 -0.559142 0
M  V30 1851 C 174.576 -0.986889 -1.61422 0
M  V30 1852 O 173.919 0.0298705 -1.83676 0
M  V30 1853 C 173.981 -3.36952 -1.25315 0
M  V30 1854 C 173.645 -4.55679 -0.347248 0
M  V30 1855 C 174.642 -5.18281 0.409996 0
M  V30 1856 C 172.327 -5.0162 -0.261367 0
M  V30 1857 C 174.321 -6.25203 1.24096 0
M  V30 1858 C 172.008 -6.08405 0.573238 0
M  V30 1859 C 173.006 -6.70063 1.32304 0
M  V30 1860 O 172.694 -7.74788 2.14381 0
M  V30 1861 H 172.426 -0.658343 -0.153492 0
M  V30 1862 H 174.98 -2.04532 0.188584 0
M  V30 1863 H 173.21 -3.28032 -2.04773 0
M  V30 1864 H 174.899 -3.62974 -1.81673 0
M  V30 1865 H 175.665 -4.8371 0.353457 0
M  V30 1866 H 171.544 -4.53381 -0.834656 0
M  V30 1867 H 175.088 -6.73259 1.82669 0
M  V30 1868 H 170.985 -6.42406 0.631208 0
M  V30 1869 H 171.753 -7.91837 2.07209 0
M  V30 1870 N 174.416 0.165178 -1.56732 0
M  V30 1871 C 175.664 0.879068 -1.8198 0
M  V30 1872 C 175.985 1.82514 -0.686561 0
M  V30 1873 O 175.255 1.93694 0.293146 0
M  V30 1874 H 173.835 0.327608 -0.671329 0
M  V30 1875 H 176.497 0.163526 -1.94213 0
M  V30 1876 H 175.593 1.45228 -2.76252 0
M  V30 1877 N 175.894 1.51508 0.433938 0
M  V30 1878 C 176.841 1.73068 1.52696 0
M  V30 1879 C 177.811 0.572441 1.55924 0
M  V30 1880 O 178.996 0.807253 1.72882 0
M  V30 1881 C 176.136 1.86474 2.90381 0
M  V30 1882 C 175.249 3.14037 2.96656 0
M  V30 1883 C 174.384 3.18019 4.25485 0
M  V30 1884 C 173.423 4.39882 4.2564 0
M  V30 1885 N 172.56 4.41394 5.45999 0
M  V30 1886 H 177.4 2.66366 1.33615 0
M  V30 1887 H 174.937 1.32008 0.649018 0
M  V30 1888 H 176.895 1.92229 3.70275 0
M  V30 1889 H 175.525 0.965809 3.08013 0
M  V30 1890 H 174.577 3.17575 2.09404 0
M  V30 1891 H 175.889 4.0394 2.92633 0
M  V30 1892 H 175.043 3.22708 5.13755 0
M  V30 1893 H 173.782 2.2601 4.3217 0
M  V30 1894 H 172.787 4.35366 3.35763 0
M  V30 1895 H 174.012 5.33159 4.20617 0
M  V30 1896 H 171.958 3.52258 5.53399 0
M  V30 1897 H 171.875 5.25111 5.4387 0
M  V30 1898 H 173.143 4.50281 6.36292 0
M  V30 1899 N 177.372 -0.689602 1.41712 0
M  V30 1900 C 178.783 -1.26973 1.36875 0
M  V30 1901 C 179.134 -1.96124 0.054748 0
M  V30 1902 O 178.259 -1.99141 -0.84687 0
M  V30 1903 C 178.854 -2.30912 2.47922 0
M  V30 1904 C 177.413 -2.84486 2.46464 0
M  V30 1905 C 176.56 -1.58603 2.27465 0
M  V30 1906 H 179.511 -0.48396 1.51141 0
M  V30 1907 H 179.532 -3.12331 2.17323 0
M  V30 1908 H 179.044 -1.80554 3.43543 0
M  V30 1909 H 177.145 -3.39005 1.54617 0
M  V30 1910 H 177.258 -3.34511 3.42986 0
M  V30 1911 H 175.622 -1.84632 1.75451 0
M  V30 1912 H 176.405 -1.10233 3.25121 0
M  V30 1913 N 178.85 -1.27639 -0.924453 0
M  V30 1914 C 180.099 -1.13549 -1.66702 0
M  V30 1915 C 180.412 0.317487 -1.93006 0
M  V30 1916 O 181.618 0.579333 -2.65247 0
M  V30 1917 C 180.074 -1.98426 -3.00259 0
M  V30 1918 C 179.682 -3.484 -2.81641 0
M  V30 1919 C 181.426 -1.92993 -3.78092 0
M  V30 1920 C 179.333 -4.25464 -4.10773 0
M  V30 1921 H 178.263 -0.421351 -0.625283 0
M  V30 1922 H 180.914 -1.52085 -1.02676 0
M  V30 1923 H 179.296 -1.52736 -3.6536 0
M  V30 1924 H 180.47 -4.01973 -2.25287 0
M  V30 1925 H 178.785 -3.55245 -2.17232 0
M  V30 1926 H 181.382 -2.47844 -4.7379 0
M  V30 1927 H 181.725 -0.904281 -4.0636 0
M  V30 1928 H 182.258 -2.36595 -3.19793 0
M  V30 1929 H 178.997 -5.28566 -3.87683 0
M  V30 1930 H 178.517 -3.76667 -4.66779 0
M  V30 1931 H 180.196 -4.34812 -4.79111 0
M  V30 1932 N 180.328 1.1314 -1.09713 0
M  V30 1933 C 181.276 2.20717 -0.733934 0
M  V30 1934 C 182.27 1.6729 0.266506 0
M  V30 1935 O 183.476 1.79547 0.127656 0
M  V30 1936 H 179.851 0.719292 -0.21937 0
M  V30 1937 H 181.822 2.48611 -1.6503 0
M  V30 1938 C 180.571 3.47265 -0.173849 0
M  V30 1939 H 179.894 3.88716 -0.934873 0
M  V30 1940 H 181.334 4.23979 0.0423126 0
M  V30 1941 C 179.793 3.18724 1.09164 0
M  V30 1942 O 180.323 3.37762 2.17439 0
M  V30 1943 N 178.529 2.72583 1.00732 0
M  V30 1944 H 178.076 2.57291 0.126121 0
M  V30 1945 H 178.034 2.53862 1.85476 0
M  V30 1946 N 181.806 0.884767 1.30421 0
M  V30 1947 C 182.736 0.367574 2.30589 0
M  V30 1948 C 183.717 -0.549464 1.60981 0
M  V30 1949 O 184.902 -0.46336 1.88591 0
M  V30 1950 C 182.032 -0.418944 3.44764 0
M  V30 1951 C 180.986 0.406316 4.26067 0
M  V30 1952 C 180.312 -0.506793 5.32293 0
M  V30 1953 C 181.612 1.64832 4.95608 0
M  V30 1954 H 183.306 1.20462 2.74097 0
M  V30 1955 H 180.852 0.580695 1.31772 0
M  V30 1956 H 182.805 -0.791395 4.13902 0
M  V30 1957 H 181.529 -1.28964 3.0006 0
M  V30 1958 H 180.188 0.760903 3.58617 0
M  V30 1959 H 179.836 -1.37519 4.83836 0
M  V30 1960 H 179.536 0.0415828 5.87585 0
M  V30 1961 H 181.06 -0.875764 6.04287 0
M  V30 1962 H 182.474 1.34646 5.57264 0
M  V30 1963 H 180.871 2.13688 5.60765 0
M  V30 1964 H 181.941 2.39284 4.21748 0
M  V30 1965 N 183.284 -1.43765 0.645699 0
M  V30 1966 C 184.217 -2.2798 -0.100072 0
M  V30 1967 C 185.195 -1.39391 -0.837194 0
M  V30 1968 O 186.379 -1.68833 -0.838306 0
M  V30 1969 C 183.506 -3.18643 -1.14823 0
M  V30 1970 C 182.552 -4.2344 -0.510009 0
M  V30 1971 S 183.385 -5.30761 0.710824 0
M  V30 1972 C 184.541 -6.24992 -0.33699 0
M  V30 1973 H 184.774 -2.90884 0.614322 0
M  V30 1974 H 182.307 -1.48166 0.434304 0
M  V30 1975 H 184.265 -3.71424 -1.74799 0
M  V30 1976 H 182.926 -2.54932 -1.8349 0
M  V30 1977 H 182.119 -4.86948 -1.29991 0
M  V30 1978 H 181.721 -3.73997 0.0154577 0
M  V30 1979 H 184.013 -6.66691 -1.20537 0
M  V30 1980 H 184.956 -7.07612 0.262879 0
M  V30 1981 H 185.364 -5.60517 -0.669425 0
M  V30 1982 N 184.763 -0.387143 -1.52771 0
M  V30 1983 C 185.988 0.198407 -2.06449 0
M  V30 1984 C 186.413 1.39918 -1.25716 0
M  V30 1985 O 185.771 1.79099 -0.281657 0
M  V30 1986 C 185.819 0.548893 -3.56398 0
M  V30 1987 O 184.923 1.64315 -3.78252 0
M  V30 1988 H 184.264 0.0237731 -0.663574 0
M  V30 1989 H 186.794 -0.553989 -1.96957 0
M  V30 1990 H 186.804 0.813812 -3.99801 0
M  V30 1991 H 185.479 -0.329005 -4.14597 0
M  V30 1992 H 184.056 1.37211 -3.46738 0
M  V30 1993 N 186.241 1.57166 -0.116904 0
M  V30 1994 C 187.487 1.96206 0.536166 0
M  V30 1995 C 187.842 0.99915 1.64422 0
M  V30 1996 O 187.135 0.0288195 1.91578 0
M  V30 1997 C 187.329 3.39508 1.11664 0
M  V30 1998 C 187.158 4.49651 0.0663474 0
M  V30 1999 C 185.928 5.03982 -0.36474 0
M  V30 2000 C 188.126 5.09322 -0.713829 0
M  V30 2001 N 186.108 5.97699 -1.40102 0
M  V30 2002 C 187.479 5.98963 -1.60136 0
M  V30 2003 C 189.534 4.91989 -0.764948 0
M  V30 2004 C 188.237 6.73128 -2.53556 0
M  V30 2005 C 190.263 5.66833 -1.68685 0
M  V30 2006 C 189.625 6.56158 -2.56196 0
M  V30 2007 H 185.724 0.764203 0.165886 0
M  V30 2008 H 188.308 1.93623 -0.204535 0
M  V30 2009 H 186.479 3.42743 1.82707 0
M  V30 2010 H 188.211 3.65677 1.73386 0
M  V30 2011 H 184.966 4.73592 0.027252 0
M  V30 2012 H 185.39 6.49262 -1.91802 0
M  V30 2013 H 190.032 4.22676 -0.102501 0
M  V30 2014 H 187.75 7.41689 -3.20816 0
M  V30 2015 H 191.336 5.55427 -1.73181 0
M  V30 2016 H 190.216 7.13057 -3.26372 0
M  V30 2017 N 187.719 -0.156864 1.56817 0
M  V30 2018 C 188.967 -0.869404 1.82444 0
M  V30 2019 C 189.288 -1.82147 0.69623 0
M  V30 2020 O 188.558 -1.93847 -0.28287 0
M  V30 2021 H 187.138 -0.324043 0.673056 0
M  V30 2022 H 189.8 -0.153224 1.94297 0
M  V30 2023 H 188.896 -1.43761 2.77019 0
M  V30 2024 N 189.197 -1.51736 -0.425897 0
M  V30 2025 C 190.443 -1.65214 -1.1761 0
M  V30 2026 C 190.776 -0.372778 -1.90589 0
M  V30 2027 O 190.051 0.628139 -1.84078 0
M  V30 2028 C 190.334 -2.86312 -2.18398 0
M  V30 2029 C 190.187 -4.24254 -1.49426 0
M  V30 2030 C 191.506 -3.02925 -3.19256 0
M  V30 2031 H 188.625 -0.601263 -0.426206 0
M  V30 2032 H 191.267 -1.8425 -0.463882 0
M  V30 2033 H 189.417 -2.70213 -2.79137 0
M  V30 2034 H 191.089 -4.52046 -0.919362 0
M  V30 2035 H 189.332 -4.26426 -0.796432 0
M  V30 2036 H 190.003 -5.05001 -2.22885 0
M  V30 2037 H 192.479 -3.1781 -2.68581 0
M  V30 2038 H 191.355 -3.89199 -3.8706 0
M  V30 2039 H 191.616 -2.15497 -3.86023 0
M  V30 2040 N 190.675 0.682077 -1.42076 0
M  V30 2041 C 191.9 1.47558 -1.45744 0
M  V30 2042 C 192.325 1.87977 -0.0680981 0
M  V30 2043 O 191.683 1.55522 0.9318 0
M  V30 2044 C 191.731 2.70575 -2.38373 0
M  V30 2045 O 190.835 3.68573 -1.85007 0
M  V30 2046 H 190.176 0.443585 -0.494093 0
M  V30 2047 H 192.706 0.837238 -1.86686 0
M  V30 2048 H 192.716 3.18729 -2.54707 0
M  V30 2049 H 191.391 2.40495 -3.39315 0
M  V30 2050 H 189.968 3.2757 -1.78192 0
M  V30 2051 N 192.153 1.28127 0.917671 0
M  V30 2052 C 193.43 1.05761 1.64542 0
M  V30 2053 C 193.81 -0.404344 2.07191 0
M  V30 2054 O 193.158 -1.38963 1.81388 0
M  V30 2055 C 193.368 2.02857 2.83989 0
M  V30 2056 C 194.716 2.32786 3.551 0
M  V30 2057 O 195.74 2.0091 2.94132 0
M  V30 2058 O 194.599 2.87169 4.64969 0
M  V30 2059 H 191.693 0.403916 0.721652 0
M  V30 2060 H 194.239 1.39431 0.967322 0
M  V30 2061 H 193.011 3.01407 2.49538 0
M  V30 2062 H 192.634 1.69809 3.59514 0
M  V30 2063 N 193.631 -1.12557 1.10312 0
M  V30 2064 C 194.579 -2.20325 0.745629 0
M  V30 2065 C 195.573 -1.67429 -0.25763 0
M  V30 2066 O 196.779 -1.79612 -0.118132 0
M  V30 2067 H 193.154 -0.718118 0.223182 0
M  V30 2068 H 195.125 -2.47733 1.66346 0
M  V30 2069 C 193.874 -3.47168 0.192262 0
M  V30 2070 H 193.197 -3.88215 0.955475 0
M  V30 2071 H 194.637 -4.23995 -0.0198274 0
M  V30 2072 C 193.096 -3.19298 -1.07472 0
M  V30 2073 O 193.626 -3.3891 -2.15645 0
M  V30 2074 N 191.832 -2.73113 -0.992847 0
M  V30 2075 H 191.379 -2.57354 -0.112474 0
M  V30 2076 H 191.337 -2.54842 -1.84127 0
M  V30 2077 N 195.109 -0.891671 -1.2995 0
M  V30 2078 C 196.355 -0.514261 -1.96171 0
M  V30 2079 C 196.688 0.935506 -1.70182 0
M  V30 2080 O 195.963 1.66204 -1.01028 0
M  V30 2081 C 196.246 -0.797719 -3.51153 0
M  V30 2082 C 196.099 -2.2986 -3.86632 0
M  V30 2083 C 197.418 -0.278749 -4.39216 0
M  V30 2084 H 194.537 -0.188314 -0.712535 0
M  V30 2085 H 197.179 -1.11689 -1.53706 0
M  V30 2086 H 195.329 -0.284826 -3.87455 0
M  V30 2087 H 197.001 -2.88042 -3.60319 0
M  V30 2088 H 195.244 -2.76257 -3.34462 0
M  V30 2089 H 195.915 -2.44753 -4.94773 0
M  V30 2090 H 198.391 -0.717825 -4.09862 0
M  V30 2091 H 197.267 -0.506353 -5.46559 0
M  V30 2092 H 197.528 0.820266 -4.34424 0
M  V30 2093 N 196.587 1.43421 -0.653314 0
M  V30 2094 C 197.836 2.01032 -0.164076 0
M  V30 2095 C 198.149 1.52147 1.22926 0
M  V30 2096 O 199.355 2.02031 1.81371 0
M  V30 2097 C 197.811 3.59082 -0.24252 0
M  V30 2098 C 197.419 4.1696 -1.63855 0
M  V30 2099 C 199.163 4.24079 0.18911 0
M  V30 2100 C 197.07 5.67304 -1.67092 0
M  V30 2101 H 196 0.751798 -0.0575769 0
M  V30 2102 H 198.651 1.6439 -0.815362 0
M  V30 2103 H 197.033 3.93125 0.476276 0
M  V30 2104 H 198.207 3.94416 -2.38271 0
M  V30 2105 H 196.522 3.64335 -2.01616 0
M  V30 2106 H 199.119 5.34381 0.184775 0
M  V30 2107 H 199.462 3.98005 1.22056 0
M  V30 2108 H 199.995 3.94918 -0.477938 0
M  V30 2109 H 196.734 5.98145 -2.68146 0
M  V30 2110 H 196.254 5.91904 -0.970014 0
M  V30 2111 H 197.933 6.31344 -1.4147 0
M  V30 2112 N 198.065 0.39524 1.52563 0
M  V30 2113 C 199.012 -0.437036 2.26624 0
M  V30 2114 C 199.982 -1.05281 1.28472 0
M  V30 2115 O 201.167 -1.07971 1.57311 0
M  V30 2116 C 198.307 -1.55524 3.08069 0
M  V30 2117 C 197.42 -0.961745 4.21158 0
M  V30 2118 C 196.555 -2.05149 4.89987 0
M  V30 2119 C 195.594 -1.4342 5.95061 0
M  V30 2120 N 194.731 -2.46351 6.57462 0
M  V30 2121 H 199.571 0.200976 2.97322 0
M  V30 2122 H 197.108 0.110944 1.46681 0
M  V30 2123 H 199.066 -2.21437 3.53584 0
M  V30 2124 H 197.696 -2.16348 2.3957 0
M  V30 2125 H 196.748 -0.192048 3.79915 0
M  V30 2126 H 198.06 -0.470701 4.96574 0
M  V30 2127 H 197.214 -2.78819 5.38837 0
M  V30 2128 H 195.953 -2.57615 4.14109 0
M  V30 2129 H 194.958 -0.682774 5.45544 0
M  V30 2130 H 196.183 -0.917416 6.72875 0
M  V30 2131 H 194.129 -2.97975 5.8442 0
M  V30 2132 H 194.046 -2.02019 7.28508 0
M  V30 2133 H 195.314 -3.19633 7.10954 0
M  V30 2134 N 199.544 -1.57102 0.125237 0
M  V30 2135 C 200.477 -2.11371 -0.860094 0
M  V30 2136 C 201.455 -1.03168 -1.25679 0
M  V30 2137 O 202.639 -1.30862 -1.35674 0
M  V30 2138 C 199.766 -2.61555 -2.1519 0
M  V30 2139 C 198.812 -3.81701 -1.9028 0
M  V30 2140 S 199.645 -5.23797 -1.11343 0
M  V30 2141 C 200.801 -5.77353 -2.41689 0
M  V30 2142 H 201.034 -2.94617 -0.39852 0
M  V30 2143 H 198.567 -1.54145 -0.0886555 0
M  V30 2144 H 200.525 -2.91122 -2.89411 0
M  V30 2145 H 199.186 -1.78479 -2.58465 0
M  V30 2146 H 198.379 -4.14985 -2.86014 0
M  V30 2147 H 197.981 -3.52783 -1.24178 0
M  V30 2148 H 200.273 -5.87458 -3.37489 0
M  V30 2149 H 201.216 -6.75323 -2.12942 0
M  V30 2150 H 201.624 -5.05457 -2.51342 0
M  V30 2151 N 201.022 0.148545 -1.56898 0
M  V30 2152 C 202.247 0.880385 -1.87787 0
M  V30 2153 C 202.672 1.74018 -0.714093 0
M  V30 2154 O 202.03 1.78153 0.336343 0
M  V30 2155 C 202.078 1.71422 -3.17249 0
M  V30 2156 O 201.182 2.8183 -3.01074 0
M  V30 2157 H 200.523 0.245301 -0.617028 0
M  V30 2158 H 203.053 0.139826 -2.04122 0
M  V30 2159 H 203.063 2.10954 -3.49231 0
M  V30 2160 H 201.738 1.08284 -4.01556 0
M  V30 2161 H 200.315 2.45715 -2.80497 0
M  V30 2162 N 202.5 1.5196 0.417844 0
M  V30 2163 C 203.432 1.70895 1.52733 0
M  V30 2164 C 204.445 0.589405 1.51756 0
M  V30 2165 O 205.634 0.864312 1.56179 0
M  V30 2166 C 202.734 1.72627 2.91639 0
M  V30 2167 C 201.907 3.01479 3.16905 0
M  V30 2168 C 200.966 2.95139 4.35637 0
M  V30 2169 O 199.992 3.69059 4.3334 0
M  V30 2170 N 201.194 2.12328 5.40275 0
M  V30 2171 H 203.959 2.66612 1.36888 0
M  V30 2172 H 201.52 1.50089 0.607037 0
M  V30 2173 H 203.512 1.65928 3.6912 0
M  V30 2174 H 202.082 0.844216 3.00985 0
M  V30 2175 H 201.302 3.21895 2.27546 0
M  V30 2176 H 202.59 3.86736 3.30625 0
M  V30 2177 H 201.988 1.51685 5.44985 0
M  V30 2178 H 200.545 2.11494 6.16534 0
M  V30 2179 N 203.978 -0.674533 1.42435 0
M  V30 2180 C 204.908 -1.80009 1.48724 0
M  V30 2181 C 205.889 -1.6659 0.343793 0
M  V30 2182 O 207.074 -1.86007 0.558137 0
M  V30 2183 C 204.204 -3.18306 1.38919 0
M  V30 2184 C 203.158 -3.46461 2.51294 0
M  V30 2185 C 202.484 -4.84335 2.26547 0
M  V30 2186 C 203.784 -3.43328 3.93603 0
M  V30 2187 H 205.478 -1.75004 2.42928 0
M  V30 2188 H 203.024 -0.840533 1.16923 0
M  V30 2189 H 204.977 -3.9678 1.41927 0
M  V30 2190 H 203.701 -3.2399 0.412094 0
M  V30 2191 H 202.36 -2.70348 2.47604 0
M  V30 2192 H 202.008 -4.86669 1.2713 0
M  V30 2193 H 201.708 -5.04136 3.01861 0
M  V30 2194 H 203.232 -5.65094 2.31304 0
M  V30 2195 H 204.646 -4.11772 3.98894 0
M  V30 2196 H 203.043 -3.74664 4.68771 0
M  V30 2197 H 204.113 -2.41897 4.20255 0
M  V30 2198 N 205.456 -1.28612 -0.910864 0
M  V30 2199 C 206.403 -1.12786 -2.01365 0
M  V30 2200 C 207.373 -0.024201 -1.66082 0
M  V30 2201 O 208.558 -0.189667 -1.89855 0
M  V30 2202 C 205.698 -0.798743 -3.35729 0
M  V30 2203 C 204.811 -1.98173 -3.83864 0
M  V30 2204 C 203.946 -1.59298 -5.06752 0
M  V30 2205 C 202.985 -2.74245 -5.47226 0
M  V30 2206 N 202.122 -2.35842 -6.61304 0
M  V30 2207 H 206.962 -2.07142 -2.14234 0
M  V30 2208 H 204.499 -1.03093 -1.0493 0
M  V30 2209 H 206.457 -0.588662 -4.13026 0
M  V30 2210 H 205.087 0.10789 -3.2262 0
M  V30 2211 H 204.139 -2.30386 -3.02699 0
M  V30 2212 H 205.451 -2.84343 -4.09818 0
M  V30 2213 H 204.605 -1.34513 -5.916 0
M  V30 2214 H 203.344 -0.702618 -4.82612 0
M  V30 2215 H 202.349 -2.99725 -4.60918 0
M  V30 2216 H 203.574 -3.63928 -5.73353 0
M  V30 2217 H 201.52 -1.49279 -6.38789 0
M  V30 2218 H 201.437 -3.15546 -6.86998 0
M  V30 2219 H 202.705 -2.14348 -7.4945 0
M  V30 2220 N 206.934 1.1197 -1.10907 0
M  V30 2221 C 208.211 1.79959 -0.766432 0
M  V30 2222 C 208.591 1.97466 0.746363 0
M  V30 2223 O 207.939 1.55491 1.67436 0
M  V30 2224 C 208.149 3.14009 -1.52314 0
M  V30 2225 C 209.497 3.89134 -1.69883 0
M  V30 2226 O 210.521 3.2368 -1.48692 0
M  V30 2227 O 209.38 5.06572 -2.05054 0
M  V30 2228 H 206.474 0.779208 -0.277062 0
M  V30 2229 H 209.02 1.18762 -1.21217 0
M  V30 2230 H 207.792 2.96587 -2.55249 0
M  V30 2231 H 207.415 3.82915 -1.07059 0
M  V30 2232 N 208.412 0.89855 1.29475 0
M  V30 2233 C 209.659 0.523882 1.95606 0
M  V30 2234 C 209.987 -0.929608 1.70847 0
M  V30 2235 O 209.242 -1.67401 1.01367 0
M  V30 2236 C 209.541 0.761398 3.49195 0
M  V30 2237 C 209.207 2.19207 3.94029 0
M  V30 2238 C 207.869 2.58326 4.05982 0
M  V30 2239 C 210.221 3.12379 4.17216 0
M  V30 2240 C 207.549 3.898 4.38489 0
M  V30 2241 C 209.901 4.43401 4.51197 0
M  V30 2242 C 208.565 4.82394 4.61359 0
M  V30 2243 H 207.835 0.191702 0.715773 0
M  V30 2244 H 210.482 1.13699 1.54094 0
M  V30 2245 H 208.787 0.0653622 3.91745 0
M  V30 2246 H 210.484 0.450904 3.98457 0
M  V30 2247 H 207.074 1.87846 3.85242 0
M  V30 2248 H 211.258 2.83371 4.07449 0
M  V30 2249 H 206.514 4.19734 4.44559 0
M  V30 2250 H 210.688 5.15623 4.68087 0
M  V30 2251 H 208.315 5.84306 4.86303 0
M  V30 2252 N 209.89 -1.43072 0.660911 0
M  V30 2253 C 210.838 -2.32569 -0.0378199 0
M  V30 2254 C 211.832 -1.49046 -0.805092 0
M  V30 2255 O 213.038 -1.65206 -0.714624 0
M  V30 2256 H 209.413 -0.75136 -0.031019 0
M  V30 2257 H 211.384 -2.89216 0.734609 0
M  V30 2258 C 210.133 -3.33453 -0.985124 0
M  V30 2259 H 209.456 -3.97752 -0.404147 0
M  V30 2260 H 210.896 -3.98691 -1.44297 0
M  V30 2261 C 209.355 -2.64642 -2.08486 0
M  V30 2262 O 209.885 -2.46776 -3.16961 0
M  V30 2263 N 208.091 -2.23891 -1.8526 0
M  V30 2264 H 207.638 -2.38621 -0.970449 0
M  V30 2265 H 207.596 -1.78181 -2.59034 0
M  V30 2266 N 211.368 -0.403325 -1.52352 0
M  V30 2267 C 212.615 0.174347 -2.01748 0
M  V30 2268 C 212.943 1.45636 -1.2892 0
M  V30 2269 O 212.198 1.9193 -0.382258 0
M  V30 2270 C 212.497 0.474665 -3.54234 0
M  V30 2271 C 212.163 -0.717458 -4.45155 0
M  V30 2272 C 210.825 -1.04447 -4.69728 0
M  V30 2273 C 213.177 -1.51432 -4.98716 0
M  V30 2274 C 210.505 -2.16963 -5.45109 0
M  V30 2275 C 212.857 -2.6302 -5.75329 0
M  V30 2276 C 211.521 -2.96213 -5.98175 0
M  V30 2277 H 210.791 0.0637981 -0.738248 0
M  V30 2278 H 213.438 -0.543553 -1.83624 0
M  V30 2279 H 211.743 1.27406 -3.70506 0
M  V30 2280 H 213.44 0.934496 -3.89959 0
M  V30 2281 H 210.03 -0.452596 -4.26204 0
M  V30 2282 H 214.214 -1.27491 -4.79645 0
M  V30 2283 H 209.47 -2.43034 -5.61021 0
M  V30 2284 H 213.644 -3.25158 -6.15829 0
M  V30 2285 H 211.271 -3.83516 -6.56368 0
M  V30 2286 N 212.846 1.57033 -0.133567 0
M  V30 2287 C 213.794 2.17348 0.828412 0
M  V30 2288 C 214.788 1.12671 1.26498 0
M  V30 2289 O 215.994 1.30947 1.23502 0
M  V30 2290 H 212.369 0.695775 0.285309 0
M  V30 2291 H 214.34 2.96935 0.295372 0
M  V30 2292 C 213.089 2.79893 2.06289 0
M  V30 2293 H 212.412 3.60147 1.73592 0
M  V30 2294 H 213.852 3.25615 2.71572 0
M  V30 2295 C 212.311 1.77713 2.86216 0
M  V30 2296 O 212.841 1.23937 3.82103 0
M  V30 2297 N 211.047 1.47321 2.50489 0
M  V30 2298 H 210.594 1.91243 1.7258 0
M  V30 2299 H 210.552 0.79199 3.04261 0
M  V30 2300 N 214.325 -0.140222 1.56975 0
M  V30 2301 C 215.272 -1.17292 1.98774 0
M  V30 2302 C 216.242 -1.4232 0.856408 0
M  V30 2303 O 217.427 -1.54541 1.119 0
M  V30 2304 C 214.567 -2.49973 2.37923 0
M  V30 2305 C 213.68 -2.32062 3.64378 0
M  V30 2306 C 212.815 -3.57825 3.926 0
M  V30 2307 C 211.854 -3.3498 5.12303 0
M  V30 2308 N 210.991 -4.52891 5.36502 0
M  V30 2309 H 215.831 -0.809472 2.86795 0
M  V30 2310 H 213.368 -0.388237 1.41884 0
M  V30 2311 H 215.326 -3.27346 2.58652 0
M  V30 2312 H 213.956 -2.84252 1.52972 0
M  V30 2313 H 213.008 -1.45711 3.51387 0
M  V30 2314 H 214.32 -2.11145 4.51906 0
M  V30 2315 H 213.474 -4.43624 4.13863 0
M  V30 2316 H 212.213 -3.81753 3.03506 0
M  V30 2317 H 211.218 -2.4757 4.90906 0
M  V30 2318 H 212.443 -3.12444 6.02956 0
M  V30 2319 H 210.389 -4.76979 4.50363 0
M  V30 2320 H 210.306 -4.35001 6.18312 0
M  V30 2321 H 211.574 -5.39884 5.62268 0
M  V30 2322 N 215.803 -1.52179 -0.40978 0
M  V30 2323 C 217.214 -1.58377 -0.988615 0
M  V30 2324 C 217.565 -0.423879 -1.91566 0
M  V30 2325 O 216.69 0.455844 -2.11544 0
M  V30 2326 C 217.285 -2.87044 -1.79976 0
M  V30 2327 C 215.844 -2.95722 -2.32863 0
M  V30 2328 C 214.991 -2.53309 -1.12828 0
M  V30 2329 H 217.942 -1.57558 -0.190039 0
M  V30 2330 H 217.963 -2.7236 -2.65707 0
M  V30 2331 H 217.475 -3.71444 -1.12478 0
M  V30 2332 H 215.576 -2.15814 -3.03735 0
M  V30 2333 H 215.689 -3.99951 -2.63773 0
M  V30 2334 H 214.053 -2.07142 -1.48204 0
M  V30 2335 H 214.836 -3.40082 -0.46897 0
M  V30 2336 N 217.281 0.66697 -1.42791 0
M  V30 2337 C 218.697 0.981027 -1.25889 0
M  V30 2338 C 218.897 2.00793 -0.168695 0
M  V30 2339 O 217.953 2.48321 0.45747 0
M  V30 2340 C 219.266 1.47838 -2.61848 0
M  V30 2341 C 220.814 1.59575 -2.69267 0
M  V30 2342 C 221.289 2.12704 -4.05612 0
M  V30 2343 N 222.78 2.20026 -4.07606 0
M  V30 2344 C 223.515 2.62227 -5.09926 0
M  V30 2345 N 223.011 3.03824 -6.22626 0
M  V30 2346 N 224.804 2.62045 -4.97281 0
M  V30 2347 H 216.955 -0.0127891 -2.12396 0
M  V30 2348 H 219.218 0.0568258 -0.946295 0
M  V30 2349 H 218.924 0.798299 -3.4252 0
M  V30 2350 H 218.798 2.45579 -2.86305 0
M  V30 2351 H 221.185 2.26687 -1.88936 0
M  V30 2352 H 221.266 0.60302 -2.48591 0
M  V30 2353 H 220.91 1.46198 -4.86404 0
M  V30 2354 H 220.84 3.12782 -4.23645 0
M  V30 2355 H 223.331 1.90708 -3.2625 0
M  V30 2356 H 223.644 3.34734 -6.96544 0
M  V30 2357 H 221.989 3.01662 -6.26119 0
M  V30 2358 H 225.18 2.28916 -4.08308 0
M  V30 2359 H 225.353 2.94613 -5.77154 0
M  V30 2360 N 218.759 1.29093 0.90403 0
M  V30 2361 C 220.006 1.16813 1.65411 0
M  V30 2362 C 220.334 -0.28128 1.92455 0
M  V30 2363 O 219.589 -1.22006 1.53013 0
M  V30 2364 C 219.888 1.92224 3.01305 0
M  V30 2365 C 219.554 3.41968 2.93885 0
M  V30 2366 C 218.216 3.82807 2.91569 0
M  V30 2367 C 220.568 4.37409 2.83413 0
M  V30 2368 C 217.896 5.1741 2.76594 0
M  V30 2369 C 220.248 5.72097 2.69977 0
M  V30 2370 C 218.912 6.12199 2.66024 0
M  V30 2371 H 218.182 0.42745 0.605283 0
M  V30 2372 H 220.829 1.59981 1.05254 0
M  V30 2373 H 219.134 1.41635 3.65304 0
M  V30 2374 H 220.831 1.80131 3.58265 0
M  V30 2375 H 217.421 3.09504 2.96488 0
M  V30 2376 H 221.605 4.06813 2.84283 0
M  V30 2377 H 216.861 5.47596 2.71935 0
M  V30 2378 H 221.035 6.45704 2.60844 0
M  V30 2379 H 218.662 7.16448 2.54178 0
M  V30 2380 N 220.237 -1.11381 1.11499 0
M  V30 2381 C 221.514 -1.7955 0.775965 0
M  V30 2382 C 221.894 -1.97859 -0.73588 0
M  V30 2383 O 221.242 -1.56376 -1.66609 0
M  V30 2384 C 221.452 -3.13196 1.53977 0
M  V30 2385 C 222.8 -3.88227 1.71944 0
M  V30 2386 O 223.824 -3.22887 1.50407 0
M  V30 2387 O 222.683 -5.05477 2.07738 0
M  V30 2388 H 219.777 -0.777728 0.28119 0
M  V30 2389 H 222.323 -1.18118 1.21845 0
M  V30 2390 H 221.095 -2.95229 2.56818 0
M  V30 2391 H 220.718 -3.82342 1.09088 0
M  V30 2392 N 221.715 -0.905404 -1.28997 0
M  V30 2393 C 222.962 -0.534248 -1.95325 0
M  V30 2394 C 223.29 0.920535 -1.71337 0
M  V30 2395 O 222.545 1.66861 -1.02254 0
M  V30 2396 C 222.844 -0.779906 -3.48787 0
M  V30 2397 C 222.51 -2.21293 -3.92861 0
M  V30 2398 C 221.172 -2.60475 -4.04606 0
M  V30 2399 C 223.524 -3.14587 -4.15553 0
M  V30 2400 C 220.852 -3.9212 -4.36416 0
M  V30 2401 C 223.204 -4.45787 -4.48839 0
M  V30 2402 C 221.868 -4.84834 -4.58794 0
M  V30 2403 H 221.138 -0.195495 -0.714747 0
M  V30 2404 H 223.785 -1.14514 -1.53488 0
M  V30 2405 H 222.09 -0.0861365 -3.91705 0
M  V30 2406 H 223.787 -0.472029 -3.98212 0
M  V30 2407 H 220.377 -1.89887 -3.84241 0
M  V30 2408 H 224.561 -2.85528 -4.0594 0
M  V30 2409 H 219.817 -4.22086 -4.42327 0
M  V30 2410 H 223.991 -5.18098 -4.65346 0
M  V30 2411 H 221.618 -5.86877 -4.83197 0
M  V30 2412 N 223.193 1.4272 -0.668489 0
M  V30 2413 C 224.423 2.05668 -0.196063 0
M  V30 2414 C 224.831 1.5028 1.14946 0
M  V30 2415 O 224.174 0.6348 1.72383 0
M  V30 2416 C 224.236 3.59469 -0.0468879 0
M  V30 2417 C 223.9 4.37518 -1.32012 0
M  V30 2418 C 224.897 4.68584 -2.25222 0
M  V30 2419 C 222.582 4.77266 -1.56596 0
M  V30 2420 C 224.576 5.38326 -3.41297 0
M  V30 2421 C 222.263 5.4675 -2.72962 0
M  V30 2422 C 223.261 5.77204 -3.65137 0
M  V30 2423 O 222.949 6.45264 -4.79468 0
M  V30 2424 H 222.681 0.669382 -0.0943599 0
M  V30 2425 H 225.235 1.83954 -0.913788 0
M  V30 2426 H 223.465 3.79817 0.726357 0
M  V30 2427 H 225.154 4.04071 0.384852 0
M  V30 2428 H 225.92 4.38382 -2.07477 0
M  V30 2429 H 221.799 4.52959 -0.857249 0
M  V30 2430 H 225.343 5.62014 -4.13263 0
M  V30 2431 H 221.24 5.76369 -2.90635 0
M  V30 2432 H 222.008 6.63753 -4.78931 0
M  V30 2433 N 224.671 0.411399 1.52136 0
M  V30 2434 C 225.581 -0.419774 2.30814 0
M  V30 2435 C 226.597 -1.0515 1.38634 0
M  V30 2436 O 227.773 -1.05252 1.71709 0
M  V30 2437 C 224.838 -1.52019 3.11594 0
M  V30 2438 C 223.899 -0.91129 4.19516 0
M  V30 2439 C 223.132 -1.95927 4.96436 0
M  V30 2440 O 223.355 -3.17775 4.73683 0
M  V30 2441 O 222.289 -1.56423 5.81219 0
M  V30 2442 H 226.115 0.221805 3.02889 0
M  V30 2443 H 223.7 0.174547 1.48377 0
M  V30 2444 H 225.582 -2.15898 3.61892 0
M  V30 2445 H 224.257 -2.14633 2.42311 0
M  V30 2446 H 223.164 -0.235157 3.7336 0
M  V30 2447 H 224.497 -0.32904 4.91099 0
M  V30 2448 N 226.149 -1.5696 0.141893 0
M  V30 2449 C 227.397 -1.95573 -0.509484 0
M  V30 2450 C 227.718 -1.02746 -1.65736 0
M  V30 2451 O 226.988 -0.0880311 -1.95702 0
M  V30 2452 H 225.568 -0.722115 -0.191205 0
M  V30 2453 H 228.23 -1.93697 0.216196 0
M  V30 2454 H 227.326 -2.99171 -0.889 0
M  V30 2455 N 227.627 0.131896 -1.57047 0
M  V30 2456 C 228.59 1.14638 -1.98471 0
M  V30 2457 C 229.59 1.35029 -0.873148 0
M  V30 2458 O 230.78 1.31764 -1.13946 0
M  V30 2459 C 227.912 2.50358 -2.31373 0
M  V30 2460 H 229.105 0.79064 -2.8929 0
M  V30 2461 H 226.658 0.375761 -1.51716 0
M  V30 2462 H 227.393 2.90876 -1.43393 0
M  V30 2463 H 227.178 2.36915 -3.12432 0
M  V30 2464 H 228.668 3.23395 -2.64207 0
M  V30 2465 N 229.106 1.52395 0.401703 0
M  V30 2466 C 230.352 1.67065 1.14966 0
M  V30 2467 C 230.685 0.403052 1.89971 0
M  V30 2468 O 229.96 -0.598774 1.85054 0
M  V30 2469 C 230.243 2.8975 2.13815 0
M  V30 2470 C 230.096 4.26578 1.42658 0
M  V30 2471 C 231.415 3.07965 3.14397 0
M  V30 2472 H 228.534 0.607968 0.416587 0
M  V30 2473 H 231.176 1.84965 0.434511 0
M  V30 2474 H 229.326 2.74619 2.74803 0
M  V30 2475 H 230.998 4.53451 0.847329 0
M  V30 2476 H 229.241 4.27639 0.72849 0
M  V30 2477 H 229.912 5.08483 2.14823 0
M  V30 2478 H 232.388 3.22043 2.63491 0
M  V30 2479 H 231.264 3.95308 3.80819 0
M  V30 2480 H 231.525 2.21611 3.82545 0
M  V30 2481 N 230.584 -0.659388 1.43143 0
M  V30 2482 C 231.814 -1.44513 1.47646 0
M  V30 2483 C 232.222 -1.88981 0.0910095 0
M  V30 2484 O 231.565 -1.59702 -0.907789 0
M  V30 2485 C 231.627 -2.71663 2.35456 0
M  V30 2486 C 231.291 -2.49175 3.83094 0
M  V30 2487 C 232.288 -2.1279 4.74359 0
M  V30 2488 C 229.973 -2.63691 4.27519 0
M  V30 2489 C 231.967 -1.9121 6.08044 0
M  V30 2490 C 229.654 -2.41726 5.61259 0
M  V30 2491 C 230.652 -2.0554 6.51339 0
M  V30 2492 O 230.34 -1.838 7.82606 0
M  V30 2493 H 230.072 -0.45064 0.503884 0
M  V30 2494 H 232.626 -0.816248 1.88485 0
M  V30 2495 H 230.856 -3.37089 1.89493 0
M  V30 2496 H 232.545 -3.33595 2.31235 0
M  V30 2497 H 233.311 -2.01157 4.41317 0
M  V30 2498 H 229.19 -2.90832 3.57684 0
M  V30 2499 H 232.734 -1.62889 6.78316 0
M  V30 2500 H 228.631 -2.52959 5.9387 0
M  V30 2501 H 229.399 -1.98275 7.94122 0
M  V30 2502 O 232.101 -1.40162 -0.802292 0
M  V30 2503 H 232.792 -1.28727 -1.44738 0
M  V30 END ATOM
M  V30 BEGIN BOND
M  V30 END BOND
M  V30 END CTAB
M  END
$$$$
