drugbank_target|Q8ILV2 60S ribosomal protein L10, putative (DB11638)
 OpenBabel12092121113D

  0  0  0     0  0            999 V3000
M  V30 BEGIN CTAB
M  V30 COUNTS 3590 3627 0 0 0
M  V30 BEGIN ATOM
M  V30 1 H -0.908 1.98254 -0.117106 0
M  V30 2 N 0 1.576 0 0
M  V30 3 C 0.933 2.03868 1.02534 0
M  V30 4 C 1.911 0.928543 1.3348 0
M  V30 5 O 3.095 1.19667 1.45644 0
M  V30 6 C 0.222 2.43627 2.35294 0
M  V30 7 C -0.732 3.65373 2.2001 0
M  V30 8 S 0.101 5.13292 1.52614 0
M  V30 9 C 1.257 5.56322 2.86805 0
M  V30 10 H 1.49 2.90518 0.631377 0
M  V30 11 H -0.977 1.52953 0.210867 0
M  V30 12 H 0.981 2.67203 3.11629 0
M  V30 13 H -0.358 1.57376 2.7183 0
M  V30 14 H -1.165 3.90944 3.18086 0
M  V30 15 H -1.563 3.418 1.51819 0
M  V30 16 H 0.729 5.58782 3.83104 0
M  V30 17 H 1.672 6.56266 2.65933 0
M  V30 18 H 2.08 4.83886 2.90714 0
M  V30 19 N 1.4781 -0.272755 1.55222 0
M  V30 20 C 2.7261 -1.00234 1.75492 0
M  V30 21 C 3.0471 -1.8681 0.5592 0
M  V30 22 O 2.3171 -1.91215 -0.425882 0
M  V30 23 H 0.8971 -0.373076 0.647166 0
M  V30 24 H 3.5591 -0.296926 1.92625 0
M  V30 25 H 2.6551 -1.63913 2.65592 0
M  V30 26 N 2.9562 -1.48159 -0.537278 0
M  V30 27 C 4.3722 -1.34118 -0.865129 0
M  V30 28 C 4.5722 -0.346678 -1.98495 0
M  V30 29 O 3.6282 0.234715 -2.51407 0
M  V30 30 C 4.9412 -2.73963 -1.23954 0
M  V30 31 C 6.4892 -2.82397 -1.34984 0
M  V30 32 C 6.9642 -4.22928 -1.75772 0
M  V30 33 N 8.4552 -4.25566 -1.82887 0
M  V30 34 C 9.1902 -5.31235 -2.15817 0
M  V30 35 N 8.6862 -6.47189 -2.47222 0
M  V30 36 N 10.4792 -5.18624 -2.16761 0
M  V30 37 H 2.6302 -2.1144 0.201715 0
M  V30 38 H 4.8932 -0.947598 0.0275949 0
M  V30 39 H 4.5992 -3.48264 -0.490381 0
M  V30 40 H 4.4732 -3.0702 -2.19132 0
M  V30 41 H 6.8602 -2.08356 -2.08978 0
M  V30 42 H 6.9412 -2.5297 -0.379448 0
M  V30 43 H 6.5852 -4.97482 -1.02341 0
M  V30 44 H 6.5152 -4.49794 -2.73848 0
M  V30 45 H 9.0062 -3.41924 -1.60924 0
M  V30 46 H 9.3192 -7.23564 -2.71433 0
M  V30 47 H 7.6642 -6.50476 -2.44757 0
M  V30 48 H 10.8552 -4.27056 -1.91679 0
M  V30 49 H 11.0282 -6.01078 -2.42093 0
M  V30 50 N 4.4343 0.785586 -1.36625 0
M  V30 51 C 5.8503 1.08419 -1.17122 0
M  V30 52 C 6.0503 2.015 0.00208491 0
M  V30 53 O 5.1063 2.43551 0.666278 0
M  V30 54 C 6.4193 1.69498 -2.48377 0
M  V30 55 C 7.9673 1.81821 -2.54775 0
M  V30 56 C 8.4423 2.46315 -3.86126 0
M  V30 57 N 9.9333 2.53779 -3.87492 0
M  V30 58 C 10.6683 3.045 -4.85868 0
M  V30 59 N 10.1643 3.55499 -5.94637 0
M  V30 60 N 11.9573 3.03247 -4.73284 0
M  V30 61 H 4.1083 0.167264 -2.1174 0
M  V30 62 H 6.3713 0.13682 -0.938075 0
M  V30 63 H 6.0773 1.08571 -3.34522 0
M  V30 64 H 5.9513 2.6896 -2.64462 0
M  V30 65 H 8.3383 2.41884 -1.69045 0
M  V30 66 H 8.4193 0.811532 -2.42586 0
M  V30 67 H 8.0633 1.86895 -4.72263 0
M  V30 68 H 7.9933 3.47561 -3.95612 0
M  V30 69 H 10.4843 2.17672 -3.08913 0
M  V30 70 H 10.7973 3.92562 -6.65669 0
M  V30 71 H 9.1423 3.5364 -5.98301 0
M  V30 72 H 12.3333 2.62696 -3.87438 0
M  V30 73 H 12.5063 3.42467 -5.50109 0
M  V30 74 N 5.9124 1.20967 1.01018 0
M  V30 75 C 7.3234 1.02319 1.56165 0
M  V30 76 C 7.6744 -0.418546 1.91684 0
M  V30 77 O 6.7994 -1.30096 1.72928 0
M  V30 78 C 7.3944 1.85109 2.8376 0
M  V30 79 C 5.9534 1.70809 3.35412 0
M  V30 80 C 5.1004 1.82643 2.08655 0
M  V30 81 H 8.0514 1.35065 0.833255 0
M  V30 82 H 8.0724 1.35827 3.55431 0
M  V30 83 H 7.5844 2.90035 2.57878 0
M  V30 84 H 5.6854 0.685464 3.66241 0
M  V30 85 H 5.7984 2.52467 4.07182 0
M  V30 86 H 4.1624 1.25896 2.21409 0
M  V30 87 H 4.9454 2.89066 1.85191 0
M  V30 88 N 7.3905 -1.2043 1.01659 0
M  V30 89 C 8.3535 -2.21433 0.591616 0
M  V30 90 C 9.3535 -1.57203 -0.338226 0
M  V30 91 O 10.5435 -1.73737 -0.126918 0
M  V30 92 C 7.6755 -3.40628 -0.136058 0
M  V30 93 H 8.8685 -2.60545 1.48514 0
M  V30 94 H 6.4215 -1.33893 0.806379 0
M  V30 95 H 7.1565 -3.07019 -1.04449 0
M  V30 96 H 6.9415 -3.88475 0.531917 0
M  V30 97 H 8.4315 -4.15475 -0.420735 0
M  V30 98 N 8.8686 -0.792821 -1.36206 0
M  V30 99 C 10.2846 -0.474903 -1.52371 0
M  V30 100 C 10.4846 1.00622 -1.74578 0
M  V30 101 O 9.5406 1.79162 -1.77924 0
M  V30 102 C 10.8536 -1.3083 -2.70747 0
M  V30 103 C 12.4016 -1.30234 -2.84619 0
M  V30 104 C 12.8766 -2.11956 -4.06004 0
M  V30 105 N 14.3676 -2.09419 -4.13156 0
M  V30 106 C 15.1026 -2.69419 -5.06163 0
M  V30 107 N 14.5986 -3.3829 -6.04592 0
M  V30 108 N 16.3916 -2.59134 -4.98804 0
M  V30 109 H 8.5426 -1.75222 -1.20046 0
M  V30 110 H 10.8056 -0.745024 -0.586211 0
M  V30 111 H 10.5116 -2.35881 -2.6087 0
M  V30 112 H 10.3856 -0.95196 -3.6499 0
M  V30 113 H 12.7726 -0.259748 -2.93955 0
M  V30 114 H 12.8536 -1.69847 -1.91274 0
M  V30 115 H 12.4976 -3.16248 -3.97429 0
M  V30 116 H 12.4276 -1.69711 -4.98503 0
M  V30 117 H 14.9186 -1.59297 -3.42685 0
M  V30 118 H 15.2316 -3.81394 -6.7213 0
M  V30 119 H 13.5766 -3.42393 -6.04807 0
M  V30 120 H 16.7676 -2.04927 -4.20859 0
M  V30 121 H 16.9406 -3.06185 -5.711 0
M  V30 122 N 10.3467 1.47872 -0.545128 0
M  V30 123 C 11.5867 2.04391 -0.0187854 0
M  V30 124 C 11.9507 1.41162 1.30144 0
M  V30 125 O 13.1517 1.88656 1.91474 0
M  V30 126 C 11.4227 3.57299 0.0850867 0
M  V30 127 S 12.9817 4.35221 0.559302 0
M  V30 128 H 9.7997 0.710737 -0.0193301 0
M  V30 129 H 12.4017 1.81395 -0.729125 0
M  V30 130 H 11.1057 4.00847 -0.880351 0
M  V30 131 H 10.6367 3.84773 0.819348 0
M  V30 132 H 12.6517 4.61571 1.82118 0
M  V30 133 N 11.8248 0.280983 1.55075 0
M  V30 134 C 13.0548 -0.336804 2.03836 0
M  V30 135 C 13.4628 -1.49577 1.15859 0
M  V30 136 O 12.8058 -1.82888 0.172503 0
M  V30 137 C 12.8678 -0.874616 3.48699 0
M  V30 138 C 12.5318 0.156478 4.56732 0
M  V30 139 C 13.5288 0.978032 5.10618 0
M  V30 140 C 11.2138 0.292409 5.01448 0
M  V30 141 C 13.2078 1.92165 6.07743 0
M  V30 142 C 10.8948 1.23949 5.98398 0
M  V30 143 C 11.8928 2.05261 6.51427 0
M  V30 144 O 11.5808 2.98367 7.4648 0
M  V30 145 H 11.3128 -0.0800885 0.671239 0
M  V30 146 H 13.8668 0.412589 2.01213 0
M  V30 147 H 12.0968 -1.67418 3.4858 0
M  V30 148 H 13.7858 -1.40612 3.80766 0
M  V30 149 H 14.5518 0.883782 4.7688 0
M  V30 150 H 10.4308 -0.330498 4.59814 0
M  V30 151 H 13.9748 2.55672 6.49059 0
M  V30 152 H 9.8718 1.33454 6.31554 0
M  V30 153 H 10.6398 2.93116 7.64215 0
M  V30 154 N 13.3029 -1.57598 0.00835791 0
M  V30 155 C 14.7189 -1.55764 -0.347822 0
M  V30 156 C 14.9189 -1.01186 -1.74252 0
M  V30 157 O 13.9749 -0.649371 -2.44007 0
M  V30 158 C 15.2879 -2.99927 -0.215407 0
M  V30 159 C 16.8359 -3.11656 -0.289725 0
M  V30 160 C 17.3109 -4.57621 -0.18634 0
M  V30 161 N 18.8019 -4.62557 -0.243978 0
M  V30 162 C 19.5369 -5.73094 -0.18745 0
M  V30 163 N 19.0329 -6.92753 -0.0810331 0
M  V30 164 N 20.8259 -5.61588 -0.239925 0
M  V30 165 H 12.9769 -1.91411 0.92062 0
M  V30 166 H 15.2399 -0.879562 0.353659 0
M  V30 167 H 14.9459 -3.43729 0.744512 0
M  V30 168 H 14.8199 -3.63865 -0.994097 0
M  V30 169 H 17.2069 -2.67779 -1.24009 0
M  V30 170 H 17.2879 -2.5048 0.51898 0
M  V30 171 H 16.9319 -5.02174 0.760519 0
M  V30 172 H 16.8619 -5.16752 -1.01364 0
M  V30 173 H 19.3529 -3.76481 -0.327217 0
M  V30 174 H 19.6659 -7.72787 -0.0440241 0
M  V30 175 H 18.0109 -6.94984 -0.0465419 0
M  V30 176 H 21.2019 -4.66996 -0.321317 0
M  V30 177 H 21.3749 -6.47714 -0.192407 0
M  V30 178 N 14.781 0.264519 -1.55364 0
M  V30 179 C 16.011 1.01153 -1.80143 0
M  V30 180 C 16.419 1.80115 -0.579253 0
M  V30 181 O 15.762 1.77813 0.46132 0
M  V30 182 C 15.824 2.01098 -2.97993 0
M  V30 183 C 15.488 1.40995 -4.34706 0
M  V30 184 C 16.485 0.821316 -5.13372 0
M  V30 185 C 14.17 1.43461 -4.81378 0
M  V30 186 C 16.164 0.265339 -6.36847 0
M  V30 187 C 13.851 0.874771 -6.04807 0
M  V30 188 C 14.849 0.291146 -6.82379 0
M  V30 189 O 14.537 -0.260093 -8.03479 0
M  V30 190 H 14.269 0.304125 -0.603725 0
M  V30 191 H 16.823 0.298089 -2.03225 0
M  V30 192 H 15.053 2.76224 -2.70623 0
M  V30 193 H 16.742 2.61997 -3.1002 0
M  V30 194 H 17.508 0.794903 -4.78442 0
M  V30 195 H 13.387 1.87826 -4.21002 0
M  V30 196 H 16.931 -0.190837 -6.97339 0
M  V30 197 H 12.828 0.898452 -6.39217 0
M  V30 198 H 13.596 -0.150265 -8.18362 0
M  V30 199 N 16.2591 1.48442 0.529413 0
M  V30 200 C 17.4991 1.58086 1.29569 0
M  V30 201 C 17.8631 0.249302 1.90375 0
M  V30 202 O 19.0641 0.220738 2.67892 0
M  V30 203 C 17.3351 2.68793 2.35552 0
M  V30 204 S 18.8941 2.98207 3.21898 0
M  V30 205 H 15.7121 0.557922 0.440732 0
M  V30 206 H 18.3141 1.85966 0.603059 0
M  V30 207 H 17.0181 3.64102 1.89363 0
M  V30 208 H 16.5491 2.42817 3.09522 0
M  V30 209 H 18.5641 2.37548 4.35644 0
M  V30 210 N 17.7372 -0.778329 1.37039 0
M  V30 211 C 18.6842 -1.89139 1.32269 0
M  V30 212 C 19.6542 -1.65017 0.189387 0
M  V30 213 O 20.8392 -1.87024 0.377693 0
M  V30 214 C 17.9792 -3.26112 1.12894 0
M  V30 215 C 17.0922 -3.62233 2.35396 0
M  V30 216 C 16.2272 -4.8838 2.08946 0
M  V30 217 C 15.2662 -5.17212 3.2735 0
M  V30 218 N 14.4032 -6.34546 3.00492 0
M  V30 219 H 19.2432 -1.92552 2.27437 0
M  V30 220 H 16.7802 -0.941473 1.13025 0
M  V30 221 H 18.7382 -4.05116 0.996835 0
M  V30 222 H 17.3682 -3.22091 0.213758 0
M  V30 223 H 16.4202 -2.78265 2.5937 0
M  V30 224 H 17.7322 -3.79481 3.23721 0
M  V30 225 H 16.8862 -5.75274 1.92729 0
M  V30 226 H 15.6252 -4.73222 1.17949 0
M  V30 227 H 14.6302 -4.28796 3.44113 0
M  V30 228 H 15.8552 -5.34283 4.19188 0
M  V30 229 H 13.8012 -6.20759 2.12118 0
M  V30 230 H 13.7182 -6.52179 3.82358 0
M  V30 231 H 14.9862 -7.24394 2.87879 0
M  V30 232 N 19.2153 -1.21501 -1.00376 0
M  V30 233 C 20.1633 -0.972442 -2.11297 0
M  V30 234 C 21.1573 0.080731 -1.69208 0
M  V30 235 O 22.3633 -0.0707666 -1.79861 0
M  V30 236 H 18.7383 -0.297218 -0.690772 0
M  V30 237 H 20.7093 -1.91394 -2.28934 0
M  V30 238 C 19.4583 -0.555065 -3.43241 0
M  V30 239 H 18.7813 -1.35709 -3.76062 0
M  V30 240 H 20.2213 -0.424664 -4.21868 0
M  V30 241 C 18.6803 0.734147 -3.28804 0
M  V30 242 O 19.2103 1.78937 -3.59645 0
M  V30 243 N 17.4163 0.701133 -2.82015 0
M  V30 244 H 16.9633 -0.157874 -2.57116 0
M  V30 245 H 16.9213 1.56403 -2.72737 0
M  V30 246 N 20.6934 1.19889 -1.02296 0
M  V30 247 C 21.6404 2.22901 -0.598651 0
M  V30 248 C 22.6104 1.61588 0.384521 0
M  V30 249 O 23.7954 1.88697 0.282522 0
M  V30 250 C 20.9354 3.45063 0.0504476 0
M  V30 251 C 20.0484 4.20783 -0.978053 0
M  V30 252 C 19.1834 5.30356 -0.299338 0
M  V30 253 C 18.2224 5.97826 -1.31416 0
M  V30 254 N 17.3594 6.98975 -0.661667 0
M  V30 255 H 22.1994 2.58554 -1.48169 0
M  V30 256 H 19.7364 1.27039 -0.741584 0
M  V30 257 H 21.6944 4.14831 0.443971 0
M  V30 258 H 20.3244 3.10084 0.897097 0
M  V30 259 H 19.3764 3.50018 -1.48969 0
M  V30 260 H 20.6884 4.67109 -1.74958 0
M  V30 261 H 19.8424 6.06516 0.149347 0
M  V30 262 H 18.5814 4.85084 0.504445 0
M  V30 263 H 17.5864 5.20422 -1.77317 0
M  V30 264 H 18.8114 6.45183 -2.11933 0
M  V30 265 H 16.7574 6.55886 0.122132 0
M  V30 266 H 16.6744 7.43461 -1.37117 0
M  V30 267 H 17.9424 7.7914 -0.236785 0
M  V30 268 N 22.1715 0.800033 1.35784 0
M  V30 269 C 23.5825 0.439142 1.81462 0
M  V30 270 C 23.9335 -1.03813 1.66485 0
M  V30 271 O 23.0585 -1.80626 1.19177 0
M  V30 272 C 23.6535 0.790314 3.29453 0
M  V30 273 C 22.2125 0.482111 3.733 0
M  V30 274 C 21.3595 1.01938 2.57883 0
M  V30 275 H 24.3105 0.992254 1.23855 0
M  V30 276 H 24.3315 0.0853677 3.80404 0
M  V30 277 H 23.8435 1.86554 3.40322 0
M  V30 278 H 21.9445 -0.584652 3.67984 0
M  V30 279 H 22.0575 1.01015 4.6833 0
M  V30 280 H 20.4215 0.442043 2.50835 0
M  V30 281 H 21.2045 2.10059 2.71533 0
M  V30 282 N 23.6496 -1.47581 0.552962 0
M  V30 283 C 24.8796 -2.06575 0.0320091 0
M  V30 284 C 25.2876 -1.4067 -1.26525 0
M  V30 285 O 24.6306 -0.495808 -1.76883 0
M  V30 286 C 24.6926 -3.58705 -0.238913 0
M  V30 287 C 24.3566 -4.46625 0.968272 0
M  V30 288 C 25.3536 -4.85 1.87274 0
M  V30 289 C 23.0386 -4.88201 1.18175 0
M  V30 290 C 25.0326 -5.63745 2.9744 0
M  V30 291 C 22.7196 -5.66712 2.28651 0
M  V30 292 C 23.7176 -6.04394 3.18114 0
M  V30 293 O 23.4056 -6.81324 4.26676 0
M  V30 294 H 23.1376 -0.674763 0.0408689 0
M  V30 295 H 25.6916 -1.90634 0.764719 0
M  V30 296 H 23.9216 -3.72844 -1.02588 0
M  V30 297 H 25.6106 -3.99735 -0.704731 0
M  V30 298 H 26.3766 -4.53482 1.71984 0
M  V30 299 H 22.2556 -4.58339 0.494593 0
M  V30 300 H 25.7996 -5.93077 3.67296 0
M  V30 301 H 21.6966 -5.97642 2.43915 0
M  V30 302 H 22.4646 -6.99712 4.24671 0
M  V30 303 N 25.1277 -0.289203 -1.54924 0
M  V30 304 C 26.5387 0.205791 -1.85562 0
M  V30 305 C 26.8897 1.54351 -1.2112 0
M  V30 306 O 26.0147 2.10435 -0.504601 0
M  V30 307 C 26.6097 0.380177 -3.3666 0
M  V30 308 C 25.1687 0.819395 -3.67373 0
M  V30 309 C 24.3157 -0.079159 -2.77187 0
M  V30 310 H 27.2667 -0.510577 -1.50262 0
M  V30 311 H 27.2877 1.21659 -3.60526 0
M  V30 312 H 26.7997 -0.593589 -3.83534 0
M  V30 313 H 24.9007 1.80413 -3.26009 0
M  V30 314 H 25.0137 0.646957 -4.74712 0
M  V30 315 H 23.3777 0.439565 -2.50878 0
M  V30 316 H 24.1607 -1.04906 -3.26878 0
M  V30 317 N 26.6058 1.57591 -0.0167156 0
M  V30 318 C 27.5528 2.09462 0.969251 0
M  V30 319 C 28.5228 0.99381 1.33089 0
M  V30 320 O 29.7078 1.26726 1.42636 0
M  V30 321 C 26.8478 2.61622 2.25051 0
M  V30 322 C 25.9608 3.85666 1.94642 0
M  V30 323 C 25.0958 4.26266 3.16972 0
M  V30 324 C 24.1348 5.43101 2.82326 0
M  V30 325 N 23.2718 5.78915 3.97243 0
M  V30 326 H 28.1118 2.93428 0.519997 0
M  V30 327 H 25.6488 1.45044 0.245087 0
M  V30 328 H 27.6068 2.89949 2.99976 0
M  V30 329 H 26.2368 1.80505 2.67615 0
M  V30 330 H 25.2888 3.64145 1.10013 0
M  V30 331 H 26.6008 4.70678 1.65117 0
M  V30 332 H 25.7548 4.55963 4.00228 0
M  V30 333 H 24.4938 3.39996 3.49648 0
M  V30 334 H 23.4988 5.1311 1.97479 0
M  V30 335 H 24.7238 6.3106 2.50879 0
M  V30 336 H 22.6698 4.95602 4.29785 0
M  V30 337 H 22.5868 6.58539 3.71299 0
M  V30 338 H 23.8548 6.13212 4.81239 0
M  V30 339 N 28.0839 -0.256276 1.55502 0
M  V30 340 C 29.3089 -1.00766 1.81276 0
M  V30 341 C 29.7339 -1.78524 0.59252 0
M  V30 342 O 29.0919 -1.75413 -0.45827 0
M  V30 343 C 29.1399 -1.92869 3.04687 0
M  V30 344 O 28.2439 -3.019 2.80945 0
M  V30 345 H 27.5849 -0.287224 0.598664 0
M  V30 346 H 30.1149 -0.280109 2.02674 0
M  V30 347 H 30.1249 -2.34511 3.33869 0
M  V30 348 H 28.7999 -1.35689 3.93143 0
M  V30 349 H 27.3769 -2.64454 2.62904 0
M  V30 350 N 29.562 -1.4872 -0.521534 0
M  V30 351 C 30.978 -1.35028 -0.850855 0
M  V30 352 C 31.178 -0.367712 -1.98116 0
M  V30 353 O 30.234 0.208037 -2.51642 0
M  V30 354 C 31.547 -2.75263 -1.21041 0
M  V30 355 C 33.095 -2.83813 -1.31981 0
M  V30 356 C 33.57 -4.24769 -1.71276 0
M  V30 357 N 35.061 -4.27482 -1.78363 0
M  V30 358 C 35.796 -5.33494 -2.1017 0
M  V30 359 N 35.292 -6.49775 -2.40343 0
M  V30 360 N 37.085 -5.20894 -2.11248 0
M  V30 361 H 29.236 -2.11214 0.22413 0
M  V30 362 H 31.499 -0.947252 0.0376439 0
M  V30 363 H 31.205 -3.48765 -0.453415 0
M  V30 364 H 31.079 -3.09327 -2.15863 0
M  V30 365 H 33.466 -2.10561 -2.06756 0
M  V30 366 H 33.547 -2.53358 -0.352596 0
M  V30 367 H 33.191 -4.9854 -0.970588 0
M  V30 368 H 33.121 -4.52673 -2.69062 0
M  V30 369 H 35.612 -3.43611 -1.57288 0
M  V30 370 H 35.925 -7.26402 -2.63743 0
M  V30 371 H 34.27 -6.53035 -2.37844 0
M  V30 372 H 37.461 -4.29065 -1.87139 0
M  V30 373 H 37.634 -6.03612 -2.35704 0
M  V30 374 N 31.0401 0.771051 -1.3745 0
M  V30 375 C 32.2701 1.55789 -1.35696 0
M  V30 376 C 32.6781 1.89107 0.0594523 0
M  V30 377 O 32.0211 1.51984 1.03183 0
M  V30 378 C 32.0831 2.89515 -2.13123 0
M  V30 379 C 31.7471 2.78829 -3.62082 0
M  V30 380 C 32.7441 2.49812 -4.5595 0
M  V30 381 C 30.4291 2.9683 -4.05213 0
M  V30 382 C 32.4231 2.38923 -5.90927 0
M  V30 383 C 30.1101 2.85562 -5.40276 0
M  V30 384 C 31.1081 2.56649 -6.32946 0
M  V30 385 O 30.7961 2.45408 -7.65526 0
M  V30 386 H 30.5281 0.489257 -0.466481 0
M  V30 387 H 33.0821 0.963446 -1.81403 0
M  V30 388 H 31.3121 3.51081 -1.62107 0
M  V30 389 H 33.0011 3.50915 -2.03994 0
M  V30 390 H 33.7671 2.3559 -4.23937 0
M  V30 391 H 29.6461 3.18335 -3.33442 0
M  V30 392 H 33.1901 2.16277 -6.63227 0
M  V30 393 H 29.0871 2.99351 -5.71891 0
M  V30 394 H 29.8551 2.60753 -7.75855 0
M  V30 395 N 32.5182 1.22032 0.997298 0
M  V30 396 C 33.7582 1.05375 1.75144 0
M  V30 397 C 34.1222 -0.404696 1.87686 0
M  V30 398 O 35.3232 -0.691998 2.5974 0
M  V30 399 C 33.5942 1.74046 3.12158 0
M  V30 400 S 35.1532 1.72745 4.03366 0
M  V30 401 H 31.9712 0.377449 0.602539 0
M  V30 402 H 34.5732 1.54902 1.19272 0
M  V30 403 H 33.2772 2.79332 3.00669 0
M  V30 404 H 32.8082 1.24731 3.73103 0
M  V30 405 H 34.8232 0.774015 4.90126 0
M  V30 406 N 33.9963 -1.19345 1.0293 0
M  V30 407 C 35.4123 -1.41069 0.746446 0
M  V30 408 C 35.6123 -1.90078 -0.668776 0
M  V30 409 O 34.6683 -2.0778 -1.4347 0
M  V30 410 C 35.9813 -2.42141 1.78292 0
M  V30 411 C 37.5293 -2.55887 1.80252 0
M  V30 412 C 38.0043 -3.60214 2.8286 0
M  V30 413 N 39.4953 -3.67711 2.81679 0
M  V30 414 C 40.2303 -4.48128 3.57727 0
M  V30 415 N 39.7263 -5.32248 4.43491 0
M  V30 416 N 41.5193 -4.42782 3.46267 0
M  V30 417 H 33.6703 -0.858536 1.94275 0
M  V30 418 H 35.9333 -0.439541 0.839945 0
M  V30 419 H 35.6393 -2.13155 2.79746 0
M  V30 420 H 35.5133 -3.41323 1.60557 0
M  V30 421 H 37.9003 -2.84196 0.794757 0
M  V30 422 H 37.9813 -1.56858 2.02062 0
M  V30 423 H 37.6253 -3.32647 3.83807 0
M  V30 424 H 37.5553 -4.58895 2.58307 0
M  V30 425 H 40.0463 -3.07634 2.19476 0
M  V30 426 H 40.3593 -5.90729 4.98256 0
M  V30 427 H 38.7043 -5.31707 4.47564 0
M  V30 428 H 41.8953 -3.76107 2.78677 0
M  V30 429 H 42.0683 -5.05215 4.05785 0
M  V30 430 N 35.4744 -0.807222 -1.35358 0
M  V30 431 C 36.7224 -0.387122 -1.98358 0
M  V30 432 C 37.0434 1.04942 -1.64354 0
M  V30 433 O 36.3134 1.72615 -0.926339 0
M  V30 434 H 34.8934 -0.140154 -0.733734 0
M  V30 435 H 37.5554 -1.0332 -1.6526 0
M  V30 436 H 36.6514 -0.493352 -3.08176 0
M  V30 437 N 36.9525 1.47285 -0.560781 0
M  V30 438 C 38.1985 2.02764 -0.0381184 0
M  V30 439 C 38.5315 1.43384 1.30976 0
M  V30 440 O 37.8065 0.590733 1.85312 0
M  V30 441 C 38.0895 3.60064 0.0511427 0
M  V30 442 C 37.9425 4.2987 -1.32408 0
M  V30 443 C 39.2615 4.33439 0.762795 0
M  V30 444 H 36.3805 0.736841 -0.0153264 0
M  V30 445 H 39.0225 1.75675 -0.723759 0
M  V30 446 H 37.1725 3.83274 0.635065 0
M  V30 447 H 38.8445 4.17989 -1.95148 0
M  V30 448 H 37.0875 3.90085 -1.8978 0
M  V30 449 H 37.7585 5.38478 -1.21431 0
M  V30 450 H 40.2345 4.15243 0.266965 0
M  V30 451 H 39.1105 5.43124 0.794221 0
M  V30 452 H 39.3715 4.02915 1.81966 0
M  V30 453 N 38.4306 0.297415 1.54768 0
M  V30 454 C 39.8416 -0.195947 1.85669 0
M  V30 455 C 40.1926 -1.53707 1.21937 0
M  V30 456 O 39.3176 -2.10164 0.515754 0
M  V30 457 C 39.9126 -0.362318 3.36857 0
M  V30 458 C 38.4716 -0.799901 3.67802 0
M  V30 459 C 37.6186 0.0938578 2.77141 0
M  V30 460 H 40.5696 0.518538 1.4999 0
M  V30 461 H 40.5906 -1.19745 3.61167 0
M  V30 462 H 40.1026 0.613921 3.83214 0
M  V30 463 H 38.2036 -1.78682 3.26961 0
M  V30 464 H 38.3166 -0.621773 4.75048 0
M  V30 465 H 36.6806 -0.426254 2.51108 0
M  V30 466 H 37.4636 1.06639 3.26318 0
M  V30 467 N 39.9087 -1.5758 0.0250728 0
M  V30 468 C 41.1857 -1.82917 -0.692873 0
M  V30 469 C 41.5657 -0.908137 -1.90568 0
M  V30 470 O 40.9137 0.0372298 -2.2847 0
M  V30 471 C 41.1237 -3.32034 -1.07492 0
M  V30 472 C 42.4717 -3.98406 -1.46826 0
M  V30 473 O 43.4957 -3.36505 -1.16801 0
M  V30 474 O 42.3547 -5.07497 -2.02754 0
M  V30 475 H 39.4487 -0.754079 -0.33955 0
M  V30 476 H 41.9947 -1.69619 0.0524456 0
M  V30 477 H 40.7667 -3.90728 -0.211552 0
M  V30 478 H 40.3897 -3.50424 -1.87854 0
M  V30 479 N 41.3868 0.248026 -1.55636 0
M  V30 480 C 42.7978 0.817177 -1.67866 0
M  V30 481 C 43.1488 1.86069 -0.622322 0
M  V30 482 O 42.2738 2.15157 0.231618 0
M  V30 483 C 42.8688 1.489 -3.04326 0
M  V30 484 C 41.4278 2.00587 -3.185 0
M  V30 485 C 40.5748 0.856573 -2.63739 0
M  V30 486 H 43.5258 0.0238579 -1.58682 0
M  V30 487 H 43.5468 2.35698 -2.98708 0
M  V30 488 H 43.0588 0.729279 -3.81186 0
M  V30 489 H 41.1598 2.79443 -2.4646 0
M  V30 490 H 41.2728 2.20402 -4.25393 0
M  V30 491 H 39.6368 1.25678 -2.21534 0
M  V30 492 H 40.4198 0.109953 -3.43124 0
M  V30 493 N 42.8649 1.48995 0.513639 0
M  V30 494 C 43.8119 1.6473 1.61656 0
M  V30 495 C 44.7819 0.488984 1.58739 0
M  V30 496 O 45.9669 0.714478 1.76918 0
M  V30 497 C 43.1069 1.7082 2.99858 0
M  V30 498 C 42.2199 2.9787 3.12885 0
M  V30 499 C 41.3549 2.95017 4.41744 0
M  V30 500 C 40.3939 4.16702 4.48359 0
M  V30 501 N 39.5309 4.11832 5.68629 0
M  V30 502 H 44.3709 2.58909 1.47547 0
M  V30 503 H 41.9079 1.28382 0.71808 0
M  V30 504 H 43.8659 1.72331 3.79944 0
M  V30 505 H 42.4959 0.801181 3.12699 0
M  V30 506 H 41.5479 3.06029 2.25944 0
M  V30 507 H 42.8599 3.8786 3.13633 0
M  V30 508 H 42.0139 2.95021 5.30139 0
M  V30 509 H 40.7529 2.02784 4.43542 0
M  V30 510 H 39.7579 4.16955 3.58369 0
M  V30 511 H 40.9829 5.10113 4.48287 0
M  V30 512 H 38.9289 3.22428 5.71293 0
M  V30 513 H 38.8459 4.95543 5.7094 0
M  V30 514 H 40.1139 4.1592 6.59266 0
M  V30 515 N 44.343 -0.763751 1.37857 0
M  V30 516 C 45.592 -1.51789 1.32827 0
M  V30 517 C 45.905 -1.95426 -0.0823719 0
M  V30 518 O 47.111 -2.70298 -0.255172 0
M  V30 519 C 45.567 -2.74133 2.33193 0
M  V30 520 C 45.175 -2.37562 3.79827 0
M  V30 521 C 46.919 -3.52054 2.37188 0
M  V30 522 C 44.826 -3.56456 4.71904 0
M  V30 523 H 43.756 -0.569896 0.493695 0
M  V30 524 H 46.407 -0.835822 1.63359 0
M  V30 525 H 44.789 -3.4427 1.9569 0
M  V30 526 H 45.963 -1.75157 4.26212 0
M  V30 527 H 44.278 -1.72798 3.78853 0
M  V30 528 H 46.875 -4.40437 3.03182 0
M  V30 529 H 47.218 -3.92486 1.38782 0
M  V30 530 H 47.751 -2.88921 2.7344 0
M  V30 531 H 44.49 -3.21099 5.71468 0
M  V30 532 H 44.01 -4.17938 4.30218 0
M  V30 533 H 45.689 -4.23168 4.89426 0
M  V30 534 N 45.8211 -1.22559 -0.990812 0
M  V30 535 C 47.2371 -0.985996 -1.255 0
M  V30 536 C 47.4371 0.319173 -1.98956 0
M  V30 537 O 46.4931 1.04127 -2.3003 0
M  V30 538 C 47.8061 -2.18607 -2.06474 0
M  V30 539 C 49.3541 -2.22985 -2.19651 0
M  V30 540 C 49.8291 -3.4255 -3.04012 0
M  V30 541 N 51.3201 -3.42725 -3.11599 0
M  V30 542 C 52.0551 -4.31892 -3.7717 0
M  V30 543 N 51.5511 -5.31279 -4.44651 0
M  V30 544 N 53.3441 -4.19662 -3.73952 0
M  V30 545 H 45.4951 -2.06469 -0.49841 0
M  V30 546 H 47.7581 -0.904853 -0.282747 0
M  V30 547 H 47.4641 -3.13267 -1.59865 0
M  V30 548 H 47.3381 -2.18838 -3.07229 0
M  V30 549 H 49.7251 -1.28871 -2.65474 0
M  V30 550 H 49.8061 -2.26791 -1.18319 0
M  V30 551 H 49.4501 -4.36965 -2.58889 0
M  V30 552 H 49.3801 -3.35984 -4.0549 0
M  V30 553 H 51.8711 -2.70807 -2.63575 0
M  V30 554 H 52.1841 -5.95593 -4.92431 0
M  V30 555 H 50.5291 -5.3519 -4.43392 0
M  V30 556 H 53.7201 -3.41268 -3.20396 0
M  V30 557 H 53.8931 -4.89358 -4.24774 0
M  V30 558 N 47.2992 1.18797 -1.03562 0
M  V30 559 C 48.5482 1.87978 -0.731235 0
M  V30 560 C 48.8612 1.80911 0.743671 0
M  V30 561 O 50.0672 2.45407 1.16137 0
M  V30 562 C 48.5232 3.3721 -1.25768 0
M  V30 563 C 48.1312 3.52818 -2.76085 0
M  V30 564 C 49.8752 4.11825 -1.0296 0
M  V30 565 C 47.7822 4.9598 -3.22114 0
M  V30 566 H 46.7122 0.704063 -0.269835 0
M  V30 567 H 49.3632 1.34266 -1.25079 0
M  V30 568 H 47.7452 3.90359 -0.666011 0
M  V30 569 H 48.9192 3.09965 -3.40966 0
M  V30 570 H 47.2342 2.91602 -2.97249 0
M  V30 571 H 49.8312 5.17411 -1.34869 0
M  V30 572 H 50.1742 4.16287 0.0333546 0
M  V30 573 H 50.7072 3.64833 -1.58562 0
M  V30 574 H 47.4462 4.96684 -4.27768 0
M  V30 575 H 46.9662 5.39569 -2.61965 0
M  V30 576 H 48.6452 5.6467 -3.15844 0
M  V30 577 N 48.7773 0.814389 1.34928 0
M  V30 578 C 50.0073 0.41054 2.0248 0
M  V30 579 C 50.4153 -0.985625 1.61499 0
M  V30 580 O 49.7583 -1.64781 0.811976 0
M  V30 581 C 49.8203 0.423384 3.56998 0
M  V30 582 C 49.4843 1.77141 4.21272 0
M  V30 583 C 50.4813 2.73093 4.42398 0
M  V30 584 C 48.1663 2.05755 4.58225 0
M  V30 585 C 50.1603 3.95838 4.9959 0
M  V30 586 C 47.8473 3.28762 5.1513 0
M  V30 587 C 48.8453 4.23621 5.35755 0
M  V30 588 O 48.5333 5.44456 5.91458 0
M  V30 589 H 48.2653 0.163997 0.655806 0
M  V30 590 H 50.8193 1.10155 1.73364 0
M  V30 591 H 49.0493 -0.324276 3.85338 0
M  V30 592 H 50.7383 0.0407683 4.0588 0
M  V30 593 H 51.5043 2.5228 4.14222 0
M  V30 594 H 47.3833 1.32727 4.4148 0
M  V30 595 H 50.9273 4.69891 5.15605 0
M  V30 596 H 46.8243 3.49443 5.42734 0
M  V30 597 H 47.5923 5.4586 6.09901 0
M  V30 598 N 50.2554 -1.46986 0.568584 0
M  V30 599 C 51.5324 -1.95592 -0.0174074 0
M  V30 600 C 51.9124 -1.51124 -1.47393 0
M  V30 601 O 51.2604 -0.755329 -2.15655 0
M  V30 602 C 51.4704 -3.48719 0.139913 0
M  V30 603 C 52.8184 -4.246 0.000426376 0
M  V30 604 O 53.8424 -3.56135 0.0680316 0
M  V30 605 O 52.7014 -5.46302 -0.146988 0
M  V30 606 H 49.7954 -0.82498 -0.0577599 0
M  V30 607 H 52.3414 -1.57335 0.635909 0
M  V30 608 H 51.1134 -3.73927 1.15301 0
M  V30 609 H 50.7364 -3.93771 -0.550491 0
M  V30 610 N 51.7335 -0.305618 -1.54608 0
M  V30 611 C 52.6665 0.610536 -2.19881 0
M  V30 612 C 53.6445 1.1294 -1.16976 0
M  V30 613 O 54.8285 1.19673 -1.45638 0
M  V30 614 C 51.9555 1.83583 -2.84631 0
M  V30 615 C 51.0015 1.4498 -4.01102 0
M  V30 616 S 51.8345 0.501793 -5.33144 0
M  V30 617 C 52.9905 1.73478 -6.01379 0
M  V30 618 H 53.2235 0.0560177 -2.97247 0
M  V30 619 H 50.7565 -0.0897434 -1.54139 0
M  V30 620 H 52.7145 2.53898 -3.22562 0
M  V30 621 H 51.3755 2.36152 -2.07102 0
M  V30 622 H 50.5685 2.36236 -4.45206 0
M  V30 623 H 50.1705 0.826553 -3.64752 0
M  V30 624 H 52.4625 2.67473 -6.22467 0
M  V30 625 H 53.4055 1.33622 -6.95378 0
M  V30 626 H 53.8135 1.9136 -5.31076 0
M  V30 627 N 53.2116 1.57565 -0.0334293 0
M  V30 628 C 54.4596 1.91598 0.642999 0
M  V30 629 C 54.7806 0.910847 1.7242 0
M  V30 630 O 54.0506 -0.0469931 1.95844 0
M  V30 631 H 52.6306 0.707228 0.240496 0
M  V30 632 H 55.2926 1.94726 -0.0822488 0
M  V30 633 H 54.3886 2.92336 1.09298 0
M  V30 634 N 54.6897 -0.239769 1.55765 0
M  V30 635 C 56.1057 -0.588624 1.48349 0
M  V30 636 C 56.3057 -1.88005 0.72502 0
M  V30 637 O 55.3617 -2.51186 0.257269 0
M  V30 638 C 56.6747 -0.68474 2.928 0
M  V30 639 C 58.2227 -0.77659 3.03213 0
M  V30 640 C 58.6977 -0.904207 4.48986 0
M  V30 641 N 60.1887 -0.968896 4.52953 0
M  V30 642 C 60.9237 -1.08703 5.63002 0
M  V30 643 N 60.4197 -1.17026 6.82845 0
M  V30 644 N 62.2127 -1.12074 5.50814 0
M  V30 645 H 54.3637 0.607911 2.03515 0
M  V30 646 H 56.6267 0.21083 0.924259 0
M  V30 647 H 56.3327 0.194284 3.51163 0
M  V30 648 H 56.2067 -1.55435 3.43686 0
M  V30 649 H 58.5937 -1.64606 2.44926 0
M  V30 650 H 58.6747 0.118315 2.55526 0
M  V30 651 H 58.3187 -0.0392633 5.07885 0
M  V30 652 H 58.2487 -1.81426 4.9436 0
M  V30 653 H 60.7397 -0.915633 3.6664 0
M  V30 654 H 61.0527 -1.25966 7.62465 0
M  V30 655 H 59.3977 -1.13971 6.85591 0
M  V30 656 H 62.5887 -1.05226 4.5612 0
M  V30 657 H 62.7617 -1.20936 6.36615 0
M  V30 658 N 56.1678 -1.49265 -0.50573 0
M  V30 659 C 57.1148 -1.65585 -1.6078 0
M  V30 660 C 58.0848 -0.497396 -1.58478 0
M  V30 661 O 59.2698 -0.72385 -1.76536 0
M  V30 662 C 56.4098 -1.72408 -2.98948 0
M  V30 663 C 55.5228 -2.99525 -3.11301 0
M  V30 664 C 54.6578 -2.97356 -4.40174 0
M  V30 665 C 53.6968 -4.19074 -4.46143 0
M  V30 666 N 52.8338 -4.14841 -5.66437 0
M  V30 667 H 57.6738 -2.59688 -1.46172 0
M  V30 668 H 55.2108 -1.28761 -0.711261 0
M  V30 669 H 57.1688 -1.74344 -3.79025 0
M  V30 670 H 55.7988 -0.817753 -3.1227 0
M  V30 671 H 54.8508 -3.07222 -2.24318 0
M  V30 672 H 56.1628 -3.89518 -3.11572 0
M  V30 673 H 55.3168 -2.97829 -5.28567 0
M  V30 674 H 54.0558 -2.05133 -4.42461 0
M  V30 675 H 53.0608 -4.1885 -3.56153 0
M  V30 676 H 54.2858 -5.12483 -4.45575 0
M  V30 677 H 52.2318 -3.25453 -5.69575 0
M  V30 678 H 52.1488 -4.98564 -5.68304 0
M  V30 679 H 53.4168 -4.1941 -6.57051 0
M  V30 680 N 57.6459 0.756429 -1.3826 0
M  V30 681 C 58.5929 1.87011 -1.35261 0
M  V30 682 C 59.5629 1.64695 -0.215616 0
M  V30 683 O 60.7479 1.864 -0.407399 0
M  V30 684 C 57.8879 3.24275 -1.18068 0
M  V30 685 C 57.0009 3.58442 -2.41129 0
M  V30 686 C 56.1359 4.84994 -2.16689 0
M  V30 687 C 55.1749 5.11939 -3.35537 0
M  V30 688 N 54.3119 6.29685 -3.10549 0
M  V30 689 H 59.1519 1.8891 -2.30472 0
M  V30 690 H 56.6889 0.923373 -1.14509 0
M  V30 691 H 58.6469 4.03479 -1.06116 0
M  V30 692 H 57.2769 3.21711 -0.264973 0
M  V30 693 H 56.3289 2.74103 -2.63764 0
M  V30 694 H 57.6409 3.74283 -3.29717 0
M  V30 695 H 56.7949 5.72135 -2.01857 0
M  V30 696 H 55.5339 4.71286 -1.25462 0
M  V30 697 H 54.5389 4.23268 -3.50891 0
M  V30 698 H 55.7639 5.27546 -4.27635 0
M  V30 699 H 53.7099 6.17306 -2.21967 0
M  V30 700 H 53.6269 6.46014 -3.92686 0
M  V30 701 H 54.8949 7.19722 -2.99367 0
M  V30 702 N 59.124 1.23083 0.984299 0
M  V30 703 C 60.087 1.00979 2.05757 0
M  V30 704 C 61.087 -0.0269573 1.60777 0
M  V30 705 O 62.277 0.212403 1.729 0
M  V30 706 C 59.409 0.527072 3.36801 0
M  V30 707 H 60.602 1.9622 2.26799 0
M  V30 708 H 58.155 1.05072 1.15714 0
M  V30 709 H 58.89 -0.429294 3.21446 0
M  V30 710 H 58.675 1.27515 3.70786 0
M  V30 711 H 60.165 0.392942 4.15747 0
M  V30 712 N 60.6021 -1.18246 1.0419 0
M  V30 713 C 61.8791 -1.84121 0.660208 0
M  V30 714 C 62.2591 -1.92778 -0.860221 0
M  V30 715 O 61.6071 -1.45464 -1.76217 0
M  V30 716 C 61.8171 -3.22355 1.33747 0
M  V30 717 C 63.1651 -3.98376 1.46906 0
M  V30 718 O 64.1891 -3.31799 1.29568 0
M  V30 719 O 63.0481 -5.17665 1.75171 0
M  V30 720 H 60.1421 -0.794036 0.231161 0
M  V30 721 H 62.6881 -1.25628 1.14087 0
M  V30 722 H 61.4601 -3.10964 2.37522 0
M  V30 723 H 61.0831 -3.88506 0.845515 0
M  V30 724 N 62.0802 -0.821533 -1.34494 0
M  V30 725 C 63.3262 -0.409552 -1.98622 0
M  V30 726 C 63.6592 1.0244 -1.64984 0
M  V30 727 O 62.9342 1.71325 -0.920758 0
M  V30 728 C 63.2172 -0.610458 -3.54888 0
M  V30 729 C 63.0702 -2.09043 -3.98273 0
M  V30 730 C 64.3892 -0.0455379 -4.40076 0
M  V30 731 H 61.5082 -0.15028 -0.721516 0
M  V30 732 H 64.1502 -1.03384 -1.59411 0
M  V30 733 H 62.3002 -0.079044 -3.8842 0
M  V30 734 H 63.9722 -2.68537 -3.75081 0
M  V30 735 H 62.2152 -2.58139 -3.48635 0
M  V30 736 H 62.8862 -2.18182 -5.07051 0
M  V30 737 H 65.3622 -0.499557 -4.1309 0
M  V30 738 H 64.2382 -0.215922 -5.48475 0
M  V30 739 H 64.4992 1.04939 -4.29465 0
M  V30 740 N 63.5583 1.46682 -0.576371 0
M  V30 741 C 64.5063 2.31953 0.17335 0
M  V30 742 C 65.5003 1.44098 0.89062 0
M  V30 743 O 66.7063 1.60759 0.809728 0
M  V30 744 H 63.0813 0.748273 0.0747727 0
M  V30 745 H 65.0523 2.93007 -0.564738 0
M  V30 746 C 63.8013 3.27142 1.17786 0
M  V30 747 H 63.1243 3.94719 0.635361 0
M  V30 748 H 64.5643 3.896 1.67296 0
M  V30 749 C 63.0233 2.52036 2.23561 0
M  V30 750 O 63.5533 2.27877 3.3081 0
M  V30 751 N 61.7593 2.12709 1.97998 0
M  V30 752 H 61.3063 2.32557 1.10792 0
M  V30 753 H 61.2643 1.62776 2.68982 0
M  V30 754 N 65.0364 0.313813 1.54444 0
M  V30 755 C 65.9464 -0.565714 2.27677 0
M  V30 756 C 66.9624 -1.13754 1.31666 0
M  V30 757 O 68.1384 -1.15959 1.64668 0
M  V30 758 C 65.2034 -1.71528 3.01296 0
M  V30 759 C 64.2644 -1.17624 4.12872 0
M  V30 760 C 63.4974 -2.27102 4.8297 0
M  V30 761 O 63.7204 -3.47256 4.52514 0
M  V30 762 O 62.6544 -1.9307 5.70094 0
M  V30 763 H 66.4804 0.0287296 3.03686 0
M  V30 764 H 64.0654 0.0798312 1.49187 0
M  V30 765 H 65.9474 -2.38476 3.4743 0
M  V30 766 H 64.6224 -2.29608 2.2817 0
M  V30 767 H 63.5294 -0.472124 3.71109 0
M  V30 768 H 64.8624 -0.640695 4.88012 0
M  V30 769 N 66.5145 -1.57545 0.0417849 0
M  V30 770 C 67.7615 -1.92317 -0.634082 0
M  V30 771 C 68.0895 -0.919334 -1.71402 0
M  V30 772 O 67.3445 0.0698253 -1.95575 0
M  V30 773 C 67.6435 -3.33794 -1.27735 0
M  V30 774 C 67.3095 -4.49716 -0.326543 0
M  V30 775 C 65.9715 -4.81156 -0.0648814 0
M  V30 776 C 68.3235 -5.20182 0.325623 0
M  V30 777 C 65.6515 -5.80414 0.856539 0
M  V30 778 C 68.0035 -6.20424 1.23518 0
M  V30 779 C 66.6675 -6.50298 1.5056 0
M  V30 780 H 65.9375 -0.703736 -0.232027 0
M  V30 781 H 68.5845 -1.91205 0.106259 0
M  V30 782 H 66.8895 -3.31228 -2.09274 0
M  V30 783 H 68.5865 -3.57975 -1.80707 0
M  V30 784 H 65.1765 -4.25176 -0.540665 0
M  V30 785 H 69.3605 -4.96112 0.136546 0
M  V30 786 H 64.6165 -6.019 1.07363 0
M  V30 787 H 68.7905 -6.74141 1.74664 0
M  V30 788 H 66.4175 -7.27025 2.22123 0
M  V30 789 N 67.9926 0.231505 -1.5589 0
M  V30 790 C 69.2176 0.978689 -1.82856 0
M  V30 791 C 69.6426 1.77559 -0.620846 0
M  V30 792 O 69.0006 1.76119 0.430305 0
M  V30 793 C 69.0486 1.87997 -3.07716 0
M  V30 794 O 68.1526 2.97393 -2.85712 0
M  V30 795 H 67.4936 0.277663 -0.603158 0
M  V30 796 H 70.0236 0.24783 -2.03093 0
M  V30 797 H 70.0336 2.2917 -3.37558 0
M  V30 798 H 68.7086 1.29417 -3.95252 0
M  V30 799 H 67.2856 2.60238 -2.67078 0
M  V30 800 N 69.4707 1.49531 0.497807 0
M  V30 801 C 70.7187 1.58865 1.24926 0
M  V30 802 C 71.0397 0.278721 1.92998 0
M  V30 803 O 70.3097 -0.702144 1.82885 0
M  V30 804 H 68.8897 0.585343 0.464094 0
M  V30 805 H 71.5517 1.86174 0.57666 0
M  V30 806 H 70.6477 2.38633 2.01149 0
M  V30 807 N 70.9488 -0.749086 1.3866 0
M  V30 808 C 72.1948 -1.51056 1.35314 0
M  V30 809 C 72.5278 -1.94121 -0.0553751 0
M  V30 810 O 71.8028 -1.65763 -1.01749 0
M  V30 811 C 72.0858 -2.76003 2.31288 0
M  V30 812 C 71.9388 -2.39047 3.8102 0
M  V30 813 C 73.2578 -3.78046 2.2532 0
M  V30 814 H 70.3768 -0.547972 0.492844 0
M  V30 815 H 73.0188 -0.857628 1.69543 0
M  V30 816 H 71.1688 -3.31716 2.02229 0
M  V30 817 H 72.8408 -1.89074 4.20771 0
M  V30 818 H 71.0838 -1.71449 3.98482 0
M  V30 819 H 71.7548 -3.28462 4.4364 0
M  V30 820 H 74.2308 -3.31884 2.50983 0
M  V30 821 H 73.1068 -4.63159 2.94576 0
M  V30 822 H 73.3678 -4.23957 1.25352 0
M  V30 823 N 72.4269 -1.23603 -0.977757 0
M  V30 824 C 73.6729 -1.07129 -1.72195 0
M  V30 825 C 74.0059 0.390501 -1.90233 0
M  V30 826 O 73.2809 1.28902 -1.45653 0
M  V30 827 C 73.5639 -1.80031 -3.11867 0
M  V30 828 C 73.4169 -3.33899 -3.01383 0
M  V30 829 C 74.7359 -1.56492 -4.11337 0
M  V30 830 H 71.8549 -0.390571 -0.624999 0
M  V30 831 H 74.4969 -1.52142 -1.13811 0
M  V30 832 H 72.6469 -1.41768 -3.6171 0
M  V30 833 H 74.3189 -3.81699 -2.59043 0
M  V30 834 H 72.5619 -3.62796 -2.37827 0
M  V30 835 H 73.2329 -3.801 -4.00285 0
M  V30 836 H 75.7089 -1.89757 -3.70313 0
M  V30 837 H 74.5849 -2.09973 -5.07151 0
M  V30 838 H 74.8459 -0.500874 -4.39254 0
M  V30 839 N 73.905 1.17692 -1.04816 0
M  V30 840 C 74.855 2.1952 -0.616042 0
M  V30 841 C 75.839 1.57147 0.345485 0
M  V30 842 O 77.031 1.76245 0.163325 0
M  V30 843 C 74.16 3.43298 0.0116917 0
M  V30 844 C 73.246 4.12777 -0.973435 0
M  V30 845 N 73.637 4.5814 -2.14339 0
M  V30 846 C 71.935 4.38747 -0.80108 0
M  V30 847 C 72.636 5.11713 -2.7663 0
M  V30 848 N 71.612 5.03686 -2.04453 0
M  V30 849 H 75.414 2.52293 -1.5075 0
M  V30 850 H 72.928 1.3398 -0.917776 0
M  V30 851 H 74.925 4.15519 0.339006 0
M  V30 852 H 73.585 3.12018 0.898593 0
M  V30 853 H 74.596 4.52349 -2.52191 0
M  V30 854 H 71.273 4.17485 0.0350934 0
M  V30 855 H 72.663 5.56962 -3.75823 0
M  V30 856 N 75.3831 0.828654 1.34056 0
M  V30 857 C 76.3131 0.269443 2.3194 0
M  V30 858 C 77.2941 -0.617247 1.58506 0
M  V30 859 O 78.4791 -0.542931 1.86456 0
M  V30 860 C 75.6091 -0.564793 3.42677 0
M  V30 861 C 74.5631 0.225241 4.27407 0
M  V30 862 C 73.8891 -0.7321 5.29664 0
M  V30 863 C 75.1891 1.43663 5.02154 0
M  V30 864 H 76.8831 1.08728 2.7896 0
M  V30 865 H 74.4291 0.524283 1.34117 0
M  V30 866 H 76.3821 -0.966233 4.10173 0
M  V30 867 H 75.1061 -1.41574 2.9432 0
M  V30 868 H 73.7651 0.608117 3.61521 0
M  V30 869 H 73.4131 -1.57916 4.77568 0
M  V30 870 H 73.1131 -0.20767 5.87233 0
M  V30 871 H 74.6371 -1.13128 6.00029 0
M  V30 872 H 76.0511 1.1089 5.62473 0
M  V30 873 H 74.4481 1.89711 5.69324 0
M  V30 874 H 75.5181 2.21181 4.31517 0
M  V30 875 N 76.8612 -1.46375 0.584142 0
M  V30 876 C 78.1072 -2.02678 0.0703716 0
M  V30 877 C 78.4402 -1.4545 -1.28678 0
M  V30 878 O 77.7152 -0.62014 -1.84349 0
M  V30 879 C 77.9982 -3.60099 0.00614674 0
M  V30 880 C 77.8512 -4.27709 1.3923 0
M  V30 881 C 79.1702 -4.34598 -0.693742 0
M  V30 882 H 76.2892 -0.736504 0.027047 0
M  V30 883 H 78.9312 -1.74501 0.751615 0
M  V30 884 H 77.0812 -3.84236 -0.574009 0
M  V30 885 H 78.7532 -4.14832 2.01773 0
M  V30 886 H 76.9962 -3.87016 1.95962 0
M  V30 887 H 77.6672 -5.36478 1.29982 0
M  V30 888 H 80.1432 -4.15615 -0.200869 0
M  V30 889 H 79.0192 -5.44318 -0.707714 0
M  V30 890 H 79.2802 -4.05759 -1.75533 0
M  V30 891 N 78.3393 -0.321999 -1.54275 0
M  V30 892 C 79.5643 0.285791 -2.05422 0
M  V30 893 C 79.9893 1.45124 -1.19669 0
M  V30 894 O 79.3473 1.80132 -0.205441 0
M  V30 895 C 79.3953 0.69956 -3.53749 0
M  V30 896 O 78.4993 1.8021 -3.70942 0
M  V30 897 H 77.8403 0.0518962 -0.661969 0
M  V30 898 H 80.3703 -0.469954 -1.9913 0
M  V30 899 H 80.3803 0.982649 -3.9599 0
M  V30 900 H 79.0553 -0.152864 -4.15619 0
M  V30 901 H 77.6323 1.51794 -3.40607 0
M  V30 902 N 79.8174 1.5752 -0.0501392 0
M  V30 903 C 81.0474 1.96678 0.632573 0
M  V30 904 C 81.4554 0.926298 1.64974 0
M  V30 905 O 80.7984 -0.09802 1.83438 0
M  V30 906 C 80.8604 3.32068 1.37735 0
M  V30 907 C 80.5244 4.54076 0.516131 0
M  V30 908 C 81.5214 5.19445 -0.217357 0
M  V30 909 C 79.2064 5.00304 0.44736 0
M  V30 910 C 81.2004 6.29378 -1.00807 0
M  V30 911 C 78.8874 6.10114 -0.347038 0
M  V30 912 C 79.8854 6.74512 -1.07344 0
M  V30 913 O 79.5734 7.82211 -1.85477 0
M  V30 914 H 79.3054 0.652193 0.177821 0
M  V30 915 H 81.8594 2.05091 -0.112543 0
M  V30 916 H 80.0894 3.20206 2.16807 0
M  V30 917 H 81.7784 3.55981 1.95019 0
M  V30 918 H 82.5444 4.84689 -0.173688 0
M  V30 919 H 78.4234 4.49971 1.00235 0
M  V30 920 H 81.9674 6.79575 -1.57556 0
M  V30 921 H 77.8644 6.44307 -0.392349 0
M  V30 922 H 78.6324 7.98982 -1.77678 0
M  V30 923 N 81.2955 -0.223234 1.56011 0
M  V30 924 C 82.2055 -1.29766 1.95443 0
M  V30 925 C 83.2215 -1.51373 0.858028 0
M  V30 926 O 84.3975 -1.64536 1.16146 0
M  V30 927 C 81.4625 -2.62772 2.26167 0
M  V30 928 C 80.5235 -2.49482 3.49367 0
M  V30 929 C 79.7565 -3.76145 3.78616 0
M  V30 930 O 79.9795 -4.79087 3.09568 0
M  V30 931 O 78.9135 -3.73358 4.72109 0
M  V30 932 H 82.7395 -0.99309 2.87004 0
M  V30 933 H 80.3245 -0.425958 1.43199 0
M  V30 934 H 82.2065 -3.41327 2.47131 0
M  V30 935 H 80.8815 -2.92913 1.37781 0
M  V30 936 H 79.7885 -1.69133 3.33684 0
M  V30 937 H 81.1215 -2.2428 4.38131 0
M  V30 938 N 82.7736 -1.49793 -0.48987 0
M  V30 939 C 84.0036 -1.6333 -1.26518 0
M  V30 940 C 84.4116 -0.308392 -1.8667 0
M  V30 941 O 83.7546 0.717512 -1.69108 0
M  V30 942 C 83.8166 -2.6522 -2.4269 0
M  V30 943 C 83.4806 -4.09279 -2.03321 0
M  V30 944 C 84.4776 -4.95738 -1.56652 0
M  V30 945 C 82.1626 -4.55082 -2.12616 0
M  V30 946 C 84.1566 -6.26041 -1.19795 0
M  V30 947 C 81.8436 -5.85396 -1.75371 0
M  V30 948 C 82.8416 -6.707 -1.29036 0
M  V30 949 O 82.5296 -7.98584 -0.92299 0
M  V30 950 H 82.2616 -0.552502 -0.389509 0
M  V30 951 H 84.8156 -1.96642 -0.593381 0
M  V30 952 H 83.0456 -2.27112 -3.12981 0
M  V30 953 H 84.7346 -2.68171 -3.04695 0
M  V30 954 H 85.5006 -4.61575 -1.48908 0
M  V30 955 H 81.3796 -3.88844 -2.47631 0
M  V30 956 H 84.9236 -6.92578 -0.835582 0
M  V30 957 H 80.8206 -6.19085 -1.82768 0
M  V30 958 H 81.5886 -8.11692 -1.05349 0
M  V30 959 N 84.2517 0.741722 -1.39055 0
M  V30 960 C 85.1617 1.88621 -1.39496 0
M  V30 961 C 86.1777 1.71557 -0.290578 0
M  V30 962 O 87.3537 1.94275 -0.530954 0
M  V30 963 C 84.4187 3.24134 -1.23037 0
M  V30 964 C 83.4797 3.5364 -2.43387 0
M  V30 965 C 82.7127 4.82687 -2.27703 0
M  V30 966 O 82.9357 5.55922 -1.27696 0
M  V30 967 O 81.8697 5.1194 -3.16545 0
M  V30 968 H 85.6957 1.91203 -2.35956 0
M  V30 969 H 83.2807 0.888625 -1.20099 0
M  V30 970 H 85.1627 4.0513 -1.15964 0
M  V30 971 H 83.8377 3.22337 -0.296691 0
M  V30 972 H 82.7447 2.72758 -2.56035 0
M  V30 973 H 84.0777 3.60209 -3.35425 0
M  V30 974 N 85.7298 1.2412 0.971189 0
M  V30 975 C 86.6618 0.988349 2.06795 0
M  V30 976 C 87.6748 -0.0409541 1.62748 0
M  V30 977 O 88.8638 0.195673 1.77424 0
M  V30 978 C 85.9638 0.469023 3.35639 0
M  V30 979 C 85.1368 1.56065 4.08611 0
M  V30 980 C 84.1958 1.04458 5.15728 0
M  V30 981 O 83.2218 1.73553 5.42096 0
M  V30 982 N 84.4238 -0.122817 5.8037 0
M  V30 983 H 87.1888 1.93265 2.29061 0
M  V30 984 H 84.7498 1.15102 1.13856 0
M  V30 985 H 86.7418 0.108613 4.04554 0
M  V30 986 H 85.3118 -0.380919 3.1027 0
M  V30 987 H 84.5318 2.09341 3.34021 0
M  V30 988 H 85.8198 2.29449 4.54126 0
M  V30 989 H 85.2178 -0.700563 5.61345 0
M  V30 990 H 83.7748 -0.424404 6.50417 0
M  V30 991 N 87.2079 -1.17134 1.05439 0
M  V30 992 C 88.4569 -1.86791 0.761049 0
M  V30 993 C 88.7699 -1.82072 -0.714795 0
M  V30 994 O 89.9759 -2.47223 -1.12218 0
M  V30 995 C 88.4319 -3.35166 1.31117 0
M  V30 996 C 88.0399 -3.48381 2.81664 0
M  V30 997 C 89.7839 -4.10134 1.09499 0
M  V30 998 C 87.6909 -4.90793 3.29964 0
M  V30 999 H 86.6209 -0.699681 0.281002 0
M  V30 1000 H 89.2719 -1.3226 1.27199 0
M  V30 1001 H 87.6539 -3.8925 0.72803 0
M  V30 1002 H 88.8279 -3.04502 3.45855 0
M  V30 1003 H 87.1429 -2.86836 3.01851 0
M  V30 1004 H 89.7399 -5.152 1.43084 0
M  V30 1005 H 90.0829 -4.16287 0.0328772 0
M  V30 1006 H 90.6159 -3.62264 1.64346 0
M  V30 1007 H 87.3549 -4.89816 4.35616 0
M  V30 1008 H 86.8749 -5.35333 2.70516 0
M  V30 1009 H 88.5539 -5.59573 3.24787 0
M  V30 1010 N 88.686 -0.835752 -1.33615 0
M  V30 1011 C 89.911 -0.442389 -2.02627 0
M  V30 1012 C 90.336 0.947735 -1.62479 0
M  V30 1013 O 89.694 1.61907 -0.815826 0
M  V30 1014 C 89.742 -0.567216 -3.56111 0
M  V30 1015 O 88.846 0.407799 -4.10379 0
M  V30 1016 H 88.187 -0.180278 -0.639059 0
M  V30 1017 H 90.717 -1.12972 -1.70583 0
M  V30 1018 H 90.727 -0.447708 -4.05536 0
M  V30 1019 H 89.402 -1.58103 -3.84677 0
M  V30 1020 H 87.979 0.246107 -3.72087 0
M  V30 1021 N 90.1641 1.46063 -0.591896 0
M  V30 1022 C 91.3891 2.07226 -0.0850314 0
M  V30 1023 C 91.8141 1.43625 1.21463 0
M  V30 1024 O 91.1721 0.523305 1.73583 0
M  V30 1025 C 91.2201 3.60554 0.0576567 0
M  V30 1026 O 90.3241 3.97128 1.11188 0
M  V30 1027 H 89.6651 0.660615 -0.0669568 0
M  V30 1028 H 92.1951 1.8756 -0.81745 0
M  V30 1029 H 92.2051 4.07165 0.2609 0
M  V30 1030 H 90.8801 4.06235 -0.891416 0
M  V30 1031 H 89.4571 3.62213 0.886356 0
M  V30 1032 N 91.6422 0.330177 1.54103 0
M  V30 1033 C 92.5522 -0.541534 2.28264 0
M  V30 1034 C 93.5682 -1.12351 1.32866 0
M  V30 1035 O 94.7442 -1.14206 1.65888 0
M  V30 1036 C 91.8092 -1.68322 3.03098 0
M  V30 1037 C 90.8702 -1.13238 4.14096 0
M  V30 1038 C 90.1032 -2.21966 4.85352 0
M  V30 1039 O 90.3262 -3.42437 4.56172 0
M  V30 1040 O 89.2602 -1.87013 5.7211 0
M  V30 1041 H 93.0862 0.060938 3.03639 0
M  V30 1042 H 90.6712 0.09565 1.49093 0
M  V30 1043 H 92.5532 -2.34777 3.49939 0
M  V30 1044 H 91.2282 -2.27176 2.30593 0
M  V30 1045 H 90.1352 -0.432736 3.71589 0
M  V30 1046 H 91.4682 -0.588898 4.88664 0
M  V30 1047 N 93.1203 -1.57491 0.0584922 0
M  V30 1048 C 94.0833 -2.1085 -0.898617 0
M  V30 1049 C 95.0833 -1.02964 -1.23511 0
M  V30 1050 O 96.2733 -1.29007 -1.17059 0
M  V30 1051 C 93.4053 -2.59881 -2.20623 0
M  V30 1052 H 94.5983 -2.96715 -0.435936 0
M  V30 1053 H 92.1513 -1.55141 -0.190023 0
M  V30 1054 H 92.8863 -1.77431 -2.71457 0
M  V30 1055 H 92.6713 -3.38727 -1.97501 0
M  V30 1056 H 94.1613 -3.01285 -2.89166 0
M  V30 1057 N 94.5984 0.214957 -1.56127 0
M  V30 1058 C 95.5284 1.2695 -1.95974 0
M  V30 1059 C 96.5094 1.48539 -0.828868 0
M  V30 1060 O 97.6944 1.60611 -1.09168 0
M  V30 1061 C 94.8244 2.61794 -2.28214 0
M  V30 1062 C 93.7784 2.54851 -3.43853 0
M  V30 1063 C 93.1044 3.93785 -3.61715 0
M  V30 1064 C 94.4044 2.09065 -4.78632 0
M  V30 1065 H 96.0984 0.93846 -2.84312 0
M  V30 1066 H 93.6444 0.449996 -1.36788 0
M  V30 1067 H 95.5974 3.35731 -2.54682 0
M  V30 1068 H 94.3214 2.96599 -1.36736 0
M  V30 1069 H 92.9804 1.8337 -3.17444 0
M  V30 1070 H 92.6284 4.25908 -2.67602 0
M  V30 1071 H 92.3284 3.90019 -4.39498 0
M  V30 1072 H 93.8524 4.69374 -3.90539 0
M  V30 1073 H 95.2664 2.7275 -5.04262 0
M  V30 1074 H 93.6634 2.16346 -5.59745 0
M  V30 1075 H 94.7334 1.04315 -4.73547 0
M  V30 1076 N 96.0765 1.50051 0.48192 0
M  V30 1077 C 96.9865 1.7089 1.60728 0
M  V30 1078 C 98.0025 0.591788 1.63627 0
M  V30 1079 O 99.1785 0.868817 1.81696 0
M  V30 1080 C 96.2435 1.78855 2.97005 0
M  V30 1081 C 95.3045 3.02537 3.04581 0
M  V30 1082 C 94.5375 3.10112 4.34357 0
M  V30 1083 O 94.7605 2.24765 5.24249 0
M  V30 1084 O 93.6945 4.02747 4.47301 0
M  V30 1085 H 97.5205 2.66264 1.46072 0
M  V30 1086 H 95.1055 1.34018 0.660264 0
M  V30 1087 H 96.9875 1.86336 3.77964 0
M  V30 1088 H 95.6625 0.866628 3.11883 0
M  V30 1089 H 94.5695 3.00563 2.22739 0
M  V30 1090 H 95.9025 3.94272 2.94636 0
M  V30 1091 N 97.5546 -0.734337 1.39446 0
M  V30 1092 C 98.5176 -1.83004 1.37994 0
M  V30 1093 C 99.5176 -1.58397 0.276938 0
M  V30 1094 O 100.708 -1.65785 0.534875 0
M  V30 1095 C 97.8396 -3.20802 1.1532 0
M  V30 1096 H 99.0326 -1.85694 2.35494 0
M  V30 1097 H 96.5856 -0.938059 1.25021 0
M  V30 1098 H 97.3206 -3.23772 0.185036 0
M  V30 1099 H 97.1056 -3.4006 1.95197 0
M  V30 1100 H 98.5956 -4.00862 1.17046 0
M  V30 1101 N 99.0327 -1.24633 -0.964593 0
M  V30 1102 C 99.9957 -1.0424 -2.04124 0
M  V30 1103 C 100.996 0.00137563 -1.608 0
M  V30 1104 O 102.186 -0.239883 -1.7254 0
M  V30 1105 C 99.3177 -0.580588 -3.3592 0
M  V30 1106 H 100.511 -1.99803 -2.23649 0
M  V30 1107 H 98.0637 -1.06899 -1.14027 0
M  V30 1108 H 98.7987 0.3781 -3.22088 0
M  V30 1109 H 98.5837 -1.33398 -3.6871 0
M  V30 1110 H 100.074 -0.459034 -4.15069 0
M  V30 1111 N 100.511 1.16574 -1.06058 0
M  V30 1112 C 101.927 1.3904 -0.783585 0
M  V30 1113 C 102.127 1.91784 0.618145 0
M  V30 1114 O 101.183 2.11511 1.37911 0
M  V30 1115 C 102.496 2.37329 -1.84649 0
M  V30 1116 C 104.044 2.51018 -1.86973 0
M  V30 1117 C 104.519 3.52588 -2.92311 0
M  V30 1118 N 106.01 3.60113 -2.91329 0
M  V30 1119 C 106.745 4.38486 -3.69482 0
M  V30 1120 N 106.241 5.20302 -4.57447 0
M  V30 1121 N 108.034 4.33446 -3.57885 0
M  V30 1122 H 100.185 0.806725 -1.96483 0
M  V30 1123 H 102.448 0.417117 -0.851303 0
M  V30 1124 H 102.154 2.05663 -2.85299 0
M  V30 1125 H 102.028 3.36946 -1.6955 0
M  V30 1126 H 104.415 2.81989 -0.869827 0
M  V30 1127 H 104.496 1.51445 -2.0615 0
M  V30 1128 H 104.14 3.22354 -3.92492 0
M  V30 1129 H 104.07 4.51886 -2.70383 0
M  V30 1130 H 106.561 3.01707 -2.27555 0
M  V30 1131 H 106.874 5.77311 -5.13743 0
M  V30 1132 H 105.219 5.19653 -4.61503 0
M  V30 1133 H 108.41 3.68586 -2.88551 0
M  V30 1134 H 108.583 4.94279 -4.19037 0
M  V30 1135 N 101.989 0.842826 1.3317 0
M  V30 1136 C 103.238 0.436738 1.96915 0
M  V30 1137 C 103.551 -1.01025 1.67491 0
M  V30 1138 O 104.757 -1.5212 2.24881 0
M  V30 1139 C 103.213 0.730021 3.52418 0
M  V30 1140 C 102.821 2.19195 3.90714 0
M  V30 1141 C 104.565 0.391076 4.22695 0
M  V30 1142 C 102.472 2.42907 5.39212 0
M  V30 1143 H 101.402 0.15958 0.736919 0
M  V30 1144 H 104.053 1.03196 1.51733 0
M  V30 1145 H 102.435 0.0643755 3.95948 0
M  V30 1146 H 103.609 2.8984 3.58231 0
M  V30 1147 H 101.924 2.49425 3.33431 0
M  V30 1148 H 104.521 0.545817 5.31907 0
M  V30 1149 H 104.864 -0.666294 4.10933 0
M  V30 1150 H 105.397 1.01212 3.84709 0
M  V30 1151 H 102.136 3.47224 5.55982 0
M  V30 1152 H 101.656 1.76827 5.73142 0
M  V30 1153 H 103.335 2.2626 6.06148 0
M  V30 1154 N 103.467 -1.45747 0.599634 0
M  V30 1155 C 104.692 -2.07178 0.0960198 0
M  V30 1156 C 105.117 -1.44268 -1.207 0
M  V30 1157 O 104.475 -0.532503 -1.73303 0
M  V30 1158 C 104.523 -3.60579 -0.0385348 0
M  V30 1159 O 103.627 -3.97713 -1.0908 0
M  V30 1160 H 102.968 -0.660251 0.0704593 0
M  V30 1161 H 105.498 -1.87124 0.827385 0
M  V30 1162 H 105.508 -4.07298 -0.239304 0
M  V30 1163 H 104.183 -4.05756 0.912947 0
M  V30 1164 H 102.76 -3.62678 -0.867135 0
M  V30 1165 N 104.945 -0.338344 -1.53925 0
M  V30 1166 C 105.908 0.508299 -2.23493 0
M  V30 1167 C 106.908 1.03175 -1.23335 0
M  V30 1168 O 108.098 0.921826 -1.47811 0
M  V30 1169 C 105.23 1.70754 -2.95052 0
M  V30 1170 H 106.423 -0.100058 -2.99733 0
M  V30 1171 H 103.976 -0.0896198 -1.56043 0
M  V30 1172 H 104.711 2.35474 -2.22986 0
M  V30 1173 H 104.496 1.33946 -3.68512 0
M  V30 1174 H 105.986 2.30818 -3.48013 0
M  V30 1175 N 106.423 1.57458 -0.0668435 0
M  V30 1176 C 107.371 2.13639 0.919851 0
M  V30 1177 C 108.365 1.07204 1.31163 0
M  V30 1178 O 109.571 1.25591 1.28945 0
M  V30 1179 H 105.946 0.683048 0.314562 0
M  V30 1180 H 107.917 2.95415 0.421047 0
M  V30 1181 C 106.666 2.70892 2.17975 0
M  V30 1182 H 105.989 3.5246 1.88711 0
M  V30 1183 H 107.429 3.13803 2.85138 0
M  V30 1184 C 105.888 1.65414 2.93496 0
M  V30 1185 O 106.418 1.07619 3.87015 0
M  V30 1186 N 104.624 1.36564 2.56512 0
M  V30 1187 H 104.171 1.83751 1.80536 0
M  V30 1188 H 104.129 0.66223 3.07347 0
M  V30 1189 N 107.901 -0.206675 1.56239 0
M  V30 1190 C 108.848 -1.25617 1.93621 0
M  V30 1191 C 109.818 -1.45824 0.795274 0
M  V30 1192 O 111.003 -1.59148 1.05245 0
M  V30 1193 C 108.143 -2.59839 2.27107 0
M  V30 1194 C 107.256 -2.47308 3.54207 0
M  V30 1195 C 106.391 -3.74155 3.7707 0
M  V30 1196 C 105.43 -3.56407 4.97635 0
M  V30 1197 N 104.567 -4.75238 5.1681 0
M  V30 1198 H 109.407 -0.930383 2.83104 0
M  V30 1199 H 106.944 -0.448065 1.4011 0
M  V30 1200 H 108.902 -3.38021 2.44535 0
M  V30 1201 H 107.532 -2.90485 1.40778 0
M  V30 1202 H 106.584 -1.60483 3.4489 0
M  V30 1203 H 107.896 -2.30122 4.42544 0
M  V30 1204 H 107.05 -4.60778 3.94675 0
M  V30 1205 H 105.789 -3.94282 2.87042 0
M  V30 1206 H 104.794 -2.68168 4.79964 0
M  V30 1207 H 106.019 -3.37736 5.89161 0
M  V30 1208 H 103.965 -4.95651 4.29728 0
M  V30 1209 H 103.882 -4.60835 5.99306 0
M  V30 1210 H 105.15 -5.63246 5.38864 0
M  V30 1211 N 109.379 -1.50304 -0.473955 0
M  V30 1212 C 110.609 -1.64663 -1.24778 0
M  V30 1213 C 111.017 -0.328174 -1.86332 0
M  V30 1214 O 110.36 0.699536 -1.69859 0
M  V30 1215 C 110.422 -2.6778 -2.39863 0
M  V30 1216 C 110.086 -4.11413 -1.98969 0
M  V30 1217 C 111.083 -4.97372 -1.51385 0
M  V30 1218 C 108.768 -4.57312 -2.07777 0
M  V30 1219 C 110.762 -6.27277 -1.13148 0
M  V30 1220 C 108.449 -5.87223 -1.69152 0
M  V30 1221 C 109.447 -6.72031 -1.21915 0
M  V30 1222 O 109.135 -7.99518 -0.838237 0
M  V30 1223 H 108.867 -0.556602 -0.383627 0
M  V30 1224 H 111.421 -1.9726 -0.572491 0
M  V30 1225 H 109.651 -2.30419 -3.10554 0
M  V30 1226 H 111.34 -2.71388 -3.01833 0
M  V30 1227 H 112.106 -4.63128 -1.44004 0
M  V30 1228 H 107.985 -3.91449 -2.43493 0
M  V30 1229 H 111.529 -6.93425 -0.762077 0
M  V30 1230 H 107.426 -6.20989 -1.76191 0
M  V30 1231 H 108.194 -8.12764 -0.967339 0
M  V30 1232 N 110.857 0.726932 -1.39834 0
M  V30 1233 C 111.79 1.8501 -1.33592 0
M  V30 1234 C 112.768 1.61262 -0.208191 0
M  V30 1235 O 113.952 1.84422 -0.389981 0
M  V30 1236 C 111.079 3.21143 -1.07633 0
M  V30 1237 C 110.125 3.63737 -2.22705 0
M  V30 1238 S 110.958 3.72167 -3.85035 0
M  V30 1239 C 112.114 5.11077 -3.61318 0
M  V30 1240 H 112.347 1.90022 -2.28646 0
M  V30 1241 H 109.88 0.892595 -1.25985 0
M  V30 1242 H 111.838 3.99747 -0.933415 0
M  V30 1243 H 110.499 3.13776 -0.142526 0
M  V30 1244 H 109.692 4.62551 -2.00155 0
M  V30 1245 H 109.294 2.9236 -2.33242 0
M  V30 1246 H 111.586 5.97656 -3.19083 0
M  V30 1247 H 112.529 5.38658 -4.59623 0
M  V30 1248 H 112.937 4.81135 -2.95245 0
M  V30 1249 N 112.336 1.25143 0.95797 0
M  V30 1250 C 113.585 1.0909 1.69654 0
M  V30 1251 C 113.898 -0.368548 1.92097 0
M  V30 1252 O 115.104 -0.649455 2.63618 0
M  V30 1253 C 113.56 1.90395 3.05414 0
M  V30 1254 C 113.168 3.4081 2.90779 0
M  V30 1255 C 114.912 1.82901 3.83076 0
M  V30 1256 C 112.819 4.14423 4.21909 0
M  V30 1257 H 111.749 0.404625 0.636235 0
M  V30 1258 H 114.4 1.4931 1.06672 0
M  V30 1259 H 112.782 1.42996 3.69281 0
M  V30 1260 H 113.956 3.95859 2.35865 0
M  V30 1261 H 112.271 3.49361 2.26575 0
M  V30 1262 H 114.868 2.35196 4.80195 0
M  V30 1263 H 115.211 0.796224 4.08615 0
M  V30 1264 H 115.744 2.28033 3.25954 0
M  V30 1265 H 112.483 5.18102 4.01561 0
M  V30 1266 H 112.003 3.64159 4.76601 0
M  V30 1267 H 113.682 4.21956 4.90471 0
M  V30 1268 N 113.814 -1.1601 1.06675 0
M  V30 1269 C 115.042 -1.90527 0.806667 0
M  V30 1270 C 115.457 -1.77643 -0.639396 0
M  V30 1271 O 114.814 -1.12369 -1.43803 0
M  V30 1272 C 114.865 -3.41106 1.19705 0
M  V30 1273 O 114.586 -3.53608 2.58636 0
M  V30 1274 C 116.087 -4.32663 0.965266 0
M  V30 1275 H 113.307 -0.604053 0.292166 0
M  V30 1276 H 115.851 -1.47026 1.4214 0
M  V30 1277 H 114.006 -3.82296 0.626774 0
M  V30 1278 H 114.42 -4.47011 2.74375 0
M  V30 1279 H 115.894 -5.36763 1.288 0
M  V30 1280 H 116.371 -4.39089 -0.0987936 0
M  V30 1281 H 116.977 -3.97206 1.52011 0
M  V30 1282 N 115.292 -0.849877 -1.32721 0
M  V30 1283 C 116.24 -0.279745 -2.30912 0
M  V30 1284 C 117.234 0.594278 -1.58634 0
M  V30 1285 O 118.44 0.482613 -1.73409 0
M  V30 1286 H 114.815 -0.0717521 -0.748569 0
M  V30 1287 H 116.786 -1.12222 -2.76494 0
M  V30 1288 C 115.535 0.521108 -3.43773 0
M  V30 1289 H 114.858 -0.142141 -3.99547 0
M  V30 1290 H 116.298 0.885693 -4.14646 0
M  V30 1291 C 114.757 1.70442 -2.90605 0
M  V30 1292 O 115.287 2.8034 -2.87702 0
M  V30 1293 N 113.493 1.52991 -2.47067 0
M  V30 1294 H 113.04 0.635914 -2.49628 0
M  V30 1295 H 112.998 2.32311 -2.11847 0
M  V30 1296 N 116.77 1.45427 -0.607355 0
M  V30 1297 C 118.01 2.04128 -0.105458 0
M  V30 1298 C 118.374 1.46555 1.24039 0
M  V30 1299 O 119.575 1.96608 1.833 0
M  V30 1300 C 117.846 3.57338 -0.0665324 0
M  V30 1301 S 119.405 4.37201 0.374207 0
M  V30 1302 H 116.223 0.709278 -0.0494575 0
M  V30 1303 H 118.825 1.78139 -0.805404 0
M  V30 1304 H 117.529 3.96752 -1.04957 0
M  V30 1305 H 117.06 3.87902 0.655415 0
M  V30 1306 H 119.075 4.6888 1.62377 0
M  V30 1307 N 118.248 0.346503 1.53744 0
M  V30 1308 C 119.496 -0.248612 2.00565 0
M  V30 1309 C 119.817 -1.5083 1.23593 0
M  V30 1310 O 119.087 -1.92858 0.343912 0
M  V30 1311 H 117.667 -0.0948564 0.740953 0
M  V30 1312 H 120.329 0.468341 1.89189 0
M  V30 1313 H 119.425 -0.488994 3.08245 0
M  V30 1314 N 119.726 -1.57421 0.075193 0
M  V30 1315 C 120.673 -2.12915 -0.890843 0
M  V30 1316 C 121.643 -1.04252 -1.29309 0
M  V30 1317 O 122.828 -1.31933 -1.37834 0
M  V30 1318 C 119.968 -2.69795 -2.15186 0
M  V30 1319 C 119.081 -3.92624 -1.80194 0
M  V30 1320 C 118.216 -4.37736 -3.00933 0
M  V30 1321 C 117.255 -5.53205 -2.61974 0
M  V30 1322 N 116.392 -5.9326 -3.75483 0
M  V30 1323 H 121.232 -2.95156 -0.410735 0
M  V30 1324 H 118.769 -1.45854 -0.191086 0
M  V30 1325 H 120.727 -3.00883 -2.89008 0
M  V30 1326 H 119.357 -1.90313 -2.60731 0
M  V30 1327 H 118.409 -3.67977 -0.964218 0
M  V30 1328 H 119.721 -4.76482 -1.47534 0
M  V30 1329 H 118.875 -4.70503 -3.8303 0
M  V30 1330 H 117.614 -3.52739 -3.36789 0
M  V30 1331 H 116.619 -5.20086 -1.783 0
M  V30 1332 H 117.844 -6.39936 -2.27284 0
M  V30 1333 H 115.79 -5.11212 -4.11094 0
M  V30 1334 H 115.707 -6.71865 -3.46602 0
M  V30 1335 H 116.975 -6.30651 -4.58148 0
M  V30 1336 N 121.204 0.198386 -1.56346 0
M  V30 1337 C 122.481 0.944982 -1.71258 0
M  V30 1338 C 122.861 2.0151 -0.629048 0
M  V30 1339 O 122.209 2.25639 0.360473 0
M  V30 1340 C 122.419 1.5344 -3.1346 0
M  V30 1341 C 123.767 2.01778 -3.73591 0
M  V30 1342 O 124.791 1.63288 -3.16568 0
M  V30 1343 O 123.65 2.72594 -4.73661 0
M  V30 1344 H 120.744 0.442939 -0.69838 0
M  V30 1345 H 123.29 0.188342 -1.68652 0
M  V30 1346 H 122.062 0.762869 -3.83792 0
M  V30 1347 H 121.685 2.35596 -3.20282 0
M  V30 1348 N 122.682 1.50554 0.465978 0
M  V30 1349 C 123.63 1.70324 1.58406 0
M  V30 1350 C 124.624 0.569139 1.59553 0
M  V30 1351 O 125.83 0.749776 1.63641 0
M  V30 1352 H 122.205 0.537688 0.525734 0
M  V30 1353 H 124.176 2.64104 1.38894 0
M  V30 1354 C 122.925 1.81928 2.96307 0
M  V30 1355 H 122.248 2.68586 2.96144 0
M  V30 1356 H 123.688 1.99784 3.73982 0
M  V30 1357 C 122.147 0.572095 3.32007 0
M  V30 1358 O 122.677 -0.286416 4.00678 0
M  V30 1359 N 120.883 0.424606 2.87481 0
M  V30 1360 H 120.43 1.12427 2.31771 0
M  V30 1361 H 120.388 -0.408697 3.11732 0
M  V30 1362 N 124.16 -0.719506 1.40217 0
M  V30 1363 C 125.407 -1.47933 1.38283 0
M  V30 1364 C 125.735 -1.94493 -0.0161536 0
M  V30 1365 O 124.99 -1.68224 -0.999956 0
M  V30 1366 C 125.289 -2.72271 2.31524 0
M  V30 1367 C 124.955 -2.44496 3.78857 0
M  V30 1368 C 123.617 -2.36631 4.18998 0
M  V30 1369 C 125.969 -2.21104 4.71977 0
M  V30 1370 C 123.297 -2.03437 5.503 0
M  V30 1371 C 125.649 -1.89423 6.03574 0
M  V30 1372 C 124.313 -1.80038 6.42762 0
M  V30 1373 H 123.583 -0.541325 0.506012 0
M  V30 1374 H 126.23 -0.824502 1.72842 0
M  V30 1375 H 124.535 -3.42572 1.90137 0
M  V30 1376 H 126.232 -3.30348 2.27313 0
M  V30 1377 H 122.822 -2.51503 3.47051 0
M  V30 1378 H 127.006 -2.26139 4.41786 0
M  V30 1379 H 122.262 -1.94705 5.79569 0
M  V30 1380 H 126.436 -1.70336 6.75247 0
M  V30 1381 H 124.063 -1.54083 7.44421 0
M  V30 1382 N 125.638 -1.25649 -0.95132 0
M  V30 1383 C 126.588 -1.03004 -2.03406 0
M  V30 1384 C 127.572 0.034187 -1.60864 0
M  V30 1385 O 128.764 -0.181549 -1.76066 0
M  V30 1386 C 125.893 -0.654255 -3.37008 0
M  V30 1387 C 124.979 -1.75542 -3.86065 0
M  V30 1388 N 125.37 -2.99113 -4.07879 0
M  V30 1389 C 123.668 -1.63669 -4.14884 0
M  V30 1390 C 124.369 -3.70611 -4.48356 0
M  V30 1391 N 123.345 -2.98247 -4.54477 0
M  V30 1392 H 127.147 -1.96813 -2.1827 0
M  V30 1393 H 124.661 -1.16017 -1.13639 0
M  V30 1394 H 126.658 -0.473206 -4.14206 0
M  V30 1395 H 125.318 0.276468 -3.23521 0
M  V30 1396 H 126.329 -3.35124 -3.94857 0
M  V30 1397 H 123.006 -0.775161 -4.10241 0
M  V30 1398 H 124.396 -4.76695 -4.73509 0
M  V30 1399 N 127.117 1.15442 -1.07289 0
M  V30 1400 C 128.047 2.22312 -0.714107 0
M  V30 1401 C 129.028 1.67467 0.298155 0
M  V30 1402 O 130.213 1.93445 0.171048 0
M  V30 1403 C 127.343 3.47124 -0.110448 0
M  V30 1404 C 126.297 4.14926 -1.04979 0
M  V30 1405 C 125.623 5.33807 -0.308924 0
M  V30 1406 C 126.923 4.64762 -2.38314 0
M  V30 1407 H 128.617 2.5258 -1.6076 0
M  V30 1408 H 126.163 1.21404 -0.77441 0
M  V30 1409 H 128.116 4.21124 0.152482 0
M  V30 1410 H 126.84 3.16187 0.81812 0
M  V30 1411 H 125.499 3.42866 -1.29764 0
M  V30 1412 H 125.147 4.99126 0.623084 0
M  V30 1413 H 124.847 5.80113 -0.935036 0
M  V30 1414 H 126.371 6.10576 -0.0537771 0
M  V30 1415 H 127.785 5.30292 -2.1786 0
M  V30 1416 H 126.182 5.21728 -2.96514 0
M  V30 1417 H 127.252 3.80434 -3.00663 0
M  V30 1418 N 128.595 0.856903 1.32268 0
M  V30 1419 C 130.011 0.547061 1.49931 0
M  V30 1420 C 130.211 -0.921781 1.7918 0
M  V30 1421 O 129.267 -1.70469 1.8627 0
M  V30 1422 C 130.58 1.43599 2.64196 0
M  V30 1423 C 132.128 1.43665 2.78081 0
M  V30 1424 C 132.603 2.31085 3.95428 0
M  V30 1425 N 134.094 2.28893 4.02694 0
M  V30 1426 C 134.829 2.93262 4.92732 0
M  V30 1427 N 134.325 3.66751 5.87763 0
M  V30 1428 N 136.118 2.82638 4.85873 0
M  V30 1429 H 128.269 1.8075 1.11549 0
M  V30 1430 H 130.532 0.772144 0.549997 0
M  V30 1431 H 130.238 2.48058 2.49319 0
M  V30 1432 H 130.112 1.12502 3.60032 0
M  V30 1433 H 132.499 0.399701 2.92381 0
M  V30 1434 H 132.58 1.7878 1.82952 0
M  V30 1435 H 132.224 3.34849 3.81888 0
M  V30 1436 H 132.154 1.93302 4.89839 0
M  V30 1437 H 134.645 1.75466 3.34694 0
M  V30 1438 H 134.958 4.13027 6.53168 0
M  V30 1439 H 133.303 3.70859 5.87783 0
M  V30 1440 H 136.494 2.24774 4.10602 0
M  V30 1441 H 136.667 3.33084 5.55841 0
M  V30 1442 N 130.073 -1.45103 0.615059 0
M  V30 1443 C 131.319 -2.02483 0.113347 0
M  V30 1444 C 131.652 -1.48146 -1.25564 0
M  V30 1445 O 130.927 -0.659104 -1.82992 0
M  V30 1446 C 131.21 -3.60005 0.0825278 0
M  V30 1447 C 131.063 -4.2466 1.48271 0
M  V30 1448 C 132.382 -4.35972 -0.601401 0
M  V30 1449 H 129.501 -0.735764 0.0426632 0
M  V30 1450 H 132.143 -1.72868 0.788461 0
M  V30 1451 H 130.293 -3.85367 -0.492378 0
M  V30 1452 H 131.965 -4.10458 2.10527 0
M  V30 1453 H 130.208 -3.82772 2.04127 0
M  V30 1454 H 130.879 -5.336 1.41332 0
M  V30 1455 H 133.355 -4.15947 -0.112666 0
M  V30 1456 H 132.231 -5.45697 -0.592097 0
M  V30 1457 H 132.492 -4.09391 -1.66887 0
M  V30 1458 N 131.551 -0.354651 -1.53558 0
M  V30 1459 C 132.967 -0.00315426 -1.596 0
M  V30 1460 C 133.167 1.47741 -1.37021 0
M  V30 1461 O 132.223 2.23759 -1.16996 0
M  V30 1462 C 133.536 -0.44929 -2.97325 0
M  V30 1463 C 135.084 -0.402578 -3.104 0
M  V30 1464 C 135.559 -0.824355 -4.5052 0
M  V30 1465 N 137.05 -0.778979 -4.56603 0
M  V30 1466 C 137.785 -1.07715 -5.63192 0
M  V30 1467 N 137.281 -1.44405 -6.77583 0
M  V30 1468 N 139.074 -1.00066 -5.53121 0
M  V30 1469 H 131.225 -1.31893 -1.66487 0
M  V30 1470 H 133.488 -0.538388 -0.780284 0
M  V30 1471 H 133.194 -1.48202 -3.1895 0
M  V30 1472 H 133.068 0.169772 -3.76818 0
M  V30 1473 H 135.455 0.621004 -2.88492 0
M  V30 1474 H 135.536 -1.05699 -2.32941 0
M  V30 1475 H 135.18 -1.846 -4.73165 0
M  V30 1476 H 135.11 -0.147304 -5.26394 0
M  V30 1477 H 137.601 -0.508528 -3.74463 0
M  V30 1478 H 137.914 -1.65612 -7.54846 0
M  V30 1479 H 136.259 -1.4826 -6.79002 0
M  V30 1480 H 139.45 -0.713293 -4.62633 0
M  V30 1481 H 139.623 -1.23638 -6.36096 0
M  V30 1482 N 133.029 1.57378 -0.0835403 0
M  V30 1483 C 134.278 1.93106 0.582498 0
M  V30 1484 C 134.591 0.96651 1.70053 0
M  V30 1485 O 135.797 1.21705 2.42693 0
M  V30 1486 C 134.253 3.43076 1.08751 0
M  V30 1487 C 133.861 4.48 -0.000146404 0
M  V30 1488 C 135.605 3.87785 1.72694 0
M  V30 1489 C 133.512 5.89113 0.519568 0
M  V30 1490 H 132.442 0.720775 0.221358 0
M  V30 1491 H 135.093 1.82821 -0.157675 0
M  V30 1492 H 133.475 3.48474 1.88101 0
M  V30 1493 H 134.649 4.54233 -0.775199 0
M  V30 1494 H 132.964 4.1283 -0.54406 0
M  V30 1495 H 135.561 4.90604 2.1263 0
M  V30 1496 H 135.904 3.25796 2.59158 0
M  V30 1497 H 136.437 3.8504 0.999457 0
M  V30 1498 H 133.176 6.54775 -0.308186 0
M  V30 1499 H 132.696 5.86376 1.26188 0
M  V30 1500 H 134.375 6.39346 0.992237 0
M  V30 1501 N 134.507 -0.190092 1.56449 0
M  V30 1502 C 135.457 -1.23977 1.91347 0
M  V30 1503 C 136.441 -1.40747 0.779693 0
M  V30 1504 O 137.633 -1.43033 1.04262 0
M  V30 1505 C 134.762 -2.58347 2.26079 0
M  V30 1506 C 133.848 -2.4535 3.45925 0
M  V30 1507 N 134.239 -2.02039 4.63696 0
M  V30 1508 C 132.537 -2.76229 3.50162 0
M  V30 1509 C 133.238 -2.01053 5.4585 0
M  V30 1510 N 132.214 -2.42747 4.8639 0
M  V30 1511 H 136.016 -0.896318 2.79899 0
M  V30 1512 H 133.53 -0.398496 1.57435 0
M  V30 1513 H 135.527 -3.34173 2.49267 0
M  V30 1514 H 134.187 -2.93512 1.38856 0
M  V30 1515 H 135.198 -1.7267 4.88268 0
M  V30 1516 H 131.875 -3.15556 2.73369 0
M  V30 1517 H 133.265 -1.69426 6.50188 0
M  V30 1518 N 135.985 -1.50799 -0.457987 0
M  V30 1519 C 137.396 -1.55152 -1.0385 0
M  V30 1520 C 137.747 -0.362719 -1.92818 0
M  V30 1521 O 136.872 0.522915 -2.09987 0
M  V30 1522 C 137.467 -2.81173 -1.89017 0
M  V30 1523 C 136.026 -2.88164 -2.42154 0
M  V30 1524 C 135.173 -2.49591 -1.20829 0
M  V30 1525 H 138.124 -1.56874 -0.240068 0
M  V30 1526 H 138.145 -2.63769 -2.74238 0
M  V30 1527 H 137.657 -3.67677 -1.24238 0
M  V30 1528 H 135.758 -2.06042 -3.10447 0
M  V30 1529 H 135.871 -3.91356 -2.76364 0
M  V30 1530 H 134.235 -2.02322 -1.54719 0
M  V30 1531 H 135.018 -3.38418 -0.576927 0
M  V30 1532 N 137.463 0.71206 -1.40597 0
M  V30 1533 C 138.71 1.47197 -1.39065 0
M  V30 1534 C 139.038 1.94499 0.00583891 0
M  V30 1535 O 138.293 1.68752 0.99102 0
M  V30 1536 C 138.592 2.71039 -2.32965 0
M  V30 1537 C 138.258 2.42484 -3.80148 0
M  V30 1538 C 136.92 2.34406 -4.20247 0
M  V30 1539 C 139.272 2.18598 -4.73143 0
M  V30 1540 C 136.6 2.00516 -5.51371 0
M  V30 1541 C 138.952 1.8622 -6.0457 0
M  V30 1542 C 137.616 1.76626 -6.43708 0
M  V30 1543 H 136.886 0.538634 -0.508876 0
M  V30 1544 H 139.533 0.815325 -1.73276 0
M  V30 1545 H 137.838 3.41558 -1.91951 0
M  V30 1546 H 139.535 3.29138 -2.29061 0
M  V30 1547 H 136.125 2.49659 -3.4838 0
M  V30 1548 H 140.309 2.23793 -4.42979 0
M  V30 1549 H 135.565 1.91628 -5.80593 0
M  V30 1550 H 139.739 1.66752 -6.76141 0
M  V30 1551 H 137.366 1.50133 -7.45228 0
M  V30 1552 N 138.941 1.26152 0.944643 0
M  V30 1553 C 139.891 1.04081 2.02857 0
M  V30 1554 C 140.875 -0.0256555 1.6088 0
M  V30 1555 O 142.067 0.190884 1.75968 0
M  V30 1556 C 139.196 0.672118 3.36656 0
M  V30 1557 C 138.282 1.77586 3.85128 0
M  V30 1558 N 138.673 3.01272 4.06287 0
M  V30 1559 C 136.971 1.65867 4.1401 0
M  V30 1560 C 137.672 3.72983 4.46384 0
M  V30 1561 N 136.648 3.00653 4.52889 0
M  V30 1562 H 140.45 1.97968 2.17223 0
M  V30 1563 H 137.964 1.16618 1.13022 0
M  V30 1564 H 139.961 0.495166 4.13949 0
M  V30 1565 H 138.621 -0.259307 3.23663 0
M  V30 1566 H 139.632 3.37213 3.93075 0
M  V30 1567 H 136.309 0.796907 4.09824 0
M  V30 1568 H 137.699 4.792 4.70975 0
M  V30 1569 N 140.419 -1.14872 1.07899 0
M  V30 1570 C 141.665 -1.86064 0.806725 0
M  V30 1571 C 141.998 -1.82434 -0.665706 0
M  V30 1572 O 141.273 -1.25138 -1.48899 0
M  V30 1573 C 141.556 -3.34929 1.32267 0
M  V30 1574 C 141.409 -3.47161 2.86006 0
M  V30 1575 C 142.728 -4.29863 0.943717 0
M  V30 1576 H 139.847 -0.675591 0.294526 0
M  V30 1577 H 142.489 -1.34925 1.33773 0
M  V30 1578 H 140.639 -3.78611 0.870974 0
M  V30 1579 H 142.311 -3.12302 3.39507 0
M  V30 1580 H 140.554 -2.88539 3.23925 0
M  V30 1581 H 141.225 -4.51777 3.17177 0
M  V30 1582 H 143.701 -3.9417 1.33302 0
M  V30 1583 H 142.577 -5.32494 1.33198 0
M  V30 1584 H 142.838 -4.41846 -0.149796 0
M  V30 1585 N 141.898 -0.863906 -1.31812 0
M  V30 1586 C 142.828 -0.330843 -2.31144 0
M  V30 1587 C 143.809 0.575005 -1.60087 0
M  V30 1588 O 144.994 0.493304 -1.8783 0
M  V30 1589 C 142.124 0.47374 -3.44054 0
M  V30 1590 C 141.078 -0.338481 -4.26659 0
M  V30 1591 C 140.404 0.591412 -5.31419 0
M  V30 1592 C 141.704 -1.56926 -4.98168 0
M  V30 1593 H 143.398 -1.16086 -2.75979 0
M  V30 1594 H 140.944 -0.559657 -1.32679 0
M  V30 1595 H 142.897 0.857143 -4.12591 0
M  V30 1596 H 141.621 1.33721 -2.9797 0
M  V30 1597 H 140.28 -0.703754 -3.59782 0
M  V30 1598 H 139.928 1.45199 -4.81587 0
M  V30 1599 H 139.628 0.0519022 -5.87577 0
M  V30 1600 H 141.152 0.97179 -6.02817 0
M  V30 1601 H 142.566 -1.25764 -5.59336 0
M  V30 1602 H 140.963 -2.04739 -5.64094 0
M  V30 1603 H 142.033 -2.32544 -4.25501 0
M  V30 1604 N 143.376 1.44774 -0.622745 0
M  V30 1605 C 144.792 1.56986 -0.287652 0
M  V30 1606 C 144.992 1.61167 1.20944 0
M  V30 1607 O 144.048 1.55015 1.99315 0
M  V30 1608 C 145.361 2.84551 -0.972188 0
M  V30 1609 C 146.909 2.9825 -0.949536 0
M  V30 1610 C 147.384 4.28605 -1.61437 0
M  V30 1611 N 148.875 4.35399 -1.58057 0
M  V30 1612 C 149.61 5.34964 -2.064 0
M  V30 1613 N 149.106 6.40981 -2.62897 0
M  V30 1614 N 150.899 5.26419 -1.97078 0
M  V30 1615 H 143.05 1.40304 -1.59463 0
M  V30 1616 H 145.313 0.671794 -0.668878 0
M  V30 1617 H 145.019 2.87417 -2.02693 0
M  V30 1618 H 144.893 3.73807 -0.504771 0
M  V30 1619 H 147.28 2.94941 0.0967067 0
M  V30 1620 H 147.361 2.10364 -1.45536 0
M  V30 1621 H 147.005 4.32672 -2.66002 0
M  V30 1622 H 146.935 5.15334 -1.08344 0
M  V30 1623 H 149.426 3.59397 -1.16801 0
M  V30 1624 H 149.739 7.13225 -2.97539 0
M  V30 1625 H 148.084 6.4169 -2.66943 0
M  V30 1626 H 151.275 4.42504 -1.52669 0
M  V30 1627 H 151.448 6.03861 -2.35066 0
M  V30 1628 N 144.854 0.36279 1.53368 0
M  V30 1629 C 146.103 -0.22888 2.00397 0
M  V30 1630 C 146.416 -1.50096 1.25421 0
M  V30 1631 O 147.622 -2.17106 1.63025 0
M  V30 1632 C 146.078 -0.458417 3.56969 0
M  V30 1633 C 145.686 0.798877 4.4082 0
M  V30 1634 C 147.43 -1.00789 4.12361 0
M  V30 1635 C 145.337 0.539078 5.88938 0
M  V30 1636 H 144.267 -0.089305 0.748693 0
M  V30 1637 H 146.918 0.481099 1.77081 0
M  V30 1638 H 145.3 -1.22959 3.76427 0
M  V30 1639 H 146.474 1.57262 4.33134 0
M  V30 1640 H 144.789 1.27137 3.96516 0
M  V30 1641 H 147.386 -1.21754 5.20653 0
M  V30 1642 H 147.729 -1.9692 3.66781 0
M  V30 1643 H 148.262 -0.296961 3.9669 0
M  V30 1644 H 145.001 1.47064 6.3879 0
M  V30 1645 H 144.521 -0.196222 5.99479 0
M  V30 1646 H 146.2 0.163542 6.46793 0
M  V30 1647 N 146.332 -1.57332 0.0918853 0
M  V30 1648 C 147.28 -2.15075 -0.885747 0
M  V30 1649 C 148.274 -1.09277 -1.29441 0
M  V30 1650 O 149.48 -1.27627 -1.26931 0
M  V30 1651 H 145.855 -0.687966 -0.303656 0
M  V30 1652 H 147.826 -2.96047 -0.373995 0
M  V30 1653 C 146.575 -2.74325 -2.13638 0
M  V30 1654 H 145.898 -3.55418 -1.8308 0
M  V30 1655 H 147.338 -3.183 -2.80109 0
M  V30 1656 C 145.797 -1.70062 -2.90827 0
M  V30 1657 O 146.327 -1.13763 -3.85254 0
M  V30 1658 N 144.533 -1.40628 -2.54307 0
M  V30 1659 H 144.08 -1.866 -1.7759 0
M  V30 1660 H 144.038 -0.711043 -3.06254 0
M  V30 1661 N 147.81 0.181792 -1.56548 0
M  V30 1662 C 148.757 1.22521 -1.95595 0
M  V30 1663 C 149.727 1.4454 -0.818373 0
M  V30 1664 O 150.912 1.57454 -1.07763 0
M  V30 1665 C 148.052 2.56193 -2.31212 0
M  V30 1666 C 147.165 2.41641 -3.58097 0
M  V30 1667 C 146.3 3.68108 -3.82975 0
M  V30 1668 C 145.339 3.48445 -5.03242 0
M  V30 1669 N 144.476 4.66956 -5.24306 0
M  V30 1670 H 149.316 0.885226 -2.84548 0
M  V30 1671 H 146.853 0.425718 -1.40805 0
M  V30 1672 H 148.811 3.34088 -2.49882 0
M  V30 1673 H 147.441 2.88208 -1.45382 0
M  V30 1674 H 146.493 1.54976 -3.474 0
M  V30 1675 H 147.805 2.23052 -4.46149 0
M  V30 1676 H 146.959 4.54441 -4.01956 0
M  V30 1677 H 145.698 3.89666 -2.93278 0
M  V30 1678 H 144.703 2.60499 -4.8417 0
M  V30 1679 H 145.928 3.2832 -5.9446 0
M  V30 1680 H 143.874 4.88752 -4.37559 0
M  V30 1681 H 143.791 4.51242 -6.06561 0
M  V30 1682 H 145.059 5.54602 -5.47756 0
M  V30 1683 N 149.288 1.51039 0.449983 0
M  V30 1684 C 150.221 1.66105 1.56474 0
M  V30 1685 C 151.199 0.508776 1.54435 0
M  V30 1686 O 152.383 0.731005 1.73749 0
M  V30 1687 C 149.51 1.66304 2.9506 0
M  V30 1688 C 148.556 2.87346 3.15174 0
M  V30 1689 S 149.389 4.4835 2.92818 0
M  V30 1690 C 150.545 4.51274 4.33708 0
M  V30 1691 H 150.778 2.60397 1.43459 0
M  V30 1692 H 148.311 1.40565 0.638805 0
M  V30 1693 H 150.269 1.67103 3.74949 0
M  V30 1694 H 148.93 0.732108 3.05449 0
M  V30 1695 H 148.123 2.83849 4.16468 0
M  V30 1696 H 147.725 2.84223 2.43091 0
M  V30 1697 H 150.017 4.26136 5.26701 0
M  V30 1698 H 150.96 5.53017 4.42242 0
M  V30 1699 H 151.368 3.80738 4.16772 0
M  V30 1700 N 150.766 -0.704594 1.40972 0
M  V30 1701 C 151.696 -1.83124 1.44872 0
M  V30 1702 C 152.677 -1.67281 0.30838 0
M  V30 1703 O 153.862 -1.87149 0.518556 0
M  V30 1704 C 150.992 -3.21181 1.32136 0
M  V30 1705 C 149.946 -3.51714 2.43888 0
M  V30 1706 C 149.272 -4.89032 2.16222 0
M  V30 1707 C 150.572 -3.516 3.86232 0
M  V30 1708 H 152.266 -1.80117 2.39161 0
M  V30 1709 H 149.812 -0.865145 1.15114 0
M  V30 1710 H 151.765 -3.99702 1.33479 0
M  V30 1711 H 150.489 -3.24791 0.343279 0
M  V30 1712 H 149.148 -2.75539 2.41813 0
M  V30 1713 H 148.796 -4.89256 1.16778 0
M  V30 1714 H 148.496 -5.10426 2.911 0
M  V30 1715 H 150.02 -5.69873 2.19265 0
M  V30 1716 H 151.434 -4.2014 3.9007 0
M  V30 1717 H 149.831 -3.84523 4.60719 0
M  V30 1718 H 150.901 -2.50757 4.15029 0
M  V30 1719 N 152.244 -1.26651 -0.937939 0
M  V30 1720 C 153.469 -1.15279 -1.72411 0
M  V30 1721 C 153.894 0.287866 -1.85884 0
M  V30 1722 O 153.252 1.20855 -1.35143 0
M  V30 1723 C 153.3 -1.83028 -3.10698 0
M  V30 1724 O 152.404 -1.12128 -3.96864 0
M  V30 1725 H 151.745 -0.401504 -0.528858 0
M  V30 1726 H 154.275 -1.67531 -1.1745 0
M  V30 1727 H 154.285 -1.89981 -3.6107 0
M  V30 1728 H 152.96 -2.87833 -3.00208 0
M  V30 1729 H 151.537 -1.13173 -3.55312 0
M  V30 1730 N 153.722 1.14298 -1.08507 0
M  V30 1731 C 154.962 1.87016 -0.824894 0
M  V30 1732 C 155.326 1.81099 0.637735 0
M  V30 1733 O 156.527 2.48963 1.01345 0
M  V30 1734 C 154.798 3.31584 -1.33368 0
M  V30 1735 S 156.357 4.21903 -1.20596 0
M  V30 1736 H 153.175 0.645259 -0.2986 0
M  V30 1737 H 155.777 1.37822 -1.38656 0
M  V30 1738 H 154.481 3.33439 -2.39262 0
M  V30 1739 H 154.012 3.85836 -0.767734 0
M  V30 1740 H 156.027 4.95971 -0.150891 0
M  V30 1741 N 155.201 0.870884 1.31352 0
M  V30 1742 C 156.164 0.332243 2.26779 0
M  V30 1743 C 157.164 -0.517302 1.52252 0
M  V30 1744 O 158.354 -0.326477 1.71113 0
M  V30 1745 C 155.486 -0.528066 3.36785 0
M  V30 1746 H 156.679 1.17469 2.75937 0
M  V30 1747 H 154.232 0.64655 1.423 0
M  V30 1748 H 154.967 -1.39167 2.92922 0
M  V30 1749 H 154.752 0.0802582 3.92018 0
M  V30 1750 H 156.242 -0.897179 4.07849 0
M  V30 1751 N 156.679 -1.44442 0.630414 0
M  V30 1752 C 157.927 -2.01653 0.134351 0
M  V30 1753 C 158.248 -1.49836 -1.24796 0
M  V30 1754 O 157.518 -0.701684 -1.82902 0
M  V30 1755 H 156.098 -0.74554 0.0466769 0
M  V30 1756 H 158.76 -1.76952 0.816955 0
M  V30 1757 H 157.856 -3.11935 0.101498 0
M  V30 1758 N 158.157 -0.370918 -1.53173 0
M  V30 1759 C 159.12 0.460778 -2.24521 0
M  V30 1760 C 160.12 1.00536 -1.25496 0
M  V30 1761 O 161.31 0.890266 -1.49733 0
M  V30 1762 C 158.442 1.64457 -2.98608 0
M  V30 1763 H 159.635 -0.163613 -2.99453 0
M  V30 1764 H 157.188 -0.122699 -1.55818 0
M  V30 1765 H 157.923 2.30691 -2.2793 0
M  V30 1766 H 157.708 1.26099 -3.7127 0
M  V30 1767 H 159.198 2.23384 -3.5283 0
M  V30 1768 N 159.635 1.57281 -0.100228 0
M  V30 1769 C 160.912 1.86014 0.604812 0
M  V30 1770 C 161.292 0.998025 1.86018 0
M  V30 1771 O 160.64 0.0718184 2.28387 0
M  V30 1772 C 160.85 3.36784 0.915278 0
M  V30 1773 C 162.198 4.04957 1.27651 0
M  V30 1774 O 163.222 3.41695 1.00613 0
M  V30 1775 O 162.081 5.16593 1.7831 0
M  V30 1776 H 159.175 0.76942 0.303185 0
M  V30 1777 H 161.721 1.69176 -0.133313 0
M  V30 1778 H 160.493 3.91292 0.0248896 0
M  V30 1779 H 160.116 3.58987 1.70921 0
M  V30 1780 N 161.113 -0.173488 1.56642 0
M  V30 1781 C 162.529 -0.525174 1.50712 0
M  V30 1782 C 162.729 -1.8476 0.804107 0
M  V30 1783 O 161.785 -2.49869 0.363574 0
M  V30 1784 C 163.098 -0.559937 2.95441 0
M  V30 1785 C 164.646 -0.647288 3.06234 0
M  V30 1786 C 165.121 -0.712963 4.52417 0
M  V30 1787 N 166.612 -0.775911 4.56655 0
M  V30 1788 C 167.347 -0.847264 5.67106 0
M  V30 1789 N 166.843 -0.879585 6.87194 0
M  V30 1790 N 168.636 -0.886117 5.55071 0
M  V30 1791 H 160.787 0.693681 2.00753 0
M  V30 1792 H 163.05 0.249841 0.914485 0
M  V30 1793 H 162.756 0.343049 3.50023 0
M  V30 1794 H 162.63 -1.40718 3.49969 0
M  V30 1795 H 165.017 -1.5407 2.51687 0
M  V30 1796 H 165.098 0.226586 2.54794 0
M  V30 1797 H 164.742 0.176183 5.07594 0
M  V30 1798 H 164.672 -1.60295 5.0161 0
M  V30 1799 H 167.163 -0.759304 3.70193 0
M  V30 1800 H 167.476 -0.935144 7.67121 0
M  V30 1801 H 165.821 -0.847898 6.89808 0
M  V30 1802 H 169.012 -0.857853 4.60172 0
M  V30 1803 H 169.185 -0.938263 6.41171 0
M  V30 1804 N 162.591 -1.51276 -0.441967 0
M  V30 1805 C 163.521 -1.752 -1.54361 0
M  V30 1806 C 164.502 -0.601682 -1.59103 0
M  V30 1807 O 165.687 -0.843913 -1.74905 0
M  V30 1808 C 162.817 -1.87282 -2.92477 0
M  V30 1809 C 161.771 -3.02687 -3.02596 0
M  V30 1810 C 161.097 -2.99947 -4.42647 0
M  V30 1811 C 162.397 -4.4273 -2.77106 0
M  V30 1812 H 164.091 -2.67442 -1.34592 0
M  V30 1813 H 161.637 -1.28694 -0.646048 0
M  V30 1814 H 163.59 -2.02602 -3.695 0
M  V30 1815 H 162.314 -0.916844 -3.13467 0
M  V30 1816 H 160.973 -2.87065 -2.28012 0
M  V30 1817 H 160.621 -2.02136 -4.60597 0
M  V30 1818 H 160.321 -3.77439 -4.50348 0
M  V30 1819 H 161.845 -3.17354 -5.2165 0
M  V30 1820 H 163.259 -4.58727 -3.43864 0
M  V30 1821 H 161.656 -5.21893 -2.96222 0
M  V30 1822 H 162.726 -4.53087 -1.72744 0
M  V30 1823 N 164.069 0.697108 -1.41344 0
M  V30 1824 C 165.001 1.8224 -1.39001 0
M  V30 1825 C 166.014 1.60152 -0.292428 0
M  V30 1826 O 167.203 1.69684 -0.554048 0
M  V30 1827 C 164.303 3.18976 -1.14489 0
M  V30 1828 C 163.476 3.68105 -2.36258 0
M  V30 1829 C 162.535 4.83506 -2.07625 0
M  V30 1830 O 161.561 4.95201 -2.8065 0
M  V30 1831 N 162.763 5.70637 -1.06555 0
M  V30 1832 H 165.528 1.84742 -2.35988 0
M  V30 1833 H 163.089 0.87937 -1.35936 0
M  V30 1834 H 165.081 3.93801 -0.932885 0
M  V30 1835 H 163.651 3.11508 -0.261043 0
M  V30 1836 H 162.871 2.84204 -2.7317 0
M  V30 1837 H 164.159 3.97667 -3.17393 0
M  V30 1838 H 163.557 5.63817 -0.461125 0
M  V30 1839 H 162.114 6.45368 -0.913444 0
M  V30 1840 N 165.547 1.27147 0.931209 0
M  V30 1841 C 166.775 1.16082 1.71267 0
M  V30 1842 C 167.19 -0.282772 1.8667 0
M  V30 1843 O 166.547 -1.19283 1.38122 0
M  V30 1844 C 166.598 1.8358 3.11417 0
M  V30 1845 O 166.319 3.22299 2.96741 0
M  V30 1846 C 167.82 1.78597 4.05732 0
M  V30 1847 H 165.04 0.403758 0.535929 0
M  V30 1848 H 167.584 1.67953 1.16671 0
M  V30 1849 H 165.739 1.35623 3.62885 0
M  V30 1850 H 166.153 3.55851 3.85319 0
M  V30 1851 H 167.627 2.30444 5.01597 0
M  V30 1852 H 168.104 0.754564 4.3267 0
M  V30 1853 H 168.71 2.26152 3.60188 0
M  V30 1854 N 167.025 -1.13721 1.09112 0
M  V30 1855 C 168.273 -1.84559 0.823562 0
M  V30 1856 C 168.594 -1.83754 -0.652658 0
M  V30 1857 O 167.864 -1.29102 -1.47342 0
M  V30 1858 H 166.444 -0.683376 0.301673 0
M  V30 1859 H 169.106 -1.37771 1.37859 0
M  V30 1860 H 168.202 -2.8917 1.17419 0
M  V30 1861 N 168.503 -0.877838 -1.30888 0
M  V30 1862 C 169.436 -0.283995 -2.26426 0
M  V30 1863 C 170.414 0.591361 -1.51465 0
M  V30 1864 O 171.598 0.54304 -1.80509 0
M  V30 1865 C 168.725 0.597129 -3.33395 0
M  V30 1866 C 167.771 -0.207937 -4.25993 0
M  V30 1867 S 168.604 -1.59158 -5.11301 0
M  V30 1868 C 169.76 -0.716791 -6.21782 0
M  V30 1869 H 169.993 -1.09383 -2.76446 0
M  V30 1870 H 167.526 -0.676828 -1.38775 0
M  V30 1871 H 169.484 1.09978 -3.95493 0
M  V30 1872 H 168.145 1.38099 -2.82113 0
M  V30 1873 H 167.338 0.464163 -5.01858 0
M  V30 1874 H 166.94 -0.642963 -3.68432 0
M  V30 1875 H 169.232 0.0692833 -6.77465 0
M  V30 1876 H 170.175 -1.44682 -6.93161 0
M  V30 1877 H 170.583 -0.280855 -5.63801 0
M  V30 1878 N 169.982 1.44106 -0.638065 0
M  V30 1879 C 171.398 1.56672 -0.304286 0
M  V30 1880 C 171.598 1.6244 1.19228 0
M  V30 1881 O 170.654 1.57121 1.9766 0
M  V30 1882 C 171.967 2.83503 -1.00231 0
M  V30 1883 C 173.515 2.97226 -0.981116 0
M  V30 1884 C 173.99 4.26868 -1.65974 0
M  V30 1885 N 175.481 4.33698 -1.62666 0
M  V30 1886 C 176.216 5.32745 -2.12063 0
M  V30 1887 N 175.712 6.38157 -2.6968 0
M  V30 1888 N 177.505 5.24299 -2.02651 0
M  V30 1889 H 169.656 1.38605 -1.60942 0
M  V30 1890 H 171.919 0.664661 -0.675965 0
M  V30 1891 H 171.625 2.85251 -2.0573 0
M  V30 1892 H 171.499 3.73251 -0.54439 0
M  V30 1893 H 173.886 2.95027 0.0654188 0
M  V30 1894 H 173.967 2.08808 -1.47759 0
M  V30 1895 H 173.611 4.29826 -2.70576 0
M  V30 1896 H 173.541 5.14156 -1.13804 0
M  V30 1897 H 176.032 3.58138 -1.20606 0
M  V30 1898 H 176.345 7.10029 -3.05087 0
M  V30 1899 H 174.69 6.38823 -2.73734 0
M  V30 1900 H 177.881 4.4086 -1.57353 0
M  V30 1901 H 178.054 6.01334 -2.41457 0
M  V30 1902 N 171.46 0.379036 1.52974 0
M  V30 1903 C 172.708 -0.206014 2.01047 0
M  V30 1904 C 173.029 -1.48175 1.26765 0
M  V30 1905 O 172.299 -1.92085 0.384743 0
M  V30 1906 H 170.879 -0.0791184 0.742798 0
M  V30 1907 H 173.541 0.508366 1.88153 0
M  V30 1908 H 172.637 -0.423501 3.09213 0
M  V30 1909 N 172.938 -1.57226 0.108567 0
M  V30 1910 C 173.901 -2.13602 -0.831082 0
M  V30 1911 C 174.901 -1.06841 -1.20173 0
M  V30 1912 O 176.091 -1.32666 -1.12895 0
M  V30 1913 C 173.223 -2.66769 -2.12243 0
M  V30 1914 H 174.416 -2.97951 -0.341317 0
M  V30 1915 H 171.969 -1.55667 -0.14057 0
M  V30 1916 H 172.704 -1.85977 -2.65675 0
M  V30 1917 H 172.489 -3.44839 -1.86625 0
M  V30 1918 H 173.979 -3.10332 -2.79435 0
M  V30 1919 N 174.416 0.165178 -1.56732 0
M  V30 1920 C 175.663 0.880807 -1.8234 0
M  V30 1921 C 175.991 1.81977 -0.686621 0
M  V30 1922 O 175.246 1.92971 0.325697 0
M  V30 1923 C 175.545 1.70405 -3.1416 0
M  V30 1924 C 175.211 0.913475 -4.4155 0
M  V30 1925 C 173.873 0.695303 -4.7615 0
M  V30 1926 C 176.225 0.359349 -5.1996 0
M  V30 1927 C 173.553 -0.0879947 -5.86634 0
M  V30 1928 C 175.905 -0.410893 -6.31264 0
M  V30 1929 C 174.569 -0.639808 -6.64427 0
M  V30 1930 H 173.839 0.32231 -0.667231 0
M  V30 1931 H 176.486 0.145402 -1.90947 0
M  V30 1932 H 174.791 2.50903 -3.00923 0
M  V30 1933 H 176.488 2.26091 -3.31186 0
M  V30 1934 H 173.078 1.09357 -4.14414 0
M  V30 1935 H 177.262 0.515228 -4.93618 0
M  V30 1936 H 172.518 -0.27503 -6.10781 0
M  V30 1937 H 176.692 -0.847494 -6.91224 0
M  V30 1938 H 174.319 -1.24864 -7.49875 0
M  V30 1939 N 175.894 1.51508 0.433938 0
M  V30 1940 C 177.142 1.6402 1.18075 0
M  V30 1941 C 177.463 0.360328 1.91642 0
M  V30 1942 O 176.733 -0.623945 1.85698 0
M  V30 1943 H 175.313 0.6045 0.43885 0
M  V30 1944 H 177.975 1.88452 0.497178 0
M  V30 1945 H 177.071 2.46949 1.90847 0
M  V30 1946 N 177.372 -0.689602 1.41712 0
M  V30 1947 C 178.319 -1.80345 1.44029 0
M  V30 1948 C 179.289 -1.63478 0.293948 0
M  V30 1949 O 180.474 -1.84244 0.495869 0
M  V30 1950 C 177.614 -3.18272 1.33405 0
M  V30 1951 C 176.727 -3.46529 2.57956 0
M  V30 1952 C 175.862 -4.74103 2.39582 0
M  V30 1953 C 174.901 -4.95347 3.5958 0
M  V30 1954 N 174.038 -6.14151 3.40239 0
M  V30 1955 H 178.878 -1.77698 2.39222 0
M  V30 1956 H 176.415 -0.867688 1.18784 0
M  V30 1957 H 178.373 -3.97956 1.25246 0
M  V30 1958 H 177.003 -3.2008 0.418164 0
M  V30 1959 H 176.055 -2.61207 2.76542 0
M  V30 1960 H 177.367 -3.58126 3.47199 0
M  V30 1961 H 176.521 -5.61853 2.28924 0
M  V30 1962 H 175.26 -4.64763 1.47805 0
M  V30 1963 H 174.265 -4.06044 3.70686 0
M  V30 1964 H 175.49 -5.06542 4.52318 0
M  V30 1965 H 173.436 -6.06013 2.51167 0
M  V30 1966 H 173.353 -6.26543 4.23061 0
M  V30 1967 H 174.621 -7.04619 3.33365 0
M  V30 1968 N 178.85 -1.27639 -0.924453 0
M  V30 1969 C 180.261 -1.12834 -1.48746 0
M  V30 1970 C 180.612 0.285505 -1.94112 0
M  V30 1971 O 179.737 1.17874 -1.81479 0
M  V30 1972 C 180.332 -2.04217 -2.70334 0
M  V30 1973 C 178.891 -1.93509 -3.22848 0
M  V30 1974 C 178.038 -1.96583 -1.95577 0
M  V30 1975 H 180.989 -1.40484 -0.738233 0
M  V30 1976 H 181.01 -1.59989 -3.4523 0
M  V30 1977 H 180.522 -3.07111 -2.37285 0
M  V30 1978 H 178.623 -0.936131 -3.60649 0
M  V30 1979 H 178.736 -2.79917 -3.88823 0
M  V30 1980 H 177.1 -1.4085 -2.12211 0
M  V30 1981 H 177.883 -3.01137 -1.64837 0
M  V30 1982 N 180.328 1.1314 -1.09713 0
M  V30 1983 C 181.276 2.20717 -0.733934 0
M  V30 1984 C 182.27 1.6729 0.266506 0
M  V30 1985 O 183.476 1.79547 0.127656 0
M  V30 1986 H 179.851 0.719292 -0.21937 0
M  V30 1987 H 181.822 2.48611 -1.6503 0
M  V30 1988 C 180.571 3.47265 -0.173849 0
M  V30 1989 H 179.894 3.88716 -0.934873 0
M  V30 1990 H 181.334 4.23979 0.0423126 0
M  V30 1991 C 179.793 3.18724 1.09164 0
M  V30 1992 O 180.323 3.37762 2.17439 0
M  V30 1993 N 178.529 2.72583 1.00732 0
M  V30 1994 H 178.076 2.57291 0.126121 0
M  V30 1995 H 178.034 2.53862 1.85476 0
M  V30 1996 N 181.806 0.884767 1.30421 0
M  V30 1997 C 183.054 0.502112 1.95763 0
M  V30 1998 C 183.375 -0.951815 1.70192 0
M  V30 1999 O 182.645 -1.6692 1.0254 0
M  V30 2000 H 181.225 0.182694 0.724315 0
M  V30 2001 H 183.887 1.1278 1.58955 0
M  V30 2002 H 182.983 0.672188 3.04775 0
M  V30 2003 N 183.284 -1.43765 0.645699 0
M  V30 2004 C 184.53 -2.02197 0.156271 0
M  V30 2005 C 184.863 -1.50776 -1.22393 0
M  V30 2006 O 184.138 -0.697771 -1.81553 0
M  V30 2007 C 184.421 -3.59749 0.158872 0
M  V30 2008 C 184.274 -4.21419 1.57245 0
M  V30 2009 C 185.593 -4.37149 -0.50879 0
M  V30 2010 H 182.712 -0.734694 0.0582602 0
M  V30 2011 H 185.354 -1.71157 0.824951 0
M  V30 2012 H 183.504 -3.86325 -0.410525 0
M  V30 2013 H 185.176 -4.059 2.19186 0
M  V30 2014 H 183.419 -3.78356 2.122 0
M  V30 2015 H 184.09 -5.30482 1.52619 0
M  V30 2016 H 186.566 -4.16093 -0.024412 0
M  V30 2017 H 185.442 -5.4683 -0.476213 0
M  V30 2018 H 185.703 -4.12839 -1.58165 0
M  V30 2019 N 184.763 -0.387143 -1.52771 0
M  V30 2020 C 186.009 0.196025 -2.0185 0
M  V30 2021 C 186.342 1.46641 -1.27319 0
M  V30 2022 O 185.617 1.90889 -0.373032 0
M  V30 2023 C 185.9 0.466136 -3.5707 0
M  V30 2024 C 185.753 -0.819385 -4.42274 0
M  V30 2025 C 187.072 1.25768 -4.21747 0
M  V30 2026 H 184.191 0.0697708 -0.73369 0
M  V30 2027 H 186.833 -0.516286 -1.82851 0
M  V30 2028 H 184.983 1.07293 -3.7339 0
M  V30 2029 H 186.655 -1.4563 -4.37709 0
M  V30 2030 H 184.898 -1.43517 -4.09372 0
M  V30 2031 H 185.569 -0.585065 -5.48891 0
M  V30 2032 H 188.045 0.744167 -4.09391 0
M  V30 2033 H 186.921 1.41541 -5.30337 0
M  V30 2034 H 187.182 2.27228 -3.79236 0
M  V30 2035 N 186.241 1.57166 -0.116904 0
M  V30 2036 C 187.204 2.14039 0.819742 0
M  V30 2037 C 188.204 1.07477 1.19605 0
M  V30 2038 O 189.394 1.33263 1.1219 0
M  V30 2039 C 186.526 2.67891 2.10826 0
M  V30 2040 H 187.719 2.98128 0.325511 0
M  V30 2041 H 185.272 1.55739 0.132312 0
M  V30 2042 H 186.007 1.87384 2.64685 0
M  V30 2043 H 185.792 3.45823 1.84793 0
M  V30 2044 H 187.282 3.11809 2.77785 0
M  V30 2045 N 187.719 -0.156864 1.56817 0
M  V30 2046 C 189.135 -0.50916 1.5126 0
M  V30 2047 C 189.335 -1.83897 0.823658 0
M  V30 2048 O 188.391 -2.49469 0.390055 0
M  V30 2049 C 189.704 -0.52857 2.96018 0
M  V30 2050 C 191.252 -0.614771 3.06903 0
M  V30 2051 C 191.727 -0.664938 4.53147 0
M  V30 2052 N 193.218 -0.727433 4.57452 0
M  V30 2053 C 193.953 -0.787067 5.67973 0
M  V30 2054 N 193.449 -0.806649 6.88088 0
M  V30 2055 N 195.242 -0.827195 5.5598 0
M  V30 2056 H 187.393 0.714935 2.00006 0
M  V30 2057 H 189.656 0.259526 0.911784 0
M  V30 2058 H 189.362 0.380154 3.49639 0
M  V30 2059 H 189.236 -1.36998 3.51442 0
M  V30 2060 H 191.623 -1.51392 2.53307 0
M  V30 2061 H 191.704 0.253597 2.5454 0
M  V30 2062 H 191.348 0.230011 5.07379 0
M  V30 2063 H 191.278 -1.54966 5.03282 0
M  V30 2064 H 193.769 -0.719998 3.70978 0
M  V30 2065 H 194.082 -0.853727 7.6807 0
M  V30 2066 H 192.427 -0.774687 6.90669 0
M  V30 2067 H 195.618 -0.808998 4.61056 0
M  V30 2068 H 195.791 -0.870206 6.4213 0
M  V30 2069 N 189.197 -1.51736 -0.425897 0
M  V30 2070 C 190.443 -1.65214 -1.1761 0
M  V30 2071 C 190.776 -0.372778 -1.90589 0
M  V30 2072 O 190.051 0.628139 -1.84078 0
M  V30 2073 C 190.334 -2.86312 -2.18398 0
M  V30 2074 C 190.187 -4.24254 -1.49426 0
M  V30 2075 C 191.506 -3.02925 -3.19256 0
M  V30 2076 H 188.625 -0.601263 -0.426206 0
M  V30 2077 H 191.267 -1.8425 -0.463882 0
M  V30 2078 H 189.417 -2.70213 -2.79137 0
M  V30 2079 H 191.089 -4.52046 -0.919362 0
M  V30 2080 H 189.332 -4.26426 -0.796432 0
M  V30 2081 H 190.003 -5.05001 -2.22885 0
M  V30 2082 H 192.479 -3.1781 -2.68581 0
M  V30 2083 H 191.355 -3.89199 -3.8706 0
M  V30 2084 H 191.616 -2.15497 -3.86023 0
M  V30 2085 N 190.675 0.682077 -1.42076 0
M  V30 2086 C 191.952 1.43755 -1.32642 0
M  V30 2087 C 192.332 2.11063 0.0396611 0
M  V30 2088 O 191.68 2.02701 1.05474 0
M  V30 2089 C 191.89 2.44596 -2.48946 0
M  V30 2090 C 193.238 3.09454 -2.9073 0
M  V30 2091 O 194.262 2.54922 -2.48783 0
M  V30 2092 O 193.121 4.08253 -3.63307 0
M  V30 2093 H 190.215 0.640857 -0.522715 0
M  V30 2094 H 192.761 0.711415 -1.54068 0
M  V30 2095 H 191.533 1.93609 -3.40046 0
M  V30 2096 H 191.156 3.24701 -2.29467 0
M  V30 2097 N 192.153 1.28127 0.917671 0
M  V30 2098 C 193.402 1.14432 1.66097 0
M  V30 2099 C 193.715 -0.307247 1.93172 0
M  V30 2100 O 194.921 -0.565259 2.65551 0
M  V30 2101 C 193.377 2.00015 2.99202 0
M  V30 2102 C 192.985 3.49889 2.79789 0
M  V30 2103 C 194.729 1.94996 3.77064 0
M  V30 2104 C 192.636 4.27636 4.08511 0
M  V30 2105 H 191.566 0.424662 0.62304 0
M  V30 2106 H 194.217 1.52628 1.01868 0
M  V30 2107 H 192.599 1.54672 3.64544 0
M  V30 2108 H 193.773 4.03162 2.23152 0
M  V30 2109 H 192.088 3.56392 2.15345 0
M  V30 2110 H 194.685 2.50354 4.72469 0
M  V30 2111 H 195.028 0.925819 4.05875 0
M  V30 2112 H 195.561 2.38287 3.18534 0
M  V30 2113 H 192.3 5.30615 3.84874 0
M  V30 2114 H 191.82 3.79137 4.64774 0
M  V30 2115 H 193.499 4.37346 4.76799 0
M  V30 2116 N 193.631 -1.12557 1.10312 0
M  V30 2117 C 194.879 -1.83675 0.843091 0
M  V30 2118 C 195.2 -1.84435 -0.633131 0
M  V30 2119 O 194.47 -1.30657 -1.45964 0
M  V30 2120 H 193.05 -0.680138 0.308904 0
M  V30 2121 H 195.712 -1.36301 1.39313 0
M  V30 2122 H 194.808 -2.87908 1.2048 0
M  V30 2123 N 195.109 -0.891671 -1.2995 0
M  V30 2124 C 196.041 -0.320695 -2.26945 0
M  V30 2125 C 197.054 0.528497 -1.53983 0
M  V30 2126 O 198.243 0.346959 -1.75096 0
M  V30 2127 C 195.343 0.562066 -3.34207 0
M  V30 2128 C 194.516 -0.259576 -4.36629 0
M  V30 2129 C 193.575 0.554739 -5.23268 0
M  V30 2130 O 192.601 -0.0249311 -5.69195 0
M  V30 2131 N 193.803 1.8625 -5.4981 0
M  V30 2132 H 196.568 -1.15432 -2.76578 0
M  V30 2133 H 194.129 -0.755336 -1.432 0
M  V30 2134 H 196.121 1.11304 -3.89093 0
M  V30 2135 H 194.691 1.29637 -2.84452 0
M  V30 2136 H 193.911 -0.991986 -3.81514 0
M  V30 2137 H 195.199 -0.822564 -5.02107 0
M  V30 2138 H 194.597 2.35628 -5.14292 0
M  V30 2139 H 193.154 2.36078 -6.07545 0
M  V30 2140 N 196.587 1.43421 -0.653314 0
M  V30 2141 C 197.833 2.02111 -0.166992 0
M  V30 2142 C 198.166 1.51423 1.21592 0
M  V30 2143 O 197.441 0.707389 1.8118 0
M  V30 2144 C 197.724 3.5966 -0.177948 0
M  V30 2145 C 197.577 4.20579 -1.59478 0
M  V30 2146 C 198.896 4.37413 0.4856 0
M  V30 2147 H 196.015 0.734374 -0.0621557 0
M  V30 2148 H 198.657 1.70717 -0.834016 0
M  V30 2149 H 196.807 3.86537 0.390032 0
M  V30 2150 H 198.479 4.04732 -2.21336 0
M  V30 2151 H 196.722 3.77226 -2.14204 0
M  V30 2152 H 197.393 5.29665 -1.5543 0
M  V30 2153 H 199.869 4.161 0.00234528 0
M  V30 2154 H 198.745 5.47075 0.447207 0
M  V30 2155 H 199.006 4.13672 1.55974 0
M  V30 2156 N 198.065 0.39524 1.52563 0
M  V30 2157 C 198.995 -0.428384 2.29537 0
M  V30 2158 C 199.976 -1.05831 1.33169 0
M  V30 2159 O 201.161 -1.06995 1.62067 0
M  V30 2160 C 198.291 -1.55274 3.10656 0
M  V30 2161 C 197.245 -1.04855 4.14957 0
M  V30 2162 C 196.571 -2.26543 4.84337 0
M  V30 2163 C 197.871 -0.112324 5.22179 0
M  V30 2164 H 199.565 0.213867 2.98635 0
M  V30 2165 H 197.111 0.104298 1.43622 0
M  V30 2166 H 199.064 -2.1358 3.63265 0
M  V30 2167 H 197.788 -2.22266 2.39302 0
M  V30 2168 H 196.447 -0.487985 3.63338 0
M  V30 2169 H 196.095 -2.92059 4.09525 0
M  V30 2170 H 195.795 -1.93466 5.54837 0
M  V30 2171 H 197.319 -2.85481 5.39753 0
M  V30 2172 H 198.733 -0.603752 5.70112 0
M  V30 2173 H 197.13 0.128968 5.99961 0
M  V30 2174 H 198.2 0.837052 4.77621 0
M  V30 2175 N 199.544 -1.57102 0.125237 0
M  V30 2176 C 200.474 -2.18659 -0.819174 0
M  V30 2177 C 201.455 -1.12843 -1.27281 0
M  V30 2178 O 202.64 -1.41104 -1.33429 0
M  V30 2179 C 199.77 -2.79096 -2.06695 0
M  V30 2180 C 198.724 -3.90548 -1.75088 0
M  V30 2181 C 198.05 -4.37821 -3.06948 0
M  V30 2182 C 199.35 -5.12356 -1.01435 0
M  V30 2183 H 201.044 -2.9783 -0.306202 0
M  V30 2184 H 198.59 -1.4326 -0.145839 0
M  V30 2185 H 200.543 -3.2082 -2.73226 0
M  V30 2186 H 199.267 -1.97223 -2.60328 0
M  V30 2187 H 197.926 -3.49409 -1.10944 0
M  V30 2188 H 197.574 -3.52799 -3.58527 0
M  V30 2189 H 197.274 -5.12982 -2.86571 0
M  V30 2190 H 198.798 -4.822 -3.74587 0
M  V30 2191 H 200.212 -5.5106 -1.58132 0
M  V30 2192 H 198.609 -5.9314 -0.911319 0
M  V30 2193 H 199.679 -4.849 -0.00218681 0
M  V30 2194 N 201.022 0.148545 -1.56898 0
M  V30 2195 C 202.247 0.880385 -1.87787 0
M  V30 2196 C 202.672 1.74018 -0.714093 0
M  V30 2197 O 202.03 1.78153 0.336343 0
M  V30 2198 C 202.078 1.71422 -3.17249 0
M  V30 2199 O 201.182 2.8183 -3.01074 0
M  V30 2200 H 200.523 0.245301 -0.617028 0
M  V30 2201 H 203.053 0.139826 -2.04122 0
M  V30 2202 H 203.063 2.10954 -3.49231 0
M  V30 2203 H 201.738 1.08284 -4.01556 0
M  V30 2204 H 200.315 2.45715 -2.80497 0
M  V30 2205 N 202.5 1.5196 0.417844 0
M  V30 2206 C 203.749 1.6482 1.16264 0
M  V30 2207 C 204.062 0.379886 1.91876 0
M  V30 2208 O 205.268 0.388154 2.68711 0
M  V30 2209 C 203.724 2.91161 2.1155 0
M  V30 2210 C 203.332 4.25068 1.41495 0
M  V30 2211 C 205.076 3.13383 2.86341 0
M  V30 2212 C 202.983 5.42541 2.35379 0
M  V30 2213 H 201.913 0.613954 0.437694 0
M  V30 2214 H 204.564 1.78442 0.427871 0
M  V30 2215 H 202.946 2.71218 2.88543 0
M  V30 2216 H 204.12 4.55463 0.699263 0
M  V30 2217 H 202.435 4.0888 0.787792 0
M  V30 2218 H 205.032 3.98324 3.5671 0
M  V30 2219 H 205.375 2.27256 3.48798 0
M  V30 2220 H 205.908 3.33757 2.1645 0
M  V30 2221 H 202.647 6.30987 1.77582 0
M  V30 2222 H 202.167 5.16497 3.04945 0
M  V30 2223 H 203.846 5.75272 2.96093 0
M  V30 2224 N 203.978 -0.674533 1.42435 0
M  V30 2225 C 205.394 -0.98769 1.25367 0
M  V30 2226 C 205.594 -2.00879 0.158044 0
M  V30 2227 O 204.65 -2.48075 -0.470633 0
M  V30 2228 C 205.963 -1.49224 2.6106 0
M  V30 2229 C 207.511 -1.61 2.68417 0
M  V30 2230 C 207.986 -2.14852 4.04478 0
M  V30 2231 N 209.477 -2.22185 4.06434 0
M  V30 2232 C 210.212 -2.64928 5.08528 0
M  V30 2233 N 209.708 -3.07121 6.21006 0
M  V30 2234 N 211.501 -2.64679 4.95885 0
M  V30 2235 H 203.652 0.00152503 2.124 0
M  V30 2236 H 205.915 -0.0618434 0.945981 0
M  V30 2237 H 205.621 -0.816453 3.42092 0
M  V30 2238 H 205.495 -2.47094 2.84999 0
M  V30 2239 H 207.882 -2.27686 1.87732 0
M  V30 2240 H 207.963 -0.616195 2.48267 0
M  V30 2241 H 207.607 -1.48775 4.85622 0
M  V30 2242 H 207.537 -3.15024 4.2198 0
M  V30 2243 H 210.028 -1.92435 3.25234 0
M  V30 2244 H 210.341 -3.38423 6.94759 0
M  V30 2245 H 208.686 -3.04978 6.24511 0
M  V30 2246 H 211.877 -2.31078 4.07088 0
M  V30 2247 H 212.05 -2.9767 5.75584 0
M  V30 2248 N 205.456 -1.28612 -0.910864 0
M  V30 2249 C 206.684 -1.18792 -1.69399 0
M  V30 2250 C 207.099 0.253039 -1.87097 0
M  V30 2251 O 206.456 1.17071 -1.40003 0
M  V30 2252 C 206.507 -1.88511 -3.08457 0
M  V30 2253 O 206.228 -3.26979 -2.91576 0
M  V30 2254 C 207.729 -1.85029 -4.02839 0
M  V30 2255 H 204.949 -0.412233 -0.529438 0
M  V30 2256 H 207.493 -1.69788 -1.13984 0
M  V30 2257 H 205.648 -1.41379 -3.60681 0
M  V30 2258 H 206.062 -3.61936 -3.79608 0
M  V30 2259 H 207.536 -2.38395 -4.97867 0
M  V30 2260 H 208.013 -0.823303 -4.31414 0
M  V30 2261 H 208.619 -2.31853 -3.56545 0
M  V30 2262 N 206.934 1.1197 -1.10907 0
M  V30 2263 C 207.881 2.17846 -0.762345 0
M  V30 2264 C 208.851 1.63995 0.263599 0
M  V30 2265 O 210.036 1.90273 0.141773 0
M  V30 2266 C 207.176 3.44487 -0.205651 0
M  V30 2267 C 206.289 4.12369 -1.28748 0
M  V30 2268 C 205.424 5.26674 -0.691919 0
M  V30 2269 C 204.463 5.86431 -1.75399 0
M  V30 2270 N 203.6 6.92142 -1.17833 0
M  V30 2271 H 208.44 2.46851 -1.6694 0
M  V30 2272 H 205.977 1.21188 -0.833776 0
M  V30 2273 H 207.935 4.16981 0.135037 0
M  V30 2274 H 206.565 3.15884 0.664613 0
M  V30 2275 H 205.617 3.38003 -1.74522 0
M  V30 2276 H 206.929 4.52844 -2.09125 0
M  V30 2277 H 206.083 6.05953 -0.300963 0
M  V30 2278 H 204.822 4.8749 0.143232 0
M  V30 2279 H 203.827 5.05835 -2.15432 0
M  V30 2280 H 205.052 6.27685 -2.59208 0
M  V30 2281 H 202.998 6.54985 -0.364725 0
M  V30 2282 H 202.915 7.31242 -1.91887 0
M  V30 2283 H 204.183 7.75237 -0.81408 0
M  V30 2284 N 208.412 0.89855 1.29475 0
M  V30 2285 C 209.322 0.379974 2.31502 0
M  V30 2286 C 210.338 -0.524695 1.659 0
M  V30 2287 O 211.514 -0.414551 1.97087 0
M  V30 2288 C 208.579 -0.385138 3.44554 0
M  V30 2289 C 207.64 0.550914 4.2575 0
M  V30 2290 C 206.873 -0.177778 5.33404 0
M  V30 2291 O 207.096 -1.40189 5.52904 0
M  V30 2292 O 206.03 0.479106 5.9999 0
M  V30 2293 H 209.856 1.22639 2.77837 0
M  V30 2294 H 207.441 0.662834 1.33891 0
M  V30 2295 H 209.323 -0.817841 4.13388 0
M  V30 2296 H 207.998 -1.20763 3.0033 0
M  V30 2297 H 206.905 1.03271 3.59564 0
M  V30 2298 H 208.238 1.33979 4.73614 0
M  V30 2299 N 209.89 -1.43072 0.660911 0
M  V30 2300 C 210.838 -2.32569 -0.0378199 0
M  V30 2301 C 211.832 -1.49046 -0.805092 0
M  V30 2302 O 213.038 -1.65206 -0.714624 0
M  V30 2303 H 209.413 -0.75136 -0.031019 0
M  V30 2304 H 211.384 -2.89216 0.734609 0
M  V30 2305 C 210.133 -3.33453 -0.985124 0
M  V30 2306 H 209.456 -3.97752 -0.404147 0
M  V30 2307 H 210.896 -3.98691 -1.44297 0
M  V30 2308 C 209.355 -2.64642 -2.08486 0
M  V30 2309 O 209.885 -2.46776 -3.16961 0
M  V30 2310 N 208.091 -2.23891 -1.8526 0
M  V30 2311 H 207.638 -2.38621 -0.970449 0
M  V30 2312 H 207.596 -1.78181 -2.59034 0
M  V30 2313 N 211.368 -0.403325 -1.52352 0
M  V30 2314 C 212.615 0.174347 -2.01748 0
M  V30 2315 C 212.943 1.45636 -1.2892 0
M  V30 2316 O 212.198 1.9193 -0.382258 0
M  V30 2317 C 212.497 0.474665 -3.54234 0
M  V30 2318 C 212.163 -0.717458 -4.45155 0
M  V30 2319 C 210.825 -1.04447 -4.69728 0
M  V30 2320 C 213.177 -1.51432 -4.98716 0
M  V30 2321 C 210.505 -2.16963 -5.45109 0
M  V30 2322 C 212.857 -2.6302 -5.75329 0
M  V30 2323 C 211.521 -2.96213 -5.98175 0
M  V30 2324 H 210.791 0.0637981 -0.738248 0
M  V30 2325 H 213.438 -0.543553 -1.83624 0
M  V30 2326 H 211.743 1.27406 -3.70506 0
M  V30 2327 H 213.44 0.934496 -3.89959 0
M  V30 2328 H 210.03 -0.452596 -4.26204 0
M  V30 2329 H 214.214 -1.27491 -4.79645 0
M  V30 2330 H 209.47 -2.43034 -5.61021 0
M  V30 2331 H 213.644 -3.25158 -6.15829 0
M  V30 2332 H 211.271 -3.83516 -6.56368 0
M  V30 2333 N 212.846 1.57033 -0.133567 0
M  V30 2334 C 214.092 1.95976 0.521649 0
M  V30 2335 C 214.425 1.01779 1.65393 0
M  V30 2336 O 213.7 0.0576581 1.94415 0
M  V30 2337 C 213.983 3.44738 1.04057 0
M  V30 2338 C 213.836 4.49711 -0.0892897 0
M  V30 2339 C 215.155 3.95682 1.92675 0
M  V30 2340 H 212.274 0.712579 0.188149 0
M  V30 2341 H 214.916 1.88813 -0.212076 0
M  V30 2342 H 213.066 3.50973 1.66583 0
M  V30 2343 H 214.738 4.55565 -0.725152 0
M  V30 2344 H 212.981 4.27261 -0.750378 0
M  V30 2345 H 213.652 5.51099 0.315284 0
M  V30 2346 H 216.128 3.91841 1.39998 0
M  V30 2347 H 215.004 5.00262 2.25897 0
M  V30 2348 H 215.265 3.37239 2.85872 0
M  V30 2349 N 214.325 -0.140222 1.56975 0
M  V30 2350 C 215.55 -0.870414 1.88251 0
M  V30 2351 C 215.975 -1.73637 0.723312 0
M  V30 2352 O 215.333 -1.78329 -0.32689 0
M  V30 2353 C 215.381 -1.69737 3.18154 0
M  V30 2354 O 214.485 -2.80229 3.02565 0
M  V30 2355 H 213.826 -0.242025 0.61832 0
M  V30 2356 H 216.356 -0.128999 2.04193 0
M  V30 2357 H 216.366 -2.09099 3.50345 0
M  V30 2358 H 215.041 -1.06152 4.02125 0
M  V30 2359 H 213.618 -2.44224 2.81796 0
M  V30 2360 N 215.803 -1.52179 -0.40978 0
M  V30 2361 C 216.75 -1.75475 -1.49924 0
M  V30 2362 C 217.72 -0.597175 -1.54994 0
M  V30 2363 O 218.905 -0.834655 -1.71575 0
M  V30 2364 C 216.045 -1.9107 -2.87378 0
M  V30 2365 C 215.158 -3.18717 -2.91622 0
M  V30 2366 C 214.293 -3.24747 -4.20372 0
M  V30 2367 C 213.332 -4.46598 -4.18588 0
M  V30 2368 N 212.469 -4.50025 -5.38908 0
M  V30 2369 H 217.309 -2.68458 -1.29361 0
M  V30 2370 H 214.846 -1.33024 -0.627934 0
M  V30 2371 H 216.804 -1.98096 -3.6717 0
M  V30 2372 H 215.434 -1.01469 -3.06437 0
M  V30 2373 H 214.486 -3.20866 -2.04326 0
M  V30 2374 H 215.798 -4.08544 -2.86169 0
M  V30 2375 H 214.952 -3.30841 -5.08556 0
M  V30 2376 H 213.691 -2.32857 -4.28519 0
M  V30 2377 H 212.696 -4.40652 -3.28794 0
M  V30 2378 H 213.921 -5.39783 -4.12081 0
M  V30 2379 H 211.867 -3.61017 -5.47725 0
M  V30 2380 H 211.784 -5.33697 -5.35447 0
M  V30 2381 H 213.052 -4.60347 -6.29048 0
M  V30 2382 N 217.281 0.66697 -1.42791 0
M  V30 2383 C 218.244 1.76211 -1.46568 0
M  V30 2384 C 219.244 1.56896 -0.352196 0
M  V30 2385 O 220.434 1.63044 -0.613364 0
M  V30 2386 C 217.566 3.14935 -1.30494 0
M  V30 2387 H 218.759 1.74247 -2.44086 0
M  V30 2388 H 216.312 0.877342 -1.29354 0
M  V30 2389 H 217.047 3.2252 -0.339301 0
M  V30 2390 H 216.832 3.30359 -2.11199 0
M  V30 2391 H 218.322 3.94821 -1.36038 0
M  V30 2392 N 218.759 1.29093 0.90403 0
M  V30 2393 C 219.999 1.18076 1.66845 0
M  V30 2394 C 220.363 -0.26436 1.90171 0
M  V30 2395 O 221.564 -0.497423 2.64157 0
M  V30 2396 C 219.835 1.96722 2.98388 0
M  V30 2397 S 221.394 2.0219 3.89441 0
M  V30 2398 H 218.212 0.421104 0.572881 0
M  V30 2399 H 220.814 1.63322 1.07453 0
M  V30 2400 H 219.518 3.00866 2.7912 0
M  V30 2401 H 219.049 1.52064 3.62823 0
M  V30 2402 H 221.064 1.13545 4.83034 0
M  V30 2403 N 220.237 -1.11381 1.11499 0
M  V30 2404 C 221.147 -2.21019 0.786628 0
M  V30 2405 C 222.163 -1.72597 -0.220507 0
M  V30 2406 O 223.339 -2.01321 -0.0565251 0
M  V30 2407 C 220.404 -3.459 0.235333 0
M  V30 2408 C 219.465 -4.09107 1.30115 0
M  V30 2409 C 218.698 -5.28027 0.776068 0
M  V30 2410 O 218.921 -5.6904 -0.393661 0
M  V30 2411 O 217.855 -5.81835 1.54114 0
M  V30 2412 H 221.681 -2.51521 1.70209 0
M  V30 2413 H 219.266 -1.19928 0.890928 0
M  V30 2414 H 221.148 -4.21346 -0.067715 0
M  V30 2415 H 219.823 -3.17049 -0.652828 0
M  V30 2416 H 218.73 -3.35391 1.65722 0
M  V30 2417 H 220.063 -4.42139 2.16273 0
M  V30 2418 N 221.715 -0.905404 -1.28997 0
M  V30 2419 C 222.678 -0.392253 -2.25819 0
M  V30 2420 C 223.678 0.476753 -1.5357 0
M  V30 2421 O 224.868 0.280994 -1.71919 0
M  V30 2422 C 222 0.438588 -3.38067 0
M  V30 2423 H 223.193 -1.24743 -2.72725 0
M  V30 2424 H 220.746 -0.684051 -1.40536 0
M  V30 2425 H 221.481 1.31352 -2.96508 0
M  V30 2426 H 221.266 -0.184167 -3.91667 0
M  V30 2427 H 222.756 0.78873 -4.10084 0
M  V30 2428 N 223.193 1.4272 -0.668489 0
M  V30 2429 C 224.123 2.335 -0.000100175 0
M  V30 2430 C 225.104 1.50328 0.795964 0
M  V30 2431 O 226.289 1.78949 0.754385 0
M  V30 2432 C 223.419 3.33874 0.956302 0
M  V30 2433 C 222.373 4.27152 0.269278 0
M  V30 2434 C 221.699 5.17684 1.33818 0
M  V30 2435 C 222.999 5.15373 -0.847805 0
M  V30 2436 H 224.693 2.89639 -0.758244 0
M  V30 2437 H 222.239 1.39269 -0.366079 0
M  V30 2438 H 224.192 3.9629 1.43292 0
M  V30 2439 H 222.916 2.76025 1.74579 0
M  V30 2440 H 221.575 3.66123 -0.187042 0
M  V30 2441 H 221.223 4.56165 2.1195 0
M  V30 2442 H 220.923 5.80918 0.883659 0
M  V30 2443 H 222.447 5.82974 1.81586 0
M  V30 2444 H 223.861 5.7151 -0.452681 0
M  V30 2445 H 222.258 5.87407 -1.22773 0
M  V30 2446 H 223.328 4.5415 -1.69929 0
M  V30 2447 N 224.671 0.411399 1.52136 0
M  V30 2448 C 226.087 0.0623865 1.59478 0
M  V30 2449 C 226.287 -1.42554 1.4241 0
M  V30 2450 O 225.343 -2.19263 1.2522 0
M  V30 2451 C 226.656 0.559331 2.95452 0
M  V30 2452 C 228.204 0.517503 3.08692 0
M  V30 2453 C 228.679 0.990994 4.4715 0
M  V30 2454 N 230.17 0.947908 4.53397 0
M  V30 2455 C 230.905 1.28544 5.58806 0
M  V30 2456 N 230.401 1.69454 6.71757 0
M  V30 2457 N 232.194 1.20526 5.49026 0
M  V30 2458 H 224.345 1.37982 1.61477 0
M  V30 2459 H 226.608 0.566977 0.759764 0
M  V30 2460 H 226.314 1.59938 3.1323 0
M  V30 2461 H 226.188 -0.0298014 3.77188 0
M  V30 2462 H 228.575 -0.513505 2.90598 0
M  V30 2463 H 228.656 1.14272 2.28857 0
M  V30 2464 H 228.3 2.02034 4.65988 0
M  V30 2465 H 228.23 0.34257 5.25485 0
M  V30 2466 H 230.721 0.647157 3.72317 0
M  V30 2467 H 231.034 1.93513 7.48179 0
M  V30 2468 H 229.379 1.73359 6.73032 0
M  V30 2469 H 232.57 0.884505 4.59667 0
M  V30 2470 H 232.743 1.47161 6.31069 0
M  V30 2471 N 226.149 -1.5696 0.141893 0
M  V30 2472 C 227.565 -1.58151 -0.21456 0
M  V30 2473 C 227.765 -1.1559 -1.65049 0
M  V30 2474 O 226.821 -0.853832 -2.37626 0
M  V30 2475 C 228.134 -3.00674 0.0395576 0
M  V30 2476 C 229.682 -3.1299 -0.0245529 0
M  V30 2477 C 230.157 -4.57554 0.202167 0
M  V30 2478 N 231.648 -4.62961 0.148919 0
M  V30 2479 C 232.383 -5.7262 0.298924 0
M  V30 2480 N 231.879 -6.90947 0.50637 0
M  V30 2481 N 233.672 -5.61601 0.236886 0
M  V30 2482 H 225.823 -1.8292 1.07953 0
M  V30 2483 H 228.086 -0.846425 0.42693 0
M  V30 2484 H 227.792 -3.36183 1.03315 0
M  V30 2485 H 227.666 -3.70981 -0.682143 0
M  V30 2486 H 230.053 -2.77326 -1.00869 0
M  V30 2487 H 230.134 -2.4518 0.729396 0
M  V30 2488 H 229.778 -4.93922 1.18338 0
M  V30 2489 H 229.708 -5.23484 -0.572044 0
M  V30 2490 H 232.199 -3.77899 -0.00697015 0
M  V30 2491 H 232.512 -7.7038 0.611076 0
M  V30 2492 H 230.857 -6.92878 0.542628 0
M  V30 2493 H 234.048 -4.68039 0.0756209 0
M  V30 2494 H 234.221 -6.47015 0.357227 0
M  V30 2495 N 227.627 0.131896 -1.57047 0
M  V30 2496 C 228.59 1.14638 -1.98471 0
M  V30 2497 C 229.59 1.35029 -0.873148 0
M  V30 2498 O 230.78 1.31764 -1.13946 0
M  V30 2499 C 227.912 2.50358 -2.31373 0
M  V30 2500 H 229.105 0.79064 -2.8929 0
M  V30 2501 H 226.658 0.375761 -1.51716 0
M  V30 2502 H 227.393 2.90876 -1.43393 0
M  V30 2503 H 227.178 2.36915 -3.12432 0
M  V30 2504 H 228.668 3.23395 -2.64207 0
M  V30 2505 N 229.106 1.52395 0.401703 0
M  V30 2506 C 230.053 1.76268 1.48991 0
M  V30 2507 C 231.023 0.605386 1.54675 0
M  V30 2508 O 232.208 0.843742 1.7113 0
M  V30 2509 C 229.348 1.92592 2.86361 0
M  V30 2510 C 228.461 3.20259 2.89928 0
M  V30 2511 C 227.596 3.26972 4.18644 0
M  V30 2512 C 226.635 4.48812 4.16214 0
M  V30 2513 N 225.772 4.52877 5.36514 0
M  V30 2514 H 230.612 2.6914 1.27935 0
M  V30 2515 H 228.149 1.33355 0.620871 0
M  V30 2516 H 230.107 2.0004 3.66115 0
M  V30 2517 H 228.737 1.03093 3.05895 0
M  V30 2518 H 227.789 3.21945 2.02621 0
M  V30 2519 H 229.101 4.10056 2.83999 0
M  V30 2520 H 228.255 3.33533 5.06794 0
M  V30 2521 H 226.994 2.35126 4.27278 0
M  V30 2522 H 225.999 4.4239 3.26453 0
M  V30 2523 H 227.224 5.41961 4.09213 0
M  V30 2524 H 225.17 3.63917 5.45802 0
M  V30 2525 H 225.087 5.36529 5.32609 0
M  V30 2526 H 226.355 4.63676 6.26597 0
M  V30 2527 N 230.584 -0.659388 1.43143 0
M  V30 2528 C 231.814 -1.44513 1.47646 0
M  V30 2529 C 232.222 -1.88981 0.0910095 0
M  V30 2530 O 231.565 -1.59702 -0.907789 0
M  V30 2531 C 231.627 -2.71663 2.35456 0
M  V30 2532 C 231.291 -2.49175 3.83094 0
M  V30 2533 C 232.288 -2.1279 4.74359 0
M  V30 2534 C 229.973 -2.63691 4.27519 0
M  V30 2535 C 231.967 -1.9121 6.08044 0
M  V30 2536 C 229.654 -2.41726 5.61259 0
M  V30 2537 C 230.652 -2.0554 6.51339 0
M  V30 2538 O 230.34 -1.838 7.82606 0
M  V30 2539 H 230.072 -0.45064 0.503884 0
M  V30 2540 H 232.626 -0.816248 1.88485 0
M  V30 2541 H 230.856 -3.37089 1.89493 0
M  V30 2542 H 232.545 -3.33595 2.31235 0
M  V30 2543 H 233.311 -2.01157 4.41317 0
M  V30 2544 H 229.19 -2.90832 3.57684 0
M  V30 2545 H 232.734 -1.62889 6.78316 0
M  V30 2546 H 228.631 -2.52959 5.9387 0
M  V30 2547 H 229.399 -1.98275 7.94122 0
M  V30 2548 N 232.062 -1.29571 -0.897171 0
M  V30 2549 C 233.009 -1.14916 -2.00158 0
M  V30 2550 C 233.979 -0.0418149 -1.66047 0
M  V30 2551 O 235.164 -0.209793 -1.89643 0
M  V30 2552 C 232.304 -0.834307 -3.34863 0
M  V30 2553 C 231.417 -2.02234 -3.8174 0
M  V30 2554 C 230.552 -1.64664 -5.05034 0
M  V30 2555 C 229.591 -2.80033 -5.44286 0
M  V30 2556 N 228.728 -2.42843 -6.58765 0
M  V30 2557 H 233.568 -2.09403 -2.12025 0
M  V30 2558 H 231.105 -1.042 -1.0383 0
M  V30 2559 H 233.063 -0.632436 -4.12379 0
M  V30 2560 H 231.693 0.0736656 -3.22716 0
M  V30 2561 H 230.745 -2.33583 -3.00238 0
M  V30 2562 H 232.057 -2.88673 -4.06779 0
M  V30 2563 H 231.211 -1.4078 -5.9014 0
M  V30 2564 H 229.95 -0.753766 -4.8184 0
M  V30 2565 H 228.955 -3.04596 -4.57713 0
M  V30 2566 H 230.18 -3.69989 -5.6946 0
M  V30 2567 H 228.126 -1.56046 -6.3717 0
M  V30 2568 H 228.043 -3.22815 -6.83613 0
M  V30 2569 H 229.311 -2.22285 -7.47134 0
M  V30 2570 N 233.54 1.10788 -1.12088 0
M  V30 2571 C 234.787 1.82671 -0.873931 0
M  V30 2572 C 235.115 1.85004 0.600311 0
M  V30 2573 O 234.37 1.30365 1.45957 0
M  V30 2574 C 234.669 3.29294 -1.38926 0
M  V30 2575 C 234.335 3.47113 -2.87791 0
M  V30 2576 C 232.997 3.51684 -3.28439 0
M  V30 2577 C 235.349 3.52808 -3.83635 0
M  V30 2578 C 232.677 3.59513 -4.63646 0
M  V30 2579 C 235.029 3.62169 -5.18668 0
M  V30 2580 C 233.693 3.65003 -5.58864 0
M  V30 2581 H 232.963 0.668441 -0.319794 0
M  V30 2582 H 235.61 1.30613 -1.40045 0
M  V30 2583 H 233.915 3.83894 -0.783122 0
M  V30 2584 H 235.612 3.83416 -1.17443 0
M  V30 2585 H 232.202 3.4423 -2.5535 0
M  V30 2586 H 236.386 3.4853 -3.53328 0
M  V30 2587 H 231.642 3.59987 -4.94185 0
M  V30 2588 H 235.816 3.6552 -5.92763 0
M  V30 2589 H 233.443 3.70822 -6.63623 0
M  V30 2590 N 235.018 0.912232 1.28515 0
M  V30 2591 C 236.429 0.591352 1.77087 0
M  V30 2592 C 236.78 -0.8933 1.74684 0
M  V30 2593 O 235.905 -1.69876 1.34056 0
M  V30 2594 C 236.5 1.06668 3.2157 0
M  V30 2595 C 235.059 0.79675 3.67871 0
M  V30 2596 C 234.206 1.23427 2.48316 0
M  V30 2597 H 237.157 1.09365 1.15 0
M  V30 2598 H 237.178 0.407455 3.78312 0
M  V30 2599 H 236.69 2.14726 3.23287 0
M  V30 2600 H 234.791 -0.270679 3.71616 0
M  V30 2601 H 234.904 1.40343 4.58084 0
M  V30 2602 H 233.268 0.653036 2.46186 0
M  V30 2603 H 234.051 2.32316 2.52753 0
M  V30 2604 N 236.496 -1.42363 0.676048 0
M  V30 2605 C 237.744 -2.01123 0.198437 0
M  V30 2606 C 238.065 -1.53731 -1.19966 0
M  V30 2607 O 237.335 -0.759518 -1.80577 0
M  V30 2608 H 235.915 -0.743678 0.0703721 0
M  V30 2609 H 238.577 -1.74263 0.872837 0
M  V30 2610 H 237.673 -3.11454 0.200686 0
M  V30 2611 N 237.974 -0.419461 -1.51915 0
M  V30 2612 C 239.39 -0.0708431 -1.59443 0
M  V30 2613 C 239.59 1.41796 -1.43164 0
M  V30 2614 O 238.646 2.18596 -1.26381 0
M  V30 2615 C 239.959 -0.574991 -2.95151 0
M  V30 2616 C 241.507 -0.533867 -3.08413 0
M  V30 2617 C 241.982 -1.01469 -4.46618 0
M  V30 2618 N 243.473 -0.971939 -4.52888 0
M  V30 2619 C 244.208 -1.31505 -5.58116 0
M  V30 2620 N 243.704 -1.73014 -6.70849 0
M  V30 2621 N 245.497 -1.23436 -5.48379 0
M  V30 2622 H 237.648 -1.38836 -1.60743 0
M  V30 2623 H 239.911 -0.570998 -0.756747 0
M  V30 2624 H 239.617 -1.61597 -3.12377 0
M  V30 2625 H 239.491 0.00979777 -3.77199 0
M  V30 2626 H 241.878 0.498086 -2.90866 0
M  V30 2627 H 241.959 -1.15484 -2.28248 0
M  V30 2628 H 241.603 -2.04502 -4.6491 0
M  V30 2629 H 241.533 -0.370433 -5.25295 0
M  V30 2630 H 244.024 -0.666893 -3.71969 0
M  V30 2631 H 244.337 -1.97479 -7.47143 0
M  V30 2632 H 242.682 -1.76926 -6.72103 0
M  V30 2633 H 245.873 -0.908869 -4.59192 0
M  V30 2634 H 246.046 -1.50506 -6.30279 0
M  V30 2635 N 239.452 1.56882 -0.150215 0
M  V30 2636 C 240.384 2.14057 0.819286 0
M  V30 2637 C 241.397 1.09082 1.20851 0
M  V30 2638 O 242.586 1.36347 1.15203 0
M  V30 2639 C 239.686 2.65102 2.11127 0
M  V30 2640 C 238.859 3.94511 1.88891 0
M  V30 2641 C 237.918 4.30834 3.02107 0
M  V30 2642 O 236.944 4.99099 2.73659 0
M  V30 2643 N 238.146 3.90676 4.29363 0
M  V30 2644 H 240.911 2.97871 0.330618 0
M  V30 2645 H 238.472 1.61866 0.0332538 0
M  V30 2646 H 240.464 2.86411 2.85921 0
M  V30 2647 H 239.034 1.85994 2.51247 0
M  V30 2648 H 238.254 3.81795 0.981152 0
M  V30 2649 H 239.542 4.7907 1.71376 0
M  V30 2650 H 238.94 3.35677 4.55343 0
M  V30 2651 H 237.497 4.1703 5.00928 0
M  V30 2652 N 240.93 -0.123565 1.57115 0
M  V30 2653 C 241.877 -1.15177 2.00007 0
M  V30 2654 C 242.847 -1.41403 0.871454 0
M  V30 2655 O 244.032 -1.53346 1.13533 0
M  V30 2656 C 241.172 -2.47436 2.40561 0
M  V30 2657 C 240.285 -2.28184 3.66819 0
M  V30 2658 C 239.42 -3.53641 3.96373 0
M  V30 2659 C 238.459 -3.29528 5.15827 0
M  V30 2660 N 237.596 -4.47175 5.41275 0
M  V30 2661 H 242.436 -0.779008 2.87638 0
M  V30 2662 H 239.973 -0.373166 1.42288 0
M  V30 2663 H 241.931 -3.24584 2.62109 0
M  V30 2664 H 240.561 -2.82614 1.55978 0
M  V30 2665 H 239.613 -1.41976 3.52912 0
M  V30 2666 H 240.925 -2.0634 4.5412 0
M  V30 2667 H 240.079 -4.39209 4.18545 0
M  V30 2668 H 238.818 -3.78512 3.07538 0
M  V30 2669 H 237.823 -2.42349 4.93505 0
M  V30 2670 H 239.048 -3.06031 6.06236 0
M  V30 2671 H 236.994 -4.72175 4.55397 0
M  V30 2672 H 236.911 -4.28419 6.22891 0
M  V30 2673 H 238.179 -5.3389 5.67963 0
M  V30 2674 N 242.408 -1.52605 -0.393616 0
M  V30 2675 C 243.654 -1.67672 -1.14079 0
M  V30 2676 C 243.987 -0.413121 -1.89755 0
M  V30 2677 O 243.262 0.588952 -1.85369 0
M  V30 2678 C 243.545 -2.9088 -2.12276 0
M  V30 2679 C 243.398 -4.27329 -1.40394 0
M  V30 2680 C 244.717 -3.09628 -3.12759 0
M  V30 2681 H 241.836 -0.610168 -0.413356 0
M  V30 2682 H 244.478 -1.85193 -0.424696 0
M  V30 2683 H 242.628 -2.76073 -2.73342 0
M  V30 2684 H 244.3 -4.53894 -0.82327 0
M  V30 2685 H 242.543 -4.2802 -0.705801 0
M  V30 2686 H 243.214 -5.09615 -2.12123 0
M  V30 2687 H 245.69 -3.23436 -2.61779 0
M  V30 2688 H 244.566 -3.97322 -3.78717 0
M  V30 2689 H 244.827 -2.23637 -3.81365 0
M  V30 2690 N 243.887 0.651787 -1.4349 0
M  V30 2691 C 245.134 1.41167 -1.45183 0
M  V30 2692 C 245.462 1.94349 -0.0766601 0
M  V30 2693 O 244.717 1.72804 0.918555 0
M  V30 2694 C 245.016 2.60914 -2.44251 0
M  V30 2695 C 244.682 2.26142 -3.9009 0
M  V30 2696 C 243.344 2.16371 -4.2981 0
M  V30 2697 C 245.696 1.98334 -4.81989 0
M  V30 2698 C 243.024 1.7695 -5.5938 0
M  V30 2699 C 245.376 1.6041 -6.11924 0
M  V30 2700 C 244.04 1.49166 -6.5062 0
M  V30 2701 H 243.31 0.516566 -0.531263 0
M  V30 2702 H 245.957 0.741099 -1.76579 0
M  V30 2703 H 244.262 3.3311 -2.06265 0
M  V30 2704 H 245.959 3.19127 -2.42815 0
M  V30 2705 H 242.549 2.34658 -3.58655 0
M  V30 2706 H 246.733 2.04803 -4.52072 0
M  V30 2707 H 241.989 1.66831 -5.88198 0
M  V30 2708 H 246.163 1.37925 -6.82605 0
M  V30 2709 H 243.79 1.1839 -7.50925 0
M  V30 2710 N 245.365 1.30045 0.890287 0
M  V30 2711 C 246.611 1.18737 1.64406 0
M  V30 2712 C 246.944 -0.258525 1.92472 0
M  V30 2713 O 246.219 -1.18562 1.54186 0
M  V30 2714 C 246.502 2.01087 2.98724 0
M  V30 2715 C 246.355 3.53867 2.77665 0
M  V30 2716 C 247.674 1.84457 3.9958 0
M  V30 2717 H 244.793 0.432698 0.596608 0
M  V30 2718 H 247.435 1.5962 1.0306 0
M  V30 2719 H 245.585 1.66349 3.51084 0
M  V30 2720 H 247.257 3.98637 2.32133 0
M  V30 2721 H 245.5 3.78318 2.12269 0
M  V30 2722 H 246.171 4.06772 3.7315 0
M  V30 2723 H 248.647 2.14817 3.56361 0
M  V30 2724 H 247.523 2.44411 4.91482 0
M  V30 2725 H 247.784 0.802276 4.3476 0
M  V30 2726 N 246.843 -1.10192 1.12674 0
M  V30 2727 C 248.068 -1.86523 0.906853 0
M  V30 2728 C 248.493 -1.80221 -0.538711 0
M  V30 2729 O 247.851 -1.17396 -1.38158 0
M  V30 2730 C 247.899 -3.32758 1.3894 0
M  V30 2731 O 247.003 -4.08449 0.5695 0
M  V30 2732 H 246.344 -0.578678 0.325619 0
M  V30 2733 H 248.874 -1.39203 1.49946 0
M  V30 2734 H 248.884 -3.83608 1.38958 0
M  V30 2735 H 247.559 -3.36661 2.44197 0
M  V30 2736 H 246.136 -3.67427 0.636528 0
M  V30 2737 N 248.321 -0.919034 -1.28029 0
M  V30 2738 C 249.269 -0.401753 -2.29104 0
M  V30 2739 C 250.263 0.509354 -1.61561 0
M  V30 2740 O 251.469 0.390014 -1.75724 0
M  V30 2741 H 247.844 -0.111331 -0.743713 0
M  V30 2742 H 249.815 -1.2672 -2.70156 0
M  V30 2743 C 248.564 0.338148 -3.46052 0
M  V30 2744 H 247.887 -0.353732 -3.98232 0
M  V30 2745 H 249.327 0.664653 -4.18758 0
M  V30 2746 C 247.786 1.54798 -2.99231 0
M  V30 2747 O 248.316 2.64696 -3.02157 0
M  V30 2748 N 246.522 1.3968 -2.54829 0
M  V30 2749 H 246.069 0.502698 -2.52647 0
M  V30 2750 H 246.027 2.20755 -2.23863 0
M  V30 2751 N 249.799 1.42003 -0.683588 0
M  V30 2752 C 250.746 2.30798 -0.0107309 0
M  V30 2753 C 251.716 1.4645 0.783688 0
M  V30 2754 O 252.901 1.75263 0.754156 0
M  V30 2755 C 250.041 3.3238 0.928306 0
M  V30 2756 C 249.154 4.31814 0.126776 0
M  V30 2757 C 248.289 5.20468 1.06236 0
M  V30 2758 C 247.328 6.11577 0.253035 0
M  V30 2759 N 246.465 6.92754 1.14179 0
M  V30 2760 H 251.305 2.8778 -0.773727 0
M  V30 2761 H 248.842 1.41745 -0.393283 0
M  V30 2762 H 250.8 3.89813 1.48666 0
M  V30 2763 H 249.43 2.76976 1.65783 0
M  V30 2764 H 248.482 3.76427 -0.54833 0
M  V30 2765 H 249.794 4.96276 -0.501192 0
M  V30 2766 H 248.948 5.82677 1.69035 0
M  V30 2767 H 247.687 4.56204 1.7242 0
M  V30 2768 H 246.692 5.48428 -0.388108 0
M  V30 2769 H 247.917 6.77892 -0.404839 0
M  V30 2770 H 245.863 6.3111 1.78987 0
M  V30 2771 H 245.78 7.53855 0.569111 0
M  V30 2772 H 247.048 7.59441 1.75697 0
M  V30 2773 N 251.277 0.427512 1.51691 0
M  V30 2774 C 252.523 -0.134744 2.02953 0
M  V30 2775 C 252.878 -1.41235 1.30654 0
M  V30 2776 O 252.171 -1.87168 0.409713 0
M  V30 2777 C 252.365 -0.418249 3.54944 0
M  V30 2778 C 252.194 0.830327 4.41968 0
M  V30 2779 C 250.964 1.36097 4.86627 0
M  V30 2780 C 253.162 1.7137 4.84909 0
M  V30 2781 N 251.144 2.56311 5.57833 0
M  V30 2782 C 252.515 2.76195 5.55082 0
M  V30 2783 C 254.57 1.72928 4.66905 0
M  V30 2784 C 253.273 3.82512 6.09161 0
M  V30 2785 C 255.299 2.78175 5.21894 0
M  V30 2786 C 254.661 3.8172 5.92004 0
M  V30 2787 H 250.76 -0.0103958 0.781931 0
M  V30 2788 H 253.344 0.585981 1.85673 0
M  V30 2789 H 251.515 -1.10801 3.7226 0
M  V30 2790 H 253.247 -0.970999 3.92879 0
M  V30 2791 H 250.002 0.916311 4.64651 0
M  V30 2792 H 250.426 3.17242 5.98069 0
M  V30 2793 H 255.068 0.942081 4.12171 0
M  V30 2794 H 252.786 4.62077 6.62956 0
M  V30 2795 H 256.372 2.8031 5.09821 0
M  V30 2796 H 255.252 4.61821 6.33791 0
M  V30 2797 N 252.755 -1.56801 0.158532 0
M  V30 2798 C 254.003 -1.96102 -0.488712 0
M  V30 2799 C 254.324 -1.04498 -1.64636 0
M  V30 2800 O 253.594 -0.108783 -1.95598 0
M  V30 2801 H 252.174 -0.724102 -0.183535 0
M  V30 2802 H 254.836 -1.93457 0.236728 0
M  V30 2803 H 253.932 -3.00097 -0.857219 0
M  V30 2804 N 254.233 0.115231 -1.57178 0
M  V30 2805 C 255.48 0.822351 -1.8505 0
M  V30 2806 C 255.808 1.79701 -0.744168 0
M  V30 2807 O 255.063 1.93909 0.26414 0
M  V30 2808 C 255.362 1.60324 -3.19423 0
M  V30 2809 C 255.028 0.772536 -4.44233 0
M  V30 2810 C 253.69 0.543468 -4.78121 0
M  V30 2811 C 256.042 0.193746 -5.2084 0
M  V30 2812 C 253.37 -0.274583 -5.86057 0
M  V30 2813 C 255.722 -0.611517 -6.29637 0
M  V30 2814 C 254.386 -0.850867 -6.62055 0
M  V30 2815 H 253.656 0.30092 -0.677147 0
M  V30 2816 H 256.303 0.0845802 -1.91313 0
M  V30 2817 H 254.608 2.41203 -3.08753 0
M  V30 2818 H 256.305 2.1544 -3.38211 0
M  V30 2819 H 252.895 0.96117 -4.17683 0
M  V30 2820 H 257.079 0.357926 -4.95008 0
M  V30 2821 H 252.335 -0.469206 -6.09597 0
M  V30 2822 H 256.509 -1.06697 -6.88178 0
M  V30 2823 H 254.136 -1.48657 -7.45523 0
M  V30 2824 N 255.711 1.52812 0.385517 0
M  V30 2825 C 256.939 1.71907 1.15133 0
M  V30 2826 C 257.354 0.439004 1.83625 0
M  V30 2827 O 256.711 -0.586765 1.7281 0
M  V30 2828 C 256.762 2.87099 2.19673 0
M  V30 2829 O 256.483 4.10151 1.53973 0
M  V30 2830 C 257.984 3.17902 3.08955 0
M  V30 2831 H 255.204 0.575479 0.345057 0
M  V30 2832 H 257.748 1.99476 0.45052 0
M  V30 2833 H 255.903 2.61982 2.85384 0
M  V30 2834 H 256.317 4.74514 2.23465 0
M  V30 2835 H 257.791 4.01959 3.7833 0
M  V30 2836 H 258.268 2.3243 3.72657 0
M  V30 2837 H 258.874 3.44871 2.48885 0
M  V30 2838 N 257.189 -0.644168 1.43834 0
M  V30 2839 C 258.6 -1.22554 1.40845 0
M  V30 2840 C 258.951 -1.9585 0.117115 0
M  V30 2841 O 258.076 -2.01734 -0.783086 0
M  V30 2842 C 258.671 -2.22907 2.55143 0
M  V30 2843 C 257.23 -2.76501 2.5539 0
M  V30 2844 C 256.377 -1.51287 2.32396 0
M  V30 2845 H 259.328 -0.43563 1.52604 0
M  V30 2846 H 259.349 -3.05259 2.2715 0
M  V30 2847 H 258.861 -1.69533 3.49114 0
M  V30 2848 H 256.962 -3.33914 1.65324 0
M  V30 2849 H 257.075 -3.23429 3.53455 0
M  V30 2850 H 255.439 -1.78957 1.81236 0
M  V30 2851 H 256.222 -0.998336 3.28463 0
M  V30 2852 N 258.668 -1.30515 -0.883378 0
M  V30 2853 C 259.915 -1.1943 -1.63532 0
M  V30 2854 C 260.243 0.250627 -1.92878 0
M  V30 2855 O 259.498 1.19556 -1.54935 0
M  V30 2856 C 259.797 -1.96994 -2.98209 0
M  V30 2857 C 259.463 -3.466 -2.88408 0
M  V30 2858 C 258.125 -3.87397 -2.85442 0
M  V30 2859 C 260.477 -4.41863 -2.76418 0
M  V30 2860 C 257.805 -5.21745 -2.68327 0
M  V30 2861 C 260.157 -5.7632 -2.60841 0
M  V30 2862 C 258.821 -6.16354 -2.56251 0
M  V30 2863 H 258.091 -0.437025 -0.598406 0
M  V30 2864 H 260.738 -1.61635 -1.02696 0
M  V30 2865 H 259.043 -1.47429 -3.63004 0
M  V30 2866 H 260.74 -1.85808 -3.55354 0
M  V30 2867 H 257.33 -3.14182 -2.91527 0
M  V30 2868 H 261.514 -4.11285 -2.77775 0
M  V30 2869 H 256.77 -5.51853 -2.63189 0
M  V30 2870 H 260.944 -6.49772 -2.50538 0
M  V30 2871 H 258.571 -7.20401 -2.42748 0
M  V30 2872 N 260.146 1.09593 -1.13257 0
M  V30 2873 C 261.371 1.8604 -0.916732 0
M  V30 2874 C 261.796 1.80504 0.529146 0
M  V30 2875 O 261.154 1.18127 1.37534 0
M  V30 2876 C 261.202 3.32017 -1.40703 0
M  V30 2877 O 260.306 4.08141 -0.591153 0
M  V30 2878 H 259.647 0.576943 -0.328683 0
M  V30 2879 H 262.177 1.38405 -1.50682 0
M  V30 2880 H 262.187 3.82865 -1.4099 0
M  V30 2881 H 260.862 3.35361 -2.45979 0
M  V30 2882 H 259.439 3.67084 -0.656005 0
M  V30 2883 N 261.624 0.925811 1.2754 0
M  V30 2884 C 262.571 0.422045 2.26908 0
M  V30 2885 C 263.541 -0.510029 1.58076 0
M  V30 2886 O 264.726 -0.429599 1.85901 0
M  V30 2887 C 261.866 -0.320837 3.43605 0
M  V30 2888 C 260.979 0.64513 4.27156 0
M  V30 2889 C 260.114 -0.117405 5.3107 0
M  V30 2890 C 259.153 0.841391 6.0629 0
M  V30 2891 N 258.29 0.111604 7.02011 0
M  V30 2892 H 263.13 1.27441 2.69375 0
M  V30 2893 H 260.667 0.639697 1.32462 0
M  V30 2894 H 262.625 -0.76785 4.10073 0
M  V30 2895 H 261.255 -1.13745 3.02096 0
M  V30 2896 H 260.307 1.21067 3.6062 0
M  V30 2897 H 261.619 1.37797 4.79389 0
M  V30 2898 H 260.773 -0.624422 6.03478 0
M  V30 2899 H 259.512 -0.883219 4.79636 0
M  V30 2900 H 258.517 1.35967 5.32722 0
M  V30 2901 H 259.742 1.60696 6.59813 0
M  V30 2902 H 257.688 -0.635999 6.5291 0
M  V30 2903 H 257.605 0.784044 7.51923 0
M  V30 2904 H 258.873 -0.374823 7.78598 0
M  V30 2905 N 263.102 -1.41638 0.69111 0
M  V30 2906 C 264.379 -1.95036 0.148421 0
M  V30 2907 C 264.759 -1.63072 -1.34055 0
M  V30 2908 O 264.107 -0.93538 -2.08478 0
M  V30 2909 C 264.317 -3.46279 0.434951 0
M  V30 2910 C 265.665 -4.23069 0.360275 0
M  V30 2911 O 266.689 -3.54277 0.369613 0
M  V30 2912 O 265.548 -5.45583 0.316534 0
M  V30 2913 H 262.642 -0.826908 0.0123654 0
M  V30 2914 H 265.188 -1.5138 0.766963 0
M  V30 2915 H 263.96 -3.6281 1.46576 0
M  V30 2916 H 263.583 -3.97019 -0.214787 0
M  V30 2917 N 264.58 -0.43555 -1.51462 0
M  V30 2918 C 265.49 0.383001 -2.31453 0
M  V30 2919 C 266.506 1.02931 -1.4029 0
M  V30 2920 O 267.682 1.02507 -1.73362 0
M  V30 2921 C 264.747 1.47043 -3.13973 0
M  V30 2922 C 263.808 0.844433 -4.20913 0
M  V30 2923 C 263.041 1.88004 -4.9949 0
M  V30 2924 O 263.264 3.10199 -4.78678 0
M  V30 2925 O 262.198 1.47157 -5.83634 0
M  V30 2926 H 266.024 -0.269964 -3.02498 0
M  V30 2927 H 263.609 -0.19813 -1.4808 0
M  V30 2928 H 265.491 2.10113 -3.65281 0
M  V30 2929 H 264.166 2.10751 -2.45695 0
M  V30 2930 H 263.073 0.175729 -3.73687 0
M  V30 2931 H 264.406 0.250869 -4.9156 0
M  V30 2932 N 266.058 1.56714 -0.166846 0
M  V30 2933 C 267.288 2.00828 0.48494 0
M  V30 2934 C 267.696 1.04612 1.57648 0
M  V30 2935 O 267.039 0.0383201 1.8366 0
M  V30 2936 C 267.101 3.4137 1.12723 0
M  V30 2937 C 266.765 4.56654 0.177886 0
M  V30 2938 C 267.762 5.16402 -0.60207 0
M  V30 2939 C 265.447 5.02244 0.0750139 0
M  V30 2940 C 267.441 6.20167 -1.47215 0
M  V30 2941 C 265.128 6.05859 -0.798649 0
M  V30 2942 C 266.126 6.64691 -1.57082 0
M  V30 2943 O 265.814 7.66297 -2.42989 0
M  V30 2944 H 265.546 0.663587 0.128953 0
M  V30 2945 H 268.1 2.03692 -0.264365 0
M  V30 2946 H 266.33 3.35406 1.92457 0
M  V30 2947 H 268.019 3.69466 1.68076 0
M  V30 2948 H 268.785 4.82065 -0.53274 0
M  V30 2949 H 264.664 4.56167 0.665812 0
M  V30 2950 H 268.208 6.66016 -2.07531 0
M  V30 2951 H 264.105 6.39621 -0.869199 0
M  V30 2952 H 264.873 7.83601 -2.36455 0
M  V30 2953 N 267.536 -0.106894 1.57237 0
M  V30 2954 C 268.468 -1.15646 1.97885 0
M  V30 2955 C 269.481 -1.36981 0.879779 0
M  V30 2956 O 270.67 -1.35841 1.15799 0
M  V30 2957 C 267.77 -2.51425 2.27241 0
M  V30 2958 C 266.943 -2.50529 3.58545 0
M  V30 2959 C 266.002 -3.68145 3.75973 0
M  V30 2960 O 265.028 -3.51176 4.47956 0
M  V30 2961 N 266.23 -4.87177 3.15656 0
M  V30 2962 H 268.995 -0.81059 2.8853 0
M  V30 2963 H 266.556 -0.296024 1.59171 0
M  V30 2964 H 268.548 -3.28689 2.36105 0
M  V30 2965 H 267.118 -2.78147 1.42663 0
M  V30 2966 H 266.338 -1.58894 3.60758 0
M  V30 2967 H 267.626 -2.46997 4.44826 0
M  V30 2968 H 267.024 -5.03868 2.57165 0
M  V30 2969 H 265.581 -5.62075 3.30023 0
M  V30 2970 N 269.014 -1.53014 -0.377408 0
M  V30 2971 C 269.946 -1.74884 -1.48149 0
M  V30 2972 C 270.959 -0.629433 -1.5014 0
M  V30 2973 O 272.148 -0.905416 -1.53833 0
M  V30 2974 C 269.248 -1.80299 -2.86959 0
M  V30 2975 C 268.421 -3.09776 -3.08801 0
M  V30 2976 C 267.48 -3.06586 -4.27658 0
M  V30 2977 O 266.506 -3.80419 -4.23403 0
M  V30 2978 N 267.708 -2.26578 -5.34455 0
M  V30 2979 H 270.473 -2.70147 -1.29771 0
M  V30 2980 H 268.034 -1.51646 -0.56703 0
M  V30 2981 H 270.026 -1.75657 -3.64591 0
M  V30 2982 H 268.596 -0.92372 -2.98641 0
M  V30 2983 H 267.816 -3.27815 -2.18931 0
M  V30 2984 H 269.104 -3.95366 -3.20255 0
M  V30 2985 H 268.502 -1.66081 -5.40771 0
M  V30 2986 H 267.059 -2.27766 -6.10709 0
M  V30 2987 N 270.492 0.636531 -1.44174 0
M  V30 2988 C 271.722 1.42146 -1.49927 0
M  V30 2989 C 272.13 1.88812 -0.121063 0
M  V30 2990 O 271.473 1.61126 0.882267 0
M  V30 2991 C 271.535 2.67883 -2.39748 0
M  V30 2992 C 271.199 2.43048 -3.8701 0
M  V30 2993 C 272.196 2.05216 -4.77684 0
M  V30 2994 C 269.881 2.56856 -4.3166 0
M  V30 2995 C 271.875 1.81512 -6.11009 0
M  V30 2996 C 269.562 2.32766 -5.65034 0
M  V30 2997 C 270.56 1.95152 -6.54526 0
M  V30 2998 O 270.248 1.71326 -7.85431 0
M  V30 2999 H 269.98 0.442567 -0.51099 0
M  V30 3000 H 272.534 0.786158 -1.8976 0
M  V30 3001 H 270.764 3.34032 -1.94832 0
M  V30 3002 H 272.453 3.29874 -2.36513 0
M  V30 3003 H 273.219 1.94111 -4.44462 0
M  V30 3004 H 269.098 2.85104 -3.62266 0
M  V30 3005 H 272.642 1.52077 -6.80822 0
M  V30 3006 H 268.539 2.43479 -5.97819 0
M  V30 3007 H 269.307 1.85616 -7.97176 0
M  V30 3008 N 271.97 1.30982 0.876444 0
M  V30 3009 C 272.917 1.18085 1.98304 0
M  V30 3010 C 273.887 0.0682263 1.6596 0
M  V30 3011 O 275.072 0.239937 1.89285 0
M  V30 3012 C 272.212 0.887475 3.33493 0
M  V30 3013 C 271.325 2.08281 3.78475 0
M  V30 3014 C 270.46 1.72678 5.0235 0
M  V30 3015 C 269.499 2.88657 5.39762 0
M  V30 3016 N 268.636 2.53292 6.54819 0
M  V30 3017 H 273.476 2.1275 2.08666 0
M  V30 3018 H 271.013 1.05839 1.02159 0
M  V30 3019 H 272.971 0.697961 4.1132 0
M  V30 3020 H 271.601 -0.022315 3.22792 0
M  V30 3021 H 270.653 2.3833 2.96484 0
M  V30 3022 H 271.965 2.95108 4.02135 0
M  V30 3023 H 271.119 1.50151 5.87826 0
M  V30 3024 H 269.858 0.830327 4.8058 0
M  V30 3025 H 268.863 3.1184 4.52809 0
M  V30 3026 H 270.088 3.79002 5.63502 0
M  V30 3027 H 268.034 1.66163 6.34607 0
M  V30 3028 H 267.951 3.3365 6.7839 0
M  V30 3029 H 269.219 2.34143 7.43503 0
M  V30 3030 N 273.449 -1.08991 1.13837 0
M  V30 3031 C 274.396 -2.15748 0.819835 0
M  V30 3032 C 275.366 -1.64636 -0.220026 0
M  V30 3033 O 276.551 -1.90582 -0.0912757 0
M  V30 3034 C 273.691 -3.4382 0.296913 0
M  V30 3035 C 272.804 -4.0881 1.39636 0
M  V30 3036 C 271.939 -5.24655 0.831314 0
M  V30 3037 C 270.978 -5.81575 1.90886 0
M  V30 3038 N 270.115 -6.88774 1.36142 0
M  V30 3039 H 274.955 -2.42338 1.73426 0
M  V30 3040 H 272.492 -1.18935 0.865613 0
M  V30 3041 H 274.45 -4.17193 -0.0244339 0
M  V30 3042 H 273.08 -3.17535 -0.580628 0
M  V30 3043 H 272.132 -3.33258 1.83422 0
M  V30 3044 H 273.444 -4.47141 2.21058 0
M  V30 3045 H 272.598 -6.04942 0.461515 0
M  V30 3046 H 271.337 -4.87698 -0.013932 0
M  V30 3047 H 270.342 -4.99946 2.28767 0
M  V30 3048 H 271.567 -6.20592 2.75758 0
M  V30 3049 H 269.513 -6.53788 0.538254 0
M  V30 3050 H 269.43 -7.25898 2.11208 0
M  V30 3051 H 270.698 -7.72806 1.01933 0
M  V30 3052 N 274.927 -0.932562 -1.27047 0
M  V30 3053 C 275.874 -0.434072 -2.26681 0
M  V30 3054 C 276.844 0.501639 -1.58344 0
M  V30 3055 O 278.029 0.419734 -1.86126 0
M  V30 3056 C 275.169 0.30261 -3.43771 0
M  V30 3057 C 274.282 -0.667774 -4.26808 0
M  V30 3058 C 273.417 0.0892393 -5.31125 0
M  V30 3059 C 272.456 -0.873532 -6.05835 0
M  V30 3060 N 271.593 -0.148832 -7.01942 0
M  V30 3061 H 276.433 -1.28868 -2.68695 0
M  V30 3062 H 273.97 -0.646713 -1.32121 0
M  V30 3063 H 275.928 0.746092 -4.10474 0
M  V30 3064 H 274.558 1.12142 -3.02695 0
M  V30 3065 H 273.61 -1.22978 -3.59973 0
M  V30 3066 H 274.922 -1.40337 -4.78651 0
M  V30 3067 H 274.076 0.592409 -6.03801 0
M  V30 3068 H 272.815 0.85777 -4.80097 0
M  V30 3069 H 271.82 -1.38791 -5.31994 0
M  V30 3070 H 273.045 -1.64193 -6.58952 0
M  V30 3071 H 270.991 0.601365 -6.53238 0
M  V30 3072 H 270.908 -0.82391 -7.51497 0
M  V30 3073 H 272.176 0.333527 -7.78786 0
M  V30 3074 N 276.405 1.4127 -0.698611 0
M  V30 3075 C 277.653 2.00782 -0.230409 0
M  V30 3076 C 277.974 1.5562 1.17505 0
M  V30 3077 O 277.244 0.78815 1.79346 0
M  V30 3078 H 275.824 0.742464 -0.0821944 0
M  V30 3079 H 278.486 1.72852 -0.90045 0
M  V30 3080 H 277.582 3.11095 -0.25021 0
M  V30 3081 N 277.883 0.443576 1.51229 0
M  V30 3082 C 279.299 0.0962001 1.5931 0
M  V30 3083 C 279.499 -1.39501 1.45402 0
M  V30 3084 O 278.555 -2.16557 1.29843 0
M  V30 3085 C 279.868 0.621875 2.94199 0
M  V30 3086 C 281.416 0.582865 3.07525 0
M  V30 3087 C 281.891 1.08562 4.44948 0
M  V30 3088 N 283.382 1.04387 4.51284 0
M  V30 3089 C 284.117 1.40368 5.55954 0
M  V30 3090 N 283.613 1.83664 6.68011 0
M  V30 3091 N 285.406 1.32145 5.46346 0
M  V30 3092 H 277.557 1.41376 1.58514 0
M  V30 3093 H 279.82 0.582965 0.747567 0
M  V30 3094 H 279.526 1.66546 3.09767 0
M  V30 3095 H 279.4 0.0502125 3.77167 0
M  V30 3096 H 281.787 -0.451749 2.91622 0
M  V30 3097 H 281.868 1.191 2.26382 0
M  V30 3098 H 281.512 2.11873 4.61598 0
M  V30 3099 H 281.442 0.453956 5.2464 0
M  V30 3100 H 283.933 0.725986 3.70861 0
M  V30 3101 H 284.246 2.0934 7.43906 0
M  V30 3102 H 282.591 1.87596 6.69203 0
M  V30 3103 H 285.782 0.981808 4.57688 0
M  V30 3104 H 285.955 1.60514 6.27805 0
M  V30 3105 N 279.361 -1.56624 0.175154 0
M  V30 3106 C 280.61 -1.96173 -0.468921 0
M  V30 3107 C 280.923 -1.06401 -1.64128 0
M  V30 3108 O 282.129 -1.35648 -2.35185 0
M  V30 3109 C 280.585 -3.48833 -0.885633 0
M  V30 3110 C 280.193 -4.47237 0.261343 0
M  V30 3111 C 281.937 -3.97194 -1.49791 0
M  V30 3112 C 279.844 -5.9114 -0.175214 0
M  V30 3113 H 278.774 -0.732455 -0.178958 0
M  V30 3114 H 281.425 -1.81591 0.263997 0
M  V30 3115 H 279.807 -3.58848 -1.67464 0
M  V30 3116 H 280.981 -4.4894 1.03871 0
M  V30 3117 H 279.296 -4.08956 0.783827 0
M  V30 3118 H 281.893 -5.02167 -1.83665 0
M  V30 3119 H 282.236 -3.40351 -2.39722 0
M  V30 3120 H 282.769 -3.90212 -0.773267 0
M  V30 3121 H 279.508 -6.51865 0.689414 0
M  V30 3122 H 279.028 -5.92735 -0.91786 0
M  V30 3123 H 280.707 -6.44044 -0.617792 0
M  V30 3124 N 280.839 0.0985539 -1.57292 0
M  V30 3125 C 282.088 0.801358 -1.85098 0
M  V30 3126 C 282.401 1.80066 -0.763902 0
M  V30 3127 O 283.607 2.55112 -0.928981 0
M  V30 3128 C 282.063 1.47599 -3.28242 0
M  V30 3129 C 281.671 0.516624 -4.45011 0
M  V30 3130 C 283.415 2.16272 -3.65276 0
M  V30 3131 C 281.322 1.19564 -5.79188 0
M  V30 3132 H 280.252 0.303022 -0.69043 0
M  V30 3133 H 282.903 0.0542623 -1.8342 0
M  V30 3134 H 281.285 2.27042 -3.2445 0
M  V30 3135 H 282.459 -0.246065 -4.60143 0
M  V30 3136 H 280.774 -0.064227 -4.1635 0
M  V30 3137 H 283.371 2.67802 -4.62803 0
M  V30 3138 H 283.714 2.95009 -2.93727 0
M  V30 3139 H 284.247 1.43693 -3.70941 0
M  V30 3140 H 280.986 0.449157 -6.53959 0
M  V30 3141 H 280.506 1.92984 -5.67906 0
M  V30 3142 H 282.185 1.7231 -6.23633 0
M  V30 3143 N 282.317 1.53212 0.369288 0
M  V30 3144 C 283.542 1.73423 1.1375 0
M  V30 3145 C 283.967 0.460404 1.82378 0
M  V30 3146 O 283.325 -0.585298 1.71592 0
M  V30 3147 C 283.373 2.89769 2.1463 0
M  V30 3148 O 282.477 2.58119 3.21634 0
M  V30 3149 H 281.818 0.576061 0.330227 0
M  V30 3150 H 284.348 2.00083 0.427547 0
M  V30 3151 H 284.358 3.15829 2.58294 0
M  V30 3152 H 283.033 3.8217 1.64071 0
M  V30 3153 H 281.61 2.42864 2.82969 0
M  V30 3154 N 283.795 -0.628877 1.44509 0
M  V30 3155 C 285.072 -1.38733 1.37886 0
M  V30 3156 C 285.452 -2.11065 0.0387008 0
M  V30 3157 O 284.8 -2.06476 -0.97878 0
M  V30 3158 C 285.01 -2.35188 2.57852 0
M  V30 3159 C 286.358 -2.9845 3.02014 0
M  V30 3160 O 287.382 -2.45513 2.58073 0
M  V30 3161 O 286.241 -3.94487 3.78209 0
M  V30 3162 H 283.335 -0.621015 0.54614 0
M  V30 3163 H 285.881 -0.653744 1.56602 0
M  V30 3164 H 284.653 -1.80855 3.46998 0
M  V30 3165 H 284.276 -3.1596 2.4136 0
M  V30 3166 N 285.273 -1.31445 -0.869486 0
M  V30 3167 C 286.521 -1.20918 -1.61936 0
M  V30 3168 C 286.842 0.232683 -1.93607 0
M  V30 3169 O 286.112 1.15352 -1.58338 0
M  V30 3170 H 284.692 -0.44454 -0.600328 0
M  V30 3171 H 287.354 -1.64776 -1.0409 0
M  V30 3172 H 286.45 -1.78124 -2.56278 0
M  V30 3173 N 286.751 1.08385 -1.14413 0
M  V30 3174 C 287.997 1.81044 -0.913834 0
M  V30 3175 C 288.33 1.86004 0.558209 0
M  V30 3176 O 287.605 1.33606 1.4135 0
M  V30 3177 C 287.888 3.26648 -1.51569 0
M  V30 3178 C 287.741 3.29895 -3.0576 0
M  V30 3179 C 289.06 4.23629 -1.19273 0
M  V30 3180 H 286.179 0.65727 -0.333414 0
M  V30 3181 H 288.821 1.26896 -1.41412 0
M  V30 3182 H 286.971 3.72889 -1.09023 0
M  V30 3183 H 288.643 2.91977 -3.57137 0
M  V30 3184 H 286.886 2.69163 -3.40197 0
M  V30 3185 H 287.557 4.32516 -3.42977 0
M  V30 3186 H 290.033 3.85727 -1.56057 0
M  V30 3187 H 288.909 5.23822 -1.64017 0
M  V30 3188 H 289.17 4.41968 -0.108068 0
M  V30 3189 N 288.23 0.939286 1.26551 0
M  V30 3190 C 289.455 0.602008 1.98471 0
M  V30 3191 C 289.88 -0.815624 1.69497 0
M  V30 3192 O 289.238 -1.54912 0.941905 0
M  V30 3193 C 289.286 0.848407 3.50477 0
M  V30 3194 O 288.39 -0.0804009 4.12322 0
M  V30 3195 H 287.731 0.23049 0.622712 0
M  V30 3196 H 290.261 1.2617 1.61066 0
M  V30 3197 H 290.271 0.768553 4.00696 0
M  V30 3198 H 288.946 1.88171 3.70897 0
M  V30 3199 H 287.523 0.0503508 3.72866 0
M  V30 3200 N 289.708 -1.40897 0.706093 0
M  V30 3201 C 290.948 -2.02916 0.245827 0
M  V30 3202 C 291.312 -1.54751 -1.13649 0
M  V30 3203 O 292.513 -2.08768 -1.69321 0
M  V30 3204 C 290.784 -3.56031 0.312537 0
M  V30 3205 S 292.343 -4.38741 -0.0721388 0
M  V30 3206 H 289.161 -0.704186 0.0982007 0
M  V30 3207 H 291.763 -1.72168 0.926207 0
M  V30 3208 H 290.467 -3.88579 1.32039 0
M  V30 3209 H 289.998 -3.91495 -0.386641 0
M  V30 3210 H 292.013 -4.78952 -1.29692 0
M  V30 3211 N 291.186 -0.45159 -1.50991 0
M  V30 3212 C 292.133 0.352625 -2.2809 0
M  V30 3213 C 293.103 1.0044 -1.32291 0
M  V30 3214 O 294.288 1.02058 -1.6121 0
M  V30 3215 C 291.428 1.43983 -3.13629 0
M  V30 3216 C 290.541 0.804772 -4.24438 0
M  V30 3217 C 289.676 1.86822 -4.97263 0
M  V30 3218 C 288.715 1.21236 -5.99973 0
M  V30 3219 N 287.852 2.2178 -6.66152 0
M  V30 3220 H 292.692 -0.311186 -2.96371 0
M  V30 3221 H 290.229 -0.165308 -1.46168 0
M  V30 3222 H 292.187 2.08161 -3.61559 0
M  V30 3223 H 290.817 2.07307 -2.47434 0
M  V30 3224 H 289.869 0.0509129 -3.80366 0
M  V30 3225 H 291.181 0.286076 -4.97979 0
M  V30 3226 H 290.335 2.58628 -5.48813 0
M  V30 3227 H 289.074 2.42068 -4.23385 0
M  V30 3228 H 288.079 0.479828 -5.47702 0
M  V30 3229 H 289.304 0.667051 -6.75816 0
M  V30 3230 H 287.25 2.76079 -5.95077 0
M  V30 3231 H 287.167 1.74841 -7.35504 0
M  V30 3232 H 288.435 2.93026 -7.22327 0
M  V30 3233 N 292.664 1.56529 -0.183458 0
M  V30 3234 C 293.911 1.97244 0.458357 0
M  V30 3235 C 294.239 1.06992 1.62428 0
M  V30 3236 O 293.494 0.106542 1.9541 0
M  V30 3237 C 293.793 3.43939 0.971637 0
M  V30 3238 C 293.459 4.5083 -0.0796784 0
M  V30 3239 C 292.121 4.79786 -0.368584 0
M  V30 3240 C 294.473 5.15138 -0.792638 0
M  V30 3241 C 291.801 5.70345 -1.37563 0
M  V30 3242 C 294.153 6.06784 -1.78875 0
M  V30 3243 C 292.817 6.34102 -2.08497 0
M  V30 3244 H 292.087 0.721768 0.167725 0
M  V30 3245 H 294.734 1.89472 -0.277976 0
M  V30 3246 H 293.039 3.48724 1.78602 0
M  V30 3247 H 294.736 3.72791 1.47744 0
M  V30 3248 H 291.326 4.28317 0.155668 0
M  V30 3249 H 295.51 4.92868 -0.582659 0
M  V30 3250 H 290.766 5.89789 -1.61118 0
M  V30 3251 H 294.94 6.55677 -2.3465 0
M  V30 3252 H 292.567 7.04074 -2.86678 0
M  V30 3253 N 294.142 -0.090211 1.57342 0
M  V30 3254 C 295.391 -0.791531 1.8552 0
M  V30 3255 C 295.704 -1.79659 0.773441 0
M  V30 3256 O 296.91 -2.54616 0.942497 0
M  V30 3257 C 295.366 -1.45856 3.2902 0
M  V30 3258 C 294.974 -0.493017 4.45279 0
M  V30 3259 C 296.718 -2.14332 3.66418 0
M  V30 3260 C 294.625 -1.16491 5.79814 0
M  V30 3261 H 293.555 -0.299356 0.692027 0
M  V30 3262 H 296.206 -0.0445343 1.83446 0
M  V30 3263 H 294.588 -2.25318 3.2565 0
M  V30 3264 H 295.762 0.270464 4.60006 0
M  V30 3265 H 294.077 0.0863061 4.16311 0
M  V30 3266 H 296.674 -2.65344 4.64216 0
M  V30 3267 H 297.017 -2.93447 2.95287 0
M  V30 3268 H 297.55 -1.41724 3.71698 0
M  V30 3269 H 294.289 -0.41447 6.54188 0
M  V30 3270 H 293.809 -1.8997 5.68921 0
M  V30 3271 H 295.488 -1.69001 6.24538 0
M  V30 3272 N 295.62 -1.53406 -0.361157 0
M  V30 3273 C 297.036 -1.43277 -0.703124 0
M  V30 3274 C 297.236 -0.575384 -1.9311 0
M  V30 3275 O 296.292 -0.0595362 -2.5243 0
M  V30 3276 C 297.605 -2.8653 -0.9122 0
M  V30 3277 C 299.153 -2.96191 -1.01193 0
M  V30 3278 C 299.628 -4.40514 -1.25345 0
M  V30 3279 N 301.119 -4.43962 -1.32105 0
M  V30 3280 C 301.854 -5.52746 -1.5251 0
M  V30 3281 N 301.35 -6.71567 -1.70203 0
M  V30 3282 N 303.143 -5.40331 -1.54916 0
M  V30 3283 H 295.294 -2.07654 0.446475 0
M  V30 3284 H 297.557 -0.937944 0.137715 0
M  V30 3285 H 297.263 -3.51605 -0.0816414 0
M  V30 3286 H 297.137 -3.30441 -1.81903 0
M  V30 3287 H 299.524 -2.31266 -1.83303 0
M  V30 3288 H 299.605 -2.55667 -0.0823929 0
M  V30 3289 H 299.249 -5.06014 -0.437346 0
M  V30 3290 H 299.179 -4.78614 -2.19627 0
M  V30 3291 H 301.67 -3.58332 -1.20028 0
M  V30 3292 H 301.983 -7.50241 -1.85359 0
M  V30 3293 H 300.328 -6.74545 -1.67373 0
M  V30 3294 H 303.519 -4.46465 -1.40663 0
M  V30 3295 H 303.692 -6.25173 -1.70477 0
M  V30 3296 N 297.098 0.621204 -1.44841 0
M  V30 3297 C 298.008 1.7612 -1.5498 0
M  V30 3298 C 299.024 1.68477 -0.434927 0
M  V30 3299 O 300.2 1.89076 -0.693693 0
M  V30 3300 C 297.265 3.1254 -1.50065 0
M  V30 3301 C 296.326 3.31741 -2.72482 0
M  V30 3302 C 295.559 4.61653 -2.67792 0
M  V30 3303 O 295.782 5.431 -1.74352 0
M  V30 3304 O 294.716 4.83271 -3.58794 0
M  V30 3305 H 298.542 1.70518 -2.51311 0
M  V30 3306 H 296.127 0.783643 -1.27198 0
M  V30 3307 H 298.009 3.93844 -1.49882 0
M  V30 3308 H 296.684 3.18663 -0.568806 0
M  V30 3309 H 295.591 2.50077 -2.7823 0
M  V30 3310 H 296.924 3.30486 -3.64746 0
M  V30 3311 N 298.576 1.31904 0.862503 0
M  V30 3312 C 299.523 1.20182 1.9704 0
M  V30 3313 C 300.493 0.0858247 1.65878 0
M  V30 3314 O 301.678 0.26 1.8902 0
M  V30 3315 C 298.818 0.922797 3.32533 0
M  V30 3316 C 297.931 2.12284 3.76244 0
M  V30 3317 C 297.066 1.77996 5.00491 0
M  V30 3318 C 296.105 2.94366 5.36671 0
M  V30 3319 N 295.242 2.60223 6.52095 0
M  V30 3320 H 300.082 2.14951 2.06398 0
M  V30 3321 H 297.619 1.06917 1.01031 0
M  V30 3322 H 299.577 0.741548 4.10557 0
M  V30 3323 H 298.207 0.0119227 3.22798 0
M  V30 3324 H 297.259 2.41461 2.9394 0
M  V30 3325 H 298.571 2.99357 3.98982 0
M  V30 3326 H 297.725 1.56377 5.862 0
M  V30 3327 H 296.464 0.881252 4.79672 0
M  V30 3328 H 295.469 3.16625 4.49476 0
M  V30 3329 H 296.694 3.84957 5.59451 0
M  V30 3330 H 294.64 1.72884 6.32809 0
M  V30 3331 H 294.557 3.40827 6.74814 0
M  V30 3332 H 295.825 2.42016 7.40978 0
M  V30 3333 N 300.054 -1.07777 1.14986 0
M  V30 3334 C 301.302 -1.79934 0.920235 0
M  V30 3335 C 301.623 -1.86955 -0.554336 0
M  V30 3336 O 300.893 -1.36731 -1.40291 0
M  V30 3337 H 299.473 -0.666424 0.337473 0
M  V30 3338 H 302.135 -1.3027 1.44968 0
M  V30 3339 H 301.231 -2.82539 1.32583 0
M  V30 3340 N 301.532 -0.945985 -1.26051 0
M  V30 3341 C 302.943 -0.638096 -1.75457 0
M  V30 3342 C 303.294 0.846672 -1.76991 0
M  V30 3343 O 302.419 1.66262 -1.38513 0
M  V30 3344 C 303.014 -1.15157 -3.18629 0
M  V30 3345 C 301.573 -0.894004 -3.65629 0
M  V30 3346 C 300.72 -1.29967 -2.44957 0
M  V30 3347 H 303.671 -1.12376 -1.1206 0
M  V30 3348 H 303.692 -0.507615 -3.77099 0
M  V30 3349 H 303.204 -2.23222 -3.1748 0
M  V30 3350 H 301.305 0.172057 -3.72203 0
M  V30 3351 H 301.418 -1.52439 -4.54202 0
M  V30 3352 H 299.782 -0.718078 -2.44368 0
M  V30 3353 H 300.565 -2.38935 -2.46505 0
M  V30 3354 N 303.011 1.40521 -0.713556 0
M  V30 3355 C 303.941 2.33381 -0.0743864 0
M  V30 3356 C 304.922 1.52784 0.747735 0
M  V30 3357 O 306.107 1.81258 0.697071 0
M  V30 3358 C 303.237 3.36748 0.849598 0
M  V30 3359 C 302.191 4.27793 0.133247 0
M  V30 3360 C 301.517 5.21679 1.17281 0
M  V30 3361 C 302.817 5.12415 -1.01134 0
M  V30 3362 H 304.511 2.87081 -0.850007 0
M  V30 3363 H 302.057 1.38034 -0.410201 0
M  V30 3364 H 304.01 4.00648 1.30612 0
M  V30 3365 H 302.734 2.81439 1.65709 0
M  V30 3366 H 301.393 3.65342 -0.303426 0
M  V30 3367 H 301.041 4.62677 1.9733 0
M  V30 3368 H 300.741 5.83435 0.698397 0
M  V30 3369 H 302.265 5.88456 1.62947 0
M  V30 3370 H 303.679 5.69781 -0.634274 0
M  V30 3371 H 302.076 5.83203 -1.41399 0
M  V30 3372 H 303.146 4.48514 -1.84292 0
M  V30 3373 N 304.489 0.459591 1.5075 0
M  V30 3374 C 305.766 -0.160371 1.94941 0
M  V30 3375 C 306.146 -1.58048 1.39943 0
M  V30 3376 O 305.494 -2.206 0.595629 0
M  V30 3377 C 305.704 -0.115432 3.48809 0
M  V30 3378 C 307.052 -0.310026 4.23467 0
M  V30 3379 O 308.076 -0.192543 3.55679 0
M  V30 3380 O 306.935 -0.546031 5.43765 0
M  V30 3381 H 304.029 -0.117925 0.818549 0
M  V30 3382 H 306.575 0.519169 1.61563 0
M  V30 3383 H 305.347 0.87652 3.81357 0
M  V30 3384 H 304.97 -0.836928 3.88692 0
M  V30 3385 N 305.967 -1.56429 0.191757 0
M  V30 3386 C 306.914 -2.18936 -0.730454 0
M  V30 3387 C 307.884 -1.13557 -1.21219 0
M  V30 3388 O 309.069 -1.41794 -1.27668 0
M  V30 3389 C 306.209 -2.85013 -1.9458 0
M  V30 3390 C 305.322 -4.04909 -1.50574 0
M  V30 3391 C 304.457 -4.58853 -2.67634 0
M  V30 3392 C 303.496 -5.71114 -2.20217 0
M  V30 3393 N 302.633 -6.19478 -3.30442 0
M  V30 3394 H 307.473 -2.97389 -0.190664 0
M  V30 3395 H 305.01 -1.46869 -0.0823694 0
M  V30 3396 H 306.968 -3.21492 -2.65893 0
M  V30 3397 H 305.598 -2.09129 -2.45896 0
M  V30 3398 H 304.65 -3.74115 -0.688605 0
M  V30 3399 H 305.962 -4.86113 -1.11784 0
M  V30 3400 H 305.116 -4.97619 -3.47074 0
M  V30 3401 H 303.855 -3.76749 -3.09696 0
M  V30 3402 H 302.86 -5.31879 -1.3923 0
M  V30 3403 H 304.085 -6.55033 -1.79189 0
M  V30 3404 H 302.031 -5.40297 -3.72041 0
M  V30 3405 H 301.948 -6.95725 -2.9581 0
M  V30 3406 H 303.216 -6.62898 -4.10106 0
M  V30 3407 N 307.445 0.0818655 -1.57387 0
M  V30 3408 C 308.694 0.781681 -1.85937 0
M  V30 3409 C 309.007 1.79246 -0.782957 0
M  V30 3410 O 310.213 2.54112 -0.955987 0
M  V30 3411 C 308.669 1.44109 -3.29789 0
M  V30 3412 C 308.277 0.469396 -4.45534 0
M  V30 3413 C 310.021 2.12386 -3.67549 0
M  V30 3414 C 307.928 1.13415 -5.80423 0
M  V30 3415 H 306.858 0.295682 -0.693605 0
M  V30 3416 H 309.509 0.0348051 -1.83467 0
M  V30 3417 H 307.891 2.23588 -3.2684 0
M  V30 3418 H 309.065 -0.294856 -4.59856 0
M  V30 3419 H 307.38 -0.108383 -4.16259 0
M  V30 3420 H 309.977 2.62878 -4.65617 0
M  V30 3421 H 310.32 2.91877 -2.96839 0
M  V30 3422 H 310.853 1.39751 -3.72444 0
M  V30 3423 H 307.592 0.379771 -6.54399 0
M  V30 3424 H 307.112 1.8695 -5.69921 0
M  V30 3425 H 308.791 1.65686 -6.25426 0
M  V30 3426 N 308.923 1.53595 0.353017 0
M  V30 3427 C 310.153 1.74058 1.11299 0
M  V30 3428 C 310.561 0.475205 1.83135 0
M  V30 3429 O 309.904 -0.562344 1.74881 0
M  V30 3430 C 309.966 2.85994 2.17825 0
M  V30 3431 C 309.63 4.25923 1.65647 0
M  V30 3432 C 310.627 5.07829 1.11383 0
M  V30 3433 C 308.312 4.72377 1.7078 0
M  V30 3434 C 310.306 6.34285 0.629439 0
M  V30 3435 C 307.993 5.98808 1.21953 0
M  V30 3436 C 308.991 6.79594 0.681265 0
M  V30 3437 O 308.679 8.03651 0.200248 0
M  V30 3438 H 308.411 0.585327 0.338183 0
M  V30 3439 H 310.965 2.01186 0.413927 0
M  V30 3440 H 309.195 2.54368 2.91262 0
M  V30 3441 H 310.884 2.94515 2.79313 0
M  V30 3442 H 311.65 4.73107 1.06746 0
M  V30 3443 H 307.529 4.0956 2.11617 0
M  V30 3444 H 311.073 6.97288 0.208636 0
M  V30 3445 H 306.97 6.33026 1.26287 0
M  V30 3446 H 307.738 8.1788 0.318416 0
M  V30 3447 N 310.401 -0.613514 1.45168 0
M  V30 3448 C 311.348 -1.72456 1.53387 0
M  V30 3449 C 312.318 -1.6169 0.380191 0
M  V30 3450 O 313.503 -1.81356 0.592836 0
M  V30 3451 C 310.643 -3.10753 1.50088 0
M  V30 3452 C 309.756 -3.32368 2.75963 0
M  V30 3453 C 308.891 -4.60737 2.64376 0
M  V30 3454 C 307.93 -4.7559 3.85332 0
M  V30 3455 N 307.067 -5.95253 3.72315 0
M  V30 3456 H 311.907 -1.64768 2.48305 0
M  V30 3457 H 309.444 -0.803503 1.23216 0
M  V30 3458 H 311.402 -3.90758 1.46164 0
M  V30 3459 H 310.032 -3.17413 0.587243 0
M  V30 3460 H 309.084 -2.4618 2.89999 0
M  V30 3461 H 310.396 -3.39218 3.65695 0
M  V30 3462 H 309.55 -5.48928 2.58385 0
M  V30 3463 H 308.289 -4.56275 1.72233 0
M  V30 3464 H 307.294 -3.85824 3.91688 0
M  V30 3465 H 308.519 -4.81854 4.78533 0
M  V30 3466 H 306.465 -5.91847 2.82937 0
M  V30 3467 H 306.382 -6.03236 4.55677 0
M  V30 3468 H 307.65 -6.85958 3.70246 0
M  V30 3469 N 311.879 -1.3236 -0.855495 0
M  V30 3470 C 313.156 -1.13491 -1.59309 0
M  V30 3471 C 313.536 0.30503 -2.08885 0
M  V30 3472 O 312.884 1.30151 -1.87811 0
M  V30 3473 C 313.094 -2.16176 -2.73987 0
M  V30 3474 C 314.442 -2.49463 -3.43589 0
M  V30 3475 O 315.466 -2.14715 -2.84211 0
M  V30 3476 O 314.325 -3.09027 -4.50738 0
M  V30 3477 H 311.419 -0.437887 -0.701559 0
M  V30 3478 H 313.965 -1.43887 -0.899696 0
M  V30 3479 H 312.737 -3.1297 -2.34873 0
M  V30 3480 H 312.36 -1.86769 -3.51003 0
M  V30 3481 N 313.357 1.07166 -1.15556 0
M  V30 3482 C 314.606 1.79181 -0.926132 0
M  V30 3483 C 314.919 1.87768 0.547967 0
M  V30 3484 O 316.125 2.56323 0.895036 0
M  V30 3485 C 314.581 3.22 -1.60761 0
M  V30 3486 C 314.189 3.21607 -3.11886 0
M  V30 3487 C 315.933 3.9861 -1.4598 0
M  V30 3488 C 313.84 4.59092 -3.72812 0
M  V30 3489 H 312.77 0.67154 -0.342856 0
M  V30 3490 H 315.421 1.2027 -1.3859 0
M  V30 3491 H 313.803 3.81115 -1.07553 0
M  V30 3492 H 314.977 2.72127 -3.71865 0
M  V30 3493 H 313.292 2.58495 -3.2645 0
M  V30 3494 H 315.889 5.00225 -1.88888 0
M  V30 3495 H 316.232 4.143 -0.407541 0
M  V30 3496 H 316.765 3.45996 -1.96295 0
M  V30 3497 H 313.504 4.48606 -4.77946 0
M  V30 3498 H 313.024 5.08803 -3.17616 0
M  V30 3499 H 314.703 5.28059 -3.73848 0
M  V30 3500 N 314.835 0.952656 1.25548 0
M  V30 3501 C 315.783 0.462354 2.27958 0
M  V30 3502 C 316.777 -0.46634 1.62855 0
M  V30 3503 O 317.983 -0.343287 1.76696 0
M  V30 3504 H 314.358 0.13101 0.7405 0
M  V30 3505 H 316.329 1.33839 2.66702 0
M  V30 3506 C 315.078 -0.24628 3.46827 0
M  V30 3507 H 314.401 0.459192 3.97154 0
M  V30 3508 H 315.841 -0.553393 4.20373 0
M  V30 3509 C 314.3 -1.4681 3.0323 0
M  V30 3510 O 314.83 -2.56591 3.09069 0
M  V30 3511 N 313.036 -1.32874 2.58443 0
M  V30 3512 H 312.583 -0.435536 2.53891 0
M  V30 3513 H 312.541 -2.14742 2.29637 0
M  V30 3514 N 316.313 -1.40141 0.720998 0
M  V30 3515 C 317.541 -2.05096 0.272656 0
M  V30 3516 C 317.956 -1.54334 -1.0875 0
M  V30 3517 O 317.313 -0.702211 -1.6845 0
M  V30 3518 C 317.364 -3.60636 0.249835 0
M  V30 3519 O 317.085 -4.09526 1.55629 0
M  V30 3520 C 318.586 -4.42772 -0.216396 0
M  V30 3521 H 315.806 -0.659897 0.121558 0
M  V30 3522 H 318.35 -1.79449 0.980723 0
M  V30 3523 H 316.505 -3.85232 -0.409237 0
M  V30 3524 H 316.919 -5.03758 1.4604 0
M  V30 3525 H 318.393 -5.51702 -0.181212 0
M  V30 3526 H 318.87 -4.20756 -1.25941 0
M  V30 3527 H 319.476 -4.23294 0.412596 0
M  V30 3528 N 317.792 -0.46758 -1.50504 0
M  V30 3529 C 319.038 0.0887532 -2.02606 0
M  V30 3530 C 319.371 1.39686 -1.34913 0
M  V30 3531 O 318.646 1.88644 -0.473694 0
M  V30 3532 C 318.929 0.276206 -3.59039 0
M  V30 3533 C 318.782 -1.05267 -4.37309 0
M  V30 3534 C 320.101 1.03235 -4.27821 0
M  V30 3535 H 317.22 0.0307814 -0.736357 0
M  V30 3536 H 319.862 -0.612485 -1.79857 0
M  V30 3537 H 318.012 0.8735 -3.78553 0
M  V30 3538 H 319.684 -1.68628 -4.29374 0
M  V30 3539 H 317.927 -1.65015 -4.01189 0
M  V30 3540 H 318.598 -0.875197 -5.45018 0
M  V30 3541 H 321.074 0.526111 -4.12761 0
M  V30 3542 H 319.95 1.1323 -5.37094 0
M  V30 3543 H 320.211 2.06806 -3.90748 0
M  V30 3544 N 319.27 1.56325 -0.20005 0
M  V30 3545 C 320.2 2.22318 0.713916 0
M  V30 3546 C 321.181 1.18788 1.21752 0
M  V30 3547 O 322.366 1.47309 1.26545 0
M  V30 3548 C 319.496 2.88639 1.93144 0
M  V30 3549 C 318.45 3.98457 1.56255 0
M  V30 3550 C 317.776 4.51967 2.85709 0
M  V30 3551 C 319.076 5.16612 0.768747 0
M  V30 3552 H 320.77 2.98952 0.163755 0
M  V30 3553 H 318.316 1.43792 0.0773219 0
M  V30 3554 H 320.269 3.33491 2.57608 0
M  V30 3555 H 318.993 2.09419 2.50621 0
M  V30 3556 H 317.652 3.54305 0.941471 0
M  V30 3557 H 317.3 3.69503 3.41287 0
M  V30 3558 H 317 5.26071 2.6177 0
M  V30 3559 H 318.524 4.99523 3.51154 0
M  V30 3560 H 319.938 5.57977 1.3166 0
M  V30 3561 H 318.335 5.96812 0.627286 0
M  V30 3562 H 319.405 4.84358 -0.229168 0
M  V30 3563 N 320.748 -0.0735177 1.57428 0
M  V30 3564 C 321.658 -1.10547 2.06922 0
M  V30 3565 C 322.674 -1.42506 0.998402 0
M  V30 3566 O 323.85 -1.52717 1.31299 0
M  V30 3567 C 320.915 -2.40019 2.50184 0
M  V30 3568 C 319.976 -2.15046 3.71556 0
M  V30 3569 C 319.209 -3.38345 4.12745 0
M  V30 3570 O 319.432 -4.47399 3.53822 0
M  V30 3571 O 318.366 -3.2666 5.05546 0
M  V30 3572 H 322.192 -0.715013 2.95163 0
M  V30 3573 H 319.777 -0.287531 1.46607 0
M  V30 3574 H 321.659 -3.16218 2.78539 0
M  V30 3575 H 320.334 -2.78447 1.65072 0
M  V30 3576 H 319.241 -1.36558 3.48285 0
M  V30 3577 H 320.574 -1.81499 4.57514 0
M  V30 3578 N 322.226 -1.5378 -0.344866 0
M  V30 3579 C 323.451 -1.75211 -1.10977 0
M  V30 3580 C 323.876 -0.48936 -1.81623 0
M  V30 3581 O 323.234 0.557925 -1.72502 0
M  V30 3582 C 323.282 -2.93147 -2.09993 0
M  V30 3583 O 322.386 -2.63203 -3.17487 0
M  V30 3584 H 321.727 -0.581241 -0.321021 0
M  V30 3585 H 324.257 -2.00738 -0.395661 0
M  V30 3586 H 324.267 -3.19898 -2.53237 0
M  V30 3587 H 322.942 -3.84731 -1.5797 0
M  V30 3588 H 321.519 -2.47336 -2.79069 0
M  V30 3589 O 323.743 0.490843 -1.5386 0
M  V30 3590 H 324.434 1.14557 -1.56193 0
M  V30 END ATOM
M  V30 BEGIN BOND
M  V30 END BOND
M  V30 END CTAB
M  END
$$$$
