drugbank_target|P14223 Fructose-bisphosphate aldolase (DB11638)
 OpenBabel12092121093D

  0  0  0     0  0            999 V3000
M  V30 BEGIN CTAB
M  V30 COUNTS 5689 5738 0 0 0
M  V30 BEGIN ATOM
M  V30 1 H -0.908 1.98254 -0.117106 0
M  V30 2 N 0 1.576 0 0
M  V30 3 C 0.933 2.03868 1.02534 0
M  V30 4 C 1.911 0.928543 1.3348 0
M  V30 5 O 3.095 1.19667 1.45644 0
M  V30 6 C 0.222 2.43627 2.35294 0
M  V30 7 C -0.732 3.65373 2.2001 0
M  V30 8 S 0.101 5.13292 1.52614 0
M  V30 9 C 1.257 5.56322 2.86805 0
M  V30 10 H 1.49 2.90518 0.631377 0
M  V30 11 H -0.977 1.52953 0.210867 0
M  V30 12 H 0.981 2.67203 3.11629 0
M  V30 13 H -0.358 1.57376 2.7183 0
M  V30 14 H -1.165 3.90944 3.18086 0
M  V30 15 H -1.563 3.418 1.51819 0
M  V30 16 H 0.729 5.58782 3.83104 0
M  V30 17 H 1.672 6.56266 2.65933 0
M  V30 18 H 2.08 4.83886 2.90714 0
M  V30 19 N 1.4781 -0.272755 1.55222 0
M  V30 20 C 2.4411 -1.32041 1.87344 0
M  V30 21 C 3.4411 -1.42342 0.74803 0
M  V30 22 O 4.6311 -1.41488 1.0162 0
M  V30 23 C 1.7631 -2.70173 2.07893 0
M  V30 24 H 2.9561 -1.04789 2.80997 0
M  V30 25 H 0.5091 -0.51083 1.47717 0
M  V30 26 H 1.2441 -3.02605 1.16622 0
M  V30 27 H 1.0291 -2.64082 2.89833 0
M  V30 28 H 2.5191 -3.45869 2.34017 0
M  V30 29 N 2.9562 -1.48159 -0.537278 0
M  V30 30 C 3.9062 -1.5854 -1.63857 0
M  V30 31 C 4.8902 -0.442969 -1.54682 0
M  V30 32 O 6.0822 -0.69401 -1.62827 0
M  V30 33 C 3.2112 -1.62144 -3.02596 0
M  V30 34 C 2.2972 -2.81841 -3.16901 0
M  V30 35 N 2.6882 -4.06337 -3.01204 0
M  V30 36 C 0.9862 -2.79021 -3.47942 0
M  V30 37 C 1.6872 -4.86606 -3.18731 0
M  V30 38 N 0.6632 -4.19288 -3.45974 0
M  V30 39 H 4.4652 -2.5255 -1.50319 0
M  V30 40 H 1.9792 -1.4443 -0.742555 0
M  V30 41 H 3.9762 -1.67674 -3.81695 0
M  V30 42 H 2.6362 -0.69245 -3.17231 0
M  V30 43 H 3.6472 -4.36888 -2.78117 0
M  V30 44 H 0.3242 -1.95347 -3.6898 0
M  V30 45 H 1.7142 -5.95385 -3.11394 0
M  V30 46 N 4.4343 0.785586 -1.36625 0
M  V30 47 C 5.6743 1.55678 -1.32453 0
M  V30 48 C 6.0383 1.91769 0.0941089 0
M  V30 49 O 7.2393 2.67536 0.26042 0
M  V30 50 C 5.5103 2.79701 -2.22491 0
M  V30 51 S 7.0693 3.69907 -2.36038 0
M  V30 52 H 3.8873 0.533141 -0.470405 0
M  V30 53 H 6.4893 0.924953 -1.72235 0
M  V30 54 H 5.1933 2.51244 -3.24507 0
M  V30 55 H 4.7243 3.47854 -1.83742 0
M  V30 56 H 6.7393 4.71016 -1.56072 0
M  V30 57 N 5.9124 1.20967 1.01018 0
M  V30 58 C 7.1404 1.04956 1.78303 0
M  V30 59 C 7.5554 -0.400915 1.84494 0
M  V30 60 O 6.9124 -1.27826 1.30257 0
M  V30 61 C 6.9634 1.63403 3.22462 0
M  V30 62 O 6.6844 3.02775 3.16637 0
M  V30 63 C 8.1854 1.52432 4.16268 0
M  V30 64 H 5.4054 0.368858 0.560522 0
M  V30 65 H 7.9494 1.60193 1.27116 0
M  V30 66 H 6.1044 1.1227 3.70775 0
M  V30 67 H 6.5184 3.30626 4.07169 0
M  V30 68 H 7.9924 1.98078 5.15237 0
M  V30 69 H 8.4694 0.477875 4.36592 0
M  V30 70 H 9.0754 2.02787 3.73841 0
M  V30 71 N 7.3905 -1.2043 1.01659 0
M  V30 72 C 8.3005 -2.2689 0.596484 0
M  V30 73 C 9.3165 -1.70107 -0.36599 0
M  V30 74 O 10.4925 -2.00117 -0.226942 0
M  V30 75 C 7.5575 -3.4665 -0.0586659 0
M  V30 76 C 6.6185 -4.18662 0.949751 0
M  V30 77 C 5.8515 -5.32705 0.32577 0
M  V30 78 O 6.0745 -5.63656 -0.874509 0
M  V30 79 O 5.0085 -5.92803 1.04249 0
M  V30 80 H 8.8345 -2.65041 1.4828 0
M  V30 81 H 6.4195 -1.27048 0.786082 0
M  V30 82 H 8.3015 -4.19256 -0.424564 0
M  V30 83 H 6.9765 -3.10375 -0.91918 0
M  V30 84 H 5.8835 -3.48229 1.36702 0
M  V30 85 H 7.2165 -4.58878 1.78023 0
M  V30 86 N 8.8686 -0.792821 -1.36206 0
M  V30 87 C 10.0986 -0.378275 -2.03107 0
M  V30 88 C 10.5066 1.01119 -1.59911 0
M  V30 89 O 9.8496 1.66052 -0.785658 0
M  V30 90 C 9.9116 -0.366535 -3.57627 0
M  V30 91 C 9.5756 -1.70416 -4.24037 0
M  V30 92 C 10.5726 -2.6602 -4.46687 0
M  V30 93 C 8.2576 -1.98439 -4.6144 0
M  V30 94 C 10.2516 -3.8784 -5.05825 0
M  V30 95 C 7.9386 -3.20525 -5.20295 0
M  V30 96 C 8.9366 -4.15044 -5.42427 0
M  V30 97 O 8.6246 -5.34978 -6.00045 0
M  V30 98 H 8.3566 -0.153543 -0.658332 0
M  V30 99 H 10.9106 -1.07383 -1.75094 0
M  V30 100 H 9.1406 0.385539 -3.84773 0
M  V30 101 H 10.8296 0.0238088 -4.05893 0
M  V30 102 H 11.5956 -2.45658 -4.18183 0
M  V30 103 H 7.4746 -1.25686 -4.43536 0
M  V30 104 H 11.0186 -4.61628 -5.23015 0
M  V30 105 H 6.9156 -3.40764 -5.48225 0
M  V30 106 H 7.6836 -5.36088 -6.18508 0
M  V30 107 N 10.3467 1.47872 -0.545128 0
M  V30 108 C 11.2797 2.2675 0.256885 0
M  V30 109 C 12.2577 1.33293 0.931228 0
M  V30 110 O 13.4417 1.62657 0.95262 0
M  V30 111 C 10.5687 3.09976 1.36501 0
M  V30 112 C 9.6147 4.1892 0.800496 0
M  V30 113 S 10.4477 5.34397 -0.343505 0
M  V30 114 C 11.6037 6.21186 0.766733 0
M  V30 115 H 11.8367 2.94425 -0.412479 0
M  V30 116 H 9.3697 1.50806 -0.331204 0
M  V30 117 H 11.3277 3.585 1.9997 0
M  V30 118 H 9.9887 2.41686 2.00616 0
M  V30 119 H 9.1817 4.76836 1.63227 0
M  V30 120 H 8.7837 3.73215 0.242217 0
M  V30 121 H 11.0757 6.56804 1.66178 0
M  V30 122 H 12.0187 7.07742 0.225204 0
M  V30 123 H 12.4267 5.54574 1.05396 0
M  V30 124 N 11.8248 0.280983 1.55075 0
M  V30 125 C 12.7728 -0.619864 2.24188 0
M  V30 126 C 13.7668 -1.15315 1.24092 0
M  V30 127 O 14.9728 -1.1061 1.42005 0
M  V30 128 H 11.3478 -0.218459 0.719569 0
M  V30 129 H 13.3188 -0.0141831 2.98397 0
M  V30 130 C 12.0678 -1.7899 2.98091 0
M  V30 131 H 11.3908 -1.38874 3.74905 0
M  V30 132 H 12.8308 -2.39672 3.49762 0
M  V30 133 C 11.2898 -2.68192 2.03899 0
M  V30 134 O 11.8198 -3.6872 1.594 0
M  V30 135 N 10.0258 -2.35488 1.70275 0
M  V30 136 H 9.5728 -1.53787 2.06658 0
M  V30 137 H 9.5308 -2.95442 1.07524 0
M  V30 138 N 13.3029 -1.57598 0.00835791 0
M  V30 139 C 14.2659 -2.07884 -0.965242 0
M  V30 140 C 15.2659 -0.989825 -1.26725 0
M  V30 141 O 16.4559 -1.25218 -1.21104 0
M  V30 142 C 13.5879 -2.52731 -2.28779 0
M  V30 143 H 14.7809 -2.95178 -0.530112 0
M  V30 144 H 12.3339 -1.54458 -0.239283 0
M  V30 145 H 13.0689 -1.68705 -2.76964 0
M  V30 146 H 12.8539 -3.32272 -2.08177 0
M  V30 147 H 14.3439 -2.91933 -2.98605 0
M  V30 148 N 14.781 0.264519 -1.55364 0
M  V30 149 C 16.192 0.834936 -1.6699 0
M  V30 150 C 16.543 1.86718 -0.602552 0
M  V30 151 O 15.668 2.14899 0.254425 0
M  V30 152 C 16.263 1.5212 -3.02729 0
M  V30 153 C 14.822 2.03954 -3.16354 0
M  V30 154 C 13.969 0.884498 -2.62815 0
M  V30 155 H 16.92 0.0406869 -1.58648 0
M  V30 156 H 16.941 2.38853 -2.96191 0
M  V30 157 H 16.453 0.769668 -3.80392 0
M  V30 158 H 14.554 2.82041 -2.43482 0
M  V30 159 H 14.667 2.24902 -4.23032 0
M  V30 160 H 13.031 1.2802 -2.20188 0
M  V30 161 H 13.814 0.14634 -3.42988 0
M  V30 162 N 16.2591 1.48442 0.529413 0
M  V30 163 C 17.2061 1.63007 1.63394 0
M  V30 164 C 18.1761 0.47212 1.59249 0
M  V30 165 O 19.3611 0.695673 1.77666 0
M  V30 166 C 16.5011 1.6763 3.01653 0
M  V30 167 C 15.6141 2.94535 3.16027 0
M  V30 168 C 14.7491 2.90316 4.44849 0
M  V30 169 C 13.7881 4.11923 4.52754 0
M  V30 170 N 12.9251 4.05777 5.72965 0
M  V30 171 H 17.7651 2.5733 1.50285 0
M  V30 172 H 15.3021 1.27613 0.731656 0
M  V30 173 H 17.2601 1.68292 3.81751 0
M  V30 174 H 15.8901 0.76797 3.13532 0
M  V30 175 H 14.9421 3.03615 2.29177 0
M  V30 176 H 16.2541 3.84512 3.17729 0
M  V30 177 H 15.4081 2.89382 5.33238 0
M  V30 178 H 14.1471 1.98068 4.45668 0
M  V30 179 H 13.1521 4.13131 3.62771 0
M  V30 180 H 14.3771 5.0533 4.53672 0
M  V30 181 H 12.3231 3.16351 5.74681 0
M  V30 182 H 12.2401 4.8946 5.76164 0
M  V30 183 H 13.5081 4.08904 6.6364 0
M  V30 184 N 17.7372 -0.778329 1.37039 0
M  V30 185 C 18.6842 -1.89139 1.32269 0
M  V30 186 C 19.6542 -1.65017 0.189387 0
M  V30 187 O 20.8392 -1.87024 0.377693 0
M  V30 188 C 17.9792 -3.26112 1.12894 0
M  V30 189 C 17.0922 -3.62233 2.35396 0
M  V30 190 C 16.2272 -4.8838 2.08946 0
M  V30 191 C 15.2662 -5.17212 3.2735 0
M  V30 192 N 14.4032 -6.34546 3.00492 0
M  V30 193 H 19.2432 -1.92552 2.27437 0
M  V30 194 H 16.7802 -0.941473 1.13025 0
M  V30 195 H 18.7382 -4.05116 0.996835 0
M  V30 196 H 17.3682 -3.22091 0.213758 0
M  V30 197 H 16.4202 -2.78265 2.5937 0
M  V30 198 H 17.7322 -3.79481 3.23721 0
M  V30 199 H 16.8862 -5.75274 1.92729 0
M  V30 200 H 15.6252 -4.73222 1.17949 0
M  V30 201 H 14.6302 -4.28796 3.44113 0
M  V30 202 H 15.8552 -5.34283 4.19188 0
M  V30 203 H 13.8012 -6.20759 2.12118 0
M  V30 204 H 13.7182 -6.52179 3.82358 0
M  V30 205 H 14.9862 -7.24394 2.87879 0
M  V30 206 N 19.2153 -1.21501 -1.00376 0
M  V30 207 C 20.1453 -0.999478 -2.11028 0
M  V30 208 C 21.1263 0.0759671 -1.6993 0
M  V30 209 O 22.3113 -0.0841106 -1.94018 0
M  V30 210 C 19.4413 -0.564709 -3.42678 0
M  V30 211 C 18.3953 -1.58486 -3.97576 0
M  V30 212 C 17.7213 -1.00628 -5.25146 0
M  V30 213 C 19.0213 -2.97204 -4.29496 0
M  V30 214 H 20.7153 -1.92495 -2.29317 0
M  V30 215 H 18.2613 -0.92693 -1.102 0
M  V30 216 H 20.2143 -0.401091 -4.19487 0
M  V30 217 H 18.9383 0.396411 -3.24185 0
M  V30 218 H 17.5973 -1.73606 -3.22888 0
M  V30 219 H 17.2453 -0.0368439 -5.02987 0
M  V30 220 H 16.9453 -1.68771 -5.62841 0
M  V30 221 H 18.4693 -0.854015 -6.04598 0
M  V30 222 H 19.8833 -2.8552 -4.97143 0
M  V30 223 H 18.2803 -3.62372 -4.78338 0
M  V30 224 H 19.3503 -3.47956 -3.3772 0
M  V30 225 N 20.6934 1.19889 -1.02296 0
M  V30 226 C 22.1044 1.71124 -0.746568 0
M  V30 227 C 22.4554 1.81939 0.734335 0
M  V30 228 O 21.5804 1.48639 1.57275 0
M  V30 229 C 22.1754 3.10804 -1.34857 0
M  V30 230 C 20.7344 3.59323 -1.1209 0
M  V30 231 C 19.8814 2.3635 -1.45031 0
M  V30 232 H 22.8324 1.04813 -1.19163 0
M  V30 233 H 22.8534 3.73186 -0.742437 0
M  V30 234 H 22.3654 3.029 -2.42638 0
M  V30 235 H 20.4664 3.7255 -0.0610337 0
M  V30 236 H 20.5794 4.4378 -1.80544 0
M  V30 237 H 18.9434 2.39399 -0.869487 0
M  V30 238 H 19.7264 2.31081 -2.53883 0
M  V30 239 N 22.1715 0.800033 1.35784 0
M  V30 240 C 23.1345 0.211565 2.28221 0
M  V30 241 C 24.1345 -0.59728 1.49296 0
M  V30 242 O 25.3245 -0.416721 1.69142 0
M  V30 243 C 22.4565 -0.705846 3.33513 0
M  V30 244 H 23.6495 1.02677 2.81776 0
M  V30 245 H 21.2025 0.570211 1.45528 0
M  V30 246 H 21.9375 -1.54498 2.85133 0
M  V30 247 H 21.7225 -0.127655 3.91892 0
M  V30 248 H 23.2125 -1.11211 4.02519 0
M  V30 249 N 23.6496 -1.47581 0.552962 0
M  V30 250 C 24.9266 -1.95563 -0.0381515 0
M  V30 251 C 25.3066 -1.49552 -1.48988 0
M  V30 252 O 24.6546 -0.732414 -2.16444 0
M  V30 253 C 24.8646 -3.48848 0.102919 0
M  V30 254 C 26.2126 -4.24577 -0.0446082 0
M  V30 255 O 27.2366 -3.56187 0.0302548 0
M  V30 256 O 26.0956 -5.46116 -0.204923 0
M  V30 257 H 23.1896 -0.824321 -0.0665067 0
M  V30 258 H 25.7356 -1.58001 0.619186 0
M  V30 259 H 24.5076 -3.75129 1.11328 0
M  V30 260 H 24.1306 -3.93165 -0.592224 0
M  V30 261 N 25.1277 -0.289203 -1.54924 0
M  V30 262 C 26.3737 0.323998 -2.00195 0
M  V30 263 C 26.7067 1.54441 -1.17735 0
M  V30 264 O 25.9817 1.92875 -0.250878 0
M  V30 265 C 26.2647 0.692276 -3.53383 0
M  V30 266 C 26.1177 -0.536457 -4.46589 0
M  V30 267 C 27.4367 1.52335 -4.12895 0
M  V30 268 H 24.5557 0.116289 -0.727768 0
M  V30 269 H 27.1977 -0.398954 -1.85764 0
M  V30 270 H 25.3477 1.30822 -3.65811 0
M  V30 271 H 27.0197 -1.17499 -4.46085 0
M  V30 272 H 25.2627 -1.17192 -4.1767 0
M  V30 273 H 25.9337 -0.234806 -5.515 0
M  V30 274 H 28.4097 1.00302 -4.0383 0
M  V30 275 H 27.2857 1.74982 -5.20262 0
M  V30 276 H 27.5467 2.50886 -3.64018 0
M  V30 277 N 26.6058 1.57591 -0.0167156 0
M  V30 278 C 27.5688 2.08393 0.954204 0
M  V30 279 C 28.5688 0.996531 1.26198 0
M  V30 280 O 29.7588 1.25858 1.20438 0
M  V30 281 C 26.8908 2.5394 2.27436 0
M  V30 282 H 28.0838 2.95455 0.514451 0
M  V30 283 H 25.6368 1.54582 0.231089 0
M  V30 284 H 26.3718 1.70171 2.76066 0
M  V30 285 H 26.1568 3.33371 2.06412 0
M  V30 286 H 27.6468 2.93512 2.97053 0
M  V30 287 N 28.0839 -0.256276 1.55502 0
M  V30 288 C 28.9939 -1.33882 1.92647 0
M  V30 289 C 30.0099 -1.53159 0.825727 0
M  V30 290 O 31.1859 -1.66963 1.12629 0
M  V30 291 C 28.2509 -2.6751 2.20543 0
M  V30 292 C 27.3119 -2.56836 3.43997 0
M  V30 293 C 26.5449 -3.84092 3.70553 0
M  V30 294 O 26.7679 -4.85545 2.99336 0
M  V30 295 O 25.7019 -3.83288 4.64084 0
M  V30 296 H 29.5279 -1.05374 2.84833 0
M  V30 297 H 27.1129 -0.456237 1.42263 0
M  V30 298 H 28.9949 -3.46492 2.39835 0
M  V30 299 H 27.6699 -2.9577 1.31536 0
M  V30 300 H 26.5769 -1.76172 3.30021 0
M  V30 301 H 27.9099 -2.33523 4.33275 0
M  V30 302 N 29.562 -1.4872 -0.521534 0
M  V30 303 C 30.472 -1.66569 -1.65203 0
M  V30 304 C 31.488 -0.548197 -1.65139 0
M  V30 305 O 32.664 -0.820339 -1.83936 0
M  V30 306 C 29.729 -1.70917 -3.01642 0
M  V30 307 C 28.79 -2.94356 -3.12495 0
M  V30 308 C 28.023 -2.98487 -4.42426 0
M  V30 309 O 28.246 -2.10786 -5.30024 0
M  V30 310 O 27.18 -3.90746 -4.57822 0
M  V30 311 H 31.006 -2.62298 -1.5308 0
M  V30 312 H 28.591 -1.3222 -0.695565 0
M  V30 313 H 30.473 -1.7625 -3.82771 0
M  V30 314 H 29.148 -0.783633 -3.14071 0
M  V30 315 H 28.055 -2.94552 -2.3063 0
M  V30 316 H 29.388 -3.86322 -3.04986 0
M  V30 317 N 31.0401 0.771051 -1.3745 0
M  V30 318 C 31.9701 1.89827 -1.3597 0
M  V30 319 C 32.9511 1.68562 -0.228216 0
M  V30 320 O 34.1361 1.8941 -0.428675 0
M  V30 321 C 31.2661 3.2712 -1.16662 0
M  V30 322 C 30.2201 3.6295 -2.2683 0
M  V30 323 C 29.5461 4.98791 -1.92644 0
M  V30 324 C 30.8461 3.69627 -3.69017 0
M  V30 325 H 32.5401 1.91323 -2.30295 0
M  V30 326 H 30.0861 0.919082 -1.10855 0
M  V30 327 H 32.0391 4.05615 -1.14256 0
M  V30 328 H 30.7631 3.26059 -0.187926 0
M  V30 329 H 29.4221 2.86763 -2.28392 0
M  V30 330 H 29.0701 4.94271 -0.933021 0
M  V30 331 H 28.7701 5.23733 -2.66416 0
M  V30 332 H 30.2941 5.79685 -1.91826 0
M  V30 333 H 31.7081 4.38273 -3.69581 0
M  V30 334 H 30.1051 4.06067 -4.41848 0
M  V30 335 H 31.1751 2.70273 -4.02592 0
M  V30 336 N 32.5182 1.22032 0.997298 0
M  V30 337 C 33.4812 0.987909 2.06816 0
M  V30 338 C 34.4812 -0.0440084 1.6074 0
M  V30 339 O 35.6712 0.194053 1.73116 0
M  V30 340 C 32.8032 0.49132 3.37341 0
M  V30 341 H 33.9962 1.93803 2.28868 0
M  V30 342 H 31.5492 1.03838 1.16822 0
M  V30 343 H 32.2842 -0.463364 3.20973 0
M  V30 344 H 32.0692 1.23575 3.72118 0
M  V30 345 H 33.5592 0.348824 4.16141 0
M  V30 346 N 33.9963 -1.19345 1.0293 0
M  V30 347 C 35.2243 -1.92997 0.745644 0
M  V30 348 C 35.6393 -1.75519 -0.695589 0
M  V30 349 O 34.9963 -1.07737 -1.47306 0
M  V30 350 C 35.0473 -3.44741 1.08792 0
M  V30 351 O 34.7683 -3.61658 2.47256 0
M  V30 352 C 36.2693 -4.35515 0.827129 0
M  V30 353 H 33.4893 -0.613042 0.272801 0
M  V30 354 H 36.0333 -1.51473 1.3739 0
M  V30 355 H 34.1883 -3.84097 0.504832 0
M  V30 356 H 34.6023 -4.55514 2.60015 0
M  V30 357 H 36.0763 -5.40589 1.11658 0
M  V30 358 H 36.5533 -4.38552 -0.238436 0
M  V30 359 H 37.1593 -4.01841 1.39297 0
M  V30 360 N 35.4744 -0.807222 -1.35358 0
M  V30 361 C 36.7024 -0.400377 -2.02989 0
M  V30 362 C 37.1174 0.988859 -1.60832 0
M  V30 363 O 36.4744 1.63729 -0.806175 0
M  V30 364 C 36.5254 -0.474867 -3.58368 0
M  V30 365 O 36.2464 -1.80933 -3.98992 0
M  V30 366 C 37.7474 -0.0609112 -4.43258 0
M  V30 367 H 34.9674 -0.162587 -0.651004 0
M  V30 368 H 37.5114 -1.09102 -1.72965 0
M  V30 369 H 35.6664 0.167534 -3.87038 0
M  V30 370 H 36.0804 -1.77256 -4.9364 0
M  V30 371 H 37.5544 -0.164145 -5.51756 0
M  V30 372 H 38.0314 0.993831 -4.27808 0
M  V30 373 H 38.6374 -0.676492 -4.19885 0
M  V30 374 N 36.9525 1.47285 -0.560781 0
M  V30 375 C 37.9155 2.28535 0.174488 0
M  V30 376 C 38.9155 1.37153 0.839388 0
M  V30 377 O 40.1055 1.59748 0.694702 0
M  V30 378 C 37.2375 3.16934 1.25561 0
M  V30 379 H 38.4305 2.95012 -0.539262 0
M  V30 380 H 35.9835 1.53034 -0.317865 0
M  V30 381 H 36.7185 2.55157 2.00164 0
M  V30 382 H 36.5035 3.8419 0.783604 0
M  V30 383 H 37.9935 3.78143 1.77193 0
M  V30 384 N 38.4306 0.297415 1.54768 0
M  V30 385 C 39.3626 -0.613881 2.20826 0
M  V30 386 C 40.3756 -1.10032 1.19987 0
M  V30 387 O 41.5646 -1.01839 1.46598 0
M  V30 388 C 38.6646 -1.852 2.83821 0
M  V30 389 C 37.8376 -1.50865 4.10559 0
M  V30 390 C 36.8966 -2.60154 4.57391 0
M  V30 391 O 35.9226 -2.25398 5.2267 0
M  V30 392 N 37.1246 -3.90629 4.29406 0
M  V30 393 H 39.8896 -0.048389 2.99661 0
M  V30 394 H 37.4506 0.11946 1.61459 0
M  V30 395 H 39.4426 -2.57652 3.12086 0
M  V30 396 H 38.0126 -2.32597 2.08847 0
M  V30 397 H 37.2326 -0.616925 3.89343 0
M  V30 398 H 38.5206 -1.25458 4.9309 0
M  V30 399 H 37.9186 -4.21677 3.77101 0
M  V30 400 H 36.4756 -4.59391 4.62388 0
M  V30 401 N 39.9087 -1.5758 0.0250728 0
M  V30 402 C 40.8557 -2.09973 -0.958129 0
M  V30 403 C 41.8257 -1.00085 -1.3256 0
M  V30 404 O 43.0107 -1.27481 -1.41962 0
M  V30 405 C 40.1507 -2.62812 -2.2366 0
M  V30 406 C 39.2637 -3.86693 -1.92594 0
M  V30 407 C 38.3987 -4.27941 -3.14707 0
M  V30 408 C 37.4377 -5.44591 -2.79442 0
M  V30 409 N 36.5747 -5.81014 -3.94167 0
M  V30 410 H 41.4147 -2.937 -0.504428 0
M  V30 411 H 38.9517 -1.45172 -0.237392 0
M  V30 412 H 40.9097 -2.91536 -2.98434 0
M  V30 413 H 39.5397 -1.81922 -2.66654 0
M  V30 414 H 38.5917 -3.64723 -1.0808 0
M  V30 415 H 39.9037 -4.71547 -1.62619 0
M  V30 416 H 39.0577 -4.58079 -3.97804 0
M  V30 417 H 37.7967 -3.41845 -3.4784 0
M  V30 418 H 36.8017 -5.1415 -1.94755 0
M  V30 419 H 38.0267 -6.32382 -2.47528 0
M  V30 420 H 35.9727 -4.97874 -4.2715 0
M  V30 421 H 35.8897 -6.60498 -3.67801 0
M  V30 422 H 37.1577 -6.15756 -4.7798 0
M  V30 423 N 41.3868 0.248026 -1.55636 0
M  V30 424 C 42.3168 1.31079 -1.93237 0
M  V30 425 C 43.2978 1.50264 -0.797174 0
M  V30 426 O 44.4828 1.62891 -1.05737 0
M  V30 427 C 41.6128 2.66575 -2.22609 0
M  V30 428 C 40.5668 2.62087 -3.3837 0
M  V30 429 C 39.8928 4.01369 -3.53281 0
M  V30 430 C 41.1928 2.19171 -4.7409 0
M  V30 431 H 42.8868 0.998556 -2.82257 0
M  V30 432 H 40.4328 0.47891 -1.35803 0
M  V30 433 H 42.3858 3.41057 -2.47503 0
M  V30 434 H 41.1098 2.99432 -1.30414 0
M  V30 435 H 39.7688 1.90063 -3.13483 0
M  V30 436 H 39.4168 4.31489 -2.58508 0
M  V30 437 H 39.1168 3.99254 -4.31127 0
M  V30 438 H 40.6408 4.77552 -3.80495 0
M  V30 439 H 42.0548 2.83384 -4.98363 0
M  V30 440 H 40.4518 2.2817 -5.5503 0
M  V30 441 H 41.5218 1.14336 -4.71227 0
M  V30 442 N 42.8649 1.48995 0.513639 0
M  V30 443 C 44.1109 1.58076 1.27042 0
M  V30 444 C 44.4439 0.261026 1.92438 0
M  V30 445 O 43.7189 -0.734393 1.80103 0
M  V30 446 C 44.0019 2.73091 2.34719 0
M  V30 447 C 43.8549 4.14821 1.73907 0
M  V30 448 C 45.1739 2.83796 3.36375 0
M  V30 449 H 42.2929 0.575391 0.460536 0
M  V30 450 H 44.9349 1.81232 0.570516 0
M  V30 451 H 43.0849 2.53479 2.94416 0
M  V30 452 H 44.7569 4.45917 1.18135 0
M  V30 453 H 42.9999 4.21058 1.0437 0
M  V30 454 H 43.6709 4.91147 2.51949 0
M  V30 455 H 46.1469 3.01611 2.86653 0
M  V30 456 H 45.0229 3.65971 4.09093 0
M  V30 457 H 45.2839 1.92624 3.9793 0
M  V30 458 N 44.343 -0.763751 1.37857 0
M  V30 459 C 45.275 -1.88664 1.30148 0
M  V30 460 C 46.288 -1.61365 0.215685 0
M  V30 461 O 47.477 -1.72134 0.472459 0
M  V30 462 C 44.577 -3.24075 0.991396 0
M  V30 463 C 43.75 -3.78958 2.18426 0
M  V30 464 C 42.809 -4.92862 1.8432 0
M  V30 465 O 41.835 -5.08027 2.56704 0
M  V30 466 N 43.037 -5.75071 0.792081 0
M  V30 467 H 45.802 -1.95791 2.26905 0
M  V30 468 H 43.363 -0.943226 1.31586 0
M  V30 469 H 45.355 -3.97804 0.743935 0
M  V30 470 H 43.925 -3.12399 0.112122 0
M  V30 471 H 43.145 -2.96913 2.59299 0
M  V30 472 H 44.433 -4.12357 2.98058 0
M  V30 473 H 43.831 -5.65375 0.191595 0
M  V30 474 H 42.388 -6.48991 0.60449 0
M  V30 475 N 45.8211 -1.22559 -0.990812 0
M  V30 476 C 46.7841 -0.998863 -2.0629 0
M  V30 477 C 47.7841 0.0354834 -1.60761 0
M  V30 478 O 48.9741 -0.203231 -1.7301 0
M  V30 479 C 46.1061 -0.509203 -3.37076 0
M  V30 480 H 47.2991 -1.95014 -2.27837 0
M  V30 481 H 44.8521 -1.04456 -1.16269 0
M  V30 482 H 45.5871 0.446335 -3.21214 0
M  V30 483 H 45.3721 -1.25547 -3.71457 0
M  V30 484 H 46.8621 -0.370888 -4.1595 0
M  V30 485 N 47.2992 1.18797 -1.03562 0
M  V30 486 C 48.5472 1.88278 -0.734569 0
M  V30 487 C 48.8682 1.8043 0.739586 0
M  V30 488 O 48.1382 1.21925 1.53333 0
M  V30 489 H 46.7182 0.696991 -0.268725 0
M  V30 490 H 49.3802 1.44192 -1.31129 0
M  V30 491 H 48.4762 2.94443 -1.03489 0
M  V30 492 N 48.7773 0.814389 1.34928 0
M  V30 493 C 49.7243 0.22822 2.29669 0
M  V30 494 C 50.6943 -0.642164 1.53184 0
M  V30 495 O 51.8793 -0.585605 1.81591 0
M  V30 496 C 49.0193 -0.61089 3.3965 0
M  V30 497 C 48.1323 0.280792 4.31086 0
M  V30 498 C 47.2673 -0.567067 5.28165 0
M  V30 499 C 46.3063 0.324531 6.11239 0
M  V30 500 N 45.4433 -0.483756 7.00431 0
M  V30 501 H 50.2833 1.04153 2.79206 0
M  V30 502 H 47.8203 0.525133 1.37407 0
M  V30 503 H 49.7783 -1.11263 4.0209 0
M  V30 504 H 48.4083 -1.38939 2.91369 0
M  V30 505 H 47.4603 0.900688 3.69583 0
M  V30 506 H 48.7723 0.966723 4.89342 0
M  V30 507 H 47.9263 -1.13363 5.96015 0
M  V30 508 H 46.6653 -1.28654 4.70425 0
M  V30 509 H 45.6703 0.903298 5.42329 0
M  V30 510 H 46.8953 1.04198 6.71059 0
M  V30 511 H 44.8413 -1.18706 6.45171 0
M  V30 512 H 44.7583 0.143965 7.55863 0
M  V30 513 H 46.0263 -1.03334 7.7262 0
M  V30 514 N 50.2554 -1.46986 0.568584 0
M  V30 515 C 51.5034 -2.02041 0.0487022 0
M  V30 516 C 51.8244 -1.44408 -1.31039 0
M  V30 517 O 51.0944 -0.623477 -1.85714 0
M  V30 518 H 49.6744 -0.746849 0.015014 0
M  V30 519 H 52.3364 -1.80257 0.741168 0
M  V30 520 H 51.4324 -3.12085 -0.0308961 0
M  V30 521 N 51.7335 -0.305618 -1.54608 0
M  V30 522 C 52.9825 0.303098 -1.9941 0
M  V30 523 C 53.2955 1.54648 -1.19764 0
M  V30 524 O 54.5015 2.23007 -1.54855 0
M  V30 525 C 52.9575 0.590588 -3.55021 0
M  V30 526 C 52.5655 -0.634719 -4.43481 0
M  V30 527 C 54.3095 1.16025 -4.08336 0
M  V30 528 C 52.2165 -0.320126 -5.90533 0
M  V30 529 H 51.1465 0.117031 -0.744862 0
M  V30 530 H 53.7975 -0.415045 -1.78745 0
M  V30 531 H 52.1795 1.36845 -3.71604 0
M  V30 532 H 53.3535 -1.41079 -4.38672 0
M  V30 533 H 51.6685 -1.12333 -4.00962 0
M  V30 534 H 54.2655 1.40994 -5.15776 0
M  V30 535 H 54.6085 2.10397 -3.5922 0
M  V30 536 H 55.1415 0.443985 -3.95315 0
M  V30 537 H 51.8805 -1.23254 -6.43808 0
M  V30 538 H 51.4005 0.418579 -5.98338 0
M  V30 539 H 53.0795 0.0766241 -6.46955 0
M  V30 540 N 53.2116 1.57565 -0.0334293 0
M  V30 541 C 54.1416 2.13511 0.945265 0
M  V30 542 C 55.1226 1.05231 1.33643 0
M  V30 543 O 56.3076 1.33084 1.41429 0
M  V30 544 C 53.4376 2.6657 2.22616 0
M  V30 545 C 52.3916 3.79676 1.97561 0
M  V30 546 C 51.7176 4.1918 3.31952 0
M  V30 547 C 53.0176 5.0557 1.31135 0
M  V30 548 H 54.7116 2.95538 0.479325 0
M  V30 549 H 52.2576 1.42166 0.229115 0
M  V30 550 H 54.2106 3.04344 2.91466 0
M  V30 551 H 52.9346 1.8171 2.71384 0
M  V30 552 H 51.5936 3.42347 1.31127 0
M  V30 553 H 51.2416 3.31296 3.78487 0
M  V30 554 H 50.9416 4.95402 3.15992 0
M  V30 555 H 52.4656 4.59541 4.02063 0
M  V30 556 H 53.8796 5.40903 1.89992 0
M  V30 557 H 52.2766 5.86818 1.25559 0
M  V30 558 H 53.3466 4.84062 0.284894 0
M  V30 559 N 54.6897 -0.239769 1.55765 0
M  V30 560 C 55.6527 -1.28038 1.90103 0
M  V30 561 C 56.6527 -1.40723 0.778055 0
M  V30 562 O 57.8427 -1.39301 1.04599 0
M  V30 563 C 54.9747 -2.65702 2.13577 0
M  V30 564 H 56.1677 -0.988048 2.83157 0
M  V30 565 H 53.7207 -0.479382 1.48767 0
M  V30 566 H 54.4557 -3.00063 1.23015 0
M  V30 567 H 54.2407 -2.57875 2.95369 0
M  V30 568 H 55.7307 -3.40828 2.41301 0
M  V30 569 N 56.1678 -1.49265 -0.50573 0
M  V30 570 C 57.1308 -1.65075 -1.59006 0
M  V30 571 C 58.1308 -0.522768 -1.52065 0
M  V30 572 O 59.3208 -0.789117 -1.55302 0
M  V30 573 C 56.4528 -1.64369 -2.98656 0
M  V30 574 H 57.6458 -2.61784 -1.46319 0
M  V30 575 H 55.1988 -1.38226 -0.729616 0
M  V30 576 H 55.9338 -0.692272 -3.16825 0
M  V30 577 H 55.7188 -2.46282 -3.05103 0
M  V30 578 H 57.2088 -1.78674 -3.77446 0
M  V30 579 N 57.6459 0.756429 -1.3826 0
M  V30 580 C 58.9229 1.50584 -1.24835 0
M  V30 581 C 59.3029 2.10556 0.151485 0
M  V30 582 O 58.6509 1.96825 1.1607 0
M  V30 583 C 58.8609 2.57448 -2.3563 0
M  V30 584 C 60.2089 3.24429 -2.73917 0
M  V30 585 O 61.2329 2.67751 -2.34921 0
M  V30 586 O 60.0919 4.26937 -3.41156 0
M  V30 587 H 57.1859 0.667664 -0.48801 0
M  V30 588 H 59.7319 0.792083 -1.5008 0
M  V30 589 H 58.5039 2.11362 -3.29305 0
M  V30 590 H 58.1269 3.36408 -2.11933 0
M  V30 591 N 59.124 1.23083 0.984299 0
M  V30 592 C 60.034 1.02515 2.11016 0
M  V30 593 C 61.05 -0.0291702 1.73976 0
M  V30 594 O 62.226 0.165434 2.00719 0
M  V30 595 C 59.291 0.614673 3.41208 0
M  V30 596 C 58.352 1.74359 3.92297 0
M  V30 597 C 57.585 1.35261 5.16275 0
M  V30 598 O 57.808 0.235136 5.69915 0
M  V30 599 O 56.742 2.17227 5.61334 0
M  V30 600 H 60.568 1.96862 2.31255 0
M  V30 601 H 58.153 1.01753 1.09392 0
M  V30 602 H 60.035 0.396518 4.1953 0
M  V30 603 H 58.71 -0.299851 3.22308 0
M  V30 604 H 57.617 2.01635 3.1511 0
M  V30 605 H 58.95 2.63629 4.15645 0
M  V30 606 N 60.6021 -1.18246 1.0419 0
M  V30 607 C 61.8271 -1.92736 0.765996 0
M  V30 608 C 62.2521 -1.75728 -0.67091 0
M  V30 609 O 61.6101 -1.06825 -1.46486 0
M  V30 610 C 61.6581 -3.42148 1.13875 0
M  V30 611 O 60.7621 -4.11548 0.264954 0
M  V30 612 H 60.1031 -0.601238 0.281797 0
M  V30 613 H 62.6331 -1.49942 1.39207 0
M  V30 614 H 62.6431 -3.92858 1.1012 0
M  V30 615 H 61.3181 -3.53848 2.18551 0
M  V30 616 H 59.8951 -3.71137 0.362226 0
M  V30 617 N 62.0802 -0.821533 -1.34494 0
M  V30 618 C 63.3082 -0.421884 -2.02553 0
M  V30 619 C 63.7232 0.971745 -1.61872 0
M  V30 620 O 63.0802 1.62864 -0.823496 0
M  V30 621 C 63.1312 -0.51285 -3.57844 0
M  V30 622 O 62.8522 -1.85155 -3.97051 0
M  V30 623 C 64.3532 -0.107921 -4.43169 0
M  V30 624 H 61.5732 -0.169482 -0.649243 0
M  V30 625 H 64.1172 -1.1093 -1.71798 0
M  V30 626 H 62.2722 0.126474 -3.87193 0
M  V30 627 H 62.6862 -1.82482 -4.91732 0
M  V30 628 H 64.1602 -0.222657 -5.51551 0
M  V30 629 H 64.6372 0.948401 -4.28838 0
M  V30 630 H 65.2432 -0.720989 -4.19144 0
M  V30 631 N 63.5583 1.46682 -0.576371 0
M  V30 632 C 64.4903 2.28341 0.198231 0
M  V30 633 C 65.5033 1.38141 0.861453 0
M  V30 634 O 66.6923 1.62797 0.732082 0
M  V30 635 C 63.7923 3.12986 1.29972 0
M  V30 636 C 62.9653 4.31271 0.729639 0
M  V30 637 C 62.0243 4.97363 1.71803 0
M  V30 638 O 61.0503 5.55156 1.25658 0
M  V30 639 N 62.2523 4.93796 3.05198 0
M  V30 640 H 65.0173 2.9546 -0.502324 0
M  V30 641 H 62.5783 1.56525 -0.413715 0
M  V30 642 H 64.5703 3.54066 1.96008 0
M  V30 643 H 63.1403 2.47984 1.90323 0
M  V30 644 H 62.3603 3.94052 -0.108012 0
M  V30 645 H 63.6483 5.07739 0.328438 0
M  V30 646 H 63.0463 4.48077 3.45317 0
M  V30 647 H 61.6033 5.38837 3.6674 0
M  V30 648 N 65.0364 0.313813 1.54444 0
M  V30 649 C 66.2644 -0.293918 2.04802 0
M  V30 650 C 66.6794 -1.46537 1.19047 0
M  V30 651 O 66.0364 -1.81182 0.218939 0
M  V30 652 C 66.0874 -0.737806 3.53891 0
M  V30 653 O 65.8084 0.387038 4.36387 0
M  V30 654 C 67.3094 -1.40936 4.203 0
M  V30 655 H 64.5294 -0.0620057 0.668129 0
M  V30 656 H 67.0734 0.457169 1.99324 0
M  V30 657 H 65.2284 -1.43889 3.59687 0
M  V30 658 H 65.6424 0.0391274 5.24485 0
M  V30 659 H 67.1164 -1.67099 5.26101 0
M  V30 660 H 67.5934 -2.35355 3.70816 0
M  V30 661 H 68.1994 -0.751117 4.18615 0
M  V30 662 N 66.5145 -1.57545 0.0417849 0
M  V30 663 C 67.7635 -1.91494 -0.633492 0
M  V30 664 C 68.0765 -0.921084 -1.72556 0
M  V30 665 O 69.2825 -1.15228 -2.45835 0
M  V30 666 C 67.7385 -3.40072 -1.17808 0
M  V30 667 C 67.3465 -4.47843 -0.118633 0
M  V30 668 C 69.0905 -3.8307 -1.82915 0
M  V30 669 C 66.9975 -5.87529 -0.675578 0
M  V30 670 H 65.9275 -0.714653 -0.24039 0
M  V30 671 H 68.5785 -1.83175 0.109148 0
M  V30 672 H 66.9605 -3.43364 -1.97274 0
M  V30 673 H 68.1345 -4.56128 0.654494 0
M  V30 674 H 66.4495 -4.14128 0.434414 0
M  V30 675 H 69.0465 -4.84794 -2.25563 0
M  V30 676 H 69.3895 -3.1881 -2.67705 0
M  V30 677 H 69.9225 -3.82255 -1.10119 0
M  V30 678 H 66.6615 -6.55362 0.134475 0
M  V30 679 H 66.1815 -5.82824 -1.4169 0
M  V30 680 H 67.8605 -6.36491 -1.1614 0
M  V30 681 N 67.9926 0.231505 -1.5589 0
M  V30 682 C 68.9396 1.28682 -1.91598 0
M  V30 683 C 69.9096 1.47071 -0.771974 0
M  V30 684 O 71.0946 1.60802 -1.027 0
M  V30 685 C 68.2346 2.6342 -2.22944 0
M  V30 686 C 67.3476 2.52912 -3.50228 0
M  V30 687 C 66.4826 3.80106 -3.7107 0
M  V30 688 C 65.5216 3.64279 -4.91902 0
M  V30 689 N 64.6586 4.834 -5.09184 0
M  V30 690 H 69.4986 0.975305 -2.81588 0
M  V30 691 H 67.0356 0.470299 -1.39379 0
M  V30 692 H 68.9936 3.41869 -2.39126 0
M  V30 693 H 67.6236 2.92687 -1.36139 0
M  V30 694 H 66.6756 1.6595 -3.42294 0
M  V30 695 H 67.9876 2.37133 -4.38827 0
M  V30 696 H 67.1416 4.66999 -3.87295 0
M  V30 697 H 65.8806 3.98799 -2.80733 0
M  V30 698 H 64.8856 2.7577 -4.75637 0
M  V30 699 H 66.1106 3.47067 -5.83714 0
M  V30 700 H 64.0566 5.02425 -4.21788 0
M  V30 701 H 63.9736 4.70311 -5.91898 0
M  V30 702 H 65.2416 5.71747 -5.29835 0
M  V30 703 N 69.4707 1.49531 0.497807 0
M  V30 704 C 70.4177 1.66436 1.59899 0
M  V30 705 C 71.3877 0.505793 1.58212 0
M  V30 706 O 72.5727 0.733202 1.7615 0
M  V30 707 C 69.7127 1.7399 2.98029 0
M  V30 708 C 68.8257 3.01172 3.09708 0
M  V30 709 C 67.9607 2.99686 4.38591 0
M  V30 710 C 66.9997 4.21434 4.43914 0
M  V30 711 N 66.1367 4.1784 5.64229 0
M  V30 712 H 70.9767 2.60459 1.44793 0
M  V30 713 H 68.5137 1.29137 0.704423 0
M  V30 714 H 70.4717 1.76352 3.78095 0
M  V30 715 H 69.1017 0.834301 3.11832 0
M  V30 716 H 68.1537 3.08408 2.22685 0
M  V30 717 H 69.4657 3.91165 3.09502 0
M  V30 718 H 68.6197 3.00628 5.2698 0
M  V30 719 H 67.3587 2.07477 4.41367 0
M  V30 720 H 66.3637 4.20733 3.53926 0
M  V30 721 H 67.5887 5.14839 4.42851 0
M  V30 722 H 65.5347 3.28469 5.67841 0
M  V30 723 H 65.4517 5.01571 5.65652 0
M  V30 724 H 66.7197 4.22889 6.54817 0
M  V30 725 N 70.9488 -0.749086 1.3866 0
M  V30 726 C 72.3648 -1.05276 1.19955 0
M  V30 727 C 72.5648 -2.01435 0.05134 0
M  V30 728 O 71.6208 -2.45232 -0.60147 0
M  V30 729 C 72.9338 -1.62853 2.52783 0
M  V30 730 C 74.4818 -1.75002 2.59506 0
M  V30 731 C 74.9568 -2.35991 3.92521 0
M  V30 732 N 76.4478 -2.43416 3.94085 0
M  V30 733 C 77.1828 -2.91511 4.9377 0
M  V30 734 N 76.6788 -3.39608 6.03853 0
M  V30 735 N 78.4718 -2.90592 4.81157 0
M  V30 736 H 70.6228 -0.111066 2.12109 0
M  V30 737 H 72.8858 -0.111901 0.941373 0
M  V30 738 H 72.5918 -0.99664 3.37283 0
M  V30 739 H 72.4658 -2.61854 2.715 0
M  V30 740 H 74.8528 -2.37317 1.75398 0
M  V30 741 H 74.9338 -0.74693 2.44652 0
M  V30 742 H 74.5778 -1.74308 4.77053 0
M  V30 743 H 74.5078 -3.3695 4.04688 0
M  V30 744 H 76.9988 -2.09405 3.14576 0
M  V30 745 H 77.3118 -3.74775 6.75843 0
M  V30 746 H 75.6568 -3.37653 6.07466 0
M  V30 747 H 78.8478 -2.52332 3.94267 0
M  V30 748 H 79.0208 -3.27762 5.58996 0
M  V30 749 N 72.4269 -1.23603 -0.977757 0
M  V30 750 C 73.6739 -1.06971 -1.71941 0
M  V30 751 C 74.0019 0.393009 -1.90488 0
M  V30 752 O 73.2569 1.30719 -1.4564 0
M  V30 753 C 73.5559 -1.7433 -3.11999 0
M  V30 754 C 73.2219 -3.24252 -3.13323 0
M  V30 755 C 71.8839 -3.65156 -3.13392 0
M  V30 756 C 74.2359 -4.20141 -3.08433 0
M  V30 757 C 71.5639 -5.00403 -3.0629 0
M  V30 758 C 73.9159 -5.55384 -3.02873 0
M  V30 759 C 72.5799 -5.95647 -3.01265 0
M  V30 760 H 71.8499 -0.391433 -0.629175 0
M  V30 761 H 74.4969 -1.53572 -1.14403 0
M  V30 762 H 72.8019 -1.20096 -3.7294 0
M  V30 763 H 74.4989 -1.58936 -3.68158 0
M  V30 764 H 71.0889 -2.91692 -3.14029 0
M  V30 765 H 75.2729 -3.89547 -3.07517 0
M  V30 766 H 70.5289 -5.3081 -3.03399 0
M  V30 767 H 74.7029 -6.29398 -2.98046 0
M  V30 768 H 72.3299 -7.0041 -2.95516 0
M  V30 769 N 73.905 1.17692 -1.04816 0
M  V30 770 C 75.182 1.83768 -0.669963 0
M  V30 771 C 75.562 1.93232 0.849986 0
M  V30 772 O 74.91 1.46397 1.75443 0
M  V30 773 C 75.12 3.21641 -1.35455 0
M  V30 774 C 76.468 3.97592 -1.49017 0
M  V30 775 O 77.492 3.31107 -1.31326 0
M  V30 776 O 76.351 5.16729 -1.77914 0
M  V30 777 H 73.445 0.792799 -0.235368 0
M  V30 778 H 75.991 1.25021 -1.14751 0
M  V30 779 H 74.763 3.097 -2.39168 0
M  V30 780 H 74.386 3.88052 -0.866107 0
M  V30 781 N 75.3831 0.828654 1.34056 0
M  V30 782 C 76.3311 0.242973 2.31327 0
M  V30 783 C 77.3251 -0.61944 1.57668 0
M  V30 784 O 78.5311 -0.51014 1.7262 0
M  V30 785 H 74.9061 0.059834 0.749616 0
M  V30 786 H 76.8771 1.07809 2.78244 0
M  V30 787 C 75.6261 -0.575733 3.429 0
M  V30 788 H 74.9491 0.0785582 3.99723 0
M  V30 789 H 76.3891 -0.951547 4.13185 0
M  V30 790 C 74.8481 -1.75044 2.87856 0
M  V30 791 O 75.3781 -2.84882 2.83205 0
M  V30 792 N 73.5841 -1.56903 2.44602 0
M  V30 793 H 73.1311 -0.675547 2.48584 0
M  V30 794 H 73.0891 -2.35652 2.08124 0
M  V30 795 N 76.8612 -1.46375 0.584142 0
M  V30 796 C 78.1102 -2.01585 0.0679741 0
M  V30 797 C 78.4232 -1.46109 -1.30045 0
M  V30 798 O 79.6292 -1.93148 -1.90804 0
M  V30 799 C 78.0852 -3.5983 0.0709207 0
M  V30 800 C 77.6932 -4.24303 1.43775 0
M  V30 801 C 79.4372 -4.22693 -0.391228 0
M  V30 802 C 77.3442 -5.74631 1.39834 0
M  V30 803 H 76.2742 -0.753689 0.0216421 0
M  V30 804 H 78.9252 -1.68093 0.736001 0
M  V30 805 H 77.3072 -3.90405 -0.663299 0
M  V30 806 H 78.4812 -4.05335 2.19181 0
M  V30 807 H 76.7962 -3.73539 1.84004 0
M  V30 808 H 79.3932 -5.3289 -0.439524 0
M  V30 809 H 79.7362 -3.91728 -1.40906 0
M  V30 810 H 80.2692 -3.96749 0.288974 0
M  V30 811 H 77.0082 -6.10258 2.39303 0
M  V30 812 H 76.5282 -5.95858 0.686505 0
M  V30 813 H 78.2072 -6.37375 1.11187 0
M  V30 814 N 78.3393 -0.321999 -1.54275 0
M  V30 815 C 79.2863 0.544664 -2.24281 0
M  V30 816 C 80.2563 1.1129 -1.23303 0
M  V30 817 O 81.4413 1.15354 -1.51981 0
M  V30 818 C 78.5813 1.70045 -3.00298 0
M  V30 819 C 77.6943 1.16159 -4.1609 0
M  V30 820 C 76.8293 2.28293 -4.79641 0
M  V30 821 C 75.8683 1.71648 -5.8754 0
M  V30 822 N 75.0053 2.77438 -6.44959 0
M  V30 823 H 79.8453 -0.0588907 -2.97942 0
M  V30 824 H 77.3823 -0.0408345 -1.47043 0
M  V30 825 H 79.3403 2.38054 -3.42616 0
M  V30 826 H 77.9703 2.27531 -2.28975 0
M  V30 827 H 77.0223 0.373092 -3.78566 0
M  V30 828 H 78.3343 0.707087 -4.93763 0
M  V30 829 H 77.4883 3.0421 -5.2492 0
M  V30 830 H 76.2273 2.77079 -4.01346 0
M  V30 831 H 75.2323 0.942282 -5.41665 0
M  V30 832 H 76.4573 1.23741 -6.67731 0
M  V30 833 H 74.4033 3.25519 -5.69538 0
M  V30 834 H 74.3203 2.36547 -7.1804 0
M  V30 835 H 75.5883 3.53189 -6.94894 0
M  V30 836 N 79.8174 1.5752 -0.0501392 0
M  V30 837 C 80.7474 2.14502 0.922566 0
M  V30 838 C 81.7284 1.06642 1.3252 0
M  V30 839 O 82.9134 1.34577 1.4001 0
M  V30 840 C 80.0434 2.68916 2.19776 0
M  V30 841 C 78.9974 3.8175 1.93523 0
M  V30 842 C 78.3234 4.22677 3.27487 0
M  V30 843 C 79.6234 5.06932 1.25765 0
M  V30 844 H 81.3174 2.9603 0.447952 0
M  V30 845 H 78.8634 1.42401 0.214024 0
M  V30 846 H 80.8164 3.07419 2.88222 0
M  V30 847 H 79.5404 1.84578 2.69441 0
M  V30 848 H 78.1994 3.43718 1.27489 0
M  V30 849 H 77.8474 3.35291 3.74952 0
M  V30 850 H 77.5474 4.98725 3.1072 0
M  V30 851 H 79.0714 4.63779 3.97166 0
M  V30 852 H 80.4854 5.42888 1.84244 0
M  V30 853 H 78.8824 5.88116 1.19328 0
M  V30 854 H 79.9524 4.84337 0.233536 0
M  V30 855 N 81.2955 -0.223234 1.56011 0
M  V30 856 C 82.2055 -1.29766 1.95443 0
M  V30 857 C 83.2215 -1.51373 0.858028 0
M  V30 858 O 84.3975 -1.64536 1.16146 0
M  V30 859 C 81.4625 -2.62772 2.26167 0
M  V30 860 C 80.5235 -2.49482 3.49367 0
M  V30 861 C 79.7565 -3.76145 3.78616 0
M  V30 862 O 79.9795 -4.79087 3.09568 0
M  V30 863 O 78.9135 -3.73358 4.72109 0
M  V30 864 H 82.7395 -0.99309 2.87004 0
M  V30 865 H 80.3245 -0.425958 1.43199 0
M  V30 866 H 82.2065 -3.41327 2.47131 0
M  V30 867 H 80.8815 -2.92913 1.37781 0
M  V30 868 H 79.7885 -1.69133 3.33684 0
M  V30 869 H 81.1215 -2.2428 4.38131 0
M  V30 870 N 82.7736 -1.49793 -0.48987 0
M  V30 871 C 83.7216 -1.67783 -1.61095 0
M  V30 872 C 84.7156 -0.543683 -1.60438 0
M  V30 873 O 85.9216 -0.723647 -1.64813 0
M  V30 874 H 82.2966 -0.529255 -0.534222 0
M  V30 875 H 84.2676 -2.61861 -1.43078 0
M  V30 876 C 83.0166 -1.77191 -2.99164 0
M  V30 877 H 82.3396 -2.63841 -3.0038 0
M  V30 878 H 83.7796 -1.93809 -3.77113 0
M  V30 879 C 82.2386 -0.519203 -3.32875 0
M  V30 880 O 82.7686 0.350124 -4.00171 0
M  V30 881 N 80.9746 -0.378816 -2.8812 0
M  V30 882 H 80.5216 -1.08725 -2.33531 0
M  V30 883 H 80.4796 0.458239 -3.11043 0
M  V30 884 N 84.2517 0.741722 -1.39055 0
M  V30 885 C 85.4797 1.53098 -1.39171 0
M  V30 886 C 85.8947 1.88794 0.0155099 0
M  V30 887 O 85.2517 1.53626 0.985159 0
M  V30 888 C 85.3027 2.82274 -2.2584 0
M  V30 889 O 85.0237 2.48097 -3.61081 0
M  V30 890 C 86.5247 3.76343 -2.34266 0
M  V30 891 H 83.7447 0.473335 -0.4756 0
M  V30 892 H 86.2887 0.917045 -1.82785 0
M  V30 893 H 84.4437 3.40015 -1.85656 0
M  V30 894 H 84.8577 3.31029 -4.06842 0
M  V30 895 H 86.3317 4.63898 -2.9917 0
M  V30 896 H 86.8087 4.17619 -1.35982 0
M  V30 897 H 87.4147 3.24523 -2.74891 0
M  V30 898 N 85.7298 1.2412 0.971189 0
M  V30 899 C 86.9788 1.07284 1.70801 0
M  V30 900 C 87.2918 -0.388902 1.91695 0
M  V30 901 O 88.4978 -0.677379 2.62914 0
M  V30 902 C 86.9538 1.87145 3.07416 0
M  V30 903 C 86.5618 3.37707 2.94377 0
M  V30 904 C 88.3058 1.78828 3.84995 0
M  V30 905 C 86.2128 4.09925 4.26281 0
M  V30 906 H 85.1428 0.397854 0.64049 0
M  V30 907 H 87.7938 1.4817 1.0825 0
M  V30 908 H 86.1758 1.39071 3.70777 0
M  V30 909 H 87.3498 3.93335 2.4005 0
M  V30 910 H 85.6648 3.46938 2.30267 0
M  V30 911 H 88.2618 2.30089 4.82662 0
M  V30 912 H 88.6048 0.75284 4.09436 0
M  V30 913 H 89.1378 2.24563 3.28354 0
M  V30 914 H 85.8768 5.13813 4.07033 0
M  V30 915 H 85.3968 3.59083 4.80437 0
M  V30 916 H 87.0758 4.1673 4.94919 0
M  V30 917 N 87.2079 -1.17134 1.05439 0
M  V30 918 C 88.1179 -2.24878 0.668365 0
M  V30 919 C 89.1339 -1.71186 -0.311687 0
M  V30 920 O 90.3099 -2.00738 -0.163161 0
M  V30 921 C 87.3749 -3.46662 0.051648 0
M  V30 922 C 86.4359 -4.15429 1.08246 0
M  V30 923 C 85.6689 -5.31399 0.495082 0
M  V30 924 O 85.8919 -5.66153 -0.694743 0
M  V30 925 O 84.8259 -5.89187 1.23056 0
M  V30 926 H 88.6519 -2.60189 1.56637 0
M  V30 927 H 86.2369 -1.24482 0.826104 0
M  V30 928 H 88.1189 -4.20394 -0.290966 0
M  V30 929 H 86.7939 -3.13142 -0.819971 0
M  V30 930 H 85.7009 -3.43704 1.47711 0
M  V30 931 H 87.0339 -4.52982 1.92532 0
M  V30 932 N 88.686 -0.835752 -1.33615 0
M  V30 933 C 89.634 -0.255238 -2.31195 0
M  V30 934 C 90.628 0.61107 -1.57995 0
M  V30 935 O 91.834 0.500979 -1.72888 0
M  V30 936 H 88.209 -0.0638085 -0.749288 0
M  V30 937 H 90.18 -1.09283 -2.77669 0
M  V30 938 C 88.929 0.55754 -3.43201 0
M  V30 939 H 88.252 -0.0997553 -3.99676 0
M  V30 940 H 89.692 0.929622 -4.13683 0
M  V30 941 C 88.151 1.73515 -2.88781 0
M  V30 942 O 88.681 2.83376 -2.84712 0
M  V30 943 N 86.887 1.55603 -2.4543 0
M  V30 944 H 86.434 0.662354 -2.48939 0
M  V30 945 H 86.392 2.34545 -2.09371 0
M  V30 946 N 90.1641 1.46063 -0.591896 0
M  V30 947 C 91.5801 1.57561 -0.254288 0
M  V30 948 C 91.7801 1.58565 1.24336 0
M  V30 949 O 90.8361 1.50753 2.02558 0
M  V30 950 C 92.1491 2.86549 -0.911611 0
M  V30 951 C 93.6971 3.00197 -0.886059 0
M  V30 952 C 94.1721 4.31933 -1.5231 0
M  V30 953 N 95.6631 4.38654 -1.48786 0
M  V30 954 C 96.3981 5.39222 -1.95006 0
M  V30 955 N 95.8941 6.46414 -2.49241 0
M  V30 956 N 97.6871 5.3048 -1.85868 0
M  V30 957 H 89.8381 1.43655 -1.56451 0
M  V30 958 H 92.1011 0.68583 -0.654478 0
M  V30 959 H 91.8071 2.91651 -1.96551 0
M  V30 960 H 91.6811 3.74794 -0.425368 0
M  V30 961 H 94.0681 2.9467 0.159246 0
M  V30 962 H 94.1491 2.13403 -1.41041 0
M  V30 963 H 93.7931 4.38217 -2.56765 0
M  V30 964 H 93.7231 5.17516 -0.973891 0
M  V30 965 H 96.2141 3.61793 -1.09151 0
M  V30 966 H 96.5271 7.19376 -2.82344 0
M  V30 967 H 94.8721 6.47208 -2.53272 0
M  V30 968 H 98.0631 4.45643 -1.43248 0
M  V30 969 H 98.2361 6.08711 -2.22204 0
M  V30 970 N 91.6422 0.330177 1.54103 0
M  V30 971 C 92.6052 -0.520144 2.2322 0
M  V30 972 C 93.6052 -1.03828 1.22786 0
M  V30 973 O 94.7952 -0.929652 1.4732 0
M  V30 974 C 91.9272 -1.72317 2.94142 0
M  V30 975 H 93.1202 0.0841605 2.99782 0
M  V30 976 H 90.6732 0.0813433 1.56088 0
M  V30 977 H 91.4082 -2.36653 2.21734 0
M  V30 978 H 91.1932 -1.35898 3.67796 0
M  V30 979 H 92.6832 -2.3266 3.46784 0
M  V30 980 N 93.1203 -1.57491 0.0584922 0
M  V30 981 C 94.3453 -1.97711 -0.62652 0
M  V30 982 C 94.7703 -0.936132 -1.63151 0
M  V30 983 O 94.1283 0.099811 -1.81025 0
M  V30 984 C 94.1763 -3.36989 -1.28338 0
M  V30 985 O 93.2803 -3.35433 -2.39913 0
M  V30 986 H 92.6213 -0.643868 -0.162266 0
M  V30 987 H 95.1513 -2.04193 0.129064 0
M  V30 988 H 95.1613 -3.73879 -1.63335 0
M  V30 989 H 93.8363 -4.12289 -0.546889 0
M  V30 990 H 92.4133 -3.10298 -2.06809 0
M  V30 991 N 94.5984 0.214957 -1.56127 0
M  V30 992 C 95.8284 0.953707 -1.8327 0
M  V30 993 C 96.2364 1.78181 -0.636262 0
M  V30 994 O 95.5794 1.79191 0.404516 0
M  V30 995 C 95.6414 1.91516 -3.0424 0
M  V30 996 C 95.3054 1.27094 -4.38972 0
M  V30 997 C 96.3024 0.657575 -5.15725 0
M  V30 998 C 93.9874 1.28073 -4.85698 0
M  V30 999 C 95.9814 0.0625968 -6.37369 0
M  V30 1000 C 93.6684 0.681914 -6.07283 0
M  V30 1001 C 94.6664 0.0739046 -6.8296 0
M  V30 1002 O 94.3544 -0.515582 -8.02245 0
M  V30 1003 H 94.0864 0.284764 -0.613095 0
M  V30 1004 H 96.6404 0.233283 -2.04071 0
M  V30 1005 H 94.8704 2.67475 -2.79274 0
M  V30 1006 H 96.5594 2.52001 -3.18198 0
M  V30 1007 H 97.3254 0.642288 -4.80728 0
M  V30 1008 H 93.2044 1.74337 -4.26764 0
M  V30 1009 H 96.7484 -0.412593 -6.96379 0
M  V30 1010 H 92.6454 0.694636 -6.41752 0
M  V30 1011 H 93.4134 -0.410544 -8.1747 0
M  V30 1012 N 96.0765 1.50051 0.48192 0
M  V30 1013 C 97.4925 1.37237 0.814756 0
M  V30 1014 C 97.6925 0.420109 1.97072 0
M  V30 1015 O 96.7485 -0.141246 2.52105 0
M  V30 1016 C 98.0615 2.78375 1.13701 0
M  V30 1017 C 99.6095 2.87213 1.2441 0
M  V30 1018 C 100.084 4.29161 1.59954 0
M  V30 1019 N 101.575 4.32061 1.66967 0
M  V30 1020 C 102.31 5.38879 1.95952 0
M  V30 1021 N 101.806 6.55918 2.23031 0
M  V30 1022 N 103.599 5.26312 1.97363 0
M  V30 1023 H 95.7505 2.10546 -0.28005 0
M  V30 1024 H 98.0135 0.945921 -0.0627454 0
M  V30 1025 H 97.7195 3.49845 0.360787 0
M  V30 1026 H 97.5935 3.14941 2.07586 0
M  V30 1027 H 99.9805 2.15969 2.01101 0
M  V30 1028 H 100.061 2.54204 0.285299 0
M  V30 1029 H 99.7055 5.00938 0.838067 0
M  V30 1030 H 99.6355 4.59648 2.56966 0
M  V30 1031 H 102.126 3.47661 1.48123 0
M  V30 1032 H 102.439 7.33139 2.44391 0
M  V30 1033 H 100.784 6.59112 2.20447 0
M  V30 1034 H 103.975 4.33876 1.75697 0
M  V30 1035 H 104.148 6.09649 2.19618 0
M  V30 1036 N 97.5546 -0.734337 1.39446 0
M  V30 1037 C 98.8316 -1.48579 1.27215 0
M  V30 1038 C 99.2116 -2.1077 -0.117968 0
M  V30 1039 O 98.5596 -1.98646 -1.12924 0
M  V30 1040 C 98.7696 -2.53667 2.39696 0
M  V30 1041 C 100.118 -3.20031 2.79044 0
M  V30 1042 O 101.142 -2.6398 2.39151 0
M  V30 1043 O 100.001 -4.21455 3.47905 0
M  V30 1044 H 97.0946 -0.659816 0.49857 0
M  V30 1045 H 99.6406 -0.768106 1.51322 0
M  V30 1046 H 98.4126 -2.06096 3.32626 0
M  V30 1047 H 98.0356 -3.32994 2.17258 0
M  V30 1048 N 99.0327 -1.24633 -0.964593 0
M  V30 1049 C 99.9627 -1.06611 -2.07741 0
M  V30 1050 C 100.944 0.0218666 -1.70086 0
M  V30 1051 O 102.129 -0.145793 -1.93652 0
M  V30 1052 C 99.2587 -0.673444 -3.40708 0
M  V30 1053 C 98.2127 -1.71054 -3.92332 0
M  V30 1054 C 97.5387 -1.17285 -5.21678 0
M  V30 1055 C 98.8387 -3.10718 -4.19824 0
M  V30 1056 H 100.533 -1.99693 -2.23076 0
M  V30 1057 H 98.0787 -0.96152 -1.07195 0
M  V30 1058 H 100.032 -0.534345 -4.17998 0
M  V30 1059 H 98.7557 0.293073 -3.25282 0
M  V30 1060 H 97.4147 -1.83791 -3.17201 0
M  V30 1061 H 97.0627 -0.196847 -5.02615 0
M  V30 1062 H 96.7627 -1.86592 -5.57187 0
M  V30 1063 H 98.2867 -1.04593 -6.01575 0
M  V30 1064 H 99.7007 -3.01192 -4.87808 0
M  V30 1065 H 98.0977 -3.77406 -4.66567 0
M  V30 1066 H 99.1677 -3.58524 -3.26479 0
M  V30 1067 N 100.511 1.16574 -1.06058 0
M  V30 1068 C 101.441 2.23057 -0.690488 0
M  V30 1069 C 102.422 1.67141 0.315901 0
M  V30 1070 O 103.607 1.93253 0.191556 0
M  V30 1071 C 100.737 3.47222 -0.073625 0
M  V30 1072 C 99.6908 4.16016 -1.00573 0
M  V30 1073 C 99.0168 5.34104 -0.252289 0
M  V30 1074 C 100.317 4.67264 -2.33371 0
M  V30 1075 H 102.011 2.54271 -1.58072 0
M  V30 1076 H 99.5568 1.22218 -0.76149 0
M  V30 1077 H 101.51 4.20939 0.19714 0
M  V30 1078 H 100.234 3.15302 0.85161 0
M  V30 1079 H 98.8928 3.44223 -1.2612 0
M  V30 1080 H 98.5408 4.98437 0.675988 0
M  V30 1081 H 98.2408 5.81072 -0.873455 0
M  V30 1082 H 99.7648 6.10599 0.0109857 0
M  V30 1083 H 101.179 5.32573 -2.12223 0
M  V30 1084 H 99.5758 5.24843 -2.90963 0
M  V30 1085 H 100.646 3.83602 -2.96611 0
M  V30 1086 N 101.989 0.842826 1.3317 0
M  V30 1087 C 103.236 0.440447 1.97652 0
M  V30 1088 C 103.564 -1.00123 1.6675 0
M  V30 1089 O 102.819 -1.7155 0.941761 0
M  V30 1090 C 103.118 0.612607 3.52111 0
M  V30 1091 C 102.784 2.02297 4.02972 0
M  V30 1092 C 101.446 2.40874 4.16573 0
M  V30 1093 C 103.798 2.94402 4.30089 0
M  V30 1094 C 101.126 3.70852 4.54627 0
M  V30 1095 C 103.478 4.23865 4.69597 0
M  V30 1096 C 102.142 4.62392 4.81404 0
M  V30 1097 H 101.412 0.161171 0.72326 0
M  V30 1098 H 104.059 1.07061 1.58777 0
M  V30 1099 H 102.364 -0.100849 3.9167 0
M  V30 1100 H 104.061 0.2815 4.00011 0
M  V30 1101 H 100.651 1.71338 3.92863 0
M  V30 1102 H 104.835 2.65835 4.19101 0
M  V30 1103 H 100.091 4.00501 4.61962 0
M  V30 1104 H 104.265 4.95306 4.89536 0
M  V30 1105 H 101.892 5.63154 5.10648 0
M  V30 1106 N 103.467 -1.45747 0.599634 0
M  V30 1107 C 104.715 -2.01893 0.0915472 0
M  V30 1108 C 105.036 -1.47155 -1.27946 0
M  V30 1109 O 104.306 -0.66273 -1.84349 0
M  V30 1110 H 102.886 -0.746363 0.0308524 0
M  V30 1111 H 105.548 -1.78645 0.779237 0
M  V30 1112 H 104.644 -3.1208 0.0353086 0
M  V30 1113 N 104.945 -0.338344 -1.53925 0
M  V30 1114 C 106.173 0.261298 -2.05243 0
M  V30 1115 C 106.588 1.44625 -1.21363 0
M  V30 1116 O 105.945 1.80811 -0.247736 0
M  V30 1117 C 105.996 0.681412 -3.5502 0
M  V30 1118 O 105.717 -0.456414 -4.35716 0
M  V30 1119 C 107.218 1.34232 -4.22489 0
M  V30 1120 H 104.438 0.0513685 -0.669031 0
M  V30 1121 H 106.982 -0.488822 -1.98572 0
M  V30 1122 H 105.137 1.38148 -3.61931 0
M  V30 1123 H 105.551 -0.122564 -5.24357 0
M  V30 1124 H 107.025 1.58708 -5.28693 0
M  V30 1125 H 107.502 2.29426 -3.74514 0
M  V30 1126 H 108.108 0.684424 -4.19757 0
M  V30 1127 N 106.423 1.57458 -0.0668435 0
M  V30 1128 C 107.37 2.12439 0.902122 0
M  V30 1129 C 108.34 1.03565 1.2986 0
M  V30 1130 O 109.525 1.312 1.38532 0
M  V30 1131 C 106.665 2.6865 2.16614 0
M  V30 1132 C 105.778 3.91663 1.82274 0
M  V30 1133 C 104.913 4.36134 3.0325 0
M  V30 1134 C 103.952 5.51808 2.64904 0
M  V30 1135 N 103.089 5.9126 3.78624 0
M  V30 1136 H 107.929 2.94934 0.426382 0
M  V30 1137 H 105.466 1.4575 0.198819 0
M  V30 1138 H 107.424 2.99346 2.90599 0
M  V30 1139 H 106.054 1.88928 2.61737 0
M  V30 1140 H 105.106 3.6746 0.983719 0
M  V30 1141 H 106.418 4.75693 1.50059 0
M  V30 1142 H 105.572 4.68465 3.85519 0
M  V30 1143 H 104.311 3.50948 3.38655 0
M  V30 1144 H 103.316 5.19133 1.81055 0
M  V30 1145 H 104.541 6.38722 2.30675 0
M  V30 1146 H 102.487 5.09024 4.138 0
M  V30 1147 H 102.404 6.70018 3.5016 0
M  V30 1148 H 103.672 6.28212 4.61486 0
M  V30 1149 N 107.901 -0.206675 1.56239 0
M  V30 1150 C 109.149 -0.927007 1.79586 0
M  V30 1151 C 109.47 -1.8427 0.637929 0
M  V30 1152 O 108.74 -1.92849 -0.344398 0
M  V30 1153 H 107.32 -0.345292 0.662407 0
M  V30 1154 H 109.982 -0.21496 1.93711 0
M  V30 1155 H 109.078 -1.52501 2.72305 0
M  V30 1156 N 109.379 -1.50304 -0.473955 0
M  V30 1157 C 110.309 -1.71886 -1.58042 0
M  V30 1158 C 111.29 -0.567799 -1.60344 0
M  V30 1159 O 112.475 -0.806623 -1.76656 0
M  V30 1160 C 109.605 -1.81036 -2.96384 0
M  V30 1161 C 108.559 -2.962 -3.08949 0
M  V30 1162 C 107.885 -2.9049 -4.48909 0
M  V30 1163 C 109.185 -4.36752 -2.86434 0
M  V30 1164 H 110.879 -2.64527 -1.40234 0
M  V30 1165 H 108.425 -1.27295 -0.673201 0
M  V30 1166 H 110.378 -1.94719 -3.73714 0
M  V30 1167 H 109.102 -0.850147 -3.15341 0
M  V30 1168 H 107.761 -2.82164 -2.3405 0
M  V30 1169 H 107.409 -1.92321 -4.64781 0
M  V30 1170 H 107.109 -3.67802 -4.58253 0
M  V30 1171 H 108.633 -3.06218 -5.28264 0
M  V30 1172 H 110.047 -4.5133 -3.53517 0
M  V30 1173 H 108.444 -5.15493 -3.07225 0
M  V30 1174 H 109.514 -4.49321 -1.82316 0
M  V30 1175 N 110.857 0.726932 -1.39834 0
M  V30 1176 C 112.105 1.4837 -1.37225 0
M  V30 1177 C 112.426 1.94979 0.0284857 0
M  V30 1178 O 111.696 1.69555 0.981213 0
M  V30 1179 H 110.276 0.55043 -0.505011 0
M  V30 1180 H 112.938 0.862468 -1.74778 0
M  V30 1181 H 112.034 2.36198 -2.04003 0
M  V30 1182 N 112.336 1.25143 0.95797 0
M  V30 1183 C 113.283 1.05235 2.05412 0
M  V30 1184 C 114.253 -0.0374561 1.66058 0
M  V30 1185 O 115.438 0.119073 1.90428 0
M  V30 1186 C 112.578 0.673589 3.38462 0
M  V30 1187 C 111.691 1.8379 3.90954 0
M  V30 1188 C 110.826 1.40381 5.12315 0
M  V30 1189 C 109.865 2.53746 5.57027 0
M  V30 1190 N 109.002 2.11136 6.69601 0
M  V30 1191 H 113.842 1.99048 2.21774 0
M  V30 1192 H 111.379 0.991277 1.08683 0
M  V30 1193 H 113.337 0.434964 4.14926 0
M  V30 1194 H 111.967 -0.227554 3.21997 0
M  V30 1195 H 111.019 2.18992 3.11041 0
M  V30 1196 H 112.331 2.68937 4.20089 0
M  V30 1197 H 111.485 1.12464 5.96185 0
M  V30 1198 H 110.224 0.523015 4.84887 0
M  V30 1199 H 109.229 2.82412 4.71724 0
M  V30 1200 H 110.454 3.42398 5.86464 0
M  V30 1201 H 108.4 1.25468 6.4389 0
M  V30 1202 H 108.317 2.89832 6.98236 0
M  V30 1203 H 109.585 1.86385 7.56889 0
M  V30 1204 N 113.814 -1.1601 1.06675 0
M  V30 1205 C 115.061 -1.86633 0.785781 0
M  V30 1206 C 115.389 -1.81929 -0.687896 0
M  V30 1207 O 114.644 -1.23253 -1.52011 0
M  V30 1208 C 114.943 -3.35547 1.23057 0
M  V30 1209 C 114.609 -3.60448 2.70902 0
M  V30 1210 C 113.271 -3.66954 3.11285 0
M  V30 1211 C 115.623 -3.7071 3.66365 0
M  V30 1212 C 112.951 -3.81225 4.45965 0
M  V30 1213 C 115.303 -3.86503 5.00797 0
M  V30 1214 C 113.967 -3.91252 5.40813 0
M  V30 1215 H 113.237 -0.682937 0.287538 0
M  V30 1216 H 115.884 -1.37146 1.33654 0
M  V30 1217 H 114.189 -3.87193 0.59907 0
M  V30 1218 H 115.886 -3.88583 0.990163 0
M  V30 1219 H 112.476 -3.56021 2.38636 0
M  V30 1220 H 116.66 -3.64991 3.36296 0
M  V30 1221 H 111.916 -3.83155 4.76447 0
M  V30 1222 H 116.09 -3.93385 5.74649 0
M  V30 1223 H 113.717 -4.02062 6.45174 0
M  V30 1224 N 115.292 -0.849877 -1.32721 0
M  V30 1225 C 116.541 -0.447175 -1.96681 0
M  V30 1226 C 116.854 1.00135 -1.68025 0
M  V30 1227 O 118.06 1.50926 -2.25685 0
M  V30 1228 C 116.516 -0.7487 -3.52026 0
M  V30 1229 C 116.124 -2.21264 -3.89546 0
M  V30 1230 C 117.868 -0.413487 -4.22481 0
M  V30 1231 C 115.775 -2.45763 -5.37917 0
M  V30 1232 H 114.705 -0.163486 -0.736063 0
M  V30 1233 H 117.356 -1.03999 -1.51183 0
M  V30 1234 H 115.738 -0.0853727 -3.95908 0
M  V30 1235 H 116.912 -2.91736 -3.56689 0
M  V30 1236 H 115.227 -2.5119 -3.32103 0
M  V30 1237 H 117.824 -0.574017 -5.3161 0
M  V30 1238 H 118.167 0.644492 -4.11281 0
M  V30 1239 H 118.7 -1.03251 -3.84167 0
M  V30 1240 H 115.439 -3.50168 -5.54132 0
M  V30 1241 H 114.959 -1.79864 -5.72197 0
M  V30 1242 H 116.638 -2.29471 -6.0494 0
M  V30 1243 N 116.77 1.45427 -0.607355 0
M  V30 1244 C 117.995 2.07124 -0.107006 0
M  V30 1245 C 118.42 1.44906 1.19933 0
M  V30 1246 O 117.778 0.541687 1.73019 0
M  V30 1247 C 117.826 3.60595 0.0194119 0
M  V30 1248 O 116.93 3.98285 1.0697 0
M  V30 1249 H 116.271 0.659868 -0.0739597 0
M  V30 1250 H 118.801 1.86683 -0.837297 0
M  V30 1251 H 118.811 4.07419 0.2177 0
M  V30 1252 H 117.486 4.05266 -0.934453 0
M  V30 1253 H 116.063 3.63133 0.847889 0
M  V30 1254 N 118.248 0.346503 1.53744 0
M  V30 1255 C 119.496 -0.248612 2.00565 0
M  V30 1256 C 119.817 -1.5083 1.23593 0
M  V30 1257 O 119.087 -1.92858 0.343912 0
M  V30 1258 H 117.667 -0.0948564 0.740953 0
M  V30 1259 H 120.329 0.468341 1.89189 0
M  V30 1260 H 119.425 -0.488994 3.08245 0
M  V30 1261 N 119.726 -1.57421 0.075193 0
M  V30 1262 C 120.689 -2.11791 -0.876203 0
M  V30 1263 C 121.689 -1.04268 -1.22412 0
M  V30 1264 O 122.879 -1.30242 -1.15684 0
M  V30 1265 C 120.011 -2.62207 -2.17854 0
M  V30 1266 H 121.204 -2.9716 -0.40444 0
M  V30 1267 H 118.757 -1.55333 -0.173557 0
M  V30 1268 H 119.492 -1.803 -2.6956 0
M  V30 1269 H 119.277 -3.40802 -1.93897 0
M  V30 1270 H 120.767 -3.04335 -2.85955 0
M  V30 1271 N 121.204 0.198386 -1.56346 0
M  V30 1272 C 122.453 0.917451 -1.79627 0
M  V30 1273 C 122.766 1.8456 -0.64784 0
M  V30 1274 O 123.972 2.60504 -0.764859 0
M  V30 1275 C 122.428 1.68175 -3.18191 0
M  V30 1276 C 122.036 0.798589 -4.40825 0
M  V30 1277 C 123.78 2.39065 -3.50782 0
M  V30 1278 C 121.687 1.56157 -5.70411 0
M  V30 1279 H 120.617 0.346317 -0.669762 0
M  V30 1280 H 123.268 0.170801 -1.82703 0
M  V30 1281 H 121.65 2.47216 -3.09354 0
M  V30 1282 H 122.824 0.0470665 -4.60776 0
M  V30 1283 H 121.139 0.200686 -4.15916 0
M  V30 1284 H 123.736 2.96692 -4.44835 0
M  V30 1285 H 124.079 3.13091 -2.74371 0
M  V30 1286 H 124.612 1.66993 -3.61052 0
M  V30 1287 H 121.351 0.864142 -6.49779 0
M  V30 1288 H 120.871 2.2871 -5.54483 0
M  V30 1289 H 122.55 2.11622 -6.11412 0
M  V30 1290 N 122.682 1.50554 0.465978 0
M  V30 1291 C 123.612 1.72722 1.57128 0
M  V30 1292 C 124.593 0.576294 1.6004 0
M  V30 1293 O 125.778 0.81598 1.76225 0
M  V30 1294 C 122.908 1.82605 2.95419 0
M  V30 1295 C 121.862 2.97835 3.07373 0
M  V30 1296 C 121.188 2.92867 4.47363 0
M  V30 1297 C 122.488 4.38265 2.84114 0
M  V30 1298 H 124.182 2.65267 1.38829 0
M  V30 1299 H 121.728 1.2765 0.666441 0
M  V30 1300 H 123.681 1.96698 3.72677 0
M  V30 1301 H 122.405 0.866858 3.14886 0
M  V30 1302 H 121.064 2.83401 2.3255 0
M  V30 1303 H 120.712 1.94783 4.63755 0
M  V30 1304 H 120.412 3.70227 4.56296 0
M  V30 1305 H 121.936 3.09015 5.26633 0
M  V30 1306 H 123.35 4.53198 3.51118 0
M  V30 1307 H 121.747 5.17115 3.04487 0
M  V30 1308 H 122.817 4.50281 1.7993 0
M  V30 1309 N 124.16 -0.719506 1.40217 0
M  V30 1310 C 125.407 -1.47933 1.38283 0
M  V30 1311 C 125.735 -1.94493 -0.0161536 0
M  V30 1312 O 124.99 -1.68224 -0.999956 0
M  V30 1313 C 125.289 -2.72271 2.31524 0
M  V30 1314 C 124.955 -2.44496 3.78857 0
M  V30 1315 C 123.617 -2.36631 4.18998 0
M  V30 1316 C 125.969 -2.21104 4.71977 0
M  V30 1317 C 123.297 -2.03437 5.503 0
M  V30 1318 C 125.649 -1.89423 6.03574 0
M  V30 1319 C 124.313 -1.80038 6.42762 0
M  V30 1320 H 123.583 -0.541325 0.506012 0
M  V30 1321 H 126.23 -0.824502 1.72842 0
M  V30 1322 H 124.535 -3.42572 1.90137 0
M  V30 1323 H 126.232 -3.30348 2.27313 0
M  V30 1324 H 122.822 -2.51503 3.47051 0
M  V30 1325 H 127.006 -2.26139 4.41786 0
M  V30 1326 H 122.262 -1.94705 5.79569 0
M  V30 1327 H 126.436 -1.70336 6.75247 0
M  V30 1328 H 124.063 -1.54083 7.44421 0
M  V30 1329 N 125.638 -1.25649 -0.95132 0
M  V30 1330 C 126.548 -1.08073 -2.08224 0
M  V30 1331 C 127.564 -0.0169666 -1.73992 0
M  V30 1332 O 128.74 -0.218593 -2.0021 0
M  V30 1333 C 125.805 -0.704922 -3.39458 0
M  V30 1334 C 124.866 -1.84699 -3.87537 0
M  V30 1335 C 124.099 -1.48902 -5.12508 0
M  V30 1336 O 124.322 -0.386156 -5.69091 0
M  V30 1337 O 123.256 -2.32033 -5.55378 0
M  V30 1338 H 127.082 -2.02924 -2.25954 0
M  V30 1339 H 124.667 -1.04618 -1.06656 0
M  V30 1340 H 126.549 -0.507609 -4.18332 0
M  V30 1341 H 125.224 0.214291 -3.2299 0
M  V30 1342 H 124.131 -2.09919 -3.09653 0
M  V30 1343 H 125.464 -2.74557 -4.08509 0
M  V30 1344 N 127.117 1.15442 -1.07289 0
M  V30 1345 C 128.027 2.23786 -0.704057 0
M  V30 1346 C 129.043 1.7166 0.284413 0
M  V30 1347 O 130.219 2.00972 0.131205 0
M  V30 1348 C 127.284 3.46535 -0.106792 0
M  V30 1349 C 126.345 4.13654 -1.14842 0
M  V30 1350 C 125.578 5.30544 -0.57956 0
M  V30 1351 O 125.801 5.67187 0.604585 0
M  V30 1352 O 124.735 5.87154 -1.32414 0
M  V30 1353 H 128.561 2.57664 -1.60757 0
M  V30 1354 H 126.146 1.23152 -0.845803 0
M  V30 1355 H 128.028 4.20804 0.224048 0
M  V30 1356 H 126.703 3.14407 0.770049 0
M  V30 1357 H 125.61 3.4131 -1.5316 0
M  V30 1358 H 126.943 4.49861 -1.99714 0
M  V30 1359 N 128.595 0.856903 1.32268 0
M  V30 1360 C 129.823 0.475439 2.01363 0
M  V30 1361 C 130.238 -0.928486 1.64392 0
M  V30 1362 O 129.595 -1.60624 0.866387 0
M  V30 1363 C 129.646 0.607545 3.56358 0
M  V30 1364 O 129.367 1.95617 3.92002 0
M  V30 1365 C 130.868 0.225382 4.42727 0
M  V30 1366 H 128.088 0.186636 0.644521 0
M  V30 1367 H 130.632 1.15446 1.68797 0
M  V30 1368 H 128.787 -0.0237719 3.87393 0
M  V30 1369 H 129.201 1.95455 4.86721 0
M  V30 1370 H 130.675 0.368813 5.50767 0
M  V30 1371 H 131.152 -0.834369 4.31202 0
M  V30 1372 H 131.758 0.831864 4.17085 0
M  V30 1373 N 130.073 -1.45103 0.615059 0
M  V30 1374 C 131.003 -2.33339 -0.0865619 0
M  V30 1375 C 131.984 -1.4727 -0.851209 0
M  V30 1376 O 133.169 -1.76026 -0.820281 0
M  V30 1377 C 130.299 -3.30095 -1.07956 0
M  V30 1378 C 129.253 -4.25858 -0.427628 0
M  V30 1379 C 128.579 -5.12361 -1.5294 0
M  V30 1380 C 129.879 -5.18165 0.655944 0
M  V30 1381 H 131.573 -2.92254 0.650224 0
M  V30 1382 H 129.119 -1.40532 0.314138 0
M  V30 1383 H 131.072 -3.90698 -1.57901 0
M  V30 1384 H 129.796 -2.69355 -1.84703 0
M  V30 1385 H 128.455 -3.66564 0.0510292 0
M  V30 1386 H 128.103 -4.47984 -2.28734 0
M  V30 1387 H 127.803 -5.77238 -1.09865 0
M  V30 1388 H 129.327 -5.75833 -2.03098 0
M  V30 1389 H 130.741 -5.72796 0.240257 0
M  V30 1390 H 129.138 -5.91559 1.00888 0
M  V30 1391 H 130.208 -4.60144 1.52957 0
M  V30 1392 N 131.551 -0.354651 -1.53558 0
M  V30 1393 C 132.798 0.238443 -2.01091 0
M  V30 1394 C 133.126 1.49663 -1.24222 0
M  V30 1395 O 132.381 1.93049 -0.321003 0
M  V30 1396 C 132.68 0.587121 -3.52545 0
M  V30 1397 C 132.346 -0.575472 -4.47213 0
M  V30 1398 C 131.008 -0.894497 -4.72813 0
M  V30 1399 C 133.36 -1.35489 -5.03281 0
M  V30 1400 C 130.688 -1.99511 -5.51736 0
M  V30 1401 C 133.04 -2.44583 -5.83405 0
M  V30 1402 C 131.704 -2.77033 -6.07296 0
M  V30 1403 H 130.974 0.0872526 -0.735845 0
M  V30 1404 H 133.621 -0.484859 -1.8526 0
M  V30 1405 H 131.926 1.39129 -3.66265 0
M  V30 1406 H 133.623 1.05809 -3.86789 0
M  V30 1407 H 130.213 -0.316774 -4.27428 0
M  V30 1408 H 134.397 -1.12167 -4.83459 0
M  V30 1409 H 129.653 -2.25063 -5.68469 0
M  V30 1410 H 133.827 -3.05401 -6.25862 0
M  V30 1411 H 131.454 -3.6244 -6.68237 0
M  V30 1412 N 133.029 1.57378 -0.0835403 0
M  V30 1413 C 133.961 2.10389 0.909338 0
M  V30 1414 C 134.974 1.03858 1.25369 0
M  V30 1415 O 136.163 1.31338 1.20882 0
M  V30 1416 C 133.263 2.55908 2.2218 0
M  V30 1417 C 132.436 3.86145 2.05453 0
M  V30 1418 C 131.495 4.17633 3.20108 0
M  V30 1419 O 130.521 4.87043 2.94581 0
M  V30 1420 N 131.723 3.72113 4.45547 0
M  V30 1421 H 134.488 2.962 0.456657 0
M  V30 1422 H 132.049 1.61579 0.101877 0
M  V30 1423 H 134.041 2.74027 2.97811 0
M  V30 1424 H 132.611 1.75171 2.58909 0
M  V30 1425 H 131.831 3.7729 1.1422 0
M  V30 1426 H 133.119 4.7137 1.91541 0
M  V30 1427 H 132.517 3.16062 4.69171 0
M  V30 1428 H 131.074 3.95409 5.18165 0
M  V30 1429 N 134.507 -0.190092 1.56449 0
M  V30 1430 C 135.454 -1.23557 1.94942 0
M  V30 1431 C 136.424 -1.44972 0.810696 0
M  V30 1432 O 137.609 -1.58023 1.06927 0
M  V30 1433 C 134.749 -2.57416 2.2985 0
M  V30 1434 C 133.862 -2.43537 3.5681 0
M  V30 1435 C 132.997 -3.70134 3.81017 0
M  V30 1436 C 132.036 -3.51109 5.01387 0
M  V30 1437 N 131.173 -4.6973 5.21822 0
M  V30 1438 H 136.013 -0.900304 2.84075 0
M  V30 1439 H 133.55 -0.43318 1.40577 0
M  V30 1440 H 135.508 -3.35409 2.48106 0
M  V30 1441 H 134.138 -2.88975 1.43852 0
M  V30 1442 H 133.19 -1.56816 3.46573 0
M  V30 1443 H 134.502 -2.25415 4.4496 0
M  V30 1444 H 133.656 -4.56566 3.9954 0
M  V30 1445 H 132.395 -3.91215 2.91207 0
M  V30 1446 H 131.4 -2.63063 4.82782 0
M  V30 1447 H 132.625 -3.31468 5.9271 0
M  V30 1448 H 130.571 -4.91065 4.34961 0
M  V30 1449 H 130.488 -4.54452 6.0416 0
M  V30 1450 H 131.756 -5.57499 5.44808 0
M  V30 1451 N 135.985 -1.50799 -0.457987 0
M  V30 1452 C 136.933 -1.71162 -1.575 0
M  V30 1453 C 137.927 -0.577592 -1.59249 0
M  V30 1454 O 139.133 -0.758443 -1.63241 0
M  V30 1455 H 135.508 -0.540468 -0.522875 0
M  V30 1456 H 137.479 -2.64837 -1.37492 0
M  V30 1457 C 136.228 -1.83496 -2.95338 0
M  V30 1458 H 135.551 -2.70153 -2.94716 0
M  V30 1459 H 136.991 -2.01765 -3.72917 0
M  V30 1460 C 135.45 -0.589694 -3.31699 0
M  V30 1461 O 135.98 0.265163 -4.00824 0
M  V30 1462 N 134.186 -0.439845 -2.87252 0
M  V30 1463 H 133.733 -1.13655 -2.31172 0
M  V30 1464 H 133.691 0.392159 -3.11945 0
M  V30 1465 N 137.463 0.71206 -1.40597 0
M  V30 1466 C 138.373 1.8562 -1.43466 0
M  V30 1467 C 139.389 1.70902 -0.326902 0
M  V30 1468 O 140.565 1.93105 -0.572043 0
M  V30 1469 C 137.63 3.21451 -1.29884 0
M  V30 1470 C 136.691 3.48398 -2.50833 0
M  V30 1471 C 135.924 4.77749 -2.3789 0
M  V30 1472 O 136.147 5.53089 -1.39459 0
M  V30 1473 O 135.081 5.05111 -3.27333 0
M  V30 1474 H 138.907 1.86155 -2.39958 0
M  V30 1475 H 136.492 0.86295 -1.21957 0
M  V30 1476 H 138.374 4.02579 -1.24531 0
M  V30 1477 H 137.049 3.21636 -0.364997 0
M  V30 1478 H 135.956 2.67265 -2.61763 0
M  V30 1479 H 137.289 3.53014 -3.4299 0
M  V30 1480 N 138.941 1.26152 0.944643 0
M  V30 1481 C 139.904 1.07474 2.0244 0
M  V30 1482 C 140.904 0.0242064 1.60782 0
M  V30 1483 O 142.094 0.267302 1.72137 0
M  V30 1484 C 139.226 0.633956 3.34953 0
M  V30 1485 H 140.419 2.03336 2.20442 0
M  V30 1486 H 137.972 1.087 1.12312 0
M  V30 1487 H 138.707 -0.326811 3.22649 0
M  V30 1488 H 138.492 1.39247 3.66542 0
M  V30 1489 H 139.982 0.52501 4.14287 0
M  V30 1490 N 140.419 -1.14872 1.07899 0
M  V30 1491 C 141.667 -1.85422 0.803941 0
M  V30 1492 C 141.988 -1.83051 -0.67211 0
M  V30 1493 O 141.258 -1.27532 -1.48703 0
M  V30 1494 H 139.838 -0.686537 0.294408 0
M  V30 1495 H 142.5 -1.39226 1.3639 0
M  V30 1496 H 141.596 -2.90399 1.14346 0
M  V30 1497 N 141.898 -0.863906 -1.31812 0
M  V30 1498 C 143.144 -0.472535 -1.97218 0
M  V30 1499 C 143.477 0.971394 -1.68159 0
M  V30 1500 O 142.752 1.68309 -0.974798 0
M  V30 1501 C 143.035 -0.723054 -3.52766 0
M  V30 1502 C 142.888 -2.21608 -3.91421 0
M  V30 1503 C 144.207 -0.185522 -4.39709 0
M  V30 1504 H 141.326 -0.173158 -0.71637 0
M  V30 1505 H 143.968 -1.08403 -1.56041 0
M  V30 1506 H 142.118 -0.202577 -3.87971 0
M  V30 1507 H 143.79 -2.80334 -3.66347 0
M  V30 1508 H 142.033 -2.691 -3.40246 0
M  V30 1509 H 142.704 -2.34203 -4.99853 0
M  V30 1510 H 145.18 -0.630726 -4.11292 0
M  V30 1511 H 144.056 -0.390306 -5.47511 0
M  V30 1512 H 144.317 0.912229 -4.32586 0
M  V30 1513 N 143.376 1.44774 -0.622745 0
M  V30 1514 C 144.787 1.85546 -0.207226 0
M  V30 1515 C 145.138 1.52093 1.23944 0
M  V30 1516 O 144.263 0.95492 1.94191 0
M  V30 1517 C 144.858 3.36781 -0.369313 0
M  V30 1518 C 143.417 3.76399 -0.00836847 0
M  V30 1519 C 142.564 2.68664 -0.686651 0
M  V30 1520 H 145.515 1.3536 -0.828454 0
M  V30 1521 H 145.536 3.78453 0.394162 0
M  V30 1522 H 145.048 3.61098 -1.42231 0
M  V30 1523 H 143.149 3.57698 1.04322 0
M  V30 1524 H 143.262 4.7732 -0.412584 0
M  V30 1525 H 141.626 2.54404 -0.122777 0
M  V30 1526 H 142.409 2.95815 -1.74208 0
M  V30 1527 N 144.854 0.36279 1.53368 0
M  V30 1528 C 145.787 -0.528507 2.21996 0
M  V30 1529 C 146.765 -1.0852 1.21087 0
M  V30 1530 O 147.949 -1.14186 1.4998 0
M  V30 1531 C 145.076 -1.72893 2.91249 0
M  V30 1532 C 144.122 -1.29994 4.06207 0
M  V30 1533 S 144.955 -0.303575 5.34639 0
M  V30 1534 C 146.111 -1.51039 6.07403 0
M  V30 1535 H 146.344 0.0543423 2.9725 0
M  V30 1536 H 143.877 0.146889 1.537 0
M  V30 1537 H 145.835 -2.41751 3.31763 0
M  V30 1538 H 144.496 -2.28303 2.15724 0
M  V30 1539 H 143.689 -2.19549 4.53667 0
M  V30 1540 H 143.291 -0.690608 3.67569 0
M  V30 1541 H 145.583 -2.44186 6.31965 0
M  V30 1542 H 146.526 -1.07721 6.99858 0
M  V30 1543 H 146.934 -1.71518 5.37812 0
M  V30 1544 N 146.332 -1.57332 0.0918853 0
M  V30 1545 C 147.578 -1.94524 -0.573425 0
M  V30 1546 C 147.911 -0.973578 -1.68033 0
M  V30 1547 O 147.186 -0.00609226 -1.94499 0
M  V30 1548 C 147.469 -3.41858 -1.13161 0
M  V30 1549 C 147.322 -4.4979 -0.0299747 0
M  V30 1550 C 148.641 -3.90435 -2.03098 0
M  V30 1551 H 145.76 -0.70734 -0.206975 0
M  V30 1552 H 148.402 -1.89309 0.161942 0
M  V30 1553 H 146.552 -3.46433 -1.7583 0
M  V30 1554 H 148.224 -4.57327 0.604112 0
M  V30 1555 H 146.467 -4.291 0.636833 0
M  V30 1556 H 147.138 -5.50069 -0.461287 0
M  V30 1557 H 149.614 -3.87992 -1.50338 0
M  V30 1558 H 148.49 -4.94097 -2.39081 0
M  V30 1559 H 148.751 -3.29541 -2.94712 0
M  V30 1560 N 147.81 0.181792 -1.56548 0
M  V30 1561 C 148.758 1.24461 -1.965 0
M  V30 1562 C 149.752 1.464 -0.852261 0
M  V30 1563 O 150.958 1.47103 -1.03733 0
M  V30 1564 H 147.333 0.418138 -0.625031 0
M  V30 1565 H 149.304 0.880714 -2.85107 0
M  V30 1566 C 148.053 2.57891 -2.33212 0
M  V30 1567 H 147.376 2.41829 -3.18369 0
M  V30 1568 H 148.816 3.3097 -2.65019 0
M  V30 1569 C 147.275 3.15871 -1.17163 0
M  V30 1570 O 147.805 3.9913 -0.453708 0
M  V30 1571 N 146.011 2.74808 -0.944936 0
M  V30 1572 H 145.558 2.07205 -1.53049 0
M  V30 1573 H 145.516 3.13939 -0.170286 0
M  V30 1574 N 149.288 1.51039 0.449983 0
M  V30 1575 C 150.218 1.74379 1.55288 0
M  V30 1576 C 151.199 0.593236 1.5942 0
M  V30 1577 O 152.384 0.834625 1.7535 0
M  V30 1578 C 149.514 1.85728 2.93466 0
M  V30 1579 C 148.468 3.01078 3.04197 0
M  V30 1580 C 147.794 2.97595 4.44231 0
M  V30 1581 C 149.094 4.41254 2.7945 0
M  V30 1582 H 150.788 2.66725 1.36008 0
M  V30 1583 H 148.334 1.2835 0.652864 0
M  V30 1584 H 150.287 2.0064 3.70569 0
M  V30 1585 H 149.011 0.900207 3.13949 0
M  V30 1586 H 147.67 2.85851 2.29531 0
M  V30 1587 H 147.318 1.99691 4.61663 0
M  V30 1588 H 147.018 3.75046 4.52343 0
M  V30 1589 H 148.542 3.14583 5.23326 0
M  V30 1590 H 149.956 4.56897 3.46292 0
M  V30 1591 H 148.353 5.20315 2.98985 0
M  V30 1592 H 149.423 4.52164 1.75144 0
M  V30 1593 N 150.766 -0.704594 1.40972 0
M  V30 1594 C 151.696 -1.83124 1.44872 0
M  V30 1595 C 152.677 -1.67281 0.30838 0
M  V30 1596 O 153.862 -1.87149 0.518556 0
M  V30 1597 C 150.992 -3.21181 1.32136 0
M  V30 1598 C 149.946 -3.51714 2.43888 0
M  V30 1599 C 149.272 -4.89032 2.16222 0
M  V30 1600 C 150.572 -3.516 3.86232 0
M  V30 1601 H 152.266 -1.80117 2.39161 0
M  V30 1602 H 149.812 -0.865145 1.15114 0
M  V30 1603 H 151.765 -3.99702 1.33479 0
M  V30 1604 H 150.489 -3.24791 0.343279 0
M  V30 1605 H 149.148 -2.75539 2.41813 0
M  V30 1606 H 148.796 -4.89256 1.16778 0
M  V30 1607 H 148.496 -5.10426 2.911 0
M  V30 1608 H 150.02 -5.69873 2.19265 0
M  V30 1609 H 151.434 -4.2014 3.9007 0
M  V30 1610 H 149.831 -3.84523 4.60719 0
M  V30 1611 H 150.901 -2.50757 4.15029 0
M  V30 1612 N 152.244 -1.26651 -0.937939 0
M  V30 1613 C 153.194 -1.05156 -2.02302 0
M  V30 1614 C 154.178 0.0171233 -1.60891 0
M  V30 1615 O 155.37 -0.200213 -1.75864 0
M  V30 1616 C 152.499 -0.689962 -3.36295 0
M  V30 1617 C 151.585 -1.79626 -3.84181 0
M  V30 1618 N 151.976 -3.03422 -4.04684 0
M  V30 1619 C 150.274 -1.6806 -4.13124 0
M  V30 1620 C 150.975 -3.75345 -4.444 0
M  V30 1621 N 149.951 -3.03051 -4.51288 0
M  V30 1622 H 153.753 -1.99117 -2.1617 0
M  V30 1623 H 151.267 -1.17216 -1.12402 0
M  V30 1624 H 153.264 -0.517112 -4.13681 0
M  V30 1625 H 151.924 0.242139 -3.23796 0
M  V30 1626 H 152.935 -3.39293 -3.91281 0
M  V30 1627 H 149.612 -0.818629 -4.09396 0
M  V30 1628 H 151.002 -4.81691 -4.68427 0
M  V30 1629 N 153.722 1.14298 -1.08507 0
M  V30 1630 C 154.67 2.21483 -0.710483 0
M  V30 1631 C 155.664 1.66998 0.284234 0
M  V30 1632 O 156.87 1.79401 0.146692 0
M  V30 1633 H 153.245 0.721578 -0.211729 0
M  V30 1634 H 155.216 2.50348 -1.62384 0
M  V30 1635 C 153.965 3.4743 -0.137007 0
M  V30 1636 H 153.288 3.89686 -0.893592 0
M  V30 1637 H 154.728 4.2391 0.0872789 0
M  V30 1638 C 153.187 3.17548 1.12538 0
M  V30 1639 O 153.717 3.35437 2.21009 0
M  V30 1640 N 151.923 2.71499 1.03617 0
M  V30 1641 H 151.47 2.57143 0.153403 0
M  V30 1642 H 151.428 2.51881 1.88158 0
M  V30 1643 N 155.201 0.870884 1.31352 0
M  V30 1644 C 156.111 0.330783 2.32256 0
M  V30 1645 C 157.127 -0.559767 1.6475 0
M  V30 1646 O 158.303 -0.456263 1.96164 0
M  V30 1647 C 155.368 -0.458137 3.4366 0
M  V30 1648 C 154.429 0.460482 4.26823 0
M  V30 1649 C 153.662 -0.290881 5.32907 0
M  V30 1650 O 153.885 -1.51885 5.49806 0
M  V30 1651 O 152.819 0.351732 6.00871 0
M  V30 1652 H 156.645 1.16718 2.80376 0
M  V30 1653 H 154.23 0.634285 1.35267 0
M  V30 1654 H 156.112 -0.905343 4.1156 0
M  V30 1655 H 154.787 -1.27106 2.97701 0
M  V30 1656 H 153.694 0.956207 3.61673 0
M  V30 1657 H 155.027 1.23903 4.7635 0
M  V30 1658 N 156.679 -1.44442 0.630414 0
M  V30 1659 C 157.627 -2.32437 -0.0871428 0
M  V30 1660 C 158.621 -1.47304 -0.836525 0
M  V30 1661 O 159.827 -1.63653 -0.749506 0
M  V30 1662 H 156.202 -0.750533 -0.0469495 0
M  V30 1663 H 158.173 -2.90709 0.673096 0
M  V30 1664 C 156.922 -3.31288 -1.05563 0
M  V30 1665 H 156.245 -3.96805 -0.488426 0
M  V30 1666 H 157.685 -3.9554 -1.52721 0
M  V30 1667 C 156.144 -2.6016 -2.14052 0
M  V30 1668 O 156.674 -2.39997 -3.22124 0
M  V30 1669 N 154.88 -2.19911 -1.89967 0
M  V30 1670 H 154.427 -2.36509 -1.02085 0
M  V30 1671 H 154.385 -1.72646 -2.62756 0
M  V30 1672 N 158.157 -0.370918 -1.53173 0
M  V30 1673 C 159.406 0.218249 -2.00516 0
M  V30 1674 C 159.719 1.49429 -1.26215 0
M  V30 1675 O 160.925 2.16239 -1.64174 0
M  V30 1676 C 159.381 0.43948 -3.57207 0
M  V30 1677 C 158.989 -0.822244 -4.4039 0
M  V30 1678 C 160.733 0.986012 -4.1289 0
M  V30 1679 C 158.64 -0.570304 -5.88644 0
M  V30 1680 H 157.57 0.0853333 -0.749156 0
M  V30 1681 H 160.221 -0.490483 -1.76823 0
M  V30 1682 H 158.603 1.20961 -3.77074 0
M  V30 1683 H 159.777 -1.59557 -4.32294 0
M  V30 1684 H 158.092 -1.29238 -3.95836 0
M  V30 1685 H 160.689 1.18991 -5.21292 0
M  V30 1686 H 161.032 1.94972 -3.6782 0
M  V30 1687 H 161.565 0.27592 -3.96842 0
M  V30 1688 H 158.304 -1.50449 -6.38001 0
M  V30 1689 H 157.824 0.164427 -5.99575 0
M  V30 1690 H 159.503 -0.19784 -6.46697 0
M  V30 1691 N 159.635 1.57281 -0.100228 0
M  V30 1692 C 160.884 1.93713 0.561984 0
M  V30 1693 C 161.197 0.984492 1.69018 0
M  V30 1694 O 162.403 1.24273 2.41389 0
M  V30 1695 C 160.859 3.4421 1.05106 0
M  V30 1696 C 160.467 4.47975 -0.0476628 0
M  V30 1697 C 162.211 3.89595 1.68571 0
M  V30 1698 C 160.118 5.89631 0.457055 0
M  V30 1699 H 159.048 0.723082 0.2137 0
M  V30 1700 H 161.699 1.82644 -0.177057 0
M  V30 1701 H 160.081 3.50449 1.84395 0
M  V30 1702 H 161.255 4.53385 -0.823333 0
M  V30 1703 H 159.57 4.1223 -0.587816 0
M  V30 1704 H 162.167 4.92832 2.07414 0
M  V30 1705 H 162.51 3.28526 2.55688 0
M  V30 1706 H 163.043 3.86078 0.958562 0
M  V30 1707 H 159.782 6.54411 -0.377616 0
M  V30 1708 H 159.302 5.87681 1.19962 0
M  V30 1709 H 160.981 6.40363 0.92437 0
M  V30 1710 N 161.113 -0.173488 1.56642 0
M  V30 1711 C 162.524 -0.736155 1.71574 0
M  V30 1712 C 162.875 -1.82888 0.710389 0
M  V30 1713 O 162 -2.16017 -0.1287 0
M  V30 1714 C 162.595 -1.34211 3.11083 0
M  V30 1715 C 161.154 -1.85162 3.27707 0
M  V30 1716 C 160.301 -0.729765 2.67525 0
M  V30 1717 H 163.252 0.0518786 1.58615 0
M  V30 1718 H 163.273 -2.21178 3.09613 0
M  V30 1719 H 162.785 -0.546579 3.84232 0
M  V30 1720 H 160.886 -2.67366 2.59512 0
M  V30 1721 H 160.999 -1.99855 4.35425 0
M  V30 1722 H 159.363 -1.14965 2.27278 0
M  V30 1723 H 160.146 0.0538806 3.43258 0
M  V30 1724 N 162.591 -1.51276 -0.441967 0
M  V30 1725 C 163.839 -1.63392 -1.18943 0
M  V30 1726 C 164.16 -0.350159 -1.9183 0
M  V30 1727 O 163.43 0.633784 -1.85364 0
M  V30 1728 H 162.01 -0.602164 -0.442049 0
M  V30 1729 H 164.672 -1.88186 -0.507165 0
M  V30 1730 H 163.768 -2.45934 -1.92154 0
M  V30 1731 N 164.069 0.697108 -1.41344 0
M  V30 1732 C 165.318 1.45279 -1.39918 0
M  V30 1733 C 165.631 1.95597 -0.0109624 0
M  V30 1734 O 166.837 2.71208 0.125919 0
M  V30 1735 C 165.293 2.62695 -2.46007 0
M  V30 1736 C 164.901 2.19169 -3.90729 0
M  V30 1737 C 166.645 3.40336 -2.53715 0
M  V30 1738 C 164.552 3.33535 -4.88373 0
M  V30 1739 H 163.482 0.545692 -0.520323 0
M  V30 1740 H 166.133 0.756929 -1.67161 0
M  V30 1741 H 164.515 3.34541 -2.11892 0
M  V30 1742 H 165.689 1.54623 -4.34083 0
M  V30 1743 H 164.004 1.54525 -3.86666 0
M  V30 1744 H 166.601 4.2547 -3.2385 0
M  V30 1745 H 166.944 3.85418 -1.5735 0
M  V30 1746 H 167.477 2.75546 -2.86913 0
M  V30 1747 H 164.216 2.93468 -5.86137 0
M  V30 1748 H 163.736 3.96936 -4.49668 0
M  V30 1749 H 165.415 3.99335 -5.09059 0
M  V30 1750 N 165.547 1.27147 0.931209 0
M  V30 1751 C 166.494 1.09568 2.03134 0
M  V30 1752 C 167.464 -0.00222433 1.661 0
M  V30 1753 O 168.649 0.159439 1.90133 0
M  V30 1754 C 165.789 0.745231 3.36957 0
M  V30 1755 C 164.902 1.92041 3.86968 0
M  V30 1756 C 164.037 1.51216 5.09222 0
M  V30 1757 C 163.076 2.65504 5.5152 0
M  V30 1758 N 162.213 2.25291 6.64972 0
M  V30 1759 H 167.053 2.03708 2.17502 0
M  V30 1760 H 164.59 1.01411 1.06556 0
M  V30 1761 H 166.548 0.522878 4.1391 0
M  V30 1762 H 165.178 -0.159202 3.22407 0
M  V30 1763 H 164.23 2.25541 3.06326 0
M  V30 1764 H 165.542 2.77787 4.1429 0
M  V30 1765 H 164.696 1.25084 5.93666 0
M  V30 1766 H 163.435 0.625749 4.83669 0
M  V30 1767 H 162.44 2.92354 4.65628 0
M  V30 1768 H 163.665 3.54761 5.7907 0
M  V30 1769 H 161.611 1.39098 6.41083 0
M  V30 1770 H 161.528 3.04577 6.91931 0
M  V30 1771 H 162.796 2.02398 7.52765 0
M  V30 1772 N 167.025 -1.13721 1.09112 0
M  V30 1773 C 168.271 -1.85198 0.826414 0
M  V30 1774 C 168.604 -1.83129 -0.646319 0
M  V30 1775 O 167.879 -1.2671 -1.47563 0
M  V30 1776 C 168.162 -3.33507 1.35812 0
M  V30 1777 C 168.015 -3.44108 2.89672 0
M  V30 1778 C 169.334 -4.28838 0.989256 0
M  V30 1779 H 166.453 -0.67243 0.301675 0
M  V30 1780 H 169.095 -1.33499 1.35197 0
M  V30 1781 H 167.245 -3.77666 0.911082 0
M  V30 1782 H 168.917 -3.08684 3.428 0
M  V30 1783 H 167.16 -2.85087 3.26967 0
M  V30 1784 H 167.831 -4.48388 3.21951 0
M  V30 1785 H 170.307 -3.92734 1.37475 0
M  V30 1786 H 169.183 -5.31051 1.38838 0
M  V30 1787 H 169.444 -4.4198 -0.102924 0
M  V30 1788 N 168.503 -0.877838 -1.30888 0
M  V30 1789 C 169.78 -0.413052 -1.91189 0
M  V30 1790 C 170.16 1.1056 -1.79832 0
M  V30 1791 O 169.508 1.93771 -1.21099 0
M  V30 1792 C 169.718 -0.903191 -3.3711 0
M  V30 1793 C 171.066 -0.93395 -4.14201 0
M  V30 1794 O 172.09 -0.849373 -3.45925 0
M  V30 1795 O 170.949 -1.05772 -5.36167 0
M  V30 1796 H 168.043 -0.125035 -0.817493 0
M  V30 1797 H 170.589 -0.966269 -1.39504 0
M  V30 1798 H 169.361 -1.94692 -3.39427 0
M  V30 1799 H 168.984 -0.328732 -3.96239 0
M  V30 1800 N 169.982 1.44106 -0.638065 0
M  V30 1801 C 170.929 2.30715 0.062701 0
M  V30 1802 C 171.899 1.43882 0.829883 0
M  V30 1803 O 173.084 1.72775 0.809532 0
M  V30 1804 C 170.224 3.29258 1.03358 0
M  V30 1805 C 169.337 4.31192 0.26409 0
M  V30 1806 C 168.472 5.16825 1.22741 0
M  V30 1807 C 167.511 6.10462 0.447475 0
M  V30 1808 N 166.648 6.8877 1.36161 0
M  V30 1809 H 171.488 2.90096 -0.681781 0
M  V30 1810 H 169.025 1.42925 -0.347988 0
M  V30 1811 H 170.983 3.84886 1.60992 0
M  V30 1812 H 169.613 2.71562 1.74511 0
M  V30 1813 H 168.665 3.77981 -0.428295 0
M  V30 1814 H 169.977 4.97619 -0.343052 0
M  V30 1815 H 169.131 5.77004 1.87487 0
M  V30 1816 H 167.87 4.50488 1.86847 0
M  V30 1817 H 166.875 5.49386 -0.213433 0
M  V30 1818 H 168.1 6.78837 -0.188968 0
M  V30 1819 H 166.046 6.25096 1.98975 0
M  V30 1820 H 165.963 7.51663 0.808656 0
M  V30 1821 H 167.231 7.53467 1.99769 0
M  V30 1822 N 171.46 0.379036 1.52974 0
M  V30 1823 C 172.708 -0.206014 2.01047 0
M  V30 1824 C 173.029 -1.48175 1.26765 0
M  V30 1825 O 172.299 -1.92085 0.384743 0
M  V30 1826 H 170.879 -0.0791184 0.742798 0
M  V30 1827 H 173.541 0.508366 1.88153 0
M  V30 1828 H 172.637 -0.423501 3.09213 0
M  V30 1829 N 172.938 -1.57226 0.108567 0
M  V30 1830 C 173.868 -2.17778 -0.84232 0
M  V30 1831 C 174.849 -1.11487 -1.2847 0
M  V30 1832 O 176.034 -1.39681 -1.34918 0
M  V30 1833 C 173.164 -2.76888 -2.09644 0
M  V30 1834 C 172.118 -3.88669 -1.79221 0
M  V30 1835 C 171.444 -4.34541 -3.11574 0
M  V30 1836 C 172.744 -5.11251 -1.06864 0
M  V30 1837 H 174.438 -2.97489 -0.337774 0
M  V30 1838 H 171.984 -1.43097 -0.161025 0
M  V30 1839 H 173.937 -3.17904 -2.76614 0
M  V30 1840 H 172.661 -1.94451 -2.62405 0
M  V30 1841 H 171.32 -3.48213 -1.14644 0
M  V30 1842 H 170.968 -3.48977 -3.62249 0
M  V30 1843 H 170.668 -5.09914 -2.91996 0
M  V30 1844 H 172.192 -4.782 -3.7968 0
M  V30 1845 H 173.606 -5.49352 -1.63968 0
M  V30 1846 H 172.003 -5.9214 -0.974178 0
M  V30 1847 H 173.073 -4.8487 -0.0536168 0
M  V30 1848 N 174.416 0.165178 -1.56732 0
M  V30 1849 C 175.662 0.882112 -1.82611 0
M  V30 1850 C 175.995 1.81628 -0.687378 0
M  V30 1851 O 175.27 1.92009 0.310267 0
M  V30 1852 C 175.553 1.67245 -3.18906 0
M  V30 1853 C 175.406 0.760987 -4.43316 0
M  V30 1854 C 176.725 2.63884 -3.52212 0
M  V30 1855 H 173.844 0.319242 -0.664269 0
M  V30 1856 H 176.486 0.148052 -1.89422 0
M  V30 1857 H 174.636 2.29824 -3.1323 0
M  V30 1858 H 176.308 0.147596 -4.61064 0
M  V30 1859 H 174.551 0.0694102 -4.33744 0
M  V30 1860 H 175.222 1.34962 -5.35247 0
M  V30 1861 H 177.698 2.11429 -3.58381 0
M  V30 1862 H 176.574 3.16245 -4.48643 0
M  V30 1863 H 176.835 3.44377 -2.77231 0
M  V30 1864 N 175.894 1.51508 0.433938 0
M  V30 1865 C 176.842 1.73646 1.54757 0
M  V30 1866 C 177.836 0.602854 1.5831 0
M  V30 1867 O 179.042 0.784318 1.62014 0
M  V30 1868 H 175.417 0.548718 0.51421 0
M  V30 1869 H 177.388 2.66991 1.33261 0
M  V30 1870 C 176.137 1.88172 2.92381 0
M  V30 1871 H 175.46 2.74808 2.90381 0
M  V30 1872 H 176.9 2.07672 3.6966 0
M  V30 1873 C 175.359 0.64239 3.30719 0
M  V30 1874 O 175.889 -0.201362 4.01195 0
M  V30 1875 N 174.095 0.485489 2.86516 0
M  V30 1876 H 173.642 1.17318 2.29334 0
M  V30 1877 H 173.6 -0.342482 3.12529 0
M  V30 1878 N 177.372 -0.689602 1.41712 0
M  V30 1879 C 178.621 -1.44534 1.40686 0
M  V30 1880 C 178.934 -1.95588 0.0213352 0
M  V30 1881 O 180.14 -2.71271 -0.111534 0
M  V30 1882 C 178.596 -2.61387 2.47396 0
M  V30 1883 C 178.204 -2.17094 3.91885 0
M  V30 1884 C 179.948 -3.38986 2.55517 0
M  V30 1885 C 177.855 -3.3094 4.90135 0
M  V30 1886 H 176.785 -0.542925 0.52321 0
M  V30 1887 H 179.436 -0.748054 1.6756 0
M  V30 1888 H 177.818 -3.33412 2.13664 0
M  V30 1889 H 178.992 -1.52318 4.34897 0
M  V30 1890 H 177.307 -1.52473 3.8748 0
M  V30 1891 H 179.904 -4.23747 3.26102 0
M  V30 1892 H 180.247 -3.84578 1.59391 0
M  V30 1893 H 180.78 -2.74021 2.8837 0
M  V30 1894 H 177.519 -2.90355 5.87685 0
M  V30 1895 H 177.039 -3.94546 4.51767 0
M  V30 1896 H 178.718 -3.9663 5.11169 0
M  V30 1897 N 178.85 -1.27639 -0.924453 0
M  V30 1898 C 180.261 -1.12834 -1.48746 0
M  V30 1899 C 180.612 0.285505 -1.94112 0
M  V30 1900 O 179.737 1.17874 -1.81479 0
M  V30 1901 C 180.332 -2.04217 -2.70334 0
M  V30 1902 C 178.891 -1.93509 -3.22848 0
M  V30 1903 C 178.038 -1.96583 -1.95577 0
M  V30 1904 H 180.989 -1.40484 -0.738233 0
M  V30 1905 H 181.01 -1.59989 -3.4523 0
M  V30 1906 H 180.522 -3.07111 -2.37285 0
M  V30 1907 H 178.623 -0.936131 -3.60649 0
M  V30 1908 H 178.736 -2.79917 -3.88823 0
M  V30 1909 H 177.1 -1.4085 -2.12211 0
M  V30 1910 H 177.883 -3.01137 -1.64837 0
M  V30 1911 N 180.328 1.1314 -1.09713 0
M  V30 1912 C 181.568 1.8613 -0.844683 0
M  V30 1913 C 181.932 1.81765 0.618491 0
M  V30 1914 O 183.133 2.50024 0.98699 0
M  V30 1915 C 181.404 3.30151 -1.36877 0
M  V30 1916 S 182.963 4.206 -1.25064 0
M  V30 1917 H 179.781 0.642056 -0.305427 0
M  V30 1918 H 182.383 1.36343 -1.4011 0
M  V30 1919 H 181.087 3.30883 -2.42786 0
M  V30 1920 H 180.618 3.85 -0.808614 0
M  V30 1921 H 182.633 4.95783 -0.203486 0
M  V30 1922 N 181.806 0.884767 1.30421 0
M  V30 1923 C 183.034 0.518044 2.0031 0
M  V30 1924 C 183.449 -0.893408 1.66324 0
M  V30 1925 O 182.806 -1.5875 0.900262 0
M  V30 1926 C 182.857 0.682997 3.54989 0
M  V30 1927 O 182.578 2.03888 3.87764 0
M  V30 1928 C 184.079 0.31924 4.42149 0
M  V30 1929 H 181.299 0.200265 0.640418 0
M  V30 1930 H 183.843 1.19001 1.6631 0
M  V30 1931 H 181.998 0.0584052 3.87356 0
M  V30 1932 H 182.412 2.05735 4.82466 0
M  V30 1933 H 183.886 0.485555 5.4986 0
M  V30 1934 H 184.363 -0.742717 4.32875 0
M  V30 1935 H 184.969 0.920147 4.15227 0
M  V30 1936 N 183.284 -1.43765 0.645699 0
M  V30 1937 C 184.561 -1.9541 0.0862963 0
M  V30 1938 C 184.941 -1.58725 -1.39175 0
M  V30 1939 O 184.289 -0.868581 -2.11348 0
M  V30 1940 C 184.499 -3.47488 0.324565 0
M  V30 1941 C 185.847 -4.24001 0.225497 0
M  V30 1942 O 186.871 -3.55274 0.256715 0
M  V30 1943 O 185.73 -5.46313 0.142801 0
M  V30 1944 H 182.824 -0.826882 -0.0139483 0
M  V30 1945 H 185.37 -1.53743 0.718415 0
M  V30 1946 H 184.142 -3.67289 1.3496 0
M  V30 1947 H 183.765 -3.96135 -0.340987 0
M  V30 1948 N 184.763 -0.387143 -1.52771 0
M  V30 1949 C 185.673 0.456442 -2.30117 0
M  V30 1950 C 186.689 1.07342 -1.36944 0
M  V30 1951 O 187.865 1.07971 -1.70013 0
M  V30 1952 C 184.93 1.56957 -3.09136 0
M  V30 1953 C 183.991 0.977916 -4.18014 0
M  V30 1954 C 183.224 2.038 -4.93256 0
M  V30 1955 O 183.447 3.25271 -4.68567 0
M  V30 1956 O 182.381 1.6565 -5.78657 0
M  V30 1957 H 186.207 -0.17359 -3.03203 0
M  V30 1958 H 183.792 -0.150919 -1.48636 0
M  V30 1959 H 185.674 2.21628 -3.58412 0
M  V30 1960 H 184.349 2.18461 -2.38865 0
M  V30 1961 H 183.256 0.294525 -3.72939 0
M  V30 1962 H 184.589 0.407128 -4.90513 0
M  V30 1963 N 186.241 1.57166 -0.116904 0
M  V30 1964 C 187.151 2.18745 0.847812 0
M  V30 1965 C 188.167 1.163 1.29423 0
M  V30 1966 O 189.343 1.48761 1.35765 0
M  V30 1967 C 186.408 2.77307 2.0809 0
M  V30 1968 C 185.469 3.94781 1.68661 0
M  V30 1969 C 184.702 4.50541 2.86091 0
M  V30 1970 O 184.925 4.05202 4.01456 0
M  V30 1971 O 183.859 5.41256 2.63298 0
M  V30 1972 H 187.685 3.01632 0.353778 0
M  V30 1973 H 185.27 1.49005 0.108599 0
M  V30 1974 H 187.152 3.14647 2.80313 0
M  V30 1975 H 185.827 1.97452 2.56504 0
M  V30 1976 H 184.734 3.62214 0.935518 0
M  V30 1977 H 186.067 4.76065 1.24991 0
M  V30 1978 N 187.719 -0.156864 1.56817 0
M  V30 1979 C 188.666 -1.19394 1.97519 0
M  V30 1980 C 189.636 -1.4322 0.841265 0
M  V30 1981 O 190.821 -1.55719 1.10255 0
M  V30 1982 C 187.961 -2.52483 2.35258 0
M  V30 1983 C 187.074 -2.35914 3.61896 0
M  V30 1984 C 186.209 -3.61969 3.88782 0
M  V30 1985 C 185.248 -3.40395 5.08722 0
M  V30 1986 N 184.385 -4.58556 5.31668 0
M  V30 1987 H 189.225 -0.839845 2.85921 0
M  V30 1988 H 186.762 -0.403264 1.41464 0
M  V30 1989 H 188.72 -3.30071 2.55165 0
M  V30 1990 H 187.35 -2.85859 1.49949 0
M  V30 1991 H 186.402 -1.49429 3.49821 0
M  V30 1992 H 187.714 -2.15926 4.49641 0
M  V30 1993 H 186.868 -4.47989 4.09135 0
M  V30 1994 H 185.607 -3.84951 2.9944 0
M  V30 1995 H 184.612 -2.52763 4.88253 0
M  V30 1996 H 185.837 -3.18822 5.99608 0
M  V30 1997 H 183.783 -4.81729 4.45279 0
M  V30 1998 H 183.7 -4.41535 6.13664 0
M  V30 1999 H 184.968 -5.45817 5.5651 0
M  V30 2000 N 189.197 -1.51736 -0.425897 0
M  V30 2001 C 190.422 -1.69082 -1.20108 0
M  V30 2002 C 190.847 -0.392398 -1.83962 0
M  V30 2003 O 190.205 0.64858 -1.69302 0
M  V30 2004 C 190.253 -2.81604 -2.25237 0
M  V30 2005 O 189.357 -2.46004 -3.30992 0
M  V30 2006 H 188.698 -0.563408 -0.35138 0
M  V30 2007 H 191.228 -1.98358 -0.501512 0
M  V30 2008 H 191.238 -3.06025 -2.69838 0
M  V30 2009 H 189.913 -3.75817 -1.78142 0
M  V30 2010 H 188.49 -2.32195 -2.91787 0
M  V30 2011 N 190.675 0.682077 -1.42076 0
M  V30 2012 C 191.903 1.47057 -1.4554 0
M  V30 2013 C 192.318 1.8869 -0.0645779 0
M  V30 2014 O 191.675 1.57666 0.919115 0
M  V30 2015 C 191.726 2.72442 -2.37609 0
M  V30 2016 O 191.447 2.32559 -3.71279 0
M  V30 2017 C 192.948 3.66069 -2.50017 0
M  V30 2018 H 190.168 0.452737 -0.495248 0
M  V30 2019 H 192.712 0.838695 -1.8651 0
M  V30 2020 H 190.867 3.31835 -1.9991 0
M  V30 2021 H 191.281 3.13475 -4.20516 0
M  V30 2022 H 192.755 4.50792 -3.18576 0
M  V30 2023 H 193.232 4.11476 -1.53572 0
M  V30 2024 H 193.838 3.12572 -2.88407 0
M  V30 2025 N 192.153 1.28127 0.917671 0
M  V30 2026 C 193.085 1.07517 2.02417 0
M  V30 2027 C 194.098 0.0281099 1.62776 0
M  V30 2028 O 195.287 0.270748 1.76435 0
M  V30 2029 C 192.387 0.610957 3.33347 0
M  V30 2030 C 191.56 1.73255 4.01624 0
M  V30 2031 C 190.619 1.26238 5.10833 0
M  V30 2032 O 189.645 1.96389 5.34247 0
M  V30 2033 N 190.847 0.123448 5.80369 0
M  V30 2034 H 193.612 2.02806 2.20658 0
M  V30 2035 H 191.173 1.19827 1.08871 0
M  V30 2036 H 193.165 0.280101 4.0373 0
M  V30 2037 H 191.735 -0.24898 3.11607 0
M  V30 2038 H 190.955 2.23319 3.24842 0
M  V30 2039 H 192.243 2.48503 4.43986 0
M  V30 2040 H 191.641 -0.461847 5.63812 0
M  V30 2041 H 190.198 -0.148158 6.51632 0
M  V30 2042 N 193.631 -1.12557 1.10312 0
M  V30 2043 C 194.879 -1.83675 0.843091 0
M  V30 2044 C 195.2 -1.84435 -0.633131 0
M  V30 2045 O 194.47 -1.30657 -1.45964 0
M  V30 2046 H 193.05 -0.680138 0.308904 0
M  V30 2047 H 195.712 -1.36301 1.39313 0
M  V30 2048 H 194.808 -2.87908 1.2048 0
M  V30 2049 N 195.109 -0.891671 -1.2995 0
M  V30 2050 C 196.039 -0.379797 -2.30391 0
M  V30 2051 C 197.02 0.540919 -1.6127 0
M  V30 2052 O 198.205 0.453352 -1.88834 0
M  V30 2053 C 195.335 0.400654 -3.44981 0
M  V30 2054 C 194.289 -0.428905 -4.25846 0
M  V30 2055 C 193.615 0.478557 -5.32554 0
M  V30 2056 C 194.915 -1.67458 -4.94727 0
M  V30 2057 H 196.609 -1.21914 -2.73454 0
M  V30 2058 H 194.155 -0.587675 -1.31462 0
M  V30 2059 H 196.108 0.769434 -4.14316 0
M  V30 2060 H 194.832 1.27371 -3.0074 0
M  V30 2061 H 193.491 -0.779911 -3.58208 0
M  V30 2062 H 193.139 1.34951 -4.84559 0
M  V30 2063 H 192.839 -0.0727433 -5.87555 0
M  V30 2064 H 194.363 0.843705 -6.04743 0
M  V30 2065 H 195.777 -1.376 -5.56542 0
M  V30 2066 H 194.174 -2.16659 -5.59624 0
M  V30 2067 H 195.244 -2.41518 -4.20473 0
M  V30 2068 N 196.587 1.43421 -0.653314 0
M  V30 2069 C 197.864 1.95361 -0.0966581 0
M  V30 2070 C 198.244 1.59461 1.38331 0
M  V30 2071 O 197.592 0.879777 2.10884 0
M  V30 2072 C 197.802 3.47311 -0.342988 0
M  V30 2073 C 199.15 4.23875 -0.24798 0
M  V30 2074 O 200.174 3.55133 -0.275553 0
M  V30 2075 O 199.033 5.4623 -0.171771 0
M  V30 2076 H 196.127 0.826945 0.00956291 0
M  V30 2077 H 198.673 1.5336 -0.726558 0
M  V30 2078 H 197.445 3.66569 -1.36906 0
M  V30 2079 H 197.068 3.9631 0.319975 0
M  V30 2080 N 198.065 0.39524 1.52563 0
M  V30 2081 C 199.313 -0.184678 2.01254 0
M  V30 2082 C 199.634 -1.46822 1.28329 0
M  V30 2083 O 198.904 -1.91666 0.405094 0
M  V30 2084 H 197.484 -0.0712355 0.743596 0
M  V30 2085 H 200.146 0.528293 1.87603 0
M  V30 2086 H 199.242 -0.390681 3.09645 0
M  V30 2087 N 199.544 -1.57102 0.125237 0
M  V30 2088 C 200.474 -2.18659 -0.819174 0
M  V30 2089 C 201.455 -1.12843 -1.27281 0
M  V30 2090 O 202.64 -1.41104 -1.33429 0
M  V30 2091 C 199.77 -2.79096 -2.06695 0
M  V30 2092 C 198.724 -3.90548 -1.75088 0
M  V30 2093 C 198.05 -4.37821 -3.06948 0
M  V30 2094 C 199.35 -5.12356 -1.01435 0
M  V30 2095 H 201.044 -2.9783 -0.306202 0
M  V30 2096 H 198.59 -1.4326 -0.145839 0
M  V30 2097 H 200.543 -3.2082 -2.73226 0
M  V30 2098 H 199.267 -1.97223 -2.60328 0
M  V30 2099 H 197.926 -3.49409 -1.10944 0
M  V30 2100 H 197.574 -3.52799 -3.58527 0
M  V30 2101 H 197.274 -5.12982 -2.86571 0
M  V30 2102 H 198.798 -4.822 -3.74587 0
M  V30 2103 H 200.212 -5.5106 -1.58132 0
M  V30 2104 H 198.609 -5.9314 -0.911319 0
M  V30 2105 H 199.679 -4.849 -0.00218681 0
M  V30 2106 N 201.022 0.148545 -1.56898 0
M  V30 2107 C 201.985 1.16736 -1.97244 0
M  V30 2108 C 202.985 1.35947 -0.858777 0
M  V30 2109 O 204.175 1.32966 -1.12542 0
M  V30 2110 C 201.307 2.52798 -2.28705 0
M  V30 2111 H 202.5 0.821279 -2.88435 0
M  V30 2112 H 200.053 0.391831 -1.51309 0
M  V30 2113 H 200.788 2.92381 -1.403 0
M  V30 2114 H 200.573 2.40216 -3.09901 0
M  V30 2115 H 202.063 3.26179 -2.60762 0
M  V30 2116 N 202.5 1.5196 0.417844 0
M  V30 2117 C 203.41 1.77554 1.53336 0
M  V30 2118 C 204.426 0.660655 1.6097 0
M  V30 2119 O 205.602 0.945099 1.77848 0
M  V30 2120 C 202.667 1.91291 2.89152 0
M  V30 2121 C 201.728 3.15183 2.91475 0
M  V30 2122 C 200.961 3.28256 4.20813 0
M  V30 2123 O 201.184 2.46798 5.14244 0
M  V30 2124 O 200.118 4.21356 4.29817 0
M  V30 2125 H 203.944 2.7222 1.34647 0
M  V30 2126 H 201.529 1.36698 0.602828 0
M  V30 2127 H 203.411 2.02199 3.69721 0
M  V30 2128 H 202.086 0.998129 3.07927 0
M  V30 2129 H 200.993 3.09739 2.09791 0
M  V30 2130 H 202.326 4.06414 2.77648 0
M  V30 2131 N 203.978 -0.674533 1.42435 0
M  V30 2132 C 205.394 -0.98769 1.25367 0
M  V30 2133 C 205.594 -2.00879 0.158044 0
M  V30 2134 O 204.65 -2.48075 -0.470633 0
M  V30 2135 C 205.963 -1.49224 2.6106 0
M  V30 2136 C 207.511 -1.61 2.68417 0
M  V30 2137 C 207.986 -2.14852 4.04478 0
M  V30 2138 N 209.477 -2.22185 4.06434 0
M  V30 2139 C 210.212 -2.64928 5.08528 0
M  V30 2140 N 209.708 -3.07121 6.21006 0
M  V30 2141 N 211.501 -2.64679 4.95885 0
M  V30 2142 H 203.652 0.00152503 2.124 0
M  V30 2143 H 205.915 -0.0618434 0.945981 0
M  V30 2144 H 205.621 -0.816453 3.42092 0
M  V30 2145 H 205.495 -2.47094 2.84999 0
M  V30 2146 H 207.882 -2.27686 1.87732 0
M  V30 2147 H 207.963 -0.616195 2.48267 0
M  V30 2148 H 207.607 -1.48775 4.85622 0
M  V30 2149 H 207.537 -3.15024 4.2198 0
M  V30 2150 H 210.028 -1.92435 3.25234 0
M  V30 2151 H 210.341 -3.38423 6.94759 0
M  V30 2152 H 208.686 -3.04978 6.24511 0
M  V30 2153 H 211.877 -2.31078 4.07088 0
M  V30 2154 H 212.05 -2.9767 5.75584 0
M  V30 2155 N 205.456 -1.28612 -0.910864 0
M  V30 2156 C 206.696 -1.1719 -1.67469 0
M  V30 2157 C 207.06 0.274441 -1.90028 0
M  V30 2158 O 208.261 0.511425 -2.6389 0
M  V30 2159 C 206.532 -1.95137 -2.99427 0
M  V30 2160 S 208.091 -2.00122 -3.90508 0
M  V30 2161 H 204.909 -0.41806 -0.575106 0
M  V30 2162 H 207.511 -1.6275 -1.08317 0
M  V30 2163 H 206.215 -2.99381 -2.80712 0
M  V30 2164 H 205.746 -1.50137 -3.63624 0
M  V30 2165 H 207.761 -1.10981 -4.8363 0
M  V30 2166 N 206.934 1.1197 -1.10907 0
M  V30 2167 C 207.881 2.17846 -0.762345 0
M  V30 2168 C 208.851 1.63995 0.263599 0
M  V30 2169 O 210.036 1.90273 0.141773 0
M  V30 2170 C 207.176 3.44487 -0.205651 0
M  V30 2171 C 206.289 4.12369 -1.28748 0
M  V30 2172 C 205.424 5.26674 -0.691919 0
M  V30 2173 C 204.463 5.86431 -1.75399 0
M  V30 2174 N 203.6 6.92142 -1.17833 0
M  V30 2175 H 208.44 2.46851 -1.6694 0
M  V30 2176 H 205.977 1.21188 -0.833776 0
M  V30 2177 H 207.935 4.16981 0.135037 0
M  V30 2178 H 206.565 3.15884 0.664613 0
M  V30 2179 H 205.617 3.38003 -1.74522 0
M  V30 2180 H 206.929 4.52844 -2.09125 0
M  V30 2181 H 206.083 6.05953 -0.300963 0
M  V30 2182 H 204.822 4.8749 0.143232 0
M  V30 2183 H 203.827 5.05835 -2.15432 0
M  V30 2184 H 205.052 6.27685 -2.59208 0
M  V30 2185 H 202.998 6.54985 -0.364725 0
M  V30 2186 H 202.915 7.31242 -1.91887 0
M  V30 2187 H 204.183 7.75237 -0.81408 0
M  V30 2188 N 208.412 0.89855 1.29475 0
M  V30 2189 C 209.322 0.379974 2.31502 0
M  V30 2190 C 210.338 -0.524695 1.659 0
M  V30 2191 O 211.514 -0.414551 1.97087 0
M  V30 2192 C 208.579 -0.385138 3.44554 0
M  V30 2193 C 207.64 0.550914 4.2575 0
M  V30 2194 C 206.873 -0.177778 5.33404 0
M  V30 2195 O 207.096 -1.40189 5.52904 0
M  V30 2196 O 206.03 0.479106 5.9999 0
M  V30 2197 H 209.856 1.22639 2.77837 0
M  V30 2198 H 207.441 0.662834 1.33891 0
M  V30 2199 H 209.323 -0.817841 4.13388 0
M  V30 2200 H 207.998 -1.20763 3.0033 0
M  V30 2201 H 206.905 1.03271 3.59564 0
M  V30 2202 H 208.238 1.33979 4.73614 0
M  V30 2203 N 209.89 -1.43072 0.660911 0
M  V30 2204 C 211.12 -2.05769 0.185153 0
M  V30 2205 C 211.528 -1.49668 -1.15742 0
M  V30 2206 O 210.871 -0.625649 -1.72717 0
M  V30 2207 C 210.933 -3.59489 0.0278237 0
M  V30 2208 C 210.597 -4.38212 1.2969 0
M  V30 2209 C 211.594 -4.69772 2.22734 0
M  V30 2210 C 209.279 -4.7809 1.54063 0
M  V30 2211 C 211.273 -5.40129 3.38437 0
M  V30 2212 C 208.96 -5.4819 2.70058 0
M  V30 2213 C 209.958 -5.79132 3.62071 0
M  V30 2214 O 209.646 -6.47798 4.76039 0
M  V30 2215 H 209.378 -0.669873 0.0908086 0
M  V30 2216 H 211.932 -1.84436 0.90402 0
M  V30 2217 H 210.162 -3.79426 -0.746489 0
M  V30 2218 H 211.851 -4.03862 -0.406275 0
M  V30 2219 H 212.617 -4.39476 2.05149 0
M  V30 2220 H 208.496 -4.53408 0.833215 0
M  V30 2221 H 212.04 -5.64198 4.10277 0
M  V30 2222 H 207.937 -5.77902 2.87574 0
M  V30 2223 H 208.705 -6.66283 4.75404 0
M  V30 2224 N 211.368 -0.403325 -1.52352 0
M  V30 2225 C 212.598 0.17376 -2.05868 0
M  V30 2226 C 213.006 1.39898 -1.27378 0
M  V30 2227 O 212.349 1.80939 -0.31729 0
M  V30 2228 C 212.411 0.594756 -3.54546 0
M  V30 2229 C 212.075 -0.518926 -4.54044 0
M  V30 2230 C 213.072 -1.3807 -5.01231 0
M  V30 2231 C 210.757 -0.689961 -4.97539 0
M  V30 2232 C 212.751 -2.39852 -5.90551 0
M  V30 2233 C 210.438 -1.71109 -5.86656 0
M  V30 2234 C 211.436 -2.56378 -6.33056 0
M  V30 2235 O 211.124 -3.56743 -7.20409 0
M  V30 2236 H 210.856 0.0264951 -0.675481 0
M  V30 2237 H 213.41 -0.571179 -1.97299 0
M  V30 2238 H 211.64 1.39189 -3.60782 0
M  V30 2239 H 213.329 1.0991 -3.90736 0
M  V30 2240 H 214.095 -1.25994 -4.68349 0
M  V30 2241 H 209.974 -0.035939 -4.60986 0
M  V30 2242 H 213.518 -3.06441 -6.26689 0
M  V30 2243 H 209.415 -1.83218 -6.18952 0
M  V30 2244 H 210.183 -3.52918 -7.38506 0
M  V30 2245 N 212.846 1.57033 -0.133567 0
M  V30 2246 C 213.793 2.16074 0.811208 0
M  V30 2247 C 214.763 1.08979 1.2535 0
M  V30 2248 O 215.948 1.36958 1.32843 0
M  V30 2249 C 213.088 2.77595 2.05024 0
M  V30 2250 C 212.201 3.99042 1.65498 0
M  V30 2251 C 211.336 4.48603 2.84479 0
M  V30 2252 C 210.375 5.62547 2.41262 0
M  V30 2253 N 209.512 6.06787 3.53206 0
M  V30 2254 H 214.352 2.96477 0.300906 0
M  V30 2255 H 211.889 1.46462 0.136822 0
M  V30 2256 H 213.847 3.11402 2.77642 0
M  V30 2257 H 212.477 1.99859 2.53488 0
M  V30 2258 H 211.529 3.71302 0.826981 0
M  V30 2259 H 212.841 4.81629 1.29748 0
M  V30 2260 H 211.995 4.84395 3.65303 0
M  V30 2261 H 210.734 3.64995 3.23465 0
M  V30 2262 H 209.739 5.26345 1.58874 0
M  V30 2263 H 210.964 6.47931 2.03377 0
M  V30 2264 H 208.91 5.26117 3.91838 0
M  V30 2265 H 208.827 6.84266 3.21427 0
M  V30 2266 H 210.095 6.4722 4.34427 0
M  V30 2267 N 214.325 -0.140222 1.56975 0
M  V30 2268 C 215.288 -1.15689 1.97861 0
M  V30 2269 C 216.288 -1.3549 0.865974 0
M  V30 2270 O 217.478 -1.32367 1.13246 0
M  V30 2271 C 214.61 -2.51582 2.30042 0
M  V30 2272 H 215.803 -0.805971 2.88867 0
M  V30 2273 H 213.356 -0.383801 1.51515 0
M  V30 2274 H 214.091 -2.91632 1.41849 0
M  V30 2275 H 213.876 -2.38569 3.11171 0
M  V30 2276 H 215.366 -3.24792 2.62488 0
M  V30 2277 N 215.803 -1.52179 -0.40978 0
M  V30 2278 C 217.051 -1.65878 -1.15451 0
M  V30 2279 C 217.372 -0.390771 -1.91044 0
M  V30 2280 O 216.642 0.594323 -1.86667 0
M  V30 2281 H 215.222 -0.611405 -0.429177 0
M  V30 2282 H 217.884 -1.89219 -0.467134 0
M  V30 2283 H 216.98 -2.49954 -1.86894 0
M  V30 2284 N 217.281 0.66697 -1.42791 0
M  V30 2285 C 218.244 1.76211 -1.46568 0
M  V30 2286 C 219.244 1.56896 -0.352196 0
M  V30 2287 O 220.434 1.63044 -0.613364 0
M  V30 2288 C 217.566 3.14935 -1.30494 0
M  V30 2289 H 218.759 1.74247 -2.44086 0
M  V30 2290 H 216.312 0.877342 -1.29354 0
M  V30 2291 H 217.047 3.2252 -0.339301 0
M  V30 2292 H 216.832 3.30359 -2.11199 0
M  V30 2293 H 218.322 3.94821 -1.36038 0
M  V30 2294 N 218.759 1.29093 0.90403 0
M  V30 2295 C 220.175 1.07011 1.1841 0
M  V30 2296 C 220.375 -0.181358 2.00682 0
M  V30 2297 O 219.431 -0.880331 2.36657 0
M  V30 2298 C 220.744 2.32311 1.90924 0
M  V30 2299 C 222.292 2.37587 2.03768 0
M  V30 2300 C 222.767 3.62679 2.79693 0
M  V30 2301 N 224.258 3.63376 2.87249 0
M  V30 2302 C 224.993 4.56848 3.46522 0
M  V30 2303 N 224.489 5.60648 4.06996 0
M  V30 2304 N 226.282 4.44426 3.44154 0
M  V30 2305 H 218.433 2.09412 0.354993 0
M  V30 2306 H 220.696 0.922181 0.219742 0
M  V30 2307 H 220.402 3.23536 1.37905 0
M  V30 2308 H 220.276 2.39483 2.91424 0
M  V30 2309 H 222.663 1.46853 2.55965 0
M  V30 2310 H 222.744 2.34403 1.02415 0
M  V30 2311 H 222.388 4.53762 2.28173 0
M  V30 2312 H 222.318 3.63119 3.81381 0
M  V30 2313 H 224.809 2.88321 2.44293 0
M  V30 2314 H 225.122 6.28101 4.50232 0
M  V30 2315 H 223.467 5.64463 4.05471 0
M  V30 2316 H 226.658 3.62529 2.96126 0
M  V30 2317 H 226.831 5.17457 3.90054 0
M  V30 2318 N 220.237 -1.11381 1.11499 0
M  V30 2319 C 221.484 -1.83132 0.864231 0
M  V30 2320 C 221.812 -1.84683 -0.610114 0
M  V30 2321 O 221.067 -1.29589 -1.46646 0
M  V30 2322 C 221.366 -3.30026 1.37177 0
M  V30 2323 C 221.032 -3.48634 2.85946 0
M  V30 2324 C 219.694 -3.53421 3.26569 0
M  V30 2325 C 222.046 -3.54837 3.81759 0
M  V30 2326 C 219.374 -3.61967 4.61733 0
M  V30 2327 C 221.726 -3.64915 5.1674 0
M  V30 2328 C 220.39 -3.67962 5.5692 0
M  V30 2329 H 219.66 -0.670127 0.316245 0
M  V30 2330 H 222.307 -1.31354 1.3935 0
M  V30 2331 H 220.612 -3.84304 0.762753 0
M  V30 2332 H 222.309 -3.84034 1.15408 0
M  V30 2333 H 218.899 -3.45579 2.53521 0
M  V30 2334 H 223.083 -3.50399 3.51474 0
M  V30 2335 H 218.339 -3.62603 4.92269 0
M  V30 2336 H 222.513 -3.68658 5.90816 0
M  V30 2337 H 220.14 -3.74336 6.61647 0
M  V30 2338 N 221.715 -0.905404 -1.28997 0
M  V30 2339 C 222.678 -0.392253 -2.25819 0
M  V30 2340 C 223.678 0.476753 -1.5357 0
M  V30 2341 O 224.868 0.280994 -1.71919 0
M  V30 2342 C 222 0.438588 -3.38067 0
M  V30 2343 H 223.193 -1.24743 -2.72725 0
M  V30 2344 H 220.746 -0.684051 -1.40536 0
M  V30 2345 H 221.481 1.31352 -2.96508 0
M  V30 2346 H 221.266 -0.184167 -3.91667 0
M  V30 2347 H 222.756 0.78873 -4.10084 0
M  V30 2348 N 223.193 1.4272 -0.668489 0
M  V30 2349 C 224.14 2.30796 0.0137489 0
M  V30 2350 C 225.11 1.4561 0.799177 0
M  V30 2351 O 226.295 1.74453 0.772702 0
M  V30 2352 C 223.435 3.31377 0.963507 0
M  V30 2353 C 222.548 4.31655 0.172569 0
M  V30 2354 C 221.683 5.19312 1.1175 0
M  V30 2355 C 220.722 6.11274 0.317886 0
M  V30 2356 N 219.859 6.91504 1.2152 0
M  V30 2357 H 224.699 2.88585 -0.743161 0
M  V30 2358 H 222.236 1.42154 -0.378226 0
M  V30 2359 H 224.194 3.88214 1.52792 0
M  V30 2360 H 222.824 2.75202 1.68712 0
M  V30 2361 H 221.876 3.76988 -0.508374 0
M  V30 2362 H 223.188 4.96779 -0.448527 0
M  V30 2363 H 222.342 5.80851 1.75206 0
M  V30 2364 H 221.081 4.5435 1.77249 0
M  V30 2365 H 220.086 5.48809 -0.329918 0
M  V30 2366 H 221.311 6.78283 -0.332917 0
M  V30 2367 H 219.257 6.29176 1.85671 0
M  V30 2368 H 219.174 7.53209 0.649036 0
M  V30 2369 H 220.442 7.57535 1.83742 0
M  V30 2370 N 224.671 0.411399 1.52136 0
M  V30 2371 C 225.917 -0.156262 2.02799 0
M  V30 2372 C 226.272 -1.42613 1.29149 0
M  V30 2373 O 225.565 -1.87592 0.389839 0
M  V30 2374 C 225.759 -0.455872 3.54481 0
M  V30 2375 C 225.588 0.783404 4.42824 0
M  V30 2376 C 224.358 1.30928 4.88043 0
M  V30 2377 C 226.556 1.66217 4.86699 0
M  V30 2378 N 224.538 2.5038 5.6052 0
M  V30 2379 C 225.909 2.70292 5.5798 0
M  V30 2380 C 227.964 1.67966 4.68713 0
M  V30 2381 C 226.667 3.7603 6.13184 0
M  V30 2382 C 228.693 2.72624 5.24815 0
M  V30 2383 C 228.055 3.7542 5.9602 0
M  V30 2384 H 224.154 -0.0186886 0.781777 0
M  V30 2385 H 226.738 0.566255 1.86284 0
M  V30 2386 H 224.909 -1.14743 3.71064 0
M  V30 2387 H 226.641 -1.01261 3.91827 0
M  V30 2388 H 223.396 0.866977 4.65597 0
M  V30 2389 H 223.82 3.10881 6.014 0
M  V30 2390 H 228.462 0.898312 4.13147 0
M  V30 2391 H 226.18 4.55019 6.6782 0
M  V30 2392 H 229.766 2.74887 5.12765 0
M  V30 2393 H 228.646 4.55073 6.38654 0
M  V30 2394 N 226.149 -1.5696 0.141893 0
M  V30 2395 C 227.565 -1.58151 -0.21456 0
M  V30 2396 C 227.765 -1.1559 -1.65049 0
M  V30 2397 O 226.821 -0.853832 -2.37626 0
M  V30 2398 C 228.134 -3.00674 0.0395576 0
M  V30 2399 C 229.682 -3.1299 -0.0245529 0
M  V30 2400 C 230.157 -4.57554 0.202167 0
M  V30 2401 N 231.648 -4.62961 0.148919 0
M  V30 2402 C 232.383 -5.7262 0.298924 0
M  V30 2403 N 231.879 -6.90947 0.50637 0
M  V30 2404 N 233.672 -5.61601 0.236886 0
M  V30 2405 H 225.823 -1.8292 1.07953 0
M  V30 2406 H 228.086 -0.846425 0.42693 0
M  V30 2407 H 227.792 -3.36183 1.03315 0
M  V30 2408 H 227.666 -3.70981 -0.682143 0
M  V30 2409 H 230.053 -2.77326 -1.00869 0
M  V30 2410 H 230.134 -2.4518 0.729396 0
M  V30 2411 H 229.778 -4.93922 1.18338 0
M  V30 2412 H 229.708 -5.23484 -0.572044 0
M  V30 2413 H 232.199 -3.77899 -0.00697015 0
M  V30 2414 H 232.512 -7.7038 0.611076 0
M  V30 2415 H 230.857 -6.92878 0.542628 0
M  V30 2416 H 234.048 -4.68039 0.0756209 0
M  V30 2417 H 234.221 -6.47015 0.357227 0
M  V30 2418 N 227.627 0.131896 -1.57047 0
M  V30 2419 C 228.855 0.856461 -1.88341 0
M  V30 2420 C 229.27 1.74042 -0.731757 0
M  V30 2421 O 228.627 1.80051 0.297945 0
M  V30 2422 C 228.678 1.70064 -3.18999 0
M  V30 2423 O 228.399 0.852278 -4.2973 0
M  V30 2424 C 229.9 2.53148 -3.63911 0
M  V30 2425 H 227.12 0.246885 -0.62393 0
M  V30 2426 H 229.664 0.120152 -2.04147 0
M  V30 2427 H 227.819 2.38984 -3.04902 0
M  V30 2428 H 228.233 1.43329 -5.04537 0
M  V30 2429 H 229.707 3.07931 -4.58129 0
M  V30 2430 H 230.184 3.29901 -2.89935 0
M  V30 2431 H 230.79 1.89492 -3.80753 0
M  V30 2432 N 229.106 1.52395 0.401703 0
M  V30 2433 C 230.352 1.67065 1.14966 0
M  V30 2434 C 230.685 0.403052 1.89971 0
M  V30 2435 O 229.96 -0.598774 1.85054 0
M  V30 2436 C 230.243 2.8975 2.13815 0
M  V30 2437 C 230.096 4.26578 1.42658 0
M  V30 2438 C 231.415 3.07965 3.14397 0
M  V30 2439 H 228.534 0.607968 0.416587 0
M  V30 2440 H 231.176 1.84965 0.434511 0
M  V30 2441 H 229.326 2.74619 2.74803 0
M  V30 2442 H 230.998 4.53451 0.847329 0
M  V30 2443 H 229.241 4.27639 0.72849 0
M  V30 2444 H 229.912 5.08483 2.14823 0
M  V30 2445 H 232.388 3.22043 2.63491 0
M  V30 2446 H 231.264 3.95308 3.80819 0
M  V30 2447 H 231.525 2.21611 3.82545 0
M  V30 2448 N 230.584 -0.659388 1.43143 0
M  V30 2449 C 231.514 -1.78422 1.50625 0
M  V30 2450 C 232.495 -1.66216 0.361443 0
M  V30 2451 O 233.68 -1.85404 0.577834 0
M  V30 2452 C 230.81 -3.16815 1.42287 0
M  V30 2453 C 229.764 -3.43777 2.54954 0
M  V30 2454 C 229.09 -4.81905 2.31671 0
M  V30 2455 C 230.39 -3.39134 3.97222 0
M  V30 2456 H 232.084 -1.72417 2.44771 0
M  V30 2457 H 229.63 -0.828084 1.17808 0
M  V30 2458 H 231.583 -3.95253 1.46127 0
M  V30 2459 H 230.307 -3.23534 0.446435 0
M  V30 2460 H 228.966 -2.67707 2.50457 0
M  V30 2461 H 228.614 -4.85294 1.32284 0
M  V30 2462 H 228.314 -5.00906 3.07192 0
M  V30 2463 H 229.838 -5.62609 2.37284 0
M  V30 2464 H 231.252 -4.07518 4.03239 0
M  V30 2465 H 229.649 -3.69671 4.72719 0
M  V30 2466 H 230.719 -2.37426 4.22797 0
M  V30 2467 N 232.062 -1.29571 -0.897171 0
M  V30 2468 C 233.308 -1.17863 -1.65034 0
M  V30 2469 C 233.641 0.268729 -1.92332 0
M  V30 2470 O 232.916 1.19378 -1.53555 0
M  V30 2471 C 233.199 -1.995 -2.99786 0
M  V30 2472 C 233.052 -3.5239 -2.79538 0
M  V30 2473 C 234.371 -1.82335 -4.00552 0
M  V30 2474 H 231.49 -0.429528 -0.598895 0
M  V30 2475 H 234.132 -1.59072 -1.03905 0
M  V30 2476 H 232.282 -1.64485 -3.51962 0
M  V30 2477 H 233.954 -3.97401 -2.34244 0
M  V30 2478 H 232.197 -3.77187 -2.14273 0
M  V30 2479 H 232.868 -4.04787 -3.75302 0
M  V30 2480 H 235.344 -2.12924 -3.57495 0
M  V30 2481 H 234.22 -2.41801 -4.92771 0
M  V30 2482 H 234.481 -0.779209 -4.35179 0
M  V30 2483 N 233.54 1.10788 -1.12088 0
M  V30 2484 C 234.789 1.82036 -0.868659 0
M  V30 2485 C 235.102 1.85929 0.607426 0
M  V30 2486 O 236.308 2.53346 0.97613 0
M  V30 2487 C 234.764 3.26951 -1.50435 0
M  V30 2488 C 234.372 3.31367 -3.01496 0
M  V30 2489 C 236.116 4.03053 -1.33225 0
M  V30 2490 C 234.023 4.7072 -3.58017 0
M  V30 2491 H 232.953 0.682108 -0.321318 0
M  V30 2492 H 235.604 1.24618 -1.34694 0
M  V30 2493 H 233.986 3.84343 -0.953735 0
M  V30 2494 H 235.16 2.83819 -3.6302 0
M  V30 2495 H 233.475 2.6875 -3.18061 0
M  V30 2496 H 236.072 5.05981 -1.72878 0
M  V30 2497 H 236.415 4.15387 -0.275529 0
M  V30 2498 H 236.948 3.52066 -1.85188 0
M  V30 2499 H 233.687 4.63585 -4.63432 0
M  V30 2500 H 233.207 5.1865 -3.01268 0
M  V30 2501 H 234.886 5.39685 -3.56859 0
M  V30 2502 N 235.018 0.912232 1.28515 0
M  V30 2503 C 236.295 0.463597 1.90027 0
M  V30 2504 C 236.675 -1.05753 1.82701 0
M  V30 2505 O 236.023 -1.90492 1.26194 0
M  V30 2506 C 236.233 0.992253 3.34597 0
M  V30 2507 C 237.581 1.04344 4.11579 0
M  V30 2508 O 238.605 0.94079 3.43551 0
M  V30 2509 O 237.464 1.1995 5.33174 0
M  V30 2510 H 234.558 0.146666 0.813891 0
M  V30 2511 H 237.104 1.00292 1.36893 0
M  V30 2512 H 235.876 2.03623 3.34146 0
M  V30 2513 H 235.499 0.433672 3.95228 0
M  V30 2514 N 236.496 -1.42363 0.676048 0
M  V30 2515 C 237.724 -2.05859 0.207268 0
M  V30 2516 C 238.139 -1.50796 -1.13605 0
M  V30 2517 O 237.496 -0.648265 -1.70598 0
M  V30 2518 C 237.547 -3.61248 0.134975 0
M  V30 2519 O 237.268 -4.1427 1.42521 0
M  V30 2520 C 238.769 -4.41859 -0.357151 0
M  V30 2521 H 235.989 -0.663431 0.100503 0
M  V30 2522 H 238.533 -1.82479 0.923136 0
M  V30 2523 H 236.688 -3.83735 -0.531588 0
M  V30 2524 H 237.102 -5.0815 1.29939 0
M  V30 2525 H 238.576 -5.50847 -0.356641 0
M  V30 2526 H 239.053 -4.16536 -1.39264 0
M  V30 2527 H 239.659 -4.24392 0.27772 0
M  V30 2528 N 237.974 -0.419461 -1.51915 0
M  V30 2529 C 238.937 0.389116 -2.25873 0
M  V30 2530 C 239.937 0.964924 -1.28631 0
M  V30 2531 O 241.127 0.842179 -1.52489 0
M  V30 2532 C 238.259 1.54874 -3.03689 0
M  V30 2533 H 239.452 -0.258799 -2.98781 0
M  V30 2534 H 237.005 -0.172209 -1.55348 0
M  V30 2535 H 237.74 2.23323 -2.35154 0
M  V30 2536 H 237.525 1.14223 -3.75094 0
M  V30 2537 H 239.015 2.12046 -3.59759 0
M  V30 2538 N 239.452 1.56882 -0.150215 0
M  V30 2539 C 240.399 2.16922 0.788244 0
M  V30 2540 C 241.369 1.10303 1.24187 0
M  V30 2541 O 242.554 1.38359 1.31383 0
M  V30 2542 C 239.694 2.79754 2.02068 0
M  V30 2543 C 238.807 4.00775 1.61257 0
M  V30 2544 C 237.942 4.51595 2.79705 0
M  V30 2545 C 236.981 5.65074 2.35282 0
M  V30 2546 N 236.118 6.10499 3.4675 0
M  V30 2547 H 240.958 2.96779 0.269444 0
M  V30 2548 H 238.495 1.46599 0.12128 0
M  V30 2549 H 240.453 3.14329 2.74323 0
M  V30 2550 H 239.083 2.02536 2.51354 0
M  V30 2551 H 238.135 3.72158 0.787553 0
M  V30 2552 H 239.447 4.82978 1.24633 0
M  V30 2553 H 238.601 4.88242 3.60145 0
M  V30 2554 H 237.34 3.68406 3.19576 0
M  V30 2555 H 236.345 5.28 1.53283 0
M  V30 2556 H 237.57 6.50052 1.96493 0
M  V30 2557 H 235.516 5.30243 3.86236 0
M  V30 2558 H 235.433 6.87637 3.14152 0
M  V30 2559 H 236.701 6.51791 4.27537 0
M  V30 2560 N 240.93 -0.123565 1.57115 0
M  V30 2561 C 242.178 -0.83051 1.84247 0
M  V30 2562 C 242.499 -1.80629 0.73471 0
M  V30 2563 O 241.769 -1.94403 -0.241688 0
M  V30 2564 H 240.349 -0.309694 0.679778 0
M  V30 2565 H 243.011 -0.111976 1.94578 0
M  V30 2566 H 242.107 -1.37852 2.80006 0
M  V30 2567 N 242.408 -1.52605 -0.393616 0
M  V30 2568 C 243.355 -1.77055 -1.48054 0
M  V30 2569 C 244.325 -0.61358 -1.54352 0
M  V30 2570 O 245.51 -0.852806 -1.70681 0
M  V30 2571 C 242.65 -1.94108 -2.85335 0
M  V30 2572 C 241.763 -3.21792 -2.88226 0
M  V30 2573 C 240.898 -3.29188 -4.16904 0
M  V30 2574 C 239.937 -4.51013 -4.13828 0
M  V30 2575 N 239.074 -4.55716 -5.34105 0
M  V30 2576 H 243.914 -2.69815 -1.26506 0
M  V30 2577 H 241.451 -1.33683 -0.61379 0
M  V30 2578 H 243.409 -2.01979 -3.65049 0
M  V30 2579 H 242.039 -1.04713 -3.05344 0
M  V30 2580 H 241.091 -3.23015 -2.00911 0
M  V30 2581 H 242.403 -4.11557 -2.8182 0
M  V30 2582 H 241.557 -3.36216 -5.05018 0
M  V30 2583 H 240.296 -2.37389 -4.26026 0
M  V30 2584 H 239.301 -4.44115 -3.24102 0
M  V30 2585 H 240.526 -5.44123 -4.06333 0
M  V30 2586 H 238.472 -3.66807 -5.43865 0
M  V30 2587 H 238.389 -5.39346 -5.29756 0
M  V30 2588 H 239.657 -4.66993 -6.2413 0
M  V30 2589 N 243.887 0.651787 -1.4349 0
M  V30 2590 C 245.298 1.233 -1.40193 0
M  V30 2591 C 245.649 1.9591 -0.106727 0
M  V30 2592 O 244.774 2.01316 0.793773 0
M  V30 2593 C 245.369 2.24257 -2.53957 0
M  V30 2594 C 243.928 2.77852 -2.5392 0
M  V30 2595 C 243.075 1.52517 -2.3159 0
M  V30 2596 H 246.026 0.443717 -1.52371 0
M  V30 2597 H 246.047 3.0646 -2.25528 0
M  V30 2598 H 245.559 1.71382 -3.4821 0
M  V30 2599 H 243.66 3.34786 -1.63551 0
M  V30 2600 H 243.773 3.25299 -3.51735 0
M  V30 2601 H 242.137 1.79915 -1.80285 0
M  V30 2602 H 242.92 1.01574 -3.27929 0
M  V30 2603 N 245.365 1.30045 0.890287 0
M  V30 2604 C 246.593 1.21472 1.67487 0
M  V30 2605 C 247.008 -0.223241 1.87476 0
M  V30 2606 O 246.365 -1.14828 1.41847 0
M  V30 2607 C 246.416 1.93394 3.05419 0
M  V30 2608 O 246.137 3.31576 2.86337 0
M  V30 2609 C 247.638 1.91414 3.99844 0
M  V30 2610 H 244.858 0.420604 0.522813 0
M  V30 2611 H 247.402 1.7158 1.11268 0
M  V30 2612 H 245.557 1.47099 3.58386 0
M  V30 2613 H 245.971 3.67929 3.73802 0
M  V30 2614 H 247.445 2.46285 4.94012 0
M  V30 2615 H 247.922 0.891833 4.3005 0
M  V30 2616 H 248.528 2.37496 3.52811 0
M  V30 2617 N 246.843 -1.10192 1.12674 0
M  V30 2618 C 248.12 -1.78717 0.794965 0
M  V30 2619 C 248.5 -1.98628 -0.714853 0
M  V30 2620 O 247.848 -1.58135 -1.64941 0
M  V30 2621 C 248.058 -3.11546 1.5729 0
M  V30 2622 C 249.406 -3.86382 1.76052 0
M  V30 2623 O 250.43 -3.21274 1.53823 0
M  V30 2624 O 249.289 -5.03246 2.13087 0
M  V30 2625 H 246.383 -0.774702 0.289423 0
M  V30 2626 H 248.929 -1.16819 1.23091 0
M  V30 2627 H 247.701 -2.92489 2.59935 0
M  V30 2628 H 247.324 -3.81164 1.13137 0
M  V30 2629 N 248.321 -0.919034 -1.28029 0
M  V30 2630 C 249.251 -0.428581 -2.29533 0
M  V30 2631 C 250.232 0.50659 -1.62381 0
M  V30 2632 O 251.417 0.413195 -1.89753 0
M  V30 2633 C 248.547 0.327388 -3.45753 0
M  V30 2634 C 247.501 -0.519137 -4.2484 0
M  V30 2635 C 246.827 0.365486 -5.33449 0
M  V30 2636 C 248.127 -1.77914 -4.91064 0
M  V30 2637 H 249.821 -1.27687 -2.70807 0
M  V30 2638 H 247.367 -0.615428 -1.30186 0
M  V30 2639 H 249.32 0.681378 -4.15855 0
M  V30 2640 H 248.044 1.20963 -3.03374 0
M  V30 2641 H 246.703 -0.855717 -3.56473 0
M  V30 2642 H 246.351 1.24642 -4.87312 0
M  V30 2643 H 246.051 -0.197356 -5.87268 0
M  V30 2644 H 247.575 0.715241 -6.06396 0
M  V30 2645 H 248.989 -1.49374 -5.53498 0
M  V30 2646 H 247.386 -2.2848 -5.54903 0
M  V30 2647 H 248.456 -2.50382 -4.15255 0
M  V30 2648 N 249.799 1.42003 -0.683588 0
M  V30 2649 C 251.024 2.06265 -0.216647 0
M  V30 2650 C 251.449 1.51059 1.12083 0
M  V30 2651 O 250.807 0.632638 1.69904 0
M  V30 2652 C 250.855 3.60191 -0.171759 0
M  V30 2653 O 249.959 4.03396 0.857069 0
M  V30 2654 H 249.3 0.65502 -0.108834 0
M  V30 2655 H 251.83 1.81982 -0.935077 0
M  V30 2656 H 251.84 4.08 0.0014303 0
M  V30 2657 H 250.515 3.99743 -1.14796 0
M  V30 2658 H 249.092 3.67117 0.654208 0
M  V30 2659 N 251.277 0.427512 1.51691 0
M  V30 2660 C 252.526 -0.143679 2.01188 0
M  V30 2661 C 252.839 -1.44642 1.31674 0
M  V30 2662 O 254.045 -2.09997 1.72086 0
M  V30 2663 C 252.501 -0.306602 3.58592 0
M  V30 2664 C 252.109 0.985125 4.37035 0
M  V30 2665 C 253.853 -0.832091 4.16265 0
M  V30 2666 C 251.76 0.788382 5.86122 0
M  V30 2667 H 250.69 -0.0574701 0.751807 0
M  V30 2668 H 253.341 0.555772 1.74881 0
M  V30 2669 H 251.723 -1.06882 3.81303 0
M  V30 2670 H 252.897 1.75492 4.26074 0
M  V30 2671 H 251.212 1.4384 3.90767 0
M  V30 2672 H 253.809 -0.995617 5.25349 0
M  V30 2673 H 254.152 -1.81186 3.74803 0
M  V30 2674 H 254.685 -0.128444 3.97593 0
M  V30 2675 H 251.424 1.74025 6.31978 0
M  V30 2676 H 250.944 0.0582143 5.99772 0
M  V30 2677 H 252.623 0.437722 6.45518 0
M  V30 2678 N 252.755 -1.56801 0.158532 0
M  V30 2679 C 253.705 -2.13923 -0.788738 0
M  V30 2680 C 254.689 -1.07006 -1.2016 0
M  V30 2681 O 255.881 -1.33159 -1.1661 0
M  V30 2682 C 253.01 -2.77348 -2.02319 0
M  V30 2683 C 252.096 -3.91404 -1.6329 0
M  V30 2684 N 252.487 -4.9677 -0.951463 0
M  V30 2685 C 250.785 -4.02326 -1.92482 0
M  V30 2686 C 251.486 -5.76698 -0.761221 0
M  V30 2687 N 250.462 -5.27859 -1.29869 0
M  V30 2688 H 254.264 -2.92757 -0.258995 0
M  V30 2689 H 251.778 -1.62344 -0.0426055 0
M  V30 2690 H 253.775 -3.16639 -2.71192 0
M  V30 2691 H 252.435 -1.99991 -2.558 0
M  V30 2692 H 253.446 -5.14284 -0.610928 0
M  V30 2693 H 250.123 -3.36059 -2.47732 0
M  V30 2694 H 251.513 -6.71529 -0.223284 0
M  V30 2695 N 254.233 0.115231 -1.57178 0
M  V30 2696 C 255.143 1.15994 -2.03918 0
M  V30 2697 C 256.159 1.45103 -0.960268 0
M  V30 2698 O 257.335 1.56144 -1.27204 0
M  V30 2699 C 254.4 2.46568 -2.43732 0
M  V30 2700 C 253.461 2.24822 -3.65723 0
M  V30 2701 C 252.694 3.4917 -4.03629 0
M  V30 2702 O 252.917 4.56623 -3.41835 0
M  V30 2703 O 251.851 3.39949 -4.96708 0
M  V30 2704 H 255.677 0.793019 -2.93164 0
M  V30 2705 H 253.262 0.3263 -1.45793 0
M  V30 2706 H 255.144 3.23492 -2.70057 0
M  V30 2707 H 253.819 2.82726 -1.57631 0
M  V30 2708 H 252.726 1.45744 -3.44542 0
M  V30 2709 H 254.059 1.93566 -4.52541 0
M  V30 2710 N 255.711 1.52812 0.385517 0
M  V30 2711 C 256.939 1.71907 1.15133 0
M  V30 2712 C 257.354 0.439004 1.83625 0
M  V30 2713 O 256.711 -0.586765 1.7281 0
M  V30 2714 C 256.762 2.87099 2.19673 0
M  V30 2715 O 256.483 4.10151 1.53973 0
M  V30 2716 C 257.984 3.17902 3.08955 0
M  V30 2717 H 255.204 0.575479 0.345057 0
M  V30 2718 H 257.748 1.99476 0.45052 0
M  V30 2719 H 255.903 2.61982 2.85384 0
M  V30 2720 H 256.317 4.74514 2.23465 0
M  V30 2721 H 257.791 4.01959 3.7833 0
M  V30 2722 H 258.268 2.3243 3.72657 0
M  V30 2723 H 258.874 3.44871 2.48885 0
M  V30 2724 N 257.189 -0.644168 1.43834 0
M  V30 2725 C 258.152 -1.73857 1.49353 0
M  V30 2726 C 259.152 -1.56315 0.377112 0
M  V30 2727 O 260.342 -1.62048 0.639226 0
M  V30 2728 C 257.474 -3.12819 1.35488 0
M  V30 2729 H 258.667 -1.70342 2.46827 0
M  V30 2730 H 256.22 -0.856652 1.30733 0
M  V30 2731 H 256.955 -3.2194 0.390569 0
M  V30 2732 H 256.74 -3.26958 2.16428 0
M  V30 2733 H 258.23 -3.92606 1.42302 0
M  V30 2734 N 258.668 -1.30515 -0.883378 0
M  V30 2735 C 259.914 -1.20617 -1.63778 0
M  V30 2736 C 260.269 0.236469 -1.90941 0
M  V30 2737 O 259.562 1.16596 -1.52039 0
M  V30 2738 C 259.756 -1.96994 -2.98209 0
M  V30 2739 C 259.585 -3.48537 -2.84169 0
M  V30 2740 C 258.355 -4.17893 -2.84067 0
M  V30 2741 C 260.553 -4.43738 -2.60001 0
M  V30 2742 N 258.535 -5.55685 -2.60936 0
M  V30 2743 C 259.906 -5.69105 -2.46007 0
M  V30 2744 C 261.961 -4.33316 -2.45239 0
M  V30 2745 C 260.664 -6.8523 -2.18752 0
M  V30 2746 C 262.69 -5.4921 -2.19369 0
M  V30 2747 C 262.052 -6.73558 -2.06153 0
M  V30 2748 H 258.151 -0.496434 -0.604216 0
M  V30 2749 H 260.735 -1.64544 -1.04083 0
M  V30 2750 H 258.906 -1.55455 -3.55933 0
M  V30 2751 H 260.638 -1.79225 -3.62851 0
M  V30 2752 H 257.393 -3.69739 -2.95956 0
M  V30 2753 H 257.817 -6.28199 -2.52378 0
M  V30 2754 H 262.459 -3.37856 -2.54191 0
M  V30 2755 H 260.177 -7.80729 -2.08537 0
M  V30 2756 H 263.763 -5.43054 -2.08766 0
M  V30 2757 H 262.643 -7.61721 -1.86416 0
M  V30 2758 N 260.146 1.09593 -1.13257 0
M  V30 2759 C 261.394 1.81375 -0.891492 0
M  V30 2760 C 261.715 1.86049 0.584009 0
M  V30 2761 O 260.985 1.34481 1.42449 0
M  V30 2762 H 259.565 0.671708 -0.326828 0
M  V30 2763 H 262.227 1.3256 -1.42877 0
M  V30 2764 H 261.323 2.84612 -1.28071 0
M  V30 2765 N 261.624 0.925811 1.2754 0
M  V30 2766 C 262.554 0.440748 2.29303 0
M  V30 2767 C 263.535 -0.497971 1.62648 0
M  V30 2768 O 264.72 -0.403126 1.8997 0
M  V30 2769 C 261.85 -0.309048 3.45922 0
M  V30 2770 C 260.804 0.54166 4.24559 0
M  V30 2771 C 260.13 -0.337191 5.33636 0
M  V30 2772 C 261.43 1.80516 4.90114 0
M  V30 2773 H 263.124 1.29121 2.70126 0
M  V30 2774 H 260.67 0.622323 1.29858 0
M  V30 2775 H 262.623 -0.659315 4.1621 0
M  V30 2776 H 261.347 -1.19352 3.04011 0
M  V30 2777 H 260.006 0.874609 3.56014 0
M  V30 2778 H 259.654 -1.22056 4.87966 0
M  V30 2779 H 259.354 0.228497 5.87156 0
M  V30 2780 H 260.878 -0.683072 6.06767 0
M  V30 2781 H 262.292 1.52307 5.52698 0
M  V30 2782 H 260.689 2.3142 5.53683 0
M  V30 2783 H 261.759 2.52581 4.13921 0
M  V30 2784 N 263.102 -1.41638 0.69111 0
M  V30 2785 C 264.065 -2.29178 0.0319786 0
M  V30 2786 C 265.065 -1.44153 -0.712496 0
M  V30 2787 O 266.255 -1.65354 -0.548053 0
M  V30 2788 C 263.387 -3.26952 -0.965161 0
M  V30 2789 H 264.58 -2.88959 0.802681 0
M  V30 2790 H 262.133 -1.4955 0.454356 0
M  V30 2791 H 262.868 -2.72142 -1.76378 0
M  V30 2792 H 262.653 -3.89685 -0.434522 0
M  V30 2793 H 264.143 -3.92561 -1.42428 0
M  V30 2794 N 264.58 -0.43555 -1.51462 0
M  V30 2795 C 265.996 -0.0877501 -1.59359 0
M  V30 2796 C 266.196 1.4027 -1.4466 0
M  V30 2797 O 265.252 2.17243 -1.28693 0
M  V30 2798 C 266.565 -0.606264 -2.94525 0
M  V30 2799 C 268.113 -0.566548 -3.0783 0
M  V30 2800 C 268.588 -1.06201 -4.45517 0
M  V30 2801 N 270.079 -1.01992 -4.51832 0
M  V30 2802 C 270.814 -1.37417 -5.5669 0
M  V30 2803 N 270.31 -1.80119 -6.68976 0
M  V30 2804 N 272.103 -1.29245 -5.47039 0
M  V30 2805 H 264.254 -1.40533 -1.59261 0
M  V30 2806 H 266.517 -0.578992 -0.750648 0
M  V30 2807 H 266.223 -1.64901 -3.10645 0
M  V30 2808 H 266.097 -0.0302097 -3.77188 0
M  V30 2809 H 268.484 0.467208 -2.91378 0
M  V30 2810 H 268.565 -1.17898 -2.2701 0
M  V30 2811 H 268.209 -2.09422 -4.62715 0
M  V30 2812 H 268.139 -0.426127 -5.24873 0
M  V30 2813 H 270.63 -0.706308 -3.71241 0
M  V30 2814 H 270.943 -2.05392 -7.45006 0
M  V30 2815 H 269.288 -1.84044 -6.70189 0
M  V30 2816 H 272.479 -0.957522 -4.58202 0
M  V30 2817 H 272.652 -1.57182 -6.28648 0
M  V30 2818 N 266.058 1.56714 -0.166846 0
M  V30 2819 C 267.288 2.00828 0.48494 0
M  V30 2820 C 267.696 1.04612 1.57648 0
M  V30 2821 O 267.039 0.0383201 1.8366 0
M  V30 2822 C 267.101 3.4137 1.12723 0
M  V30 2823 C 266.765 4.56654 0.177886 0
M  V30 2824 C 267.762 5.16402 -0.60207 0
M  V30 2825 C 265.447 5.02244 0.0750139 0
M  V30 2826 C 267.441 6.20167 -1.47215 0
M  V30 2827 C 265.128 6.05859 -0.798649 0
M  V30 2828 C 266.126 6.64691 -1.57082 0
M  V30 2829 O 265.814 7.66297 -2.42989 0
M  V30 2830 H 265.546 0.663587 0.128953 0
M  V30 2831 H 268.1 2.03692 -0.264365 0
M  V30 2832 H 266.33 3.35406 1.92457 0
M  V30 2833 H 268.019 3.69466 1.68076 0
M  V30 2834 H 268.785 4.82065 -0.53274 0
M  V30 2835 H 264.664 4.56167 0.665812 0
M  V30 2836 H 268.208 6.66016 -2.07531 0
M  V30 2837 H 264.105 6.39621 -0.869199 0
M  V30 2838 H 264.873 7.83601 -2.36455 0
M  V30 2839 N 267.536 -0.106894 1.57237 0
M  V30 2840 C 268.499 -1.11466 2.0027 0
M  V30 2841 C 269.499 -1.33623 0.894519 0
M  V30 2842 O 270.689 -1.29935 1.16028 0
M  V30 2843 C 267.821 -2.46646 2.35327 0
M  V30 2844 H 269.014 -0.744516 2.90512 0
M  V30 2845 H 266.567 -0.351576 1.52295 0
M  V30 2846 H 267.302 -2.88558 1.48003 0
M  V30 2847 H 267.087 -2.31915 3.16161 0
M  V30 2848 H 268.577 -3.19151 2.69318 0
M  V30 2849 N 269.014 -1.53014 -0.377408 0
M  V30 2850 C 270.239 -1.72818 -1.14668 0
M  V30 2851 C 270.664 -0.450725 -1.8262 0
M  V30 2852 O 270.022 0.59439 -1.7128 0
M  V30 2853 C 270.07 -2.88627 -2.16164 0
M  V30 2854 O 269.174 -2.56409 -3.22998 0
M  V30 2855 H 268.515 -0.574301 -0.333278 0
M  V30 2856 H 271.045 -1.99853 -0.438152 0
M  V30 2857 H 271.055 -3.14455 -2.59966 0
M  V30 2858 H 269.73 -3.81294 -1.66095 0
M  V30 2859 H 268.307 -2.4136 -2.84253 0
M  V30 2860 N 270.492 0.636531 -1.44174 0
M  V30 2861 C 271.741 1.39213 -1.45954 0
M  V30 2862 C 272.054 1.95374 -0.0939119 0
M  V30 2863 O 273.26 2.71498 0.0107767 0
M  V30 2864 C 271.716 2.52025 -2.56927 0
M  V30 2865 C 271.324 2.024 -3.99673 0
M  V30 2866 C 273.068 3.29269 -2.67922 0
M  V30 2867 C 270.975 3.12521 -5.0208 0
M  V30 2868 H 269.905 0.523132 -0.542999 0
M  V30 2869 H 272.556 0.685349 -1.70221 0
M  V30 2870 H 270.938 3.25253 -2.25891 0
M  V30 2871 H 272.112 1.36073 -4.40251 0
M  V30 2872 H 270.427 1.37987 -3.92872 0
M  V30 2873 H 273.024 4.11352 -3.41605 0
M  V30 2874 H 273.367 3.78397 -1.73555 0
M  V30 2875 H 273.9 2.63129 -2.98342 0
M  V30 2876 H 270.639 2.68343 -5.98057 0
M  V30 2877 H 270.159 3.77507 -4.66099 0
M  V30 2878 H 271.838 3.77385 -5.25538 0
M  V30 2879 N 271.97 1.30982 0.876444 0
M  V30 2880 C 273.21 1.21589 1.64303 0
M  V30 2881 C 273.574 -0.223962 1.90689 0
M  V30 2882 O 274.775 -0.44128 2.65153 0
M  V30 2883 C 273.046 2.03007 2.94148 0
M  V30 2884 S 274.605 2.10405 3.85065 0
M  V30 2885 H 271.423 0.433161 0.563819 0
M  V30 2886 H 274.025 1.65565 1.03964 0
M  V30 2887 H 272.729 3.06719 2.72675 0
M  V30 2888 H 272.26 1.59725 3.59515 0
M  V30 2889 H 274.275 1.23765 4.80517 0
M  V30 2890 N 273.449 -1.08991 1.13837 0
M  V30 2891 C 274.381 -2.15606 0.777612 0
M  V30 2892 C 275.394 -1.61533 -0.202739 0
M  V30 2893 O 276.583 -1.78491 0.0181055 0
M  V30 2894 C 273.683 -3.3864 0.132623 0
M  V30 2895 C 272.856 -4.22115 1.1462 0
M  V30 2896 C 271.915 -5.23564 0.526074 0
M  V30 2897 O 270.941 -5.56678 1.18735 0
M  V30 2898 N 272.143 -5.76266 -0.699866 0
M  V30 2899 H 274.908 -2.47159 1.69506 0
M  V30 2900 H 272.469 -1.24747 1.03198 0
M  V30 2901 H 274.461 -4.03626 -0.29459 0
M  V30 2902 H 273.031 -3.04938 -0.687849 0
M  V30 2903 H 272.251 -3.53199 1.75055 0
M  V30 2904 H 273.539 -4.74709 1.83109 0
M  V30 2905 H 272.937 -5.51585 -1.25581 0
M  V30 2906 H 271.494 -6.42963 -1.06968 0
M  V30 2907 N 274.927 -0.932562 -1.27047 0
M  V30 2908 C 275.859 -0.392734 -2.2581 0
M  V30 2909 C 276.872 0.479241 -1.55586 0
M  V30 2910 O 278.061 0.291078 -1.76111 0
M  V30 2911 C 275.161 0.455456 -3.35826 0
M  V30 2912 C 274.334 -0.398355 -4.35582 0
M  V30 2913 C 273.393 0.387985 -5.24768 0
M  V30 2914 O 272.419 -0.206003 -5.68827 0
M  V30 2915 N 273.621 1.68664 -5.55457 0
M  V30 2916 H 276.386 -1.24173 -2.72766 0
M  V30 2917 H 273.947 -0.800511 -1.40725 0
M  V30 2918 H 275.939 0.988692 -3.92437 0
M  V30 2919 H 274.509 1.20522 -2.88432 0
M  V30 2920 H 273.729 -1.11286 -3.78165 0
M  V30 2921 H 275.017 -0.981889 -4.99236 0
M  V30 2922 H 274.415 2.19147 -5.21528 0
M  V30 2923 H 272.972 2.1663 -6.14748 0
M  V30 2924 N 276.405 1.4127 -0.698611 0
M  V30 2925 C 277.353 2.32588 -0.023855 0
M  V30 2926 C 278.347 1.51128 0.765292 0
M  V30 2927 O 279.553 1.67043 0.670571 0
M  V30 2928 H 275.928 0.751918 0.0110871 0
M  V30 2929 H 277.899 2.87167 -0.811031 0
M  V30 2930 C 276.648 3.35947 0.896369 0
M  V30 2931 H 275.971 3.98684 0.298548 0
M  V30 2932 H 277.411 4.02376 1.33676 0
M  V30 2933 C 275.87 2.70076 2.01396 0
M  V30 2934 O 276.4 2.55093 3.10307 0
M  V30 2935 N 274.606 2.28724 1.79259 0
M  V30 2936 H 274.153 2.4111 0.906841 0
M  V30 2937 H 274.111 1.84986 2.54219 0
M  V30 2938 N 277.883 0.443576 1.51229 0
M  V30 2939 C 279.299 0.0962001 1.5931 0
M  V30 2940 C 279.499 -1.39501 1.45402 0
M  V30 2941 O 278.555 -2.16557 1.29843 0
M  V30 2942 C 279.868 0.621875 2.94199 0
M  V30 2943 C 281.416 0.582865 3.07525 0
M  V30 2944 C 281.891 1.08562 4.44948 0
M  V30 2945 N 283.382 1.04387 4.51284 0
M  V30 2946 C 284.117 1.40368 5.55954 0
M  V30 2947 N 283.613 1.83664 6.68011 0
M  V30 2948 N 285.406 1.32145 5.46346 0
M  V30 2949 H 277.557 1.41376 1.58514 0
M  V30 2950 H 279.82 0.582965 0.747567 0
M  V30 2951 H 279.526 1.66546 3.09767 0
M  V30 2952 H 279.4 0.0502125 3.77167 0
M  V30 2953 H 281.787 -0.451749 2.91622 0
M  V30 2954 H 281.868 1.191 2.26382 0
M  V30 2955 H 281.512 2.11873 4.61598 0
M  V30 2956 H 281.442 0.453956 5.2464 0
M  V30 2957 H 283.933 0.725986 3.70861 0
M  V30 2958 H 284.246 2.0934 7.43906 0
M  V30 2959 H 282.591 1.87596 6.69203 0
M  V30 2960 H 285.782 0.981808 4.57688 0
M  V30 2961 H 285.955 1.60514 6.27805 0
M  V30 2962 N 279.361 -1.56624 0.175154 0
M  V30 2963 C 280.291 -2.21155 -0.749195 0
M  V30 2964 C 281.272 -1.16836 -1.23626 0
M  V30 2965 O 282.457 -1.45277 -1.28873 0
M  V30 2966 C 279.587 -2.8553 -1.97711 0
M  V30 2967 C 278.541 -3.95921 -1.62575 0
M  V30 2968 C 277.867 -4.47365 -2.92864 0
M  V30 2969 C 279.167 -5.15323 -0.850838 0
M  V30 2970 H 280.861 -2.98653 -0.211295 0
M  V30 2971 H 278.407 -1.43651 -0.100188 0
M  V30 2972 H 280.36 -3.2935 -2.62881 0
M  V30 2973 H 279.084 -2.05406 -2.53921 0
M  V30 2974 H 277.743 -3.52762 -0.997719 0
M  V30 2975 H 277.391 -3.64027 -3.47122 0
M  V30 2976 H 277.091 -5.21839 -2.70106 0
M  V30 2977 H 278.615 -4.93873 -3.59056 0
M  V30 2978 H 280.029 -5.55812 -1.40521 0
M  V30 2979 H 278.426 -5.95739 -0.722154 0
M  V30 2980 H 279.496 -4.84661 0.152082 0
M  V30 2981 N 280.839 0.0985539 -1.57292 0
M  V30 2982 C 282.085 0.803867 -1.86188 0
M  V30 2983 C 282.418 1.78549 -0.763794 0
M  V30 2984 O 281.693 1.93153 0.22855 0
M  V30 2985 C 281.976 1.53568 -3.25713 0
M  V30 2986 C 281.829 0.572277 -4.46145 0
M  V30 2987 C 283.148 2.48708 -3.63087 0
M  V30 2988 H 280.267 0.290781 -0.677211 0
M  V30 2989 H 282.909 0.0675783 -1.8988 0
M  V30 2990 H 281.059 2.16332 -3.22696 0
M  V30 2991 H 282.731 -0.0480894 -4.61275 0
M  V30 2992 H 280.974 -0.114618 -4.33649 0
M  V30 2993 H 281.645 1.12139 -5.40489 0
M  V30 2994 H 284.121 1.96039 -3.67026 0
M  V30 2995 H 282.997 2.96932 -4.61652 0
M  V30 2996 H 283.258 3.32309 -2.91588 0
M  V30 2997 N 282.317 1.53212 0.369288 0
M  V30 2998 C 283.728 1.60943 0.946276 0
M  V30 2999 C 284.079 0.47452 1.90375 0
M  V30 3000 O 283.204 -0.399597 2.12679 0
M  V30 3001 C 283.799 2.91715 1.72302 0
M  V30 3002 C 282.358 3.01792 2.24941 0
M  V30 3003 C 281.505 2.56211 1.06072 0
M  V30 3004 H 284.456 1.58007 0.148198 0
M  V30 3005 H 284.477 2.79309 2.58393 0
M  V30 3006 H 283.989 3.74295 1.0259 0
M  V30 3007 H 282.09 2.23791 2.97906 0
M  V30 3008 H 282.203 4.06803 2.53077 0
M  V30 3009 H 280.567 2.10998 1.4266 0
M  V30 3010 H 281.35 3.41206 0.378639 0
M  V30 3011 N 283.795 -0.628877 1.44509 0
M  V30 3012 C 285.044 -1.38437 1.4669 0
M  V30 3013 C 285.357 -1.95322 0.104272 0
M  V30 3014 O 286.563 -2.715 0.00362163 0
M  V30 3015 C 285.019 -2.50659 2.5826 0
M  V30 3016 C 284.627 -2.00277 4.0074 0
M  V30 3017 C 286.371 -3.27844 2.69664 0
M  V30 3018 C 284.278 -3.09854 5.0373 0
M  V30 3019 H 283.208 -0.520245 0.545766 0
M  V30 3020 H 285.859 -0.676313 1.70582 0
M  V30 3021 H 284.241 -3.2405 2.27612 0
M  V30 3022 H 285.415 -1.33736 4.40966 0
M  V30 3023 H 283.73 -1.35901 3.93599 0
M  V30 3024 H 286.327 -4.09534 3.43781 0
M  V30 3025 H 286.67 -3.77471 1.75559 0
M  V30 3026 H 287.203 -2.61543 2.99733 0
M  V30 3027 H 283.942 -2.65168 5.99472 0
M  V30 3028 H 283.462 -3.7503 4.68095 0
M  V30 3029 H 285.141 -3.74592 5.27532 0
M  V30 3030 N 285.273 -1.31445 -0.869486 0
M  V30 3031 C 286.519 -1.21337 -1.62496 0
M  V30 3032 C 286.852 0.227872 -1.92858 0
M  V30 3033 O 286.127 1.16094 -1.56053 0
M  V30 3034 C 286.41 -2.05814 -2.95487 0
M  V30 3035 C 286.263 -3.5824 -2.72 0
M  V30 3036 C 287.582 -1.9079 -3.96594 0
M  V30 3037 H 284.701 -0.442135 -0.589649 0
M  V30 3038 H 287.343 -1.6124 -1.00507 0
M  V30 3039 H 285.493 -1.71913 -3.48394 0
M  V30 3040 H 287.165 -4.0228 -2.25762 0
M  V30 3041 H 285.408 -3.81647 -2.06224 0
M  V30 3042 H 286.079 -4.12657 -3.66631 0
M  V30 3043 H 288.555 -2.20459 -3.52898 0
M  V30 3044 H 287.431 -2.52199 -4.87531 0
M  V30 3045 H 287.692 -0.871341 -4.33428 0
M  V30 3046 N 286.751 1.08385 -1.14413 0
M  V30 3047 C 287.661 2.18856 -0.844951 0
M  V30 3048 C 288.677 1.73121 0.174668 0
M  V30 3049 O 289.853 2.014 0.00312857 0
M  V30 3050 C 286.918 3.45155 -0.32696 0
M  V30 3051 C 285.979 4.05513 -1.40916 0
M  V30 3052 C 285.212 5.25784 -0.915793 0
M  V30 3053 O 285.435 5.69884 0.242651 0
M  V30 3054 O 284.369 5.77545 -1.69487 0
M  V30 3055 H 288.195 2.46919 -1.76818 0
M  V30 3056 H 285.78 1.17524 -0.922411 0
M  V30 3057 H 287.662 4.21377 -0.0440211 0
M  V30 3058 H 286.337 3.18668 0.568539 0
M  V30 3059 H 285.244 3.30879 -1.74556 0
M  V30 3060 H 286.577 4.3625 -2.27919 0
M  V30 3061 N 288.23 0.939286 1.26551 0
M  V30 3062 C 289.641 0.628782 1.75793 0
M  V30 3063 C 289.992 -0.856046 1.7654 0
M  V30 3064 O 289.117 -1.66994 1.3763 0
M  V30 3065 C 289.712 1.13465 3.19235 0
M  V30 3066 C 288.271 0.874601 3.66098 0
M  V30 3067 C 287.418 1.28667 2.45642 0
M  V30 3068 H 290.369 1.1178 1.12654 0
M  V30 3069 H 290.39 0.487609 3.77363 0
M  V30 3070 H 289.902 2.21535 3.1866 0
M  V30 3071 H 288.003 -0.191793 3.72106 0
M  V30 3072 H 288.116 1.50028 4.55004 0
M  V30 3073 H 286.48 0.705109 2.44745 0
M  V30 3074 H 287.263 2.37625 2.47769 0
M  V30 3075 N 289.708 -1.40897 0.706093 0
M  V30 3076 C 290.618 -2.3455 0.0482286 0
M  V30 3077 C 291.634 -1.56796 -0.754396 0
M  V30 3078 O 292.81 -1.89228 -0.689538 0
M  V30 3079 C 289.875 -3.35625 -0.869303 0
M  V30 3080 C 288.936 -4.29261 -0.0576994 0
M  V30 3081 C 288.169 -5.25508 -0.931531 0
M  V30 3082 O 288.392 -5.27472 -2.17092 0
M  V30 3083 O 287.326 -6.00727 -0.375587 0
M  V30 3084 H 291.152 -2.92407 0.820476 0
M  V30 3085 H 288.737 -1.4193 0.4665 0
M  V30 3086 H 290.619 -3.97635 -1.39514 0
M  V30 3087 H 289.294 -2.80196 -1.62086 0
M  V30 3088 H 288.201 -3.70566 0.512988 0
M  V30 3089 H 289.534 -4.87817 0.655426 0
M  V30 3090 N 291.186 -0.45159 -1.50991 0
M  V30 3091 C 292.435 0.111653 -2.01391 0
M  V30 3092 C 292.748 1.42529 -1.33959 0
M  V30 3093 O 293.954 2.07232 -1.75405 0
M  V30 3094 C 292.41 0.249514 -3.59034 0
M  V30 3095 C 292.018 -1.05453 -4.35412 0
M  V30 3096 C 293.762 0.765762 -4.17536 0
M  V30 3097 C 291.669 -0.881529 -5.84793 0
M  V30 3098 H 290.599 0.0455022 -0.752626 0
M  V30 3099 H 293.25 -0.583524 -1.73975 0
M  V30 3100 H 291.632 1.00803 -3.82955 0
M  V30 3101 H 292.806 -1.82248 -4.23229 0
M  V30 3102 H 291.121 -1.50039 -3.88429 0
M  V30 3103 H 293.718 0.911913 -5.26866 0
M  V30 3104 H 294.061 1.75201 -3.77638 0
M  V30 3105 H 294.594 0.0651744 -3.97747 0
M  V30 3106 H 291.333 -1.84057 -6.29129 0
M  V30 3107 H 290.853 -0.153625 -5.99603 0
M  V30 3108 H 292.532 -0.540363 -6.4474 0
M  V30 3109 N 292.664 1.56529 -0.183458 0
M  V30 3110 C 293.594 2.21549 0.737456 0
M  V30 3111 C 294.575 1.17489 1.23005 0
M  V30 3112 O 295.76 1.45959 1.281 0
M  V30 3113 C 292.89 2.86575 1.96194 0
M  V30 3114 C 291.844 3.96778 1.60473 0
M  V30 3115 C 291.17 4.48911 2.90487 0
M  V30 3116 C 292.47 5.15767 0.823497 0
M  V30 3117 H 294.164 2.98761 0.195453 0
M  V30 3118 H 291.71 1.43702 0.0925686 0
M  V30 3119 H 293.663 3.30739 2.61131 0
M  V30 3120 H 292.387 2.06749 2.52828 0
M  V30 3121 H 291.046 3.53286 0.978997 0
M  V30 3122 H 290.694 3.65862 3.45186 0
M  V30 3123 H 290.394 5.23265 2.67335 0
M  V30 3124 H 291.918 4.95771 3.56432 0
M  V30 3125 H 293.332 5.56549 1.37571 0
M  V30 3126 H 291.729 5.96114 0.690551 0
M  V30 3127 H 292.799 4.84574 -0.177782 0
M  V30 3128 N 294.142 -0.090211 1.57342 0
M  V30 3129 C 295.105 -1.09335 2.01441 0
M  V30 3130 C 296.105 -1.32666 0.908641 0
M  V30 3131 O 297.295 -1.28697 1.174 0
M  V30 3132 C 294.427 -2.44136 2.3793 0
M  V30 3133 H 295.62 -0.713662 2.91285 0
M  V30 3134 H 293.173 -0.335404 1.52659 0
M  V30 3135 H 293.908 -2.86972 1.51055 0
M  V30 3136 H 293.693 -2.28548 3.18603 0
M  V30 3137 H 295.183 -3.16277 2.72688 0
M  V30 3138 N 295.62 -1.53406 -0.361157 0
M  V30 3139 C 296.897 -1.60411 -1.11927 0
M  V30 3140 C 297.277 -0.414385 -2.06993 0
M  V30 3141 O 296.625 0.594976 -2.20618 0
M  V30 3142 C 296.835 -2.95652 -1.85448 0
M  V30 3143 C 298.183 -3.50386 -2.39823 0
M  V30 3144 O 299.207 -2.97711 -1.95568 0
M  V30 3145 O 298.066 -4.42482 -3.20737 0
M  V30 3146 H 295.16 -0.64811 -0.513695 0
M  V30 3147 H 297.706 -1.65749 -0.364065 0
M  V30 3148 H 296.478 -3.73682 -1.16091 0
M  V30 3149 H 296.101 -2.93825 -2.67866 0
M  V30 3150 N 297.098 0.621204 -1.44841 0
M  V30 3151 C 298.346 1.37783 -1.47852 0
M  V30 3152 C 298.667 1.94653 -0.116224 0
M  V30 3153 O 297.937 1.76367 0.852737 0
M  V30 3154 H 296.517 0.511453 -0.544449 0
M  V30 3155 H 299.179 0.730446 -1.80694 0
M  V30 3156 H 298.275 2.20414 -2.20961 0
M  V30 3157 N 298.576 1.31904 0.862503 0
M  V30 3158 C 299.987 1.19803 1.43193 0
M  V30 3159 C 300.338 -0.192567 1.95253 0
M  V30 3160 O 299.463 -1.09081 1.86896 0
M  V30 3161 C 300.058 2.16883 2.60283 0
M  V30 3162 C 298.617 2.08692 3.13248 0
M  V30 3163 C 297.764 2.05691 1.85975 0
M  V30 3164 H 300.715 1.43846 0.670365 0
M  V30 3165 H 300.736 1.76278 3.37204 0
M  V30 3166 H 300.248 3.18083 2.22363 0
M  V30 3167 H 298.349 1.10713 3.55771 0
M  V30 3168 H 298.462 2.9815 3.75025 0
M  V30 3169 H 296.826 1.50814 2.05249 0
M  V30 3170 H 297.609 3.08659 1.50282 0
M  V30 3171 N 300.054 -1.07777 1.14986 0
M  V30 3172 C 301.004 -2.13082 0.811181 0
M  V30 3173 C 301.988 -1.59619 -0.202597 0
M  V30 3174 O 303.18 -1.77 -0.00398275 0
M  V30 3175 C 300.309 -3.42009 0.297439 0
M  V30 3176 C 299.395 -4.02337 1.34112 0
M  V30 3177 N 299.786 -4.36982 2.54716 0
M  V30 3178 C 298.084 -4.29752 1.19285 0
M  V30 3179 C 298.785 -4.84729 3.21578 0
M  V30 3180 N 297.761 -4.83233 2.48972 0
M  V30 3181 H 301.563 -2.37696 1.72853 0
M  V30 3182 H 299.077 -1.25173 1.03468 0
M  V30 3183 H 301.074 -4.16884 0.0364777 0
M  V30 3184 H 299.734 -3.18841 -0.614022 0
M  V30 3185 H 300.745 -4.27807 2.91894 0
M  V30 3186 H 297.422 -4.16106 0.340926 0
M  V30 3187 H 298.812 -5.20863 4.24442 0
M  V30 3188 N 301.532 -0.945985 -1.26051 0
M  V30 3189 C 302.757 -0.612525 -1.98149 0
M  V30 3190 C 303.182 0.806623 -1.69927 0
M  V30 3191 O 302.54 1.54411 -0.950108 0
M  V30 3192 C 302.588 -0.866981 -3.50023 0
M  V30 3193 O 301.692 0.0585333 -4.12358 0
M  V30 3194 H 301.033 -0.23379 -0.621481 0
M  V30 3195 H 303.563 -1.27023 -1.60395 0
M  V30 3196 H 303.573 -0.789792 -4.00283 0
M  V30 3197 H 302.248 -1.90135 -3.69894 0
M  V30 3198 H 300.825 -0.0701241 -3.72834 0
M  V30 3199 N 303.011 1.40521 -0.713556 0
M  V30 3200 C 304.26 2.00155 -0.249192 0
M  V30 3201 C 304.573 1.57224 1.16362 0
M  V30 3202 O 305.779 2.09542 1.72639 0
M  V30 3203 C 304.235 3.5773 -0.3946 0
M  V30 3204 C 303.843 4.09635 -1.81392 0
M  V30 3205 C 305.587 4.24499 0.00907364 0
M  V30 3206 C 303.494 5.59707 -1.91003 0
M  V30 3207 H 302.424 0.74868 -0.0894114 0
M  V30 3208 H 305.075 1.60784 -0.884352 0
M  V30 3209 H 303.457 3.94792 0.30911 0
M  V30 3210 H 304.631 3.83955 -2.54785 0
M  V30 3211 H 302.946 3.55456 -2.16888 0
M  V30 3212 H 305.543 5.34683 -0.0420404 0
M  V30 3213 H 305.886 4.02824 1.05065 0
M  V30 3214 H 306.419 3.92536 -0.645007 0
M  V30 3215 H 303.158 5.86234 -2.93275 0
M  V30 3216 H 302.678 5.87258 -1.22019 0
M  V30 3217 H 304.357 6.24776 -1.6812 0
M  V30 3218 N 304.489 0.459591 1.5075 0
M  V30 3219 C 305.399 -0.34613 2.32033 0
M  V30 3220 C 306.415 -1.00686 1.41909 0
M  V30 3221 O 307.591 -0.997361 1.7497 0
M  V30 3222 C 304.656 -1.42029 3.16273 0
M  V30 3223 C 303.717 -0.777362 4.22203 0
M  V30 3224 C 302.95 -1.80034 5.02418 0
M  V30 3225 O 303.173 -3.02544 4.83553 0
M  V30 3226 O 302.107 -1.37853 5.85901 0
M  V30 3227 H 305.933 0.318054 3.0203 0
M  V30 3228 H 303.518 0.221663 1.47746 0
M  V30 3229 H 305.4 -2.04275 3.68578 0
M  V30 3230 H 304.075 -2.06815 2.49016 0
M  V30 3231 H 302.982 -0.116256 3.73919 0
M  V30 3232 H 304.315 -0.172634 4.91897 0
M  V30 3233 N 305.967 -1.56429 0.191757 0
M  V30 3234 C 307.213 -1.97777 -0.448554 0
M  V30 3235 C 307.546 -1.07847 -1.61501 0
M  V30 3236 O 306.821 -0.129774 -1.94067 0
M  V30 3237 C 307.104 -3.48362 -0.911906 0
M  V30 3238 C 306.957 -4.4907 0.256136 0
M  V30 3239 C 308.276 -4.02561 -1.77857 0
M  V30 3240 H 305.395 -0.719071 -0.161572 0
M  V30 3241 H 308.037 -1.87896 0.282007 0
M  V30 3242 H 306.187 -3.56914 -1.53442 0
M  V30 3243 H 307.859 -4.5256 0.893733 0
M  V30 3244 H 306.102 -4.24181 0.908436 0
M  V30 3245 H 306.773 -5.51889 -0.11053 0
M  V30 3246 H 309.249 -3.96767 -1.25359 0
M  V30 3247 H 308.125 -5.08301 -2.07174 0
M  V30 3248 H 308.386 -3.47616 -2.73158 0
M  V30 3249 N 307.445 0.0818655 -1.57387 0
M  V30 3250 C 308.685 0.788375 -1.88584 0
M  V30 3251 C 309.049 1.75248 -0.784351 0
M  V30 3252 O 310.25 2.50334 -0.979105 0
M  V30 3253 C 308.521 1.48654 -3.25018 0
M  V30 3254 S 310.08 2.22951 -3.7794 0
M  V30 3255 H 306.898 0.262383 -0.660815 0
M  V30 3256 H 309.5 0.0448995 -1.95448 0
M  V30 3257 H 308.204 0.770919 -4.03094 0
M  V30 3258 H 307.735 2.26965 -3.21326 0
M  V30 3259 H 309.75 3.49309 -3.52417 0
M  V30 3260 N 308.923 1.53595 0.353017 0
M  V30 3261 C 309.886 1.80232 1.41594 0
M  V30 3262 C 310.886 0.673081 1.46035 0
M  V30 3263 O 312.076 0.941335 1.46576 0
M  V30 3264 C 309.208 1.93578 2.80607 0
M  V30 3265 H 310.401 2.75174 1.19244 0
M  V30 3266 H 307.954 1.44864 0.586872 0
M  V30 3267 H 308.689 1.00746 3.08254 0
M  V30 3268 H 308.474 2.75724 2.78781 0
M  V30 3269 H 309.964 2.15735 3.57558 0
M  V30 3270 N 310.401 -0.613514 1.45168 0
M  V30 3271 C 311.647 -1.37471 1.49096 0
M  V30 3272 C 311.98 -1.93765 0.129901 0
M  V30 3273 O 311.255 -1.74707 -0.854858 0
M  V30 3274 C 311.538 -2.52701 2.56542 0
M  V30 3275 C 311.391 -2.01643 4.0207 0
M  V30 3276 C 312.71 -3.54849 2.60327 0
M  V30 3277 H 309.829 -0.498502 0.54283 0
M  V30 3278 H 312.471 -0.692125 1.76945 0
M  V30 3279 H 310.621 -3.10931 2.32926 0
M  V30 3280 H 312.293 -1.48108 4.36877 0
M  V30 3281 H 310.536 -1.32688 4.13009 0
M  V30 3282 H 311.207 -2.84681 4.72928 0
M  V30 3283 H 313.683 -3.0645 2.81474 0
M  V30 3284 H 312.559 -4.32973 3.37381 0
M  V30 3285 H 312.82 -4.10079 1.6519 0
M  V30 3286 N 311.879 -1.3236 -0.855495 0
M  V30 3287 C 313.125 -1.23054 -1.612 0
M  V30 3288 C 313.458 0.207404 -1.93089 0
M  V30 3289 O 312.733 1.14432 -1.57275 0
M  V30 3290 C 313.016 -2.08937 -2.93287 0
M  V30 3291 C 312.869 -3.61105 -2.68185 0
M  V30 3292 C 314.188 -1.94986 -3.94549 0
M  V30 3293 H 311.307 -0.448364 -0.584926 0
M  V30 3294 H 313.949 -1.62297 -0.987917 0
M  V30 3295 H 312.099 -1.75599 -3.46551 0
M  V30 3296 H 313.771 -4.04652 -2.21483 0
M  V30 3297 H 312.014 -3.83813 -2.02164 0
M  V30 3298 H 312.685 -4.16522 -3.62234 0
M  V30 3299 H 315.161 -2.24189 -3.5054 0
M  V30 3300 H 314.037 -2.57356 -4.84829 0
M  V30 3301 H 314.298 -0.917263 -4.3248 0
M  V30 3302 N 313.357 1.07166 -1.15556 0
M  V30 3303 C 314.585 1.83514 -0.955519 0
M  V30 3304 C 315 1.82163 0.49621 0
M  V30 3305 O 314.357 1.23441 1.34419 0
M  V30 3306 C 314.408 3.30515 -1.46432 0
M  V30 3307 O 314.129 3.31937 -2.85918 0
M  V30 3308 C 315.63 4.23625 -1.30603 0
M  V30 3309 H 312.85 0.578926 -0.339244 0
M  V30 3310 H 315.394 1.35265 -1.53374 0
M  V30 3311 H 313.549 3.76106 -0.928584 0
M  V30 3312 H 313.963 4.23794 -3.09029 0
M  V30 3313 H 315.437 5.24831 -1.71047 0
M  V30 3314 H 315.914 4.38485 -0.250441 0
M  V30 3315 H 316.52 3.83871 -1.83094 0
M  V30 3316 N 314.835 0.952656 1.25548 0
M  V30 3317 C 315.767 0.428609 2.25157 0
M  V30 3318 C 316.78 -0.454428 1.56329 0
M  V30 3319 O 317.969 -0.263023 1.76552 0
M  V30 3320 C 315.069 -0.401972 3.36508 0
M  V30 3321 C 314.242 0.467601 4.34893 0
M  V30 3322 C 313.301 -0.30445 5.25319 0
M  V30 3323 O 312.327 0.296473 5.68427 0
M  V30 3324 N 313.529 -1.59805 5.5807 0
M  V30 3325 H 316.294 1.28497 2.70756 0
M  V30 3326 H 313.855 0.822798 1.39433 0
M  V30 3327 H 315.847 -0.926134 3.9396 0
M  V30 3328 H 314.417 -1.15918 2.90313 0
M  V30 3329 H 313.637 1.17288 3.76347 0
M  V30 3330 H 314.925 1.06119 4.97611 0
M  V30 3331 H 314.323 -2.10823 5.24948 0
M  V30 3332 H 312.88 -2.06822 6.18116 0
M  V30 3333 N 316.313 -1.40141 0.720998 0
M  V30 3334 C 317.26 -2.30688 0.071919 0
M  V30 3335 C 318.23 -1.48476 -0.744584 0
M  V30 3336 O 319.415 -1.77201 -0.707423 0
M  V30 3337 C 316.555 -3.34724 -0.839855 0
M  V30 3338 C 315.668 -4.31998 -0.0122438 0
M  V30 3339 C 314.803 -5.23102 -0.923995 0
M  V30 3340 C 313.842 -6.12033 -0.0907969 0
M  V30 3341 N 312.979 -6.95537 -0.957718 0
M  V30 3342 H 317.819 -2.85628 0.849755 0
M  V30 3343 H 315.356 -1.40653 0.430726 0
M  V30 3344 H 317.314 -3.93618 -1.38279 0
M  V30 3345 H 315.944 -2.81274 -1.58381 0
M  V30 3346 H 314.996 -3.74841 0.64794 0
M  V30 3347 H 316.308 -4.94772 0.632595 0
M  V30 3348 H 315.462 -5.86953 -1.53527 0
M  V30 3349 H 314.201 -4.60615 -1.60264 0
M  V30 3350 H 313.206 -5.47207 0.533377 0
M  V30 3351 H 314.431 -6.76581 0.584428 0
M  V30 3352 H 312.377 -6.35633 -1.62192 0
M  V30 3353 H 312.294 -7.55099 -0.36904 0
M  V30 3354 H 313.562 -7.63832 -1.555 0
M  V30 3355 N 317.792 -0.46758 -1.50504 0
M  V30 3356 C 319.038 0.0887532 -2.02606 0
M  V30 3357 C 319.371 1.39686 -1.34913 0
M  V30 3358 O 318.646 1.88644 -0.473694 0
M  V30 3359 C 318.929 0.276206 -3.59039 0
M  V30 3360 C 318.782 -1.05267 -4.37309 0
M  V30 3361 C 320.101 1.03235 -4.27821 0
M  V30 3362 H 317.22 0.0307814 -0.736357 0
M  V30 3363 H 319.862 -0.612485 -1.79857 0
M  V30 3364 H 318.012 0.8735 -3.78553 0
M  V30 3365 H 319.684 -1.68628 -4.29374 0
M  V30 3366 H 317.927 -1.65015 -4.01189 0
M  V30 3367 H 318.598 -0.875197 -5.45018 0
M  V30 3368 H 321.074 0.526111 -4.12761 0
M  V30 3369 H 319.95 1.1323 -5.37094 0
M  V30 3370 H 320.211 2.06806 -3.90748 0
M  V30 3371 N 319.27 1.56325 -0.20005 0
M  V30 3372 C 320.2 2.22318 0.713916 0
M  V30 3373 C 321.181 1.18788 1.21752 0
M  V30 3374 O 322.366 1.47309 1.26545 0
M  V30 3375 C 319.496 2.88639 1.93144 0
M  V30 3376 C 318.45 3.98457 1.56255 0
M  V30 3377 C 317.776 4.51967 2.85709 0
M  V30 3378 C 319.076 5.16612 0.768747 0
M  V30 3379 H 320.77 2.98952 0.163755 0
M  V30 3380 H 318.316 1.43792 0.0773219 0
M  V30 3381 H 320.269 3.33491 2.57608 0
M  V30 3382 H 318.993 2.09419 2.50621 0
M  V30 3383 H 317.652 3.54305 0.941471 0
M  V30 3384 H 317.3 3.69503 3.41287 0
M  V30 3385 H 317 5.26071 2.6177 0
M  V30 3386 H 318.524 4.99523 3.51154 0
M  V30 3387 H 319.938 5.57977 1.3166 0
M  V30 3388 H 318.335 5.96812 0.627286 0
M  V30 3389 H 319.405 4.84358 -0.229168 0
M  V30 3390 N 320.748 -0.0735177 1.57428 0
M  V30 3391 C 321.973 -0.789787 1.91774 0
M  V30 3392 C 322.398 -1.70413 0.796306 0
M  V30 3393 O 321.756 -1.79555 -0.250961 0
M  V30 3394 C 321.804 -1.5609 3.25067 0
M  V30 3395 O 320.908 -2.67144 3.14178 0
M  V30 3396 H 320.249 -0.215582 0.628029 0
M  V30 3397 H 322.779 -0.0422781 2.04556 0
M  V30 3398 H 322.789 -1.94052 3.58898 0
M  V30 3399 H 321.464 -0.890015 4.06265 0
M  V30 3400 H 320.041 -2.32052 2.91901 0
M  V30 3401 N 322.226 -1.5378 -0.344866 0
M  V30 3402 C 323.466 -1.72677 -1.09371 0
M  V30 3403 C 323.83 -0.479084 -1.85927 0
M  V30 3404 O 325.031 -0.54505 -2.63216 0
M  V30 3405 C 323.302 -2.95457 -2.01097 0
M  V30 3406 S 324.861 -3.35158 -2.83222 0
M  V30 3407 H 321.679 -0.607402 -0.369573 0
M  V30 3408 H 324.281 -1.91922 -0.372307 0
M  V30 3409 H 322.985 -3.84437 -1.43655 0
M  V30 3410 H 322.516 -2.78673 -2.77678 0
M  V30 3411 H 324.531 -2.88789 -4.03504 0
M  V30 3412 N 323.704 0.605807 -1.45491 0
M  V30 3413 C 324.95 1.36679 -1.49823 0
M  V30 3414 C 325.283 1.93693 -0.140175 0
M  V30 3415 O 324.558 1.75158 0.845581 0
M  V30 3416 C 324.841 2.51337 -2.57879 0
M  V30 3417 C 324.694 1.99508 -4.03134 0
M  V30 3418 C 326.013 3.53463 -2.62205 0
M  V30 3419 H 323.132 0.495617 -0.545466 0
M  V30 3420 H 325.774 0.682732 -1.7731 0
M  V30 3421 H 323.924 3.09691 -2.34571 0
M  V30 3422 H 325.596 1.45789 -4.37656 0
M  V30 3423 H 323.839 1.30496 -4.13707 0
M  V30 3424 H 324.51 2.82169 -4.74431 0
M  V30 3425 H 326.986 3.04953 -2.83095 0
M  V30 3426 H 325.862 4.31178 -3.39672 0
M  V30 3427 H 326.123 4.09197 -1.67363 0
M  V30 3428 N 325.182 1.32811 0.848464 0
M  V30 3429 C 326.429 1.23724 1.60308 0
M  V30 3430 C 326.757 -0.1994 1.93475 0
M  V30 3431 O 326.012 -1.15406 1.5805 0
M  V30 3432 C 326.311 2.04831 2.92881 0
M  V30 3433 C 325.977 3.54125 2.79117 0
M  V30 3434 C 324.639 3.94829 2.7507 0
M  V30 3435 C 326.991 4.49036 2.64606 0
M  V30 3436 C 324.319 5.28675 2.544 0
M  V30 3437 C 326.671 5.83033 2.4547 0
M  V30 3438 C 325.335 6.22931 2.39819 0
M  V30 3439 H 324.605 0.452737 0.586609 0
M  V30 3440 H 327.252 1.64301 0.983743 0
M  V30 3441 H 325.557 1.57001 3.58968 0
M  V30 3442 H 327.254 1.95164 3.50303 0
M  V30 3443 H 323.844 3.21801 2.83094 0
M  V30 3444 H 328.028 4.18505 2.66772 0
M  V30 3445 H 323.284 5.58637 2.48465 0
M  V30 3446 H 327.458 6.56186 2.33222 0
M  V30 3447 H 325.085 7.26584 2.23562 0
M  V30 3448 N 326.66 -1.06551 1.16123 0
M  V30 3449 C 327.607 -2.13961 0.865414 0
M  V30 3450 C 328.577 -1.65066 -0.185055 0
M  V30 3451 O 329.762 -1.90732 -0.05083 0
M  V30 3452 C 326.902 -3.43113 0.369776 0
M  V30 3453 C 326.015 -4.05756 1.48276 0
M  V30 3454 C 325.15 -5.22773 0.942414 0
M  V30 3455 C 324.189 -5.77395 2.03179 0
M  V30 3456 N 323.326 -6.85731 1.50721 0
M  V30 3457 H 328.166 -2.38605 1.78527 0
M  V30 3458 H 325.703 -1.17072 0.890646 0
M  V30 3459 H 327.661 -4.17151 0.0640643 0
M  V30 3460 H 326.291 -3.18695 -0.513143 0
M  V30 3461 H 325.343 -3.29292 1.9045 0
M  V30 3462 H 326.655 -4.42351 2.30493 0
M  V30 3463 H 325.809 -6.03827 0.589729 0
M  V30 3464 H 324.548 -4.87618 0.0895191 0
M  V30 3465 H 323.553 -4.94981 2.3932 0
M  V30 3466 H 324.778 -6.14603 2.8886 0
M  V30 3467 H 322.724 -6.52499 0.676811 0
M  V30 3468 H 322.641 -7.21254 2.26557 0
M  V30 3469 H 323.909 -7.7047 1.18303 0
M  V30 3470 N 328.138 -0.959301 -1.25041 0
M  V30 3471 C 329.101 -0.487677 -2.23952 0
M  V30 3472 C 330.101 0.41119 -1.55454 0
M  V30 3473 O 331.291 0.207825 -1.72956 0
M  V30 3474 C 328.423 0.294807 -3.39623 0
M  V30 3475 H 329.616 -1.36198 -2.67189 0
M  V30 3476 H 327.169 -0.743042 -1.37508 0
M  V30 3477 H 327.904 1.18658 -3.01813 0
M  V30 3478 H 327.689 -0.35012 -3.90534 0
M  V30 3479 H 329.179 0.614089 -4.1306 0
M  V30 3480 N 329.616 1.39756 -0.72842 0
M  V30 3481 C 330.546 2.33289 -0.0991354 0
M  V30 3482 C 331.527 1.53568 0.731489 0
M  V30 3483 O 332.712 1.81987 0.677807 0
M  V30 3484 C 329.842 3.3763 0.813834 0
M  V30 3485 C 328.796 4.2791 0.0878663 0
M  V30 3486 C 328.122 5.22894 1.11741 0
M  V30 3487 C 329.422 5.11314 -1.06563 0
M  V30 3488 H 331.116 2.86163 -0.880408 0
M  V30 3489 H 328.662 1.37591 -0.424819 0
M  V30 3490 H 330.615 4.0201 1.26355 0
M  V30 3491 H 329.339 2.83181 1.62715 0
M  V30 3492 H 327.998 3.65 -0.342159 0
M  V30 3493 H 327.646 4.64744 1.92412 0
M  V30 3494 H 327.346 5.84143 0.636477 0
M  V30 3495 H 328.87 5.90151 1.56697 0
M  V30 3496 H 330.284 5.69076 -0.694671 0
M  V30 3497 H 328.681 5.81671 -1.47577 0
M  V30 3498 H 329.751 4.46534 -1.89038 0
M  V30 3499 N 331.094 0.475555 1.50254 0
M  V30 3500 C 332.026 -0.352649 2.26471 0
M  V30 3501 C 333.039 -0.953165 1.3198 0
M  V30 3502 O 334.228 -0.840815 1.57457 0
M  V30 3503 C 331.328 -1.50902 3.0345 0
M  V30 3504 C 330.501 -1.02047 4.25329 0
M  V30 3505 C 329.56 -2.05142 4.84565 0
M  V30 3506 O 328.586 -1.63023 5.45355 0
M  V30 3507 N 329.788 -3.37987 4.71959 0
M  V30 3508 H 332.553 0.300767 2.98187 0
M  V30 3509 H 330.114 0.306598 1.5897 0
M  V30 3510 H 332.106 -2.19572 3.39956 0
M  V30 3511 H 330.676 -2.06705 2.34504 0
M  V30 3512 H 329.896 -0.159507 3.93877 0
M  V30 3513 H 331.184 -0.672061 5.04342 0
M  V30 3514 H 330.582 -3.74913 4.23623 0
M  V30 3515 H 329.139 -4.02443 5.12721 0
M  V30 3516 N 332.573 -1.56217 0.208337 0
M  V30 3517 C 333.483 -2.23316 -0.718836 0
M  V30 3518 C 334.499 -1.23648 -1.22422 0
M  V30 3519 O 335.675 -1.56423 -1.26861 0
M  V30 3520 C 332.74 -2.88968 -1.91568 0
M  V30 3521 C 331.801 -4.03943 -1.45357 0
M  V30 3522 C 331.034 -4.66455 -2.59337 0
M  V30 3523 O 331.257 -4.27919 -3.77149 0
M  V30 3524 O 330.191 -5.55686 -2.31293 0
M  V30 3525 H 334.017 -3.03182 -0.177315 0
M  V30 3526 H 331.602 -1.49384 -0.0215402 0
M  V30 3527 H 333.484 -3.30455 -2.61491 0
M  V30 3528 H 332.159 -2.12071 -2.44556 0
M  V30 3529 H 331.066 -3.67052 -0.722746 0
M  V30 3530 H 332.399 -4.82543 -0.970219 0
M  V30 3531 N 334.051 0.0651679 -1.57465 0
M  V30 3532 C 334.999 1.09542 -2.05191 0
M  V30 3533 C 335.993 1.39675 -0.958509 0
M  V30 3534 O 337.199 1.39003 -1.14359 0
M  V30 3535 H 333.574 0.370623 -0.654326 0
M  V30 3536 H 335.545 0.666802 -2.90854 0
M  V30 3537 C 334.294 2.39881 -2.51699 0
M  V30 3538 H 333.617 2.17547 -3.3543 0
M  V30 3539 H 335.057 3.104 -2.88839 0
M  V30 3540 C 333.516 3.0631 -1.40271 0
M  V30 3541 O 334.046 3.94664 -0.748523 0
M  V30 3542 N 332.252 2.67041 -1.14618 0
M  V30 3543 H 331.799 1.95281 -1.67997 0
M  V30 3544 H 331.757 3.1181 -0.402688 0
M  V30 3545 N 335.529 1.53961 0.336706 0
M  V30 3546 C 336.777 1.71197 1.07405 0
M  V30 3547 C 337.098 0.481475 1.88962 0
M  V30 3548 O 336.368 -0.504585 1.8929 0
M  V30 3549 H 334.948 0.631185 0.399517 0
M  V30 3550 H 337.61 1.91232 0.376323 0
M  V30 3551 H 336.706 2.58587 1.74755 0
M  V30 3552 N 337.007 -0.598083 1.45811 0
M  V30 3553 C 338.253 -1.35882 1.50545 0
M  V30 3554 C 338.586 -1.93616 0.150445 0
M  V30 3555 O 337.861 -1.75604 -0.83628 0
M  V30 3556 C 338.144 -2.49966 2.59208 0
M  V30 3557 C 337.997 -1.97367 4.04186 0
M  V30 3558 C 339.316 -3.52068 2.64076 0
M  V30 3559 H 336.435 -0.492717 0.548087 0
M  V30 3560 H 339.077 -0.673319 1.77669 0
M  V30 3561 H 337.227 -3.08443 2.3621 0
M  V30 3562 H 338.899 -1.43466 4.38423 0
M  V30 3563 H 337.142 -1.283 4.14393 0
M  V30 3564 H 337.813 -2.79649 4.75921 0
M  V30 3565 H 340.289 -3.03448 2.84708 0
M  V30 3566 H 339.165 -4.2937 3.41954 0
M  V30 3567 H 339.426 -4.08304 1.69531 0
M  V30 3568 N 338.485 -1.33259 -0.841409 0
M  V30 3569 C 339.415 -1.25926 -1.96634 0
M  V30 3570 C 340.396 -0.140349 -1.6952 0
M  V30 3571 O 341.581 -0.329707 -1.91381 0
M  V30 3572 C 338.711 -0.99512 -3.32738 0
M  V30 3573 C 337.665 -2.0767 -3.74242 0
M  V30 3574 C 336.991 -1.66474 -5.08125 0
M  V30 3575 C 338.291 -3.49318 -3.88297 0
M  V30 3576 H 339.985 -2.20046 -2.03027 0
M  V30 3577 H 337.531 -1.05931 -0.975425 0
M  V30 3578 H 339.484 -0.930323 -4.11002 0
M  V30 3579 H 338.208 -0.0183004 -3.26595 0
M  V30 3580 H 336.867 -2.13187 -2.98239 0
M  V30 3581 H 336.515 -0.675012 -4.9845 0
M  V30 3582 H 336.215 -2.3885 -5.36865 0
M  V30 3583 H 337.739 -1.61455 -5.88867 0
M  V30 3584 H 339.153 -3.46316 -4.56879 0
M  V30 3585 H 337.55 -4.20158 -4.28471 0
M  V30 3586 H 338.62 -3.8801 -2.9082 0
M  V30 3587 N 339.963 1.05934 -1.16686 0
M  V30 3588 C 340.893 2.1546 -0.899949 0
M  V30 3589 C 341.874 1.69391 0.155154 0
M  V30 3590 O 343.059 1.94199 0.00648693 0
M  V30 3591 C 340.189 3.44939 -0.404241 0
M  V30 3592 C 339.143 4.04536 -1.39767 0
M  V30 3593 C 338.469 5.29268 -0.760216 0
M  V30 3594 C 339.769 4.42893 -2.76845 0
M  V30 3595 H 341.463 2.38046 -1.81588 0
M  V30 3596 H 339.009 1.14404 -0.874514 0
M  V30 3597 H 340.962 4.20901 -0.204971 0
M  V30 3598 H 339.686 3.21983 0.547206 0
M  V30 3599 H 338.345 3.30635 -1.58355 0
M  V30 3600 H 337.993 5.02611 0.197831 0
M  V30 3601 H 337.693 5.70101 -1.42332 0
M  V30 3602 H 339.217 6.07924 -0.57105 0
M  V30 3603 H 340.631 5.09921 -2.62019 0
M  V30 3604 H 339.028 4.94721 -3.39663 0
M  V30 3605 H 340.098 3.53584 -3.31823 0
M  V30 3606 N 341.441 0.965919 1.2453 0
M  V30 3607 C 342.351 0.502154 2.29163 0
M  V30 3608 C 343.367 -0.436017 1.68448 0
M  V30 3609 O 344.543 -0.309497 1.99008 0
M  V30 3610 C 341.608 -0.201956 3.46111 0
M  V30 3611 C 340.669 0.775821 4.22232 0
M  V30 3612 C 339.902 0.105217 5.33596 0
M  V30 3613 O 340.125 -1.10683 5.59558 0
M  V30 3614 O 339.059 0.796475 5.96607 0
M  V30 3615 H 342.885 1.37194 2.70946 0
M  V30 3616 H 340.47 0.732875 1.30189 0
M  V30 3617 H 342.352 -0.597564 4.17142 0
M  V30 3618 H 341.027 -1.04673 3.06309 0
M  V30 3619 H 339.934 1.22185 3.53584 0
M  V30 3620 H 341.267 1.58896 4.65846 0
M  V30 3621 N 342.919 -1.39368 0.735821 0
M  V30 3622 C 344.167 -2.00101 0.283562 0
M  V30 3623 C 344.488 -1.5868 -1.13338 0
M  V30 3624 O 343.758 -0.835423 -1.77193 0
M  V30 3625 H 342.338 -0.740024 0.101851 0
M  V30 3626 H 345 -1.70404 0.945962 0
M  V30 3627 H 344.096 -3.10323 0.332604 0
M  V30 3628 N 344.397 -0.483516 -1.5 0
M  V30 3629 C 345.36 0.292965 -2.2732 0
M  V30 3630 C 346.36 0.909499 -1.32608 0
M  V30 3631 O 347.55 0.776745 -1.55924 0
M  V30 3632 C 344.682 1.41854 -3.09984 0
M  V30 3633 H 345.875 -0.385289 -2.97415 0
M  V30 3634 H 343.428 -0.237942 -1.54478 0
M  V30 3635 H 344.163 2.13148 -2.44414 0
M  V30 3636 H 343.948 0.982114 -3.79601 0
M  V30 3637 H 345.438 1.96597 -3.68429 0
M  V30 3638 N 345.875 1.56104 -0.216619 0
M  V30 3639 C 346.805 2.23063 0.690296 0
M  V30 3640 C 347.786 1.20072 1.20485 0
M  V30 3641 O 348.971 1.48643 1.24976 0
M  V30 3642 C 346.101 2.90672 1.90072 0
M  V30 3643 C 345.055 4.00092 1.5202 0
M  V30 3644 C 344.381 4.54972 2.80899 0
M  V30 3645 C 345.681 5.17398 0.71391 0
M  V30 3646 H 347.375 2.99109 0.132038 0
M  V30 3647 H 344.921 1.43866 0.0620664 0
M  V30 3648 H 346.874 3.36204 2.54057 0
M  V30 3649 H 345.598 2.12066 2.48386 0
M  V30 3650 H 344.257 3.55283 0.903839 0
M  V30 3651 H 343.905 3.73102 3.37348 0
M  V30 3652 H 343.605 5.28817 2.56176 0
M  V30 3653 H 345.129 5.0322 3.45836 0
M  V30 3654 H 346.543 5.59342 1.25735 0
M  V30 3655 H 344.94 5.97444 0.563951 0
M  V30 3656 H 346.01 4.84088 -0.280527 0
M  V30 3657 N 347.353 -0.0568162 1.57498 0
M  V30 3658 C 348.283 -1.06593 2.0775 0
M  V30 3659 C 349.264 -1.39448 0.974082 0
M  V30 3660 O 350.449 -1.48815 1.24771 0
M  V30 3661 C 347.579 -2.37509 2.5339 0
M  V30 3662 C 346.533 -2.1897 3.67745 0
M  V30 3663 C 345.859 -3.55402 3.99492 0
M  V30 3664 C 347.159 -1.59859 4.97235 0
M  V30 3665 H 348.853 -0.647706 2.9231 0
M  V30 3666 H 346.399 -0.310116 1.40621 0
M  V30 3667 H 348.352 -3.08409 2.87162 0
M  V30 3668 H 347.076 -2.8134 1.65878 0
M  V30 3669 H 345.735 -1.50508 3.3428 0
M  V30 3670 H 345.383 -3.9683 3.09088 0
M  V30 3671 H 345.083 -3.43831 4.76502 0
M  V30 3672 H 346.607 -4.27708 4.35773 0
M  V30 3673 H 348.021 -2.20642 5.29141 0
M  V30 3674 H 346.418 -1.58942 5.78669 0
M  V30 3675 H 347.488 -0.561506 4.81638 0
M  V30 3676 N 348.832 -1.54138 -0.328536 0
M  V30 3677 C 349.779 -1.83176 -1.40411 0
M  V30 3678 C 350.749 -0.678494 -1.5161 0
M  V30 3679 O 351.934 -0.92443 -1.6691 0
M  V30 3680 C 349.074 -2.06035 -2.76846 0
M  V30 3681 C 348.187 -3.33727 -2.74318 0
M  V30 3682 C 347.322 -3.46574 -4.02567 0
M  V30 3683 C 346.361 -4.68159 -3.94327 0
M  V30 3684 N 345.498 -4.77959 -5.14296 0
M  V30 3685 H 350.338 -2.74938 -1.14948 0
M  V30 3686 H 347.875 -1.36166 -0.556538 0
M  V30 3687 H 349.833 -2.1728 -3.56153 0
M  V30 3688 H 348.463 -1.1757 -3.00628 0
M  V30 3689 H 347.515 -3.31246 -1.8703 0
M  V30 3690 H 348.827 -4.23139 -2.64111 0
M  V30 3691 H 347.981 -3.57333 -4.90304 0
M  V30 3692 H 346.72 -2.55245 -4.15574 0
M  V30 3693 H 345.725 -4.57461 -3.04974 0
M  V30 3694 H 346.95 -5.60868 -3.82889 0
M  V30 3695 H 344.896 -3.89544 -5.27818 0
M  V30 3696 H 344.813 -5.6133 -5.06404 0
M  V30 3697 H 346.081 -4.93044 -6.03761 0
M  V30 3698 N 350.31 0.590341 -1.46126 0
M  V30 3699 C 351.721 1.17243 -1.45296 0
M  V30 3700 C 352.072 1.95281 -0.189723 0
M  V30 3701 O 351.197 2.04502 0.707674 0
M  V30 3702 C 351.792 2.13284 -2.6324 0
M  V30 3703 C 350.351 2.66832 -2.65476 0
M  V30 3704 C 349.498 1.42557 -2.3785 0
M  V30 3705 H 352.449 0.378692 -1.54116 0
M  V30 3706 H 352.47 2.96619 -2.38323 0
M  V30 3707 H 351.982 1.56459 -3.55165 0
M  V30 3708 H 350.083 3.27548 -1.77603 0
M  V30 3709 H 350.196 3.10088 -3.65215 0
M  V30 3710 H 348.56 1.72107 -1.87753 0
M  V30 3711 H 349.343 0.875741 -3.31942 0
M  V30 3712 N 351.788 1.33704 0.83433 0
M  V30 3713 C 352.736 1.24323 1.96587 0
M  V30 3714 C 353.73 0.143659 1.6879 0
M  V30 3715 O 354.936 0.30791 1.77347 0
M  V30 3716 H 351.311 0.385925 0.645419 0
M  V30 3717 H 353.282 2.19978 2.01624 0
M  V30 3718 C 352.031 1.00394 3.32891 0
M  V30 3719 H 351.354 1.84231 3.54822 0
M  V30 3720 H 352.794 0.97862 4.12552 0
M  V30 3721 C 351.253 -0.293047 3.35623 0
M  V30 3722 O 351.783 -1.29823 3.80143 0
M  V30 3723 N 349.989 -0.322174 2.88809 0
M  V30 3724 H 349.536 0.496379 2.52772 0
M  V30 3725 H 349.494 -1.18977 2.91019 0
M  V30 3726 N 353.266 -1.05314 1.17247 0
M  V30 3727 C 354.199 -2.12512 0.831507 0
M  V30 3728 C 355.177 -1.61351 -0.201168 0
M  V30 3729 O 356.361 -1.88317 -0.0829831 0
M  V30 3730 C 353.488 -3.37848 0.24015 0
M  V30 3731 C 352.534 -4.07832 1.24801 0
M  V30 3732 S 353.367 -4.56537 2.79882 0
M  V30 3733 C 354.523 -5.85122 2.22223 0
M  V30 3734 H 354.756 -2.41106 1.7394 0
M  V30 3735 H 352.289 -1.17896 0.996988 0
M  V30 3736 H 354.247 -4.10391 -0.0945588 0
M  V30 3737 H 352.908 -3.07392 -0.645668 0
M  V30 3738 H 352.101 -4.97883 0.78287 0
M  V30 3739 H 351.703 -3.41348 1.52831 0
M  V30 3740 H 353.995 -6.58408 1.59703 0
M  V30 3741 H 354.938 -6.36381 3.10523 0
M  V30 3742 H 355.346 -5.39626 1.65722 0
M  V30 3743 N 354.744 -0.972509 -1.24016 0
M  V30 3744 C 355.99 -0.637978 -1.92504 0
M  V30 3745 C 356.323 0.825383 -1.75787 0
M  V30 3746 O 355.598 1.59442 -1.11393 0
M  V30 3747 C 355.881 -1.01942 -3.45369 0
M  V30 3748 C 355.734 -2.53983 -3.71231 0
M  V30 3749 C 357.053 -0.55751 -4.36555 0
M  V30 3750 H 354.172 -0.233248 -0.699117 0
M  V30 3751 H 356.814 -1.21238 -1.46292 0
M  V30 3752 H 354.964 -0.530656 -3.84859 0
M  V30 3753 H 356.636 -3.10374 -3.41271 0
M  V30 3754 H 354.879 -2.96968 -3.16216 0
M  V30 3755 H 355.55 -2.75723 -4.78206 0
M  V30 3756 H 358.026 -0.977029 -4.04467 0
M  V30 3757 H 356.902 -0.85292 -5.42233 0
M  V30 3758 H 357.163 0.542328 -4.38761 0
M  V30 3759 N 356.222 1.38976 -0.743202 0
M  V30 3760 C 357.45 2.04636 -0.30525 0
M  V30 3761 C 357.865 1.56044 1.06281 0
M  V30 3762 O 357.222 0.728921 1.67311 0
M  V30 3763 C 357.273 3.60193 -0.307177 0
M  V30 3764 O 356.994 4.06998 -1.62124 0
M  V30 3765 C 358.495 4.4306 0.145928 0
M  V30 3766 H 355.715 0.65788 -0.132041 0
M  V30 3767 H 358.259 1.77866 -1.00915 0
M  V30 3768 H 356.414 3.85835 0.347898 0
M  V30 3769 H 356.828 5.01371 -1.54036 0
M  V30 3770 H 358.302 5.51921 0.0934183 0
M  V30 3771 H 358.779 4.22706 1.19231 0
M  V30 3772 H 359.385 4.22584 -0.479886 0
M  V30 3773 N 357.7 0.491464 1.49741 0
M  V30 3774 C 358.663 -0.280906 2.27472 0
M  V30 3775 C 359.663 -0.902454 1.33088 0
M  V30 3776 O 360.853 -0.768465 1.56334 0
M  V30 3777 C 357.985 -1.40209 3.10732 0
M  V30 3778 H 359.178 0.401056 2.97206 0
M  V30 3779 H 356.731 0.246131 1.5435 0
M  V30 3780 H 357.466 -2.11849 2.45541 0
M  V30 3781 H 357.251 -0.961969 3.80117 0
M  V30 3782 H 358.741 -1.9464 3.69466 0
M  V30 3783 N 359.178 -1.55987 0.224894 0
M  V30 3784 C 360.426 -1.97998 -0.405099 0
M  V30 3785 C 360.747 -1.11387 -1.60056 0
M  V30 3786 O 360.017 -0.191645 -1.9496 0
M  V30 3787 H 358.597 -0.731235 -0.152658 0
M  V30 3788 H 361.259 -1.92279 0.318567 0
M  V30 3789 H 360.355 -3.03463 -0.729167 0
M  V30 3790 N 360.656 0.0484629 -1.57525 0
M  V30 3791 C 361.886 0.754326 -1.92337 0
M  V30 3792 C 362.294 1.70443 -0.82132 0
M  V30 3793 O 361.637 1.82466 0.21254 0
M  V30 3794 C 361.699 1.58231 -3.22805 0
M  V30 3795 C 361.363 0.799074 -4.4996 0
M  V30 3796 C 362.36 0.1079 -5.19788 0
M  V30 3797 C 360.045 0.759345 -4.96527 0
M  V30 3798 C 362.039 -0.612516 -6.3445 0
M  V30 3799 C 359.726 0.0351713 -6.1109 0
M  V30 3800 C 360.724 -0.649537 -6.79904 0
M  V30 3801 O 360.412 -1.36199 -7.92278 0
M  V30 3802 H 360.144 0.218257 -0.639797 0
M  V30 3803 H 362.698 0.0159295 -2.05394 0
M  V30 3804 H 360.928 2.36406 -3.06021 0
M  V30 3805 H 362.617 2.16898 -3.43089 0
M  V30 3806 H 363.383 0.129748 -4.84826 0
M  V30 3807 H 359.262 1.28177 -4.42822 0
M  V30 3808 H 362.806 -1.14751 -6.88097 0
M  V30 3809 H 358.703 0.0113314 -6.45499 0
M  V30 3810 H 359.471 -1.27366 -8.0853 0
M  V30 3811 N 362.134 1.5431 0.320358 0
M  V30 3812 C 363.044 1.86946 1.41734 0
M  V30 3813 C 364.06 0.761689 1.56443 0
M  V30 3814 O 365.236 1.05629 1.71477 0
M  V30 3815 C 362.301 2.09293 2.76401 0
M  V30 3816 C 361.362 3.33082 2.70841 0
M  V30 3817 C 360.595 3.54353 3.99086 0
M  V30 3818 O 360.818 2.79002 4.97508 0
M  V30 3819 O 359.752 4.47838 4.0215 0
M  V30 3820 H 363.578 2.80232 1.17062 0
M  V30 3821 H 361.163 1.40255 0.514673 0
M  V30 3822 H 363.045 2.25303 3.56113 0
M  V30 3823 H 361.72 1.19194 3.00956 0
M  V30 3824 H 360.627 3.22454 1.89668 0
M  V30 3825 H 361.96 4.23249 2.5124 0
M  V30 3826 N 363.613 -0.582584 1.46437 0
M  V30 3827 C 364.853 -1.35184 1.53312 0
M  V30 3828 C 365.217 -1.9115 0.180508 0
M  V30 3829 O 366.418 -2.68514 0.124017 0
M  V30 3830 C 364.689 -2.45089 2.60127 0
M  V30 3831 S 366.248 -3.32439 2.86408 0
M  V30 3832 H 363.066 -0.460559 0.54167 0
M  V30 3833 H 365.668 -0.669709 1.83671 0
M  V30 3834 H 364.372 -2.02366 3.57038 0
M  V30 3835 H 363.903 -3.18074 2.315 0
M  V30 3836 H 365.918 -4.43924 2.21688 0
M  V30 3837 N 365.091 -1.34144 -0.827227 0
M  V30 3838 C 366.319 -1.29325 -1.61501 0
M  V30 3839 C 366.734 0.13354 -1.88327 0
M  V30 3840 O 366.091 1.0793 -1.47164 0
M  V30 3841 C 366.142 -2.07746 -2.95844 0
M  V30 3842 O 365.863 -3.4486 -2.70191 0
M  V30 3843 C 367.364 -2.10273 -3.90256 0
M  V30 3844 H 364.584 -0.445069 -0.50215 0
M  V30 3845 H 367.128 -1.76693 -1.02955 0
M  V30 3846 H 365.283 -1.6403 -3.5096 0
M  V30 3847 H 365.697 -3.85345 -3.55822 0
M  V30 3848 H 367.171 -2.69575 -4.81698 0
M  V30 3849 H 367.648 -1.096 -4.25305 0
M  V30 3850 H 368.254 -2.54059 -3.41078 0
M  V30 3851 N 366.569 1.04691 -1.17803 0
M  V30 3852 C 367.532 2.10724 -0.901545 0
M  V30 3853 C 368.532 1.6042 0.110437 0
M  V30 3854 O 369.722 1.7377 -0.122303 0
M  V30 3855 C 366.854 3.39084 -0.351409 0
M  V30 3856 H 368.047 2.36686 -1.84174 0
M  V30 3857 H 365.6 1.21015 -0.98919 0
M  V30 3858 H 366.335 3.18782 0.59569 0
M  V30 3859 H 366.12 3.76909 -1.08083 0
M  V30 3860 H 367.61 4.17227 -0.176451 0
M  V30 3861 N 368.047 0.979072 1.23499 0
M  V30 3862 C 368.994 0.517904 2.24914 0
M  V30 3863 C 369.964 -0.442525 1.60097 0
M  V30 3864 O 371.149 -0.350365 1.87556 0
M  V30 3865 C 368.289 -0.174813 3.44657 0
M  V30 3866 C 367.402 0.825721 4.24035 0
M  V30 3867 C 366.537 0.107946 5.3109 0
M  V30 3868 C 365.576 1.09778 6.02175 0
M  V30 3869 N 364.713 0.40925 7.00906 0
M  V30 3870 H 369.553 1.38751 2.63727 0
M  V30 3871 H 367.09 0.695303 1.2963 0
M  V30 3872 H 369.048 -0.593233 4.12961 0
M  V30 3873 H 367.678 -1.0083 3.06648 0
M  V30 3874 H 366.73 1.36253 3.55161 0
M  V30 3875 H 368.042 1.58005 4.73113 0
M  V30 3876 H 367.196 -0.367904 6.05583 0
M  V30 3877 H 365.935 -0.678994 4.8295 0
M  V30 3878 H 364.94 1.5844 5.26476 0
M  V30 3879 H 366.165 1.88536 6.52404 0
M  V30 3880 H 364.111 -0.358506 6.5502 0
M  V30 3881 H 364.028 1.10226 7.47921 0
M  V30 3882 H 365.296 -0.0442557 7.79487 0
M  V30 3883 N 369.525 -1.3858 0.750561 0
M  V30 3884 C 370.753 -2.04471 0.316098 0
M  V30 3885 C 371.168 -1.56606 -1.05452 0
M  V30 3886 O 370.525 -0.737784 -1.66922 0
M  V30 3887 C 370.576 -3.60025 0.326275 0
M  V30 3888 O 370.297 -4.06133 1.6428 0
M  V30 3889 C 371.798 -4.43131 -0.122429 0
M  V30 3890 H 369.018 -0.65717 0.135528 0
M  V30 3891 H 371.562 -1.77329 1.01857 0
M  V30 3892 H 369.717 -3.86014 -0.327431 0
M  V30 3893 H 370.131 -5.00547 1.56693 0
M  V30 3894 H 371.605 -5.51963 -0.0641473 0
M  V30 3895 H 372.082 -4.23333 -1.16988 0
M  V30 3896 H 372.688 -4.22323 0.50229 0
M  V30 3897 N 371.003 -0.499398 -1.49478 0
M  V30 3898 C 372.231 0.0425456 -2.06856 0
M  V30 3899 C 372.646 1.30964 -1.35992 0
M  V30 3900 O 372.003 1.77172 -0.437762 0
M  V30 3901 C 372.054 0.301735 -3.60239 0
M  V30 3902 O 371.775 -0.915127 -4.28436 0
M  V30 3903 C 373.276 0.887499 -4.34325 0
M  V30 3904 H 370.496 -0.0197482 -0.670709 0
M  V30 3905 H 373.04 -0.696297 -1.92281 0
M  V30 3906 H 371.195 0.990556 -3.74522 0
M  V30 3907 H 371.609 -0.676993 -5.20113 0
M  V30 3908 H 373.083 1.01845 -5.42523 0
M  V30 3909 H 373.56 1.88488 -3.96698 0
M  V30 3910 H 374.166 0.236196 -4.24644 0
M  V30 3911 N 372.481 1.55866 -0.233164 0
M  V30 3912 C 373.709 2.02998 0.399905 0
M  V30 3913 C 374.124 1.11274 1.52524 0
M  V30 3914 O 373.481 0.124528 1.82075 0
M  V30 3915 C 373.532 3.4958 0.920639 0
M  V30 3916 O 373.253 4.37808 -0.159834 0
M  V30 3917 C 374.754 4.12411 1.62578 0
M  V30 3918 H 371.974 0.664006 0.0966281 0
M  V30 3919 H 374.518 2.0143 -0.353013 0
M  V30 3920 H 372.673 3.51727 1.62379 0
M  V30 3921 H 373.087 5.23981 0.23337 0
M  V30 3922 H 374.561 5.16711 1.94201 0
M  V30 3923 H 375.038 3.5809 2.54299 0
M  V30 3924 H 375.644 4.14148 0.967553 0
M  V30 3925 N 373.959 -0.0401083 1.57549 0
M  V30 3926 C 374.891 -1.07149 2.02612 0
M  V30 3927 C 375.904 -1.33126 0.937085 0
M  V30 3928 O 377.093 -1.30808 1.21456 0
M  V30 3929 C 374.193 -2.41561 2.37701 0
M  V30 3930 C 373.366 -2.35096 3.68848 0
M  V30 3931 C 372.425 -3.51867 3.91249 0
M  V30 3932 O 371.451 -3.3186 4.62447 0
M  V30 3933 N 372.653 -4.73351 3.36035 0
M  V30 3934 H 375.418 -0.687485 2.91708 0
M  V30 3935 H 372.979 -0.228248 1.60283 0
M  V30 3936 H 374.971 -3.18379 2.49833 0
M  V30 3937 H 373.541 -2.71846 1.54332 0
M  V30 3938 H 372.761 -1.4345 3.67173 0
M  V30 3939 H 374.049 -2.27908 4.54901 0
M  V30 3940 H 373.447 -4.92507 2.78304 0
M  V30 3941 H 372.004 -5.47572 3.53565 0
M  V30 3942 N 375.437 -1.54477 -0.31217 0
M  V30 3943 C 376.714 -1.63891 -1.06767 0
M  V30 3944 C 377.094 -0.480028 -2.0557 0
M  V30 3945 O 376.442 0.524487 -2.22399 0
M  V30 3946 C 376.652 -3.01402 -1.75948 0
M  V30 3947 C 378 -3.57838 -2.28554 0
M  V30 3948 O 379.024 -3.03782 -1.85998 0
M  V30 3949 O 377.883 -4.52462 -3.06497 0
M  V30 3950 H 374.977 -0.664125 -0.492816 0
M  V30 3951 H 377.523 -1.66823 -0.311149 0
M  V30 3952 H 376.295 -3.77187 -1.04144 0
M  V30 3953 H 375.918 -3.02199 -2.58383 0
M  V30 3954 N 376.915 0.57481 -1.46744 0
M  V30 3955 C 378.161 1.3347 -1.52688 0
M  V30 3956 C 378.494 1.93353 -0.181229 0
M  V30 3957 O 377.769 1.76912 0.808237 0
M  V30 3958 C 378.052 2.45811 -2.63152 0
M  V30 3959 C 377.905 1.90912 -4.07275 0
M  V30 3960 C 379.224 3.47822 -2.69644 0
M  V30 3961 H 376.343 0.483935 -0.555856 0
M  V30 3962 H 378.985 0.644968 -1.78718 0
M  V30 3963 H 377.135 3.04646 -2.41088 0
M  V30 3964 H 378.807 1.36473 -4.4065 0
M  V30 3965 H 377.05 1.21691 -4.16382 0
M  V30 3966 H 377.721 2.72042 -4.80309 0
M  V30 3967 H 380.197 2.9888 -2.895 0
M  V30 3968 H 379.073 4.23876 -3.48742 0
M  V30 3969 H 379.334 4.05555 -1.76005 0
M  V30 3970 N 378.394 1.34581 0.820102 0
M  V30 3971 C 379.642 1.26845 1.57336 0
M  V30 3972 C 379.963 -0.160667 1.94337 0
M  V30 3973 O 379.233 -1.09396 1.6251 0
M  V30 3974 H 377.813 0.466514 0.583415 0
M  V30 3975 H 380.475 1.68526 0.979027 0
M  V30 3976 H 379.571 1.87513 2.4949 0
M  V30 3977 N 379.872 -1.04064 1.18357 0
M  V30 3978 C 381.119 -1.77265 0.978947 0
M  V30 3979 C 381.447 -1.88189 -0.491428 0
M  V30 3980 O 380.702 -1.38653 -1.38108 0
M  V30 3981 C 381.001 -3.20634 1.57888 0
M  V30 3982 C 380.667 -3.29743 3.07539 0
M  V30 3983 C 379.329 -3.31937 3.48384 0
M  V30 3984 C 381.681 -3.29841 4.03552 0
M  V30 3985 C 379.009 -3.3187 4.83818 0
M  V30 3986 C 381.361 -3.31313 5.38901 0
M  V30 3987 C 380.025 -3.31799 5.79194 0
M  V30 3988 H 379.295 -0.648659 0.358222 0
M  V30 3989 H 381.942 -1.22225 1.47422 0
M  V30 3990 H 380.247 -3.78675 1.00561 0
M  V30 3991 H 381.944 -3.75917 1.39598 0
M  V30 3992 H 378.534 -3.28757 2.74986 0
M  V30 3993 H 382.718 -3.27337 3.73047 0
M  V30 3994 H 377.974 -3.30562 5.14333 0
M  V30 3995 H 382.148 -3.30338 6.13066 0
M  V30 3996 H 379.775 -3.315 6.84114 0
M  V30 3997 N 381.35 -0.985608 -1.22978 0
M  V30 3998 C 382.28 -0.549649 -2.26939 0
M  V30 3999 C 383.261 0.419803 -1.64838 0
M  V30 4000 O 384.446 0.31203 -1.91677 0
M  V30 4001 C 381.576 0.143652 -3.47003 0
M  V30 4002 C 380.53 -0.743606 -4.21491 0
M  V30 4003 C 379.856 0.0822027 -5.34637 0
M  V30 4004 C 381.156 -2.03694 -4.80943 0
M  V30 4005 H 382.85 -1.41862 -2.63658 0
M  V30 4006 H 380.396 -0.683571 -1.26741 0
M  V30 4007 H 382.349 0.459985 -4.18882 0
M  V30 4008 H 381.073 1.04711 -3.09359 0
M  V30 4009 H 379.732 -1.04347 -3.51436 0
M  V30 4010 H 379.38 0.986359 -4.93234 0
M  V30 4011 H 379.08 -0.508377 -5.85397 0
M  V30 4012 H 380.604 0.392797 -6.09335 0
M  V30 4013 H 382.018 -1.78504 -5.44802 0
M  V30 4014 H 380.415 -2.57573 -5.42011 0
M  V30 4015 H 381.485 -2.72042 -4.01399 0
M  V30 4016 N 382.828 1.3818 -0.7579 0
M  V30 4017 C 384.056 2.04301 -0.326937 0
M  V30 4018 C 384.471 1.57163 1.0462 0
M  V30 4019 O 383.828 0.746626 1.66529 0
M  V30 4020 C 383.879 3.59846 -0.345363 0
M  V30 4021 O 383.6 4.05256 -1.66432 0
M  V30 4022 C 385.101 4.4319 0.098927 0
M  V30 4023 H 382.321 0.656443 -0.139012 0
M  V30 4024 H 384.865 1.76786 -1.02796 0
M  V30 4025 H 383.02 3.86182 0.306955 0
M  V30 4026 H 383.434 4.99709 -1.59345 0
M  V30 4027 H 384.908 5.51989 0.0348745 0
M  V30 4028 H 385.385 4.23947 1.14741 0
M  V30 4029 H 385.991 4.22051 -0.52468 0
M  V30 4030 N 384.306 0.507319 1.49211 0
M  V30 4031 C 385.552 -0.0350047 2.0277 0
M  V30 4032 C 385.885 -1.3606 1.38569 0
M  V30 4033 O 385.16 -1.87321 0.523542 0
M  V30 4034 C 385.443 -0.180916 3.59645 0
M  V30 4035 C 385.296 1.16825 4.34364 0
M  V30 4036 C 386.615 -0.918558 4.30407 0
M  V30 4037 H 383.734 -0.0112473 0.736914 0
M  V30 4038 H 386.376 0.659956 1.7817 0
M  V30 4039 H 384.526 -0.772826 3.80736 0
M  V30 4040 H 386.198 1.79952 4.24753 0
M  V30 4041 H 384.441 1.75594 3.96673 0
M  V30 4042 H 385.112 1.01939 5.42506 0
M  V30 4043 H 387.588 -0.41649 4.1401 0
M  V30 4044 H 386.464 -0.989505 5.39907 0
M  V30 4045 H 386.725 -1.96373 3.96093 0
M  V30 4046 N 385.784 -1.5574 0.241426 0
M  V30 4047 C 387.2 -1.59196 -0.113548 0
M  V30 4048 C 387.4 -1.25852 -1.57364 0
M  V30 4049 O 386.456 -1.00322 -2.31715 0
M  V30 4050 C 387.769 -2.99814 0.230695 0
M  V30 4051 C 389.317 -3.12513 0.174547 0
M  V30 4052 C 389.792 -4.55342 0.492744 0
M  V30 4053 N 391.283 -4.61076 0.443043 0
M  V30 4054 C 392.018 -5.6956 0.662484 0
M  V30 4055 N 391.514 -6.86328 0.944761 0
M  V30 4056 N 393.307 -5.58957 0.593564 0
M  V30 4057 H 385.458 -1.75685 1.19368 0
M  V30 4058 H 387.721 -0.81756 0.479896 0
M  V30 4059 H 387.427 -3.28932 1.24485 0
M  V30 4060 H 387.301 -3.74568 -0.444833 0
M  V30 4061 H 389.688 -2.83179 -0.830277 0
M  V30 4062 H 389.769 -2.40045 0.883845 0
M  V30 4063 H 389.413 -4.85396 1.4951 0
M  V30 4064 H 389.343 -5.26062 -0.23797 0
M  V30 4065 H 391.834 -3.77179 0.233374 0
M  V30 4066 H 392.147 -7.64935 1.09977 0
M  V30 4067 H 390.492 -6.88025 0.982175 0
M  V30 4068 H 393.683 -4.66611 0.373123 0
M  V30 4069 H 393.856 -6.43433 0.767981 0
M  V30 4070 N 387.262 0.0317525 -1.57568 0
M  V30 4071 C 388.49 0.734949 -1.93407 0
M  V30 4072 C 388.905 1.69036 -0.84096 0
M  V30 4073 O 388.262 1.81582 0.182836 0
M  V30 4074 C 388.313 1.49432 -3.29169 0
M  V30 4075 O 388.034 0.577261 -4.3428 0
M  V30 4076 C 389.535 2.29492 -3.79273 0
M  V30 4077 H 386.755 0.206706 -0.638368 0
M  V30 4078 H 389.299 -0.00992046 -2.04498 0
M  V30 4079 H 387.454 2.1911 -3.19483 0
M  V30 4080 H 387.868 1.10952 -5.1263 0
M  V30 4081 H 389.342 2.78172 -4.76785 0
M  V30 4082 H 389.819 3.10794 -3.10328 0
M  V30 4083 H 390.425 1.64894 -3.92033 0
M  V30 4084 N 388.74 1.54641 0.303973 0
M  V30 4085 C 389.67 1.88386 1.3796 0
M  V30 4086 C 390.651 0.742485 1.5304 0
M  V30 4087 O 391.836 0.997959 1.66597 0
M  V30 4088 C 388.966 2.12854 2.74427 0
M  V30 4089 C 387.92 3.28702 2.74115 0
M  V30 4090 C 387.246 3.38582 4.13844 0
M  V30 4091 C 388.546 4.65881 2.3612 0
M  V30 4092 H 390.24 2.78474 1.09966 0
M  V30 4093 H 387.786 1.33988 0.527556 0
M  V30 4094 H 389.739 2.35047 3.49758 0
M  V30 4095 H 388.463 1.19535 3.03939 0
M  V30 4096 H 387.122 3.06428 2.0124 0
M  V30 4097 H 386.77 2.42784 4.40528 0
M  V30 4098 H 386.47 4.16453 4.14537 0
M  V30 4099 H 387.994 3.63031 4.90959 0
M  V30 4100 H 389.408 4.87823 3.01167 0
M  V30 4101 H 387.805 5.46444 2.48031 0
M  V30 4102 H 388.875 4.66799 1.3125 0
M  V30 4103 N 390.218 -0.567019 1.47046 0
M  V30 4104 C 391.634 -0.891975 1.32348 0
M  V30 4105 C 391.834 -1.99154 0.306616 0
M  V30 4106 O 390.89 -2.50883 -0.28532 0
M  V30 4107 C 392.203 -1.29449 2.7141 0
M  V30 4108 C 393.751 -1.40646 2.79621 0
M  V30 4109 C 394.226 -1.84257 4.19301 0
M  V30 4110 N 395.717 -1.91424 4.21795 0
M  V30 4111 C 396.452 -2.26476 5.26779 0
M  V30 4112 N 395.948 -2.60211 6.42077 0
M  V30 4113 N 397.741 -2.27166 5.14152 0
M  V30 4114 H 389.892 0.159074 2.11803 0
M  V30 4115 H 392.155 0.00849752 0.947962 0
M  V30 4116 H 391.861 -0.560448 3.47206 0
M  V30 4117 H 391.735 -2.25273 3.02542 0
M  V30 4118 H 394.122 -2.13133 2.04104 0
M  V30 4119 H 394.203 -0.430339 2.52154 0
M  V30 4120 H 393.847 -1.12343 4.95319 0
M  V30 4121 H 393.777 -2.82855 4.44185 0
M  V30 4122 H 396.268 -1.6778 3.38612 0
M  V30 4123 H 396.581 -2.85956 7.17948 0
M  V30 4124 H 394.926 -2.57813 6.45413 0
M  V30 4125 H 398.117 -2.00244 4.23107 0
M  V30 4126 H 398.29 -2.54154 5.96079 0
M  V30 4127 N 391.696 -1.35014 -0.812953 0
M  V30 4128 C 393.112 -1.14914 -1.10757 0
M  V30 4129 C 393.312 0.0426818 -2.01455 0
M  V30 4130 O 392.368 0.715212 -2.42159 0
M  V30 4131 C 393.681 -2.44911 -1.74468 0
M  V30 4132 C 395.229 -2.5106 -1.86917 0
M  V30 4133 C 395.704 -3.81085 -2.54044 0
M  V30 4134 N 397.195 -3.82301 -2.61535 0
M  V30 4135 C 397.93 -4.79634 -3.14227 0
M  V30 4136 N 397.426 -5.87353 -3.67407 0
M  V30 4137 N 399.219 -4.67078 -3.12721 0
M  V30 4138 H 391.37 -2.1136 -0.20989 0
M  V30 4139 H 393.633 -0.935128 -0.155692 0
M  V30 4140 H 393.339 -3.32267 -1.15289 0
M  V30 4141 H 393.213 -2.58989 -2.74234 0
M  V30 4142 H 395.6 -1.64137 -2.45241 0
M  V30 4143 H 395.681 -2.40901 -0.860242 0
M  V30 4144 H 395.325 -4.68402 -1.96372 0
M  V30 4145 H 395.255 -3.88529 -3.55461 0
M  V30 4146 H 397.746 -3.04465 -2.23851 0
M  V30 4147 H 398.059 -6.57624 -4.05894 0
M  V30 4148 H 396.404 -5.91054 -3.65623 0
M  V30 4149 H 399.595 -3.82067 -2.70449 0
M  V30 4150 H 399.768 -5.43098 -3.53481 0
M  V30 4151 N 393.175 1.03435 -1.18907 0
M  V30 4152 C 394.403 1.80381 -1.01342 0
M  V30 4153 C 394.818 1.83649 0.438005 0
M  V30 4154 O 394.175 1.27655 1.30424 0
M  V30 4155 C 394.226 3.25689 -1.56873 0
M  V30 4156 O 393.947 3.22673 -2.96334 0
M  V30 4157 C 395.448 4.19255 -1.44014 0
M  V30 4158 H 392.668 0.56784 -0.35749 0
M  V30 4159 H 395.212 1.30317 -1.576 0
M  V30 4160 H 393.367 3.72962 -1.04777 0
M  V30 4161 H 393.781 4.13748 -3.22355 0
M  V30 4162 H 395.255 5.19123 -1.87657 0
M  V30 4163 H 395.732 4.37467 -0.389815 0
M  V30 4164 H 396.338 3.77851 -1.95214 0
M  V30 4165 N 394.653 0.992116 1.22453 0
M  V30 4166 C 395.899 0.668523 1.91464 0
M  V30 4167 C 396.232 -0.797313 1.77078 0
M  V30 4168 O 395.507 -1.5765 1.13916 0
M  V30 4169 C 395.79 1.07424 3.43703 0
M  V30 4170 C 395.643 2.59857 3.67143 0
M  V30 4171 C 396.962 0.626891 4.35612 0
M  V30 4172 H 394.081 0.244341 0.695318 0
M  V30 4173 H 396.723 1.2355 1.44345 0
M  V30 4174 H 394.873 0.591816 3.83966 0
M  V30 4175 H 396.545 3.15764 3.3629 0
M  V30 4176 H 394.788 3.01961 3.11451 0
M  V30 4177 H 395.459 2.83296 4.73759 0
M  V30 4178 H 397.935 1.04125 4.02861 0
M  V30 4179 H 396.811 0.939076 5.40807 0
M  V30 4180 H 397.072 -0.472457 4.39568 0
M  V30 4181 N 396.131 -1.37776 0.765217 0
M  V30 4182 C 397.542 -1.82521 0.392819 0
M  V30 4183 C 397.893 -1.63789 -1.08017 0
M  V30 4184 O 397.018 -1.14542 -1.83601 0
M  V30 4185 C 397.613 -3.31358 0.706214 0
M  V30 4186 C 396.172 -3.74406 0.386952 0
M  V30 4187 C 395.319 -2.60394 0.953422 0
M  V30 4188 H 398.27 -1.2634 0.960412 0
M  V30 4189 H 398.291 -3.80498 -0.0114706 0
M  V30 4190 H 397.803 -3.44959 1.77833 0
M  V30 4191 H 395.904 -3.66377 -0.678112 0
M  V30 4192 H 396.017 -4.70749 0.890636 0
M  V30 4193 H 394.381 -2.51878 0.378064 0
M  V30 4194 H 395.164 -2.76791 2.03081 0
M  V30 4195 N 397.609 -0.515225 -1.4894 0
M  V30 4196 C 399.02 -0.0710067 -1.86565 0
M  V30 4197 C 399.371 1.34733 -1.42623 0
M  V30 4198 O 398.496 2.00653 -0.810379 0
M  V30 4199 C 399.091 -0.122083 -3.3858 0
M  V30 4200 C 397.65 0.266863 -3.75453 0
M  V30 4201 C 396.797 -0.488376 -2.72966 0
M  V30 4202 H 399.748 -0.727266 -1.41055 0
M  V30 4203 H 399.769 0.669818 -3.74558 0
M  V30 4204 H 399.281 -1.15448 -3.70531 0
M  V30 4205 H 397.382 1.30196 -3.49113 0
M  V30 4206 H 397.495 -0.0624811 -4.79059 0
M  V30 4207 H 395.859 0.0635622 -2.54621 0
M  V30 4208 H 396.642 -1.52113 -3.07761 0
M  V30 4209 N 399.087 1.5561 -0.249682 0
M  V30 4210 C 400.05 2.20217 0.635394 0
M  V30 4211 C 401.05 1.17227 1.10066 0
M  V30 4212 O 402.24 1.42292 1.00492 0
M  V30 4213 C 399.372 2.84794 1.87363 0
M  V30 4214 H 400.565 2.99814 0.0716752 0
M  V30 4215 H 398.118 1.563 -0.000153234 0
M  V30 4216 H 398.853 2.09142 2.47851 0
M  V30 4217 H 398.638 3.60241 1.5482 0
M  V30 4218 H 400.128 3.3423 2.5036 0
M  V30 4219 N 400.565 -0.0233959 1.57583 0
M  V30 4220 C 401.495 -1.02162 2.09965 0
M  V30 4221 C 402.476 -1.3735 1.00344 0
M  V30 4222 O 403.661 -1.46135 1.27899 0
M  V30 4223 C 400.791 -2.32081 2.58371 0
M  V30 4224 C 399.745 -2.1112 3.72307 0
M  V30 4225 C 399.071 -3.46848 4.06941 0
M  V30 4226 C 400.371 -1.49276 5.00514 0
M  V30 4227 H 402.065 -0.585557 2.93618 0
M  V30 4228 H 399.611 -0.280218 1.41247 0
M  V30 4229 H 401.564 -3.02249 2.93639 0
M  V30 4230 H 400.288 -2.77758 1.71808 0
M  V30 4231 H 398.947 -1.43384 3.37397 0
M  V30 4232 H 398.595 -3.90184 3.17436 0
M  V30 4233 H 398.295 -3.33646 4.83688 0
M  V30 4234 H 399.819 -4.18369 4.44747 0
M  V30 4235 H 401.233 -2.09368 5.33702 0
M  V30 4236 H 399.63 -1.46632 5.8191 0
M  V30 4237 H 400.7 -0.459217 4.82721 0
M  V30 4238 N 402.043 -1.548 -0.295768 0
M  V30 4239 C 403.454 -1.65274 -0.868411 0
M  V30 4240 C 403.805 -0.56481 -1.87894 0
M  V30 4241 O 402.93 0.29767 -2.14343 0
M  V30 4242 C 403.525 -2.99603 -1.58188 0
M  V30 4243 C 402.084 -3.12181 -2.10286 0
M  V30 4244 C 401.231 -2.6098 -0.93727 0
M  V30 4245 H 404.182 -1.58534 -0.0726422 0
M  V30 4246 H 404.203 -2.91319 -2.44772 0
M  V30 4247 H 403.715 -3.78764 -0.846151 0
M  V30 4248 H 401.816 -2.3775 -2.8689 0
M  V30 4249 H 401.929 -4.18415 -2.33379 0
M  V30 4250 H 400.293 -2.17564 -1.32431 0
M  V30 4251 H 401.076 -3.42623 -0.215414 0
M  V30 4252 N 403.521 0.559213 -1.47345 0
M  V30 4253 C 404.769 1.31388 -1.53563 0
M  V30 4254 C 405.09 1.93985 -0.198678 0
M  V30 4255 O 404.36 1.79825 0.777167 0
M  V30 4256 H 402.94 0.487901 -0.565652 0
M  V30 4257 H 405.602 0.65315 -1.8363 0
M  V30 4258 H 404.698 2.10844 -2.30111 0
M  V30 4259 N 404.999 1.35443 0.805782 0
M  V30 4260 C 406.245 1.28952 1.56522 0
M  V30 4261 C 406.578 -0.135597 1.93726 0
M  V30 4262 O 405.853 -1.08516 1.61414 0
M  V30 4263 C 406.136 2.19678 2.85331 0
M  V30 4264 C 405.989 3.7081 2.54598 0
M  V30 4265 C 407.308 2.09495 3.8704 0
M  V30 4266 H 404.427 0.469764 0.567883 0
M  V30 4267 H 407.069 1.65851 0.927001 0
M  V30 4268 H 405.219 1.8834 3.39795 0
M  V30 4269 H 406.891 4.12593 2.06312 0
M  V30 4270 H 405.134 3.91051 1.8778 0
M  V30 4271 H 405.805 4.29679 3.46525 0
M  V30 4272 H 408.281 2.37045 3.41978 0
M  V30 4273 H 407.157 2.75173 4.74943 0
M  V30 4274 H 407.418 1.07714 4.28777 0
M  V30 4275 N 406.477 -1.02803 1.19454 0
M  V30 4276 C 407.723 -1.76478 0.999171 0
M  V30 4277 C 408.056 -1.88456 -0.468828 0
M  V30 4278 O 407.331 -1.40198 -1.34814 0
M  V30 4279 C 407.614 -3.19044 1.66981 0
M  V30 4280 C 407.467 -3.14932 3.21151 0
M  V30 4281 C 408.786 -4.17456 1.39349 0
M  V30 4282 H 405.905 -0.640614 0.364393 0
M  V30 4283 H 408.547 -1.20005 1.47305 0
M  V30 4284 H 406.697 -3.67263 1.2669 0
M  V30 4285 H 408.369 -2.74605 3.70661 0
M  V30 4286 H 406.612 -2.52625 3.52652 0
M  V30 4287 H 407.283 -4.1566 3.63223 0
M  V30 4288 H 409.759 -3.77842 1.74283 0
M  V30 4289 H 408.635 -5.154 1.88823 0
M  V30 4290 H 408.896 -4.40949 0.318813 0
M  V30 4291 N 407.956 -0.998596 -1.21925 0
M  V30 4292 C 409.203 -0.677663 -1.90824 0
M  V30 4293 C 409.531 0.790905 -1.77693 0
M  V30 4294 O 408.786 1.58817 -1.14349 0
M  V30 4295 C 409.085 -1.03648 -3.42041 0
M  V30 4296 C 408.751 -2.49825 -3.75364 0
M  V30 4297 C 407.413 -2.8977 -3.8417 0
M  V30 4298 C 409.765 -3.44545 -3.91073 0
M  V30 4299 C 407.093 -4.23412 -4.06127 0
M  V30 4300 C 409.445 -4.77853 -4.14535 0
M  V30 4301 C 408.109 -5.17531 -4.21566 0
M  V30 4302 H 407.379 -0.247975 -0.698276 0
M  V30 4303 H 410.026 -1.25584 -1.44571 0
M  V30 4304 H 408.331 -0.376457 -3.89987 0
M  V30 4305 H 410.028 -0.766113 -3.93614 0
M  V30 4306 H 406.618 -2.17866 -3.69097 0
M  V30 4307 H 410.802 -3.14853 -3.83642 0
M  V30 4308 H 406.058 -4.53734 -4.09799 0
M  V30 4309 H 410.232 -5.51189 -4.25633 0
M  V30 4310 H 407.859 -6.21102 -4.38333 0
M  V30 4311 N 409.434 1.37368 -0.772513 0
M  V30 4312 C 410.364 2.32856 -0.173304 0
M  V30 4313 C 411.345 1.55818 0.682262 0
M  V30 4314 O 412.53 1.84052 0.619566 0
M  V30 4315 C 409.66 3.40048 0.706007 0
M  V30 4316 C 408.614 4.27973 -0.0483144 0
M  V30 4317 C 407.94 5.26184 0.950491 0
M  V30 4318 C 409.24 5.07665 -1.22776 0
M  V30 4319 H 410.934 2.83217 -0.971002 0
M  V30 4320 H 408.48 1.3617 -0.468377 0
M  V30 4321 H 410.433 4.05827 1.13501 0
M  V30 4322 H 409.157 2.88214 1.53623 0
M  V30 4323 H 407.816 3.63726 -0.458107 0
M  V30 4324 H 407.464 4.7063 1.77529 0
M  V30 4325 H 407.164 5.85872 0.450314 0
M  V30 4326 H 408.688 5.94838 1.37842 0
M  V30 4327 H 410.102 5.66578 -0.875366 0
M  V30 4328 H 408.499 5.76681 -1.66007 0
M  V30 4329 H 409.569 4.40294 -2.03149 0
M  V30 4330 N 410.912 0.523116 1.48665 0
M  V30 4331 C 412.137 -0.0117284 2.07397 0
M  V30 4332 C 412.562 -1.28031 1.37803 0
M  V30 4333 O 411.92 -1.75836 0.441762 0
M  V30 4334 C 411.968 -0.225786 3.59892 0
M  V30 4335 O 411.072 -1.29592 3.91509 0
M  V30 4336 H 410.413 0.0360673 0.66302 0
M  V30 4337 H 412.943 0.729066 1.9117 0
M  V30 4338 H 412.953 -0.450552 4.05505 0
M  V30 4339 H 411.628 0.700944 4.09951 0
M  V30 4340 H 410.205 -1.05436 3.57684 0
M  V30 4341 N 412.39 -1.55475 0.257931 0
M  V30 4342 C 413.638 -1.98813 -0.363009 0
M  V30 4343 C 413.959 -1.14757 -1.57657 0
M  V30 4344 O 413.229 -0.232956 -1.9451 0
M  V30 4345 H 411.809 -0.734308 -0.137113 0
M  V30 4346 H 414.471 -1.9156 0.359281 0
M  V30 4347 H 413.567 -3.04941 -0.664634 0
M  V30 4348 N 413.868 0.0150385 -1.57593 0
M  V30 4349 C 415.116 0.701613 -1.8953 0
M  V30 4350 C 415.437 1.75139 -0.857396 0
M  V30 4351 O 414.707 1.95607 0.107194 0
M  V30 4352 H 413.287 0.26213 -0.699498 0
M  V30 4353 H 415.949 -0.0223304 -1.94887 0
M  V30 4354 H 415.045 1.18236 -2.88837 0
M  V30 4355 N 415.346 1.54954 0.287554 0
M  V30 4356 C 416.278 1.83224 1.37701 0
M  V30 4357 C 417.291 0.715898 1.46215 0
M  V30 4358 O 418.48 0.993565 1.48292 0
M  V30 4359 C 415.58 1.96723 2.75959 0
M  V30 4360 C 414.753 3.27253 2.90215 0
M  V30 4361 C 413.812 3.30998 4.09056 0
M  V30 4362 O 412.838 4.04457 4.00503 0
M  V30 4363 N 414.04 2.57353 5.20336 0
M  V30 4364 H 416.805 2.77254 1.138 0
M  V30 4365 H 414.366 1.54694 0.477652 0
M  V30 4366 H 416.358 1.96615 3.5373 0
M  V30 4367 H 414.928 1.09626 2.92747 0
M  V30 4368 H 414.148 3.40022 1.99447 0
M  V30 4369 H 415.436 4.13365 2.96659 0
M  V30 4370 H 414.834 1.97327 5.30169 0
M  V30 4371 H 413.391 2.62984 5.96391 0
M  V30 4372 N 416.824 -0.551391 1.4764 0
M  V30 4373 C 418.049 -1.33837 1.58437 0
M  V30 4374 C 418.474 -1.866 0.237063 0
M  V30 4375 O 417.832 -1.6328 -0.787994 0
M  V30 4376 C 417.88 -2.48014 2.61766 0
M  V30 4377 O 416.984 -3.50419 2.1744 0
M  V30 4378 H 416.325 -0.397299 0.532024 0
M  V30 4379 H 418.855 -0.665759 1.93465 0
M  V30 4380 H 418.865 -2.94503 2.82369 0
M  V30 4381 H 417.54 -2.08969 3.5959 0
M  V30 4382 H 416.117 -3.10196 2.06961 0
M  V30 4383 N 418.302 -1.35869 -0.798587 0
M  V30 4384 C 419.212 -1.31578 -1.94228 0
M  V30 4385 C 420.228 -0.21939 -1.72611 0
M  V30 4386 O 421.404 -0.450167 -1.96305 0
M  V30 4387 C 418.469 -1.09528 -3.28944 0
M  V30 4388 C 417.53 -2.28556 -3.63402 0
M  V30 4389 C 416.763 -2.07549 -4.9169 0
M  V30 4390 O 416.986 -1.046 -5.60727 0
M  V30 4391 O 415.92 -2.95106 -5.24591 0
M  V30 4392 H 419.746 -2.27847 -2.00796 0
M  V30 4393 H 417.331 -1.16322 -0.937526 0
M  V30 4394 H 419.213 -0.991127 -4.09579 0
M  V30 4395 H 417.888 -0.16315 -3.23289 0
M  V30 4396 H 416.795 -2.44538 -2.83112 0
M  V30 4397 H 418.128 -3.20244 -3.73771 0
M  V30 4398 N 419.78 1.02168 -1.19998 0
M  V30 4399 C 420.69 2.14069 -0.959774 0
M  V30 4400 C 421.706 1.73804 0.082655 0
M  V30 4401 O 422.882 2.01133 -0.103633 0
M  V30 4402 C 419.947 3.42936 -0.509459 0
M  V30 4403 C 419.008 3.97474 -1.62213 0
M  V30 4404 C 418.241 5.2019 -1.19321 0
M  V30 4405 O 418.464 5.70369 -0.0597726 0
M  V30 4406 O 417.398 5.67749 -1.99863 0
M  V30 4407 H 421.224 2.37199 -1.89658 0
M  V30 4408 H 418.809 1.12469 -0.983411 0
M  V30 4409 H 420.691 4.20551 -0.267322 0
M  V30 4410 H 419.366 3.21234 0.398821 0
M  V30 4411 H 418.273 3.21161 -1.9185 0
M  V30 4412 H 419.606 4.23555 -2.50723 0
M  V30 4413 N 421.258 1.00505 1.21394 0
M  V30 4414 C 422.168 0.574806 2.27449 0
M  V30 4415 C 423.184 -0.382206 1.6975 0
M  V30 4416 O 424.36 -0.246027 1.99892 0
M  V30 4417 C 421.425 -0.0917414 3.46579 0
M  V30 4418 C 420.486 0.909758 4.1955 0
M  V30 4419 C 419.719 0.274924 5.32991 0
M  V30 4420 O 419.942 -0.928254 5.62796 0
M  V30 4421 O 418.876 0.985877 5.93771 0
M  V30 4422 H 422.702 1.45744 2.66444 0
M  V30 4423 H 420.287 0.773923 1.27792 0
M  V30 4424 H 422.169 -0.464551 4.18832 0
M  V30 4425 H 420.844 -0.948755 3.09484 0
M  V30 4426 H 419.751 1.33372 3.49518 0
M  V30 4427 H 421.084 1.73636 4.60555 0
M  V30 4428 N 422.737 -1.36956 0.779787 0
M  V30 4429 C 423.7 -2.2851 0.177662 0
M  V30 4430 C 424.7 -1.48393 -0.619377 0
M  V30 4431 O 425.89 -1.68505 -0.441785 0
M  V30 4432 C 423.022 -3.32428 -0.755279 0
M  V30 4433 H 424.215 -2.83269 0.984823 0
M  V30 4434 H 421.768 -1.46358 0.548544 0
M  V30 4435 H 422.503 -2.82808 -1.58714 0
M  V30 4436 H 422.288 -3.91659 -0.185817 0
M  V30 4437 H 423.778 -4.00824 -1.17174 0
M  V30 4438 N 424.215 -0.530993 -1.48385 0
M  V30 4439 C 425.44 0.000729535 -2.074 0
M  V30 4440 C 425.865 1.27298 -1.3848 0
M  V30 4441 O 425.223 1.75599 -0.451081 0
M  V30 4442 C 425.271 0.206697 -3.60007 0
M  V30 4443 O 424.375 1.27514 -3.92191 0
M  V30 4444 H 423.716 -0.039583 -0.662819 0
M  V30 4445 H 426.246 -0.739194 -1.9078 0
M  V30 4446 H 426.256 0.42904 -4.05738 0
M  V30 4447 H 424.931 -0.722675 -4.09573 0
M  V30 4448 H 423.508 1.03537 -3.58238 0
M  V30 4449 N 425.693 1.55336 -0.266172 0
M  V30 4450 C 426.939 1.99692 0.353681 0
M  V30 4451 C 427.272 1.1543 1.56172 0
M  V30 4452 O 426.547 0.222218 1.93226 0
M  V30 4453 C 426.83 3.52316 0.74466 0
M  V30 4454 C 426.683 4.47337 -0.470101 0
M  V30 4455 C 428.002 4.10588 1.58447 0
M  V30 4456 H 425.121 0.725961 0.12708 0
M  V30 4457 H 427.763 1.86336 -0.371333 0
M  V30 4458 H 425.913 3.63829 1.36239 0
M  V30 4459 H 427.585 4.4778 -1.10864 0
M  V30 4460 H 425.828 4.19364 -1.10978 0
M  V30 4461 H 426.499 5.51788 -0.15291 0
M  V30 4462 H 428.975 4.02297 1.06286 0
M  V30 4463 H 427.851 5.17607 1.82686 0
M  V30 4464 H 428.112 3.60253 2.56262 0
M  V30 4465 N 427.171 -0.0066808 1.57599 0
M  V30 4466 C 428.119 -1.01851 2.09115 0
M  V30 4467 C 429.113 -1.36021 1.00969 0
M  V30 4468 O 430.319 -1.34663 1.19439 0
M  V30 4469 H 426.694 -0.346083 0.667631 0
M  V30 4470 H 428.665 -0.558394 2.93129 0
M  V30 4471 C 427.414 -2.30374 2.60429 0
M  V30 4472 H 426.737 -2.04947 3.43273 0
M  V30 4473 H 428.177 -2.99466 3.00161 0
M  V30 4474 C 426.636 -3.00893 1.51542 0
M  V30 4475 O 427.166 -3.91614 0.894484 0
M  V30 4476 N 425.372 -2.62603 1.2445 0
M  V30 4477 H 424.919 -1.88911 1.75129 0
M  V30 4478 H 424.877 -3.10101 0.518137 0
M  V30 4479 N 428.649 -1.55105 -0.279332 0
M  V30 4480 C 429.579 -1.90557 -1.34945 0
M  V30 4481 C 430.56 -0.766738 -1.51839 0
M  V30 4482 O 431.745 -1.02434 -1.64988 0
M  V30 4483 C 428.875 -2.17193 -2.71006 0
M  V30 4484 C 427.829 -3.33021 -2.68851 0
M  V30 4485 C 427.155 -3.45123 -4.08405 0
M  V30 4486 C 428.455 -4.69578 -2.28678 0
M  V30 4487 H 430.149 -2.80188 -1.05522 0
M  V30 4488 H 427.695 -1.34811 -0.506173 0
M  V30 4489 H 429.648 -2.40581 -3.45975 0
M  V30 4490 H 428.372 -1.24355 -3.01999 0
M  V30 4491 H 427.031 -3.0959 -1.9634 0
M  V30 4492 H 426.679 -2.49762 -4.3661 0
M  V30 4493 H 426.379 -4.22995 -4.07859 0
M  V30 4494 H 427.903 -3.70796 -4.85121 0
M  V30 4495 H 429.317 -4.92553 -2.93368 0
M  V30 4496 H 427.714 -5.5032 -2.39306 0
M  V30 4497 H 428.784 -4.68828 -1.23807 0
M  V30 4498 N 430.127 0.543554 -1.4793 0
M  V30 4499 C 431.075 1.67039 -1.61866 0
M  V30 4500 C 432.069 1.62294 -0.48549 0
M  V30 4501 O 433.275 1.67315 -0.66376 0
M  V30 4502 H 429.65 0.552954 -0.509652 0
M  V30 4503 H 431.621 1.52426 -2.56533 0
M  V30 4504 C 430.37 3.05357 -1.6629 0
M  V30 4505 H 429.693 3.09696 -2.5284 0
M  V30 4506 H 431.133 3.83855 -1.80088 0
M  V30 4507 C 429.592 3.34531 -0.398861 0
M  V30 4508 O 430.122 3.98649 0.494162 0
M  V30 4509 N 428.328 2.89299 -0.2747 0
M  V30 4510 H 427.875 2.37298 -1.00236 0
M  V30 4511 H 427.833 3.09188 0.570075 0
M  V30 4512 N 431.605 1.3629 0.791371 0
M  V30 4513 C 432.83 1.33726 1.58531 0
M  V30 4514 C 433.255 -0.0794933 1.87932 0
M  V30 4515 O 432.613 -1.05087 1.47738 0
M  V30 4516 C 432.661 2.16425 2.88431 0
M  V30 4517 O 431.765 1.5554 3.81944 0
M  V30 4518 H 431.106 0.457793 0.480959 0
M  V30 4519 H 433.636 1.79547 0.981031 0
M  V30 4520 H 433.646 2.28933 3.37718 0
M  V30 4521 H 432.321 3.19415 2.66359 0
M  V30 4522 H 430.898 1.51961 3.40532 0
M  V30 4523 N 433.083 -1.0153 1.20538 0
M  V30 4524 C 434.332 -1.74558 1.01057 0
M  V30 4525 C 434.645 -1.90168 -0.457756 0
M  V30 4526 O 435.851 -2.60301 -0.771722 0
M  V30 4527 C 434.307 -3.13963 1.75941 0
M  V30 4528 C 433.915 -3.06361 3.26875 0
M  V30 4529 C 435.659 -3.91191 1.64832 0
M  V30 4530 C 433.566 -4.40782 3.94291 0
M  V30 4531 H 432.496 -0.654417 0.374505 0
M  V30 4532 H 435.147 -1.13521 1.44171 0
M  V30 4533 H 433.529 -3.75549 1.25614 0
M  V30 4534 H 434.703 -2.54074 3.84425 0
M  V30 4535 H 433.018 -2.42625 3.38411 0
M  V30 4536 H 435.615 -4.90644 2.12539 0
M  V30 4537 H 435.958 -4.11884 0.604745 0
M  V30 4538 H 436.491 -3.36236 2.12579 0
M  V30 4539 H 433.23 -4.25292 4.98805 0
M  V30 4540 H 432.75 -4.9307 3.41529 0
M  V30 4541 H 434.429 -5.09621 3.98617 0
M  V30 4542 N 434.561 -1.01147 -1.20859 0
M  V30 4543 C 435.509 -0.57059 -2.25493 0
M  V30 4544 C 436.503 0.388109 -1.64894 0
M  V30 4545 O 437.709 0.258592 -1.78133 0
M  V30 4546 H 434.084 -0.166191 -0.733406 0
M  V30 4547 H 436.055 -1.46411 -2.60012 0
M  V30 4548 C 434.804 0.0805241 -3.47607 0
M  V30 4549 H 434.127 -0.648156 -3.94511 0
M  V30 4550 H 435.567 0.352197 -4.22535 0
M  V30 4551 C 434.026 1.32175 -3.09889 0
M  V30 4552 O 434.556 2.41553 -3.20959 0
M  V30 4553 N 432.762 1.20392 -2.64488 0
M  V30 4554 H 432.309 0.313905 -2.5568 0
M  V30 4555 H 432.267 2.03541 -2.39621 0
M  V30 4556 N 436.039 1.36541 -0.78704 0
M  V30 4557 C 437.002 2.28413 -0.189778 0
M  V30 4558 C 438.002 1.48719 0.611499 0
M  V30 4559 O 439.192 1.68737 0.432842 0
M  V30 4560 C 436.324 3.32824 0.737638 0
M  V30 4561 H 437.517 2.82743 -0.999831 0
M  V30 4562 H 435.07 1.46065 -0.556298 0
M  V30 4563 H 435.805 2.83646 1.57212 0
M  V30 4564 H 435.59 3.91752 0.165044 0
M  V30 4565 H 437.08 4.0144 1.15047 0
M  V30 4566 N 437.518 0.538854 1.48102 0
M  V30 4567 C 438.448 -0.207654 2.32575 0
M  V30 4568 C 439.429 -0.926559 1.4265 0
M  V30 4569 O 440.614 -0.91061 1.71527 0
M  V30 4570 C 437.744 -1.24957 3.24042 0
M  V30 4571 C 436.698 -0.648263 4.23062 0
M  V30 4572 C 436.024 -1.79348 5.03725 0
M  V30 4573 C 437.324 0.385897 5.20872 0
M  V30 4574 H 439.018 0.497534 2.95237 0
M  V30 4575 H 436.564 0.240715 1.41974 0
M  V30 4576 H 438.517 -1.77983 3.81969 0
M  V30 4577 H 437.241 -1.98446 2.59397 0
M  V30 4578 H 435.9 -0.139452 3.66335 0
M  V30 4579 H 435.548 -2.51696 4.35498 0
M  V30 4580 H 435.248 -1.39702 5.70751 0
M  V30 4581 H 436.772 -2.32735 5.64506 0
M  V30 4582 H 438.186 -0.057607 5.73271 0
M  V30 4583 H 436.583 0.700227 5.96001 0
M  V30 4584 H 437.653 1.28848 4.67468 0
M  V30 4585 N 438.996 -1.55193 0.274407 0
M  V30 4586 C 440.244 -1.99187 -0.341902 0
M  V30 4587 C 440.565 -1.16422 -1.56431 0
M  V30 4588 O 439.835 -0.253573 -1.94252 0
M  V30 4589 H 438.415 -0.735721 -0.129317 0
M  V30 4590 H 441.077 -1.91168 0.379578 0
M  V30 4591 H 440.173 -3.05629 -0.632253 0
M  V30 4592 N 440.474 -0.00167713 -1.576 0
M  V30 4593 C 441.885 0.54091 -1.78693 0
M  V30 4594 C 442.236 1.7386 -0.909247 0
M  V30 4595 O 441.361 2.16109 -0.112176 0
M  V30 4596 C 441.956 0.98806 -3.24072 0
M  V30 4597 C 440.515 1.47594 -3.46256 0
M  V30 4598 C 439.662 0.42792 -2.73978 0
M  V30 4599 H 442.613 -0.22784 -1.57056 0
M  V30 4600 H 442.634 1.85398 -3.32277 0
M  V30 4601 H 442.146 0.116164 -3.87926 0
M  V30 4602 H 440.247 2.36868 -2.87618 0
M  V30 4603 H 440.36 1.50225 -4.54939 0
M  V30 4604 H 438.724 0.889934 -2.38647 0
M  V30 4605 H 439.507 -0.435038 -3.40532 0
M  V30 4606 N 441.952 1.55251 0.271103 0
M  V30 4607 C 442.902 1.84649 1.33749 0
M  V30 4608 C 443.886 0.705529 1.44607 0
M  V30 4609 O 445.078 0.966916 1.48256 0
M  V30 4610 C 442.207 2.12354 2.69742 0
M  V30 4611 C 441.293 3.32714 2.62988 0
M  V30 4612 N 441.684 4.52575 2.25853 0
M  V30 4613 C 439.982 3.35341 2.94045 0
M  V30 4614 C 440.683 5.34669 2.29136 0
M  V30 4615 N 439.659 4.73123 2.67685 0
M  V30 4616 H 443.461 2.74865 1.0405 0
M  V30 4617 H 440.975 1.55152 0.479738 0
M  V30 4618 H 442.972 2.31572 3.4667 0
M  V30 4619 H 441.632 1.23422 3.00328 0
M  V30 4620 H 442.643 4.78639 1.978 0
M  V30 4621 H 439.32 2.56608 3.2933 0
M  V30 4622 H 440.71 6.40509 2.02971 0
M  V30 4623 N 443.43 -0.535701 1.48216 0
M  V30 4624 C 444.841 -1.11769 1.49548 0
M  V30 4625 C 445.192 -1.94442 0.26207 0
M  V30 4626 O 444.317 -2.06987 -0.631287 0
M  V30 4627 C 444.912 -2.03367 2.70975 0
M  V30 4628 C 443.471 -2.56795 2.75196 0
M  V30 4629 C 442.618 -1.33631 2.42977 0
M  V30 4630 H 445.569 -0.321232 1.55415 0
M  V30 4631 H 445.59 -2.87569 2.49167 0
M  V30 4632 H 445.102 -1.43169 3.60727 0
M  V30 4633 H 443.203 -3.20731 1.89638 0
M  V30 4634 H 443.316 -2.9632 3.76472 0
M  V30 4635 H 441.68 -1.6502 1.94012 0
M  V30 4636 H 442.463 -0.75194 3.34964 0
M  V30 4637 N 444.908 -1.36708 -0.784132 0
M  V30 4638 C 446.154 -1.32433 -1.54379 0
M  V30 4639 C 446.509 0.0941816 -1.92169 0
M  V30 4640 O 445.802 1.04997 -1.60269 0
M  V30 4641 C 445.996 -2.18571 -2.82774 0
M  V30 4642 C 445.825 -3.68656 -2.57533 0
M  V30 4643 C 444.595 -4.37813 -2.52286 0
M  V30 4644 C 446.793 -4.61802 -2.2637 0
M  V30 4645 N 444.775 -5.7351 -2.18997 0
M  V30 4646 C 446.146 -5.85785 -2.03115 0
M  V30 4647 C 448.201 -4.50313 -2.12421 0
M  V30 4648 C 446.904 -6.99569 -1.67321 0
M  V30 4649 C 448.93 -5.63969 -1.78026 0
M  V30 4650 C 448.292 -6.86994 -1.55622 0
M  V30 4651 H 444.391 -0.539886 -0.565727 0
M  V30 4652 H 446.975 -1.71812 -0.915908 0
M  V30 4653 H 445.146 -1.81429 -3.43421 0
M  V30 4654 H 446.878 -2.05646 -3.48557 0
M  V30 4655 H 443.633 -3.90674 -2.67714 0
M  V30 4656 H 444.057 -6.45189 -2.05084 0
M  V30 4657 H 448.699 -3.55781 -2.28429 0
M  V30 4658 H 446.417 -7.94047 -1.5005 0
M  V30 4659 H 450.003 -5.57044 -1.67909 0
M  V30 4660 H 448.883 -7.7345 -1.294 0
M  V30 4661 N 446.386 1.0089 -1.21074 0
M  V30 4662 C 447.349 2.0775 -0.968129 0
M  V30 4663 C 448.349 1.6069 0.0593445 0
M  V30 4664 O 449.539 1.73293 -0.177525 0
M  V30 4665 C 446.671 3.37794 -0.459108 0
M  V30 4666 H 447.864 2.30707 -1.9161 0
M  V30 4667 H 445.417 1.17807 -1.02719 0
M  V30 4668 H 446.152 3.20516 0.49397 0
M  V30 4669 H 445.937 3.7328 -1.20019 0
M  V30 4670 H 447.427 4.16454 -0.309099 0
M  V30 4671 N 447.864 1.01787 1.20321 0
M  V30 4672 C 448.794 0.609625 2.25401 0
M  V30 4673 C 449.775 -0.375951 1.65893 0
M  V30 4674 O 450.96 -0.261101 1.92437 0
M  V30 4675 C 448.09 -0.0515995 3.47262 0
M  V30 4676 C 447.044 0.855095 4.19371 0
M  V30 4677 C 446.37 0.0595757 5.34667 0
M  V30 4678 C 447.67 2.16374 4.75373 0
M  V30 4679 H 449.364 1.48803 2.59804 0
M  V30 4680 H 446.91 0.716934 1.24884 0
M  V30 4681 H 448.863 -0.348764 4.19954 0
M  V30 4682 H 447.587 -0.964726 3.12027 0
M  V30 4683 H 446.246 1.13628 3.48546 0
M  V30 4684 H 445.894 -0.85524 4.95676 0
M  V30 4685 H 445.594 0.663406 5.83843 0
M  V30 4686 H 447.118 -0.231105 6.10162 0
M  V30 4687 H 448.532 1.92885 5.39878 0
M  V30 4688 H 446.929 2.71853 5.34991 0
M  V30 4689 H 447.999 2.82589 3.94045 0
M  V30 4690 N 449.342 -1.36122 0.79427 0
M  V30 4691 C 450.57 -2.03362 0.380989 0
M  V30 4692 C 450.985 -1.59881 -1.00416 0
M  V30 4693 O 450.342 -0.790515 -1.6449 0
M  V30 4694 C 450.393 -3.58804 0.440649 0
M  V30 4695 O 450.114 -4.007 1.77118 0
M  V30 4696 C 451.615 -4.43296 0.0186117 0
M  V30 4697 H 448.835 -0.652526 0.156367 0
M  V30 4698 H 451.379 -1.73998 1.07447 0
M  V30 4699 H 449.534 -3.8686 -0.204458 0
M  V30 4700 H 449.948 -4.95309 1.72538 0
M  V30 4701 H 451.422 -5.51887 0.111488 0
M  V30 4702 H 451.899 -4.2684 -1.03461 0
M  V30 4703 H 452.505 -4.20512 0.636395 0
M  V30 4704 N 450.82 -0.546701 -1.47814 0
M  V30 4705 C 452.067 -0.0187407 -2.02491 0
M  V30 4706 C 452.395 1.32685 -1.42215 0
M  V30 4707 O 451.65 1.87413 -0.563454 0
M  V30 4708 C 451.949 0.134869 -3.57145 0
M  V30 4709 C 451.615 -1.13849 -4.3629 0
M  V30 4710 C 450.277 -1.48743 -4.57634 0
M  V30 4711 C 452.629 -1.98277 -4.82012 0
M  V30 4712 C 449.957 -2.67932 -5.21948 0
M  V30 4713 C 452.309 -3.16659 -5.4764 0
M  V30 4714 C 450.973 -3.51879 -5.67219 0
M  V30 4715 H 450.243 -0.0068577 -0.740968 0
M  V30 4716 H 452.89 -0.716097 -1.77607 0
M  V30 4717 H 451.195 0.915118 -3.80963 0
M  V30 4718 H 452.892 0.558556 -3.97091 0
M  V30 4719 H 449.482 -0.856767 -4.19949 0
M  V30 4720 H 453.666 -1.72628 -4.6531 0
M  V30 4721 H 448.922 -2.95401 -5.35302 0
M  V30 4722 H 453.096 -3.82374 -5.82033 0
M  V30 4723 H 450.723 -4.44331 -6.16825 0
M  V30 4724 N 452.299 1.55045 -0.282633 0
M  V30 4725 C 453.524 2.04628 0.337977 0
M  V30 4726 C 453.949 1.15937 1.48123 0
M  V30 4727 O 453.307 0.159532 1.80597 0
M  V30 4728 C 453.355 3.51854 0.78936 0
M  V30 4729 O 452.459 3.66236 1.89592 0
M  V30 4730 H 451.8 0.660434 0.0687261 0
M  V30 4731 H 454.33 2.00261 -0.419124 0
M  V30 4732 H 454.34 3.93361 1.08311 0
M  V30 4733 H 453.015 4.15873 -0.0470419 0
M  V30 4734 H 451.592 3.36633 1.60413 0
M  V30 4735 N 453.777 0.010035 1.57597 0
M  V30 4736 C 455.007 -0.682422 1.95004 0
M  V30 4737 C 455.415 -1.67278 0.884014 0
M  V30 4738 O 454.758 -1.83129 -0.144672 0
M  V30 4739 C 454.82 -1.46141 3.28456 0
M  V30 4740 C 454.484 -0.631523 4.52615 0
M  V30 4741 C 455.481 0.0850905 5.1983 0
M  V30 4742 C 453.166 -0.574539 4.99003 0
M  V30 4743 C 455.16 0.847566 6.3174 0
M  V30 4744 C 452.847 0.191655 6.10799 0
M  V30 4745 C 453.845 0.901432 6.77025 0
M  V30 4746 O 453.533 1.65511 7.86677 0
M  V30 4747 H 453.265 -0.194361 0.647456 0
M  V30 4748 H 455.819 0.060312 2.05311 0
M  V30 4749 H 454.049 -2.24885 3.14585 0
M  V30 4750 H 455.738 -2.04016 3.50902 0
M  V30 4751 H 456.504 0.0502812 4.84974 0
M  V30 4752 H 452.383 -1.11654 4.47274 0
M  V30 4753 H 455.927 1.4021 6.83364 0
M  V30 4754 H 451.824 0.228249 6.45096 0
M  V30 4755 H 452.592 1.57287 8.03245 0
M  V30 4756 N 455.255 -1.55392 -0.262866 0
M  V30 4757 C 456.503 -1.76127 -0.991147 0
M  V30 4758 C 456.824 -0.571083 -1.8645 0
M  V30 4759 O 456.094 0.413698 -1.91482 0
M  V30 4760 H 454.674 -0.649528 -0.368948 0
M  V30 4761 H 457.336 -1.9281 -0.284655 0
M  V30 4762 H 456.432 -2.6663 -1.62219 0
M  V30 4763 N 456.733 0.527833 -1.48498 0
M  V30 4764 C 458.149 0.856571 -1.34666 0
M  V30 4765 C 458.349 1.98271 -0.35931 0
M  V30 4766 O 457.405 2.51551 0.218703 0
M  V30 4767 C 458.718 1.22207 -2.74747 0
M  V30 4768 C 460.266 1.33183 -2.83251 0
M  V30 4769 C 460.741 1.73075 -4.24039 0
M  V30 4770 N 462.232 1.80174 -4.26722 0
M  V30 4771 C 462.967 2.1243 -5.32598 0
M  V30 4772 N 462.463 2.43096 -6.4875 0
M  V30 4773 N 464.256 2.13454 -5.19994 0
M  V30 4774 H 456.407 -0.215174 -2.11307 0
M  V30 4775 H 458.67 -0.0336281 -0.947403 0
M  V30 4776 H 458.376 0.468195 -3.4857 0
M  V30 4777 H 458.25 2.17173 -3.08409 0
M  V30 4778 H 460.637 2.07647 -2.09683 0
M  V30 4779 H 460.718 0.363333 -2.53206 0
M  V30 4780 H 460.362 0.991712 -4.98124 0
M  V30 4781 H 460.292 2.70979 -4.51529 0
M  V30 4782 H 462.783 1.58744 -3.42942 0
M  V30 4783 H 463.096 2.6682 -7.25277 0
M  V30 4784 H 461.441 2.40611 -6.52021 0
M  V30 4785 H 464.632 1.88956 -4.28268 0
M  V30 4786 H 464.805 2.38261 -6.02608 0
M  V30 4787 N 458.211 1.37122 0.776871 0
M  V30 4788 C 459.174 1.32301 1.8716 0
M  V30 4789 C 460.174 0.228099 1.59174 0
M  V30 4790 O 461.364 0.483642 1.67352 0
M  V30 4791 C 458.496 1.054 3.24197 0
M  V30 4792 H 459.689 2.29673 1.92848 0
M  V30 4793 H 457.242 1.22077 0.97606 0
M  V30 4794 H 457.977 0.0853872 3.24188 0
M  V30 4795 H 457.762 1.84648 3.45901 0
M  V30 4796 H 459.252 1.04664 4.04271 0
M  V30 4797 N 459.689 -1.00246 1.21608 0
M  V30 4798 C 460.619 -2.10921 1.00172 0
M  V30 4799 C 461.6 -1.69938 -0.0741587 0
M  V30 4800 O 462.785 -1.94009 0.0861753 0
M  V30 4801 C 459.915 -3.42618 0.568355 0
M  V30 4802 C 458.869 -3.97407 1.58909 0
M  V30 4803 C 458.195 -5.25038 1.01187 0
M  V30 4804 C 459.495 -4.2918 2.97661 0
M  V30 4805 H 461.189 -2.29112 1.92739 0
M  V30 4806 H 458.735 -1.10101 0.928102 0
M  V30 4807 H 460.688 -4.19444 0.405555 0
M  V30 4808 H 459.412 -3.24227 -0.392961 0
M  V30 4809 H 458.071 -3.22703 1.73949 0
M  V30 4810 H 457.719 -5.02982 0.0421965 0
M  V30 4811 H 457.419 -5.62661 1.6937 0
M  V30 4812 H 458.943 -6.04507 0.860448 0
M  V30 4813 H 460.357 -4.96839 2.86049 0
M  V30 4814 H 458.754 -4.77952 3.6288 0
M  V30 4815 H 459.824 -3.3735 3.48315 0
M  V30 4816 N 461.167 -1.02423 -1.1978 0
M  V30 4817 C 462.099 -0.559152 -2.22275 0
M  V30 4818 C 463.112 0.36251 -1.58713 0
M  V30 4819 O 464.301 0.159641 -1.77785 0
M  V30 4820 C 461.401 0.205094 -3.38279 0
M  V30 4821 C 460.574 -0.720361 -4.31427 0
M  V30 4822 C 459.633 -0.00234368 -5.262 0
M  V30 4823 O 458.659 -0.627378 -5.65732 0
M  V30 4824 N 459.861 1.26996 -5.66438 0
M  V30 4825 H 462.626 -1.44064 -2.62804 0
M  V30 4826 H 460.187 -0.902692 -1.34399 0
M  V30 4827 H 462.179 0.694868 -3.9869 0
M  V30 4828 H 460.749 0.987947 -2.96578 0
M  V30 4829 H 459.969 -1.39031 -3.68869 0
M  V30 4830 H 461.257 -1.3495 -4.90577 0
M  V30 4831 H 460.655 1.79858 -5.36347 0
M  V30 4832 H 459.212 1.70432 -6.29123 0
M  V30 4833 N 462.645 1.35699 -0.801477 0
M  V30 4834 C 463.608 2.28199 -0.213994 0
M  V30 4835 C 464.608 1.49359 0.595691 0
M  V30 4836 O 465.798 1.69186 0.414921 0
M  V30 4837 C 462.93 3.33587 0.702297 0
M  V30 4838 H 464.123 2.81666 -1.02976 0
M  V30 4839 H 461.676 1.45467 -0.571759 0
M  V30 4840 H 462.411 2.85297 1.54195 0
M  V30 4841 H 462.196 3.91906 0.123484 0
M  V30 4842 H 463.686 4.02638 1.10783 0
M  V30 4843 N 464.123 0.554532 1.47522 0
M  V30 4844 C 465.348 0.0322661 2.07375 0
M  V30 4845 C 465.773 -1.25079 1.40488 0
M  V30 4846 O 465.131 -1.74859 0.47896 0
M  V30 4847 C 465.179 -0.149397 3.6029 0
M  V30 4848 O 464.283 -1.21259 3.9417 0
M  V30 4849 H 463.624 0.0501228 0.662106 0
M  V30 4850 H 466.154 0.769452 1.8958 0
M  V30 4851 H 466.164 -0.364437 4.06369 0
M  V30 4852 H 464.839 0.787743 4.08372 0
M  V30 4853 H 463.416 -0.97825 3.5984 0
M  V30 4854 N 465.601 -1.54893 0.290851 0
M  V30 4855 C 466.847 -2.0023 -0.321867 0
M  V30 4856 C 467.18 -1.179 -1.54316 0
M  V30 4857 O 466.455 -0.25293 -1.92848 0
M  V30 4858 C 466.738 -3.53456 -0.688515 0
M  V30 4859 C 466.591 -4.46532 0.541209 0
M  V30 4860 C 467.91 -4.13057 -1.51895 0
M  V30 4861 H 465.029 -0.727891 -0.115515 0
M  V30 4862 H 467.671 -1.85722 0.400931 0
M  V30 4863 H 465.821 -3.6595 -1.30433 0
M  V30 4864 H 467.493 -4.4596 1.17973 0
M  V30 4865 H 465.736 -4.17545 1.17636 0
M  V30 4866 H 466.407 -5.51475 0.240675 0
M  V30 4867 H 468.883 -4.03937 -0.99872 0
M  V30 4868 H 467.759 -5.20448 -1.74429 0
M  V30 4869 H 468.02 -3.64284 -2.50498 0
M  V30 4870 N 467.08 -0.0183926 -1.57589 0
M  V30 4871 C 468.01 0.965596 -2.12599 0
M  V30 4872 C 468.991 1.34641 -1.0395 0
M  V30 4873 O 470.176 1.42693 -1.31729 0
M  V30 4874 C 467.306 2.25149 -2.64434 0
M  V30 4875 C 466.26 2.01175 -3.77773 0
M  V30 4876 C 465.586 3.35937 -4.15994 0
M  V30 4877 C 466.886 1.35953 -5.04296 0
M  V30 4878 H 468.58 0.507504 -2.95067 0
M  V30 4879 H 466.126 0.242671 -1.41941 0
M  V30 4880 H 468.079 2.94357 -3.01549 0
M  V30 4881 H 466.803 2.73105 -1.79112 0
M  V30 4882 H 465.462 1.34388 -3.4108 0
M  V30 4883 H 465.11 3.81631 -3.27669 0
M  V30 4884 H 464.81 3.20705 -4.92364 0
M  V30 4885 H 466.334 4.0643 -4.55683 0
M  V30 4886 H 467.748 1.95144 -5.39065 0
M  V30 4887 H 466.145 1.31152 -5.85593 0
M  V30 4888 H 467.215 0.331071 -4.83768 0
M  V30 4889 N 468.558 1.5553 0.254621 0
M  V30 4890 C 469.506 1.9048 1.33492 0
M  V30 4891 C 470.5 0.78304 1.50216 0
M  V30 4892 O 471.706 0.967582 1.51782 0
M  V30 4893 H 468.081 0.604846 0.44684 0
M  V30 4894 H 470.052 2.80688 1.01275 0
M  V30 4895 C 468.801 2.20928 2.68489 0
M  V30 4896 H 468.124 3.06742 2.56417 0
M  V30 4897 H 469.564 2.49291 3.42972 0
M  V30 4898 C 468.023 1.023 3.20993 0
M  V30 4899 O 468.553 0.267027 4.00811 0
M  V30 4900 N 466.759 0.815714 2.78917 0
M  V30 4901 H 466.306 1.43217 2.14119 0
M  V30 4902 H 466.264 0.0236532 3.14391 0
M  V30 4903 N 470.036 -0.519951 1.48776 0
M  V30 4904 C 471.264 -1.29971 1.60982 0
M  V30 4905 C 471.679 -1.86803 0.273885 0
M  V30 4906 O 471.036 -1.66904 -0.738193 0
M  V30 4907 C 471.087 -2.44346 2.66415 0
M  V30 4908 O 470.808 -1.89855 3.94825 0
M  V30 4909 C 472.309 -3.36014 2.89153 0
M  V30 4910 H 469.529 -0.394891 0.542496 0
M  V30 4911 H 472.073 -0.626214 1.94676 0
M  V30 4912 H 470.228 -3.07562 2.35552 0
M  V30 4913 H 470.642 -2.64798 4.5275 0
M  V30 4914 H 472.116 -4.12593 3.66703 0
M  V30 4915 H 472.593 -3.91859 1.98351 0
M  V30 4916 H 473.199 -2.78582 3.21359 0
M  V30 4917 N 471.514 -1.37532 -0.769588 0
M  V30 4918 C 472.76 -1.34063 -1.52966 0
M  V30 4919 C 473.115 0.0737942 -1.92258 0
M  V30 4920 O 472.408 1.03291 -1.61374 0
M  V30 4921 C 472.602 -2.21558 -2.8044 0
M  V30 4922 C 472.431 -3.71367 -2.53608 0
M  V30 4923 C 471.201 -4.40464 -2.47628 0
M  V30 4924 C 473.399 -4.64177 -2.21459 0
M  V30 4925 N 471.381 -5.758 -2.12902 0
M  V30 4926 C 472.752 -5.87907 -1.9689 0
M  V30 4927 C 474.807 -4.52541 -2.07633 0
M  V30 4928 C 473.51 -7.01304 -1.59892 0
M  V30 4929 C 475.536 -5.65825 -1.72034 0
M  V30 4930 C 474.898 -6.88606 -1.48327 0
M  V30 4931 H 470.997 -0.545856 -0.559969 0
M  V30 4932 H 473.581 -1.72773 -0.897634 0
M  V30 4933 H 471.752 -1.85061 -3.41478 0
M  V30 4934 H 473.484 -2.09332 -3.46356 0
M  V30 4935 H 470.239 -3.93491 -2.63556 0
M  V30 4936 H 470.663 -6.47328 -1.9823 0
M  V30 4937 H 475.305 -3.58183 -2.24643 0
M  V30 4938 H 473.023 -7.95594 -1.4162 0
M  V30 4939 H 476.609 -5.58793 -1.61991 0
M  V30 4940 H 475.489 -7.74779 -1.21189 0
M  V30 4941 N 472.992 0.995999 -1.22138 0
M  V30 4942 C 473.924 2.08745 -0.946485 0
M  V30 4943 C 474.937 1.62633 0.0737356 0
M  V30 4944 O 476.126 1.77782 -0.159886 0
M  V30 4945 C 473.226 3.36516 -0.401305 0
M  V30 4946 C 472.399 4.11672 -1.47801 0
M  V30 4947 C 471.458 5.17728 -0.940461 0
M  V30 4948 O 470.484 5.45482 -1.62596 0
M  V30 4949 N 471.686 5.80005 0.239723 0
M  V30 4950 H 474.451 2.32908 -1.88611 0
M  V30 4951 H 472.012 1.16152 -1.12785 0
M  V30 4952 H 474.004 4.04691 -0.0270837 0
M  V30 4953 H 472.574 3.0944 0.443354 0
M  V30 4954 H 471.794 3.38171 -2.02568 0
M  V30 4955 H 473.082 4.58657 -2.20253 0
M  V30 4956 H 472.48 5.5982 0.813518 0
M  V30 4957 H 471.037 6.4943 0.555361 0
M  V30 4958 N 474.47 1.03057 1.19235 0
M  V30 4959 C 475.718 0.726581 1.88587 0
M  V30 4960 C 476.039 -0.747227 1.80115 0
M  V30 4961 O 475.309 -1.53849 1.21274 0
M  V30 4962 H 473.889 0.265768 0.698124 0
M  V30 4963 H 476.551 1.30516 1.44746 0
M  V30 4964 H 475.647 1.0224 2.94879 0
M  V30 4965 N 475.948 -1.35272 0.808662 0
M  V30 4966 C 476.895 -2.29764 0.218482 0
M  V30 4967 C 477.865 -1.52911 -0.648652 0
M  V30 4968 O 479.05 -1.81341 -0.593297 0
M  V30 4969 C 476.19 -3.39388 -0.625282 0
M  V30 4970 C 475.303 -4.31202 0.262516 0
M  V30 4971 C 474.438 -5.27919 -0.589451 0
M  V30 4972 C 473.477 -6.11371 0.298617 0
M  V30 4973 N 472.614 -7.0022 -0.513443 0
M  V30 4974 H 477.454 -2.79645 1.02968 0
M  V30 4975 H 474.991 -1.37629 0.519303 0
M  V30 4976 H 476.949 -4.01615 -1.12966 0
M  V30 4977 H 475.579 -2.90777 -1.40173 0
M  V30 4978 H 474.631 -3.69962 0.885013 0
M  V30 4979 H 475.943 -4.89748 0.945971 0
M  V30 4980 H 475.097 -5.95529 -1.15888 0
M  V30 4981 H 473.836 -4.69875 -1.30647 0
M  V30 4982 H 472.841 -5.42707 0.880301 0
M  V30 4983 H 474.066 -6.71494 1.01352 0
M  V30 4984 H 472.012 -6.44662 -1.21439 0
M  V30 4985 H 471.929 -7.55917 0.111922 0
M  V30 4986 H 473.197 -7.72175 -1.06608 0
M  V30 4987 N 477.426 -0.562348 -1.47226 0
M  V30 4988 C 478.373 0.182461 -2.30078 0
M  V30 4989 C 479.343 0.903503 -1.39377 0
M  V30 4990 O 480.528 0.898188 -1.68337 0
M  V30 4991 C 477.668 1.20322 -3.23445 0
M  V30 4992 C 476.781 0.487717 -4.29238 0
M  V30 4993 C 475.916 1.49422 -5.09752 0
M  V30 4994 C 474.955 0.763976 -6.07314 0
M  V30 4995 N 474.092 1.71755 -6.80768 0
M  V30 4996 H 478.932 -0.530169 -2.93246 0
M  V30 4997 H 476.469 -0.273276 -1.44539 0
M  V30 4998 H 478.427 1.80768 -3.76004 0
M  V30 4999 H 477.057 1.88382 -2.6213 0
M  V30 5000 H 476.109 -0.231374 -3.79696 0
M  V30 5001 H 477.421 -0.0841003 -4.98729 0
M  V30 5002 H 476.575 2.17206 -5.66486 0
M  V30 5003 H 475.314 2.09995 -4.40174 0
M  V30 5004 H 474.319 0.0722344 -5.49753 0
M  V30 5005 H 475.544 0.16391 -6.78902 0
M  V30 5006 H 473.49 2.31177 -6.13916 0
M  V30 5007 H 473.407 1.19802 -7.46447 0
M  V30 5008 H 474.675 2.38638 -7.42073 0
M  V30 5009 N 478.904 1.54736 -0.299062 0
M  V30 5010 C 479.814 2.27127 0.587413 0
M  V30 5011 C 480.83 1.30575 1.15005 0
M  V30 5012 O 482.006 1.63554 1.17525 0
M  V30 5013 C 479.071 2.99645 1.74395 0
M  V30 5014 C 478.132 4.11731 1.21559 0
M  V30 5015 C 477.365 4.80781 2.317 0
M  V30 5016 O 477.588 4.4918 3.51558 0
M  V30 5017 O 476.522 5.68226 1.98501 0
M  V30 5018 H 480.348 3.037 0.000250109 0
M  V30 5019 H 477.933 1.49256 -0.0655919 0
M  V30 5020 H 479.815 3.45138 2.4178 0
M  V30 5021 H 478.49 2.25969 2.31775 0
M  V30 5022 H 477.397 3.70641 0.507514 0
M  V30 5023 H 478.73 4.87379 0.687233 0
M  V30 5024 N 480.382 0.0267497 1.57577 0
M  V30 5025 C 481.33 -0.973923 2.11229 0
M  V30 5026 C 482.324 -1.33849 1.03831 0
M  V30 5027 O 483.53 -1.321 1.22269 0
M  V30 5028 H 479.905 -0.331844 0.674821 0
M  V30 5029 H 481.876 -0.496092 2.94247 0
M  V30 5030 C 480.625 -2.24798 2.65257 0
M  V30 5031 H 479.948 -1.9762 3.47543 0
M  V30 5032 H 481.388 -2.93031 3.06445 0
M  V30 5033 C 479.847 -2.97611 1.57891 0
M  V30 5034 O 480.377 -3.89629 0.97735 0
M  V30 5035 N 478.583 -2.59905 1.29992 0
M  V30 5036 H 478.13 -1.85154 1.79097 0
M  V30 5037 H 478.088 -3.08932 0.583798 0
M  V30 5038 N 481.861 -1.55662 -0.24637 0
M  V30 5039 C 483.107 -1.77782 -0.975779 0
M  V30 5040 C 483.44 -0.592103 -1.84953 0
M  V30 5041 O 482.715 0.409588 -1.90138 0
M  V30 5042 C 482.998 -3.09788 -1.83584 0
M  V30 5043 C 482.851 -4.38764 -0.990241 0
M  V30 5044 C 484.17 -3.38029 -2.81823 0
M  V30 5045 H 481.289 -0.646789 -0.353317 0
M  V30 5046 H 483.931 -1.88398 -0.246248 0
M  V30 5047 H 482.081 -3.00869 -2.45784 0
M  V30 5048 H 483.753 -4.59675 -0.386897 0
M  V30 5049 H 481.996 -4.32798 -0.294626 0
M  V30 5050 H 482.667 -5.27514 -1.62584 0
M  V30 5051 H 485.143 -3.46915 -2.2976 0
M  V30 5052 H 484.019 -4.3161 -3.39122 0
M  V30 5053 H 484.28 -2.58968 -3.58313 0
M  V30 5054 N 483.339 0.512053 -1.4905 0
M  V30 5055 C 484.302 1.59704 -1.64399 0
M  V30 5056 C 485.302 1.52285 -0.516317 0
M  V30 5057 O 486.492 1.55635 -0.782527 0
M  V30 5058 C 483.624 2.9935 -1.63102 0
M  V30 5059 H 484.817 1.47428 -2.61161 0
M  V30 5060 H 482.37 0.735469 -1.37915 0
M  V30 5061 H 483.105 3.17116 -0.678836 0
M  V30 5062 H 482.89 3.06144 -2.44986 0
M  V30 5063 H 484.38 3.782 -1.77072 0
M  V30 5064 N 484.817 1.37938 0.762283 0
M  V30 5065 C 485.764 1.34467 1.87583 0
M  V30 5066 C 486.734 0.208633 1.64785 0
M  V30 5067 O 487.919 0.399494 1.86571 0
M  V30 5068 C 485.059 1.16692 3.24772 0
M  V30 5069 C 484.172 2.39608 3.59461 0
M  V30 5070 C 483.307 2.14631 4.85908 0
M  V30 5071 C 482.346 3.33364 5.13357 0
M  V30 5072 N 481.483 3.07877 6.30996 0
M  V30 5073 H 486.323 2.29669 1.89885 0
M  V30 5074 H 483.86 1.14116 0.928219 0
M  V30 5075 H 485.818 1.04405 4.03925 0
M  V30 5076 H 484.448 0.251333 3.2182 0
M  V30 5077 H 483.5 2.626 2.75219 0
M  V30 5078 H 484.812 3.28128 3.75678 0
M  V30 5079 H 483.966 1.99429 5.72986 0
M  V30 5080 H 482.705 1.23463 4.71814 0
M  V30 5081 H 481.71 3.49094 4.24751 0
M  V30 5082 H 482.935 4.25395 5.29354 0
M  V30 5083 H 480.881 2.19348 6.18241 0
M  V30 5084 H 480.798 3.89944 6.47673 0
M  V30 5085 H 482.066 2.96313 7.20985 0
M  V30 5086 N 486.295 -0.989507 1.22664 0
M  V30 5087 C 487.258 -2.06183 1.00106 0
M  V30 5088 C 488.258 -1.60765 -0.0337726 0
M  V30 5089 O 489.448 -1.72989 0.205072 0
M  V30 5090 C 486.58 -3.37021 0.51279 0
M  V30 5091 H 487.773 -2.27629 1.95256 0
M  V30 5092 H 485.326 -1.16158 1.0458 0
M  V30 5093 H 486.061 -3.21261 -0.442917 0
M  V30 5094 H 485.846 -3.71323 1.25942 0
M  V30 5095 H 487.336 -4.1591 0.375315 0
M  V30 5096 N 487.773 -1.03688 -1.18687 0
M  V30 5097 C 489.189 -0.755413 -1.4059 0
M  V30 5098 C 489.389 0.656659 -1.905 0
M  V30 5099 O 488.445 1.42144 -2.08689 0
M  V30 5100 C 489.758 -1.7983 -2.41001 0
M  V30 5101 C 491.306 -1.81877 -2.54735 0
M  V30 5102 C 491.781 -2.85148 -3.58406 0
M  V30 5103 N 493.272 -2.84015 -3.6591 0
M  V30 5104 C 494.007 -3.60573 -4.45841 0
M  V30 5105 N 493.503 -4.46871 -5.29413 0
M  V30 5106 N 495.296 -3.49079 -4.40568 0
M  V30 5107 H 487.447 -1.94818 -0.846148 0
M  V30 5108 H 489.71 -0.842727 -0.434184 0
M  V30 5109 H 489.416 -2.81097 -2.1137 0
M  V30 5110 H 489.29 -1.62727 -3.40294 0
M  V30 5111 H 491.677 -0.812836 -2.83685 0
M  V30 5112 H 491.758 -2.03057 -1.55568 0
M  V30 5113 H 491.402 -3.85918 -3.30197 0
M  V30 5114 H 491.332 -2.61224 -4.57241 0
M  V30 5115 H 493.823 -2.21431 -3.0623 0
M  V30 5116 H 494.136 -5.02007 -5.87545 0
M  V30 5117 H 492.481 -4.5094 -5.28846 0
M  V30 5118 H 495.672 -2.81066 -3.74325 0
M  V30 5119 H 495.845 -4.08994 -5.02621 0
M  V30 5120 N 489.251 1.34841 -0.815825 0
M  V30 5121 C 490.161 2.33425 -0.234462 0
M  V30 5122 C 491.177 1.62295 0.627413 0
M  V30 5123 O 492.353 1.94109 0.536987 0
M  V30 5124 C 489.418 3.41471 0.599849 0
M  V30 5125 C 488.479 4.28362 -0.283596 0
M  V30 5126 C 487.712 5.31248 0.51099 0
M  V30 5127 O 487.935 5.43056 1.7449 0
M  V30 5128 O 486.869 6.01812 -0.10297 0
M  V30 5129 H 490.695 2.84962 -1.05024 0
M  V30 5130 H 488.28 1.37774 -0.577809 0
M  V30 5131 H 490.162 4.07464 1.07475 0
M  V30 5132 H 488.837 2.9219 1.39308 0
M  V30 5133 H 487.744 3.65318 -0.805836 0
M  V30 5134 H 489.077 4.81066 -1.041 0
M  V30 5135 N 490.729 0.570148 1.46925 0
M  V30 5136 C 491.975 0.0510284 2.02736 0
M  V30 5137 C 492.308 -1.3006 1.44215 0
M  V30 5138 O 491.583 -1.84932 0.602521 0
M  V30 5139 C 491.866 -0.028215 3.60089 0
M  V30 5140 C 491.719 1.35142 4.29018 0
M  V30 5141 C 493.038 -0.735181 4.33916 0
M  V30 5142 H 490.157 0.0200178 0.736728 0
M  V30 5143 H 492.799 0.73493 1.75211 0
M  V30 5144 H 490.949 -0.610648 3.83671 0
M  V30 5145 H 492.621 1.97806 4.16738 0
M  V30 5146 H 490.864 1.9226 3.88868 0
M  V30 5147 H 491.535 1.24857 5.37694 0
M  V30 5148 H 494.011 -0.240519 4.15404 0
M  V30 5149 H 492.887 -0.759622 5.43618 0
M  V30 5150 H 493.148 -1.79397 4.04066 0
M  V30 5151 N 492.207 -1.54576 0.307264 0
M  V30 5152 C 493.137 -2.26708 -0.55907 0
M  V30 5153 C 494.118 -1.26893 -1.1328 0
M  V30 5154 O 495.303 -1.55677 -1.16097 0
M  V30 5155 C 492.433 -3.01259 -1.72801 0
M  V30 5156 C 491.387 -4.08275 -1.28435 0
M  V30 5157 C 490.713 -4.70575 -2.53895 0
M  V30 5158 C 492.013 -5.2068 -0.411038 0
M  V30 5159 H 493.707 -2.9937 0.042576 0
M  V30 5160 H 491.253 -1.43983 0.0219173 0
M  V30 5161 H 493.206 -3.50444 -2.34023 0
M  V30 5162 H 491.93 -2.26187 -2.356 0
M  V30 5163 H 490.589 -3.59949 -0.695161 0
M  V30 5164 H 490.237 -3.92136 -3.15021 0
M  V30 5165 H 489.937 -5.42854 -2.24908 0
M  V30 5166 H 491.461 -5.22527 -3.15908 0
M  V30 5167 H 492.875 -5.65721 -0.929097 0
M  V30 5168 H 491.272 -5.99716 -0.214664 0
M  V30 5169 H 492.342 -4.81629 0.562287 0
M  V30 5170 N 493.685 -0.035106 -1.57561 0
M  V30 5171 C 494.615 0.942993 -2.13612 0
M  V30 5172 C 495.596 1.33531 -1.05373 0
M  V30 5173 O 496.781 1.41287 -1.33235 0
M  V30 5174 C 493.911 2.22332 -2.66807 0
M  V30 5175 C 492.865 1.97156 -3.79886 0
M  V30 5176 C 492.191 3.31506 -4.19533 0
M  V30 5177 C 493.491 1.30596 -5.05709 0
M  V30 5178 H 495.185 0.476179 -2.95589 0
M  V30 5179 H 492.731 0.227602 -1.4219 0
M  V30 5180 H 494.684 2.91142 -3.04654 0
M  V30 5181 H 493.408 2.7119 -1.81999 0
M  V30 5182 H 492.067 1.30763 -3.42486 0
M  V30 5183 H 491.715 3.78134 -3.31698 0
M  V30 5184 H 491.415 3.15465 -4.95738 0
M  V30 5185 H 492.939 4.01574 -4.59968 0
M  V30 5186 H 494.353 1.89416 -5.41105 0
M  V30 5187 H 492.75 1.24934 -5.86951 0
M  V30 5188 H 493.82 0.279742 -4.84092 0
M  V30 5189 N 495.163 1.55791 0.238111 0
M  V30 5190 C 496.095 1.87513 1.31802 0
M  V30 5191 C 497.108 0.762053 1.43863 0
M  V30 5192 O 498.297 1.04024 1.45056 0
M  V30 5193 C 495.397 2.05402 2.69561 0
M  V30 5194 C 494.57 3.3632 2.79656 0
M  V30 5195 C 493.629 3.43844 3.98319 0
M  V30 5196 O 492.655 4.16994 3.87433 0
M  V30 5197 N 493.857 2.73777 5.11885 0
M  V30 5198 H 496.622 2.80734 1.04922 0
M  V30 5199 H 494.183 1.56135 0.428196 0
M  V30 5200 H 496.175 2.07769 3.47296 0
M  V30 5201 H 494.745 1.18884 2.89111 0
M  V30 5202 H 493.965 3.46195 1.88528 0
M  V30 5203 H 495.253 4.22594 2.83358 0
M  V30 5204 H 494.651 2.14094 5.23622 0
M  V30 5205 H 493.208 2.81825 5.87723 0
M  V30 5206 N 496.642 -0.504142 1.49319 0
M  V30 5207 C 498.058 -0.835039 1.36012 0
M  V30 5208 C 498.258 -1.97674 0.390808 0
M  V30 5209 O 497.314 -2.51867 -0.178655 0
M  V30 5210 C 498.627 -1.17821 2.76656 0
M  V30 5211 C 500.175 -1.2866 2.85334 0
M  V30 5212 C 500.65 -1.66307 4.26739 0
M  V30 5213 N 502.141 -1.73362 4.29534 0
M  V30 5214 C 502.876 -2.0393 5.35911 0
M  V30 5215 N 502.372 -2.32744 6.52535 0
M  V30 5216 N 504.165 -2.05155 5.23324 0
M  V30 5217 H 496.316 0.248764 2.10938 0
M  V30 5218 H 498.579 0.0486962 0.946748 0
M  V30 5219 H 498.285 -0.412682 3.4927 0
M  V30 5220 H 498.159 -2.12239 3.11825 0
M  V30 5221 H 500.546 -2.04285 2.1296 0
M  V30 5222 H 500.627 -0.323004 2.53752 0
M  V30 5223 H 500.271 -0.91234 4.99639 0
M  V30 5224 H 500.201 -2.63761 4.55782 0
M  V30 5225 H 502.692 -1.53268 3.45424 0
M  V30 5226 H 503.005 -2.55248 7.2943 0
M  V30 5227 H 501.35 -2.30207 6.55767 0
M  V30 5228 H 504.541 -1.82119 4.3122 0
M  V30 5229 H 504.714 -2.28644 6.06322 0
M  V30 5230 N 498.12 -1.38341 -0.754957 0
M  V30 5231 C 499.083 -1.35262 -1.85032 0
M  V30 5232 C 500.083 -0.253393 -1.58791 0
M  V30 5233 O 501.273 -0.510205 -1.66561 0
M  V30 5234 C 498.405 -1.10544 -3.22479 0
M  V30 5235 H 499.598 -2.32712 -1.8917 0
M  V30 5236 H 497.151 -1.23614 -0.956515 0
M  V30 5237 H 497.886 -0.136952 -3.24011 0
M  V30 5238 H 497.671 -1.90127 -3.4292 0
M  V30 5239 H 499.161 -1.11082 -4.02555 0
M  V30 5240 N 499.598 0.982988 -1.23187 0
M  V30 5241 C 500.508 2.10907 -1.02739 0
M  V30 5242 C 501.524 1.73979 0.0273188 0
M  V30 5243 O 502.7 2.00702 -0.16757 0
M  V30 5244 C 499.765 3.41142 -0.618304 0
M  V30 5245 C 498.826 3.92112 -1.74777 0
M  V30 5246 C 498.059 5.16131 -1.3581 0
M  V30 5247 O 498.282 5.6989 -0.241201 0
M  V30 5248 O 497.216 5.61103 -2.17824 0
M  V30 5249 H 501.042 2.31046 -1.97108 0
M  V30 5250 H 498.627 1.09284 -1.01869 0
M  V30 5251 H 500.509 4.19488 -0.400982 0
M  V30 5252 H 499.184 3.2234 0.296421 0
M  V30 5253 H 498.091 3.14895 -2.0197 0
M  V30 5254 H 499.424 4.15364 -2.64071 0
M  V30 5255 N 501.076 1.04316 1.18135 0
M  V30 5256 C 502.039 0.640794 2.2006 0
M  V30 5257 C 503.039 -0.303124 1.57917 0
M  V30 5258 O 504.229 -0.0881855 1.73977 0
M  V30 5259 C 501.361 -0.060148 3.40847 0
M  V30 5260 H 502.554 1.54281 2.57172 0
M  V30 5261 H 500.107 0.836004 1.32063 0
M  V30 5262 H 500.842 -0.975845 3.0927 0
M  V30 5263 H 500.627 0.618319 3.87194 0
M  V30 5264 H 502.117 -0.328082 4.16309 0
M  V30 5265 N 502.554 -1.34406 0.822964 0
M  V30 5266 C 503.502 -2.31428 0.233165 0
M  V30 5267 C 504.496 -1.57404 -0.626118 0
M  V30 5268 O 505.702 -1.72402 -0.517453 0
M  V30 5269 H 502.077 -0.749863 0.0566557 0
M  V30 5270 H 504.048 -2.78699 1.06628 0
M  V30 5271 C 502.797 -3.42653 -0.590264 0
M  V30 5272 H 502.12 -3.99753 0.0616129 0
M  V30 5273 H 503.56 -4.12778 -0.969054 0
M  V30 5274 C 502.019 -2.87112 -1.76262 0
M  V30 5275 O 502.549 -2.81995 -2.8608 0
M  V30 5276 N 500.755 -2.43934 -1.57938 0
M  V30 5277 H 500.302 -2.48296 -0.686078 0
M  V30 5278 H 500.26 -2.07123 -2.36532 0
M  V30 5279 N 504.032 -0.577932 -1.46621 0
M  V30 5280 C 505.257 -0.0652536 -2.07297 0
M  V30 5281 C 505.682 1.22828 -1.4246 0
M  V30 5282 O 505.04 1.74075 -0.506718 0
M  V30 5283 C 505.088 0.0920589 -3.60482 0
M  V30 5284 O 504.192 1.14972 -3.96049 0
M  V30 5285 H 503.533 -0.06065 -0.661224 0
M  V30 5286 H 506.063 -0.799515 -1.88332 0
M  V30 5287 H 506.073 0.299741 -4.06897 0
M  V30 5288 H 504.748 -0.852612 -4.07067 0
M  V30 5289 H 503.325 0.920879 -3.61351 0
M  V30 5290 N 505.51 1.54411 -0.315457 0
M  V30 5291 C 506.44 2.27002 0.547039 0
M  V30 5292 C 507.421 1.27492 1.12605 0
M  V30 5293 O 508.606 1.5629 1.15269 0
M  V30 5294 C 505.736 3.02171 1.71201 0
M  V30 5295 C 504.69 4.0895 1.26268 0
M  V30 5296 C 504.016 4.71915 2.51396 0
M  V30 5297 C 505.316 5.20891 0.383419 0
M  V30 5298 H 507.01 2.99343 -0.0584517 0
M  V30 5299 H 504.556 1.4397 -0.0295527 0
M  V30 5300 H 506.509 3.51681 2.32161 0
M  V30 5301 H 505.233 2.27433 2.34397 0
M  V30 5302 H 503.892 3.60312 0.676062 0
M  V30 5303 H 503.54 3.93801 3.12937 0
M  V30 5304 H 503.24 5.44039 2.22026 0
M  V30 5305 H 504.764 5.24195 3.13133 0
M  V30 5306 H 506.178 5.66206 0.899082 0
M  V30 5307 H 504.575 5.99821 0.182857 0
M  V30 5308 H 505.645 4.81324 -0.587821 0
M  V30 5309 N 506.988 0.0434614 1.5754 0
M  V30 5310 C 507.951 -0.918696 2.09982 0
M  V30 5311 C 508.951 -1.24488 1.01781 0
M  V30 5312 O 510.141 -1.18284 1.27885 0
M  V30 5313 C 507.273 -2.23093 2.57764 0
M  V30 5314 H 508.466 -0.464229 2.96285 0
M  V30 5315 H 506.019 -0.204818 1.54952 0
M  V30 5316 H 506.754 -2.73137 1.74832 0
M  V30 5317 H 506.539 -2.00724 3.36827 0
M  V30 5318 H 508.029 -2.92028 2.98512 0
M  V30 5319 N 508.466 -1.55915 -0.229846 0
M  V30 5320 C 509.694 -1.82617 -0.972562 0
M  V30 5321 C 510.109 -0.621488 -1.78278 0
M  V30 5322 O 509.466 0.409956 -1.77836 0
M  V30 5323 C 509.517 -3.0774 -1.89679 0
M  V30 5324 O 509.238 -4.23559 -1.11934 0
M  V30 5325 C 510.739 -3.47368 -2.75409 0
M  V30 5326 H 507.959 -0.60727 -0.285419 0
M  V30 5327 H 510.503 -2.02996 -0.247579 0
M  V30 5328 H 508.658 -2.89361 -2.57583 0
M  V30 5329 H 509.072 -4.94586 -1.74599 0
M  V30 5330 H 510.546 -4.37977 -3.35977 0
M  V30 5331 H 511.023 -2.68737 -3.47386 0
M  V30 5332 H 511.629 -3.68158 -2.12931 0
M  V30 5333 N 509.944 0.496216 -1.49584 0
M  V30 5334 C 511.174 1.27209 -1.62793 0
M  V30 5335 C 511.582 1.86799 -0.300476 0
M  V30 5336 O 510.925 1.68802 0.724674 0
M  V30 5337 C 510.987 2.43812 -2.64189 0
M  V30 5338 C 510.651 2.05055 -4.08414 0
M  V30 5339 C 511.648 1.58752 -4.9507 0
M  V30 5340 C 509.333 2.14543 -4.54177 0
M  V30 5341 C 511.327 1.22448 -6.25528 0
M  V30 5342 C 509.014 1.77851 -5.84647 0
M  V30 5343 C 510.012 1.31878 -6.70147 0
M  V30 5344 O 509.7 0.956834 -7.98185 0
M  V30 5345 H 509.432 0.391848 -0.550846 0
M  V30 5346 H 511.986 0.601712 -1.96389 0
M  V30 5347 H 510.216 3.13941 -2.25783 0
M  V30 5348 H 511.905 3.05829 -2.66877 0
M  V30 5349 H 512.671 1.50863 -4.60939 0
M  V30 5350 H 508.55 2.49277 -3.87791 0
M  V30 5351 H 512.094 0.864933 -6.92217 0
M  V30 5352 H 507.991 1.8539 -6.18305 0
M  V30 5353 H 508.759 1.08789 -8.11238 0
M  V30 5354 N 511.423 1.38739 0.74761 0
M  V30 5355 C 512.671 1.35007 1.50391 0
M  V30 5356 C 512.992 -0.0574274 1.94915 0
M  V30 5357 O 512.262 -1.00628 1.6808 0
M  V30 5358 H 510.842 0.496784 0.557866 0
M  V30 5359 H 513.504 1.73479 0.888319 0
M  V30 5360 H 512.6 2.00474 2.392 0
M  V30 5361 N 512.901 -0.976442 1.23707 0
M  V30 5362 C 513.848 -2.06952 1.02174 0
M  V30 5363 C 514.818 -1.65984 -0.0621034 0
M  V30 5364 O 516.003 -1.90584 0.0907906 0
M  V30 5365 C 513.143 -3.39425 0.62327 0
M  V30 5366 C 512.256 -3.9364 1.77966 0
M  V30 5367 C 511.391 -5.14343 1.3276 0
M  V30 5368 C 510.43 -5.60733 2.45449 0
M  V30 5369 N 509.567 -6.72662 2.01172 0
M  V30 5370 H 514.407 -2.24704 1.95734 0
M  V30 5371 H 511.944 -1.10143 0.975034 0
M  V30 5372 H 513.902 -4.15526 0.37332 0
M  V30 5373 H 512.532 -3.21624 -0.275329 0
M  V30 5374 H 511.584 -3.14258 2.14351 0
M  V30 5375 H 512.896 -4.24035 2.62671 0
M  V30 5376 H 512.05 -5.97789 1.03601 0
M  V30 5377 H 510.789 -4.8561 0.450975 0
M  V30 5378 H 509.794 -4.75865 2.75378 0
M  V30 5379 H 511.019 -5.91483 3.33654 0
M  V30 5380 H 508.965 -6.45681 1.15895 0
M  V30 5381 H 508.882 -7.02462 2.79434 0
M  V30 5382 H 510.15 -7.59572 1.75129 0
M  V30 5383 N 514.379 -1.04941 -1.1758 0
M  V30 5384 C 515.609 -0.777166 -1.91425 0
M  V30 5385 C 516.017 0.670647 -1.76915 0
M  V30 5386 O 515.36 1.46965 -1.10213 0
M  V30 5387 C 515.422 -1.07495 -3.43052 0
M  V30 5388 C 515.086 -2.51844 -3.81345 0
M  V30 5389 C 516.083 -3.50047 -3.844 0
M  V30 5390 C 513.768 -2.86787 -4.12382 0
M  V30 5391 C 515.762 -4.81239 -4.17957 0
M  V30 5392 C 513.449 -4.18182 -4.45608 0
M  V30 5393 C 514.447 -5.15219 -4.48373 0
M  V30 5394 O 514.135 -6.44258 -4.80819 0
M  V30 5395 H 513.867 -0.282209 -0.614275 0
M  V30 5396 H 516.421 -1.40258 -1.50056 0
M  V30 5397 H 514.651 -0.392437 -3.84704 0
M  V30 5398 H 516.34 -0.78912 -3.98155 0
M  V30 5399 H 517.106 -3.24391 -3.60548 0
M  V30 5400 H 512.985 -2.11922 -4.09402 0
M  V30 5401 H 516.529 -5.56974 -4.2003 0
M  V30 5402 H 512.426 -4.43602 -4.68922 0
M  V30 5403 H 513.194 -6.49041 -4.98686 0
M  V30 5404 N 515.857 1.33968 -0.830081 0
M  V30 5405 C 516.804 2.29387 -0.255008 0
M  V30 5406 C 517.774 1.53923 0.624243 0
M  V30 5407 O 518.959 1.82262 0.564372 0
M  V30 5408 C 516.099 3.4034 0.571209 0
M  V30 5409 C 515.212 4.30729 -0.331083 0
M  V30 5410 C 514.347 5.2879 0.505389 0
M  V30 5411 C 513.386 6.10819 -0.395843 0
M  V30 5412 N 512.523 7.00948 0.401979 0
M  V30 5413 H 517.363 2.77972 -1.07404 0
M  V30 5414 H 514.9 1.36785 -0.541133 0
M  V30 5415 H 516.858 4.03361 1.06562 0
M  V30 5416 H 515.488 2.9297 1.35529 0
M  V30 5417 H 514.54 3.68507 -0.943759 0
M  V30 5418 H 515.852 4.88181 -1.02377 0
M  V30 5419 H 515.006 5.97297 1.06399 0
M  V30 5420 H 513.745 4.71894 1.23155 0
M  V30 5421 H 512.75 5.41238 -0.966529 0
M  V30 5422 H 513.975 6.69797 -1.12023 0
M  V30 5423 H 511.921 6.46512 1.11168 0
M  V30 5424 H 511.838 7.55643 -0.232167 0
M  V30 5425 H 513.106 7.73774 0.943102 0
M  V30 5426 N 517.335 0.585699 1.46312 0
M  V30 5427 C 518.583 0.072278 2.01971 0
M  V30 5428 C 518.904 -1.29345 1.45928 0
M  V30 5429 O 518.174 -1.84973 0.645109 0
M  V30 5430 H 516.754 0.023729 0.746623 0
M  V30 5431 H 519.416 0.762155 1.7938 0
M  V30 5432 H 518.512 0.00552767 3.121 0
M  V30 5433 N 518.813 -1.54241 0.323641 0
M  V30 5434 C 520.061 -2.00174 -0.278359 0
M  V30 5435 C 520.382 -1.2134 -1.52648 0
M  V30 5436 O 519.652 -0.315244 -1.93347 0
M  V30 5437 H 518.232 -0.739463 -0.105845 0
M  V30 5438 H 520.894 -1.89864 0.440204 0
M  V30 5439 H 519.99 -3.07486 -0.5347 0
M  V30 5440 N 520.291 -0.0518155 -1.57515 0
M  V30 5441 C 521.254 0.907547 -2.10467 0
M  V30 5442 C 522.254 1.23947 -1.02439 0
M  V30 5443 O 523.444 1.17604 -1.2851 0
M  V30 5444 C 520.576 2.21723 -2.58944 0
M  V30 5445 H 521.769 0.44851 -2.96527 0
M  V30 5446 H 519.322 0.196598 -1.55059 0
M  V30 5447 H 520.057 2.72206 -1.76279 0
M  V30 5448 H 519.842 1.98935 -3.37886 0
M  V30 5449 H 521.332 2.90441 -3.00056 0
M  V30 5450 N 521.769 1.56035 0.221574 0
M  V30 5451 C 523.017 1.78693 0.944102 0
M  V30 5452 C 523.338 0.620317 1.8487 0
M  V30 5453 O 522.608 -0.362784 1.92512 0
M  V30 5454 H 521.188 0.659082 0.351597 0
M  V30 5455 H 523.85 1.93497 0.233435 0
M  V30 5456 H 522.946 2.70837 1.55093 0
M  V30 5457 N 523.247 -0.488276 1.49845 0
M  V30 5458 C 524.495 -1.23911 1.59657 0
M  V30 5459 C 524.816 -1.92816 0.291005 0
M  V30 5460 O 524.086 -1.83328 -0.690485 0
M  V30 5461 H 522.666 -0.460357 0.588286 0
M  V30 5462 H 525.328 -0.564794 1.86537 0
M  V30 5463 H 524.424 -1.99625 2.39909 0
M  V30 5464 N 524.725 -1.39134 -0.740242 0
M  V30 5465 C 525.635 -1.39697 -1.88473 0
M  V30 5466 C 526.651 -0.292403 -1.71526 0
M  V30 5467 O 527.827 -0.533021 -1.94219 0
M  V30 5468 C 524.892 -1.23382 -3.24003 0
M  V30 5469 C 523.953 -2.43763 -3.53381 0
M  V30 5470 C 523.186 -2.28216 -4.82445 0
M  V30 5471 O 523.409 -1.28288 -5.55786 0
M  V30 5472 O 522.343 -3.1709 -5.11603 0
M  V30 5473 H 526.169 -2.36159 -1.90952 0
M  V30 5474 H 523.754 -1.20194 -0.887346 0
M  V30 5475 H 525.636 -1.16395 -4.05006 0
M  V30 5476 H 524.311 -0.300121 -3.22306 0
M  V30 5477 H 523.218 -2.56325 -2.72485 0
M  V30 5478 H 524.551 -3.35808 -3.59852 0
M  V30 5479 N 526.204 0.969867 -1.24223 0
M  V30 5480 C 527.152 2.08535 -1.03034 0
M  V30 5481 C 528.146 1.69366 0.0340379 0
M  V30 5482 O 529.352 1.79597 -0.12034 0
M  V30 5483 H 525.727 0.682313 -0.316154 0
M  V30 5484 H 527.698 2.23569 -1.97635 0
M  V30 5485 C 526.447 3.4158 -0.649509 0
M  V30 5486 H 525.77 3.72177 -1.46028 0
M  V30 5487 H 527.21 4.20536 -0.540841 0
M  V30 5488 C 525.669 3.30703 0.643194 0
M  V30 5489 O 526.199 3.64443 1.68951 0
M  V30 5490 N 524.405 2.83841 0.623095 0
M  V30 5491 H 523.952 2.56583 -0.228719 0
M  V30 5492 H 523.91 2.76946 1.48823 0
M  V30 5493 N 527.682 1.05563 1.17022 0
M  V30 5494 C 528.645 0.664098 2.19368 0
M  V30 5495 C 529.645 -0.286358 1.5823 0
M  V30 5496 O 530.835 -0.069728 1.7406 0
M  V30 5497 C 527.967 -0.0239932 3.40892 0
M  V30 5498 H 529.16 1.57 2.55521 0
M  V30 5499 H 526.713 0.849964 1.31169 0
M  V30 5500 H 527.448 -0.942988 3.10287 0
M  V30 5501 H 527.233 0.659351 3.86516 0
M  V30 5502 H 528.723 -0.283909 4.16634 0
M  V30 5503 N 529.16 -1.33526 0.837174 0
M  V30 5504 C 530.408 -1.97446 0.431211 0
M  V30 5505 C 530.729 -1.6665 -1.01255 0
M  V30 5506 O 529.999 -0.964559 -1.70508 0
M  V30 5507 H 528.579 -0.73043 0.156463 0
M  V30 5508 H 531.241 -1.62918 1.06976 0
M  V30 5509 H 530.337 -3.07001 0.561877 0
M  V30 5510 N 530.638 -0.59345 -1.46 0
M  V30 5511 C 531.601 0.123538 -2.28867 0
M  V30 5512 C 532.601 0.808628 -1.38989 0
M  V30 5513 O 533.791 0.658945 -1.61256 0
M  V30 5514 C 530.923 1.1847 -3.19653 0
M  V30 5515 H 532.116 -0.604843 -2.93737 0
M  V30 5516 H 529.669 -0.351875 -1.52288 0
M  V30 5517 H 530.404 1.94431 -2.59552 0
M  V30 5518 H 530.189 0.69783 -3.8584 0
M  V30 5519 H 531.679 1.68726 -3.81997 0
M  V30 5520 N 532.116 1.54067 -0.331816 0
M  V30 5521 C 533.341 2.05599 0.272705 0
M  V30 5522 C 533.766 1.2059 1.44359 0
M  V30 5523 O 533.124 0.216907 1.79998 0
M  V30 5524 C 533.172 3.54188 0.677021 0
M  V30 5525 O 532.276 3.72082 1.77844 0
M  V30 5526 H 531.617 0.662286 0.0476801 0
M  V30 5527 H 534.147 1.98826 -0.482624 0
M  V30 5528 H 534.157 3.96608 0.957415 0
M  V30 5529 H 532.832 4.15513 -0.179325 0
M  V30 5530 H 531.409 3.41566 1.49622 0
M  V30 5531 N 533.594 0.0601682 1.57485 0
M  V30 5532 C 534.524 -0.90889 2.15085 0
M  V30 5533 C 535.505 -1.31838 1.07484 0
M  V30 5534 O 536.69 -1.3915 1.35466 0
M  V30 5535 C 533.82 -2.18059 2.7031 0
M  V30 5536 C 532.774 -1.91088 3.82974 0
M  V30 5537 C 532.1 -3.24789 4.24754 0
M  V30 5538 C 533.4 -1.22535 5.07723 0
M  V30 5539 H 535.094 -0.429093 2.96309 0
M  V30 5540 H 532.64 -0.204952 1.42534 0
M  V30 5541 H 534.593 -2.86258 3.09248 0
M  V30 5542 H 533.317 -2.6826 1.8629 0
M  V30 5543 H 531.976 -1.25297 3.44523 0
M  V30 5544 H 531.624 -3.72809 3.37672 0
M  V30 5545 H 531.324 -3.07538 5.00694 0
M  V30 5546 H 532.848 -3.94205 4.66299 0
M  V30 5547 H 534.262 -1.80783 5.4405 0
M  V30 5548 H 532.659 -1.1558 5.88864 0
M  V30 5549 H 533.729 -0.202692 4.84476 0
M  V30 5550 N 535.072 -1.5615 -0.213296 0
M  V30 5551 C 536.302 -1.83372 -0.951757 0
M  V30 5552 C 536.71 -0.638158 -1.78113 0
M  V30 5553 O 536.053 0.402609 -1.79234 0
M  V30 5554 C 536.115 -3.04444 -1.91192 0
M  V30 5555 C 535.779 -4.39107 -1.26627 0
M  V30 5556 C 536.776 -5.15794 -0.652087 0
M  V30 5557 C 534.461 -4.85834 -1.27556 0
M  V30 5558 C 536.455 -6.37376 -0.055814 0
M  V30 5559 C 534.142 -6.07356 -0.675451 0
M  V30 5560 C 535.14 -6.82967 -0.0666367 0
M  V30 5561 O 534.828 -8.0219 0.524119 0
M  V30 5562 H 534.56 -0.613398 -0.284111 0
M  V30 5563 H 537.114 -2.04096 -0.231112 0
M  V30 5564 H 535.344 -2.79559 -2.67178 0
M  V30 5565 H 537.033 -3.18466 -2.51662 0
M  V30 5566 H 537.799 -4.80796 -0.637172 0
M  V30 5567 H 533.678 -4.26949 -1.73883 0
M  V30 5568 H 537.222 -6.96334 0.420004 0
M  V30 5569 H 533.119 -6.41825 -0.687806 0
M  V30 5570 H 533.887 -8.17426 0.419243 0
M  V30 5571 N 536.55 0.480323 -1.50102 0
M  V30 5572 C 537.46 1.60547 -1.71061 0
M  V30 5573 C 538.476 1.63564 -0.593529 0
M  V30 5574 O 539.652 1.81604 -0.870751 0
M  V30 5575 C 536.717 2.96814 -1.79171 0
M  V30 5576 C 535.778 3.04259 -3.02861 0
M  V30 5577 C 535.011 4.34027 -3.10574 0
M  V30 5578 O 535.234 5.24009 -2.25323 0
M  V30 5579 O 534.168 4.46873 -4.03223 0
M  V30 5580 H 537.994 1.45788 -2.6642 0
M  V30 5581 H 535.579 0.658838 -1.34088 0
M  V30 5582 H 537.461 3.77765 -1.86738 0
M  V30 5583 H 536.136 3.11791 -0.869947 0
M  V30 5584 H 535.043 2.22419 -3.008 0
M  V30 5585 H 536.376 2.94216 -3.94586 0
M  V30 5586 N 538.028 1.39524 0.732853 0
M  V30 5587 C 538.975 1.38416 1.84688 0
M  V30 5588 C 539.945 0.243539 1.64305 0
M  V30 5589 O 541.13 0.438979 1.85681 0
M  V30 5590 C 538.27 1.23555 3.22224 0
M  V30 5591 C 537.383 2.47179 3.54298 0
M  V30 5592 C 536.518 2.2489 4.81246 0
M  V30 5593 C 535.557 3.44178 5.0617 0
M  V30 5594 N 534.694 3.21192 6.24323 0
M  V30 5595 H 539.534 2.33645 1.84971 0
M  V30 5596 H 537.071 1.16059 0.903804 0
M  V30 5597 H 539.029 1.12949 4.0162 0
M  V30 5598 H 537.659 0.31954 3.21215 0
M  V30 5599 H 536.711 2.68379 2.69587 0
M  V30 5600 H 538.023 3.36022 3.68633 0
M  V30 5601 H 537.177 2.11538 5.68627 0
M  V30 5602 H 535.916 1.33443 4.69089 0
M  V30 5603 H 534.921 3.58025 4.17251 0
M  V30 5604 H 536.146 4.36528 5.20212 0
M  V30 5605 H 534.092 2.32413 6.1345 0
M  V30 5606 H 534.009 4.03594 6.39256 0
M  V30 5607 H 535.277 3.1154 7.14537 0
M  V30 5608 N 539.506 -0.963266 1.24736 0
M  V30 5609 C 540.453 -2.05857 1.04363 0
M  V30 5610 C 541.423 -1.6604 -0.0444951 0
M  V30 5611 O 542.608 -1.90477 0.110999 0
M  V30 5612 C 539.748 -3.38745 0.659235 0
M  V30 5613 C 538.861 -3.9173 1.82131 0
M  V30 5614 C 537.996 -5.12906 1.38208 0
M  V30 5615 C 537.035 -5.58098 2.51382 0
M  V30 5616 N 536.172 -6.7049 2.08295 0
M  V30 5617 H 541.012 -2.22616 1.98107 0
M  V30 5618 H 538.549 -1.09103 0.986661 0
M  V30 5619 H 540.507 -4.15107 0.417371 0
M  V30 5620 H 539.137 -3.21898 -0.241201 0
M  V30 5621 H 538.189 -3.11966 2.17672 0
M  V30 5622 H 539.501 -4.21225 2.67153 0
M  V30 5623 H 538.655 -5.96657 1.09935 0
M  V30 5624 H 537.394 -4.85105 0.502456 0
M  V30 5625 H 536.399 -4.72917 2.80409 0
M  V30 5626 H 537.624 -5.87911 3.39909 0
M  V30 5627 H 535.57 -6.44416 1.22737 0
M  V30 5628 H 535.487 -6.99458 2.86869 0
M  V30 5629 H 536.755 -7.57672 1.83175 0
M  V30 5630 N 540.985 -1.06182 -1.16461 0
M  V30 5631 C 542.215 -0.797425 -1.9059 0
M  V30 5632 C 542.623 0.651845 -1.77616 0
M  V30 5633 O 541.966 1.45788 -1.11766 0
M  V30 5634 C 542.028 -1.11128 -3.41893 0
M  V30 5635 C 541.692 -2.55874 -3.78652 0
M  V30 5636 C 542.689 -3.54104 -3.80665 0
M  V30 5637 C 540.374 -2.91144 -4.09317 0
M  V30 5638 C 542.368 -4.85645 -4.12829 0
M  V30 5639 C 540.055 -4.22885 -4.41148 0
M  V30 5640 C 541.053 -5.19945 -4.42883 0
M  V30 5641 O 540.741 -6.49322 -4.73959 0
M  V30 5642 H 540.473 -0.288709 -0.611247 0
M  V30 5643 H 543.027 -1.41841 -1.4856 0
M  V30 5644 H 541.257 -0.433217 -3.84266 0
M  V30 5645 H 542.946 -0.831306 -3.97296 0
M  V30 5646 H 543.712 -3.28197 -3.57088 0
M  V30 5647 H 539.591 -2.16252 -4.07131 0
M  V30 5648 H 543.135 -5.61398 -4.14099 0
M  V30 5649 H 539.032 -4.48551 -4.6419 0
M  V30 5650 H 539.8 -6.54294 -4.91774 0
M  V30 5651 N 542.463 1.3308 -0.844243 0
M  V30 5652 C 543.709 1.97898 -0.443206 0
M  V30 5653 C 544.042 1.66699 0.99625 0
M  V30 5654 O 543.317 0.949704 1.69738 0
M  V30 5655 C 543.6 3.53801 -0.670606 0
M  V30 5656 C 543.453 3.94667 -2.15772 0
M  V30 5657 C 544.772 4.39936 -0.120226 0
M  V30 5658 H 541.891 0.718861 -0.162504 0
M  V30 5659 H 544.533 1.57633 -1.06075 0
M  V30 5660 H 542.683 3.88229 -0.14496 0
M  V30 5661 H 544.355 3.70469 -2.74865 0
M  V30 5662 H 542.598 3.44203 -2.6402 0
M  V30 5663 H 543.269 5.03275 -2.26757 0
M  V30 5664 H 545.745 4.12183 -0.5696 0
M  V30 5665 H 544.621 5.4803 -0.308984 0
M  V30 5666 H 544.882 4.31184 0.976347 0
M  V30 5667 N 543.941 0.601185 1.45683 0
M  V30 5668 C 545.171 0.0999093 2.06358 0
M  V30 5669 C 545.579 -1.21831 1.44754 0
M  V30 5670 O 544.922 -1.75157 0.553695 0
M  V30 5671 C 544.984 -0.12085 3.59297 0
M  V30 5672 C 544.648 1.11459 4.432 0
M  V30 5673 C 545.645 2.03118 4.7858 0
M  V30 5674 C 543.33 1.34162 4.84051 0
M  V30 5675 C 545.324 3.15814 5.53661 0
M  V30 5676 C 543.011 2.4716 5.58888 0
M  V30 5677 C 544.009 3.37814 5.93608 0
M  V30 5678 O 543.697 4.48846 6.66928 0
M  V30 5679 H 543.429 0.0630316 0.673055 0
M  V30 5680 H 545.983 0.826982 1.88016 0
M  V30 5681 H 544.213 -0.902744 3.76015 0
M  V30 5682 H 545.902 -0.572925 4.01836 0
M  V30 5683 H 546.668 1.86801 4.47583 0
M  V30 5684 H 542.547 0.645018 4.56465 0
M  V30 5685 H 546.091 3.86596 5.8068 0
M  V30 5686 H 541.988 2.63432 5.89299 0
M  V30 5687 H 542.756 4.47446 6.85371 0
M  V30 5688 O 545.458 -1.54135 0.48216 0
M  V30 5689 H 546.149 -1.93658 -0.0403371 0
M  V30 END ATOM
M  V30 BEGIN BOND
M  V30 END BOND
M  V30 END CTAB
M  END
$$$$
