drugbank_target|P09546 Bifunctional protein PutA (DB03051; DB03147; DB04398)
 OpenBabel12092119593D

  0  0  0     0  0            999 V3000
M  V30 BEGIN CTAB
M  V30 COUNTS 20283 20469 0 0 0
M  V30 BEGIN ATOM
M  V30 1 H -0.908 1.98254 -0.117106 0
M  V30 2 N 0 1.576 0 0
M  V30 3 C 0.933 2.03868 1.02534 0
M  V30 4 C 1.911 0.928543 1.3348 0
M  V30 5 O 3.095 1.19667 1.45644 0
M  V30 6 C 0.222 2.43627 2.35294 0
M  V30 7 C -0.732 3.65373 2.2001 0
M  V30 8 S 0.101 5.13292 1.52614 0
M  V30 9 C 1.257 5.56322 2.86805 0
M  V30 10 H 1.49 2.90518 0.631377 0
M  V30 11 H -0.977 1.52953 0.210867 0
M  V30 12 H 0.981 2.67203 3.11629 0
M  V30 13 H -0.358 1.57376 2.7183 0
M  V30 14 H -1.165 3.90944 3.18086 0
M  V30 15 H -1.563 3.418 1.51819 0
M  V30 16 H 0.729 5.58782 3.83104 0
M  V30 17 H 1.672 6.56266 2.65933 0
M  V30 18 H 2.08 4.83886 2.90714 0
M  V30 19 N 1.4781 -0.272755 1.55222 0
M  V30 20 C 2.7261 -1.00234 1.75492 0
M  V30 21 C 3.0471 -1.8681 0.5592 0
M  V30 22 O 2.3171 -1.91215 -0.425882 0
M  V30 23 H 0.8971 -0.373076 0.647166 0
M  V30 24 H 3.5591 -0.296926 1.92625 0
M  V30 25 H 2.6551 -1.63913 2.65592 0
M  V30 26 N 2.9562 -1.48159 -0.537278 0
M  V30 27 C 4.1842 -1.59454 -1.31841 0
M  V30 28 C 4.5992 -0.252065 -1.8711 0
M  V30 29 O 3.9562 0.757621 -1.66031 0
M  V30 30 C 4.0072 -2.63546 -2.47439 0
M  V30 31 O 3.7282 -3.92583 -1.94449 0
M  V30 32 C 5.2292 -2.85212 -3.39366 0
M  V30 33 H 2.4492 -0.53785 -0.401196 0
M  V30 34 H 4.9932 -1.93932 -0.648891 0
M  V30 35 H 3.1482 -2.31946 -3.1029 0
M  V30 36 H 3.5622 -4.49629 -2.70063 0
M  V30 37 H 5.0362 -3.61863 -4.16844 0
M  V30 38 H 5.5132 -1.93765 -3.94147 0
M  V30 39 H 6.1192 -3.18086 -2.82314 0
M  V30 40 N 4.4343 0.785586 -1.36625 0
M  V30 41 C 5.6623 1.57448 -1.3423 0
M  V30 42 C 6.0773 1.88649 0.0755653 0
M  V30 43 O 5.4343 1.50414 1.03354 0
M  V30 44 C 5.4853 2.89316 -2.16745 0
M  V30 45 O 5.2063 2.59459 -3.53005 0
M  V30 46 C 6.7073 3.83606 -2.22174 0
M  V30 47 H 3.9273 0.488226 -0.4603 0
M  V30 48 H 6.4713 0.974733 -1.79775 0
M  V30 49 H 4.6263 3.4575 -1.74745 0
M  V30 50 H 5.0403 3.43804 -3.96105 0
M  V30 51 H 6.5143 4.73181 -2.8426 0
M  V30 52 H 6.9913 4.21734 -1.22627 0
M  V30 53 H 7.5973 3.33104 -2.64427 0
M  V30 54 N 5.9124 1.20967 1.01018 0
M  V30 55 C 7.1404 1.04956 1.78303 0
M  V30 56 C 7.5554 -0.400915 1.84494 0
M  V30 57 O 6.9124 -1.27826 1.30257 0
M  V30 58 C 6.9634 1.63403 3.22462 0
M  V30 59 O 6.6844 3.02775 3.16637 0
M  V30 60 C 8.1854 1.52432 4.16268 0
M  V30 61 H 5.4054 0.368858 0.560522 0
M  V30 62 H 7.9494 1.60193 1.27116 0
M  V30 63 H 6.1044 1.1227 3.70775 0
M  V30 64 H 6.5184 3.30626 4.07169 0
M  V30 65 H 7.9924 1.98078 5.15237 0
M  V30 66 H 8.4694 0.477875 4.36592 0
M  V30 67 H 9.0754 2.02787 3.73841 0
M  V30 68 N 7.3905 -1.2043 1.01659 0
M  V30 69 C 8.3235 -2.21924 0.531521 0
M  V30 70 C 9.3015 -1.57054 -0.421032 0
M  V30 71 O 10.4855 -1.85389 -0.341035 0
M  V30 72 C 7.6125 -3.37942 -0.226496 0
M  V30 73 C 6.6585 -4.21115 0.67561 0
M  V30 74 S 7.4915 -4.90674 2.14475 0
M  V30 75 C 8.6475 -6.10113 1.3969 0
M  V30 76 H 8.8805 -2.62725 1.3915 0
M  V30 77 H 6.4135 -1.30481 0.825479 0
M  V30 78 H 8.3715 -4.05196 -0.657738 0
M  V30 79 H 7.0325 -2.956 -1.06205 0
M  V30 80 H 6.2255 -5.03918 0.091108 0
M  V30 81 H 5.8275 -3.59115 1.04463 0
M  V30 82 H 8.1195 -6.7411 0.676897 0
M  V30 83 H 9.0625 -6.73022 2.20107 0
M  V30 84 H 9.4705 -5.57283 0.899786 0
M  V30 85 N 8.8686 -0.792821 -1.36206 0
M  V30 86 C 10.1166 -0.366062 -1.98757 0
M  V30 87 C 10.4376 1.0668 -1.63231 0
M  V30 88 O 9.7076 1.73587 -0.907978 0
M  V30 89 H 8.2876 -0.132364 -0.735179 0
M  V30 90 H 10.9496 -1.01562 -1.66347 0
M  V30 91 H 10.0456 -0.460638 -3.08682 0
M  V30 92 N 10.3467 1.47872 -0.545128 0
M  V30 93 C 11.5927 2.02793 -0.0166104 0
M  V30 94 C 11.9257 1.41987 1.32489 0
M  V30 95 O 11.2007 0.571045 1.85928 0
M  V30 96 C 11.4837 3.59989 0.0893294 0
M  V30 97 C 11.3367 4.3125 -1.27841 0
M  V30 98 C 12.6557 4.32606 0.808724 0
M  V30 99 H 9.7747 0.736962 -0.00751035 0
M  V30 100 H 12.4167 1.76433 -0.705085 0
M  V30 101 H 10.5667 3.82579 0.675681 0
M  V30 102 H 12.2387 4.20035 -1.90704 0
M  V30 103 H 10.4817 3.92076 -1.85632 0
M  V30 104 H 11.1527 5.39736 -1.15713 0
M  V30 105 H 13.6287 4.14936 0.310992 0
M  V30 106 H 12.5047 5.42251 0.851782 0
M  V30 107 H 12.7657 4.00963 1.86229 0
M  V30 108 N 11.8248 0.280983 1.55075 0
M  V30 109 C 12.7718 -0.603937 2.22758 0
M  V30 110 C 13.7418 -1.1452 1.20309 0
M  V30 111 O 14.9268 -1.19343 1.48869 0
M  V30 112 C 12.0668 -1.77947 2.95684 0
M  V30 113 C 11.1798 -1.2715 4.12864 0
M  V30 114 C 10.3148 -2.4093 4.7342 0
M  V30 115 C 9.3538 -1.87165 5.82783 0
M  V30 116 N 8.4908 -2.94441 6.37377 0
M  V30 117 H 13.3308 -0.020124 2.97993 0
M  V30 118 H 10.8678 0.00183425 1.471 0
M  V30 119 H 12.8258 -2.47055 3.36184 0
M  V30 120 H 11.4558 -2.33522 2.22861 0
M  V30 121 H 10.5078 -0.473331 3.77444 0
M  V30 122 H 11.8198 -0.837751 4.91715 0
M  V30 123 H 10.9738 -3.18021 5.1667 0
M  V30 124 H 9.7128 -2.87623 3.93859 0
M  V30 125 H 8.7178 -1.08556 5.38976 0
M  V30 126 H 9.9428 -1.41401 6.64216 0
M  V30 127 H 7.8888 -3.40505 5.60707 0
M  V30 128 H 7.8058 -2.55501 7.11516 0
M  V30 129 H 9.0738 -3.71489 6.85285 0
M  V30 130 N 13.3029 -1.57598 0.00835791 0
M  V30 131 C 14.2329 -2.1198 -0.979113 0
M  V30 132 C 15.2139 -1.03091 -1.35301 0
M  V30 133 O 16.3989 -1.30818 -1.43528 0
M  V30 134 C 13.5289 -2.62995 -2.26828 0
M  V30 135 C 12.4829 -3.76485 -2.03576 0
M  V30 136 C 11.8089 -4.13846 -3.38579 0
M  V30 137 C 13.1089 -5.0342 -1.39161 0
M  V30 138 H 14.8029 -2.94738 -0.526281 0
M  V30 139 H 12.3489 -1.41783 -0.251704 0
M  V30 140 H 14.3019 -2.99669 -2.96271 0
M  V30 141 H 13.0259 -1.7737 -2.7424 0
M  V30 142 H 11.6849 -3.40217 -1.36557 0
M  V30 143 H 11.3329 -3.25232 -3.83709 0
M  V30 144 H 11.0329 -4.90312 -3.23834 0
M  V30 145 H 12.5569 -4.53086 -4.09323 0
M  V30 146 H 13.9709 -5.37812 -1.98573 0
M  V30 147 H 12.3679 -5.84746 -1.34878 0
M  V30 148 H 13.4379 -4.83548 -0.361868 0
M  V30 149 N 14.781 0.264519 -1.55364 0
M  V30 150 C 16.058 1.01677 -1.67096 0
M  V30 151 C 16.438 2.03996 -0.543015 0
M  V30 152 O 15.786 2.23907 0.45585 0
M  V30 153 C 15.996 1.66596 -3.0667 0
M  V30 154 C 17.344 2.17442 -3.64697 0
M  V30 155 O 18.368 1.76568 -3.09358 0
M  V30 156 O 17.227 2.92439 -4.61673 0
M  V30 157 H 14.321 0.472161 -0.678965 0
M  V30 158 H 16.867 0.259703 -1.67701 0
M  V30 159 H 15.639 0.924962 -3.80211 0
M  V30 160 H 15.262 2.48968 -3.10001 0
M  V30 161 N 16.2591 1.48442 0.529413 0
M  V30 162 C 17.5361 1.46978 1.29062 0
M  V30 163 C 17.9161 0.181769 2.10316 0
M  V30 164 O 17.2641 -0.836481 2.12639 0
M  V30 165 C 17.4741 2.7321 2.17157 0
M  V30 166 C 18.8221 3.21562 2.77278 0
M  V30 167 O 19.8461 2.74131 2.27444 0
M  V30 168 O 18.7051 4.04094 3.67927 0
M  V30 169 H 15.7991 0.587003 0.582543 0
M  V30 170 H 18.3451 1.60676 0.546021 0
M  V30 171 H 17.1171 3.58465 1.56903 0
M  V30 172 H 16.7401 2.62235 2.98862 0
M  V30 173 N 17.7372 -0.778329 1.37039 0
M  V30 174 C 18.7002 -1.87301 1.32102 0
M  V30 175 C 19.7002 -1.59198 0.226405 0
M  V30 176 O 20.8902 -1.67403 0.481861 0
M  V30 177 C 18.0222 -3.24309 1.05055 0
M  V30 178 H 19.2152 -1.93093 2.29467 0
M  V30 179 H 16.7682 -0.977358 1.21973 0
M  V30 180 H 17.5032 -3.24196 0.0819373 0
M  V30 181 H 17.2882 -3.46098 1.84279 0
M  V30 182 H 18.7782 -4.04382 1.04234 0
M  V30 183 N 19.2153 -1.21501 -1.00376 0
M  V30 184 C 20.4433 -1.059 -1.77744 0
M  V30 185 C 20.8583 0.391125 -1.84704 0
M  V30 186 O 20.2153 1.27133 -1.30933 0
M  V30 187 C 20.2663 -1.65111 -3.21591 0
M  V30 188 O 19.9873 -3.0445 -3.15027 0
M  V30 189 C 21.4883 -1.54637 -4.15454 0
M  V30 190 H 18.7083 -0.371825 -0.558558 0
M  V30 191 H 21.2523 -1.60865 -1.26264 0
M  V30 192 H 19.4073 -1.14235 -3.70175 0
M  V30 193 H 19.8213 -3.3278 -4.0541 0
M  V30 194 H 21.2953 -2.00808 -5.14179 0
M  V30 195 H 21.7723 -0.501022 -4.36333 0
M  V30 196 H 22.3783 -2.04767 -3.72761 0
M  V30 197 N 20.6934 1.19889 -1.02296 0
M  V30 198 C 22.1094 1.41462 -0.738954 0
M  V30 199 C 22.3094 1.89721 0.678846 0
M  V30 200 O 21.3654 2.07016 1.4457 0
M  V30 201 C 22.6784 2.43083 -1.77005 0
M  V30 202 C 24.2264 2.5684 -1.78892 0
M  V30 203 C 24.7014 3.61709 -2.80945 0
M  V30 204 N 26.1924 3.69199 -2.79725 0
M  V30 205 C 26.9274 4.50019 -3.55345 0
M  V30 206 N 26.4234 5.34592 -4.40662 0
M  V30 207 N 28.2164 4.44612 -3.43914 0
M  V30 208 H 20.3674 0.868827 -1.93817 0
M  V30 209 H 22.6304 0.44399 -0.837602 0
M  V30 210 H 22.3364 2.14636 -2.78612 0
M  V30 211 H 22.2104 3.4217 -1.58744 0
M  V30 212 H 24.5974 2.84614 -0.779674 0
M  V30 213 H 24.6784 1.57927 -2.01228 0
M  V30 214 H 24.3224 3.34678 -3.82038 0
M  V30 215 H 24.2524 4.60259 -2.5587 0
M  V30 216 H 26.7434 3.08794 -2.17842 0
M  V30 217 H 27.0564 5.93363 -4.95116 0
M  V30 218 H 25.4014 5.34073 -4.44737 0
M  V30 219 H 28.5924 3.7758 -2.76679 0
M  V30 220 H 28.7654 5.0736 -4.031 0
M  V30 221 N 22.1715 0.800033 1.35784 0
M  V30 222 C 23.0815 0.207204 2.33683 0
M  V30 223 C 24.0975 -0.64631 1.61551 0
M  V30 224 O 25.2735 -0.559604 1.93469 0
M  V30 225 C 22.3385 -0.639659 3.40748 0
M  V30 226 C 21.3995 0.233585 4.28664 0
M  V30 227 C 20.6325 -0.572954 5.30616 0
M  V30 228 O 20.8555 -1.80816 5.40982 0
M  V30 229 O 19.7895 0.0327285 6.01891 0
M  V30 230 H 23.6155 1.01692 2.86169 0
M  V30 231 H 21.2005 0.561691 1.38439 0
M  V30 232 H 23.0825 -1.12223 4.06182 0
M  V30 233 H 21.7575 -1.42708 2.90544 0
M  V30 234 H 20.6645 0.763147 3.66233 0
M  V30 235 H 21.9975 0.984784 4.82248 0
M  V30 236 N 23.6496 -1.47581 0.552962 0
M  V30 237 C 25.0656 -1.5818 0.212424 0
M  V30 238 C 25.2656 -1.55213 -1.28496 0
M  V30 239 O 24.3216 -1.45329 -2.06484 0
M  V30 240 C 25.6346 -2.88865 0.835318 0
M  V30 241 C 27.1826 -3.0244 0.806156 0
M  V30 242 C 27.6576 -4.35819 1.40804 0
M  V30 243 N 29.1486 -4.42444 1.37103 0
M  V30 244 C 29.8836 -5.44202 1.80641 0
M  V30 245 N 29.3796 -6.52795 2.32015 0
M  V30 246 N 31.1726 -5.35222 1.71738 0
M  V30 247 H 23.3236 -1.47753 1.52587 0
M  V30 248 H 25.5866 -0.702941 0.636064 0
M  V30 249 H 25.2926 -2.9676 1.88749 0
M  V30 250 H 25.1666 -3.7579 0.325848 0
M  V30 251 H 27.5536 -2.94144 -0.237317 0
M  V30 252 H 27.6346 -2.17068 1.35334 0
M  V30 253 H 27.2786 -4.44871 2.45056 0
M  V30 254 H 27.2086 -5.19916 0.836338 0
M  V30 255 H 29.6996 -3.6456 0.995202 0
M  V30 256 H 30.0126 -7.26609 2.63171 0
M  V30 257 H 28.3576 -6.53696 2.36023 0
M  V30 258 H 31.5486 -4.49284 1.31382 0
M  V30 259 H 31.7216 -6.14389 2.05987 0
M  V30 260 N 25.1277 -0.289203 -1.54924 0
M  V30 261 C 26.3767 0.324231 -1.99077 0
M  V30 262 C 26.6897 1.5591 -1.18117 0
M  V30 263 O 27.8957 2.24637 -1.52481 0
M  V30 264 C 26.3517 0.628209 -3.54375 0
M  V30 265 C 25.9597 -0.587647 -4.44129 0
M  V30 266 C 27.7037 1.20349 -4.07083 0
M  V30 267 C 25.6107 -0.257475 -5.90839 0
M  V30 268 H 24.5407 0.124924 -0.743579 0
M  V30 269 H 27.1917 -0.396063 -1.79175 0
M  V30 270 H 25.5737 1.40778 -3.70132 0
M  V30 271 H 26.7477 -1.36418 -4.40144 0
M  V30 272 H 25.0627 -1.08074 -4.0213 0
M  V30 273 H 27.6597 1.46456 -5.14252 0
M  V30 274 H 28.0027 2.14195 -3.56968 0
M  V30 275 H 28.5357 0.485889 -3.94821 0
M  V30 276 H 25.2747 -1.16419 -6.45079 0
M  V30 277 H 24.7947 0.482018 -5.9786 0
M  V30 278 H 26.4737 0.145238 -6.46837 0
M  V30 279 N 26.6058 1.57591 -0.0167156 0
M  V30 280 C 27.5528 2.09462 0.969251 0
M  V30 281 C 28.5228 0.99381 1.33089 0
M  V30 282 O 29.7078 1.26726 1.42636 0
M  V30 283 C 26.8478 2.61622 2.25051 0
M  V30 284 C 25.9608 3.85666 1.94642 0
M  V30 285 C 25.0958 4.26266 3.16972 0
M  V30 286 C 24.1348 5.43101 2.82326 0
M  V30 287 N 23.2718 5.78915 3.97243 0
M  V30 288 H 28.1118 2.93428 0.519997 0
M  V30 289 H 25.6488 1.45044 0.245087 0
M  V30 290 H 27.6068 2.89949 2.99976 0
M  V30 291 H 26.2368 1.80505 2.67615 0
M  V30 292 H 25.2888 3.64145 1.10013 0
M  V30 293 H 26.6008 4.70678 1.65117 0
M  V30 294 H 25.7548 4.55963 4.00228 0
M  V30 295 H 24.4938 3.39996 3.49648 0
M  V30 296 H 23.4988 5.1311 1.97479 0
M  V30 297 H 24.7238 6.3106 2.50879 0
M  V30 298 H 22.6698 4.95602 4.29785 0
M  V30 299 H 22.5868 6.58539 3.71299 0
M  V30 300 H 23.8548 6.13212 4.81239 0
M  V30 301 N 28.0839 -0.256276 1.55502 0
M  V30 302 C 29.3089 -1.00766 1.81276 0
M  V30 303 C 29.7339 -1.78524 0.59252 0
M  V30 304 O 29.0919 -1.75413 -0.45827 0
M  V30 305 C 29.1399 -1.92869 3.04687 0
M  V30 306 O 28.2439 -3.019 2.80945 0
M  V30 307 H 27.5849 -0.287224 0.598664 0
M  V30 308 H 30.1149 -0.280109 2.02674 0
M  V30 309 H 30.1249 -2.34511 3.33869 0
M  V30 310 H 28.7999 -1.35689 3.93143 0
M  V30 311 H 27.3769 -2.64454 2.62904 0
M  V30 312 N 29.562 -1.4872 -0.521534 0
M  V30 313 C 30.525 -1.63379 -1.60748 0
M  V30 314 C 31.525 -0.50661 -1.52611 0
M  V30 315 O 32.715 -0.772601 -1.5613 0
M  V30 316 C 29.847 -1.61192 -3.00383 0
M  V30 317 H 31.04 -2.60217 -1.49087 0
M  V30 318 H 28.593 -1.37444 -0.744235 0
M  V30 319 H 29.328 -0.65863 -3.17541 0
M  V30 320 H 29.113 -2.43032 -3.07698 0
M  V30 321 H 30.603 -1.7466 -3.7932 0
M  V30 322 N 31.0401 0.771051 -1.3745 0
M  V30 323 C 32.0031 1.86598 -1.33093 0
M  V30 324 C 33.0031 1.59076 -0.234845 0
M  V30 325 O 34.1931 1.67145 -0.490732 0
M  V30 326 C 31.3251 3.23747 -1.06773 0
M  V30 327 H 32.5181 1.91873 -2.30488 0
M  V30 328 H 30.0711 0.970876 -1.2249 0
M  V30 329 H 30.8061 3.24148 -0.099129 0
M  V30 330 H 30.5911 3.45115 -1.86112 0
M  V30 331 H 32.0811 4.03824 -1.06377 0
M  V30 332 N 32.5182 1.22032 0.997298 0
M  V30 333 C 33.7462 1.06841 1.7718 0
M  V30 334 C 34.1612 -0.381325 1.84909 0
M  V30 335 O 33.5182 -1.26437 1.31605 0
M  V30 336 C 33.5692 1.66814 3.20711 0
M  V30 337 O 33.2902 3.06116 3.13408 0
M  V30 338 C 34.7912 1.56838 4.14628 0
M  V30 339 H 32.0112 0.374782 0.556578 0
M  V30 340 H 34.5552 1.61532 1.2541 0
M  V30 341 H 32.7102 1.16196 3.69564 0
M  V30 342 H 33.1242 3.34926 4.0364 0
M  V30 343 H 34.5982 2.03532 5.13107 0
M  V30 344 H 35.0752 0.524155 4.36061 0
M  V30 345 H 35.6812 2.06741 3.7167 0
M  V30 346 N 33.9963 -1.19345 1.0293 0
M  V30 347 C 35.4123 -1.41069 0.746446 0
M  V30 348 C 35.6123 -1.90078 -0.668776 0
M  V30 349 O 34.6683 -2.0778 -1.4347 0
M  V30 350 C 35.9813 -2.42141 1.78292 0
M  V30 351 C 37.5293 -2.55887 1.80252 0
M  V30 352 C 38.0043 -3.60214 2.8286 0
M  V30 353 N 39.4953 -3.67711 2.81679 0
M  V30 354 C 40.2303 -4.48128 3.57727 0
M  V30 355 N 39.7263 -5.32248 4.43491 0
M  V30 356 N 41.5193 -4.42782 3.46267 0
M  V30 357 H 33.6703 -0.858536 1.94275 0
M  V30 358 H 35.9333 -0.439541 0.839945 0
M  V30 359 H 35.6393 -2.13155 2.79746 0
M  V30 360 H 35.5133 -3.41323 1.60557 0
M  V30 361 H 37.9003 -2.84196 0.794757 0
M  V30 362 H 37.9813 -1.56858 2.02062 0
M  V30 363 H 37.6253 -3.32647 3.83807 0
M  V30 364 H 37.5553 -4.58895 2.58307 0
M  V30 365 H 40.0463 -3.07634 2.19476 0
M  V30 366 H 40.3593 -5.90729 4.98256 0
M  V30 367 H 38.7043 -5.31707 4.47564 0
M  V30 368 H 41.8953 -3.76107 2.78677 0
M  V30 369 H 42.0683 -5.05215 4.05785 0
M  V30 370 N 35.4744 -0.807222 -1.35358 0
M  V30 371 C 36.7234 -0.384376 -1.98004 0
M  V30 372 C 37.0364 1.0543 -1.64754 0
M  V30 373 O 38.2424 1.58029 -2.20769 0
M  V30 374 C 36.6984 -0.636326 -3.5423 0
M  V30 375 C 36.3064 -2.08759 -3.96388 0
M  V30 376 C 38.0504 -0.278869 -4.23583 0
M  V30 377 C 35.9574 -2.28525 -5.45463 0
M  V30 378 H 34.8874 -0.139986 -0.740891 0
M  V30 379 H 37.5384 -0.991369 -1.54415 0
M  V30 380 H 35.9204 0.0406256 -3.95979 0
M  V30 381 H 37.0944 -2.8024 -3.6579 0
M  V30 382 H 35.4094 -2.40497 -3.39926 0
M  V30 383 H 38.0064 -0.404599 -5.33167 0
M  V30 384 H 38.3494 0.775012 -4.09022 0
M  V30 385 H 38.8824 -0.909764 -3.87257 0
M  V30 386 H 35.6214 -3.32361 -5.64992 0
M  V30 387 H 35.1414 -1.61569 -5.77629 0
M  V30 388 H 36.8204 -2.10109 -6.11934 0
M  V30 389 N 36.9525 1.47285 -0.560781 0
M  V30 390 C 38.2295 1.9558 0.0277798 0
M  V30 391 C 38.6095 1.5034 1.48192 0
M  V30 392 O 37.9575 0.743882 2.16052 0
M  V30 393 C 38.1675 3.48789 -0.121418 0
M  V30 394 C 39.5155 4.24594 0.0220912 0
M  V30 395 O 40.5395 3.56166 -0.0491439 0
M  V30 396 O 39.3985 5.46217 0.175958 0
M  V30 397 H 36.4925 0.824663 0.0621342 0
M  V30 398 H 39.0385 1.5767 -0.627556 0
M  V30 399 H 37.8105 3.74533 -1.13316 0
M  V30 400 H 37.4335 3.93473 0.571366 0
M  V30 401 N 38.4306 0.297415 1.54768 0
M  V30 402 C 39.8466 -0.0560823 1.59501 0
M  V30 403 C 40.0466 -1.52725 1.31444 0
M  V30 404 O 39.1026 -2.27947 1.08611 0
M  V30 405 C 40.4156 0.338631 2.98787 0
M  V30 406 C 41.9636 0.287097 3.11681 0
M  V30 407 C 42.4386 0.656579 4.53269 0
M  V30 408 N 43.9296 0.608977 4.59179 0
M  V30 409 C 44.6646 0.867385 5.66802 0
M  V30 410 N 44.1606 1.19157 6.82476 0
M  V30 411 N 45.9536 0.794687 5.56454 0
M  V30 412 H 38.1046 1.25624 1.71267 0
M  V30 413 H 40.3676 0.509057 0.799728 0
M  V30 414 H 40.0736 1.36263 3.2423 0
M  V30 415 H 39.9476 -0.309508 3.75928 0
M  V30 416 H 42.3346 -0.727649 2.85988 0
M  V30 417 H 42.4156 0.969809 2.36703 0
M  V30 418 H 42.0596 1.66912 4.7969 0
M  V30 419 H 41.9896 -0.0481649 5.26578 0
M  V30 420 H 44.4806 0.369198 3.76092 0
M  V30 421 H 44.7936 1.37482 7.60473 0
M  V30 422 H 43.1386 1.22958 6.84037 0
M  V30 423 H 46.3296 0.541098 4.64962 0
M  V30 424 H 46.5026 0.999445 6.40246 0
M  V30 425 N 39.9087 -1.5758 0.0250728 0
M  V30 426 C 41.1367 -1.9593 -0.664747 0
M  V30 427 C 41.5517 -0.901352 -1.65895 0
M  V30 428 O 40.9087 0.117255 -1.82123 0
M  V30 429 C 40.9597 -3.34342 -1.37468 0
M  V30 430 O 40.6807 -4.36079 -0.420324 0
M  V30 431 C 42.1817 -3.873 -2.1567 0
M  V30 432 H 39.4017 -0.645405 -0.183557 0
M  V30 433 H 41.9457 -2.04329 0.0836372 0
M  V30 434 H 40.1007 -3.27175 -2.0745 0
M  V30 435 H 40.5147 -5.16297 -0.923991 0
M  V30 436 H 41.9887 -4.86504 -2.60803 0
M  V30 437 H 42.4657 -3.21331 -2.99405 0
M  V30 438 H 43.0717 -3.97723 -1.50654 0
M  V30 439 N 41.3868 0.248026 -1.55636 0
M  V30 440 C 42.7978 0.817177 -1.67866 0
M  V30 441 C 43.1488 1.86069 -0.622322 0
M  V30 442 O 42.2738 2.15157 0.231618 0
M  V30 443 C 42.8688 1.489 -3.04326 0
M  V30 444 C 41.4278 2.00587 -3.185 0
M  V30 445 C 40.5748 0.856573 -2.63739 0
M  V30 446 H 43.5258 0.0238579 -1.58682 0
M  V30 447 H 43.5468 2.35698 -2.98708 0
M  V30 448 H 43.0588 0.729279 -3.81186 0
M  V30 449 H 41.1598 2.79443 -2.4646 0
M  V30 450 H 41.2728 2.20402 -4.25393 0
M  V30 451 H 39.6368 1.25678 -2.21534 0
M  V30 452 H 40.4198 0.109953 -3.43124 0
M  V30 453 N 42.8649 1.48995 0.513639 0
M  V30 454 C 43.8149 1.61127 1.61314 0
M  V30 455 C 44.7989 0.467521 1.53958 0
M  V30 456 O 45.9909 0.719826 1.61702 0
M  V30 457 C 43.1199 1.66937 2.99978 0
M  V30 458 C 42.2059 2.86847 3.12377 0
M  V30 459 N 42.5969 4.11078 2.94701 0
M  V30 460 C 40.8949 2.84521 3.43459 0
M  V30 461 C 41.5959 4.91615 3.10949 0
M  V30 462 N 40.5719 4.24739 3.3926 0
M  V30 463 H 44.3739 2.54909 1.46282 0
M  V30 464 H 41.8879 1.45593 0.719483 0
M  V30 465 H 43.8849 1.73725 3.78979 0
M  V30 466 H 42.5449 0.742831 3.16089 0
M  V30 467 H 43.5559 4.41258 2.71131 0
M  V30 468 H 40.2329 2.01192 3.65825 0
M  V30 469 H 41.6229 6.00264 3.01882 0
M  V30 470 N 44.343 -0.763751 1.37857 0
M  V30 471 C 45.589 -1.52396 1.3471 0
M  V30 472 C 45.944 -1.92288 -0.0656435 0
M  V30 473 O 45.237 -1.6181 -1.02606 0
M  V30 474 C 45.431 -2.79499 2.22745 0
M  V30 475 C 45.26 -2.52031 3.72438 0
M  V30 476 C 44.03 -2.45759 4.4151 0
M  V30 477 C 46.228 -2.19489 4.65112 0
M  V30 478 N 44.21 -2.1046 5.76697 0
M  V30 479 C 45.581 -1.94396 5.88736 0
M  V30 480 C 47.636 -2.05712 4.53417 0
M  V30 481 C 46.339 -1.56917 7.01975 0
M  V30 482 C 48.365 -1.69634 5.66549 0
M  V30 483 C 47.727 -1.45407 6.89229 0
M  V30 484 H 43.826 -0.55765 0.548225 0
M  V30 485 H 46.41 -0.890302 1.73152 0
M  V30 486 H 44.581 -3.4069 1.86507 0
M  V30 487 H 46.313 -3.45465 2.10798 0
M  V30 488 H 43.068 -2.61885 3.94605 0
M  V30 489 H 43.492 -1.95484 6.48163 0
M  V30 490 H 48.134 -2.23123 3.59133 0
M  V30 491 H 45.852 -1.38246 7.96187 0
M  V30 492 H 49.438 -1.59621 5.59475 0
M  V30 493 H 48.318 -1.17904 7.75286 0
M  V30 494 N 45.8211 -1.22559 -0.990812 0
M  V30 495 C 46.7511 -1.0218 -2.09956 0
M  V30 496 C 47.7321 0.0579394 -1.70001 0
M  V30 497 O 48.9171 -0.104684 -1.93918 0
M  V30 498 C 46.0471 -0.601023 -3.4206 0
M  V30 499 C 45.0011 -1.62694 -3.95872 0
M  V30 500 C 44.3271 -1.06193 -5.24049 0
M  V30 501 C 45.6271 -3.01743 -4.2632 0
M  V30 502 H 47.3211 -1.94916 -2.27262 0
M  V30 503 H 44.8671 -0.938566 -1.09211 0
M  V30 504 H 46.8201 -0.445561 -4.19038 0
M  V30 505 H 45.5441 0.362005 -3.24588 0
M  V30 506 H 44.2031 -1.77021 -3.21028 0
M  V30 507 H 43.8511 -0.0901903 -5.02919 0
M  V30 508 H 43.5511 -1.74732 -5.61019 0
M  V30 509 H 45.0751 -0.918092 -6.03658 0
M  V30 510 H 46.4891 -2.90777 -4.94087 0
M  V30 511 H 44.8861 -3.67425 -4.74467 0
M  V30 512 H 45.9561 -3.51518 -3.34011 0
M  V30 513 N 47.2992 1.18797 -1.03562 0
M  V30 514 C 48.5482 1.87978 -0.731235 0
M  V30 515 C 48.8612 1.80911 0.743671 0
M  V30 516 O 50.0672 2.45407 1.16137 0
M  V30 517 C 48.5232 3.3721 -1.25768 0
M  V30 518 C 48.1312 3.52818 -2.76085 0
M  V30 519 C 49.8752 4.11825 -1.0296 0
M  V30 520 C 47.7822 4.9598 -3.22114 0
M  V30 521 H 46.7122 0.704063 -0.269835 0
M  V30 522 H 49.3632 1.34266 -1.25079 0
M  V30 523 H 47.7452 3.90359 -0.666011 0
M  V30 524 H 48.9192 3.09965 -3.40966 0
M  V30 525 H 47.2342 2.91602 -2.97249 0
M  V30 526 H 49.8312 5.17411 -1.34869 0
M  V30 527 H 50.1742 4.16287 0.0333546 0
M  V30 528 H 50.7072 3.64833 -1.58562 0
M  V30 529 H 47.4462 4.96684 -4.27768 0
M  V30 530 H 46.9662 5.39569 -2.61965 0
M  V30 531 H 48.6452 5.6467 -3.15844 0
M  V30 532 N 48.7773 0.814389 1.34928 0
M  V30 533 C 49.7243 0.22822 2.29669 0
M  V30 534 C 50.6943 -0.642164 1.53184 0
M  V30 535 O 51.8793 -0.585605 1.81591 0
M  V30 536 C 49.0193 -0.61089 3.3965 0
M  V30 537 C 48.1323 0.280792 4.31086 0
M  V30 538 C 47.2673 -0.567067 5.28165 0
M  V30 539 C 46.3063 0.324531 6.11239 0
M  V30 540 N 45.4433 -0.483756 7.00431 0
M  V30 541 H 50.2833 1.04153 2.79206 0
M  V30 542 H 47.8203 0.525133 1.37407 0
M  V30 543 H 49.7783 -1.11263 4.0209 0
M  V30 544 H 48.4083 -1.38939 2.91369 0
M  V30 545 H 47.4603 0.900688 3.69583 0
M  V30 546 H 48.7723 0.966723 4.89342 0
M  V30 547 H 47.9263 -1.13363 5.96015 0
M  V30 548 H 46.6653 -1.28654 4.70425 0
M  V30 549 H 45.6703 0.903298 5.42329 0
M  V30 550 H 46.8953 1.04198 6.71059 0
M  V30 551 H 44.8413 -1.18706 6.45171 0
M  V30 552 H 44.7583 0.143965 7.55863 0
M  V30 553 H 46.0263 -1.03334 7.7262 0
M  V30 554 N 50.2554 -1.46986 0.568584 0
M  V30 555 C 51.1874 -2.28233 -0.210337 0
M  V30 556 C 52.2004 -1.37682 -0.868767 0
M  V30 557 O 53.3894 -1.62406 -0.740705 0
M  V30 558 C 50.4894 -3.12293 -1.3163 0
M  V30 559 C 49.6624 -4.30878 -0.7525 0
M  V30 560 C 48.7214 -4.96445 -1.74439 0
M  V30 561 O 47.7474 -5.54482 -1.286 0
M  V30 562 N 48.9494 -4.92171 -3.07812 0
M  V30 563 H 51.7144 -2.95723 0.486648 0
M  V30 564 H 49.2754 -1.56742 0.405409 0
M  V30 565 H 51.2674 -3.53022 -1.97883 0
M  V30 566 H 49.8374 -2.46971 -1.91636 0
M  V30 567 H 49.0574 -3.94104 0.0871128 0
M  V30 568 H 50.3454 -5.07558 -0.35536 0
M  V30 569 H 49.7434 -4.46239 -3.47688 0
M  V30 570 H 48.3004 -5.36884 -3.69592 0
M  V30 571 N 51.7335 -0.305618 -1.54608 0
M  V30 572 C 52.6965 0.555591 -2.22364 0
M  V30 573 C 53.6965 1.05768 -1.21119 0
M  V30 574 O 54.8865 0.952972 -1.45822 0
M  V30 575 C 52.0185 1.76974 -2.91364 0
M  V30 576 H 53.2115 -0.0364572 -2.99878 0
M  V30 577 H 50.7645 -0.0565007 -1.56198 0
M  V30 578 H 51.4995 2.40151 -2.17941 0
M  V30 579 H 51.2845 1.41732 -3.65588 0
M  V30 580 H 52.7745 2.38148 -3.43038 0
M  V30 581 N 53.2116 1.57565 -0.0334293 0
M  V30 582 C 54.4606 1.91155 0.643639 0
M  V30 583 C 54.7736 0.91192 1.73042 0
M  V30 584 O 55.9796 1.13923 2.46442 0
M  V30 585 C 54.4356 3.39443 1.1961 0
M  V30 586 C 54.0436 4.47774 0.142381 0
M  V30 587 C 55.7876 3.82094 1.84944 0
M  V30 588 C 53.6946 5.87162 0.706727 0
M  V30 589 H 52.6246 0.713368 0.244176 0
M  V30 590 H 55.2756 1.8323 -0.0994323 0
M  V30 591 H 53.6576 3.42313 1.99092 0
M  V30 592 H 54.8316 4.56469 -0.630296 0
M  V30 593 H 53.1466 4.14352 -0.412446 0
M  V30 594 H 55.7436 4.83591 2.2813 0
M  V30 595 H 56.0866 3.17386 2.69392 0
M  V30 596 H 56.6196 3.81665 1.12145 0
M  V30 597 H 53.3586 6.55424 -0.0997178 0
M  V30 598 H 52.8786 5.82064 1.44779 0
M  V30 599 H 54.5576 6.35866 1.19514 0
M  V30 600 N 54.6897 -0.239769 1.55765 0
M  V30 601 C 55.9367 -0.966801 1.7793 0
M  V30 602 C 56.2647 -1.85046 0.599015 0
M  V30 603 O 55.5197 -1.91197 -0.417395 0
M  V30 604 C 55.8187 -1.852 3.05672 0
M  V30 605 C 55.4847 -1.1231 4.36689 0
M  V30 606 C 54.1467 -0.921689 4.72291 0
M  V30 607 C 56.4987 -0.607019 5.17653 0
M  V30 608 C 53.8267 -0.191996 5.86386 0
M  V30 609 C 56.1787 0.109241 6.32506 0
M  V30 610 C 54.8427 0.322073 6.66723 0
M  V30 611 H 54.1127 -0.353778 0.651093 0
M  V30 612 H 56.7597 -0.23634 1.90036 0
M  V30 613 H 55.0647 -2.64975 2.8861 0
M  V30 614 H 56.7617 -2.41635 3.20021 0
M  V30 615 H 53.3517 -1.29004 4.08725 0
M  V30 616 H 57.5357 -0.750153 4.90598 0
M  V30 617 H 52.7917 -0.0166949 6.11398 0
M  V30 618 H 56.9657 0.516737 6.9448 0
M  V30 619 H 54.5927 0.88944 7.54979 0
M  V30 620 N 56.1678 -1.49265 -0.50573 0
M  V30 621 C 57.3928 -1.62478 -1.28902 0
M  V30 622 C 57.8178 -0.294332 -1.85783 0
M  V30 623 O 57.1758 0.737412 -1.65626 0
M  V30 624 C 57.2238 -2.69268 -2.39848 0
M  V30 625 O 56.3278 -2.28113 -3.43567 0
M  V30 626 H 55.6688 -0.54399 -0.380751 0
M  V30 627 H 58.1988 -1.95421 -0.605952 0
M  V30 628 H 58.2088 -2.91291 -2.85681 0
M  V30 629 H 56.8838 -3.65846 -1.97812 0
M  V30 630 H 55.4608 -2.16401 -3.03685 0
M  V30 631 N 57.6459 0.756429 -1.3826 0
M  V30 632 C 58.8759 1.54341 -1.3734 0
M  V30 633 C 59.2839 1.89159 0.0393917 0
M  V30 634 O 58.6269 1.5307 1.01565 0
M  V30 635 C 58.6889 2.87238 -2.16182 0
M  V30 636 C 58.3529 2.74973 -3.65019 0
M  V30 637 C 59.3499 2.44962 -4.58574 0
M  V30 638 C 57.0349 2.92515 -4.08338 0
M  V30 639 C 59.0289 2.32642 -5.93428 0
M  V30 640 C 56.7159 2.79815 -5.43274 0
M  V30 641 C 57.7139 2.49921 -6.35632 0
M  V30 642 O 57.4019 2.37275 -7.68086 0
M  V30 643 H 57.1339 0.484281 -0.471643 0
M  V30 644 H 59.6879 0.944152 -1.82414 0
M  V30 645 H 57.9179 3.49342 -1.65822 0
M  V30 646 H 59.6069 3.48731 -2.07705 0
M  V30 647 H 60.3729 2.31081 -4.26412 0
M  V30 648 H 56.2519 3.14781 -3.368 0
M  V30 649 H 59.7959 2.0923 -6.65484 0
M  V30 650 H 55.6929 2.93269 -5.75034 0
M  V30 651 H 56.4609 2.52509 -7.78577 0
M  V30 652 N 59.124 1.23083 0.984299 0
M  V30 653 C 60.054 1.03292 2.09411 0
M  V30 654 C 61.035 -0.048923 1.7003 0
M  V30 655 O 62.22 0.114967 1.93859 0
M  V30 656 C 59.35 0.619155 3.41736 0
M  V30 657 C 58.304 1.64791 3.95004 0
M  V30 658 C 57.63 1.0897 5.23478 0
M  V30 659 C 58.93 3.03999 4.24714 0
M  V30 660 H 60.624 1.96119 2.26225 0
M  V30 661 H 58.17 0.944344 1.08711 0
M  V30 662 H 60.123 0.467777 4.18796 0
M  V30 663 H 58.847 -0.344786 3.24775 0
M  V30 664 H 57.506 1.78721 3.20085 0
M  V30 665 H 57.154 0.11686 5.02864 0
M  V30 666 H 56.854 1.77704 5.60085 0
M  V30 667 H 58.378 0.950093 6.03163 0
M  V30 668 H 59.792 2.93393 4.92538 0
M  V30 669 H 58.189 3.69936 4.72512 0
M  V30 670 H 59.259 3.53285 3.32142 0
M  V30 671 N 60.6021 -1.18246 1.0419 0
M  V30 672 C 61.5121 -2.25574 0.644476 0
M  V30 673 C 62.5281 -1.70845 -0.329826 0
M  V30 674 O 63.7041 -2.00554 -0.184443 0
M  V30 675 C 60.7691 -3.46697 0.014877 0
M  V30 676 C 59.8301 -4.16554 1.03834 0
M  V30 677 C 59.0631 -5.31894 0.438692 0
M  V30 678 O 59.2861 -5.65385 -0.754752 0
M  V30 679 O 58.2201 -5.90459 1.168 0
M  V30 680 H 62.0461 -2.61836 1.53869 0
M  V30 681 H 59.6311 -1.25352 0.812854 0
M  V30 682 H 61.5131 -4.20062 -0.335538 0
M  V30 683 H 60.1881 -3.12255 -0.853138 0
M  V30 684 H 59.0951 -3.45251 1.44057 0
M  V30 685 H 60.4281 -4.54998 1.87716 0
M  V30 686 N 62.0802 -0.821533 -1.34494 0
M  V30 687 C 63.0122 -0.199946 -2.28326 0
M  V30 688 C 64.0252 0.609377 -1.50965 0
M  V30 689 O 65.2142 0.439285 -1.7301 0
M  V30 690 C 62.3142 0.738431 -3.30757 0
M  V30 691 C 61.4872 -0.0277632 -4.37391 0
M  V30 692 C 60.5462 0.831332 -5.19591 0
M  V30 693 O 59.5722 0.276822 -5.68526 0
M  V30 694 N 60.7742 2.15132 -5.39165 0
M  V30 695 H 63.5392 -1.00609 -2.82308 0
M  V30 696 H 61.1002 -0.678366 -1.47003 0
M  V30 697 H 63.0922 1.31773 -3.82646 0
M  V30 698 H 61.6622 1.44533 -2.7718 0
M  V30 699 H 60.8822 -0.788359 -3.86236 0
M  V30 700 H 62.1702 -0.555251 -5.05761 0
M  V30 701 H 61.5682 2.62559 -5.01078 0
M  V30 702 H 60.1252 2.6795 -5.94177 0
M  V30 703 N 63.5583 1.46682 -0.576371 0
M  V30 704 C 64.4883 2.33028 0.148397 0
M  V30 705 C 65.4693 1.44961 0.889956 0
M  V30 706 O 66.6543 1.73789 0.866662 0
M  V30 707 C 63.7843 3.27117 1.1667 0
M  V30 708 C 62.7383 4.24575 0.540386 0
M  V30 709 C 62.0643 5.08126 1.6647 0
M  V30 710 C 63.3643 5.19722 -0.518331 0
M  V30 711 H 65.0583 2.93875 -0.572509 0
M  V30 712 H 62.6043 1.41315 -0.276768 0
M  V30 713 H 64.5573 3.86374 1.68204 0
M  V30 714 H 63.2813 2.64364 1.9178 0
M  V30 715 H 61.9403 3.66571 0.0461769 0
M  V30 716 H 61.5883 4.41762 2.40531 0
M  V30 717 H 61.2883 5.74122 1.25131 0
M  V30 718 H 62.8123 5.70246 2.18293 0
M  V30 719 H 64.2263 5.73232 -0.0883058 0
M  V30 720 H 62.6233 5.94026 -0.851679 0
M  V30 721 H 63.6933 4.64037 -1.40703 0
M  V30 722 N 65.0364 0.313813 1.54444 0
M  V30 723 C 65.9464 -0.565714 2.27677 0
M  V30 724 C 66.9624 -1.13754 1.31666 0
M  V30 725 O 68.1384 -1.15959 1.64668 0
M  V30 726 C 65.2034 -1.71528 3.01296 0
M  V30 727 C 64.2644 -1.17624 4.12872 0
M  V30 728 C 63.4974 -2.27102 4.8297 0
M  V30 729 O 63.7204 -3.47256 4.52514 0
M  V30 730 O 62.6544 -1.9307 5.70094 0
M  V30 731 H 66.4804 0.0287296 3.03686 0
M  V30 732 H 64.0654 0.0798312 1.49187 0
M  V30 733 H 65.9474 -2.38476 3.4743 0
M  V30 734 H 64.6224 -2.29608 2.2817 0
M  V30 735 H 63.5294 -0.472124 3.71109 0
M  V30 736 H 64.8624 -0.640695 4.88012 0
M  V30 737 N 66.5145 -1.57545 0.0417849 0
M  V30 738 C 67.4625 -2.12148 -0.953723 0
M  V30 739 C 68.4565 -1.05104 -1.32852 0
M  V30 740 O 69.6625 -1.23524 -1.30927 0
M  V30 741 H 66.0375 -0.677957 -0.325389 0
M  V30 742 H 68.0085 -2.94707 -0.467991 0
M  V30 743 C 66.7575 -2.6739 -2.22257 0
M  V30 744 H 66.0805 -3.49413 -1.94295 0
M  V30 745 H 67.5205 -3.09227 -2.90094 0
M  V30 746 C 65.9795 -1.60723 -2.96091 0
M  V30 747 O 66.5095 -1.01449 -3.88679 0
M  V30 748 N 64.7155 -1.32466 -2.58652 0
M  V30 749 H 64.2625 -1.80856 -1.83437 0
M  V30 750 H 64.2205 -0.61325 -3.08361 0
M  V30 751 N 67.9926 0.231505 -1.5589 0
M  V30 752 C 69.2176 0.978689 -1.82856 0
M  V30 753 C 69.6426 1.77559 -0.620846 0
M  V30 754 O 69.0006 1.76119 0.430305 0
M  V30 755 C 69.0486 1.87997 -3.07716 0
M  V30 756 O 68.1526 2.97393 -2.85712 0
M  V30 757 H 67.4936 0.277663 -0.603158 0
M  V30 758 H 70.0236 0.24783 -2.03093 0
M  V30 759 H 70.0336 2.2917 -3.37558 0
M  V30 760 H 68.7086 1.29417 -3.95252 0
M  V30 761 H 67.2856 2.60238 -2.67078 0
M  V30 762 N 69.4707 1.49531 0.497807 0
M  V30 763 C 70.7477 1.49682 1.25915 0
M  V30 764 C 71.1277 0.226339 2.09883 0
M  V30 765 O 70.4757 -0.791189 2.14365 0
M  V30 766 C 70.6857 2.77755 2.11313 0
M  V30 767 C 72.0337 3.27371 2.70395 0
M  V30 768 O 73.0577 2.78894 2.21578 0
M  V30 769 O 71.9167 4.11808 3.59272 0
M  V30 770 H 69.0107 0.599228 0.56996 0
M  V30 771 H 71.5567 1.61798 0.511816 0
M  V30 772 H 70.3287 3.61713 1.49264 0
M  V30 773 H 69.9517 2.68515 2.93233 0
M  V30 774 N 70.9488 -0.749086 1.3866 0
M  V30 775 C 72.1768 -1.53834 1.38358 0
M  V30 776 C 72.5918 -1.88783 -0.0255219 0
M  V30 777 O 71.9488 -1.53101 -0.993292 0
M  V30 778 C 71.9998 -2.83468 2.2434 0
M  V30 779 O 71.7208 -2.50008 3.5976 0
M  V30 780 C 73.2218 -3.7758 2.32267 0
M  V30 781 H 70.4418 -0.47585 0.473083 0
M  V30 782 H 72.9858 -0.926726 1.82297 0
M  V30 783 H 71.1408 -3.40995 1.83851 0
M  V30 784 H 71.5548 -3.33182 4.05081 0
M  V30 785 H 73.0288 -4.65478 2.96706 0
M  V30 786 H 73.5058 -4.18334 1.33765 0
M  V30 787 H 74.1118 -3.25976 2.73166 0
M  V30 788 N 72.4269 -1.23603 -0.977757 0
M  V30 789 C 73.3569 -1.04401 -2.0886 0
M  V30 790 C 74.3379 0.0399052 -1.70053 0
M  V30 791 O 75.5229 -0.125246 -1.93796 0
M  V30 792 C 72.6529 -0.637269 -3.41403 0
M  V30 793 C 71.6069 -1.66883 -3.94124 0
M  V30 794 C 70.9329 -1.11745 -5.22893 0
M  V30 795 C 72.2329 -3.06247 -4.23096 0
M  V30 796 H 73.9269 -1.97316 -2.25182 0
M  V30 797 H 71.4729 -0.950096 -1.08209 0
M  V30 798 H 73.4259 -0.48998 -4.18542 0
M  V30 799 H 72.1499 0.327557 -3.24953 0
M  V30 800 H 70.8089 -1.80416 -3.19133 0
M  V30 801 H 70.4569 -0.143527 -5.02795 0
M  V30 802 H 70.1569 -1.80672 -5.59134 0
M  V30 803 H 71.6809 -0.982067 -6.02651 0
M  V30 804 H 73.0949 -2.96001 -4.90975 0
M  V30 805 H 71.4919 -3.72436 -4.70544 0
M  V30 806 H 72.5619 -3.55041 -3.30263 0
M  V30 807 N 73.905 1.17692 -1.04816 0
M  V30 808 C 75.316 1.69501 -0.782698 0
M  V30 809 C 75.667 1.83456 0.695577 0
M  V30 810 O 74.792 1.51942 1.54086 0
M  V30 811 C 75.387 3.07874 -1.41419 0
M  V30 812 C 73.946 3.56864 -1.19686 0
M  V30 813 C 73.093 2.3322 -1.50012 0
M  V30 814 H 76.044 1.02262 -1.2136 0
M  V30 815 H 76.065 3.71528 -0.821428 0
M  V30 816 H 75.577 2.97685 -2.49009 0
M  V30 817 H 73.678 3.72337 -0.140043 0
M  V30 818 H 73.791 4.39851 -1.89916 0
M  V30 819 H 72.155 2.37501 -0.920071 0
M  V30 820 H 72.938 2.25644 -2.58727 0
M  V30 821 N 75.3831 0.828654 1.34056 0
M  V30 822 C 76.2931 0.256725 2.33191 0
M  V30 823 C 77.3091 -0.611898 1.62886 0
M  V30 824 O 78.4851 -0.51844 1.94613 0
M  V30 825 C 75.5501 -0.567238 3.42028 0
M  V30 826 C 74.6111 0.324458 4.28072 0
M  V30 827 C 73.8441 -0.460274 5.31712 0
M  V30 828 O 74.0671 -1.693 5.44696 0
M  V30 829 O 73.0011 0.160391 6.01686 0
M  V30 830 H 76.8271 1.07739 2.83947 0
M  V30 831 H 74.4121 0.59093 1.37217 0
M  V30 832 H 76.2941 -1.03582 4.08471 0
M  V30 833 H 74.9691 -1.36513 2.93506 0
M  V30 834 H 73.8761 0.840659 3.64532 0
M  V30 835 H 75.2091 1.08685 4.8005 0
M  V30 836 N 76.8612 -1.46375 0.584142 0
M  V30 837 C 77.7912 -2.33103 -0.136037 0
M  V30 838 C 78.7722 -1.45431 -0.882255 0
M  V30 839 O 79.9572 -1.74246 -0.857434 0
M  V30 840 C 77.0872 -3.27731 -1.14933 0
M  V30 841 C 76.0412 -4.24855 -0.517862 0
M  V30 842 C 75.3672 -5.09001 -1.63773 0
M  V30 843 C 76.6672 -5.19439 0.545886 0
M  V30 844 H 78.3612 -2.93568 0.588086 0
M  V30 845 H 75.9072 -1.41166 0.284259 0
M  V30 846 H 77.8602 -3.87261 -1.66153 0
M  V30 847 H 76.5842 -2.65377 -1.90375 0
M  V30 848 H 75.2432 -3.6659 -0.0267361 0
M  V30 849 H 74.8912 -4.43031 -2.38185 0
M  V30 850 H 74.5912 -5.74777 -1.22085 0
M  V30 851 H 76.1152 -5.71396 -2.15266 0
M  V30 852 H 77.5292 -5.73177 0.118704 0
M  V30 853 H 75.9262 -5.93566 0.88317 0
M  V30 854 H 76.9962 -4.63285 1.43162 0
M  V30 855 N 78.3393 -0.321999 -1.54275 0
M  V30 856 C 79.7503 0.166384 -1.85957 0
M  V30 857 C 80.1013 1.51747 -1.24367 0
M  V30 858 O 79.2263 2.09317 -0.549124 0
M  V30 859 C 79.8213 0.308681 -3.37391 0
M  V30 860 C 78.3803 0.741286 -3.69028 0
M  V30 861 C 77.5273 -0.137937 -2.76957 0
M  V30 862 H 80.4783 -0.542335 -1.49146 0
M  V30 863 H 80.4993 1.13984 -3.63026 0
M  V30 864 H 80.0113 -0.674809 -3.82188 0
M  V30 865 H 78.1123 1.73458 -3.29762 0
M  V30 866 H 78.2253 0.546118 -4.75977 0
M  V30 867 H 76.5893 0.386251 -2.51754 0
M  V30 868 H 77.3723 -1.11816 -3.2458 0
M  V30 869 N 79.8174 1.5752 -0.0501392 0
M  V30 870 C 80.7804 2.1037 0.909786 0
M  V30 871 C 81.7804 1.02308 1.24056 0
M  V30 872 O 82.9704 1.28385 1.17741 0
M  V30 873 C 80.1024 2.58708 2.21998 0
M  V30 874 H 81.2954 2.96479 0.451665 0
M  V30 875 H 78.8484 1.55038 0.198248 0
M  V30 876 H 79.5834 1.75989 2.72394 0
M  V30 877 H 79.3684 3.37675 1.99295 0
M  V30 878 H 80.8584 2.99747 2.9076 0
M  V30 879 N 81.2955 -0.223234 1.56011 0
M  V30 880 C 82.2255 -1.27988 1.95298 0
M  V30 881 C 83.2065 -1.48976 0.820979 0
M  V30 882 O 84.3915 -1.61188 1.08315 0
M  V30 883 C 81.5215 -2.63 2.26822 0
M  V30 884 C 80.4755 -2.56671 3.42497 0
M  V30 885 C 79.8015 -3.95697 3.59622 0
M  V30 886 C 81.1015 -2.11601 4.77517 0
M  V30 887 H 82.7955 -0.953525 2.8381 0
M  V30 888 H 80.3415 -0.457244 1.36548 0
M  V30 889 H 82.2945 -3.37077 2.52898 0
M  V30 890 H 81.0185 -2.9732 1.35161 0
M  V30 891 H 79.6775 -1.85051 3.16467 0
M  V30 892 H 79.3255 -4.27322 2.6534 0
M  V30 893 H 79.0255 -3.92345 4.37424 0
M  V30 894 H 80.5495 -4.71438 3.88044 0
M  V30 895 H 81.9635 -2.7542 5.02809 0
M  V30 896 H 80.3605 -2.19311 5.5859 0
M  V30 897 H 81.4305 -1.06824 4.72987 0
M  V30 898 N 82.7736 -1.49793 -0.48987 0
M  V30 899 C 83.7036 -1.70201 -1.59856 0
M  V30 900 C 84.6846 -0.55076 -1.60937 0
M  V30 901 O 85.8696 -0.787841 -1.77501 0
M  V30 902 C 82.9996 -1.77882 -2.98287 0
M  V30 903 C 81.9536 -2.92907 -3.12073 0
M  V30 904 C 81.2796 -2.85712 -4.51965 0
M  V30 905 C 82.5796 -4.3369 -2.91051 0
M  V30 906 H 84.2736 -2.63025 -1.43032 0
M  V30 907 H 81.8196 -1.26574 -0.686664 0
M  V30 908 H 83.7726 -1.90744 -3.75759 0
M  V30 909 H 82.4966 -0.816653 -3.16225 0
M  V30 910 H 81.1556 -2.79665 -2.37029 0
M  V30 911 H 80.8036 -1.8738 -4.66795 0
M  V30 912 H 80.5036 -3.62921 -4.62128 0
M  V30 913 H 82.0276 -3.00598 -5.31482 0
M  V30 914 H 83.4416 -4.47555 -3.58284 0
M  V30 915 H 81.8386 -5.12205 -3.12675 0
M  V30 916 H 82.9086 -4.47362 -1.87071 0
M  V30 917 N 84.2517 0.741722 -1.39055 0
M  V30 918 C 85.4767 1.53607 -1.39354 0
M  V30 919 C 85.9017 1.88096 0.0116905 0
M  V30 920 O 85.2597 1.5143 0.996924 0
M  V30 921 C 85.3077 2.80441 -2.26682 0
M  V30 922 O 84.4117 3.76088 -1.69208 0
M  V30 923 H 83.7527 0.464142 -0.474835 0
M  V30 924 H 86.2827 0.915665 -1.82967 0
M  V30 925 H 86.2927 3.29246 -2.40959 0
M  V30 926 H 84.9677 2.5467 -3.2881 0
M  V30 927 H 83.5447 3.34833 -1.64138 0
M  V30 928 N 85.7298 1.2412 0.971189 0
M  V30 929 C 86.9778 1.07668 1.71032 0
M  V30 930 C 87.2988 -0.385797 1.91146 0
M  V30 931 O 86.5688 -1.27569 1.4867 0
M  V30 932 H 85.1488 0.395429 0.633755 0
M  V30 933 H 87.8108 1.55984 1.16855 0
M  V30 934 H 86.9068 1.57195 2.69622 0
M  V30 935 N 87.2079 -1.17134 1.05439 0
M  V30 936 C 88.1709 -2.19439 0.661764 0
M  V30 937 C 89.1709 -1.58199 -0.288042 0
M  V30 938 O 90.3609 -1.74053 -0.0715803 0
M  V30 939 C 87.4929 -3.40889 -0.0276209 0
M  V30 940 H 88.6859 -2.55688 1.56728 0
M  V30 941 H 86.2389 -1.31259 0.848567 0
M  V30 942 H 86.9739 -3.10187 -0.94629 0
M  V30 943 H 86.7589 -3.86586 0.655238 0
M  V30 944 H 88.2489 -4.16603 -0.288342 0
M  V30 945 N 88.686 -0.835752 -1.33615 0
M  V30 946 C 89.649 -0.272 -2.2758 0
M  V30 947 C 90.649 0.557487 -1.50827 0
M  V30 948 O 91.839 0.37173 -1.70188 0
M  V30 949 C 88.971 0.617173 -3.35267 0
M  V30 950 H 90.164 -1.10111 -2.78954 0
M  V30 951 H 87.717 -0.608594 -1.43965 0
M  V30 952 H 88.452 1.46884 -2.89129 0
M  V30 953 H 88.237 0.0237066 -3.92093 0
M  V30 954 H 89.727 1.005 -4.05326 0
M  V30 955 N 90.1641 1.46063 -0.591896 0
M  V30 956 C 91.1121 2.32124 0.148739 0
M  V30 957 C 92.1061 1.45035 0.875286 0
M  V30 958 O 93.3121 1.61609 0.792632 0
M  V30 959 H 89.6871 0.749024 0.066832 0
M  V30 960 H 91.6581 2.92392 -0.595783 0
M  V30 961 C 90.4071 3.28373 1.1431 0
M  V30 962 H 89.7301 3.95371 0.59346 0
M  V30 963 H 91.1701 3.91352 1.63155 0
M  V30 964 C 89.6291 2.54393 2.20875 0
M  V30 965 O 90.1591 2.31373 3.28374 0
M  V30 966 N 88.3651 2.14797 1.95731 0
M  V30 967 H 87.9121 2.33719 1.08319 0
M  V30 968 H 87.8701 1.65619 2.67241 0
M  V30 969 N 91.6422 0.330177 1.54103 0
M  V30 970 C 92.5522 -0.541534 2.28264 0
M  V30 971 C 93.5682 -1.12351 1.32866 0
M  V30 972 O 94.7442 -1.14206 1.65888 0
M  V30 973 C 91.8092 -1.68322 3.03098 0
M  V30 974 C 90.8702 -1.13238 4.14096 0
M  V30 975 C 90.1032 -2.21966 4.85352 0
M  V30 976 O 90.3262 -3.42437 4.56172 0
M  V30 977 O 89.2602 -1.87013 5.7211 0
M  V30 978 H 93.0862 0.060938 3.03639 0
M  V30 979 H 90.6712 0.09565 1.49093 0
M  V30 980 H 92.5532 -2.34777 3.49939 0
M  V30 981 H 91.2282 -2.27176 2.30593 0
M  V30 982 H 90.1352 -0.432736 3.71589 0
M  V30 983 H 91.4682 -0.588898 4.88664 0
M  V30 984 N 93.1203 -1.57491 0.0584922 0
M  V30 985 C 94.3453 -1.97711 -0.62652 0
M  V30 986 C 94.7703 -0.936132 -1.63151 0
M  V30 987 O 94.1283 0.099811 -1.81025 0
M  V30 988 C 94.1763 -3.36989 -1.28338 0
M  V30 989 O 93.2803 -3.35433 -2.39913 0
M  V30 990 H 92.6213 -0.643868 -0.162266 0
M  V30 991 H 95.1513 -2.04193 0.129064 0
M  V30 992 H 95.1613 -3.73879 -1.63335 0
M  V30 993 H 93.8363 -4.12289 -0.546889 0
M  V30 994 H 92.4133 -3.10298 -2.06809 0
M  V30 995 N 94.5984 0.214957 -1.56127 0
M  V30 996 C 95.8754 0.963093 -1.70247 0
M  V30 997 C 96.2554 2.02166 -0.60764 0
M  V30 998 O 95.6034 2.25244 0.384385 0
M  V30 999 C 95.8134 1.56756 -3.11815 0
M  V30 1000 C 97.1614 2.0573 -3.7143 0
M  V30 1001 O 98.1854 1.66637 -3.14818 0
M  V30 1002 O 97.0444 2.77603 -4.70743 0
M  V30 1003 H 94.1384 0.450321 -0.693643 0
M  V30 1004 H 96.6844 0.206219 -1.68442 0
M  V30 1005 H 95.4564 0.803533 -3.82961 0
M  V30 1006 H 95.0794 2.3898 -3.17765 0
M  V30 1007 N 96.0765 1.50051 0.48192 0
M  V30 1008 C 96.9865 1.7089 1.60728 0
M  V30 1009 C 98.0025 0.591788 1.63627 0
M  V30 1010 O 99.1785 0.868817 1.81696 0
M  V30 1011 C 96.2435 1.78855 2.97005 0
M  V30 1012 C 95.3045 3.02537 3.04581 0
M  V30 1013 C 94.5375 3.10112 4.34357 0
M  V30 1014 O 94.7605 2.24765 5.24249 0
M  V30 1015 O 93.6945 4.02747 4.47301 0
M  V30 1016 H 97.5205 2.66264 1.46072 0
M  V30 1017 H 95.1055 1.34018 0.660264 0
M  V30 1018 H 96.9875 1.86336 3.77964 0
M  V30 1019 H 95.6625 0.866628 3.11883 0
M  V30 1020 H 94.5695 3.00563 2.22739 0
M  V30 1021 H 95.9025 3.94272 2.94636 0
M  V30 1022 N 97.5546 -0.734337 1.39446 0
M  V30 1023 C 98.5176 -1.83004 1.37994 0
M  V30 1024 C 99.5176 -1.58397 0.276938 0
M  V30 1025 O 100.708 -1.65785 0.534875 0
M  V30 1026 C 97.8396 -3.20802 1.1532 0
M  V30 1027 H 99.0326 -1.85694 2.35494 0
M  V30 1028 H 96.5856 -0.938059 1.25021 0
M  V30 1029 H 97.3206 -3.23772 0.185036 0
M  V30 1030 H 97.1056 -3.4006 1.95197 0
M  V30 1031 H 98.5956 -4.00862 1.17046 0
M  V30 1032 N 99.0327 -1.24633 -0.964593 0
M  V30 1033 C 100.444 -1.08045 -1.5226 0
M  V30 1034 C 100.795 0.347116 -1.93105 0
M  V30 1035 O 99.9197 1.23588 -1.77637 0
M  V30 1036 C 100.515 -1.95514 -2.76695 0
M  V30 1037 C 99.0737 -1.8314 -3.28841 0
M  V30 1038 C 98.2207 -1.90262 -2.01732 0
M  V30 1039 H 101.172 -1.38064 -0.782553 0
M  V30 1040 H 101.193 -1.48925 -3.50145 0
M  V30 1041 H 100.705 -2.99407 -2.46936 0
M  V30 1042 H 98.8057 -0.82092 -3.63444 0
M  V30 1043 H 98.9187 -2.67406 -3.97531 0
M  V30 1044 H 97.2827 -1.34027 -2.16584 0
M  V30 1045 H 98.0657 -2.9574 -1.74334 0
M  V30 1046 N 100.511 1.16574 -1.06058 0
M  V30 1047 C 101.739 1.90952 -0.796552 0
M  V30 1048 C 102.154 1.77302 0.648808 0
M  V30 1049 O 101.511 1.11605 1.44397 0
M  V30 1050 C 101.562 3.41736 -1.17894 0
M  V30 1051 O 101.283 3.54975 -2.56758 0
M  V30 1052 C 102.784 4.33169 -0.942308 0
M  V30 1053 H 100.004 0.605594 -0.288959 0
M  V30 1054 H 102.548 1.47777 -1.41358 0
M  V30 1055 H 100.703 3.82623 -0.606491 0
M  V30 1056 H 101.117 4.4846 -2.72 0
M  V30 1057 H 102.591 5.37439 -1.25952 0
M  V30 1058 H 103.068 4.3903 0.122078 0
M  V30 1059 H 103.674 3.98007 -1.49902 0
M  V30 1060 N 101.989 0.842826 1.3317 0
M  V30 1061 C 103.4 0.496651 1.79973 0
M  V30 1062 C 103.751 -0.984641 1.69703 0
M  V30 1063 O 102.876 -1.76743 1.24863 0
M  V30 1064 C 103.471 0.894727 3.26772 0
M  V30 1065 C 102.03 0.600629 3.71577 0
M  V30 1066 C 101.177 1.10091 2.5451 0
M  V30 1067 H 104.128 1.03116 1.20635 0
M  V30 1068 H 104.149 0.206347 3.7994 0
M  V30 1069 H 103.661 1.97287 3.34215 0
M  V30 1070 H 101.762 -0.467284 3.69658 0
M  V30 1071 H 101.875 1.15863 4.64879 0
M  V30 1072 H 100.239 0.52162 2.49301 0
M  V30 1073 H 101.022 2.18591 2.64713 0
M  V30 1074 N 103.467 -1.45747 0.599634 0
M  V30 1075 C 104.43 -2.28917 -0.113835 0
M  V30 1076 C 105.43 -1.3933 -0.802729 0
M  V30 1077 O 106.62 -1.61534 -0.652103 0
M  V30 1078 C 103.752 -3.20152 -1.17114 0
M  V30 1079 H 104.945 -2.93478 0.617289 0
M  V30 1080 H 102.498 -1.52137 0.358327 0
M  V30 1081 H 103.233 -2.60374 -1.93329 0
M  V30 1082 H 103.018 -3.86133 -0.681468 0
M  V30 1083 H 104.508 -3.82708 -1.67105 0
M  V30 1084 N 104.945 -0.338344 -1.53925 0
M  V30 1085 C 105.855 0.529421 -2.28548 0
M  V30 1086 C 106.871 1.11645 -1.3346 0
M  V30 1087 O 108.047 1.13325 -1.66492 0
M  V30 1088 C 105.112 1.66713 -3.03987 0
M  V30 1089 C 104.173 1.11041 -4.14691 0
M  V30 1090 C 103.406 2.19389 -4.86522 0
M  V30 1091 O 103.629 3.40013 -4.57982 0
M  V30 1092 O 102.563 1.83976 -5.73094 0
M  V30 1093 H 106.389 -0.0770399 -3.03602 0
M  V30 1094 H 103.974 -0.103555 -1.49041 0
M  V30 1095 H 105.856 2.32918 -3.5118 0
M  V30 1096 H 104.531 2.25949 -2.31794 0
M  V30 1097 H 103.438 0.413024 -3.71813 0
M  V30 1098 H 104.771 0.562975 -4.8897 0
M  V30 1099 N 106.423 1.57458 -0.0668435 0
M  V30 1100 C 107.333 2.15937 0.916975 0
M  V30 1101 C 108.349 1.12123 1.33058 0
M  V30 1102 O 109.525 1.44366 1.40429 0
M  V30 1103 C 106.59 2.70547 2.16807 0
M  V30 1104 C 105.651 3.89215 1.81135 0
M  V30 1105 C 104.884 4.41211 3.0028 0
M  V30 1106 O 105.107 3.92225 4.14144 0
M  V30 1107 O 104.041 5.32605 2.80384 0
M  V30 1108 H 107.867 3.00354 0.449561 0
M  V30 1109 H 105.452 1.48584 0.155949 0
M  V30 1110 H 107.334 3.0557 2.90181 0
M  V30 1111 H 106.009 1.89192 2.62656 0
M  V30 1112 H 104.916 3.59054 1.05028 0
M  V30 1113 H 106.249 4.71848 1.40073 0
M  V30 1114 N 107.901 -0.206675 1.56239 0
M  V30 1115 C 109.312 -0.772383 1.69974 0
M  V30 1116 C 109.663 -1.84353 0.671436 0
M  V30 1117 O 108.788 -2.15695 -0.174491 0
M  V30 1118 C 109.383 -1.40779 3.08167 0
M  V30 1119 C 107.942 -1.92072 3.23706 0
M  V30 1120 C 107.089 -0.786347 2.65917 0
M  V30 1121 H 110.04 0.0182223 1.5869 0
M  V30 1122 H 110.061 -2.27696 3.04852 0
M  V30 1123 H 109.573 -0.627958 3.82986 0
M  V30 1124 H 107.674 -2.7281 2.53782 0
M  V30 1125 H 107.787 -2.09046 4.31087 0
M  V30 1126 H 106.151 -1.1976 2.24788 0
M  V30 1127 H 106.934 -0.0189416 3.43295 0
M  V30 1128 N 109.379 -1.50304 -0.473955 0
M  V30 1129 C 110.329 -1.65347 -1.56985 0
M  V30 1130 C 111.313 -0.508176 -1.52664 0
M  V30 1131 O 112.505 -0.762446 -1.59737 0
M  V30 1132 C 109.634 -1.74832 -2.95447 0
M  V30 1133 C 108.72 -2.95028 -3.04662 0
M  V30 1134 N 109.111 -4.18747 -2.83698 0
M  V30 1135 C 107.409 -2.93527 -3.35795 0
M  V30 1136 C 108.11 -4.99687 -2.97805 0
M  V30 1137 N 107.086 -4.33585 -3.2788 0
M  V30 1138 H 110.888 -2.58698 -1.39472 0
M  V30 1139 H 108.402 -1.47449 -0.680629 0
M  V30 1140 H 110.399 -1.83712 -3.7424 0
M  V30 1141 H 109.059 -0.826376 -3.14008 0
M  V30 1142 H 110.07 -4.48291 -2.59337 0
M  V30 1143 H 106.747 -2.10821 -3.60362 0
M  V30 1144 H 108.137 -6.08057 -2.85861 0
M  V30 1145 N 110.857 0.726932 -1.39834 0
M  V30 1146 C 111.789 1.85147 -1.35104 0
M  V30 1147 C 112.802 1.60736 -0.258392 0
M  V30 1148 O 113.991 1.70821 -0.517931 0
M  V30 1149 C 111.091 3.21332 -1.07697 0
M  V30 1150 C 110.264 3.73033 -2.28396 0
M  V30 1151 C 109.323 4.87802 -1.97322 0
M  V30 1152 O 108.349 5.01043 -2.70083 0
M  V30 1153 N 109.551 5.72768 -0.944273 0
M  V30 1154 H 112.316 1.89706 -2.32017 0
M  V30 1155 H 109.877 0.908006 -1.3404 0
M  V30 1156 H 111.869 3.95691 -0.849144 0
M  V30 1157 H 110.439 3.11992 -0.194909 0
M  V30 1158 H 109.659 2.89934 -2.6708 0
M  V30 1159 H 110.947 4.0431 -3.08887 0
M  V30 1160 H 110.345 5.64669 -0.341427 0
M  V30 1161 H 108.902 6.4716 -0.776346 0
M  V30 1162 N 112.336 1.25143 0.95797 0
M  V30 1163 C 113.747 1.08851 1.51685 0
M  V30 1164 C 114.098 -0.33687 1.93286 0
M  V30 1165 O 113.223 -1.22644 1.7829 0
M  V30 1166 C 113.818 1.96978 2.75654 0
M  V30 1167 C 112.377 1.84881 3.27866 0
M  V30 1168 C 111.524 1.91329 2.0072 0
M  V30 1169 H 114.475 1.38478 0.77522 0
M  V30 1170 H 114.496 1.5078 3.4935 0
M  V30 1171 H 114.008 3.00712 2.45345 0
M  V30 1172 H 112.109 0.840182 3.63004 0
M  V30 1173 H 112.222 2.6951 3.96107 0
M  V30 1174 H 110.586 1.35174 2.15871 0
M  V30 1175 H 111.369 2.96661 1.72764 0
M  V30 1176 N 113.814 -1.1601 1.06675 0
M  V30 1177 C 115.061 -1.86633 0.785781 0
M  V30 1178 C 115.389 -1.81929 -0.687896 0
M  V30 1179 O 114.644 -1.23253 -1.52011 0
M  V30 1180 C 114.943 -3.35547 1.23057 0
M  V30 1181 C 114.609 -3.60448 2.70902 0
M  V30 1182 C 113.271 -3.66954 3.11285 0
M  V30 1183 C 115.623 -3.7071 3.66365 0
M  V30 1184 C 112.951 -3.81225 4.45965 0
M  V30 1185 C 115.303 -3.86503 5.00797 0
M  V30 1186 C 113.967 -3.91252 5.40813 0
M  V30 1187 H 113.237 -0.682937 0.287538 0
M  V30 1188 H 115.884 -1.37146 1.33654 0
M  V30 1189 H 114.189 -3.87193 0.59907 0
M  V30 1190 H 115.886 -3.88583 0.990163 0
M  V30 1191 H 112.476 -3.56021 2.38636 0
M  V30 1192 H 116.66 -3.64991 3.36296 0
M  V30 1193 H 111.916 -3.83155 4.76447 0
M  V30 1194 H 116.09 -3.93385 5.74649 0
M  V30 1195 H 113.717 -4.02062 6.45174 0
M  V30 1196 N 115.292 -0.849877 -1.32721 0
M  V30 1197 C 116.222 -0.306308 -2.31482 0
M  V30 1198 C 117.203 0.591952 -1.59468 0
M  V30 1199 O 118.388 0.513199 -1.87296 0
M  V30 1200 C 115.518 0.510204 -3.43532 0
M  V30 1201 C 114.472 -0.293209 -4.26994 0
M  V30 1202 C 113.798 0.647743 -5.30762 0
M  V30 1203 C 115.098 -1.51634 -4.99804 0
M  V30 1204 H 116.792 -1.13153 -2.77195 0
M  V30 1205 H 114.338 -0.545553 -1.33266 0
M  V30 1206 H 116.291 0.900856 -4.11658 0
M  V30 1207 H 115.015 1.36874 -2.96535 0
M  V30 1208 H 113.674 -0.665555 -3.60508 0
M  V30 1209 H 113.322 1.50299 -4.8002 0
M  V30 1210 H 113.022 0.11422 -5.87489 0
M  V30 1211 H 114.546 1.03567 -6.01753 0
M  V30 1212 H 115.96 -1.19824 -5.60638 0
M  V30 1213 H 114.357 -1.98745 -5.66234 0
M  V30 1214 H 115.427 -2.28018 -4.27943 0
M  V30 1215 N 116.77 1.45427 -0.607355 0
M  V30 1216 C 118.047 1.9557 -0.0344566 0
M  V30 1217 C 118.427 1.54979 1.43334 0
M  V30 1218 O 117.775 0.812241 2.13576 0
M  V30 1219 C 117.985 3.48226 -0.232321 0
M  V30 1220 C 119.333 4.2445 -0.113001 0
M  V30 1221 O 120.357 3.55829 -0.162431 0
M  V30 1222 O 119.216 5.465 0.00209442 0
M  V30 1223 H 116.31 0.826222 0.0358667 0
M  V30 1224 H 118.856 1.55594 -0.6774 0
M  V30 1225 H 117.628 3.70739 -1.25174 0
M  V30 1226 H 117.251 3.95092 0.445896 0
M  V30 1227 N 118.248 0.346503 1.53744 0
M  V30 1228 C 119.495 -0.249104 2.00962 0
M  V30 1229 C 119.823 -1.5032 1.23426 0
M  V30 1230 O 119.078 -1.93217 0.310761 0
M  V30 1231 C 119.377 -0.605809 3.52228 0
M  V30 1232 C 119.043 0.551747 4.47512 0
M  V30 1233 C 117.705 0.86941 4.73281 0
M  V30 1234 C 120.057 1.32818 5.03993 0
M  V30 1235 C 117.385 1.96582 5.52786 0
M  V30 1236 C 119.737 2.41486 5.84694 0
M  V30 1237 C 118.401 2.73808 6.08757 0
M  V30 1238 H 117.671 -0.0911538 0.735372 0
M  V30 1239 H 120.318 0.475027 1.85515 0
M  V30 1240 H 118.623 -1.4107 3.65522 0
M  V30 1241 H 120.32 -1.07858 3.86222 0
M  V30 1242 H 116.91 0.294102 4.2759 0
M  V30 1243 H 121.094 1.09602 4.84047 0
M  V30 1244 H 116.35 2.22045 5.69654 0
M  V30 1245 H 120.524 3.02078 6.27473 0
M  V30 1246 H 118.151 3.58892 6.7015 0
M  V30 1247 N 119.726 -1.57421 0.075193 0
M  V30 1248 C 120.689 -2.11791 -0.876203 0
M  V30 1249 C 121.689 -1.04268 -1.22412 0
M  V30 1250 O 122.879 -1.30242 -1.15684 0
M  V30 1251 C 120.011 -2.62207 -2.17854 0
M  V30 1252 H 121.204 -2.9716 -0.40444 0
M  V30 1253 H 118.757 -1.55333 -0.173557 0
M  V30 1254 H 119.492 -1.803 -2.6956 0
M  V30 1255 H 119.277 -3.40802 -1.93897 0
M  V30 1256 H 120.767 -3.04335 -2.85955 0
M  V30 1257 N 121.204 0.198386 -1.56346 0
M  V30 1258 C 122.114 1.2664 -1.97483 0
M  V30 1259 C 123.13 1.49989 -0.882002 0
M  V30 1260 O 124.306 1.62668 -1.18748 0
M  V30 1261 C 121.371 2.59141 -2.30319 0
M  V30 1262 C 120.432 2.43892 -3.53292 0
M  V30 1263 C 119.665 3.70074 -3.84553 0
M  V30 1264 O 119.888 4.74101 -3.1715 0
M  V30 1265 O 118.822 3.658 -4.7799 0
M  V30 1266 H 122.648 0.947304 -2.88548 0
M  V30 1267 H 120.233 0.403123 -1.43859 0
M  V30 1268 H 122.115 3.37352 -2.5253 0
M  V30 1269 H 120.79 2.90684 -1.42423 0
M  V30 1270 H 119.697 1.63803 -3.36332 0
M  V30 1271 H 121.03 2.17282 -4.41644 0
M  V30 1272 N 122.682 1.50554 0.465978 0
M  V30 1273 C 123.614 1.65949 1.58093 0
M  V30 1274 C 124.627 0.540827 1.53554 0
M  V30 1275 O 125.816 0.814187 1.5885 0
M  V30 1276 C 122.916 1.63261 2.96983 0
M  V30 1277 C 122.089 2.91245 3.26336 0
M  V30 1278 C 121.148 2.8113 4.44806 0
M  V30 1279 O 120.174 3.55086 4.44862 0
M  V30 1280 N 121.376 1.95032 5.46756 0
M  V30 1281 H 124.141 2.62122 1.45301 0
M  V30 1282 H 121.702 1.48082 0.65448 0
M  V30 1283 H 123.694 1.54101 3.74212 0
M  V30 1284 H 122.264 0.748032 3.03518 0
M  V30 1285 H 121.484 3.14493 2.37672 0
M  V30 1286 H 122.772 3.76022 3.42761 0
M  V30 1287 H 122.17 1.3427 5.49534 0
M  V30 1288 H 120.727 1.91772 6.2295 0
M  V30 1289 N 124.16 -0.719506 1.40217 0
M  V30 1290 C 125.409 -1.47486 1.37589 0
M  V30 1291 C 125.722 -1.9559 -0.0201568 0
M  V30 1292 O 126.928 -2.70973 -0.169049 0
M  V30 1293 C 125.384 -2.66575 2.41796 0
M  V30 1294 C 124.992 -2.25358 3.87192 0
M  V30 1295 C 126.736 -3.4433 2.48269 0
M  V30 1296 C 124.643 -3.41262 4.83005 0
M  V30 1297 H 123.573 -0.553901 0.511576 0
M  V30 1298 H 126.224 -0.783427 1.65936 0
M  V30 1299 H 124.606 -3.3787 2.06543 0
M  V30 1300 H 125.78 -1.61509 4.31569 0
M  V30 1301 H 124.095 -1.60657 3.84159 0
M  V30 1302 H 126.692 -4.30569 3.17041 0
M  V30 1303 H 127.035 -3.87872 1.51198 0
M  V30 1304 H 127.568 -2.80076 2.82493 0
M  V30 1305 H 124.307 -3.02755 5.81394 0
M  V30 1306 H 123.827 -4.0404 4.43297 0
M  V30 1307 H 125.506 -4.07383 5.02641 0
M  V30 1308 N 125.638 -1.25649 -0.95132 0
M  V30 1309 C 126.568 -1.08808 -2.06599 0
M  V30 1310 C 127.549 0.00382547 -1.701 0
M  V30 1311 O 128.734 -0.166325 -1.93486 0
M  V30 1312 C 125.864 -0.709542 -3.39975 0
M  V30 1313 C 124.818 -1.75206 -3.90496 0
M  V30 1314 C 124.144 -1.22811 -5.20405 0
M  V30 1315 C 125.444 -3.15153 -4.16504 0
M  V30 1316 H 127.138 -2.02048 -2.20946 0
M  V30 1317 H 124.684 -0.972835 -1.06169 0
M  V30 1318 H 126.637 -0.578649 -4.17408 0
M  V30 1319 H 125.361 0.258556 -3.25575 0
M  V30 1320 H 124.02 -1.87145 -3.15234 0
M  V30 1321 H 123.668 -0.250145 -5.02378 0
M  V30 1322 H 123.368 -1.92492 -5.55176 0
M  V30 1323 H 124.892 -1.10968 -6.00432 0
M  V30 1324 H 126.306 -3.06349 -4.84586 0
M  V30 1325 H 124.703 -3.82333 -4.62538 0
M  V30 1326 H 125.773 -3.61966 -3.22658 0
M  V30 1327 N 127.117 1.15442 -1.07289 0
M  V30 1328 C 128.528 1.67803 -0.818475 0
M  V30 1329 C 128.879 1.8489 0.656507 0
M  V30 1330 O 128.004 1.55176 1.50829 0
M  V30 1331 C 128.599 3.04805 -1.47917 0
M  V30 1332 C 127.158 3.54245 -1.27229 0
M  V30 1333 C 126.305 2.29986 -1.54925 0
M  V30 1334 H 129.256 0.996646 -1.23502 0
M  V30 1335 H 129.277 3.69702 -0.90005 0
M  V30 1336 H 128.789 2.92336 -2.55267 0
M  V30 1337 H 126.89 3.71956 -0.21899 0
M  V30 1338 H 127.003 4.35723 -1.99203 0
M  V30 1339 H 125.367 2.35496 -0.970242 0
M  V30 1340 H 126.15 2.20105 -2.63455 0
M  V30 1341 N 128.595 0.856903 1.32268 0
M  V30 1342 C 129.527 0.260412 2.27716 0
M  V30 1343 C 130.54 -0.569137 1.52528 0
M  V30 1344 O 131.729 -0.39326 1.74114 0
M  V30 1345 C 128.829 -0.650477 3.32599 0
M  V30 1346 C 128.002 0.14372 4.37164 0
M  V30 1347 C 127.061 -0.69328 5.21613 0
M  V30 1348 O 126.087 -0.12599 5.69061 0
M  V30 1349 N 127.289 -2.00761 5.44679 0
M  V30 1350 H 130.054 1.08059 2.79541 0
M  V30 1351 H 127.615 0.717103 1.45152 0
M  V30 1352 H 129.607 -1.21581 3.86005 0
M  V30 1353 H 128.177 -1.37133 2.80915 0
M  V30 1354 H 127.397 0.890486 3.8401 0
M  V30 1355 H 128.685 0.68915 5.04111 0
M  V30 1356 H 128.083 -2.49181 5.07863 0
M  V30 1357 H 126.64 -2.52103 6.01072 0
M  V30 1358 N 130.073 -1.45103 0.615059 0
M  V30 1359 C 131.298 -2.07064 0.117988 0
M  V30 1360 C 131.723 -1.4554 -1.19163 0
M  V30 1361 O 131.081 -0.550855 -1.72729 0
M  V30 1362 C 131.129 -3.606 -0.000288387 0
M  V30 1363 O 130.233 -3.98847 -1.04856 0
M  V30 1364 H 129.574 -0.659467 0.0774581 0
M  V30 1365 H 132.104 -1.86236 0.847186 0
M  V30 1366 H 132.114 -4.07529 -0.196091 0
M  V30 1367 H 130.789 -4.04765 0.955932 0
M  V30 1368 H 129.366 -3.63577 -0.828619 0
M  V30 1369 N 131.551 -0.354651 -1.53558 0
M  V30 1370 C 132.797 0.238797 -2.01389 0
M  V30 1371 C 133.13 1.49309 -1.2418 0
M  V30 1372 O 132.405 1.91638 -0.332457 0
M  V30 1373 C 132.688 0.541771 -3.56001 0
M  V30 1374 C 132.541 -0.725388 -4.43912 0
M  V30 1375 C 133.86 1.34685 -4.18984 0
M  V30 1376 H 130.979 0.0853177 -0.732045 0
M  V30 1377 H 133.621 -0.477384 -1.83905 0
M  V30 1378 H 131.771 1.15189 -3.71031 0
M  V30 1379 H 133.443 -1.36313 -4.407 0
M  V30 1380 H 131.686 -1.34801 -4.12324 0
M  V30 1381 H 132.357 -0.468505 -5.50008 0
M  V30 1382 H 134.833 0.830837 -4.07721 0
M  V30 1383 H 133.709 1.52759 -5.27215 0
M  V30 1384 H 133.97 2.35221 -3.74331 0
M  V30 1385 N 133.029 1.57378 -0.0835403 0
M  V30 1386 C 134.254 1.98682 0.594987 0
M  V30 1387 C 134.679 0.961969 1.61641 0
M  V30 1388 O 134.037 -0.0709989 1.81161 0
M  V30 1389 C 134.085 3.38988 1.2296 0
M  V30 1390 O 133.189 3.39208 2.34546 0
M  V30 1391 H 132.53 0.646368 0.152002 0
M  V30 1392 H 135.06 2.03961 -0.161533 0
M  V30 1393 H 135.07 3.76431 1.57366 0
M  V30 1394 H 133.745 4.13107 0.481228 0
M  V30 1395 H 132.322 3.13548 2.01846 0
M  V30 1396 N 134.507 -0.190092 1.56449 0
M  V30 1397 C 135.923 -0.54113 1.50146 0
M  V30 1398 C 136.123 -1.85603 0.784465 0
M  V30 1399 O 135.179 -2.5024 0.337051 0
M  V30 1400 C 136.492 -0.591241 2.9483 0
M  V30 1401 C 138.04 -0.679732 3.0553 0
M  V30 1402 C 138.515 -0.760908 4.51635 0
M  V30 1403 N 140.006 -0.824302 4.55806 0
M  V30 1404 C 140.741 -0.907365 5.66175 0
M  V30 1405 N 140.237 -0.952422 6.86222 0
M  V30 1406 N 142.03 -0.94494 5.541 0
M  V30 1407 H 134.181 0.67235 2.01478 0
M  V30 1408 H 136.444 0.240127 0.917084 0
M  V30 1409 H 136.15 0.305905 3.50367 0
M  V30 1410 H 136.024 -1.44422 3.48457 0
M  V30 1411 H 138.411 -1.56731 2.50039 0
M  V30 1412 H 138.492 0.199549 2.5502 0
M  V30 1413 H 138.136 0.122336 5.07753 0
M  V30 1414 H 138.066 -1.65606 4.99882 0
M  V30 1415 H 140.557 -0.798526 3.69367 0
M  V30 1416 H 140.87 -1.01645 7.66086 0
M  V30 1417 H 139.215 -0.921014 6.8887 0
M  V30 1418 H 142.406 -0.906612 4.59236 0
M  V30 1419 H 142.579 -1.00622 6.4014 0
M  V30 1420 N 135.985 -1.50799 -0.457987 0
M  V30 1421 C 136.948 -1.7005 -1.53674 0
M  V30 1422 C 137.948 -0.570881 -1.50325 0
M  V30 1423 O 139.138 -0.838126 -1.52712 0
M  V30 1424 C 136.27 -1.73788 -2.93276 0
M  V30 1425 H 137.463 -2.66306 -1.37917 0
M  V30 1426 H 135.016 -1.40477 -0.685271 0
M  V30 1427 H 135.751 -0.792717 -3.14462 0
M  V30 1428 H 135.536 -2.55864 -2.97113 0
M  V30 1429 H 137.026 -1.90591 -3.71571 0
M  V30 1430 N 137.463 0.71206 -1.40597 0
M  V30 1431 C 138.426 1.80785 -1.40888 0
M  V30 1432 C 139.426 1.57937 -0.302103 0
M  V30 1433 O 140.616 1.64913 -0.561182 0
M  V30 1434 C 137.748 3.18927 -1.20409 0
M  V30 1435 H 138.941 1.81924 -2.38419 0
M  V30 1436 H 136.494 0.91805 -1.26497 0
M  V30 1437 H 137.229 3.23436 -0.236522 0
M  V30 1438 H 137.014 3.36911 -2.00582 0
M  V30 1439 H 138.504 3.98949 -1.23408 0
M  V30 1440 N 138.941 1.26152 0.944643 0
M  V30 1441 C 140.19 1.10883 1.68487 0
M  V30 1442 C 140.503 -0.348153 1.92477 0
M  V30 1443 O 141.709 -0.621459 2.64292 0
M  V30 1444 C 140.165 1.93624 3.03377 0
M  V30 1445 C 139.773 3.43875 2.87148 0
M  V30 1446 C 141.517 1.86954 3.81115 0
M  V30 1447 C 139.424 4.18875 4.1749 0
M  V30 1448 H 138.354 0.41135 0.631907 0
M  V30 1449 H 141.005 1.50433 1.05082 0
M  V30 1450 H 139.387 1.46904 3.67743 0
M  V30 1451 H 140.561 3.98338 2.31653 0
M  V30 1452 H 138.876 3.51744 2.22856 0
M  V30 1453 H 141.473 2.40275 4.77673 0
M  V30 1454 H 141.816 0.839518 4.07747 0
M  V30 1455 H 142.349 2.31477 3.23517 0
M  V30 1456 H 139.088 5.22332 3.96043 0
M  V30 1457 H 138.608 3.69193 4.72712 0
M  V30 1458 H 140.287 4.27134 4.85968 0
M  V30 1459 N 140.419 -1.14872 1.07899 0
M  V30 1460 C 141.647 -1.89661 0.82683 0
M  V30 1461 C 142.062 -1.78312 -0.620519 0
M  V30 1462 O 141.419 -1.13888 -1.42604 0
M  V30 1463 C 141.47 -3.39817 1.23316 0
M  V30 1464 O 141.191 -3.50845 2.62372 0
M  V30 1465 C 142.692 -4.31615 1.0111 0
M  V30 1466 H 139.912 -0.60092 0.298557 0
M  V30 1467 H 142.456 -1.4551 1.43691 0
M  V30 1468 H 140.611 -3.8161 0.667286 0
M  V30 1469 H 141.025 -4.44076 2.79101 0
M  V30 1470 H 142.499 -5.35367 1.34486 0
M  V30 1471 H 142.976 -4.39169 -0.0522168 0
M  V30 1472 H 143.582 -3.95572 1.56215 0
M  V30 1473 N 141.898 -0.863906 -1.31812 0
M  V30 1474 C 142.861 -0.320212 -2.26952 0
M  V30 1475 C 143.861 0.525369 -1.51975 0
M  V30 1476 O 145.051 0.335547 -1.70938 0
M  V30 1477 C 142.183 0.545919 -3.365 0
M  V30 1478 H 143.376 -1.16004 -2.76556 0
M  V30 1479 H 140.929 -0.638995 -1.42641 0
M  V30 1480 H 141.664 1.40718 -2.92179 0
M  V30 1481 H 141.449 -0.0594674 -3.92055 0
M  V30 1482 H 142.939 0.918796 -4.07367 0
M  V30 1483 N 143.376 1.44774 -0.622745 0
M  V30 1484 C 144.339 2.29069 0.0774015 0
M  V30 1485 C 145.339 1.4059 0.780461 0
M  V30 1486 O 146.529 1.62551 0.626322 0
M  V30 1487 C 143.661 3.21974 1.12006 0
M  V30 1488 H 144.854 2.92459 -0.663901 0
M  V30 1489 H 142.407 1.51548 -0.382486 0
M  V30 1490 H 143.142 2.63417 1.89162 0
M  V30 1491 H 142.927 3.87168 0.619951 0
M  V30 1492 H 144.417 3.85318 1.60995 0
M  V30 1493 N 144.854 0.36279 1.53368 0
M  V30 1494 C 146.084 -0.228281 2.05335 0
M  V30 1495 C 146.492 -1.43226 1.23625 0
M  V30 1496 O 145.835 -1.81717 0.269206 0
M  V30 1497 C 145.897 -0.688549 3.52845 0
M  V30 1498 C 145.561 0.398362 4.5526 0
M  V30 1499 C 146.558 1.24732 5.04716 0
M  V30 1500 C 144.243 0.557805 4.99193 0
M  V30 1501 C 146.237 2.2411 5.96702 0
M  V30 1502 C 143.924 1.55495 5.90986 0
M  V30 1503 C 144.922 2.39503 6.39631 0
M  V30 1504 O 144.61 3.37517 7.29615 0
M  V30 1505 H 144.342 -0.044395 0.674541 0
M  V30 1506 H 146.896 0.518668 1.98744 0
M  V30 1507 H 145.126 -1.48706 3.56964 0
M  V30 1508 H 146.815 -1.20231 3.87685 0
M  V30 1509 H 147.581 1.13532 4.71525 0
M  V30 1510 H 143.46 -0.0862959 4.60919 0
M  V30 1511 H 147.004 2.89718 6.34594 0
M  V30 1512 H 142.901 1.66744 6.23592 0
M  V30 1513 H 143.669 3.33213 7.47604 0
M  V30 1514 N 146.332 -1.57332 0.0918853 0
M  V30 1515 C 147.748 -1.57389 -0.264766 0
M  V30 1516 C 147.948 -1.10281 -1.68643 0
M  V30 1517 O 147.004 -0.777801 -2.40222 0
M  V30 1518 C 148.317 -3.00648 -0.0561195 0
M  V30 1519 C 149.865 -3.12754 -0.124116 0
M  V30 1520 C 150.34 -4.57965 0.0564972 0
M  V30 1521 N 151.831 -4.632 0.00155611 0
M  V30 1522 C 152.566 -5.73281 0.116598 0
M  V30 1523 N 152.062 -6.92208 0.286294 0
M  V30 1524 N 153.855 -5.6207 0.0580973 0
M  V30 1525 H 146.006 -1.86262 1.02079 0
M  V30 1526 H 148.269 -0.859579 0.399786 0
M  V30 1527 H 147.975 -3.393 0.925669 0
M  V30 1528 H 147.849 -3.68623 -0.799823 0
M  V30 1529 H 150.236 -2.73976 -1.09641 0
M  V30 1530 H 150.317 -2.47377 0.651024 0
M  V30 1531 H 149.961 -4.97436 1.02564 0
M  V30 1532 H 149.891 -5.21399 -0.738297 0
M  V30 1533 H 152.382 -3.77686 -0.127192 0
M  V30 1534 H 152.695 -7.71934 0.365676 0
M  V30 1535 H 151.04 -6.94254 0.32192 0
M  V30 1536 H 154.231 -4.68043 -0.0733204 0
M  V30 1537 H 154.404 -6.47824 0.151203 0
M  V30 1538 N 147.81 0.181792 -1.56548 0
M  V30 1539 C 149.226 0.53316 -1.50431 0
M  V30 1540 C 149.426 1.85184 -0.794297 0
M  V30 1541 O 148.482 2.50058 -0.350318 0
M  V30 1542 C 149.795 0.575597 -2.9514 0
M  V30 1543 C 151.343 0.663519 -3.05886 0
M  V30 1544 C 151.818 0.736946 -4.52032 0
M  V30 1545 N 153.309 0.800118 -4.56237 0
M  V30 1546 C 154.044 0.877327 -5.66649 0
M  V30 1547 N 153.54 0.916016 -6.86718 0
M  V30 1548 N 155.333 0.915542 -5.54594 0
M  V30 1549 H 147.484 -0.683025 -2.01118 0
M  V30 1550 H 149.747 -0.244988 -0.915797 0
M  V30 1551 H 149.453 -0.324482 -3.502 0
M  V30 1552 H 149.327 1.42572 -3.49218 0
M  V30 1553 H 151.714 1.55403 -2.50867 0
M  V30 1554 H 151.795 -0.21307 -2.54911 0
M  V30 1555 H 151.439 -0.149262 -5.07681 0
M  V30 1556 H 151.369 1.62953 -5.00753 0
M  V30 1557 H 153.86 0.778926 -3.69785 0
M  V30 1558 H 154.173 0.975813 -7.66614 0
M  V30 1559 H 152.518 0.884469 -6.89349 0
M  V30 1560 H 155.709 0.882245 -4.59711 0
M  V30 1561 H 155.882 0.972253 -6.40665 0
M  V30 1562 N 149.288 1.51039 0.449983 0
M  V30 1563 C 150.699 1.557 1.03026 0
M  V30 1564 C 151.05 0.372939 1.92623 0
M  V30 1565 O 150.175 -0.511771 2.10261 0
M  V30 1566 C 150.77 2.82171 1.87523 0
M  V30 1567 C 149.329 2.89444 2.40622 0
M  V30 1568 C 148.476 2.50228 1.19504 0
M  V30 1569 H 151.427 1.56999 0.231745 0
M  V30 1570 H 151.448 2.65219 2.72835 0
M  V30 1571 H 150.96 3.68331 1.22286 0
M  V30 1572 H 149.061 2.07685 3.0935 0
M  V30 1573 H 149.174 3.92816 2.74285 0
M  V30 1574 H 147.538 2.03139 1.53644 0
M  V30 1575 H 148.321 3.38719 0.558972 0
M  V30 1576 N 150.766 -0.704594 1.40972 0
M  V30 1577 C 151.676 -1.84856 1.44448 0
M  V30 1578 C 152.692 -1.70726 0.335961 0
M  V30 1579 O 153.868 -1.92799 0.582276 0
M  V30 1580 C 150.933 -3.20758 1.31587 0
M  V30 1581 C 149.994 -3.47063 2.52677 0
M  V30 1582 C 149.227 -4.76481 2.4042 0
M  V30 1583 O 149.45 -5.52341 1.42391 0
M  V30 1584 O 148.384 -5.03367 3.30007 0
M  V30 1585 H 152.21 -1.8488 2.40942 0
M  V30 1586 H 149.795 -0.85647 1.22413 0
M  V30 1587 H 151.677 -4.01913 1.26665 0
M  V30 1588 H 150.352 -3.21438 0.382049 0
M  V30 1589 H 149.259 -2.65873 2.63177 0
M  V30 1590 H 150.592 -3.5119 3.44858 0
M  V30 1591 N 152.244 -1.26651 -0.937939 0
M  V30 1592 C 153.472 -1.15173 -1.7188 0
M  V30 1593 C 153.887 0.292668 -1.86518 0
M  V30 1594 O 153.244 1.20014 -1.37488 0
M  V30 1595 C 153.295 -1.81925 -3.12387 0
M  V30 1596 O 153.016 -3.2072 -2.98446 0
M  V30 1597 C 154.517 -1.76442 -4.06673 0
M  V30 1598 H 151.737 -0.400911 -0.538063 0
M  V30 1599 H 154.281 -1.67332 -1.1756 0
M  V30 1600 H 152.436 -1.33696 -3.63599 0
M  V30 1601 H 152.85 -3.53802 -3.872 0
M  V30 1602 H 154.324 -2.27781 -5.02812 0
M  V30 1603 H 154.801 -0.731608 -4.33064 0
M  V30 1604 H 155.407 -2.24238 -3.61382 0
M  V30 1605 N 153.722 1.14298 -1.08507 0
M  V30 1606 C 154.632 2.23027 -0.727753 0
M  V30 1607 C 155.648 1.71952 0.26619 0
M  V30 1608 O 156.824 2.011 0.109882 0
M  V30 1609 C 153.889 3.46403 -0.143541 0
M  V30 1610 C 152.95 4.12413 -1.19223 0
M  V30 1611 C 152.183 5.29899 -0.635798 0
M  V30 1612 O 152.406 5.67796 0.544393 0
M  V30 1613 O 151.34 5.85717 -1.38634 0
M  V30 1614 H 155.166 2.55945 -1.63481 0
M  V30 1615 H 152.751 1.22248 -0.858817 0
M  V30 1616 H 154.633 4.21018 0.179404 0
M  V30 1617 H 153.308 3.15206 0.736659 0
M  V30 1618 H 152.215 3.39667 -1.56772 0
M  V30 1619 H 153.548 4.47718 -2.04474 0
M  V30 1620 N 155.201 0.870884 1.31352 0
M  V30 1621 C 156.164 0.332243 2.26779 0
M  V30 1622 C 157.164 -0.517302 1.52252 0
M  V30 1623 O 158.354 -0.326477 1.71113 0
M  V30 1624 C 155.486 -0.528066 3.36785 0
M  V30 1625 H 156.679 1.17469 2.75937 0
M  V30 1626 H 154.232 0.64655 1.423 0
M  V30 1627 H 154.967 -1.39167 2.92922 0
M  V30 1628 H 154.752 0.0802582 3.92018 0
M  V30 1629 H 156.242 -0.897179 4.07849 0
M  V30 1630 N 156.679 -1.44442 0.630414 0
M  V30 1631 C 157.925 -2.02351 0.134816 0
M  V30 1632 C 158.258 -1.4947 -1.23986 0
M  V30 1633 O 157.533 -0.678475 -1.82283 0
M  V30 1634 C 157.816 -3.59898 0.120707 0
M  V30 1635 C 157.669 -4.23063 1.52767 0
M  V30 1636 C 158.988 -4.36585 -0.555127 0
M  V30 1637 H 156.107 -0.73527 0.0504646 0
M  V30 1638 H 158.749 -1.72022 0.806751 0
M  V30 1639 H 156.899 -3.85868 -0.451477 0
M  V30 1640 H 158.571 -4.08202 2.14869 0
M  V30 1641 H 156.814 -3.80586 2.08175 0
M  V30 1642 H 157.485 -5.32071 1.46984 0
M  V30 1643 H 159.961 -4.16044 -0.0685429 0
M  V30 1644 H 158.837 -5.46294 -0.534185 0
M  V30 1645 H 159.098 -4.11138 -1.62535 0
M  V30 1646 N 158.157 -0.370918 -1.53173 0
M  V30 1647 C 159.382 0.220293 -2.06227 0
M  V30 1648 C 159.807 1.41243 -1.24225 0
M  V30 1649 O 159.165 1.79387 -0.262645 0
M  V30 1650 C 159.213 0.586663 -3.55796 0
M  V30 1651 O 158.317 1.68317 -3.76488 0
M  V30 1652 H 157.658 0.0308099 -0.663285 0
M  V30 1653 H 160.188 -0.533068 -1.97534 0
M  V30 1654 H 160.198 0.85617 -3.98916 0
M  V30 1655 H 158.873 -0.285013 -4.14922 0
M  V30 1656 H 157.45 1.40881 -3.45264 0
M  V30 1657 N 159.635 1.57281 -0.100228 0
M  V30 1658 C 160.568 2.09976 0.893612 0
M  V30 1659 C 161.546 1.01155 1.27304 0
M  V30 1660 O 162.73 1.28687 1.37739 0
M  V30 1661 C 159.857 2.58098 2.19324 0
M  V30 1662 C 158.903 3.78626 1.96328 0
M  V30 1663 S 159.736 5.21959 1.19662 0
M  V30 1664 C 160.892 5.73435 2.50844 0
M  V30 1665 H 161.125 2.93946 0.44534 0
M  V30 1666 H 158.658 1.53985 0.113167 0
M  V30 1667 H 160.616 2.8648 2.94005 0
M  V30 1668 H 159.277 1.74344 2.61272 0
M  V30 1669 H 158.47 4.10382 2.92579 0
M  V30 1670 H 158.072 3.50763 1.29775 0
M  V30 1671 H 160.364 5.82015 3.46792 0
M  V30 1672 H 161.307 6.7185 2.23659 0
M  V30 1673 H 161.715 5.01395 2.59352 0
M  V30 1674 N 161.113 -0.173488 1.56642 0
M  V30 1675 C 162.043 -1.2171 1.99271 0
M  V30 1676 C 163.024 -1.46289 0.867959 0
M  V30 1677 O 164.209 -1.5766 1.13388 0
M  V30 1678 C 161.339 -2.55651 2.35074 0
M  V30 1679 C 160.293 -2.45645 3.50489 0
M  V30 1680 C 159.619 -3.84056 3.72028 0
M  V30 1681 C 160.919 -1.96302 4.84007 0
M  V30 1682 H 162.613 -0.86275 2.867 0
M  V30 1683 H 160.159 -0.413571 1.37933 0
M  V30 1684 H 162.112 -3.2886 2.63494 0
M  V30 1685 H 160.836 -2.92869 1.44552 0
M  V30 1686 H 159.495 -1.7489 3.22194 0
M  V30 1687 H 159.143 -4.18664 2.788 0
M  V30 1688 H 158.843 -3.7823 4.49684 0
M  V30 1689 H 160.367 -4.58854 4.02846 0
M  V30 1690 H 161.781 -2.59284 5.11317 0
M  V30 1691 H 160.178 -2.01429 5.65284 0
M  V30 1692 H 161.248 -0.917226 4.76146 0
M  V30 1693 N 162.591 -1.51276 -0.441967 0
M  V30 1694 C 163.521 -1.752 -1.54361 0
M  V30 1695 C 164.502 -0.601682 -1.59103 0
M  V30 1696 O 165.687 -0.843913 -1.74905 0
M  V30 1697 C 162.817 -1.87282 -2.92477 0
M  V30 1698 C 161.771 -3.02687 -3.02596 0
M  V30 1699 C 161.097 -2.99947 -4.42647 0
M  V30 1700 C 162.397 -4.4273 -2.77106 0
M  V30 1701 H 164.091 -2.67442 -1.34592 0
M  V30 1702 H 161.637 -1.28694 -0.646048 0
M  V30 1703 H 163.59 -2.02602 -3.695 0
M  V30 1704 H 162.314 -0.916844 -3.13467 0
M  V30 1705 H 160.973 -2.87065 -2.28012 0
M  V30 1706 H 160.621 -2.02136 -4.60597 0
M  V30 1707 H 160.321 -3.77439 -4.50348 0
M  V30 1708 H 161.845 -3.17354 -5.2165 0
M  V30 1709 H 163.259 -4.58727 -3.43864 0
M  V30 1710 H 161.656 -5.21893 -2.96222 0
M  V30 1711 H 162.726 -4.53087 -1.72744 0
M  V30 1712 N 164.069 0.697108 -1.41344 0
M  V30 1713 C 164.979 1.84088 -1.45427 0
M  V30 1714 C 165.995 1.70545 -0.34501 0
M  V30 1715 O 167.171 1.92488 -0.592492 0
M  V30 1716 C 164.236 3.20056 -1.33286 0
M  V30 1717 C 163.297 3.45718 -2.54514 0
M  V30 1718 C 162.53 4.75199 -2.42944 0
M  V30 1719 O 162.753 5.51579 -1.45318 0
M  V30 1720 O 161.687 5.0161 -3.32672 0
M  V30 1721 H 165.513 1.836 -2.41919 0
M  V30 1722 H 163.098 0.849966 -1.22866 0
M  V30 1723 H 164.98 4.01236 -1.28794 0
M  V30 1724 H 163.655 3.2123 -0.39909 0
M  V30 1725 H 162.562 2.64474 -2.64583 0
M  V30 1726 H 163.895 3.49356 -3.46715 0
M  V30 1727 N 165.547 1.27147 0.931209 0
M  V30 1728 C 166.479 1.05364 2.03546 0
M  V30 1729 C 167.492 0.0108438 1.62796 0
M  V30 1730 O 168.681 0.25202 1.76712 0
M  V30 1731 C 165.781 0.575566 3.33977 0
M  V30 1732 C 164.954 1.68985 4.03439 0
M  V30 1733 C 164.013 1.20813 5.12143 0
M  V30 1734 O 163.039 1.90712 5.363 0
M  V30 1735 N 164.241 0.0618851 5.80467 0
M  V30 1736 H 167.006 2.00454 2.22796 0
M  V30 1737 H 164.567 1.18666 1.10136 0
M  V30 1738 H 166.559 0.237264 4.04004 0
M  V30 1739 H 165.129 -0.282016 3.11325 0
M  V30 1740 H 164.349 2.19861 3.27192 0
M  V30 1741 H 165.637 2.4378 4.46597 0
M  V30 1742 H 165.035 -0.521621 5.6329 0
M  V30 1743 H 163.592 -0.217264 6.51438 0
M  V30 1744 N 167.025 -1.13721 1.09112 0
M  V30 1745 C 167.988 -2.17222 0.731241 0
M  V30 1746 C 168.988 -1.59035 -0.237566 0
M  V30 1747 O 170.178 -1.74192 -0.0161704 0
M  V30 1748 C 167.31 -3.40804 0.0808443 0
M  V30 1749 H 168.503 -2.50573 1.64783 0
M  V30 1750 H 166.056 -1.28493 0.889897 0
M  V30 1751 H 166.791 -3.1304 -0.847127 0
M  V30 1752 H 166.576 -3.84306 0.777896 0
M  V30 1753 H 168.066 -4.1731 -0.155657 0
M  V30 1754 N 168.503 -0.877838 -1.30888 0
M  V30 1755 C 169.919 -0.570844 -1.49042 0
M  V30 1756 C 170.119 0.893159 -1.80624 0
M  V30 1757 O 169.175 1.67485 -1.88958 0
M  V30 1758 C 170.488 -1.47784 -2.61878 0
M  V30 1759 C 172.036 -1.48071 -2.75761 0
M  V30 1760 C 172.511 -2.37347 -3.91702 0
M  V30 1761 N 174.002 -2.35271 -3.99001 0
M  V30 1762 C 174.737 -3.01063 -4.88004 0
M  V30 1763 N 174.233 -3.76055 -5.81854 0
M  V30 1764 N 176.026 -2.90332 -4.81315 0
M  V30 1765 H 168.177 -1.82502 -1.0866 0
M  V30 1766 H 170.44 -0.780797 -0.537644 0
M  V30 1767 H 170.146 -2.51993 -2.45341 0
M  V30 1768 H 170.02 -1.18215 -3.58197 0
M  V30 1769 H 172.407 -0.446166 -2.91708 0
M  V30 1770 H 172.488 -1.81668 -1.80085 0
M  V30 1771 H 172.132 -3.40883 -3.76512 0
M  V30 1772 H 172.062 -2.01071 -4.86701 0
M  V30 1773 H 174.553 -1.80768 -3.3186 0
M  V30 1774 H 174.866 -4.23366 -6.46514 0
M  V30 1775 H 173.211 -3.80163 -5.81808 0
M  V30 1776 H 176.402 -2.31278 -4.06974 0
M  V30 1777 H 176.575 -3.41885 -5.50471 0
M  V30 1778 N 169.982 1.44106 -0.638065 0
M  V30 1779 C 170.912 2.33448 0.0494287 0
M  V30 1780 C 171.893 1.48606 0.827672 0
M  V30 1781 O 173.078 1.77308 0.792173 0
M  V30 1782 C 170.208 3.31771 1.02691 0
M  V30 1783 C 169.162 4.26485 0.359823 0
M  V30 1784 C 168.488 5.14729 1.44769 0
M  V30 1785 C 169.788 5.17056 -0.738296 0
M  V30 1786 H 171.482 2.91183 -0.696636 0
M  V30 1787 H 169.028 1.40014 -0.336456 0
M  V30 1788 H 170.981 3.93161 1.51666 0
M  V30 1789 H 169.705 2.7226 1.80395 0
M  V30 1790 H 168.364 3.66437 -0.10934 0
M  V30 1791 H 168.012 4.51566 2.21578 0
M  V30 1792 H 167.712 5.78913 1.00668 0
M  V30 1793 H 169.236 5.78991 1.93911 0
M  V30 1794 H 170.65 5.72342 -0.331354 0
M  V30 1795 H 169.047 5.89879 -1.10286 0
M  V30 1796 H 170.117 4.57652 -1.60258 0
M  V30 1797 N 171.46 0.379036 1.52974 0
M  V30 1798 C 172.871 -0.0972525 1.86447 0
M  V30 1799 C 173.222 -1.47027 1.29914 0
M  V30 1800 O 172.347 -2.07135 0.626433 0
M  V30 1801 C 172.942 -0.183248 3.38304 0
M  V30 1802 C 171.501 -0.603812 3.71525 0
M  V30 1803 C 170.648 0.240632 2.76254 0
M  V30 1804 H 173.599 0.597316 1.4703 0
M  V30 1805 H 173.62 -1.00432 3.67006 0
M  V30 1806 H 173.132 0.816191 3.79421 0
M  V30 1807 H 171.233 -1.61099 3.35973 0
M  V30 1808 H 171.346 -0.369086 4.77676 0
M  V30 1809 H 169.71 -0.292548 2.53014 0
M  V30 1810 H 170.493 1.23786 3.20206 0
M  V30 1811 N 172.938 -1.57226 0.108567 0
M  V30 1812 C 173.87 -2.11809 -0.875752 0
M  V30 1813 C 174.883 -1.05839 -1.23701 0
M  V30 1814 O 176.072 -1.33245 -1.18778 0
M  V30 1815 C 173.172 -2.59411 -2.18081 0
M  V30 1816 C 172.345 -3.89364 -1.99284 0
M  V30 1817 C 171.404 -4.22672 -3.13424 0
M  V30 1818 O 170.43 -4.91668 -2.86795 0
M  V30 1819 N 171.632 -3.79154 -4.3957 0
M  V30 1820 H 174.397 -2.9689 -0.409477 0
M  V30 1821 H 171.958 -1.61721 -0.076158 0
M  V30 1822 H 173.95 -2.7873 -2.93414 0
M  V30 1823 H 172.52 -1.79268 -2.5609 0
M  V30 1824 H 171.74 -3.79059 -1.08203 0
M  V30 1825 H 173.028 -4.74358 -1.84017 0
M  V30 1826 H 172.426 -3.23486 -4.64083 0
M  V30 1827 H 170.983 -4.03602 -5.11809 0
M  V30 1828 N 174.416 0.165178 -1.56732 0
M  V30 1829 C 175.827 0.727046 -1.71962 0
M  V30 1830 C 176.178 1.82508 -0.720078 0
M  V30 1831 O 175.303 2.16082 0.117242 0
M  V30 1832 C 175.898 1.32559 -3.11791 0
M  V30 1833 C 174.457 1.83422 -3.28684 0
M  V30 1834 C 173.604 0.715567 -2.67908 0
M  V30 1835 H 176.555 -0.0602896 -1.58585 0
M  V30 1836 H 176.576 2.19533 -3.10782 0
M  V30 1837 H 176.088 0.526195 -3.84516 0
M  V30 1838 H 174.189 2.65986 -2.60926 0
M  V30 1839 H 174.302 1.97543 -4.36478 0
M  V30 1840 H 172.666 1.13758 -2.27884 0
M  V30 1841 H 173.449 -0.0720836 -3.43224 0
M  V30 1842 N 175.894 1.51508 0.433938 0
M  V30 1843 C 177.14 1.64588 1.18484 0
M  V30 1844 C 177.473 0.362666 1.90784 0
M  V30 1845 O 176.748 -0.637892 1.83742 0
M  V30 1846 C 177.031 2.85149 2.19913 0
M  V30 1847 C 176.884 4.23456 1.51674 0
M  V30 1848 C 178.203 3.01227 3.20858 0
M  V30 1849 H 175.322 0.598994 0.429389 0
M  V30 1850 H 177.964 1.84002 0.473647 0
M  V30 1851 H 176.114 2.68729 2.80566 0
M  V30 1852 H 177.786 4.51552 0.943322 0
M  V30 1853 H 176.029 4.25998 0.819035 0
M  V30 1854 H 176.7 5.03812 2.2556 0
M  V30 1855 H 179.176 3.16382 2.70263 0
M  V30 1856 H 178.052 3.87141 3.89118 0
M  V30 1857 H 178.313 2.13447 3.8716 0
M  V30 1858 N 177.372 -0.689602 1.41712 0
M  V30 1859 C 178.335 -1.78521 1.43746 0
M  V30 1860 C 179.335 -1.57436 0.327191 0
M  V30 1861 O 180.525 -1.64 0.587348 0
M  V30 1862 C 177.657 -3.16971 1.25467 0
M  V30 1863 H 178.85 -1.78108 2.41283 0
M  V30 1864 H 176.403 -0.89781 1.27942 0
M  V30 1865 H 177.138 -3.23019 0.287948 0
M  V30 1866 H 176.923 -3.33678 2.05917 0
M  V30 1867 H 178.413 -3.96935 1.2974 0
M  V30 1868 N 178.85 -1.27639 -0.924453 0
M  V30 1869 C 179.76 -1.12466 -2.05885 0
M  V30 1870 C 180.776 -0.053869 -1.73917 0
M  V30 1871 O 181.952 -0.261012 -1.99702 0
M  V30 1872 C 179.017 -0.776768 -3.37886 0
M  V30 1873 C 178.078 -1.92878 -3.83532 0
M  V30 1874 C 177.311 -1.59739 -5.09234 0
M  V30 1875 O 177.534 -0.506782 -5.68144 0
M  V30 1876 O 176.468 -2.43761 -5.50331 0
M  V30 1877 H 180.294 -2.07671 -2.21599 0
M  V30 1878 H 177.879 -1.06857 -1.04413 0
M  V30 1879 H 179.761 -0.596229 -4.17161 0
M  V30 1880 H 178.436 0.145732 -3.23372 0
M  V30 1881 H 177.343 -2.1644 -3.0513 0
M  V30 1882 H 178.676 -2.8316 -4.02593 0
M  V30 1883 N 180.328 1.1314 -1.09713 0
M  V30 1884 C 181.26 2.18343 -0.697056 0
M  V30 1885 C 182.273 1.60669 0.262551 0
M  V30 1886 O 183.462 1.78435 0.0481527 0
M  V30 1887 C 180.562 3.38899 -0.00684728 0
M  V30 1888 C 179.735 4.26078 -0.988741 0
M  V30 1889 C 178.794 5.25155 -0.331394 0
M  V30 1890 O 177.82 5.60701 -0.979926 0
M  V30 1891 N 179.022 5.73271 0.913261 0
M  V30 1892 H 181.787 2.5328 -1.60216 0
M  V30 1893 H 179.348 1.28491 -0.984971 0
M  V30 1894 H 181.34 4.02255 0.444191 0
M  V30 1895 H 179.91 3.02175 0.800551 0
M  V30 1896 H 179.13 3.59453 -1.61826 0
M  V30 1897 H 180.418 4.81178 -1.65364 0
M  V30 1898 H 179.816 5.46544 1.45966 0
M  V30 1899 H 178.373 6.3855 1.30757 0
M  V30 1900 N 181.806 0.884767 1.30421 0
M  V30 1901 C 182.769 0.356277 2.26414 0
M  V30 1902 C 183.769 -0.501124 1.52792 0
M  V30 1903 O 184.959 -0.30831 1.7145 0
M  V30 1904 C 182.091 -0.492316 3.37326 0
M  V30 1905 H 183.284 1.20389 2.74675 0
M  V30 1906 H 180.837 0.661607 1.41607 0
M  V30 1907 H 181.572 -1.36052 2.94381 0
M  V30 1908 H 181.357 0.121832 3.91911 0
M  V30 1909 H 182.847 -0.853871 4.08777 0
M  V30 1910 N 183.284 -1.43765 0.645699 0
M  V30 1911 C 184.234 -2.27884 -0.0726442 0
M  V30 1912 C 185.218 -1.39483 -0.802086 0
M  V30 1913 O 186.41 -1.63174 -0.685791 0
M  V30 1914 C 183.539 -3.27055 -1.04356 0
M  V30 1915 C 182.625 -4.22944 -0.312985 0
M  V30 1916 N 183.016 -5.01391 0.666386 0
M  V30 1917 C 181.314 -4.42528 -0.55546 0
M  V30 1918 C 182.015 -5.71217 1.09935 0
M  V30 1919 N 180.991 -5.41856 0.435137 0
M  V30 1920 H 184.793 -2.85949 0.678988 0
M  V30 1921 H 182.307 -1.55378 0.472368 0
M  V30 1922 H 184.304 -3.86089 -1.57292 0
M  V30 1923 H 182.964 -2.70551 -1.79534 0
M  V30 1924 H 183.975 -5.07252 1.04481 0
M  V30 1925 H 180.652 -3.97104 -1.28899 0
M  V30 1926 H 182.042 -6.44202 1.90929 0
M  V30 1927 N 184.763 -0.387143 -1.52771 0
M  V30 1928 C 185.71 0.449048 -2.26389 0
M  V30 1929 C 186.68 1.05961 -1.27912 0
M  V30 1930 O 187.865 1.08804 -1.56737 0
M  V30 1931 C 185.005 1.57155 -3.0724 0
M  V30 1932 C 184.118 0.984066 -4.20643 0
M  V30 1933 C 183.253 2.07745 -4.88892 0
M  V30 1934 C 182.292 1.46574 -5.94292 0
M  V30 1935 N 181.429 2.49834 -6.56146 0
M  V30 1936 H 186.269 -0.185205 -2.97424 0
M  V30 1937 H 183.806 -0.103164 -1.46738 0
M  V30 1938 H 185.764 2.23309 -3.52405 0
M  V30 1939 H 184.394 2.17615 -2.38419 0
M  V30 1940 H 183.446 0.212193 -3.79808 0
M  V30 1941 H 184.758 0.497029 -4.96318 0
M  V30 1942 H 183.912 2.81673 -5.3735 0
M  V30 1943 H 182.651 2.59807 -4.12737 0
M  V30 1944 H 181.656 0.711696 -5.45174 0
M  V30 1945 H 182.881 0.953088 -6.72379 0
M  V30 1946 H 180.827 3.0107 -5.82832 0
M  V30 1947 H 180.744 2.05879 -7.27427 0
M  V30 1948 H 182.012 3.23399 -7.09249 0
M  V30 1949 N 186.241 1.57166 -0.116904 0
M  V30 1950 C 187.171 2.18222 0.830759 0
M  V30 1951 C 188.152 1.12167 1.27877 0
M  V30 1952 O 189.337 1.40394 1.34176 0
M  V30 1953 C 186.467 2.77996 2.08172 0
M  V30 1954 C 185.421 3.89614 1.77157 0
M  V30 1955 C 184.747 4.36187 3.09265 0
M  V30 1956 C 186.047 5.1181 1.04151 0
M  V30 1957 H 187.741 2.97664 0.321992 0
M  V30 1958 H 185.287 1.4318 0.153434 0
M  V30 1959 H 187.24 3.19366 2.74924 0
M  V30 1960 H 185.964 1.9584 2.6137 0
M  V30 1961 H 184.623 3.48816 1.12796 0
M  V30 1962 H 184.271 3.50893 3.60393 0
M  V30 1963 H 183.971 5.11455 2.89288 0
M  V30 1964 H 185.495 4.80207 3.77139 0
M  V30 1965 H 186.909 5.50214 1.61052 0
M  V30 1966 H 185.306 5.92648 0.942762 0
M  V30 1967 H 186.376 4.84892 0.0279022 0
M  V30 1968 N 187.719 -0.156864 1.56817 0
M  V30 1969 C 188.682 -1.17781 1.96622 0
M  V30 1970 C 189.682 -1.36401 0.851555 0
M  V30 1971 O 190.872 -1.33561 1.11836 0
M  V30 1972 C 188.004 -2.54008 2.27361 0
M  V30 1973 H 189.197 -0.836564 2.87996 0
M  V30 1974 H 186.75 -0.39985 1.51099 0
M  V30 1975 H 187.485 -2.9312 1.38748 0
M  V30 1976 H 187.27 -2.41856 3.08623 0
M  V30 1977 H 188.76 -3.27558 2.59029 0
M  V30 1978 N 189.197 -1.51736 -0.425897 0
M  V30 1979 C 190.427 -1.68549 -1.19476 0
M  V30 1980 C 190.835 -0.387288 -1.85194 0
M  V30 1981 O 190.178 0.645142 -1.71999 0
M  V30 1982 C 190.24 -2.75275 -2.31223 0
M  V30 1983 C 189.904 -4.17534 -1.8578 0
M  V30 1984 C 190.901 -5.01936 -1.35485 0
M  V30 1985 C 188.586 -4.6369 -1.93123 0
M  V30 1986 C 190.58 -6.30559 -0.931347 0
M  V30 1987 C 188.267 -5.92307 -1.50384 0
M  V30 1988 C 189.265 -6.75569 -1.00473 0
M  V30 1989 O 188.953 -8.0178 -0.583452 0
M  V30 1990 H 188.685 -0.568525 -0.365725 0
M  V30 1991 H 191.239 -1.98982 -0.509444 0
M  V30 1992 H 189.469 -2.40182 -3.03067 0
M  V30 1993 H 191.158 -2.80853 -2.93047 0
M  V30 1994 H 191.924 -4.67475 -1.29197 0
M  V30 1995 H 187.803 -3.98997 -2.30916 0
M  V30 1996 H 191.347 -6.95498 -0.541084 0
M  V30 1997 H 187.244 -6.2628 -1.56346 0
M  V30 1998 H 188.012 -8.1543 -0.708275 0
M  V30 1999 N 190.675 0.682077 -1.42076 0
M  V30 2000 C 191.607 1.80755 -1.40926 0
M  V30 2001 C 192.62 1.59833 -0.309398 0
M  V30 2002 O 193.809 1.69087 -0.572014 0
M  V30 2003 C 190.909 3.17744 -1.17865 0
M  V30 2004 C 190.082 3.65578 -2.40149 0
M  V30 2005 C 189.141 4.81277 -2.12742 0
M  V30 2006 O 188.167 4.92197 -2.85887 0
M  V30 2007 N 189.369 5.69474 -1.12602 0
M  V30 2008 H 192.134 1.82229 -2.37935 0
M  V30 2009 H 189.695 0.864903 -1.36861 0
M  V30 2010 H 191.687 3.9279 -0.9746 0
M  V30 2011 H 190.257 3.11214 -0.294068 0
M  V30 2012 H 189.477 2.81291 -2.76169 0
M  V30 2013 H 190.765 3.94278 -3.21593 0
M  V30 2014 H 190.163 5.63297 -0.520899 0
M  V30 2015 H 188.72 6.44363 -0.981842 0
M  V30 2016 N 192.153 1.28127 0.917671 0
M  V30 2017 C 193.083 1.14248 2.03641 0
M  V30 2018 C 194.064 0.0412748 1.7005 0
M  V30 2019 O 195.249 0.217566 1.92977 0
M  V30 2020 C 192.379 0.799431 3.37974 0
M  V30 2021 C 191.333 1.85497 3.85713 0
M  V30 2022 C 190.659 1.36565 5.16966 0
M  V30 2023 C 191.959 3.26085 4.08002 0
M  V30 2024 H 193.653 2.07835 2.15511 0
M  V30 2025 H 191.199 1.00064 1.03553 0
M  V30 2026 H 193.152 0.689114 4.15727 0
M  V30 2027 H 191.876 -0.172145 3.26146 0
M  V30 2028 H 190.535 1.95437 3.10161 0
M  V30 2029 H 190.183 0.383253 5.01538 0
M  V30 2030 H 189.883 2.07143 5.49878 0
M  V30 2031 H 191.407 1.26848 5.97279 0
M  V30 2032 H 192.821 3.19089 4.76293 0
M  V30 2033 H 191.218 3.94462 4.52238 0
M  V30 2034 H 192.288 3.70394 3.12948 0
M  V30 2035 N 193.631 -1.12557 1.10312 0
M  V30 2036 C 194.594 -2.16434 0.75424 0
M  V30 2037 C 195.594 -1.59278 -0.220685 0
M  V30 2038 O 196.784 -1.742 0.00230591 0
M  V30 2039 C 193.916 -3.40699 0.116987 0
M  V30 2040 H 195.109 -2.48811 1.67431 0
M  V30 2041 H 192.662 -1.27542 0.903475 0
M  V30 2042 H 193.397 -3.13921 -0.813877 0
M  V30 2043 H 193.182 -3.83459 0.818613 0
M  V30 2044 H 194.672 -4.17451 -0.111387 0
M  V30 2045 N 195.109 -0.891671 -1.2995 0
M  V30 2046 C 196.386 -0.433307 -1.9074 0
M  V30 2047 C 196.766 1.08646 -1.80995 0
M  V30 2048 O 196.114 1.92476 -1.23147 0
M  V30 2049 C 196.324 -0.938895 -3.36134 0
M  V30 2050 C 197.672 -0.977829 -4.13187 0
M  V30 2051 O 198.696 -0.886015 -3.45005 0
M  V30 2052 O 197.555 -1.11453 -5.35015 0
M  V30 2053 H 194.649 -0.133699 -0.816121 0
M  V30 2054 H 197.195 -0.981011 -1.38471 0
M  V30 2055 H 195.967 -1.98281 -3.37343 0
M  V30 2056 H 195.59 -0.37074 -3.95868 0
M  V30 2057 N 196.587 1.43421 -0.653314 0
M  V30 2058 C 197.534 2.30768 0.0382271 0
M  V30 2059 C 198.504 1.44755 0.814576 0
M  V30 2060 O 199.689 1.73624 0.791162 0
M  V30 2061 C 196.829 3.30336 0.998599 0
M  V30 2062 C 195.942 4.31448 0.218342 0
M  V30 2063 C 195.077 5.18098 1.17252 0
M  V30 2064 C 194.116 6.10902 0.382702 0
M  V30 2065 N 193.253 6.90176 1.28848 0
M  V30 2066 H 198.093 2.89357 -0.712511 0
M  V30 2067 H 195.63 1.42548 -0.363128 0
M  V30 2068 H 197.588 3.86572 1.56901 0
M  V30 2069 H 196.218 2.73397 1.71621 0
M  V30 2070 H 195.27 3.77506 -0.46836 0
M  V30 2071 H 196.582 4.97227 -0.395812 0
M  V30 2072 H 195.736 5.7896 1.81356 0
M  V30 2073 H 194.475 4.52444 1.82058 0
M  V30 2074 H 193.48 5.49128 -0.27169 0
M  V30 2075 H 194.705 6.78598 -0.260957 0
M  V30 2076 H 192.651 6.27171 1.92334 0
M  V30 2077 H 192.568 7.52478 0.728887 0
M  V30 2078 H 193.836 7.55543 1.91766 0
M  V30 2079 N 198.065 0.39524 1.52563 0
M  V30 2080 C 198.995 -0.428384 2.29537 0
M  V30 2081 C 199.976 -1.05831 1.33169 0
M  V30 2082 O 201.161 -1.06995 1.62067 0
M  V30 2083 C 198.291 -1.55274 3.10656 0
M  V30 2084 C 197.245 -1.04855 4.14957 0
M  V30 2085 C 196.571 -2.26543 4.84337 0
M  V30 2086 C 197.871 -0.112324 5.22179 0
M  V30 2087 H 199.565 0.213867 2.98635 0
M  V30 2088 H 197.111 0.104298 1.43622 0
M  V30 2089 H 199.064 -2.1358 3.63265 0
M  V30 2090 H 197.788 -2.22266 2.39302 0
M  V30 2091 H 196.447 -0.487985 3.63338 0
M  V30 2092 H 196.095 -2.92059 4.09525 0
M  V30 2093 H 195.795 -1.93466 5.54837 0
M  V30 2094 H 197.319 -2.85481 5.39753 0
M  V30 2095 H 198.733 -0.603752 5.70112 0
M  V30 2096 H 197.13 0.128968 5.99961 0
M  V30 2097 H 198.2 0.837052 4.77621 0
M  V30 2098 N 199.544 -1.57102 0.125237 0
M  V30 2099 C 200.96 -1.57915 -0.231322 0
M  V30 2100 C 201.16 -1.13833 -1.66266 0
M  V30 2101 O 200.216 -0.828581 -2.38518 0
M  V30 2102 C 201.529 -3.00699 0.00766489 0
M  V30 2103 C 203.077 -3.12947 -0.0577483 0
M  V30 2104 C 203.552 -4.57742 0.153626 0
M  V30 2105 N 205.043 -4.63092 0.0998073 0
M  V30 2106 C 205.778 -5.72905 0.238174 0
M  V30 2107 N 205.274 -6.91445 0.433057 0
M  V30 2108 N 207.067 -5.6182 0.177308 0
M  V30 2109 H 199.218 -1.84055 1.06007 0
M  V30 2110 H 201.481 -0.850905 0.417929 0
M  V30 2111 H 201.187 -3.3726 0.997431 0
M  V30 2112 H 201.061 -3.70236 -0.721452 0
M  V30 2113 H 203.448 -2.7624 -1.03804 0
M  V30 2114 H 203.529 -2.4594 0.70335 0
M  V30 2115 H 203.173 -4.95149 1.13092 0
M  V30 2116 H 203.103 -5.22848 -0.627534 0
M  V30 2117 H 205.594 -3.77871 -0.047051 0
M  V30 2118 H 205.907 -7.70985 0.529332 0
M  V30 2119 H 204.252 -6.93415 0.469109 0
M  V30 2120 H 207.443 -4.68093 0.0259748 0
M  V30 2121 H 207.616 -6.47357 0.288582 0
M  V30 2122 N 201.022 0.148545 -1.56898 0
M  V30 2123 C 201.97 1.20265 -1.99096 0
M  V30 2124 C 202.964 1.44559 -0.883123 0
M  V30 2125 O 204.17 1.4487 -1.0683 0
M  V30 2126 H 200.545 0.404786 -0.63376 0
M  V30 2127 H 202.516 0.82004 -2.86911 0
M  V30 2128 C 201.265 2.52886 -2.3863 0
M  V30 2129 H 200.588 2.35021 -3.23427 0
M  V30 2130 H 202.028 3.25274 -2.7198 0
M  V30 2131 C 200.487 3.13315 -1.23837 0
M  V30 2132 O 201.017 3.98077 -0.538268 0
M  V30 2133 N 199.223 2.72742 -1.00301 0
M  V30 2134 H 198.77 2.03912 -1.5741 0
M  V30 2135 H 198.728 3.13507 -0.236838 0
M  V30 2136 N 202.5 1.5196 0.417844 0
M  V30 2137 C 203.432 1.70895 1.52733 0
M  V30 2138 C 204.445 0.589405 1.51756 0
M  V30 2139 O 205.634 0.864312 1.56179 0
M  V30 2140 C 202.734 1.72627 2.91639 0
M  V30 2141 C 201.907 3.01479 3.16905 0
M  V30 2142 C 200.966 2.95139 4.35637 0
M  V30 2143 O 199.992 3.69059 4.3334 0
M  V30 2144 N 201.194 2.12328 5.40275 0
M  V30 2145 H 203.959 2.66612 1.36888 0
M  V30 2146 H 201.52 1.50089 0.607037 0
M  V30 2147 H 203.512 1.65928 3.6912 0
M  V30 2148 H 202.082 0.844216 3.00985 0
M  V30 2149 H 201.302 3.21895 2.27546 0
M  V30 2150 H 202.59 3.86736 3.30625 0
M  V30 2151 H 201.988 1.51685 5.44985 0
M  V30 2152 H 200.545 2.11494 6.16534 0
M  V30 2153 N 203.978 -0.674533 1.42435 0
M  V30 2154 C 204.925 -1.78807 1.45934 0
M  V30 2155 C 205.895 -1.63157 0.311271 0
M  V30 2156 O 207.08 -1.83707 0.515383 0
M  V30 2157 C 204.22 -3.16839 1.36773 0
M  V30 2158 C 203.333 -3.43774 2.61617 0
M  V30 2159 C 202.468 -4.71536 2.44597 0
M  V30 2160 C 201.507 -4.91505 3.64814 0
M  V30 2161 N 200.644 -6.10508 3.46734 0
M  V30 2162 H 205.484 -1.75151 2.41093 0
M  V30 2163 H 203.021 -0.85504 1.19697 0
M  V30 2164 H 204.979 -3.96606 1.29459 0
M  V30 2165 H 203.609 -3.19619 0.452089 0
M  V30 2166 H 202.661 -2.58259 2.79297 0
M  V30 2167 H 203.973 -3.54423 3.50978 0
M  V30 2168 H 203.127 -5.59393 2.3487 0
M  V30 2169 H 201.866 -4.6317 1.52726 0
M  V30 2170 H 200.871 -4.0209 3.74972 0
M  V30 2171 H 202.096 -5.01716 4.57665 0
M  V30 2172 H 200.042 -6.03315 2.5758 0
M  V30 2173 H 199.959 -6.2202 4.29682 0
M  V30 2174 H 201.227 -7.01044 3.40819 0
M  V30 2175 N 205.456 -1.28612 -0.910864 0
M  V30 2176 C 206.404 -1.1265 -2.03501 0
M  V30 2177 C 207.398 -0.0450054 -1.6934 0
M  V30 2178 O 208.604 -0.203988 -1.7884 0
M  V30 2179 H 204.979 -0.347639 -0.666822 0
M  V30 2180 H 206.95 -2.07849 -2.14106 0
M  V30 2181 C 205.699 -0.808143 -3.38178 0
M  V30 2182 H 205.022 -1.63231 -3.6496 0
M  V30 2183 H 206.462 -0.736426 -4.17556 0
M  V30 2184 C 204.921 0.488226 -3.33344 0
M  V30 2185 O 205.451 1.51766 -3.71927 0
M  V30 2186 N 203.657 0.490009 -2.86439 0
M  V30 2187 H 203.204 -0.348161 -2.55236 0
M  V30 2188 H 203.162 1.35741 -2.83587 0
M  V30 2189 N 206.934 1.1197 -1.10907 0
M  V30 2190 C 207.897 2.16031 -0.765707 0
M  V30 2191 C 208.897 1.59393 0.212235 0
M  V30 2192 O 210.087 1.74196 -0.0115441 0
M  V30 2193 C 207.219 3.40632 -0.135053 0
M  V30 2194 H 208.412 2.47919 -1.68748 0
M  V30 2195 H 205.965 1.27061 -0.910226 0
M  V30 2196 H 206.7 3.14348 0.797218 0
M  V30 2197 H 206.485 3.8302 -0.838937 0
M  V30 2198 H 207.975 4.17505 0.0892469 0
M  V30 2199 N 208.412 0.89855 1.29475 0
M  V30 2200 C 209.637 0.538561 2.00285 0
M  V30 2201 C 210.062 -0.869135 1.66816 0
M  V30 2202 O 209.42 -1.57831 0.892145 0
M  V30 2203 C 209.468 0.736475 3.52999 0
M  V30 2204 O 208.572 -0.211537 4.11857 0
M  V30 2205 H 207.913 0.210563 0.62973 0
M  V30 2206 H 210.443 1.20982 1.64998 0
M  V30 2207 H 210.453 0.640685 4.02938 0
M  V30 2208 H 209.128 1.76276 3.76696 0
M  V30 2209 H 207.705 -0.0682991 3.72837 0
M  V30 2210 N 209.89 -1.43072 0.660911 0
M  V30 2211 C 211.138 -2.01323 0.177094 0
M  V30 2212 C 211.459 -1.5245 -1.2159 0
M  V30 2213 O 210.729 -0.740322 -1.81373 0
M  V30 2214 H 209.309 -0.744382 0.0624804 0
M  V30 2215 H 211.971 -1.75179 0.854305 0
M  V30 2216 H 211.067 -3.11649 0.167641 0
M  V30 2217 N 211.368 -0.403325 -1.52352 0
M  V30 2218 C 212.784 -0.0539281 -1.59509 0
M  V30 2219 C 212.984 1.43307 -1.41652 0
M  V30 2220 O 212.04 2.19924 -1.24056 0
M  V30 2221 C 213.353 -0.543654 -2.95745 0
M  V30 2222 C 214.901 -0.501125 -3.08962 0
M  V30 2223 C 215.376 -0.967267 -4.47669 0
M  V30 2224 N 216.867 -0.923849 -4.53893 0
M  V30 2225 C 217.602 -1.25578 -5.5948 0
M  V30 2226 N 217.098 -1.65889 -6.72646 0
M  V30 2227 N 218.891 -1.17613 -5.49658 0
M  V30 2228 H 211.042 -1.37123 -1.62206 0
M  V30 2229 H 213.305 -0.56294 -0.76276 0
M  V30 2230 H 213.011 -1.58275 -3.14073 0
M  V30 2231 H 212.885 0.0498042 -3.77167 0
M  V30 2232 H 215.272 0.528909 -2.90321 0
M  V30 2233 H 215.353 -1.13056 -2.2946 0
M  V30 2234 H 214.997 -1.9956 -4.67053 0
M  V30 2235 H 214.927 -0.314698 -5.25659 0
M  V30 2236 H 217.418 -0.627403 -3.72655 0
M  V30 2237 H 217.731 -1.89543 -7.49195 0
M  V30 2238 H 216.076 -1.69787 -6.73942 0
M  V30 2239 H 219.267 -0.860115 -4.6013 0
M  V30 2240 H 219.44 -1.43812 -6.3184 0
M  V30 2241 N 212.846 1.57033 -0.133567 0
M  V30 2242 C 213.809 2.14897 0.796995 0
M  V30 2243 C 214.809 1.0874 1.18458 0
M  V30 2244 O 215.999 1.34446 1.1077 0
M  V30 2245 C 213.131 2.70112 2.07973 0
M  V30 2246 H 214.324 2.98457 0.293873 0
M  V30 2247 H 211.877 1.55871 0.115787 0
M  V30 2248 H 212.612 1.9018 2.62682 0
M  V30 2249 H 212.397 3.47764 1.81115 0
M  V30 2250 H 213.887 3.14738 2.74462 0
M  V30 2251 N 214.325 -0.140222 1.56975 0
M  V30 2252 C 215.573 -0.850005 1.83356 0
M  V30 2253 C 215.894 -1.81399 0.71551 0
M  V30 2254 O 215.164 -1.94136 -0.262294 0
M  V30 2255 H 213.744 -0.316886 0.676456 0
M  V30 2256 H 216.406 -0.132608 1.94448 0
M  V30 2257 H 215.502 -1.40814 2.78528 0
M  V30 2258 N 215.803 -1.52179 -0.40978 0
M  V30 2259 C 216.736 -1.70196 -1.52015 0
M  V30 2260 C 217.714 -0.549542 -1.53032 0
M  V30 2261 O 218.898 -0.776815 -1.71749 0
M  V30 2262 C 216.025 -1.74069 -2.90547 0
M  V30 2263 C 215.071 -2.95601 -3.07445 0
M  V30 2264 S 215.904 -4.55956 -2.80827 0
M  V30 2265 C 217.06 -4.62614 -4.21591 0
M  V30 2266 H 217.293 -2.64109 -1.36504 0
M  V30 2267 H 214.826 -1.4221 -0.601312 0
M  V30 2268 H 216.784 -1.76985 -3.70387 0
M  V30 2269 H 215.445 -0.812835 -3.034 0
M  V30 2270 H 214.638 -2.94791 -4.08796 0
M  V30 2271 H 214.24 -2.90569 -2.35469 0
M  V30 2272 H 216.532 -4.39951 -5.15218 0
M  V30 2273 H 217.475 -5.64548 -4.27424 0
M  V30 2274 H 217.883 -3.91654 -4.06531 0
M  V30 2275 N 217.281 0.66697 -1.42791 0
M  V30 2276 C 218.527 1.4291 -1.43891 0
M  V30 2277 C 218.86 1.94114 -0.0578972 0
M  V30 2278 O 218.135 1.71414 0.91911 0
M  V30 2279 C 218.418 2.62049 -2.46987 0
M  V30 2280 C 218.271 2.16426 -3.94309 0
M  V30 2281 C 219.59 3.64266 -2.46978 0
M  V30 2282 H 216.709 0.518306 -0.523954 0
M  V30 2283 H 219.351 0.757321 -1.74255 0
M  V30 2284 H 217.501 3.19361 -2.21225 0
M  V30 2285 H 219.173 1.64221 -4.31079 0
M  V30 2286 H 217.416 1.47925 -4.078 0
M  V30 2287 H 218.087 3.02038 -4.62036 0
M  V30 2288 H 220.563 3.16686 -2.69906 0
M  V30 2289 H 219.439 4.45196 -3.21079 0
M  V30 2290 H 219.7 4.15927 -1.49857 0
M  V30 2291 N 218.759 1.29093 0.90403 0
M  V30 2292 C 219.691 1.09658 2.01266 0
M  V30 2293 C 220.704 0.0453729 1.62737 0
M  V30 2294 O 221.893 0.289446 1.76138 0
M  V30 2295 C 218.993 0.646278 3.32681 0
M  V30 2296 C 218.166 1.77505 3.99763 0
M  V30 2297 C 217.225 1.31649 5.09465 0
M  V30 2298 O 216.251 2.02045 5.32134 0
M  V30 2299 N 217.453 0.184997 5.80205 0
M  V30 2300 H 220.218 2.05135 2.18494 0
M  V30 2301 H 217.779 1.20975 1.07594 0
M  V30 2302 H 219.771 0.322906 4.0341 0
M  V30 2303 H 218.341 -0.215916 3.11853 0
M  V30 2304 H 217.561 2.26752 3.22455 0
M  V30 2305 H 218.849 2.53198 4.41325 0
M  V30 2306 H 218.247 -0.402021 5.6427 0
M  V30 2307 H 216.804 -0.0790358 6.51752 0
M  V30 2308 N 220.237 -1.11381 1.11499 0
M  V30 2309 C 221.485 -1.8277 0.862524 0
M  V30 2310 C 221.806 -1.85097 -0.613534 0
M  V30 2311 O 221.076 -1.32198 -1.4457 0
M  V30 2312 H 219.656 -0.676823 0.316101 0
M  V30 2313 H 222.318 -1.34816 1.4075 0
M  V30 2314 H 221.414 -2.86614 1.23527 0
M  V30 2315 N 221.715 -0.905404 -1.28997 0
M  V30 2316 C 222.645 -0.404212 -2.29975 0
M  V30 2317 C 223.626 0.523784 -1.61835 0
M  V30 2318 O 224.811 0.433298 -1.89304 0
M  V30 2319 C 221.941 0.364042 -3.45387 0
M  V30 2320 C 220.895 -0.474048 -4.25367 0
M  V30 2321 C 220.221 0.422045 -5.33032 0
M  V30 2322 C 221.521 -1.72696 -4.92923 0
M  V30 2323 H 223.215 -1.24807 -2.72146 0
M  V30 2324 H 220.761 -0.601585 -1.30832 0
M  V30 2325 H 222.714 0.725447 -4.15109 0
M  V30 2326 H 221.438 1.24174 -3.02074 0
M  V30 2327 H 220.097 -0.81786 -3.57361 0
M  V30 2328 H 219.745 1.29804 -4.85963 0
M  V30 2329 H 219.445 -0.135057 -5.87445 0
M  V30 2330 H 220.969 0.779517 -6.05604 0
M  V30 2331 H 222.383 -1.43495 -5.55051 0
M  V30 2332 H 220.78 -2.22582 -5.57295 0
M  V30 2333 H 221.85 -2.45964 -4.17887 0
M  V30 2334 N 223.193 1.4272 -0.668489 0
M  V30 2335 C 224.123 2.335 -0.000100175 0
M  V30 2336 C 225.104 1.50328 0.795964 0
M  V30 2337 O 226.289 1.78949 0.754385 0
M  V30 2338 C 223.419 3.33874 0.956302 0
M  V30 2339 C 222.373 4.27152 0.269278 0
M  V30 2340 C 221.699 5.17684 1.33818 0
M  V30 2341 C 222.999 5.15373 -0.847805 0
M  V30 2342 H 224.693 2.89639 -0.758244 0
M  V30 2343 H 222.239 1.39269 -0.366079 0
M  V30 2344 H 224.192 3.9629 1.43292 0
M  V30 2345 H 222.916 2.76025 1.74579 0
M  V30 2346 H 221.575 3.66123 -0.187042 0
M  V30 2347 H 221.223 4.56165 2.1195 0
M  V30 2348 H 220.923 5.80918 0.883659 0
M  V30 2349 H 222.447 5.82974 1.81586 0
M  V30 2350 H 223.861 5.7151 -0.452681 0
M  V30 2351 H 222.258 5.87407 -1.22773 0
M  V30 2352 H 223.328 4.5415 -1.69929 0
M  V30 2353 N 224.671 0.411399 1.52136 0
M  V30 2354 C 225.603 -0.448386 2.24771 0
M  V30 2355 C 226.616 -1.00828 1.27818 0
M  V30 2356 O 227.805 -0.906841 1.53749 0
M  V30 2357 C 224.905 -1.63636 2.96777 0
M  V30 2358 C 224.078 -1.19995 4.20618 0
M  V30 2359 C 223.137 -2.25509 4.75428 0
M  V30 2360 O 222.163 -1.86007 5.3795 0
M  V30 2361 N 223.365 -3.577 4.57199 0
M  V30 2362 H 226.13 0.174025 2.99194 0
M  V30 2363 H 223.691 0.238897 1.60128 0
M  V30 2364 H 225.683 -2.33793 3.30338 0
M  V30 2365 H 224.253 -2.16465 2.25526 0
M  V30 2366 H 223.473 -0.326421 3.92846 0
M  V30 2367 H 224.761 -0.885365 5.01038 0
M  V30 2368 H 224.159 -3.92543 4.07341 0
M  V30 2369 H 222.716 -4.23827 4.95191 0
M  V30 2370 N 226.149 -1.5696 0.141893 0
M  V30 2371 C 227.059 -2.20066 -0.812905 0
M  V30 2372 C 228.075 -1.18344 -1.27557 0
M  V30 2373 O 229.251 -1.50902 -1.33381 0
M  V30 2374 C 226.316 -2.80583 -2.03652 0
M  V30 2375 C 225.377 -3.97414 -1.62359 0
M  V30 2376 C 224.61 -4.55036 -2.78887 0
M  V30 2377 O 224.833 -4.11538 -3.94959 0
M  V30 2378 O 223.767 -5.45376 -2.54653 0
M  V30 2379 H 227.593 -3.02157 -0.305746 0
M  V30 2380 H 225.178 -1.49159 -0.0848799 0
M  V30 2381 H 227.06 -3.19067 -2.75272 0
M  V30 2382 H 225.735 -2.01508 -2.5333 0
M  V30 2383 H 224.642 -3.63656 -0.877775 0
M  V30 2384 H 225.975 -4.77994 -1.17401 0
M  V30 2385 N 227.627 0.131896 -1.57047 0
M  V30 2386 C 228.874 0.841932 -1.84168 0
M  V30 2387 C 229.202 1.8048 -0.725066 0
M  V30 2388 O 228.457 1.93618 0.284692 0
M  V30 2389 C 228.756 1.63703 -3.17704 0
M  V30 2390 C 228.422 0.81961 -4.43388 0
M  V30 2391 C 227.084 0.594148 -4.77518 0
M  V30 2392 C 229.436 0.248977 -5.20605 0
M  V30 2393 C 226.764 -0.212409 -5.86315 0
M  V30 2394 C 229.116 -0.544701 -6.30251 0
M  V30 2395 C 227.78 -0.780599 -6.6292 0
M  V30 2396 H 227.05 0.308085 -0.673917 0
M  V30 2397 H 229.697 0.104867 -1.91213 0
M  V30 2398 H 228.002 2.44464 -3.06177 0
M  V30 2399 H 229.699 2.19015 -3.35907 0
M  V30 2400 H 226.289 1.00542 -4.16641 0
M  V30 2401 H 230.473 0.410408 -4.946 0
M  V30 2402 H 225.729 -0.404524 -6.1006 0
M  V30 2403 H 229.903 -0.993922 -6.89271 0
M  V30 2404 H 227.53 -1.40742 -7.47058 0
M  V30 2405 N 229.106 1.52395 0.401703 0
M  V30 2406 C 230.331 1.70972 1.17403 0
M  V30 2407 C 230.756 0.421615 1.83314 0
M  V30 2408 O 230.114 -0.621564 1.70312 0
M  V30 2409 C 230.162 2.85151 2.20728 0
M  V30 2410 O 229.266 2.51238 3.27037 0
M  V30 2411 H 228.607 0.568927 0.342372 0
M  V30 2412 H 231.137 1.99131 0.469891 0
M  V30 2413 H 231.147 3.10279 2.64936 0
M  V30 2414 H 229.822 3.78603 1.7214 0
M  V30 2415 H 228.399 2.36808 2.88057 0
M  V30 2416 N 230.584 -0.659388 1.43143 0
M  V30 2417 C 231.514 -1.78422 1.50625 0
M  V30 2418 C 232.495 -1.66216 0.361443 0
M  V30 2419 O 233.68 -1.85404 0.577834 0
M  V30 2420 C 230.81 -3.16815 1.42287 0
M  V30 2421 C 229.764 -3.43777 2.54954 0
M  V30 2422 C 229.09 -4.81905 2.31671 0
M  V30 2423 C 230.39 -3.39134 3.97222 0
M  V30 2424 H 232.084 -1.72417 2.44771 0
M  V30 2425 H 229.63 -0.828084 1.17808 0
M  V30 2426 H 231.583 -3.95253 1.46127 0
M  V30 2427 H 230.307 -3.23534 0.446435 0
M  V30 2428 H 228.966 -2.67707 2.50457 0
M  V30 2429 H 228.614 -4.85294 1.32284 0
M  V30 2430 H 228.314 -5.00906 3.07192 0
M  V30 2431 H 229.838 -5.62609 2.37284 0
M  V30 2432 H 231.252 -4.07518 4.03239 0
M  V30 2433 H 229.649 -3.69671 4.72719 0
M  V30 2434 H 230.719 -2.37426 4.22797 0
M  V30 2435 N 232.062 -1.29571 -0.897171 0
M  V30 2436 C 233.287 -1.20705 -1.68656 0
M  V30 2437 C 233.712 0.228582 -1.86706 0
M  V30 2438 O 233.07 1.16494 -1.3892 0
M  V30 2439 C 233.118 -1.9282 -3.04717 0
M  V30 2440 O 232.222 -1.24697 -3.93096 0
M  V30 2441 H 231.563 -0.418126 -0.515816 0
M  V30 2442 H 234.093 -1.71183 -1.12061 0
M  V30 2443 H 234.103 -2.01372 -3.54843 0
M  V30 2444 H 232.778 -2.97239 -2.90899 0
M  V30 2445 H 231.355 -1.2442 -3.51531 0
M  V30 2446 N 233.54 1.10788 -1.12088 0
M  V30 2447 C 234.765 1.87002 -0.896949 0
M  V30 2448 C 235.19 1.79933 0.548261 0
M  V30 2449 O 234.548 1.16662 1.38779 0
M  V30 2450 C 234.596 3.3349 -1.37174 0
M  V30 2451 O 233.7 4.08745 -0.547831 0
M  V30 2452 H 233.041 0.580397 -0.322545 0
M  V30 2453 H 235.571 1.39996 -1.49206 0
M  V30 2454 H 235.581 3.84339 -1.36922 0
M  V30 2455 H 234.256 3.37951 -2.42408 0
M  V30 2456 H 232.833 3.6776 -0.617034 0
M  V30 2457 N 235.018 0.912232 1.28515 0
M  V30 2458 C 235.95 0.35676 2.26406 0
M  V30 2459 C 236.963 -0.503933 1.54804 0
M  V30 2460 O 238.152 -0.319059 1.75625 0
M  V30 2461 C 235.252 -0.508825 3.35058 0
M  V30 2462 C 234.425 0.329007 4.36161 0
M  V30 2463 C 233.484 -0.471422 5.24084 0
M  V30 2464 O 232.51 0.115482 5.69083 0
M  V30 2465 N 233.712 -1.77479 5.52704 0
M  V30 2466 H 236.477 1.19818 2.74707 0
M  V30 2467 H 234.038 0.778022 1.4198 0
M  V30 2468 H 236.03 -1.051 3.90815 0
M  V30 2469 H 234.6 -1.25095 2.86478 0
M  V30 2470 H 233.82 1.05256 3.79888 0
M  V30 2471 H 235.108 0.90234 5.00735 0
M  V30 2472 H 234.506 -2.27417 5.17975 0
M  V30 2473 H 233.063 -2.26382 6.11224 0
M  V30 2474 N 236.496 -1.42363 0.676048 0
M  V30 2475 C 237.406 -2.346 -0.00153389 0
M  V30 2476 C 238.422 -1.5516 -0.787485 0
M  V30 2477 O 239.598 -1.87723 -0.729521 0
M  V30 2478 C 236.663 -3.33705 -0.940298 0
M  V30 2479 C 235.724 -4.29042 -0.148739 0
M  V30 2480 C 234.957 -5.23413 -1.04279 0
M  V30 2481 O 235.18 -5.22749 -2.28232 0
M  V30 2482 O 234.114 -5.99795 -0.502925 0
M  V30 2483 H 237.94 -2.94082 0.758268 0
M  V30 2484 H 235.525 -1.42888 0.436289 0
M  V30 2485 H 237.407 -3.94586 -1.47917 0
M  V30 2486 H 236.082 -2.76695 -1.67993 0
M  V30 2487 H 234.989 -3.71571 0.43427 0
M  V30 2488 H 236.322 -4.89097 0.551805 0
M  V30 2489 N 237.974 -0.419461 -1.51915 0
M  V30 2490 C 239.222 0.152637 -2.01523 0
M  V30 2491 C 239.543 1.44762 -1.30649 0
M  V30 2492 O 238.813 1.90997 -0.435535 0
M  V30 2493 H 237.393 0.0593966 -0.744635 0
M  V30 2494 H 240.055 -0.558073 -1.86739 0
M  V30 2495 H 239.151 0.341369 -3.10227 0
M  V30 2496 N 239.452 1.56882 -0.150215 0
M  V30 2497 C 240.698 1.96518 0.500834 0
M  V30 2498 C 241.031 1.03527 1.64304 0
M  V30 2499 O 240.306 0.0782751 1.94342 0
M  V30 2500 C 240.589 3.45822 1.00395 0
M  V30 2501 C 240.442 4.49591 -0.136983 0
M  V30 2502 C 241.761 3.97704 1.88467 0
M  V30 2503 H 238.88 0.714535 0.18058 0
M  V30 2504 H 241.522 1.88577 -0.232091 0
M  V30 2505 H 239.672 3.5272 1.62851 0
M  V30 2506 H 241.344 4.5477 -0.77343 0
M  V30 2507 H 239.587 4.26441 -0.795652 0
M  V30 2508 H 240.258 5.51402 0.256815 0
M  V30 2509 H 242.734 3.93304 1.35834 0
M  V30 2510 H 241.61 5.0263 2.20578 0
M  V30 2511 H 241.871 3.40252 2.82279 0
M  V30 2512 N 240.93 -0.123565 1.57115 0
M  V30 2513 C 241.893 -1.13583 1.99076 0
M  V30 2514 C 242.893 -1.34564 0.880296 0
M  V30 2515 O 244.083 -1.31158 1.14644 0
M  V30 2516 C 241.215 -2.49128 2.32698 0
M  V30 2517 H 242.408 -0.775287 2.89706 0
M  V30 2518 H 239.961 -0.36771 1.51913 0
M  V30 2519 H 240.696 -2.90111 1.44934 0
M  V30 2520 H 240.481 -2.35255 3.13684 0
M  V30 2521 H 241.971 -3.2199 2.65918 0
M  V30 2522 N 242.408 -1.52605 -0.393616 0
M  V30 2523 C 243.338 -1.80022 -1.48709 0
M  V30 2524 C 244.319 -0.651995 -1.57108 0
M  V30 2525 O 245.504 -0.89913 -1.72132 0
M  V30 2526 C 242.634 -1.96492 -2.86371 0
M  V30 2527 C 241.588 -3.12161 -2.92813 0
M  V30 2528 C 240.914 -3.13877 -4.3288 0
M  V30 2529 C 242.214 -4.51322 -2.6288 0
M  V30 2530 H 243.908 -2.71589 -1.26015 0
M  V30 2531 H 241.454 -1.30684 -0.604778 0
M  V30 2532 H 243.407 -2.14255 -3.62867 0
M  V30 2533 H 242.131 -1.01611 -3.10391 0
M  V30 2534 H 240.79 -2.94173 -2.18764 0
M  V30 2535 H 240.438 -2.16687 -4.53933 0
M  V30 2536 H 240.138 -3.91576 -4.38112 0
M  V30 2537 H 241.662 -3.33789 -5.1129 0
M  V30 2538 H 243.076 -4.69435 -3.29096 0
M  V30 2539 H 241.473 -5.31053 -2.79468 0
M  V30 2540 H 242.543 -4.58353 -1.58242 0
M  V30 2541 N 243.887 0.651787 -1.4349 0
M  V30 2542 C 244.82 1.77668 -1.43211 0
M  V30 2543 C 245.798 1.59931 -0.29338 0
M  V30 2544 O 246.982 1.82095 -0.487191 0
M  V30 2545 C 244.109 3.14986 -1.24505 0
M  V30 2546 C 243.155 3.51421 -2.41673 0
M  V30 2547 S 243.988 3.51234 -4.04222 0
M  V30 2548 C 245.144 4.91206 -3.87902 0
M  V30 2549 H 245.377 1.77635 -2.38397 0
M  V30 2550 H 242.91 0.824558 -1.30539 0
M  V30 2551 H 244.868 3.94237 -1.144 0
M  V30 2552 H 243.529 3.1258 -0.308651 0
M  V30 2553 H 242.722 4.51291 -2.24393 0
M  V30 2554 H 242.324 2.79585 -2.48411 0
M  V30 2555 H 244.616 5.79902 -3.50315 0
M  V30 2556 H 245.559 5.13537 -4.8753 0
M  V30 2557 H 245.967 4.64808 -3.20334 0
M  V30 2558 N 245.365 1.30045 0.890287 0
M  V30 2559 C 246.605 1.19839 1.65584 0
M  V30 2560 C 246.969 -0.244175 1.90441 0
M  V30 2561 O 248.17 -0.469378 2.6467 0
M  V30 2562 C 246.441 1.99876 2.96284 0
M  V30 2563 S 248 2.06309 3.87275 0
M  V30 2564 H 244.818 0.427157 0.568382 0
M  V30 2565 H 247.42 1.64453 1.05715 0
M  V30 2566 H 246.124 3.03809 2.75913 0
M  V30 2567 H 245.655 1.55903 3.61189 0
M  V30 2568 H 247.67 1.18661 4.81803 0
M  V30 2569 N 246.843 -1.10192 1.12674 0
M  V30 2570 C 247.773 -2.18652 0.819362 0
M  V30 2571 C 248.754 -1.68698 -0.217915 0
M  V30 2572 O 249.939 -1.94041 -0.0785581 0
M  V30 2573 C 247.069 -3.46202 0.27594 0
M  V30 2574 C 246.023 -4.09444 1.24656 0
M  V30 2575 C 245.349 -5.31725 0.563258 0
M  V30 2576 C 246.649 -4.52863 2.60217 0
M  V30 2577 H 248.343 -2.44622 1.72628 0
M  V30 2578 H 245.889 -1.17571 0.831451 0
M  V30 2579 H 247.842 -4.21372 0.0486149 0
M  V30 2580 H 246.566 -3.1973 -0.666331 0
M  V30 2581 H 245.225 -3.36284 1.45974 0
M  V30 2582 H 244.873 -5.0153 -0.384235 0
M  V30 2583 H 244.573 -5.74991 1.21075 0
M  V30 2584 H 246.097 -6.09624 0.34503 0
M  V30 2585 H 247.511 -5.19294 2.42913 0
M  V30 2586 H 245.908 -5.06986 3.21068 0
M  V30 2587 H 246.978 -3.65656 3.18471 0
M  V30 2588 N 248.321 -0.919034 -1.28029 0
M  V30 2589 C 249.284 -0.416182 -2.2539 0
M  V30 2590 C 250.284 0.460438 -1.54067 0
M  V30 2591 O 251.474 0.262744 -1.72207 0
M  V30 2592 C 248.606 0.402707 -3.38513 0
M  V30 2593 H 249.799 -1.27629 -2.71387 0
M  V30 2594 H 247.352 -0.698919 -1.39803 0
M  V30 2595 H 248.087 1.282 -2.97885 0
M  V30 2596 H 247.872 -0.225698 -3.9145 0
M  V30 2597 H 249.362 0.745191 -4.10897 0
M  V30 2598 N 249.799 1.42003 -0.683588 0
M  V30 2599 C 250.709 2.34597 -0.0109075 0
M  V30 2600 C 251.725 1.55576 0.779245 0
M  V30 2601 O 252.901 1.88107 0.719555 0
M  V30 2602 C 249.966 3.34199 0.922588 0
M  V30 2603 C 249.027 4.29115 0.125984 0
M  V30 2604 C 248.26 5.23959 1.01502 0
M  V30 2605 O 248.483 5.23952 2.25456 0
M  V30 2606 O 247.417 6.00053 0.47111 0
M  V30 2607 H 251.243 2.93675 -0.773853 0
M  V30 2608 H 248.828 1.42654 -0.443861 0
M  V30 2609 H 250.71 3.95365 1.45823 0
M  V30 2610 H 249.385 2.77582 1.66523 0
M  V30 2611 H 248.292 3.71335 -0.453969 0
M  V30 2612 H 249.625 4.88798 -0.577736 0
M  V30 2613 N 251.277 0.427512 1.51691 0
M  V30 2614 C 252.24 -0.377132 2.26076 0
M  V30 2615 C 253.24 -0.958089 1.29141 0
M  V30 2616 O 254.43 -0.83408 1.52934 0
M  V30 2617 C 251.562 -1.53262 3.04506 0
M  V30 2618 H 252.755 0.27464 2.9864 0
M  V30 2619 H 250.308 0.180445 1.55255 0
M  V30 2620 H 251.043 -2.22072 2.36335 0
M  V30 2621 H 250.828 -1.12232 3.75694 0
M  V30 2622 H 252.318 -2.10135 3.60878 0
M  V30 2623 N 252.755 -1.56801 0.158532 0
M  V30 2624 C 253.685 -2.20347 -0.772609 0
M  V30 2625 C 254.666 -1.15518 -1.24859 0
M  V30 2626 O 255.851 -1.43902 -1.30406 0
M  V30 2627 C 252.981 -2.83417 -2.00729 0
M  V30 2628 C 251.935 -3.94174 -1.66765 0
M  V30 2629 C 251.261 -4.44233 -2.97592 0
M  V30 2630 C 252.561 -5.14392 -0.905447 0
M  V30 2631 H 254.255 -2.98413 -0.242959 0
M  V30 2632 H 251.801 -1.43537 -0.115419 0
M  V30 2633 H 253.754 -3.26543 -2.6636 0
M  V30 2634 H 252.478 -2.02701 -2.56086 0
M  V30 2635 H 251.137 -3.51684 -1.03508 0
M  V30 2636 H 250.785 -3.60325 -3.50963 0
M  V30 2637 H 250.485 -5.18945 -2.75626 0
M  V30 2638 H 252.009 -4.90037 -3.64274 0
M  V30 2639 H 253.423 -5.5429 -1.46408 0
M  V30 2640 H 251.82 -5.9494 -0.7853 0
M  V30 2641 H 252.89 -4.84795 0.100668 0
M  V30 2642 N 254.233 0.115231 -1.57178 0
M  V30 2643 C 255.163 1.1423 -2.03651 0
M  V30 2644 C 256.144 1.42967 -0.921655 0
M  V30 2645 O 257.329 1.53343 -1.19162 0
M  V30 2646 C 254.459 2.4675 -2.44401 0
M  V30 2647 C 253.413 2.32467 -3.59365 0
M  V30 2648 C 252.739 3.69984 -3.86026 0
M  V30 2649 C 254.039 1.78203 -4.90959 0
M  V30 2650 H 255.733 0.755749 -2.89705 0
M  V30 2651 H 253.279 0.362093 -1.39373 0
M  V30 2652 H 255.232 3.18854 -2.75517 0
M  V30 2653 H 253.956 2.87302 -1.55322 0
M  V30 2654 H 252.615 1.62811 -3.28463 0
M  V30 2655 H 252.263 4.08028 -2.94147 0
M  V30 2656 H 251.963 3.61279 -4.63412 0
M  V30 2657 H 253.487 4.43587 -4.19599 0
M  V30 2658 H 254.901 2.40128 -5.20587 0
M  V30 2659 H 253.298 1.8031 -5.72371 0
M  V30 2660 H 254.368 0.739876 -4.79222 0
M  V30 2661 N 255.711 1.52812 0.385517 0
M  V30 2662 C 257.127 1.4214 0.725829 0
M  V30 2663 C 257.327 0.544589 1.94001 0
M  V30 2664 O 256.383 0.0193693 2.52493 0
M  V30 2665 C 257.696 2.85042 0.957668 0
M  V30 2666 C 259.244 2.94543 1.05892 0
M  V30 2667 C 259.719 4.38464 1.32337 0
M  V30 2668 N 261.21 4.41804 1.39151 0
M  V30 2669 C 261.945 5.5025 1.61285 0
M  V30 2670 N 261.441 6.68775 1.80866 0
M  V30 2671 N 263.234 5.37798 1.63492 0
M  V30 2672 H 255.385 2.08338 -0.413383 0
M  V30 2673 H 257.648 0.940016 -0.122775 0
M  V30 2674 H 257.354 3.51431 0.137568 0
M  V30 2675 H 257.228 3.27505 1.87137 0
M  V30 2676 H 259.615 2.28321 1.86959 0
M  V30 2677 H 259.696 2.55504 0.123057 0
M  V30 2678 H 259.34 5.05254 0.517793 0
M  V30 2679 H 259.27 4.75059 2.27214 0
M  V30 2680 H 261.761 3.56377 1.25713 0
M  V30 2681 H 262.074 7.47197 1.97271 0
M  V30 2682 H 260.419 6.71797 1.78083 0
M  V30 2683 H 263.61 4.44171 1.47749 0
M  V30 2684 H 263.783 6.22382 1.80402 0
M  V30 2685 N 257.189 -0.644168 1.43834 0
M  V30 2686 C 258.438 -1.39985 1.45214 0
M  V30 2687 C 258.751 -1.95421 0.0835494 0
M  V30 2688 O 259.957 -2.71488 -0.0251748 0
M  V30 2689 C 258.413 -2.53384 2.55587 0
M  V30 2690 C 258.021 -2.04517 3.98594 0
M  V30 2691 C 259.765 -3.30685 2.66172 0
M  V30 2692 C 257.672 -3.1518 5.00416 0
M  V30 2693 H 256.602 -0.526005 0.540218 0
M  V30 2694 H 259.253 -0.694367 1.69855 0
M  V30 2695 H 257.635 -3.26446 2.24163 0
M  V30 2696 H 258.809 -1.38405 4.39523 0
M  V30 2697 H 257.124 -1.40068 3.92135 0
M  V30 2698 H 259.721 -4.13158 3.39418 0
M  V30 2699 H 260.064 -3.79312 1.71546 0
M  V30 2700 H 260.597 -2.64708 2.96942 0
M  V30 2701 H 257.336 -2.71511 5.96625 0
M  V30 2702 H 256.856 -3.79974 4.64091 0
M  V30 2703 H 258.535 -3.80166 5.23529 0
M  V30 2704 N 258.668 -1.30515 -0.883378 0
M  V30 2705 C 260.079 -1.17509 -1.45081 0
M  V30 2706 C 260.43 0.223605 -1.94922 0
M  V30 2707 O 259.555 1.12041 -1.85137 0
M  V30 2708 C 260.15 -2.12715 -2.63701 0
M  V30 2709 C 258.709 -2.03682 -3.16529 0
M  V30 2710 C 257.856 -2.02706 -1.89224 0
M  V30 2711 H 260.807 -1.42762 -0.693165 0
M  V30 2712 H 260.828 -1.70891 -3.39965 0
M  V30 2713 H 260.34 -3.14505 -2.27395 0
M  V30 2714 H 258.441 -1.05039 -3.57488 0
M  V30 2715 H 258.554 -2.92146 -3.7972 0
M  V30 2716 H 256.918 -1.4753 -2.07622 0
M  V30 2717 H 257.701 -3.06229 -1.55174 0
M  V30 2718 N 260.146 1.09593 -1.13257 0
M  V30 2719 C 261.423 1.78293 -0.804432 0
M  V30 2720 C 261.803 1.99004 0.70431 0
M  V30 2721 O 261.151 1.59007 1.641 0
M  V30 2722 C 261.361 3.10707 -1.5894 0
M  V30 2723 C 262.709 3.85443 -1.78099 0
M  V30 2724 O 263.733 3.20454 -1.55525 0
M  V30 2725 O 262.592 5.02108 -2.15753 0
M  V30 2726 H 259.686 0.773156 -0.293528 0
M  V30 2727 H 262.232 1.16164 -1.23709 0
M  V30 2728 H 261.004 2.91106 -2.61482 0
M  V30 2729 H 260.627 3.80558 -1.15157 0
M  V30 2730 N 261.624 0.925811 1.2754 0
M  V30 2731 C 262.571 0.422045 2.26908 0
M  V30 2732 C 263.541 -0.510029 1.58076 0
M  V30 2733 O 264.726 -0.429599 1.85901 0
M  V30 2734 C 261.866 -0.320837 3.43605 0
M  V30 2735 C 260.979 0.64513 4.27156 0
M  V30 2736 C 260.114 -0.117405 5.3107 0
M  V30 2737 C 259.153 0.841391 6.0629 0
M  V30 2738 N 258.29 0.111604 7.02011 0
M  V30 2739 H 263.13 1.27441 2.69375 0
M  V30 2740 H 260.667 0.639697 1.32462 0
M  V30 2741 H 262.625 -0.76785 4.10073 0
M  V30 2742 H 261.255 -1.13745 3.02096 0
M  V30 2743 H 260.307 1.21067 3.6062 0
M  V30 2744 H 261.619 1.37797 4.79389 0
M  V30 2745 H 260.773 -0.624422 6.03478 0
M  V30 2746 H 259.512 -0.883219 4.79636 0
M  V30 2747 H 258.517 1.35967 5.32722 0
M  V30 2748 H 259.742 1.60696 6.59813 0
M  V30 2749 H 257.688 -0.635999 6.5291 0
M  V30 2750 H 257.605 0.784044 7.51923 0
M  V30 2751 H 258.873 -0.374823 7.78598 0
M  V30 2752 N 263.102 -1.41638 0.69111 0
M  V30 2753 C 264.065 -2.29178 0.0319786 0
M  V30 2754 C 265.065 -1.44153 -0.712496 0
M  V30 2755 O 266.255 -1.65354 -0.548053 0
M  V30 2756 C 263.387 -3.26952 -0.965161 0
M  V30 2757 H 264.58 -2.88959 0.802681 0
M  V30 2758 H 262.133 -1.4955 0.454356 0
M  V30 2759 H 262.868 -2.72142 -1.76378 0
M  V30 2760 H 262.653 -3.89685 -0.434522 0
M  V30 2761 H 264.143 -3.92561 -1.42428 0
M  V30 2762 N 264.58 -0.43555 -1.51462 0
M  V30 2763 C 265.808 0.130242 -2.0649 0
M  V30 2764 C 266.223 1.36614 -1.30315 0
M  V30 2765 O 265.58 1.78869 -0.362223 0
M  V30 2766 C 265.631 0.454253 -3.58635 0
M  V30 2767 O 265.352 -0.73259 -4.31931 0
M  V30 2768 C 266.853 1.07091 -4.3017 0
M  V30 2769 H 264.073 0.00871669 -0.670943 0
M  V30 2770 H 266.617 -0.614117 -1.95061 0
M  V30 2771 H 264.772 1.14851 -3.69984 0
M  V30 2772 H 265.186 -0.455787 -5.22516 0
M  V30 2773 H 266.66 1.24764 -5.37716 0
M  V30 2774 H 267.137 2.05144 -3.88346 0
M  V30 2775 H 267.743 0.416089 -4.2326 0
M  V30 2776 N 266.058 1.56714 -0.166846 0
M  V30 2777 C 267.474 1.58473 0.189372 0
M  V30 2778 C 267.674 1.18201 1.63189 0
M  V30 2779 O 266.73 0.891528 2.36237 0
M  V30 2780 C 268.043 3.00573 -0.0873872 0
M  V30 2781 C 269.591 3.1299 -0.0252443 0
M  V30 2782 C 270.066 4.57174 -0.274934 0
M  V30 2783 N 271.557 4.62665 -0.222553 0
M  V30 2784 C 272.292 5.72072 -0.389985 0
M  V30 2785 N 271.788 6.90054 -0.616229 0
M  V30 2786 N 273.581 5.61153 -0.326202 0
M  V30 2787 H 265.732 1.8118 -1.10849 0
M  V30 2788 H 267.995 0.839525 -0.440342 0
M  V30 2789 H 267.701 3.34497 -1.0865 0
M  V30 2790 H 267.575 3.72019 0.623037 0
M  V30 2791 H 269.962 2.78895 0.96444 0
M  V30 2792 H 270.043 2.43989 -0.768309 0
M  V30 2793 H 269.687 4.91976 -1.26181 0
M  V30 2794 H 269.617 5.24328 0.48869 0
M  V30 2795 H 272.108 3.77863 -0.0531512 0
M  V30 2796 H 272.421 7.69311 -0.733559 0
M  V30 2797 H 270.766 6.91927 -0.652791 0
M  V30 2798 H 273.957 4.67859 -0.150072 0
M  V30 2799 H 274.13 6.46364 -0.460116 0
M  V30 2800 N 267.536 -0.106894 1.57237 0
M  V30 2801 C 268.813 -0.843526 1.76477 0
M  V30 2802 C 269.193 -1.97499 0.745464 0
M  V30 2803 O 268.541 -2.27357 -0.228306 0
M  V30 2804 C 268.751 -1.34903 3.21873 0
M  V30 2805 C 270.099 -1.79654 3.8472 0
M  V30 2806 O 271.123 -1.44554 3.2555 0
M  V30 2807 O 269.982 -2.44515 4.88748 0
M  V30 2808 H 267.076 -0.401468 0.723016 0
M  V30 2809 H 269.622 -0.0896927 1.69463 0
M  V30 2810 H 268.394 -0.53781 3.87586 0
M  V30 2811 H 268.017 -2.16522 3.33473 0
M  V30 2812 N 269.014 -1.53014 -0.377408 0
M  V30 2813 C 269.977 -1.77957 -1.44444 0
M  V30 2814 C 270.977 -0.649763 -1.47087 0
M  V30 2815 O 272.167 -0.917897 -1.48055 0
M  V30 2816 C 269.299 -1.89089 -2.83651 0
M  V30 2817 H 270.492 -2.73243 -1.23606 0
M  V30 2818 H 268.045 -1.43912 -0.609844 0
M  V30 2819 H 268.78 -0.958293 -3.09818 0
M  V30 2820 H 268.565 -2.71254 -2.83132 0
M  V30 2821 H 270.055 -2.1002 -3.60945 0
M  V30 2822 N 270.492 0.636531 -1.44174 0
M  V30 2823 C 271.422 1.76003 -1.53444 0
M  V30 2824 C 272.403 1.65619 -0.387841 0
M  V30 2825 O 273.588 1.84461 -0.607257 0
M  V30 2826 C 270.718 3.14511 -1.4731 0
M  V30 2827 C 269.672 3.39677 -2.60391 0
M  V30 2828 C 268.998 4.78159 -2.39308 0
M  V30 2829 C 270.298 3.32772 -4.02567 0
M  V30 2830 H 271.992 1.68501 -2.47483 0
M  V30 2831 H 269.538 0.809237 -1.19111 0
M  V30 2832 H 271.491 3.92878 -1.52397 0
M  V30 2833 H 270.215 3.22783 -0.49785 0
M  V30 2834 H 268.874 2.63688 -2.54684 0
M  V30 2835 H 268.522 4.83128 -1.39988 0
M  V30 2836 H 268.222 4.95956 -3.15122 0
M  V30 2837 H 269.746 5.58762 -2.46205 0
M  V30 2838 H 271.16 4.01051 -4.09672 0
M  V30 2839 H 269.557 3.62104 -4.7854 0
M  V30 2840 H 270.627 2.30669 -4.2652 0
M  V30 2841 N 271.97 1.30982 0.876444 0
M  V30 2842 C 273.219 1.19658 1.62373 0
M  V30 2843 C 273.532 -0.245636 1.94052 0
M  V30 2844 O 274.738 -0.48049 2.67214 0
M  V30 2845 C 273.194 2.09433 2.92687 0
M  V30 2846 C 272.802 3.58613 2.68516 0
M  V30 2847 C 274.546 2.06893 3.70669 0
M  V30 2848 C 272.453 4.40416 3.94699 0
M  V30 2849 H 271.383 0.444268 0.609214 0
M  V30 2850 H 274.034 1.55791 0.969605 0
M  V30 2851 H 272.416 1.66191 3.59439 0
M  V30 2852 H 273.59 4.10058 2.10212 0
M  V30 2853 H 271.905 3.63063 2.03898 0
M  V30 2854 H 274.502 2.65258 4.64265 0
M  V30 2855 H 274.845 1.05448 4.02724 0
M  V30 2856 H 275.378 2.48301 3.10792 0
M  V30 2857 H 272.117 5.42591 3.67798 0
M  V30 2858 H 271.637 3.93731 4.52477 0
M  V30 2859 H 273.316 4.52294 4.62644 0
M  V30 2860 N 273.449 -1.08991 1.13837 0
M  V30 2861 C 274.865 -1.33312 0.877506 0
M  V30 2862 C 275.065 -1.95587 -0.48456 0
M  V30 2863 O 274.121 -2.20509 -1.23013 0
M  V30 2864 C 275.434 -2.24045 2.0056 0
M  V30 2865 C 276.982 -2.37542 2.03821 0
M  V30 2866 C 277.457 -3.31614 3.15905 0
M  V30 2867 N 278.948 -3.39189 3.15445 0
M  V30 2868 C 279.683 -4.11992 3.98811 0
M  V30 2869 N 279.179 -4.87553 4.92203 0
M  V30 2870 N 280.972 -4.07762 3.86894 0
M  V30 2871 H 273.123 -0.669456 2.01574 0
M  V30 2872 H 275.386 -0.357482 0.878015 0
M  V30 2873 H 275.092 -1.85521 2.98789 0
M  V30 2874 H 274.966 -3.24466 1.92359 0
M  V30 2875 H 277.353 -2.75327 1.06202 0
M  V30 2876 H 277.434 -1.36884 2.16093 0
M  V30 2877 H 277.078 -2.94551 4.13766 0
M  V30 2878 H 277.008 -4.32186 3.0087 0
M  V30 2879 H 279.499 -2.85314 2.47799 0
M  V30 2880 H 279.812 -5.40549 5.52292 0
M  V30 2881 H 278.157 -4.86627 4.96205 0
M  V30 2882 H 281.348 -3.47833 3.13257 0
M  V30 2883 H 281.521 -4.64238 4.52092 0
M  V30 2884 N 274.927 -0.932562 -1.27047 0
M  V30 2885 C 276.204 -0.49377 -1.89265 0
M  V30 2886 C 276.584 1.02833 -1.8436 0
M  V30 2887 O 275.932 1.88461 -1.29209 0
M  V30 2888 C 276.142 -1.04536 -3.32976 0
M  V30 2889 C 277.49 -1.10879 -4.09867 0
M  V30 2890 O 278.514 -0.995327 -3.42011 0
M  V30 2891 O 277.373 -1.28417 -5.31198 0
M  V30 2892 H 274.467 -0.159596 -0.811454 0
M  V30 2893 H 277.013 -1.02457 -1.3528 0
M  V30 2894 H 275.785 -2.08913 -3.30864 0
M  V30 2895 H 275.408 -0.496494 -3.94488 0
M  V30 2896 N 276.405 1.4127 -0.698611 0
M  V30 2897 C 277.352 2.30773 -0.0352094 0
M  V30 2898 C 278.322 1.47273 0.768111 0
M  V30 2899 O 279.507 1.76053 0.735524 0
M  V30 2900 C 276.647 3.33346 0.893 0
M  V30 2901 C 275.76 4.31924 0.0809695 0
M  V30 2902 C 274.895 5.21566 1.0071 0
M  V30 2903 C 273.934 6.11811 0.188155 0
M  V30 2904 N 273.071 6.93926 1.06825 0
M  V30 2905 H 277.911 2.86943 -0.804207 0
M  V30 2906 H 275.448 1.4132 -0.408294 0
M  V30 2907 H 277.406 3.91368 1.44523 0
M  V30 2908 H 276.036 2.78719 1.62836 0
M  V30 2909 H 275.088 3.75825 -0.588224 0
M  V30 2910 H 276.4 4.95716 -0.553801 0
M  V30 2911 H 275.554 5.84437 1.62845 0
M  V30 2912 H 274.293 4.58008 1.67572 0
M  V30 2913 H 273.298 5.47986 -0.446254 0
M  V30 2914 H 274.523 6.77425 -0.476716 0
M  V30 2915 H 272.469 6.32973 1.72283 0
M  V30 2916 H 272.386 7.54416 0.489123 0
M  V30 2917 H 273.654 7.61262 1.67632 0
M  V30 2918 N 277.883 0.443576 1.51229 0
M  V30 2919 C 279.132 -0.122332 2.01329 0
M  V30 2920 C 279.445 -1.43237 1.33201 0
M  V30 2921 O 280.651 -2.0816 1.74304 0
M  V30 2922 C 279.107 -0.268551 3.58897 0
M  V30 2923 C 278.715 1.03142 4.35965 0
M  V30 2924 C 280.459 -0.787894 4.17124 0
M  V30 2925 C 278.366 0.850504 5.85252 0
M  V30 2926 H 277.296 -0.0494929 0.752374 0
M  V30 2927 H 279.947 0.574289 1.74282 0
M  V30 2928 H 278.329 -1.02832 3.82415 0
M  V30 2929 H 279.503 1.80001 4.24189 0
M  V30 2930 H 277.818 1.47977 3.89219 0
M  V30 2931 H 280.415 -0.939841 5.26375 0
M  V30 2932 H 280.758 -1.77201 3.76703 0
M  V30 2933 H 281.291 -0.0862669 3.97706 0
M  V30 2934 H 278.03 1.80718 6.30096 0
M  V30 2935 H 277.55 0.121825 5.99676 0
M  V30 2936 H 279.229 0.506163 6.45017 0
M  V30 2937 N 279.361 -1.56624 0.175154 0
M  V30 2938 C 280.586 -2.01813 -0.478137 0
M  V30 2939 C 281.011 -1.05457 -1.55757 0
M  V30 2940 O 280.369 -0.0347439 -1.81267 0
M  V30 2941 C 280.417 -3.45581 -1.02987 0
M  V30 2942 O 279.521 -3.52305 -2.14371 0
M  V30 2943 H 278.862 -0.65413 -0.114059 0
M  V30 2944 H 281.392 -2.02673 0.280173 0
M  V30 2945 H 281.402 -3.84965 -1.35151 0
M  V30 2946 H 280.077 -4.1521 -0.239556 0
M  V30 2947 H 278.654 -3.24783 -1.83222 0
M  V30 2948 N 280.839 0.0985539 -1.57292 0
M  V30 2949 C 281.787 1.1387 -2.02821 0
M  V30 2950 C 282.781 1.41676 -0.928666 0
M  V30 2951 O 283.987 1.41398 -1.11385 0
M  V30 2952 H 280.362 0.384419 -0.646317 0
M  V30 2953 H 282.333 0.728347 -2.89375 0
M  V30 2954 C 281.082 2.45166 -2.46554 0
M  V30 2955 H 280.405 2.24613 -3.3074 0
M  V30 2956 H 281.845 3.16456 -2.8219 0
M  V30 2957 C 280.304 3.09216 -1.33742 0
M  V30 2958 O 280.834 3.96163 -0.66464 0
M  V30 2959 N 279.04 2.69413 -1.08928 0
M  V30 2960 H 278.587 1.98801 -1.63817 0
M  V30 2961 H 278.545 3.12594 -0.336458 0
M  V30 2962 N 282.317 1.53212 0.369288 0
M  V30 2963 C 283.565 1.68881 1.11012 0
M  V30 2964 C 283.886 0.441285 1.89941 0
M  V30 2965 O 283.156 -0.544623 1.88177 0
M  V30 2966 H 281.736 0.622569 0.412816 0
M  V30 2967 H 284.398 1.90391 0.416802 0
M  V30 2968 H 283.494 2.54822 1.80201 0
M  V30 2969 N 283.795 -0.628877 1.44509 0
M  V30 2970 C 284.743 -1.76193 1.51852 0
M  V30 2971 C 285.737 -1.64849 0.390042 0
M  V30 2972 O 286.943 -1.709 0.565082 0
M  V30 2973 H 283.318 -0.581728 0.476547 0
M  V30 2974 H 285.289 -1.67123 2.47209 0
M  V30 2975 C 284.038 -3.14533 1.48204 0
M  V30 2976 H 283.361 -3.23911 2.34354 0
M  V30 2977 H 284.801 -3.93701 1.57402 0
M  V30 2978 C 283.26 -3.36287 0.203142 0
M  V30 2979 O 283.79 -3.9509 -0.725745 0
M  V30 2980 N 281.996 -2.90408 0.105563 0
M  V30 2981 H 281.543 -2.42739 0.862301 0
M  V30 2982 H 281.501 -3.05339 -0.749371 0
M  V30 2983 N 285.273 -1.31445 -0.869486 0
M  V30 2984 C 286.519 -1.22347 -1.62489 0
M  V30 2985 C 286.874 0.216204 -1.91181 0
M  V30 2986 O 286.167 1.14977 -1.53268 0
M  V30 2987 C 286.361 -2.00145 -2.96102 0
M  V30 2988 C 286.19 -3.51531 -2.80456 0
M  V30 2989 C 284.96 -4.20882 -2.79618 0
M  V30 2990 C 287.158 -4.46471 -2.5528 0
M  V30 2991 N 285.14 -5.58421 -2.55027 0
M  V30 2992 C 286.511 -5.71682 -2.39957 0
M  V30 2993 C 288.566 -4.35892 -2.40629 0
M  V30 2994 C 287.269 -6.87511 -2.11472 0
M  V30 2995 C 289.295 -5.51505 -2.13532 0
M  V30 2996 C 288.657 -6.75707 -1.98998 0
M  V30 2997 H 284.756 -0.502815 -0.598917 0
M  V30 2998 H 287.34 -1.65639 -1.02332 0
M  V30 2999 H 285.511 -1.59221 -3.54264 0
M  V30 3000 H 287.243 -1.83063 -3.60929 0
M  V30 3001 H 283.998 -3.72857 -2.92018 0
M  V30 3002 H 284.422 -6.30841 -2.45701 0
M  V30 3003 H 289.064 -3.40533 -2.50593 0
M  V30 3004 H 286.782 -7.82897 -2.00245 0
M  V30 3005 H 290.368 -5.45238 -2.02995 0
M  V30 3006 H 289.248 -7.63655 -1.78326 0
M  V30 3007 N 286.751 1.08385 -1.14413 0
M  V30 3008 C 287.683 2.1519 -0.789036 0
M  V30 3009 C 288.696 1.61638 0.19417 0
M  V30 3010 O 289.885 1.78479 -0.0275711 0
M  V30 3011 C 286.985 3.38565 -0.15058 0
M  V30 3012 C 286.158 4.21501 -1.16857 0
M  V30 3013 C 285.217 5.23277 -0.553832 0
M  V30 3014 O 284.243 5.56041 -1.21686 0
M  V30 3015 N 285.445 5.76629 0.669296 0
M  V30 3016 H 288.21 2.46257 -1.70814 0
M  V30 3017 H 285.771 1.24198 -1.03858 0
M  V30 3018 H 287.763 4.03777 0.273181 0
M  V30 3019 H 286.333 3.05299 0.671667 0
M  V30 3020 H 285.553 3.52265 -1.76926 0
M  V30 3021 H 286.841 4.73731 -1.85624 0
M  V30 3022 H 286.239 5.52243 1.22654 0
M  V30 3023 H 284.796 6.43521 1.03556 0
M  V30 3024 N 288.23 0.939286 1.26551 0
M  V30 3025 C 289.455 0.602008 1.98471 0
M  V30 3026 C 289.88 -0.815624 1.69497 0
M  V30 3027 O 289.238 -1.54912 0.941905 0
M  V30 3028 C 289.286 0.848407 3.50477 0
M  V30 3029 O 288.39 -0.0804009 4.12322 0
M  V30 3030 H 287.731 0.23049 0.622712 0
M  V30 3031 H 290.261 1.2617 1.61066 0
M  V30 3032 H 290.271 0.768553 4.00696 0
M  V30 3033 H 288.946 1.88171 3.70897 0
M  V30 3034 H 287.523 0.0503508 3.72866 0
M  V30 3035 N 289.708 -1.40897 0.706093 0
M  V30 3036 C 290.658 -2.27987 0.0240746 0
M  V30 3037 C 291.642 -1.42759 -0.742204 0
M  V30 3038 O 292.834 -1.65936 -0.615966 0
M  V30 3039 C 289.963 -3.31186 -0.903907 0
M  V30 3040 C 289.049 -4.2389 -0.133318 0
M  V30 3041 N 289.44 -4.98113 0.878444 0
M  V30 3042 C 287.738 -4.44485 -0.367269 0
M  V30 3043 C 288.439 -5.6604 1.34064 0
M  V30 3044 N 287.415 -5.39522 0.664565 0
M  V30 3045 H 291.217 -2.82812 0.799658 0
M  V30 3046 H 288.731 -1.53235 0.537845 0
M  V30 3047 H 290.728 -3.92413 -1.40775 0
M  V30 3048 H 289.388 -2.77922 -1.67897 0
M  V30 3049 H 290.399 -5.02364 1.25901 0
M  V30 3050 H 287.076 -4.02213 -1.1194 0
M  V30 3051 H 288.466 -6.35524 2.1808 0
M  V30 3052 N 291.186 -0.45159 -1.50991 0
M  V30 3053 C 292.435 0.111653 -2.01391 0
M  V30 3054 C 292.748 1.42529 -1.33959 0
M  V30 3055 O 293.954 2.07232 -1.75405 0
M  V30 3056 C 292.41 0.249514 -3.59034 0
M  V30 3057 C 292.018 -1.05453 -4.35412 0
M  V30 3058 C 293.762 0.765762 -4.17536 0
M  V30 3059 C 291.669 -0.881529 -5.84793 0
M  V30 3060 H 290.599 0.0455022 -0.752626 0
M  V30 3061 H 293.25 -0.583524 -1.73975 0
M  V30 3062 H 291.632 1.00803 -3.82955 0
M  V30 3063 H 292.806 -1.82248 -4.23229 0
M  V30 3064 H 291.121 -1.50039 -3.88429 0
M  V30 3065 H 293.718 0.911913 -5.26866 0
M  V30 3066 H 294.061 1.75201 -3.77638 0
M  V30 3067 H 294.594 0.0651744 -3.97747 0
M  V30 3068 H 291.333 -1.84057 -6.29129 0
M  V30 3069 H 290.853 -0.153625 -5.99603 0
M  V30 3070 H 292.532 -0.540363 -6.4474 0
M  V30 3071 N 292.664 1.56529 -0.183458 0
M  V30 3072 C 293.912 1.96855 0.457452 0
M  V30 3073 C 294.233 1.07104 1.62953 0
M  V30 3074 O 293.503 0.139887 1.954 0
M  V30 3075 H 292.083 0.72693 0.171992 0
M  V30 3076 H 294.745 1.93056 -0.267476 0
M  V30 3077 H 293.841 3.01423 0.809368 0
M  V30 3078 N 294.142 -0.090211 1.57342 0
M  V30 3079 C 295.558 -0.444547 1.53284 0
M  V30 3080 C 295.758 -1.80238 0.900914 0
M  V30 3081 O 294.814 -2.4759 0.495513 0
M  V30 3082 C 296.127 -0.402543 2.97993 0
M  V30 3083 C 297.675 -0.48405 3.09234 0
M  V30 3084 C 298.15 -0.472144 4.5556 0
M  V30 3085 N 299.641 -0.532757 4.60126 0
M  V30 3086 C 300.376 -0.545462 5.708 0
M  V30 3087 N 299.872 -0.514082 6.9089 0
M  V30 3088 N 301.665 -0.59064 5.58988 0
M  V30 3089 H 293.816 0.799121 1.96794 0
M  V30 3090 H 296.079 0.297965 0.899956 0
M  V30 3091 H 295.785 0.528106 3.47712 0
M  V30 3092 H 295.659 -1.21969 3.56936 0
M  V30 3093 H 298.046 -1.40512 2.595 0
M  V30 3094 H 298.127 0.361328 2.53235 0
M  V30 3095 H 297.771 0.445 5.05947 0
M  V30 3096 H 297.701 -1.3348 5.09402 0
M  V30 3097 H 300.192 -0.562006 3.73698 0
M  V30 3098 H 300.505 -0.527195 7.71 0
M  V30 3099 H 298.85 -0.481054 6.93333 0
M  V30 3100 H 302.041 -0.61272 4.64073 0
M  V30 3101 H 302.214 -0.597073 6.45243 0
M  V30 3102 N 295.62 -1.53406 -0.361157 0
M  V30 3103 C 296.845 -1.74024 -1.12829 0
M  V30 3104 C 297.27 -0.470069 -1.82132 0
M  V30 3105 O 296.628 0.57619 -1.719 0
M  V30 3106 C 296.676 -2.90903 -2.13091 0
M  V30 3107 O 295.78 -2.59821 -3.20261 0
M  V30 3108 H 295.121 -0.577804 -0.327168 0
M  V30 3109 H 297.651 -2.00307 -0.41693 0
M  V30 3110 H 297.661 -3.17194 -2.56616 0
M  V30 3111 H 296.336 -3.83034 -1.62042 0
M  V30 3112 H 294.913 -2.44362 -2.81677 0
M  V30 3113 N 297.098 0.621204 -1.44841 0
M  V30 3114 C 298.509 1.20298 -1.42777 0
M  V30 3115 C 298.86 1.95639 -0.148259 0
M  V30 3116 O 297.985 2.02955 0.750892 0
M  V30 3117 C 298.58 2.1882 -2.58657 0
M  V30 3118 C 297.139 2.72403 -2.59756 0
M  V30 3119 C 296.286 1.4757 -2.34773 0
M  V30 3120 H 299.237 0.411297 -1.53278 0
M  V30 3121 H 299.258 3.01607 -2.31977 0
M  V30 3122 H 298.77 1.63957 -3.51766 0
M  V30 3123 H 296.871 3.31242 -1.70615 0
M  V30 3124 H 296.984 3.17765 -3.58556 0
M  V30 3125 H 295.348 1.76051 -1.8406 0
M  V30 3126 H 296.131 0.945954 -3.3001 0
M  V30 3127 N 298.576 1.31904 0.862503 0
M  V30 3128 C 299.801 1.25135 1.65397 0
M  V30 3129 C 300.226 -0.179 1.87246 0
M  V30 3130 O 299.584 -1.1277 1.4196 0
M  V30 3131 C 299.632 2.00832 2.99498 0
M  V30 3132 O 298.736 1.35075 3.89652 0
M  V30 3133 H 298.077 0.431655 0.504549 0
M  V30 3134 H 300.607 1.74094 1.07483 0
M  V30 3135 H 300.617 2.10709 3.49379 0
M  V30 3136 H 299.292 3.04847 2.82916 0
M  V30 3137 H 297.869 1.33696 3.48109 0
M  V30 3138 N 300.054 -1.07777 1.14986 0
M  V30 3139 C 300.984 -2.16865 0.865557 0
M  V30 3140 C 301.965 -1.69123 -0.182083 0
M  V30 3141 O 303.15 -1.94164 -0.0373815 0
M  V30 3142 C 300.28 -3.45539 0.349313 0
M  V30 3143 C 299.234 -4.06708 1.33313 0
M  V30 3144 C 298.56 -5.30411 0.675918 0
M  V30 3145 C 299.86 -4.47241 2.69764 0
M  V30 3146 H 301.554 -2.40905 1.77778 0
M  V30 3147 H 299.1 -1.15781 0.856203 0
M  V30 3148 H 301.053 -4.21174 0.137983 0
M  V30 3149 H 299.777 -3.21072 -0.598362 0
M  V30 3150 H 298.436 -3.33112 1.53075 0
M  V30 3151 H 298.084 -5.02232 -0.277767 0
M  V30 3152 H 297.784 -5.72293 1.33244 0
M  V30 3153 H 299.308 -6.08755 0.474262 0
M  V30 3154 H 300.722 -5.14025 2.53873 0
M  V30 3155 H 299.119 -5.00062 3.3175 0
M  V30 3156 H 300.189 -3.58818 3.26156 0
M  V30 3157 N 301.532 -0.945985 -1.26051 0
M  V30 3158 C 302.779 -0.596118 -1.93527 0
M  V30 3159 C 303.107 0.865559 -1.74179 0
M  V30 3160 O 302.362 1.63524 -1.0751 0
M  V30 3161 C 302.661 -0.890475 -3.46129 0
M  V30 3162 C 302.327 -2.3368 -3.85622 0
M  V30 3163 C 300.989 -2.73216 -3.96114 0
M  V30 3164 C 303.341 -3.27648 -4.05334 0
M  V30 3165 C 300.669 -4.05806 -4.2372 0
M  V30 3166 C 303.021 -4.59841 -4.3443 0
M  V30 3167 C 301.685 -4.99185 -4.43137 0
M  V30 3168 H 300.955 -0.218135 -0.708165 0
M  V30 3169 H 303.602 -1.1934 -1.49768 0
M  V30 3170 H 301.907 -0.210711 -3.91233 0
M  V30 3171 H 303.604 -0.598478 -3.96509 0
M  V30 3172 H 300.194 -2.02015 -3.78005 0
M  V30 3173 H 304.378 -2.98298 -3.96651 0
M  V30 3174 H 299.634 -4.35945 -4.28675 0
M  V30 3175 H 303.808 -5.32641 -4.48628 0
M  V30 3176 H 301.435 -6.01952 -4.64282 0
M  V30 3177 N 303.011 1.40521 -0.713556 0
M  V30 3178 C 304.257 2.01221 -0.252564 0
M  V30 3179 C 304.59 1.56444 1.1506 0
M  V30 3180 O 303.865 0.783597 1.78017 0
M  V30 3181 C 304.148 3.58582 -0.330332 0
M  V30 3182 C 304.001 4.13437 -1.77173 0
M  V30 3183 C 305.32 4.39079 0.299641 0
M  V30 3184 H 302.439 0.731077 -0.0932471 0
M  V30 3185 H 305.081 1.67026 -0.905673 0
M  V30 3186 H 303.231 3.87844 0.225737 0
M  V30 3187 H 304.903 3.9498 -2.38303 0
M  V30 3188 H 303.146 3.67801 -2.3001 0
M  V30 3189 H 303.817 5.22597 -1.77755 0
M  V30 3190 H 306.293 4.15735 -0.174139 0
M  V30 3191 H 305.169 5.4848 0.214771 0
M  V30 3192 H 305.43 4.19915 1.38288 0
M  V30 3193 N 304.489 0.459591 1.5075 0
M  V30 3194 C 305.437 -0.354678 2.2988 0
M  V30 3195 C 306.431 -1.00086 1.36672 0
M  V30 3196 O 307.637 -0.933277 1.53915 0
M  V30 3197 H 304.012 -0.13321 0.740107 0
M  V30 3198 H 305.983 0.333269 2.96533 0
M  V30 3199 C 304.732 -1.43073 3.169 0
M  V30 3200 H 304.055 -0.942882 3.88523 0
M  V30 3201 H 305.495 -1.97328 3.75284 0
M  V30 3202 C 303.954 -2.42633 2.33732 0
M  V30 3203 O 304.484 -3.47658 2.01238 0
M  V30 3204 N 302.69 -2.14066 1.9653 0
M  V30 3205 H 302.237 -1.28685 2.23155 0
M  V30 3206 H 302.195 -2.80917 1.41185 0
M  V30 3207 N 305.967 -1.56429 0.191757 0
M  V30 3208 C 306.93 -2.17707 -0.716688 0
M  V30 3209 C 307.93 -1.13061 -1.14341 0
M  V30 3210 O 309.12 -1.38464 -1.05704 0
M  V30 3211 C 306.252 -2.77644 -1.97804 0
M  V30 3212 H 307.445 -2.99342 -0.1829 0
M  V30 3213 H 304.998 -1.56193 -0.0578566 0
M  V30 3214 H 305.733 -1.99799 -2.55443 0
M  V30 3215 H 305.518 -3.54246 -1.68083 0
M  V30 3216 H 307.008 -3.24708 -2.62592 0
M  V30 3217 N 307.445 0.0818655 -1.57387 0
M  V30 3218 C 308.408 1.08265 -2.02018 0
M  V30 3219 C 309.408 1.32183 -0.915664 0
M  V30 3220 O 310.598 1.28073 -1.18081 0
M  V30 3221 C 307.73 2.42871 -2.39221 0
M  V30 3222 H 308.923 0.698204 -2.91659 0
M  V30 3223 H 306.476 0.327303 -1.52835 0
M  V30 3224 H 307.211 2.86167 -1.52575 0
M  V30 3225 H 306.996 2.26855 -3.19811 0
M  V30 3226 H 308.486 3.14826 -2.74362 0
M  V30 3227 N 308.923 1.53595 0.353017 0
M  V30 3228 C 310.151 1.74311 1.1146 0
M  V30 3229 C 310.566 0.477854 1.82653 0
M  V30 3230 O 309.923 -0.549977 1.74016 0
M  V30 3231 C 309.974 2.91694 2.13534 0
M  V30 3232 O 309.695 4.13325 1.45238 0
M  V30 3233 C 311.196 3.24384 3.02142 0
M  V30 3234 H 308.416 0.582669 0.332773 0
M  V30 3235 H 310.96 2.00386 0.408107 0
M  V30 3236 H 309.115 2.67977 2.79763 0
M  V30 3237 H 309.529 4.79148 2.13349 0
M  V30 3238 H 311.003 4.09893 3.69718 0
M  V30 3239 H 311.48 2.40282 3.67643 0
M  V30 3240 H 312.086 3.50073 2.41514 0
M  V30 3241 N 310.401 -0.613514 1.45168 0
M  V30 3242 C 311.647 -1.37279 1.50087 0
M  V30 3243 C 312.002 -1.91902 0.138294 0
M  V30 3244 O 311.295 -1.71764 -0.84899 0
M  V30 3245 C 311.489 -2.54347 2.51083 0
M  V30 3246 C 311.318 -2.11186 3.97027 0
M  V30 3247 C 310.088 -1.97636 4.65046 0
M  V30 3248 C 312.286 -1.69016 4.85735 0
M  V30 3249 N 310.268 -1.48224 5.95737 0
M  V30 3250 C 311.639 -1.30976 6.06008 0
M  V30 3251 C 313.694 -1.56555 4.72647 0
M  V30 3252 C 312.397 -0.817197 7.14643 0
M  V30 3253 C 314.423 -1.08702 5.81324 0
M  V30 3254 C 313.785 -0.716233 7.00749 0
M  V30 3255 H 309.884 -0.496478 0.60418 0
M  V30 3256 H 312.468 -0.701988 1.81605 0
M  V30 3257 H 310.639 -3.19031 2.21527 0
M  V30 3258 H 312.371 -3.21208 2.46187 0
M  V30 3259 H 309.126 -2.18638 4.20112 0
M  V30 3260 H 309.55 -1.25767 6.65216 0
M  V30 3261 H 314.192 -1.83849 3.80736 0
M  V30 3262 H 311.91 -0.531797 8.06348 0
M  V30 3263 H 315.496 -0.994943 5.7323 0
M  V30 3264 H 314.376 -0.351642 7.83411 0
M  V30 3265 N 311.879 -1.3236 -0.855495 0
M  V30 3266 C 313.127 -1.22629 -1.60644 0
M  V30 3267 C 313.448 0.212136 -1.93843 0
M  V30 3268 O 312.718 1.13666 -1.59552 0
M  V30 3269 H 311.298 -0.450882 -0.595579 0
M  V30 3270 H 313.96 -1.65871 -1.02337 0
M  V30 3271 H 313.056 -1.80832 -2.54374 0
M  V30 3272 N 313.357 1.07166 -1.15556 0
M  V30 3273 C 314.287 2.16403 -0.877046 0
M  V30 3274 C 315.268 1.69217 0.173111 0
M  V30 3275 O 316.453 1.94181 0.027084 0
M  V30 3276 C 313.583 3.45349 -0.367632 0
M  V30 3277 C 312.537 4.05995 -1.35468 0
M  V30 3278 C 311.863 5.30045 -0.704038 0
M  V30 3279 C 313.163 4.45804 -2.72132 0
M  V30 3280 H 314.857 2.39959 -1.79053 0
M  V30 3281 H 312.403 1.15325 -0.862331 0
M  V30 3282 H 314.356 4.21095 -0.160317 0
M  V30 3283 H 313.08 3.21385 0.581326 0
M  V30 3284 H 311.739 3.32296 -1.54839 0
M  V30 3285 H 311.387 5.02373 0.251128 0
M  V30 3286 H 311.087 5.71579 -1.36277 0
M  V30 3287 H 312.611 6.08495 -0.50654 0
M  V30 3288 H 314.025 5.12671 -2.56595 0
M  V30 3289 H 312.422 4.98296 -3.34397 0
M  V30 3290 H 313.492 3.57083 -3.28054 0
M  V30 3291 N 314.835 0.952656 1.25548 0
M  V30 3292 C 315.765 0.489287 2.28316 0
M  V30 3293 C 316.746 -0.463359 1.63667 0
M  V30 3294 O 317.931 -0.36274 1.90782 0
M  V30 3295 C 315.061 -0.235603 3.465 0
M  V30 3296 C 314.015 0.631593 4.23314 0
M  V30 3297 C 313.341 -0.223923 5.34231 0
M  V30 3298 C 314.641 1.90871 4.86174 0
M  V30 3299 H 316.335 1.34822 2.67326 0
M  V30 3300 H 313.881 0.649728 1.28509 0
M  V30 3301 H 315.834 -0.570882 4.17515 0
M  V30 3302 H 314.558 -1.12877 3.06474 0
M  V30 3303 H 313.217 0.949929 3.54079 0
M  V30 3304 H 312.865 -1.11678 4.90446 0
M  V30 3305 H 312.565 0.35299 5.86539 0
M  V30 3306 H 314.089 -0.554214 6.0808 0
M  V30 3307 H 315.503 1.63997 5.49343 0
M  V30 3308 H 313.9 2.43112 5.4865 0
M  V30 3309 H 314.97 2.61304 4.08471 0
M  V30 3310 N 316.313 -1.40141 0.720998 0
M  V30 3311 C 317.56 -2.00787 0.262842 0
M  V30 3312 C 317.888 -1.5718 -1.14563 0
M  V30 3313 O 317.143 -0.785391 -1.79249 0
M  V30 3314 C 317.442 -3.56165 0.296892 0
M  V30 3315 C 317.108 -4.19373 1.65641 0
M  V30 3316 C 315.77 -4.36352 2.02855 0
M  V30 3317 C 318.122 -4.54578 2.54968 0
M  V30 3318 C 315.45 -4.8582 3.28931 0
M  V30 3319 C 317.802 -5.05447 3.80402 0
M  V30 3320 C 316.466 -5.20635 4.17726 0
M  V30 3321 H 315.736 -0.734731 0.0961807 0
M  V30 3322 H 318.383 -1.67673 0.925093 0
M  V30 3323 H 316.688 -3.8922 -0.448932 0
M  V30 3324 H 318.385 -4.00929 -0.0755208 0
M  V30 3325 H 314.975 -4.06549 1.35704 0
M  V30 3326 H 319.159 -4.41091 2.27491 0
M  V30 3327 H 314.415 -4.95764 3.57811 0
M  V30 3328 H 318.589 -5.31663 4.49786 0
M  V30 3329 H 316.216 -5.58728 5.15487 0
M  V30 3330 N 317.792 -0.46758 -1.50504 0
M  V30 3331 C 319.02 0.0864133 -2.06719 0
M  V30 3332 C 319.435 1.33819 -1.33184 0
M  V30 3333 O 318.792 1.78061 -0.400083 0
M  V30 3334 C 318.843 0.378079 -3.59517 0
M  V30 3335 O 318.564 -0.824044 -4.3028 0
M  V30 3336 C 320.065 0.979426 -4.32345 0
M  V30 3337 H 317.285 -0.00551697 -0.670977 0
M  V30 3338 H 319.829 -0.655354 -1.93715 0
M  V30 3339 H 317.984 1.06977 -3.72337 0
M  V30 3340 H 318.398 -0.566518 -5.21432 0
M  V30 3341 H 319.872 1.1333 -5.40241 0
M  V30 3342 H 320.349 1.9686 -3.9261 0
M  V30 3343 H 320.955 0.326216 -4.24047 0
M  V30 3344 N 319.27 1.56325 -0.20005 0
M  V30 3345 C 320.518 1.97329 0.436547 0
M  V30 3346 C 320.839 1.08826 1.61808 0
M  V30 3347 O 320.109 0.160604 1.95241 0
M  V30 3348 H 318.689 0.728714 0.164272 0
M  V30 3349 H 321.351 1.92761 -0.287937 0
M  V30 3350 H 320.447 3.02264 0.777353 0
M  V30 3351 N 320.748 -0.0735177 1.57428 0
M  V30 3352 C 321.695 -1.08756 2.0357 0
M  V30 3353 C 322.665 -1.38559 0.916 0
M  V30 3354 O 323.85 -1.49656 1.18354 0
M  V30 3355 C 320.99 -2.39657 2.48311 0
M  V30 3356 C 320.103 -2.16399 3.73892 0
M  V30 3357 C 319.238 -3.40852 4.07423 0
M  V30 3358 C 318.277 -3.1295 5.2605 0
M  V30 3359 N 317.414 -4.29729 5.55228 0
M  V30 3360 H 322.254 -0.687104 2.8997 0
M  V30 3361 H 319.791 -0.327709 1.43403 0
M  V30 3362 H 321.749 -3.16081 2.72303 0
M  V30 3363 H 320.379 -2.77508 1.64891 0
M  V30 3364 H 319.431 -1.30676 3.57251 0
M  V30 3365 H 320.743 -1.91788 4.60455 0
M  V30 3366 H 319.897 -4.25671 4.32306 0
M  V30 3367 H 318.636 -3.68537 3.19425 0
M  V30 3368 H 317.641 -2.26526 5.00965 0
M  V30 3369 H 318.866 -2.86589 6.15665 0
M  V30 3370 H 316.812 -4.57448 4.70188 0
M  V30 3371 H 316.729 -4.08385 6.36206 0
M  V30 3372 H 317.997 -5.1555 5.84661 0
M  V30 3373 N 322.226 -1.5378 -0.344866 0
M  V30 3374 C 323.156 -1.84662 -1.42906 0
M  V30 3375 C 324.137 -0.701648 -1.54955 0
M  V30 3376 O 325.322 -0.953438 -1.69184 0
M  V30 3377 C 322.452 -2.05503 -2.79974 0
M  V30 3378 C 321.406 -3.21318 -2.82734 0
M  V30 3379 C 320.732 -3.2749 -4.22675 0
M  V30 3380 C 322.032 -4.59456 -2.48389 0
M  V30 3381 H 323.726 -2.75461 -1.17311 0
M  V30 3382 H 321.272 -1.32542 -0.562896 0
M  V30 3383 H 323.225 -2.25691 -3.55867 0
M  V30 3384 H 321.949 -1.11434 -3.07002 0
M  V30 3385 H 320.608 -3.00984 -2.09294 0
M  V30 3386 H 320.256 -2.31019 -4.4681 0
M  V30 3387 H 319.956 -4.05316 -4.25433 0
M  V30 3388 H 321.48 -3.49887 -5.00412 0
M  V30 3389 H 322.894 -4.79667 -3.13995 0
M  V30 3390 H 321.291 -5.39675 -2.62432 0
M  V30 3391 H 322.361 -4.63155 -1.4358 0
M  V30 3392 N 323.704 0.605807 -1.45491 0
M  V30 3393 C 324.95 1.36679 -1.49823 0
M  V30 3394 C 325.283 1.93693 -0.140175 0
M  V30 3395 O 324.558 1.75158 0.845581 0
M  V30 3396 C 324.841 2.51337 -2.57879 0
M  V30 3397 C 324.694 1.99508 -4.03134 0
M  V30 3398 C 326.013 3.53463 -2.62205 0
M  V30 3399 H 323.132 0.495617 -0.545466 0
M  V30 3400 H 325.774 0.682732 -1.7731 0
M  V30 3401 H 323.924 3.09691 -2.34571 0
M  V30 3402 H 325.596 1.45789 -4.37656 0
M  V30 3403 H 323.839 1.30496 -4.13707 0
M  V30 3404 H 324.51 2.82169 -4.74431 0
M  V30 3405 H 326.986 3.04953 -2.83095 0
M  V30 3406 H 325.862 4.31178 -3.39672 0
M  V30 3407 H 326.123 4.09197 -1.67363 0
M  V30 3408 N 325.182 1.32811 0.848464 0
M  V30 3409 C 326.407 1.26882 1.6406 0
M  V30 3410 C 326.832 -0.15913 1.87426 0
M  V30 3411 O 326.19 -1.11258 1.43148 0
M  V30 3412 C 326.238 2.03997 2.97351 0
M  V30 3413 O 325.342 1.39201 3.88197 0
M  V30 3414 H 324.683 0.436982 0.499943 0
M  V30 3415 H 327.213 1.75224 1.0563 0
M  V30 3416 H 327.223 2.14403 3.47124 0
M  V30 3417 H 325.898 3.0783 2.79666 0
M  V30 3418 H 324.475 1.37381 3.46671 0
M  V30 3419 N 326.66 -1.06551 1.16123 0
M  V30 3420 C 327.888 -1.83005 0.965237 0
M  V30 3421 C 328.303 -1.82423 -0.486542 0
M  V30 3422 O 327.66 -1.24152 -1.33763 0
M  V30 3423 C 327.711 -3.29733 1.48183 0
M  V30 3424 O 327.432 -3.30416 2.87674 0
M  V30 3425 C 328.933 -4.22926 1.32848 0
M  V30 3426 H 326.153 -0.577118 0.342309 0
M  V30 3427 H 328.697 -1.3445 1.54089 0
M  V30 3428 H 326.852 -3.75609 0.948517 0
M  V30 3429 H 327.266 -4.22149 3.11272 0
M  V30 3430 H 328.74 -5.23916 1.73827 0
M  V30 3431 H 329.217 -4.38346 0.273692 0
M  V30 3432 H 329.823 -3.82894 1.85127 0
M  V30 3433 N 328.138 -0.959301 -1.25041 0
M  V30 3434 C 329.088 -0.453888 -2.23436 0
M  V30 3435 C 330.072 0.459461 -1.542 0
M  V30 3436 O 331.264 0.291752 -1.74579 0
M  V30 3437 C 328.393 0.262667 -3.42294 0
M  V30 3438 C 327.479 -0.669022 -4.1879 0
M  V30 3439 N 327.87 -1.80267 -4.72586 0
M  V30 3440 C 326.168 -0.47814 -4.4343 0
M  V30 3441 C 326.869 -2.38475 -5.3057 0
M  V30 3442 N 325.845 -1.67078 -5.17287 0
M  V30 3443 H 329.647 -1.319 -2.6264 0
M  V30 3444 H 327.161 -0.817358 -1.40332 0
M  V30 3445 H 329.158 0.641911 -4.11929 0
M  V30 3446 H 327.818 1.12432 -3.04613 0
M  V30 3447 H 328.829 -2.18442 -4.69578 0
M  V30 3448 H 325.506 0.340249 -4.16111 0
M  V30 3449 H 326.896 -3.34094 -5.8295 0
M  V30 3450 N 329.616 1.39756 -0.72842 0
M  V30 3451 C 330.564 2.32485 -0.0731849 0
M  V30 3452 C 331.558 1.52717 0.733063 0
M  V30 3453 O 332.764 1.68428 0.634988 0
M  V30 3454 H 329.139 0.751984 -0.00486469 0
M  V30 3455 H 331.11 2.85382 -0.871761 0
M  V30 3456 C 329.859 3.37773 0.824908 0
M  V30 3457 H 329.182 3.99227 0.213915 0
M  V30 3458 H 330.622 4.05121 1.25111 0
M  V30 3459 C 329.081 2.74287 1.95622 0
M  V30 3460 O 329.611 2.61618 3.04826 0
M  V30 3461 N 327.817 2.32475 1.74367 0
M  V30 3462 H 327.364 2.4298 0.855494 0
M  V30 3463 H 327.322 1.90337 2.50238 0
M  V30 3464 N 331.094 0.475555 1.50254 0
M  V30 3465 C 332.004 -0.321501 2.32387 0
M  V30 3466 C 333.02 -0.991755 1.42969 0
M  V30 3467 O 334.196 -0.978747 1.76018 0
M  V30 3468 C 331.261 -1.38667 3.17762 0
M  V30 3469 C 330.322 -0.732538 4.23004 0
M  V30 3470 C 329.555 -1.74695 5.04299 0
M  V30 3471 O 329.778 -2.97399 4.86734 0
M  V30 3472 O 328.712 -1.31631 5.8733 0
M  V30 3473 H 332.538 0.350071 3.01676 0
M  V30 3474 H 330.123 0.237321 1.47503 0
M  V30 3475 H 332.005 -2.00354 3.70724 0
M  V30 3476 H 330.68 -2.04163 2.51196 0
M  V30 3477 H 329.587 -0.0765902 3.74022 0
M  V30 3478 H 330.92 -0.120452 4.92053 0
M  V30 3479 N 332.573 -1.56217 0.208337 0
M  V30 3480 C 333.536 -2.18455 -0.693557 0
M  V30 3481 C 334.536 -1.14268 -1.13135 0
M  V30 3482 O 335.726 -1.39577 -1.0423 0
M  V30 3483 C 332.858 -2.79727 -1.94848 0
M  V30 3484 H 334.051 -2.99519 -0.15114 0
M  V30 3485 H 331.604 -1.56245 -0.041287 0
M  V30 3486 H 332.339 -2.02497 -2.53309 0
M  V30 3487 H 332.124 -3.56009 -1.64316 0
M  V30 3488 H 333.614 -3.27475 -2.59133 0
M  V30 3489 N 334.051 0.0651679 -1.57465 0
M  V30 3490 C 335.276 0.779605 -1.9219 0
M  V30 3491 C 335.701 1.69988 -0.805333 0
M  V30 3492 O 335.059 1.79685 0.241435 0
M  V30 3493 C 335.107 1.54364 -3.2589 0
M  V30 3494 O 334.211 2.65474 -3.1559 0
M  V30 3495 H 333.552 0.212249 -0.629163 0
M  V30 3496 H 336.082 0.0314294 -2.04576 0
M  V30 3497 H 336.092 1.92146 -3.59922 0
M  V30 3498 H 334.767 0.868457 -4.06732 0
M  V30 3499 H 333.344 2.30501 -2.93128 0
M  V30 3500 N 335.529 1.53961 0.336706 0
M  V30 3501 C 336.459 1.85417 1.41925 0
M  V30 3502 C 337.44 0.709856 1.5458 0
M  V30 3503 O 338.625 0.962396 1.68676 0
M  V30 3504 C 335.755 2.06985 2.78881 0
M  V30 3505 C 334.709 3.22813 2.81026 0
M  V30 3506 C 334.035 3.29727 4.20932 0
M  V30 3507 C 335.335 4.60767 2.45949 0
M  V30 3508 H 337.029 2.76079 1.15848 0
M  V30 3509 H 334.575 1.32839 0.555859 0
M  V30 3510 H 336.528 2.27575 3.54665 0
M  V30 3511 H 335.252 1.13061 3.06406 0
M  V30 3512 H 333.911 3.0209 2.07695 0
M  V30 3513 H 333.559 2.33385 4.45579 0
M  V30 3514 H 333.259 4.07566 4.23277 0
M  V30 3515 H 334.783 3.52536 4.98549 0
M  V30 3516 H 336.197 4.81325 3.11446 0
M  V30 3517 H 334.594 5.4106 2.59566 0
M  V30 3518 H 335.664 4.6391 1.41122 0
M  V30 3519 N 337.007 -0.598083 1.45811 0
M  V30 3520 C 338.232 -1.3881 1.54099 0
M  V30 3521 C 338.657 -1.8726 0.177578 0
M  V30 3522 O 338.015 -1.6069 -0.839541 0
M  V30 3523 C 338.063 -2.56217 2.53743 0
M  V30 3524 O 337.167 -3.5716 2.06182 0
M  V30 3525 H 336.508 -0.414024 0.519115 0
M  V30 3526 H 339.038 -0.726971 1.91249 0
M  V30 3527 H 339.048 -3.03337 2.72856 0
M  V30 3528 H 337.723 -2.20303 3.5276 0
M  V30 3529 H 336.3 -3.16624 1.96987 0
M  V30 3530 N 338.485 -1.33259 -0.841409 0
M  V30 3531 C 339.901 -1.12538 -1.13169 0
M  V30 3532 C 340.101 0.0854037 -2.01319 0
M  V30 3533 O 339.157 0.766417 -2.40587 0
M  V30 3534 C 340.47 -2.41156 -1.79623 0
M  V30 3535 C 342.018 -2.47038 -1.922 0
M  V30 3536 C 342.493 -3.7561 -2.6207 0
M  V30 3537 N 343.984 -3.76667 -2.69585 0
M  V30 3538 C 344.719 -4.72861 -3.2433 0
M  V30 3539 N 344.215 -5.79428 -3.79783 0
M  V30 3540 N 346.008 -4.6034 -3.22558 0
M  V30 3541 H 338.159 -2.10868 -0.254676 0
M  V30 3542 H 340.422 -0.931615 -0.175493 0
M  V30 3543 H 340.128 -3.29747 -1.22311 0
M  V30 3544 H 340.002 -2.53114 -2.79666 0
M  V30 3545 H 342.389 -1.58898 -2.48667 0
M  V30 3546 H 342.47 -2.39022 -0.911148 0
M  V30 3547 H 342.114 -4.64131 -2.06263 0
M  V30 3548 H 342.044 -3.80902 -3.63622 0
M  V30 3549 H 344.535 -2.99648 -2.30259 0
M  V30 3550 H 344.848 -6.48867 -4.19752 0
M  V30 3551 H 343.193 -5.83166 -3.78078 0
M  V30 3552 H 346.384 -3.76244 -2.78492 0
M  V30 3553 H 346.557 -5.35478 -3.64921 0
M  V30 3554 N 339.963 1.05934 -1.16686 0
M  V30 3555 C 341.188 1.83029 -0.975455 0
M  V30 3556 C 341.613 1.82096 0.471452 0
M  V30 3557 O 340.971 1.22443 1.33706 0
M  V30 3558 C 341.019 3.27372 -1.51195 0
M  V30 3559 O 340.123 4.06054 -0.720701 0
M  V30 3560 H 339.464 0.566194 -0.346872 0
M  V30 3561 H 341.994 1.33541 -1.55009 0
M  V30 3562 H 342.004 3.78186 -1.53099 0
M  V30 3563 H 340.679 3.27366 -2.56523 0
M  V30 3564 H 339.256 3.64812 -0.772458 0
M  V30 3565 N 341.441 0.965919 1.2453 0
M  V30 3566 C 342.371 0.513476 2.27784 0
M  V30 3567 C 343.352 -0.445974 1.6415 0
M  V30 3568 O 344.537 -0.342485 1.91156 0
M  V30 3569 C 341.667 -0.198839 3.4673 0
M  V30 3570 C 340.621 0.676456 4.2262 0
M  V30 3571 C 339.947 -0.167248 5.34438 0
M  V30 3572 C 341.247 1.96017 4.84123 0
M  V30 3573 H 342.941 1.3765 2.65881 0
M  V30 3574 H 340.487 0.663321 1.27813 0
M  V30 3575 H 342.44 -0.526567 4.18097 0
M  V30 3576 H 341.164 -1.0962 3.07654 0
M  V30 3577 H 339.823 0.98743 3.53052 0
M  V30 3578 H 339.471 -1.0647 4.91603 0
M  V30 3579 H 339.171 0.415181 5.86131 0
M  V30 3580 H 340.695 -0.489688 6.08633 0
M  V30 3581 H 342.109 1.69814 5.47573 0
M  V30 3582 H 340.506 2.48918 5.4604 0
M  V30 3583 H 341.576 2.65622 4.05676 0
M  V30 3584 N 342.919 -1.39368 0.735821 0
M  V30 3585 C 343.867 -2.32443 0.0855131 0
M  V30 3586 C 344.861 -1.53104 -0.724954 0
M  V30 3587 O 346.067 -1.68762 -0.626047 0
M  V30 3588 H 342.442 -0.751948 0.00885257 0
M  V30 3589 H 344.413 -2.84916 0.886883 0
M  V30 3590 C 343.162 -3.38206 -0.806983 0
M  V30 3591 H 342.485 -3.99335 -0.19274 0
M  V30 3592 H 343.925 -4.05779 -1.2296 0
M  V30 3593 C 342.384 -2.75321 -1.94165 0
M  V30 3594 O 342.914 -2.63231 -3.03435 0
M  V30 3595 N 341.12 -2.33396 -1.73132 0
M  V30 3596 H 340.667 -2.4343 -0.842596 0
M  V30 3597 H 340.625 -1.91661 -2.49225 0
M  V30 3598 N 344.397 -0.483516 -1.5 0
M  V30 3599 C 345.813 -0.138404 -1.58999 0
M  V30 3600 C 346.013 1.35597 -1.4905 0
M  V30 3601 O 345.069 2.13039 -1.35539 0
M  V30 3602 C 346.382 -0.699658 -2.92447 0
M  V30 3603 C 347.93 -0.664195 -3.05872 0
M  V30 3604 C 348.405 -1.20321 -4.41913 0
M  V30 3605 N 349.896 -1.16315 -4.48358 0
M  V30 3606 C 350.631 -1.55058 -5.52037 0
M  V30 3607 N 350.127 -2.01311 -6.62907 0
M  V30 3608 N 351.92 -1.46584 -5.42651 0
M  V30 3609 H 344.071 -1.45529 -1.5471 0
M  V30 3610 H 346.334 -0.60258 -0.731848 0
M  V30 3611 H 346.04 -1.747 -3.05242 0
M  V30 3612 H 345.914 -0.150194 -3.76901 0
M  V30 3613 H 348.301 0.374272 -2.92717 0
M  V30 3614 H 348.382 -1.25061 -2.23144 0
M  V30 3615 H 348.026 -2.24037 -4.55818 0
M  V30 3616 H 347.956 -0.592896 -5.23252 0
M  V30 3617 H 350.447 -0.824058 -3.68806 0
M  V30 3618 H 350.76 -2.2899 -7.38095 0
M  V30 3619 H 349.105 -2.05273 -6.63994 0
M  V30 3620 H 352.296 -1.10281 -4.54924 0
M  V30 3621 H 352.469 -1.77103 -6.23329 0
M  V30 3622 N 345.875 1.56104 -0.216619 0
M  V30 3623 C 347.124 1.97348 0.416744 0
M  V30 3624 C 347.437 1.10715 1.6125 0
M  V30 3625 O 348.643 1.41836 2.31506 0
M  V30 3626 C 347.099 3.51059 0.792835 0
M  V30 3627 C 346.707 4.46387 -0.379828 0
M  V30 3628 C 348.451 4.01026 1.39208 0
M  V30 3629 C 346.358 5.91397 0.0184223 0
M  V30 3630 H 345.288 0.736942 0.159475 0
M  V30 3631 H 347.939 1.80827 -0.31205 0
M  V30 3632 H 346.321 3.63162 1.57891 0
M  V30 3633 H 347.495 4.46029 -1.15737 0
M  V30 3634 H 345.81 4.06734 -0.891979 0
M  V30 3635 H 348.407 5.0686 1.70286 0
M  V30 3636 H 348.75 3.46587 2.30614 0
M  V30 3637 H 349.283 3.92125 0.669537 0
M  V30 3638 H 346.022 6.49807 -0.862002 0
M  V30 3639 H 345.542 5.94961 0.760384 0
M  V30 3640 H 347.221 6.45455 0.446818 0
M  V30 3641 N 347.353 -0.0568162 1.57498 0
M  V30 3642 C 348.602 -0.752001 1.87157 0
M  V30 3643 C 348.915 -1.77978 0.811375 0
M  V30 3644 O 350.121 -2.52559 0.996293 0
M  V30 3645 C 348.577 -1.38844 3.3204 0
M  V30 3646 C 348.185 -0.398456 4.46225 0
M  V30 3647 C 349.929 -2.06512 3.70882 0
M  V30 3648 C 347.836 -1.04166 5.82154 0
M  V30 3649 H 346.766 -0.28461 0.698222 0
M  V30 3650 H 349.417 -0.00561272 1.83499 0
M  V30 3651 H 347.799 -2.1836 3.30356 0
M  V30 3652 H 348.973 0.367977 4.59328 0
M  V30 3653 H 347.288 0.174592 4.16034 0
M  V30 3654 H 349.885 -2.55437 4.6974 0
M  V30 3655 H 350.228 -2.87117 3.01445 0
M  V30 3656 H 350.761 -1.33808 3.7462 0
M  V30 3657 H 347.5 -0.275614 6.5492 0
M  V30 3658 H 347.02 -1.7786 5.72823 0
M  V30 3659 H 348.699 -1.55715 6.27982 0
M  V30 3660 N 348.832 -1.54138 -0.328536 0
M  V30 3661 C 350.08 -1.71765 -1.06496 0
M  V30 3662 C 350.401 -0.49149 -1.88704 0
M  V30 3663 O 349.671 0.494539 -1.89555 0
M  V30 3664 H 348.251 -0.633295 -0.396164 0
M  V30 3665 H 350.913 -1.91429 -0.366176 0
M  V30 3666 H 350.009 -2.5951 -1.73381 0
M  V30 3667 N 350.31 0.590341 -1.46126 0
M  V30 3668 C 351.257 1.69994 -1.56111 0
M  V30 3669 C 352.227 1.61065 -0.405867 0
M  V30 3670 O 353.412 1.8039 -0.621613 0
M  V30 3671 C 350.552 3.08326 -1.55013 0
M  V30 3672 C 349.665 3.27936 -2.81215 0
M  V30 3673 C 348.8 4.56473 -2.71673 0
M  V30 3674 C 347.839 4.694 -3.92849 0
M  V30 3675 N 346.976 5.89254 -3.81738 0
M  V30 3676 H 351.816 1.60797 -2.50895 0
M  V30 3677 H 349.353 0.783799 -1.24479 0
M  V30 3678 H 351.311 3.88383 -1.52362 0
M  V30 3679 H 349.941 3.16439 -0.637667 0
M  V30 3680 H 348.993 2.41536 -2.93879 0
M  V30 3681 H 350.305 3.33357 -3.71045 0
M  V30 3682 H 349.459 5.44748 -2.67085 0
M  V30 3683 H 348.198 4.53477 -1.7947 0
M  V30 3684 H 347.203 3.79544 -3.97777 0
M  V30 3685 H 348.428 4.7418 -4.86138 0
M  V30 3686 H 346.374 5.87271 -2.92317 0
M  V30 3687 H 346.291 5.95911 -4.65217 0
M  V30 3688 H 347.559 6.79981 -3.81112 0
M  V30 3689 N 351.788 1.33704 0.83433 0
M  V30 3690 C 353.013 1.28615 1.62705 0
M  V30 3691 C 353.438 -0.139242 1.87584 0
M  V30 3692 O 352.796 -1.09734 1.4432 0
M  V30 3693 C 352.844 2.07139 2.95171 0
M  V30 3694 O 351.948 1.4331 3.86699 0
M  V30 3695 H 351.289 0.44226 0.49528 0
M  V30 3696 H 353.819 1.76335 1.03766 0
M  V30 3697 H 353.829 2.18073 3.44831 0
M  V30 3698 H 352.504 3.10779 2.76386 0
M  V30 3699 H 351.081 1.4105 3.45195 0
M  V30 3700 N 353.266 -1.05314 1.17247 0
M  V30 3701 C 354.514 -1.77941 0.958194 0
M  V30 3702 C 354.835 -1.88089 -0.514556 0
M  V30 3703 O 354.105 -1.39676 -1.37359 0
M  V30 3704 H 352.685 -0.659116 0.351533 0
M  V30 3705 H 355.347 -1.27166 1.47699 0
M  V30 3706 H 354.443 -2.79663 1.38546 0
M  V30 3707 N 354.744 -0.972509 -1.24016 0
M  V30 3708 C 355.654 -0.5143 -2.28893 0
M  V30 3709 C 356.67 0.427078 -1.68677 0
M  V30 3710 O 357.846 0.298939 -1.99169 0
M  V30 3711 C 354.911 0.183598 -3.46214 0
M  V30 3712 C 353.972 -0.798202 -4.21814 0
M  V30 3713 C 353.205 -0.133514 -5.33533 0
M  V30 3714 O 353.428 1.07714 -5.60137 0
M  V30 3715 O 352.362 -0.828103 -5.96176 0
M  V30 3716 H 356.188 -1.38629 -2.70214 0
M  V30 3717 H 353.773 -0.739769 -1.29799 0
M  V30 3718 H 355.655 0.575433 -4.17453 0
M  V30 3719 H 354.33 1.03048 -3.0686 0
M  V30 3720 H 353.237 -1.24059 -3.52931 0
M  V30 3721 H 354.57 -1.61364 -4.64997 0
M  V30 3722 N 356.222 1.38976 -0.743202 0
M  V30 3723 C 357.633 1.83123 -0.363732 0
M  V30 3724 C 357.984 1.6205 1.10609 0
M  V30 3725 O 357.109 1.11606 1.854 0
M  V30 3726 C 357.704 3.32439 -0.653408 0
M  V30 3727 C 356.263 3.74974 -0.327338 0
M  V30 3728 C 355.41 2.61878 -0.911875 0
M  V30 3729 H 358.361 1.27852 -0.940191 0
M  V30 3730 H 358.382 3.80432 0.0720031 0
M  V30 3731 H 357.894 3.47745 -1.72323 0
M  V30 3732 H 355.995 3.65252 0.736314 0
M  V30 3733 H 356.108 4.72106 -0.815631 0
M  V30 3734 H 354.472 2.52448 -0.337944 0
M  V30 3735 H 355.255 2.79987 -1.98651 0
M  V30 3736 N 357.7 0.491464 1.49741 0
M  V30 3737 C 358.63 -0.28154 2.31796 0
M  V30 3738 C 359.611 -0.971473 1.3963 0
M  V30 3739 O 360.796 -0.964719 1.68543 0
M  V30 3740 C 357.926 -1.35203 3.19902 0
M  V30 3741 C 356.88 -0.782529 4.20786 0
M  V30 3742 C 356.206 -1.95283 4.97764 0
M  V30 3743 C 357.506 0.21999 5.21837 0
M  V30 3744 H 359.2 0.403355 2.96671 0
M  V30 3745 H 356.746 0.195425 1.42668 0
M  V30 3746 H 358.699 -1.90045 3.76113 0
M  V30 3747 H 357.423 -2.06598 2.52953 0
M  V30 3748 H 356.082 -0.255928 3.65706 0
M  V30 3749 H 355.73 -2.65423 4.2727 0
M  V30 3750 H 355.43 -1.57789 5.66018 0
M  V30 3751 H 356.954 -2.50577 5.56816 0
M  V30 3752 H 358.368 -0.23996 5.72798 0
M  V30 3753 H 356.765 0.51026 5.97927 0
M  V30 3754 H 357.835 1.13911 4.7133 0
M  V30 3755 N 359.178 -1.55987 0.224894 0
M  V30 3756 C 360.427 -1.97566 -0.406273 0
M  V30 3757 C 360.74 -1.11569 -1.6066 0
M  V30 3758 O 361.946 -1.43062 -2.3075 0
M  V30 3759 C 360.402 -3.51474 -0.774207 0
M  V30 3760 C 360.01 -4.46179 0.403496 0
M  V30 3761 C 361.754 -4.01758 -1.37079 0
M  V30 3762 C 359.661 -5.91399 0.0129412 0
M  V30 3763 H 358.591 -0.737777 -0.155565 0
M  V30 3764 H 361.242 -1.80659 0.321635 0
M  V30 3765 H 359.624 -3.63994 -1.55963 0
M  V30 3766 H 360.798 -4.45409 1.18101 0
M  V30 3767 H 359.113 -4.06255 0.913536 0
M  V30 3768 H 361.71 -5.07756 -1.67596 0
M  V30 3769 H 362.053 -3.47805 -2.28773 0
M  V30 3770 H 362.586 -3.92475 -0.648733 0
M  V30 3771 H 359.325 -6.49341 0.896451 0
M  V30 3772 H 358.845 -5.95356 -0.728821 0
M  V30 3773 H 360.524 -6.45683 -0.412582 0
M  V30 3774 N 360.656 0.0484629 -1.57525 0
M  V30 3775 C 362.072 0.40375 -1.54409 0
M  V30 3776 C 362.272 1.77786 -0.948384 0
M  V30 3777 O 361.328 2.46189 -0.560983 0
M  V30 3778 C 362.641 0.323394 -2.98956 0
M  V30 3779 C 364.189 0.401892 -3.10409 0
M  V30 3780 C 364.664 0.351195 -4.56652 0
M  V30 3781 N 366.155 0.410576 -4.61377 0
M  V30 3782 C 366.89 0.393933 -5.72045 0
M  V30 3783 N 366.386 0.330724 -6.9201 0
M  V30 3784 N 368.179 0.442227 -5.60358 0
M  V30 3785 H 360.33 -0.851016 -1.94606 0
M  V30 3786 H 362.593 -0.321721 -0.89174 0
M  V30 3787 H 362.299 -0.62011 -3.4619 0
M  V30 3788 H 362.173 1.12463 -3.60044 0
M  V30 3789 H 364.56 1.33582 -2.63134 0
M  V30 3790 H 364.641 -0.428342 -2.52188 0
M  V30 3791 H 364.285 -0.578987 -5.04589 0
M  V30 3792 H 364.215 1.19928 -5.12762 0
M  V30 3793 H 366.706 0.462729 -3.75056 0
M  V30 3794 H 367.019 0.322592 -7.72126 0
M  V30 3795 H 365.364 0.29706 -6.94365 0
M  V30 3796 H 368.555 0.489464 -4.65534 0
M  V30 3797 H 368.728 0.425788 -6.466 0
M  V30 3798 N 362.134 1.5431 0.320358 0
M  V30 3799 C 363.081 1.83918 1.39438 0
M  V30 3800 C 364.051 0.686525 1.51248 0
M  V30 3801 O 365.236 0.933269 1.66417 0
M  V30 3802 C 362.376 2.075 2.75749 0
M  V30 3803 C 361.489 3.35177 2.72544 0
M  V30 3804 C 360.624 3.48704 4.00723 0
M  V30 3805 C 359.663 4.70244 3.91838 0
M  V30 3806 N 358.8 4.80679 5.11754 0
M  V30 3807 H 363.64 2.75544 1.13489 0
M  V30 3808 H 361.177 1.36459 0.549309 0
M  V30 3809 H 363.135 2.19166 3.54996 0
M  V30 3810 H 361.765 1.19163 3 0
M  V30 3811 H 360.817 3.32233 1.85271 0
M  V30 3812 H 362.129 4.24534 2.61863 0
M  V30 3813 H 361.283 3.59928 4.88402 0
M  V30 3814 H 360.022 2.57445 4.14214 0
M  V30 3815 H 359.027 4.59072 3.02544 0
M  V30 3816 H 360.252 5.6289 3.7991 0
M  V30 3817 H 358.198 3.92337 5.25745 0
M  V30 3818 H 358.115 5.64007 5.0342 0
M  V30 3819 H 359.383 4.96239 6.01138 0
M  V30 3820 N 363.613 -0.582584 1.46437 0
M  V30 3821 C 364.861 -1.33814 1.51453 0
M  V30 3822 C 365.182 -1.94277 0.167792 0
M  V30 3823 O 364.452 -1.78566 -0.805677 0
M  V30 3824 H 363.032 -0.496838 0.557818 0
M  V30 3825 H 365.694 -0.682281 1.82568 0
M  V30 3826 H 364.79 -2.14479 2.26728 0
M  V30 3827 N 365.091 -1.34144 -0.827227 0
M  V30 3828 C 366.337 -1.26446 -1.58554 0
M  V30 3829 C 366.67 0.1664 -1.93486 0
M  V30 3830 O 365.945 1.1107 -1.59667 0
M  V30 3831 C 366.228 -2.15111 -2.8879 0
M  V30 3832 C 366.081 -3.66712 -2.60465 0
M  V30 3833 C 367.4 -2.03311 -3.90324 0
M  V30 3834 H 364.519 -0.46067 -0.575284 0
M  V30 3835 H 367.161 -1.64356 -0.953269 0
M  V30 3836 H 365.311 -1.8291 -3.42748 0
M  V30 3837 H 366.983 -4.09259 -2.1285 0
M  V30 3838 H 365.226 -3.88014 -1.93978 0
M  V30 3839 H 365.897 -4.24112 -3.53317 0
M  V30 3840 H 368.373 -2.31574 -3.45706 0
M  V30 3841 H 367.249 -2.67582 -4.79261 0
M  V30 3842 H 367.51 -1.00879 -4.30437 0
M  V30 3843 N 366.569 1.04691 -1.17803 0
M  V30 3844 C 367.846 1.7472 -0.879328 0
M  V30 3845 C 368.226 2.01812 0.619271 0
M  V30 3846 O 367.574 1.65824 1.57209 0
M  V30 3847 C 367.784 3.03686 -1.71976 0
M  V30 3848 C 369.132 3.77542 -1.94286 0
M  V30 3849 O 370.156 3.13569 -1.68976 0
M  V30 3850 O 369.015 4.92506 -2.36855 0
M  V30 3851 H 366.109 0.760011 -0.326056 0
M  V30 3852 H 368.655 1.10813 -1.28525 0
M  V30 3853 H 367.427 2.79754 -2.73594 0
M  V30 3854 H 367.05 3.75332 -1.31194 0
M  V30 3855 N 368.047 0.979072 1.23499 0
M  V30 3856 C 368.98 0.463027 2.23453 0
M  V30 3857 C 369.958 -0.469128 1.55685 0
M  V30 3858 O 371.142 -0.397882 1.84253 0
M  V30 3859 C 368.269 -0.330308 3.37086 0
M  V30 3860 C 367.315 0.545795 4.22993 0
M  V30 3861 S 368.148 1.99285 4.97037 0
M  V30 3862 C 369.304 1.20862 6.1412 0
M  V30 3863 H 369.537 1.31005 2.6688 0
M  V30 3864 H 367.07 0.784965 1.32957 0
M  V30 3865 H 369.028 -0.782027 4.02982 0
M  V30 3866 H 367.689 -1.15244 2.92194 0
M  V30 3867 H 366.882 -0.0638928 5.03959 0
M  V30 3868 H 366.484 0.933705 3.62157 0
M  V30 3869 H 368.776 0.469284 6.75873 0
M  V30 3870 H 369.719 1.99307 6.79472 0
M  V30 3871 H 370.127 0.727992 5.59786 0
M  V30 3872 N 369.525 -1.3858 0.750561 0
M  V30 3873 C 370.488 -2.28836 0.129152 0
M  V30 3874 C 371.488 -1.47045 -0.650714 0
M  V30 3875 O 372.678 -1.6753 -0.477428 0
M  V30 3876 C 369.81 -3.30751 -0.825622 0
M  V30 3877 H 371.003 -2.85294 0.924516 0
M  V30 3878 H 368.556 -1.47489 0.517376 0
M  V30 3879 H 369.291 -2.79378 -1.64677 0
M  V30 3880 H 369.076 -3.91177 -0.268852 0
M  V30 3881 H 370.566 -3.98249 -1.2565 0
M  V30 3882 N 371.003 -0.499398 -1.49478 0
M  V30 3883 C 371.936 0.326491 -2.25852 0
M  V30 3884 C 372.914 0.971776 -1.30366 0
M  V30 3885 O 374.098 1.00219 -1.59651 0
M  V30 3886 C 371.225 1.45969 -3.05632 0
M  V30 3887 C 370.271 0.928938 -4.16261 0
M  V30 3888 S 371.104 -0.179012 -5.35201 0
M  V30 3889 C 372.26 0.957389 -6.18534 0
M  V30 3890 H 372.493 -0.321746 -2.95554 0
M  V30 3891 H 370.026 -0.284674 -1.51753 0
M  V30 3892 H 371.984 2.109 -3.52181 0
M  V30 3893 H 370.645 2.07953 -2.35402 0
M  V30 3894 H 369.838 1.77813 -4.71592 0
M  V30 3895 H 369.44 0.356869 -3.72293 0
M  V30 3896 H 371.732 1.86296 -6.51383 0
M  V30 3897 H 372.675 0.442733 -7.06715 0
M  V30 3898 H 373.083 1.224 -5.5107 0
M  V30 3899 N 372.481 1.55866 -0.233164 0
M  V30 3900 C 373.897 1.59133 0.121988 0
M  V30 3901 C 374.097 1.25016 1.58029 0
M  V30 3902 O 373.153 0.990922 2.32243 0
M  V30 3903 C 374.466 2.99932 -0.214792 0
M  V30 3904 C 376.014 3.12601 -0.157971 0
M  V30 3905 C 376.489 4.55597 -0.46859 0
M  V30 3906 N 377.98 4.61305 -0.418585 0
M  V30 3907 C 378.715 5.69903 -0.63227 0
M  V30 3908 N 378.211 6.86819 -0.90835 0
M  V30 3909 N 380.004 5.59264 -0.563913 0
M  V30 3910 H 372.155 1.76315 -1.18434 0
M  V30 3911 H 374.418 0.820093 -0.475553 0
M  V30 3912 H 374.124 3.29588 -1.22739 0
M  V30 3913 H 373.998 3.74327 0.464691 0
M  V30 3914 H 376.385 2.82735 0.845283 0
M  V30 3915 H 376.466 2.40511 -0.871102 0
M  V30 3916 H 376.11 4.86182 -1.46934 0
M  V30 3917 H 376.04 5.25928 0.265865 0
M  V30 3918 H 378.531 3.77297 -0.213368 0
M  V30 3919 H 378.844 7.65507 -1.05919 0
M  V30 3920 H 377.189 6.88536 -0.945673 0
M  V30 3921 H 380.38 4.66802 -0.348372 0
M  V30 3922 H 380.553 6.43831 -0.733847 0
M  V30 3923 N 373.959 -0.0401083 1.57549 0
M  V30 3924 C 374.889 -1.04384 2.08869 0
M  V30 3925 C 375.87 -1.38407 0.988817 0
M  V30 3926 O 377.055 -1.47483 1.26342 0
M  V30 3927 C 374.185 -2.34808 2.55895 0
M  V30 3928 C 373.139 -2.15057 3.70047 0
M  V30 3929 C 372.465 -3.51145 4.03239 0
M  V30 3930 C 373.765 -1.54576 4.98902 0
M  V30 3931 H 375.459 -0.616666 2.92981 0
M  V30 3932 H 373.005 -0.295184 1.40942 0
M  V30 3933 H 374.958 -3.05346 2.90417 0
M  V30 3934 H 373.682 -2.79565 1.68853 0
M  V30 3935 H 372.341 -1.46954 3.35857 0
M  V30 3936 H 371.989 -3.93529 3.13279 0
M  V30 3937 H 371.689 -3.38758 4.80122 0
M  V30 3938 H 373.213 -4.23062 4.40285 0
M  V30 3939 H 374.627 -2.15017 5.31451 0
M  V30 3940 H 373.024 -1.52796 5.80322 0
M  V30 3941 H 374.094 -0.51039 4.82206 0
M  V30 3942 N 375.437 -1.54477 -0.31217 0
M  V30 3943 C 376.37 -1.79519 -1.40884 0
M  V30 3944 C 377.348 -0.645753 -1.49227 0
M  V30 3945 O 378.532 -0.884468 -1.66461 0
M  V30 3946 C 375.659 -1.92194 -2.78889 0
M  V30 3947 C 374.705 -3.14555 -2.88023 0
M  V30 3948 S 375.538 -4.72893 -2.51262 0
M  V30 3949 C 376.694 -4.8849 -3.91317 0
M  V30 3950 H 376.927 -2.72256 -1.19432 0
M  V30 3951 H 374.46 -1.45746 -0.509654 0
M  V30 3952 H 376.418 -2.00182 -3.58382 0
M  V30 3953 H 375.079 -1.00414 -2.97617 0
M  V30 3954 H 374.272 -3.20193 -3.89221 0
M  V30 3955 H 373.874 -3.04955 -2.16514 0
M  V30 3956 H 376.166 -4.71826 -4.86196 0
M  V30 3957 H 377.109 -5.90588 -3.90656 0
M  V30 3958 H 377.517 -4.16715 -3.80801 0
M  V30 3959 N 376.915 0.57481 -1.46744 0
M  V30 3960 C 378.163 1.33009 -1.52161 0
M  V30 3961 C 378.484 1.94185 -0.178092 0
M  V30 3962 O 377.754 1.7899 0.796196 0
M  V30 3963 H 376.334 0.493873 -0.560445 0
M  V30 3964 H 378.996 0.672589 -1.82927 0
M  V30 3965 H 378.092 2.13273 -2.27862 0
M  V30 3966 N 378.394 1.34581 0.820102 0
M  V30 3967 C 379.304 1.28471 1.96297 0
M  V30 3968 C 380.32 0.191902 1.72939 0
M  V30 3969 O 381.496 0.418879 1.96996 0
M  V30 3970 C 378.561 1.04281 3.30645 0
M  V30 3971 C 377.622 2.22745 3.66992 0
M  V30 3972 C 376.855 1.997 4.9493 0
M  V30 3973 O 377.078 0.956656 5.6232 0
M  V30 3974 O 376.012 2.86723 5.2922 0
M  V30 3975 H 379.838 2.24624 2.04396 0
M  V30 3976 H 377.423 1.14816 0.955913 0
M  V30 3977 H 379.305 0.925841 4.11104 0
M  V30 3978 H 377.98 0.111697 3.23507 0
M  V30 3979 H 376.887 2.40003 2.86966 0
M  V30 3980 H 378.22 3.14257 3.78819 0
M  V30 3981 N 379.872 -1.04064 1.18357 0
M  V30 3982 C 380.804 -2.12114 0.868358 0
M  V30 3983 C 381.817 -1.62247 -0.134045 0
M  V30 3984 O 383.006 -1.78253 0.0937933 0
M  V30 3985 C 380.106 -3.37773 0.276132 0
M  V30 3986 C 379.279 -4.16874 1.3242 0
M  V30 3987 C 378.338 -5.20861 0.747662 0
M  V30 3988 O 377.364 -5.51141 1.42239 0
M  V30 3989 N 378.566 -5.78715 -0.454823 0
M  V30 3990 H 381.331 -2.39748 1.79836 0
M  V30 3991 H 378.892 -1.20258 1.08396 0
M  V30 3992 H 380.884 -4.04513 -0.123133 0
M  V30 3993 H 379.454 -3.07581 -0.557895 0
M  V30 3994 H 378.674 -3.45456 1.89878 0
M  V30 3995 H 379.962 -4.66516 2.03078 0
M  V30 3996 H 379.36 -5.56415 -1.02073 0
M  V30 3997 H 377.917 -6.46921 -0.79601 0
M  V30 3998 N 381.35 -0.985608 -1.22978 0
M  V30 3999 C 382.597 -0.657386 -1.91532 0
M  V30 4000 C 382.925 0.809707 -1.76845 0
M  V30 4001 O 382.18 1.60021 -1.12658 0
M  V30 4002 C 382.479 -1.00014 -3.43121 0
M  V30 4003 C 382.145 -2.4583 -3.77993 0
M  V30 4004 C 380.807 -2.85679 -3.87222 0
M  V30 4005 C 383.159 -3.40378 -3.94705 0
M  V30 4006 C 380.487 -4.19081 -4.10595 0
M  V30 4007 C 382.839 -4.73429 -4.1958 0
M  V30 4008 C 381.503 -5.1303 -4.27032 0
M  V30 4009 H 380.773 -0.240555 -0.700867 0
M  V30 4010 H 383.42 -1.24044 -1.45895 0
M  V30 4011 H 381.725 -0.335072 -3.90365 0
M  V30 4012 H 383.422 -0.724322 -3.94404 0
M  V30 4013 H 380.012 -2.13939 -3.71387 0
M  V30 4014 H 384.196 -3.10766 -3.8696 0
M  V30 4015 H 379.452 -4.49362 -4.14589 0
M  V30 4016 H 383.626 -5.46644 -4.31455 0
M  V30 4017 H 381.253 -6.16418 -4.44896 0
M  V30 4018 N 382.828 1.3818 -0.7579 0
M  V30 4019 C 384.074 2.00316 -0.316453 0
M  V30 4020 C 384.407 1.60026 1.10025 0
M  V30 4021 O 383.682 0.839835 1.75434 0
M  V30 4022 C 383.965 3.57349 -0.444245 0
M  V30 4023 C 383.818 4.07591 -1.90236 0
M  V30 4024 C 385.137 4.3981 0.1598 0
M  V30 4025 H 382.256 0.727741 -0.116459 0
M  V30 4026 H 384.898 1.6406 -0.958352 0
M  V30 4027 H 383.048 3.88365 0.102233 0
M  V30 4028 H 384.72 3.87199 -2.50748 0
M  V30 4029 H 382.963 3.60297 -2.41595 0
M  V30 4030 H 383.634 5.16677 -1.94291 0
M  V30 4031 H 386.11 4.14971 -0.306314 0
M  V30 4032 H 384.986 5.48885 0.0401675 0
M  V30 4033 H 385.247 4.24102 1.24859 0
M  V30 4034 N 384.306 0.507319 1.49211 0
M  V30 4035 C 385.534 -0.0315749 2.06876 0
M  V30 4036 C 385.949 -1.30241 1.36685 0
M  V30 4037 O 385.306 -1.76937 0.447152 0
M  V30 4038 C 385.357 -0.282627 3.60393 0
M  V30 4039 O 385.078 0.937835 4.27944 0
M  V30 4040 C 386.579 -0.864453 4.3479 0
M  V30 4041 H 383.799 0.0233048 0.670595 0
M  V30 4042 H 386.343 0.706484 1.91909 0
M  V30 4043 H 384.498 -0.97068 3.75042 0
M  V30 4044 H 384.912 0.704567 5.19746 0
M  V30 4045 H 386.386 -0.989664 5.43056 0
M  V30 4046 H 386.863 -1.86382 3.97692 0
M  V30 4047 H 387.469 -0.213672 4.24763 0
M  V30 4048 N 385.784 -1.5574 0.241426 0
M  V30 4049 C 387.032 -1.98417 -0.384075 0
M  V30 4050 C 387.353 -1.13078 -1.58866 0
M  V30 4051 O 386.623 -0.212312 -1.94746 0
M  V30 4052 H 385.203 -0.732813 -0.144894 0
M  V30 4053 H 387.865 -1.9193 0.338943 0
M  V30 4054 H 386.961 -3.04219 -0.696939 0
M  V30 4055 N 387.262 0.0317525 -1.57568 0
M  V30 4056 C 388.172 1.05021 -2.0978 0
M  V30 4057 C 389.188 1.39809 -1.03583 0
M  V30 4058 O 390.364 1.49182 -1.35302 0
M  V30 4059 C 387.429 2.33301 -2.56459 0
M  V30 4060 C 386.49 2.0512 -3.77127 0
M  V30 4061 C 385.723 3.27283 -4.2157 0
M  V30 4062 O 385.946 4.37861 -3.65559 0
M  V30 4063 O 384.88 3.13141 -5.14029 0
M  V30 4064 H 388.706 0.636505 -2.96955 0
M  V30 4065 H 386.291 0.248559 -1.47318 0
M  V30 4066 H 388.173 3.08722 -2.86825 0
M  V30 4067 H 386.848 2.73973 -1.72397 0
M  V30 4068 H 385.755 1.27276 -3.51784 0
M  V30 4069 H 387.088 1.69305 -4.62165 0
M  V30 4070 N 388.74 1.54641 0.303973 0
M  V30 4071 C 389.968 1.77768 1.05858 0
M  V30 4072 C 390.383 0.535722 1.8104 0
M  V30 4073 O 389.74 -0.494337 1.75677 0
M  V30 4074 C 389.791 2.9834 2.04146 0
M  V30 4075 O 389.512 4.17736 1.32015 0
M  V30 4076 C 391.013 3.33832 2.91669 0
M  V30 4077 H 388.233 0.592961 0.314067 0
M  V30 4078 H 390.777 2.01583 0.344149 0
M  V30 4079 H 388.932 2.76742 2.71096 0
M  V30 4080 H 389.346 4.85693 1.97998 0
M  V30 4081 H 390.82 4.21448 3.56491 0
M  V30 4082 H 391.297 2.51857 3.59812 0
M  V30 4083 H 391.903 3.57579 2.30254 0
M  V30 4084 N 390.218 -0.567019 1.47046 0
M  V30 4085 C 391.467 -1.32091 1.5243 0
M  V30 4086 C 391.78 -1.94704 0.187021 0
M  V30 4087 O 392.986 -2.7124 0.118771 0
M  V30 4088 C 391.442 -2.39479 2.68659 0
M  V30 4089 C 391.05 -1.831 4.08874 0
M  V30 4090 C 392.794 -3.16111 2.83327 0
M  V30 4091 C 390.701 -2.8821 5.16419 0
M  V30 4092 H 389.631 -0.496629 0.56734 0
M  V30 4093 H 392.282 -0.603354 1.73297 0
M  V30 4094 H 390.664 -3.14105 2.41152 0
M  V30 4095 H 391.838 -1.14913 4.46242 0
M  V30 4096 H 390.153 -1.19085 3.99008 0
M  V30 4097 H 392.75 -3.94585 3.60842 0
M  V30 4098 H 393.093 -3.69686 1.91411 0
M  V30 4099 H 393.626 -2.48595 3.10556 0
M  V30 4100 H 390.365 -2.39504 6.10179 0
M  V30 4101 H 389.885 -3.54839 4.8358 0
M  V30 4102 H 391.564 -3.51881 5.42945 0
M  V30 4103 N 391.696 -1.35014 -0.812953 0
M  V30 4104 C 392.659 -1.27292 -1.90602 0
M  V30 4105 C 393.659 -0.185817 -1.59723 0
M  V30 4106 O 394.849 -0.439102 -1.68575 0
M  V30 4107 C 391.981 -0.967676 -3.26877 0
M  V30 4108 H 393.174 -2.24479 -1.9887 0
M  V30 4109 H 390.727 -1.19446 -1.00808 0
M  V30 4110 H 391.462 0.0005954 -3.243 0
M  V30 4111 H 391.247 -1.75412 -3.50675 0
M  V30 4112 H 392.737 -0.939085 -4.06904 0
M  V30 4113 N 393.175 1.03435 -1.18907 0
M  V30 4114 C 394.085 2.15075 -0.937015 0
M  V30 4115 C 395.101 1.73706 0.101085 0
M  V30 4116 O 396.277 2.01232 -0.0822948 0
M  V30 4117 C 393.342 3.43458 -0.473057 0
M  V30 4118 C 392.403 3.99172 -1.57989 0
M  V30 4119 C 391.636 5.21427 -1.13797 0
M  V30 4120 O 391.859 5.704 0.000725941 0
M  V30 4121 O 390.793 5.69837 -1.9383 0
M  V30 4122 H 394.619 2.39198 -1.87131 0
M  V30 4123 H 392.204 1.13506 -0.971427 0
M  V30 4124 H 394.086 4.20811 -0.222702 0
M  V30 4125 H 392.761 3.20793 0.432869 0
M  V30 4126 H 391.668 3.23178 -1.88433 0
M  V30 4127 H 393.001 4.2619 -2.46217 0
M  V30 4128 N 394.653 0.992116 1.22453 0
M  V30 4129 C 395.616 0.546883 2.2258 0
M  V30 4130 C 396.616 -0.369829 1.56489 0
M  V30 4131 O 397.806 -0.161896 1.73446 0
M  V30 4132 C 394.938 -0.204659 3.40285 0
M  V30 4133 H 396.131 1.43234 2.63484 0
M  V30 4134 H 393.684 0.779239 1.3549 0
M  V30 4135 H 394.419 -1.10614 3.04853 0
M  V30 4136 H 394.204 0.45354 3.89468 0
M  V30 4137 H 395.694 -0.504358 4.14543 0
M  V30 4138 N 396.131 -1.37776 0.765217 0
M  V30 4139 C 397.061 -2.32945 0.160953 0
M  V30 4140 C 398.042 -1.55454 -0.690516 0
M  V30 4141 O 399.227 -1.83721 -0.629318 0
M  V30 4142 C 396.357 -3.39669 -0.724031 0
M  V30 4143 C 395.311 -4.27992 0.0256173 0
M  V30 4144 C 394.637 -5.25673 -0.978383 0
M  V30 4145 C 395.937 -5.08309 1.20082 0
M  V30 4146 H 397.631 -2.83728 0.955969 0
M  V30 4147 H 395.177 -1.36416 0.461149 0
M  V30 4148 H 397.13 -4.05219 -1.15652 0
M  V30 4149 H 395.854 -2.87396 -1.5515 0
M  V30 4150 H 394.513 -3.63964 0.438812 0
M  V30 4151 H 394.161 -4.69682 -1.80022 0
M  V30 4152 H 393.861 -5.85625 -0.481378 0
M  V30 4153 H 395.385 -5.94098 -1.40995 0
M  V30 4154 H 396.799 -5.67034 0.845307 0
M  V30 4155 H 395.196 -5.77554 1.62947 0
M  V30 4156 H 396.266 -4.41365 2.00811 0
M  V30 4157 N 397.609 -0.515225 -1.4894 0
M  V30 4158 C 398.572 0.244681 -2.2789 0
M  V30 4159 C 399.572 0.881166 -1.34507 0
M  V30 4160 O 400.762 0.743497 -1.57537 0
M  V30 4161 C 397.894 1.35247 -3.12923 0
M  V30 4162 H 399.087 -0.448289 -2.96531 0
M  V30 4163 H 396.64 -0.270656 -1.53939 0
M  V30 4164 H 397.375 2.07916 -2.48881 0
M  V30 4165 H 397.16 0.901374 -3.81599 0
M  V30 4166 H 398.65 1.88737 -3.72516 0
M  V30 4167 N 399.087 1.5561 -0.249682 0
M  V30 4168 C 400.035 2.22894 0.664906 0
M  V30 4169 C 401.029 1.21743 1.17792 0
M  V30 4170 O 402.235 1.39748 1.13449 0
M  V30 4171 H 398.61 0.715022 0.232912 0
M  V30 4172 H 400.581 2.98307 0.0742998 0
M  V30 4173 C 399.33 2.94424 1.84959 0
M  V30 4174 H 398.653 3.72031 1.46399 0
M  V30 4175 H 400.093 3.44862 2.4667 0
M  V30 4176 C 398.552 1.98454 2.72245 0
M  V30 4177 O 399.082 1.51939 3.71857 0
M  V30 4178 N 397.288 1.65496 2.38871 0
M  V30 4179 H 396.835 2.03517 1.57919 0
M  V30 4180 H 396.793 1.0155 2.97548 0
M  V30 4181 N 400.565 -0.0233959 1.57583 0
M  V30 4182 C 401.528 -1.00693 2.05897 0
M  V30 4183 C 402.528 -1.28693 0.964092 0
M  V30 4184 O 403.718 -1.23602 1.22753 0
M  V30 4185 C 400.85 -2.33825 2.4807 0
M  V30 4186 H 402.043 -0.589476 2.9405 0
M  V30 4187 H 399.596 -0.270354 1.53944 0
M  V30 4188 H 400.331 -2.80307 1.6309 0
M  V30 4189 H 400.116 -2.1483 3.2801 0
M  V30 4190 H 401.606 -3.04426 2.85857 0
M  V30 4191 N 402.043 -1.548 -0.295768 0
M  V30 4192 C 403.459 -1.4613 -0.641722 0
M  V30 4193 C 403.659 -0.656771 -1.90496 0
M  V30 4194 O 402.715 -0.166547 -2.5195 0
M  V30 4195 C 404.028 -2.90141 -0.789852 0
M  V30 4196 C 405.576 -3.00216 -0.885396 0
M  V30 4197 C 406.051 -4.45434 -1.06548 0
M  V30 4198 N 407.542 -4.49166 -1.13156 0
M  V30 4199 C 408.277 -5.58717 -1.28929 0
M  V30 4200 N 407.773 -6.78182 -1.41567 0
M  V30 4201 N 409.566 -5.46415 -1.31859 0
M  V30 4202 H 401.717 -2.05574 0.534147 0
M  V30 4203 H 403.98 -0.931259 0.177372 0
M  V30 4204 H 403.686 -3.51635 0.0675598 0
M  V30 4205 H 403.56 -3.37859 -1.67724 0
M  V30 4206 H 405.947 -2.38833 -1.73329 0
M  V30 4207 H 406.028 -2.55787 0.0261185 0
M  V30 4208 H 405.672 -5.07413 -0.222335 0
M  V30 4209 H 405.602 -4.87499 -1.9913 0
M  V30 4210 H 408.093 -3.631 -1.04721 0
M  V30 4211 H 408.406 -7.57428 -1.53372 0
M  V30 4212 H 406.751 -6.81037 -1.38613 0
M  V30 4213 H 409.942 -4.5203 -1.21601 0
M  V30 4214 H 410.115 -6.31841 -1.43808 0
M  V30 4215 N 403.521 0.559213 -1.47345 0
M  V30 4216 C 404.468 1.66645 -1.59682 0
M  V30 4217 C 405.438 1.60168 -0.43994 0
M  V30 4218 O 406.623 1.79031 -0.659736 0
M  V30 4219 C 403.763 3.04969 -1.61518 0
M  V30 4220 C 402.876 3.21897 -2.88108 0
M  V30 4221 C 402.011 4.50608 -2.81294 0
M  V30 4222 C 401.05 4.60961 -4.02717 0
M  V30 4223 N 400.187 5.81024 -3.94151 0
M  V30 4224 H 405.027 1.55439 -2.54249 0
M  V30 4225 H 402.564 0.757219 -1.26113 0
M  V30 4226 H 404.522 3.85064 -1.60566 0
M  V30 4227 H 403.152 3.15015 -0.704645 0
M  V30 4228 H 402.204 2.35248 -2.98936 0
M  V30 4229 H 403.516 3.25412 -3.78032 0
M  V30 4230 H 402.67 5.3896 -2.7858 0
M  V30 4231 H 401.409 4.49568 -1.89049 0
M  V30 4232 H 400.414 3.71021 -4.05738 0
M  V30 4233 H 401.639 4.63761 -4.96087 0
M  V30 4234 H 399.585 5.80938 -3.04708 0
M  V30 4235 H 399.502 5.85909 -4.77752 0
M  V30 4236 H 400.77 6.71744 -3.9545 0
M  V30 4237 N 404.999 1.35443 0.805782 0
M  V30 4238 C 405.929 1.31095 1.93226 0
M  V30 4239 C 406.91 0.185244 1.69088 0
M  V30 4240 O 408.095 0.380332 1.90439 0
M  V30 4241 C 405.225 1.08299 3.29983 0
M  V30 4242 C 404.179 2.17519 3.68605 0
M  V30 4243 C 403.505 1.79887 5.03532 0
M  V30 4244 C 404.805 3.5949 3.78898 0
M  V30 4245 H 406.499 2.25352 1.97122 0
M  V30 4246 H 404.045 1.0848 0.946996 0
M  V30 4247 H 405.998 1.03897 4.08391 0
M  V30 4248 H 404.722 0.104885 3.26432 0
M  V30 4249 H 403.381 2.2102 2.92482 0
M  V30 4250 H 403.029 0.80693 4.96485 0
M  V30 4251 H 402.729 2.53001 5.30344 0
M  V30 4252 H 404.253 1.77011 5.84379 0
M  V30 4253 H 405.667 3.58307 4.47536 0
M  V30 4254 H 404.064 4.31371 4.1718 0
M  V30 4255 H 405.134 3.95584 2.80431 0
M  V30 4256 N 406.477 -1.02803 1.19454 0
M  V30 4257 C 407.387 -2.14575 0.948408 0
M  V30 4258 C 408.403 -1.73757 -0.091871 0
M  V30 4259 O 409.579 -2.01185 0.0929654 0
M  V30 4260 C 406.644 -3.43202 0.491265 0
M  V30 4261 C 405.705 -3.98328 1.60103 0
M  V30 4262 C 404.938 -5.20816 1.16561 0
M  V30 4263 O 405.161 -5.70392 0.0295238 0
M  V30 4264 O 404.095 -5.68801 1.96849 0
M  V30 4265 H 407.921 -2.38202 1.88397 0
M  V30 4266 H 405.506 -1.12989 0.977433 0
M  V30 4267 H 407.388 -4.20687 0.245015 0
M  V30 4268 H 406.063 -3.21018 -0.415851 0
M  V30 4269 H 404.97 -3.22174 1.90144 0
M  V30 4270 H 406.303 -4.24879 2.48473 0
M  V30 4271 N 407.956 -0.998596 -1.21925 0
M  V30 4272 C 408.866 -0.562736 -2.27751 0
M  V30 4273 C 409.882 0.391203 -1.69545 0
M  V30 4274 O 411.058 0.256625 -1.99758 0
M  V30 4275 C 408.123 0.11012 -3.46525 0
M  V30 4276 C 407.184 -0.887495 -4.20026 0
M  V30 4277 C 406.417 -0.246654 -5.3313 0
M  V30 4278 O 406.64 0.958088 -5.62296 0
M  V30 4279 O 405.574 -0.954374 -5.94286 0
M  V30 4280 H 409.4 -1.44329 -2.67213 0
M  V30 4281 H 406.985 -0.767135 -1.28201 0
M  V30 4282 H 408.867 0.486756 -4.18579 0
M  V30 4283 H 407.542 0.965154 -3.08976 0
M  V30 4284 H 406.449 -1.31517 -3.5022 0
M  V30 4285 H 407.782 -1.71191 -4.6147 0
M  V30 4286 N 409.434 1.37368 -0.772513 0
M  V30 4287 C 410.381 2.30262 -0.157488 0
M  V30 4288 C 411.351 1.51137 0.688965 0
M  V30 4289 O 412.536 1.79704 0.641168 0
M  V30 4290 C 409.676 3.37611 0.715045 0
M  V30 4291 C 408.789 4.31746 -0.148098 0
M  V30 4292 C 407.924 5.26171 0.729213 0
M  V30 4293 C 406.963 6.11948 -0.136418 0
M  V30 4294 N 406.1 6.98613 0.698914 0
M  V30 4295 H 410.94 2.82277 -0.955179 0
M  V30 4296 H 408.477 1.38957 -0.482631 0
M  V30 4297 H 410.435 3.98479 1.23575 0
M  V30 4298 H 409.065 2.86959 1.47833 0
M  V30 4299 H 408.117 3.72178 -0.786613 0
M  V30 4300 H 409.429 4.92084 -0.81579 0
M  V30 4301 H 408.583 5.92247 1.31637 0
M  V30 4302 H 407.322 4.66246 1.43059 0
M  V30 4303 H 406.327 5.4485 -0.736102 0
M  V30 4304 H 407.552 6.73945 -0.835134 0
M  V30 4305 H 405.498 6.41215 1.38489 0
M  V30 4306 H 405.415 7.55948 0.0885358 0
M  V30 4307 H 406.683 7.69077 1.27044 0
M  V30 4308 N 410.912 0.523116 1.48665 0
M  V30 4309 C 412.16 -0.0134497 2.02096 0
M  V30 4310 C 412.481 -1.35418 1.40311 0
M  V30 4311 O 411.751 -1.87543 0.566074 0
M  V30 4312 H 410.331 -0.00795915 0.746958 0
M  V30 4313 H 412.993 0.685388 1.82451 0
M  V30 4314 H 412.089 -0.126849 3.11842 0
M  V30 4315 N 412.39 -1.55475 0.257931 0
M  V30 4316 C 413.637 -1.99207 -0.363728 0
M  V30 4317 C 413.965 -1.1462 -1.57139 0
M  V30 4318 O 413.22 -0.199653 -1.94679 0
M  V30 4319 C 413.519 -3.48183 -0.806433 0
M  V30 4320 C 413.185 -4.49936 0.294684 0
M  V30 4321 C 411.847 -4.77481 0.597076 0
M  V30 4322 C 414.199 -5.10769 1.03751 0
M  V30 4323 C 411.527 -5.63132 1.64618 0
M  V30 4324 C 413.879 -5.97558 2.07622 0
M  V30 4325 C 412.543 -6.23432 2.38514 0
M  V30 4326 H 411.813 -0.728949 -0.133097 0
M  V30 4327 H 414.46 -1.8793 0.368059 0
M  V30 4328 H 412.765 -3.56848 -1.61761 0
M  V30 4329 H 414.462 -3.79415 -1.29789 0
M  V30 4330 H 411.052 -4.28572 0.0488649 0
M  V30 4331 H 415.236 -4.89527 0.817149 0
M  V30 4332 H 410.492 -5.8143 1.89074 0
M  V30 4333 H 414.666 -6.43735 2.65666 0
M  V30 4334 H 412.293 -6.89594 3.19943 0
M  V30 4335 N 413.868 0.0150385 -1.57593 0
M  V30 4336 C 415.284 0.370907 -1.5523 0
M  V30 4337 C 415.484 1.75735 -0.985882 0
M  V30 4338 O 414.54 2.44944 -0.613077 0
M  V30 4339 C 415.853 0.259908 -2.99575 0
M  V30 4340 C 417.401 0.335959 -3.11192 0
M  V30 4341 C 417.876 0.254253 -4.57294 0
M  V30 4342 N 419.367 0.312618 -4.62144 0
M  V30 4343 C 420.102 0.272505 -5.72752 0
M  V30 4344 N 419.598 0.183864 -6.92556 0
M  V30 4345 N 421.391 0.323267 -5.6117 0
M  V30 4346 H 413.542 -0.892104 -1.92757 0
M  V30 4347 H 415.805 -0.340563 -0.884715 0
M  V30 4348 H 415.511 -0.693403 -3.44797 0
M  V30 4349 H 415.385 1.048 -3.62349 0
M  V30 4350 H 417.772 1.27971 -2.65909 0
M  V30 4351 H 417.853 -0.481739 -2.51223 0
M  V30 4352 H 417.497 -0.685887 -5.03247 0
M  V30 4353 H 417.427 1.09024 -5.15191 0
M  V30 4354 H 419.918 0.38307 -3.75953 0
M  V30 4355 H 420.231 0.15874 -7.72637 0
M  V30 4356 H 418.576 0.149708 -6.94839 0
M  V30 4357 H 421.767 0.390607 -4.66467 0
M  V30 4358 H 421.94 0.288539 -6.47357 0
M  V30 4359 N 415.346 1.54954 0.287554 0
M  V30 4360 C 416.576 1.78622 1.03816 0
M  V30 4361 C 416.984 0.552451 1.80955 0
M  V30 4362 O 416.327 -0.487665 1.77109 0
M  V30 4363 C 416.389 2.94975 2.055 0
M  V30 4364 C 416.053 4.32565 1.47433 0
M  V30 4365 C 417.05 5.12096 0.897436 0
M  V30 4366 C 414.735 4.79195 1.50591 0
M  V30 4367 C 416.729 6.36383 0.359851 0
M  V30 4368 C 414.416 6.03441 0.964459 0
M  V30 4369 C 415.414 6.81872 0.392413 0
M  V30 4370 O 415.102 8.03777 -0.140788 0
M  V30 4371 H 414.834 0.599144 0.313053 0
M  V30 4372 H 417.388 2.02761 0.328225 0
M  V30 4373 H 415.618 2.66493 2.80211 0
M  V30 4374 H 417.307 3.06097 2.6657 0
M  V30 4375 H 418.073 4.77209 0.865841 0
M  V30 4376 H 413.952 4.18167 1.94055 0
M  V30 4377 H 417.496 6.97545 -0.0872951 0
M  V30 4378 H 413.393 6.37813 0.993246 0
M  V30 4379 H 414.161 8.18495 -0.0287617 0
M  V30 4380 N 416.824 -0.551391 1.4764 0
M  V30 4381 C 418.049 -1.33837 1.58437 0
M  V30 4382 C 418.474 -1.866 0.237063 0
M  V30 4383 O 417.832 -1.6328 -0.787994 0
M  V30 4384 C 417.88 -2.48014 2.61766 0
M  V30 4385 O 416.984 -3.50419 2.1744 0
M  V30 4386 H 416.325 -0.397299 0.532024 0
M  V30 4387 H 418.855 -0.665759 1.93465 0
M  V30 4388 H 418.865 -2.94503 2.82369 0
M  V30 4389 H 417.54 -2.08969 3.5959 0
M  V30 4390 H 416.117 -3.10196 2.06961 0
M  V30 4391 N 418.302 -1.35869 -0.798587 0
M  V30 4392 C 419.532 -1.32529 -1.58491 0
M  V30 4393 C 419.94 0.0975405 -1.88948 0
M  V30 4394 O 419.283 1.06224 -1.49874 0
M  V30 4395 C 419.345 -2.07247 -2.9375 0
M  V30 4396 C 419.009 -3.56391 -2.86068 0
M  V30 4397 C 420.006 -4.50824 -2.58947 0
M  V30 4398 C 417.691 -3.9915 -3.04933 0
M  V30 4399 C 419.685 -5.85993 -2.5078 0
M  V30 4400 C 417.372 -5.34413 -2.96389 0
M  V30 4401 C 418.37 -6.27646 -2.69349 0
M  V30 4402 O 418.058 -7.60426 -2.60782 0
M  V30 4403 H 417.79 -0.456529 -0.498556 0
M  V30 4404 H 420.344 -1.79425 -0.999799 0
M  V30 4405 H 418.574 -1.55001 -3.54276 0
M  V30 4406 H 420.263 -1.96883 -3.54954 0
M  V30 4407 H 421.029 -4.19104 -2.44084 0
M  V30 4408 H 416.908 -3.26961 -3.24989 0
M  V30 4409 H 420.452 -6.58735 -2.29595 0
M  V30 4410 H 416.349 -5.65743 -3.10813 0
M  V30 4411 H 417.117 -7.70444 -2.76331 0
M  V30 4412 N 419.78 1.02168 -1.19998 0
M  V30 4413 C 421.057 1.72816 -0.916191 0
M  V30 4414 C 421.437 2.03081 0.576325 0
M  V30 4415 O 420.785 1.69122 1.53656 0
M  V30 4416 C 420.995 2.9997 -1.78378 0
M  V30 4417 C 422.343 3.73336 -2.02251 0
M  V30 4418 O 423.367 3.09914 -1.75589 0
M  V30 4419 O 422.226 4.87371 -2.47249 0
M  V30 4420 H 419.32 0.752924 -0.342103 0
M  V30 4421 H 421.866 1.08062 -1.30846 0
M  V30 4422 H 420.638 2.73888 -2.79466 0
M  V30 4423 H 420.261 3.72464 -1.39126 0
M  V30 4424 N 421.258 1.00505 1.21394 0
M  V30 4425 C 422.191 0.51032 2.22421 0
M  V30 4426 C 423.169 -0.436 1.56645 0
M  V30 4427 O 424.353 -0.358709 1.85055 0
M  V30 4428 C 421.48 -0.258733 3.3771 0
M  V30 4429 C 420.526 0.635395 4.2174 0
M  V30 4430 S 421.359 2.09783 4.92698 0
M  V30 4431 C 422.515 1.33862 6.11418 0
M  V30 4432 H 422.748 1.36637 2.64041 0
M  V30 4433 H 420.281 0.812991 1.31262 0
M  V30 4434 H 422.239 -0.696372 4.0455 0
M  V30 4435 H 420.9 -1.0902 2.94573 0
M  V30 4436 H 420.093 0.0430189 5.03982 0
M  V30 4437 H 419.695 1.01031 3.60095 0
M  V30 4438 H 421.987 0.612541 6.74725 0
M  V30 4439 H 422.93 2.13675 6.75092 0
M  V30 4440 H 423.338 0.846568 5.58116 0
M  V30 4441 N 422.737 -1.36956 0.779787 0
M  V30 4442 C 423.667 -2.32761 0.185651 0
M  V30 4443 C 424.648 -1.56177 -0.673989 0
M  V30 4444 O 425.833 -1.84378 -0.609797 0
M  V30 4445 C 422.963 -3.40418 -0.687964 0
M  V30 4446 C 421.917 -4.27941 0.0710102 0
M  V30 4447 C 421.243 -5.26681 -0.922573 0
M  V30 4448 C 422.543 -5.07006 1.25467 0
M  V30 4449 H 424.237 -2.82698 0.986008 0
M  V30 4450 H 421.783 -1.3592 0.475592 0
M  V30 4451 H 423.736 -4.06423 -1.11348 0
M  V30 4452 H 422.46 -2.89025 -1.52093 0
M  V30 4453 H 421.119 -3.63478 0.47739 0
M  V30 4454 H 420.767 -4.71565 -1.7503 0
M  V30 4455 H 420.467 -5.86103 -0.419237 0
M  V30 4456 H 421.991 -5.9556 -1.34686 0
M  V30 4457 H 423.405 -5.66105 0.905401 0
M  V30 4458 H 421.802 -5.75793 1.69063 0
M  V30 4459 H 422.872 -4.3921 2.05481 0
M  V30 4460 N 424.215 -0.530993 -1.48385 0
M  V30 4461 C 425.463 0.00273189 -2.021 0
M  V30 4462 C 425.784 1.34672 -1.41027 0
M  V30 4463 O 425.054 1.8724 -0.576012 0
M  V30 4464 H 423.634 0.00399774 -0.746989 0
M  V30 4465 H 426.296 -0.695054 -1.82085 0
M  V30 4466 H 425.392 0.11031 -3.11905 0
M  V30 4467 N 425.693 1.55336 -0.266172 0
M  V30 4468 C 426.603 2.2583 0.635458 0
M  V30 4469 C 427.619 1.28106 1.17749 0
M  V30 4470 O 428.795 1.61024 1.20968 0
M  V30 4471 C 425.86 2.95879 1.80712 0
M  V30 4472 C 424.921 4.09059 1.30265 0
M  V30 4473 C 424.154 4.75759 2.41846 0
M  V30 4474 O 424.377 4.41622 3.61007 0
M  V30 4475 O 423.311 5.63888 2.1051 0
M  V30 4476 H 427.137 3.03631 0.0646693 0
M  V30 4477 H 424.722 1.49361 -0.0339177 0
M  V30 4478 H 426.604 3.39932 2.49047 0
M  V30 4479 H 425.279 2.21002 2.36516 0
M  V30 4480 H 424.186 3.69482 0.586019 0
M  V30 4481 H 425.519 4.85811 0.790458 0
M  V30 4482 N 427.171 -0.0066808 1.57599 0
M  V30 4483 C 428.134 -0.985035 2.06953 0
M  V30 4484 C 429.134 -1.27663 0.977687 0
M  V30 4485 O 430.324 -1.22293 1.24057 0
M  V30 4486 C 427.456 -2.3118 2.50536 0
M  V30 4487 H 428.649 -0.558255 2.94658 0
M  V30 4488 H 426.202 -0.254011 1.54222 0
M  V30 4489 H 426.937 -2.78561 1.66054 0
M  V30 4490 H 426.722 -2.11338 3.3027 0
M  V30 4491 H 428.212 -3.01377 2.8907 0
M  V30 4492 N 428.649 -1.55105 -0.279332 0
M  V30 4493 C 429.612 -1.86783 -1.32834 0
M  V30 4494 C 430.612 -0.74199 -1.42657 0
M  V30 4495 O 431.802 -1.0102 -1.41918 0
M  V30 4496 C 428.934 -2.06746 -2.71052 0
M  V30 4497 H 430.127 -2.8055 -1.05979 0
M  V30 4498 H 427.68 -1.47499 -0.517087 0
M  V30 4499 H 428.415 -1.15339 -3.03097 0
M  V30 4500 H 428.2 -2.88711 -2.65309 0
M  V30 4501 H 429.69 -2.32549 -3.46858 0
M  V30 4502 N 430.127 0.543554 -1.4793 0
M  V30 4503 C 431.057 1.65888 -1.64327 0
M  V30 4504 C 432.038 1.62818 -0.492383 0
M  V30 4505 O 433.223 1.80226 -0.723338 0
M  V30 4506 C 430.353 3.04506 -1.67013 0
M  V30 4507 C 429.307 3.2243 -2.81466 0
M  V30 4508 C 428.633 4.61972 -2.69233 0
M  V30 4509 C 429.933 3.06496 -4.22915 0
M  V30 4510 H 431.627 1.52421 -2.57698 0
M  V30 4511 H 429.173 0.731849 -1.24016 0
M  V30 4512 H 431.126 3.82391 -1.77074 0
M  V30 4513 H 429.85 3.18964 -0.70212 0
M  V30 4514 H 428.509 2.46957 -2.70938 0
M  V30 4515 H 428.157 4.73247 -1.7043 0
M  V30 4516 H 427.857 4.74911 -3.46025 0
M  V30 4517 H 429.381 5.41974 -2.81242 0
M  V30 4518 H 430.795 3.74186 -4.34348 0
M  V30 4519 H 429.192 3.30938 -5.006 0
M  V30 4520 H 430.262 2.03077 -4.40327 0
M  V30 4521 N 431.605 1.3629 0.791371 0
M  V30 4522 C 432.833 1.33562 1.58016 0
M  V30 4523 C 433.248 -0.0835616 1.88615 0
M  V30 4524 O 432.605 -1.0399 1.49974 0
M  V30 4525 C 432.656 2.15517 2.90232 0
M  V30 4526 O 432.377 3.51902 2.60953 0
M  V30 4527 C 433.878 2.20546 3.84544 0
M  V30 4528 H 431.098 0.458226 0.490173 0
M  V30 4529 H 433.642 1.79361 0.982345 0
M  V30 4530 H 431.797 1.73278 3.46487 0
M  V30 4531 H 432.211 3.94644 3.4548 0
M  V30 4532 H 433.685 2.82252 4.74382 0
M  V30 4533 H 434.162 1.20838 4.2225 0
M  V30 4534 H 434.768 2.63013 3.34222 0
M  V30 4535 N 433.083 -1.0153 1.20538 0
M  V30 4536 C 434.046 -2.0826 0.957098 0
M  V30 4537 C 435.046 -1.60657 -0.0678655 0
M  V30 4538 O 436.236 -1.73385 0.168332 0
M  V30 4539 C 433.368 -3.38033 0.441188 0
M  V30 4540 H 434.561 -2.31719 1.90384 0
M  V30 4541 H 432.114 -1.1835 1.02093 0
M  V30 4542 H 432.849 -3.20249 -0.510961 0
M  V30 4543 H 432.634 -3.73911 1.18038 0
M  V30 4544 H 434.124 -4.16613 0.287009 0
M  V30 4545 N 434.561 -1.01147 -1.20859 0
M  V30 4546 C 435.524 -0.582224 -2.21682 0
M  V30 4547 C 436.524 0.344887 -1.57058 0
M  V30 4548 O 437.714 0.134281 -1.73682 0
M  V30 4549 C 434.846 0.150496 -3.40568 0
M  V30 4550 H 436.039 -1.47408 -2.61172 0
M  V30 4551 H 433.592 -0.800695 -1.34233 0
M  V30 4552 H 434.327 1.0575 -3.06574 0
M  V30 4553 H 434.112 -0.515444 -3.88697 0
M  V30 4554 H 435.602 0.438344 -4.15293 0
M  V30 4555 N 436.039 1.36541 -0.78704 0
M  V30 4556 C 437.316 1.9355 -0.282424 0
M  V30 4557 C 437.696 1.71919 1.22503 0
M  V30 4558 O 437.044 1.07677 2.01539 0
M  V30 4559 C 437.254 3.4246 -0.672462 0
M  V30 4560 C 438.602 4.19582 -0.650863 0
M  V30 4561 O 439.626 3.50889 -0.612789 0
M  V30 4562 O 438.485 5.42106 -0.691623 0
M  V30 4563 H 435.579 0.824091 -0.0693 0
M  V30 4564 H 438.125 1.45736 -0.869423 0
M  V30 4565 H 436.897 3.51851 -1.71221 0
M  V30 4566 H 436.52 3.97556 -0.0592211 0
M  V30 4567 N 437.518 0.538854 1.48102 0
M  V30 4568 C 438.481 -0.208395 2.28251 0
M  V30 4569 C 439.481 -0.859656 1.35892 0
M  V30 4570 O 440.671 -0.71834 1.58699 0
M  V30 4571 C 437.803 -1.30252 3.15035 0
M  V30 4572 H 438.996 0.495407 2.9578 0
M  V30 4573 H 436.549 0.295112 1.53489 0
M  V30 4574 H 437.284 -2.0393 2.52157 0
M  V30 4575 H 437.069 -0.840551 3.82985 0
M  V30 4576 H 438.559 -1.82787 3.75471 0
M  V30 4577 N 438.996 -1.55193 0.274407 0
M  V30 4578 C 439.928 -2.1989 -0.646595 0
M  V30 4579 C 440.941 -1.1834 -1.11801 0
M  V30 4580 O 442.13 -1.4507 -1.04004 0
M  V30 4581 C 439.23 -2.8104 -1.89393 0
M  V30 4582 C 438.403 -4.08274 -1.56943 0
M  V30 4583 C 437.462 -4.53478 -2.66916 0
M  V30 4584 O 436.488 -5.19267 -2.33132 0
M  V30 4585 N 437.69 -4.2356 -3.9696 0
M  V30 4586 H 440.455 -2.99556 -0.0928686 0
M  V30 4587 H 438.016 -1.61618 0.0954783 0
M  V30 4588 H 440.008 -3.08226 -2.62257 0
M  V30 4589 H 438.578 -2.05372 -2.35672 0
M  V30 4590 H 437.798 -3.88384 -0.674655 0
M  V30 4591 H 439.086 -4.91173 -1.32764 0
M  V30 4592 H 438.484 -3.70799 -4.27229 0
M  V30 4593 H 437.041 -4.55518 -4.66205 0
M  V30 4594 N 440.474 -0.00167713 -1.576 0
M  V30 4595 C 441.437 0.974046 -2.07473 0
M  V30 4596 C 442.437 1.27143 -0.984444 0
M  V30 4597 O 443.627 1.21633 -1.24703 0
M  V30 4598 C 440.759 2.29849 -2.51759 0
M  V30 4599 H 441.952 0.54262 -2.9495 0
M  V30 4600 H 439.505 0.245829 -1.54355 0
M  V30 4601 H 440.24 2.77677 -1.67529 0
M  V30 4602 H 440.025 2.09584 -3.31386 0
M  V30 4603 H 441.515 2.9984 -2.90664 0
M  V30 4604 N 441.952 1.55251 0.271103 0
M  V30 4605 C 443.182 1.79713 1.01916 0
M  V30 4606 C 443.59 0.571613 1.80359 0
M  V30 4607 O 442.933 -0.468853 1.77616 0
M  V30 4608 C 442.995 2.97138 2.02359 0
M  V30 4609 C 442.659 4.34104 1.42837 0
M  V30 4610 C 443.656 5.13019 0.843071 0
M  V30 4611 C 441.341 4.80765 1.455 0
M  V30 4612 C 443.335 6.36729 0.292333 0
M  V30 4613 C 441.022 6.0443 0.900402 0
M  V30 4614 C 442.02 6.8225 0.32007 0
M  V30 4615 O 441.708 8.03582 -0.226031 0
M  V30 4616 H 441.44 0.602431 0.306681 0
M  V30 4617 H 443.994 2.03097 0.306701 0
M  V30 4618 H 442.224 2.6945 2.77369 0
M  V30 4619 H 443.913 3.08907 2.63309 0
M  V30 4620 H 444.679 4.781 0.815178 0
M  V30 4621 H 440.558 4.20202 1.89609 0
M  V30 4622 H 444.102 6.97414 -0.161274 0
M  V30 4623 H 439.999 6.3883 0.925541 0
M  V30 4624 H 440.767 8.18418 -0.115572 0
M  V30 4625 N 443.43 -0.535701 1.48216 0
M  V30 4626 C 444.363 -1.65726 1.56876 0
M  V30 4627 C 445.341 -1.57094 0.419542 0
M  V30 4628 O 446.525 -1.77648 0.630352 0
M  V30 4629 C 443.652 -3.04096 1.49142 0
M  V30 4630 C 442.698 -3.31105 2.68834 0
M  V30 4631 S 443.531 -3.18001 4.30854 0
M  V30 4632 C 444.687 -4.58828 4.25709 0
M  V30 4633 H 444.92 -1.58129 2.51759 0
M  V30 4634 H 442.453 -0.718218 1.36678 0
M  V30 4635 H 444.411 -3.839 1.45366 0
M  V30 4636 H 443.072 -3.09139 0.556067 0
M  V30 4637 H 442.265 -4.32033 2.59545 0
M  V30 4638 H 441.867 -2.58961 2.69843 0
M  V30 4639 H 444.159 -5.5023 3.95289 0
M  V30 4640 H 445.102 -4.73172 5.26796 0
M  V30 4641 H 445.51 -4.37883 3.56257 0
M  V30 4642 N 444.908 -1.36708 -0.784132 0
M  V30 4643 C 446.154 -1.31426 -1.54451 0
M  V30 4644 C 446.487 0.10476 -1.93917 0
M  V30 4645 O 445.762 1.05934 -1.6312 0
M  V30 4646 C 446.045 -2.24189 -2.818 0
M  V30 4647 C 445.898 -3.74813 -2.48667 0
M  V30 4648 C 447.217 -2.15626 -3.83658 0
M  V30 4649 H 444.336 -0.478739 -0.560337 0
M  V30 4650 H 446.978 -1.67305 -0.900498 0
M  V30 4651 H 445.128 -1.93722 -3.36755 0
M  V30 4652 H 446.8 -4.15823 -1.99722 0
M  V30 4653 H 445.043 -3.93989 -1.81535 0
M  V30 4654 H 445.714 -4.35138 -3.39646 0
M  V30 4655 H 448.19 -2.42456 -3.38163 0
M  V30 4656 H 447.066 -2.82694 -4.70506 0
M  V30 4657 H 447.327 -1.14522 -4.27009 0
M  V30 4658 N 446.386 1.0089 -1.21074 0
M  V30 4659 C 447.611 1.78727 -1.05221 0
M  V30 4660 C 448.036 1.83932 0.393795 0
M  V30 4661 O 447.394 1.28004 1.28393 0
M  V30 4662 C 447.442 3.20665 -1.64944 0
M  V30 4663 O 446.546 4.02632 -0.892273 0
M  V30 4664 H 445.887 0.550973 -0.370574 0
M  V30 4665 H 448.417 1.26847 -1.60534 0
M  V30 4666 H 448.427 3.71352 -1.69002 0
M  V30 4667 H 447.102 3.16191 -2.70177 0
M  V30 4668 H 445.679 3.61207 -0.926492 0
M  V30 4669 N 447.864 1.01787 1.20321 0
M  V30 4670 C 449.094 0.72614 1.93419 0
M  V30 4671 C 449.502 -0.717317 1.75075 0
M  V30 4672 O 448.845 -1.49836 1.06278 0
M  V30 4673 C 448.907 0.983621 3.45782 0
M  V30 4674 C 448.571 2.41645 3.87888 0
M  V30 4675 C 449.568 3.39732 3.93545 0
M  V30 4676 C 447.253 2.75752 4.19841 0
M  V30 4677 C 449.247 4.69988 4.30569 0
M  V30 4678 C 446.934 4.06221 4.56539 0
M  V30 4679 C 447.932 5.0315 4.61876 0
M  V30 4680 O 447.62 6.31284 4.97731 0
M  V30 4681 H 447.352 0.265824 0.621541 0
M  V30 4682 H 449.906 1.3623 1.53722 0
M  V30 4683 H 448.136 0.290301 3.85609 0
M  V30 4684 H 449.825 0.683279 4.00108 0
M  V30 4685 H 450.591 3.14718 3.69022 0
M  V30 4686 H 446.47 2.00993 4.14877 0
M  V30 4687 H 450.014 5.45642 4.3465 0
M  V30 4688 H 445.911 4.31013 4.80518 0
M  V30 4689 H 446.679 6.35591 5.15719 0
M  V30 4690 N 449.342 -1.36122 0.79427 0
M  V30 4691 C 450.274 -2.28683 0.153903 0
M  V30 4692 C 451.287 -1.49707 -0.639669 0
M  V30 4693 O 452.476 -1.7209 -0.474054 0
M  V30 4694 C 449.576 -3.29202 -0.804921 0
M  V30 4695 C 448.749 -4.37358 -0.060366 0
M  V30 4696 C 447.808 -5.17811 -0.935849 0
M  V30 4697 O 446.834 -5.67853 -0.391309 0
M  V30 4698 N 448.036 -5.34721 -2.25951 0
M  V30 4699 H 450.801 -2.84278 0.949008 0
M  V30 4700 H 448.362 -1.4834 0.648611 0
M  V30 4701 H 450.354 -3.79914 -1.39455 0
M  V30 4702 H 448.924 -2.74212 -1.50088 0
M  V30 4703 H 448.144 -3.87746 0.710382 0
M  V30 4704 H 449.432 -5.06777 0.45324 0
M  V30 4705 H 448.83 -4.95687 -2.72601 0
M  V30 4706 H 447.387 -5.88657 -2.79867 0
M  V30 4707 N 450.82 -0.546701 -1.47814 0
M  V30 4708 C 451.752 0.244196 -2.27895 0
M  V30 4709 C 452.765 0.88911 -1.36377 0
M  V30 4710 O 453.954 0.764733 -1.61289 0
M  V30 4711 C 451.054 1.36252 -3.10304 0
M  V30 4712 C 450.227 0.816382 -4.29714 0
M  V30 4713 C 449.286 1.81789 -4.93801 0
M  V30 4714 O 448.312 1.36818 -5.52512 0
M  V30 4715 N 449.514 3.15085 -4.87547 0
M  V30 4716 H 452.279 -0.442694 -2.96412 0
M  V30 4717 H 449.84 -0.382095 -1.57327 0
M  V30 4718 H 451.832 2.03102 -3.50045 0
M  V30 4719 H 450.402 1.95281 -2.44099 0
M  V30 4720 H 449.622 -0.0285981 -3.9419 0
M  V30 4721 H 450.91 0.430668 -5.06974 0
M  V30 4722 H 450.308 3.54275 -4.41028 0
M  V30 4723 H 448.865 3.77522 -5.31339 0
M  V30 4724 N 452.299 1.55045 -0.282633 0
M  V30 4725 C 453.262 2.21515 0.588539 0
M  V30 4726 C 454.262 1.19535 1.07554 0
M  V30 4727 O 455.452 1.44391 0.974514 0
M  V30 4728 C 452.584 2.88704 1.8128 0
M  V30 4729 H 453.777 2.99899 0.00806397 0
M  V30 4730 H 451.33 1.56265 -0.0333067 0
M  V30 4731 H 452.065 2.14352 2.43359 0
M  V30 4732 H 451.85 3.63443 1.47144 0
M  V30 4733 H 453.34 3.39465 2.43214 0
M  V30 4734 N 453.777 0.010035 1.57597 0
M  V30 4735 C 455.026 -0.671945 1.90178 0
M  V30 4736 C 455.339 -1.74376 0.886131 0
M  V30 4737 O 456.545 -2.48107 1.10252 0
M  V30 4738 C 455.001 -1.24636 3.3763 0
M  V30 4739 C 454.609 -0.208838 4.47513 0
M  V30 4740 C 456.353 -1.90595 3.79307 0
M  V30 4741 C 454.26 -0.793814 5.86048 0
M  V30 4742 H 453.19 -0.25474 0.709665 0
M  V30 4743 H 455.841 0.0722206 1.83358 0
M  V30 4744 H 454.223 -2.04152 3.3932 0
M  V30 4745 H 455.397 0.562463 4.57354 0
M  V30 4746 H 453.712 0.350889 4.14919 0
M  V30 4747 H 456.309 -2.35284 4.80151 0
M  V30 4748 H 456.652 -2.74074 3.13352 0
M  V30 4749 H 457.185 -1.17798 3.79958 0
M  V30 4750 H 453.924 0.00240855 6.555 0
M  V30 4751 H 453.444 -1.53404 5.79851 0
M  V30 4752 H 455.123 -1.2894 6.34022 0
M  V30 4753 N 455.255 -1.55392 -0.262866 0
M  V30 4754 C 456.205 -1.85355 -1.32768 0
M  V30 4755 C 457.189 -0.713188 -1.44231 0
M  V30 4756 O 458.381 -0.974765 -1.47741 0
M  V30 4757 C 455.51 -2.13781 -2.68612 0
M  V30 4758 C 454.596 -3.34104 -2.61219 0
M  V30 4759 N 454.987 -4.53766 -2.2345 0
M  V30 4760 C 453.285 -3.36895 -2.92263 0
M  V30 4761 C 453.986 -5.35877 -2.26298 0
M  V30 4762 N 452.962 -4.74536 -2.65172 0
M  V30 4763 H 456.764 -2.75413 -1.02591 0
M  V30 4764 H 454.278 -1.55405 -0.471503 0
M  V30 4765 H 456.275 -2.33407 -3.45437 0
M  V30 4766 H 454.935 -1.25013 -2.99669 0
M  V30 4767 H 455.946 -4.79682 -1.95258 0
M  V30 4768 H 452.623 -2.58351 -3.27965 0
M  V30 4769 H 454.013 -6.41577 -1.99572 0
M  V30 4770 N 456.733 0.527833 -1.48498 0
M  V30 4771 C 457.696 1.61439 -1.62696 0
M  V30 4772 C 458.696 1.52824 -0.500136 0
M  V30 4773 O 459.886 1.56456 -0.765976 0
M  V30 4774 C 457.018 3.01063 -1.59918 0
M  V30 4775 H 458.211 1.50189 -2.59583 0
M  V30 4776 H 455.764 0.750055 -1.37127 0
M  V30 4777 H 456.499 3.17818 -0.645163 0
M  V30 4778 H 456.284 3.08725 -2.41726 0
M  V30 4779 H 457.774 3.80057 -1.73051 0
M  V30 4780 N 458.211 1.37122 0.776871 0
M  V30 4781 C 459.46 1.31373 1.53049 0
M  V30 4782 C 459.773 -0.101016 1.95339 0
M  V30 4783 O 460.979 -0.280953 2.70042 0
M  V30 4784 C 459.435 2.30567 2.76346 0
M  V30 4785 C 459.043 3.77543 2.41175 0
M  V30 4786 C 460.787 2.33818 3.54301 0
M  V30 4787 C 458.694 4.68481 3.60943 0
M  V30 4788 H 457.624 0.488234 0.574581 0
M  V30 4789 H 460.275 1.62554 0.851372 0
M  V30 4790 H 458.657 1.92396 3.46121 0
M  V30 4791 H 459.831 4.24521 1.79216 0
M  V30 4792 H 458.146 3.77187 1.76405 0
M  V30 4793 H 460.743 2.98965 4.4331 0
M  V30 4794 H 461.086 1.3503 3.93793 0
M  V30 4795 H 461.619 2.7067 2.91518 0
M  V30 4796 H 458.358 5.68378 3.26537 0
M  V30 4797 H 457.878 4.2621 4.22025 0
M  V30 4798 H 459.557 4.85366 4.27819 0
M  V30 4799 N 459.689 -1.00246 1.21608 0
M  V30 4800 C 460.937 -1.73717 1.0328 0
M  V30 4801 C 461.258 -1.90102 -0.434318 0
M  V30 4802 O 460.528 -1.45376 -1.31311 0
M  V30 4803 H 459.108 -0.643613 0.379172 0
M  V30 4804 H 461.77 -1.20787 1.52959 0
M  V30 4805 H 460.866 -2.73535 1.50283 0
M  V30 4806 N 461.167 -1.02423 -1.1978 0
M  V30 4807 C 462.114 -0.601023 -2.22837 0
M  V30 4808 C 463.084 0.382801 -1.61629 0
M  V30 4809 O 464.269 0.280514 -1.88727 0
M  V30 4810 C 461.409 0.0467755 -3.45068 0
M  V30 4811 C 460.522 -0.98253 -4.20678 0
M  V30 4812 C 459.657 -0.304982 -5.30324 0
M  V30 4813 C 458.696 -1.32052 -5.97686 0
M  V30 4814 N 457.833 -0.669105 -6.98904 0
M  V30 4815 H 462.673 -1.48444 -2.58396 0
M  V30 4816 H 460.21 -0.742936 -1.2696 0
M  V30 4817 H 462.168 0.439556 -4.14878 0
M  V30 4818 H 460.798 0.893796 -3.10179 0
M  V30 4819 H 459.85 -1.49341 -3.49859 0
M  V30 4820 H 461.162 -1.75455 -4.66923 0
M  V30 4821 H 460.316 0.142893 -6.06532 0
M  V30 4822 H 459.055 0.499283 -4.85138 0
M  V30 4823 H 458.06 -1.7787 -5.20233 0
M  V30 4824 H 459.285 -2.1262 -6.44957 0
M  V30 4825 H 457.231 0.115152 -6.55899 0
M  V30 4826 H 457.148 -1.37908 -7.43315 0
M  V30 4827 H 458.416 -0.245076 -7.79115 0
M  V30 4828 N 462.645 1.35699 -0.801477 0
M  V30 4829 C 463.608 2.28199 -0.213994 0
M  V30 4830 C 464.608 1.49359 0.595691 0
M  V30 4831 O 465.798 1.69186 0.414921 0
M  V30 4832 C 462.93 3.33587 0.702297 0
M  V30 4833 H 464.123 2.81666 -1.02976 0
M  V30 4834 H 461.676 1.45467 -0.571759 0
M  V30 4835 H 462.411 2.85297 1.54195 0
M  V30 4836 H 462.196 3.91906 0.123484 0
M  V30 4837 H 463.686 4.02638 1.10783 0
M  V30 4838 N 464.123 0.554532 1.47522 0
M  V30 4839 C 465.348 0.0322661 2.07375 0
M  V30 4840 C 465.773 -1.25079 1.40488 0
M  V30 4841 O 465.131 -1.74859 0.47896 0
M  V30 4842 C 465.179 -0.149397 3.6029 0
M  V30 4843 O 464.283 -1.21259 3.9417 0
M  V30 4844 H 463.624 0.0501228 0.662106 0
M  V30 4845 H 466.154 0.769452 1.8958 0
M  V30 4846 H 466.164 -0.364437 4.06369 0
M  V30 4847 H 464.839 0.787743 4.08372 0
M  V30 4848 H 463.416 -0.97825 3.5984 0
M  V30 4849 N 465.601 -1.54893 0.290851 0
M  V30 4850 C 466.549 -2.24579 -0.605576 0
M  V30 4851 C 467.543 -1.24824 -1.14522 0
M  V30 4852 O 468.749 -1.42706 -1.09704 0
M  V30 4853 H 465.124 -0.720946 -0.213872 0
M  V30 4854 H 467.095 -2.984 0.0048173 0
M  V30 4855 C 465.844 -2.99224 -1.77088 0
M  V30 4856 H 465.167 -3.75782 -1.36484 0
M  V30 4857 H 466.607 -3.51281 -2.3744 0
M  V30 4858 C 465.066 -2.05602 -2.66888 0
M  V30 4859 O 465.596 -1.61745 -3.67698 0
M  V30 4860 N 463.802 -1.71771 -2.34399 0
M  V30 4861 H 463.349 -2.07633 -1.52468 0
M  V30 4862 H 463.307 -1.09403 -2.94751 0
M  V30 4863 N 467.08 -0.0183926 -1.57589 0
M  V30 4864 C 468.328 0.661253 -1.90976 0
M  V30 4865 C 468.649 1.73281 -0.894353 0
M  V30 4866 O 467.919 1.9579 0.0656788 0
M  V30 4867 H 466.499 0.247233 -0.704901 0
M  V30 4868 H 469.161 -0.0636639 -1.94796 0
M  V30 4869 H 468.257 1.12083 -2.9128 0
M  V30 4870 N 468.558 1.5553 0.254621 0
M  V30 4871 C 469.974 1.4778 0.602753 0
M  V30 4872 C 470.174 0.707047 1.88688 0
M  V30 4873 O 469.23 0.233288 2.5142 0
M  V30 4874 C 470.543 2.92133 0.712648 0
M  V30 4875 C 472.091 3.02458 0.805488 0
M  V30 4876 C 472.566 4.48102 0.947009 0
M  V30 4877 N 474.057 4.52008 1.01207 0
M  V30 4878 C 474.792 5.61939 1.1407 0
M  V30 4879 N 474.288 6.81697 1.23536 0
M  V30 4880 N 476.081 5.49719 1.17325 0
M  V30 4881 H 468.232 2.04085 -0.588463 0
M  V30 4882 H 470.495 0.926229 -0.202001 0
M  V30 4883 H 470.201 3.51332 -0.160766 0
M  V30 4884 H 470.075 3.42187 1.58707 0
M  V30 4885 H 472.462 2.43344 1.66936 0
M  V30 4886 H 472.543 2.55627 -0.0939266 0
M  V30 4887 H 472.187 5.07824 0.087725 0
M  V30 4888 H 472.117 4.92607 1.86135 0
M  V30 4889 H 474.608 3.65749 0.950577 0
M  V30 4890 H 474.921 7.61228 1.33236 0
M  V30 4891 H 473.266 6.84473 1.20508 0
M  V30 4892 H 476.457 4.55095 1.09573 0
M  V30 4893 H 476.63 6.35432 1.27005 0
M  V30 4894 N 470.036 -0.519951 1.48776 0
M  V30 4895 C 471.284 -1.2727 1.56993 0
M  V30 4896 C 471.605 -1.9339 0.25004 0
M  V30 4897 O 470.875 -1.81822 -0.729216 0
M  V30 4898 H 469.455 -0.472732 0.578389 0
M  V30 4899 H 472.117 -0.604234 1.85297 0
M  V30 4900 H 471.213 -2.04669 2.3562 0
M  V30 4901 N 471.514 -1.37532 -0.769588 0
M  V30 4902 C 472.763 -1.32183 -1.5235 0
M  V30 4903 C 473.076 0.0906555 -1.9539 0
M  V30 4904 O 474.282 0.266628 -2.70188 0
M  V30 4905 C 472.738 -2.32029 -2.75119 0
M  V30 4906 C 472.346 -3.78816 -2.3917 0
M  V30 4907 C 474.09 -2.35694 -3.53056 0
M  V30 4908 C 471.997 -4.70388 -3.58453 0
M  V30 4909 H 470.927 -0.491275 -0.571984 0
M  V30 4910 H 473.578 -1.63004 -0.842739 0
M  V30 4911 H 471.96 -1.94229 -3.45096 0
M  V30 4912 H 473.134 -4.25466 -1.76962 0
M  V30 4913 H 471.449 -3.78117 -1.74402 0
M  V30 4914 H 474.046 -3.01312 -4.41718 0
M  V30 4915 H 474.389 -1.37117 -3.93071 0
M  V30 4916 H 474.922 -2.72212 -2.90078 0
M  V30 4917 H 471.661 -5.70102 -3.23518 0
M  V30 4918 H 471.181 -4.28442 -4.19758 0
M  V30 4919 H 472.86 -4.87628 -4.25239 0
M  V30 4920 N 472.992 0.995999 -1.22138 0
M  V30 4921 C 474.222 1.76809 -1.06874 0
M  V30 4922 C 474.63 1.85265 0.383866 0
M  V30 4923 O 473.973 1.31969 1.27789 0
M  V30 4924 C 474.035 3.2186 -1.60144 0
M  V30 4925 C 473.699 3.36958 -3.0872 0
M  V30 4926 C 474.696 3.2452 -4.0618 0
M  V30 4927 C 472.381 3.62109 -3.48112 0
M  V30 4928 C 474.375 3.37013 -5.41019 0
M  V30 4929 C 472.062 3.74243 -4.831 0
M  V30 4930 C 473.06 3.61702 -5.79362 0
M  V30 4931 O 472.748 3.73436 -7.119 0
M  V30 4932 H 472.48 0.562207 -0.375365 0
M  V30 4933 H 475.034 1.26113 -1.62125 0
M  V30 4934 H 473.264 3.73734 -0.992981 0
M  V30 4935 H 474.953 3.80775 -1.40589 0
M  V30 4936 H 475.719 3.05004 -3.77091 0
M  V30 4937 H 471.598 3.70949 -2.73712 0
M  V30 4938 H 475.142 3.27141 -6.16137 0
M  V30 4939 H 471.039 3.93266 -5.11872 0
M  V30 4940 H 471.807 3.90328 -7.19435 0
M  V30 4941 N 474.47 1.03057 1.19235 0
M  V30 4942 C 475.38 0.622922 2.26179 0
M  V30 4943 C 476.396 -0.346113 1.70523 0
M  V30 4944 O 477.572 -0.203572 2.00369 0
M  V30 4945 C 474.637 -0.0182063 3.46695 0
M  V30 4946 C 473.698 0.998546 4.17526 0
M  V30 4947 C 472.931 0.387917 5.32288 0
M  V30 4948 O 473.154 -0.808668 5.64639 0
M  V30 4949 O 472.088 1.1116 5.91546 0
M  V30 4950 H 475.914 1.51363 2.63292 0
M  V30 4951 H 473.499 0.800856 1.26122 0
M  V30 4952 H 475.381 -0.375606 4.19723 0
M  V30 4953 H 474.056 -0.882895 3.11427 0
M  V30 4954 H 472.963 1.40756 3.4661 0
M  V30 4955 H 474.296 1.83366 4.56769 0
M  V30 4956 N 475.948 -1.35272 0.808662 0
M  V30 4957 C 477.196 -1.98316 0.389233 0
M  V30 4958 C 477.517 -1.64465 -1.04767 0
M  V30 4959 O 476.787 -0.928175 -1.72516 0
M  V30 4960 H 475.367 -0.733585 0.140935 0
M  V30 4961 H 478.029 -1.6515 1.03496 0
M  V30 4962 H 477.125 -3.08123 0.496631 0
M  V30 4963 N 477.426 -0.562348 -1.47226 0
M  V30 4964 C 478.837 -0.130325 -1.86245 0
M  V30 4965 C 479.188 1.30128 -1.46838 0
M  V30 4966 O 478.313 1.97974 -0.873805 0
M  V30 4967 C 478.908 -0.229738 -3.3802 0
M  V30 4968 C 477.467 0.14728 -3.76112 0
M  V30 4969 C 476.614 -0.574971 -2.71274 0
M  V30 4970 H 479.565 -0.771773 -1.3867 0
M  V30 4971 H 479.586 0.550316 -3.76499 0
M  V30 4972 H 479.098 -1.27178 -3.66671 0
M  V30 4973 H 477.199 1.19023 -3.53078 0
M  V30 4974 H 477.312 -0.214858 -4.78618 0
M  V30 4975 H 475.676 -0.0174756 -2.54694 0
M  V30 4976 H 476.459 -1.61827 -3.02766 0
M  V30 4977 N 478.904 1.54736 -0.299062 0
M  V30 4978 C 480.152 1.99706 0.31017 0
M  V30 4979 C 480.473 1.18896 1.54559 0
M  V30 4980 O 479.743 0.284445 1.93824 0
M  V30 4981 H 478.323 0.737686 0.117596 0
M  V30 4982 H 480.985 1.9054 -0.409943 0
M  V30 4983 H 480.081 3.06596 0.58355 0
M  V30 4984 N 480.382 0.0267497 1.57577 0
M  V30 4985 C 481.631 -0.651736 1.9088 0
M  V30 4986 C 481.944 -1.73427 0.904576 0
M  V30 4987 O 483.15 -2.46923 1.12877 0
M  V30 4988 C 481.606 -1.21048 3.38933 0
M  V30 4989 C 481.214 -0.161362 4.47709 0
M  V30 4990 C 482.958 -1.86562 3.81307 0
M  V30 4991 C 480.865 -0.731611 5.86857 0
M  V30 4992 H 479.795 -0.247198 0.712326 0
M  V30 4993 H 482.446 0.0916641 1.83271 0
M  V30 4994 H 480.828 -2.00542 3.41466 0
M  V30 4995 H 482.002 0.61094 4.56732 0
M  V30 4996 H 480.317 0.394877 4.14523 0
M  V30 4997 H 482.914 -2.30178 4.8262 0
M  V30 4998 H 483.257 -2.70735 3.16241 0
M  V30 4999 H 483.79 -1.13762 3.81186 0
M  V30 5000 H 480.529 0.0719329 6.55461 0
M  V30 5001 H 480.049 -1.47245 5.81445 0
M  V30 5002 H 481.728 -1.22208 6.35354 0
M  V30 5003 N 481.861 -1.55662 -0.24637 0
M  V30 5004 C 483.086 -1.81914 -0.996093 0
M  V30 5005 C 483.511 -0.603875 -1.78143 0
M  V30 5006 O 482.869 0.447091 -1.75701 0
M  V30 5007 C 482.917 -3.05908 -1.90925 0
M  V30 5008 O 482.021 -2.82861 -3.00105 0
M  V30 5009 H 481.362 -0.600481 -0.283406 0
M  V30 5010 H 483.892 -2.02848 -0.267199 0
M  V30 5011 H 483.902 -3.35356 -2.3238 0
M  V30 5012 H 482.577 -3.93999 -1.33183 0
M  V30 5013 H 481.154 -2.64583 -2.62775 0
M  V30 5014 N 483.339 0.512053 -1.4905 0
M  V30 5015 C 484.588 1.26343 -1.57227 0
M  V30 5016 C 484.901 1.93876 -0.259155 0
M  V30 5017 O 486.107 2.70612 -0.219358 0
M  V30 5018 C 484.563 2.29343 -2.77362 0
M  V30 5019 C 484.171 1.67799 -4.15388 0
M  V30 5020 C 485.915 3.05378 -2.94864 0
M  V30 5021 C 483.822 2.68845 -5.2676 0
M  V30 5022 H 482.752 0.475231 -0.585382 0
M  V30 5023 H 485.403 0.53862 -1.75417 0
M  V30 5024 H 483.785 3.04938 -2.52643 0
M  V30 5025 H 484.959 0.982715 -4.50199 0
M  V30 5026 H 483.274 1.04194 -4.03153 0
M  V30 5027 H 485.871 3.80921 -3.75238 0
M  V30 5028 H 486.214 3.62327 -2.05 0
M  V30 5029 H 486.747 2.36898 -3.19569 0
M  V30 5030 H 483.486 2.16692 -6.18647 0
M  V30 5031 H 483.006 3.36647 -4.96416 0
M  V30 5032 H 484.685 3.31487 -5.5563 0
M  V30 5033 N 484.817 1.37938 0.762283 0
M  V30 5034 C 485.764 1.34467 1.87583 0
M  V30 5035 C 486.734 0.208633 1.64785 0
M  V30 5036 O 487.919 0.399494 1.86571 0
M  V30 5037 C 485.059 1.16692 3.24772 0
M  V30 5038 C 484.172 2.39608 3.59461 0
M  V30 5039 C 483.307 2.14631 4.85908 0
M  V30 5040 C 482.346 3.33364 5.13357 0
M  V30 5041 N 481.483 3.07877 6.30996 0
M  V30 5042 H 486.323 2.29669 1.89885 0
M  V30 5043 H 483.86 1.14116 0.928219 0
M  V30 5044 H 485.818 1.04405 4.03925 0
M  V30 5045 H 484.448 0.251333 3.2182 0
M  V30 5046 H 483.5 2.626 2.75219 0
M  V30 5047 H 484.812 3.28128 3.75678 0
M  V30 5048 H 483.966 1.99429 5.72986 0
M  V30 5049 H 482.705 1.23463 4.71814 0
M  V30 5050 H 481.71 3.49094 4.24751 0
M  V30 5051 H 482.935 4.25395 5.29354 0
M  V30 5052 H 480.881 2.19348 6.18241 0
M  V30 5053 H 480.798 3.89944 6.47673 0
M  V30 5054 H 482.066 2.96313 7.20985 0
M  V30 5055 N 486.295 -0.989507 1.22664 0
M  V30 5056 C 487.225 -2.09847 1.02404 0
M  V30 5057 C 488.206 -1.70007 -0.0561303 0
M  V30 5058 O 489.391 -1.93906 0.106748 0
M  V30 5059 C 486.521 -3.41996 0.604663 0
M  V30 5060 C 485.475 -3.95699 1.63115 0
M  V30 5061 C 484.801 -5.23936 1.0675 0
M  V30 5062 C 486.101 -4.25999 3.02196 0
M  V30 5063 H 487.795 -2.27054 1.95158 0
M  V30 5064 H 485.341 -1.09111 0.939727 0
M  V30 5065 H 487.294 -4.1899 0.45002 0
M  V30 5066 H 486.018 -3.24626 -0.35855 0
M  V30 5067 H 484.677 -3.2084 1.77362 0
M  V30 5068 H 484.325 -5.02909 0.0955422 0
M  V30 5069 H 484.025 -5.60833 1.75328 0
M  V30 5070 H 485.549 -6.0356 0.924516 0
M  V30 5071 H 486.963 -4.93777 2.91303 0
M  V30 5072 H 485.36 -4.74076 3.67929 0
M  V30 5073 H 486.43 -3.33636 3.51873 0
M  V30 5074 N 487.773 -1.03688 -1.18687 0
M  V30 5075 C 488.998 -0.757819 -1.93059 0
M  V30 5076 C 489.423 0.678353 -1.75442 0
M  V30 5077 O 488.781 1.46938 -1.06203 0
M  V30 5078 C 488.829 -1.12423 -3.42627 0
M  V30 5079 O 487.933 -0.247505 -4.11657 0
M  V30 5080 H 487.274 -0.279245 -0.602427 0
M  V30 5081 H 489.804 -1.3857 -1.5053 0
M  V30 5082 H 489.814 -1.08454 -3.93322 0
M  V30 5083 H 488.489 -2.17049 -3.54771 0
M  V30 5084 H 487.066 -0.34649 -3.71287 0
M  V30 5085 N 489.251 1.34841 -0.815825 0
M  V30 5086 C 490.214 2.27959 -0.238185 0
M  V30 5087 C 491.214 1.49983 0.579816 0
M  V30 5088 O 492.404 1.69617 0.396953 0
M  V30 5089 C 489.536 3.34314 0.666876 0
M  V30 5090 H 490.729 2.80558 -1.05958 0
M  V30 5091 H 488.282 1.44852 -0.587156 0
M  V30 5092 H 489.017 2.86916 1.5116 0
M  V30 5093 H 488.802 3.92014 0.0819106 0
M  V30 5094 H 490.292 4.0379 1.06506 0
M  V30 5095 N 490.729 0.570148 1.46925 0
M  V30 5096 C 491.659 -0.158274 2.32963 0
M  V30 5097 C 492.64 -0.896093 1.44583 0
M  V30 5098 O 493.825 -0.874022 1.7342 0
M  V30 5099 C 490.955 -1.18055 3.26619 0
M  V30 5100 C 489.909 -0.558379 4.24342 0
M  V30 5101 C 489.235 -1.68623 5.07415 0
M  V30 5102 C 490.535 0.496295 5.19937 0
M  V30 5103 H 492.229 0.560046 2.94115 0
M  V30 5104 H 489.775 0.270775 1.41431 0
M  V30 5105 H 491.728 -1.69841 3.85658 0
M  V30 5106 H 490.452 -1.92899 2.63548 0
M  V30 5107 H 489.111 -0.0617157 3.66548 0
M  V30 5108 H 488.759 -2.42402 4.40738 0
M  V30 5109 H 488.459 -1.27564 5.73586 0
M  V30 5110 H 489.983 -2.20709 5.69315 0
M  V30 5111 H 491.397 0.0640052 5.73264 0
M  V30 5112 H 489.794 0.82649 5.94381 0
M  V30 5113 H 490.864 1.38735 4.6463 0
M  V30 5114 N 492.207 -1.54576 0.307264 0
M  V30 5115 C 493.157 -2.20467 -0.581249 0
M  V30 5116 C 494.141 -1.17972 -1.09414 0
M  V30 5117 O 495.333 -1.43667 -1.03387 0
M  V30 5118 C 492.462 -2.95369 -1.74963 0
M  V30 5119 C 491.548 -4.05186 -1.25241 0
M  V30 5120 N 491.939 -5.03577 -0.47364 0
M  V30 5121 C 490.237 -4.18841 -1.53259 0
M  V30 5122 C 490.938 -5.81328 -0.208083 0
M  V30 5123 N 489.914 -5.37834 -0.789651 0
M  V30 5124 H 493.716 -2.93892 0.0212221 0
M  V30 5125 H 491.23 -1.62011 0.112325 0
M  V30 5126 H 493.227 -3.41046 -2.39777 0
M  V30 5127 H 491.887 -2.23461 -2.35574 0
M  V30 5128 H 492.898 -5.17766 -0.117963 0
M  V30 5129 H 489.575 -3.58141 -2.14573 0
M  V30 5130 H 490.965 -6.706 0.417793 0
M  V30 5131 N 493.685 -0.035106 -1.57561 0
M  V30 5132 C 495.096 0.502885 -1.798 0
M  V30 5133 C 495.447 1.71892 -0.945921 0
M  V30 5134 O 494.572 2.15822 -0.157991 0
M  V30 5135 C 495.167 0.919097 -3.26095 0
M  V30 5136 C 493.726 1.40216 -3.49308 0
M  V30 5137 C 492.873 0.369709 -2.74824 0
M  V30 5138 H 495.824 -0.261102 -1.56537 0
M  V30 5139 H 495.845 1.78308 -3.36135 0
M  V30 5140 H 495.357 0.0338526 -3.88085 0
M  V30 5141 H 493.458 2.30714 -2.92578 0
M  V30 5142 H 493.571 1.40541 -4.58023 0
M  V30 5143 H 491.935 0.839113 -2.40481 0
M  V30 5144 H 492.718 -0.507173 -3.39533 0
M  V30 5145 N 495.163 1.55791 0.238111 0
M  V30 5146 C 496.579 1.48411 0.587045 0
M  V30 5147 C 496.779 0.72702 1.87927 0
M  V30 5148 O 495.835 0.259942 2.51158 0
M  V30 5149 C 497.148 2.92873 0.681623 0
M  V30 5150 C 498.696 3.03295 0.773363 0
M  V30 5151 C 499.171 4.49082 0.899428 0
M  V30 5152 N 500.662 4.53056 0.964075 0
M  V30 5153 C 501.397 5.63117 1.08104 0
M  V30 5154 N 500.893 6.82969 1.16299 0
M  V30 5155 N 502.686 5.50933 1.11488 0
M  V30 5156 H 494.837 2.0345 -0.610076 0
M  V30 5157 H 497.1 0.924034 -0.211813 0
M  V30 5158 H 496.806 3.51142 -0.19802 0
M  V30 5159 H 496.68 3.43851 1.55069 0
M  V30 5160 H 499.067 2.45101 1.64346 0
M  V30 5161 H 499.148 2.55513 -0.121034 0
M  V30 5162 H 498.792 5.07889 0.0338586 0
M  V30 5163 H 498.722 4.94553 1.809 0
M  V30 5164 H 501.213 3.66737 0.91173 0
M  V30 5165 H 501.526 7.62598 1.25155 0
M  V30 5166 H 499.871 6.85712 1.13241 0
M  V30 5167 H 503.062 4.56231 1.0474 0
M  V30 5168 H 503.235 6.36743 1.20259 0
M  V30 5169 N 496.642 -0.504142 1.49319 0
M  V30 5170 C 497.872 -1.28071 1.62116 0
M  V30 5171 C 498.28 -1.86955 0.290566 0
M  V30 5172 O 497.623 -1.68415 -0.733616 0
M  V30 5173 C 497.685 -2.4521 2.62893 0
M  V30 5174 C 497.349 -2.07218 4.0732 0
M  V30 5175 C 498.346 -1.61375 4.94221 0
M  V30 5176 C 496.031 -2.16949 4.53033 0
M  V30 5177 C 498.025 -1.25763 6.2487 0
M  V30 5178 C 495.712 -1.80949 5.83696 0
M  V30 5179 C 496.71 -1.3543 6.69438 0
M  V30 5180 O 496.398 -0.99915 7.97667 0
M  V30 5181 H 496.13 -0.394763 0.54876 0
M  V30 5182 H 498.684 -0.612118 1.96067 0
M  V30 5183 H 496.914 -3.15134 2.24115 0
M  V30 5184 H 498.603 -3.0724 2.65252 0
M  V30 5185 H 499.369 -1.53306 4.60133 0
M  V30 5186 H 495.248 -2.5133 3.86463 0
M  V30 5187 H 498.792 -0.901631 6.91749 0
M  V30 5188 H 494.689 -1.88667 6.17313 0
M  V30 5189 H 495.457 -1.13089 8.1065 0
M  V30 5190 N 498.12 -1.38341 -0.754957 0
M  V30 5191 C 499.345 -1.37882 -1.5493 0
M  V30 5192 C 499.77 0.0296385 -1.88077 0
M  V30 5193 O 499.128 1.01133 -1.50472 0
M  V30 5194 C 499.176 -2.23996 -2.82592 0
M  V30 5195 O 498.28 -1.65612 -3.77686 0
M  V30 5196 H 497.621 -0.470384 -0.468652 0
M  V30 5197 H 500.151 -1.82084 -0.933082 0
M  V30 5198 H 500.161 -2.37806 -3.3153 0
M  V30 5199 H 498.836 -3.26365 -2.57796 0
M  V30 5200 H 497.413 -1.60936 -3.36384 0
M  V30 5201 N 499.598 0.982988 -1.23187 0
M  V30 5202 C 501.014 1.2487 -0.993967 0
M  V30 5203 C 501.214 1.99155 0.306498 0
M  V30 5204 O 500.27 2.30688 1.0266 0
M  V30 5205 C 501.583 2.05078 -2.19917 0
M  V30 5206 C 503.131 2.18227 -2.2438 0
M  V30 5207 C 503.606 3.01825 -3.44479 0
M  V30 5208 N 505.097 3.09411 -3.44702 0
M  V30 5209 C 505.832 3.74412 -4.34285 0
M  V30 5210 N 505.328 4.41259 -5.341 0
M  V30 5211 N 507.121 3.71273 -4.22035 0
M  V30 5212 H 499.272 0.485253 -2.06783 0
M  V30 5213 H 501.535 0.276979 -0.906635 0
M  V30 5214 H 501.241 1.57867 -3.14279 0
M  V30 5215 H 501.115 3.05829 -2.2079 0
M  V30 5216 H 503.502 2.64648 -1.30559 0
M  V30 5217 H 503.583 1.16873 -2.2754 0
M  V30 5218 H 503.227 2.56102 -4.38605 0
M  V30 5219 H 503.157 4.03342 -3.38559 0
M  V30 5220 H 505.648 2.61845 -2.7248 0
M  V30 5221 H 505.961 4.88629 -5.98717 0
M  V30 5222 H 504.306 4.39975 -5.38002 0
M  V30 5223 H 507.497 3.18217 -3.43301 0
M  V30 5224 H 507.67 4.21649 -4.92053 0
M  V30 5225 N 501.076 1.04316 1.18135 0
M  V30 5226 C 502.039 0.640794 2.2006 0
M  V30 5227 C 503.039 -0.303124 1.57917 0
M  V30 5228 O 504.229 -0.0881855 1.73977 0
M  V30 5229 C 501.361 -0.060148 3.40847 0
M  V30 5230 H 502.554 1.54281 2.57172 0
M  V30 5231 H 500.107 0.836004 1.32063 0
M  V30 5232 H 500.842 -0.975845 3.0927 0
M  V30 5233 H 500.627 0.618319 3.87194 0
M  V30 5234 H 502.117 -0.328082 4.16309 0
M  V30 5235 N 502.554 -1.34406 0.822964 0
M  V30 5236 C 503.486 -2.28305 0.202375 0
M  V30 5237 C 504.499 -1.5103 -0.60777 0
M  V30 5238 O 505.688 -1.73057 -0.437444 0
M  V30 5239 C 502.788 -3.30836 -0.734911 0
M  V30 5240 C 501.961 -4.37388 0.0324177 0
M  V30 5241 C 501.02 -5.1968 -0.825803 0
M  V30 5242 O 500.046 -5.68556 -0.270771 0
M  V30 5243 N 501.248 -5.39393 -2.14558 0
M  V30 5244 H 504.013 -2.82201 1.00909 0
M  V30 5245 H 501.574 -1.4693 0.67993 0
M  V30 5246 H 503.566 -3.82786 -1.31365 0
M  V30 5247 H 502.136 -2.77334 -1.44238 0
M  V30 5248 H 501.356 -3.86152 0.792469 0
M  V30 5249 H 502.644 -5.05702 0.560633 0
M  V30 5250 H 502.042 -5.01357 -2.62025 0
M  V30 5251 H 500.599 -5.94461 -2.67318 0
M  V30 5252 N 504.032 -0.577932 -1.46621 0
M  V30 5253 C 505.262 -0.0670668 -2.06491 0
M  V30 5254 C 505.67 1.24119 -1.42798 0
M  V30 5255 O 505.013 1.76016 -0.525759 0
M  V30 5256 C 505.075 0.177995 -3.59059 0
M  V30 5257 C 504.739 -1.04394 -4.44917 0
M  V30 5258 C 505.736 -1.95479 -4.81751 0
M  V30 5259 C 503.421 -1.26444 -4.86125 0
M  V30 5260 C 505.415 -3.06965 -5.58615 0
M  V30 5261 C 503.102 -2.38237 -5.62749 0
M  V30 5262 C 504.1 -3.28327 -5.98908 0
M  V30 5263 O 503.788 -4.38179 -6.73984 0
M  V30 5264 H 503.52 -0.0523159 -0.673973 0
M  V30 5265 H 506.074 -0.796966 -1.89308 0
M  V30 5266 H 504.304 0.962451 -3.74531 0
M  V30 5267 H 505.993 0.636782 -4.00874 0
M  V30 5268 H 506.759 -1.79657 -4.50498 0
M  V30 5269 H 502.638 -0.572316 -4.57434 0
M  V30 5270 H 506.182 -3.77309 -5.86757 0
M  V30 5271 H 502.079 -2.54023 -5.93416 0
M  V30 5272 H 502.847 -4.36486 -6.92403 0
M  V30 5273 N 505.51 1.54411 -0.315457 0
M  V30 5274 C 506.787 1.92562 0.343398 0
M  V30 5275 C 507.167 1.24423 1.70535 0
M  V30 5276 O 506.515 0.385051 2.25232 0
M  V30 5277 C 506.725 3.46168 0.443687 0
M  V30 5278 C 508.073 4.18659 0.707783 0
M  V30 5279 O 509.097 3.52281 0.52693 0
M  V30 5280 O 507.956 5.36198 1.05612 0
M  V30 5281 H 505.05 0.80379 0.194552 0
M  V30 5282 H 507.596 1.65738 -0.364577 0
M  V30 5283 H 506.368 3.8792 -0.513172 0
M  V30 5284 H 505.991 3.79073 1.19956 0
M  V30 5285 N 506.988 0.0434614 1.5754 0
M  V30 5286 C 508.404 -0.313039 1.565 0
M  V30 5287 C 508.604 -1.71954 1.05043 0
M  V30 5288 O 507.66 -2.425 0.703564 0
M  V30 5289 C 508.973 -0.148544 3.00333 0
M  V30 5290 C 510.521 -0.220231 3.12224 0
M  V30 5291 C 510.996 -0.0843565 4.57922 0
M  V30 5292 N 512.487 -0.140881 4.62986 0
M  V30 5293 C 513.222 -0.0597443 5.73369 0
M  V30 5294 N 512.718 0.0733004 6.92761 0
M  V30 5295 N 514.511 -0.11477 5.61983 0
M  V30 5296 H 506.662 0.96303 1.89313 0
M  V30 5297 H 508.925 0.373164 0.871466 0
M  V30 5298 H 508.631 0.820894 3.41986 0
M  V30 5299 H 508.505 -0.912798 3.65989 0
M  V30 5300 H 510.892 -1.18014 2.70475 0
M  V30 5301 H 510.973 0.574646 2.49262 0
M  V30 5302 H 510.617 0.872192 5.00355 0
M  V30 5303 H 510.547 -0.898281 5.18882 0
M  V30 5304 H 513.038 -0.243273 3.77116 0
M  V30 5305 H 513.351 0.128128 7.72694 0
M  V30 5306 H 511.696 0.10828 6.94916 0
M  V30 5307 H 514.887 -0.217212 4.67596 0
M  V30 5308 H 515.06 -0.0480779 6.47982 0
M  V30 5309 N 508.466 -1.55915 -0.229846 0
M  V30 5310 C 509.712 -1.78807 -0.956868 0
M  V30 5311 C 510.045 -0.611687 -1.84315 0
M  V30 5312 O 509.32 0.389398 -1.90562 0
M  V30 5313 C 509.603 -3.11718 -1.80288 0
M  V30 5314 C 509.456 -4.3979 -0.943649 0
M  V30 5315 C 510.775 -3.40999 -2.78222 0
M  V30 5316 H 507.894 -0.6505 -0.346437 0
M  V30 5317 H 510.536 -1.88648 -0.226252 0
M  V30 5318 H 508.686 -3.03459 -2.42579 0
M  V30 5319 H 510.358 -4.60059 -0.338121 0
M  V30 5320 H 508.601 -4.33086 -0.248705 0
M  V30 5321 H 509.272 -5.29208 -1.5698 0
M  V30 5322 H 511.748 -3.49332 -2.26067 0
M  V30 5323 H 510.624 -4.35183 -3.34526 0
M  V30 5324 H 510.885 -2.62754 -3.55546 0
M  V30 5325 N 509.944 0.496216 -1.49584 0
M  V30 5326 C 510.877 1.61508 -1.61215 0
M  V30 5327 C 511.855 1.55927 -0.461045 0
M  V30 5328 O 513.039 1.75914 -0.677231 0
M  V30 5329 C 510.166 3.00035 -1.57152 0
M  V30 5330 C 509.212 3.23861 -2.77518 0
M  V30 5331 S 510.045 3.06466 -4.39134 0
M  V30 5332 C 511.201 4.4738 -4.37724 0
M  V30 5333 H 511.434 1.51398 -2.55863 0
M  V30 5334 H 508.967 0.681727 -1.38535 0
M  V30 5335 H 510.925 3.7991 -1.55494 0
M  V30 5336 H 509.586 3.07556 -0.637834 0
M  V30 5337 H 508.779 4.25 -2.70908 0
M  V30 5338 H 508.381 2.51716 -2.76614 0
M  V30 5339 H 510.673 5.39556 -4.09738 0
M  V30 5340 H 511.616 4.59038 -5.39156 0
M  V30 5341 H 512.024 4.28283 -3.67742 0
M  V30 5342 N 511.423 1.38739 0.74761 0
M  V30 5343 C 512.333 1.38696 1.89211 0
M  V30 5344 C 513.349 0.283303 1.71678 0
M  V30 5345 O 514.525 0.522713 1.94498 0
M  V30 5346 C 511.59 1.21662 3.24653 0
M  V30 5347 C 510.651 2.41886 3.54669 0
M  V30 5348 C 509.884 2.25655 4.83648 0
M  V30 5349 O 510.107 1.25339 5.56459 0
M  V30 5350 O 509.041 3.14372 5.13277 0
M  V30 5351 H 512.867 2.35143 1.92202 0
M  V30 5352 H 510.452 1.19721 0.893708 0
M  V30 5353 H 512.334 1.14246 4.05618 0
M  V30 5354 H 511.009 0.283024 3.2246 0
M  V30 5355 H 509.916 2.54877 2.73841 0
M  V30 5356 H 511.249 3.33895 3.61628 0
M  V30 5357 N 512.901 -0.976442 1.23707 0
M  V30 5358 C 513.811 -2.10359 1.03856 0
M  V30 5359 C 514.827 -1.73991 -0.0180919 0
M  V30 5360 O 516.003 -2.0061 0.178211 0
M  V30 5361 C 513.068 -3.40809 0.636387 0
M  V30 5362 C 512.129 -3.91179 1.76854 0
M  V30 5363 C 511.362 -5.15404 1.38546 0
M  V30 5364 O 511.585 -5.69754 0.27142 0
M  V30 5365 O 510.519 -5.5994 2.20797 0
M  V30 5366 H 514.345 -2.29997 1.98331 0
M  V30 5367 H 511.93 -1.08742 1.02448 0
M  V30 5368 H 513.812 -4.19269 0.423223 0
M  V30 5369 H 512.487 -3.22493 -0.279322 0
M  V30 5370 H 511.394 -3.13819 2.03638 0
M  V30 5371 H 512.727 -4.13958 2.6627 0
M  V30 5372 N 514.379 -1.04941 -1.1758 0
M  V30 5373 C 515.309 -0.669172 -2.23706 0
M  V30 5374 C 516.29 0.331835 -1.66832 0
M  V30 5375 O 517.475 0.209988 -1.93061 0
M  V30 5376 C 514.605 -0.0404889 -3.47276 0
M  V30 5377 C 513.559 -0.965983 -4.16957 0
M  V30 5378 C 512.885 -0.201312 -5.34321 0
M  V30 5379 C 514.185 -2.28902 -4.69469 0
M  V30 5380 H 515.879 -1.55639 -2.55767 0
M  V30 5381 H 513.425 -0.749793 -1.22939 0
M  V30 5382 H 515.378 0.237298 -4.20731 0
M  V30 5383 H 514.102 0.881658 -3.14475 0
M  V30 5384 H 512.761 -1.22829 -3.45411 0
M  V30 5385 H 512.409 0.723519 -4.97769 0
M  V30 5386 H 512.109 -0.817968 -5.81879 0
M  V30 5387 H 513.633 0.0692499 -6.10561 0
M  V30 5388 H 515.047 -2.07132 -5.34574 0
M  V30 5389 H 513.444 -2.85942 -5.27596 0
M  V30 5390 H 514.514 -2.92937 -3.86414 0
M  V30 5391 N 515.857 1.33968 -0.830081 0
M  V30 5392 C 517.087 2.01987 -0.434142 0
M  V30 5393 C 517.495 1.62639 0.96671 0
M  V30 5394 O 516.838 0.831151 1.63822 0
M  V30 5395 C 516.9 3.5648 -0.465018 0
M  V30 5396 C 516.564 4.19176 -1.82045 0
M  V30 5397 C 517.561 4.39181 -2.78237 0
M  V30 5398 C 515.246 4.55792 -2.11089 0
M  V30 5399 C 517.24 4.94937 -4.01642 0
M  V30 5400 C 514.927 5.11258 -3.34752 0
M  V30 5401 C 515.925 5.30775 -4.29845 0
M  V30 5402 O 515.613 5.85064 -5.51322 0
M  V30 5403 H 515.345 0.653847 -0.171639 0
M  V30 5404 H 517.899 1.72066 -1.12171 0
M  V30 5405 H 516.129 3.8569 0.279284 0
M  V30 5406 H 517.818 4.05804 -0.0881334 0
M  V30 5407 H 518.584 4.11249 -2.57097 0
M  V30 5408 H 514.463 4.39901 -1.3787 0
M  V30 5409 H 518.007 5.10086 -4.75876 0
M  V30 5410 H 513.904 5.38619 -3.55753 0
M  V30 5411 H 514.672 6.03489 -5.5294 0
M  V30 5412 N 517.335 0.585699 1.46312 0
M  V30 5413 C 518.746 0.159938 1.86014 0
M  V30 5414 C 519.097 -1.27775 1.48889 0
M  V30 5415 O 518.222 -1.96559 0.90519 0
M  V30 5416 C 518.817 0.283485 3.37612 0
M  V30 5417 C 517.376 -0.0874256 3.76298 0
M  V30 5418 C 516.523 0.618055 2.70325 0
M  V30 5419 H 519.474 0.793737 1.37425 0
M  V30 5420 H 519.495 -0.490348 3.77327 0
M  V30 5421 H 519.007 1.32995 3.64601 0
M  V30 5422 H 517.108 -1.13391 3.54927 0
M  V30 5423 H 517.221 0.290975 4.78216 0
M  V30 5424 H 515.585 0.057993 2.54634 0
M  V30 5425 H 516.368 1.66623 3.00153 0
M  V30 5426 N 518.813 -1.54241 0.323641 0
M  V30 5427 C 520.229 -1.59574 -0.0290018 0
M  V30 5428 C 520.429 -1.34017 -1.50472 0
M  V30 5429 O 519.485 -1.12464 -2.26071 0
M  V30 5430 C 520.798 -2.98169 0.389295 0
M  V30 5431 C 522.346 -3.11148 0.339958 0
M  V30 5432 C 522.821 -4.5209 0.733418 0
M  V30 5433 N 524.312 -4.5808 0.686827 0
M  V30 5434 C 525.047 -5.65248 0.963464 0
M  V30 5435 N 524.543 -6.80355 1.30724 0
M  V30 5436 N 526.336 -5.55025 0.88902 0
M  V30 5437 H 518.487 -1.6911 1.28512 0
M  V30 5438 H 520.75 -0.790972 0.522558 0
M  V30 5439 H 520.456 -3.21871 1.41746 0
M  V30 5440 H 520.33 -3.76399 -0.245657 0
M  V30 5441 H 522.717 -2.87182 -0.679002 0
M  V30 5442 H 522.798 -2.35023 1.00985 0
M  V30 5443 H 522.442 -4.76788 1.75029 0
M  V30 5444 H 522.372 -5.26584 0.0412189 0
M  V30 5445 H 524.863 -3.75411 0.43298 0
M  V30 5446 H 525.176 -7.58029 1.5037 0
M  V30 5447 H 523.521 -6.81851 1.3455 0
M  V30 5448 H 526.712 -4.63977 0.619939 0
M  V30 5449 H 526.885 -6.38458 1.10797 0
M  V30 5450 N 520.291 -0.0518155 -1.57515 0
M  V30 5451 C 521.221 0.920283 -2.146 0
M  V30 5452 C 522.202 1.32406 -1.06783 0
M  V30 5453 O 523.387 1.39866 -1.34726 0
M  V30 5454 C 520.517 2.1949 -2.6915 0
M  V30 5455 C 519.471 1.93116 -3.81956 0
M  V30 5456 C 518.797 3.27037 -4.23026 0
M  V30 5457 C 520.097 1.25225 -5.07066 0
M  V30 5458 H 521.791 0.444801 -2.96077 0
M  V30 5459 H 519.337 0.212508 -1.42423 0
M  V30 5460 H 521.29 2.87894 -3.07725 0
M  V30 5461 H 520.014 2.69244 -1.84865 0
M  V30 5462 H 518.673 1.27123 -3.43854 0
M  V30 5463 H 518.321 3.74595 -3.3569 0
M  V30 5464 H 518.021 3.10189 -4.99056 0
M  V30 5465 H 519.545 3.96673 -4.64202 0
M  V30 5466 H 520.959 1.83666 -5.43083 0
M  V30 5467 H 519.356 1.18702 -5.88243 0
M  V30 5468 H 520.426 0.228382 -4.84362 0
M  V30 5469 N 521.769 1.56035 0.221574 0
M  V30 5470 C 522.716 1.92413 1.27459 0
M  V30 5471 C 523.686 0.781323 1.46576 0
M  V30 5472 O 524.871 1.03721 1.60145 0
M  V30 5473 C 522.011 2.24617 2.61995 0
M  V30 5474 C 521.124 3.51831 2.50677 0
M  V30 5475 C 520.259 3.73482 3.77736 0
M  V30 5476 C 519.298 4.94211 3.6114 0
M  V30 5477 N 518.435 5.12252 4.80148 0
M  V30 5478 H 523.275 2.82203 0.957355 0
M  V30 5479 H 520.812 1.39676 0.461415 0
M  V30 5480 H 522.77 2.41298 3.40339 0
M  V30 5481 H 521.4 1.38 2.91815 0
M  V30 5482 H 520.452 3.43343 1.63767 0
M  V30 5483 H 521.764 4.40328 2.34334 0
M  V30 5484 H 520.918 3.9026 4.64523 0
M  V30 5485 H 519.657 2.83266 3.97003 0
M  V30 5486 H 518.662 4.77384 2.72736 0
M  V30 5487 H 519.887 5.85912 3.43343 0
M  V30 5488 H 517.833 4.24978 4.99729 0
M  V30 5489 H 517.75 5.94881 4.66532 0
M  V30 5490 H 519.018 5.33465 5.68362 0
M  V30 5491 N 523.247 -0.488276 1.49845 0
M  V30 5492 C 524.472 -1.26997 1.63971 0
M  V30 5493 C 524.897 -1.85427 0.315994 0
M  V30 5494 O 524.255 -1.66475 -0.718032 0
M  V30 5495 C 524.303 -2.36689 2.72049 0
M  V30 5496 O 523.407 -3.40882 2.32107 0
M  V30 5497 H 522.748 -0.374376 0.548396 0
M  V30 5498 H 525.278 -0.583104 1.96115 0
M  V30 5499 H 525.288 -2.82262 2.94605 0
M  V30 5500 H 523.963 -1.93529 3.68129 0
M  V30 5501 H 522.54 -3.01139 2.19931 0
M  V30 5502 N 524.725 -1.39134 -0.740242 0
M  V30 5503 C 525.655 -1.40165 -1.86751 0
M  V30 5504 C 526.636 -0.265708 -1.68012 0
M  V30 5505 O 527.821 -0.47076 -1.88408 0
M  V30 5506 C 524.951 -1.2392 -3.2444 0
M  V30 5507 C 523.905 -2.34858 -3.57807 0
M  V30 5508 C 523.231 -2.03707 -4.94376 0
M  V30 5509 C 524.531 -3.77159 -3.61315 0
M  V30 5510 H 526.225 -2.345 -1.86145 0
M  V30 5511 H 523.771 -1.12875 -0.89416 0
M  V30 5512 H 525.724 -1.23263 -4.02969 0
M  V30 5513 H 524.448 -0.26051 -3.25559 0
M  V30 5514 H 523.107 -2.34723 -2.81604 0
M  V30 5515 H 522.755 -1.04289 -4.9207 0
M  V30 5516 H 522.455 -2.78016 -5.17669 0
M  V30 5517 H 523.979 -2.04691 -5.75268 0
M  V30 5518 H 525.393 -3.79252 -4.29931 0
M  V30 5519 H 523.79 -4.50784 -3.96124 0
M  V30 5520 H 524.86 -4.08513 -2.61238 0
M  V30 5521 N 526.204 0.969867 -1.24223 0
M  V30 5522 C 527.432 1.74756 -1.10761 0
M  V30 5523 C 527.847 1.85713 0.340041 0
M  V30 5524 O 527.204 1.34389 1.23474 0
M  V30 5525 C 527.255 3.16915 -1.73917 0
M  V30 5526 O 526.976 3.06511 -3.13021 0
M  V30 5527 C 528.477 4.11032 -1.66036 0
M  V30 5528 H 525.697 0.548092 -0.387087 0
M  V30 5529 H 528.241 1.2178 -1.64286 0
M  V30 5530 H 526.396 3.66884 -1.244 0
M  V30 5531 H 526.81 3.96079 -3.43834 0
M  V30 5532 H 528.284 5.08446 -2.14911 0
M  V30 5533 H 528.761 4.34785 -0.621159 0
M  V30 5534 H 529.367 3.66972 -2.14969 0
M  V30 5535 N 527.682 1.05563 1.17022 0
M  V30 5536 C 528.612 0.681026 2.23348 0
M  V30 5537 C 529.593 -0.322983 1.67005 0
M  V30 5538 O 530.778 -0.199746 1.9317 0
M  V30 5539 C 527.908 0.0589053 3.4725 0
M  V30 5540 C 526.862 0.988082 4.16438 0
M  V30 5541 C 526.188 0.229646 5.34207 0
M  V30 5542 C 527.488 2.31388 4.68249 0
M  V30 5543 H 529.182 1.56993 2.54938 0
M  V30 5544 H 526.728 0.756302 1.2254 0
M  V30 5545 H 528.681 -0.214982 4.20851 0
M  V30 5546 H 527.405 -0.864968 3.14938 0
M  V30 5547 H 526.064 1.24659 3.44754 0
M  V30 5548 H 525.712 -0.697111 4.98146 0
M  V30 5549 H 525.412 0.848815 5.81437 0
M  V30 5550 H 526.936 -0.0368694 6.10589 0
M  V30 5551 H 528.35 2.09964 5.33468 0
M  V30 5552 H 526.747 2.88736 5.26072 0
M  V30 5553 H 527.817 2.94982 3.84855 0
M  V30 5554 N 529.16 -1.33526 0.837174 0
M  V30 5555 C 530.09 -2.31764 0.284206 0
M  V30 5556 C 531.071 -1.58896 -0.607142 0
M  V30 5557 O 532.256 -1.86798 -0.531047 0
M  V30 5558 C 529.386 -3.43029 -0.542962 0
M  V30 5559 C 528.34 -4.27255 0.252451 0
M  V30 5560 C 527.666 -5.3012 -0.69836 0
M  V30 5561 C 528.966 -5.01229 1.46858 0
M  V30 5562 H 530.66 -2.78262 1.10502 0
M  V30 5563 H 528.206 -1.3378 0.532812 0
M  V30 5564 H 530.159 -4.1078 -0.940096 0
M  V30 5565 H 528.883 -2.95216 -1.39697 0
M  V30 5566 H 527.542 -3.61127 0.631124 0
M  V30 5567 H 527.19 -4.78564 -1.54872 0
M  V30 5568 H 526.89 -5.87353 -0.170274 0
M  V30 5569 H 528.414 -6.00737 -1.09305 0
M  V30 5570 H 529.828 -5.61756 1.14469 0
M  V30 5571 H 528.225 -5.68104 1.93333 0
M  V30 5572 H 529.295 -4.301 2.23924 0
M  V30 5573 N 530.638 -0.59345 -1.46 0
M  V30 5574 C 531.601 0.123538 -2.28867 0
M  V30 5575 C 532.601 0.808628 -1.38989 0
M  V30 5576 O 533.791 0.658945 -1.61256 0
M  V30 5577 C 530.923 1.1847 -3.19653 0
M  V30 5578 H 532.116 -0.604843 -2.93737 0
M  V30 5579 H 529.669 -0.351875 -1.52288 0
M  V30 5580 H 530.404 1.94431 -2.59552 0
M  V30 5581 H 530.189 0.69783 -3.8584 0
M  V30 5582 H 531.679 1.68726 -3.81997 0
M  V30 5583 N 532.116 1.54067 -0.331816 0
M  V30 5584 C 533.532 1.59587 0.0205388 0
M  V30 5585 C 533.732 1.34813 1.49759 0
M  V30 5586 O 532.788 1.13661 2.25471 0
M  V30 5587 C 534.101 2.97959 -0.405103 0
M  V30 5588 C 535.649 3.10964 -0.356454 0
M  V30 5589 C 536.124 4.51694 -0.757384 0
M  V30 5590 N 537.615 4.57709 -0.71111 0
M  V30 5591 C 538.35 5.64729 -0.993427 0
M  V30 5592 N 537.846 6.79652 -1.3433 0
M  V30 5593 N 539.639 5.54546 -0.918442 0
M  V30 5594 H 531.79 1.68426 -1.29407 0
M  V30 5595 H 534.053 0.78819 -0.526745 0
M  V30 5596 H 533.759 3.21115 -1.43451 0
M  V30 5597 H 533.633 3.76524 0.225692 0
M  V30 5598 H 536.02 2.87538 0.663763 0
M  V30 5599 H 536.101 2.34484 -1.02229 0
M  V30 5600 H 535.745 4.75853 -1.77555 0
M  V30 5601 H 535.675 5.26555 -0.0691444 0
M  V30 5602 H 538.166 3.75176 -0.452883 0
M  V30 5603 H 538.479 7.57221 -1.54388 0
M  V30 5604 H 536.824 6.81128 -1.38164 0
M  V30 5605 H 540.015 4.63641 -0.644536 0
M  V30 5606 H 540.188 6.37861 -1.14181 0
M  V30 5607 N 533.594 0.0601682 1.57485 0
M  V30 5608 C 534.526 -0.94047 2.09016 0
M  V30 5609 C 535.539 -1.26897 1.01985 0
M  V30 5610 O 536.728 -1.22819 1.29529 0
M  V30 5611 C 533.828 -2.25955 2.52582 0
M  V30 5612 C 533.001 -2.11163 3.83052 0
M  V30 5613 C 532.06 -3.26273 4.12835 0
M  V30 5614 O 531.086 -3.01779 4.82616 0
M  V30 5615 N 532.288 -4.51022 3.65458 0
M  V30 5616 H 535.053 -0.500578 2.9549 0
M  V30 5617 H 532.614 -0.125852 1.6141 0
M  V30 5618 H 534.606 -3.01846 2.69575 0
M  V30 5619 H 533.176 -2.61481 1.71308 0
M  V30 5620 H 532.396 -1.19808 3.75552 0
M  V30 5621 H 533.684 -1.98517 4.68475 0
M  V30 5622 H 533.082 -4.73811 3.09062 0
M  V30 5623 H 531.639 -5.23978 3.87673 0
M  V30 5624 N 535.072 -1.5615 -0.213296 0
M  V30 5625 C 536.302 -1.83372 -0.951757 0
M  V30 5626 C 536.71 -0.638158 -1.78113 0
M  V30 5627 O 536.053 0.402609 -1.79234 0
M  V30 5628 C 536.115 -3.04444 -1.91192 0
M  V30 5629 C 535.779 -4.39107 -1.26627 0
M  V30 5630 C 536.776 -5.15794 -0.652087 0
M  V30 5631 C 534.461 -4.85834 -1.27556 0
M  V30 5632 C 536.455 -6.37376 -0.055814 0
M  V30 5633 C 534.142 -6.07356 -0.675451 0
M  V30 5634 C 535.14 -6.82967 -0.0666367 0
M  V30 5635 O 534.828 -8.0219 0.524119 0
M  V30 5636 H 534.56 -0.613398 -0.284111 0
M  V30 5637 H 537.114 -2.04096 -0.231112 0
M  V30 5638 H 535.344 -2.79559 -2.67178 0
M  V30 5639 H 537.033 -3.18466 -2.51662 0
M  V30 5640 H 537.799 -4.80796 -0.637172 0
M  V30 5641 H 533.678 -4.26949 -1.73883 0
M  V30 5642 H 537.222 -6.96334 0.420004 0
M  V30 5643 H 533.119 -6.41825 -0.687806 0
M  V30 5644 H 533.887 -8.17426 0.419243 0
M  V30 5645 N 536.55 0.480323 -1.50102 0
M  V30 5646 C 537.827 1.24159 -1.51142 0
M  V30 5647 C 538.207 2.09605 -0.250818 0
M  V30 5648 O 537.555 2.15274 0.766118 0
M  V30 5649 C 537.765 2.08057 -2.80202 0
M  V30 5650 C 539.113 2.66556 -3.30504 0
M  V30 5651 O 540.137 2.18308 -2.81461 0
M  V30 5652 O 538.996 3.54442 -4.15973 0
M  V30 5653 H 536.09 0.562928 -0.605839 0
M  V30 5654 H 538.636 0.492899 -1.62384 0
M  V30 5655 H 537.408 1.45032 -3.6343 0
M  V30 5656 H 537.031 2.90079 -2.71919 0
M  V30 5657 N 538.028 1.39524 0.732853 0
M  V30 5658 C 539.277 1.36175 1.48792 0
M  V30 5659 C 539.59 -0.0388195 1.95561 0
M  V30 5660 O 540.796 -0.194899 2.708 0
M  V30 5661 C 539.252 2.39242 2.68871 0
M  V30 5662 C 538.86 3.85024 2.29042 0
M  V30 5663 C 540.604 2.44972 3.46683 0
M  V30 5664 C 538.511 4.79727 3.45856 0
M  V30 5665 H 537.441 0.506267 0.558757 0
M  V30 5666 H 540.092 1.65181 0.799226 0
M  V30 5667 H 538.474 2.0331 3.39825 0
M  V30 5668 H 539.648 4.30008 1.6562 0
M  V30 5669 H 537.963 3.82609 1.64316 0
M  V30 5670 H 540.56 3.12918 4.33574 0
M  V30 5671 H 540.903 1.4749 3.89297 0
M  V30 5672 H 541.436 2.79808 2.82759 0
M  V30 5673 H 538.175 5.78479 3.08289 0
M  V30 5674 H 537.695 4.39421 4.08251 0
M  V30 5675 H 539.374 4.98731 4.12161 0
M  V30 5676 N 539.506 -0.963266 1.24736 0
M  V30 5677 C 540.754 -1.70343 1.08755 0
M  V30 5678 C 541.075 -1.91387 -0.373619 0
M  V30 5679 O 540.345 -1.4948 -1.2662 0
M  V30 5680 H 538.925 -0.631224 0.399456 0
M  V30 5681 H 541.587 -1.15859 1.56725 0
M  V30 5682 H 540.683 -2.68616 1.58909 0
M  V30 5683 N 540.985 -1.06182 -1.16461 0
M  V30 5684 C 542.234 -0.772927 -1.86303 0
M  V30 5685 C 542.547 0.703187 -1.82523 0
M  V30 5686 O 543.753 1.10641 -2.47933 0
M  V30 5687 C 542.209 -1.33249 -3.34324 0
M  V30 5688 C 541.817 -2.83876 -3.46581 0
M  V30 5689 C 543.561 -1.12108 -4.09429 0
M  V30 5690 C 541.468 -3.33082 -4.88682 0
M  V30 5691 H 540.398 -0.285452 -0.697878 0
M  V30 5692 H 543.049 -1.28039 -1.31447 0
M  V30 5693 H 541.431 -0.7528 -3.88779 0
M  V30 5694 H 542.605 -3.47786 -3.02293 0
M  V30 5695 H 540.92 -3.03671 -2.84909 0
M  V30 5696 H 543.517 -1.46361 -5.14279 0
M  V30 5697 H 543.86 -0.0593832 -4.16258 0
M  V30 5698 H 544.393 -1.6665 -3.6121 0
M  V30 5699 H 541.132 -4.38726 -4.87032 0
M  V30 5700 H 540.652 -2.73919 -5.33599 0
M  V30 5701 H 542.331 -3.28344 -5.57494 0
M  V30 5702 N 542.463 1.3308 -0.844243 0
M  V30 5703 C 543.411 2.31028 -0.269954 0
M  V30 5704 C 544.405 1.58381 0.600997 0
M  V30 5705 O 545.611 1.73203 0.48996 0
M  V30 5706 H 541.986 0.748866 -0.0685782 0
M  V30 5707 H 543.957 2.76967 -1.11049 0
M  V30 5708 C 542.706 3.43549 0.535676 0
M  V30 5709 H 542.029 3.99604 -0.125202 0
M  V30 5710 H 543.469 4.14267 0.903262 0
M  V30 5711 C 541.928 2.8988 1.71672 0
M  V30 5712 O 542.458 2.86511 2.81557 0
M  V30 5713 N 540.664 2.46416 1.54037 0
M  V30 5714 H 540.211 2.49356 0.64649 0
M  V30 5715 H 540.169 2.1086 2.33207 0
M  V30 5716 N 543.941 0.601185 1.45683 0
M  V30 5717 C 545.19 0.0914953 2.01492 0
M  V30 5718 C 545.503 -1.28331 1.47616 0
M  V30 5719 O 546.709 -1.88537 1.95362 0
M  V30 5720 C 545.165 0.11291 3.59723 0
M  V30 5721 C 544.773 1.48717 4.22596 0
M  V30 5722 C 546.517 -0.341871 4.23121 0
M  V30 5723 C 544.424 1.46531 5.7296 0
M  V30 5724 H 543.354 0.0304365 0.753385 0
M  V30 5725 H 546.005 0.755568 1.67223 0
M  V30 5726 H 544.387 -0.617692 3.91153 0
M  V30 5727 H 545.561 2.23897 4.02749 0
M  V30 5728 H 543.876 1.88351 3.71366 0
M  V30 5729 H 546.473 -0.377304 5.33367 0
M  V30 5730 H 546.816 -1.36325 3.93346 0
M  V30 5731 H 547.349 0.335256 3.96385 0
M  V30 5732 H 544.088 2.46408 6.07423 0
M  V30 5733 H 543.608 0.755997 5.95017 0
M  V30 5734 H 545.287 1.18618 6.36034 0
M  V30 5735 N 545.419 -1.53889 0.339982 0
M  V30 5736 C 546.696 -1.93084 -0.312719 0
M  V30 5737 C 547.076 -1.2712 -1.68534 0
M  V30 5738 O 546.424 -0.420835 -2.24591 0
M  V30 5739 C 546.634 -3.4683 -0.388558 0
M  V30 5740 C 547.982 -4.19732 -0.641088 0
M  V30 5741 O 549.006 -3.53075 -0.470818 0
M  V30 5742 O 547.865 -5.3781 -0.970685 0
M  V30 5743 H 544.959 -0.806784 -0.18174 0
M  V30 5744 H 547.505 -1.65137 0.390898 0
M  V30 5745 H 546.277 -3.87055 0.574821 0
M  V30 5746 H 545.9 -3.80933 -1.1391 0
M  V30 5747 N 546.897 -0.0685191 -1.57451 0
M  V30 5748 C 547.86 0.885173 -2.11417 0
M  V30 5749 C 548.86 1.22853 -1.03748 0
M  V30 5750 O 550.05 1.16235 -1.2975 0
M  V30 5751 C 547.182 2.18964 -2.61281 0
M  V30 5752 H 548.375 0.417034 -2.96986 0
M  V30 5753 H 545.928 0.18014 -1.55258 0
M  V30 5754 H 546.663 2.70321 -1.79156 0
M  V30 5755 H 546.448 1.9534 -3.39977 0
M  V30 5756 H 547.938 2.87242 -3.0312 0
M  V30 5757 N 548.375 1.56261 0.205012 0
M  V30 5758 C 549.285 1.96944 1.27476 0
M  V30 5759 C 550.301 0.875636 1.50362 0
M  V30 5760 O 551.477 1.18058 1.6317 0
M  V30 5761 C 548.542 2.29219 2.60115 0
M  V30 5762 C 547.603 3.52255 2.45387 0
M  V30 5763 C 546.836 3.8298 3.71701 0
M  V30 5764 O 547.059 3.15138 4.75441 0
M  V30 5765 O 545.993 4.76435 3.67823 0
M  V30 5766 H 549.819 2.88144 0.959527 0
M  V30 5767 H 547.404 1.43686 0.409217 0
M  V30 5768 H 549.286 2.51098 3.3842 0
M  V30 5769 H 547.961 1.4119 2.91285 0
M  V30 5770 H 546.868 3.35635 1.65227 0
M  V30 5771 H 548.201 4.40719 2.19152 0
M  V30 5772 N 549.853 -0.472356 1.50355 0
M  V30 5773 C 550.763 -1.59637 1.7191 0
M  V30 5774 C 551.779 -1.63247 0.602195 0
M  V30 5775 O 552.955 -1.81139 0.880369 0
M  V30 5776 C 550.02 -2.9586 1.80742 0
M  V30 5777 C 549.081 -3.02649 3.04471 0
M  V30 5778 C 548.314 -4.32374 3.12872 0
M  V30 5779 O 548.537 -5.22807 2.28099 0
M  V30 5780 O 547.471 -4.44728 4.05587 0
M  V30 5781 H 551.297 -1.44373 2.67189 0
M  V30 5782 H 548.882 -0.651717 1.34436 0
M  V30 5783 H 550.764 -3.7677 1.88739 0
M  V30 5784 H 549.439 -3.11325 0.88647 0
M  V30 5785 H 548.346 -2.20821 3.01975 0
M  V30 5786 H 549.679 -2.92119 3.9614 0
M  V30 5787 N 551.331 -1.39911 -0.725443 0
M  V30 5788 C 552.556 -1.41137 -1.5197 0
M  V30 5789 C 552.981 -0.010262 -1.88097 0
M  V30 5790 O 552.339 0.979184 -1.52583 0
M  V30 5791 C 552.387 -2.2994 -2.77777 0
M  V30 5792 O 551.491 -1.73586 -3.74088 0
M  V30 5793 H 550.832 -0.480219 -0.458569 0
M  V30 5794 H 553.362 -1.84023 -0.894249 0
M  V30 5795 H 553.372 -2.44785 -3.26411 0
M  V30 5796 H 552.047 -3.31759 -2.50816 0
M  V30 5797 H 550.624 -1.68035 -3.32894 0
M  V30 5798 N 552.809 0.956637 -1.25245 0
M  V30 5799 C 554.086 1.67716 -1.00651 0
M  V30 5800 C 554.466 2.0585 0.467866 0
M  V30 5801 O 553.814 1.77029 1.44475 0
M  V30 5802 C 554.024 2.90093 -1.94028 0
M  V30 5803 C 555.372 3.6209 -2.21756 0
M  V30 5804 O 556.396 3.00171 -1.9177 0
M  V30 5805 O 555.255 4.7358 -2.72735 0
M  V30 5806 H 552.349 0.733731 -0.381533 0
M  V30 5807 H 554.895 1.00974 -1.3639 0
M  V30 5808 H 553.667 2.58689 -2.93591 0
M  V30 5809 H 553.29 3.64566 -1.58674 0
M  V30 5810 N 554.287 1.06798 1.15896 0
M  V30 5811 C 555.703 0.792423 1.38538 0
M  V30 5812 C 555.903 -0.60592 1.92174 0
M  V30 5813 O 554.959 -1.36561 2.12385 0
M  V30 5814 C 556.272 1.86157 2.36149 0
M  V30 5815 C 557.82 1.88567 2.49823 0
M  V30 5816 C 558.295 2.9455 3.5072 0
M  V30 5817 N 559.786 2.93616 3.58251 0
M  V30 5818 C 560.521 3.72267 4.36125 0
M  V30 5819 N 560.017 4.60751 5.17379 0
M  V30 5820 N 561.81 3.60637 4.31158 0
M  V30 5821 H 553.961 1.96993 0.794198 0
M  V30 5822 H 556.224 0.853942 0.411688 0
M  V30 5823 H 555.93 2.86603 2.03843 0
M  V30 5824 H 555.804 1.71692 3.3586 0
M  V30 5825 H 558.191 0.887765 2.8143 0
M  V30 5826 H 558.272 2.0711 1.5013 0
M  V30 5827 H 557.916 3.94537 3.19849 0
M  V30 5828 H 557.846 2.73255 4.50155 0
M  V30 5829 H 560.337 2.29472 3.00252 0
M  V30 5830 H 560.65 5.17408 5.74028 0
M  V30 5831 H 558.995 4.64803 5.16704 0
M  V30 5832 H 562.186 2.90892 3.66742 0
M  V30 5833 H 562.359 4.22176 4.91601 0
M  V30 5834 N 555.766 -1.3263 0.851289 0
M  V30 5835 C 556.696 -2.31449 0.308771 0
M  V30 5836 C 557.677 -1.59531 -0.590255 0
M  V30 5837 O 558.862 -1.87351 -0.511205 0
M  V30 5838 C 555.992 -3.43586 -0.506548 0
M  V30 5839 C 554.946 -4.26963 0.297753 0
M  V30 5840 C 554.272 -5.30831 -0.642094 0
M  V30 5841 C 555.572 -4.99643 1.52166 0
M  V30 5842 H 557.266 -2.77074 1.13447 0
M  V30 5843 H 554.812 -1.33207 0.546971 0
M  V30 5844 H 556.765 -4.11754 -0.896474 0
M  V30 5845 H 555.489 -2.96681 -1.36558 0
M  V30 5846 H 554.148 -3.60437 0.669391 0
M  V30 5847 H 553.796 -4.8018 -1.49788 0
M  V30 5848 H 553.496 -5.87501 -0.107968 0
M  V30 5849 H 555.02 -6.01862 -1.02927 0
M  V30 5850 H 556.434 -5.6051 1.20421 0
M  V30 5851 H 554.831 -5.66022 1.99347 0
M  V30 5852 H 555.901 -4.27701 2.28474 0
M  V30 5853 N 557.244 -0.608902 -1.45362 0
M  V30 5854 C 558.154 0.110969 -2.34337 0
M  V30 5855 C 559.17 0.859007 -1.51318 0
M  V30 5856 O 560.346 0.816296 -1.84116 0
M  V30 5857 C 557.411 1.09494 -3.28956 0
M  V30 5858 C 556.472 0.348718 -4.27881 0
M  V30 5859 C 555.705 1.28582 -5.17979 0
M  V30 5860 O 555.928 2.52369 -5.11533 0
M  V30 5861 O 554.862 0.782172 -5.96796 0
M  V30 5862 H 558.688 -0.620258 -2.97299 0
M  V30 5863 H 556.273 -0.36916 -1.44767 0
M  V30 5864 H 558.155 1.66163 -3.87257 0
M  V30 5865 H 556.83 1.80717 -2.68557 0
M  V30 5866 H 555.737 -0.260465 -3.73192 0
M  V30 5867 H 557.07 -0.323049 -4.91139 0
M  V30 5868 N 558.722 1.53707 -0.348139 0
M  V30 5869 C 559.971 2.0017 0.247992 0
M  V30 5870 C 560.284 1.23983 1.51286 0
M  V30 5871 O 561.49 1.60946 2.18652 0
M  V30 5872 C 559.946 3.56515 0.492459 0
M  V30 5873 C 559.554 4.41562 -0.756777 0
M  V30 5874 C 561.298 4.11381 1.0472 0
M  V30 5875 C 559.205 5.89426 -0.482856 0
M  V30 5876 H 558.135 0.747806 0.0964452 0
M  V30 5877 H 560.786 1.77532 -0.464179 0
M  V30 5878 H 559.168 3.75236 1.26545 0
M  V30 5879 H 560.342 4.34615 -1.53122 0
M  V30 5880 H 558.657 3.97711 -1.23348 0
M  V30 5881 H 561.254 5.19468 1.26717 0
M  V30 5882 H 561.597 3.64885 2.00411 0
M  V30 5883 H 562.13 3.96389 0.334801 0
M  V30 5884 H 558.869 6.40164 -1.40962 0
M  V30 5885 H 558.389 5.99264 0.253416 0
M  V30 5886 H 560.068 6.4692 -0.101816 0
M  V30 5887 N 560.2 0.0768682 1.57412 0
M  V30 5888 C 561.425 -0.603404 1.98428 0
M  V30 5889 C 561.85 -1.62047 0.955108 0
M  V30 5890 O 561.208 -1.81129 -0.0786778 0
M  V30 5891 C 561.256 -1.24396 3.38464 0
M  V30 5892 O 560.36 -2.35982 3.3821 0
M  V30 5893 H 559.701 -0.154741 0.645718 0
M  V30 5894 H 562.231 0.152885 2.04028 0
M  V30 5895 H 562.241 -1.5896 3.7576 0
M  V30 5896 H 560.916 -0.498735 4.12899 0
M  V30 5897 H 559.493 -2.03173 3.1269 0
M  V30 5898 N 561.678 -1.56367 -0.196722 0
M  V30 5899 C 562.608 -1.97442 -1.24655 0
M  V30 5900 C 563.589 -0.846147 -1.47561 0
M  V30 5901 O 564.774 -1.11035 -1.59326 0
M  V30 5902 C 561.904 -2.31253 -2.59112 0
M  V30 5903 C 560.858 -3.46804 -2.50821 0
M  V30 5904 C 560.184 -3.66286 -3.89536 0
M  V30 5905 C 561.484 -4.8104 -2.03465 0
M  V30 5906 H 563.178 -2.85388 -0.905216 0
M  V30 5907 H 560.724 -1.37304 -0.434002 0
M  V30 5908 H 562.677 -2.58583 -3.32736 0
M  V30 5909 H 561.401 -1.40188 -2.94983 0
M  V30 5910 H 560.06 -3.19563 -1.79653 0
M  V30 5911 H 559.708 -2.72555 -4.22756 0
M  V30 5912 H 559.408 -4.4402 -3.84864 0
M  V30 5913 H 560.932 -3.9599 -4.64784 0
M  V30 5914 H 562.346 -5.07411 -2.66846 0
M  V30 5915 H 560.743 -5.62232 -2.09798 0
M  V30 5916 H 561.813 -4.74732 -0.98781 0
M  V30 5917 N 563.156 0.464375 -1.50603 0
M  V30 5918 C 564.433 1.22549 -1.5245 0
M  V30 5919 C 564.813 2.09327 -0.273035 0
M  V30 5920 O 564.161 2.16074 0.743242 0
M  V30 5921 C 564.371 2.05074 -2.82393 0
M  V30 5922 C 565.719 2.63036 -3.33313 0
M  V30 5923 O 566.743 2.1531 -2.8376 0
M  V30 5924 O 565.602 3.5001 -4.19709 0
M  V30 5925 H 562.696 0.556471 -0.611775 0
M  V30 5926 H 565.242 0.475648 -1.62898 0
M  V30 5927 H 564.014 1.41169 -3.64948 0
M  V30 5928 H 563.637 2.87179 -2.7498 0
M  V30 5929 N 564.634 1.40294 0.718013 0
M  V30 5930 C 565.564 1.43118 1.84498 0
M  V30 5931 C 566.545 0.292403 1.67568 0
M  V30 5932 O 567.73 0.500675 1.87635 0
M  V30 5933 C 564.86 1.29065 3.22427 0
M  V30 5934 C 563.814 2.40521 3.54025 0
M  V30 5935 C 563.14 2.11546 4.91073 0
M  V30 5936 C 564.44 3.82859 3.55269 0
M  V30 5937 H 566.134 2.37432 1.82391 0
M  V30 5938 H 563.68 1.14283 0.87609 0
M  V30 5939 H 565.633 1.29658 4.00957 0
M  V30 5940 H 564.357 0.312271 3.25104 0
M  V30 5941 H 563.016 2.39173 2.77834 0
M  V30 5942 H 562.664 1.12104 4.90348 0
M  V30 5943 H 562.364 2.86216 5.1318 0
M  V30 5944 H 563.888 2.13817 5.71939 0
M  V30 5945 H 565.302 3.86044 4.23843 0
M  V30 5946 H 563.699 4.57029 3.88902 0
M  V30 5947 H 564.769 4.12617 2.54706 0
M  V30 5948 N 566.112 -0.949982 1.2575 0
M  V30 5949 C 567.042 -2.06483 1.09028 0
M  V30 5950 C 568.023 -1.701 -0.00201532 0
M  V30 5951 O 569.208 -1.93469 0.168383 0
M  V30 5952 C 566.338 -3.39899 0.71316 0
M  V30 5953 C 565.292 -3.90309 1.75621 0
M  V30 5954 C 564.618 -5.20274 1.23365 0
M  V30 5955 C 565.918 -4.16169 3.15596 0
M  V30 5956 H 567.612 -2.20731 2.02283 0
M  V30 5957 H 565.158 -1.06066 0.973964 0
M  V30 5958 H 567.111 -4.17346 0.58309 0
M  V30 5959 H 565.835 -3.25602 -0.255091 0
M  V30 5960 H 564.494 -3.15035 1.8748 0
M  V30 5961 H 564.142 -5.02351 0.255491 0
M  V30 5962 H 563.842 -5.54971 1.93082 0
M  V30 5963 H 565.366 -6.00314 1.11607 0
M  V30 5964 H 566.78 -4.84259 3.06864 0
M  V30 5965 H 565.177 -4.62131 3.82825 0
M  V30 5966 H 566.247 -3.22273 3.6231 0
M  V30 5967 N 567.59 -1.07411 -1.15328 0
M  V30 5968 C 568.5 -0.706438 -2.23711 0
M  V30 5969 C 569.516 0.282586 -1.7169 0
M  V30 5970 O 570.692 0.129066 -2.00986 0
M  V30 5971 C 567.757 -0.11048 -3.46524 0
M  V30 5972 C 566.818 -1.15282 -4.13532 0
M  V30 5973 C 566.051 -0.585205 -5.30482 0
M  V30 5974 O 566.274 0.598549 -5.67251 0
M  V30 5975 O 565.208 -1.33039 -5.87013 0
M  V30 5976 H 569.034 -1.61031 -2.57493 0
M  V30 5977 H 566.619 -0.847113 -1.23062 0
M  V30 5978 H 568.501 0.21957 -4.20828 0
M  V30 5979 H 567.176 0.766703 -3.14489 0
M  V30 5980 H 566.083 -1.53523 -3.41147 0
M  V30 5981 H 567.416 -2.00192 -4.49649 0
M  V30 5982 N 569.068 1.32177 -0.85831 0
M  V30 5983 C 570.015 2.28794 -0.303607 0
M  V30 5984 C 570.985 1.55213 0.591453 0
M  V30 5985 O 572.17 1.83418 0.525585 0
M  V30 5986 C 569.31 3.41475 0.49889 0
M  V30 5987 C 568.423 4.2993 -0.422373 0
M  V30 5988 C 567.558 5.29743 0.393111 0
M  V30 5989 C 566.597 6.09842 -0.525317 0
M  V30 5990 N 565.734 7.01643 0.253208 0
M  V30 5991 H 570.574 2.75631 -1.13276 0
M  V30 5992 H 568.111 1.35606 -0.570026 0
M  V30 5993 H 570.069 4.05531 0.979826 0
M  V30 5994 H 568.699 2.95779 1.29284 0
M  V30 5995 H 567.751 3.66422 -1.02171 0
M  V30 5996 H 569.063 4.85899 -1.12709 0
M  V30 5997 H 568.217 5.9942 0.937056 0
M  V30 5998 H 566.956 4.744 1.13117 0
M  V30 5999 H 565.961 5.39066 -1.08112 0
M  V30 6000 H 567.186 6.6727 -1.26205 0
M  V30 6001 H 565.132 6.48725 0.974295 0
M  V30 6002 H 565.049 7.54981 -0.392398 0
M  V30 6003 H 566.317 7.756 0.778761 0
M  V30 6004 N 570.547 0.616602 1.45037 0
M  V30 6005 C 571.477 -0.0840787 2.33349 0
M  V30 6006 C 572.458 -0.849641 1.4736 0
M  V30 6007 O 573.643 -0.818407 1.76113 0
M  V30 6008 C 570.773 -1.07604 3.3021 0
M  V30 6009 C 569.727 -0.423096 4.25904 0
M  V30 6010 C 569.053 -1.52394 5.12523 0
M  V30 6011 C 570.353 0.661457 5.18095 0
M  V30 6012 H 572.047 0.653333 2.92185 0
M  V30 6013 H 569.593 0.315634 1.40498 0
M  V30 6014 H 571.546 -1.57485 3.90866 0
M  V30 6015 H 570.27 -1.84416 2.69552 0
M  V30 6016 H 568.929 0.05493 3.66559 0
M  V30 6017 H 568.577 -2.28257 4.48227 0
M  V30 6018 H 568.277 -1.09251 5.77354 0
M  V30 6019 H 569.801 -2.02485 5.76049 0
M  V30 6020 H 571.215 0.246353 5.7277 0
M  V30 6021 H 569.612 1.01517 5.91451 0
M  V30 6022 H 570.682 1.53446 4.59981 0
M  V30 6023 N 572.025 -1.5352 0.356285 0
M  V30 6024 C 573.265 -2.03027 -0.23649 0
M  V30 6025 C 573.629 -1.23813 -1.46746 0
M  V30 6026 O 574.83 -1.63281 -2.13525 0
M  V30 6027 C 573.101 -3.53442 -0.530415 0
M  V30 6028 S 574.66 -4.24836 -1.09819 0
M  V30 6029 H 571.478 -0.707591 -0.0695378 0
M  V30 6030 H 574.08 -1.89077 0.496999 0
M  V30 6031 H 572.784 -4.087 0.373114 0
M  V30 6032 H 572.315 -3.71536 -1.29323 0
M  V30 6033 H 574.33 -4.35228 -2.38309 0
M  V30 6034 N 573.503 -0.0852151 -1.57369 0
M  V30 6035 C 574.75 0.580806 -1.93992 0
M  V30 6036 C 575.078 1.68801 -0.966252 0
M  V30 6037 O 574.333 1.95694 0.0158649 0
M  V30 6038 C 574.632 1.18482 -3.3719 0
M  V30 6039 C 574.298 0.2024 -4.50446 0
M  V30 6040 C 572.96 -0.0678318 -4.81152 0
M  V30 6041 C 575.312 -0.46895 -5.19086 0
M  V30 6042 C 572.64 -1.01627 -5.77831 0
M  V30 6043 C 574.992 -1.4058 -6.16782 0
M  V30 6044 C 573.656 -1.68436 -6.45899 0
M  V30 6045 H 572.926 0.212532 -0.709867 0
M  V30 6046 H 575.573 -0.158947 -1.90839 0
M  V30 6047 H 573.878 2.0006 -3.36873 0
M  V30 6048 H 575.575 1.70767 -3.62822 0
M  V30 6049 H 572.165 0.423208 -4.26505 0
M  V30 6050 H 576.349 -0.273307 -4.95547 0
M  V30 6051 H 571.605 -1.2392 -5.9871 0
M  V30 6052 H 575.779 -1.93188 -6.69068 0
M  V30 6053 H 573.406 -2.42088 -7.20623 0
M  V30 6054 N 574.981 1.5647 0.188427 0
M  V30 6055 C 575.891 1.98285 1.2538 0
M  V30 6056 C 576.907 0.891535 1.49424 0
M  V30 6057 O 578.083 1.19782 1.61908 0
M  V30 6058 C 575.148 2.31965 2.57669 0
M  V30 6059 C 574.209 3.54838 2.41638 0
M  V30 6060 C 573.442 3.86901 3.67618 0
M  V30 6061 O 573.665 3.20163 4.72072 0
M  V30 6062 O 572.599 4.80309 3.62749 0
M  V30 6063 H 576.425 2.89145 0.928912 0
M  V30 6064 H 574.01 1.44112 0.393955 0
M  V30 6065 H 575.892 2.54673 3.35737 0
M  V30 6066 H 574.567 1.44271 2.89771 0
M  V30 6067 H 573.474 3.37369 1.61658 0
M  V30 6068 H 574.807 4.43019 2.14465 0
M  V30 6069 N 576.459 -0.456382 1.50847 0
M  V30 6070 C 577.87 -1.03685 1.55262 0
M  V30 6071 C 578.221 -1.92779 0.364771 0
M  V30 6072 O 577.346 -2.10043 -0.52068 0
M  V30 6073 C 577.941 -1.88718 2.81374 0
M  V30 6074 C 576.5 -2.41847 2.88422 0
M  V30 6075 C 575.647 -1.20564 2.49719 0
M  V30 6076 H 578.598 -0.238399 1.56899 0
M  V30 6077 H 578.619 -2.73957 2.6406 0
M  V30 6078 H 578.131 -1.23847 3.67809 0
M  V30 6079 H 576.232 -3.10228 2.06372 0
M  V30 6080 H 576.345 -2.75947 3.9165 0
M  V30 6081 H 574.709 -1.54504 2.02486 0
M  V30 6082 H 575.492 -0.573326 3.38479 0
M  V30 6083 N 577.937 -1.40673 -0.710563 0
M  V30 6084 C 578.847 -1.43663 -1.85467 0
M  V30 6085 C 579.863 -0.328721 -1.70867 0
M  V30 6086 O 581.039 -0.574098 -1.93044 0
M  V30 6087 C 578.104 -1.30226 -3.21313 0
M  V30 6088 C 577.165 -2.51204 -3.48131 0
M  V30 6089 C 576.398 -2.38398 -4.77495 0
M  V30 6090 O 576.621 -1.40048 -5.5294 0
M  V30 6091 O 575.555 -3.2787 -5.04762 0
M  V30 6092 H 579.381 -2.40156 -1.859 0
M  V30 6093 H 576.966 -1.22049 -0.861652 0
M  V30 6094 H 578.848 -1.2496 -4.02446 0
M  V30 6095 H 577.523 -0.368419 -3.21597 0
M  V30 6096 H 576.43 -2.62048 -2.66987 0
M  V30 6097 H 577.763 -3.43366 -3.52648 0
M  V30 6098 N 579.415 0.9433 -1.26252 0
M  V30 6099 C 580.345 2.05902 -1.10122 0
M  V30 6100 C 581.326 1.70099 -0.00700552 0
M  V30 6101 O 582.511 1.93377 -0.178641 0
M  V30 6102 C 579.641 3.39516 -0.731175 0
M  V30 6103 C 578.595 3.89372 -1.77688 0
M  V30 6104 C 577.921 5.19613 -1.26122 0
M  V30 6105 C 579.221 4.14489 -3.17799 0
M  V30 6106 H 580.915 2.19655 -2.03451 0
M  V30 6107 H 578.461 1.05548 -0.979576 0
M  V30 6108 H 580.414 4.17031 -0.605215 0
M  V30 6109 H 579.138 3.25733 0.23782 0
M  V30 6110 H 577.797 3.14036 -1.89148 0
M  V30 6111 H 577.445 5.02208 -0.282128 0
M  V30 6112 H 577.145 5.53939 -1.96023 0
M  V30 6113 H 578.669 5.99713 -1.14789 0
M  V30 6114 H 580.083 4.82625 -3.09428 0
M  V30 6115 H 578.48 4.60094 -3.85271 0
M  V30 6116 H 579.55 3.20347 -3.64014 0
M  V30 6117 N 580.893 1.08022 1.14757 0
M  V30 6118 C 581.856 0.71048 2.1791 0
M  V30 6119 C 582.856 -0.252731 1.58801 0
M  V30 6120 O 584.046 -0.0327915 1.74169 0
M  V30 6121 C 581.178 0.0483203 3.40866 0
M  V30 6122 H 582.371 1.62384 2.52134 0
M  V30 6123 H 579.924 0.877595 1.29337 0
M  V30 6124 H 580.659 -0.876959 3.12218 0
M  V30 6125 H 580.444 0.741189 3.85031 0
M  V30 6126 H 581.934 -0.195471 4.17142 0
M  V30 6127 N 582.371 -1.3172 0.865308 0
M  V30 6128 C 583.619 -1.96487 0.472995 0
M  V30 6129 C 583.94 -1.68761 -0.976975 0
M  V30 6130 O 583.21 -1.00051 -1.68424 0
M  V30 6131 H 581.79 -0.726947 0.171922 0
M  V30 6132 H 584.452 -1.60612 1.10407 0
M  V30 6133 H 583.548 -3.0574 0.62687 0
M  V30 6134 N 583.85 -0.624285 -1.44708 0
M  V30 6135 C 585.096 -0.13473 -2.02953 0
M  V30 6136 C 585.451 1.22724 -1.48178 0
M  V30 6137 O 584.744 1.80109 -0.653542 0
M  V30 6138 C 584.938 -0.0546353 -3.57358 0
M  V30 6139 C 584.767 -1.40729 -4.27113 0
M  V30 6140 C 583.537 -1.99231 -4.64365 0
M  V30 6141 C 585.735 -2.33968 -4.58 0
M  V30 6142 N 583.716 -3.27803 -5.19055 0
M  V30 6143 C 585.088 -3.47149 -5.137 0
M  V30 6144 C 587.143 -2.33132 -4.39948 0
M  V30 6145 C 585.846 -4.59682 -5.53249 0
M  V30 6146 C 587.872 -3.44724 -4.8054 0
M  V30 6147 C 587.234 -4.56629 -5.36348 0
M  V30 6148 H 583.332 -0.0930617 -0.776443 0
M  V30 6149 H 585.917 -0.826286 -1.76297 0
M  V30 6150 H 584.088 0.606183 -3.8364 0
M  V30 6151 H 585.82 0.443116 -4.02267 0
M  V30 6152 H 582.575 -1.52251 -4.4846 0
M  V30 6153 H 582.999 -3.93519 -5.50883 0
M  V30 6154 H 587.641 -1.47868 -3.961 0
M  V30 6155 H 585.359 -5.4566 -5.96054 0
M  V30 6156 H 588.945 -3.45245 -4.68291 0
M  V30 6157 H 587.825 -5.41551 -5.67179 0
M  V30 6158 N 585.328 1.53329 -0.364422 0
M  V30 6159 C 586.276 2.27212 0.497737 0
M  V30 6160 C 587.27 1.30146 1.08437 0
M  V30 6161 O 588.476 1.47778 1.0277 0
M  V30 6162 H 584.851 0.730329 0.179232 0
M  V30 6163 H 586.822 2.98037 -0.147182 0
M  V30 6164 C 585.571 3.07333 1.6261 0
M  V30 6165 H 584.894 3.81866 1.184 0
M  V30 6166 H 586.334 3.62209 2.20409 0
M  V30 6167 C 584.793 2.18102 2.56775 0
M  V30 6168 O 585.323 1.79104 3.59562 0
M  V30 6169 N 583.529 1.82759 2.25937 0
M  V30 6170 H 583.076 2.14671 1.42387 0
M  V30 6171 H 583.034 1.23342 2.89196 0
M  V30 6172 N 586.806 0.0935595 1.57322 0
M  V30 6173 C 588.054 -0.569383 1.93913 0
M  V30 6174 C 588.375 -1.68817 0.976009 0
M  V30 6175 O 587.645 -1.9588 0.0278099 0
M  V30 6176 H 586.225 -0.21332 0.715894 0
M  V30 6177 H 588.887 0.156531 1.9427 0
M  V30 6178 H 587.983 -0.980577 2.96296 0
M  V30 6179 N 588.284 -1.56567 -0.180126 0
M  V30 6180 C 589.533 -1.80685 -0.896426 0
M  V30 6181 C 589.846 -0.669335 -1.83791 0
M  V30 6182 O 591.052 -0.795209 -2.59593 0
M  V30 6183 C 589.508 -3.20132 -1.6445 0
M  V30 6184 C 589.116 -4.41727 -0.747088 0
M  V30 6185 C 590.86 -3.53549 -2.34955 0
M  V30 6186 C 588.767 -5.72195 -1.49489 0
M  V30 6187 H 587.697 -0.673758 -0.338477 0
M  V30 6188 H 590.348 -1.8289 -0.149467 0
M  V30 6189 H 588.73 -3.12218 -2.43589 0
M  V30 6190 H 589.904 -4.608 0.00671129 0
M  V30 6191 H 588.219 -4.16122 -0.152134 0
M  V30 6192 H 590.816 -4.48267 -2.91481 0
M  V30 6193 H 591.159 -2.78006 -3.09868 0
M  V30 6194 H 591.692 -3.62976 -1.62768 0
M  V30 6195 H 588.431 -6.50743 -0.788251 0
M  V30 6196 H 587.951 -5.57115 -2.22224 0
M  V30 6197 H 589.63 -6.1384 -2.04472 0
M  V30 6198 N 589.762 0.448376 -1.51087 0
M  V30 6199 C 591.01 1.19635 -1.62886 0
M  V30 6200 C 591.331 1.91977 -0.342024 0
M  V30 6201 O 590.601 1.85094 0.641636 0
M  V30 6202 H 589.181 0.444598 -0.600285 0
M  V30 6203 H 591.843 0.515138 -1.87969 0
M  V30 6204 H 590.939 1.93194 -2.45117 0
M  V30 6205 N 591.24 1.41047 0.703093 0
M  V30 6206 C 592.487 1.4 1.46309 0
M  V30 6207 C 592.815 0.00654574 1.94499 0
M  V30 6208 O 592.07 -0.980255 1.6938 0
M  V30 6209 C 592.369 2.34686 2.6955 0
M  V30 6210 C 592.035 3.81684 2.40058 0
M  V30 6211 C 590.697 4.21731 2.31725 0
M  V30 6212 C 593.049 4.74525 2.15581 0
M  V30 6213 C 590.377 5.52637 1.97001 0
M  V30 6214 C 592.729 6.05744 1.82366 0
M  V30 6215 C 591.393 6.44819 1.72524 0
M  V30 6216 H 590.663 0.512295 0.535382 0
M  V30 6217 H 593.31 1.73792 0.804275 0
M  V30 6218 H 591.615 1.94122 3.40329 0
M  V30 6219 H 593.312 2.31152 3.27673 0
M  V30 6220 H 589.902 3.49963 2.47435 0
M  V30 6221 H 594.086 4.44395 2.20968 0
M  V30 6222 H 589.342 5.81802 1.87928 0
M  V30 6223 H 593.516 6.77189 1.62444 0
M  V30 6224 H 591.143 7.46168 1.45385 0
M  V30 6225 N 592.718 -0.936591 1.26751 0
M  V30 6226 C 593.964 -1.6858 1.12733 0
M  V30 6227 C 594.297 -1.91414 -0.327745 0
M  V30 6228 O 593.572 -1.49812 -1.24043 0
M  V30 6229 C 593.855 -3.05779 1.90187 0
M  V30 6230 C 593.708 -2.90242 3.43627 0
M  V30 6231 C 595.027 -4.0597 1.69931 0
M  V30 6232 H 592.146 -0.61182 0.410908 0
M  V30 6233 H 594.788 -1.08747 1.55801 0
M  V30 6234 H 592.938 -3.56853 1.53584 0
M  V30 6235 H 594.61 -2.46354 3.9001 0
M  V30 6236 H 592.853 -2.2577 3.70419 0
M  V30 6237 H 593.524 -3.87572 3.93055 0
M  V30 6238 H 596 -3.63874 2.0183 0
M  V30 6239 H 594.876 -4.99974 2.26534 0
M  V30 6240 H 595.137 -4.37369 0.64502 0
M  V30 6241 N 594.196 -1.08629 -1.14182 0
M  V30 6242 C 595.445 -0.812271 -1.84621 0
M  V30 6243 C 595.758 0.664313 -1.83973 0
M  V30 6244 O 596.964 1.05357 -2.50224 0
M  V30 6245 C 595.42 -1.4031 -3.31423 0
M  V30 6246 C 595.028 -2.91164 -3.40481 0
M  V30 6247 C 596.772 -1.20767 -4.06959 0
M  V30 6248 C 594.679 -3.43373 -4.81507 0
M  V30 6249 H 593.609 -0.30019 -0.691666 0
M  V30 6250 H 596.26 -1.30798 -1.28701 0
M  V30 6251 H 594.642 -0.835096 -3.87094 0
M  V30 6252 H 595.816 -3.5412 -2.94848 0
M  V30 6253 H 594.131 -3.09646 -2.78403 0
M  V30 6254 H 596.728 -1.57237 -5.11058 0
M  V30 6255 H 597.071 -0.147664 -4.16038 0
M  V30 6256 H 597.604 -1.74274 -3.57594 0
M  V30 6257 H 594.343 -4.48958 -4.77616 0
M  V30 6258 H 593.863 -2.85176 -5.27669 0
M  V30 6259 H 595.542 -3.40095 -5.50404 0
M  V30 6260 N 595.674 1.31259 -0.872281 0
M  V30 6261 C 596.606 2.27396 -0.28697 0
M  V30 6262 C 597.619 1.53181 0.551297 0
M  V30 6263 O 598.808 1.74561 0.372914 0
M  V30 6264 C 595.908 3.33335 0.611617 0
M  V30 6265 C 595.081 4.36966 -0.194729 0
M  V30 6266 C 594.14 5.22387 0.632358 0
M  V30 6267 O 593.166 5.69169 0.0595691 0
M  V30 6268 N 594.368 5.46985 1.94391 0
M  V30 6269 H 597.133 2.78261 -1.11314 0
M  V30 6270 H 594.694 1.44306 -0.733994 0
M  V30 6271 H 596.686 3.87398 1.17068 0
M  V30 6272 H 595.256 2.82496 1.33846 0
M  V30 6273 H 594.476 3.82945 -0.935241 0
M  V30 6274 H 595.764 5.03273 -0.747935 0
M  V30 6275 H 595.162 5.10737 2.43237 0
M  V30 6276 H 593.719 6.03973 2.45071 0
M  V30 6277 N 597.152 0.631951 1.44375 0
M  V30 6278 C 598.115 -0.0628142 2.29114 0
M  V30 6279 C 599.115 -0.771494 1.41084 0
M  V30 6280 O 600.305 -0.615959 1.62947 0
M  V30 6281 C 597.437 -1.09953 3.22681 0
M  V30 6282 H 598.63 0.682509 2.92031 0
M  V30 6283 H 596.183 0.392128 1.51301 0
M  V30 6284 H 596.918 -1.87481 2.64616 0
M  V30 6285 H 596.703 -0.595286 3.87555 0
M  V30 6286 H 598.193 -1.58538 3.86336 0
M  V30 6287 N 598.631 -1.53133 0.372548 0
M  V30 6288 C 599.861 -2.05476 -0.215202 0
M  V30 6289 C 600.269 -1.24534 -1.42436 0
M  V30 6290 O 599.612 -0.280771 -1.81542 0
M  V30 6291 C 599.674 -3.53276 -0.666068 0
M  V30 6292 C 599.338 -4.54998 0.427342 0
M  V30 6293 C 600.335 -5.03911 1.27944 0
M  V30 6294 C 598.02 -4.98828 0.589579 0
M  V30 6295 C 600.014 -5.95263 2.27905 0
M  V30 6296 C 597.701 -5.89984 1.59255 0
M  V30 6297 C 598.699 -6.38093 2.43571 0
M  V30 6298 O 598.387 -7.27451 3.42156 0
M  V30 6299 H 598.119 -0.67481 -0.040099 0
M  V30 6300 H 600.673 -1.98409 0.531312 0
M  V30 6301 H 598.903 -3.57904 -1.4643 0
M  V30 6302 H 600.592 -3.88442 -1.1776 0
M  V30 6303 H 601.358 -4.70792 1.16532 0
M  V30 6304 H 597.237 -4.60965 -0.0569456 0
M  V30 6305 H 600.781 -6.32736 2.93753 0
M  V30 6306 H 596.678 -6.22518 1.70711 0
M  V30 6307 H 597.446 -7.45467 3.37967 0
M  V30 6308 N 600.109 -0.101901 -1.5727 0
M  V30 6309 C 601.041 0.884723 -2.11436 0
M  V30 6310 C 602.054 1.24149 -1.05314 0
M  V30 6311 O 603.243 1.19341 -1.3274 0
M  V30 6312 C 600.343 2.19179 -2.58484 0
M  V30 6313 C 599.516 2.00933 -3.88516 0
M  V30 6314 C 598.575 3.15213 -4.2134 0
M  V30 6315 O 597.601 2.88877 -4.90448 0
M  V30 6316 N 598.803 4.41174 -3.77288 0
M  V30 6317 H 601.568 0.422058 -2.96713 0
M  V30 6318 H 599.129 0.0830128 -1.61687 0
M  V30 6319 H 601.121 2.94593 -2.77484 0
M  V30 6320 H 599.691 2.56847 -1.7818 0
M  V30 6321 H 598.911 1.09809 -3.78597 0
M  V30 6322 H 600.199 1.86026 -4.73573 0
M  V30 6323 H 599.597 4.6545 -3.21516 0
M  V30 6324 H 598.154 5.13515 -4.01429 0
M  V30 6325 N 601.587 1.56661 0.17182 0
M  V30 6326 C 602.534 1.96371 1.21273 0
M  V30 6327 C 603.504 0.82756 1.44016 0
M  V30 6328 O 604.689 1.08764 1.56764 0
M  V30 6329 C 601.829 2.32838 2.54716 0
M  V30 6330 C 600.942 3.59628 2.39356 0
M  V30 6331 C 600.077 3.85311 3.65662 0
M  V30 6332 C 599.116 5.0545 3.45234 0
M  V30 6333 N 598.253 5.27268 4.63608 0
M  V30 6334 H 603.093 2.85106 0.86709 0
M  V30 6335 H 600.63 1.41073 0.416744 0
M  V30 6336 H 602.588 2.52004 3.3249 0
M  V30 6337 H 601.218 1.47214 2.87277 0
M  V30 6338 H 600.27 3.4838 1.52761 0
M  V30 6339 H 601.582 4.4756 2.20207 0
M  V30 6340 H 600.736 4.04841 4.51872 0
M  V30 6341 H 599.475 2.95753 3.8779 0
M  V30 6342 H 598.48 4.85819 2.5741 0
M  V30 6343 H 599.705 5.96538 3.24529 0
M  V30 6344 H 597.651 4.40662 4.85956 0
M  V30 6345 H 597.568 6.09422 4.4737 0
M  V30 6346 H 598.836 5.51277 5.51103 0
M  V30 6347 N 603.065 -0.440357 1.51323 0
M  V30 6348 C 604.481 -0.7766 1.39431 0
M  V30 6349 C 604.681 -1.95838 0.474296 0
M  V30 6350 O 603.737 -2.52398 -0.0716692 0
M  V30 6351 C 605.05 -1.05981 2.81405 0
M  V30 6352 C 606.598 -1.16442 2.90534 0
M  V30 6353 C 607.073 -1.48058 4.33408 0
M  V30 6354 N 608.564 -1.54988 4.36501 0
M  V30 6355 C 609.299 -1.81017 5.44078 0
M  V30 6356 N 608.795 -2.04858 6.61819 0
M  V30 6357 N 610.588 -1.82774 5.31554 0
M  V30 6358 H 602.739 0.338006 2.09693 0
M  V30 6359 H 605.002 0.0888072 0.943831 0
M  V30 6360 H 604.708 -0.264173 3.50706 0
M  V30 6361 H 604.582 -1.98822 3.20546 0
M  V30 6362 H 606.969 -1.95068 2.21432 0
M  V30 6363 H 607.05 -0.215088 2.54894 0
M  V30 6364 H 606.694 -0.699605 5.03059 0
M  V30 6365 H 606.624 -2.44192 4.66559 0
M  V30 6366 H 609.115 -1.38479 3.51613 0
M  V30 6367 H 609.428 -2.2408 7.396 0
M  V30 6368 H 607.773 -2.02187 6.6494 0
M  V30 6369 H 610.964 -1.63665 4.38556 0
M  V30 6370 H 611.137 -2.02722 6.15474 0
M  V30 6371 N 604.543 -1.41418 -0.695603 0
M  V30 6372 C 605.783 -1.42241 -1.46788 0
M  V30 6373 C 606.147 -0.0300827 -1.91976 0
M  V30 6374 O 607.348 0.0868914 -2.6866 0
M  V30 6375 C 605.619 -2.4011 -2.6473 0
M  V30 6376 S 607.178 -2.59462 -3.53871 0
M  V30 6377 H 603.996 -0.503893 -0.50161 0
M  V30 6378 H 606.598 -1.77855 -0.811654 0
M  V30 6379 H 605.302 -3.40073 -2.29736 0
M  V30 6380 H 604.833 -2.05849 -3.35246 0
M  V30 6381 H 606.848 -1.862 -4.59939 0
M  V30 6382 N 606.021 0.929856 -1.27246 0
M  V30 6383 C 607.432 1.49223 -1.12203 0
M  V30 6384 C 607.783 1.93989 0.293731 0
M  V30 6385 O 606.908 1.80978 1.18642 0
M  V30 6386 C 607.503 2.71198 -2.0307 0
M  V30 6387 C 606.062 3.23666 -1.92139 0
M  V30 6388 C 605.209 1.96409 -1.95752 0
M  V30 6389 H 608.16 0.744181 -1.4017 0
M  V30 6390 H 608.181 3.45905 -1.58524 0
M  V30 6391 H 607.693 2.38585 -3.06102 0
M  V30 6392 H 605.794 3.61042 -0.920834 0
M  V30 6393 H 605.907 3.90006 -2.78267 0
M  V30 6394 H 604.271 2.12806 -1.39949 0
M  V30 6395 H 605.054 1.66113 -3.00436 0
M  V30 6396 N 607.499 1.09233 1.13605 0
M  V30 6397 C 608.429 0.751738 2.21068 0
M  V30 6398 C 609.41 -0.269688 1.67948 0
M  V30 6399 O 610.595 -0.13819 1.93708 0
M  V30 6400 C 607.725 0.16935 3.46887 0
M  V30 6401 C 606.679 1.12007 4.13084 0
M  V30 6402 C 606.005 0.399483 5.33206 0
M  V30 6403 C 607.305 2.46168 4.6065 0
M  V30 6404 H 608.999 1.65024 2.49815 0
M  V30 6405 H 606.545 0.794905 1.20072 0
M  V30 6406 H 608.498 -0.0809824 4.21322 0
M  V30 6407 H 607.222 -0.764335 3.1753 0
M  V30 6408 H 605.881 1.35564 3.40614 0
M  V30 6409 H 605.529 -0.538277 5.00112 0
M  V30 6410 H 605.229 1.03337 5.78442 0
M  V30 6411 H 606.753 0.157403 6.10397 0
M  V30 6412 H 608.167 2.26829 5.26518 0
M  V30 6413 H 606.564 3.05326 5.1662 0
M  V30 6414 H 607.634 3.07076 3.75276 0
M  V30 6415 N 608.977 -1.30795 0.87923 0
M  V30 6416 C 610.223 -1.96653 0.495519 0
M  V30 6417 C 610.556 -1.69282 -0.951703 0
M  V30 6418 O 609.831 -0.994374 -1.6716 0
M  V30 6419 C 610.114 -3.51898 0.764174 0
M  V30 6420 C 609.967 -3.88808 2.2616 0
M  V30 6421 C 611.286 -4.39462 0.236825 0
M  V30 6422 H 608.405 -0.7143 0.181507 0
M  V30 6423 H 611.047 -1.54765 1.10217 0
M  V30 6424 H 609.197 -3.87709 0.247841 0
M  V30 6425 H 610.869 -3.63051 2.8459 0
M  V30 6426 H 609.112 -3.37082 2.73053 0
M  V30 6427 H 609.783 -4.97086 2.4002 0
M  V30 6428 H 612.259 -4.10528 0.678683 0
M  V30 6429 H 611.135 -5.47018 0.454176 0
M  V30 6430 H 611.396 -4.33621 -0.861683 0
M  V30 6431 N 610.455 -0.639598 -1.44038 0
M  V30 6432 C 611.704 -0.144885 -2.01179 0
M  V30 6433 C 612.017 1.24372 -1.50967 0
M  V30 6434 O 613.223 1.83291 -2.00292 0
M  V30 6435 C 611.679 -0.208244 -3.59297 0
M  V30 6436 C 611.287 -1.59869 -4.18504 0
M  V30 6437 C 613.031 0.229568 -4.23879 0
M  V30 6438 C 610.938 -1.61671 -5.68873 0
M  V30 6439 H 609.868 -0.0504005 -0.752314 0
M  V30 6440 H 612.519 -0.799639 -1.65161 0
M  V30 6441 H 610.901 0.513767 -3.92653 0
M  V30 6442 H 612.075 -2.34496 -3.96671 0
M  V30 6443 H 610.39 -1.98131 -3.66242 0
M  V30 6444 H 612.987 0.235758 -5.3418 0
M  V30 6445 H 613.33 1.25848 -3.96822 0
M  V30 6446 H 613.863 -0.440233 -3.95357 0
M  V30 6447 H 610.602 -2.62427 -6.00677 0
M  V30 6448 H 610.122 -0.913489 -5.92803 0
M  V30 6449 H 611.801 -1.35439 -6.32665 0
M  V30 6450 N 611.933 1.52934 -0.380664 0
M  V30 6451 C 613.21 1.93845 0.261417 0
M  V30 6452 C 613.59 1.31544 1.65104 0
M  V30 6453 O 612.938 0.480234 2.23397 0
M  V30 6454 C 613.148 3.47739 0.296466 0
M  V30 6455 C 614.496 4.21284 0.529578 0
M  V30 6456 O 615.52 3.54199 0.377041 0
M  V30 6457 O 614.379 5.40195 0.827753 0
M  V30 6458 H 611.473 0.811318 0.160285 0
M  V30 6459 H 614.019 1.64042 -0.434544 0
M  V30 6460 H 612.791 3.85395 -0.67724 0
M  V30 6461 H 612.414 3.8382 1.0377 0
M  V30 6462 N 613.412 0.11024 1.57214 0
M  V30 6463 C 614.642 -0.557025 1.98949 0
M  V30 6464 C 615.05 -1.61317 0.988606 0
M  V30 6465 O 614.393 -1.83679 -0.0279159 0
M  V30 6466 C 614.455 -1.24956 3.37085 0
M  V30 6467 C 614.119 -0.342398 4.55716 0
M  V30 6468 C 615.116 0.415511 5.18237 0
M  V30 6469 C 612.801 -0.256029 5.01647 0
M  V30 6470 C 614.795 1.24761 6.25071 0
M  V30 6471 C 612.482 0.579713 6.08344 0
M  V30 6472 C 613.48 1.33017 6.69922 0
M  V30 6473 O 613.168 2.15205 7.74559 0
M  V30 6474 H 612.9 -0.152792 0.658506 0
M  V30 6475 H 615.454 0.19076 2.04512 0
M  V30 6476 H 613.684 -2.04424 3.2825 0
M  V30 6477 H 615.373 -1.81286 3.63167 0
M  V30 6478 H 616.139 0.358605 4.83672 0
M  V30 6479 H 612.018 -0.829831 4.5347 0
M  V30 6480 H 615.562 1.83386 6.73064 0
M  V30 6481 H 611.459 0.638044 6.42339 0
M  V30 6482 H 612.227 2.08052 7.91617 0
M  V30 6483 N 614.89 -1.56749 -0.16351 0
M  V30 6484 C 615.82 -2.00042 -1.20438 0
M  V30 6485 C 616.801 -0.877256 -1.45733 0
M  V30 6486 O 617.986 -1.1439 -1.56935 0
M  V30 6487 C 615.116 -2.36697 -2.54149 0
M  V30 6488 C 614.07 -3.52046 -2.43408 0
M  V30 6489 C 613.396 -3.74466 -3.81679 0
M  V30 6490 C 614.696 -4.85247 -1.93216 0
M  V30 6491 H 616.39 -2.87244 -0.844477 0
M  V30 6492 H 613.936 -1.38194 -0.40478 0
M  V30 6493 H 615.889 -2.65582 -3.27176 0
M  V30 6494 H 614.613 -1.46414 -2.91943 0
M  V30 6495 H 613.272 -3.23301 -1.72834 0
M  V30 6496 H 612.92 -2.81461 -4.1688 0
M  V30 6497 H 612.62 -4.52084 -3.75359 0
M  V30 6498 H 614.144 -4.0576 -4.5628 0
M  V30 6499 H 615.558 -5.12957 -2.56023 0
M  V30 6500 H 613.955 -5.66556 -1.97825 0
M  V30 6501 H 615.025 -4.7672 -0.88689 0
M  V30 6502 N 616.368 0.432326 -1.51554 0
M  V30 6503 C 617.617 1.17831 -1.63703 0
M  V30 6504 C 617.93 1.92229 -0.36156 0
M  V30 6505 O 619.136 2.69069 -0.362495 0
M  V30 6506 C 617.592 2.14318 -2.89129 0
M  V30 6507 C 617.2 1.45544 -4.23699 0
M  V30 6508 C 618.944 2.89319 -3.10636 0
M  V30 6509 C 616.851 2.40545 -5.4027 0
M  V30 6510 H 615.781 0.443533 -0.60975 0
M  V30 6511 H 618.432 0.444878 -1.78026 0
M  V30 6512 H 616.814 2.91117 -2.68452 0
M  V30 6513 H 617.988 0.742693 -4.54775 0
M  V30 6514 H 616.303 0.826772 -4.0811 0
M  V30 6515 H 618.9 3.60495 -3.94902 0
M  V30 6516 H 619.243 3.50951 -2.23918 0
M  V30 6517 H 619.776 2.19625 -3.31677 0
M  V30 6518 H 616.515 1.83594 -6.29264 0
M  V30 6519 H 616.035 3.09859 -5.13563 0
M  V30 6520 H 617.714 3.01569 -5.72421 0
M  V30 6521 N 617.846 1.41785 0.688094 0
M  V30 6522 C 619.123 1.32031 1.44316 0
M  V30 6523 C 619.503 -0.0486079 2.11044 0
M  V30 6524 O 618.851 -1.06332 2.02252 0
M  V30 6525 C 619.061 2.47906 2.45649 0
M  V30 6526 C 620.409 2.89415 3.10683 0
M  V30 6527 O 621.433 2.477 2.55975 0
M  V30 6528 O 620.292 3.61573 4.09789 0
M  V30 6529 H 617.386 0.519994 0.643067 0
M  V30 6530 H 619.932 1.53765 0.71794 0
M  V30 6531 H 618.704 3.39222 1.95048 0
M  V30 6532 H 618.327 2.28089 3.25671 0
M  V30 6533 N 619.324 -0.923095 1.27737 0
M  V30 6534 C 620.254 -2.04124 1.13383 0
M  V30 6535 C 621.235 -1.70066 0.0340658 0
M  V30 6536 O 622.42 -1.93068 0.209383 0
M  V30 6537 C 619.55 -3.3831 0.785097 0
M  V30 6538 C 618.504 -3.86496 1.8386 0
M  V30 6539 C 617.83 -5.1754 1.34373 0
M  V30 6540 C 619.13 -4.09381 3.24353 0
M  V30 6541 H 620.824 -2.1639 2.06919 0
M  V30 6542 H 618.37 -1.03976 0.996243 0
M  V30 6543 H 620.323 -4.16016 0.671485 0
M  V30 6544 H 619.047 -3.2607 -0.185969 0
M  V30 6545 H 617.706 -3.10987 1.9412 0
M  V30 6546 H 617.354 -5.01696 0.361989 0
M  V30 6547 H 617.054 -5.50751 2.04811 0
M  V30 6548 H 618.578 -5.97811 1.24315 0
M  V30 6549 H 619.992 -4.77641 3.17067 0
M  V30 6550 H 618.389 -4.53906 3.92542 0
M  V30 6551 H 619.459 -3.14515 3.69064 0
M  V30 6552 N 620.802 -1.09834 -1.13024 0
M  V30 6553 C 621.765 -0.745058 -2.16752 0
M  V30 6554 C 622.765 0.227435 -1.59183 0
M  V30 6555 O 623.955 0.0050786 -1.74199 0
M  V30 6556 C 621.087 -0.102543 -3.40746 0
M  V30 6557 H 622.28 -1.66375 -2.49518 0
M  V30 6558 H 619.833 -0.898061 -1.27924 0
M  V30 6559 H 620.568 0.827177 -3.13573 0
M  V30 6560 H 620.353 -0.80235 -3.83803 0
M  V30 6561 H 621.843 0.129082 -4.174 0
M  V30 6562 N 622.28 1.30327 -0.886154 0
M  V30 6563 C 623.508 2.00254 -0.520176 0
M  V30 6564 C 623.923 1.66419 0.891637 0
M  V30 6565 O 623.28 0.901951 1.58654 0
M  V30 6566 C 623.331 3.54916 -0.686775 0
M  V30 6567 O 623.052 3.87547 -2.04301 0
M  V30 6568 C 624.553 4.42115 -0.323945 0
M  V30 6569 H 621.773 0.640204 -0.200947 0
M  V30 6570 H 624.317 1.66183 -1.19178 0
M  V30 6571 H 622.472 3.8735 -0.0625273 0
M  V30 6572 H 622.886 4.82247 -2.06249 0
M  V30 6573 H 624.36 5.49808 -0.491407 0
M  V30 6574 H 624.837 4.32953 0.73811 0
M  V30 6575 H 625.443 4.15129 -0.924565 0
M  V30 6576 N 623.758 0.647228 1.43697 0
M  V30 6577 C 625.174 0.314256 1.56476 0
M  V30 6578 C 625.374 -1.18191 1.63196 0
M  V30 6579 O 624.43 -1.96655 1.58376 0
M  V30 6580 C 625.743 1.02034 2.82859 0
M  V30 6581 C 627.291 1.00002 2.96595 0
M  V30 6582 C 627.766 1.68689 4.25803 0
M  V30 6583 N 629.257 1.65424 4.32654 0
M  V30 6584 C 629.992 2.1545 5.31384 0
M  V30 6585 N 629.488 2.73738 6.36427 0
M  V30 6586 N 631.281 2.05985 5.22998 0
M  V30 6587 H 623.432 1.61821 1.37578 0
M  V30 6588 H 625.695 0.680184 0.660344 0
M  V30 6589 H 625.401 2.07542 2.83935 0
M  V30 6590 H 625.275 0.568146 3.72897 0
M  V30 6591 H 627.662 -0.0466319 2.95063 0
M  V30 6592 H 627.743 1.49086 2.07863 0
M  V30 6593 H 627.387 2.73308 4.28095 0
M  V30 6594 H 627.317 1.17076 5.13421 0
M  V30 6595 H 629.808 1.22884 3.57363 0
M  V30 6596 H 630.121 3.09602 7.08072 0
M  V30 6597 H 628.466 2.77796 6.37067 0
M  V30 6598 H 631.657 1.60157 4.39849 0
M  V30 6599 H 631.83 2.45281 5.99784 0
M  V30 6600 N 625.236 -1.5273 0.388769 0
M  V30 6601 C 626.461 -2.0647 -0.19621 0
M  V30 6602 C 626.886 -1.25865 -1.39784 0
M  V30 6603 O 626.244 -0.283562 -1.79069 0
M  V30 6604 C 626.292 -3.56456 -0.5451 0
M  V30 6605 O 625.396 -3.78426 -1.63912 0
M  V30 6606 H 624.737 -0.663599 -0.023067 0
M  V30 6607 H 627.267 -1.96898 0.556084 0
M  V30 6608 H 627.277 -3.99888 -0.809557 0
M  V30 6609 H 625.952 -4.14561 0.333417 0
M  V30 6610 H 624.529 -3.46884 -1.36842 0
M  V30 6611 N 626.714 -0.118576 -1.57153 0
M  V30 6612 C 628.13 0.238014 -1.57815 0
M  V30 6613 C 628.33 1.66747 -1.13127 0
M  V30 6614 O 627.386 2.38867 -0.818462 0
M  V30 6615 C 628.699 0.00508207 -3.007 0
M  V30 6616 C 630.247 0.0710139 -3.12919 0
M  V30 6617 C 630.722 -0.13422 -4.57803 0
M  V30 6618 N 632.213 -0.0801755 -4.63131 0
M  V30 6619 C 632.948 -0.213885 -5.73001 0
M  V30 6620 N 632.444 -0.403742 -6.91623 0
M  V30 6621 N 634.237 -0.15349 -5.6189 0
M  V30 6622 H 626.388 -1.05226 -1.84503 0
M  V30 6623 H 628.651 -0.414318 -0.852669 0
M  V30 6624 H 628.357 -0.983125 -3.3768 0
M  V30 6625 H 628.231 0.73714 -3.69927 0
M  V30 6626 H 630.618 1.04975 -2.75798 0
M  V30 6627 H 630.699 -0.692918 -2.46236 0
M  V30 6628 H 630.343 -1.10992 -4.95624 0
M  V30 6629 H 630.273 0.649692 -5.22577 0
M  V30 6630 H 632.764 0.0630689 -3.77847 0
M  V30 6631 H 633.077 -0.496645 -7.71202 0
M  V30 6632 H 631.422 -0.43971 -6.93608 0
M  V30 6633 H 634.613 -0.00613174 -4.681 0
M  V30 6634 H 634.786 -0.261138 -6.47474 0
M  V30 6635 N 628.193 1.56834 0.155195 0
M  V30 6636 C 629.609 1.51315 0.50755 0
M  V30 6637 C 629.809 0.825614 1.83809 0
M  V30 6638 O 628.865 0.39271 2.49427 0
M  V30 6639 C 630.178 2.96074 0.52542 0
M  V30 6640 C 631.726 3.06968 0.611505 0
M  V30 6641 C 632.201 4.53218 0.660115 0
M  V30 6642 N 633.692 4.5753 0.722564 0
M  V30 6643 C 634.427 5.68056 0.781023 0
M  V30 6644 N 633.923 6.88173 0.799327 0
M  V30 6645 N 635.716 5.56068 0.821278 0
M  V30 6646 H 627.867 1.9993 -0.717063 0
M  V30 6647 H 630.13 0.911507 -0.260496 0
M  V30 6648 H 629.836 3.49599 -0.383875 0
M  V30 6649 H 629.71 3.51587 1.36624 0
M  V30 6650 H 632.097 2.53468 1.51122 0
M  V30 6651 H 632.178 2.54513 -0.256306 0
M  V30 6652 H 631.822 5.07354 -0.23541 0
M  V30 6653 H 631.752 5.03447 1.5443 0
M  V30 6654 H 634.243 3.71054 0.716049 0
M  V30 6655 H 634.556 7.6816 0.845553 0
M  V30 6656 H 632.901 6.90751 0.767337 0
M  V30 6657 H 636.092 4.61142 0.804091 0
M  V30 6658 H 636.265 6.42223 0.863372 0
M  V30 6659 N 629.671 -0.424282 1.51781 0
M  V30 6660 C 631.087 -0.761768 1.40247 0
M  V30 6661 C 631.287 -1.95324 0.495041 0
M  V30 6662 O 630.343 -2.5246 -0.0448949 0
M  V30 6663 C 631.656 -1.0299 2.82513 0
M  V30 6664 C 633.204 -1.13354 2.91753 0
M  V30 6665 C 633.679 -1.43453 4.34954 0
M  V30 6666 N 635.17 -1.5035 4.3812 0
M  V30 6667 C 635.905 -1.75236 5.45967 0
M  V30 6668 N 635.401 -1.97827 6.63955 0
M  V30 6669 N 637.194 -1.77126 5.33463 0
M  V30 6670 H 629.345 0.360228 2.09323 0
M  V30 6671 H 631.608 0.0988128 0.942836 0
M  V30 6672 H 631.314 -0.226961 3.50967 0
M  V30 6673 H 631.188 -1.95411 3.22637 0
M  V30 6674 H 633.575 -1.92709 2.23489 0
M  V30 6675 H 633.656 -0.188041 2.55108 0
M  V30 6676 H 633.3 -0.646209 5.03772 0
M  V30 6677 H 633.23 -2.3923 4.69123 0
M  V30 6678 H 635.721 -1.34742 3.53062 0
M  V30 6679 H 636.034 -2.16223 7.41935 0
M  V30 6680 H 634.379 -1.95123 6.67047 0
M  V30 6681 H 637.57 -1.59005 4.40267 0
M  V30 6682 H 637.743 -1.96182 6.17589 0
M  V30 6683 N 631.149 -1.42148 -0.680565 0
M  V30 6684 C 632.079 -1.4796 -1.80638 0
M  V30 6685 C 633.06 -0.336728 -1.66734 0
M  V30 6686 O 634.245 -0.550247 -1.86242 0
M  V30 6687 C 631.375 -1.37569 -3.18892 0
M  V30 6688 C 630.329 -2.49823 -3.47524 0
M  V30 6689 C 629.655 -2.24491 -4.85291 0
M  V30 6690 C 630.955 -3.92144 -3.44994 0
M  V30 6691 H 632.649 -2.42184 -1.76032 0
M  V30 6692 H 630.195 -1.16566 -0.845481 0
M  V30 6693 H 632.148 -1.40243 -3.97379 0
M  V30 6694 H 630.872 -0.398357 -3.24162 0
M  V30 6695 H 629.531 -2.46455 -2.71395 0
M  V30 6696 H 629.179 -1.25066 -4.87204 0
M  V30 6697 H 628.879 -2.99722 -5.05411 0
M  V30 6698 H 630.403 -2.28906 -5.66069 0
M  V30 6699 H 631.817 -3.97145 -4.13459 0
M  V30 6700 H 630.214 -4.67179 -3.76648 0
M  V30 6701 H 631.284 -4.19225 -2.43676 0
M  V30 6702 N 632.627 0.916307 -1.28225 0
M  V30 6703 C 633.56 2.01954 -1.06254 0
M  V30 6704 C 634.538 1.62587 0.0205983 0
M  V30 6705 O 635.722 1.88073 -0.126824 0
M  V30 6706 C 632.849 3.33086 -0.614141 0
M  V30 6707 C 631.895 3.91435 -1.69354 0
M  V30 6708 S 632.728 4.22603 -3.28887 0
M  V30 6709 C 633.884 5.568 -2.85876 0
M  V30 6710 H 634.117 2.20281 -1.99659 0
M  V30 6711 H 631.65 1.06085 -1.12184 0
M  V30 6712 H 633.608 4.089 -0.36213 0
M  V30 6713 H 632.269 3.12664 0.300036 0
M  V30 6714 H 631.462 4.86098 -1.33136 0
M  V30 6715 H 631.064 3.22248 -1.89821 0
M  V30 6716 H 633.356 6.3658 -2.31888 0
M  V30 6717 H 634.299 5.97927 -3.79326 0
M  V30 6718 H 634.707 5.17865 -2.24669 0
M  V30 6719 N 634.105 1.10431 1.1244 0
M  V30 6720 C 635.354 0.841539 1.83306 0
M  V30 6721 C 635.667 -0.634961 1.85007 0
M  V30 6722 O 636.873 -1.01363 2.51869 0
M  V30 6723 C 635.329 1.45565 3.29149 0
M  V30 6724 C 634.937 2.96544 3.35806 0
M  V30 6725 C 636.681 1.27227 4.04986 0
M  V30 6726 C 634.588 3.5099 4.75983 0
M  V30 6727 H 633.518 0.311156 0.686803 0
M  V30 6728 H 636.169 1.32829 1.26604 0
M  V30 6729 H 634.551 0.896574 3.85717 0
M  V30 6730 H 635.725 3.58766 2.89177 0
M  V30 6731 H 634.04 3.14036 2.73442 0
M  V30 6732 H 636.637 1.65348 5.08492 0
M  V30 6733 H 636.98 0.213834 4.1575 0
M  V30 6734 H 637.513 1.79941 3.54776 0
M  V30 6735 H 634.252 4.56499 4.70413 0
M  V30 6736 H 633.772 2.93535 5.23065 0
M  V30 6737 H 635.451 3.48808 5.44924 0
M  V30 6738 N 635.583 -1.29855 0.893053 0
M  V30 6739 C 636.999 -1.48366 0.588199 0
M  V30 6740 C 637.199 -1.81654 -0.872018 0
M  V30 6741 O 636.255 -1.909 -1.65268 0
M  V30 6742 C 637.568 -2.60136 1.5083 0
M  V30 6743 C 639.116 -2.74014 1.51279 0
M  V30 6744 C 639.591 -3.88905 2.41902 0
M  V30 6745 N 641.082 -3.96228 2.39911 0
M  V30 6746 C 641.817 -4.84458 3.06738 0
M  V30 6747 N 641.313 -5.77426 3.8282 0
M  V30 6748 N 643.106 -4.77894 2.95929 0
M  V30 6749 H 635.257 -1.06522 1.83757 0
M  V30 6750 H 637.52 -0.528495 0.787018 0
M  V30 6751 H 637.226 -2.42383 2.54839 0
M  V30 6752 H 637.1 -3.56793 1.22388 0
M  V30 6753 H 639.487 -2.91167 0.480179 0
M  V30 6754 H 639.568 -1.77952 1.83757 0
M  V30 6755 H 639.212 -3.72508 3.45253 0
M  V30 6756 H 639.142 -4.84322 2.06737 0
M  V30 6757 H 641.633 -3.29728 1.84629 0
M  V30 6758 H 641.946 -6.41529 4.30883 0
M  V30 6759 H 640.291 -5.77332 3.86927 0
M  V30 6760 H 643.482 -4.04248 2.36012 0
M  V30 6761 H 643.655 -5.46444 3.48286 0
M  V30 6762 N 637.061 -0.65484 -1.43351 0
M  V30 6763 C 637.991 0.0221809 -2.33489 0
M  V30 6764 C 638.972 0.810272 -1.49561 0
M  V30 6765 O 640.157 0.771426 -1.78221 0
M  V30 6766 C 637.287 0.988117 -3.32947 0
M  V30 6767 C 636.241 0.310026 -4.26876 0
M  V30 6768 C 635.567 1.38752 -5.16384 0
M  V30 6769 C 636.867 -0.798589 -5.16159 0
M  V30 6770 H 638.561 -0.730571 -2.9035 0
M  V30 6771 H 636.107 -0.352773 -1.39612 0
M  V30 6772 H 638.06 1.47067 -3.94904 0
M  V30 6773 H 636.784 1.77205 -2.74346 0
M  V30 6774 H 635.443 -0.152097 -3.66284 0
M  V30 6775 H 635.091 2.16293 -4.54121 0
M  V30 6776 H 634.791 0.939051 -5.80048 0
M  V30 6777 H 636.315 1.87141 -5.81215 0
M  V30 6778 H 637.729 -0.398126 -5.71916 0
M  V30 6779 H 636.126 -1.17163 -5.88552 0
M  V30 6780 H 637.196 -1.65588 -4.55751 0
M  V30 6781 N 638.539 1.52521 -0.396863 0
M  V30 6782 C 639.785 2.01971 0.183169 0
M  V30 6783 C 640.118 1.2825 1.45827 0
M  V30 6784 O 639.393 0.385179 1.90648 0
M  V30 6785 C 639.676 3.5736 0.443391 0
M  V30 6786 C 639.529 4.41743 -0.84753 0
M  V30 6787 C 640.848 4.22539 1.2308 0
M  V30 6788 H 637.967 0.734119 0.0650976 0
M  V30 6789 H 640.609 1.82519 -0.527918 0
M  V30 6790 H 638.759 3.74066 1.04914 0
M  V30 6791 H 640.431 4.36773 -1.48414 0
M  V30 6792 H 638.674 4.0845 -1.4612 0
M  V30 6793 H 639.345 5.48507 -0.620003 0
M  V30 6794 H 641.821 4.09857 0.718084 0
M  V30 6795 H 640.697 5.31227 1.38162 0
M  V30 6796 H 640.958 3.80675 2.24808 0
M  V30 6797 N 640.017 0.126909 1.57088 0
M  V30 6798 C 640.964 -0.82036 2.15728 0
M  V30 6799 C 641.934 -1.25811 1.08447 0
M  V30 6800 O 643.119 -1.33422 1.36393 0
M  V30 6801 C 640.259 -2.06199 2.76724 0
M  V30 6802 C 639.372 -1.67188 3.98337 0
M  V30 6803 C 638.507 -2.86378 4.47393 0
M  V30 6804 C 637.546 -2.43644 5.61519 0
M  V30 6805 N 636.683 -3.55775 6.05284 0
M  V30 6806 H 641.523 -0.313472 2.96347 0
M  V30 6807 H 639.06 -0.14303 1.46403 0
M  V30 6808 H 641.018 -2.78959 3.10222 0
M  V30 6809 H 639.648 -2.54333 1.98782 0
M  V30 6810 H 638.7 -0.842714 3.70948 0
M  V30 6811 H 640.012 -1.31789 4.81075 0
M  V30 6812 H 639.166 -3.67353 4.82842 0
M  V30 6813 H 637.905 -3.25009 3.63621 0
M  V30 6814 H 636.91 -1.61104 5.25667 0
M  V30 6815 H 638.135 -2.06122 6.47063 0
M  V30 6816 H 636.081 -3.94065 5.24451 0
M  V30 6817 H 635.998 -3.24325 6.82898 0
M  V30 6818 H 637.266 -4.37166 6.45373 0
M  V30 6819 N 641.495 -1.56914 -0.146875 0
M  V30 6820 C 642.743 -1.82994 -0.85777 0
M  V30 6821 C 643.064 -0.707814 -1.817 0
M  V30 6822 O 642.334 0.270521 -1.94023 0
M  V30 6823 H 640.914 -0.675106 -0.319751 0
M  V30 6824 H 643.576 -1.9439 -0.140849 0
M  V30 6825 H 642.672 -2.77928 -1.41994 0
M  V30 6826 N 642.974 0.416227 -1.52004 0
M  V30 6827 C 643.937 1.48926 -1.74223 0
M  V30 6828 C 644.937 1.48693 -0.612119 0
M  V30 6829 O 646.127 1.50343 -0.879921 0
M  V30 6830 C 643.259 2.88372 -1.81809 0
M  V30 6831 H 644.452 1.3052 -2.70008 0
M  V30 6832 H 642.005 0.646271 -1.42313 0
M  V30 6833 H 642.74 3.12157 -0.879135 0
M  V30 6834 H 642.525 2.89944 -2.6396 0
M  V30 6835 H 644.015 3.66173 -2.00766 0
M  V30 6836 N 644.452 1.42507 0.673017 0
M  V30 6837 C 645.682 1.46261 1.45916 0
M  V30 6838 C 646.09 0.0729724 1.89059 0
M  V30 6839 O 645.433 -0.922987 1.58829 0
M  V30 6840 C 645.495 2.32853 2.73898 0
M  V30 6841 C 645.159 3.80699 2.52819 0
M  V30 6842 C 646.156 4.72307 2.17306 0
M  V30 6843 C 643.841 4.24983 2.67758 0
M  V30 6844 C 645.835 6.06192 1.97003 0
M  V30 6845 C 643.522 5.58927 2.4707 0
M  V30 6846 C 644.52 6.49348 2.11746 0
M  V30 6847 O 644.208 7.80817 1.91259 0
M  V30 6848 H 643.94 0.499561 0.455428 0
M  V30 6849 H 646.494 1.87697 0.834196 0
M  V30 6850 H 644.724 1.86268 3.38882 0
M  V30 6851 H 646.413 2.28041 3.35786 0
M  V30 6852 H 647.179 4.39378 2.05359 0
M  V30 6853 H 643.058 3.54893 2.94231 0
M  V30 6854 H 646.602 6.76731 1.69355 0
M  V30 6855 H 642.499 5.91429 2.58615 0
M  V30 6856 H 643.267 7.92194 2.05843 0
M  V30 6857 N 645.93 -0.909495 1.28709 0
M  V30 6858 C 647.176 -1.66175 1.17293 0
M  V30 6859 C 647.531 -1.90426 -0.274891 0
M  V30 6860 O 646.824 -1.49659 -1.19635 0
M  V30 6861 C 647.018 -3.02117 1.90945 0
M  V30 6862 C 646.847 -2.91134 3.42741 0
M  V30 6863 C 645.617 -2.92429 4.12085 0
M  V30 6864 C 647.815 -2.68889 4.3841 0
M  V30 6865 N 645.797 -2.72078 5.50315 0
M  V30 6866 C 647.168 -2.57423 5.64033 0
M  V30 6867 C 649.223 -2.53919 4.28287 0
M  V30 6868 C 647.926 -2.32513 6.80683 0
M  V30 6869 C 649.952 -2.3039 5.44678 0
M  V30 6870 C 649.314 -2.19682 6.69268 0
M  V30 6871 H 645.413 -0.614095 0.48416 0
M  V30 6872 H 647.997 -1.07377 1.62414 0
M  V30 6873 H 646.168 -3.58993 1.48252 0
M  V30 6874 H 647.9 -3.66388 1.71878 0
M  V30 6875 H 644.655 -3.03345 3.63701 0
M  V30 6876 H 645.079 -2.64983 6.22987 0
M  V30 6877 H 649.721 -2.60946 3.32666 0
M  V30 6878 H 647.439 -2.24225 7.76369 0
M  V30 6879 H 651.025 -2.19665 5.38738 0
M  V30 6880 H 649.905 -2.01725 7.5781 0
M  V30 6881 N 647.408 -1.11026 -1.11852 0
M  V30 6882 C 648.685 -0.768347 -1.79877 0
M  V30 6883 C 649.065 0.744261 -1.97545 0
M  V30 6884 O 648.413 1.67271 -1.55669 0
M  V30 6885 C 648.623 -1.52648 -3.13846 0
M  V30 6886 C 649.971 -1.70297 -3.88953 0
M  V30 6887 O 650.995 -1.49037 -3.23522 0
M  V30 6888 O 649.854 -2.05593 -5.06353 0
M  V30 6889 H 646.948 -0.277891 -0.778913 0
M  V30 6890 H 649.494 -1.21343 -1.18633 0
M  V30 6891 H 648.266 -2.55564 -2.96315 0
M  V30 6892 H 647.889 -1.07466 -3.82801 0
M  V30 6893 N 648.886 1.2938 -0.899927 0
M  V30 6894 C 650.111 2.00228 -0.540692 0
M  V30 6895 C 650.536 1.66909 0.867359 0
M  V30 6896 O 649.894 0.893824 1.57735 0
M  V30 6897 C 649.942 3.52921 -0.740232 0
M  V30 6898 O 649.046 4.11879 0.207154 0
M  V30 6899 H 648.387 0.629505 -0.211233 0
M  V30 6900 H 650.917 1.6487 -1.21158 0
M  V30 6901 H 650.927 4.0287 -0.644973 0
M  V30 6902 H 649.602 3.76508 -1.76677 0
M  V30 6903 H 648.179 3.72845 0.0643315 0
M  V30 6904 N 650.364 0.662433 1.43002 0
M  V30 6905 C 651.274 -0.0239199 2.34588 0
M  V30 6906 C 652.29 -0.802255 1.54402 0
M  V30 6907 O 653.466 -0.747401 1.87018 0
M  V30 6908 C 650.531 -0.972098 3.32793 0
M  V30 6909 C 649.592 -0.189673 4.28881 0
M  V30 6910 C 648.825 -1.09269 5.22395 0
M  V30 6911 O 649.048 -2.33209 5.20547 0
M  V30 6912 O 647.982 -0.560136 5.99288 0
M  V30 6913 H 651.808 0.730171 2.94792 0
M  V30 6914 H 649.393 0.422635 1.43297 0
M  V30 6915 H 651.275 -1.51676 3.93157 0
M  V30 6916 H 649.95 -1.70626 2.75079 0
M  V30 6917 H 648.857 0.398794 3.71968 0
M  V30 6918 H 650.19 0.50511 4.89601 0
M  V30 6919 N 651.842 -1.52309 0.404946 0
M  V30 6920 C 653.091 -2.00952 -0.173529 0
M  V30 6921 C 653.404 -1.29512 -1.46581 0
M  V30 6922 O 654.61 -1.6895 -2.12528 0
M  V30 6923 C 653.066 -3.58097 -0.359801 0
M  V30 6924 C 652.674 -4.38449 0.920138 0
M  V30 6925 C 654.418 -4.14984 -0.893794 0
M  V30 6926 C 652.325 -5.87227 0.701285 0
M  V30 6927 H 651.255 -0.750871 -0.0686244 0
M  V30 6928 H 653.906 -1.75687 0.529749 0
M  V30 6929 H 652.288 -3.79675 -1.12531 0
M  V30 6930 H 653.462 -4.28633 1.69147 0
M  V30 6931 H 651.777 -3.92859 1.38024 0
M  V30 6932 H 654.374 -5.23813 -1.0735 0
M  V30 6933 H 654.717 -3.72072 -1.8673 0
M  V30 6934 H 655.25 -3.97358 -0.187453 0
M  V30 6935 H 651.989 -6.34491 1.64624 0
M  V30 6936 H 651.509 -5.99792 -0.0308288 0
M  V30 6937 H 653.188 -6.46096 0.341846 0
M  V30 6938 N 653.32 -0.135238 -1.57019 0
M  V30 6939 C 654.267 0.808908 -2.1616 0
M  V30 6940 C 655.237 1.25234 -1.09113 0
M  V30 6941 O 656.422 1.32697 -1.37099 0
M  V30 6942 C 653.562 2.04729 -2.77813 0
M  V30 6943 C 652.675 1.65074 -3.99218 0
M  V30 6944 C 651.81 2.84002 -4.48906 0
M  V30 6945 C 650.849 2.40663 -5.62803 0
M  V30 6946 N 649.986 3.5256 -6.07162 0
M  V30 6947 H 654.826 0.297751 -2.96509 0
M  V30 6948 H 652.363 0.135264 -1.46477 0
M  V30 6949 H 654.321 2.7731 -3.11697 0
M  V30 6950 H 652.951 2.53275 -2.00128 0
M  V30 6951 H 652.003 0.823029 -3.7139 0
M  V30 6952 H 653.315 1.29236 -4.81767 0
M  V30 6953 H 652.469 3.64788 -4.84783 0
M  V30 6954 H 651.208 3.23076 -3.65339 0
M  V30 6955 H 650.213 1.58314 -5.26514 0
M  V30 6956 H 651.438 2.02687 -6.48147 0
M  V30 6957 H 649.384 3.91278 -5.26534 0
M  V30 6958 H 649.301 3.20699 -6.84608 0
M  V30 6959 H 650.569 4.33738 -6.47682 0
M  V30 6960 N 654.798 1.5699 0.138552 0
M  V30 6961 C 656.214 1.51844 0.491472 0
M  V30 6962 C 656.414 0.845063 1.82923 0
M  V30 6963 O 655.47 0.419143 2.48997 0
M  V30 6964 C 656.783 2.96615 0.493987 0
M  V30 6965 C 658.331 3.076 0.578913 0
M  V30 6966 C 658.806 4.53893 0.612009 0
M  V30 6967 N 660.297 4.5827 0.673997 0
M  V30 6968 C 661.032 5.68852 0.720729 0
M  V30 6969 N 660.528 6.88982 0.726292 0
M  V30 6970 N 662.321 5.56908 0.762253 0
M  V30 6971 H 654.472 1.99158 -0.738228 0
M  V30 6972 H 656.735 0.908693 -0.270149 0
M  V30 6973 H 656.441 3.49172 -0.420933 0
M  V30 6974 H 656.315 3.53017 1.32887 0
M  V30 6975 H 658.702 2.55057 1.48425 0
M  V30 6976 H 658.783 2.54227 -0.283286 0
M  V30 6977 H 658.427 5.07076 -0.289208 0
M  V30 6978 H 658.357 5.05057 1.49082 0
M  V30 6979 H 660.848 3.71793 0.676654 0
M  V30 6980 H 661.161 7.69014 0.764032 0
M  V30 6981 H 659.506 6.91526 0.69403 0
M  V30 6982 H 662.697 4.61969 0.755135 0
M  V30 6983 H 662.87 6.43102 0.795207 0
M  V30 6984 N 656.276 -0.40816 1.52223 0
M  V30 6985 C 657.239 -1.48 1.7501 0
M  V30 6986 C 658.239 -1.48367 0.619996 0
M  V30 6987 O 659.429 -1.49874 0.887881 0
M  V30 6988 C 656.561 -2.87403 1.83336 0
M  V30 6989 H 657.754 -1.29086 2.70697 0
M  V30 6990 H 655.307 -0.638715 1.42654 0
M  V30 6991 H 656.042 -3.11686 0.895677 0
M  V30 6992 H 655.827 -2.8854 2.65494 0
M  V30 6993 H 657.317 -3.65103 2.02705 0
M  V30 6994 N 657.755 -1.42862 -0.66545 0
M  V30 6995 C 658.687 -1.43026 -1.79098 0
M  V30 6996 C 659.7 -0.32803 -1.59461 0
M  V30 6997 O 660.889 -0.591709 -1.68407 0
M  V30 6998 C 657.989 -1.21566 -3.16346 0
M  V30 6999 C 657.162 -2.44399 -3.62751 0
M  V30 7000 C 656.221 -2.18344 -4.78761 0
M  V30 7001 O 655.247 -2.91611 -4.88827 0
M  V30 7002 N 656.449 -1.1924 -5.68122 0
M  V30 7003 H 659.214 -2.40045 -1.79439 0
M  V30 7004 H 656.775 -1.37861 -0.848872 0
M  V30 7005 H 658.767 -1.02037 -3.91625 0
M  V30 7006 H 657.337 -0.330368 -3.10849 0
M  V30 7007 H 656.557 -2.79433 -2.78048 0
M  V30 7008 H 657.845 -3.26173 -3.90498 0
M  V30 7009 H 657.243 -0.586603 -5.6265 0
M  V30 7010 H 655.8 -1.05698 -6.43173 0
M  V30 7011 N 659.233 0.902656 -1.29189 0
M  V30 7012 C 660.166 2.00816 -1.0839 0
M  V30 7013 C 661.144 1.626 0.00335266 0
M  V30 7014 O 662.328 1.87928 -0.146765 0
M  V30 7015 C 659.455 3.32415 -0.649435 0
M  V30 7016 C 658.501 3.89617 -1.73496 0
M  V30 7017 S 659.334 4.19091 -3.33351 0
M  V30 7018 C 660.49 5.53736 -2.91766 0
M  V30 7019 H 660.723 2.18151 -2.01984 0
M  V30 7020 H 658.256 1.0489 -1.13303 0
M  V30 7021 H 660.214 4.08492 -0.405479 0
M  V30 7022 H 658.875 3.12964 0.266857 0
M  V30 7023 H 658.068 4.84658 -1.38284 0
M  V30 7024 H 657.67 3.20217 -1.93229 0
M  V30 7025 H 659.962 6.34085 -2.38627 0
M  V30 7026 H 660.905 5.93871 -3.85647 0
M  V30 7027 H 661.313 5.15453 -2.30149 0
M  V30 7028 N 660.711 1.11618 1.11262 0
M  V30 7029 C 661.988 0.777876 1.79467 0
M  V30 7030 C 662.368 -0.733774 1.97937 0
M  V30 7031 O 661.716 -1.66443 1.56554 0
M  V30 7032 C 661.926 1.5431 3.13032 0
M  V30 7033 C 663.274 1.72357 3.88044 0
M  V30 7034 O 664.298 1.5075 3.22727 0
M  V30 7035 O 663.157 2.08276 5.05256 0
M  V30 7036 H 660.251 0.282018 0.777428 0
M  V30 7037 H 662.797 1.21971 1.17988 0
M  V30 7038 H 661.569 2.57132 2.94956 0
M  V30 7039 H 661.192 1.09495 3.82226 0
M  V30 7040 N 662.189 -1.289 0.906776 0
M  V30 7041 C 663.437 -1.94883 0.535266 0
M  V30 7042 C 663.758 -1.71784 -0.922791 0
M  V30 7043 O 663.028 -1.05359 -1.65156 0
M  V30 7044 H 661.608 -0.721109 0.194962 0
M  V30 7045 H 664.27 -1.57018 1.15461 0
M  V30 7046 H 663.366 -3.03591 0.723821 0
M  V30 7047 N 663.667 -0.670007 -1.42649 0
M  V30 7048 C 664.597 -0.00258501 -2.335 0
M  V30 7049 C 665.578 0.794364 -1.50412 0
M  V30 7050 O 666.763 0.75248 -1.79029 0
M  V30 7051 C 663.893 0.952748 -3.33976 0
M  V30 7052 C 662.847 0.264733 -4.2718 0
M  V30 7053 C 662.173 1.33267 -5.17826 0
M  V30 7054 C 663.473 -0.853289 -5.15283 0
M  V30 7055 H 665.167 -0.761326 -2.89559 0
M  V30 7056 H 662.713 -0.367561 -1.3923 0
M  V30 7057 H 664.666 1.4287 -3.96442 0
M  V30 7058 H 663.39 1.74285 -2.7621 0
M  V30 7059 H 662.049 -0.190938 -3.66102 0
M  V30 7060 H 661.697 2.11464 -4.5639 0
M  V30 7061 H 661.397 0.877476 -5.81011 0
M  V30 7062 H 662.921 1.80965 -5.83167 0
M  V30 7063 H 664.335 -0.458763 -5.71462 0
M  V30 7064 H 662.732 -1.23398 -5.87276 0
M  V30 7065 H 663.802 -1.70412 -4.53969 0
M  V30 7066 N 665.145 1.52092 -0.413018 0
M  V30 7067 C 666.055 2.30858 0.417318 0
M  V30 7068 C 667.071 1.38746 1.05003 0
M  V30 7069 O 668.247 1.71821 1.05069 0
M  V30 7070 C 665.312 3.11756 1.51687 0
M  V30 7071 C 664.373 4.19613 0.906825 0
M  V30 7072 C 663.606 4.96644 1.95399 0
M  V30 7073 O 663.829 4.7402 3.17271 0
M  V30 7074 O 662.763 5.81385 1.55805 0
M  V30 7075 H 666.589 3.02865 -0.225028 0
M  V30 7076 H 664.174 1.48358 -0.176126 0
M  V30 7077 H 666.056 3.62122 2.15512 0
M  V30 7078 H 664.731 2.42539 2.14375 0
M  V30 7079 H 663.638 3.73385 0.231183 0
M  V30 7080 H 664.971 4.91134 0.323814 0
M  V30 7081 N 666.623 0.143563 1.56945 0
M  V30 7082 C 667.871 -0.507402 1.95627 0
M  V30 7083 C 668.192 -1.65626 1.02922 0
M  V30 7084 O 667.462 -1.95693 0.0901136 0
M  V30 7085 H 666.042 -0.190436 0.722318 0
M  V30 7086 H 668.704 0.218257 1.93674 0
M  V30 7087 H 667.8 -0.885816 2.99265 0
M  V30 7088 N 668.101 -1.57061 -0.130224 0
M  V30 7089 C 669.331 -1.88159 -0.853217 0
M  V30 7090 C 669.739 -0.731675 -1.7448 0
M  V30 7091 O 669.082 0.307035 -1.81116 0
M  V30 7092 C 669.144 -3.1415 -1.74785 0
M  V30 7093 C 668.808 -4.45202 -1.03173 0
M  V30 7094 C 669.805 -5.18526 -0.377759 0
M  V30 7095 C 667.49 -4.91912 -1.01624 0
M  V30 7096 C 669.484 -6.36775 0.282123 0
M  V30 7097 C 667.171 -6.10082 -0.352555 0
M  V30 7098 C 668.169 -6.82361 0.295483 0
M  V30 7099 O 667.857 -7.98284 0.948606 0
M  V30 7100 H 667.589 -0.627596 -0.251197 0
M  V30 7101 H 670.143 -2.05034 -0.1226 0
M  V30 7102 H 668.373 -2.93328 -2.51983 0
M  V30 7103 H 670.062 -3.31359 -2.34427 0
M  V30 7104 H 670.828 -4.83498 -0.381417 0
M  V30 7105 H 666.707 -4.35566 -1.51007 0
M  V30 7106 H 670.251 -6.93129 0.788525 0
M  V30 7107 H 666.148 -6.44569 -0.346621 0
M  V30 7108 H 666.916 -8.14054 0.851954 0
M  V30 7109 N 669.579 0.400081 -1.52437 0
M  V30 7110 C 670.99 0.97851 -1.59003 0
M  V30 7111 C 671.341 1.91293 -0.436068 0
M  V30 7112 O 670.466 2.1183 0.442365 0
M  V30 7113 C 671.061 1.78145 -2.88184 0
M  V30 7114 C 669.62 2.30976 -2.97199 0
M  V30 7115 C 668.767 1.11212 -2.54022 0
M  V30 7116 H 671.718 0.180002 -1.57676 0
M  V30 7117 H 671.739 2.63968 -2.74046 0
M  V30 7118 H 671.251 1.1011 -3.72152 0
M  V30 7119 H 669.352 3.02355 -2.17744 0
M  V30 7120 H 669.465 2.61221 -4.01622 0
M  V30 7121 H 667.829 1.46882 -2.08081 0
M  V30 7122 H 668.612 0.447307 -3.40373 0
M  V30 7123 N 671.057 1.43213 0.657864 0
M  V30 7124 C 672.303 1.44798 1.41991 0
M  V30 7125 C 672.636 0.070256 1.94073 0
M  V30 7126 O 671.911 -0.908177 1.71995 0
M  V30 7127 C 672.194 2.4865 2.60471 0
M  V30 7128 C 672.047 3.95679 2.13911 0
M  V30 7129 C 673.366 2.49292 3.62686 0
M  V30 7130 H 670.485 0.527244 0.514959 0
M  V30 7131 H 673.127 1.74733 0.74621 0
M  V30 7132 H 671.277 2.23254 3.17946 0
M  V30 7133 H 672.949 4.32116 1.61472 0
M  V30 7134 H 671.192 4.08733 1.45325 0
M  V30 7135 H 671.863 4.6395 2.99089 0
M  V30 7136 H 674.339 2.71917 3.14961 0
M  V30 7137 H 673.215 3.23907 4.43143 0
M  V30 7138 H 673.476 1.52502 4.14964 0
M  V30 7139 N 672.536 -0.895792 1.29666 0
M  V30 7140 C 673.766 -1.67757 1.20586 0
M  V30 7141 C 674.174 -1.87729 -0.235432 0
M  V30 7142 O 673.517 -1.41706 -1.16898 0
M  V30 7143 C 673.579 -3.08117 1.85215 0
M  V30 7144 C 673.243 -3.1136 3.3452 0
M  V30 7145 C 674.24 -2.91217 4.30684 0
M  V30 7146 C 671.925 -3.33302 3.75786 0
M  V30 7147 C 673.919 -2.92955 5.66089 0
M  V30 7148 C 671.606 -3.3467 5.11311 0
M  V30 7149 C 672.604 -3.14519 6.06273 0
M  V30 7150 O 672.292 -3.15684 7.39323 0
M  V30 7151 H 672.024 -0.530601 0.418854 0
M  V30 7152 H 674.578 -1.12831 1.71634 0
M  V30 7153 H 672.808 -3.64661 1.28683 0
M  V30 7154 H 674.497 -3.68399 1.70403 0
M  V30 7155 H 675.263 -2.74074 4.00136 0
M  V30 7156 H 671.142 -3.48025 3.02324 0
M  V30 7157 H 674.686 -2.77145 6.40185 0
M  V30 7158 H 670.583 -3.51346 5.41504 0
M  V30 7159 H 671.351 -3.31924 7.48177 0
M  V30 7160 N 674.014 -1.12206 -1.10668 0
M  V30 7161 C 675.242 -0.898635 -1.86366 0
M  V30 7162 C 675.657 0.551991 -1.80551 0
M  V30 7163 O 675.014 1.38152 -1.19249 0
M  V30 7164 C 675.065 -1.36199 -3.34861 0
M  V30 7165 O 674.786 -2.75576 -3.40573 0
M  V30 7166 C 676.287 -1.17515 -4.2744 0
M  V30 7167 H 673.507 -0.321281 -0.589084 0
M  V30 7168 H 676.051 -1.49142 -1.39918 0
M  V30 7169 H 674.206 -0.81249 -3.78784 0
M  V30 7170 H 674.62 -2.95851 -4.33096 0
M  V30 7171 H 676.094 -1.54827 -5.29842 0
M  V30 7172 H 676.571 -0.115486 -4.39048 0
M  V30 7173 H 677.177 -1.71203 -3.89319 0
M  V30 7174 N 675.492 1.28418 -0.913599 0
M  V30 7175 C 676.908 1.47411 -0.611728 0
M  V30 7176 C 677.108 1.83018 0.843008 0
M  V30 7177 O 676.164 1.93505 1.6221 0
M  V30 7178 C 677.477 2.57703 -1.5495 0
M  V30 7179 C 679.025 2.71572 -1.5562 0
M  V30 7180 C 679.5 3.85008 -2.48058 0
M  V30 7181 N 680.991 3.92361 -2.46184 0
M  V30 7182 C 681.726 4.79516 -3.14407 0
M  V30 7183 N 681.222 5.71262 -3.91958 0
M  V30 7184 N 683.015 4.73125 -3.03495 0
M  V30 7185 H 675.166 1.03585 -1.85429 0
M  V30 7186 H 677.429 0.515907 -0.795326 0
M  V30 7187 H 677.135 2.38298 -2.58663 0
M  V30 7188 H 677.009 3.54801 -1.28048 0
M  V30 7189 H 679.396 2.90366 -0.526441 0
M  V30 7190 H 679.477 1.75006 -1.86565 0
M  V30 7191 H 679.121 3.66969 -3.51136 0
M  V30 7192 H 679.051 4.80971 -2.14416 0
M  V30 7193 H 681.542 3.26749 -1.89851 0
M  V30 7194 H 681.855 6.34593 -4.41034 0
M  V30 7195 H 680.2 5.71103 -3.96063 0
M  V30 7196 H 683.391 4.00442 -2.42413 0
M  V30 7197 H 683.564 5.40834 -3.56935 0
M  V30 7198 N 676.97 0.677563 1.42291 0
M  V30 7199 C 677.917 0.000947061 2.308 0
M  V30 7200 C 678.887 -0.789889 1.46116 0
M  V30 7201 O 680.072 -0.761578 1.74942 0
M  V30 7202 C 677.212 -0.942387 3.31984 0
M  V30 7203 C 676.325 -0.14508 4.31756 0
M  V30 7204 C 675.46 -1.08442 5.20013 0
M  V30 7205 C 674.499 -0.278958 6.11464 0
M  V30 7206 N 673.636 -1.17115 6.92263 0
M  V30 7207 H 678.476 0.761521 2.88106 0
M  V30 7208 H 676.013 0.38727 1.41911 0
M  V30 7209 H 677.971 -1.50317 3.89179 0
M  V30 7210 H 676.601 -1.66956 2.76271 0
M  V30 7211 H 675.653 0.532368 3.76656 0
M  V30 7212 H 676.965 0.48015 4.96484 0
M  V30 7213 H 676.119 -1.71504 5.81955 0
M  V30 7214 H 674.858 -1.74353 4.55469 0
M  V30 7215 H 673.863 0.364856 5.48588 0
M  V30 7216 H 675.088 0.376099 6.78058 0
M  V30 7217 H 673.034 -1.81661 6.30345 0
M  V30 7218 H 672.951 -0.601063 7.53607 0
M  V30 7219 H 674.219 -1.78915 7.58689 0
M  V30 7220 N 678.448 -1.51871 0.421078 0
M  V30 7221 C 679.694 -2.02237 -0.151014 0
M  V30 7222 C 680.027 -1.30554 -1.43768 0
M  V30 7223 O 679.302 -0.41546 -1.90011 0
M  V30 7224 C 679.585 -3.5802 -0.386482 0
M  V30 7225 C 679.438 -4.40339 0.9177 0
M  V30 7226 C 680.757 -4.24444 -1.16342 0
M  V30 7227 H 677.876 -0.735062 -0.0534102 0
M  V30 7228 H 680.518 -1.81656 0.556888 0
M  V30 7229 H 678.668 -3.75688 -0.989494 0
M  V30 7230 H 680.34 -4.34357 1.55344 0
M  V30 7231 H 678.583 -4.06073 1.526 0
M  V30 7232 H 679.254 -5.47451 0.707187 0
M  V30 7233 H 681.73 -4.10948 -0.652788 0
M  V30 7234 H 680.606 -5.33358 -1.29693 0
M  V30 7235 H 680.867 -3.84204 -2.18724 0
M  V30 7236 N 679.926 -0.151884 -1.56866 0
M  V30 7237 C 681.156 0.504081 -2.00356 0
M  V30 7238 C 681.564 1.58639 -1.03103 0
M  V30 7239 O 680.907 1.83688 -0.0207931 0
M  V30 7240 C 680.969 1.15975 -3.40279 0
M  V30 7241 C 680.633 0.221453 -4.56463 0
M  V30 7242 C 681.63 -0.552766 -5.16953 0
M  V30 7243 C 679.315 0.122936 -5.0215 0
M  V30 7244 C 681.309 -1.4129 -6.21543 0
M  V30 7245 C 678.996 -0.740801 -6.06593 0
M  V30 7246 C 679.994 -1.50732 -6.6616 0
M  V30 7247 O 679.682 -2.35666 -7.68581 0
M  V30 7248 H 679.414 0.135279 -0.662326 0
M  V30 7249 H 681.968 -0.244916 -2.03935 0
M  V30 7250 H 680.198 1.95649 -3.33554 0
M  V30 7251 H 681.887 1.71594 -3.67846 0
M  V30 7252 H 682.653 -0.486716 -4.82552 0
M  V30 7253 H 678.532 0.70931 -4.5551 0
M  V30 7254 H 682.076 -2.01166 -6.67966 0
M  V30 7255 H 677.973 -0.808125 -6.40421 0
M  V30 7256 H 678.741 -2.28967 -7.85822 0
M  V30 7257 N 681.404 1.57128 0.121893 0
M  V30 7258 C 682.632 1.88883 0.844451 0
M  V30 7259 C 683.047 0.742824 1.73573 0
M  V30 7260 O 682.404 -0.286475 1.80238 0
M  V30 7261 C 682.455 3.20076 1.68029 0
M  V30 7262 O 682.176 4.30264 0.824898 0
M  V30 7263 C 683.677 3.65515 2.50826 0
M  V30 7264 H 680.897 0.62549 0.242907 0
M  V30 7265 H 683.441 2.04219 0.107151 0
M  V30 7266 H 681.596 3.06418 2.37038 0
M  V30 7267 H 682.01 5.05439 1.40113 0
M  V30 7268 H 683.484 4.60081 3.05008 0
M  V30 7269 H 683.961 2.92029 3.28048 0
M  V30 7270 H 684.567 3.81952 1.87064 0
M  V30 7271 N 682.882 -0.391992 1.52647 0
M  V30 7272 C 684.159 -1.15136 1.58123 0
M  V30 7273 C 684.539 -2.07786 0.372597 0
M  V30 7274 O 683.887 -2.19374 -0.639304 0
M  V30 7275 C 684.097 -1.91367 2.91856 0
M  V30 7276 C 685.445 -2.46833 3.45483 0
M  V30 7277 O 686.469 -2.01527 2.9371 0
M  V30 7278 O 685.328 -3.29587 4.3593 0
M  V30 7279 H 682.422 -0.526649 0.637629 0
M  V30 7280 H 684.968 -0.397386 1.64982 0
M  V30 7281 H 683.74 -1.23597 3.71268 0
M  V30 7282 H 683.363 -2.73732 2.88369 0
M  V30 7283 N 684.36 -1.4356 -0.65026 0
M  V30 7284 C 685.606 -1.45549 -1.41221 0
M  V30 7285 C 685.939 -0.0805472 -1.94033 0
M  V30 7286 O 685.214 0.899043 -1.72475 0
M  V30 7287 C 685.497 -2.50028 -2.59148 0
M  V30 7288 C 685.35 -3.96808 -2.1181 0
M  V30 7289 C 686.669 -2.51212 -3.61359 0
M  V30 7290 H 683.788 -0.529967 -0.512156 0
M  V30 7291 H 686.43 -1.75127 -0.736933 0
M  V30 7292 H 684.58 -2.24937 -3.16758 0
M  V30 7293 H 686.252 -4.32966 -1.59178 0
M  V30 7294 H 684.495 -4.09498 -1.43156 0
M  V30 7295 H 685.166 -4.6553 -2.96625 0
M  V30 7296 H 687.642 -2.73583 -3.13515 0
M  V30 7297 H 686.518 -3.26252 -4.41419 0
M  V30 7298 H 686.779 -1.54701 -4.1415 0
M  V30 7299 N 685.838 0.888903 -1.30139 0
M  V30 7300 C 687.063 1.67884 -1.21777 0
M  V30 7301 C 687.488 1.86848 0.216689 0
M  V30 7302 O 686.846 1.39659 1.15608 0
M  V30 7303 C 686.894 3.03483 -1.94757 0
M  V30 7304 O 685.998 3.92294 -1.27198 0
M  V30 7305 H 685.339 0.513144 -0.421402 0
M  V30 7306 H 687.869 1.10968 -1.71893 0
M  V30 7307 H 687.879 3.53553 -2.03627 0
M  V30 7308 H 686.554 2.89 -2.99085 0
M  V30 7309 H 685.131 3.50732 -1.26655 0
M  V30 7310 N 687.317 1.12792 1.10072 0
M  V30 7311 C 688.547 0.907189 1.85617 0
M  V30 7312 C 688.955 -0.547181 1.81115 0
M  V30 7313 O 688.298 -1.39024 1.20075 0
M  V30 7314 C 688.36 1.30872 3.34832 0
M  V30 7315 C 688.024 2.77516 3.6309 0
M  V30 7316 C 689.021 3.75696 3.59373 0
M  V30 7317 C 686.706 3.14513 3.91646 0
M  V30 7318 C 688.7 5.08888 3.83812 0
M  V30 7319 C 686.387 4.47886 4.15742 0
M  V30 7320 C 687.385 5.44882 4.11816 0
M  V30 7321 O 687.073 6.7585 4.35295 0
M  V30 7322 H 686.805 0.323855 0.593375 0
M  V30 7323 H 689.359 1.50262 1.40038 0
M  V30 7324 H 687.589 0.656518 3.81086 0
M  V30 7325 H 689.278 1.06153 3.91773 0
M  V30 7326 H 690.044 3.48458 3.37345 0
M  V30 7327 H 685.923 2.39622 3.93831 0
M  V30 7328 H 689.467 5.84586 3.80663 0
M  V30 7329 H 685.364 4.74851 4.37249 0
M  V30 7330 H 686.132 6.81853 4.52791 0
M  V30 7331 N 688.795 -1.27931 0.920396 0
M  V30 7332 C 689.725 -2.29487 0.431024 0
M  V30 7333 C 690.706 -1.62435 -0.504861 0
M  V30 7334 O 691.891 -1.89797 -0.411176 0
M  V30 7335 C 689.021 -3.45788 -0.323709 0
M  V30 7336 C 687.975 -4.24784 0.523658 0
M  V30 7337 C 687.301 -5.33488 -0.359809 0
M  V30 7338 C 688.601 -4.90874 1.78437 0
M  V30 7339 H 690.295 -2.70671 1.27975 0
M  V30 7340 H 687.841 -1.30121 0.616813 0
M  V30 7341 H 689.794 -4.15927 -0.676952 0
M  V30 7342 H 688.518 -3.03502 -1.2064 0
M  V30 7343 H 687.177 -3.56382 0.85951 0
M  V30 7344 H 686.825 -4.87445 -1.24124 0
M  V30 7345 H 686.525 -5.87247 0.203605 0
M  V30 7346 H 688.049 -6.06472 -0.708787 0
M  V30 7347 H 689.463 -5.53339 1.49963 0
M  V30 7348 H 687.86 -5.54659 2.29071 0
M  V30 7349 H 688.93 -4.14988 2.50824 0
M  V30 7350 N 690.273 -0.685099 -1.4193 0
M  V30 7351 C 691.236 -0.0222632 -2.29189 0
M  V30 7352 C 692.236 0.7186 -1.4385 0
M  V30 7353 O 693.426 0.555058 -1.6512 0
M  V30 7354 C 690.558 0.979013 -3.2654 0
M  V30 7355 H 691.751 -0.790424 -2.89296 0
M  V30 7356 H 689.304 -0.448012 -1.49742 0
M  V30 7357 H 690.039 1.77531 -2.71392 0
M  V30 7358 H 689.824 0.451037 -3.89497 0
M  V30 7359 H 691.314 1.44091 -3.91954 0
M  V30 7360 N 691.751 1.51645 -0.429126 0
M  V30 7361 C 692.991 2.03924 0.139354 0
M  V30 7362 C 693.355 1.30673 1.40672 0
M  V30 7363 O 694.556 1.73282 2.05491 0
M  V30 7364 C 692.827 3.5557 0.361179 0
M  V30 7365 S 694.386 4.29591 0.894241 0
M  V30 7366 H 691.204 0.710103 0.0356986 0
M  V30 7367 H 693.806 1.86491 -0.586644 0
M  V30 7368 H 692.51 4.06455 -0.567686 0
M  V30 7369 H 692.041 3.77283 1.11449 0
M  V30 7370 H 694.056 4.46102 2.17272 0
M  V30 7371 N 693.229 0.160201 1.56784 0
M  V30 7372 C 694.192 -0.760405 2.16219 0
M  V30 7373 C 695.192 -1.16595 1.10735 0
M  V30 7374 O 696.382 -1.08472 1.36306 0
M  V30 7375 C 693.514 -2.03358 2.73603 0
M  V30 7376 H 694.707 -0.243173 2.98912 0
M  V30 7377 H 692.26 -0.0893139 1.56045 0
M  V30 7378 H 692.995 -2.59416 1.94612 0
M  V30 7379 H 692.78 -1.75186 3.50788 0
M  V30 7380 H 694.27 -2.69081 3.19351 0
M  V30 7381 N 694.707 -1.5719 -0.113559 0
M  V30 7382 C 695.654 -2.00736 -1.13901 0
M  V30 7383 C 696.624 -0.88044 -1.40846 0
M  V30 7384 O 697.809 -1.14507 -1.5262 0
M  V30 7385 C 694.949 -2.42132 -2.45899 0
M  V30 7386 C 694.062 -3.68264 -2.25844 0
M  V30 7387 C 693.197 -3.98617 -3.5111 0
M  V30 7388 C 692.236 -5.17915 -3.26236 0
M  V30 7389 N 691.373 -5.44111 -4.4372 0
M  V30 7390 H 696.213 -2.88128 -0.760677 0
M  V30 7391 H 693.75 -1.42523 -0.364099 0
M  V30 7392 H 695.708 -2.6417 -3.22908 0
M  V30 7393 H 694.338 -1.57775 -2.81615 0
M  V30 7394 H 693.39 -3.53809 -1.39726 0
M  V30 7395 H 694.702 -4.55425 -2.03444 0
M  V30 7396 H 693.856 -4.21333 -4.36536 0
M  V30 7397 H 692.595 -3.09942 -3.76546 0
M  V30 7398 H 691.6 -4.95038 -2.39202 0
M  V30 7399 H 692.825 -6.08172 -3.02165 0
M  V30 7400 H 690.771 -4.58394 -4.69266 0
M  V30 7401 H 690.688 -6.25606 -4.24444 0
M  V30 7402 H 691.956 -5.71351 -5.30263 0
M  V30 7403 N 696.185 0.383891 -1.52853 0
M  V30 7404 C 697.132 1.46924 -1.77995 0
M  V30 7405 C 698.102 1.53958 -0.623396 0
M  V30 7406 O 699.287 1.70134 -0.863657 0
M  V30 7407 C 696.427 2.84093 -1.95921 0
M  V30 7408 C 695.54 2.86171 -3.23621 0
M  V30 7409 C 694.675 4.14799 -3.31836 0
M  V30 7410 C 693.714 4.10948 -4.53639 0
M  V30 7411 N 692.851 5.31192 -4.59107 0
M  V30 7412 H 697.691 1.24786 -2.70615 0
M  V30 7413 H 695.228 0.605265 -1.34071 0
M  V30 7414 H 697.186 3.63755 -2.04299 0
M  V30 7415 H 695.816 3.04671 -1.06656 0
M  V30 7416 H 694.868 1.9885 -3.24288 0
M  V30 7417 H 696.18 2.79194 -4.13343 0
M  V30 7418 H 695.334 5.02867 -3.39425 0
M  V30 7419 H 694.073 4.24505 -2.40097 0
M  V30 7420 H 693.078 3.21268 -4.46169 0
M  V30 7421 H 694.303 4.0286 -5.467 0
M  V30 7422 H 692.249 5.41518 -3.70262 0
M  V30 7423 H 692.166 5.26311 -5.42708 0
M  V30 7424 H 693.434 6.21143 -4.70958 0
M  V30 7425 N 697.663 1.43903 0.642637 0
M  V30 7426 C 698.593 1.52697 1.76652 0
M  V30 7427 C 699.574 0.380816 1.65782 0
M  V30 7428 O 700.759 0.599432 1.84717 0
M  V30 7429 C 697.889 1.45975 3.15133 0
M  V30 7430 C 696.843 2.58949 3.40778 0
M  V30 7431 C 696.169 2.37279 4.79169 0
M  V30 7432 C 697.469 4.01153 3.34475 0
M  V30 7433 H 699.163 2.46766 1.69549 0
M  V30 7434 H 696.709 1.18767 0.814279 0
M  V30 7435 H 698.662 1.5073 3.93521 0
M  V30 7436 H 697.386 0.484162 3.22991 0
M  V30 7437 H 696.045 2.53564 2.64765 0
M  V30 7438 H 695.693 1.37939 4.83717 0
M  V30 7439 H 695.393 3.13016 4.97287 0
M  V30 7440 H 696.917 2.43834 5.59801 0
M  V30 7441 H 698.331 4.07968 4.02784 0
M  V30 7442 H 696.728 4.77001 3.64129 0
M  V30 7443 H 697.798 4.25539 2.32475 0
M  V30 7444 N 699.141 -0.881989 1.30609 0
M  V30 7445 C 700.071 -2.00413 1.1982 0
M  V30 7446 C 701.052 -1.69871 0.0881538 0
M  V30 7447 O 702.237 -1.92304 0.2707 0
M  V30 7448 C 699.367 -3.35641 0.89233 0
M  V30 7449 C 698.321 -3.80451 1.96064 0
M  V30 7450 C 697.647 -5.13003 1.5077 0
M  V30 7451 C 698.947 -3.98855 3.37213 0
M  V30 7452 H 700.641 -2.09698 2.13699 0
M  V30 7453 H 698.187 -1.00754 1.02882 0
M  V30 7454 H 700.14 -4.13669 0.803497 0
M  V30 7455 H 698.864 -3.26497 -0.0821381 0
M  V30 7456 H 697.523 -3.04654 2.03916 0
M  V30 7457 H 697.171 -5.0029 0.521417 0
M  V30 7458 H 696.871 -5.43956 2.22229 0
M  V30 7459 H 698.395 -5.93554 1.43271 0
M  V30 7460 H 699.809 -4.67312 3.32103 0
M  V30 7461 H 698.206 -4.41188 4.06784 0
M  V30 7462 H 699.276 -3.02614 3.78883 0
M  V30 7463 N 700.619 -1.13374 -1.09472 0
M  V30 7464 C 701.582 -0.813639 -2.14272 0
M  V30 7465 C 702.582 0.176677 -1.59826 0
M  V30 7466 O 703.772 -0.0503441 -1.74127 0
M  V30 7467 C 700.904 -0.210897 -3.40247 0
M  V30 7468 H 702.097 -1.74229 -2.44099 0
M  V30 7469 H 699.65 -0.938304 -1.25002 0
M  V30 7470 H 700.385 0.726998 -3.16046 0
M  V30 7471 H 700.17 -0.924048 -3.81056 0
M  V30 7472 H 701.66 -0.00377603 -4.176 0
M  V30 7473 N 702.098 1.27442 -0.927168 0
M  V30 7474 C 703.344 1.94679 -0.568164 0
M  V30 7475 C 703.677 1.72697 0.888219 0
M  V30 7476 O 702.952 1.05573 1.63354 0
M  V30 7477 C 703.235 3.4882 -0.894253 0
M  V30 7478 C 703.088 3.80146 -2.40435 0
M  V30 7479 C 704.407 4.38281 -0.399766 0
M  V30 7480 H 701.526 0.707071 -0.207892 0
M  V30 7481 H 704.168 1.50568 -1.15885 0
M  V30 7482 H 702.318 3.86522 -0.391566 0
M  V30 7483 H 703.99 3.52238 -2.97869 0
M  V30 7484 H 702.233 3.26716 -2.85375 0
M  V30 7485 H 702.904 4.87835 -2.58304 0
M  V30 7486 H 705.38 4.07726 -0.83058 0
M  V30 7487 H 704.256 5.44955 -0.656885 0
M  V30 7488 H 704.517 4.36521 0.700153 0
M  V30 7489 N 703.576 0.692616 1.41565 0
M  V30 7490 C 704.987 0.297478 1.84315 0
M  V30 7491 C 705.338 -1.16379 1.57957 0
M  V30 7492 O 704.463 -1.89303 1.0485 0
M  V30 7493 C 705.058 0.533136 3.34579 0
M  V30 7494 C 703.617 0.191944 3.7591 0
M  V30 7495 C 702.764 0.816873 2.64995 0
M  V30 7496 H 705.715 0.893488 1.31158 0
M  V30 7497 H 705.736 -0.209105 3.79925 0
M  V30 7498 H 705.248 1.59674 3.53731 0
M  V30 7499 H 703.349 -0.867512 3.6236 0
M  V30 7500 H 703.462 0.644902 4.7474 0
M  V30 7501 H 701.826 0.246715 2.53502 0
M  V30 7502 H 702.609 1.88429 2.86966 0
M  V30 7503 N 705.054 -1.51416 0.437162 0
M  V30 7504 C 706.002 -2.29328 -0.388765 0
M  V30 7505 C 706.996 -1.35171 -1.02104 0
M  V30 7506 O 708.202 -1.52513 -0.956024 0
M  V30 7507 H 704.577 -0.738048 -0.144183 0
M  V30 7508 H 706.548 -2.96995 0.289212 0
M  V30 7509 C 705.297 -3.14741 -1.47761 0
M  V30 7510 H 704.62 -3.8708 -1.00045 0
M  V30 7511 H 706.06 -3.72313 -2.02877 0
M  V30 7512 C 704.519 -2.30105 -2.46076 0
M  V30 7513 O 705.049 -1.96055 -3.50607 0
M  V30 7514 N 703.255 -1.93331 -2.1696 0
M  V30 7515 H 702.802 -2.2122 -1.31983 0
M  V30 7516 H 702.76 -1.36999 -2.82982 0
M  V30 7517 N 706.532 -0.168513 -1.56696 0
M  V30 7518 C 707.462 0.758563 -2.20835 0
M  V30 7519 C 708.443 1.24121 -1.1631 0
M  V30 7520 O 709.628 1.29487 -1.4473 0
M  V30 7521 C 706.758 1.9892 -2.8469 0
M  V30 7522 C 705.712 1.64252 -3.95228 0
M  V30 7523 C 705.038 2.94757 -4.46119 0
M  V30 7524 C 706.338 0.872675 -5.14958 0
M  V30 7525 H 708.032 0.223953 -2.98561 0
M  V30 7526 H 705.578 0.106277 -1.43607 0
M  V30 7527 H 707.531 2.64275 -3.28233 0
M  V30 7528 H 706.255 2.5479 -2.04327 0
M  V30 7529 H 704.914 1.01266 -3.52336 0
M  V30 7530 H 704.562 3.48662 -3.62552 0
M  V30 7531 H 704.262 2.72316 -5.2069 0
M  V30 7532 H 705.786 3.61147 -4.92347 0
M  V30 7533 H 707.2 1.42875 -5.55211 0
M  V30 7534 H 705.597 0.747402 -5.95428 0
M  V30 7535 H 706.667 -0.131535 -4.84722 0
M  V30 7536 N 708.01 1.57248 0.105221 0
M  V30 7537 C 709.259 1.84756 0.809198 0
M  V30 7538 C 709.572 0.756262 1.80389 0
M  V30 7539 O 710.778 0.918158 2.55504 0
M  V30 7540 C 709.234 3.27613 1.48989 0
M  V30 7541 C 708.842 4.44788 0.535484 0
M  V30 7542 C 710.586 3.64356 2.17819 0
M  V30 7543 C 708.493 5.78676 1.22019 0
M  V30 7544 H 707.423 0.689139 0.305946 0
M  V30 7545 H 710.074 1.83395 0.0620371 0
M  V30 7546 H 708.456 3.23485 2.28415 0
M  V30 7547 H 709.63 4.60243 -0.226557 0
M  V30 7548 H 707.945 4.16374 -0.0465769 0
M  V30 7549 H 710.542 4.61663 2.69761 0
M  V30 7550 H 710.885 2.92474 2.96251 0
M  V30 7551 H 711.418 3.70328 1.45264 0
M  V30 7552 H 708.157 6.53763 0.476875 0
M  V30 7553 H 707.677 5.67083 1.9539 0
M  V30 7554 H 709.356 6.22897 1.74952 0
M  V30 7555 N 709.488 -0.375779 1.53054 0
M  V30 7556 C 710.718 -1.1387 1.72386 0
M  V30 7557 C 711.126 -1.8382 0.447966 0
M  V30 7558 O 710.469 -1.74027 -0.588244 0
M  V30 7559 C 710.531 -2.22047 2.82728 0
M  V30 7560 C 710.195 -1.71951 4.23417 0
M  V30 7561 C 711.192 -1.18909 5.06119 0
M  V30 7562 C 708.877 -1.77773 4.69789 0
M  V30 7563 C 710.871 -0.723529 6.3328 0
M  V30 7564 C 708.558 -1.30829 5.96931 0
M  V30 7565 C 709.556 -0.782077 6.78508 0
M  V30 7566 O 709.244 -0.319529 8.03265 0
M  V30 7567 H 708.976 -0.346835 0.580242 0
M  V30 7568 H 711.53 -0.443748 2.00549 0
M  V30 7569 H 709.76 -2.95006 2.50017 0
M  V30 7570 H 711.449 -2.83654 2.90336 0
M  V30 7571 H 712.215 -1.13758 4.7147 0
M  V30 7572 H 708.094 -2.17673 4.06373 0
M  V30 7573 H 711.638 -0.312126 6.96901 0
M  V30 7574 H 707.535 -1.3567 6.31081 0
M  V30 7575 H 708.303 -0.439796 8.17318 0
M  V30 7576 N 710.966 -1.44241 -0.634997 0
M  V30 7577 C 712.377 -1.41622 -1.21655 0
M  V30 7578 C 712.728 -0.129584 -1.95772 0
M  V30 7579 O 711.853 0.770225 -2.02229 0
M  V30 7580 C 712.448 -2.56557 -2.21278 0
M  V30 7581 C 711.007 -2.57145 -2.7487 0
M  V30 7582 C 710.154 -2.33354 -1.49804 0
M  V30 7583 H 713.105 -1.52878 -0.425905 0
M  V30 7584 H 713.126 -2.29089 -3.03807 0
M  V30 7585 H 712.638 -3.50186 -1.67306 0
M  V30 7586 H 710.739 -1.67447 -3.32855 0
M  V30 7587 H 710.852 -3.55507 -3.21172 0
M  V30 7588 H 709.216 -1.82372 -1.77799 0
M  V30 7589 H 709.999 -3.29092 -0.977402 0
M  V30 7590 N 712.444 0.87505 -1.31075 0
M  V30 7591 C 713.376 1.98773 -1.14114 0
M  V30 7592 C 714.389 1.62595 -0.0816119 0
M  V30 7593 O 715.578 1.75449 -0.32861 0
M  V30 7594 C 712.678 3.31159 -0.720224 0
M  V30 7595 C 711.851 3.9571 -1.86366 0
M  V30 7596 C 710.91 5.06407 -1.42965 0
M  V30 7597 O 709.936 5.27501 -2.13848 0
M  V30 7598 N 711.138 5.79649 -0.314194 0
M  V30 7599 H 713.903 2.1387 -2.09951 0
M  V30 7600 H 711.464 1.04873 -1.23342 0
M  V30 7601 H 713.456 4.0259 -0.412687 0
M  V30 7602 H 712.026 3.12257 0.146396 0
M  V30 7603 H 711.246 3.17324 -2.33879 0
M  V30 7604 H 712.534 4.35576 -2.62966 0
M  V30 7605 H 711.932 5.65025 0.276228 0
M  V30 7606 H 710.489 6.51766 -0.0661641 0
M  V30 7607 N 713.922 1.13953 1.08869 0
M  V30 7608 C 715.169 0.90481 1.81161 0
M  V30 7609 C 715.497 -0.568824 1.85996 0
M  V30 7610 O 714.752 -1.43723 1.32823 0
M  V30 7611 C 715.051 1.44495 3.26888 0
M  V30 7612 C 714.717 2.93641 3.42178 0
M  V30 7613 C 713.379 3.34361 3.46059 0
M  V30 7614 C 715.731 3.89568 3.46246 0
M  V30 7615 C 713.059 4.69681 3.51592 0
M  V30 7616 C 715.411 5.2474 3.53314 0
M  V30 7617 C 714.075 5.64979 3.55465 0
M  V30 7618 H 713.345 0.331094 0.662916 0
M  V30 7619 H 715.992 1.42242 1.28217 0
M  V30 7620 H 714.297 0.848169 3.82509 0
M  V30 7621 H 715.994 1.23934 3.81368 0
M  V30 7622 H 712.584 2.61156 3.39846 0
M  V30 7623 H 716.768 3.59192 3.42483 0
M  V30 7624 H 712.024 5.00224 3.51547 0
M  V30 7625 H 716.198 5.98882 3.55406 0
M  V30 7626 H 713.825 6.69821 3.59505 0
M  V30 7627 N 715.4 -1.26948 0.933913 0
M  V30 7628 C 716.363 -2.24889 0.442457 0
M  V30 7629 C 717.363 -1.54594 -0.442426 0
M  V30 7630 O 718.553 -1.72502 -0.242629 0
M  V30 7631 C 715.685 -3.3896 -0.363173 0
M  V30 7632 H 716.878 -2.69879 1.30787 0
M  V30 7633 H 714.431 -1.38978 0.715187 0
M  V30 7634 H 715.166 -2.99361 -1.24714 0
M  V30 7635 H 714.951 -3.9116 0.271366 0
M  V30 7636 H 716.441 -4.11739 -0.697186 0
M  V30 7637 N 716.879 -0.700114 -1.41195 0
M  V30 7638 C 718.107 -0.242179 -2.05478 0
M  V30 7639 C 718.522 1.11029 -1.52702 0
M  V30 7640 O 717.879 1.69473 -0.677127 0
M  V30 7641 C 717.93 -0.196271 -3.60967 0
M  V30 7642 O 717.651 -1.49532 -4.11791 0
M  V30 7643 C 719.152 0.282102 -4.42401 0
M  V30 7644 H 716.372 -0.111749 -0.661629 0
M  V30 7645 H 718.916 -0.953975 -1.80885 0
M  V30 7646 H 717.071 0.46638 -3.84582 0
M  V30 7647 H 717.485 -1.38545 -5.05871 0
M  V30 7648 H 718.959 0.263093 -5.51373 0
M  V30 7649 H 719.436 1.32174 -4.1884 0
M  V30 7650 H 720.042 -0.349712 -4.2386 0
M  V30 7651 N 718.357 1.51182 -0.445186 0
M  V30 7652 C 719.307 2.24804 0.380394 0
M  V30 7653 C 720.291 1.27344 0.983482 0
M  V30 7654 O 721.483 1.52392 0.900322 0
M  V30 7655 C 718.612 3.09922 1.4766 0
M  V30 7656 C 717.698 4.14816 0.882517 0
M  V30 7657 N 718.089 5.05797 0.0183278 0
M  V30 7658 C 716.387 4.30938 1.14927 0
M  V30 7659 C 717.088 5.8084 -0.316152 0
M  V30 7660 N 716.064 5.42759 0.302214 0
M  V30 7661 H 719.866 2.92508 -0.285737 0
M  V30 7662 H 717.38 1.60342 -0.257733 0
M  V30 7663 H 719.377 3.61249 2.08098 0
M  V30 7664 H 718.037 2.43763 2.14498 0
M  V30 7665 H 719.048 5.16725 -0.348679 0
M  V30 7666 H 715.725 3.76005 1.81457 0
M  V30 7667 H 717.115 6.64115 -1.01986 0
M  V30 7668 N 719.835 0.176821 1.56605 0
M  V30 7669 C 720.783 -0.768159 2.1955 0
M  V30 7670 C 721.777 -1.23343 1.16116 0
M  V30 7671 O 722.983 -1.19844 1.34303 0
M  V30 7672 H 719.358 -0.266013 0.703378 0
M  V30 7673 H 721.329 -0.213374 2.97636 0
M  V30 7674 C 720.078 -1.98492 2.85475 0
M  V30 7675 H 719.401 -1.63595 3.64797 0
M  V30 7676 H 720.841 -2.62489 3.3298 0
M  V30 7677 C 719.3 -2.81207 1.85538 0
M  V30 7678 O 719.83 -3.7854 1.34427 0
M  V30 7679 N 718.036 -2.46331 1.54173 0
M  V30 7680 H 717.583 -1.67241 1.95929 0
M  V30 7681 H 717.541 -3.01961 0.875595 0
M  V30 7682 N 721.313 -1.57302 -0.09688 0
M  V30 7683 C 722.276 -2.00976 -1.10188 0
M  V30 7684 C 723.276 -0.903009 -1.3305 0
M  V30 7685 O 724.466 -1.16853 -1.29194 0
M  V30 7686 C 721.598 -2.36893 -2.45142 0
M  V30 7687 H 722.791 -2.9098 -0.726003 0
M  V30 7688 H 720.344 -1.52515 -0.341872 0
M  V30 7689 H 721.079 -1.49837 -2.8761 0
M  V30 7690 H 720.864 -3.17632 -2.29897 0
M  V30 7691 H 722.354 -2.71345 -3.1743 0
M  V30 7692 N 722.791 0.367657 -1.53252 0
M  V30 7693 C 723.741 1.45035 -1.75923 0
M  V30 7694 C 724.725 1.48736 -0.613719 0
M  V30 7695 O 725.917 1.54012 -0.872313 0
M  V30 7696 C 723.046 2.82493 -1.9507 0
M  V30 7697 C 722.132 2.83279 -3.15617 0
M  V30 7698 N 722.523 2.53712 -4.37566 0
M  V30 7699 C 720.821 3.1444 -3.16297 0
M  V30 7700 C 721.522 2.62123 -5.19294 0
M  V30 7701 N 720.498 2.96747 -4.55458 0
M  V30 7702 H 724.3 1.21035 -2.6782 0
M  V30 7703 H 721.814 0.575822 -1.51849 0
M  V30 7704 H 723.811 3.60473 -2.0944 0
M  V30 7705 H 722.471 3.07459 -1.044 0
M  V30 7706 H 723.482 2.27344 -4.65333 0
M  V30 7707 H 720.159 3.44733 -2.35511 0
M  V30 7708 H 721.549 2.42628 -6.26563 0
M  V30 7709 N 724.269 1.44576 0.627338 0
M  V30 7710 C 725.497 1.51048 1.41394 0
M  V30 7711 C 725.912 0.136568 1.88305 0
M  V30 7712 O 725.269 -0.858251 1.6106 0
M  V30 7713 C 725.32 2.47837 2.63172 0
M  V30 7714 O 725.041 3.79887 2.18215 0
M  V30 7715 C 726.542 2.63811 3.56257 0
M  V30 7716 H 723.762 0.512171 0.4335 0
M  V30 7717 H 726.306 1.89576 0.766878 0
M  V30 7718 H 724.461 2.12433 3.23961 0
M  V30 7719 H 724.875 4.32177 2.97192 0
M  V30 7720 H 726.349 3.35554 4.38301 0
M  V30 7721 H 726.826 1.69169 4.05313 0
M  V30 7722 H 727.432 3.0013 3.01333 0
M  V30 7723 N 725.747 -0.868086 1.31537 0
M  V30 7724 C 726.677 -1.99131 1.21939 0
M  V30 7725 C 727.658 -1.69768 0.106166 0
M  V30 7726 O 728.843 -1.92006 0.291081 0
M  V30 7727 C 725.973 -3.34676 0.927879 0
M  V30 7728 C 724.927 -3.7835 2.00088 0
M  V30 7729 C 724.253 -5.11375 1.56203 0
M  V30 7730 C 725.553 -3.95256 3.41424 0
M  V30 7731 H 727.247 -2.07419 2.15911 0
M  V30 7732 H 724.793 -0.996569 1.03945 0
M  V30 7733 H 726.746 -4.12793 0.847327 0
M  V30 7734 H 725.47 -3.26565 -0.0475042 0
M  V30 7735 H 724.129 -3.02474 2.07135 0
M  V30 7736 H 723.777 -4.99709 0.57445 0
M  V30 7737 H 723.477 -5.41568 2.27985 0
M  V30 7738 H 725.001 -5.92001 1.49558 0
M  V30 7739 H 726.415 -4.63764 3.3704 0
M  V30 7740 H 724.812 -4.36849 4.1144 0
M  V30 7741 H 725.882 -2.98579 3.82072 0
M  V30 7742 N 727.225 -1.14528 -1.08264 0
M  V30 7743 C 728.188 -0.83632 -2.13397 0
M  V30 7744 C 729.188 0.159715 -1.60005 0
M  V30 7745 O 730.378 -0.0688098 -1.74064 0
M  V30 7746 C 727.51 -0.246973 -3.40004 0
M  V30 7747 H 728.703 -1.76808 -2.42237 0
M  V30 7748 H 726.256 -0.951509 -1.24 0
M  V30 7749 H 726.991 0.693436 -3.168 0
M  V30 7750 H 726.776 -0.964412 -3.80055 0
M  V30 7751 H 728.266 -0.0480679 -4.17572 0
M  V30 7752 N 728.703 1.26451 -0.940633 0
M  V30 7753 C 729.666 2.24651 -0.454378 0
M  V30 7754 C 730.666 1.54826 0.434222 0
M  V30 7755 O 731.856 1.72628 0.233477 0
M  V30 7756 C 728.988 3.39148 0.345192 0
M  V30 7757 H 730.181 2.69182 -1.32217 0
M  V30 7758 H 727.734 1.38596 -0.722547 0
M  V30 7759 H 728.469 3.00018 1.23125 0
M  V30 7760 H 728.254 3.9101 -0.292107 0
M  V30 7761 H 729.744 4.12103 0.675341 0
M  V30 7762 N 730.181 0.707592 1.40822 0
M  V30 7763 C 731.43 0.240705 2.00259 0
M  V30 7764 C 731.743 -1.17027 1.56729 0
M  V30 7765 O 732.949 -1.73526 2.08809 0
M  V30 7766 C 731.405 0.379432 3.57894 0
M  V30 7767 C 731.013 1.79654 4.104 0
M  V30 7768 C 732.757 -0.0270684 4.24491 0
M  V30 7769 C 730.664 1.88628 5.60512 0
M  V30 7770 H 729.594 0.0862369 0.749052 0
M  V30 7771 H 732.245 0.877528 1.61157 0
M  V30 7772 H 730.627 -0.325842 3.94657 0
M  V30 7773 H 731.801 2.53155 3.85032 0
M  V30 7774 H 730.116 2.15379 3.56372 0
M  V30 7775 H 732.713 0.0193743 5.34696 0
M  V30 7776 H 733.056 -1.06772 4.02375 0
M  V30 7777 H 733.589 0.628361 3.92806 0
M  V30 7778 H 730.328 2.90787 5.87472 0
M  V30 7779 H 729.848 1.19528 5.8777 0
M  V30 7780 H 731.527 1.6547 6.25483 0
M  V30 7781 N 731.66 -1.50943 0.453197 0
M  V30 7782 C 732.89 -2.06328 -0.105981 0
M  V30 7783 C 733.298 -1.31909 -1.35634 0
M  V30 7784 O 732.641 -0.376607 -1.79798 0
M  V30 7785 C 732.703 -3.5631 -0.477868 0
M  V30 7786 C 732.367 -4.52093 0.667925 0
M  V30 7787 C 733.364 -4.96421 1.54475 0
M  V30 7788 C 731.049 -4.95001 0.853168 0
M  V30 7789 C 733.043 -5.82346 2.59138 0
M  V30 7790 C 730.73 -5.80713 1.90305 0
M  V30 7791 C 731.728 -6.24284 2.77053 0
M  V30 7792 O 731.416 -7.08291 3.80236 0
M  V30 7793 H 731.148 -0.675986 -0.00427247 0
M  V30 7794 H 733.702 -1.95314 0.635738 0
M  V30 7795 H 731.932 -3.65163 -1.27252 0
M  V30 7796 H 733.621 -3.94138 -0.970039 0
M  V30 7797 H 734.387 -4.63953 1.41324 0
M  V30 7798 H 730.266 -4.60619 0.187482 0
M  V30 7799 H 733.81 -6.16276 3.2688 0
M  V30 7800 H 729.707 -6.12593 2.03469 0
M  V30 7801 H 730.475 -7.26504 3.77007 0
M  V30 7802 N 733.138 -0.185124 -1.56509 0
M  V30 7803 C 734.07 0.771401 -2.15829 0
M  V30 7804 C 735.083 1.18392 -1.11747 0
M  V30 7805 O 736.272 1.12137 -1.38879 0
M  V30 7806 C 733.372 2.05169 -2.69739 0
M  V30 7807 C 732.545 1.80056 -3.98621 0
M  V30 7808 C 731.604 2.92435 -4.37456 0
M  V30 7809 O 730.63 2.62473 -5.05071 0
M  V30 7810 N 731.832 4.20554 -4.00143 0
M  V30 7811 H 734.597 0.264184 -2.98533 0
M  V30 7812 H 732.158 -0.00281069 -1.619 0
M  V30 7813 H 734.15 2.7947 -2.92709 0
M  V30 7814 H 732.72 2.47041 -1.91545 0
M  V30 7815 H 731.94 0.895862 -3.83885 0
M  V30 7816 H 733.228 1.60662 -4.82768 0
M  V30 7817 H 732.626 4.47753 -3.45736 0
M  V30 7818 H 731.183 4.91514 -4.28085 0
M  V30 7819 N 734.616 1.57351 0.0885366 0
M  V30 7820 C 735.546 2.05561 1.10757 0
M  V30 7821 C 736.527 0.945789 1.41382 0
M  V30 7822 O 737.712 1.21747 1.51299 0
M  V30 7823 C 734.842 2.48554 2.42566 0
M  V30 7824 C 733.796 3.63259 2.26334 0
M  V30 7825 C 733.122 3.9225 3.63378 0
M  V30 7826 C 734.422 4.93913 1.69844 0
M  V30 7827 H 736.116 2.90946 0.706468 0
M  V30 7828 H 733.662 1.39968 0.338385 0
M  V30 7829 H 735.615 2.8089 3.14132 0
M  V30 7830 H 734.339 1.60176 2.84625 0
M  V30 7831 H 732.998 3.31179 1.57213 0
M  V30 7832 H 732.646 3.0103 4.02976 0
M  V30 7833 H 732.346 4.69478 3.53362 0
M  V30 7834 H 733.87 4.27067 4.36401 0
M  V30 7835 H 735.284 5.24588 2.31258 0
M  V30 7836 H 733.681 5.75349 1.70569 0
M  V30 7837 H 734.751 4.80409 0.65843 0
M  V30 7838 N 736.094 -0.359525 1.53444 0
M  V30 7839 C 737.057 -1.42357 1.7963 0
M  V30 7840 C 738.057 -1.46319 0.666884 0
M  V30 7841 O 739.247 -1.46974 0.935113 0
M  V30 7842 C 736.379 -2.81425 1.92387 0
M  V30 7843 H 737.572 -1.20409 2.74666 0
M  V30 7844 H 735.125 -0.593007 1.44614 0
M  V30 7845 H 735.86 -3.08679 0.994384 0
M  V30 7846 H 735.645 -2.79947 2.74539 0
M  V30 7847 H 737.135 -3.5847 2.14218 0
M  V30 7848 N 737.572 -1.44907 -0.619662 0
M  V30 7849 C 738.82 -1.47999 -1.37625 0
M  V30 7850 C 739.141 -0.118295 -1.94641 0
M  V30 7851 O 738.411 0.85086 -1.76457 0
M  V30 7852 H 736.991 -0.544993 -0.510873 0
M  V30 7853 H 739.653 -1.80772 -0.728522 0
M  V30 7854 H 738.749 -2.21196 -2.20179 0
M  V30 7855 N 739.05 0.861098 -1.31996 0
M  V30 7856 C 739.982 1.97551 -1.16216 0
M  V30 7857 C 740.995 1.625 -0.0988527 0
M  V30 7858 O 742.184 1.75091 -0.3472 0
M  V30 7859 C 739.284 3.30376 -0.755307 0
M  V30 7860 C 738.457 3.93711 -1.90552 0
M  V30 7861 C 737.516 5.04862 -1.48328 0
M  V30 7862 O 736.542 5.25204 -2.19431 0
M  V30 7863 N 737.744 5.79283 -0.375656 0
M  V30 7864 H 740.509 2.11632 -2.12208 0
M  V30 7865 H 738.07 1.03559 -1.24448 0
M  V30 7866 H 740.062 4.0213 -0.455364 0
M  V30 7867 H 738.632 3.12395 0.113269 0
M  V30 7868 H 737.852 3.14825 -2.37231 0
M  V30 7869 H 739.14 4.32762 -2.67571 0
M  V30 7870 H 738.538 5.65286 0.216284 0
M  V30 7871 H 737.095 6.5166 -0.135289 0
M  V30 7872 N 740.528 1.15101 1.07655 0
M  V30 7873 C 741.476 0.840714 2.16875 0
M  V30 7874 C 742.47 -0.184594 1.68391 0
M  V30 7875 O 743.676 -0.0399315 1.79956 0
M  V30 7876 H 740.051 0.254192 0.707736 0
M  V30 7877 H 742.022 1.76959 2.40266 0
M  V30 7878 C 740.771 0.343018 3.46004 0
M  V30 7879 H 740.094 1.12335 3.83694 0
M  V30 7880 H 741.534 0.16453 4.23681 0
M  V30 7881 C 739.993 -0.934881 3.23669 0
M  V30 7882 O 740.523 -2.00706 3.47965 0
M  V30 7883 N 738.729 -0.873167 2.77172 0
M  V30 7884 H 738.276 -0.000479072 2.576 0
M  V30 7885 H 738.234 -1.72873 2.62607 0
M  V30 7886 N 742.006 -1.2595 0.947325 0
M  V30 7887 C 743.236 -1.97258 0.614235 0
M  V30 7888 C 743.644 -1.70682 -0.816355 0
M  V30 7889 O 742.987 -0.97527 -1.55673 0
M  V30 7890 C 743.049 -3.50845 0.784081 0
M  V30 7891 C 742.713 -4.01084 2.19045 0
M  V30 7892 C 743.71 -4.12347 3.16648 0
M  V30 7893 C 741.395 -4.34936 2.51268 0
M  V30 7894 C 743.389 -4.56766 4.44572 0
M  V30 7895 C 741.076 -4.79043 3.79422 0
M  V30 7896 C 742.074 -4.89919 4.75887 0
M  V30 7897 O 741.762 -5.3305 6.01758 0
M  V30 7898 H 741.494 -0.635738 0.22981 0
M  V30 7899 H 744.048 -1.61268 1.27207 0
M  V30 7900 H 742.278 -3.86638 0.069101 0
M  V30 7901 H 743.967 -4.03363 0.453135 0
M  V30 7902 H 744.733 -3.86432 2.93079 0
M  V30 7903 H 740.612 -4.25702 1.76916 0
M  V30 7904 H 744.156 -4.6517 5.19868 0
M  V30 7905 H 740.053 -5.04402 4.02802 0
M  V30 7906 H 740.821 -5.51255 6.05029 0
M  V30 7907 N 743.484 -0.715051 -1.40445 0
M  V30 7908 C 744.714 -0.263576 -2.04912 0
M  V30 7909 C 745.122 1.09943 -1.53978 0
M  V30 7910 O 744.465 1.70203 -0.691133 0
M  V30 7911 C 744.527 -0.165048 -3.59121 0
M  V30 7912 C 744.191 -1.46325 -4.32941 0
M  V30 7913 C 745.188 -2.40506 -4.60926 0
M  V30 7914 C 742.873 -1.72203 -4.7186 0
M  V30 7915 C 744.867 -3.58812 -5.26814 0
M  V30 7916 C 742.554 -2.9079 -5.3748 0
M  V30 7917 C 743.552 -3.83917 -5.64887 0
M  V30 7918 O 743.24 -5.00424 -6.29151 0
M  V30 7919 H 742.972 -0.116317 -0.665918 0
M  V30 7920 H 745.526 -0.973774 -1.8085 0
M  V30 7921 H 743.756 0.601088 -3.82 0
M  V30 7922 H 745.445 0.251794 -4.05118 0
M  V30 7923 H 746.211 -2.21778 -4.31323 0
M  V30 7924 H 742.09 -1.00571 -4.49896 0
M  V30 7925 H 745.634 -4.31517 -5.48123 0
M  V30 7926 H 741.531 -3.09428 -5.66502 0
M  V30 7927 H 742.299 -5.00494 -6.47648 0
M  V30 7928 N 744.962 1.50701 -0.461195 0
M  V30 7929 C 746.373 1.867 -0.00370227 0
M  V30 7930 C 746.724 1.37673 1.39787 0
M  V30 7931 O 745.849 0.737515 2.03445 0
M  V30 7932 C 746.444 3.388 5.75786e-05 0
M  V30 7933 C 745.003 3.74247 0.402044 0
M  V30 7934 C 744.15 2.74549 -0.389652 0
M  V30 7935 H 747.101 1.43585 -0.675942 0
M  V30 7936 H 747.122 3.719 0.804414 0
M  V30 7937 H 746.634 3.74452 -1.02015 0
M  V30 7938 H 744.735 3.44192 1.42697 0
M  V30 7939 H 744.848 4.78973 0.110265 0
M  V30 7940 H 743.212 2.54226 0.155314 0
M  V30 7941 H 743.995 3.13044 -1.40919 0
M  V30 7942 N 746.441 0.193421 1.56409 0
M  V30 7943 C 747.689 -0.444908 1.97142 0
M  V30 7944 C 748.01 -1.62268 1.08139 0
M  V30 7945 O 747.28 -1.95307 0.152326 0
M  V30 7946 H 745.86 -0.16736 0.728011 0
M  V30 7947 H 748.522 0.279763 1.92882 0
M  V30 7948 H 747.618 -0.790159 3.01932 0
M  V30 7949 N 747.919 -1.57396 -0.0801906 0
M  V30 7950 C 748.851 -1.9982 -1.12271 0
M  V30 7951 C 749.864 -0.902902 -1.35468 0
M  V30 7952 O 751.053 -1.18088 -1.33856 0
M  V30 7953 C 748.153 -2.31476 -2.47532 0
M  V30 7954 C 747.326 -3.62745 -2.44407 0
M  V30 7955 C 746.385 -3.82168 -3.6171 0
M  V30 7956 O 745.411 -4.53852 -3.43522 0
M  V30 7957 N 746.613 -3.2388 -4.81749 0
M  V30 7958 H 749.378 -2.89864 -0.761501 0
M  V30 7959 H 746.939 -1.5965 -0.268965 0
M  V30 7960 H 748.931 -2.4165 -3.24634 0
M  V30 7961 H 747.501 -1.47364 -2.75686 0
M  V30 7962 H 746.721 -3.63403 -1.52747 0
M  V30 7963 H 748.009 -4.48954 -2.39412 0
M  V30 7964 H 747.407 -2.6568 -4.9943 0
M  V30 7965 H 745.964 -3.39515 -5.56392 0
M  V30 7966 N 749.397 0.351382 -1.53633 0
M  V30 7967 C 750.627 1.11113 -1.74176 0
M  V30 7968 C 751.035 1.83084 -0.477154 0
M  V30 7969 O 750.378 1.74941 0.560483 0
M  V30 7970 C 750.44 2.17521 -2.86225 0
M  V30 7971 C 750.104 1.65193 -4.26099 0
M  V30 7972 C 751.101 1.10842 -5.07947 0
M  V30 7973 C 748.786 1.70277 -4.72558 0
M  V30 7974 C 750.78 0.622689 -6.34351 0
M  V30 7975 C 748.467 1.21316 -5.98937 0
M  V30 7976 C 749.465 0.674033 -6.79666 0
M  V30 7977 O 749.153 0.191696 -8.03671 0
M  V30 7978 H 748.885 0.33756 -0.585687 0
M  V30 7979 H 751.439 0.411786 -2.0123 0
M  V30 7980 H 749.669 2.90991 -2.54678 0
M  V30 7981 H 751.358 2.78999 -2.94812 0
M  V30 7982 H 752.124 1.06243 -4.7322 0
M  V30 7983 H 748.003 2.11181 -4.09785 0
M  V30 7984 H 751.547 0.201216 -6.9731 0
M  V30 7985 H 747.444 1.25613 -6.3316 0
M  V30 7986 H 748.212 0.309712 -8.17914 0
M  V30 7987 N 750.875 1.45233 0.611969 0
M  V30 7988 C 751.785 1.56098 1.7513 0
M  V30 7989 C 752.801 0.445646 1.68196 0
M  V30 7990 O 753.977 0.705718 1.88631 0
M  V30 7991 C 751.042 1.52052 3.11579 0
M  V30 7992 C 750.103 2.74589 3.29999 0
M  V30 7993 C 749.336 2.70726 4.59938 0
M  V30 7994 O 749.559 1.77806 5.41979 0
M  V30 7995 O 748.493 3.61864 4.80976 0
M  V30 7996 H 752.319 2.52392 1.68914 0
M  V30 7997 H 749.904 1.27695 0.775528 0
M  V30 7998 H 751.786 1.52387 3.92882 0
M  V30 7999 H 750.461 0.589085 3.18295 0
M  V30 8000 H 749.368 2.79817 2.48301 0
M  V30 8001 H 750.701 3.66843 3.28157 0
M  V30 8002 N 752.353 -0.854086 1.3245 0
M  V30 8003 C 753.6 -1.60831 1.23043 0
M  V30 8004 C 753.928 -1.93389 -0.2076 0
M  V30 8005 O 753.183 -1.5756 -1.16075 0
M  V30 8006 C 753.482 -2.93746 2.03587 0
M  V30 8007 C 753.148 -2.80615 3.52939 0
M  V30 8008 C 751.81 -2.76742 3.93659 0
M  V30 8009 C 754.162 -2.66507 4.4791 0
M  V30 8010 C 751.49 -2.56638 5.27592 0
M  V30 8011 C 753.842 -2.47939 5.81987 0
M  V30 8012 C 752.506 -2.42458 6.21909 0
M  V30 8013 H 751.776 -0.588523 0.450247 0
M  V30 8014 H 754.423 -0.990699 1.63882 0
M  V30 8015 H 752.728 -3.5963 1.55478 0
M  V30 8016 H 754.425 -3.51127 1.93677 0
M  V30 8017 H 751.015 -2.84456 3.20598 0
M  V30 8018 H 755.199 -2.68544 4.1737 0
M  V30 8019 H 750.455 -2.50831 5.57579 0
M  V30 8020 H 754.629 -2.36002 6.55192 0
M  V30 8021 H 752.256 -2.2664 7.2563 0
M  V30 8022 N 753.831 -1.1567 -1.07043 0
M  V30 8023 C 754.763 -0.814095 -2.14255 0
M  V30 8024 C 755.776 0.175293 -1.61854 0
M  V30 8025 O 756.965 -0.0483984 -1.78434 0
M  V30 8026 C 754.065 -0.190082 -3.38367 0
M  V30 8027 C 753.238 -1.21768 -4.20109 0
M  V30 8028 C 752.297 -0.614863 -5.22595 0
M  V30 8029 O 751.323 -1.28167 -5.54583 0
M  V30 8030 N 752.525 0.601955 -5.77371 0
M  V30 8031 H 755.29 -1.73677 -2.44247 0
M  V30 8032 H 752.851 -1.05301 -1.22977 0
M  V30 8033 H 754.843 0.22604 -4.04068 0
M  V30 8034 H 753.413 0.635992 -3.06062 0
M  V30 8035 H 752.633 -1.81025 -3.50177 0
M  V30 8036 H 753.921 -1.9114 -4.71533 0
M  V30 8037 H 753.319 1.162 -5.53637 0
M  V30 8038 H 751.876 0.96039 -6.44686 0
M  V30 8039 N 755.309 1.25446 -0.953992 0
M  V30 8040 C 756.549 1.94894 -0.616087 0
M  V30 8041 C 756.913 1.73067 0.831374 0
M  V30 8042 O 758.114 2.3643 1.27884 0
M  V30 8043 C 756.385 3.44147 -0.964225 0
M  V30 8044 S 757.944 4.32536 -0.738798 0
M  V30 8045 H 754.762 0.673967 -0.226472 0
M  V30 8046 H 757.364 1.52117 -1.22803 0
M  V30 8047 H 756.068 3.57537 -2.01484 0
M  V30 8048 H 755.599 3.91906 -0.342507 0
M  V30 8049 H 757.614 4.94659 0.390732 0
M  V30 8050 N 756.787 0.722489 1.40064 0
M  V30 8051 C 757.717 0.0892452 2.33329 0
M  V30 8052 C 758.698 -0.737992 1.53257 0
M  V30 8053 O 759.883 -0.685516 1.81698 0
M  V30 8054 C 757.013 -0.828139 3.37282 0
M  V30 8055 C 755.967 -0.106005 4.27869 0
M  V30 8056 C 755.293 -1.13957 5.22415 0
M  V30 8057 C 756.593 1.04395 5.11761 0
M  V30 8058 H 758.287 0.868269 2.86534 0
M  V30 8059 H 755.833 0.418982 1.3777 0
M  V30 8060 H 757.786 -1.28058 4.01471 0
M  V30 8061 H 756.51 -1.63914 2.82489 0
M  V30 8062 H 755.169 0.326683 3.65142 0
M  V30 8063 H 754.817 -1.9438 4.63924 0
M  V30 8064 H 754.517 -0.661233 5.83868 0
M  V30 8065 H 756.041 -1.59197 5.89482 0
M  V30 8066 H 757.455 0.670541 5.69365 0
M  V30 8067 H 755.852 1.4511 5.82291 0
M  V30 8068 H 756.922 1.87144 4.47331 0
M  V30 8069 N 758.265 -1.50454 0.469181 0
M  V30 8070 C 759.215 -2.25381 -0.344582 0
M  V30 8071 C 760.199 -1.28892 -0.963098 0
M  V30 8072 O 761.391 -1.53805 -0.875964 0
M  V30 8073 C 758.52 -3.12232 -1.4271 0
M  V30 8074 C 757.606 -4.16168 -0.816411 0
M  V30 8075 N 757.997 -5.05762 0.0621424 0
M  V30 8076 C 756.295 -4.32712 -1.08056 0
M  V30 8077 C 756.996 -5.80264 0.408519 0
M  V30 8078 N 755.972 -5.43171 -0.215827 0
M  V30 8079 H 759.774 -2.92016 0.332237 0
M  V30 8080 H 757.288 -1.59911 0.283209 0
M  V30 8081 H 759.285 -3.64514 -2.02324 0
M  V30 8082 H 757.945 -2.47145 -2.10593 0
M  V30 8083 H 758.956 -5.16105 0.430841 0
M  V30 8084 H 755.633 -3.78844 -1.75452 0
M  V30 8085 H 757.023 -6.62408 1.12539 0
M  V30 8086 N 759.743 -0.201713 -1.56304 0
M  V30 8087 C 760.991 0.434447 -1.97375 0
M  V30 8088 C 761.312 1.61692 -1.08998 0
M  V30 8089 O 760.582 1.95223 -0.162682 0
M  V30 8090 H 759.162 0.163497 -0.728888 0
M  V30 8091 H 761.824 -0.289988 -1.92731 0
M  V30 8092 H 760.92 0.774136 -3.02347 0
M  V30 8093 N 761.222 1.57436 0.0718424 0
M  V30 8094 C 762.155 1.98982 1.11721 0
M  V30 8095 C 763.133 0.866731 1.37574 0
M  V30 8096 O 764.317 1.12903 1.50948 0
M  V30 8097 C 761.444 2.32648 2.46155 0
M  V30 8098 C 760.49 3.54964 2.36437 0
M  V30 8099 S 761.323 5.05802 1.75854 0
M  V30 8100 C 762.479 5.42669 3.11867 0
M  V30 8101 H 762.712 2.87338 0.763154 0
M  V30 8102 H 760.245 1.51833 0.280372 0
M  V30 8103 H 762.203 2.52719 3.23486 0
M  V30 8104 H 760.864 1.44821 2.78722 0
M  V30 8105 H 760.057 3.76038 3.35577 0
M  V30 8106 H 759.659 3.34524 1.67242 0
M  V30 8107 H 761.951 5.40737 4.08178 0
M  V30 8108 H 762.894 6.43461 2.95573 0
M  V30 8109 H 763.302 4.70131 3.1247 0
M  V30 8110 N 762.7 -0.34323 1.53817 0
M  V30 8111 C 763.948 -1.0813 1.70741 0
M  V30 8112 C 764.269 -1.89165 0.473461 0
M  V30 8113 O 763.539 -1.89075 -0.512605 0
M  V30 8114 H 762.119 -0.40219 0.629486 0
M  V30 8115 H 764.781 -0.384426 1.91071 0
M  V30 8116 H 763.877 -1.7585 2.57843 0
M  V30 8117 N 764.178 -1.45556 -0.604258 0
M  V30 8118 C 765.088 -1.57025 -1.74299 0
M  V30 8119 C 766.104 -0.45456 -1.67958 0
M  V30 8120 O 767.28 -0.715711 -1.88254 0
M  V30 8121 C 764.345 -1.53702 -3.10768 0
M  V30 8122 C 763.406 -2.76335 -3.28538 0
M  V30 8123 C 762.639 -2.73161 -4.58496 0
M  V30 8124 O 762.862 -1.80678 -5.41028 0
M  V30 8125 O 761.796 -3.64409 -4.79051 0
M  V30 8126 H 765.622 -2.53284 -1.67573 0
M  V30 8127 H 763.207 -1.28104 -0.768745 0
M  V30 8128 H 765.089 -1.54468 -3.92068 0
M  V30 8129 H 763.764 -0.605957 -3.17978 0
M  V30 8130 H 762.671 -2.8113 -2.46813 0
M  V30 8131 H 764.004 -3.68578 -3.26207 0
M  V30 8132 N 765.656 0.84705 -1.32902 0
M  V30 8133 C 767.067 1.41785 -1.21466 0
M  V30 8134 C 767.418 1.95464 0.169767 0
M  V30 8135 O 766.543 1.88157 1.06892 0
M  V30 8136 C 767.138 2.57734 -2.19906 0
M  V30 8137 C 765.697 3.10791 -2.12334 0
M  V30 8138 C 764.844 1.83562 -2.07847 0
M  V30 8139 H 767.795 0.653532 -1.44619 0
M  V30 8140 H 767.816 3.35123 -1.80202 0
M  V30 8141 H 767.328 2.18635 -3.20656 0
M  V30 8142 H 765.429 3.54455 -1.14858 0
M  V30 8143 H 765.542 3.71519 -3.02506 0
M  V30 8144 H 763.906 2.03475 -1.53199 0
M  V30 8145 H 764.689 1.4667 -3.10392 0
M  V30 8146 N 767.134 1.16236 1.06428 0
M  V30 8147 C 768.064 0.890807 2.1584 0
M  V30 8148 C 769.045 -0.162333 1.69324 0
M  V30 8149 O 770.23 -0.0147191 1.94194 0
M  V30 8150 C 767.36 0.389615 3.45108 0
M  V30 8151 C 766.314 1.38051 4.05125 0
M  V30 8152 C 765.64 0.737773 5.29586 0
M  V30 8153 C 766.94 2.74965 4.44062 0
M  V30 8154 H 768.634 1.80577 2.38814 0
M  V30 8155 H 766.18 0.869657 1.14774 0
M  V30 8156 H 768.133 0.187127 4.20984 0
M  V30 8157 H 766.857 -0.560851 3.21748 0
M  V30 8158 H 765.516 1.56952 3.31303 0
M  V30 8159 H 765.164 -0.219135 5.02522 0
M  V30 8160 H 764.864 1.39914 5.70699 0
M  V30 8161 H 766.388 0.545275 6.0816 0
M  V30 8162 H 767.802 2.59855 5.11027 0
M  V30 8163 H 766.199 3.37563 4.96156 0
M  V30 8164 H 767.269 3.30321 3.54987 0
M  V30 8165 N 768.612 -1.24939 0.960631 0
M  V30 8166 C 769.842 -1.96595 0.635123 0
M  V30 8167 C 770.25 -1.71538 -0.798206 0
M  V30 8168 O 769.593 -0.991727 -1.5463 0
M  V30 8169 C 769.655 -3.49994 0.821248 0
M  V30 8170 C 769.319 -3.98738 2.23287 0
M  V30 8171 C 770.316 -4.08965 3.21004 0
M  V30 8172 C 768.001 -4.32247 2.55867 0
M  V30 8173 C 769.995 -4.52025 4.49391 0
M  V30 8174 C 767.682 -4.74991 3.84482 0
M  V30 8175 C 768.68 -4.84844 4.81056 0
M  V30 8176 O 768.368 -5.26638 6.07378 0
M  V30 8177 H 768.1 -0.633265 0.23654 0
M  V30 8178 H 770.654 -1.5991 1.28911 0
M  V30 8179 H 768.884 -3.86543 0.110105 0
M  V30 8180 H 770.573 -4.02859 0.495892 0
M  V30 8181 H 771.339 -3.83302 2.97161 0
M  V30 8182 H 767.218 -4.23801 1.81421 0
M  V30 8183 H 770.762 -4.5963 5.24773 0
M  V30 8184 H 766.659 -5.00101 4.08129 0
M  V30 8185 H 767.427 -5.44807 6.10842 0
M  V30 8186 N 770.09 -0.729906 -1.39679 0
M  V30 8187 C 771 -0.0880322 -2.34435 0
M  V30 8188 C 772.016 0.727674 -1.58053 0
M  V30 8189 O 773.192 0.657321 -1.90371 0
M  V30 8190 C 770.257 0.812211 -3.37052 0
M  V30 8191 C 769.318 -0.0151681 -4.29297 0
M  V30 8192 C 768.551 0.842202 -5.27013 0
M  V30 8193 O 768.774 2.08108 -5.31081 0
M  V30 8194 O 767.708 0.27357 -6.01278 0
M  V30 8195 H 771.534 -0.869989 -2.90972 0
M  V30 8196 H 769.119 -0.490522 -1.41118 0
M  V30 8197 H 771.001 1.32745 -3.99946 0
M  V30 8198 H 769.676 1.57307 -2.82907 0
M  V30 8199 H 768.583 -0.575811 -3.69642 0
M  V30 8200 H 769.916 -0.738129 -4.86634 0
M  V30 8201 N 771.568 1.50203 -0.477153 0
M  V30 8202 C 772.5 2.26508 0.350239 0
M  V30 8203 C 773.513 1.32081 0.95176 0
M  V30 8204 O 774.702 1.57546 0.839139 0
M  V30 8205 C 771.802 3.0361 1.50579 0
M  V30 8206 C 770.975 4.25438 1.01595 0
M  V30 8207 C 770.034 4.84783 2.04626 0
M  V30 8208 O 769.06 5.45528 1.62442 0
M  V30 8209 N 770.262 4.72318 3.37485 0
M  V30 8210 H 773.027 2.98155 -0.30394 0
M  V30 8211 H 770.588 1.58938 -0.308289 0
M  V30 8212 H 772.58 3.4019 2.1921 0
M  V30 8213 H 771.15 2.34724 2.06455 0
M  V30 8214 H 770.37 3.93894 0.155316 0
M  V30 8215 H 771.658 5.04413 0.666694 0
M  V30 8216 H 771.056 4.24022 3.74462 0
M  V30 8217 H 769.613 5.13149 4.01897 0
M  V30 8218 N 773.046 0.209999 1.56195 0
M  V30 8219 C 774.292 -0.425442 1.98287 0
M  V30 8220 C 774.625 -1.60232 1.09724 0
M  V30 8221 O 773.9 -1.93902 0.152414 0
M  V30 8222 C 774.183 -0.871189 3.49403 0
M  V30 8223 C 774.036 0.308527 4.48741 0
M  V30 8224 C 775.355 -1.73146 4.04609 0
M  V30 8225 H 772.474 -0.153169 0.720908 0
M  V30 8226 H 775.116 0.303916 1.87554 0
M  V30 8227 H 773.266 -1.49266 3.58681 0
M  V30 8228 H 774.938 0.946487 4.51486 0
M  V30 8229 H 773.181 0.957878 4.23092 0
M  V30 8230 H 773.852 -0.0461143 5.51981 0
M  V30 8231 H 776.328 -1.2072 3.98203 0
M  V30 8232 H 775.204 -2.01228 5.10684 0
M  V30 8233 H 775.465 -2.69083 3.5078 0
M  V30 8234 N 774.524 -1.57472 -0.0634922 0
M  V30 8235 C 775.752 -1.91887 -0.773767 0
M  V30 8236 C 776.167 -0.806733 -1.70696 0
M  V30 8237 O 775.524 0.219383 -1.81177 0
M  V30 8238 C 775.575 -3.26092 -1.56034 0
M  V30 8239 O 775.296 -4.33029 -0.66464 0
M  V30 8240 C 776.797 -3.74573 -2.37087 0
M  V30 8241 H 774.017 -0.634074 -0.219525 0
M  V30 8242 H 776.561 -2.04476 -0.0312828 0
M  V30 8243 H 774.716 -3.15004 -2.25502 0
M  V30 8244 H 775.13 -5.10291 -1.21258 0
M  V30 8245 H 776.604 -4.71084 -2.87722 0
M  V30 8246 H 777.081 -3.04003 -3.16984 0
M  V30 8247 H 777.687 -3.88631 -1.72759 0
M  V30 8248 N 776.003 0.335068 -1.53997 0
M  V30 8249 C 777.251 1.07223 -1.71312 0
M  V30 8250 C 777.572 1.88911 -0.483486 0
M  V30 8251 O 776.842 1.89344 0.50257 0
M  V30 8252 H 775.422 0.398846 -0.63161 0
M  V30 8253 H 778.084 0.374288 -1.91272 0
M  V30 8254 H 777.18 1.7448 -2.58772 0
M  V30 8255 N 777.481 1.45874 0.596531 0
M  V30 8256 C 778.428 1.55389 1.70655 0
M  V30 8257 C 779.398 0.399036 1.61236 0
M  V30 8258 O 780.583 0.61396 1.80652 0
M  V30 8259 C 777.723 1.53705 3.0898 0
M  V30 8260 C 776.836 2.79823 3.29125 0
M  V30 8261 C 775.971 2.69735 4.5762 0
M  V30 8262 C 775.01 3.90856 4.71061 0
M  V30 8263 N 774.147 3.79237 5.90867 0
M  V30 8264 H 778.987 2.50211 1.61859 0
M  V30 8265 H 776.524 1.24146 0.789069 0
M  V30 8266 H 778.482 1.50715 3.89026 0
M  V30 8267 H 777.112 0.624247 3.16706 0
M  V30 8268 H 776.164 2.92852 2.42779 0
M  V30 8269 H 777.476 3.69628 3.34927 0
M  V30 8270 H 776.63 2.64773 5.45875 0
M  V30 8271 H 775.369 1.77547 4.54234 0
M  V30 8272 H 774.374 3.96164 3.81227 0
M  V30 8273 H 775.599 4.84124 4.76236 0
M  V30 8274 H 773.545 2.89825 5.88504 0
M  V30 8275 H 773.462 4.62686 5.97877 0
M  V30 8276 H 774.73 3.78227 6.8159 0
M  V30 8277 N 778.959 -0.83999 1.33349 0
M  V30 8278 C 780.205 -1.59753 1.24927 0
M  V30 8279 C 780.538 -1.93318 -0.184855 0
M  V30 8280 O 779.813 -1.586 -1.12589 0
M  V30 8281 C 780.096 -2.90829 2.12345 0
M  V30 8282 C 779.949 -2.63953 3.6421 0
M  V30 8283 C 781.268 -3.92246 1.99577 0
M  V30 8284 H 778.387 -0.579654 0.45516 0
M  V30 8285 H 781.029 -0.968909 1.63439 0
M  V30 8286 H 779.179 -3.44478 1.79631 0
M  V30 8287 H 780.851 -2.16745 4.07209 0
M  V30 8288 H 779.094 -1.97671 3.86146 0
M  V30 8289 H 779.765 -3.57348 4.20721 0
M  V30 8290 H 782.241 -3.479 2.28265 0
M  V30 8291 H 781.117 -4.81793 2.62996 0
M  V30 8292 H 781.378 -4.3138 0.967673 0
M  V30 8293 N 780.437 -1.16799 -1.0581 0
M  V30 8294 C 781.4 -0.881396 -2.11575 0
M  V30 8295 C 782.4 0.12574 -1.60308 0
M  V30 8296 O 783.59 -0.105716 -1.73879 0
M  V30 8297 C 780.722 -0.319037 -3.39404 0
M  V30 8298 H 781.915 -1.81907 -2.38432 0
M  V30 8299 H 779.468 -0.977597 -1.21954 0
M  V30 8300 H 780.203 0.626082 -3.18199 0
M  V30 8301 H 779.988 -1.04481 -3.77923 0
M  V30 8302 H 781.478 -0.13663 -4.17376 0
M  V30 8303 N 781.915 1.24427 -0.967243 0
M  V30 8304 C 783.192 1.87831 -0.545776 0
M  V30 8305 C 783.572 1.87126 0.977099 0
M  V30 8306 O 782.92 1.34357 1.84826 0
M  V30 8307 C 783.13 3.29967 -1.13679 0
M  V30 8308 C 784.478 4.06654 -1.22139 0
M  V30 8309 O 785.502 3.39136 -1.08926 0
M  V30 8310 O 784.361 5.27455 -1.43017 0
M  V30 8311 H 781.455 0.806745 -0.181912 0
M  V30 8312 H 784.001 1.32403 -1.06148 0
M  V30 8313 H 782.773 3.24977 -2.17958 0
M  V30 8314 H 782.396 3.92969 -0.605093 0
M  V30 8315 N 783.393 0.737304 1.3929 0
M  V30 8316 C 784.641 0.285691 2.00071 0
M  V30 8317 C 784.962 -1.13169 1.58801 0
M  V30 8318 O 784.232 -1.77104 0.837308 0
M  V30 8319 H 782.812 0.102638 0.739915 0
M  V30 8320 H 785.474 0.947775 1.70303 0
M  V30 8321 H 784.57 0.335906 3.10287 0
M  V30 8322 N 784.871 -1.49948 0.485112 0
M  V30 8323 C 785.818 -2.28819 -0.301729 0
M  V30 8324 C 786.788 -1.34496 -0.974683 0
M  V30 8325 O 787.973 -1.63444 -0.984418 0
M  V30 8326 C 785.113 -3.16758 -1.36961 0
M  V30 8327 C 784.226 -4.26125 -0.710027 0
M  V30 8328 C 783.361 -5.01302 -1.75699 0
M  V30 8329 C 782.4 -6.02525 -1.07841 0
M  V30 8330 N 781.537 -6.70927 -2.06886 0
M  V30 8331 H 786.377 -2.95604 0.377127 0
M  V30 8332 H 783.914 -1.45764 0.197826 0
M  V30 8333 H 785.872 -3.66106 -2.00056 0
M  V30 8334 H 784.502 -2.51991 -2.01744 0
M  V30 8335 H 783.554 -3.80385 0.0338278 0
M  V30 8336 H 784.866 -4.98493 -0.175079 0
M  V30 8337 H 784.02 -5.54438 -2.46339 0
M  V30 8338 H 782.759 -4.28672 -2.32577 0
M  V30 8339 H 781.764 -5.48635 -0.357706 0
M  V30 8340 H 782.989 -6.77134 -0.516345 0
M  V30 8341 H 780.935 -6.01079 -2.62755 0
M  V30 8342 H 780.852 -7.39216 -1.58414 0
M  V30 8343 H 782.12 -7.28675 -2.76863 0
M  V30 8344 N 786.349 -0.21828 -1.56081 0
M  V30 8345 C 787.279 0.687922 -2.23136 0
M  V30 8346 C 788.26 1.20357 -1.202 0
M  V30 8347 O 789.445 1.24817 -1.48776 0
M  V30 8348 C 786.575 1.89762 -2.90874 0
M  V30 8349 C 785.529 1.51595 -4.00254 0
M  V30 8350 C 784.855 2.80415 -4.55271 0
M  V30 8351 C 786.155 0.708404 -5.17474 0
M  V30 8352 H 787.849 0.128854 -2.99123 0
M  V30 8353 H 785.395 0.0605354 -1.43873 0
M  V30 8354 H 787.348 2.53699 -3.36474 0
M  V30 8355 H 786.072 2.4816 -2.1233 0
M  V30 8356 H 784.731 0.900058 -3.55379 0
M  V30 8357 H 784.379 3.36951 -3.73461 0
M  V30 8358 H 784.079 2.55613 -5.2909 0
M  V30 8359 H 785.603 3.453 -5.03587 0
M  V30 8360 H 787.017 1.2514 -5.59476 0
M  V30 8361 H 785.414 0.557593 -5.97504 0
M  V30 8362 H 786.484 -0.285679 -4.84058 0
M  V30 8363 N 787.827 1.57504 0.0551401 0
M  V30 8364 C 788.775 2.05884 1.08233 0
M  V30 8365 C 789.769 0.967383 1.39061 0
M  V30 8366 O 790.975 1.15242 1.38273 0
M  V30 8367 H 787.35 0.656673 0.366449 0
M  V30 8368 H 789.321 2.91273 0.648269 0
M  V30 8369 C 788.07 2.53221 2.38273 0
M  V30 8370 H 787.393 3.36809 2.15406 0
M  V30 8371 H 788.833 2.9081 3.08554 0
M  V30 8372 C 787.292 1.42218 3.05411 0
M  V30 8373 O 787.822 0.773638 3.9418 0
M  V30 8374 N 786.028 1.16316 2.66306 0
M  V30 8375 H 785.575 1.69237 1.94207 0
M  V30 8376 H 785.533 0.422534 3.11548 0
M  V30 8377 N 789.305 -0.326896 1.54172 0
M  V30 8378 C 790.721 -0.671034 1.44808 0
M  V30 8379 C 790.921 -1.91781 0.618258 0
M  V30 8380 O 789.977 -2.52235 0.115751 0
M  V30 8381 C 791.29 -0.848147 2.88491 0
M  V30 8382 C 792.838 -0.945702 2.98371 0
M  V30 8383 C 793.313 -1.15501 4.43197 0
M  V30 8384 N 794.804 -1.22183 4.46795 0
M  V30 8385 C 795.539 -1.4016 5.56006 0
M  V30 8386 N 795.035 -1.55202 6.75192 0
M  V30 8387 N 796.828 -1.42841 5.43648 0
M  V30 8388 H 788.979 0.49262 2.06608 0
M  V30 8389 H 791.242 0.158574 0.934643 0
M  V30 8390 H 790.948 -0.00329969 3.517 0
M  V30 8391 H 790.822 -1.74497 3.34411 0
M  V30 8392 H 793.209 -1.78106 2.35292 0
M  V30 8393 H 793.29 -0.0254215 2.55787 0
M  V30 8394 H 792.934 -0.324521 5.06862 0
M  V30 8395 H 792.864 -2.08911 4.83388 0
M  V30 8396 H 795.355 -1.12016 3.60917 0
M  V30 8397 H 795.668 -1.68601 7.54184 0
M  V30 8398 H 794.013 -1.52306 6.78106 0
M  V30 8399 H 797.204 -1.30683 4.49488 0
M  V30 8400 H 797.377 -1.56509 6.28816 0
M  V30 8401 N 790.784 -1.46188 -0.588786 0
M  V30 8402 C 792.195 -1.45421 -1.17088 0
M  V30 8403 C 792.546 -0.191801 -1.9526 0
M  V30 8404 O 791.671 0.705497 -2.04577 0
M  V30 8405 C 792.266 -2.63467 -2.13004 0
M  V30 8406 C 790.825 -2.6576 -2.6655 0
M  V30 8407 C 789.972 -2.38002 -1.42304 0
M  V30 8408 H 792.923 -1.54156 -0.377052 0
M  V30 8409 H 792.944 -2.38638 -2.96365 0
M  V30 8410 H 792.456 -3.55331 -1.56081 0
M  V30 8411 H 790.557 -1.77952 -3.27359 0
M  V30 8412 H 790.67 -3.65545 -3.09699 0
M  V30 8413 H 789.034 -1.87936 -1.71907 0
M  V30 8414 H 789.817 -3.32035 -0.872209 0
M  V30 8415 N 792.262 0.832906 -1.33792 0
M  V30 8416 C 793.502 1.60217 -1.26925 0
M  V30 8417 C 793.866 1.91323 0.161146 0
M  V30 8418 O 795.067 2.66461 0.353864 0
M  V30 8419 C 793.338 2.87314 -2.12568 0
M  V30 8420 S 794.897 3.77939 -2.22952 0
M  V30 8421 H 791.715 0.549273 -0.451464 0
M  V30 8422 H 794.317 0.984648 -1.68893 0
M  V30 8423 H 793.021 2.62444 -3.15518 0
M  V30 8424 H 792.552 3.5407 -1.71459 0
M  V30 8425 H 794.567 4.76188 -1.39496 0
M  V30 8426 N 793.74 1.17359 1.05189 0
M  V30 8427 C 795.156 0.920861 1.30355 0
M  V30 8428 C 795.356 -0.419993 1.97074 0
M  V30 8429 O 794.412 -1.15696 2.24434 0
M  V30 8430 C 795.725 2.07818 2.1733 0
M  V30 8431 C 797.273 2.1152 2.30712 0
M  V30 8432 C 797.748 3.26637 3.21048 0
M  V30 8433 N 799.239 3.26426 3.28634 0
M  V30 8434 C 799.974 4.12141 3.98657 0
M  V30 8435 N 799.47 5.07966 4.71107 0
M  V30 8436 N 801.263 4.00091 3.94821 0
M  V30 8437 H 793.414 2.03666 0.602821 0
M  V30 8438 H 795.677 0.889294 0.328421 0
M  V30 8439 H 795.383 3.04727 1.75597 0
M  V30 8440 H 795.257 2.02922 3.17966 0
M  V30 8441 H 797.644 1.15196 2.71687 0
M  V30 8442 H 797.725 2.20477 1.29706 0
M  V30 8443 H 797.369 4.23227 2.80788 0
M  V30 8444 H 797.299 3.14917 4.2206 0
M  V30 8445 H 799.79 2.57045 2.77013 0
M  V30 8446 H 800.103 5.69766 5.22099 0
M  V30 8447 H 798.448 5.11936 4.7005 0
M  V30 8448 H 801.639 3.24523 3.37346 0
M  V30 8449 H 801.812 4.6711 4.49123 0
M  V30 8450 N 795.218 -1.23913 0.973828 0
M  V30 8451 C 796.467 -1.91455 0.63464 0
M  V30 8452 C 796.78 -1.76893 -0.834759 0
M  V30 8453 O 797.986 -2.3918 -1.28473 0
M  V30 8454 C 796.442 -3.43172 1.08447 0
M  V30 8455 C 796.05 -3.66409 2.57776 0
M  V30 8456 C 797.794 -4.1653 0.818721 0
M  V30 8457 C 795.701 -5.11728 2.9646 0
M  V30 8458 H 794.631 -0.716881 0.233661 0
M  V30 8459 H 797.282 -1.40457 1.18085 0
M  V30 8460 H 795.664 -3.93242 0.466524 0
M  V30 8461 H 796.838 -3.26913 3.24753 0
M  V30 8462 H 795.153 -3.06349 2.82027 0
M  V30 8463 H 797.75 -5.23603 1.08367 0
M  V30 8464 H 798.093 -4.15578 -0.245128 0
M  V30 8465 H 798.626 -3.72428 1.39793 0
M  V30 8466 H 795.365 -5.17806 4.01941 0
M  V30 8467 H 794.885 -5.52199 2.34172 0
M  V30 8468 H 796.564 -5.80009 2.86703 0
M  V30 8469 N 796.696 -0.74468 -1.38897 0
M  V30 8470 C 797.926 -0.306982 -2.04307 0
M  V30 8471 C 798.334 1.06652 -1.56275 0
M  V30 8472 O 797.677 1.68699 -0.72708 0
M  V30 8473 C 797.739 -0.241186 -3.5869 0
M  V30 8474 C 797.403 -1.55476 -4.2974 0
M  V30 8475 C 798.4 -2.50229 -4.55721 0
M  V30 8476 C 796.085 -1.82173 -4.68101 0
M  V30 8477 C 798.079 -3.69905 -5.19085 0
M  V30 8478 C 795.766 -3.02125 -5.31191 0
M  V30 8479 C 796.764 -3.95812 -5.56616 0
M  V30 8480 O 796.452 -5.13656 -6.18395 0
M  V30 8481 H 796.184 -0.130416 -0.663301 0
M  V30 8482 H 798.738 -1.01192 -1.78744 0
M  V30 8483 H 796.968 0.519925 -3.83189 0
M  V30 8484 H 798.657 0.165806 -4.05561 0
M  V30 8485 H 799.423 -2.30877 -4.26522 0
M  V30 8486 H 795.302 -1.10091 -4.47662 0
M  V30 8487 H 798.846 -4.43047 -5.38846 0
M  V30 8488 H 794.743 -3.21374 -5.59811 0
M  V30 8489 H 795.511 -5.14119 -6.36886 0
M  V30 8490 N 798.174 1.49689 -0.493057 0
M  V30 8491 C 799.137 2.27502 0.278485 0
M  V30 8492 C 800.137 1.33184 0.901037 0
M  V30 8493 O 801.327 1.56415 0.766801 0
M  V30 8494 C 798.459 3.10881 1.39878 0
M  V30 8495 H 799.652 2.97163 -0.404219 0
M  V30 8496 H 797.205 1.54324 -0.247774 0
M  V30 8497 H 797.94 2.45767 2.11587 0
M  V30 8498 H 797.725 3.80219 0.957924 0
M  V30 8499 H 799.215 3.69673 1.94247 0
M  V30 8500 N 799.652 0.226554 1.55963 0
M  V30 8501 C 801.063 -0.280381 1.84583 0
M  V30 8502 C 801.414 -1.59105 1.14804 0
M  V30 8503 O 800.539 -2.12297 0.419414 0
M  V30 8504 C 801.134 -0.515499 3.34855 0
M  V30 8505 C 799.693 -0.966733 3.63774 0
M  V30 8506 C 798.84 -0.0325753 2.77281 0
M  V30 8507 H 801.791 0.449626 1.52197 0
M  V30 8508 H 801.812 -1.36085 3.55332 0
M  V30 8509 H 801.324 0.438594 3.85614 0
M  V30 8510 H 799.425 -1.93401 3.18476 0
M  V30 8511 H 799.538 -0.837679 4.7172 0
M  V30 8512 H 797.902 -0.540279 2.48904 0
M  V30 8513 H 798.685 0.916524 3.30839 0
M  V30 8514 N 801.13 -1.57531 -0.0467866 0
M  V30 8515 C 802.376 -1.8873 -0.742218 0
M  V30 8516 C 802.709 -0.822084 -1.75941 0
M  V30 8517 O 801.984 0.164922 -1.938 0
M  V30 8518 C 802.267 -3.30586 -1.42776 0
M  V30 8519 C 802.12 -4.47785 -0.425285 0
M  V30 8520 C 803.439 -3.71068 -2.36636 0
M  V30 8521 H 800.558 -0.686406 -0.268359 0
M  V30 8522 H 803.2 -1.89999 -0.00511341 0
M  V30 8523 H 801.35 -3.29634 -2.05605 0
M  V30 8524 H 803.022 -4.60867 0.199721 0
M  V30 8525 H 801.265 -4.33037 0.25713 0
M  V30 8526 H 801.936 -5.43884 -0.943086 0
M  V30 8527 H 804.412 -3.73273 -1.83866 0
M  V30 8528 H 803.288 -4.71165 -2.81593 0
M  V30 8529 H 803.549 -3.02355 -3.22542 0
M  V30 8530 N 802.608 0.318715 -1.54344 0
M  V30 8531 C 803.856 1.054 -1.72439 0
M  V30 8532 C 804.177 1.88388 -0.503495 0
M  V30 8533 O 803.447 1.89866 0.48246 0
M  V30 8534 H 802.027 0.392124 -0.635805 0
M  V30 8535 H 804.689 0.35398 -1.91659 0
M  V30 8536 H 803.785 1.71726 -2.60608 0
M  V30 8537 N 804.086 1.46499 0.581025 0
M  V30 8538 C 805.314 1.5547 1.36517 0
M  V30 8539 C 805.729 0.196407 1.87776 0
M  V30 8540 O 805.086 -0.806577 1.63709 0
M  V30 8541 C 805.137 2.56084 2.55154 0
M  V30 8542 O 804.858 3.86637 2.06018 0
M  V30 8543 C 806.359 2.75011 3.47683 0
M  V30 8544 H 803.579 0.525703 0.416986 0
M  V30 8545 H 806.123 1.9192 0.706177 0
M  V30 8546 H 804.278 2.22633 3.17039 0
M  V30 8547 H 804.692 4.41413 2.83292 0
M  V30 8548 H 806.166 3.49329 4.27403 0
M  V30 8549 H 806.643 1.81978 3.99726 0
M  V30 8550 H 807.249 3.09565 2.91632 0
M  V30 8551 N 805.565 -0.825799 1.34232 0
M  V30 8552 C 806.515 -1.92533 1.22128 0
M  V30 8553 C 807.499 -1.60444 0.121002 0
M  V30 8554 O 808.691 -1.73497 0.350385 0
M  V30 8555 C 805.82 -3.29134 0.975995 0
M  V30 8556 C 804.906 -3.6735 2.11931 0
M  V30 8557 N 805.297 -3.77154 3.37029 0
M  V30 8558 C 803.595 -3.97179 2.02891 0
M  V30 8559 C 804.296 -4.10552 4.12095 0
M  V30 8560 N 803.272 -4.23619 3.40658 0
M  V30 8561 H 807.074 -1.98287 2.16932 0
M  V30 8562 H 804.588 -1.01929 1.26429 0
M  V30 8563 H 806.585 -4.07717 0.870187 0
M  V30 8564 H 805.245 -3.24679 0.036606 0
M  V30 8565 H 806.256 -3.60723 3.71618 0
M  V30 8566 H 802.933 -4.00861 1.16692 0
M  V30 8567 H 804.323 -4.25365 5.2011 0
M  V30 8568 N 807.043 -1.17915 -1.04565 0
M  V30 8569 C 807.953 -0.916449 -2.15959 0
M  V30 8570 C 808.969 0.117655 -1.73602 0
M  V30 8571 O 810.145 -0.063089 -2.01301 0
M  V30 8572 C 807.21 -0.440262 -3.43893 0
M  V30 8573 C 806.271 -1.54172 -4.00661 0
M  V30 8574 C 805.504 -1.08816 -5.22489 0
M  V30 8575 O 805.727 0.0551547 -5.70373 0
M  V30 8576 O 804.661 -1.88383 -5.7166 0
M  V30 8577 H 808.487 -1.8484 -2.40972 0
M  V30 8578 H 806.072 -0.960552 -1.14428 0
M  V30 8579 H 807.954 -0.182537 -4.21004 0
M  V30 8580 H 806.629 0.46346 -3.20365 0
M  V30 8581 H 805.536 -1.85341 -3.24961 0
M  V30 8582 H 806.869 -2.42139 -4.2852 0
M  V30 8583 N 808.521 1.23394 -0.980386 0
M  V30 8584 C 809.749 1.95844 -0.667286 0
M  V30 8585 C 810.164 1.72574 0.765735 0
M  V30 8586 O 809.521 1.01715 1.51526 0
M  V30 8587 C 809.572 3.48844 -0.948151 0
M  V30 8588 O 809.293 3.71325 -2.32485 0
M  V30 8589 C 810.794 4.38494 -0.651002 0
M  V30 8590 H 808.014 0.623535 -0.247882 0
M  V30 8591 H 810.558 1.56885 -1.31176 0
M  V30 8592 H 808.713 3.85819 -0.349681 0
M  V30 8593 H 809.127 4.65619 -2.41452 0
M  V30 8594 H 810.601 5.44648 -0.897887 0
M  V30 8595 H 811.078 4.37236 0.414922 0
M  V30 8596 H 811.684 4.07127 -1.22995 0
M  V30 8597 N 809.999 0.752036 1.385 0
M  V30 8598 C 810.929 0.138718 2.33088 0
M  V30 8599 C 811.91 -0.705318 1.54788 0
M  V30 8600 O 813.095 -0.646821 1.83112 0
M  V30 8601 C 810.225 -0.75641 3.38963 0
M  V30 8602 C 809.179 -0.0152239 4.27997 0
M  V30 8603 C 808.505 -1.0285 5.24715 0
M  V30 8604 C 809.805 1.15226 5.09431 0
M  V30 8605 H 811.499 0.928852 2.84627 0
M  V30 8606 H 809.045 0.448111 1.3685 0
M  V30 8607 H 810.998 -1.19513 4.04097 0
M  V30 8608 H 809.722 -1.57885 2.85902 0
M  V30 8609 H 808.381 0.404061 3.64366 0
M  V30 8610 H 808.029 -1.84496 4.67943 0
M  V30 8611 H 807.729 -0.537238 5.85139 0
M  V30 8612 H 809.253 -1.46657 5.92726 0
M  V30 8613 H 810.667 0.791161 5.67815 0
M  V30 8614 H 809.064 1.57428 5.79082 0
M  V30 8615 H 810.134 1.9659 4.43261 0
M  V30 8616 N 811.477 -1.49425 0.500989 0
M  V30 8617 C 812.407 -2.31971 -0.266775 0
M  V30 8618 C 813.388 -1.40245 -0.962563 0
M  V30 8619 O 814.573 -1.69154 -0.953968 0
M  V30 8620 C 811.703 -3.20757 -1.33163 0
M  V30 8621 C 810.657 -4.21275 -0.75572 0
M  V30 8622 C 809.983 -4.98997 -1.92109 0
M  V30 8623 C 811.283 -5.21686 0.253213 0
M  V30 8624 H 812.977 -2.96408 0.422237 0
M  V30 8625 H 810.523 -1.4254 0.204505 0
M  V30 8626 H 812.476 -3.77315 -1.87646 0
M  V30 8627 H 811.2 -2.54263 -2.04983 0
M  V30 8628 H 809.859 -3.65861 -0.232637 0
M  V30 8629 H 809.507 -4.28951 -2.62698 0
M  V30 8630 H 809.207 -5.67011 -1.54182 0
M  V30 8631 H 810.731 -5.584 -2.47026 0
M  V30 8632 H 812.145 -5.72939 -0.203483 0
M  V30 8633 H 810.542 -5.9759 0.548322 0
M  V30 8634 H 811.612 -4.70596 1.16909 0
M  V30 8635 N 812.955 -0.234822 -1.55841 0
M  V30 8636 C 813.918 0.656378 -2.196 0
M  V30 8637 C 814.918 1.11179 -1.16171 0
M  V30 8638 O 816.108 1.01845 -1.41326 0
M  V30 8639 C 813.24 1.90072 -2.82993 0
M  V30 8640 H 814.433 0.100281 -2.99732 0
M  V30 8641 H 811.986 0.0147613 -1.56293 0
M  V30 8642 H 812.721 2.49836 -2.06767 0
M  V30 8643 H 812.506 1.5825 -3.58747 0
M  V30 8644 H 813.996 2.53538 -3.31826 0
M  V30 8645 N 814.433 1.57553 0.0384317 0
M  V30 8646 C 815.663 1.92813 0.742064 0
M  V30 8647 C 816.071 0.832157 1.69917 0
M  V30 8648 O 815.414 -0.200917 1.82598 0
M  V30 8649 C 815.476 3.23806 1.56172 0
M  V30 8650 C 815.14 4.50459 0.770407 0
M  V30 8651 C 816.137 5.19846 0.0748006 0
M  V30 8652 C 813.822 4.97001 0.727714 0
M  V30 8653 C 815.816 6.34047 -0.652902 0
M  V30 8654 C 813.503 6.111 -0.00373992 0
M  V30 8655 C 814.501 6.79477 -0.692816 0
M  V30 8656 O 814.189 7.91395 -1.41241 0
M  V30 8657 H 813.921 0.641174 0.214179 0
M  V30 8658 H 816.475 2.054 0.00285095 0
M  V30 8659 H 814.705 3.0752 2.34453 0
M  V30 8660 H 816.394 3.44463 2.14709 0
M  V30 8661 H 817.16 4.84899 0.098875 0
M  V30 8662 H 813.039 4.43629 1.25355 0
M  V30 8663 H 816.583 6.87353 -1.1913 0
M  V30 8664 H 812.48 6.45493 -0.0297703 0
M  V30 8665 H 813.248 8.07702 -1.32512 0
M  V30 8666 N 815.911 -0.310526 1.54511 0
M  V30 8667 C 816.841 -1.38757 1.878 0
M  V30 8668 C 817.822 -1.53353 0.735991 0
M  V30 8669 O 819.007 -1.67018 0.990887 0
M  V30 8670 C 816.137 -2.75327 2.11689 0
M  V30 8671 C 815.091 -2.75506 3.27537 0
M  V30 8672 C 814.417 -4.15275 3.36824 0
M  V30 8673 C 815.717 -2.38093 4.64875 0
M  V30 8674 H 817.411 -1.11146 2.78005 0
M  V30 8675 H 814.957 -0.533232 1.33763 0
M  V30 8676 H 816.91 -3.50752 2.33562 0
M  V30 8677 H 815.634 -3.04443 1.18245 0
M  V30 8678 H 814.293 -2.02538 3.05572 0
M  V30 8679 H 813.941 -4.41553 2.40915 0
M  V30 8680 H 813.641 -4.16299 4.14692 0
M  V30 8681 H 815.165 -4.92493 3.60947 0
M  V30 8682 H 816.579 -3.03232 4.86542 0
M  V30 8683 H 814.976 -2.50345 5.45387 0
M  V30 8684 H 816.046 -1.33227 4.66239 0
M  V30 8685 N 817.389 -1.46805 -0.573248 0
M  V30 8686 C 818.635 -1.5283 -1.33307 0
M  V30 8687 C 818.968 -0.183287 -1.93333 0
M  V30 8688 O 818.243 0.806354 -1.76998 0
M  V30 8689 C 818.526 -2.63414 -2.45531 0
M  V30 8690 C 818.379 -4.07478 -1.90478 0
M  V30 8691 C 819.698 -2.70014 -3.47535 0
M  V30 8692 H 816.817 -0.556371 -0.483343 0
M  V30 8693 H 819.459 -1.78787 -0.643066 0
M  V30 8694 H 817.609 -2.41412 -3.04389 0
M  V30 8695 H 819.281 -4.40795 -1.36004 0
M  V30 8696 H 817.524 -4.16511 -1.21248 0
M  V30 8697 H 818.195 -4.80598 -2.71531 0
M  V30 8698 H 820.671 -2.89817 -2.98572 0
M  V30 8699 H 819.547 -3.49192 -4.23504 0
M  V30 8700 H 819.808 -1.76436 -4.05367 0
M  V30 8701 N 818.867 0.818669 -1.34668 0
M  V30 8702 C 820.283 1.11243 -1.14443 0
M  V30 8703 C 820.483 2.01435 0.0512212 0
M  V30 8704 O 819.539 2.41854 0.725471 0
M  V30 8705 C 820.852 1.75504 -2.4417 0
M  V30 8706 C 822.4 1.8798 -2.50265 0
M  V30 8707 C 822.875 2.55657 -3.80004 0
M  V30 8708 N 824.366 2.63153 -3.81189 0
M  V30 8709 C 825.101 3.16258 -4.78298 0
M  V30 8710 N 824.597 3.69893 -5.85791 0
M  V30 8711 N 826.39 3.14698 -4.65748 0
M  V30 8712 H 818.541 0.218848 -2.1127 0
M  V30 8713 H 820.804 0.159655 -0.934459 0
M  V30 8714 H 820.51 1.16697 -3.31775 0
M  V30 8715 H 820.384 2.75329 -2.57825 0
M  V30 8716 H 822.771 2.45934 -1.63096 0
M  V30 8717 H 822.852 0.870447 -2.40535 0
M  V30 8718 H 822.496 1.98356 -4.67565 0
M  V30 8719 H 822.426 3.57105 -3.87019 0
M  V30 8720 H 824.917 2.2514 -3.03513 0
M  V30 8721 H 825.23 4.08678 -6.55898 0
M  V30 8722 H 823.575 3.68125 -5.89499 0
M  V30 8723 H 826.766 2.72066 -3.80917 0
M  V30 8724 H 826.939 3.5578 -5.41594 0
M  V30 8725 N 820.346 1.18468 1.03938 0
M  V30 8726 C 821.762 0.934635 1.29371 0
M  V30 8727 C 821.962 -0.399067 1.97509 0
M  V30 8728 O 821.018 -1.13309 2.25648 0
M  V30 8729 C 822.331 2.10111 2.15114 0
M  V30 8730 C 823.879 2.13955 2.28456 0
M  V30 8731 C 824.354 3.30024 3.17566 0
M  V30 8732 N 825.845 3.29893 3.25153 0
M  V30 8733 C 826.58 4.16346 3.94263 0
M  V30 8734 N 826.076 5.12934 4.65693 0
M  V30 8735 N 827.869 4.04256 3.90556 0
M  V30 8736 H 820.02 2.04294 0.581185 0
M  V30 8737 H 822.283 0.892727 0.318971 0
M  V30 8738 H 821.989 3.06572 1.72355 0
M  V30 8739 H 821.863 2.06283 3.15796 0
M  V30 8740 H 824.25 1.18072 2.7045 0
M  V30 8741 H 824.331 2.2184 1.2736 0
M  V30 8742 H 823.975 4.26181 2.76283 0
M  V30 8743 H 823.905 3.19376 4.18697 0
M  V30 8744 H 826.396 2.59969 2.74271 0
M  V30 8745 H 826.709 5.75271 5.16026 0
M  V30 8746 H 825.054 5.16893 4.64593 0
M  V30 8747 H 828.245 3.28083 3.33885 0
M  V30 8748 H 828.418 4.71848 4.44144 0
M  V30 8749 N 821.824 -1.22873 0.986916 0
M  V30 8750 C 822.754 -2.2688 0.552064 0
M  V30 8751 C 823.735 -1.64883 -0.418048 0
M  V30 8752 O 824.92 -1.9171 -0.30999 0
M  V30 8753 C 822.05 -3.47018 -0.139959 0
M  V30 8754 C 821.004 -4.21411 0.748091 0
M  V30 8755 C 820.33 -5.34645 -0.0765132 0
M  V30 8756 C 821.63 -4.80726 2.04206 0
M  V30 8757 H 823.324 -2.63507 1.42143 0
M  V30 8758 H 820.87 -1.26668 0.68492 0
M  V30 8759 H 822.823 -4.18931 -0.455527 0
M  V30 8760 H 821.547 -3.0947 -1.04382 0
M  V30 8761 H 820.206 -3.51325 1.04721 0
M  V30 8762 H 819.854 -4.93339 -0.981109 0
M  V30 8763 H 819.554 -5.85342 0.514606 0
M  V30 8764 H 821.078 -6.09377 -0.386313 0
M  V30 8765 H 822.492 -5.44612 1.79083 0
M  V30 8766 H 820.889 -5.41737 2.5815 0
M  V30 8767 H 821.959 -4.01109 2.72469 0
M  V30 8768 N 823.302 -0.75937 -1.38099 0
M  V30 8769 C 824.232 -0.151077 -2.33011 0
M  V30 8770 C 825.213 0.697099 -1.5516 0
M  V30 8771 O 826.398 0.637101 -1.83452 0
M  V30 8772 C 823.528 0.738423 -3.39359 0
M  V30 8773 C 822.482 -0.0074741 -4.27999 0
M  V30 8774 C 821.808 1.00066 -5.25253 0
M  V30 8775 C 823.108 -1.17926 -5.08813 0
M  V30 8776 H 824.802 -0.943933 -2.84131 0
M  V30 8777 H 822.348 -0.455362 -1.36611 0
M  V30 8778 H 824.301 1.17369 -4.04725 0
M  V30 8779 H 823.025 1.56366 -2.86735 0
M  V30 8780 H 821.684 -0.423379 -3.64147 0
M  V30 8781 H 821.332 1.82012 -4.68914 0
M  V30 8782 H 821.032 0.506199 -5.85416 0
M  V30 8783 H 822.556 1.43512 -5.93495 0
M  V30 8784 H 823.97 -0.821262 -5.67387 0
M  V30 8785 H 822.367 -1.60497 -5.78239 0
M  V30 8786 H 823.437 -1.98938 -4.42212 0
M  V30 8787 N 824.78 1.49157 -0.508906 0
M  V30 8788 C 825.69 2.33045 0.269656 0
M  V30 8789 C 826.706 1.45143 0.959662 0
M  V30 8790 O 827.882 1.78155 0.939295 0
M  V30 8791 C 824.947 3.20772 1.31554 0
M  V30 8792 C 824.008 4.24531 0.638131 0
M  V30 8793 C 823.241 5.08065 1.63418 0
M  V30 8794 O 823.464 4.93238 2.86483 0
M  V30 8795 O 822.398 5.90117 1.18516 0
M  V30 8796 H 826.224 3.00821 -0.417183 0
M  V30 8797 H 823.809 1.46938 -0.270119 0
M  V30 8798 H 825.691 3.75095 1.92047 0
M  V30 8799 H 824.366 2.55681 1.98516 0
M  V30 8800 H 823.273 3.74099 -0.00674357 0
M  V30 8801 H 824.606 4.92199 0.0108155 0
M  V30 8802 N 826.258 0.243083 1.55714 0
M  V30 8803 C 827.206 -0.674349 2.2261 0
M  V30 8804 C 828.2 -1.18307 1.21243 0
M  V30 8805 O 829.406 -1.1404 1.39265 0
M  V30 8806 H 825.781 -0.235941 0.714028 0
M  V30 8807 H 827.752 -0.0869446 2.98273 0
M  V30 8808 C 826.501 -1.86206 2.93637 0
M  V30 8809 H 825.824 -1.47975 3.71407 0
M  V30 8810 H 827.264 -2.4813 3.43813 0
M  V30 8811 C 825.723 -2.73084 1.97298 0
M  V30 8812 O 826.253 -3.72497 1.50361 0
M  V30 8813 N 824.459 -2.39571 1.64482 0
M  V30 8814 H 824.006 -1.5878 2.02846 0
M  V30 8815 H 823.964 -2.97976 1.00288 0
M  V30 8816 N 827.736 -1.57571 -0.0300757 0
M  V30 8817 C 828.984 -1.88852 -0.719666 0
M  V30 8818 C 829.305 -0.840645 -1.75949 0
M  V30 8819 O 828.575 0.125854 -1.95495 0
M  V30 8820 H 827.155 -0.696965 -0.268792 0
M  V30 8821 H 829.817 -1.949 0.00373285 0
M  V30 8822 H 828.913 -2.87695 -1.20987 0
M  V30 8823 N 829.214 0.302327 -1.54673 0
M  V30 8824 C 830.177 1.35592 -1.8479 0
M  V30 8825 C 831.177 1.43743 -0.72073 0
M  V30 8826 O 832.367 1.43402 -0.989017 0
M  V30 8827 C 829.499 2.74091 -2.02699 0
M  V30 8828 H 830.692 1.10132 -2.78946 0
M  V30 8829 H 828.245 0.538926 -1.46715 0
M  V30 8830 H 828.98 3.04775 -1.10826 0
M  V30 8831 H 828.765 2.69565 -2.8474 0
M  V30 8832 H 830.255 3.50272 -2.27374 0
M  V30 8833 N 830.692 1.47107 0.565454 0
M  V30 8834 C 831.64 1.59368 1.69424 0
M  V30 8835 C 832.634 0.461344 1.62997 0
M  V30 8836 O 833.84 0.638849 1.68282 0
M  V30 8837 H 830.215 0.501387 0.560459 0
M  V30 8838 H 832.186 2.54242 1.56217 0
M  V30 8839 C 830.935 1.61739 3.07792 0
M  V30 8840 H 830.258 2.48215 3.13416 0
M  V30 8841 H 831.698 1.7437 3.86486 0
M  V30 8842 C 830.157 0.349156 3.35086 0
M  V30 8843 O 830.687 -0.553287 3.97871 0
M  V30 8844 N 828.893 0.231723 2.89675 0
M  V30 8845 H 828.44 0.967021 2.3876 0
M  V30 8846 H 828.398 -0.615911 3.08308 0
M  V30 8847 N 832.17 -0.811516 1.35101 0
M  V30 8848 C 833.398 -1.59981 1.31201 0
M  V30 8849 C 833.813 -1.8847 -0.111552 0
M  V30 8850 O 833.17 -1.48414 -1.06205 0
M  V30 8851 C 833.221 -2.934 2.11184 0
M  V30 8852 O 832.942 -2.66148 3.4799 0
M  V30 8853 C 834.443 -3.87776 2.14813 0
M  V30 8854 H 831.663 -0.496921 0.450899 0
M  V30 8855 H 834.207 -1.00886 1.77883 0
M  V30 8856 H 832.362 -3.49022 1.68115 0
M  V30 8857 H 832.776 -3.51301 3.89471 0
M  V30 8858 H 834.25 -4.7852 2.75178 0
M  V30 8859 H 834.727 -4.23997 1.14556 0
M  V30 8860 H 835.333 -3.3809 2.58022 0
M  V30 8861 N 833.648 -1.19017 -1.03309 0
M  V30 8862 C 834.873 -1.01598 -1.80811 0
M  V30 8863 C 835.298 0.430773 -1.83101 0
M  V30 8864 O 834.656 1.30946 -1.25391 0
M  V30 8865 C 834.704 -1.5845 -3.23923 0
M  V30 8866 O 833.808 -0.810972 -4.04348 0
M  V30 8867 H 833.149 -0.359398 -0.558327 0
M  V30 8868 H 835.679 -1.57945 -1.30055 0
M  V30 8869 H 835.689 -1.61486 -3.74682 0
M  V30 8870 H 834.364 -2.63752 -3.21571 0
M  V30 8871 H 832.941 -0.85353 -3.63 0
M  V30 8872 N 835.127 1.22348 -0.993418 0
M  V30 8873 C 836.374 1.9111 -0.669568 0
M  V30 8874 C 836.702 1.77357 0.79843 0
M  V30 8875 O 835.957 1.13675 1.593 0
M  V30 8876 C 836.256 3.42477 -1.02197 0
M  V30 8877 C 835.922 3.7642 -2.48232 0
M  V30 8878 C 834.584 3.85395 -2.88139 0
M  V30 8879 C 836.936 3.9253 -3.42884 0
M  V30 8880 C 834.264 4.07918 -4.21687 0
M  V30 8881 C 836.616 4.16557 -4.76091 0
M  V30 8882 C 835.28 4.23757 -5.15739 0
M  V30 8883 H 834.55 0.699321 -0.245012 0
M  V30 8884 H 837.197 1.45102 -1.2497 0
M  V30 8885 H 835.502 3.90143 -0.359921 0
M  V30 8886 H 837.199 3.93935 -0.74942 0
M  V30 8887 H 833.789 3.70017 -2.16299 0
M  V30 8888 H 837.973 3.84974 -3.13224 0
M  V30 8889 H 833.229 4.11719 -4.51993 0
M  V30 8890 H 837.403 4.27966 -5.4938 0
M  V30 8891 H 835.03 4.40962 -6.19239 0
M  V30 8892 N 836.605 0.766683 1.37694 0
M  V30 8893 C 837.851 0.329201 2.0011 0
M  V30 8894 C 838.184 -1.09004 1.60723 0
M  V30 8895 O 837.459 -1.74895 0.850989 0
M  V30 8896 C 837.742 0.466989 3.57059 0
M  V30 8897 C 837.595 1.92828 4.06371 0
M  V30 8898 C 838.914 -0.131792 4.39903 0
M  V30 8899 H 836.033 0.12109 0.726984 0
M  V30 8900 H 838.675 0.968779 1.63446 0
M  V30 8901 H 836.825 -0.0775023 3.88423 0
M  V30 8902 H 838.497 2.53208 3.85595 0
M  V30 8903 H 836.74 2.43884 3.58752 0
M  V30 8904 H 837.411 1.97577 5.15429 0
M  V30 8905 H 839.887 0.332731 4.14768 0
M  V30 8906 H 838.763 -0.005217 5.489 0
M  V30 8907 H 839.024 -1.22156 4.24889 0
M  V30 8908 N 838.083 -1.48885 0.516809 0
M  V30 8909 C 839.031 -2.31066 -0.266656 0
M  V30 8910 C 840.025 -1.40393 -0.94795 0
M  V30 8911 O 841.231 -1.57366 -0.873836 0
M  V30 8912 H 837.606 -0.744654 -0.104858 0
M  V30 8913 H 839.577 -2.95045 0.446236 0
M  V30 8914 C 838.326 -3.22131 -1.3087 0
M  V30 8915 H 837.649 -3.91839 -0.793865 0
M  V30 8916 H 839.089 -3.82544 -1.82856 0
M  V30 8917 C 837.548 -2.42825 -2.33533 0
M  V30 8918 O 838.078 -2.14364 -3.39722 0
M  V30 8919 N 836.284 -2.04559 -2.06407 0
M  V30 8920 H 835.831 -2.27905 -1.20071 0
M  V30 8921 H 835.789 -1.51807 -2.75322 0
M  V30 8922 N 839.561 -0.251338 -1.55583 0
M  V30 8923 C 840.977 0.103409 -1.59265 0
M  V30 8924 C 841.177 1.56559 -1.26852 0
M  V30 8925 O 840.233 2.31071 -1.01796 0
M  V30 8926 C 841.546 -0.249781 -2.99661 0
M  V30 8927 C 843.094 -0.194442 -3.12395 0
M  V30 8928 C 843.569 -0.521728 -4.55019 0
M  V30 8929 N 845.06 -0.472393 -4.60785 0
M  V30 8930 C 845.795 -0.698737 -5.69127 0
M  V30 8931 N 845.291 -0.988443 -6.85713 0
M  V30 8932 N 847.084 -0.629143 -5.58568 0
M  V30 8933 H 839.235 -1.20484 -1.74921 0
M  V30 8934 H 841.498 -0.485092 -0.814488 0
M  V30 8935 H 841.204 -1.26577 -3.28133 0
M  V30 8936 H 841.078 0.420973 -3.74844 0
M  V30 8937 H 843.465 0.812229 -2.83702 0
M  V30 8938 H 843.546 -0.899111 -2.39478 0
M  V30 8939 H 843.19 -1.52597 -4.84434 0
M  V30 8940 H 843.12 0.204468 -5.26203 0
M  V30 8941 H 845.611 -0.257386 -3.77022 0
M  V30 8942 H 845.924 -1.14846 -7.64219 0
M  V30 8943 H 844.269 -1.02596 -6.87386 0
M  V30 8944 H 847.46 -0.402826 -4.66364 0
M  V30 8945 H 847.633 -0.808935 -6.42931 0
M  V30 8946 N 841.039 1.57585 0.0217189 0
M  V30 8947 C 842.288 1.88786 0.710125 0
M  V30 8948 C 842.601 0.850819 1.76126 0
M  V30 8949 O 843.807 1.0523 2.50277 0
M  V30 8950 C 842.263 3.3505 1.31413 0
M  V30 8951 C 841.871 4.47001 0.298959 0
M  V30 8952 C 843.615 3.7539 1.98199 0
M  V30 8953 C 841.522 5.8433 0.911727 0
M  V30 8954 H 840.452 0.704388 0.268986 0
M  V30 8955 H 843.103 1.83466 -0.0352638 0
M  V30 8956 H 841.485 3.35138 2.10947 0
M  V30 8957 H 842.659 4.58395 -0.470203 0
M  V30 8958 H 840.974 4.15542 -0.267222 0
M  V30 8959 H 843.571 4.75314 2.4491 0
M  V30 8960 H 843.914 3.07766 2.80331 0
M  V30 8961 H 844.447 3.77508 1.2543 0
M  V30 8962 H 841.186 6.55372 0.129659 0
M  V30 8963 H 840.706 5.76643 1.65056 0
M  V30 8964 H 842.385 6.31295 1.41688 0
M  V30 8965 N 842.517 -0.29412 1.54831 0
M  V30 8966 C 843.48 -1.3461 1.85507 0
M  V30 8967 C 844.48 -1.43359 0.728343 0
M  V30 8968 O 845.67 -1.42875 0.996609 0
M  V30 8969 C 842.802 -2.73012 2.0415 0
M  V30 8970 H 843.995 -1.08651 2.79526 0
M  V30 8971 H 841.548 -0.531138 1.46999 0
M  V30 8972 H 842.283 -3.04183 1.12441 0
M  V30 8973 H 842.068 -2.68051 2.86166 0
M  V30 8974 H 843.558 -3.49061 2.29229 0
M  V30 8975 N 843.995 -1.47404 -0.557645 0
M  V30 8976 C 845.272 -1.44488 -1.31843 0
M  V30 8977 C 845.652 -0.1416 -2.10625 0
M  V30 8978 O 845 0.876908 -2.11004 0
M  V30 8979 C 845.21 -2.69016 -2.22331 0
M  V30 8980 C 846.558 -3.16212 -2.83364 0
M  V30 8981 O 847.582 -2.69741 -2.32634 0
M  V30 8982 O 846.441 -3.96999 -3.75571 0
M  V30 8983 H 843.535 -0.57578 -0.593639 0
M  V30 8984 H 846.081 -1.59605 -0.576584 0
M  V30 8985 H 844.853 -3.55406 -1.63715 0
M  V30 8986 H 844.476 -2.56484 -3.03812 0
M  V30 8987 N 845.473 0.80434 -1.35529 0
M  V30 8988 C 846.701 1.59283 -1.32048 0
M  V30 8989 C 847.116 1.88527 0.101556 0
M  V30 8990 O 846.473 1.48975 1.05417 0
M  V30 8991 C 846.524 2.92276 -2.12737 0
M  V30 8992 O 846.245 2.64299 -3.49396 0
M  V30 8993 C 847.746 3.86631 -2.16867 0
M  V30 8994 H 844.966 0.494523 -0.453528 0
M  V30 8995 H 847.51 0.999415 -1.78415 0
M  V30 8996 H 845.665 3.48125 -1.69964 0
M  V30 8997 H 846.079 3.4923 -3.91329 0
M  V30 8998 H 847.553 4.77053 -2.77712 0
M  V30 8999 H 848.03 4.23384 -1.16803 0
M  V30 9000 H 848.636 3.36717 -2.59811 0
M  V30 9001 N 846.951 1.19563 1.02676 0
M  V30 9002 C 848.176 1.02556 1.80269 0
M  V30 9003 C 848.601 -0.421056 1.83327 0
M  V30 9004 O 847.959 -1.30279 1.26084 0
M  V30 9005 C 848.007 1.60165 3.23078 0
M  V30 9006 O 847.111 0.832404 4.03912 0
M  V30 9007 H 846.452 0.362354 0.556413 0
M  V30 9008 H 848.982 1.58633 1.29216 0
M  V30 9009 H 848.992 1.6347 3.7382 0
M  V30 9010 H 847.667 2.65454 3.20167 0
M  V30 9011 H 846.244 0.872768 3.62543 0
M  V30 9012 N 848.429 -1.21819 0.999893 0
M  V30 9013 C 849.359 -2.26282 0.576096 0
M  V30 9014 C 850.34 -1.65317 -0.400537 0
M  V30 9015 O 851.525 -1.92028 -0.28964 0
M  V30 9016 C 848.655 -3.47147 -0.103145 0
M  V30 9017 C 847.609 -4.20594 0.792745 0
M  V30 9018 C 846.935 -5.34696 -0.0198026 0
M  V30 9019 C 848.235 -4.78533 2.09293 0
M  V30 9020 H 849.929 -2.61984 1.4493 0
M  V30 9021 H 847.475 -1.25935 0.698316 0
M  V30 9022 H 849.428 -4.1939 -0.411068 0
M  V30 9023 H 848.152 -3.1056 -1.01094 0
M  V30 9024 H 846.811 -3.50194 1.08442 0
M  V30 9025 H 846.459 -4.94352 -0.928729 0
M  V30 9026 H 846.159 -5.84764 0.576661 0
M  V30 9027 H 847.683 -6.09752 -0.321659 0
M  V30 9028 H 849.097 -5.42682 1.8485 0
M  V30 9029 H 847.494 -5.38968 2.63881 0
M  V30 9030 H 848.564 -3.98197 2.76708 0
M  V30 9031 N 849.908 -0.773975 -1.37286 0
M  V30 9032 C 851.319 -0.404433 -1.82267 0
M  V30 9033 C 851.67 1.06971 -1.64474 0
M  V30 9034 O 850.795 1.82867 -1.15708 0
M  V30 9035 C 851.39 -0.727298 -3.30902 0
M  V30 9036 C 849.949 -0.410784 -3.74152 0
M  V30 9037 C 849.096 -0.969983 -2.59782 0
M  V30 9038 H 852.047 -0.968437 -1.25726 0
M  V30 9039 H 852.068 -0.0127575 -3.80498 0
M  V30 9040 H 851.58 -1.80026 -3.4382 0
M  V30 9041 H 849.681 0.65477 -3.66802 0
M  V30 9042 H 849.794 -0.920592 -4.70172 0
M  V30 9043 H 848.158 -0.394094 -2.51633 0
M  V30 9044 H 848.941 -2.04839 -2.75492 0
M  V30 9045 N 851.386 1.48609 -0.524698 0
M  V30 9046 C 852.316 2.32366 0.229837 0
M  V30 9047 C 853.297 1.41759 0.940129 0
M  V30 9048 O 854.482 1.7065 0.926936 0
M  V30 9049 C 851.612 3.22835 1.28043 0
M  V30 9050 C 850.566 4.22424 0.688603 0
M  V30 9051 C 849.892 5.0199 1.84146 0
M  V30 9052 C 851.192 5.21217 -0.336176 0
M  V30 9053 H 852.886 2.95698 -0.469339 0
M  V30 9054 H 850.432 1.42197 -0.227156 0
M  V30 9055 H 852.385 3.80253 1.8162 0
M  V30 9056 H 851.109 2.57492 2.00912 0
M  V30 9057 H 849.768 3.66185 0.174402 0
M  V30 9058 H 849.416 4.33076 2.5584 0
M  V30 9059 H 849.116 5.69392 1.45142 0
M  V30 9060 H 850.64 5.62259 2.38111 0
M  V30 9061 H 852.054 5.7319 0.112307 0
M  V30 9062 H 850.451 5.96642 -0.643324 0
M  V30 9063 H 851.521 4.68676 -1.24381 0
M  V30 9064 N 852.864 0.259585 1.55447 0
M  V30 9065 C 854.141 -0.412595 1.91199 0
M  V30 9066 C 854.521 -1.74909 1.18194 0
M  V30 9067 O 853.869 -2.26474 0.303603 0
M  V30 9068 C 854.079 -0.568195 3.44344 0
M  V30 9069 C 855.427 -0.858253 4.15836 0
M  V30 9070 O 856.451 -0.653588 3.50152 0
M  V30 9071 O 855.31 -1.24874 5.32042 0
M  V30 9072 H 852.404 -0.223403 0.796254 0
M  V30 9073 H 854.95 0.30459 1.66944 0
M  V30 9074 H 853.722 0.372989 3.89518 0
M  V30 9075 H 853.345 -1.33544 3.74502 0
M  V30 9076 N 854.342 -1.57594 -0.0133615 0
M  V30 9077 C 855.252 -2.10991 -1.02566 0
M  V30 9078 C 856.268 -1.05208 -1.3859 0
M  V30 9079 O 857.444 -1.37034 -1.47593 0
M  V30 9080 C 854.509 -2.59165 -2.30292 0
M  V30 9081 C 853.57 -3.79495 -2.00704 0
M  V30 9082 C 852.803 -4.25361 -3.22341 0
M  V30 9083 O 853.026 -3.70645 -4.33565 0
M  V30 9084 O 851.96 -5.17649 -3.07121 0
M  V30 9085 H 855.786 -2.97678 -0.601806 0
M  V30 9086 H 853.371 -1.47598 -0.23135 0
M  V30 9087 H 855.253 -2.90409 -3.05354 0
M  V30 9088 H 853.928 -1.75582 -2.71942 0
M  V30 9089 H 852.835 -3.53245 -1.23161 0
M  V30 9090 H 854.168 -4.64109 -1.639 0
M  V30 9091 N 855.82 0.285905 -1.54985 0
M  V30 9092 C 856.75 1.35752 -1.89983 0
M  V30 9093 C 857.731 1.52163 -0.760295 0
M  V30 9094 O 858.916 1.65421 -1.01733 0
M  V30 9095 C 856.046 2.71925 -2.16042 0
M  V30 9096 C 855 2.70261 -3.31878 0
M  V30 9097 C 854.326 4.09864 -3.43388 0
M  V30 9098 C 855.626 2.30667 -4.68604 0
M  V30 9099 H 857.32 1.06709 -2.79738 0
M  V30 9100 H 854.866 0.511884 -1.34595 0
M  V30 9101 H 856.819 3.46992 -2.39113 0
M  V30 9102 H 855.543 3.02523 -1.23074 0
M  V30 9103 H 854.202 1.97651 -3.08755 0
M  V30 9104 H 853.85 4.37664 -2.47909 0
M  V30 9105 H 853.55 4.09648 -4.21262 0
M  V30 9106 H 855.074 4.86689 -3.68736 0
M  V30 9107 H 856.488 2.95453 -4.91305 0
M  V30 9108 H 854.885 2.41637 -5.49301 0
M  V30 9109 H 855.955 1.25793 -4.68299 0
M  V30 9110 N 857.298 1.47698 0.54982 0
M  V30 9111 C 858.544 1.54931 1.30859 0
M  V30 9112 C 858.877 0.214021 1.93017 0
M  V30 9113 O 858.152 -0.778093 1.78258 0
M  V30 9114 C 858.435 2.67286 2.41309 0
M  V30 9115 C 858.288 4.10457 1.83971 0
M  V30 9116 C 859.607 2.75509 3.43195 0
M  V30 9117 H 856.726 0.56399 0.474431 0
M  V30 9118 H 859.368 1.79787 0.614541 0
M  V30 9119 H 857.518 2.46224 3.0051 0
M  V30 9120 H 859.19 4.42903 1.28974 0
M  V30 9121 H 857.433 4.18387 1.14606 0
M  V30 9122 H 858.104 4.84857 2.63851 0
M  V30 9123 H 860.58 2.94531 2.93923 0
M  V30 9124 H 859.456 3.55886 4.17895 0
M  V30 9125 H 859.717 1.82863 4.02509 0
M  V30 9126 N 858.776 -0.797141 1.35954 0
M  V30 9127 C 859.739 -1.89104 1.29508 0
M  V30 9128 C 860.739 -1.59495 0.204444 0
M  V30 9129 O 861.929 -1.68051 0.458746 0
M  V30 9130 C 859.061 -3.25726 1.00576 0
M  V30 9131 H 860.254 -1.96237 2.26785 0
M  V30 9132 H 857.807 -0.994075 1.20614 0
M  V30 9133 H 858.542 -3.24279 0.0372519 0
M  V30 9134 H 858.327 -3.48604 1.79492 0
M  V30 9135 H 859.817 -4.0578 0.986508 0
M  V30 9136 N 860.254 -1.20106 -1.0204 0
M  V30 9137 C 861.531 -0.918029 -1.72718 0
M  V30 9138 C 861.911 0.574163 -2.03142 0
M  V30 9139 O 861.259 1.53476 -1.69285 0
M  V30 9140 C 861.469 -1.78698 -2.9978 0
M  V30 9141 C 862.817 -2.02648 -3.7312 0
M  V30 9142 O 863.841 -1.75919 -3.09727 0
M  V30 9143 O 862.7 -2.47767 -4.87107 0
M  V30 9144 H 859.794 -0.342904 -0.752559 0
M  V30 9145 H 862.34 -1.30961 -1.07923 0
M  V30 9146 H 861.112 -2.79757 -2.7359 0
M  V30 9147 H 860.735 -1.39522 -3.72316 0
M  V30 9148 N 861.732 1.21287 -1.00634 0
M  V30 9149 C 863.143 1.72136 -0.722914 0
M  V30 9150 C 863.494 1.8091 0.759338 0
M  V30 9151 O 862.619 1.46458 1.59308 0
M  V30 9152 C 863.214 3.12633 -1.30561 0
M  V30 9153 C 861.773 3.60833 -1.07127 0
M  V30 9154 C 860.92 2.38326 -1.4176 0
M  V30 9155 H 863.871 1.06445 -1.17708 0
M  V30 9156 H 863.892 3.74174 -0.690937 0
M  V30 9157 H 863.404 3.06215 -2.38441 0
M  V30 9158 H 861.505 3.72599 -0.00968671 0
M  V30 9159 H 861.618 4.46226 -1.74411 0
M  V30 9160 H 859.982 2.40575 -0.836412 0
M  V30 9161 H 860.765 2.34558 -2.50674 0
M  V30 9162 N 863.21 0.781244 1.36873 0
M  V30 9163 C 864.456 0.350407 1.9975 0
M  V30 9164 C 864.789 -1.07293 1.6187 0
M  V30 9165 O 864.064 -1.73983 0.869491 0
M  V30 9166 C 864.347 0.504834 3.56544 0
M  V30 9167 C 864.2 1.97127 4.04303 0
M  V30 9168 C 865.519 -0.0851272 4.40018 0
M  V30 9169 H 862.638 0.128794 0.725659 0
M  V30 9170 H 865.28 0.98606 1.6241 0
M  V30 9171 H 863.43 -0.0363006 3.88483 0
M  V30 9172 H 865.102 2.57284 3.82887 0
M  V30 9173 H 863.345 2.47676 3.56145 0
M  V30 9174 H 864.016 2.03033 5.13305 0
M  V30 9175 H 866.492 0.376704 4.14391 0
M  V30 9176 H 865.368 0.0530015 5.48874 0
M  V30 9177 H 865.629 -1.17642 4.2616 0
M  V30 9178 N 864.689 -1.48329 0.532571 0
M  V30 9179 C 865.917 -2.069 0.00354299 0
M  V30 9180 C 866.332 -1.38876 -1.27902 0
M  V30 9181 O 865.689 -0.477119 -1.76153 0
M  V30 9182 C 865.74 -3.60821 -0.221416 0
M  V30 9183 O 865.461 -4.26291 1.01034 0
M  V30 9184 C 866.962 -4.36194 -0.790531 0
M  V30 9185 H 864.182 -0.670103 0.0346836 0
M  V30 9186 H 866.726 -1.90682 0.738955 0
M  V30 9187 H 864.881 -3.76636 -0.906884 0
M  V30 9188 H 865.295 -5.18475 0.792683 0
M  V30 9189 H 866.769 -5.44657 -0.897347 0
M  V30 9190 H 867.246 -4.00798 -1.79605 0
M  V30 9191 H 867.852 -4.25064 -0.141546 0
M  V30 9192 N 866.167 -0.267825 -1.55308 0
M  V30 9193 C 867.13 0.60965 -2.20943 0
M  V30 9194 C 868.13 1.0869 -1.18504 0
M  V30 9195 O 869.32 0.988248 -1.43455 0
M  V30 9196 C 866.452 1.84027 -2.86961 0
M  V30 9197 H 867.645 0.0366806 -2.99878 0
M  V30 9198 H 865.198 -0.0183941 -1.56289 0
M  V30 9199 H 865.933 2.45394 -2.1202 0
M  V30 9200 H 865.718 1.50605 -3.62023 0
M  V30 9201 H 867.208 2.46442 -3.37129 0
M  V30 9202 N 867.645 1.57599 0.00500368 0
M  V30 9203 C 868.891 1.90631 0.691919 0
M  V30 9204 C 869.224 0.868443 1.737 0
M  V30 9205 O 868.499 -0.113482 1.94169 0
M  V30 9206 C 868.782 3.34255 1.33961 0
M  V30 9207 C 868.635 4.48755 0.306413 0
M  V30 9208 C 869.954 3.77211 2.26715 0
M  V30 9209 H 867.073 0.693279 0.250066 0
M  V30 9210 H 869.715 1.89946 -0.0452634 0
M  V30 9211 H 867.865 3.3497 1.96793 0
M  V30 9212 H 869.537 4.60176 -0.321841 0
M  V30 9213 H 867.78 4.32203 -0.371852 0
M  V30 9214 H 868.451 5.46193 0.798554 0
M  V30 9215 H 870.927 3.78017 1.73904 0
M  V30 9216 H 869.803 4.78466 2.69002 0
M  V30 9217 H 870.064 3.10801 3.14413 0
M  V30 9218 N 869.123 -0.277682 1.55134 0
M  V30 9219 C 870.033 -1.36524 1.90783 0
M  V30 9220 C 871.049 -1.54283 0.804542 0
M  V30 9221 O 872.225 -1.68499 1.10318 0
M  V30 9222 C 869.29 -2.70524 2.16835 0
M  V30 9223 C 868.351 -2.61552 3.40424 0
M  V30 9224 C 867.584 -3.89162 3.65224 0
M  V30 9225 O 867.807 -4.89624 2.92616 0
M  V30 9226 O 866.741 -3.89647 4.58758 0
M  V30 9227 H 870.567 -1.0929 2.83354 0
M  V30 9228 H 868.152 -0.475799 1.41621 0
M  V30 9229 H 870.034 -3.49765 2.35038 0
M  V30 9230 H 868.709 -2.97555 1.27448 0
M  V30 9231 H 867.616 -1.80704 3.27562 0
M  V30 9232 H 868.949 -2.39472 4.30016 0
M  V30 9233 N 870.601 -1.47988 -0.541979 0
M  V30 9234 C 871.548 -1.61615 -1.6477 0
M  V30 9235 C 872.518 -0.458602 -1.59644 0
M  V30 9236 O 873.703 -0.680585 -1.78249 0
M  V30 9237 C 870.843 -1.65066 -3.03063 0
M  V30 9238 C 869.956 -2.91845 -3.18513 0
M  V30 9239 C 869.091 -2.86534 -4.47294 0
M  V30 9240 C 868.13 -4.0807 -4.5623 0
M  V30 9241 N 867.267 -4.00905 -5.76385 0
M  V30 9242 H 872.107 -2.56046 -1.52461 0
M  V30 9243 H 869.644 -1.26989 -0.742449 0
M  V30 9244 H 871.602 -1.65049 -3.83164 0
M  V30 9245 H 870.232 -0.74136 -3.14171 0
M  V30 9246 H 869.284 -3.01661 -2.31743 0
M  V30 9247 H 870.596 -3.81804 -3.20978 0
M  V30 9248 H 869.75 -2.84851 -5.35672 0
M  V30 9249 H 868.489 -1.94283 -4.47332 0
M  V30 9250 H 867.494 -4.10041 -3.66261 0
M  V30 9251 H 868.719 -5.01465 -4.5794 0
M  V30 9252 H 866.665 -3.11467 -5.77342 0
M  V30 9253 H 866.582 -4.84557 -5.80293 0
M  V30 9254 H 867.85 -4.03263 -6.67083 0
M  V30 9255 N 872.079 0.78992 -1.36375 0
M  V30 9256 C 873.009 1.91683 -1.33341 0
M  V30 9257 C 873.99 1.68861 -0.204965 0
M  V30 9258 O 875.175 1.89982 -0.402531 0
M  V30 9259 C 872.305 3.28696 -1.12143 0
M  V30 9260 C 871.259 3.66041 -2.21806 0
M  V30 9261 C 870.585 5.01399 -1.85751 0
M  V30 9262 C 871.885 3.74677 -3.63888 0
M  V30 9263 H 873.579 1.94478 -2.27637 0
M  V30 9264 H 871.125 0.934271 -1.09578 0
M  V30 9265 H 873.078 4.07151 -1.08656 0
M  V30 9266 H 871.802 3.26287 -0.142974 0
M  V30 9267 H 870.461 2.89883 -2.24418 0
M  V30 9268 H 870.109 4.9551 -0.864817 0
M  V30 9269 H 869.809 5.27355 -2.59173 0
M  V30 9270 H 871.333 5.82274 -1.83819 0
M  V30 9271 H 872.747 4.43324 -3.63506 0
M  V30 9272 H 871.144 4.12118 -4.3621 0
M  V30 9273 H 872.214 2.75795 -3.9883 0
M  V30 9274 N 873.557 1.20646 1.01402 0
M  V30 9275 C 874.52 0.959314 2.08158 0
M  V30 9276 C 875.52 -0.0661558 1.60664 0
M  V30 9277 O 876.71 0.170177 1.73367 0
M  V30 9278 C 873.842 0.444785 3.37986 0
M  V30 9279 H 875.035 1.90631 2.31517 0
M  V30 9280 H 872.588 1.02219 1.18241 0
M  V30 9281 H 873.323 -0.507553 3.20304 0
M  V30 9282 H 873.108 1.18435 3.73785 0
M  V30 9283 H 874.598 0.291443 4.16582 0
M  V30 9284 N 875.035 -1.20752 1.01276 0
M  V30 9285 C 875.967 -2.22798 0.537917 0
M  V30 9286 C 876.98 -1.5836 -0.377638 0
M  V30 9287 O 878.169 -1.77624 -0.176599 0
M  V30 9288 C 875.269 -3.38068 -0.237364 0
M  V30 9289 C 874.442 -4.32095 0.679161 0
M  V30 9290 C 873.501 -5.26178 -0.0478676 0
M  V30 9291 O 872.527 -5.66305 0.573366 0
M  V30 9292 N 873.729 -5.65201 -1.32396 0
M  V30 9293 H 876.494 -2.64166 1.4155 0
M  V30 9294 H 874.055 -1.35254 0.889826 0
M  V30 9295 H 876.047 -3.98009 -0.73288 0
M  V30 9296 H 874.617 -2.95622 -1.0162 0
M  V30 9297 H 873.837 -3.70179 1.35505 0
M  V30 9298 H 875.125 -4.91842 1.30263 0
M  V30 9299 H 874.523 -5.34606 -1.84968 0
M  V30 9300 H 873.08 -6.27468 -1.76428 0
M  V30 9301 N 876.513 -0.788492 -1.36457 0
M  V30 9302 C 877.445 -0.144208 -2.28746 0
M  V30 9303 C 878.458 0.646009 -1.49434 0
M  V30 9304 O 879.647 0.481344 -1.71888 0
M  V30 9305 C 876.747 0.818869 -3.28858 0
M  V30 9306 C 875.92 0.0789055 -4.37329 0
M  V30 9307 C 874.979 0.957791 -5.1741 0
M  V30 9308 O 874.005 0.415378 -5.67682 0
M  V30 9309 N 875.207 2.28216 -5.33758 0
M  V30 9310 H 877.972 -0.936949 -2.84678 0
M  V30 9311 H 875.533 -0.642317 -1.48613 0
M  V30 9312 H 877.525 1.41065 -3.79319 0
M  V30 9313 H 876.095 1.51249 -2.73573 0
M  V30 9314 H 875.315 -0.693939 -3.88044 0
M  V30 9315 H 876.603 -0.431753 -5.06965 0
M  V30 9316 H 876.001 2.747 -4.94527 0
M  V30 9317 H 874.558 2.8236 -5.87466 0
M  V30 9318 N 877.991 1.48044 -0.54043 0
M  V30 9319 C 878.901 2.33565 0.220163 0
M  V30 9320 C 879.917 1.47146 0.928659 0
M  V30 9321 O 881.093 1.80107 0.901295 0
M  V30 9322 C 878.158 3.2349 1.2472 0
M  V30 9323 C 877.219 4.25789 0.547938 0
M  V30 9324 C 876.452 5.11417 1.52605 0
M  V30 9325 O 876.675 4.99204 2.75956 0
M  V30 9326 O 875.609 5.92498 1.05972 0
M  V30 9327 H 879.435 2.99868 -0.480898 0
M  V30 9328 H 877.02 1.46332 -0.301226 0
M  V30 9329 H 878.902 3.79084 1.84047 0
M  V30 9330 H 877.577 2.59835 1.93048 0
M  V30 9331 H 876.484 3.74001 -0.0860941 0
M  V30 9332 H 877.817 4.92111 -0.0935896 0
M  V30 9333 N 879.47 0.276058 1.55163 0
M  V30 9334 C 880.718 -0.339782 1.99223 0
M  V30 9335 C 881.039 -1.56307 1.16589 0
M  V30 9336 O 880.309 -1.94225 0.25564 0
M  V30 9337 H 878.889 -0.128534 0.735859 0
M  V30 9338 H 881.551 0.381612 1.91128 0
M  V30 9339 H 880.647 -0.629 3.05696 0
M  V30 9340 N 880.948 -1.576 0.00335426 0
M  V30 9341 C 881.88 -2.0549 -1.01521 0
M  V30 9342 C 882.893 -0.973441 -1.30491 0
M  V30 9343 O 884.082 -1.25017 -1.27409 0
M  V30 9344 C 881.182 -2.44272 -2.34914 0
M  V30 9345 C 880.355 -3.75191 -2.24835 0
M  V30 9346 C 879.414 -4.00804 -3.40944 0
M  V30 9347 O 878.44 -4.71423 -3.18981 0
M  V30 9348 N 879.642 -3.48961 -4.63904 0
M  V30 9349 H 882.407 -2.93493 -0.60678 0
M  V30 9350 H 879.968 -1.60851 -0.18396 0
M  V30 9351 H 881.96 -2.58518 -3.11369 0
M  V30 9352 H 880.53 -1.6177 -2.67487 0
M  V30 9353 H 879.75 -3.70989 -1.3327 0
M  V30 9354 H 881.038 -4.61013 -2.15277 0
M  V30 9355 H 880.436 -2.9178 -4.84645 0
M  V30 9356 H 878.993 -3.68531 -5.37613 0
M  V30 9357 N 882.426 0.269451 -1.5528 0
M  V30 9358 C 883.654 1.01872 -1.80082 0
M  V30 9359 C 884.069 1.79802 -0.575917 0
M  V30 9360 O 883.426 1.76735 0.455081 0
M  V30 9361 C 883.477 1.9745 -3.02813 0
M  V30 9362 O 883.198 1.22677 -4.20573 0
M  V30 9363 C 884.699 2.8416 -3.40247 0
M  V30 9364 H 881.919 0.300781 -0.59981 0
M  V30 9365 H 884.463 0.29916 -2.023 0
M  V30 9366 H 882.618 2.64864 -2.82712 0
M  V30 9367 H 883.032 1.87129 -4.89982 0
M  V30 9368 H 884.506 3.47014 -4.29284 0
M  V30 9369 H 884.983 3.54113 -2.59809 0
M  V30 9370 H 885.589 2.22232 -3.6262 0
M  V30 9371 N 883.904 1.48273 0.534124 0
M  V30 9372 C 885.152 1.55771 1.28762 0
M  V30 9373 C 885.473 0.231575 1.9362 0
M  V30 9374 O 884.743 -0.746533 1.81118 0
M  V30 9375 H 883.323 0.573851 0.47823 0
M  V30 9376 H 885.985 1.84712 0.621888 0
M  V30 9377 H 885.081 2.33657 2.06908 0
M  V30 9378 N 885.382 -0.782676 1.36792 0
M  V30 9379 C 886.312 -1.90973 1.34356 0
M  V30 9380 C 887.293 -1.6875 0.213917 0
M  V30 9381 O 888.478 -1.89766 0.412601 0
M  V30 9382 C 885.608 -3.28097 1.13884 0
M  V30 9383 C 884.562 -3.6486 2.23744 0
M  V30 9384 C 883.888 -5.00406 1.88408 0
M  V30 9385 C 885.188 -3.72742 3.6587 0
M  V30 9386 H 886.882 -1.93268 2.28665 0
M  V30 9387 H 884.428 -0.928447 1.10072 0
M  V30 9388 H 886.381 -4.06569 1.10813 0
M  V30 9389 H 885.105 -3.26206 0.160275 0
M  V30 9390 H 883.764 -2.88689 2.25952 0
M  V30 9391 H 883.412 -4.95044 0.891083 0
M  V30 9392 H 883.112 -5.25973 2.61966 0
M  V30 9393 H 884.636 -5.81291 1.86905 0
M  V30 9394 H 886.05 -4.4139 3.65852 0
M  V30 9395 H 884.447 -4.09798 4.38389 0
M  V30 9396 H 885.517 -2.73676 4.00287 0
M  V30 9397 N 886.86 -1.21182 -1.00761 0
M  V30 9398 C 888.271 -1.02652 -1.55947 0
M  V30 9399 C 888.622 0.414466 -1.91772 0
M  V30 9400 O 887.747 1.29727 -1.73204 0
M  V30 9401 C 888.342 -1.85713 -2.83366 0
M  V30 9402 C 886.901 -1.71523 -3.35048 0
M  V30 9403 C 886.048 -1.83087 -2.08265 0
M  V30 9404 H 888.999 -1.35242 -0.830379 0
M  V30 9405 H 889.02 -1.36583 -3.55141 0
M  V30 9406 H 888.532 -2.90584 -2.5726 0
M  V30 9407 H 886.633 -0.693257 -3.66094 0
M  V30 9408 H 886.746 -2.53333 -4.06644 0
M  V30 9409 H 885.11 -1.26367 -2.21141 0
M  V30 9410 H 885.893 -2.8946 -1.84575 0
M  V30 9411 N 888.338 1.20213 -1.01915 0
M  V30 9412 C 889.288 2.20957 -0.562327 0
M  V30 9413 C 890.272 1.56258 0.383704 0
M  V30 9414 O 891.464 1.75794 0.206255 0
M  V30 9415 C 888.593 3.43167 0.0954035 0
M  V30 9416 C 887.679 4.15028 -0.872487 0
M  V30 9417 N 888.07 4.63231 -2.03103 0
M  V30 9418 C 886.368 4.4057 -0.69385 0
M  V30 9419 C 887.069 5.18307 -2.64069 0
M  V30 9420 N 886.045 5.08522 -1.9211 0
M  V30 9421 H 889.847 2.55894 -1.44553 0
M  V30 9422 H 887.361 1.36178 -0.884831 0
M  V30 9423 H 889.358 4.14569 0.440232 0
M  V30 9424 H 888.018 3.09734 0.974413 0
M  V30 9425 H 889.029 4.58365 -2.41086 0
M  V30 9426 H 885.706 4.17276 0.136889 0
M  V30 9427 H 887.096 5.65961 -3.6213 0
M  V30 9428 N 889.816 0.795718 1.36037 0
M  V30 9429 C 891.227 0.433379 1.816 0
M  V30 9430 C 891.578 -1.04341 1.66155 0
M  V30 9431 O 890.703 -1.81004 1.18603 0
M  V30 9432 C 891.298 0.77985 3.29703 0
M  V30 9433 C 889.857 0.470256 3.73451 0
M  V30 9434 C 889.004 1.01119 2.58206 0
M  V30 9435 H 891.955 0.988317 1.24169 0
M  V30 9436 H 891.976 0.0732898 3.80429 0
M  V30 9437 H 891.488 1.85473 3.40913 0
M  V30 9438 H 889.589 -0.596332 3.67797 0
M  V30 9439 H 889.702 0.995276 4.68648 0
M  V30 9440 H 888.066 0.434077 2.50974 0
M  V30 9441 H 888.849 2.09196 2.72198 0
M  V30 9442 N 891.294 -1.47756 0.548274 0
M  V30 9443 C 892.241 -2.29893 -0.204408 0
M  V30 9444 C 893.211 -1.38509 -0.916761 0
M  V30 9445 O 894.396 -1.67472 -0.91421 0
M  V30 9446 C 891.536 -3.22282 -1.23403 0
M  V30 9447 C 890.649 -4.28753 -0.528654 0
M  V30 9448 C 889.784 -5.08303 -1.54279 0
M  V30 9449 C 888.823 -6.06557 -0.821893 0
M  V30 9450 N 887.96 -6.79098 -1.78243 0
M  V30 9451 H 892.8 -2.93739 0.502163 0
M  V30 9452 H 890.337 -1.44793 0.259471 0
M  V30 9453 H 892.295 -3.74262 -1.84348 0
M  V30 9454 H 890.925 -2.6032 -1.90875 0
M  V30 9455 H 889.977 -3.79899 0.195132 0
M  V30 9456 H 891.289 -4.98787 0.0365066 0
M  V30 9457 H 890.443 -5.64388 -2.22602 0
M  V30 9458 H 889.182 -4.3815 -2.14186 0
M  V30 9459 H 888.187 -5.49659 -0.12469 0
M  V30 9460 H 889.412 -6.78715 -0.228685 0
M  V30 9461 H 887.358 -6.11682 -2.37025 0
M  V30 9462 H 887.275 -7.4527 -1.26919 0
M  V30 9463 H 888.543 -7.39762 -2.45709 0
M  V30 9464 N 892.772 -0.284283 -1.55015 0
M  V30 9465 C 894.021 0.33055 -1.98973 0
M  V30 9466 C 894.334 1.56284 -1.17621 0
M  V30 9467 O 895.54 2.2512 -1.51767 0
M  V30 9468 C 893.996 0.639457 -3.54174 0
M  V30 9469 C 893.604 -0.573543 -4.44313 0
M  V30 9470 C 895.348 1.21641 -4.06699 0
M  V30 9471 C 893.255 -0.238715 -5.90918 0
M  V30 9472 H 892.185 0.127285 -0.743179 0
M  V30 9473 H 894.836 -0.390372 -1.793 0
M  V30 9474 H 893.218 1.41953 -3.69683 0
M  V30 9475 H 894.392 -1.3502 -4.40575 0
M  V30 9476 H 892.707 -1.06797 -4.02472 0
M  V30 9477 H 895.304 1.48088 -5.13784 0
M  V30 9478 H 895.647 2.15328 -3.56286 0
M  V30 9479 H 896.18 0.498422 -3.94665 0
M  V30 9480 H 892.919 -1.1437 -6.45445 0
M  V30 9481 H 892.439 0.500997 -5.97704 0
M  V30 9482 H 894.118 0.165774 -6.46788 0
M  V30 9483 N 894.251 1.57596 -0.0117121 0
M  V30 9484 C 895.662 1.79033 0.529521 0
M  V30 9485 C 896.013 0.920299 1.73277 0
M  V30 9486 O 895.138 0.125934 2.16033 0
M  V30 9487 C 895.733 3.24695 0.967405 0
M  V30 9488 C 894.292 3.47188 1.45387 0
M  V30 9489 C 893.439 2.74245 0.410466 0
M  V30 9490 H 896.39 1.56908 -0.237836 0
M  V30 9491 H 896.411 3.33451 1.83278 0
M  V30 9492 H 895.923 3.87992 0.0914605 0
M  V30 9493 H 894.024 2.89121 2.35032 0
M  V30 9494 H 894.137 4.55886 1.47325 0
M  V30 9495 H 892.501 2.39209 0.874721 0
M  V30 9496 H 893.284 3.40248 -0.456713 0
M  V30 9497 N 895.729 -0.261212 1.5542 0
M  V30 9498 C 896.659 -1.32712 1.92119 0
M  V30 9499 C 897.64 -1.50934 0.784406 0
M  V30 9500 O 898.825 -1.63781 1.04352 0
M  V30 9501 C 895.955 -2.68453 2.20341 0
M  V30 9502 C 894.909 -2.64947 3.36136 0
M  V30 9503 C 894.235 -4.04349 3.49865 0
M  V30 9504 C 895.535 -2.23182 4.72215 0
M  V30 9505 H 897.229 -1.02245 2.81401 0
M  V30 9506 H 894.775 -0.490406 1.35392 0
M  V30 9507 H 896.728 -3.43144 2.44603 0
M  V30 9508 H 895.452 -3.00527 1.27871 0
M  V30 9509 H 894.111 -1.92714 3.11861 0
M  V30 9510 H 893.759 -4.33665 2.5484 0
M  V30 9511 H 893.459 -4.02895 4.27726 0
M  V30 9512 H 894.983 -4.80761 3.76432 0
M  V30 9513 H 896.397 -2.87599 4.95943 0
M  V30 9514 H 894.794 -2.32867 5.53076 0
M  V30 9515 H 895.864 -1.18327 4.70241 0
M  V30 9516 N 897.207 -1.48554 -0.526253 0
M  V30 9517 C 898.618 -1.50256 -1.10815 0
M  V30 9518 C 898.969 -0.274445 -1.94271 0
M  V30 9519 O 898.094 0.618094 -2.07385 0
M  V30 9520 C 898.689 -2.72264 -2.01638 0
M  V30 9521 C 897.248 -2.76826 -2.55038 0
M  V30 9522 C 896.395 -2.43823 -1.32081 0
M  V30 9523 H 899.346 -1.55616 -0.31133 0
M  V30 9524 H 899.367 -2.50993 -2.85977 0
M  V30 9525 H 898.879 -3.61632 -1.4087 0
M  V30 9526 H 896.98 -1.91676 -3.19517 0
M  V30 9527 H 897.093 -3.78351 -2.93917 0
M  V30 9528 H 895.457 -1.95058 -1.63781 0
M  V30 9529 H 896.24 -3.35436 -0.730596 0
M  V30 9530 N 898.685 0.775411 -1.37205 0
M  V30 9531 C 900.101 1.07546 -1.17924 0
M  V30 9532 C 900.301 2.01496 -0.0128897 0
M  V30 9533 O 899.357 2.44039 0.64816 0
M  V30 9534 C 900.67 1.67647 -2.49629 0
M  V30 9535 C 902.218 1.79923 -2.56119 0
M  V30 9536 C 902.693 2.43438 -3.87946 0
M  V30 9537 N 904.184 2.50893 -3.89368 0
M  V30 9538 C 904.919 3.00881 -4.88117 0
M  V30 9539 N 904.415 3.5107 -5.97262 0
M  V30 9540 N 906.208 2.99722 -4.75524 0
M  V30 9541 H 898.359 0.151524 -2.11859 0
M  V30 9542 H 900.622 0.129845 -0.939066 0
M  V30 9543 H 900.328 1.06082 -3.3532 0
M  V30 9544 H 900.202 2.66988 -2.66453 0
M  V30 9545 H 902.589 2.40621 -1.70838 0
M  V30 9546 H 902.67 0.793482 -2.43182 0
M  V30 9547 H 902.314 1.8338 -4.73639 0
M  V30 9548 H 902.244 3.44611 -3.98184 0
M  V30 9549 H 904.735 2.1537 -3.10522 0
M  V30 9550 H 905.048 3.87604 -6.68568 0
M  V30 9551 H 903.393 3.49184 -6.00912 0
M  V30 9552 H 906.584 2.5981 -3.8938 0
M  V30 9553 H 906.757 3.38369 -5.52639 0
M  V30 9554 N 900.163 1.21714 1.00117 0
M  V30 9555 C 901.44 0.945391 1.71236 0
M  V30 9556 C 901.82 -0.541772 2.0403 0
M  V30 9557 O 901.168 -1.50763 1.71705 0
M  V30 9558 C 901.378 1.83444 2.96899 0
M  V30 9559 C 902.726 2.08558 3.69849 0
M  V30 9560 O 903.75 1.80824 3.06889 0
M  V30 9561 O 902.609 2.55485 4.83104 0
M  V30 9562 H 899.703 0.354834 0.747009 0
M  V30 9563 H 902.249 1.32661 1.05825 0
M  V30 9564 H 901.021 2.84075 2.69105 0
M  V30 9565 H 900.644 1.45428 3.70049 0
M  V30 9566 N 901.641 -1.19671 1.02551 0
M  V30 9567 C 902.571 -2.25009 0.623965 0
M  V30 9568 C 903.552 -1.66129 -0.36538 0
M  V30 9569 O 904.737 -1.92599 -0.248842 0
M  V30 9570 C 901.867 -3.47287 -0.0294869 0
M  V30 9571 C 900.821 -4.18818 0.881781 0
M  V30 9572 C 900.147 -5.34618 0.0936189 0
M  V30 9573 C 901.447 -4.73986 2.19396 0
M  V30 9574 H 903.141 -2.58851 1.50454 0
M  V30 9575 H 900.687 -1.24425 0.724872 0
M  V30 9576 H 902.64 -4.20168 -0.322016 0
M  V30 9577 H 901.364 -3.12635 -0.944838 0
M  V30 9578 H 900.023 -3.47815 1.15845 0
M  V30 9579 H 899.671 -4.9621 -0.823661 0
M  V30 9580 H 899.371 -5.83409 0.700568 0
M  V30 9581 H 900.895 -6.10297 -0.192249 0
M  V30 9582 H 902.309 -5.38639 1.96319 0
M  V30 9583 H 900.706 -5.3325 2.75254 0
M  V30 9584 H 901.776 -3.92238 2.85092 0
M  V30 9585 N 903.119 -0.802921 -1.35613 0
M  V30 9586 C 904.349 -0.393359 -2.02821 0
M  V30 9587 C 904.757 0.999282 -1.60658 0
M  V30 9588 O 904.1 1.65463 -0.797977 0
M  V30 9589 C 904.162 -0.393102 -3.57344 0
M  V30 9590 C 903.826 -1.73563 -4.22759 0
M  V30 9591 C 904.823 -2.69333 -4.44698 0
M  V30 9592 C 902.508 -2.01863 -4.59953 0
M  V30 9593 C 904.502 -3.91589 -5.02928 0
M  V30 9594 C 902.189 -3.24383 -5.17898 0
M  V30 9595 C 903.187 -4.19064 -5.39328 0
M  V30 9596 O 902.875 -5.39422 -5.96053 0
M  V30 9597 H 902.607 -0.158431 -0.657172 0
M  V30 9598 H 905.161 -1.08682 -1.74291 0
M  V30 9599 H 903.391 0.356934 -3.85049 0
M  V30 9600 H 905.08 -0.00635596 -4.059 0
M  V30 9601 H 905.846 -2.48759 -4.16346 0
M  V30 9602 H 901.725 -1.28979 -4.42589 0
M  V30 9603 H 905.269 -4.65502 -5.1957 0
M  V30 9604 H 901.166 -3.44829 -5.45677 0
M  V30 9605 H 901.934 -5.40669 -6.14507 0
M  V30 9606 N 904.597 1.47463 -0.556102 0
M  V30 9607 C 905.845 2.02075 -0.0315712 0
M  V30 9608 C 906.166 1.43292 1.32259 0
M  V30 9609 O 905.436 0.60771 1.86236 0
M  V30 9610 H 904.016 0.74695 -0.0086816 0
M  V30 9611 H 906.678 1.80879 -0.725859 0
M  V30 9612 H 905.774 3.12047 0.0573538 0
M  V30 9613 N 906.075 0.2925 1.54862 0
M  V30 9614 C 907.025 -0.60226 2.19902 0
M  V30 9615 C 908.009 -1.10535 1.16923 0
M  V30 9616 O 909.201 -1.04753 1.42674 0
M  V30 9617 C 906.33 -1.77774 2.93686 0
M  V30 9618 C 905.416 -1.29101 4.03972 0
M  V30 9619 N 905.807 -0.521671 5.03103 0
M  V30 9620 C 904.105 -1.57248 4.17359 0
M  V30 9621 C 904.806 -0.263545 5.81103 0
M  V30 9622 N 903.782 -0.840937 5.37056 0
M  V30 9623 H 907.584 -0.00682274 2.93899 0
M  V30 9624 H 905.098 0.0968604 1.62111 0
M  V30 9625 H 907.095 -2.43021 3.38743 0
M  V30 9626 H 905.755 -2.37696 2.21203 0
M  V30 9627 H 906.766 -0.167364 5.1763 0
M  V30 9628 H 903.443 -2.1798 3.56077 0
M  V30 9629 H 904.833 0.353783 6.70968 0
M  V30 9630 N 907.553 -1.57587 0.0200696 0
M  V30 9631 C 908.801 -1.91046 -0.65922 0
M  V30 9632 C 909.122 -0.896197 -1.73186 0
M  V30 9633 O 908.392 0.0635952 -1.95797 0
M  V30 9634 H 906.972 -0.705163 -0.246483 0
M  V30 9635 H 909.634 -1.94789 0.0657368 0
M  V30 9636 H 908.73 -2.91399 -1.11773 0
M  V30 9637 N 909.032 0.252966 -1.55557 0
M  V30 9638 C 910.448 0.60118 -1.47844 0
M  V30 9639 C 910.648 1.88612 -0.709055 0
M  V30 9640 O 909.704 2.51395 -0.235964 0
M  V30 9641 C 911.017 0.709539 -2.92209 0
M  V30 9642 C 912.565 0.802269 -3.02544 0
M  V30 9643 C 913.04 0.94224 -4.48203 0
M  V30 9644 N 914.531 1.00726 -4.52116 0
M  V30 9645 C 915.266 1.13472 -5.6206 0
M  V30 9646 N 914.762 1.22811 -6.81828 0
M  V30 9647 N 916.555 1.1674 -5.49844 0
M  V30 9648 H 908.706 -0.590635 -2.04023 0
M  V30 9649 H 910.969 -0.202986 -0.926013 0
M  V30 9650 H 910.675 -0.164505 -3.51315 0
M  V30 9651 H 910.549 1.58343 -3.42356 0
M  V30 9652 H 912.936 1.66677 -2.43522 0
M  V30 9653 H 913.017 -0.0966469 -2.55617 0
M  V30 9654 H 912.661 0.0823209 -5.07833 0
M  V30 9655 H 912.591 1.85611 -4.92805 0
M  V30 9656 H 915.082 0.946684 -3.6585 0
M  V30 9657 H 915.395 1.32426 -7.61369 0
M  V30 9658 H 913.74 1.19779 -6.84601 0
M  V30 9659 H 916.931 1.09089 -4.55211 0
M  V30 9660 H 917.104 1.26329 -6.35567 0
M  V30 9661 N 910.51 1.48831 0.518367 0
M  V30 9662 C 911.787 1.47933 1.27966 0
M  V30 9663 C 912.167 0.197393 2.10175 0
M  V30 9664 O 911.515 -0.820656 2.13255 0
M  V30 9665 C 911.725 2.74816 2.15121 0
M  V30 9666 C 913.073 3.23613 2.74881 0
M  V30 9667 O 914.097 2.75814 2.254 0
M  V30 9668 O 912.956 4.06818 3.64913 0
M  V30 9669 H 910.05 0.591316 0.578164 0
M  V30 9670 H 912.596 1.61077 0.534065 0
M  V30 9671 H 911.368 3.59621 1.54234 0
M  V30 9672 H 910.991 2.64449 2.96905 0
M  V30 9673 N 911.988 -0.768124 1.37614 0
M  V30 9674 C 912.936 -1.9029 1.33763 0
M  V30 9675 C 913.93 -1.67888 0.225814 0
M  V30 9676 O 915.136 -1.75634 0.394043 0
M  V30 9677 H 911.511 -0.625828 0.416945 0
M  V30 9678 H 913.482 -1.90654 2.29551 0
M  V30 9679 C 912.231 -3.27598 1.16511 0
M  V30 9680 H 911.554 -3.45414 2.01318 0
M  V30 9681 H 912.994 -4.07288 1.17867 0
M  V30 9682 C 911.453 -3.36653 -0.129001 0
M  V30 9683 O 911.983 -3.86023 -1.11128 0
M  V30 9684 N 910.189 -2.90036 -0.180926 0
M  V30 9685 H 909.736 -2.5005 0.619076 0
M  V30 9686 H 909.694 -2.96475 -1.04641 0
M  V30 9687 N 913.466 -1.22244 -0.994698 0
M  V30 9688 C 914.691 -1.07299 -1.77487 0
M  V30 9689 C 915.116 0.372302 -1.84379 0
M  V30 9690 O 914.474 1.2689 -1.29494 0
M  V30 9691 C 914.522 -1.68675 -3.18718 0
M  V30 9692 O 913.626 -0.939202 -4.01563 0
M  V30 9693 H 912.967 -0.376979 -0.546611 0
M  V30 9694 H 915.497 -1.62003 -1.24965 0
M  V30 9695 H 915.507 -1.73324 -3.69354 0
M  V30 9696 H 914.182 -2.73849 -3.13017 0
M  V30 9697 H 912.759 -0.968583 -3.60101 0
M  V30 9698 N 914.944 1.19125 -1.03184 0
M  V30 9699 C 915.907 2.20662 -0.619766 0
M  V30 9700 C 916.907 1.57621 0.318179 0
M  V30 9701 O 918.097 1.73885 0.104783 0
M  V30 9702 C 915.229 3.40774 0.0926696 0
M  V30 9703 H 916.422 2.58633 -1.5182 0
M  V30 9704 H 913.975 1.32855 -0.823364 0
M  V30 9705 H 914.71 3.08324 1.00531 0
M  V30 9706 H 914.495 3.87766 -0.581344 0
M  V30 9707 H 915.985 4.15977 0.367792 0
M  V30 9708 N 916.422 0.810101 1.35185 0
M  V30 9709 C 917.67 0.391343 1.98275 0
M  V30 9710 C 917.991 -1.04592 1.64577 0
M  V30 9711 O 917.261 -1.72417 0.93001 0
M  V30 9712 H 915.841 0.141715 0.733434 0
M  V30 9713 H 918.503 1.03672 1.6504 0
M  V30 9714 H 917.599 0.49991 3.0807 0
M  V30 9715 N 917.9 -1.47166 0.563914 0
M  V30 9716 C 918.83 -2.32894 -0.168148 0
M  V30 9717 C 919.811 -1.44202 -0.902214 0
M  V30 9718 O 920.996 -1.73048 -0.881365 0
M  V30 9719 C 918.126 -3.26116 -1.19439 0
M  V30 9720 C 917.08 -4.24101 -0.576363 0
M  V30 9721 C 916.406 -5.06696 -1.70772 0
M  V30 9722 C 917.706 -5.20142 0.47425 0
M  V30 9723 H 919.4 -2.9435 0.547573 0
M  V30 9724 H 916.946 -1.41545 0.264778 0
M  V30 9725 H 918.899 -3.84935 -1.71474 0
M  V30 9726 H 917.623 -2.62728 -1.94014 0
M  V30 9727 H 916.282 -3.66519 -0.0772534 0
M  V30 9728 H 915.93 -4.39707 -2.44268 0
M  V30 9729 H 915.63 -5.7304 -1.29994 0
M  V30 9730 H 917.154 -5.68375 -2.2312 0
M  V30 9731 H 918.568 -5.73286 0.0397035 0
M  V30 9732 H 916.965 -5.94726 0.801287 0
M  V30 9733 H 918.035 -4.65214 1.36764 0
M  V30 9734 N 919.378 -0.300708 -1.54705 0
M  V30 9735 C 920.655 0.361757 -1.92226 0
M  V30 9736 C 921.035 1.71714 -1.2279 0
M  V30 9737 O 920.383 2.2559 -0.363542 0
M  V30 9738 C 920.593 0.476699 -3.45729 0
M  V30 9739 C 921.941 0.7477 -4.17965 0
M  V30 9740 O 922.965 0.560521 -3.51762 0
M  V30 9741 O 921.824 1.10724 -5.35166 0
M  V30 9742 H 918.918 0.202213 -0.801897 0
M  V30 9743 H 921.464 -0.348746 -1.66078 0
M  V30 9744 H 920.236 -0.476132 -3.88392 0
M  V30 9745 H 919.859 1.23568 -3.77911 0
M  V30 9746 N 920.856 1.57574 -0.0284266 0
M  V30 9747 C 921.786 2.1321 0.952039 0
M  V30 9748 C 922.767 1.04806 1.33977 0
M  V30 9749 O 923.952 1.32635 1.41851 0
M  V30 9750 C 921.082 2.65862 2.23461 0
M  V30 9751 C 920.036 3.79047 1.98765 0
M  V30 9752 C 919.362 4.18124 3.33281 0
M  V30 9753 C 920.662 5.05151 1.32739 0
M  V30 9754 H 922.356 2.95385 0.488705 0
M  V30 9755 H 919.902 1.42092 0.233628 0
M  V30 9756 H 921.855 3.03417 2.92431 0
M  V30 9757 H 920.579 1.80848 2.71959 0
M  V30 9758 H 919.238 3.41929 1.32213 0
M  V30 9759 H 918.886 3.30092 3.79537 0
M  V30 9760 H 918.586 4.94396 3.17563 0
M  V30 9761 H 920.11 4.58262 4.0352 0
M  V30 9762 H 921.524 5.40297 1.91708 0
M  V30 9763 H 919.921 5.86416 1.27421 0
M  V30 9764 H 920.991 4.83969 0.300261 0
M  V30 9765 N 922.334 -0.244713 1.55689 0
M  V30 9766 C 923.297 -1.2864 1.89695 0
M  V30 9767 C 924.297 -1.40969 0.773583 0
M  V30 9768 O 925.487 -1.39632 1.04156 0
M  V30 9769 C 922.619 -2.66379 2.12732 0
M  V30 9770 H 923.812 -0.997033 2.82841 0
M  V30 9771 H 921.365 -0.484103 1.48614 0
M  V30 9772 H 922.1 -3.00452 1.22062 0
M  V30 9773 H 921.885 -2.58812 2.94549 0
M  V30 9774 H 923.375 -3.41592 2.40218 0
M  V30 9775 N 923.813 -1.49104 -0.510467 0
M  V30 9776 C 924.761 -1.65547 -1.63392 0
M  V30 9777 C 925.755 -0.521522 -1.61172 0
M  V30 9778 O 926.961 -0.700865 -1.65795 0
M  V30 9779 H 923.336 -0.521843 -0.541464 0
M  V30 9780 H 925.307 -2.59864 -1.46673 0
M  V30 9781 C 924.056 -1.73051 -3.01577 0
M  V30 9782 H 923.379 -2.59676 -3.03987 0
M  V30 9783 H 924.819 -1.88594 -3.79748 0
M  V30 9784 C 923.278 -0.47328 -3.33559 0
M  V30 9785 O 923.808 0.405239 -3.99651 0
M  V30 9786 N 922.014 -0.339074 -2.88615 0
M  V30 9787 H 921.561 -1.05497 -2.35007 0
M  V30 9788 H 921.519 0.501061 -3.10382 0
M  V30 9789 N 925.291 0.760815 -1.38019 0
M  V30 9790 C 926.201 1.90526 -1.36884 0
M  V30 9791 C 927.217 1.71941 -0.266908 0
M  V30 9792 O 928.393 1.94988 -0.50413 0
M  V30 9793 C 925.458 3.25799 -1.18558 0
M  V30 9794 C 924.519 3.56961 -2.3849 0
M  V30 9795 C 923.752 4.8578 -2.21029 0
M  V30 9796 O 923.975 5.57629 -1.20023 0
M  V30 9797 O 922.909 5.16254 -3.0946 0
M  V30 9798 H 926.735 1.94437 -2.33298 0
M  V30 9799 H 924.32 0.905091 -1.18863 0
M  V30 9800 H 926.202 4.0669 -1.1037 0
M  V30 9801 H 924.877 3.22716 -0.252241 0
M  V30 9802 H 923.784 2.7626 -2.52252 0
M  V30 9803 H 925.117 3.64798 -3.30429 0
M  V30 9804 N 926.769 1.22769 0.988202 0
M  V30 9805 C 927.719 0.969202 2.06375 0
M  V30 9806 C 928.703 -0.0819274 1.60691 0
M  V30 9807 O 929.895 0.129201 1.76528 0
M  V30 9808 C 927.024 0.553919 3.38802 0
M  V30 9809 C 926.11 1.64003 3.91106 0
M  V30 9810 N 926.501 2.86872 4.16579 0
M  V30 9811 C 924.799 1.5128 4.1956 0
M  V30 9812 C 925.5 3.57137 4.5916 0
M  V30 9813 N 924.476 2.84624 4.63131 0
M  V30 9814 H 928.278 1.90247 2.24017 0
M  V30 9815 H 925.792 1.12592 1.17033 0
M  V30 9816 H 927.789 0.350033 4.15428 0
M  V30 9817 H 926.449 -0.37239 3.22558 0
M  V30 9818 H 927.46 3.23254 4.04632 0
M  V30 9819 H 924.137 0.653032 4.12361 0
M  V30 9820 H 925.527 4.62428 4.87452 0
M  V30 9821 N 928.247 -1.18576 1.03814 0
M  V30 9822 C 929.663 -1.4051 0.756909 0
M  V30 9823 C 929.863 -1.9057 -0.654631 0
M  V30 9824 O 928.919 -2.0884 -1.41922 0
M  V30 9825 C 930.232 -2.4081 1.80087 0
M  V30 9826 C 931.78 -2.54541 1.82148 0
M  V30 9827 C 932.255 -3.58102 2.85529 0
M  V30 9828 N 933.746 -3.65607 2.84404 0
M  V30 9829 C 934.481 -4.45458 3.61047 0
M  V30 9830 N 933.977 -5.28937 4.47434 0
M  V30 9831 N 935.77 -4.40196 3.49548 0
M  V30 9832 H 927.921 -0.844075 1.94908 0
M  V30 9833 H 930.184 -0.433287 0.843188 0
M  V30 9834 H 929.89 -2.1107 2.81322 0
M  V30 9835 H 929.764 -3.4012 1.63089 0
M  V30 9836 H 932.151 -2.83598 0.815855 0
M  V30 9837 H 932.232 -1.55352 2.03223 0
M  V30 9838 H 931.876 -3.29786 3.86269 0
M  V30 9839 H 931.806 -4.56963 2.6171 0
M  V30 9840 H 934.297 -3.05994 2.21756 0
M  V30 9841 H 934.61 -5.8701 5.02632 0
M  V30 9842 H 932.955 -5.28366 4.51503 0
M  V30 9843 H 936.146 -3.74026 2.81464 0
M  V30 9844 H 936.319 -5.02186 4.09528 0
M  V30 9845 N 929.725 -0.817259 -1.34754 0
M  V30 9846 C 930.655 -0.249769 -2.3216 0
M  V30 9847 C 931.636 0.630663 -1.57977 0
M  V30 9848 O 932.821 0.558719 -1.85989 0
M  V30 9849 C 929.951 0.593825 -3.42186 0
M  V30 9850 C 928.905 -0.188997 -4.27583 0
M  V30 9851 C 928.231 0.776979 -5.29025 0
M  V30 9852 C 929.531 -1.39401 -5.03354 0
M  V30 9853 H 931.225 -1.06359 -2.79872 0
M  V30 9854 H 928.771 -0.512894 -1.34556 0
M  V30 9855 H 930.724 1.00097 -4.09339 0
M  V30 9856 H 929.448 1.44064 -2.93109 0
M  V30 9857 H 928.107 -0.577445 -3.62024 0
M  V30 9858 H 927.755 1.61959 -4.76212 0
M  V30 9859 H 927.455 0.257448 -5.87036 0
M  V30 9860 H 928.979 1.18211 -5.99048 0
M  V30 9861 H 930.393 -1.06117 -5.63393 0
M  V30 9862 H 928.79 -1.84878 -5.70912 0
M  V30 9863 H 929.86 -2.17515 -4.33377 0
M  V30 9864 N 931.203 1.46865 -0.571711 0
M  V30 9865 C 932.166 2.28658 0.157499 0
M  V30 9866 C 933.166 1.37773 0.829172 0
M  V30 9867 O 934.356 1.6026 0.682811 0
M  V30 9868 C 931.488 3.17859 1.23202 0
M  V30 9869 H 932.681 2.94603 -0.561171 0
M  V30 9870 H 930.234 1.52793 -0.329229 0
M  V30 9871 H 930.969 2.56637 1.98262 0
M  V30 9872 H 930.754 3.84762 0.755031 0
M  V30 9873 H 932.244 3.7945 1.74378 0
M  V30 9874 N 932.681 0.308908 1.54543 0
M  V30 9875 C 933.906 -0.303196 2.05172 0
M  V30 9876 C 934.331 -1.46133 1.18434 0
M  V30 9877 O 933.689 -1.803 0.190162 0
M  V30 9878 C 933.737 -0.729526 3.53143 0
M  V30 9879 O 932.841 -1.83348 3.69401 0
M  V30 9880 H 932.182 -0.0575066 0.661505 0
M  V30 9881 H 934.712 0.453055 1.99521 0
M  V30 9882 H 934.722 -1.01619 3.95143 0
M  V30 9883 H 933.397 0.117622 4.15734 0
M  V30 9884 H 931.974 -1.54676 3.39308 0
M  V30 9885 N 934.159 -1.57557 0.0367827 0
M  V30 9886 C 935.089 -2.13712 -0.940719 0
M  V30 9887 C 936.07 -1.05515 -1.33419 0
M  V30 9888 O 937.255 -1.33385 -1.41146 0
M  V30 9889 C 934.385 -2.67043 -2.22048 0
M  V30 9890 C 933.339 -3.80096 -1.96752 0
M  V30 9891 C 932.665 -4.19886 -3.31059 0
M  V30 9892 C 933.965 -5.05848 -1.30058 0
M  V30 9893 H 935.659 -2.9564 -0.473033 0
M  V30 9894 H 933.205 -1.42214 -0.226089 0
M  V30 9895 H 935.158 -3.04964 -2.90818 0
M  V30 9896 H 933.882 -1.82287 -2.70996 0
M  V30 9897 H 932.541 -3.42625 -1.30398 0
M  V30 9898 H 932.189 -3.32101 -3.77781 0
M  V30 9899 H 931.889 -4.96073 -3.14937 0
M  V30 9900 H 933.413 -4.60395 -4.01084 0
M  V30 9901 H 934.827 -5.41306 -1.8884 0
M  V30 9902 H 933.224 -5.87084 -1.24309 0
M  V30 9903 H 934.294 -4.84122 -0.274591 0
M  V30 9904 N 935.637 0.236453 -1.55816 0
M  V30 9905 C 936.862 0.98449 -1.82545 0
M  V30 9906 C 937.287 1.77755 -0.615206 0
M  V30 9907 O 936.645 1.75982 0.435895 0
M  V30 9908 C 936.693 1.88973 -3.07118 0
M  V30 9909 O 935.797 2.98298 -2.84766 0
M  V30 9910 H 935.138 0.279577 -0.602273 0
M  V30 9911 H 937.668 0.254277 -2.03014 0
M  V30 9912 H 937.678 2.3024 -3.36829 0
M  V30 9913 H 936.353 1.30671 -3.94839 0
M  V30 9914 H 934.93 2.61085 -2.6625 0
M  V30 9915 N 937.115 1.49373 0.502552 0
M  V30 9916 C 938.34 1.62752 1.28556 0
M  V30 9917 C 938.765 0.298285 1.8572 0
M  V30 9918 O 938.123 -0.733885 1.65782 0
M  V30 9919 C 938.171 2.69778 2.39274 0
M  V30 9920 O 937.275 2.28843 3.43081 0
M  V30 9921 H 936.616 0.544799 0.379592 0
M  V30 9922 H 939.146 1.9555 0.601792 0
M  V30 9923 H 939.156 2.91899 2.8506 0
M  V30 9924 H 937.831 3.66266 1.97033 0
M  V30 9925 H 936.408 2.17047 3.03224 0
M  V30 9926 N 938.594 -0.753485 1.38421 0
M  V30 9927 C 939.557 -1.84888 1.35459 0
M  V30 9928 C 940.557 -1.58764 0.255083 0
M  V30 9929 O 941.747 -1.66507 0.511978 0
M  V30 9930 C 938.879 -3.22361 1.10888 0
M  V30 9931 H 940.072 -1.88922 2.32913 0
M  V30 9932 H 937.625 -0.955199 1.23716 0
M  V30 9933 H 938.36 -3.23996 0.1404 0
M  V30 9934 H 938.145 -3.42717 1.90492 0
M  V30 9935 H 939.635 -4.02437 1.1151 0
M  V30 9936 N 940.072 -1.23292 -0.981677 0
M  V30 9937 C 941.002 -1.03738 -2.09191 0
M  V30 9938 C 941.983 0.0453041 -1.7004 0
M  V30 9939 O 943.168 -0.119092 -1.93834 0
M  V30 9940 C 940.298 -0.626426 -3.41604 0
M  V30 9941 C 939.252 -1.65631 -3.94652 0
M  V30 9942 C 938.578 -1.10084 -5.23245 0
M  V30 9943 C 939.878 -3.04903 -4.24066 0
M  V30 9944 H 941.572 -1.966 -2.25807 0
M  V30 9945 H 939.118 -0.946656 -1.0851 0
M  V30 9946 H 941.071 -0.476689 -4.18695 0
M  V30 9947 H 939.795 0.337873 -3.24848 0
M  V30 9948 H 938.454 -1.79402 -3.19704 0
M  V30 9949 H 938.102 -0.127562 -5.02838 0
M  V30 9950 H 937.802 -1.78896 -5.59705 0
M  V30 9951 H 939.326 -0.962928 -6.02959 0
M  V30 9952 H 940.74 -2.94441 -4.91912 0
M  V30 9953 H 939.137 -3.70941 -4.71724 0
M  V30 9954 H 940.207 -3.53991 -3.31389 0
M  V30 9955 N 941.55 1.18024 -1.04442 0
M  V30 9956 C 942.48 2.23988 -0.659683 0
M  V30 9957 C 943.461 1.6669 0.338904 0
M  V30 9958 O 944.646 1.92971 0.21817 0
M  V30 9959 C 941.776 3.4729 -0.0257672 0
M  V30 9960 C 940.73 4.17362 -0.948299 0
M  V30 9961 C 940.056 5.34401 -0.17866 0
M  V30 9962 C 941.356 4.70435 -2.26909 0
M  V30 9963 H 943.05 2.56425 -1.54553 0
M  V30 9964 H 940.596 1.23256 -0.744575 0
M  V30 9965 H 942.549 4.20627 0.255131 0
M  V30 9966 H 941.273 3.14098 0.894981 0
M  V30 9967 H 939.932 3.45928 -1.21364 0
M  V30 9968 H 939.58 4.97458 0.744614 0
M  V30 9969 H 939.28 5.8222 -0.793294 0
M  V30 9970 H 940.804 6.10526 0.0951315 0
M  V30 9971 H 942.218 5.35447 -2.04864 0
M  V30 9972 H 940.615 5.28803 -2.83703 0
M  V30 9973 H 941.685 3.87653 -2.91296 0
M  V30 9974 N 943.028 0.824394 1.34319 0
M  V30 9975 C 943.976 0.235628 2.31403 0
M  V30 9976 C 944.97 -0.624443 1.57471 0
M  V30 9977 O 946.176 -0.515618 1.72457 0
M  V30 9978 H 942.551 0.0574537 0.749802 0
M  V30 9979 H 944.522 1.06925 2.78585 0
M  V30 9980 C 943.271 -0.586617 3.42716 0
M  V30 9981 H 942.594 0.0658669 3.99746 0
M  V30 9982 H 944.034 -0.964661 4.1288 0
M  V30 9983 C 942.493 -1.75957 2.87299 0
M  V30 9984 O 943.023 -2.8578 2.82299 0
M  V30 9985 N 941.229 -1.57678 2.44102 0
M  V30 9986 H 940.776 -0.683436 2.48369 0
M  V30 9987 H 940.734 -2.36311 2.07375 0
M  V30 9988 N 944.506 -1.46559 0.579492 0
M  V30 9989 C 945.731 -2.0729 0.0674595 0
M  V30 9990 C 946.156 -1.4259 -1.22677 0
M  V30 9991 O 945.514 -0.50857 -1.74021 0
M  V30 9992 C 945.562 -3.60492 -0.0882227 0
M  V30 9993 O 944.666 -3.96172 -1.14551 0
M  V30 9994 H 944.007 -0.661159 0.0613536 0
M  V30 9995 H 946.537 -1.88247 0.801519 0
M  V30 9996 H 946.547 -4.06929 -0.295411 0
M  V30 9997 H 945.222 -4.06976 0.856943 0
M  V30 9998 H 943.799 -3.61448 -0.917033 0
M  V30 9999 N 945.984 -0.3171 -1.54377 0
M  V30 10000 C 946.947 0.53905 -2.22771 0
M  V30 10001 C 947.947 1.04865 -1.21901 0
M  V30 10002 O 949.137 0.942108 -1.46526 0
M  V30 10003 C 946.269 1.74804 -2.92671 0
M  V30 10004 H 947.462 -0.0587417 -2.99842 0
M  V30 10005 H 945.015 -0.068107 -1.56152 0
M  V30 10006 H 945.75 2.38524 -2.1972 0
M  V30 10007 H 945.535 1.39011 -3.66631 0
M  V30 10008 H 947.025 2.35592 -3.44799 0
M  V30 10009 N 947.462 1.57535 -0.0451378 0
M  V30 10010 C 948.392 2.14208 0.929372 0
M  V30 10011 C 949.373 1.06221 1.32858 0
M  V30 10012 O 950.558 1.34132 1.40436 0
M  V30 10013 C 947.688 2.68217 2.20629 0
M  V30 10014 C 946.642 3.81134 1.94734 0
M  V30 10015 C 945.968 4.21636 3.28828 0
M  V30 10016 C 947.268 5.06531 1.27374 0
M  V30 10017 H 948.962 2.95886 0.457348 0
M  V30 10018 H 946.508 1.42332 0.218544 0
M  V30 10019 H 948.461 3.06502 2.89196 0
M  V30 10020 H 947.185 1.83722 2.70026 0
M  V30 10021 H 945.844 3.43312 1.28579 0
M  V30 10022 H 945.492 3.34099 3.76014 0
M  V30 10023 H 945.192 4.97736 3.12302 0
M  V30 10024 H 946.716 4.62516 3.98637 0
M  V30 10025 H 948.13 5.423 1.85967 0
M  V30 10026 H 946.527 5.87735 1.21194 0
M  V30 10027 H 947.597 4.84261 0.248913 0
M  V30 10028 N 948.94 -0.228186 1.55939 0
M  V30 10029 C 949.872 -1.30605 1.88348 0
M  V30 10030 C 950.885 -1.43375 0.771198 0
M  V30 10031 O 952.074 -1.44391 1.04945 0
M  V30 10032 C 949.174 -2.68248 2.07115 0
M  V30 10033 C 948.347 -2.77509 3.38094 0
M  V30 10034 C 947.406 -3.96121 3.46373 0
M  V30 10035 O 946.432 -3.8477 4.19453 0
M  V30 10036 N 947.634 -5.10132 2.77031 0
M  V30 10037 H 950.399 -1.03132 2.81396 0
M  V30 10038 H 947.96 -0.418245 1.56404 0
M  V30 10039 H 949.952 -3.45966 2.09976 0
M  V30 10040 H 948.522 -2.88348 1.20723 0
M  V30 10041 H 947.742 -1.8632 3.47388 0
M  V30 10042 H 949.03 -2.80662 4.2439 0
M  V30 10043 H 948.428 -5.22249 2.17424 0
M  V30 10044 H 946.985 -5.85916 2.85561 0
M  V30 10045 N 950.418 -1.49637 -0.494624 0
M  V30 10046 C 951.365 -1.66776 -1.59545 0
M  V30 10047 C 952.335 -0.509159 -1.58104 0
M  V30 10048 O 953.52 -0.736949 -1.75993 0
M  V30 10049 C 950.66 -1.74624 -2.97658 0
M  V30 10050 C 949.773 -3.01831 -3.09067 0
M  V30 10051 C 948.908 -3.00619 -4.37952 0
M  V30 10052 C 947.947 -4.22378 -4.43016 0
M  V30 10053 N 947.084 -4.1904 -5.63339 0
M  V30 10054 H 951.924 -2.60767 -1.44238 0
M  V30 10055 H 949.461 -1.29286 -0.701673 0
M  V30 10056 H 951.419 -1.77156 -3.77719 0
M  V30 10057 H 950.049 -0.840936 -3.11654 0
M  V30 10058 H 949.101 -3.08881 -2.22029 0
M  V30 10059 H 950.413 -3.91823 -3.08669 0
M  V30 10060 H 949.567 -3.01749 -5.26339 0
M  V30 10061 H 948.306 -2.08416 -4.40924 0
M  V30 10062 H 947.311 -4.21485 -3.5303 0
M  V30 10063 H 948.536 -5.15781 -4.41755 0
M  V30 10064 H 946.482 -3.29677 -5.67141 0
M  V30 10065 H 946.399 -5.02774 -5.64583 0
M  V30 10066 H 947.667 -4.24281 -6.53916 0
M  V30 10067 N 951.896 0.746133 -1.38819 0
M  V30 10068 C 953.142 1.50669 -1.3664 0
M  V30 10069 C 953.497 1.92356 0.0411513 0
M  V30 10070 O 952.79 1.63104 1.00537 0
M  V30 10071 C 952.984 2.76639 -2.26286 0
M  V30 10072 C 952.813 2.47268 -3.75618 0
M  V30 10073 C 951.583 2.40116 -4.44603 0
M  V30 10074 C 953.781 2.13548 -4.67869 0
M  V30 10075 N 951.763 2.03098 -5.79331 0
M  V30 10076 C 953.134 1.86883 -5.91164 0
M  V30 10077 C 955.189 1.99922 -4.56 0
M  V30 10078 C 953.892 1.47965 -7.03917 0
M  V30 10079 C 955.918 1.62406 -5.68664 0
M  V30 10080 C 955.28 1.36618 -6.91025 0
M  V30 10081 H 951.379 0.550624 -0.555282 0
M  V30 10082 H 953.963 0.868179 -1.74272 0
M  V30 10083 H 952.134 3.38287 -1.9083 0
M  V30 10084 H 953.866 3.42753 -2.1518 0
M  V30 10085 H 950.621 2.56839 -3.97908 0
M  V30 10086 H 951.045 1.87214 -6.506 0
M  V30 10087 H 955.687 2.18531 -3.61945 0
M  V30 10088 H 953.405 1.28096 -7.97883 0
M  V30 10089 H 956.991 1.52483 -5.61462 0
M  V30 10090 H 955.871 1.08021 -7.76725 0
M  V30 10091 N 953.375 1.23811 0.975125 0
M  V30 10092 C 954.307 0.981779 2.07108 0
M  V30 10093 C 955.32 -0.0461211 1.62735 0
M  V30 10094 O 956.509 0.190039 1.77486 0
M  V30 10095 C 953.609 0.458364 3.35786 0
M  V30 10096 C 952.782 1.54767 4.09104 0
M  V30 10097 C 951.841 1.0282 5.16057 0
M  V30 10098 O 950.867 1.71831 5.42644 0
M  V30 10099 N 952.069 -0.141243 5.80328 0
M  V30 10100 H 954.834 1.92537 2.29673 0
M  V30 10101 H 952.395 1.1474 1.14221 0
M  V30 10102 H 954.387 0.0957686 4.04587 0
M  V30 10103 H 952.957 -0.390768 3.10148 0
M  V30 10104 H 952.177 2.08279 3.34684 0
M  V30 10105 H 953.465 2.28006 4.54853 0
M  V30 10106 H 952.863 -0.718382 5.6112 0
M  V30 10107 H 951.42 -0.445052 6.50279 0
M  V30 10108 N 954.853 -1.17469 1.05066 0
M  V30 10109 C 955.816 -2.19648 0.654793 0
M  V30 10110 C 956.816 -1.58107 -0.293063 0
M  V30 10111 O 958.006 -1.74029 -0.077106 0
M  V30 10112 C 955.138 -3.40878 -0.0384437 0
M  V30 10113 H 956.331 -2.56184 1.55915 0
M  V30 10114 H 953.884 -1.31528 0.844396 0
M  V30 10115 H 954.619 -3.09885 -0.956133 0
M  V30 10116 H 954.404 -3.86792 0.642961 0
M  V30 10117 H 955.894 -4.1651 -0.301568 0
M  V30 10118 N 956.331 -0.831506 -1.3388 0
M  V30 10119 C 957.261 -0.274378 -2.31882 0
M  V30 10120 C 958.242 0.613872 -1.58637 0
M  V30 10121 O 959.427 0.538961 -1.86571 0
M  V30 10122 C 956.557 0.557498 -3.42796 0
M  V30 10123 C 955.511 -0.234337 -4.27358 0
M  V30 10124 C 954.837 0.720825 -5.29819 0
M  V30 10125 C 956.137 -1.44732 -5.01847 0
M  V30 10126 H 957.831 -1.09322 -2.78728 0
M  V30 10127 H 955.377 -0.527136 -1.34005 0
M  V30 10128 H 957.33 0.957501 -4.10378 0
M  V30 10129 H 956.054 1.40947 -2.94621 0
M  V30 10130 H 954.713 -0.61581 -3.61391 0
M  V30 10131 H 954.361 1.569 -4.77903 0
M  V30 10132 H 954.061 0.195171 -5.87276 0
M  V30 10133 H 955.585 1.1185 -6.00268 0
M  V30 10134 H 956.999 -1.12087 -5.62236 0
M  V30 10135 H 955.396 -1.90923 -5.68919 0
M  V30 10136 H 956.466 -2.22099 -4.31045 0
M  V30 10137 N 957.809 1.4625 -0.587256 0
M  V30 10138 C 959.22 1.85997 -0.161918 0
M  V30 10139 C 959.571 1.49025 1.27616 0
M  V30 10140 O 958.696 0.907282 1.96462 0
M  V30 10141 C 959.291 3.37582 -0.287077 0
M  V30 10142 C 957.85 3.76308 0.0834211 0
M  V30 10143 C 956.997 2.70259 -0.620932 0
M  V30 10144 H 959.948 1.3734 -0.795199 0
M  V30 10145 H 959.969 3.77379 0.486333 0
M  V30 10146 H 959.481 3.64459 -1.33383 0
M  V30 10147 H 957.582 3.55047 1.13013 0
M  V30 10148 H 957.695 4.78184 -0.296064 0
M  V30 10149 H 956.059 2.54628 -0.0607027 0
M  V30 10150 H 956.842 2.99975 -1.66942 0
M  V30 10151 N 959.287 0.325282 1.54207 0
M  V30 10152 C 960.22 -0.582485 2.20641 0
M  V30 10153 C 961.198 -1.11441 1.18405 0
M  V30 10154 O 962.382 -1.17809 1.4715 0
M  V30 10155 C 959.509 -1.79944 2.86946 0
M  V30 10156 C 958.555 -1.39861 4.02916 0
M  V30 10157 S 959.388 -0.433859 5.3374 0
M  V30 10158 C 960.544 -1.65806 6.03539 0
M  V30 10159 H 960.777 -0.0181601 2.97294 0
M  V30 10160 H 958.31 0.109365 1.54012 0
M  V30 10161 H 960.268 -2.4977 3.25769 0
M  V30 10162 H 958.929 -2.33495 2.10092 0
M  V30 10163 H 958.122 -2.30547 4.48179 0
M  V30 10164 H 957.724 -0.780036 3.65775 0
M  V30 10165 H 960.016 -2.59524 6.25822 0
M  V30 10166 H 960.959 -1.24756 6.97023 0
M  V30 10167 H 961.367 -1.84581 5.3347 0
M  V30 10168 N 960.765 -1.57509 0.0534917 0
M  V30 10169 C 961.695 -2.14698 -0.917999 0
M  V30 10170 C 962.676 -1.06924 -1.32292 0
M  V30 10171 O 963.861 -1.34875 -1.39723 0
M  V30 10172 C 960.991 -2.69383 -2.19203 0
M  V30 10173 C 959.945 -3.82161 -1.9271 0
M  V30 10174 C 959.271 -4.23373 -3.26587 0
M  V30 10175 C 960.571 -5.07199 -1.24686 0
M  V30 10176 H 962.265 -2.96125 -0.44165 0
M  V30 10177 H 959.811 -1.42446 -0.210993 0
M  V30 10178 H 961.764 -3.08031 -2.87567 0
M  V30 10179 H 960.488 -1.85151 -2.69048 0
M  V30 10180 H 959.147 -3.43989 -1.26757 0
M  V30 10181 H 958.795 -3.36089 -3.74237 0
M  V30 10182 H 958.495 -4.99385 -3.09658 0
M  V30 10183 H 960.019 -4.64623 -3.96178 0
M  V30 10184 H 961.433 -5.43279 -1.83088 0
M  V30 10185 H 959.83 -5.88369 -1.18076 0
M  V30 10186 H 960.9 -4.84386 -0.223227 0
M  V30 10187 N 962.243 0.219913 -1.56058 0
M  V30 10188 C 963.153 1.29349 -1.95719 0
M  V30 10189 C 964.169 1.5119 -0.861248 0
M  V30 10190 O 965.345 1.64289 -1.16495 0
M  V30 10191 C 962.41 2.6229 -2.26726 0
M  V30 10192 C 961.471 2.48738 -3.49897 0
M  V30 10193 C 960.704 3.75339 -3.79416 0
M  V30 10194 O 960.927 4.78427 -3.10586 0
M  V30 10195 O 959.861 3.72352 -4.72903 0
M  V30 10196 H 963.687 0.986979 -2.87215 0
M  V30 10197 H 961.272 0.42291 -1.43289 0
M  V30 10198 H 963.154 3.408 -2.47857 0
M  V30 10199 H 961.829 2.92619 -1.38404 0
M  V30 10200 H 960.736 1.68422 -3.34043 0
M  V30 10201 H 962.069 2.23347 -4.38608 0
M  V30 10202 N 963.721 1.49897 0.486681 0
M  V30 10203 C 964.653 1.63755 1.60365 0
M  V30 10204 C 965.666 0.519614 1.54285 0
M  V30 10205 O 966.855 0.792219 1.59957 0
M  V30 10206 C 963.955 1.59153 2.99205 0
M  V30 10207 C 963.128 2.8672 3.30319 0
M  V30 10208 C 962.187 2.74974 4.48638 0
M  V30 10209 O 961.213 3.48922 4.49714 0
M  V30 10210 N 962.415 1.87479 5.49392 0
M  V30 10211 H 965.18 2.60094 1.48899 0
M  V30 10212 H 962.741 1.47166 0.674825 0
M  V30 10213 H 964.733 1.4893 3.76301 0
M  V30 10214 H 963.303 0.706133 3.0452 0
M  V30 10215 H 962.523 3.11188 2.41983 0
M  V30 10216 H 963.811 3.71262 3.47911 0
M  V30 10217 H 963.209 1.26684 5.51333 0
M  V30 10218 H 961.766 1.83169 6.25534 0
M  V30 10219 N 965.199 -0.738761 1.39212 0
M  V30 10220 C 966.61 -1.31684 1.32348 0
M  V30 10221 C 966.961 -1.96195 -0.0139041 0
M  V30 10222 O 966.086 -1.96056 -0.916025 0
M  V30 10223 C 966.681 -2.39444 2.39691 0
M  V30 10224 C 965.24 -2.92935 2.36359 0
M  V30 10225 C 964.387 -1.66465 2.21776 0
M  V30 10226 H 967.338 -0.536543 1.49355 0
M  V30 10227 H 967.359 -3.19744 2.06262 0
M  V30 10228 H 966.871 -1.92463 3.37016 0
M  V30 10229 H 964.972 -3.44207 1.42662 0
M  V30 10230 H 965.085 -3.46306 3.31073 0
M  V30 10231 H 963.449 -1.90657 1.68884 0
M  V30 10232 H 964.232 -1.21541 3.21065 0
M  V30 10233 N 966.677 -1.24326 -0.968545 0
M  V30 10234 C 967.923 -1.08406 -1.71394 0
M  V30 10235 C 968.256 0.376353 -1.90518 0
M  V30 10236 O 967.531 1.27816 -1.46606 0
M  V30 10237 C 967.814 -1.82344 -3.1052 0
M  V30 10238 C 967.667 -3.3613 -2.98893 0
M  V30 10239 C 968.986 -1.59545 -4.10163 0
M  V30 10240 H 966.105 -0.395205 -0.622079 0
M  V30 10241 H 968.747 -1.52983 -1.12677 0
M  V30 10242 H 966.897 -1.44452 -3.60646 0
M  V30 10243 H 968.569 -3.83614 -2.56199 0
M  V30 10244 H 966.812 -3.64553 -2.35124 0
M  V30 10245 H 967.483 -3.83064 -3.97449 0
M  V30 10246 H 969.959 -1.92504 -3.68892 0
M  V30 10247 H 968.835 -2.13736 -5.05577 0
M  V30 10248 H 969.096 -0.533503 -4.38869 0
M  V30 10249 N 968.156 1.1691 -1.05688 0
M  V30 10250 C 969.119 2.19297 -0.666433 0
M  V30 10251 C 970.119 1.5826 0.284674 0
M  V30 10252 O 971.309 1.74068 0.0678757 0
M  V30 10253 C 968.441 3.40894 0.0203656 0
M  V30 10254 H 969.634 2.55354 -1.57272 0
M  V30 10255 H 967.187 1.31078 -0.851359 0
M  V30 10256 H 967.922 3.10388 0.939686 0
M  V30 10257 H 967.707 3.86446 -0.663464 0
M  V30 10258 H 969.197 4.16664 0.279475 0
M  V30 10259 N 969.634 0.838594 1.33437 0
M  V30 10260 C 970.597 0.276843 2.27522 0
M  V30 10261 C 971.597 -0.554275 1.50945 0
M  V30 10262 O 972.787 -0.368107 1.70266 0
M  V30 10263 C 969.919 -0.610036 3.35397 0
M  V30 10264 H 971.112 1.10705 2.78719 0
M  V30 10265 H 968.665 0.611657 1.43835 0
M  V30 10266 H 969.4 -1.46269 2.89441 0
M  V30 10267 H 969.185 -0.0153615 3.92097 0
M  V30 10268 H 970.675 -0.996368 4.05539 0
M  V30 10269 N 971.112 -1.45937 0.595003 0
M  V30 10270 C 972.36 -2.01921 0.0851368 0
M  V30 10271 C 972.681 -1.46748 -1.28413 0
M  V30 10272 O 971.951 -0.656873 -1.84559 0
M  V30 10273 H 970.531 -0.746457 0.0284826 0
M  V30 10274 H 973.193 -1.78891 0.773561 0
M  V30 10275 H 972.289 -3.1209 0.0254002 0
M  V30 10276 N 972.59 -0.333456 -1.54032 0
M  V30 10277 C 973.5 0.536674 -2.28379 0
M  V30 10278 C 974.516 1.12068 -1.33104 0
M  V30 10279 O 975.692 1.13853 -1.66131 0
M  V30 10280 C 972.757 1.67677 -3.03456 0
M  V30 10281 C 971.818 1.12357 -4.14336 0
M  V30 10282 C 971.051 2.20933 -4.85823 0
M  V30 10283 O 971.274 3.41466 -4.569 0
M  V30 10284 O 970.208 1.85795 -5.72507 0
M  V30 10285 H 974.034 -0.0674003 -3.03625 0
M  V30 10286 H 971.619 -0.098823 -1.49073 0
M  V30 10287 H 973.501 2.34032 -3.50438 0
M  V30 10288 H 972.176 2.26684 -2.31076 0
M  V30 10289 H 971.083 0.424827 -3.7168 0
M  V30 10290 H 972.416 0.578497 -4.88789 0
M  V30 10291 N 974.068 1.57479 -0.061844 0
M  V30 10292 C 975.001 2.07734 0.94455 0
M  V30 10293 C 975.979 0.980207 1.29733 0
M  V30 10294 O 977.163 1.2529 1.40836 0
M  V30 10295 C 974.29 2.52673 2.25553 0
M  V30 10296 C 973.336 3.73725 2.05503 0
M  V30 10297 S 974.169 5.18886 1.32354 0
M  V30 10298 C 975.325 5.67148 2.64753 0
M  V30 10299 H 975.558 2.92772 0.516888 0
M  V30 10300 H 973.091 1.53663 0.150684 0
M  V30 10301 H 975.049 2.79226 3.00904 0
M  V30 10302 H 973.71 1.67921 2.65445 0
M  V30 10303 H 972.903 4.03125 3.025 0
M  V30 10304 H 972.505 3.47494 1.3829 0
M  V30 10305 H 974.797 5.73385 3.60882 0
M  V30 10306 H 975.74 6.66196 2.39976 0
M  V30 10307 H 976.148 4.94921 2.71502 0
M  V30 10308 N 975.546 -0.211634 1.56173 0
M  V30 10309 C 976.771 -0.955324 1.84088 0
M  V30 10310 C 977.196 -1.76754 0.643407 0
M  V30 10311 O 976.554 -1.76653 -0.407842 0
M  V30 10312 C 976.602 -1.84063 3.10085 0
M  V30 10313 O 975.706 -2.9373 2.89476 0
M  V30 10314 H 975.047 -0.26996 0.606645 0
M  V30 10315 H 977.577 -0.221947 2.03393 0
M  V30 10316 H 977.587 -2.24852 3.40449 0
M  V30 10317 H 976.262 -1.24373 3.96868 0
M  V30 10318 H 974.839 -2.56816 2.7037 0
M  V30 10319 N 977.024 -1.50153 -0.478725 0
M  V30 10320 C 978.435 -1.53706 -1.05978 0
M  V30 10321 C 978.786 -0.336112 -1.933 0
M  V30 10322 O 977.911 0.551803 -2.09246 0
M  V30 10323 C 978.506 -2.78541 -1.92874 0
M  V30 10324 C 977.065 -2.848 -2.46102 0
M  V30 10325 C 976.212 -2.47902 -1.24257 0
M  V30 10326 H 979.163 -1.56528 -0.261664 0
M  V30 10327 H 979.184 -2.59964 -2.77847 0
M  V30 10328 H 978.696 -3.6593 -1.29293 0
M  V30 10329 H 976.797 -2.01744 -3.13257 0
M  V30 10330 H 976.91 -3.87511 -2.81731 0
M  V30 10331 H 975.274 -2.0017 -1.57493 0
M  V30 10332 H 976.057 -3.3759 -0.62351 0
M  V30 10333 N 978.502 0.731368 -1.39602 0
M  V30 10334 C 979.748 1.49321 -1.37227 0
M  V30 10335 C 980.081 1.94176 0.0306502 0
M  V30 10336 O 979.356 1.67046 0.996294 0
M  V30 10337 C 979.639 2.73035 -2.34784 0
M  V30 10338 C 979.492 2.34176 -3.84033 0
M  V30 10339 C 980.811 3.75146 -2.30116 0
M  V30 10340 H 977.93 0.541652 -0.499783 0
M  V30 10341 H 980.572 0.835968 -1.70621 0
M  V30 10342 H 978.722 3.29114 -2.06437 0
M  V30 10343 H 980.394 1.83701 -4.23145 0
M  V30 10344 H 978.637 1.66361 -4.00633 0
M  V30 10345 H 979.308 3.22786 -4.47787 0
M  V30 10346 H 981.784 3.28661 -2.55189 0
M  V30 10347 H 980.66 4.5937 -3.00451 0
M  V30 10348 H 980.921 4.22326 -1.30741 0
M  V30 10349 N 979.98 1.24838 0.961938 0
M  V30 10350 C 981.229 1.0855 1.69999 0
M  V30 10351 C 981.542 -0.374645 1.91979 0
M  V30 10352 O 982.748 -0.657822 2.6341 0
M  V30 10353 C 981.204 1.89424 3.06017 0
M  V30 10354 C 980.812 3.39885 2.9186 0
M  V30 10355 C 982.556 1.81684 3.83655 0
M  V30 10356 C 980.463 4.13082 4.23223 0
M  V30 10357 H 979.393 0.402603 0.637516 0
M  V30 10358 H 982.044 1.4897 1.07146 0
M  V30 10359 H 980.426 1.41823 3.69733 0
M  V30 10360 H 981.6 3.95108 2.37121 0
M  V30 10361 H 979.915 3.4864 2.27683 0
M  V30 10362 H 982.512 2.3367 4.80939 0
M  V30 10363 H 982.855 0.783247 4.08865 0
M  V30 10364 H 983.388 2.26997 3.26676 0
M  V30 10365 H 980.127 5.16824 4.03204 0
M  V30 10366 H 979.647 3.62644 4.77755 0
M  V30 10367 H 981.326 4.20397 4.91808 0
M  V30 10368 N 981.458 -1.16348 1.06306 0
M  V30 10369 C 982.406 -2.22799 0.668087 0
M  V30 10370 C 983.4 -1.66426 -0.316051 0
M  V30 10371 O 984.606 -1.79089 -0.180902 0
M  V30 10372 H 980.981 -0.725487 0.19792 0
M  V30 10373 H 982.952 -2.53401 1.57577 0
M  V30 10374 C 981.701 -3.47628 0.0706797 0
M  V30 10375 H 981.024 -3.9132 0.819064 0
M  V30 10376 H 982.464 -4.23666 -0.16816 0
M  V30 10377 C 980.923 -3.15343 -1.18577 0
M  V30 10378 O 981.453 -3.31158 -2.27371 0
M  V30 10379 N 979.659 -2.69472 -1.08779 0
M  V30 10380 H 979.206 -2.56803 -0.202447 0
M  V30 10381 H 979.164 -2.48244 -1.92931 0
M  V30 10382 N 982.937 -0.845659 -1.3299 0
M  V30 10383 C 984.348 -0.50048 -1.79867 0
M  V30 10384 C 984.699 0.981027 -1.69913 0
M  V30 10385 O 983.824 1.76477 -1.25239 0
M  V30 10386 C 984.419 -0.901679 -3.26581 0
M  V30 10387 C 982.978 -0.608536 -3.71448 0
M  V30 10388 C 982.125 -1.10632 -2.54275 0
M  V30 10389 H 985.076 -1.03372 -1.20416 0
M  V30 10390 H 985.097 -0.214433 -3.79895 0
M  V30 10391 H 984.609 -1.97998 -3.33794 0
M  V30 10392 H 982.71 0.459416 -3.69757 0
M  V30 10393 H 982.823 -1.16853 -4.64631 0
M  V30 10394 H 981.187 -0.526925 -2.4919 0
M  V30 10395 H 981.97 -2.19154 -2.64247 0
M  V30 10396 N 984.415 1.45619 -0.602734 0
M  V30 10397 C 985.378 2.28941 0.108962 0
M  V30 10398 C 986.378 1.39501 0.799762 0
M  V30 10399 O 987.568 1.61673 0.648663 0
M  V30 10400 C 984.7 3.204 1.16432 0
M  V30 10401 H 985.893 2.93346 -0.623534 0
M  V30 10402 H 983.446 1.52061 -0.361565 0
M  V30 10403 H 984.181 2.60785 1.92774 0
M  V30 10404 H 983.966 3.86277 0.673248 0
M  V30 10405 H 985.456 3.83063 1.6629 0
M  V30 10406 N 985.893 0.34162 1.53853 0
M  V30 10407 C 986.803 -0.524555 2.2866 0
M  V30 10408 C 987.819 -1.1136 1.33697 0
M  V30 10409 O 988.995 -1.1297 1.66732 0
M  V30 10410 C 986.06 -1.66065 3.04341 0
M  V30 10411 C 985.121 -1.10158 4.14926 0
M  V30 10412 C 984.354 -2.18353 4.86988 0
M  V30 10413 O 984.577 -3.39038 4.58704 0
M  V30 10414 O 983.511 -1.82756 5.73484 0
M  V30 10415 H 987.337 0.0835014 3.03585 0
M  V30 10416 H 984.922 0.106727 1.49018 0
M  V30 10417 H 986.804 -2.3217 3.51674 0
M  V30 10418 H 985.479 -2.25456 2.32275 0
M  V30 10419 H 984.386 -0.405109 3.719 0
M  V30 10420 H 985.719 -0.552567 4.89088 0
M  V30 10421 N 987.371 -1.57444 0.0701946 0
M  V30 10422 C 988.782 -1.80875 -0.462709 0
M  V30 10423 C 989.133 -0.983975 -1.69742 0
M  V30 10424 O 988.258 -0.206027 -2.15417 0
M  V30 10425 C 988.853 -3.28062 -0.84623 0
M  V30 10426 C 987.412 -3.52345 -1.32401 0
M  V30 10427 C 986.559 -2.7558 -0.308399 0
M  V30 10428 H 989.51 -1.55917 0.295907 0
M  V30 10429 H 989.531 -3.40023 -1.70776 0
M  V30 10430 H 989.043 -3.88064 0.0526033 0
M  V30 10431 H 987.144 -2.97645 -2.24139 0
M  V30 10432 H 987.257 -4.6104 -1.30304 0
M  V30 10433 H 985.621 -2.4229 -0.785337 0
M  V30 10434 H 986.404 -3.38319 0.582679 0
M  V30 10435 N 988.849 0.203349 -1.56283 0
M  V30 10436 C 989.796 1.25205 -1.93888 0
M  V30 10437 C 990.766 1.45654 -0.798376 0
M  V30 10438 O 991.951 1.58924 -1.05583 0
M  V30 10439 C 989.091 2.59355 -2.27659 0
M  V30 10440 C 988.204 2.46553 -3.54733 0
M  V30 10441 C 987.339 3.73351 -3.77865 0
M  V30 10442 C 986.378 3.55347 -4.98392 0
M  V30 10443 N 985.515 4.74137 -5.17821 0
M  V30 10444 H 990.355 0.924356 -2.83301 0
M  V30 10445 H 987.892 0.445082 -1.40205 0
M  V30 10446 H 989.85 3.375 -2.45254 0
M  V30 10447 H 988.48 2.90184 -1.41396 0
M  V30 10448 H 987.532 1.59749 -3.45231 0
M  V30 10449 H 988.844 2.2918 -4.43033 0
M  V30 10450 H 987.998 4.59937 -3.95655 0
M  V30 10451 H 986.737 3.9367 -2.8788 0
M  V30 10452 H 985.742 2.67146 -4.80534 0
M  V30 10453 H 986.967 3.36482 -5.89879 0
M  V30 10454 H 984.913 4.94735 -4.30782 0
M  V30 10455 H 984.83 4.59558 -6.00285 0
M  V30 10456 H 986.098 5.62098 -5.40061 0
M  V30 10457 N 990.327 1.50405 0.470755 0
M  V30 10458 C 991.604 1.51929 1.23195 0
M  V30 10459 C 991.984 0.264159 2.09441 0
M  V30 10460 O 991.332 -0.752395 2.15757 0
M  V30 10461 C 991.542 2.81521 2.06269 0
M  V30 10462 C 992.89 3.32195 2.64446 0
M  V30 10463 O 993.914 2.82845 2.16511 0
M  V30 10464 O 992.773 4.18221 3.51786 0
M  V30 10465 H 989.867 0.609411 0.559059 0
M  V30 10466 H 992.413 1.62695 0.482549 0
M  V30 10467 H 991.185 3.64346 1.42715 0
M  V30 10468 H 990.808 2.7376 2.88342 0
M  V30 10469 N 991.805 -0.723954 1.39988 0
M  V30 10470 C 993.054 -1.47922 1.3712 0
M  V30 10471 C 993.367 -1.95582 -0.0263665 0
M  V30 10472 O 994.573 -2.70918 -0.177652 0
M  V30 10473 C 993.029 -2.67342 2.40949 0
M  V30 10474 C 992.637 -2.26586 3.86475 0
M  V30 10475 C 994.381 -3.45116 2.47174 0
M  V30 10476 C 992.288 -3.42794 4.81919 0
M  V30 10477 H 991.218 -0.555522 0.509815 0
M  V30 10478 H 993.869 -0.788692 1.65686 0
M  V30 10479 H 992.251 -3.38524 2.0547 0
M  V30 10480 H 993.425 -1.62878 4.31054 0
M  V30 10481 H 991.74 -1.61876 3.83647 0
M  V30 10482 H 994.337 -4.31573 3.15672 0
M  V30 10483 H 994.68 -3.8835 1.49966 0
M  V30 10484 H 995.213 -2.80971 2.81602 0
M  V30 10485 H 991.952 -3.046 5.8043 0
M  V30 10486 H 991.472 -4.05445 4.42012 0
M  V30 10487 H 993.151 -4.08977 5.01345 0
M  V30 10488 N 993.283 -1.25346 -0.955304 0
M  V30 10489 C 994.529 -1.10218 -1.70235 0
M  V30 10490 C 994.862 0.356124 -1.90907 0
M  V30 10491 O 994.137 1.26253 -1.47954 0
M  V30 10492 C 994.42 -1.85627 -3.08569 0
M  V30 10493 C 994.273 -3.39281 -2.95311 0
M  V30 10494 C 995.592 -1.63886 -4.08448 0
M  V30 10495 H 992.711 -0.401781 -0.617852 0
M  V30 10496 H 995.353 -1.5417 -1.11048 0
M  V30 10497 H 993.503 -1.48269 -3.59094 0
M  V30 10498 H 995.175 -3.8631 -2.52116 0
M  V30 10499 H 993.418 -3.67027 -2.31244 0
M  V30 10500 H 994.089 -3.87258 -3.93364 0
M  V30 10501 H 996.565 -1.96406 -3.6683 0
M  V30 10502 H 995.441 -2.19087 -5.03281 0
M  V30 10503 H 995.702 -0.580021 -4.38279 0
M  V30 10504 N 994.761 1.15782 -1.06922 0
M  V30 10505 C 996.009 1.86097 -0.788192 0
M  V30 10506 C 996.33 1.82475 0.687606 0
M  V30 10507 O 995.6 1.26266 1.49778 0
M  V30 10508 H 994.18 0.689008 -0.288577 0
M  V30 10509 H 996.842 1.40377 -1.35205 0
M  V30 10510 H 995.938 2.91358 -1.1188 0
M  V30 10511 N 996.239 0.8527 1.3254 0
M  V30 10512 C 997.469 0.468363 2.01221 0
M  V30 10513 C 997.877 -0.938966 1.64256 0
M  V30 10514 O 997.22 -1.62387 0.858837 0
M  V30 10515 C 997.282 0.525457 3.55639 0
M  V30 10516 C 996.946 1.89133 4.16026 0
M  V30 10517 C 997.943 2.85652 4.34395 0
M  V30 10518 C 995.628 2.18795 4.52144 0
M  V30 10519 C 997.622 4.09985 4.88048 0
M  V30 10520 C 995.309 3.43381 5.05502 0
M  V30 10521 C 996.307 4.38792 5.23403 0
M  V30 10522 O 995.995 5.61173 5.75622 0
M  V30 10523 H 995.727 0.182712 0.65084 0
M  V30 10524 H 998.281 1.15076 1.70138 0
M  V30 10525 H 996.511 -0.213779 3.86109 0
M  V30 10526 H 998.2 0.156999 4.05596 0
M  V30 10527 H 998.966 2.6404 4.06827 0
M  V30 10528 H 994.845 1.45317 4.37498 0
M  V30 10529 H 998.389 4.84465 5.01936 0
M  V30 10530 H 994.286 3.64844 5.32503 0
M  V30 10531 H 995.054 5.63104 5.94017 0
M  V30 10532 N 997.718 -1.45297 0.610449 0
M  V30 10533 C 998.964 -2.02518 0.106917 0
M  V30 10534 C 999.297 -1.47747 -1.26034 0
M  V30 10535 O 998.572 -0.65329 -1.832 0
M  V30 10536 C 998.855 -3.6003 0.0710975 0
M  V30 10537 C 998.708 -4.25128 1.46922 0
M  V30 10538 C 1000.03 -4.35778 -0.61524 0
M  V30 10539 H 997.146 -0.735896 0.040327 0
M  V30 10540 H 999.788 -1.73117 0.782968 0
M  V30 10541 H 997.938 -3.85209 -0.504611 0
M  V30 10542 H 999.61 -4.11125 2.09223 0
M  V30 10543 H 997.853 -3.83418 2.02911 0
M  V30 10544 H 998.524 -5.34046 1.39637 0
M  V30 10545 H 1001 -4.1591 -0.125871 0
M  V30 10546 H 999.876 -5.45506 -0.609419 0
M  V30 10547 H 1000.14 -4.08859 -1.68186 0
M  V30 10548 N 999.196 -0.349774 -1.5367 0
M  V30 10549 C 1000.61 0.00191293 -1.596 0
M  V30 10550 C 1000.81 1.48175 -1.36552 0
M  V30 10551 O 999.868 2.24129 -1.16285 0
M  V30 10552 C 1001.18 -0.439848 -2.97466 0
M  V30 10553 C 1002.73 -0.392721 -3.10526 0
M  V30 10554 C 1003.2 -0.810047 -4.5078 0
M  V30 10555 N 1004.69 -0.764478 -4.56848 0
M  V30 10556 C 1005.43 -1.05927 -5.63531 0
M  V30 10557 N 1004.93 -1.42253 -6.78038 0
M  V30 10558 N 1006.72 -0.983098 -5.53436 0
M  V30 10559 H 998.87 -1.31364 -1.66905 0
M  V30 10560 H 1001.13 -0.535908 -0.781989 0
M  V30 10561 H 1000.84 -1.47189 -3.19419 0
M  V30 10562 H 1000.71 0.181735 -3.76762 0
M  V30 10563 H 1003.1 0.630161 -2.88293 0
M  V30 10564 H 1003.18 -1.04959 -2.33275 0
M  V30 10565 H 1002.82 -1.83097 -4.73749 0
M  V30 10566 H 1002.75 -0.130591 -5.26438 0
M  V30 10567 H 1005.25 -0.496637 -3.74622 0
M  V30 10568 H 1005.56 -1.63215 -7.55368 0
M  V30 10569 H 1003.9 -1.46104 -6.79469 0
M  V30 10570 H 1007.09 -0.698601 -4.62858 0
M  V30 10571 H 1007.27 -1.21618 -6.36485 0
M  V30 10572 N 1000.67 1.57404 -0.0785433 0
M  V30 10573 C 1001.58 2.16612 0.900902 0
M  V30 10574 C 1002.6 1.13109 1.32221 0
M  V30 10575 O 1003.78 1.45406 1.39352 0
M  V30 10576 C 1000.84 2.7215 2.14791 0
M  V30 10577 C 999.902 3.90551 1.78237 0
M  V30 10578 C 999.135 4.43431 2.96993 0
M  V30 10579 O 999.358 3.95292 4.11218 0
M  V30 10580 O 998.292 5.34674 2.76418 0
M  V30 10581 H 1002.12 3.0068 0.427227 0
M  V30 10582 H 999.703 1.48696 0.144902 0
M  V30 10583 H 1001.58 3.07718 2.87902 0
M  V30 10584 H 1000.26 1.91139 2.61243 0
M  V30 10585 H 999.167 3.59825 1.02357 0
M  V30 10586 H 1000.5 4.72876 1.36562 0
M  V30 10587 N 1002.15 -0.195058 1.56388 0
M  V30 10588 C 1003.11 -1.2254 1.93692 0
M  V30 10589 C 1004.11 -1.38437 0.81804 0
M  V30 10590 O 1005.3 -1.36248 1.08545 0
M  V30 10591 C 1002.44 -2.59476 2.21099 0
M  V30 10592 H 1003.63 -0.906544 2.8587 0
M  V30 10593 H 1001.18 -0.436577 1.50079 0
M  V30 10594 H 1001.92 -2.96417 1.31558 0
M  V30 10595 H 1001.7 -2.4931 3.02634 0
M  V30 10596 H 1003.19 -3.33777 2.50964 0
M  V30 10597 N 1003.63 -1.50653 -0.462772 0
M  V30 10598 C 1004.86 -1.65826 -1.23731 0
M  V30 10599 C 1005.27 -0.345002 -1.85621 0
M  V30 10600 O 1004.63 0.673935 -1.69601 0
M  V30 10601 C 1004.68 -2.7555 -2.33997 0
M  V30 10602 O 1004.4 -4.01785 -1.74643 0
M  V30 10603 C 1005.9 -3.0177 -3.2473 0
M  V30 10604 H 1003.12 -0.557177 -0.373892 0
M  V30 10605 H 1005.67 -1.96925 -0.551434 0
M  V30 10606 H 1003.82 -2.47122 -2.98345 0
M  V30 10607 H 1004.24 -4.62529 -2.4732 0
M  V30 10608 H 1005.71 -3.82188 -3.98292 0
M  V30 10609 H 1006.19 -2.13167 -3.84001 0
M  V30 10610 H 1006.79 -3.31761 -2.66111 0
M  V30 10611 N 1005.11 0.71652 -1.4037 0
M  V30 10612 C 1006.52 1.29562 -1.34427 0
M  V30 10613 C 1006.87 1.96192 -0.0173106 0
M  V30 10614 O 1006 1.97488 0.884719 0
M  V30 10615 C 1006.59 2.35601 -2.4347 0
M  V30 10616 C 1005.15 2.89138 -2.4099 0
M  V30 10617 C 1004.3 1.62915 -2.24397 0
M  V30 10618 H 1007.25 0.512715 -1.5019 0
M  V30 10619 H 1007.27 3.16422 -2.11323 0
M  V30 10620 H 1006.78 1.87077 -3.40035 0
M  V30 10621 H 1004.88 3.41894 -1.4812 0
M  V30 10622 H 1004.99 3.40995 -3.3654 0
M  V30 10623 H 1003.36 1.87947 -1.71896 0
M  V30 10624 H 1004.14 1.16417 -3.22958 0
M  V30 10625 N 1006.59 1.25851 0.948643 0
M  V30 10626 C 1008 1.02802 1.22081 0
M  V30 10627 C 1008.2 -0.251461 1.99925 0
M  V30 10628 O 1007.26 -0.962592 2.33432 0
M  V30 10629 C 1008.57 2.25489 1.98936 0
M  V30 10630 C 1010.12 2.30312 2.11956 0
M  V30 10631 C 1010.59 3.52671 2.92211 0
M  V30 10632 N 1012.09 3.53103 2.99787 0
M  V30 10633 C 1012.82 4.44445 3.62294 0
M  V30 10634 N 1012.32 5.46065 4.26362 0
M  V30 10635 N 1014.11 4.32113 3.59493 0
M  V30 10636 H 1006.26 2.08042 0.428044 0
M  V30 10637 H 1008.52 0.913928 0.251872 0
M  V30 10638 H 1008.23 3.18513 1.4914 0
M  V30 10639 H 1008.1 2.2914 2.99624 0
M  V30 10640 H 1010.49 1.37808 2.60946 0
M  V30 10641 H 1010.57 2.30676 1.10554 0
M  V30 10642 H 1010.22 4.45501 2.43909 0
M  V30 10643 H 1010.15 3.49554 3.93853 0
M  V30 10644 H 1012.64 2.79597 2.54232 0
M  V30 10645 H 1012.95 6.11964 4.71932 0
M  V30 10646 H 1011.29 5.49931 4.24972 0
M  V30 10647 H 1014.49 3.51946 3.08629 0
M  V30 10648 H 1014.66 5.03493 4.0792 0
M  V30 10649 N 1008.06 -1.15214 1.07534 0
M  V30 10650 C 1008.97 -2.23636 0.708818 0
M  V30 10651 C 1009.99 -1.7172 -0.280759 0
M  V30 10652 O 1011.17 -2.01 -0.126927 0
M  V30 10653 C 1008.23 -3.46512 0.114167 0
M  V30 10654 C 1007.29 -4.13409 1.15722 0
M  V30 10655 C 1006.53 -5.30419 0.59085 0
M  V30 10656 O 1006.75 -5.67314 -0.592512 0
M  V30 10657 O 1005.68 -5.86871 1.33663 0
M  V30 10658 H 1009.51 -2.57322 1.61305 0
M  V30 10659 H 1007.09 -1.22972 0.848422 0
M  V30 10660 H 1008.98 -4.20851 -0.215091 0
M  V30 10661 H 1007.65 -3.1457 -0.763356 0
M  V30 10662 H 1006.56 -3.40984 1.53886 0
M  V30 10663 H 1007.89 -4.49435 2.00671 0
M  V30 10664 N 1009.54 -0.859717 -1.32086 0
M  V30 10665 C 1010.79 -0.466271 -1.97367 0
M  V30 10666 C 1011.12 0.976728 -1.6785 0
M  V30 10667 O 1010.4 1.68618 -0.969449 0
M  V30 10668 C 1010.68 -0.711851 -3.52994 0
M  V30 10669 C 1010.53 -2.20364 -3.92122 0
M  V30 10670 C 1011.85 -0.17156 -4.39765 0
M  V30 10671 H 1008.97 -0.170883 -0.716916 0
M  V30 10672 H 1011.61 -1.07907 -1.56384 0
M  V30 10673 H 1009.76 -0.190258 -3.88034 0
M  V30 10674 H 1011.43 -2.7917 -3.67236 0
M  V30 10675 H 1009.68 -2.68019 -3.41099 0
M  V30 10676 H 1010.35 -2.32615 -5.00594 0
M  V30 10677 H 1012.82 -0.617665 -4.1149 0
M  V30 10678 H 1011.7 -0.372921 -5.47632 0
M  V30 10679 H 1011.96 0.925959 -4.32294 0
M  V30 10680 N 1011.02 1.44971 -0.618145 0
M  V30 10681 C 1011.93 2.34403 0.0960457 0
M  V30 10682 C 1012.95 1.51862 0.849355 0
M  V30 10683 O 1014.12 1.84632 0.804557 0
M  V30 10684 C 1011.19 3.29646 1.07397 0
M  V30 10685 C 1010.25 4.28095 0.321466 0
M  V30 10686 C 1009.48 5.18787 1.25281 0
M  V30 10687 O 1009.7 5.1313 2.49106 0
M  V30 10688 O 1008.64 5.97282 0.744156 0
M  V30 10689 H 1012.46 2.96898 -0.639176 0
M  V30 10690 H 1010.05 1.44529 -0.37837 0
M  V30 10691 H 1011.93 3.88307 1.63694 0
M  V30 10692 H 1010.61 2.69702 1.79004 0
M  V30 10693 H 1009.51 3.73019 -0.284223 0
M  V30 10694 H 1010.85 4.90923 -0.354315 0
M  V30 10695 N 1012.5 0.357919 1.53482 0
M  V30 10696 C 1013.43 -0.526753 2.23065 0
M  V30 10697 C 1014.44 -1.05239 1.24212 0
M  V30 10698 O 1015.63 -0.960078 1.50482 0
M  V30 10699 C 1012.73 -1.73919 2.9087 0
M  V30 10700 C 1011.91 -1.34638 4.16163 0
M  V30 10701 C 1010.96 -2.42005 4.67247 0
M  V30 10702 O 1009.99 -2.04714 5.31113 0
M  V30 10703 N 1011.19 -3.73478 4.44404 0
M  V30 10704 H 1013.96 0.0692386 2.9962 0
M  V30 10705 H 1011.52 0.182726 1.60866 0
M  V30 10706 H 1013.51 -2.45207 3.21956 0
M  V30 10707 H 1012.08 -2.24223 2.17814 0
M  V30 10708 H 1011.3 -0.463667 3.91464 0
M  V30 10709 H 1012.59 -1.06012 4.97633 0
M  V30 10710 H 1011.99 -4.06555 3.93357 0
M  V30 10711 H 1010.54 -4.40893 4.80059 0
M  V30 10712 N 1013.98 -1.5736 0.0868897 0
M  V30 10713 C 1014.94 -2.12436 -0.860439 0
M  V30 10714 C 1015.94 -1.05175 -1.21634 0
M  V30 10715 O 1017.13 -1.31098 -1.14713 0
M  V30 10716 C 1014.26 -2.63818 -2.159 0
M  V30 10717 H 1015.45 -2.97453 -0.382346 0
M  V30 10718 H 1013.01 -1.55458 -0.162009 0
M  V30 10719 H 1013.74 -1.82298 -2.68212 0
M  V30 10720 H 1013.53 -3.42234 -1.91359 0
M  V30 10721 H 1015.02 -3.06452 -2.83685 0
M  V30 10722 N 1015.45 0.186762 -1.56489 0
M  V30 10723 C 1016.38 1.23395 -1.98232 0
M  V30 10724 C 1017.37 1.4702 -0.855526 0
M  V30 10725 O 1018.55 1.58616 -1.12048 0
M  V30 10726 C 1015.68 2.57635 -2.32898 0
M  V30 10727 C 1014.63 2.48607 -3.48394 0
M  V30 10728 C 1013.96 3.87196 -3.68759 0
M  V30 10729 C 1015.26 2.00398 -4.82325 0
M  V30 10730 H 1016.95 0.887026 -2.85958 0
M  V30 10731 H 1014.5 0.42525 -1.37578 0
M  V30 10732 H 1016.45 3.31082 -2.60696 0
M  V30 10733 H 1015.18 2.94084 -1.42064 0
M  V30 10734 H 1013.84 1.77615 -3.207 0
M  V30 10735 H 1013.48 4.21012 -2.75241 0
M  V30 10736 H 1013.18 3.82029 -4.46462 0
M  V30 10737 H 1014.71 4.62253 -3.98941 0
M  V30 10738 H 1016.12 2.6361 -5.091 0
M  V30 10739 H 1014.52 2.06214 -5.63556 0
M  V30 10740 H 1015.59 0.957562 -4.75351 0
M  V30 10741 N 1016.93 1.50896 0.454776 0
M  V30 10742 C 1017.84 1.73762 1.5762 0
M  V30 10743 C 1018.86 0.621206 1.62533 0
M  V30 10744 O 1020.03 0.901449 1.801 0
M  V30 10745 C 1017.1 1.84183 2.9373 0
M  V30 10746 C 1016.16 3.07982 2.99075 0
M  V30 10747 C 1015.39 3.17896 4.28693 0
M  V30 10748 O 1015.62 2.34184 5.20109 0
M  V30 10749 O 1014.55 4.10749 4.39964 0
M  V30 10750 H 1018.38 2.68856 1.41245 0
M  V30 10751 H 1015.96 1.35187 0.635984 0
M  V30 10752 H 1017.84 1.93123 3.74542 0
M  V30 10753 H 1016.52 0.922742 3.10269 0
M  V30 10754 H 1015.43 3.04531 2.17282 0
M  V30 10755 H 1016.76 3.99523 2.87476 0
M  V30 10756 N 1018.41 -0.709066 1.40748 0
M  V30 10757 C 1019.64 -1.50313 1.42901 0
M  V30 10758 C 1020.06 -1.88072 0.032213 0
M  V30 10759 O 1019.42 -1.53716 -0.96131 0
M  V30 10760 C 1019.47 -2.75074 2.33166 0
M  V30 10761 O 1018.57 -3.72036 1.7794 0
M  V30 10762 H 1017.91 -0.452934 0.485538 0
M  V30 10763 H 1020.44 -0.872712 1.85054 0
M  V30 10764 H 1020.45 -3.23532 2.48578 0
M  V30 10765 H 1019.13 -2.46927 3.34664 0
M  V30 10766 H 1017.7 -3.30911 1.71908 0
M  V30 10767 N 1019.89 -1.26353 -0.941956 0
M  V30 10768 C 1020.85 -1.07904 -2.02211 0
M  V30 10769 C 1021.85 -0.0276283 -1.60776 0
M  V30 10770 O 1023.04 -0.270965 -1.7208 0
M  V30 10771 C 1020.17 -0.641084 -3.34818 0
M  V30 10772 H 1021.37 -2.03804 -2.20009 0
M  V30 10773 H 1018.92 -1.08939 -1.12081 0
M  V30 10774 H 1019.66 0.319943 -3.22718 0
M  V30 10775 H 1019.44 -1.40027 -3.66244 0
M  V30 10776 H 1020.93 -0.533826 -4.14174 0
M  V30 10777 N 1021.37 1.14642 -1.08144 0
M  V30 10778 C 1022.61 1.85892 -0.810683 0
M  V30 10779 C 1022.95 1.82575 0.661821 0
M  V30 10780 O 1022.22 1.25454 1.48632 0
M  V30 10781 C 1022.5 3.34647 -1.32979 0
M  V30 10782 C 1022.36 3.46551 -2.86744 0
M  V30 10783 C 1023.68 4.29661 -0.952864 0
M  V30 10784 H 1020.8 0.674963 -0.295963 0
M  V30 10785 H 1023.44 1.3464 -1.3406 0
M  V30 10786 H 1021.59 3.78425 -0.87903 0
M  V30 10787 H 1023.26 3.11579 -3.40171 0
M  V30 10788 H 1021.5 2.87849 -3.24539 0
M  V30 10789 H 1022.17 4.51101 -3.18138 0
M  V30 10790 H 1024.65 3.93885 -1.34141 0
M  V30 10791 H 1023.53 5.32209 -1.34331 0
M  V30 10792 H 1023.79 4.41877 0.140392 0
M  V30 10793 N 1022.85 0.866709 1.31628 0
M  V30 10794 C 1023.79 0.309128 2.30537 0
M  V30 10795 C 1024.79 -0.574028 1.59378 0
M  V30 10796 O 1025.99 -0.460491 1.7401 0
M  V30 10797 H 1022.37 0.081279 0.747595 0
M  V30 10798 H 1024.34 1.15734 2.75042 0
M  V30 10799 C 1023.09 -0.477287 3.44409 0
M  V30 10800 H 1022.41 0.19301 3.99334 0
M  V30 10801 H 1023.85 -0.832818 4.1574 0
M  V30 10802 C 1022.31 -1.66727 2.92752 0
M  V30 10803 O 1022.84 -2.76654 2.91248 0
M  V30 10804 N 1021.05 -1.49833 2.48995 0
M  V30 10805 H 1020.59 -0.604073 2.50417 0
M  V30 10806 H 1020.55 -2.29594 2.14788 0
M  V30 10807 N 1024.32 -1.44642 0.625825 0
M  V30 10808 C 1025.27 -2.32408 -0.0945221 0
M  V30 10809 C 1026.27 -1.47038 -0.841198 0
M  V30 10810 O 1027.47 -1.63415 -0.754698 0
M  V30 10811 H 1023.85 -0.75038 -0.0493321 0
M  V30 10812 H 1025.82 -2.90922 0.663863 0
M  V30 10813 C 1024.57 -3.30951 -1.06615 0
M  V30 10814 H 1023.89 -3.96648 -0.501021 0
M  V30 10815 H 1025.33 -3.95054 -1.53976 0
M  V30 10816 C 1023.79 -2.59479 -2.14877 0
M  V30 10817 O 1024.32 -2.38974 -3.22885 0
M  V30 10818 N 1022.52 -2.19307 -1.90665 0
M  V30 10819 H 1022.07 -2.36184 -1.02835 0
M  V30 10820 H 1022.03 -1.71811 -2.63303 0
M  V30 10821 N 1025.8 -0.366053 -1.5329 0
M  V30 10822 C 1026.76 0.467904 -2.24373 0
M  V30 10823 C 1027.76 1.00934 -1.25176 0
M  V30 10824 O 1028.95 0.895015 -1.49449 0
M  V30 10825 C 1026.09 1.65405 -2.98084 0
M  V30 10826 H 1027.28 -0.154105 -2.99504 0
M  V30 10827 H 1024.83 -0.117751 -1.55856 0
M  V30 10828 H 1025.57 2.31413 -2.27197 0
M  V30 10829 H 1025.35 1.27277 -3.70868 0
M  V30 10830 H 1026.84 2.24503 -3.52119 0
M  V30 10831 N 1027.28 1.57312 -0.0952337 0
M  V30 10832 C 1028.69 1.81589 0.433875 0
M  V30 10833 C 1029.04 1.01086 1.68155 0
M  V30 10834 O 1028.17 0.240272 2.15062 0
M  V30 10835 C 1028.76 3.29366 0.793931 0
M  V30 10836 C 1027.32 3.54407 1.26778 0
M  V30 10837 C 1026.47 2.76035 0.264518 0
M  V30 10838 H 1029.42 1.55426 -0.320675 0
M  V30 10839 H 1029.44 3.42697 1.65345 0
M  V30 10840 H 1028.95 3.87932 -0.114334 0
M  V30 10841 H 1027.05 3.01173 2.19376 0
M  V30 10842 H 1027.17 4.63055 1.22952 0
M  V30 10843 H 1025.53 2.43509 0.746691 0
M  V30 10844 H 1026.31 3.37349 -0.636429 0
M  V30 10845 N 1028.76 -0.17846 1.56586 0
M  V30 10846 C 1030.01 -0.894502 1.8078 0
M  V30 10847 C 1030.32 -1.8372 0.67129 0
M  V30 10848 O 1031.53 -2.59509 0.797971 0
M  V30 10849 C 1029.98 -1.64109 3.20306 0
M  V30 10850 C 1029.59 -0.742387 4.41806 0
M  V30 10851 C 1031.33 -2.34578 3.53798 0
M  V30 10852 C 1029.24 -1.4888 5.72354 0
M  V30 10853 H 1028.17 -0.33776 0.674117 0
M  V30 10854 H 1030.82 -0.14752 1.82906 0
M  V30 10855 H 1029.2 -2.43257 3.12477 0
M  V30 10856 H 1030.38 0.011615 4.60799 0
M  V30 10857 H 1028.69 -0.147705 4.16138 0
M  V30 10858 H 1031.29 -2.91004 4.48577 0
M  V30 10859 H 1031.63 -3.09572 2.78336 0
M  V30 10860 H 1032.17 -1.62381 3.63149 0
M  V30 10861 H 1028.9 -0.781325 6.50827 0
M  V30 10862 H 1028.42 -2.21631 5.57351 0
M  V30 10863 H 1030.1 -2.03819 6.14058 0
M  V30 10864 N 1030.24 -1.51135 -0.446768 0
M  V30 10865 C 1031.48 -1.64542 -1.19573 0
M  V30 10866 C 1031.84 -0.352728 -1.89139 0
M  V30 10867 O 1031.13 0.650917 -1.80204 0
M  V30 10868 C 1031.32 -2.78034 -2.2457 0
M  V30 10869 C 1031.15 -4.18214 -1.65308 0
M  V30 10870 C 1029.92 -4.84284 -1.44212 0
M  V30 10871 C 1032.12 -5.01631 -1.13451 0
M  V30 10872 N 1030.1 -6.08606 -0.804486 0
M  V30 10873 C 1031.47 -6.16876 -0.621577 0
M  V30 10874 C 1033.53 -4.87227 -1.02537 0
M  V30 10875 C 1032.23 -7.19299 -0.0102361 0
M  V30 10876 C 1034.26 -5.8985 -0.427936 0
M  V30 10877 C 1033.62 -7.04361 0.0745026 0
M  V30 10878 H 1029.72 -0.656068 -0.425556 0
M  V30 10879 H 1032.3 -1.88334 -0.493802 0
M  V30 10880 H 1030.47 -2.55922 -2.92162 0
M  V30 10881 H 1032.21 -2.8067 -2.91558 0
M  V30 10882 H 1028.96 -4.4199 -1.70123 0
M  V30 10883 H 1029.38 -6.75126 -0.503379 0
M  V30 10884 H 1034.03 -3.98959 -1.39971 0
M  V30 10885 H 1031.74 -8.07224 0.376252 0
M  V30 10886 H 1035.33 -5.80773 -0.34552 0
M  V30 10887 H 1034.21 -7.8241 0.529535 0
M  V30 10888 N 1031.71 0.701592 -1.41122 0
M  V30 10889 C 1032.96 1.4616 -1.40155 0
M  V30 10890 C 1033.29 1.94498 -0.00861553 0
M  V30 10891 O 1032.54 1.69484 0.978452 0
M  V30 10892 C 1032.84 2.693 -2.34973 0
M  V30 10893 C 1032.51 2.39652 -3.81939 0
M  V30 10894 C 1031.17 2.31277 -4.21977 0
M  V30 10895 C 1033.52 2.15076 -4.74755 0
M  V30 10896 C 1030.85 1.96413 -5.52846 0
M  V30 10897 C 1033.2 1.81722 -6.05937 0
M  V30 10898 C 1031.87 1.71838 -6.45002 0
M  V30 10899 H 1031.14 0.534837 -0.512865 0
M  V30 10900 H 1033.78 0.802425 -1.73878 0
M  V30 10901 H 1032.09 3.40123 -1.94484 0
M  V30 10902 H 1033.79 3.27427 -2.31501 0
M  V30 10903 H 1030.38 2.47063 -3.50226 0
M  V30 10904 H 1034.56 2.20495 -4.4463 0
M  V30 10905 H 1029.82 1.87308 -5.82001 0
M  V30 10906 H 1033.99 1.61723 -6.77362 0
M  V30 10907 H 1031.62 1.44591 -7.46323 0
M  V30 10908 N 1033.19 1.2685 0.935242 0
M  V30 10909 C 1034.15 1.08975 2.01636 0
M  V30 10910 C 1035.15 0.0361543 1.60759 0
M  V30 10911 O 1036.34 0.280087 1.71934 0
M  V30 10912 C 1033.48 0.658831 3.34473 0
M  V30 10913 H 1034.67 2.04968 2.18925 0
M  V30 10914 H 1032.22 1.09531 1.11501 0
M  V30 10915 H 1032.96 -0.302824 3.22883 0
M  V30 10916 H 1032.74 1.41967 3.65497 0
M  V30 10917 H 1034.23 0.555783 4.13885 0
M  V30 10918 N 1034.67 -1.14067 1.0875 0
M  V30 10919 C 1035.9 -1.89041 0.840902 0
M  V30 10920 C 1036.31 -1.78768 -0.60725 0
M  V30 10921 O 1035.67 -1.14945 -1.41753 0
M  V30 10922 C 1035.72 -3.38891 1.25838 0
M  V30 10923 O 1035.44 -3.48886 2.64972 0
M  V30 10924 C 1036.94 -4.30852 1.04315 0
M  V30 10925 H 1034.16 -0.598685 0.303014 0
M  V30 10926 H 1036.71 -1.44438 1.44769 0
M  V30 10927 H 1034.86 -3.81103 0.695627 0
M  V30 10928 H 1035.28 -4.41989 2.82393 0
M  V30 10929 H 1036.75 -5.34353 1.38461 0
M  V30 10930 H 1037.23 -4.39196 -0.0195784 0
M  V30 10931 H 1037.83 -3.944 1.59151 0
M  V30 10932 N 1036.15 -0.873678 -1.31166 0
M  V30 10933 C 1037.56 -0.53852 -1.78765 0
M  V30 10934 C 1037.91 0.944765 -1.71955 0
M  V30 10935 O 1037.04 1.73781 -1.28954 0
M  V30 10936 C 1037.63 -0.970749 -3.24595 0
M  V30 10937 C 1036.19 -0.687189 -3.70074 0
M  V30 10938 C 1035.34 -1.16001 -2.51871 0
M  V30 10939 H 1038.29 -1.05903 -1.18196 0
M  V30 10940 H 1038.31 -0.294966 -3.79355 0
M  V30 10941 H 1037.82 -2.05034 -3.29519 0
M  V30 10942 H 1035.92 0.380881 -3.70648 0
M  V30 10943 H 1036.03 -1.26682 -4.62048 0
M  V30 10944 H 1034.4 -0.579663 -2.48016 0
M  V30 10945 H 1035.18 -2.2471 -2.59539 0
M  V30 10946 N 1037.63 1.44308 -0.633487 0
M  V30 10947 C 1039.04 1.85387 -0.221009 0
M  V30 10948 C 1039.39 1.5301 1.22811 0
M  V30 10949 O 1038.51 0.969325 1.93476 0
M  V30 10950 C 1039.11 3.36497 -0.394331 0
M  V30 10951 C 1037.67 3.76382 -0.0363405 0
M  V30 10952 C 1036.81 2.68146 -0.706598 0
M  V30 10953 H 1039.77 1.34741 -0.83849 0
M  V30 10954 H 1039.79 3.78735 0.366026 0
M  V30 10955 H 1039.3 3.60031 -1.44911 0
M  V30 10956 H 1037.4 3.58463 1.01661 0
M  V30 10957 H 1037.51 4.77 -0.448045 0
M  V30 10958 H 1035.88 2.54306 -0.14168 0
M  V30 10959 H 1036.66 2.94512 -1.76401 0
M  V30 10960 N 1039.1 0.374177 1.53094 0
M  V30 10961 C 1040.07 -0.455999 2.24618 0
M  V30 10962 C 1041.07 -1.00269 1.25709 0
M  V30 10963 O 1042.26 -0.887077 1.49922 0
M  V30 10964 C 1039.39 -1.63822 2.98957 0
M  V30 10965 H 1040.58 0.169986 2.99418 0
M  V30 10966 H 1038.14 0.126015 1.55791 0
M  V30 10967 H 1038.87 -2.30205 2.28421 0
M  V30 10968 H 1038.66 -1.25308 3.71538 0
M  V30 10969 H 1040.15 -2.22633 3.53305 0
M  V30 10970 N 1040.58 -1.57259 0.103575 0
M  V30 10971 C 1041.49 -2.18018 -0.866327 0
M  V30 10972 C 1042.51 -1.15198 -1.30404 0
M  V30 10973 O 1043.68 -1.47605 -1.37021 0
M  V30 10974 C 1040.75 -2.75533 -2.10434 0
M  V30 10975 C 1039.81 -3.93337 -1.72002 0
M  V30 10976 C 1039.04 -4.481 -2.89901 0
M  V30 10977 O 1039.27 -4.01784 -4.04877 0
M  V30 10978 O 1038.2 -5.39004 -2.67877 0
M  V30 10979 H 1042.03 -3.01322 -0.379338 0
M  V30 10980 H 1039.61 -1.48907 -0.121228 0
M  V30 10981 H 1041.49 -3.12259 -2.8297 0
M  V30 10982 H 1040.17 -1.9527 -2.58169 0
M  V30 10983 H 1039.08 -3.61408 -0.966193 0
M  V30 10984 H 1040.41 -4.74989 -1.29022 0
M  V30 10985 N 1042.06 0.170153 -1.56679 0
M  V30 10986 C 1043.48 0.521966 -1.50823 0
M  V30 10987 C 1043.68 1.84589 -0.808037 0
M  V30 10988 O 1042.73 2.49791 -0.368891 0
M  V30 10989 C 1044.05 0.553648 -2.95559 0
M  V30 10990 C 1045.59 0.640769 -3.06371 0
M  V30 10991 C 1046.07 0.703332 -4.52567 0
M  V30 10992 N 1047.56 0.76619 -4.56819 0
M  V30 10993 C 1048.29 0.835192 -5.67285 0
M  V30 10994 N 1047.79 0.864957 -6.87379 0
M  V30 10995 N 1049.58 0.874302 -5.55259 0
M  V30 10996 H 1041.73 -0.697952 -2.00605 0
M  V30 10997 H 1044 -0.251787 -0.913952 0
M  V30 10998 H 1043.7 -0.350498 -3.49949 0
M  V30 10999 H 1043.58 1.39973 -3.50268 0
M  V30 11000 H 1045.96 1.53534 -2.52015 0
M  V30 11001 H 1046.05 -0.232008 -2.54746 0
M  V30 11002 H 1045.69 -0.186986 -5.07556 0
M  V30 11003 H 1045.62 1.59227 -5.0195 0
M  V30 11004 H 1048.11 0.751424 -3.70354 0
M  V30 11005 H 1048.42 0.918814 -7.67318 0
M  V30 11006 H 1046.77 0.833215 -6.89987 0
M  V30 11007 H 1049.96 0.848057 -4.60354 0
M  V30 11008 H 1050.13 0.924615 -6.4137 0
M  V30 11009 N 1043.54 1.5137 0.438746 0
M  V30 11010 C 1044.5 1.71993 1.51496 0
M  V30 11011 C 1045.5 0.589978 1.49586 0
M  V30 11012 O 1046.69 0.857505 1.51633 0
M  V30 11013 C 1043.82 1.77508 2.91039 0
M  V30 11014 H 1045.02 2.68041 1.34514 0
M  V30 11015 H 1042.57 1.41338 0.667326 0
M  V30 11016 H 1043.3 0.832698 3.13427 0
M  V30 11017 H 1043.09 2.59627 2.9383 0
M  V30 11018 H 1044.58 1.95308 3.69113 0
M  V30 11019 N 1045.02 -0.694098 1.41492 0
M  V30 11020 C 1045.98 -1.78976 1.43179 0
M  V30 11021 C 1046.98 -1.57539 0.322191 0
M  V30 11022 O 1048.17 -1.64185 0.582138 0
M  V30 11023 C 1045.3 -3.17368 1.2446 0
M  V30 11024 H 1046.49 -1.78874 2.40716 0
M  V30 11025 H 1044.05 -0.901867 1.27656 0
M  V30 11026 H 1044.78 -3.23109 0.277691 0
M  V30 11027 H 1044.57 -3.3433 2.04856 0
M  V30 11028 H 1046.06 -3.97345 1.28479 0
M  V30 11029 N 1046.49 -1.27344 -0.928501 0
M  V30 11030 C 1047.74 -1.13019 -1.67061 0
M  V30 11031 C 1048.06 0.323614 -1.92904 0
M  V30 11032 O 1049.26 0.587752 -2.65062 0
M  V30 11033 C 1047.72 -1.97471 -3.00887 0
M  V30 11034 C 1047.33 -3.47504 -2.82746 0
M  V30 11035 C 1049.07 -1.91792 -3.78703 0
M  V30 11036 C 1046.98 -4.24158 -4.12122 0
M  V30 11037 H 1045.91 -0.419364 -0.626618 0
M  V30 11038 H 1048.56 -1.51759 -1.03158 0
M  V30 11039 H 1046.94 -1.51576 -3.65843 0
M  V30 11040 H 1048.11 -4.01256 -2.26562 0
M  V30 11041 H 1046.43 -3.54554 -2.18359 0
M  V30 11042 H 1049.03 -2.46339 -4.74575 0
M  V30 11043 H 1049.37 -0.891375 -4.06645 0
M  V30 11044 H 1049.9 -2.35578 -3.20543 0
M  V30 11045 H 1046.64 -5.27333 -3.89359 0
M  V30 11046 H 1046.16 -3.75183 -4.67972 0
M  V30 11047 H 1047.84 -4.33288 -4.80489 0
M  V30 11048 N 1047.97 1.13488 -1.09353 0
M  V30 11049 C 1048.9 2.20988 -0.75409 0
M  V30 11050 C 1049.88 1.67977 0.267901 0
M  V30 11051 O 1051.07 1.93722 0.136128 0
M  V30 11052 C 1048.2 3.46869 -0.173042 0
M  V30 11053 C 1047.15 4.12965 -1.12446 0
M  V30 11054 C 1046.48 5.33163 -0.405157 0
M  V30 11055 C 1047.78 4.60388 -2.46658 0
M  V30 11056 H 1049.47 2.49639 -1.6529 0
M  V30 11057 H 1047.02 1.19987 -0.796182 0
M  V30 11058 H 1048.97 4.21331 0.0764988 0
M  V30 11059 H 1047.7 3.17611 0.760956 0
M  V30 11060 H 1046.35 3.40469 -1.35927 0
M  V30 11061 H 1046 5.00169 0.532955 0
M  V30 11062 H 1045.7 5.78332 -1.03952 0
M  V30 11063 H 1047.23 6.1038 -0.163899 0
M  V30 11064 H 1048.64 5.26276 -2.27389 0
M  V30 11065 H 1047.04 5.16294 -3.05876 0
M  V30 11066 H 1048.11 3.74949 -3.07476 0
M  V30 11067 N 1049.45 0.880621 1.30701 0
M  V30 11068 C 1050.4 0.315679 2.25804 0
M  V30 11069 C 1051.39 -0.553382 1.51084 0
M  V30 11070 O 1052.58 -0.398518 1.72455 0
M  V30 11071 C 1049.71 -0.472586 3.40032 0
M  V30 11072 C 1048.79 0.410318 4.2211 0
M  V30 11073 N 1049.18 1.50876 4.82773 0
M  V30 11074 C 1047.48 0.20465 4.4553 0
M  V30 11075 C 1048.18 2.05409 5.44226 0
M  V30 11076 N 1047.16 1.34964 5.26579 0
M  V30 11077 H 1050.96 1.15505 2.70251 0
M  V30 11078 H 1048.47 0.729547 1.45091 0
M  V30 11079 H 1050.47 -0.893918 4.07204 0
M  V30 11080 H 1049.13 -1.30945 2.97125 0
M  V30 11081 H 1050.14 1.89163 4.82118 0
M  V30 11082 H 1046.82 -0.595398 4.13233 0
M  V30 11083 H 1048.21 2.97627 6.02385 0
M  V30 11084 N 1050.93 -1.4397 0.641131 0
M  V30 11085 C 1052.35 -1.56607 0.30762 0
M  V30 11086 C 1052.55 -1.62694 -1.18882 0
M  V30 11087 O 1051.6 -1.57541 -1.97325 0
M  V30 11088 C 1052.91 -2.83289 1.00834 0
M  V30 11089 C 1054.46 -2.97016 0.98744 0
M  V30 11090 C 1054.94 -4.26514 1.66882 0
M  V30 11091 N 1056.43 -4.33351 1.63589 0
M  V30 11092 C 1057.16 -5.32292 2.13196 0
M  V30 11093 N 1056.66 -6.37582 2.71038 0
M  V30 11094 N 1058.45 -5.23866 2.03766 0
M  V30 11095 H 1050.6 -1.38262 1.61237 0
M  V30 11096 H 1052.87 -0.663221 0.677378 0
M  V30 11097 H 1052.57 -2.84812 2.06337 0
M  V30 11098 H 1052.45 -3.73134 0.552333 0
M  V30 11099 H 1054.83 -2.95041 -0.0591395 0
M  V30 11100 H 1054.91 -2.08493 1.48203 0
M  V30 11101 H 1054.56 -4.2925 2.71491 0
M  V30 11102 H 1054.49 -5.13912 1.14898 0
M  V30 11103 H 1056.98 -3.5788 1.21368 0
M  V30 11104 H 1057.29 -7.09378 3.06597 0
M  V30 11105 H 1055.64 -6.38239 2.75093 0
M  V30 11106 H 1058.83 -4.40524 1.58291 0
M  V30 11107 H 1059 -6.00819 2.42737 0
M  V30 11108 N 1052.41 -0.382291 -1.52893 0
M  V30 11109 C 1053.37 0.44408 -2.24857 0
M  V30 11110 C 1054.37 0.996004 -1.26239 0
M  V30 11111 O 1055.56 0.879114 -1.5039 0
M  V30 11112 C 1052.69 1.62234 -2.99822 0
M  V30 11113 H 1053.89 -0.185862 -2.99324 0
M  V30 11114 H 1051.44 -0.134275 -1.55722 0
M  V30 11115 H 1052.17 2.28991 -2.29638 0
M  V30 11116 H 1051.96 1.23336 -3.72197 0
M  V30 11117 H 1053.45 2.20756 -3.54481 0
M  V30 11118 N 1053.89 1.57202 -0.111913 0
M  V30 11119 C 1054.85 2.13778 0.826534 0
M  V30 11120 C 1055.85 1.07097 1.19945 0
M  V30 11121 O 1057.04 1.32906 1.12613 0
M  V30 11122 C 1054.17 2.6722 2.11675 0
M  V30 11123 H 1055.36 2.98023 0.334975 0
M  V30 11124 H 1052.92 1.55696 0.137256 0
M  V30 11125 H 1053.65 1.86542 2.65278 0
M  V30 11126 H 1053.44 3.45235 1.8589 0
M  V30 11127 H 1054.93 3.10926 2.78774 0
M  V30 11128 N 1055.36 -0.161842 1.56767 0
M  V30 11129 C 1056.61 -0.878224 1.82798 0
M  V30 11130 C 1056.94 -1.81481 0.691242 0
M  V30 11131 O 1056.22 -1.92075 -0.30618 0
M  V30 11132 C 1056.5 -1.66565 3.19262 0
M  V30 11133 C 1056.35 -0.751551 4.43477 0
M  V30 11134 C 1057.67 -2.63134 3.52773 0
M  V30 11135 H 1054.79 -0.317828 0.664947 0
M  V30 11136 H 1057.43 -0.14402 1.89453 0
M  V30 11137 H 1055.58 -2.29157 3.13719 0
M  V30 11138 H 1057.26 -0.137783 4.61094 0
M  V30 11139 H 1055.5 -0.0601785 4.33758 0
M  V30 11140 H 1056.17 -1.33823 5.35533 0
M  V30 11141 H 1058.65 -2.10666 3.5883 0
M  V30 11142 H 1057.52 -3.15289 4.49315 0
M  V30 11143 H 1057.78 -3.43786 2.77963 0
M  V30 11144 N 1056.84 -1.516 -0.430713 0
M  V30 11145 C 1057.77 -1.76342 -1.53054 0
M  V30 11146 C 1058.75 -0.61349 -1.58652 0
M  V30 11147 O 1059.94 -0.856888 -1.74273 0
M  V30 11148 C 1057.07 -1.8945 -2.91077 0
M  V30 11149 C 1056.02 -3.04928 -3.00339 0
M  V30 11150 C 1055.35 -3.03228 -4.40405 0
M  V30 11151 C 1056.65 -4.44777 -2.73808 0
M  V30 11152 H 1058.34 -2.68435 -1.326 0
M  V30 11153 H 1055.89 -1.29171 -0.636466 0
M  V30 11154 H 1057.84 -2.05343 -3.67984 0
M  V30 11155 H 1056.56 -0.940114 -3.12777 0
M  V30 11156 H 1055.22 -2.88751 -2.25872 0
M  V30 11157 H 1054.87 -2.05553 -4.59083 0
M  V30 11158 H 1054.57 -3.80776 -4.47531 0
M  V30 11159 H 1056.1 -3.21222 -5.19277 0
M  V30 11160 H 1057.51 -4.6127 -3.40445 0
M  V30 11161 H 1055.91 -5.2408 -2.92335 0
M  V30 11162 H 1056.98 -4.54358 -1.69372 0
M  V30 11163 N 1058.32 0.686584 -1.41858 0
M  V30 11164 C 1059.25 1.81107 -1.38836 0
M  V30 11165 C 1060.23 1.60599 -0.254293 0
M  V30 11166 O 1061.41 1.83229 -0.442641 0
M  V30 11167 C 1058.54 3.17928 -1.16787 0
M  V30 11168 C 1057.59 3.5721 -2.33031 0
M  V30 11169 S 1058.42 3.60986 -3.95536 0
M  V30 11170 C 1059.58 5.00519 -3.75808 0
M  V30 11171 H 1059.81 1.83396 -2.33994 0
M  V30 11172 H 1057.34 0.856146 -1.28489 0
M  V30 11173 H 1059.3 3.9691 -1.04752 0
M  V30 11174 H 1057.96 3.1324 -0.232335 0
M  V30 11175 H 1057.15 4.56629 -2.13321 0
M  V30 11176 H 1056.76 2.8556 -2.41519 0
M  V30 11177 H 1059.05 5.88272 -3.36069 0
M  V30 11178 H 1059.99 5.25273 -4.74862 0
M  V30 11179 H 1060.4 4.72481 -3.08904 0
M  V30 11180 N 1059.8 1.27835 0.921735 0
M  V30 11181 C 1060.71 1.12904 2.05645 0
M  V30 11182 C 1061.72 0.0575704 1.73905 0
M  V30 11183 O 1062.9 0.265261 1.99645 0
M  V30 11184 C 1059.96 0.783957 3.3772 0
M  V30 11185 C 1059.03 1.93694 3.8312 0
M  V30 11186 C 1058.26 1.60823 5.08893 0
M  V30 11187 O 1058.48 0.518873 5.68035 0
M  V30 11188 O 1057.42 2.44932 5.49811 0
M  V30 11189 H 1061.24 2.08143 2.21157 0
M  V30 11190 H 1058.83 1.07078 1.04185 0
M  V30 11191 H 1060.71 0.605107 4.17033 0
M  V30 11192 H 1059.38 -0.138849 3.23402 0
M  V30 11193 H 1058.29 2.17089 3.04669 0
M  V30 11194 H 1059.62 2.84016 4.0199 0
M  V30 11195 N 1061.28 -1.12907 1.09954 0
M  V30 11196 C 1062.5 -1.88679 0.861099 0
M  V30 11197 C 1062.93 -1.78853 -0.582499 0
M  V30 11198 O 1062.28 -1.13992 -1.4098 0
M  V30 11199 C 1062.33 -3.36047 1.30785 0
M  V30 11200 O 1061.44 -4.09716 0.469728 0
M  V30 11201 H 1060.78 -0.586447 0.31141 0
M  V30 11202 H 1063.31 -1.42818 1.46507 0
M  V30 11203 H 1063.32 -3.86882 1.29562 0
M  V30 11204 H 1061.99 -3.42516 2.35914 0
M  V30 11205 H 1060.57 -3.6887 0.54674 0
M  V30 11206 N 1062.75 -0.88754 -1.30232 0
M  V30 11207 C 1063.69 -0.313488 -2.27046 0
M  V30 11208 C 1064.7 0.533383 -1.53814 0
M  V30 11209 O 1065.89 0.352516 -1.74984 0
M  V30 11210 C 1062.99 0.572674 -3.34026 0
M  V30 11211 C 1062.16 -0.245712 -4.36709 0
M  V30 11212 C 1061.22 0.57135 -5.23089 0
M  V30 11213 O 1060.25 -0.00685948 -5.692 0
M  V30 11214 N 1061.45 1.87994 -5.49216 0
M  V30 11215 H 1064.21 -1.14553 -2.76943 0
M  V30 11216 H 1061.77 -0.750785 -1.43439 0
M  V30 11217 H 1063.77 1.12539 -3.88738 0
M  V30 11218 H 1062.34 1.3054 -2.84039 0
M  V30 11219 H 1061.56 -0.979869 -3.81827 0
M  V30 11220 H 1062.84 -0.806618 -5.02366 0
M  V30 11221 H 1062.24 2.3726 -5.13541 0
M  V30 11222 H 1060.8 2.38005 -6.06792 0
M  V30 11223 N 1064.23 1.43628 -0.648757 0
M  V30 11224 C 1065.17 2.28001 0.0952198 0
M  V30 11225 C 1066.14 1.39569 0.834225 0
M  V30 11226 O 1067.33 1.69011 0.834711 0
M  V30 11227 C 1064.45 3.18886 1.14145 0
M  V30 11228 C 1063.5 4.23547 0.500996 0
M  V30 11229 S 1064.33 5.30609 -0.722118 0
M  V30 11230 C 1065.49 6.25062 0.323687 0
M  V30 11231 H 1065.72 2.90752 -0.620511 0
M  V30 11232 H 1063.26 1.48073 -0.437457 0
M  V30 11233 H 1065.21 3.71795 1.74008 0
M  V30 11234 H 1063.87 2.55322 1.82947 0
M  V30 11235 H 1063.07 4.87224 1.28954 0
M  V30 11236 H 1062.67 3.73993 -0.0234176 0
M  V30 11237 H 1064.96 6.66946 1.19118 0
M  V30 11238 H 1065.9 7.07554 -0.277939 0
M  V30 11239 H 1066.31 5.60658 0.657493 0
M  V30 11240 N 1065.71 0.390394 1.52688 0
M  V30 11241 C 1066.64 -0.479319 2.24132 0
M  V30 11242 C 1067.66 -1.0258 1.26416 0
M  V30 11243 O 1068.84 -0.927943 1.52484 0
M  V30 11244 C 1065.94 -1.67711 2.94493 0
M  V30 11245 C 1065.12 -1.2578 4.18925 0
M  V30 11246 C 1064.18 -2.3204 4.72275 0
M  V30 11247 O 1063.2 -1.93402 5.35336 0
M  V30 11248 N 1064.4 -3.63967 4.52226 0
M  V30 11249 H 1067.17 0.132777 2.99406 0
M  V30 11250 H 1064.73 0.216807 1.60442 0
M  V30 11251 H 1066.72 -2.38323 3.27084 0
M  V30 11252 H 1065.29 -2.19552 2.22521 0
M  V30 11253 H 1064.51 -0.380528 3.92359 0
M  V30 11254 H 1065.8 -0.954329 4.9977 0
M  V30 11255 H 1065.2 -3.98119 4.01892 0
M  V30 11256 H 1063.76 -4.30611 4.89303 0
M  V30 11257 N 1067.19 -1.57141 0.120249 0
M  V30 11258 C 1068.12 -2.12454 -0.859987 0
M  V30 11259 C 1069.13 -1.06755 -1.22911 0
M  V30 11260 O 1070.32 -1.34124 -1.17784 0
M  V30 11261 C 1067.42 -2.61024 -2.16147 0
M  V30 11262 C 1066.6 -3.90835 -1.96385 0
M  V30 11263 C 1065.65 -4.2499 -3.10274 0
M  V30 11264 O 1064.68 -4.93786 -2.83133 0
M  V30 11265 N 1065.88 -3.82411 -4.36741 0
M  V30 11266 H 1068.65 -2.97186 -0.387402 0
M  V30 11267 H 1066.21 -1.61773 -0.0641376 0
M  V30 11268 H 1068.2 -2.80903 -2.91334 0
M  V30 11269 H 1066.77 -1.81166 -2.5475 0
M  V30 11270 H 1065.99 -3.79853 -1.05383 0
M  V30 11271 H 1067.28 -4.75712 -1.80487 0
M  V30 11272 H 1066.68 -3.26926 -4.61666 0
M  V30 11273 H 1065.23 -4.07395 -5.08795 0
M  V30 11274 N 1068.67 0.153526 -1.5685 0
M  V30 11275 C 1069.6 1.19162 -2.00805 0
M  V30 11276 C 1070.58 1.45172 -0.886518 0
M  V30 11277 O 1071.76 1.56203 -1.15387 0
M  V30 11278 C 1068.89 2.52637 -2.38311 0
M  V30 11279 C 1067.85 2.41161 -3.53589 0
M  V30 11280 C 1067.17 3.79287 -3.76889 0
M  V30 11281 C 1068.47 1.90122 -4.86468 0
M  V30 11282 H 1070.17 0.82617 -2.87776 0
M  V30 11283 H 1067.71 0.395972 -1.38449 0
M  V30 11284 H 1069.67 3.25478 -2.6766 0
M  V30 11285 H 1068.39 2.91005 -1.4827 0
M  V30 11286 H 1067.05 1.70772 -3.24395 0
M  V30 11287 H 1066.7 4.15079 -2.84109 0
M  V30 11288 H 1066.4 3.72472 -4.54465 0
M  V30 11289 H 1067.92 4.53687 -4.08657 0
M  V30 11290 H 1069.33 2.52752 -5.14577 0
M  V30 11291 H 1067.73 1.94214 -5.67804 0
M  V30 11292 H 1068.8 0.856517 -4.77275 0
M  V30 11293 N 1070.14 1.51827 0.422667 0
M  V30 11294 C 1071.39 1.6445 1.16786 0
M  V30 11295 C 1071.71 0.373792 1.91995 0
M  V30 11296 O 1072.91 0.379621 2.68833 0
M  V30 11297 C 1071.37 2.90488 2.12473 0
M  V30 11298 C 1070.98 4.24617 1.42844 0
M  V30 11299 C 1072.72 3.12472 2.87335 0
M  V30 11300 C 1070.63 5.41791 2.371 0
M  V30 11301 H 1069.56 0.612561 0.439641 0
M  V30 11302 H 1072.21 1.78305 0.433534 0
M  V30 11303 H 1070.59 2.703 2.89402 0
M  V30 11304 H 1071.76 4.55239 0.71372 0
M  V30 11305 H 1070.08 4.08628 0.800769 0
M  V30 11306 H 1072.68 3.9719 3.57973 0
M  V30 11307 H 1073.02 2.26148 3.49518 0
M  V30 11308 H 1073.55 3.33069 2.17509 0
M  V30 11309 H 1070.29 6.3042 1.79584 0
M  V30 11310 H 1069.81 5.15526 3.06583 0
M  V30 11311 H 1071.49 5.74329 2.97918 0
M  V30 11312 N 1071.62 -0.679052 1.4222 0
M  V30 11313 C 1072.87 -1.43627 1.42182 0
M  V30 11314 C 1073.19 -1.94964 0.0377095 0
M  V30 11315 O 1072.46 -1.72788 -0.923098 0
M  V30 11316 H 1071.04 -0.532972 0.523402 0
M  V30 11317 H 1073.7 -0.802649 1.77605 0
M  V30 11318 H 1072.8 -2.29137 2.11902 0
M  V30 11319 N 1073.1 -1.28322 -0.914942 0
M  V30 11320 C 1074.35 -1.14785 -1.65853 0
M  V30 11321 C 1074.66 0.303135 -1.93237 0
M  V30 11322 O 1075.87 0.559606 -2.6567 0
M  V30 11323 C 1074.32 -2.00652 -2.98776 0
M  V30 11324 C 1073.93 -3.50483 -2.79044 0
M  V30 11325 C 1075.68 -1.95798 -3.76648 0
M  V30 11326 C 1073.58 -4.28505 -4.076 0
M  V30 11327 H 1072.51 -0.425987 -0.622135 0
M  V30 11328 H 1075.16 -1.52844 -1.01543 0
M  V30 11329 H 1073.55 -1.55447 -3.64214 0
M  V30 11330 H 1074.72 -4.03636 -2.22293 0
M  V30 11331 H 1073.04 -3.5685 -2.14586 0
M  V30 11332 H 1075.63 -2.51359 -4.71935 0
M  V30 11333 H 1075.98 -0.934455 -4.05677 0
M  V30 11334 H 1076.51 -2.38965 -3.18026 0
M  V30 11335 H 1073.25 -5.31433 -3.83744 0
M  V30 11336 H 1072.77 -3.80125 -4.63966 0
M  V30 11337 H 1074.45 -4.3836 -4.75867 0
M  V30 11338 N 1074.58 1.12322 -1.10551 0
M  V30 11339 C 1075.51 2.20176 -0.777486 0
M  V30 11340 C 1076.49 1.68252 0.250069 0
M  V30 11341 O 1077.67 1.93856 0.115574 0
M  V30 11342 C 1074.8 3.46666 -0.209822 0
M  V30 11343 C 1073.76 4.11749 -1.1682 0
M  V30 11344 C 1073.08 5.32703 -0.461684 0
M  V30 11345 C 1074.38 4.57746 -2.51527 0
M  V30 11346 H 1076.08 2.47872 -1.67928 0
M  V30 11347 H 1073.62 1.19136 -0.808863 0
M  V30 11348 H 1075.58 4.21388 0.0318068 0
M  V30 11349 H 1074.3 3.18401 0.727226 0
M  V30 11350 H 1072.96 3.39009 -1.3953 0
M  V30 11351 H 1072.61 5.00706 0.479875 0
M  V30 11352 H 1072.31 5.77197 -1.1008 0
M  V30 11353 H 1073.83 6.10172 -0.228629 0
M  V30 11354 H 1075.25 5.23835 -2.32958 0
M  V30 11355 H 1073.64 5.13021 -3.11335 0
M  V30 11356 H 1074.71 3.71667 -3.11435 0
M  V30 11357 N 1076.06 0.894434 1.2976 0
M  V30 11358 C 1077.3 0.518435 1.96061 0
M  V30 11359 C 1077.64 -0.931882 1.70381 0
M  V30 11360 O 1076.91 -1.65988 1.01381 0
M  V30 11361 C 1077.19 0.80519 3.50982 0
M  V30 11362 C 1077.05 2.30683 3.86142 0
M  V30 11363 C 1078.37 0.288096 4.39156 0
M  V30 11364 H 1075.48 0.18983 0.712133 0
M  V30 11365 H 1078.13 1.12016 1.53468 0
M  V30 11366 H 1076.28 0.293071 3.87393 0
M  V30 11367 H 1077.95 2.88808 3.59705 0
M  V30 11368 H 1076.19 2.76968 3.33873 0
M  V30 11369 H 1076.86 2.45805 4.94251 0
M  V30 11370 H 1079.34 0.726547 4.09708 0
M  V30 11371 H 1078.21 0.517985 5.4645 0
M  V30 11372 H 1078.48 -0.811018 4.34597 0
M  V30 11373 N 1077.53 -1.43282 0.656365 0
M  V30 11374 C 1078.95 -1.56272 0.324213 0
M  V30 11375 C 1079.15 -1.63946 -1.1715 0
M  V30 11376 O 1078.21 -1.59625 -1.95643 0
M  V30 11377 C 1079.52 -2.82204 1.03833 0
M  V30 11378 C 1081.07 -2.95952 1.01889 0
M  V30 11379 C 1081.54 -4.2472 1.71397 0
M  V30 11380 N 1083.03 -4.31591 1.68176 0
M  V30 11381 C 1083.77 -5.30001 2.1883 0
M  V30 11382 N 1083.26 -6.34671 2.77785 0
M  V30 11383 N 1085.06 -5.21676 2.09311 0
M  V30 11384 H 1077.21 -1.36544 1.62694 0
M  V30 11385 H 1079.47 -0.655999 0.684375 0
M  V30 11386 H 1079.18 -2.82608 2.09346 0
M  V30 11387 H 1079.05 -3.72527 0.591878 0
M  V30 11388 H 1081.44 -2.95087 -0.0278431 0
M  V30 11389 H 1081.52 -2.0691 1.50406 0
M  V30 11390 H 1081.16 -4.26346 2.76028 0
M  V30 11391 H 1081.09 -5.12665 1.20342 0
M  V30 11392 H 1083.58 -3.56573 1.25157 0
M  V30 11393 H 1083.9 -7.06087 3.14104 0
M  V30 11394 H 1082.24 -6.35285 2.81847 0
M  V30 11395 H 1085.43 -4.3882 1.62955 0
M  V30 11396 H 1085.61 -5.9821 2.49095 0
M  V30 11397 N 1079.01 -0.398486 -1.52479 0
M  V30 11398 C 1079.92 0.439328 -2.3045 0
M  V30 11399 C 1080.94 1.06322 -1.37738 0
M  V30 11400 O 1082.12 1.06704 -1.7081 0
M  V30 11401 C 1079.18 1.54655 -3.10294 0
M  V30 11402 C 1078.24 0.946824 -4.18729 0
M  V30 11403 C 1077.47 2.00129 -4.94757 0
M  V30 11404 O 1077.7 3.2178 -4.70971 0
M  V30 11405 O 1076.63 1.61345 -5.79872 0
M  V30 11406 H 1080.46 -0.196118 -3.03066 0
M  V30 11407 H 1078.04 -0.161961 -1.4852 0
M  V30 11408 H 1079.92 2.18958 -3.60049 0
M  V30 11409 H 1078.6 2.1668 -2.40482 0
M  V30 11410 H 1077.51 0.266802 -3.73147 0
M  V30 11411 H 1078.84 0.370664 -4.90802 0
M  V30 11412 N 1080.49 1.57075 -0.12858 0
M  V30 11413 C 1081.45 2.14643 0.803813 0
M  V30 11414 C 1082.45 1.08363 1.18803 0
M  V30 11415 O 1083.64 1.34093 1.11197 0
M  V30 11416 C 1080.78 2.6945 2.08829 0
M  V30 11417 H 1081.97 2.98362 0.303347 0
M  V30 11418 H 1079.52 1.55833 0.120735 0
M  V30 11419 H 1080.26 1.89345 2.63285 0
M  V30 11420 H 1080.04 3.47187 1.82218 0
M  V30 11421 H 1081.53 3.13865 2.7546 0
M  V30 11422 N 1081.97 -0.145205 1.5693 0
M  V30 11423 C 1083.22 -0.855822 1.83085 0
M  V30 11424 C 1083.54 -1.81625 0.709747 0
M  V30 11425 O 1082.81 -1.94052 -0.268456 0
M  V30 11426 H 1081.39 -0.319032 0.675446 0
M  V30 11427 H 1084.05 -0.138781 1.94405 0
M  V30 11428 H 1083.15 -1.41698 2.78079 0
M  V30 11429 N 1083.45 -1.52049 -0.414609 0
M  V30 11430 C 1084.39 -1.74998 -1.5048 0
M  V30 11431 C 1085.36 -0.592251 -1.55182 0
M  V30 11432 O 1086.55 -0.829203 -1.7184 0
M  V30 11433 C 1083.69 -1.90157 -2.87983 0
M  V30 11434 C 1082.8 -3.17789 -2.92633 0
M  V30 11435 C 1081.94 -3.23411 -4.21401 0
M  V30 11436 C 1080.98 -4.45267 -4.20004 0
M  V30 11437 N 1080.11 -4.48312 -5.40334 0
M  V30 11438 H 1084.95 -2.68046 -1.30212 0
M  V30 11439 H 1082.49 -1.32824 -0.632154 0
M  V30 11440 H 1084.45 -1.96929 -3.67797 0
M  V30 11441 H 1083.08 -1.00496 -3.06758 0
M  V30 11442 H 1082.13 -3.20216 -2.05343 0
M  V30 11443 H 1083.44 -4.07634 -2.87465 0
M  V30 11444 H 1082.6 -3.29224 -5.09604 0
M  V30 11445 H 1081.34 -2.31495 -4.29257 0
M  V30 11446 H 1080.34 -4.39606 -3.30192 0
M  V30 11447 H 1081.57 -5.38472 -4.13793 0
M  V30 11448 H 1079.51 -3.59277 -5.48868 0
M  V30 11449 H 1079.43 -5.31994 -5.37139 0
M  V30 11450 H 1080.7 -4.58347 -6.30506 0
M  V30 11451 N 1084.93 0.6715 -1.42579 0
M  V30 11452 C 1086.15 1.45972 -1.46628 0
M  V30 11453 C 1086.57 1.88636 -0.0785986 0
M  V30 11454 O 1085.93 1.58345 0.907372 0
M  V30 11455 C 1085.98 2.70668 -2.39627 0
M  V30 11456 O 1085.7 2.29793 -3.72997 0
M  V30 11457 C 1087.2 3.64201 -2.52731 0
M  V30 11458 H 1084.42 0.449044 -0.498598 0
M  V30 11459 H 1086.96 0.824811 -1.87129 0
M  V30 11460 H 1085.12 3.3034 -2.02371 0
M  V30 11461 H 1085.53 3.10341 -4.22834 0
M  V30 11462 H 1087.01 4.48412 -3.21918 0
M  V30 11463 H 1087.48 4.10323 -1.56626 0
M  V30 11464 H 1088.09 3.1042 -2.90722 0
M  V30 11465 N 1086.4 1.28806 0.908124 0
M  V30 11466 C 1087.65 1.16287 1.65781 0
M  V30 11467 C 1087.98 -0.287389 1.92365 0
M  V30 11468 O 1087.23 -1.22491 1.52625 0
M  V30 11469 C 1087.53 1.91267 3.01914 0
M  V30 11470 C 1087.2 3.41033 2.9497 0
M  V30 11471 C 1085.86 3.81879 2.92783 0
M  V30 11472 C 1088.21 4.36507 2.848 0
M  V30 11473 C 1085.54 5.16529 2.78235 0
M  V30 11474 C 1087.89 5.71237 2.71792 0
M  V30 11475 C 1086.56 6.11351 2.67967 0
M  V30 11476 H 1085.83 0.425526 0.606637 0
M  V30 11477 H 1088.47 1.59646 1.05762 0
M  V30 11478 H 1086.78 1.40474 3.65752 0
M  V30 11479 H 1088.48 1.78992 3.58835 0
M  V30 11480 H 1085.07 3.08561 2.97469 0
M  V30 11481 H 1089.25 4.05909 2.85573 0
M  V30 11482 H 1084.51 5.4673 2.73672 0
M  V30 11483 H 1088.68 6.44872 2.62892 0
M  V30 11484 H 1086.31 7.15637 2.56451 0
M  V30 11485 N 1087.88 -1.11734 1.11145 0
M  V30 11486 C 1089.11 -1.87755 0.881062 0
M  V30 11487 C 1089.53 -1.79461 -0.563496 0
M  V30 11488 O 1088.89 -1.15481 -1.39763 0
M  V30 11489 C 1088.94 -3.34641 1.34342 0
M  V30 11490 O 1088.04 -4.09195 0.513157 0
M  V30 11491 H 1087.38 -0.583111 0.317613 0
M  V30 11492 H 1089.91 -1.41256 1.48013 0
M  V30 11493 H 1089.92 -3.85486 1.33658 0
M  V30 11494 H 1088.6 -3.39994 2.39534 0
M  V30 11495 H 1087.17 -3.68269 0.585833 0
M  V30 11496 N 1089.36 -0.901303 -1.29284 0
M  V30 11497 C 1090.31 -0.370142 -2.29636 0
M  V30 11498 C 1091.3 0.53157 -1.60844 0
M  V30 11499 O 1092.51 0.414194 -1.7517 0
M  V30 11500 H 1088.88 -0.101072 -0.745177 0
M  V30 11501 H 1090.85 -1.22985 -2.71877 0
M  V30 11502 C 1089.6 0.385806 -3.45553 0
M  V30 11503 H 1088.93 -0.298818 -3.98682 0
M  V30 11504 H 1090.37 0.722299 -4.17802 0
M  V30 11505 C 1088.82 1.58907 -2.97069 0
M  V30 11506 O 1089.35 2.68835 -2.98481 0
M  V30 11507 N 1087.56 1.43178 -2.5288 0
M  V30 11508 H 1087.11 0.537467 -2.51931 0
M  V30 11509 H 1087.07 2.23819 -2.208 0
M  V30 11510 N 1090.84 1.42931 -0.663954 0
M  V30 11511 C 1091.8 2.29197 0.0117626 0
M  V30 11512 C 1092.8 1.42767 0.739875 0
M  V30 11513 O 1093.99 1.64278 0.579509 0
M  V30 11514 C 1091.12 3.2505 1.02738 0
M  V30 11515 H 1092.32 2.90438 -0.747391 0
M  V30 11516 H 1089.87 1.5039 -0.425733 0
M  V30 11517 H 1090.6 2.68726 1.8154 0
M  V30 11518 H 1090.39 3.88785 0.508809 0
M  V30 11519 H 1091.88 3.89771 1.49893 0
M  V30 11520 N 1092.32 0.406567 1.52266 0
M  V30 11521 C 1093.56 -0.171391 2.00971 0
M  V30 11522 C 1093.88 -1.46443 1.29668 0
M  V30 11523 O 1095.08 -2.12348 1.69176 0
M  V30 11524 C 1093.54 -0.35599 3.58135 0
M  V30 11525 C 1093.15 0.924803 4.38351 0
M  V30 11526 C 1094.89 -0.889378 4.15079 0
M  V30 11527 C 1092.8 0.707534 5.87152 0
M  V30 11528 H 1091.73 -0.0678253 0.750943 0
M  V30 11529 H 1094.38 0.531619 1.7563 0
M  V30 11530 H 1092.76 -1.12127 3.79794 0
M  V30 11531 H 1093.94 1.69603 4.28452 0
M  V30 11532 H 1092.25 1.38442 3.92712 0
M  V30 11533 H 1094.85 -1.06792 5.23927 0
M  V30 11534 H 1095.19 -1.86334 3.7227 0
M  V30 11535 H 1095.72 -0.183224 3.97378 0
M  V30 11536 H 1092.46 1.65299 6.34316 0
M  V30 11537 H 1091.98 -0.024446 5.99795 0
M  V30 11538 H 1093.66 0.348721 6.4606 0
M  V30 11539 N 1093.79 -1.57004 0.136909 0
M  V30 11540 C 1094.76 -2.15066 -0.792419 0
M  V30 11541 C 1095.76 -1.08991 -1.18226 0
M  V30 11542 O 1096.95 -1.34681 -1.10484 0
M  V30 11543 C 1094.08 -2.70554 -2.07397 0
M  V30 11544 H 1095.27 -2.98519 -0.28752 0
M  V30 11545 H 1092.83 -1.55895 -0.112469 0
M  V30 11546 H 1093.56 -1.90739 -2.62277 0
M  V30 11547 H 1093.35 -3.48149 -1.80374 0
M  V30 11548 H 1094.84 -3.15322 -2.73792 0
M  V30 11549 N 1095.27 0.136881 -1.57004 0
M  V30 11550 C 1096.18 1.18793 -2.023 0
M  V30 11551 C 1097.2 1.46412 -0.94018 0
M  V30 11552 O 1098.37 1.57883 -1.2504 0
M  V30 11553 C 1095.44 2.49903 -2.40311 0
M  V30 11554 C 1094.5 2.29841 -3.6259 0
M  V30 11555 C 1093.73 3.54699 -3.98779 0
M  V30 11556 O 1093.96 4.61291 -3.3551 0
M  V30 11557 O 1092.89 3.46761 -4.91976 0
M  V30 11558 H 1096.72 0.833345 -2.92043 0
M  V30 11559 H 1094.3 0.346361 -1.4533 0
M  V30 11560 H 1096.18 3.27183 -2.65574 0
M  V30 11561 H 1094.86 2.84872 -1.5372 0
M  V30 11562 H 1093.77 1.50478 -3.42501 0
M  V30 11563 H 1095.1 1.99784 -4.4983 0
M  V30 11564 N 1096.75 1.52266 0.40654 0
M  V30 11565 C 1098 1.66699 1.15496 0
M  V30 11566 C 1098.33 0.397019 1.90098 0
M  V30 11567 O 1097.6 -0.604646 1.84863 0
M  V30 11568 C 1097.89 2.8907 2.14734 0
M  V30 11569 C 1097.74 4.26123 1.44012 0
M  V30 11570 C 1099.06 3.06966 3.15373 0
M  V30 11571 H 1096.18 0.606642 0.418515 0
M  V30 11572 H 1098.82 1.84826 0.440381 0
M  V30 11573 H 1096.97 2.73745 2.75673 0
M  V30 11574 H 1098.64 4.5318 0.861722 0
M  V30 11575 H 1096.89 4.27406 0.742064 0
M  V30 11576 H 1097.56 5.07799 2.16436 0
M  V30 11577 H 1100.03 3.21205 2.64512 0
M  V30 11578 H 1098.91 3.94097 3.82072 0
M  V30 11579 H 1099.17 2.20395 3.83247 0
M  V30 11580 N 1098.23 -0.663929 1.42933 0
M  V30 11581 C 1099.64 -0.978346 1.26097 0
M  V30 11582 C 1099.84 -2.00756 0.172968 0
M  V30 11583 O 1098.9 -2.48418 -0.452184 0
M  V30 11584 C 1100.21 -1.4728 2.62162 0
M  V30 11585 C 1101.76 -1.59001 2.69606 0
M  V30 11586 C 1102.24 -2.1184 4.06064 0
M  V30 11587 N 1103.73 -2.19158 4.08074 0
M  V30 11588 C 1104.46 -2.61141 5.10483 0
M  V30 11589 N 1103.96 -3.02498 6.23271 0
M  V30 11590 N 1105.75 -2.60986 4.97838 0
M  V30 11591 H 1097.9 0.0173096 2.12393 0
M  V30 11592 H 1100.17 -0.0548116 0.946414 0
M  V30 11593 H 1099.87 -0.791008 3.42689 0
M  V30 11594 H 1099.75 -2.4497 2.86827 0
M  V30 11595 H 1102.13 -2.26284 1.89418 0
M  V30 11596 H 1102.21 -0.597728 2.48718 0
M  V30 11597 H 1101.86 -1.45162 4.86714 0
M  V30 11598 H 1101.79 -3.1188 4.2431 0
M  V30 11599 H 1104.28 -1.90013 3.26655 0
M  V30 11600 H 1104.59 -3.33251 6.97254 0
M  V30 11601 H 1102.94 -3.00328 6.2676 0
M  V30 11602 H 1106.13 -2.28046 4.08794 0
M  V30 11603 H 1106.3 -2.93384 5.7778 0
M  V30 11604 N 1099.71 -1.29285 -0.901281 0
M  V30 11605 C 1100.62 -1.16161 -2.03823 0
M  V30 11606 C 1101.63 -0.0852298 -1.73791 0
M  V30 11607 O 1102.81 -0.29699 -1.99198 0
M  V30 11608 C 1099.87 -0.837586 -3.3643 0
M  V30 11609 C 1098.93 -1.99764 -3.7999 0
M  V30 11610 C 1098.17 -1.68898 -5.0627 0
M  V30 11611 O 1098.39 -0.609177 -5.67138 0
M  V30 11612 O 1097.32 -2.53648 -5.45845 0
M  V30 11613 H 1101.15 -2.11635 -2.17817 0
M  V30 11614 H 1098.74 -1.08722 -1.02468 0
M  V30 11615 H 1100.62 -0.671376 -4.16017 0
M  V30 11616 H 1099.29 0.0873811 -3.23582 0
M  V30 11617 H 1098.2 -2.21908 -3.01177 0
M  V30 11618 H 1099.53 -2.90376 -3.9742 0
M  V30 11619 N 1101.18 1.11143 -1.11736 0
M  V30 11620 C 1102.15 2.15456 -0.78174 0
M  V30 11621 C 1103.15 1.59547 0.200383 0
M  V30 11622 O 1104.34 1.74183 -0.0244893 0
M  V30 11623 C 1101.47 3.40523 -0.160364 0
M  V30 11624 H 1102.66 2.46658 -1.70586 0
M  V30 11625 H 1100.22 1.26381 -0.919644 0
M  V30 11626 H 1100.95 3.14932 0.773835 0
M  V30 11627 H 1100.74 3.82386 -0.867378 0
M  V30 11628 H 1102.23 4.17559 0.0582175 0
M  V30 11629 N 1102.66 0.908147 1.28804 0
M  V30 11630 C 1103.91 0.539201 1.95501 0
M  V30 11631 C 1104.24 -0.913759 1.7136 0
M  V30 11632 O 1103.52 -1.64904 1.03136 0
M  V30 11633 C 1103.8 0.842372 3.50109 0
M  V30 11634 C 1103.65 2.34765 3.83673 0
M  V30 11635 C 1104.97 0.334658 4.38826 0
M  V30 11636 H 1102.09 0.197373 0.71008 0
M  V30 11637 H 1104.73 1.13637 1.52272 0
M  V30 11638 H 1102.88 0.334143 3.8706 0
M  V30 11639 H 1104.55 2.92607 3.56621 0
M  V30 11640 H 1102.8 2.80494 3.30916 0
M  V30 11641 H 1103.47 2.51034 4.91616 0
M  V30 11642 H 1105.94 0.769961 4.08914 0
M  V30 11643 H 1104.82 0.575914 5.4587 0
M  V30 11644 H 1105.08 -0.764878 4.35433 0
M  V30 11645 N 1104.14 -1.42577 0.671525 0
M  V30 11646 C 1105.42 -1.95222 0.121529 0
M  V30 11647 C 1105.8 -1.61209 -1.36289 0
M  V30 11648 O 1105.15 -0.906561 -2.09747 0
M  V30 11649 C 1105.36 -3.46846 0.387189 0
M  V30 11650 C 1106.7 -4.23525 0.301938 0
M  V30 11651 O 1107.73 -3.54753 0.320755 0
M  V30 11652 O 1106.59 -5.45967 0.241317 0
M  V30 11653 H 1103.68 -0.826999 0.000968615 0
M  V30 11654 H 1106.23 -1.52422 0.746029 0
M  V30 11655 H 1105 -3.64795 1.41563 0
M  V30 11656 H 1104.62 -3.96686 -0.26948 0
M  V30 11657 N 1105.62 -0.414636 -1.52048 0
M  V30 11658 C 1106.87 0.159349 -2.01872 0
M  V30 11659 C 1107.19 1.44674 -1.29999 0
M  V30 11660 O 1106.45 1.91641 -0.396511 0
M  V30 11661 C 1106.75 0.448327 -3.54577 0
M  V30 11662 C 1106.41 -0.75052 -4.4461 0
M  V30 11663 C 1105.08 -1.07935 -4.68939 0
M  V30 11664 C 1107.43 -1.55134 -4.97577 0
M  V30 11665 C 1104.76 -2.21008 -5.43482 0
M  V30 11666 C 1107.11 -2.67288 -5.73358 0
M  V30 11667 C 1105.77 -3.00651 -5.95958 0
M  V30 11668 H 1105.04 0.05831 -0.738702 0
M  V30 11669 H 1107.69 -0.557184 -1.83215 0
M  V30 11670 H 1105.99 1.24649 -3.71443 0
M  V30 11671 H 1107.69 0.90549 -3.90643 0
M  V30 11672 H 1104.28 -0.484257 -4.25856 0
M  V30 11673 H 1108.46 -1.31052 -4.78685 0
M  V30 11674 H 1103.72 -2.47197 -5.59199 0
M  V30 11675 H 1107.89 -3.29725 -6.13396 0
M  V30 11676 H 1105.52 -3.88384 -6.535 0
M  V30 11677 N 1107.1 1.56929 -0.145233 0
M  V30 11678 C 1108.03 2.19685 0.791263 0
M  V30 11679 C 1109.01 1.14455 1.25833 0
M  V30 11680 O 1110.19 1.42791 1.31622 0
M  V30 11681 C 1107.32 2.81705 2.03124 0
M  V30 11682 C 1106.28 3.92746 1.70101 0
M  V30 11683 C 1105.6 4.41694 3.01347 0
M  V30 11684 C 1106.9 5.13606 0.949025 0
M  V30 11685 H 1108.6 2.98196 0.26825 0
M  V30 11686 H 1106.14 1.43434 0.127584 0
M  V30 11687 H 1108.1 3.24273 2.69119 0
M  V30 11688 H 1106.82 2.00523 2.57795 0
M  V30 11689 H 1105.48 3.50794 1.06486 0
M  V30 11690 H 1105.13 3.57336 3.54006 0
M  V30 11691 H 1104.83 5.1659 2.80016 0
M  V30 11692 H 1106.35 4.86931 3.68416 0
M  V30 11693 H 1107.76 5.53029 1.51102 0
M  V30 11694 H 1106.16 5.94252 0.835711 0
M  V30 11695 H 1107.23 4.84863 -0.0595631 0
M  V30 11696 N 1108.58 -0.128553 1.57075 0
M  V30 11697 C 1109.53 -1.16373 1.96065 0
M  V30 11698 C 1110.51 -1.37579 0.834323 0
M  V30 11699 O 1111.7 -1.38831 1.09795 0
M  V30 11700 C 1108.83 -2.49276 2.36043 0
M  V30 11701 C 1107.92 -2.31586 3.55287 0
M  V30 11702 N 1108.31 -1.83688 4.71267 0
M  V30 11703 C 1106.61 -2.62275 3.60732 0
M  V30 11704 C 1107.31 -1.79479 5.53319 0
M  V30 11705 N 1106.28 -2.23474 4.95541 0
M  V30 11706 H 1110.08 -0.785792 2.832 0
M  V30 11707 H 1107.6 -0.33641 1.58877 0
M  V30 11708 H 1109.6 -3.24134 2.62188 0
M  V30 11709 H 1108.26 -2.87837 1.50267 0
M  V30 11710 H 1109.27 -1.53376 4.94668 0
M  V30 11711 H 1105.94 -3.04586 2.85541 0
M  V30 11712 H 1107.33 -1.43781 6.56336 0
M  V30 11713 N 1110.05 -1.5248 -0.398459 0
M  V30 11714 C 1111.28 -1.70677 -1.16417 0
M  V30 11715 C 1111.69 -0.420629 -1.84465 0
M  V30 11716 O 1111.03 0.614013 -1.73135 0
M  V30 11717 C 1111.1 -2.79401 -2.2622 0
M  V30 11718 C 1110.76 -4.20817 -1.78218 0
M  V30 11719 C 1111.76 -5.04298 -1.26409 0
M  V30 11720 C 1109.44 -4.67098 -1.84728 0
M  V30 11721 C 1111.44 -6.32136 -0.817461 0
M  V30 11722 C 1109.12 -5.94923 -1.39676 0
M  V30 11723 C 1110.12 -6.77272 -0.882716 0
M  V30 11724 O 1109.81 -8.02702 -0.438739 0
M  V30 11725 H 1109.54 -0.57503 -0.355411 0
M  V30 11726 H 1112.1 -1.99868 -0.473471 0
M  V30 11727 H 1110.33 -2.4561 -2.98685 0
M  V30 11728 H 1112.01 -2.86093 -2.87933 0
M  V30 11729 H 1112.78 -4.6973 -1.20744 0
M  V30 11730 H 1108.66 -4.03097 -2.23682 0
M  V30 11731 H 1112.2 -6.96361 -0.415548 0
M  V30 11732 H 1108.1 -6.28998 -1.45024 0
M  V30 11733 H 1108.87 -8.16575 -0.561079 0
M  V30 11734 N 1111.53 0.65634 -1.43283 0
M  V30 11735 C 1112.76 1.44199 -1.47954 0
M  V30 11736 C 1113.17 1.88961 -0.0950315 0
M  V30 11737 O 1112.51 1.59895 0.904388 0
M  V30 11738 C 1112.57 2.71161 -2.36033 0
M  V30 11739 C 1112.24 2.48359 -3.83623 0
M  V30 11740 C 1113.24 2.1178 -4.74811 0
M  V30 11741 C 1110.92 2.6278 -4.28079 0
M  V30 11742 C 1112.91 1.89915 -6.0845 0
M  V30 11743 C 1110.6 2.4053 -5.61772 0
M  V30 11744 C 1111.6 2.04154 -6.51775 0
M  V30 11745 O 1111.29 1.82134 -7.82996 0
M  V30 11746 H 1111.02 0.449567 -0.504842 0
M  V30 11747 H 1113.57 0.812234 -1.88658 0
M  V30 11748 H 1111.8 3.36685 -1.9021 0
M  V30 11749 H 1113.49 3.33102 -2.31944 0
M  V30 11750 H 1114.26 2.00217 -4.41744 0
M  V30 11751 H 1110.14 2.9007 -3.58302 0
M  V30 11752 H 1113.68 1.61445 -6.78661 0
M  V30 11753 H 1109.58 2.51695 -5.94407 0
M  V30 11754 H 1110.35 1.96584 -7.94542 0
M  V30 11755 N 1113.01 1.29761 0.894412 0
M  V30 11756 C 1113.97 1.15335 1.98067 0
M  V30 11757 C 1114.97 0.0872804 1.60563 0
M  V30 11758 O 1116.16 0.334645 1.70955 0
M  V30 11759 C 1113.29 0.764907 3.32208 0
M  V30 11760 H 1114.49 2.11829 2.12293 0
M  V30 11761 H 1112.04 1.13023 1.0796 0
M  V30 11762 H 1112.78 -0.199948 3.23683 0
M  V30 11763 H 1112.56 1.53523 3.60795 0
M  V30 11764 H 1114.05 0.687176 4.11907 0
M  V30 11765 N 1114.49 -1.10549 1.12324 0
M  V30 11766 C 1115.74 -1.82124 0.876083 0
M  V30 11767 C 1116.06 -1.85547 -0.599761 0
M  V30 11768 O 1115.33 -1.33269 -1.43584 0
M  V30 11769 H 1113.91 -0.674455 0.321122 0
M  V30 11770 H 1116.57 -1.33766 1.41748 0
M  V30 11771 H 1115.66 -2.85688 1.25653 0
M  V30 11772 N 1115.97 -0.914965 -1.28321 0
M  V30 11773 C 1116.9 -0.361578 -2.2633 0
M  V30 11774 C 1117.91 0.500637 -1.54911 0
M  V30 11775 O 1119.1 0.31532 -1.75693 0
M  V30 11776 C 1116.2 0.501693 -3.35166 0
M  V30 11777 C 1115.37 -0.338289 -4.3609 0
M  V30 11778 C 1114.43 0.460267 -5.24183 0
M  V30 11779 O 1113.46 -0.127594 -5.69057 0
M  V30 11780 N 1114.66 1.76302 -5.5308 0
M  V30 11781 H 1117.42 -1.20402 -2.74451 0
M  V30 11782 H 1114.99 -0.781042 -1.41814 0
M  V30 11783 H 1116.98 1.04268 -3.91037 0
M  V30 11784 H 1115.55 1.24485 -2.86744 0
M  V30 11785 H 1114.77 -1.06064 -3.79663 0
M  V30 11786 H 1116.06 -0.912996 -5.00542 0
M  V30 11787 H 1115.45 2.26314 -5.18458 0
M  V30 11788 H 1114.01 2.25081 -6.11704 0
M  V30 11789 N 1117.44 1.42219 -0.679077 0
M  V30 11790 C 1118.69 2.01777 -0.20342 0
M  V30 11791 C 1119.02 1.53592 1.18841 0
M  V30 11792 O 1118.3 0.739954 1.79875 0
M  V30 11793 C 1118.58 3.59281 -0.242791 0
M  V30 11794 C 1118.43 4.17634 -1.67038 0
M  V30 11795 C 1119.75 4.38218 0.406624 0
M  V30 11796 H 1116.87 0.733134 -0.0753916 0
M  V30 11797 H 1119.51 1.69185 -0.864673 0
M  V30 11798 H 1117.66 3.87178 0.320248 0
M  V30 11799 H 1119.34 4.00674 -2.286 0
M  V30 11800 H 1117.58 3.73301 -2.20973 0
M  V30 11801 H 1118.25 5.26776 -1.64958 0
M  V30 11802 H 1120.73 4.16036 -0.0727077 0
M  V30 11803 H 1119.6 5.47793 0.348457 0
M  V30 11804 H 1119.86 4.16418 1.48487 0
M  V30 11805 N 1118.92 0.422693 1.51826 0
M  V30 11806 C 1120.34 0.0742364 1.59427 0
M  V30 11807 C 1120.54 -1.41491 1.43466 0
M  V30 11808 O 1119.59 -2.18326 1.26846 0
M  V30 11809 C 1120.91 0.581272 2.95028 0
M  V30 11810 C 1122.45 0.54043 3.08299 0
M  V30 11811 C 1122.93 1.0242 4.46401 0
M  V30 11812 N 1124.42 0.981576 4.5268 0
M  V30 11813 C 1125.16 1.32693 5.57835 0
M  V30 11814 N 1124.65 1.74441 6.70479 0
M  V30 11815 N 1126.44 1.24603 5.48115 0
M  V30 11816 H 1118.6 1.39178 1.60447 0
M  V30 11817 H 1120.86 0.572607 0.75553 0
M  V30 11818 H 1120.56 1.62261 3.12032 0
M  V30 11819 H 1120.44 -0.00176969 3.772 0
M  V30 11820 H 1122.83 -0.491895 2.90971 0
M  V30 11821 H 1122.91 1.15969 2.28002 0
M  V30 11822 H 1122.55 2.05491 4.64474 0
M  V30 11823 H 1122.48 0.381613 5.25215 0
M  V30 11824 H 1124.97 0.674808 3.71826 0
M  V30 11825 H 1125.28 1.99068 7.46721 0
M  V30 11826 H 1123.63 1.78356 6.71725 0
M  V30 11827 H 1126.82 0.918641 4.58997 0
M  V30 11828 H 1126.99 1.51847 6.29958 0
M  V30 11829 N 1120.4 -1.5685 0.153553 0
M  V30 11830 C 1121.68 -1.8796 -0.541328 0
M  V30 11831 C 1122.06 -1.06059 -1.82523 0
M  V30 11832 O 1121.4 -0.149295 -2.28012 0
M  V30 11833 C 1121.61 -3.39697 -0.800442 0
M  V30 11834 C 1122.96 -4.09057 -1.13832 0
M  V30 11835 O 1123.99 -3.44913 -0.889578 0
M  V30 11836 O 1122.85 -5.22347 -1.60673 0
M  V30 11837 H 1119.94 -0.779268 -0.276895 0
M  V30 11838 H 1122.49 -1.68626 0.190657 0
M  V30 11839 H 1121.26 -3.91151 0.107935 0
M  V30 11840 H 1120.88 -3.64582 -1.58638 0
M  V30 11841 N 1121.88 0.120221 -1.57141 0
M  V30 11842 C 1123.15 0.858458 -1.75755 0
M  V30 11843 C 1123.53 1.98124 -0.728693 0
M  V30 11844 O 1122.88 2.27155 0.247573 0
M  V30 11845 C 1123.09 1.37627 -3.20718 0
M  V30 11846 C 1124.44 1.82909 -3.83183 0
M  V30 11847 O 1125.46 1.47309 -3.24312 0
M  V30 11848 O 1124.32 2.4865 -4.86657 0
M  V30 11849 H 1121.42 0.407583 -0.719587 0
M  V30 11850 H 1123.96 0.104057 -1.69381 0
M  V30 11851 H 1122.74 0.570651 -3.87117 0
M  V30 11852 H 1122.36 2.19341 -3.31625 0
M  V30 11853 N 1123.36 1.52689 0.390367 0
M  V30 11854 C 1124.6 1.67666 1.13553 0
M  V30 11855 C 1124.93 0.415903 1.90001 0
M  V30 11856 O 1124.19 -0.601664 1.86222 0
M  V30 11857 C 1124.49 2.86177 2.14096 0
M  V30 11858 C 1124.15 4.23671 1.54316 0
M  V30 11859 C 1122.81 4.61066 1.37739 0
M  V30 11860 C 1125.17 5.09278 1.1084 0
M  V30 11861 C 1122.49 5.81727 0.76231 0
M  V30 11862 C 1124.85 6.30562 0.507433 0
M  V30 11863 C 1123.51 6.66689 0.328945 0
M  V30 11864 H 1122.78 0.613533 0.415521 0
M  V30 11865 H 1125.43 1.8683 0.420339 0
M  V30 11866 H 1123.73 2.61424 2.9183 0
M  V30 11867 H 1125.43 2.9496 2.7166 0
M  V30 11868 H 1122.02 3.94214 1.68207 0
M  V30 11869 H 1126.2 4.80957 1.2245 0
M  V30 11870 H 1121.46 6.08327 0.612208 0
M  V30 11871 H 1125.63 6.96211 0.162248 0
M  V30 11872 H 1123.26 7.60052 -0.149748 0
M  V30 11873 N 1124.83 -0.648732 1.43629 0
M  V30 11874 C 1125.8 -1.74331 1.488 0
M  V30 11875 C 1126.8 -1.56434 0.372147 0
M  V30 11876 O 1127.99 -1.6225 0.634078 0
M  V30 11877 C 1125.12 -3.13248 1.34494 0
M  V30 11878 H 1126.31 -1.71125 2.46285 0
M  V30 11879 H 1123.87 -0.860798 1.30461 0
M  V30 11880 H 1124.6 -3.22062 0.380345 0
M  V30 11881 H 1124.39 -3.27643 2.15389 0
M  V30 11882 H 1125.88 -3.93056 1.41055 0
M  V30 11883 N 1126.31 -1.30234 -0.887518 0
M  V30 11884 C 1127.26 -1.16302 -2.01436 0
M  V30 11885 C 1128.25 -0.0755422 -1.69231 0
M  V30 11886 O 1129.46 -0.236213 -1.78443 0
M  V30 11887 H 1125.84 -0.35961 -0.660443 0
M  V30 11888 H 1127.81 -2.11677 -2.10322 0
M  V30 11889 C 1126.56 -0.869009 -3.36665 0
M  V30 11890 H 1125.88 -1.69787 -3.61956 0
M  V30 11891 H 1127.32 -0.811621 -4.16159 0
M  V30 11892 C 1125.78 0.428021 -3.3417 0
M  V30 11893 O 1126.31 1.45033 -3.74604 0
M  V30 11894 N 1124.51 0.438264 -2.87276 0
M  V30 11895 H 1124.06 -0.394142 -2.54567 0
M  V30 11896 H 1124.02 1.30604 -2.85989 0
M  V30 11897 N 1127.79 1.09952 -1.12909 0
M  V30 11898 C 1128.7 2.19999 -0.81471 0
M  V30 11899 C 1129.72 1.72864 0.19851 0
M  V30 11900 O 1130.89 2.01376 0.0308832 0
M  V30 11901 C 1127.96 3.45573 -0.279363 0
M  V30 11902 C 1127.02 4.07417 -1.35314 0
M  V30 11903 C 1126.25 5.26996 -0.843247 0
M  V30 11904 O 1126.47 5.69495 0.321164 0
M  V30 11905 O 1125.41 5.79826 -1.61511 0
M  V30 11906 H 1129.23 2.49333 -1.73398 0
M  V30 11907 H 1126.82 1.18784 -0.906128 0
M  V30 11908 H 1128.7 4.21398 0.0140531 0
M  V30 11909 H 1127.38 3.17854 0.612401 0
M  V30 11910 H 1126.28 3.33253 -1.6998 0
M  V30 11911 H 1127.62 4.39349 -2.21885 0
M  V30 11912 N 1129.27 0.921757 1.27833 0
M  V30 11913 C 1130.5 0.575202 1.98744 0
M  V30 11914 C 1130.91 -0.845405 1.68815 0
M  V30 11915 O 1130.27 -1.56106 0.94536 0
M  V30 11916 C 1130.32 0.784389 3.52888 0
M  V30 11917 O 1130.04 2.1491 3.81766 0
M  V30 11918 C 1131.54 0.445744 4.41053 0
M  V30 11919 H 1128.76 0.218525 0.634419 0
M  V30 11920 H 1131.31 1.23715 1.62834 0
M  V30 11921 H 1129.46 0.169323 3.8703 0
M  V30 11922 H 1129.87 2.19469 4.76375 0
M  V30 11923 H 1131.35 0.64284 5.48244 0
M  V30 11924 H 1131.83 -0.618433 4.34824 0
M  V30 11925 H 1132.43 1.03869 4.12421 0
M  V30 11926 N 1130.75 -1.41857 0.686609 0
M  V30 11927 C 1131.7 -2.27999 -0.00734666 0
M  V30 11928 C 1132.68 -1.41723 -0.761808 0
M  V30 11929 O 1133.87 -1.65072 -0.638776 0
M  V30 11930 C 1131 -3.29909 -0.949462 0
M  V30 11931 C 1130.09 -4.23666 -0.191722 0
M  V30 11932 N 1130.48 -4.99277 0.809715 0
M  V30 11933 C 1128.78 -4.43937 -0.428489 0
M  V30 11934 C 1129.48 -5.67834 1.2625 0
M  V30 11935 N 1128.45 -5.40387 0.590151 0
M  V30 11936 H 1132.26 -2.83887 0.760608 0
M  V30 11937 H 1129.77 -1.53962 0.516676 0
M  V30 11938 H 1131.77 -3.90436 -1.46169 0
M  V30 11939 H 1130.43 -2.75582 -1.71711 0
M  V30 11940 H 1131.44 -5.04051 1.18966 0
M  V30 11941 H 1128.11 -4.00633 -1.17472 0
M  V30 11942 H 1129.5 -6.38469 2.09301 0
M  V30 11943 N 1132.22 -0.430739 -1.51599 0
M  V30 11944 C 1133.64 -0.0826902 -1.59386 0
M  V30 11945 C 1133.84 1.40729 -1.44214 0
M  V30 11946 O 1132.9 2.1765 -1.28002 0
M  V30 11947 C 1134.21 -0.59691 -2.94716 0
M  V30 11948 C 1135.76 -0.556772 -3.08008 0
M  V30 11949 C 1136.23 -1.04786 -4.45852 0
M  V30 11950 N 1137.72 -1.00557 -4.52153 0
M  V30 11951 C 1138.46 -1.35649 -5.57124 0
M  V30 11952 N 1137.95 -1.77994 -6.69545 0
M  V30 11953 N 1139.75 -1.27508 -5.47447 0
M  V30 11954 H 1131.9 -1.40027 -1.59707 0
M  V30 11955 H 1134.16 -0.576606 -0.752482 0
M  V30 11956 H 1133.87 -1.63914 -3.11167 0
M  V30 11957 H 1133.74 -0.0182342 -3.77196 0
M  V30 11958 H 1136.13 0.476457 -2.91228 0
M  V30 11959 H 1136.21 -1.17177 -2.27383 0
M  V30 11960 H 1135.85 -2.07952 -4.63377 0
M  V30 11961 H 1135.78 -0.409461 -5.25006 0
M  V30 11962 H 1138.27 -0.694518 -3.71463 0
M  V30 11963 H 1138.59 -2.03026 -7.45654 0
M  V30 11964 H 1136.93 -1.81916 -6.70769 0
M  V30 11965 H 1140.12 -0.942969 -4.58504 0
M  V30 11966 H 1140.3 -1.55185 -6.29143 0
M  V30 11967 N 1133.7 1.56767 -0.161869 0
M  V30 11968 C 1135.11 1.83265 0.356466 0
M  V30 11969 C 1135.46 1.08127 1.63716 0
M  V30 11970 O 1134.59 0.33127 2.13849 0
M  V30 11971 C 1135.18 3.32437 0.653521 0
M  V30 11972 C 1133.74 3.59465 1.11633 0
M  V30 11973 C 1132.89 2.76909 0.147204 0
M  V30 11974 H 1135.84 1.53926 -0.386308 0
M  V30 11975 H 1135.86 3.49401 1.50662 0
M  V30 11976 H 1135.37 3.87098 -0.278766 0
M  V30 11977 H 1133.48 3.10206 2.06404 0
M  V30 11978 H 1133.59 4.67853 1.03202 0
M  V30 11979 H 1131.95 2.46457 0.642739 0
M  V30 11980 H 1132.74 3.34346 -0.778938 0
M  V30 11981 N 1135.18 -0.111886 1.57202 0
M  V30 11982 C 1136.11 -1.13796 2.03894 0
M  V30 11983 C 1137.09 -1.4277 0.924696 0
M  V30 11984 O 1138.28 -1.53089 1.19488 0
M  V30 11985 C 1135.41 -2.46229 2.44925 0
M  V30 11986 C 1134.36 -2.31702 3.59859 0
M  V30 11987 C 1133.69 -3.69161 3.86813 0
M  V30 11988 C 1134.99 -1.77158 4.91337 0
M  V30 11989 H 1136.68 -0.749581 2.89865 0
M  V30 11990 H 1134.23 -0.359126 1.3945 0
M  V30 11991 H 1136.18 -3.18267 2.76195 0
M  V30 11992 H 1134.9 -2.86971 1.55933 0
M  V30 11993 H 1133.56 -1.62112 3.28809 0
M  V30 11994 H 1133.21 -4.07401 2.95015 0
M  V30 11995 H 1132.91 -3.60292 4.6418 0
M  V30 11996 H 1134.43 -4.42693 4.20542 0
M  V30 11997 H 1135.85 -2.3902 5.21097 0
M  V30 11998 H 1134.25 -1.79091 5.72753 0
M  V30 11999 H 1135.32 -0.729675 4.79379 0
M  V30 12000 N 1136.66 -1.52894 -0.382264 0
M  V30 12001 C 1137.91 -1.67933 -1.1244 0
M  V30 12002 C 1138.23 -0.425166 -1.90309 0
M  V30 12003 O 1137.5 0.560557 -1.87709 0
M  V30 12004 H 1136.08 -0.619047 -0.418079 0
M  V30 12005 H 1138.74 -1.90031 -0.432928 0
M  V30 12006 H 1137.84 -2.53285 -1.82355 0
M  V30 12007 N 1138.14 0.641106 -1.43971 0
M  V30 12008 C 1139.55 1.22254 -1.41106 0
M  V30 12009 C 1139.9 1.95825 -0.121284 0
M  V30 12010 O 1139.02 2.01901 0.77879 0
M  V30 12011 C 1139.62 2.22364 -2.55617 0
M  V30 12012 C 1138.18 2.75957 -2.55978 0
M  V30 12013 C 1137.33 1.50792 -2.32717 0
M  V30 12014 H 1140.28 0.432381 -1.52696 0
M  V30 12015 H 1140.3 3.04775 -2.27799 0
M  V30 12016 H 1139.81 1.68789 -3.49474 0
M  V30 12017 H 1137.91 3.33562 -1.66034 0
M  V30 12018 H 1138.02 3.22676 -3.54142 0
M  V30 12019 H 1136.39 1.7857 -1.81617 0
M  V30 12020 H 1137.17 0.991343 -3.28675 0
M  V30 12021 N 1139.62 1.30703 0.880598 0
M  V30 12022 C 1140.86 1.19955 1.63519 0
M  V30 12023 C 1141.19 -0.244214 1.92658 0
M  V30 12024 O 1140.47 -1.17412 1.55063 0
M  V30 12025 C 1140.75 2.03302 2.97221 0
M  V30 12026 C 1140.61 3.55921 2.75028 0
M  V30 12027 C 1141.92 1.87421 3.98198 0
M  V30 12028 H 1139.04 0.43712 0.593376 0
M  V30 12029 H 1141.69 1.60382 1.01871 0
M  V30 12030 H 1139.84 1.68953 3.49839 0
M  V30 12031 H 1141.51 4.00352 2.29164 0
M  V30 12032 H 1139.75 3.79885 2.09452 0
M  V30 12033 H 1140.42 4.09533 3.70117 0
M  V30 12034 H 1142.9 2.17459 3.54755 0
M  V30 12035 H 1141.77 2.48057 4.89652 0
M  V30 12036 H 1142.03 0.834563 4.34151 0
M  V30 12037 N 1141.09 -1.09351 1.1349 0
M  V30 12038 C 1142.34 -1.81812 0.898452 0
M  V30 12039 C 1142.67 -1.85525 -0.573959 0
M  V30 12040 O 1141.95 -1.32403 -1.42477 0
M  V30 12041 C 1142.23 -3.27921 1.48794 0
M  V30 12042 C 1142.08 -3.32476 3.02952 0
M  V30 12043 C 1143.4 -4.24625 1.15678 0
M  V30 12044 H 1140.52 -0.660074 0.327829 0
M  V30 12045 H 1143.16 -1.28091 1.40331 0
M  V30 12046 H 1141.31 -3.738 1.05858 0
M  V30 12047 H 1142.99 -2.94994 3.54649 0
M  V30 12048 H 1141.23 -2.72037 3.37903 0
M  V30 12049 H 1141.9 -4.35409 3.39298 0
M  V30 12050 H 1144.38 -3.87036 1.52781 0
M  V30 12051 H 1143.25 -5.25194 1.59571 0
M  V30 12052 H 1143.51 -4.42044 0.0705933 0
M  V30 12053 N 1142.57 -0.928524 -1.27343 0
M  V30 12054 C 1143.81 -0.576696 -1.96096 0
M  V30 12055 C 1144.18 0.866074 -1.71357 0
M  V30 12056 O 1145.38 1.32621 -2.33805 0
M  V30 12057 C 1143.65 -0.894692 -3.4602 0
M  V30 12058 S 1145.21 -0.651503 -4.33936 0
M  V30 12059 H 1142.02 -0.212847 -0.678393 0
M  V30 12060 H 1144.63 -1.19714 -1.5456 0
M  V30 12061 H 1143.33 -1.94239 -3.61524 0
M  V30 12062 H 1142.86 -0.263478 -3.92517 0
M  V30 12063 H 1144.88 0.490314 -4.93772 0
M  V30 12064 N 1144.05 1.41491 -0.694123 0
M  V30 12065 C 1145.3 2.00479 -0.221585 0
M  V30 12066 C 1145.61 1.55605 1.18518 0
M  V30 12067 O 1146.82 2.07143 1.7551 0
M  V30 12068 C 1145.27 3.5824 -0.345264 0
M  V30 12069 C 1144.88 4.12096 -1.7573 0
M  V30 12070 C 1146.63 4.24446 0.0675731 0
M  V30 12071 C 1144.53 5.62286 -1.83271 0
M  V30 12072 H 1143.46 0.749841 -0.0790854 0
M  V30 12073 H 1146.11 1.61987 -0.86211 0
M  V30 12074 H 1144.5 3.94328 0.363487 0
M  V30 12075 H 1145.67 3.8743 -2.49469 0
M  V30 12076 H 1143.98 3.58411 -2.11969 0
M  V30 12077 H 1146.58 5.34691 0.0316485 0
M  V30 12078 H 1146.92 4.01338 1.10606 0
M  V30 12079 H 1147.46 3.93388 -0.59085 0
M  V30 12080 H 1144.2 5.9022 -2.85168 0
M  V30 12081 H 1143.72 5.88883 -1.13914 0
M  V30 12082 H 1145.4 6.27033 -1.59494 0
M  V30 12083 N 1145.53 0.438773 1.51369 0
M  V30 12084 C 1146.75 -0.128221 2.07003 0
M  V30 12085 C 1147.18 -1.3557 1.30393 0
M  V30 12086 O 1146.54 -1.7804 0.342283 0
M  V30 12087 C 1146.58 -0.42761 3.58056 0
M  V30 12088 O 1145.69 -1.51382 3.83611 0
M  V30 12089 H 1145.03 -0.00123679 0.663999 0
M  V30 12090 H 1147.56 0.62052 1.94963 0
M  V30 12091 H 1147.57 -0.677645 4.02333 0
M  V30 12092 H 1146.24 0.469535 4.13241 0
M  V30 12093 H 1144.82 -1.25363 3.51196 0
M  V30 12094 N 1147.01 -1.56678 0.170181 0
M  V30 12095 C 1148.42 -1.83452 -0.346742 0
M  V30 12096 C 1148.77 -1.08993 -1.63141 0
M  V30 12097 O 1147.89 -0.342607 -2.13671 0
M  V30 12098 C 1148.49 -3.32779 -0.635882 0
M  V30 12099 C 1147.05 -3.60052 -1.09725 0
M  V30 12100 C 1146.19 -2.76983 -0.132516 0
M  V30 12101 H 1149.14 -1.53719 0.394465 0
M  V30 12102 H 1149.17 -3.50195 -1.48806 0
M  V30 12103 H 1148.68 -3.86944 0.299291 0
M  V30 12104 H 1146.78 -3.11297 -2.04756 0
M  V30 12105 H 1146.89 -4.68393 -1.00719 0
M  V30 12106 H 1145.26 -2.46794 -0.62966 0
M  V30 12107 H 1146.04 -3.33929 0.796658 0
M  V30 12108 N 1148.48 0.103547 -1.57259 0
M  V30 12109 C 1149.73 0.804704 -1.86805 0
M  V30 12110 C 1150.08 1.76756 -0.759942 0
M  V30 12111 O 1149.38 1.90106 0.238789 0
M  V30 12112 C 1149.57 1.57946 -3.20605 0
M  V30 12113 C 1149.4 0.693136 -4.44326 0
M  V30 12114 C 1148.17 0.342079 -5.04141 0
M  V30 12115 C 1150.37 0.00385713 -5.143 0
M  V30 12116 N 1148.35 -0.553293 -6.11402 0
M  V30 12117 C 1149.72 -0.74991 -6.15448 0
M  V30 12118 C 1151.78 -0.0709485 -4.97849 0
M  V30 12119 C 1150.48 -1.57148 -7.01924 0
M  V30 12120 C 1152.51 -0.879391 -5.84825 0
M  V30 12121 C 1151.87 -1.6213 -6.85488 0
M  V30 12122 H 1147.97 0.270899 -0.733579 0
M  V30 12123 H 1150.55 0.0676446 -1.94582 0
M  V30 12124 H 1148.72 2.28745 -3.13895 0
M  V30 12125 H 1150.45 2.22715 -3.37905 0
M  V30 12126 H 1147.21 0.687831 -4.68579 0
M  V30 12127 H 1147.63 -0.993284 -6.69674 0
M  V30 12128 H 1152.27 0.488299 -4.19971 0
M  V30 12129 H 1149.99 -2.14182 -7.79199 0
M  V30 12130 H 1153.58 -0.939834 -5.74159 0
M  V30 12131 H 1152.46 -2.2368 -7.51623 0
M  V30 12132 N 1149.96 1.53094 0.37415 0
M  V30 12133 C 1150.91 1.79585 1.47824 0
M  V30 12134 C 1151.9 0.664513 1.55822 0
M  V30 12135 O 1153.11 0.84729 1.58811 0
M  V30 12136 H 1149.48 0.568474 0.492282 0
M  V30 12137 H 1151.46 2.72014 1.22681 0
M  V30 12138 C 1150.2 1.995 2.84772 0
M  V30 12139 H 1149.53 2.85991 2.79373 0
M  V30 12140 H 1150.97 2.22018 3.61226 0
M  V30 12141 C 1149.43 0.771673 3.27943 0
M  V30 12142 O 1149.96 -0.0437737 4.01676 0
M  V30 12143 N 1148.16 0.597547 2.8439 0
M  V30 12144 H 1147.71 1.26227 2.24554 0
M  V30 12145 H 1147.67 -0.219578 3.13632 0
M  V30 12146 N 1151.44 -0.633461 1.44309 0
M  V30 12147 C 1152.69 -1.39306 1.46969 0
M  V30 12148 C 1153.01 -1.94235 0.101403 0
M  V30 12149 O 1152.27 -1.73959 -0.896475 0
M  V30 12150 C 1152.57 -2.57783 2.47554 0
M  V30 12151 C 1152.23 -2.21156 3.92939 0
M  V30 12152 C 1150.9 -2.1088 4.32531 0
M  V30 12153 C 1153.25 -1.9218 4.84475 0
M  V30 12154 C 1150.58 -1.69812 5.61588 0
M  V30 12155 C 1152.93 -1.52605 6.13917 0
M  V30 12156 C 1151.59 -1.40868 6.52466 0
M  V30 12157 H 1150.86 -0.509758 0.537799 0
M  V30 12158 H 1153.51 -0.718552 1.77508 0
M  V30 12159 H 1151.81 -3.30456 2.1049 0
M  V30 12160 H 1153.51 -3.16009 2.46859 0
M  V30 12161 H 1150.1 -2.30072 3.61614 0
M  V30 12162 H 1154.29 -1.9903 4.54644 0
M  V30 12163 H 1149.54 -1.59327 5.90275 0
M  V30 12164 H 1153.72 -1.29221 6.84306 0
M  V30 12165 H 1151.34 -1.08818 7.52371 0
M  V30 12166 N 1152.92 -1.31168 -0.873655 0
M  V30 12167 C 1154.33 -1.18584 -1.44203 0
M  V30 12168 C 1154.68 0.209114 -1.95082 0
M  V30 12169 O 1153.81 1.10662 -1.85965 0
M  V30 12170 C 1154.4 -2.14668 -2.62112 0
M  V30 12171 C 1152.96 -2.06029 -3.15006 0
M  V30 12172 C 1152.11 -2.04106 -1.87712 0
M  V30 12173 H 1155.06 -1.43273 -0.682536 0
M  V30 12174 H 1155.08 -1.73413 -3.38686 0
M  V30 12175 H 1154.59 -3.16186 -2.25051 0
M  V30 12176 H 1152.69 -1.07693 -3.56697 0
M  V30 12177 H 1152.8 -2.9496 -3.77539 0
M  V30 12178 H 1151.17 -1.49069 -2.0652 0
M  V30 12179 H 1151.95 -3.07373 -1.52894 0
M  V30 12180 N 1154.4 1.08748 -1.14068 0
M  V30 12181 C 1155.33 2.17591 -0.84714 0
M  V30 12182 C 1156.31 1.68962 0.196415 0
M  V30 12183 O 1157.49 1.94125 0.0538415 0
M  V30 12184 C 1154.62 3.45823 -0.320005 0
M  V30 12185 C 1153.58 4.07824 -1.2986 0
M  V30 12186 C 1152.9 5.30965 -0.630925 0
M  V30 12187 C 1154.2 4.49512 -2.65963 0
M  V30 12188 H 1155.9 2.42404 -1.75729 0
M  V30 12189 H 1153.44 1.16502 -0.846356 0
M  V30 12190 H 1155.4 4.21276 -0.102271 0
M  V30 12191 H 1154.12 3.20553 0.625561 0
M  V30 12192 H 1152.78 3.34398 -1.50245 0
M  V30 12193 H 1152.43 5.01979 0.320337 0
M  V30 12194 H 1152.13 5.73402 -1.28388 0
M  V30 12195 H 1153.65 6.09136 -0.422635 0
M  V30 12196 H 1155.06 5.16159 -2.49506 0
M  V30 12197 H 1153.46 5.02857 -3.27498 0
M  V30 12198 H 1154.53 3.6157 -3.23102 0
M  V30 12199 N 1155.87 0.935264 1.26849 0
M  V30 12200 C 1156.84 0.44485 2.24842 0
M  V30 12201 C 1157.84 -0.440781 1.54641 0
M  V30 12202 O 1159.03 -0.240793 1.72528 0
M  V30 12203 C 1156.16 -0.359566 3.38998 0
M  V30 12204 H 1157.35 1.31074 2.6974 0
M  V30 12205 H 1154.91 0.716665 1.38901 0
M  V30 12206 H 1155.64 -1.24396 2.99493 0
M  V30 12207 H 1155.43 0.275529 3.91131 0
M  V30 12208 H 1156.92 -0.692804 4.11813 0
M  V30 12209 N 1157.35 -1.41121 0.701616 0
M  V30 12210 C 1158.6 -2.00359 0.232214 0
M  V30 12211 C 1158.91 -1.56231 -1.17691 0
M  V30 12212 O 1160.12 -2.08071 -1.74409 0
M  V30 12213 C 1158.58 -3.58052 0.364257 0
M  V30 12214 C 1158.18 -4.11158 1.77913 0
M  V30 12215 C 1159.93 -4.24476 -0.0450628 0
M  V30 12216 C 1157.84 -5.61306 1.8625 0
M  V30 12217 H 1156.77 -0.749411 0.0830609 0
M  V30 12218 H 1159.42 -1.61528 0.870689 0
M  V30 12219 H 1157.8 -3.94515 -0.342569 0
M  V30 12220 H 1158.97 -3.86101 2.5152 0
M  V30 12221 H 1157.29 -3.57282 2.13866 0
M  V30 12222 H 1159.88 -5.347 -0.00329209 0
M  V30 12223 H 1160.23 -4.01919 -1.08477 0
M  V30 12224 H 1160.76 -3.93069 0.611704 0
M  V30 12225 H 1157.5 -5.88699 2.88294 0
M  V30 12226 H 1157.02 -5.88271 1.17036 0
M  V30 12227 H 1158.7 -6.26179 1.62817 0
M  V30 12228 N 1158.83 -0.446794 -1.51134 0
M  V30 12229 C 1160.08 0.116493 -2.02165 0
M  V30 12230 C 1160.41 1.41884 -1.33039 0
M  V30 12231 O 1159.66 1.90757 -0.437071 0
M  V30 12232 C 1159.96 0.373015 -3.55448 0
M  V30 12233 C 1159.63 -0.844659 -4.42918 0
M  V30 12234 C 1158.29 -1.17857 -4.66544 0
M  V30 12235 C 1160.64 -1.65653 -4.94174 0
M  V30 12236 C 1157.97 -2.32486 -5.38672 0
M  V30 12237 C 1160.32 -2.7939 -5.6756 0
M  V30 12238 C 1158.98 -3.13224 -5.89446 0
M  V30 12239 H 1158.25 0.0426279 -0.739773 0
M  V30 12240 H 1160.9 -0.595921 -1.81992 0
M  V30 12241 H 1159.21 1.16742 -3.74003 0
M  V30 12242 H 1160.9 0.822425 -3.92476 0
M  V30 12243 H 1157.49 -0.574478 -4.24733 0
M  V30 12244 H 1161.68 -1.41176 -4.75797 0
M  V30 12245 H 1156.93 -2.59003 -5.5383 0
M  V30 12246 H 1161.11 -3.42662 -6.06264 0
M  V30 12247 H 1158.73 -4.02158 -6.45115 0
M  V30 12248 N 1160.31 1.56586 -0.178487 0
M  V30 12249 C 1161.54 2.01475 0.470684 0
M  V30 12250 C 1161.95 1.0587 1.56323 0
M  V30 12251 O 1161.31 0.060749 1.82399 0
M  V30 12252 C 1161.36 3.46145 1.04238 0
M  V30 12253 O 1161.08 4.381 -0.0065582 0
M  V30 12254 C 1162.58 4.06471 1.76908 0
M  V30 12255 H 1159.8 0.660219 0.119801 0
M  V30 12256 H 1162.35 2.02542 -0.282322 0
M  V30 12257 H 1160.5 3.45831 1.74585 0
M  V30 12258 H 1160.91 5.22843 0.416554 0
M  V30 12259 H 1162.39 5.096 2.12161 0
M  V30 12260 H 1162.87 3.48974 2.66672 0
M  V30 12261 H 1163.47 4.10509 1.11186 0
M  V30 12262 N 1161.79 -0.095206 1.57312 0
M  V30 12263 C 1163.03 -0.797142 1.85715 0
M  V30 12264 C 1163.36 -1.79275 0.767171 0
M  V30 12265 O 1162.63 -1.94808 -0.206584 0
M  V30 12266 H 1161.21 -0.297382 0.685254 0
M  V30 12267 H 1163.87 -0.0768617 1.94748 0
M  V30 12268 H 1162.96 -1.32779 2.82447 0
M  V30 12269 N 1163.26 -1.53291 -0.366026 0
M  V30 12270 C 1164.2 -1.75981 -1.46845 0
M  V30 12271 C 1165.21 -0.640574 -1.49668 0
M  V30 12272 O 1166.4 -0.916823 -1.53155 0
M  V30 12273 C 1163.5 -1.82426 -2.85611 0
M  V30 12274 C 1162.67 -3.12062 -3.0649 0
M  V30 12275 C 1161.73 -3.09755 -4.25368 0
M  V30 12276 O 1160.76 -3.83555 -4.20564 0
M  V30 12277 N 1161.96 -2.30544 -5.32757 0
M  V30 12278 H 1164.72 -2.71104 -1.2776 0
M  V30 12279 H 1162.28 -1.52063 -0.555745 0
M  V30 12280 H 1164.28 -1.78361 -3.63276 0
M  V30 12281 H 1162.85 -0.945888 -2.97946 0
M  V30 12282 H 1162.07 -3.29433 -2.16489 0
M  V30 12283 H 1163.35 -3.97735 -3.17308 0
M  V30 12284 H 1162.75 -1.70095 -5.39522 0
M  V30 12285 H 1161.31 -2.32298 -6.09 0
M  V30 12286 N 1164.74 0.6258 -1.44643 0
M  V30 12287 C 1165.99 1.38125 -1.46984 0
M  V30 12288 C 1166.3 1.95299 -0.108429 0
M  V30 12289 O 1167.51 2.71498 -0.00940005 0
M  V30 12290 C 1165.97 2.50108 -2.58793 0
M  V30 12291 C 1165.57 1.99424 -4.01166 0
M  V30 12292 C 1167.32 3.27269 -2.70361 0
M  V30 12293 C 1165.23 3.08781 -5.04389 0
M  V30 12294 H 1164.16 0.519083 -0.546872 0
M  V30 12295 H 1166.81 0.67268 -1.70726 0
M  V30 12296 H 1165.19 3.23565 -2.28302 0
M  V30 12297 H 1166.36 1.32797 -4.4125 0
M  V30 12298 H 1164.68 1.35063 -3.93887 0
M  V30 12299 H 1167.27 4.08802 -3.44652 0
M  V30 12300 H 1167.62 3.77097 -1.76362 0
M  V30 12301 H 1168.15 2.60905 -3.00289 0
M  V30 12302 H 1164.89 2.63891 -6.00035 0
M  V30 12303 H 1164.41 3.74033 -4.68892 0
M  V30 12304 H 1166.09 3.73469 -5.28328 0
M  V30 12305 N 1166.22 1.31629 0.866686 0
M  V30 12306 C 1167.18 1.1951 1.95576 0
M  V30 12307 C 1168.18 0.121319 1.60342 0
M  V30 12308 O 1169.37 0.370832 1.70207 0
M  V30 12309 C 1166.51 0.835201 3.30511 0
M  V30 12310 H 1167.7 2.16285 2.07752 0
M  V30 12311 H 1165.25 1.15288 1.05539 0
M  V30 12312 H 1165.99 -0.131245 3.24034 0
M  V30 12313 H 1165.77 1.61142 3.57457 0
M  V30 12314 H 1167.26 0.774393 4.10357 0
M  V30 12315 N 1167.7 -1.08142 1.14644 0
M  V30 12316 C 1168.66 -2.13308 0.83859 0
M  V30 12317 C 1169.66 -1.60022 -0.158012 0
M  V30 12318 O 1170.85 -1.74057 0.0706621 0
M  V30 12319 C 1167.98 -3.39978 0.250591 0
M  V30 12320 H 1169.18 -2.42049 1.77066 0
M  V30 12321 H 1166.73 -1.23899 0.952828 0
M  V30 12322 H 1167.47 -3.16873 -0.690064 0
M  V30 12323 H 1167.25 -3.79952 0.968456 0
M  V30 12324 H 1168.74 -4.17567 0.0525115 0
M  V30 12325 N 1169.18 -0.941978 -1.26351 0
M  V30 12326 C 1170.14 -0.456768 -2.24602 0
M  V30 12327 C 1171.14 0.432574 -1.54872 0
M  V30 12328 O 1172.33 0.23164 -1.72653 0
M  V30 12329 C 1169.46 0.341583 -3.39184 0
M  V30 12330 H 1170.66 -1.32503 -2.69041 0
M  V30 12331 H 1168.21 -0.724021 -1.38519 0
M  V30 12332 H 1168.94 1.22806 -3.00149 0
M  V30 12333 H 1168.73 -0.296268 -3.90979 0
M  V30 12334 H 1170.22 0.670955 -4.12175 0
M  V30 12335 N 1170.66 1.40747 -0.709091 0
M  V30 12336 C 1171.59 2.33404 -0.0669763 0
M  V30 12337 C 1172.57 1.52546 0.752582 0
M  V30 12338 O 1173.75 1.81036 0.702823 0
M  V30 12339 C 1170.88 3.36476 0.860285 0
M  V30 12340 C 1169.84 4.27748 0.146828 0
M  V30 12341 C 1169.16 5.21304 1.18937 0
M  V30 12342 C 1170.46 5.12734 -0.995064 0
M  V30 12343 H 1172.16 2.87349 -0.840888 0
M  V30 12344 H 1169.7 1.38163 -0.405817 0
M  V30 12345 H 1171.65 4.00231 1.31883 0
M  V30 12346 H 1170.38 2.80912 1.66602 0
M  V30 12347 H 1169.04 3.65437 -0.291826 0
M  V30 12348 H 1168.69 4.62048 1.98798 0
M  V30 12349 H 1168.39 5.8321 0.716917 0
M  V30 12350 H 1169.91 5.87936 1.64815 0
M  V30 12351 H 1171.32 5.69979 -0.61618 0
M  V30 12352 H 1169.72 5.83649 -1.39547 0
M  V30 12353 H 1170.79 4.49097 -1.82867 0
M  V30 12354 N 1172.13 0.454803 1.50895 0
M  V30 12355 C 1173.1 -0.336293 2.26719 0
M  V30 12356 C 1174.1 -0.93464 1.30848 0
M  V30 12357 O 1175.29 -0.80636 1.54413 0
M  V30 12358 C 1172.42 -1.47744 3.07221 0
M  V30 12359 H 1173.61 0.328462 2.98096 0
M  V30 12360 H 1171.16 0.208419 1.54904 0
M  V30 12361 H 1171.9 -2.17773 2.40302 0
M  V30 12362 H 1171.68 -1.05438 3.77658 0
M  V30 12363 H 1173.17 -2.03592 3.6461 0
M  V30 12364 N 1173.61 -1.56489 0.186789 0
M  V30 12365 C 1174.57 -2.17478 -0.723596 0
M  V30 12366 C 1175.57 -1.12698 -1.14699 0
M  V30 12367 O 1176.76 -1.38128 -1.06143 0
M  V30 12368 C 1173.9 -2.77015 -1.98685 0
M  V30 12369 H 1175.09 -2.99282 -0.192403 0
M  V30 12370 H 1172.64 -1.56174 -0.0628153 0
M  V30 12371 H 1173.38 -1.98987 -2.56076 0
M  V30 12372 H 1173.16 -3.53711 -1.69207 0
M  V30 12373 H 1174.65 -3.23872 -2.63622 0
M  V30 12374 N 1175.09 0.086862 -1.5736 0
M  V30 12375 C 1176.34 0.787281 -1.86135 0
M  V30 12376 C 1176.66 1.78866 -0.776667 0
M  V30 12377 O 1175.93 1.94915 0.19625 0
M  V30 12378 H 1174.51 0.293744 -0.686821 0
M  V30 12379 H 1177.17 0.0665326 -1.94786 0
M  V30 12380 H 1176.27 1.3128 -2.83147 0
M  V30 12381 N 1176.57 1.53483 0.357892 0
M  V30 12382 C 1177.52 1.81143 1.45911 0
M  V30 12383 C 1178.51 0.681002 1.55109 0
M  V30 12384 O 1179.72 0.864086 1.57904 0
M  V30 12385 H 1176.09 0.573663 0.486225 0
M  V30 12386 H 1178.06 2.733 1.19789 0
M  V30 12387 C 1176.81 2.02509 2.8264 0
M  V30 12388 H 1176.13 2.88938 2.76324 0
M  V30 12389 H 1177.57 2.25837 3.58851 0
M  V30 12390 C 1176.03 0.806412 3.27106 0
M  V30 12391 O 1176.56 -0.00116809 4.017 0
M  V30 12392 N 1174.77 0.627677 2.8374 0
M  V30 12393 H 1174.32 1.28601 2.23203 0
M  V30 12394 H 1174.27 -0.186301 3.13848 0
M  V30 12395 N 1178.05 -0.61812 1.44973 0
M  V30 12396 C 1179.27 -1.40921 1.52171 0
M  V30 12397 C 1179.7 -1.87487 0.151755 0
M  V30 12398 O 1179.05 -1.59518 -0.861606 0
M  V30 12399 C 1179.1 -2.59689 2.50188 0
M  V30 12400 O 1178.21 -3.59967 2.0124 0
M  V30 12401 H 1177.55 -0.421138 0.51336 0
M  V30 12402 H 1180.08 -0.753258 1.90229 0
M  V30 12403 H 1180.09 -3.07069 2.6865 0
M  V30 12404 H 1178.76 -2.25144 3.4969 0
M  V30 12405 H 1177.34 -3.19308 1.92605 0
M  V30 12406 N 1179.52 -1.32087 -0.859693 0
M  V30 12407 C 1180.77 -1.22542 -1.6159 0
M  V30 12408 C 1181.1 0.213533 -1.93022 0
M  V30 12409 O 1180.38 1.14931 -1.56911 0
M  V30 12410 C 1180.66 -2.08004 -2.93949 0
M  V30 12411 C 1180.51 -3.60252 -2.6933 0
M  V30 12412 C 1181.83 -1.93732 -3.95166 0
M  V30 12413 H 1178.95 -0.446504 -0.586347 0
M  V30 12414 H 1181.59 -1.61982 -0.993064 0
M  V30 12415 H 1179.74 -1.74498 -3.47106 0
M  V30 12416 H 1181.42 -4.03947 -2.22766 0
M  V30 12417 H 1179.66 -3.83169 -2.03382 0
M  V30 12418 H 1180.33 -4.1537 -3.63555 0
M  V30 12419 H 1182.81 -2.23075 -3.5125 0
M  V30 12420 H 1181.68 -2.55815 -4.85644 0
M  V30 12421 H 1181.94 -0.903528 -4.32769 0
M  V30 12422 N 1181 1.07532 -1.15215 0
M  V30 12423 C 1181.93 2.1668 -0.870171 0
M  V30 12424 C 1182.91 1.69161 0.178483 0
M  V30 12425 O 1184.1 1.94172 0.0332489 0
M  V30 12426 C 1181.23 3.45464 -0.356666 0
M  V30 12427 C 1180.18 4.06424 -1.34179 0
M  V30 12428 C 1179.51 5.30266 -0.687206 0
M  V30 12429 C 1180.81 4.46666 -2.70715 0
M  V30 12430 H 1182.5 2.40526 -1.7829 0
M  V30 12431 H 1180.05 1.15598 -0.858665 0
M  V30 12432 H 1182 4.21144 -0.146947 0
M  V30 12433 H 1180.72 3.21199 0.591527 0
M  V30 12434 H 1179.38 3.32786 -1.53783 0
M  V30 12435 H 1179.03 5.0229 0.267077 0
M  V30 12436 H 1178.73 5.72009 -1.34462 0
M  V30 12437 H 1180.26 6.08653 -0.487218 0
M  V30 12438 H 1181.67 5.13483 -2.54966 0
M  V30 12439 H 1180.07 4.99355 -3.32813 0
M  V30 12440 H 1181.14 3.58123 -3.26919 0
M  V30 12441 N 1182.48 0.948665 1.2585 0
M  V30 12442 C 1183.44 0.468673 2.24357 0
M  V30 12443 C 1184.44 -0.424355 1.551 0
M  V30 12444 O 1185.63 -0.222481 1.72773 0
M  V30 12445 C 1182.77 -0.32359 3.39361 0
M  V30 12446 H 1183.96 1.33928 2.68334 0
M  V30 12447 H 1181.51 0.731357 1.38133 0
M  V30 12448 H 1182.25 -1.21212 3.00796 0
M  V30 12449 H 1182.03 0.316998 3.90816 0
M  V30 12450 H 1183.52 -0.649087 4.12525 0
M  V30 12451 N 1183.96 -1.40369 0.716545 0
M  V30 12452 C 1184.91 -2.3071 0.0645944 0
M  V30 12453 C 1185.88 -1.48239 -0.749294 0
M  V30 12454 O 1187.06 -1.76975 -0.713045 0
M  V30 12455 C 1184.2 -3.34456 -0.850478 0
M  V30 12456 C 1183.31 -4.31992 -0.0259594 0
M  V30 12457 C 1182.45 -5.22806 -0.940599 0
M  V30 12458 C 1181.49 -6.12001 -0.110228 0
M  V30 12459 N 1180.62 -6.9523 -0.979796 0
M  V30 12460 H 1185.46 -2.85896 0.840682 0
M  V30 12461 H 1183 -1.40789 0.426258 0
M  V30 12462 H 1184.96 -3.93177 -1.39528 0
M  V30 12463 H 1183.59 -2.8077 -1.59274 0
M  V30 12464 H 1182.64 -3.75045 0.636036 0
M  V30 12465 H 1183.95 -4.94971 0.616883 0
M  V30 12466 H 1183.11 -5.86463 -1.5539 0
M  V30 12467 H 1181.85 -4.60104 -1.61726 0
M  V30 12468 H 1180.85 -5.47373 0.516001 0
M  V30 12469 H 1182.08 -6.76763 0.562944 0
M  V30 12470 H 1180.02 -6.35115 -1.64209 0
M  V30 12471 H 1179.94 -7.54978 -0.393012 0
M  V30 12472 H 1181.21 -7.63335 -1.57924 0
M  V30 12473 N 1185.44 -0.462799 -1.50652 0
M  V30 12474 C 1186.85 -0.00568907 -1.86699 0
M  V30 12475 C 1187.2 1.39641 -1.37822 0
M  V30 12476 O 1186.32 2.03366 -0.739679 0
M  V30 12477 C 1186.92 -0.00354783 -3.388 0
M  V30 12478 C 1185.48 0.398061 -3.74289 0
M  V30 12479 C 1184.62 -0.392574 -2.74507 0
M  V30 12480 H 1187.58 -0.677469 -1.43513 0
M  V30 12481 H 1187.6 0.800456 -3.71985 0
M  V30 12482 H 1187.11 -1.02414 -3.74344 0
M  V30 12483 H 1185.21 1.42331 -3.44344 0
M  V30 12484 H 1185.32 0.105168 -4.78985 0
M  V30 12485 H 1183.69 0.152608 -2.54242 0
M  V30 12486 H 1184.47 -1.41252 -3.12894 0
M  V30 12487 N 1186.91 1.56388 -0.195085 0
M  V30 12488 C 1187.88 2.17859 0.712053 0
M  V30 12489 C 1188.88 1.13304 1.141 0
M  V30 12490 O 1190.07 1.38689 1.05409 0
M  V30 12491 C 1187.2 2.78065 1.97213 0
M  V30 12492 H 1188.39 2.9938 0.176529 0
M  V30 12493 H 1185.95 1.56205 0.0545322 0
M  V30 12494 H 1186.68 2.00342 2.55017 0
M  V30 12495 H 1186.47 3.54603 1.67329 0
M  V30 12496 H 1187.96 3.25266 2.619 0
M  V30 12497 N 1188.39 -0.0785156 1.57404 0
M  V30 12498 C 1189.3 -1.11203 2.0657 0
M  V30 12499 C 1190.32 -1.42822 0.993872 0
M  V30 12500 O 1191.49 -1.53133 1.30814 0
M  V30 12501 C 1188.56 -2.40812 2.4942 0
M  V30 12502 C 1187.62 -2.16225 3.70871 0
M  V30 12503 C 1186.85 -3.39654 4.11668 0
M  V30 12504 O 1187.08 -4.48521 3.524 0
M  V30 12505 O 1186.01 -3.28263 5.04507 0
M  V30 12506 H 1189.84 -0.724381 2.94935 0
M  V30 12507 H 1187.42 -0.292184 1.46515 0
M  V30 12508 H 1189.3 -3.17101 2.77534 0
M  V30 12509 H 1187.98 -2.7897 1.64187 0
M  V30 12510 H 1186.89 -1.37663 3.4785 0
M  V30 12511 H 1188.22 -1.82951 4.56935 0
M  V30 12512 N 1189.87 -1.5367 -0.349747 0
M  V30 12513 C 1190.8 -1.77528 -1.4497 0
M  V30 12514 C 1191.82 -0.656412 -1.4898 0
M  V30 12515 O 1193 -0.933016 -1.52174 0
M  V30 12516 C 1190.1 -1.85445 -2.8366 0
M  V30 12517 C 1189.28 -3.15295 -3.03163 0
M  V30 12518 C 1188.34 -3.1425 -4.22059 0
M  V30 12519 O 1187.36 -3.87994 -4.16472 0
M  V30 12520 N 1188.56 -2.36181 -5.30282 0
M  V30 12521 H 1191.33 -2.72444 -1.24877 0
M  V30 12522 H 1188.89 -1.52644 -0.539586 0
M  V30 12523 H 1190.88 -1.82204 -3.61364 0
M  V30 12524 H 1189.45 -0.977436 -2.96926 0
M  V30 12525 H 1188.67 -3.31711 -2.12983 0
M  V30 12526 H 1189.96 -4.01078 -3.13072 0
M  V30 12527 H 1189.36 -1.75808 -5.37688 0
M  V30 12528 H 1187.92 -2.38744 -6.06502 0
M  V30 12529 N 1191.35 0.610423 -1.45298 0
M  V30 12530 C 1192.58 1.39621 -1.52688 0
M  V30 12531 C 1192.99 1.88133 -0.158535 0
M  V30 12532 O 1192.35 1.62051 0.839396 0
M  V30 12533 C 1192.4 2.60261 -2.50891 0
M  V30 12534 O 1192.12 2.13766 -3.82408 0
M  V30 12535 C 1193.62 3.53154 -2.6795 0
M  V30 12536 H 1190.84 0.427493 -0.517195 0
M  V30 12537 H 1193.39 0.744701 -1.90459 0
M  V30 12538 H 1191.54 3.2146 -2.162 0
M  V30 12539 H 1191.95 2.92128 -4.35616 0
M  V30 12540 H 1193.43 4.34355 -3.40647 0
M  V30 12541 H 1193.91 4.03311 -1.73888 0
M  V30 12542 H 1194.51 2.9781 -3.03627 0
M  V30 12543 N 1192.83 1.32541 0.852676 0
M  V30 12544 C 1194.24 1.20863 1.42299 0
M  V30 12545 C 1194.59 -0.178051 1.9539 0
M  V30 12546 O 1193.71 -1.07689 1.87702 0
M  V30 12547 C 1194.31 2.18811 2.58664 0
M  V30 12548 C 1192.87 2.11015 3.11689 0
M  V30 12549 C 1192.01 2.07067 1.84441 0
M  V30 12550 H 1194.97 1.44341 0.659657 0
M  V30 12551 H 1194.99 1.78779 3.35884 0
M  V30 12552 H 1194.5 3.19726 2.19993 0
M  V30 12553 H 1192.6 1.13354 3.54939 0
M  V30 12554 H 1192.71 3.00929 3.72799 0
M  V30 12555 H 1191.08 1.52335 2.04123 0
M  V30 12556 H 1191.86 3.09767 1.47984 0
M  V30 12557 N 1194.3 -1.0692 1.15784 0
M  V30 12558 C 1195.23 -2.16216 0.881649 0
M  V30 12559 C 1196.22 -1.69253 -0.16951 0
M  V30 12560 O 1197.4 -1.94186 -0.0229511 0
M  V30 12561 C 1194.53 -3.4527 0.374982 0
M  V30 12562 C 1193.48 -4.05706 1.36332 0
M  V30 12563 C 1192.81 -5.29894 0.715317 0
M  V30 12564 C 1194.11 -4.45224 2.7308 0
M  V30 12565 H 1195.8 -2.39577 1.79563 0
M  V30 12566 H 1193.35 -1.15141 0.864784 0
M  V30 12567 H 1195.3 -4.2106 0.169279 0
M  V30 12568 H 1194.03 -3.21508 -0.574485 0
M  V30 12569 H 1192.69 -3.31965 1.55546 0
M  V30 12570 H 1192.33 -5.02425 -0.240436 0
M  V30 12571 H 1192.03 -5.71287 1.37494 0
M  V30 12572 H 1193.56 -6.08386 0.519489 0
M  V30 12573 H 1194.97 -5.12124 2.57686 0
M  V30 12574 H 1193.37 -4.97583 3.35457 0
M  V30 12575 H 1194.44 -3.56384 3.28813 0
M  V30 12576 N 1195.78 -0.955326 -1.25345 0
M  V30 12577 C 1197.03 -0.606149 -1.92377 0
M  V30 12578 C 1197.34 0.860927 -1.75634 0
M  V30 12579 O 1198.55 1.3201 -2.37246 0
M  V30 12580 C 1197.01 -1.03341 -3.44744 0
M  V30 12581 C 1196.61 -2.52308 -3.70196 0
M  V30 12582 C 1198.36 -0.756797 -4.17699 0
M  V30 12583 C 1196.27 -2.88831 -5.16072 0
M  V30 12584 H 1195.2 -0.222994 -0.720271 0
M  V30 12585 H 1197.85 -1.15987 -1.42194 0
M  V30 12586 H 1196.23 -0.408096 -3.93892 0
M  V30 12587 H 1197.4 -3.19864 -3.31698 0
M  V30 12588 H 1195.72 -2.77448 -3.10502 0
M  V30 12589 H 1198.31 -1.00583 -5.25154 0
M  V30 12590 H 1198.66 0.306794 -4.15168 0
M  V30 12591 H 1199.19 -1.34249 -3.74462 0
M  V30 12592 H 1195.93 -3.9421 -5.23716 0
M  V30 12593 H 1195.45 -2.25948 -5.55614 0
M  V30 12594 H 1197.13 -2.78061 -5.84201 0
M  V30 12595 N 1197.26 1.39987 -0.723979 0
M  V30 12596 C 1198.22 2.29041 -0.0854583 0
M  V30 12597 C 1199.22 1.45777 0.678657 0
M  V30 12598 O 1200.41 1.66588 0.509311 0
M  V30 12599 C 1197.55 3.29115 0.88859 0
M  V30 12600 H 1198.74 2.87006 -0.869903 0
M  V30 12601 H 1196.29 1.48449 -0.489136 0
M  V30 12602 H 1197.03 2.76184 1.69979 0
M  V30 12603 H 1196.81 3.90593 0.343454 0
M  V30 12604 H 1198.3 3.95778 1.33227 0
M  V30 12605 N 1198.74 0.470782 1.50404 0
M  V30 12606 C 1199.7 -0.312227 2.27063 0
M  V30 12607 C 1200.7 -0.920709 1.31832 0
M  V30 12608 O 1201.89 -0.789937 1.5526 0
M  V30 12609 C 1199.02 -1.44477 3.0877 0
M  V30 12610 H 1200.22 0.36006 2.97731 0
M  V30 12611 H 1197.77 0.224837 1.54674 0
M  V30 12612 H 1198.51 -2.15212 2.42599 0
M  V30 12613 H 1198.29 -1.01426 3.78755 0
M  V30 12614 H 1199.78 -1.99713 3.66749 0
M  V30 12615 N 1200.22 -1.56282 0.203376 0
M  V30 12616 C 1201.15 -2.16714 -0.74616 0
M  V30 12617 C 1202.16 -1.13121 -1.17079 0
M  V30 12618 O 1203.35 -1.40179 -1.10509 0
M  V30 12619 C 1200.45 -2.72115 -2.02007 0
M  V30 12620 C 1199.62 -4.00695 -1.75391 0
M  V30 12621 C 1198.68 -4.40839 -2.8731 0
M  V30 12622 O 1197.71 -5.081 -2.56561 0
M  V30 12623 N 1198.91 -4.05024 -4.15856 0
M  V30 12624 H 1201.68 -2.98821 -0.229326 0
M  V30 12625 H 1199.24 -1.61885 0.0217049 0
M  V30 12626 H 1201.23 -2.95951 -2.76035 0
M  V30 12627 H 1199.8 -1.94415 -2.44789 0
M  V30 12628 H 1199.02 -3.84905 -0.851 0
M  V30 12629 H 1200.31 -4.8461 -1.55017 0
M  V30 12630 H 1199.71 -3.50938 -4.43688 0
M  V30 12631 H 1198.26 -4.33792 -4.86485 0
M  V30 12632 N 1201.7 0.070167 -1.57444 0
M  V30 12633 C 1202.94 0.767495 -1.8696 0
M  V30 12634 C 1203.26 1.78032 -0.795595 0
M  V30 12635 O 1202.53 1.95112 0.175566 0
M  V30 12636 H 1201.11 0.286443 -0.689898 0
M  V30 12637 H 1203.78 0.0458692 -1.94846 0
M  V30 12638 H 1202.87 1.28269 -2.84523 0
M  V30 12639 N 1203.17 1.53854 0.341593 0
M  V30 12640 C 1204.42 1.7041 1.07905 0
M  V30 12641 C 1204.74 0.475039 1.89744 0
M  V30 12642 O 1205.94 0.521589 2.66443 0
M  V30 12643 C 1204.4 3.01342 1.96776 0
M  V30 12644 C 1204.01 4.31592 1.20135 0
M  V30 12645 C 1205.75 3.27264 2.70367 0
M  V30 12646 C 1203.66 5.53598 2.08047 0
M  V30 12647 H 1202.59 0.635005 0.406553 0
M  V30 12648 H 1205.24 1.80353 0.338409 0
M  V30 12649 H 1203.62 2.85261 2.74667 0
M  V30 12650 H 1204.79 4.58382 0.471404 0
M  V30 12651 H 1203.11 4.12298 0.583039 0
M  V30 12652 H 1205.71 4.15607 3.36415 0
M  V30 12653 H 1206.05 2.44357 3.37039 0
M  V30 12654 H 1206.58 3.4413 1.99548 0
M  V30 12655 H 1203.32 6.39053 1.45914 0
M  V30 12656 H 1202.84 5.31052 2.78825 0
M  V30 12657 H 1204.52 5.89314 2.67055 0
M  V30 12658 N 1204.65 -0.602709 1.4562 0
M  V30 12659 C 1205.61 -1.69508 1.54271 0
M  V30 12660 C 1206.61 -1.55171 0.421727 0
M  V30 12661 O 1207.8 -1.60151 0.685375 0
M  V30 12662 C 1204.94 -3.0881 1.44392 0
M  V30 12663 H 1206.13 -1.63203 2.51605 0
M  V30 12664 H 1203.68 -0.818857 1.33133 0
M  V30 12665 H 1204.42 -3.20689 0.482614 0
M  V30 12666 H 1204.2 -3.20625 2.25704 0
M  V30 12667 H 1205.69 -3.8837 1.53488 0
M  V30 12668 N 1206.13 -1.32992 -0.845635 0
M  V30 12669 C 1207.38 -1.23415 -1.59536 0
M  V30 12670 C 1207.69 0.200278 -1.94572 0
M  V30 12671 O 1208.9 0.417993 -2.68263 0
M  V30 12672 C 1207.35 -2.16207 -2.8772 0
M  V30 12673 C 1206.96 -3.64782 -2.60073 0
M  V30 12674 C 1208.71 -2.15488 -3.65739 0
M  V30 12675 C 1206.61 -4.49508 -3.84313 0
M  V30 12676 H 1205.54 -0.458366 -0.598679 0
M  V30 12677 H 1208.19 -1.58012 -0.932981 0
M  V30 12678 H 1206.58 -1.74535 -3.55462 0
M  V30 12679 H 1207.75 -4.14852 -2.00585 0
M  V30 12680 H 1206.06 -3.67723 -1.95369 0
M  V30 12681 H 1208.66 -2.76021 -4.57948 0
M  V30 12682 H 1209 -1.14818 -4.00153 0
M  V30 12683 H 1209.54 -2.55487 -3.04912 0
M  V30 12684 H 1206.28 -5.51027 -3.55035 0
M  V30 12685 H 1205.8 -4.04185 -4.43165 0
M  V30 12686 H 1207.48 -4.62969 -4.51961 0
M  V30 12687 N 1207.61 1.06304 -1.1635 0
M  V30 12688 C 1208.54 2.15745 -0.893103 0
M  V30 12689 C 1209.52 1.69341 0.160531 0
M  V30 12690 O 1210.7 1.94196 0.0126526 0
M  V30 12691 C 1207.83 3.45066 -0.393287 0
M  V30 12692 C 1206.79 4.04978 -1.38482 0
M  V30 12693 C 1206.11 5.29507 -0.743409 0
M  V30 12694 C 1207.41 4.4377 -2.75438 0
M  V30 12695 H 1209.11 2.38622 -1.80831 0
M  V30 12696 H 1206.65 1.14681 -0.870878 0
M  V30 12697 H 1208.61 4.20964 -0.191607 0
M  V30 12698 H 1207.33 3.21808 0.557426 0
M  V30 12699 H 1205.99 3.31136 -1.57304 0
M  V30 12700 H 1205.64 5.02545 0.213787 0
M  V30 12701 H 1205.34 5.7055 -1.40521 0
M  V30 12702 H 1206.86 6.08102 -0.551746 0
M  V30 12703 H 1208.28 5.1075 -2.60398 0
M  V30 12704 H 1206.67 4.95797 -3.38091 0
M  V30 12705 H 1207.74 3.54636 -3.30699 0
M  V30 12706 N 1209.09 0.96196 1.24836 0
M  V30 12707 C 1210.02 0.506241 2.27946 0
M  V30 12708 C 1211 -0.451183 1.64007 0
M  V30 12709 O 1212.18 -0.348552 1.91046 0
M  V30 12710 C 1209.31 -0.209846 3.46665 0
M  V30 12711 C 1208.27 0.663035 4.22833 0
M  V30 12712 C 1207.59 -0.184216 5.34383 0
M  V30 12713 C 1208.89 1.94479 4.84742 0
M  V30 12714 H 1210.59 1.36805 2.66317 0
M  V30 12715 H 1208.13 0.65926 1.28023 0
M  V30 12716 H 1210.08 -0.539838 4.17928 0
M  V30 12717 H 1208.81 -1.10596 3.07305 0
M  V30 12718 H 1207.47 0.976216 3.53363 0
M  V30 12719 H 1207.12 -1.08031 4.91262 0
M  V30 12720 H 1206.82 0.39657 5.8626 0
M  V30 12721 H 1208.34 -0.509009 6.08475 0
M  V30 12722 H 1209.75 1.68074 5.48109 0
M  V30 12723 H 1208.15 2.47183 5.46828 0
M  V30 12724 H 1209.22 2.64332 4.06517 0
M  V30 12725 N 1210.56 -1.39601 0.731392 0
M  V30 12726 C 1211.47 -2.34425 0.090527 0
M  V30 12727 C 1212.49 -1.58131 -0.725992 0
M  V30 12728 O 1213.67 -1.90441 -0.655294 0
M  V30 12729 C 1210.73 -3.37138 -0.808624 0
M  V30 12730 C 1209.79 -4.29295 0.0197365 0
M  V30 12731 C 1209.02 -5.27102 -0.836593 0
M  V30 12732 O 1209.25 -5.31302 -2.07543 0
M  V30 12733 O 1208.18 -6.01307 -0.267172 0
M  V30 12734 H 1212.01 -2.9088 0.873084 0
M  V30 12735 H 1209.59 -1.41066 0.492024 0
M  V30 12736 H 1211.47 -4.00087 -1.32319 0
M  V30 12737 H 1210.15 -2.83074 -1.57006 0
M  V30 12738 H 1209.06 -3.69581 0.579744 0
M  V30 12739 H 1210.39 -4.86555 0.743308 0
M  V30 12740 N 1212.04 -0.478751 -1.50152 0
M  V30 12741 C 1213.01 0.300181 -2.27226 0
M  V30 12742 C 1214.01 0.913705 -1.32318 0
M  V30 12743 O 1215.2 0.781692 -1.55677 0
M  V30 12744 C 1212.33 1.42838 -3.09532 0
M  V30 12745 H 1213.52 -0.375845 -2.97536 0
M  V30 12746 H 1211.07 -0.233037 -1.54553 0
M  V30 12747 H 1211.81 2.13923 -2.43737 0
M  V30 12748 H 1211.59 0.994161 -3.79287 0
M  V30 12749 H 1213.08 1.97765 -3.67802 0
M  V30 12750 N 1213.52 1.56172 -0.211661 0
M  V30 12751 C 1214.77 1.97648 0.421871 0
M  V30 12752 C 1215.09 1.10026 1.60995 0
M  V30 12753 O 1214.36 0.175109 1.95116 0
M  V30 12754 H 1212.94 0.729914 0.158852 0
M  V30 12755 H 1215.6 1.92542 -0.302254 0
M  V30 12756 H 1214.7 3.02834 0.754868 0
M  V30 12757 N 1215 -0.0618163 1.57479 0
M  V30 12758 C 1216.24 -0.760193 1.88013 0
M  V30 12759 C 1216.58 -1.76718 0.805258 0
M  V30 12760 O 1215.85 -1.93633 -0.183408 0
M  V30 12761 C 1216.14 -1.45924 3.29208 0
M  V30 12762 C 1215.99 -0.467994 4.47359 0
M  V30 12763 C 1217.31 -2.40166 3.68793 0
M  V30 12764 H 1214.43 -0.274896 0.683814 0
M  V30 12765 H 1217.07 -0.0232433 1.89986 0
M  V30 12766 H 1215.22 -2.08741 3.27657 0
M  V30 12767 H 1216.89 0.155735 4.61037 0
M  V30 12768 H 1215.13 0.215797 4.33263 0
M  V30 12769 H 1215.8 -0.994942 5.42959 0
M  V30 12770 H 1218.28 -1.87419 3.71501 0
M  V30 12771 H 1217.16 -2.86076 4.68457 0
M  V30 12772 H 1217.42 -3.25413 2.99264 0
M  V30 12773 N 1216.48 -1.54033 -0.333429 0
M  V30 12774 C 1217.89 -1.63107 -0.908455 0
M  V30 12775 C 1218.24 -0.518823 -1.89216 0
M  V30 12776 O 1217.36 0.34985 -2.13553 0
M  V30 12777 C 1217.96 -2.95657 -1.65447 0
M  V30 12778 C 1216.52 -3.0696 -2.17836 0
M  V30 12779 C 1215.66 -2.58617 -1.00063 0
M  V30 12780 H 1218.62 -1.58309 -0.11128 0
M  V30 12781 H 1218.64 -2.85263 -2.51804 0
M  V30 12782 H 1218.15 -3.76588 -0.938263 0
M  V30 12783 H 1216.25 -2.30683 -2.92602 0
M  V30 12784 H 1216.36 -4.12599 -2.43513 0
M  V30 12785 H 1214.73 -2.1427 -1.37697 0
M  V30 12786 H 1215.51 -3.41996 -0.298901 0
M  V30 12787 N 1217.95 0.594978 -1.45938 0
M  V30 12788 C 1219.37 1.17703 -1.44924 0
M  V30 12789 C 1219.72 1.9534 -0.183522 0
M  V30 12790 O 1218.84 2.04276 0.714163 0
M  V30 12791 C 1219.44 2.14119 -2.62561 0
M  V30 12792 C 1218 2.67674 -2.64627 0
M  V30 12793 C 1217.14 1.43312 -2.37397 0
M  V30 12794 H 1220.09 0.383583 -1.53995 0
M  V30 12795 H 1220.11 2.97374 -2.3738 0
M  V30 12796 H 1219.63 1.57586 -3.54667 0
M  V30 12797 H 1217.73 3.28111 -1.76562 0
M  V30 12798 H 1217.84 3.11246 -3.64229 0
M  V30 12799 H 1216.2 1.72702 -1.87206 0
M  V30 12800 H 1216.99 0.886276 -3.31663 0
M  V30 12801 N 1219.43 1.33438 0.838571 0
M  V30 12802 C 1220.68 1.24665 1.59069 0
M  V30 12803 C 1221 -0.187433 1.94097 0
M  V30 12804 O 1220.27 -1.11625 1.60987 0
M  V30 12805 H 1218.85 0.45843 0.589789 0
M  V30 12806 H 1221.51 1.67161 1.00216 0
M  V30 12807 H 1220.61 1.84057 2.52051 0
M  V30 12808 N 1220.91 -1.05686 1.16912 0
M  V30 12809 C 1222.16 -1.78862 0.955839 0
M  V30 12810 C 1222.49 -1.87257 -0.514645 0
M  V30 12811 O 1221.76 -1.36869 -1.38193 0
M  V30 12812 C 1222.05 -3.23021 1.59152 0
M  V30 12813 C 1221.9 -3.22669 3.13376 0
M  V30 12814 C 1223.22 -4.2073 1.29128 0
M  V30 12815 H 1220.34 -0.64931 0.348663 0
M  V30 12816 H 1222.98 -1.23561 1.44335 0
M  V30 12817 H 1221.13 -3.70243 1.17697 0
M  V30 12818 H 1222.8 -2.83562 3.63855 0
M  V30 12819 H 1221.05 -2.61149 3.46386 0
M  V30 12820 H 1221.72 -4.24394 3.52979 0
M  V30 12821 H 1224.19 -3.8198 1.65017 0
M  V30 12822 H 1223.07 -5.19851 1.76198 0
M  V30 12823 H 1223.33 -4.41595 0.21119 0
M  V30 12824 N 1222.39 -0.968567 -1.24324 0
M  V30 12825 C 1223.63 -0.631863 -1.92705 0
M  V30 12826 C 1223.97 0.83096 -1.75524 0
M  V30 12827 O 1223.24 1.59795 -1.10887 0
M  V30 12828 C 1223.53 -1.00845 -3.45691 0
M  V30 12829 C 1223.38 -2.52803 -3.72036 0
M  V30 12830 C 1224.7 -0.543647 -4.36729 0
M  V30 12831 H 1221.82 -0.231027 -0.699854 0
M  V30 12832 H 1224.46 -1.20773 -1.46676 0
M  V30 12833 H 1222.61 -0.518434 -3.85025 0
M  V30 12834 H 1224.28 -3.09289 -3.42255 0
M  V30 12835 H 1222.52 -2.95963 -3.17157 0
M  V30 12836 H 1223.19 -2.74203 -4.79079 0
M  V30 12837 H 1225.67 -0.964182 -4.04775 0
M  V30 12838 H 1224.55 -0.8357 -5.42501 0
M  V30 12839 H 1224.81 0.556256 -4.38587 0
M  V30 12840 N 1223.87 1.39211 -0.738786 0
M  V30 12841 C 1224.8 2.29117 -0.0616489 0
M  V30 12842 C 1225.81 1.47008 0.699462 0
M  V30 12843 O 1227 1.70041 0.542998 0
M  V30 12844 C 1224.1 3.25692 0.936893 0
M  V30 12845 C 1223.27 4.3676 0.236515 0
M  V30 12846 C 1222.33 5.1362 1.1437 0
M  V30 12847 O 1221.36 5.65816 0.619762 0
M  V30 12848 N 1222.56 5.25184 2.4731 0
M  V30 12849 H 1225.33 2.8787 -0.833711 0
M  V30 12850 H 1222.89 1.50832 -0.588323 0
M  V30 12851 H 1224.88 3.73987 1.54648 0
M  V30 12852 H 1223.45 2.67943 1.61014 0
M  V30 12853 H 1222.67 3.90293 -0.553594 0
M  V30 12854 H 1223.96 5.08192 -0.248707 0
M  V30 12855 H 1223.35 4.84302 2.92349 0
M  V30 12856 H 1221.91 5.76905 3.03355 0
M  V30 12857 N 1225.34 0.486708 1.49896 0
M  V30 12858 C 1226.27 -0.288898 2.31706 0
M  V30 12859 C 1227.26 -0.975901 1.3932 0
M  V30 12860 O 1228.44 -0.970065 1.68236 0
M  V30 12861 C 1225.57 -1.36218 3.19471 0
M  V30 12862 C 1224.52 -0.795884 4.20535 0
M  V30 12863 C 1223.85 -1.96862 4.97141 0
M  V30 12864 C 1225.15 0.203421 5.21904 0
M  V30 12865 H 1226.84 0.393934 2.96797 0
M  V30 12866 H 1224.39 0.190894 1.42729 0
M  V30 12867 H 1226.34 -1.91238 3.75508 0
M  V30 12868 H 1225.07 -2.074 2.52295 0
M  V30 12869 H 1223.73 -0.267538 3.65622 0
M  V30 12870 H 1223.37 -2.66779 4.26425 0
M  V30 12871 H 1223.07 -1.59585 5.65514 0
M  V30 12872 H 1224.6 -2.52343 5.56017 0
M  V30 12873 H 1226.01 -0.258144 5.72719 0
M  V30 12874 H 1224.41 0.491273 5.98086 0
M  V30 12875 H 1225.48 1.12414 4.7169 0
M  V30 12876 N 1226.82 -1.56058 0.219941 0
M  V30 12877 C 1227.75 -2.2321 -0.685547 0
M  V30 12878 C 1228.73 -1.20328 -1.20229 0
M  V30 12879 O 1229.92 -1.48909 -1.24659 0
M  V30 12880 C 1227.05 -2.91076 -1.89452 0
M  V30 12881 C 1226 -4.00415 -1.51169 0
M  V30 12882 C 1225.33 -4.55569 -2.79931 0
M  V30 12883 C 1226.63 -5.17549 -0.702896 0
M  V30 12884 H 1228.32 -2.99136 -0.125671 0
M  V30 12885 H 1225.87 -1.43879 -0.0590043 0
M  V30 12886 H 1227.82 -3.36744 -2.53341 0
M  V30 12887 H 1226.55 -2.12594 -2.47934 0
M  V30 12888 H 1225.21 -3.55475 -0.896275 0
M  V30 12889 H 1224.85 -3.73819 -3.36553 0
M  V30 12890 H 1224.55 -5.29361 -2.55049 0
M  V30 12891 H 1226.08 -5.03955 -3.44764 0
M  V30 12892 H 1227.49 -5.59608 -1.24544 0
M  V30 12893 H 1225.89 -5.97563 -0.551234 0
M  V30 12894 H 1226.96 -4.84027 0.29083 0
M  V30 12895 N 1228.3 0.053464 -1.57509 0
M  V30 12896 C 1229.71 0.603099 -1.76691 0
M  V30 12897 C 1230.06 1.76934 -0.847861 0
M  V30 12898 O 1229.19 2.16369 -0.0364962 0
M  V30 12899 C 1229.78 1.10084 -3.20417 0
M  V30 12900 C 1228.34 1.59618 -3.4088 0
M  V30 12901 C 1227.49 0.523516 -2.72313 0
M  V30 12902 H 1230.44 -0.172751 -1.57757 0
M  V30 12903 H 1230.46 1.9691 -3.25587 0
M  V30 12904 H 1229.97 0.251818 -3.87282 0
M  V30 12905 H 1228.07 2.46786 -2.79155 0
M  V30 12906 H 1228.19 1.6605 -4.49404 0
M  V30 12907 H 1226.55 0.972886 -2.35387 0
M  V30 12908 H 1227.33 -0.315629 -3.41846 0
M  V30 12909 N 1229.78 1.54207 0.325255 0
M  V30 12910 C 1231.03 1.71991 1.0613 0
M  V30 12911 C 1231.35 0.495505 1.88599 0
M  V30 12912 O 1230.62 -0.490504 1.8966 0
M  V30 12913 H 1229.2 0.634137 0.394816 0
M  V30 12914 H 1231.86 1.91507 0.362101 0
M  V30 12915 H 1230.96 2.59878 1.72829 0
M  V30 12916 N 1231.26 -0.58723 1.46251 0
M  V30 12917 C 1232.67 -0.910129 1.31106 0
M  V30 12918 C 1232.87 -1.99557 0.279141 0
M  V30 12919 O 1231.93 -2.50466 -0.319867 0
M  V30 12920 C 1233.24 -1.33177 2.69601 0
M  V30 12921 C 1234.79 -1.44486 2.77656 0
M  V30 12922 C 1235.27 -1.90018 4.16722 0
M  V30 12923 N 1236.76 -1.97219 4.19117 0
M  V30 12924 C 1237.49 -2.33714 5.23608 0
M  V30 12925 N 1236.99 -2.69034 6.3843 0
M  V30 12926 N 1238.78 -2.3423 5.10972 0
M  V30 12927 H 1230.93 0.12987 2.12003 0
M  V30 12928 H 1233.19 -0.00456718 0.947989 0
M  V30 12929 H 1232.9 -0.608243 3.464 0
M  V30 12930 H 1232.77 -2.29421 2.99409 0
M  V30 12931 H 1235.16 -2.15926 2.01147 0
M  V30 12932 H 1235.24 -0.465047 2.51537 0
M  V30 12933 H 1234.89 -1.19159 4.93724 0
M  V30 12934 H 1234.82 -2.88949 4.40245 0
M  V30 12935 H 1237.31 -1.72431 3.36268 0
M  V30 12936 H 1237.62 -2.95822 7.13939 0
M  V30 12937 H 1235.97 -2.66683 6.41798 0
M  V30 12938 H 1239.16 -2.06056 4.20308 0
M  V30 12939 H 1239.33 -2.62345 5.92519 0
M  V30 12940 N 1232.74 -1.33881 -0.831482 0
M  V30 12941 C 1233.98 -1.25507 -1.58406 0
M  V30 12942 C 1234.3 0.177137 -1.94194 0
M  V30 12943 O 1233.57 1.10769 -1.61576 0
M  V30 12944 H 1232.15 -0.461551 -0.587349 0
M  V30 12945 H 1234.82 -1.6769 -0.99328 0
M  V30 12946 H 1233.91 -1.85391 -2.51071 0
M  V30 12947 N 1234.21 1.05064 -1.1747 0
M  V30 12948 C 1235.12 2.16346 -0.907286 0
M  V30 12949 C 1236.14 1.7355 0.125013 0
M  V30 12950 O 1237.32 2.01326 -0.0545551 0
M  V30 12951 C 1234.38 3.44077 -0.425681 0
M  V30 12952 C 1233.44 4.01311 -1.52473 0
M  V30 12953 C 1232.67 5.22946 -1.06601 0
M  V30 12954 O 1232.9 5.70345 0.0793329 0
M  V30 12955 O 1231.83 5.72454 -1.85958 0
M  V30 12956 H 1235.66 2.41754 -1.83817 0
M  V30 12957 H 1233.24 1.14834 -0.955693 0
M  V30 12958 H 1235.12 4.21078 -0.164689 0
M  V30 12959 H 1233.8 3.20166 0.477037 0
M  V30 12960 H 1232.71 3.25744 -1.83961 0
M  V30 12961 H 1234.04 4.29543 -2.4032 0
M  V30 12962 N 1235.69 0.975146 1.23809 0
M  V30 12963 C 1236.92 0.658978 1.96125 0
M  V30 12964 C 1237.33 -0.773044 1.72248 0
M  V30 12965 O 1236.69 -1.51956 1.01072 0
M  V30 12966 C 1236.74 0.933355 3.49243 0
M  V30 12967 O 1236.46 2.30909 3.72307 0
M  V30 12968 C 1237.96 0.632408 4.38766 0
M  V30 12969 H 1235.18 0.245237 0.62458 0
M  V30 12970 H 1237.73 1.3051 1.5744 0
M  V30 12971 H 1235.88 0.333323 3.85963 0
M  V30 12972 H 1236.3 2.39476 4.66638 0
M  V30 12973 H 1237.77 0.874791 5.45024 0
M  V30 12974 H 1238.25 -0.433453 4.37056 0
M  V30 12975 H 1238.85 1.21268 4.07645 0
M  V30 12976 N 1237.17 -1.38817 0.746158 0
M  V30 12977 C 1238.42 -2.00577 0.299458 0
M  V30 12978 C 1238.75 -1.59087 -1.11378 0
M  V30 12979 O 1238.02 -0.824932 -1.7614 0
M  V30 12980 C 1238.31 -3.57713 0.413932 0
M  V30 12981 C 1238.16 -4.09189 1.86774 0
M  V30 12982 C 1239.48 -4.39659 -0.197082 0
M  V30 12983 H 1236.6 -0.728702 0.110285 0
M  V30 12984 H 1239.24 -1.64866 0.944408 0
M  V30 12985 H 1237.39 -3.88265 -0.135155 0
M  V30 12986 H 1239.06 -3.89311 2.47456 0
M  V30 12987 H 1237.3 -3.62333 2.38532 0
M  V30 12988 H 1237.98 -5.18305 1.89904 0
M  V30 12989 H 1240.45 -4.15216 0.271121 0
M  V30 12990 H 1239.33 -5.48832 -0.0867011 0
M  V30 12991 H 1239.59 -4.23028 -1.2845 0
M  V30 12992 N 1238.65 -0.49465 -1.49636 0
M  V30 12993 C 1239.9 0.0520143 -2.02033 0
M  V30 12994 C 1240.22 1.38071 -1.37701 0
M  V30 12995 O 1239.49 1.88589 -0.530181 0
M  V30 12996 H 1238.07 0.0222123 -0.74667 0
M  V30 12997 H 1240.73 -0.650445 -1.83726 0
M  V30 12998 H 1239.82 0.186337 -3.11543 0
M  V30 12999 N 1240.13 1.55939 -0.228214 0
M  V30 13000 C 1241.09 2.1932 0.665681 0
M  V30 13001 C 1242.09 1.15699 1.11671 0
M  V30 13002 O 1243.28 1.40893 1.02444 0
M  V30 13003 C 1240.41 2.82185 1.9127 0
M  V30 13004 H 1241.6 2.99687 0.112986 0
M  V30 13005 H 1239.16 1.56285 0.0213865 0
M  V30 13006 H 1239.89 2.05706 2.5071 0
M  V30 13007 H 1239.68 3.58073 1.5977 0
M  V30 13008 H 1241.17 3.30748 2.54942 0
M  V30 13009 N 1241.6 -0.0451101 1.57535 0
M  V30 13010 C 1242.54 -1.07792 2.02271 0
M  V30 13011 C 1243.55 -1.33423 0.932854 0
M  V30 13012 O 1244.74 -1.31193 1.2104 0
M  V30 13013 C 1241.84 -2.42314 2.36933 0
M  V30 13014 C 1241.01 -2.36266 3.68099 0
M  V30 13015 C 1240.07 -3.53108 3.9013 0
M  V30 13016 O 1239.1 -3.33327 4.61391 0
M  V30 13017 N 1240.3 -4.74415 3.3453 0
M  V30 13018 H 1243.06 -0.696744 2.91489 0
M  V30 13019 H 1240.62 -0.233336 1.6021 0
M  V30 13020 H 1242.62 -3.19171 2.48821 0
M  V30 13021 H 1241.19 -2.72335 1.53468 0
M  V30 13022 H 1240.41 -1.44615 3.66715 0
M  V30 13023 H 1241.69 -2.29351 4.54175 0
M  V30 13024 H 1241.09 -4.93388 2.76739 0
M  V30 13025 H 1239.65 -5.48692 3.51825 0
M  V30 13026 N 1243.08 -1.54377 -0.317073 0
M  V30 13027 C 1244.01 -1.8721 -1.39552 0
M  V30 13028 C 1244.99 -0.729483 -1.53664 0
M  V30 13029 O 1246.18 -0.983799 -1.67437 0
M  V30 13030 C 1243.31 -2.1052 -2.76222 0
M  V30 13031 C 1242.26 -3.26366 -2.76892 0
M  V30 13032 C 1241.59 -3.35061 -4.16699 0
M  V30 13033 C 1242.89 -4.63862 -2.40061 0
M  V30 13034 H 1244.58 -2.77532 -1.12323 0
M  V30 13035 H 1242.13 -1.33536 -0.538897 0
M  V30 13036 H 1244.08 -2.32073 -3.51739 0
M  V30 13037 H 1242.81 -1.16953 -3.04942 0
M  V30 13038 H 1241.46 -3.0471 -2.03831 0
M  V30 13039 H 1241.11 -2.39041 -4.4257 0
M  V30 13040 H 1240.81 -4.12923 -4.18053 0
M  V30 13041 H 1242.34 -3.58856 -4.94019 0
M  V30 13042 H 1243.75 -4.85252 -3.05292 0
M  V30 13043 H 1242.15 -5.44321 -2.52655 0
M  V30 13044 H 1243.22 -4.6567 -1.35202 0
M  V30 13045 N 1244.56 0.579466 -1.4656 0
M  V30 13046 C 1245.79 1.36351 -1.55615 0
M  V30 13047 C 1246.2 1.87755 -0.198405 0
M  V30 13048 O 1245.56 1.63795 0.804834 0
M  V30 13049 C 1245.61 2.54881 -2.56355 0
M  V30 13050 O 1245.33 2.05607 -3.86856 0
M  V30 13051 C 1246.83 3.47391 -2.75381 0
M  V30 13052 H 1244.05 0.416426 -0.526147 0
M  V30 13053 H 1246.6 0.704134 -1.91995 0
M  V30 13054 H 1244.75 3.16802 -2.2297 0
M  V30 13055 H 1245.17 2.82823 -4.41714 0
M  V30 13056 H 1246.64 4.27031 -3.49783 0
M  V30 13057 H 1247.12 3.99532 -1.82403 0
M  V30 13058 H 1247.72 2.91303 -3.09875 0
M  V30 13059 N 1246.04 1.3432 0.824371 0
M  V30 13060 C 1247.29 1.26345 1.57738 0
M  V30 13061 C 1247.61 -0.166836 1.94285 0
M  V30 13062 O 1246.88 -1.09911 1.62162 0
M  V30 13063 H 1245.46 0.46466 0.584893 0
M  V30 13064 H 1248.12 1.68214 0.984373 0
M  V30 13065 H 1247.22 1.8672 2.50084 0
M  V30 13066 N 1247.52 -1.0444 1.18026 0
M  V30 13067 C 1248.79 -1.74533 0.883045 0
M  V30 13068 C 1249.17 -2.01944 -0.614975 0
M  V30 13069 O 1248.52 -1.66158 -1.56855 0
M  V30 13070 C 1248.73 -3.0332 1.72621 0
M  V30 13071 C 1250.08 -3.77128 1.9509 0
M  V30 13072 O 1251.1 -3.13209 1.69643 0
M  V30 13073 O 1249.96 -4.92001 2.37903 0
M  V30 13074 H 1247.06 -0.759315 0.327673 0
M  V30 13075 H 1249.6 -1.10539 1.2876 0
M  V30 13076 H 1248.37 -2.79171 2.74188 0
M  V30 13077 H 1248 -3.75052 1.31993 0
M  V30 13078 N 1248.99 -0.981699 -1.2329 0
M  V30 13079 C 1250.27 -0.567659 -1.87182 0
M  V30 13080 C 1250.65 0.955194 -1.88253 0
M  V30 13081 O 1250 1.83245 -1.36504 0
M  V30 13082 C 1250.21 -1.17522 -3.28618 0
M  V30 13083 C 1251.56 -1.26877 -4.052 0
M  V30 13084 O 1252.58 -1.12877 -3.37842 0
M  V30 13085 O 1251.44 -1.49163 -5.2575 0
M  V30 13086 H 1248.53 -0.191315 -0.804567 0
M  V30 13087 H 1251.08 -1.07686 -1.31155 0
M  V30 13088 H 1249.85 -2.21735 -3.22411 0
M  V30 13089 H 1249.48 -0.650913 -3.92236 0
M  V30 13090 N 1250.47 1.3842 -0.753509 0
M  V30 13091 C 1251.89 1.53668 -0.431095 0
M  V30 13092 C 1252.09 1.71626 1.05578 0
M  V30 13093 O 1251.14 1.72723 1.84182 0
M  V30 13094 C 1252.46 2.74381 -1.23027 0
M  V30 13095 C 1254.01 2.8823 -1.22034 0
M  V30 13096 C 1254.48 4.11904 -2.00248 0
M  V30 13097 N 1255.97 4.18981 -1.97508 0
M  V30 13098 C 1256.71 5.13667 -2.5482 0
M  V30 13099 N 1256.2 6.14027 -3.20846 0
M  V30 13100 N 1258 5.06017 -2.44751 0
M  V30 13101 H 1250.15 1.25012 -1.71714 0
M  V30 13102 H 1252.41 0.607296 -0.727939 0
M  V30 13103 H 1252.12 2.67515 -2.28317 0
M  V30 13104 H 1251.99 3.67565 -0.847098 0
M  V30 13105 H 1254.38 2.94578 -0.175502 0
M  V30 13106 H 1254.46 1.96057 -1.64303 0
M  V30 13107 H 1254.1 4.06318 -3.04742 0
M  V30 13108 H 1254.03 5.03157 -1.55373 0
M  V30 13109 H 1256.52 3.47104 -1.49423 0
M  V30 13110 H 1256.84 6.82771 -3.61999 0
M  V30 13111 H 1255.18 6.1436 -3.24941 0
M  V30 13112 H 1258.37 4.26552 -1.92797 0
M  V30 13113 H 1258.54 5.7963 -2.89713 0
M  V30 13114 N 1251.95 0.502579 1.49372 0
M  V30 13115 C 1253.2 -0.0414423 2.02758 0
M  V30 13116 C 1253.53 -1.36499 1.38136 0
M  V30 13117 O 1252.8 -1.87487 0.517593 0
M  V30 13118 C 1253.09 -0.192333 3.59586 0
M  V30 13119 C 1252.94 1.15445 4.34733 0
M  V30 13120 C 1254.26 -0.932218 4.30114 0
M  V30 13121 H 1251.38 -0.0135869 0.736875 0
M  V30 13122 H 1254.02 0.654296 1.78379 0
M  V30 13123 H 1252.17 -0.78491 3.80488 0
M  V30 13124 H 1253.84 1.78603 4.25322 0
M  V30 13125 H 1252.09 1.74333 3.97228 0
M  V30 13126 H 1252.76 1.00216 5.42827 0
M  V30 13127 H 1255.23 -0.429632 4.13876 0
M  V30 13128 H 1254.11 -1.00664 5.39591 0
M  V30 13129 H 1254.37 -1.9763 3.95468 0
M  V30 13130 N 1253.43 -1.55816 0.23648 0
M  V30 13131 C 1254.84 -1.59159 -0.118601 0
M  V30 13132 C 1255.04 -1.25352 -1.57763 0
M  V30 13133 O 1254.1 -0.995863 -2.32032 0
M  V30 13134 C 1255.41 -2.99885 0.221175 0
M  V30 13135 C 1256.96 -3.12567 0.164624 0
M  V30 13136 C 1257.44 -4.55496 0.478285 0
M  V30 13137 N 1258.93 -4.61215 0.428402 0
M  V30 13138 C 1259.66 -5.69768 0.644398 0
M  V30 13139 N 1259.16 -6.86624 0.922966 0
M  V30 13140 N 1260.95 -5.59143 0.575814 0
M  V30 13141 H 1253.1 -1.76063 1.18809 0
M  V30 13142 H 1255.37 -0.819079 0.477297 0
M  V30 13143 H 1255.07 -3.29326 1.2344 0
M  V30 13144 H 1254.95 -3.74425 -0.456723 0
M  V30 13145 H 1257.33 -2.82914 -0.839263 0
M  V30 13146 H 1257.41 -2.40325 0.876219 0
M  V30 13147 H 1257.06 -4.85868 1.47968 0
M  V30 13148 H 1256.99 -5.25984 -0.254671 0
M  V30 13149 H 1259.48 -3.77251 0.221398 0
M  V30 13150 H 1259.79 -7.6528 1.07548 0
M  V30 13151 H 1258.14 -6.88333 0.960325 0
M  V30 13152 H 1261.33 -4.66727 0.358307 0
M  V30 13153 H 1261.5 -6.43674 0.747548 0
M  V30 13154 N 1254.91 0.036755 -1.57557 0
M  V30 13155 C 1256.15 0.727665 -1.88546 0
M  V30 13156 C 1256.48 1.76304 -0.833179 0
M  V30 13157 O 1255.75 1.9544 0.13414 0
M  V30 13158 H 1254.33 0.271744 -0.695819 0
M  V30 13159 H 1256.99 0.00452915 -1.94899 0
M  V30 13160 H 1256.08 1.22205 -2.8718 0
M  V30 13161 N 1256.39 1.54543 0.308881 0
M  V30 13162 C 1257.63 1.73706 1.04661 0
M  V30 13163 C 1257.96 0.517111 1.87189 0
M  V30 13164 O 1257.24 -0.485856 1.88334 0
M  V30 13165 C 1257.52 3.02141 1.95916 0
M  V30 13166 C 1257.38 4.34419 1.1662 0
M  V30 13167 C 1258.69 3.26401 2.95213 0
M  V30 13168 H 1255.81 0.63203 0.379087 0
M  V30 13169 H 1258.46 1.87253 0.321947 0
M  V30 13170 H 1256.61 2.90723 2.57706 0
M  V30 13171 H 1258.28 4.57743 0.571772 0
M  V30 13172 H 1256.52 4.3126 0.468747 0
M  V30 13173 H 1257.19 5.20535 1.83704 0
M  V30 13174 H 1259.67 3.37377 2.43549 0
M  V30 13175 H 1258.54 4.17597 3.56235 0
M  V30 13176 H 1258.8 2.44322 3.68455 0
M  V30 13177 N 1257.86 -0.571685 1.46866 0
M  V30 13178 C 1258.8 -1.69502 1.52788 0
M  V30 13179 C 1259.77 -1.58071 0.381109 0
M  V30 13180 O 1260.96 -1.79132 0.586844 0
M  V30 13181 C 1258.09 -3.07642 1.41682 0
M  V30 13182 C 1257.13 -3.37562 2.6068 0
M  V30 13183 S 1257.96 -3.28413 4.22971 0
M  V30 13184 C 1259.12 -4.69073 4.14393 0
M  V30 13185 H 1259.35 -1.64221 2.47828 0
M  V30 13186 H 1256.89 -0.751334 1.34886 0
M  V30 13187 H 1258.84 -3.8733 1.35962 0
M  V30 13188 H 1257.51 -3.10403 0.480517 0
M  V30 13189 H 1256.7 -4.38233 2.48933 0
M  V30 13190 H 1256.3 -2.65464 2.63448 0
M  V30 13191 H 1258.59 -5.59706 3.81754 0
M  V30 13192 H 1259.54 -4.85877 5.15101 0
M  V30 13193 H 1259.94 -4.4644 3.45473 0
M  V30 13194 N 1259.34 -1.34755 -0.817236 0
M  V30 13195 C 1260.59 -1.27432 -1.57377 0
M  V30 13196 C 1260.92 0.15419 -1.93888 0
M  V30 13197 O 1260.17 1.11686 -1.60701 0
M  V30 13198 C 1260.47 -2.11611 -2.8802 0
M  V30 13199 C 1260.14 -3.60543 -2.70776 0
M  V30 13200 C 1258.8 -4.01141 -2.6578 0
M  V30 13201 C 1261.15 -4.55089 -2.54053 0
M  V30 13202 C 1258.48 -5.34469 -2.41991 0
M  V30 13203 C 1260.83 -5.88603 -2.31795 0
M  V30 13204 C 1259.49 -6.28358 -2.25215 0
M  V30 13205 H 1258.76 -0.466305 -0.575882 0
M  V30 13206 H 1261.41 -1.66552 -0.945128 0
M  V30 13207 H 1259.72 -1.65336 -3.55206 0
M  V30 13208 H 1261.41 -2.03287 -3.45652 0
M  V30 13209 H 1258 -3.2832 -2.75506 0
M  V30 13210 H 1262.19 -4.24617 -2.56932 0
M  V30 13211 H 1257.44 -5.64284 -2.35359 0
M  V30 13212 H 1261.62 -6.61451 -2.17844 0
M  V30 13213 H 1259.24 -7.31604 -2.06543 0
M  V30 13214 N 1260.82 1.03812 -1.18578 0
M  V30 13215 C 1262.05 1.80702 -1.00769 0
M  V30 13216 C 1262.46 1.83509 0.443833 0
M  V30 13217 O 1261.82 1.2724 1.30829 0
M  V30 13218 C 1261.87 3.26185 -1.55838 0
M  V30 13219 O 1261.59 3.23612 -2.95308 0
M  V30 13220 C 1263.09 4.1971 -1.42682 0
M  V30 13221 H 1260.31 0.568972 -0.355685 0
M  V30 13222 H 1262.86 1.30817 -1.57185 0
M  V30 13223 H 1261.01 3.73293 -1.03592 0
M  V30 13224 H 1261.43 4.14769 -3.2104 0
M  V30 13225 H 1262.9 5.19716 -1.86008 0
M  V30 13226 H 1263.38 4.37588 -0.375924 0
M  V30 13227 H 1263.98 3.78469 -1.94013 0
M  V30 13228 N 1262.3 0.988223 1.22768 0
M  V30 13229 C 1263.55 0.660154 1.91014 0
M  V30 13230 C 1263.87 -0.809788 1.77391 0
M  V30 13231 O 1263.14 -1.57998 1.15817 0
M  V30 13232 H 1261.72 0.24118 0.706995 0
M  V30 13233 H 1264.38 1.25372 1.49224 0
M  V30 13234 H 1263.47 0.918603 2.98275 0
M  V30 13235 N 1263.78 -1.38018 0.760839 0
M  V30 13236 C 1265 -2.04757 0.330038 0
M  V30 13237 C 1265.43 -1.57009 -1.03585 0
M  V30 13238 O 1264.78 -0.725349 -1.66158 0
M  V30 13239 C 1264.83 -3.58696 0.370082 0
M  V30 13240 O 1263.94 -4.07507 -0.633361 0
M  V30 13241 H 1263.28 -0.648023 0.144782 0
M  V30 13242 H 1265.81 -1.7655 1.03399 0
M  V30 13243 H 1265.82 -4.07387 0.223515 0
M  V30 13244 H 1264.49 -3.92806 1.36661 0
M  V30 13245 H 1263.07 -3.70165 -0.45081 0
M  V30 13246 N 1265.25 -0.510493 -1.49103 0
M  V30 13247 C 1266.48 0.0271718 -2.06882 0
M  V30 13248 C 1266.9 1.2995 -1.36962 0
M  V30 13249 O 1266.25 1.76842 -0.450916 0
M  V30 13250 C 1266.3 0.274956 -3.60453 0
M  V30 13251 O 1266.03 -0.946941 -4.27744 0
M  V30 13252 C 1267.53 0.855197 -4.34973 0
M  V30 13253 H 1264.75 -0.024732 -0.670544 0
M  V30 13254 H 1267.29 -0.710567 -1.91758 0
M  V30 13255 H 1265.45 0.962696 -3.75248 0
M  V30 13256 H 1265.86 -0.715627 -5.19595 0
M  V30 13257 H 1267.33 0.978103 -5.43265 0
M  V30 13258 H 1267.81 1.85535 -3.98087 0
M  V30 13259 H 1268.42 0.204632 -4.24807 0
M  V30 13260 N 1266.73 1.55688 -0.24474 0
M  V30 13261 C 1267.64 2.24933 0.666519 0
M  V30 13262 C 1268.66 1.26471 1.19503 0
M  V30 13263 O 1269.83 1.59342 1.23176 0
M  V30 13264 C 1266.9 2.9336 1.84772 0
M  V30 13265 C 1265.96 4.07225 1.35889 0
M  V30 13266 C 1265.19 4.72381 2.48379 0
M  V30 13267 O 1265.42 4.36605 3.67059 0
M  V30 13268 O 1264.35 5.60933 2.18261 0
M  V30 13269 H 1268.18 3.03513 0.106507 0
M  V30 13270 H 1265.76 1.49394 -0.0133309 0
M  V30 13271 H 1267.64 3.36468 2.53708 0
M  V30 13272 H 1266.32 2.17721 2.39539 0
M  V30 13273 H 1265.22 3.68639 0.636881 0
M  V30 13274 H 1266.56 4.84676 0.857333 0
M  V30 13275 N 1268.21 -0.0283989 1.57574 0
M  V30 13276 C 1269.46 -0.720142 1.89583 0
M  V30 13277 C 1269.79 -1.7497 0.842562 0
M  V30 13278 O 1269.06 -1.93979 -0.142294 0
M  V30 13279 C 1269.35 -1.38909 3.32229 0
M  V30 13280 C 1269.2 -0.372998 4.48251 0
M  V30 13281 C 1270.52 -2.32289 3.73804 0
M  V30 13282 H 1267.64 -0.26033 0.689491 0
M  V30 13283 H 1270.28 0.0170607 1.89992 0
M  V30 13284 H 1268.43 -2.01744 3.32011 0
M  V30 13285 H 1270.1 0.253492 4.60603 0
M  V30 13286 H 1268.34 0.30765 4.32708 0
M  V30 13287 H 1269.02 -0.879549 5.44948 0
M  V30 13288 H 1271.49 -1.79497 3.75393 0
M  V30 13289 H 1270.37 -2.76075 4.74419 0
M  V30 13290 H 1270.63 -3.18992 3.06099 0
M  V30 13291 N 1269.69 -1.54705 -0.300681 0
M  V30 13292 C 1270.65 -1.84934 -1.35395 0
M  V30 13293 C 1271.65 -0.72226 -1.43666 0
M  V30 13294 O 1272.84 -0.990543 -1.43296 0
M  V30 13295 C 1269.97 -2.02991 -2.73875 0
M  V30 13296 H 1271.17 -2.79063 -1.09835 0
M  V30 13297 H 1268.72 -1.46772 -0.537365 0
M  V30 13298 H 1269.45 -1.11151 -3.04657 0
M  V30 13299 H 1269.24 -2.85027 -2.69262 0
M  V30 13300 H 1270.73 -2.27747 -3.5003 0
M  V30 13301 N 1271.17 0.563888 -1.47167 0
M  V30 13302 C 1272.39 1.34693 -1.57052 0
M  V30 13303 C 1272.81 1.87534 -0.218308 0
M  V30 13304 O 1272.17 1.64639 0.787416 0
M  V30 13305 C 1272.22 2.52148 -2.59044 0
M  V30 13306 O 1271.94 2.01492 -3.89015 0
M  V30 13307 C 1273.44 3.4445 -2.7905 0
M  V30 13308 H 1270.66 0.410822 -0.530534 0
M  V30 13309 H 1273.2 0.683731 -1.92731 0
M  V30 13310 H 1271.36 3.14419 -2.26317 0
M  V30 13311 H 1271.77 2.78122 -4.44689 0
M  V30 13312 H 1273.25 4.23297 -3.54293 0
M  V30 13313 H 1273.72 3.97575 -1.86631 0
M  V30 13314 H 1274.33 2.88 -3.12948 0
M  V30 13315 N 1272.64 1.35187 0.810078 0
M  V30 13316 C 1273.57 1.30481 1.93641 0
M  V30 13317 C 1274.56 0.179875 1.69146 0
M  V30 13318 O 1275.74 0.374284 1.90559 0
M  V30 13319 C 1272.87 1.07251 3.30325 0
M  V30 13320 C 1271.82 2.16348 3.69293 0
M  V30 13321 C 1271.15 1.78288 5.04101 0
M  V30 13322 C 1272.45 3.58285 3.80038 0
M  V30 13323 H 1274.14 2.24725 1.97836 0
M  V30 13324 H 1271.69 1.08179 0.950436 0
M  V30 13325 H 1273.64 1.02599 4.08719 0
M  V30 13326 H 1272.37 0.0945203 3.26463 0
M  V30 13327 H 1271.03 2.2009 2.93182 0
M  V30 13328 H 1270.67 0.791163 4.96739 0
M  V30 13329 H 1270.37 2.51315 5.31144 0
M  V30 13330 H 1271.9 1.75155 5.84938 0
M  V30 13331 H 1273.31 3.56884 4.48672 0
M  V30 13332 H 1271.71 4.30044 4.18548 0
M  V30 13333 H 1272.78 3.94691 2.81685 0
M  V30 13334 N 1274.12 -1.03182 1.19127 0
M  V30 13335 C 1275.05 -2.13301 0.94999 0
M  V30 13336 C 1276.03 -1.69707 -0.115577 0
M  V30 13337 O 1277.22 -1.94161 0.0388395 0
M  V30 13338 C 1274.35 -3.43902 0.484637 0
M  V30 13339 C 1273.3 -4.01164 1.4917 0
M  V30 13340 C 1272.63 -5.2735 0.883537 0
M  V30 13341 C 1273.93 -4.36311 2.87107 0
M  V30 13342 H 1275.62 -2.33743 1.87095 0
M  V30 13343 H 1273.17 -1.12332 0.900977 0
M  V30 13344 H 1275.12 -4.20308 0.30315 0
M  V30 13345 H 1273.85 -3.23173 -0.471909 0
M  V30 13346 H 1272.5 -3.26849 1.66028 0
M  V30 13347 H 1272.15 -5.02936 -0.0804712 0
M  V30 13348 H 1271.85 -5.66624 1.55599 0
M  V30 13349 H 1273.38 -6.06425 0.71278 0
M  V30 13350 H 1274.79 -5.03666 2.73848 0
M  V30 13351 H 1273.19 -4.86659 3.51117 0
M  V30 13352 H 1274.26 -3.45743 3.39985 0
M  V30 13353 N 1275.6 -0.99472 -1.22242 0
M  V30 13354 C 1276.53 -0.504783 -2.23572 0
M  V30 13355 C 1277.55 0.401105 -1.57781 0
M  V30 13356 O 1278.73 0.202948 -1.77343 0
M  V30 13357 C 1275.83 0.287524 -3.37678 0
M  V30 13358 C 1275.01 -0.614941 -4.33056 0
M  V30 13359 C 1274.07 0.125974 -5.26049 0
M  V30 13360 O 1273.09 -0.489234 -5.67094 0
M  V30 13361 N 1274.29 1.40772 -5.63173 0
M  V30 13362 H 1277.06 -1.37612 -2.66238 0
M  V30 13363 H 1274.62 -0.86965 -1.3656 0
M  V30 13364 H 1276.61 0.791884 -3.96877 0
M  V30 13365 H 1275.18 1.05998 -2.9408 0
M  V30 13366 H 1274.4 -1.29994 -3.72149 0
M  V30 13367 H 1275.69 -1.22947 -4.93722 0
M  V30 13368 H 1275.09 1.92884 -5.31801 0
M  V30 13369 H 1273.65 1.85723 -6.2478 0
M  V30 13370 N 1277.08 1.37613 -0.768148 0
M  V30 13371 C 1278.49 1.53202 -0.44737 0
M  V30 13372 C 1278.69 1.72736 1.03752 0
M  V30 13373 O 1277.75 1.74667 1.8234 0
M  V30 13374 C 1279.06 2.7306 -1.25931 0
M  V30 13375 C 1280.61 2.8692 -1.25084 0
M  V30 13376 C 1281.09 4.09757 -2.04605 0
M  V30 13377 N 1282.58 4.16862 -2.0194 0
M  V30 13378 C 1283.31 5.10936 -2.60254 0
M  V30 13379 N 1282.81 6.1059 -3.27341 0
M  V30 13380 N 1284.6 5.03393 -2.50104 0
M  V30 13381 H 1276.75 1.23184 -1.7303 0
M  V30 13382 H 1279.02 0.599541 -0.73434 0
M  V30 13383 H 1278.72 2.65078 -2.31141 0
M  V30 13384 H 1278.6 3.66646 -0.886036 0
M  V30 13385 H 1280.98 2.94375 -0.206736 0
M  V30 13386 H 1281.06 1.94303 -1.66373 0
M  V30 13387 H 1280.71 4.03063 -3.09035 0
M  V30 13388 H 1280.64 5.01481 -1.60701 0
M  V30 13389 H 1283.13 3.455 -1.53096 0
M  V30 13390 H 1283.44 6.78893 -3.6922 0
M  V30 13391 H 1281.79 6.10879 -3.31439 0
M  V30 13392 H 1284.98 4.24483 -1.9731 0
M  V30 13393 H 1285.15 5.76524 -2.95844 0
M  V30 13394 N 1278.56 0.518393 1.4883 0
M  V30 13395 C 1279.5 -0.264197 2.31095 0
M  V30 13396 C 1280.5 -0.946455 1.40494 0
M  V30 13397 O 1281.7 -0.872161 1.57459 0
M  V30 13398 H 1278.08 -0.104065 0.744765 0
M  V30 13399 H 1280.05 0.449375 2.94997 0
M  V30 13400 C 1278.8 -1.30527 3.2227 0
M  V30 13401 H 1278.12 -0.789695 3.91923 0
M  V30 13402 H 1279.56 -1.82449 3.82738 0
M  V30 13403 C 1278.02 -2.33274 2.43073 0
M  V30 13404 O 1278.55 -3.39493 2.14726 0
M  V30 13405 N 1276.76 -2.06189 2.04779 0
M  V30 13406 H 1276.3 -1.19829 2.28033 0
M  V30 13407 H 1276.26 -2.7516 1.521 0
M  V30 13408 N 1280.03 -1.55556 0.252993 0
M  V30 13409 C 1281.28 -1.98267 -0.370571 0
M  V30 13410 C 1281.6 -1.14449 -1.58622 0
M  V30 13411 O 1282.8 -1.472 -2.28132 0
M  V30 13412 C 1281.26 -3.52813 -0.710685 0
M  V30 13413 C 1280.87 -4.45379 0.483908 0
M  V30 13414 C 1282.61 -4.04165 -1.2981 0
M  V30 13415 C 1280.52 -5.91279 0.119611 0
M  V30 13416 H 1279.45 -0.740463 -0.142232 0
M  V30 13417 H 1282.1 -1.8005 0.354169 0
M  V30 13418 H 1280.48 -3.66748 -1.49372 0
M  V30 13419 H 1281.65 -4.43206 1.26116 0
M  V30 13420 H 1279.97 -4.04542 0.986664 0
M  V30 13421 H 1282.57 -5.10696 -1.5841 0
M  V30 13422 H 1282.91 -3.51875 -2.22462 0
M  V30 13423 H 1283.44 -3.93581 -0.577836 0
M  V30 13424 H 1280.18 -6.47619 1.01343 0
M  V30 13425 H 1279.7 -5.96573 -0.621318 0
M  V30 13426 H 1281.38 -6.46322 -0.296052 0
M  V30 13427 N 1281.51 0.0200419 -1.57587 0
M  V30 13428 C 1282.48 1.00255 -2.06111 0
M  V30 13429 C 1283.48 1.28488 -0.966829 0
M  V30 13430 O 1284.67 1.2334 -1.23015 0
M  V30 13431 C 1281.8 2.33296 -2.48567 0
M  V30 13432 H 1282.99 0.583216 -2.94174 0
M  V30 13433 H 1280.54 0.267077 -1.54001 0
M  V30 13434 H 1281.28 2.79959 -1.63687 0
M  V30 13435 H 1281.06 2.14131 -3.28467 0
M  V30 13436 H 1282.55 3.03817 -2.86505 0
M  V30 13437 N 1282.99 1.54862 0.292472 0
M  V30 13438 C 1284.22 1.78877 1.04966 0
M  V30 13439 C 1284.64 0.550724 1.79857 0
M  V30 13440 O 1284 -0.499054 1.74296 0
M  V30 13441 C 1284.05 3.00106 1.99922 0
M  V30 13442 O 1283.15 2.73827 3.0837 0
M  V30 13443 H 1282.49 0.591802 0.301108 0
M  V30 13444 H 1285.02 2.01965 0.3273 0
M  V30 13445 H 1285.03 3.28309 2.42233 0
M  V30 13446 H 1283.71 3.89872 1.44821 0
M  V30 13447 H 1282.28 2.56665 2.70513 0
M  V30 13448 N 1284.47 -0.556076 1.47464 0
M  V30 13449 C 1285.88 -0.882115 1.33007 0
M  V30 13450 C 1286.08 -1.9892 0.321407 0
M  V30 13451 O 1285.14 -2.51088 -0.266668 0
M  V30 13452 C 1286.45 -1.27428 2.72365 0
M  V30 13453 C 1288 -1.38564 2.80658 0
M  V30 13454 C 1288.48 -1.81136 4.20659 0
M  V30 13455 N 1289.97 -1.88284 4.23206 0
M  V30 13456 C 1290.7 -2.22555 5.28447 0
M  V30 13457 N 1290.2 -2.55432 6.43993 0
M  V30 13458 N 1291.99 -2.23339 5.15826 0
M  V30 13459 H 1284.14 0.17481 2.11679 0
M  V30 13460 H 1286.41 0.0155421 0.947873 0
M  V30 13461 H 1286.11 -0.53463 3.47613 0
M  V30 13462 H 1285.99 -2.23019 3.04208 0
M  V30 13463 H 1288.37 -2.1161 2.05682 0
M  V30 13464 H 1288.45 -0.411588 2.52467 0
M  V30 13465 H 1288.1 -1.08659 4.96141 0
M  V30 13466 H 1288.03 -2.79546 4.46275 0
M  V30 13467 H 1290.52 -1.65259 3.3985 0
M  V30 13468 H 1290.83 -2.80612 7.20053 0
M  V30 13469 H 1289.18 -2.5301 6.47311 0
M  V30 13470 H 1292.37 -1.97094 4.24584 0
M  V30 13471 H 1292.54 -2.49717 5.97951 0
M  V30 13472 N 1285.95 -1.35615 -0.802897 0
M  V30 13473 C 1286.88 -1.31506 -1.92947 0
M  V30 13474 C 1287.86 -0.188843 -1.69048 0
M  V30 13475 O 1289.04 -0.384384 -1.90358 0
M  V30 13476 C 1286.17 -1.09001 -3.29752 0
M  V30 13477 C 1285.13 -2.18303 -3.68141 0
M  V30 13478 C 1284.45 -1.80959 -5.03148 0
M  V30 13479 C 1285.75 -3.60296 -3.78132 0
M  V30 13480 H 1287.45 -2.25771 -1.96642 0
M  V30 13481 H 1284.99 -1.08682 -0.944685 0
M  V30 13482 H 1286.95 -1.04766 -4.08169 0
M  V30 13483 H 1285.67 -0.111832 -3.26408 0
M  V30 13484 H 1284.33 -2.21642 -2.92011 0
M  V30 13485 H 1283.98 -0.817495 -4.96312 0
M  V30 13486 H 1283.68 -2.54129 -5.29804 0
M  V30 13487 H 1285.2 -1.78255 -5.84001 0
M  V30 13488 H 1286.62 -3.59259 -4.46773 0
M  V30 13489 H 1285.01 -4.32258 -4.16261 0
M  V30 13490 H 1286.08 -3.9618 -2.79588 0
M  V30 13491 N 1287.43 1.02549 -1.19673 0
M  V30 13492 C 1288.7 1.73106 -0.9107 0
M  V30 13493 C 1289.08 2.02897 0.582769 0
M  V30 13494 O 1288.43 1.68633 1.54192 0
M  V30 13495 C 1288.64 3.00535 -1.77425 0
M  V30 13496 C 1289.99 3.73976 -2.01065 0
M  V30 13497 O 1291.01 3.1047 -1.74605 0
M  V30 13498 O 1289.87 4.88153 -2.457 0
M  V30 13499 H 1286.97 0.754006 -0.339711 0
M  V30 13500 H 1289.51 1.08477 -1.30502 0
M  V30 13501 H 1288.28 2.74773 -2.78595 0
M  V30 13502 H 1287.91 3.72904 -1.37943 0
M  V30 13503 N 1288.9 1.00119 1.21713 0
M  V30 13504 C 1289.87 0.563409 2.22167 0
M  V30 13505 C 1290.87 -0.35819 1.5676 0
M  V30 13506 O 1292.06 -0.149001 1.73562 0
M  V30 13507 C 1289.19 -0.179365 3.40428 0
M  V30 13508 H 1290.38 1.45189 2.62412 0
M  V30 13509 H 1287.93 0.789286 1.34907 0
M  V30 13510 H 1288.67 -1.08345 3.05666 0
M  V30 13511 H 1288.45 0.482471 3.8912 0
M  V30 13512 H 1289.94 -0.473537 4.14906 0
M  V30 13513 N 1290.38 -1.37203 0.775435 0
M  V30 13514 C 1291.31 -2.28873 0.122374 0
M  V30 13515 C 1292.33 -1.48811 -0.660239 0
M  V30 13516 O 1293.52 -1.7142 -0.497724 0
M  V30 13517 C 1290.62 -3.28062 -0.850212 0
M  V30 13518 C 1289.79 -4.37234 -0.120633 0
M  V30 13519 C 1288.85 -5.16472 -1.00712 0
M  V30 13520 O 1287.87 -5.6726 -0.469528 0
M  V30 13521 N 1289.08 -5.31556 -2.33299 0
M  V30 13522 H 1291.84 -2.85559 0.909741 0
M  V30 13523 H 1289.4 -1.49219 0.628107 0
M  V30 13524 H 1291.39 -3.77956 -1.44678 0
M  V30 13525 H 1289.96 -2.72118 -1.53853 0
M  V30 13526 H 1289.18 -3.88688 0.656879 0
M  V30 13527 H 1290.47 -5.07354 0.383358 0
M  V30 13528 H 1289.87 -4.91883 -2.79406 0
M  V30 13529 H 1288.43 -5.84745 -2.87953 0
M  V30 13530 N 1291.86 -0.526279 -1.48553 0
M  V30 13531 C 1293.11 0.00914839 -2.02098 0
M  V30 13532 C 1293.43 1.35119 -1.40598 0
M  V30 13533 O 1292.7 1.87422 -0.570065 0
M  V30 13534 H 1291.28 0.00636935 -0.746973 0
M  V30 13535 H 1293.94 -0.689269 -1.82305 0
M  V30 13536 H 1293.04 0.120212 -3.11868 0
M  V30 13537 N 1293.34 1.5542 -0.261239 0
M  V30 13538 C 1294.75 1.59327 0.0932655 0
M  V30 13539 C 1294.95 1.27846 1.55748 0
M  V30 13540 O 1294.01 1.03265 2.30418 0
M  V30 13541 C 1295.32 2.99496 -0.268856 0
M  V30 13542 C 1296.87 3.12265 -0.21433 0
M  V30 13543 C 1297.35 4.54677 -0.55069 0
M  V30 13544 N 1298.84 4.60475 -0.501723 0
M  V30 13545 C 1299.57 5.6867 -0.734961 0
M  V30 13546 N 1299.07 6.85069 -1.03209 0
M  V30 13547 N 1300.86 5.58156 -0.664696 0
M  V30 13548 H 1293.01 1.7415 -1.21595 0
M  V30 13549 H 1295.27 0.811382 -0.490268 0
M  V30 13550 H 1294.98 3.2732 -1.28664 0
M  V30 13551 H 1294.85 3.75104 0.397097 0
M  V30 13552 H 1297.24 2.84213 0.794148 0
M  V30 13553 H 1297.32 2.389 -0.914342 0
M  V30 13554 H 1296.97 4.83453 -1.55679 0
M  V30 13555 H 1296.9 5.26322 0.170959 0
M  V30 13556 H 1299.39 3.76851 -0.281387 0
M  V30 13557 H 1299.7 7.63472 -1.19709 0
M  V30 13558 H 1298.05 6.86718 -1.06971 0
M  V30 13559 H 1301.24 4.66098 -0.432513 0
M  V30 13560 H 1301.41 6.42403 -0.849857 0
M  V30 13561 N 1294.82 -0.0116844 1.57596 0
M  V30 13562 C 1296.23 -0.55604 1.78228 0
M  V30 13563 C 1296.58 -1.74624 0.894474 0
M  V30 13564 O 1295.7 -2.16196 0.0938498 0
M  V30 13565 C 1296.3 -1.0155 3.23223 0
M  V30 13566 C 1294.86 -1.50525 3.44992 0
M  V30 13567 C 1294 -0.451133 2.73606 0
M  V30 13568 H 1296.95 0.214516 1.57243 0
M  V30 13569 H 1296.98 -1.88208 3.30693 0
M  V30 13570 H 1296.49 -0.149048 3.87814 0
M  V30 13571 H 1294.59 -2.39298 2.856 0
M  V30 13572 H 1294.7 -1.54076 4.53649 0
M  V30 13573 H 1293.07 -0.910135 2.37884 0
M  V30 13574 H 1293.85 0.406152 3.40889 0
M  V30 13575 N 1296.29 -1.55015 -0.284256 0
M  V30 13576 C 1297.54 -1.74297 -1.01506 0
M  V30 13577 C 1297.86 -0.545134 -1.8785 0
M  V30 13578 O 1299.06 -0.620118 -2.64323 0
M  V30 13579 C 1297.52 -3.08438 -1.85456 0
M  V30 13580 C 1297.13 -4.35753 -1.04034 0
M  V30 13581 C 1298.87 -3.37073 -2.58035 0
M  V30 13582 C 1296.78 -5.60938 -1.87358 0
M  V30 13583 H 1295.71 -0.649656 -0.382705 0
M  V30 13584 H 1298.36 -1.81484 -0.271239 0
M  V30 13585 H 1296.74 -2.95259 -2.63891 0
M  V30 13586 H 1297.91 -4.59816 -0.300954 0
M  V30 13587 H 1296.23 -4.14178 -0.429616 0
M  V30 13588 H 1298.83 -4.27806 -3.20759 0
M  V30 13589 H 1299.17 -2.56698 -3.27738 0
M  V30 13590 H 1299.7 -3.51299 -1.86638 0
M  V30 13591 H 1296.44 -6.44029 -1.22096 0
M  V30 13592 H 1295.96 -5.41035 -2.58923 0
M  V30 13593 H 1297.64 -5.98819 -2.44999 0
M  V30 13594 N 1297.77 0.548248 -1.47757 0
M  V30 13595 C 1299.18 1.13033 -1.48595 0
M  V30 13596 C 1299.53 1.94657 -0.245575 0
M  V30 13597 O 1298.66 2.06445 0.648813 0
M  V30 13598 C 1299.25 2.05657 -2.69241 0
M  V30 13599 C 1297.81 2.59119 -2.73009 0
M  V30 13600 C 1296.96 1.35686 -2.41836 0
M  V30 13601 H 1299.91 0.334397 -1.55137 0
M  V30 13602 H 1299.93 2.89671 -2.4672 0
M  V30 13603 H 1299.44 1.46222 -3.595 0
M  V30 13604 H 1297.54 3.22327 -1.86912 0
M  V30 13605 H 1297.66 2.99501 -3.73946 0
M  V30 13606 H 1296.02 1.66659 -1.92606 0
M  V30 13607 H 1296.8 0.780311 -3.34314 0
M  V30 13608 N 1299.25 1.36039 0.795694 0
M  V30 13609 C 1300.18 1.32528 1.92246 0
M  V30 13610 C 1301.16 0.197805 1.68946 0
M  V30 13611 O 1302.35 0.394474 1.90151 0
M  V30 13612 C 1299.48 1.10748 3.29169 0
M  V30 13613 C 1298.43 2.20253 3.66978 0
M  V30 13614 C 1297.76 1.83624 5.02181 0
M  V30 13615 C 1299.06 3.62296 3.76216 0
M  V30 13616 H 1300.75 2.2681 1.95442 0
M  V30 13617 H 1298.3 1.09181 0.938908 0
M  V30 13618 H 1300.25 1.06929 4.07608 0
M  V30 13619 H 1298.97 0.129141 3.26345 0
M  V30 13620 H 1297.63 2.23187 2.90832 0
M  V30 13621 H 1297.28 0.843804 4.95872 0
M  V30 13622 H 1296.98 2.56935 5.28449 0
M  V30 13623 H 1298.5 1.81349 5.83048 0
M  V30 13624 H 1299.92 3.61623 4.44861 0
M  V30 13625 H 1298.31 4.34459 4.13963 0
M  V30 13626 H 1299.38 3.97657 2.77483 0
M  V30 13627 N 1300.73 -1.01913 1.20215 0
M  V30 13628 C 1301.98 -1.74878 1.00502 0
M  V30 13629 C 1302.29 -1.90022 -0.463792 0
M  V30 13630 O 1303.5 -2.60055 -0.779982 0
M  V30 13631 C 1301.95 -3.1452 1.74943 0
M  V30 13632 C 1301.56 -3.07397 3.259 0
M  V30 13633 C 1303.3 -3.91713 1.63589 0
M  V30 13634 C 1301.21 -4.42032 3.92889 0
M  V30 13635 H 1300.14 -0.655603 0.372426 0
M  V30 13636 H 1302.79 -1.13978 1.4381 0
M  V30 13637 H 1301.17 -3.75946 1.24421 0
M  V30 13638 H 1302.35 -2.55294 3.83617 0
M  V30 13639 H 1300.66 -2.43698 3.37639 0
M  V30 13640 H 1303.26 -4.91316 2.1098 0
M  V30 13641 H 1303.6 -4.12074 0.591665 0
M  V30 13642 H 1304.14 -3.3691 2.11511 0
M  V30 13643 H 1300.88 -4.26874 4.97453 0
M  V30 13644 H 1300.4 -4.94151 3.39962 0
M  V30 13645 H 1302.07 -5.10884 3.96997 0
M  V30 13646 N 1302.21 -1.00763 -1.2118 0
M  V30 13647 C 1303.17 -0.575183 -2.21865 0
M  V30 13648 C 1304.17 0.349871 -1.56948 0
M  V30 13649 O 1305.36 0.139795 -1.73638 0
M  V30 13650 C 1302.49 0.161308 -3.40518 0
M  V30 13651 H 1303.68 -1.46578 -2.61639 0
M  V30 13652 H 1301.24 -0.79643 -1.34487 0
M  V30 13653 H 1301.97 1.06723 -3.06236 0
M  V30 13654 H 1301.76 -0.503101 -3.88859 0
M  V30 13655 H 1303.25 0.451527 -4.15152 0
M  V30 13656 N 1303.68 1.3679 -0.7827 0
M  V30 13657 C 1304.59 2.33928 -0.17747 0
M  V30 13658 C 1305.61 1.60716 0.666802 0
M  V30 13659 O 1306.79 1.92742 0.584162 0
M  V30 13660 C 1303.85 3.39907 0.68294 0
M  V30 13661 C 1302.91 4.28926 -0.179053 0
M  V30 13662 C 1302.15 5.29844 0.640386 0
M  V30 13663 O 1302.37 5.38639 1.87681 0
M  V30 13664 O 1301.3 6.01884 0.0438164 0
M  V30 13665 H 1305.13 2.87439 -0.980441 0
M  V30 13666 H 1302.71 1.39142 -0.54404 0
M  V30 13667 H 1304.6 4.04722 1.17379 0
M  V30 13668 H 1303.27 2.88706 1.46391 0
M  V30 13669 H 1302.18 3.67174 -0.716512 0
M  V30 13670 H 1303.51 4.83461 -0.923377 0
M  V30 13671 N 1305.16 0.53415 1.48272 0
M  V30 13672 C 1306.39 0.00574475 2.06899 0
M  V30 13673 C 1306.81 -1.27754 1.39012 0
M  V30 13674 O 1306.16 -1.76102 0.478993 0
M  V30 13675 C 1306.21 -0.217576 3.60845 0
M  V30 13676 O 1305.93 1.01487 4.26183 0
M  V30 13677 C 1307.44 -0.785888 4.36278 0
M  V30 13678 H 1304.66 0.0353967 0.670066 0
M  V30 13679 H 1307.2 0.740984 1.90603 0
M  V30 13680 H 1305.35 -0.902875 3.76732 0
M  V30 13681 H 1305.77 0.7982 5.18391 0
M  V30 13682 H 1307.24 -0.891551 5.44753 0
M  V30 13683 H 1307.72 -1.79178 4.00989 0
M  V30 13684 H 1308.33 -0.137022 4.25079 0
M  V30 13685 N 1306.64 -1.55279 0.269478 0
M  V30 13686 C 1307.89 -1.99077 -0.348224 0
M  V30 13687 C 1308.21 -1.15925 -1.568 0
M  V30 13688 O 1307.48 -0.247404 -1.94331 0
M  V30 13689 H 1306.06 -0.735307 -0.131653 0
M  V30 13690 H 1308.72 -1.91288 0.373506 0
M  V30 13691 H 1307.82 -3.05427 -0.641953 0
M  V30 13692 N 1308.12 0.00332656 -1.576 0
M  V30 13693 C 1309.37 0.687508 -1.90047 0
M  V30 13694 C 1309.69 1.74497 -0.870388 0
M  V30 13695 O 1308.96 1.95681 0.0926544 0
M  V30 13696 H 1307.54 0.256924 -0.701426 0
M  V30 13697 H 1310.2 -0.0368129 -1.94865 0
M  V30 13698 H 1309.3 1.16086 -2.89707 0
M  V30 13699 N 1309.6 1.55164 0.276031 0
M  V30 13700 C 1310.53 1.82758 1.36656 0
M  V30 13701 C 1311.51 0.680405 1.4768 0
M  V30 13702 O 1312.69 0.923078 1.64352 0
M  V30 13703 C 1309.82 1.98651 2.74328 0
M  V30 13704 C 1308.86 3.21192 2.80603 0
M  V30 13705 S 1309.7 4.78628 2.40156 0
M  V30 13706 C 1310.85 4.9749 3.79809 0
M  V30 13707 H 1311.09 2.74969 1.13045 0
M  V30 13708 H 1308.62 1.46896 0.4755 0
M  V30 13709 H 1310.58 2.08492 3.53612 0
M  V30 13710 H 1309.24 1.07333 2.95192 0
M  V30 13711 H 1308.43 3.29189 3.81642 0
M  V30 13712 H 1308.03 3.09926 2.09337 0
M  V30 13713 H 1310.33 4.83045 4.75051 0
M  V30 13714 H 1311.27 5.99544 3.76765 0
M  V30 13715 H 1311.68 4.25489 3.70971 0
M  V30 13716 N 1311.07 -0.540404 1.48045 0
M  V30 13717 C 1312.02 -1.66695 1.62221 0
M  V30 13718 C 1313.02 -1.6219 0.488943 0
M  V30 13719 O 1314.22 -1.67173 0.66732 0
M  V30 13720 H 1310.6 -0.551868 0.510828 0
M  V30 13721 H 1312.57 -1.51879 2.56856 0
M  V30 13722 C 1311.32 -3.05002 1.6694 0
M  V30 13723 H 1310.64 -3.09157 2.53499 0
M  V30 13724 H 1312.08 -3.8347 1.80904 0
M  V30 13725 C 1310.54 -3.34445 0.40598 0
M  V30 13726 O 1311.07 -3.98753 -0.485676 0
M  V30 13727 N 1309.28 -2.8924 0.280857 0
M  V30 13728 H 1308.82 -2.37085 1.00741 0
M  V30 13729 H 1308.78 -3.09309 -0.563493 0
M  V30 13730 N 1312.55 -1.36459 -0.788468 0
M  V30 13731 C 1313.52 -1.3071 -1.88275 0
M  V30 13732 C 1314.52 -0.214596 -1.59362 0
M  V30 13733 O 1315.71 -0.469437 -1.67756 0
M  V30 13734 C 1312.84 -1.02648 -3.25079 0
M  V30 13735 H 1314.03 -2.28029 -1.94788 0
M  V30 13736 H 1311.58 -1.21245 -0.986375 0
M  V30 13737 H 1312.32 -0.0578992 -3.24248 0
M  V30 13738 H 1312.1 -1.81708 -3.47454 0
M  V30 13739 H 1313.59 -1.01233 -4.05144 0
M  V30 13740 N 1314.03 1.01274 -1.20754 0
M  V30 13741 C 1314.96 2.09567 -0.903157 0
M  V30 13742 C 1315.94 1.61941 0.146287 0
M  V30 13743 O 1317.13 1.8849 0.0190177 0
M  V30 13744 C 1314.25 3.36838 -0.354682 0
M  V30 13745 C 1313.3 4.03361 -1.38572 0
M  V30 13746 S 1314.13 4.46775 -2.95216 0
M  V30 13747 C 1315.29 5.77242 -2.41955 0
M  V30 13748 H 1315.52 2.35063 -1.82024 0
M  V30 13749 H 1313.05 1.14444 -1.03643 0
M  V30 13750 H 1315.01 4.10476 -0.0447882 0
M  V30 13751 H 1313.67 3.09407 0.540962 0
M  V30 13752 H 1312.87 4.94939 -0.951408 0
M  V30 13753 H 1312.47 3.35964 -1.64329 0
M  V30 13754 H 1314.76 6.52608 -1.81958 0
M  V30 13755 H 1315.7 6.25475 -3.31944 0
M  V30 13756 H 1316.11 5.3369 -1.83942 0
M  V30 13757 N 1315.51 1.01404 1.20644 0
M  V30 13758 C 1316.76 0.697244 1.89265 0
M  V30 13759 C 1317.07 -0.776149 1.79542 0
M  V30 13760 O 1318.28 -1.2054 2.43274 0
M  V30 13761 C 1316.73 1.19672 3.39421 0
M  V30 13762 C 1316.34 2.69683 3.57736 0
M  V30 13763 C 1318.09 0.955225 4.13613 0
M  V30 13764 C 1315.99 3.13124 5.01704 0
M  V30 13765 H 1314.92 0.257105 0.708811 0
M  V30 13766 H 1317.57 1.22639 1.36499 0
M  V30 13767 H 1315.96 0.595562 3.91496 0
M  V30 13768 H 1317.13 3.35326 3.16059 0
M  V30 13769 H 1315.44 2.91946 2.96911 0
M  V30 13770 H 1318.04 1.25524 5.19757 0
M  V30 13771 H 1318.38 -0.108362 4.16159 0
M  V30 13772 H 1318.92 1.51962 3.67631 0
M  V30 13773 H 1315.66 4.18748 5.04311 0
M  V30 13774 H 1315.18 2.522 5.44201 0
M  V30 13775 H 1316.86 3.05617 5.70269 0
M  V30 13776 N 1316.99 -1.36373 0.789944 0
M  V30 13777 C 1318.23 -1.99523 0.363119 0
M  V30 13778 C 1318.57 -1.6255 -1.0626 0
M  V30 13779 O 1317.84 -0.880551 -1.73426 0
M  V30 13780 C 1318.12 -3.56215 0.527526 0
M  V30 13781 C 1317.98 -4.0304 1.99697 0
M  V30 13782 C 1319.3 -4.40063 -0.0571079 0
M  V30 13783 H 1316.42 -0.724824 0.133412 0
M  V30 13784 H 1319.06 -1.61778 0.996381 0
M  V30 13785 H 1317.21 -3.88498 -0.0115636 0
M  V30 13786 H 1318.88 -3.81241 2.59717 0
M  V30 13787 H 1317.12 -3.54561 2.49939 0
M  V30 13788 H 1317.79 -5.12001 2.06297 0
M  V30 13789 H 1320.27 -4.14143 0.403082 0
M  V30 13790 H 1319.15 -5.4883 0.0879494 0
M  V30 13791 H 1319.41 -4.26901 -1.14926 0
M  V30 13792 N 1318.47 -0.542005 -1.47987 0
M  V30 13793 C 1319.74 0.0526494 -1.95529 0
M  V30 13794 C 1320.12 1.50092 -1.48444 0
M  V30 13795 O 1319.47 2.16981 -0.716347 0
M  V30 13796 C 1319.68 -0.0770524 -3.48915 0
M  V30 13797 C 1321.03 0.0760849 -4.24532 0
M  V30 13798 O 1322.05 -0.00384644 -3.562 0
M  V30 13799 O 1320.91 0.245406 -5.45949 0
M  V30 13800 H 1318.01 0.0726163 -0.823806 0
M  V30 13801 H 1320.55 -0.607454 -1.58455 0
M  V30 13802 H 1319.32 -1.08544 -3.75944 0
M  V30 13803 H 1318.95 0.621357 -3.92715 0
M  V30 13804 N 1319.94 1.55134 -0.277709 0
M  V30 13805 C 1321.17 2.04519 0.344472 0
M  V30 13806 C 1321.59 1.15466 1.4849 0
M  V30 13807 O 1320.95 0.153798 1.80646 0
M  V30 13808 C 1321 3.51602 0.800527 0
M  V30 13809 O 1320.1 3.65632 1.90754 0
M  V30 13810 H 1319.44 0.660212 0.0708226 0
M  V30 13811 H 1321.97 2.00393 -0.412764 0
M  V30 13812 H 1321.98 3.93015 1.09559 0
M  V30 13813 H 1320.66 4.15886 -0.033838 0
M  V30 13814 H 1319.24 3.36122 1.61481 0
M  V30 13815 N 1321.42 0.00503138 1.57599 0
M  V30 13816 C 1322.65 -0.693231 1.95471 0
M  V30 13817 C 1323.07 -1.66233 0.880246 0
M  V30 13818 O 1322.43 -1.80582 -0.161164 0
M  V30 13819 C 1322.48 -1.39696 3.32442 0
M  V30 13820 O 1321.58 -2.51154 3.27101 0
M  V30 13821 H 1320.92 -0.184015 0.637992 0
M  V30 13822 H 1323.45 0.0597194 2.04513 0
M  V30 13823 H 1323.46 -1.75924 3.68123 0
M  V30 13824 H 1322.14 -0.686438 4.10196 0
M  V30 13825 H 1320.71 -2.17216 3.03103 0
M  V30 13826 N 1322.9 -1.55308 -0.267798 0
M  V30 13827 C 1323.86 -1.87765 -1.31442 0
M  V30 13828 C 1324.86 -0.752571 -1.42102 0
M  V30 13829 O 1326.05 -1.02072 -1.41163 0
M  V30 13830 C 1323.18 -2.08754 -2.69508 0
M  V30 13831 H 1324.38 -2.8133 -1.03891 0
M  V30 13832 H 1321.93 -1.47879 -0.506111 0
M  V30 13833 H 1322.67 -1.17588 -3.02231 0
M  V30 13834 H 1322.45 -2.90674 -2.63156 0
M  V30 13835 H 1323.94 -2.3512 -3.4512 0
M  V30 13836 N 1324.38 0.532545 -1.4833 0
M  V30 13837 C 1325.31 1.64662 -1.65555 0
M  V30 13838 C 1326.29 1.62447 -0.50447 0
M  V30 13839 O 1327.47 1.79684 -0.736712 0
M  V30 13840 C 1324.6 3.03256 -1.69272 0
M  V30 13841 C 1323.56 3.20329 -2.83854 0
M  V30 13842 C 1322.88 4.59958 -2.72659 0
M  V30 13843 C 1324.18 3.03345 -4.25181 0
M  V30 13844 H 1325.88 1.50502 -2.58823 0
M  V30 13845 H 1323.42 0.722612 -1.24556 0
M  V30 13846 H 1325.38 3.81064 -1.79911 0
M  V30 13847 H 1324.1 3.18433 -0.725805 0
M  V30 13848 H 1322.76 2.44937 -2.72766 0
M  V30 13849 H 1322.41 4.71967 -1.73942 0
M  V30 13850 H 1322.11 4.72327 -3.49544 0
M  V30 13851 H 1323.63 5.39869 -2.85262 0
M  V30 13852 H 1325.05 3.70948 -4.37116 0
M  V30 13853 H 1323.44 3.27208 -5.03045 0
M  V30 13854 H 1324.51 1.998 -4.41824 0
M  V30 13855 N 1325.86 1.36875 0.78122 0
M  V30 13856 C 1327.08 1.34732 1.57019 0
M  V30 13857 C 1327.5 -0.0695423 1.88672 0
M  V30 13858 O 1326.86 -1.02873 1.50743 0
M  V30 13859 C 1326.91 2.17668 2.88623 0
M  V30 13860 O 1326.63 3.53832 2.5833 0
M  V30 13861 C 1328.13 2.23398 3.82895 0
M  V30 13862 H 1325.35 0.461857 0.486754 0
M  V30 13863 H 1327.89 1.80086 0.968989 0
M  V30 13864 H 1326.05 1.75848 3.4519 0
M  V30 13865 H 1326.46 3.972 3.42538 0
M  V30 13866 H 1327.94 2.85769 4.72271 0
M  V30 13867 H 1328.41 1.23972 4.2134 0
M  V30 13868 H 1329.02 2.65489 3.32258 0
M  V30 13869 N 1327.33 -1.00632 1.21289 0
M  V30 13870 C 1328.24 -2.12829 0.986957 0
M  V30 13871 C 1329.26 -1.73895 -0.0605152 0
M  V30 13872 O 1330.44 -2.00985 0.129238 0
M  V30 13873 C 1327.5 -3.4226 0.553089 0
M  V30 13874 C 1326.56 -3.95376 1.67262 0
M  V30 13875 C 1325.79 -5.18629 1.25936 0
M  V30 13876 O 1326.02 -5.70246 0.132402 0
M  V30 13877 O 1324.95 -5.65157 2.07077 0
M  V30 13878 H 1328.78 -2.34765 1.92663 0
M  V30 13879 H 1326.36 -1.11208 0.997654 0
M  V30 13880 H 1328.24 -4.20177 0.320856 0
M  V30 13881 H 1326.92 -3.21716 -0.357881 0
M  V30 13882 H 1325.83 -3.18692 1.95924 0
M  V30 13883 H 1327.16 -4.20328 2.56097 0
M  V30 13884 N 1328.81 -1.02043 -1.20104 0
M  V30 13885 C 1329.74 -0.552093 -2.22451 0
M  V30 13886 C 1330.76 0.367547 -1.58597 0
M  V30 13887 O 1331.95 0.165285 -1.77733 0
M  V30 13888 C 1329.05 0.215833 -3.38212 0
M  V30 13889 C 1328.22 -0.70666 -4.31654 0
M  V30 13890 C 1327.28 0.0143628 -5.26198 0
M  V30 13891 O 1326.3 -0.609413 -5.65928 0
M  V30 13892 N 1327.51 1.28794 -5.66032 0
M  V30 13893 H 1330.27 -1.43229 -2.6326 0
M  V30 13894 H 1327.83 -0.89842 -1.34685 0
M  V30 13895 H 1329.82 0.707523 -3.98467 0
M  V30 13896 H 1328.39 0.997358 -2.96263 0
M  V30 13897 H 1327.61 -1.37859 -3.69308 0
M  V30 13898 H 1328.9 -1.33392 -4.91003 0
M  V30 13899 H 1328.3 1.8156 -5.35773 0
M  V30 13900 H 1326.86 1.72429 -6.28579 0
M  V30 13901 N 1330.29 1.35952 -0.797165 0
M  V30 13902 C 1331.54 1.99327 -0.373695 0
M  V30 13903 C 1331.87 1.63111 1.05396 0
M  V30 13904 O 1331.14 0.889736 1.72956 0
M  V30 13905 C 1331.43 3.5593 -0.54641 0
M  V30 13906 C 1331.28 4.01975 -2.01832 0
M  V30 13907 C 1332.6 4.40087 0.0337694 0
M  V30 13908 H 1329.72 0.724107 -0.137254 0
M  V30 13909 H 1332.36 1.61248 -1.00495 0
M  V30 13910 H 1330.51 3.88499 -0.00903959 0
M  V30 13911 H 1332.18 3.79859 -2.61735 0
M  V30 13912 H 1330.43 3.5323 -2.51815 0
M  V30 13913 H 1331.1 5.109 -2.09009 0
M  V30 13914 H 1333.57 4.13923 -0.425039 0
M  V30 13915 H 1332.45 5.48775 -0.117054 0
M  V30 13916 H 1332.71 4.27504 1.12661 0
M  V30 13917 N 1331.77 0.549846 1.47697 0
M  V30 13918 C 1333.01 0.0230845 2.02787 0
M  V30 13919 C 1333.35 -1.32035 1.42409 0
M  V30 13920 O 1332.62 -1.85745 0.576978 0
M  V30 13921 C 1332.91 -0.0778363 3.60016 0
M  V30 13922 C 1332.76 1.29217 4.3084 0
M  V30 13923 C 1334.08 -0.794909 4.32862 0
M  V30 13924 H 1331.2 0.00986307 0.736934 0
M  V30 13925 H 1333.84 0.710714 1.76207 0
M  V30 13926 H 1331.99 -0.663464 3.82793 0
M  V30 13927 H 1333.66 1.92044 4.19424 0
M  V30 13928 H 1331.9 1.86883 3.91481 0
M  V30 13929 H 1332.57 1.17435 5.39364 0
M  V30 13930 H 1335.05 -0.297743 4.15033 0
M  V30 13931 H 1333.93 -0.834466 5.4252 0
M  V30 13932 H 1334.19 -1.84948 4.01555 0
M  V30 13933 N 1333.25 -1.54984 0.285932 0
M  V30 13934 C 1334.49 -2.00126 -0.328223 0
M  V30 13935 C 1334.83 -1.17409 -1.54689 0
M  V30 13936 O 1334.1 -0.246806 -1.92928 0
M  V30 13937 C 1334.38 -3.53236 -0.699733 0
M  V30 13938 C 1334.24 -4.46702 0.527029 0
M  V30 13939 C 1335.56 -4.12572 -1.53206 0
M  V30 13940 H 1332.67 -0.727521 -0.117825 0
M  V30 13941 H 1335.32 -1.85848 0.395032 0
M  V30 13942 H 1333.47 -3.65534 -1.31594 0
M  V30 13943 H 1335.14 -4.46332 1.16557 0
M  V30 13944 H 1333.38 -4.17917 1.1631 0
M  V30 13945 H 1334.05 -5.51549 0.223165 0
M  V30 13946 H 1336.53 -4.03618 -1.01154 0
M  V30 13947 H 1335.4 -5.19891 -1.7608 0
M  V30 13948 H 1335.67 -3.63487 -2.51654 0
M  V30 13949 N 1334.72 -0.0133892 -1.57594 0
M  V30 13950 C 1336 0.706416 -1.82398 0
M  V30 13951 C 1336.38 1.91236 -0.893983 0
M  V30 13952 O 1335.73 2.28436 0.0541675 0
M  V30 13953 C 1335.94 1.09951 -3.31228 0
M  V30 13954 C 1337.29 1.49776 -3.97306 0
M  V30 13955 O 1338.31 1.19293 -3.3563 0
M  V30 13956 O 1337.17 2.06511 -5.0598 0
M  V30 13957 H 1334.26 0.345131 -0.751541 0
M  V30 13958 H 1336.81 -0.0398687 -1.69653 0
M  V30 13959 H 1335.58 0.240514 -3.9056 0
M  V30 13960 H 1335.21 1.90447 -3.49021 0
M  V30 13961 N 1336.2 1.55448 0.259558 0
M  V30 13962 C 1337.45 1.76948 0.990816 0
M  V30 13963 C 1337.78 0.576401 1.85449 0
M  V30 13964 O 1337.06 -0.425693 1.89784 0
M  V30 13965 C 1337.34 3.08221 1.86204 0
M  V30 13966 C 1337.19 4.37909 1.0274 0
M  V30 13967 C 1338.51 3.35627 2.84679 0
M  V30 13968 H 1335.63 0.64377 0.358788 0
M  V30 13969 H 1338.27 1.88182 0.262211 0
M  V30 13970 H 1336.42 2.98775 2.48326 0
M  V30 13971 H 1338.09 4.5933 0.425855 0
M  V30 13972 H 1336.34 4.32533 0.331308 0
M  V30 13973 H 1337.01 5.26116 1.6705 0
M  V30 13974 H 1339.48 3.44954 2.32693 0
M  V30 13975 H 1338.36 4.28719 3.42769 0
M  V30 13976 H 1338.62 2.55921 3.60496 0
M  V30 13977 N 1337.68 -0.524672 1.4861 0
M  V30 13978 C 1338.61 -1.63782 1.66426 0
M  V30 13979 C 1339.59 -1.62177 0.513077 0
M  V30 13980 O 1340.78 -1.7929 0.74623 0
M  V30 13981 C 1337.91 -3.02354 1.70877 0
M  V30 13982 C 1336.86 -3.18819 2.85549 0
M  V30 13983 C 1336.19 -4.58506 2.75094 0
M  V30 13984 C 1337.49 -3.01086 4.26784 0
M  V30 13985 H 1339.18 -1.49127 2.59618 0
M  V30 13986 H 1336.73 -0.715997 1.24938 0
M  V30 13987 H 1338.68 -3.80105 1.81929 0
M  V30 13988 H 1337.4 -3.18044 0.742682 0
M  V30 13989 H 1336.06 -2.43487 2.74061 0
M  V30 13990 H 1335.71 -4.71038 1.76443 0
M  V30 13991 H 1335.41 -4.70466 3.52044 0
M  V30 13992 H 1336.93 -5.38348 2.88121 0
M  V30 13993 H 1338.35 -3.68624 4.39077 0
M  V30 13994 H 1336.75 -3.24536 5.04774 0
M  V30 13995 H 1337.82 -1.97454 4.42877 0
M  V30 13996 N 1339.16 -1.37287 -0.77395 0
M  V30 13997 C 1340.12 -1.32699 -1.86878 0
M  V30 13998 C 1341.12 -0.231486 -1.59125 0
M  V30 13999 O 1342.31 -0.487203 -1.67248 0
M  V30 14000 C 1339.44 -1.0609 -3.23972 0
M  V30 14001 H 1340.64 -2.30083 -1.92359 0
M  V30 14002 H 1338.19 -1.22284 -0.973459 0
M  V30 14003 H 1338.92 -0.0922868 -3.24169 0
M  V30 14004 H 1338.71 -1.85383 -3.45508 0
M  V30 14005 H 1340.2 -1.05524 -4.04048 0
M  V30 14006 N 1340.64 0.999871 -1.21821 0
M  V30 14007 C 1341.86 1.7794 -1.06546 0
M  V30 14008 C 1342.29 1.84219 0.380115 0
M  V30 14009 O 1341.64 1.28955 1.27438 0
M  V30 14010 C 1341.69 3.1943 -1.67322 0
M  V30 14011 O 1340.8 4.01957 -0.922171 0
M  V30 14012 H 1340.14 0.548204 -0.374658 0
M  V30 14013 H 1342.67 1.2565 -1.61472 0
M  V30 14014 H 1342.68 3.70086 -1.71757 0
M  V30 14015 H 1341.35 3.14175 -2.7252 0
M  V30 14016 H 1339.93 3.60509 -0.95331 0
M  V30 14017 N 1342.11 1.02678 1.19562 0
M  V30 14018 C 1343.08 0.610407 2.20922 0
M  V30 14019 C 1344.08 -0.324858 1.57484 0
M  V30 14020 O 1345.27 -0.112153 1.73839 0
M  V30 14021 C 1342.4 -0.107115 3.40732 0
M  V30 14022 H 1343.59 1.50722 2.59274 0
M  V30 14023 H 1341.15 0.817725 1.33203 0
M  V30 14024 H 1341.88 -1.01837 3.07896 0
M  V30 14025 H 1341.67 0.564901 3.88009 0
M  V30 14026 H 1343.16 -0.385423 4.15818 0
M  V30 14027 N 1343.59 -1.35528 0.804364 0
M  V30 14028 C 1344.84 -1.98832 0.383692 0
M  V30 14029 C 1345.17 -1.63816 -1.04855 0
M  V30 14030 O 1344.42 -0.892272 -1.74175 0
M  V30 14031 C 1344.72 -3.5372 0.511571 0
M  V30 14032 C 1344.39 -4.08597 1.9068 0
M  V30 14033 C 1343.05 -4.23297 2.28852 0
M  V30 14034 C 1345.4 -4.3834 2.81971 0
M  V30 14035 C 1342.73 -4.65056 3.57687 0
M  V30 14036 C 1345.08 -4.81537 4.1025 0
M  V30 14037 C 1343.75 -4.94442 4.48423 0
M  V30 14038 H 1343.02 -0.727577 0.140403 0
M  V30 14039 H 1345.66 -1.61777 1.02472 0
M  V30 14040 H 1343.97 -3.91221 -0.212916 0
M  V30 14041 H 1345.66 -4.00653 0.166888 0
M  V30 14042 H 1342.25 -3.97606 1.60023 0
M  V30 14043 H 1346.44 -4.26538 2.5373 0
M  V30 14044 H 1341.69 -4.73236 3.87115 0
M  V30 14045 H 1345.87 -5.03512 4.81091 0
M  V30 14046 H 1343.5 -5.26558 5.48307 0
M  V30 14047 N 1345.07 -0.557671 -1.47404 0
M  V30 14048 C 1346.35 0.031908 -1.95574 0
M  V30 14049 C 1346.73 1.48509 -1.50027 0
M  V30 14050 O 1346.08 2.16209 -0.73932 0
M  V30 14051 C 1346.29 -0.114055 -3.48814 0
M  V30 14052 C 1347.63 0.0310533 -4.24589 0
M  V30 14053 O 1348.66 -0.041626 -3.56176 0
M  V30 14054 O 1347.52 0.187487 -5.46178 0
M  V30 14055 H 1344.61 0.0638747 -0.82453 0
M  V30 14056 H 1347.16 -0.624227 -1.57802 0
M  V30 14057 H 1345.93 -1.12525 -3.74772 0
M  V30 14058 H 1345.55 0.57967 -3.93352 0
M  V30 14059 N 1346.55 1.54831 -0.294147 0
M  V30 14060 C 1347.77 2.04873 0.32276 0
M  V30 14061 C 1348.2 1.17034 1.47257 0
M  V30 14062 O 1347.56 0.172949 1.80473 0
M  V30 14063 C 1347.61 3.52431 0.76319 0
M  V30 14064 O 1346.71 3.67635 1.86865 0
M  V30 14065 H 1346.05 0.660926 0.0638162 0
M  V30 14066 H 1348.58 1.99944 -0.433995 0
M  V30 14067 H 1348.59 3.94155 1.05385 0
M  V30 14068 H 1347.27 4.15827 -0.0779464 0
M  V30 14069 H 1345.84 3.37816 1.57907 0
M  V30 14070 N 1348.03 0.0217466 1.57585 0
M  V30 14071 C 1348.99 -0.947546 2.08696 0
M  V30 14072 C 1349.99 -1.25879 1.00055 0
M  V30 14073 O 1351.18 -1.20035 1.26242 0
M  V30 14074 C 1348.31 -2.26624 2.54665 0
M  V30 14075 H 1349.51 -0.505016 2.95617 0
M  V30 14076 H 1347.06 -0.226152 1.54655 0
M  V30 14077 H 1347.79 -2.75521 1.71052 0
M  V30 14078 H 1347.58 -2.05347 3.34028 0
M  V30 14079 H 1349.07 -2.96114 2.94459 0
M  V30 14080 N 1349.51 -1.55583 -0.251311 0
M  V30 14081 C 1350.75 -1.76859 -0.978031 0
M  V30 14082 C 1351.07 -0.584924 -1.86021 0
M  V30 14083 O 1350.34 0.399456 -1.91784 0
M  V30 14084 H 1348.92 -0.652252 -0.364111 0
M  V30 14085 H 1351.59 -1.93016 -0.270319 0
M  V30 14086 H 1350.68 -2.67828 -1.60233 0
M  V30 14087 N 1350.98 0.516783 -1.48886 0
M  V30 14088 C 1351.92 1.63632 -1.60491 0
M  V30 14089 C 1352.93 1.55301 -0.488424 0
M  V30 14090 O 1354.12 1.6152 -0.75983 0
M  V30 14091 C 1351.22 3.02351 -1.53093 0
M  V30 14092 C 1350.39 3.36028 -2.80006 0
M  V30 14093 C 1349.45 4.54087 -2.65879 0
M  V30 14094 O 1348.48 4.56652 -3.3979 0
M  V30 14095 N 1349.68 5.53058 -1.76372 0
M  V30 14096 H 1352.44 1.54109 -2.57042 0
M  V30 14097 H 1350 0.704338 -1.45776 0
M  V30 14098 H 1352 3.79225 -1.41318 0
M  V30 14099 H 1350.57 3.05881 -0.644637 0
M  V30 14100 H 1349.79 2.48204 -3.06249 0
M  V30 14101 H 1351.07 3.5532 -3.64177 0
M  V30 14102 H 1350.47 5.53773 -1.1555 0
M  V30 14103 H 1349.03 6.29097 -1.70529 0
M  V30 14104 N 1352.46 1.37696 0.766659 0
M  V30 14105 C 1353.88 1.18607 1.06792 0
M  V30 14106 C 1354.08 0.0257195 2.01484 0
M  V30 14107 O 1353.13 -0.632608 2.44447 0
M  V30 14108 C 1354.45 2.50692 1.66054 0
M  V30 14109 C 1355.99 2.57259 1.78288 0
M  V30 14110 C 1356.47 3.89488 2.40963 0
M  V30 14111 N 1357.96 3.90957 2.48408 0
M  V30 14112 C 1358.7 4.90023 2.97767 0
M  V30 14113 N 1358.19 5.99485 3.4726 0
M  V30 14114 N 1359.98 4.77423 2.96688 0
M  V30 14115 H 1352.14 2.11951 0.138031 0
M  V30 14116 H 1354.4 0.939873 0.123863 0
M  V30 14117 H 1354.1 3.35989 1.03945 0
M  V30 14118 H 1353.98 2.68148 2.65286 0
M  V30 14119 H 1356.37 1.72366 2.39528 0
M  V30 14120 H 1356.45 2.43682 0.777981 0
M  V30 14121 H 1356.09 4.74797 1.8036 0
M  V30 14122 H 1356.02 4.0037 3.42069 0
M  V30 14123 H 1358.51 3.11888 2.13388 0
M  V30 14124 H 1358.82 6.71022 3.8334 0
M  V30 14125 H 1357.17 6.03123 3.45351 0
M  V30 14126 H 1360.36 3.91026 2.57325 0
M  V30 14127 H 1360.53 5.54783 3.34844 0
M  V30 14128 N 1353.94 -0.993397 1.22349 0
M  V30 14129 C 1355.18 -1.74807 1.05933 0
M  V30 14130 C 1355.54 -1.87815 -0.398702 0
M  V30 14131 O 1356.74 -2.5996 -0.683703 0
M  V30 14132 C 1355.02 -3.11601 1.75042 0
M  V30 14133 S 1356.57 -4.02813 1.74032 0
M  V30 14134 H 1353.39 -0.601331 0.379371 0
M  V30 14135 H 1355.99 -1.18777 1.55282 0
M  V30 14136 H 1354.7 -2.99775 2.80291 0
M  V30 14137 H 1354.23 -3.72703 1.25922 0
M  V30 14138 H 1356.24 -4.89876 0.789658 0
M  V30 14139 N 1355.42 -1.03311 -1.19015 0
M  V30 14140 C 1356.64 -0.751686 -1.93299 0
M  V30 14141 C 1357.07 0.68392 -1.75226 0
M  V30 14142 O 1356.43 1.47274 -1.05736 0
M  V30 14143 C 1356.47 -1.11335 -3.42982 0
M  V30 14144 O 1355.58 -0.234434 -4.11733 0
M  V30 14145 H 1354.92 -0.277331 -0.60331 0
M  V30 14146 H 1357.45 -1.38092 -1.5097 0
M  V30 14147 H 1357.46 -1.07204 -3.93664 0
M  V30 14148 H 1356.13 -2.15922 -3.55458 0
M  V30 14149 H 1354.71 -0.3347 -3.71395 0
M  V30 14150 N 1356.9 1.35099 -0.81154 0
M  V30 14151 C 1357.86 2.28033 -0.230947 0
M  V30 14152 C 1358.86 1.49798 0.584575 0
M  V30 14153 O 1360.05 1.6949 0.402336 0
M  V30 14154 C 1357.18 3.341 0.677486 0
M  V30 14155 H 1358.37 2.80893 -1.05067 0
M  V30 14156 H 1355.93 1.45038 -0.582554 0
M  V30 14157 H 1356.66 2.86435 1.5207 0
M  V30 14158 H 1356.45 3.91986 0.0943563 0
M  V30 14159 H 1357.94 4.0345 1.07787 0
M  V30 14160 N 1358.37 0.56548 1.47106 0
M  V30 14161 C 1359.3 -0.16567 2.32912 0
M  V30 14162 C 1360.28 -0.900678 1.44298 0
M  V30 14163 O 1361.47 -0.879523 1.73142 0
M  V30 14164 C 1358.6 -1.19092 3.26243 0
M  V30 14165 C 1357.55 -0.571849 4.24163 0
M  V30 14166 C 1356.88 -1.70233 5.06878 0
M  V30 14167 C 1358.18 0.479785 5.20092 0
M  V30 14168 H 1359.87 0.550705 2.94292 0
M  V30 14169 H 1357.42 0.266284 1.41517 0
M  V30 14170 H 1359.37 -1.71064 3.85117 0
M  V30 14171 H 1358.1 -1.93734 2.62934 0
M  V30 14172 H 1356.76 -0.073353 3.66527 0
M  V30 14173 H 1356.4 -2.438 4.39967 0
M  V30 14174 H 1356.1 -1.29384 5.73178 0
M  V30 14175 H 1357.63 -2.22515 5.68612 0
M  V30 14176 H 1359.04 0.0458042 5.73282 0
M  V30 14177 H 1357.44 0.807615 5.94641 0
M  V30 14178 H 1358.51 1.37259 4.65068 0
M  V30 14179 N 1359.85 -1.54672 0.302354 0
M  V30 14180 C 1361.27 -1.59519 -0.0509899 0
M  V30 14181 C 1361.47 -1.31931 -1.52304 0
M  V30 14182 O 1360.52 -1.09338 -2.27599 0
M  V30 14183 C 1361.84 -2.98678 0.348168 0
M  V30 14184 C 1363.39 -3.11587 0.297046 0
M  V30 14185 C 1363.86 -4.53057 0.671046 0
M  V30 14186 N 1365.35 -4.58983 0.623633 0
M  V30 14187 C 1366.09 -5.66522 0.885476 0
M  V30 14188 N 1365.58 -6.82092 1.21336 0
M  V30 14189 N 1367.38 -5.56198 0.812448 0
M  V30 14190 H 1359.53 -1.70865 1.2617 0
M  V30 14191 H 1361.79 -0.798099 0.511608 0
M  V30 14192 H 1361.5 -3.23794 1.37297 0
M  V30 14193 H 1361.37 -3.76025 -0.297505 0
M  V30 14194 H 1363.76 -2.86219 -0.718515 0
M  V30 14195 H 1363.84 -2.36392 0.977361 0
M  V30 14196 H 1363.48 -4.79155 1.68442 0
M  V30 14197 H 1363.41 -5.26591 -0.0313537 0
M  V30 14198 H 1365.9 -3.75972 0.381203 0
M  V30 14199 H 1366.22 -7.6003 1.39909 0
M  V30 14200 H 1364.56 -6.83641 1.25141 0
M  V30 14201 H 1367.75 -4.64787 0.555939 0
M  V30 14202 H 1367.92 -6.39924 1.01988 0
M  V30 14203 N 1361.33 -0.0301034 -1.57571 0
M  V30 14204 C 1362.58 0.649283 -1.92125 0
M  V30 14205 C 1362.91 1.71722 -0.90692 0
M  V30 14206 O 1362.18 1.94373 0.0702019 0
M  V30 14207 C 1362.47 1.26482 -3.37156 0
M  V30 14208 C 1362.32 0.206375 -4.49326 0
M  V30 14209 C 1363.64 2.18256 -3.82168 0
M  V30 14210 H 1360.76 0.234561 -0.698678 0
M  V30 14211 H 1363.4 -0.0875634 -1.89798 0
M  V30 14212 H 1361.55 1.89283 -3.3927 0
M  V30 14213 H 1363.22 -0.424268 -4.59345 0
M  V30 14214 H 1361.47 -0.468035 -4.31268 0
M  V30 14215 H 1362.14 0.676689 -5.47837 0
M  V30 14216 H 1364.61 1.65441 -3.81797 0
M  V30 14217 H 1363.49 2.58277 -4.84339 0
M  V30 14218 H 1363.75 3.07411 -3.17727 0
M  V30 14219 N 1362.81 1.55714 0.243056 0
M  V30 14220 C 1363.74 1.93655 1.30461 0
M  V30 14221 C 1364.72 0.801968 1.50008 0
M  V30 14222 O 1365.9 1.06256 1.62552 0
M  V30 14223 C 1363.03 2.23459 2.65863 0
M  V30 14224 C 1361.99 3.39205 2.61006 0
M  V30 14225 C 1361.31 3.5456 4.00239 0
M  V30 14226 C 1362.61 4.74787 2.17656 0
M  V30 14227 H 1364.31 2.82575 0.98954 0
M  V30 14228 H 1361.85 1.35955 0.474572 0
M  V30 14229 H 1363.81 2.48591 3.40266 0
M  V30 14230 H 1362.53 1.31369 2.99014 0
M  V30 14231 H 1361.19 3.14088 1.89061 0
M  V30 14232 H 1360.84 2.59884 4.30661 0
M  V30 14233 H 1360.54 4.32399 3.97876 0
M  V30 14234 H 1362.06 3.82017 4.76335 0
M  V30 14235 H 1363.48 4.99266 2.81792 0
M  V30 14236 H 1361.87 5.55756 2.26397 0
M  V30 14237 H 1362.94 4.7159 1.12831 0
M  V30 14238 N 1364.29 -0.50888 1.49158 0
M  V30 14239 C 1365.53 -1.27375 1.59859 0
M  V30 14240 C 1365.89 -1.90012 0.275547 0
M  V30 14241 O 1367.09 -2.67562 0.257682 0
M  V30 14242 C 1365.36 -2.31821 2.72018 0
M  V30 14243 S 1366.92 -3.17752 3.0262 0
M  V30 14244 H 1363.74 -0.432991 0.56395 0
M  V30 14245 H 1366.34 -0.577341 1.86781 0
M  V30 14246 H 1365.05 -1.84321 3.6668 0
M  V30 14247 H 1364.58 -3.06142 2.47065 0
M  V30 14248 H 1366.59 -4.32324 2.43537 0
M  V30 14249 N 1365.76 -1.381 -0.759346 0
M  V30 14250 C 1366.69 -1.37578 -1.88665 0
M  V30 14251 C 1367.68 -0.242529 -1.68362 0
M  V30 14252 O 1368.86 -0.444751 -1.89039 0
M  V30 14253 C 1365.99 -1.19437 -3.26117 0
M  V30 14254 C 1364.94 -2.29905 -3.61009 0
M  V30 14255 C 1364.27 -1.96874 -4.97136 0
M  V30 14256 C 1365.57 -3.72143 -3.66479 0
M  V30 14257 H 1367.26 -2.31912 -1.89359 0
M  V30 14258 H 1364.81 -1.11632 -0.909631 0
M  V30 14259 H 1366.76 -1.17698 -4.0463 0
M  V30 14260 H 1365.49 -0.21562 -3.25887 0
M  V30 14261 H 1364.15 -2.3082 -2.84812 0
M  V30 14262 H 1363.79 -0.974979 -4.9346 0
M  V30 14263 H 1363.49 -2.70855 -5.21451 0
M  V30 14264 H 1365.02 -1.96744 -5.78035 0
M  V30 14265 H 1366.43 -3.73291 -4.35117 0
M  V30 14266 H 1364.83 -4.45282 -4.02299 0
M  V30 14267 H 1365.9 -4.04874 -2.66843 0
M  V30 14268 N 1367.24 0.986894 -1.22875 0
M  V30 14269 C 1368.17 2.08035 -0.961971 0
M  V30 14270 C 1369.19 1.62683 0.0616475 0
M  V30 14271 O 1370.38 1.77659 -0.173094 0
M  V30 14272 C 1367.48 3.36208 -0.426302 0
M  V30 14273 C 1366.65 4.10562 -1.50856 0
M  V30 14274 C 1365.71 5.17014 -0.97891 0
M  V30 14275 O 1364.73 5.44259 -1.66645 0
M  V30 14276 N 1365.94 5.80167 0.196613 0
M  V30 14277 H 1368.7 2.315 -1.90336 0
M  V30 14278 H 1366.26 1.1531 -1.13645 0
M  V30 14279 H 1368.25 4.0466 -0.0571577 0
M  V30 14280 H 1366.82 3.09761 0.420345 0
M  V30 14281 H 1366.04 3.36656 -2.05076 0
M  V30 14282 H 1367.33 4.57007 -2.23655 0
M  V30 14283 H 1366.73 5.60409 0.771892 0
M  V30 14284 H 1365.29 6.49825 0.507083 0
M  V30 14285 N 1368.72 1.0394 1.18466 0
M  V30 14286 C 1370 0.65632 1.8426 0
M  V30 14287 C 1370.38 -0.864288 1.92596 0
M  V30 14288 O 1369.73 -1.76524 1.45092 0
M  V30 14289 C 1369.94 1.33067 3.22636 0
M  V30 14290 C 1371.28 1.46065 3.98686 0
M  V30 14291 O 1372.31 1.28867 3.32072 0
M  V30 14292 O 1371.17 1.74078 5.18034 0
M  V30 14293 H 1368.26 0.229484 0.794523 0
M  V30 14294 H 1370.81 1.13821 1.25868 0
M  V30 14295 H 1369.58 2.36866 3.11465 0
M  V30 14296 H 1369.2 0.837313 3.88683 0
M  V30 14297 N 1370.2 -1.34667 0.818693 0
M  V30 14298 C 1371.11 -2.33375 0.239429 0
M  V30 14299 C 1372.12 -1.62428 -0.623957 0
M  V30 14300 O 1373.3 -1.94223 -0.532854 0
M  V30 14301 C 1370.37 -3.41598 -0.59258 0
M  V30 14302 C 1369.43 -4.28301 0.292712 0
M  V30 14303 C 1368.66 -5.31356 -0.499682 0
M  V30 14304 O 1368.88 -5.43426 -1.73334 0
M  V30 14305 O 1367.82 -6.01789 0.115778 0
M  V30 14306 H 1371.64 -2.84738 1.05631 0
M  V30 14307 H 1369.23 -1.37651 0.58074 0
M  V30 14308 H 1371.11 -4.07692 -1.06607 0
M  V30 14309 H 1369.78 -2.92486 -1.38685 0
M  V30 14310 H 1368.69 -3.65145 0.81361 0
M  V30 14311 H 1370.02 -4.80843 1.05123 0
M  V30 14312 N 1371.68 -0.573274 -1.46804 0
M  V30 14313 C 1372.93 -0.0530267 -2.0163 0
M  V30 14314 C 1373.24 1.31124 -1.45141 0
M  V30 14315 O 1374.44 1.92231 -1.91728 0
M  V30 14316 C 1372.9 -0.0442411 -3.59873 0
M  V30 14317 C 1372.51 -1.40625 -4.25357 0
M  V30 14318 C 1374.25 0.422556 -4.22392 0
M  V30 14319 C 1372.16 -1.3557 -5.75652 0
M  V30 14320 H 1371.09 -0.0160537 -0.753829 0
M  V30 14321 H 1373.74 -0.723518 -1.68634 0
M  V30 14322 H 1372.12 0.692225 -3.89903 0
M  V30 14323 H 1373.3 -2.1617 -4.06949 0
M  V30 14324 H 1371.61 -1.81229 -3.74893 0
M  V30 14325 H 1374.21 0.479021 -5.3255 0
M  V30 14326 H 1374.55 1.43806 -3.90673 0
M  V30 14327 H 1375.08 -0.259551 -3.96952 0
M  V30 14328 H 1371.82 -2.34772 -6.12015 0
M  V30 14329 H 1371.34 -0.642309 -5.96351 0
M  V30 14330 H 1373.02 -1.06458 -6.38182 0
M  V30 14331 N 1373.15 1.5451 -0.310553 0
M  V30 14332 C 1374.12 2.2254 0.548489 0
M  V30 14333 C 1375.12 1.21456 1.05381 0
M  V30 14334 O 1376.31 1.46126 0.948311 0
M  V30 14335 C 1373.44 2.91927 1.76043 0
M  V30 14336 H 1374.63 2.99865 -0.0460306 0
M  V30 14337 H 1372.19 1.56179 -0.061487 0
M  V30 14338 H 1372.92 2.18706 2.39454 0
M  V30 14339 H 1372.71 3.66038 1.40564 0
M  V30 14340 H 1374.2 3.43797 2.37051 0
M  V30 14341 N 1374.63 0.0384594 1.57553 0
M  V30 14342 C 1375.91 -0.677308 1.83499 0
M  V30 14343 C 1376.29 -1.89789 0.924294 0
M  V30 14344 O 1375.64 -2.28493 -0.0178185 0
M  V30 14345 C 1375.85 -1.04667 3.32935 0
M  V30 14346 C 1377.2 -1.43436 3.99639 0
M  V30 14347 O 1378.22 -1.13938 3.37486 0
M  V30 14348 O 1377.08 -1.98435 5.09201 0
M  V30 14349 H 1374.17 -0.333131 0.756936 0
M  V30 14350 H 1376.72 0.066854 1.69568 0
M  V30 14351 H 1375.49 -0.178349 3.90893 0
M  V30 14352 H 1375.11 -1.8487 3.52007 0
M  V30 14353 N 1376.11 -1.55841 -0.234795 0
M  V30 14354 C 1377.06 -1.8772 -1.29403 0
M  V30 14355 C 1378.05 -0.739087 -1.42921 0
M  V30 14356 O 1379.24 -1.00125 -1.45959 0
M  V30 14357 C 1376.37 -2.18592 -2.64712 0
M  V30 14358 C 1375.45 -3.38761 -2.55151 0
M  V30 14359 N 1375.84 -4.57723 -2.15229 0
M  V30 14360 C 1374.14 -3.42112 -2.86138 0
M  V30 14361 C 1374.84 -5.39872 -2.16595 0
M  V30 14362 N 1373.82 -4.79242 -2.5657 0
M  V30 14363 H 1377.62 -2.77219 -0.976067 0
M  V30 14364 H 1375.13 -1.5623 -0.443396 0
M  V30 14365 H 1377.13 -2.39599 -3.41171 0
M  V30 14366 H 1375.79 -1.30398 -2.97366 0
M  V30 14367 H 1376.8 -4.83126 -1.86575 0
M  V30 14368 H 1373.48 -2.64224 -3.23252 0
M  V30 14369 H 1374.87 -6.45072 -1.87967 0
M  V30 14370 N 1377.59 0.500963 -1.49426 0
M  V30 14371 C 1378.82 1.27911 -1.62624 0
M  V30 14372 C 1379.23 1.86439 -0.297651 0
M  V30 14373 O 1378.59 1.67831 0.716879 0
M  V30 14374 C 1378.64 2.40934 -2.69505 0
M  V30 14375 O 1378.36 1.84811 -3.97211 0
M  V30 14376 C 1379.86 3.32305 -2.93408 0
M  V30 14377 H 1377.08 0.387951 -0.547481 0
M  V30 14378 H 1379.63 0.601372 -1.95458 0
M  V30 14379 H 1377.78 3.04537 -2.39449 0
M  V30 14380 H 1378.2 2.59011 -4.56085 0
M  V30 14381 H 1379.67 4.0789 -3.71927 0
M  V30 14382 H 1380.15 3.89301 -2.03325 0
M  V30 14383 H 1380.75 2.74467 -3.24881 0
M  V30 14384 N 1379.07 1.38501 0.752011 0
M  V30 14385 C 1380 1.38577 1.87933 0
M  V30 14386 C 1380.98 0.251454 1.68231 0
M  V30 14387 O 1382.16 0.45477 1.888 0
M  V30 14388 C 1379.29 1.21164 3.25479 0
M  V30 14389 C 1378.25 2.31816 3.59785 0
M  V30 14390 C 1377.57 1.99508 4.96085 0
M  V30 14391 C 1378.87 3.74082 3.645 0
M  V30 14392 H 1380.57 2.32913 1.88127 0
M  V30 14393 H 1378.11 1.12113 0.903698 0
M  V30 14394 H 1380.07 1.19842 4.04 0
M  V30 14395 H 1378.79 0.232899 3.25769 0
M  V30 14396 H 1377.45 2.32327 2.83584 0
M  V30 14397 H 1377.1 1.00114 4.92936 0
M  V30 14398 H 1376.8 2.73617 5.20007 0
M  V30 14399 H 1378.32 1.99807 5.76983 0
M  V30 14400 H 1379.74 3.75593 4.33131 0
M  V30 14401 H 1378.13 4.47409 3.99931 0
M  V30 14402 H 1379.2 4.06284 2.64692 0
M  V30 14403 N 1380.55 -0.980364 1.23396 0
M  V30 14404 C 1381.49 -2.07275 1.01516 0
M  V30 14405 C 1382.46 -1.65963 -0.0673729 0
M  V30 14406 O 1383.65 -1.90612 0.0847392 0
M  V30 14407 C 1380.79 -3.39621 0.61249 0
M  V30 14408 C 1379.9 -3.94203 1.76715 0
M  V30 14409 C 1379.04 -5.14761 1.31126 0
M  V30 14410 C 1378.07 -5.61509 2.43667 0
M  V30 14411 N 1377.21 -6.73297 1.99035 0
M  V30 14412 H 1382.05 -2.25325 1.9502 0
M  V30 14413 H 1379.59 -1.10452 0.971532 0
M  V30 14414 H 1381.55 -4.15643 0.360126 0
M  V30 14415 H 1380.18 -3.21535 -0.285539 0
M  V30 14416 H 1379.23 -3.14937 2.13352 0
M  V30 14417 H 1380.54 -4.24867 2.61323 0
M  V30 14418 H 1379.69 -5.98115 1.01702 0
M  V30 14419 H 1378.43 -4.85751 0.435555 0
M  V30 14420 H 1377.44 -4.76737 2.73865 0
M  V30 14421 H 1378.66 -5.92539 3.31774 0
M  V30 14422 H 1376.61 -6.46046 1.13845 0
M  V30 14423 H 1376.53 -7.03345 2.77203 0
M  V30 14424 H 1377.79 -7.60125 1.72716 0
M  V30 14425 N 1382.02 -1.04567 -1.17913 0
M  V30 14426 C 1382.96 -0.585519 -2.2056 0
M  V30 14427 C 1383.93 0.382581 -1.58035 0
M  V30 14428 O 1385.12 0.295692 -1.86166 0
M  V30 14429 C 1382.25 0.14396 -3.38394 0
M  V30 14430 C 1381.29 -0.778174 -4.19341 0
M  V30 14431 S 1382.12 -2.26385 -4.85294 0
M  V30 14432 C 1383.28 -1.54537 -6.06522 0
M  V30 14433 H 1383.51 -1.4552 -2.59251 0
M  V30 14434 H 1381.05 -0.857075 -1.28427 0
M  V30 14435 H 1383 0.558661 -4.06681 0
M  V30 14436 H 1381.67 0.989593 -2.98104 0
M  V30 14437 H 1380.86 -0.214053 -5.03545 0
M  V30 14438 H 1380.46 -1.13195 -3.56459 0
M  V30 14439 H 1382.75 -0.841199 -6.72257 0
M  V30 14440 H 1383.7 -2.36465 -6.6745 0
M  V30 14441 H 1384.1 -1.03551 -5.54921 0
M  V30 14442 N 1383.5 1.34231 -0.825823 0
M  V30 14443 C 1384.43 2.31997 -0.264546 0
M  V30 14444 C 1385.41 1.58375 0.620592 0
M  V30 14445 O 1386.6 1.86341 0.546865 0
M  V30 14446 C 1383.73 3.42557 0.572025 0
M  V30 14447 C 1382.68 4.27454 -0.216219 0
M  V30 14448 C 1382.01 5.29509 0.743279 0
M  V30 14449 C 1383.31 5.02456 -1.42603 0
M  V30 14450 H 1385 2.79189 -1.08139 0
M  V30 14451 H 1382.55 1.34227 -0.521451 0
M  V30 14452 H 1384.5 4.09968 0.974889 0
M  V30 14453 H 1383.22 2.94021 1.42195 0
M  V30 14454 H 1381.88 3.61649 -0.600485 0
M  V30 14455 H 1381.53 4.77234 1.58924 0
M  V30 14456 H 1381.23 5.87188 0.220064 0
M  V30 14457 H 1382.76 5.99789 1.14394 0
M  V30 14458 H 1384.17 5.62706 -1.09702 0
M  V30 14459 H 1382.57 5.69723 -1.88509 0
M  V30 14460 H 1383.64 4.31983 -2.2027 0
M  V30 14461 N 1384.98 0.581051 1.46498 0
M  V30 14462 C 1386.4 0.242599 1.57745 0
M  V30 14463 C 1386.6 -1.25508 1.57639 0
M  V30 14464 O 1385.65 -2.0367 1.49247 0
M  V30 14465 C 1386.96 0.890342 2.87217 0
M  V30 14466 C 1388.51 0.863778 3.00845 0
M  V30 14467 C 1388.99 1.49103 4.3305 0
M  V30 14468 N 1390.48 1.4553 4.39745 0
M  V30 14469 C 1391.21 1.91003 5.40653 0
M  V30 14470 N 1390.71 2.44442 6.48244 0
M  V30 14471 N 1392.5 1.8193 5.31844 0
M  V30 14472 H 1384.65 1.55382 1.44811 0
M  V30 14473 H 1386.92 0.649375 0.690664 0
M  V30 14474 H 1386.62 1.94383 2.93101 0
M  V30 14475 H 1386.5 0.397569 3.75099 0
M  V30 14476 H 1388.88 -0.181089 2.94544 0
M  V30 14477 H 1388.96 1.39455 2.14443 0
M  V30 14478 H 1388.61 2.53509 4.40109 0
M  V30 14479 H 1388.54 0.935496 5.18224 0
M  V30 14480 H 1391.03 1.06466 3.62593 0
M  V30 14481 H 1391.34 2.77002 7.2145 0
M  V30 14482 H 1389.69 2.48467 6.49068 0
M  V30 14483 H 1392.88 1.3994 4.46693 0
M  V30 14484 H 1393.05 2.17685 6.10342 0
M  V30 14485 N 1386.46 -1.54343 0.318742 0
M  V30 14486 C 1387.71 -2.00084 -0.284713 0
M  V30 14487 C 1388.03 -1.20855 -1.53033 0
M  V30 14488 O 1387.3 -0.309104 -1.93446 0
M  V30 14489 H 1385.88 -0.739123 -0.108193 0
M  V30 14490 H 1388.54 -1.90002 0.434174 0
M  V30 14491 H 1387.63 -3.07314 -0.544459 0
M  V30 14492 N 1387.94 -0.0468143 -1.5753 0
M  V30 14493 C 1388.9 0.914225 -2.10177 0
M  V30 14494 C 1389.9 1.24271 -1.02045 0
M  V30 14495 O 1391.09 1.18012 -1.28136 0
M  V30 14496 C 1388.22 2.22544 -2.58238 0
M  V30 14497 H 1389.41 0.457922 -2.96383 0
M  V30 14498 H 1386.97 0.20152 -1.54995 0
M  V30 14499 H 1387.7 2.72765 -1.75413 0
M  V30 14500 H 1387.49 2.00007 -3.37253 0
M  V30 14501 H 1388.98 2.91392 -2.99133 0
M  V30 14502 N 1389.41 1.55964 0.226527 0
M  V30 14503 C 1390.35 1.87013 1.30772 0
M  V30 14504 C 1391.33 0.727044 1.4544 0
M  V30 14505 O 1392.51 0.974898 1.61332 0
M  V30 14506 C 1389.64 2.07278 2.67869 0
M  V30 14507 C 1388.68 3.29956 2.70243 0
M  V30 14508 S 1389.52 4.86026 2.24808 0
M  V30 14509 C 1390.67 5.09321 3.6379 0
M  V30 14510 H 1390.9 2.78427 1.0424 0
M  V30 14511 H 1388.44 1.48334 0.428525 0
M  V30 14512 H 1390.4 2.19636 3.468 0
M  V30 14513 H 1389.06 1.1667 2.91628 0
M  V30 14514 H 1388.25 3.41164 3.70975 0
M  V30 14515 H 1387.85 3.16429 1.99371 0
M  V30 14516 H 1390.14 4.97914 4.59443 0
M  V30 14517 H 1391.09 6.11227 3.57501 0
M  V30 14518 H 1391.49 4.37076 3.57247 0
M  V30 14519 N 1390.89 -0.493031 1.4969 0
M  V30 14520 C 1391.86 -1.57598 1.6642 0
M  V30 14521 C 1392.86 -1.51615 0.535668 0
M  V30 14522 O 1394.05 -1.54626 0.802283 0
M  V30 14523 C 1391.18 -2.97249 1.66901 0
M  V30 14524 H 1392.37 -1.4409 2.63017 0
M  V30 14525 H 1389.92 -0.717846 1.3884 0
M  V30 14526 H 1390.66 -3.16225 0.719164 0
M  V30 14527 H 1390.44 -3.02999 2.48865 0
M  V30 14528 H 1391.93 -3.75914 1.81874 0
M  V30 14529 N 1392.37 -1.38898 -0.744656 0
M  V30 14530 C 1393.28 -1.39098 -1.88915 0
M  V30 14531 C 1394.3 -0.286956 -1.71617 0
M  V30 14532 O 1395.47 -0.526852 -1.94387 0
M  V30 14533 C 1392.54 -1.22352 -3.24393 0
M  V30 14534 C 1391.6 -2.4264 -3.54153 0
M  V30 14535 C 1390.83 -2.26683 -4.83167 0
M  V30 14536 O 1391.05 -1.26523 -5.56191 0
M  V30 14537 O 1389.99 -3.15464 -5.12607 0
M  V30 14538 H 1393.81 -2.35551 -1.91701 0
M  V30 14539 H 1391.4 -1.19911 -0.891158 0
M  V30 14540 H 1393.28 -1.15109 -4.05374 0
M  V30 14541 H 1391.96 -0.289886 -3.22399 0
M  V30 14542 H 1390.86 -2.55459 -2.73298 0
M  V30 14543 H 1392.2 -3.34664 -3.60917 0
M  V30 14544 N 1393.85 0.973806 -1.23914 0
M  V30 14545 C 1395.09 1.731 -1.08701 0
M  V30 14546 C 1395.45 1.88425 0.368772 0
M  V30 14547 O 1396.65 2.61014 0.642259 0
M  V30 14548 C 1394.92 3.08777 -1.79977 0
M  V30 14549 S 1396.48 3.99993 -1.80419 0
M  V30 14550 H 1393.3 0.595219 -0.38889 0
M  V30 14551 H 1395.9 1.16291 -1.57152 0
M  V30 14552 H 1394.61 2.95278 -2.85024 0
M  V30 14553 H 1394.14 3.70652 -1.31835 0
M  V30 14554 H 1396.15 4.88558 -0.867494 0
M  V30 14555 N 1395.33 1.05191 1.17357 0
M  V30 14556 C 1396.74 0.773255 1.39617 0
M  V30 14557 C 1396.94 -0.632346 1.91321 0
M  V30 14558 O 1396 -1.39475 2.10483 0
M  V30 14559 C 1397.31 1.82885 2.38692 0
M  V30 14560 C 1398.86 1.85106 2.52398 0
M  V30 14561 C 1399.33 2.89689 3.54746 0
M  V30 14562 N 1400.83 2.88651 3.62263 0
M  V30 14563 C 1401.56 3.66221 4.41214 0
M  V30 14564 N 1401.06 4.53577 5.23679 0
M  V30 14565 N 1402.85 3.54661 4.36087 0
M  V30 14566 H 1395 1.9588 0.82127 0
M  V30 14567 H 1397.26 0.848187 0.423417 0
M  V30 14568 H 1396.97 2.83766 2.07773 0
M  V30 14569 H 1396.84 1.67047 3.38194 0
M  V30 14570 H 1399.23 0.848896 2.82627 0
M  V30 14571 H 1399.31 2.05022 1.5297 0
M  V30 14572 H 1398.96 3.90091 3.25255 0
M  V30 14573 H 1398.89 2.67025 4.53878 0
M  V30 14574 H 1401.38 2.25312 3.03386 0
M  V30 14575 H 1401.69 5.09449 5.81104 0
M  V30 14576 H 1400.03 4.57638 5.23061 0
M  V30 14577 H 1403.23 2.8581 3.70716 0
M  V30 14578 H 1403.4 4.15361 4.97372 0
M  V30 14579 N 1396.8 -1.33791 0.83293 0
M  V30 14580 C 1397.74 -2.27259 0.207019 0
M  V30 14581 C 1398.72 -1.49372 -0.642403 0
M  V30 14582 O 1399.9 -1.78562 -0.603963 0
M  V30 14583 C 1397.03 -3.31177 -0.709885 0
M  V30 14584 C 1396.07 -4.26453 0.0633036 0
M  V30 14585 S 1396.91 -5.16406 1.41721 0
M  V30 14586 C 1398.06 -6.23856 0.505446 0
M  V30 14587 H 1398.29 -2.79998 0.999422 0
M  V30 14588 H 1395.83 -1.40991 0.629361 0
M  V30 14589 H 1397.79 -3.91535 -1.23332 0
M  V30 14590 H 1396.45 -2.77265 -1.4759 0
M  V30 14591 H 1395.64 -4.99995 -0.634145 0
M  V30 14592 H 1395.24 -3.70401 0.517607 0
M  V30 14593 H 1397.53 -6.7684 -0.299066 0
M  V30 14594 H 1398.48 -6.97671 1.21084 0
M  V30 14595 H 1398.88 -5.64429 0.0894308 0
M  V30 14596 N 1398.28 -0.588812 -1.46187 0
M  V30 14597 C 1399.53 -0.0765765 -2.01955 0
M  V30 14598 C 1399.85 1.29034 -1.46203 0
M  V30 14599 O 1399.12 1.84836 -0.649044 0
M  V30 14600 H 1397.7 -0.025318 -0.746571 0
M  V30 14601 H 1400.36 -0.765971 -1.79217 0
M  V30 14602 H 1399.46 -0.0121702 -3.12098 0
M  V30 14603 N 1399.76 1.54172 -0.326923 0
M  V30 14604 C 1400.71 2.25931 0.552996 0
M  V30 14605 C 1401.7 1.27463 1.11578 0
M  V30 14606 O 1402.91 1.45228 1.06343 0
M  V30 14607 H 1399.28 0.725741 0.196988 0
M  V30 14608 H 1401.25 2.98307 -0.0744603 0
M  V30 14609 C 1400 3.03276 1.70056 0
M  V30 14610 H 1399.33 3.78865 1.27676 0
M  V30 14611 H 1400.77 3.56727 2.29177 0
M  V30 14612 C 1399.23 2.11775 2.62017 0
M  V30 14613 O 1399.76 1.70282 3.63822 0
M  V30 14614 N 1397.96 1.77195 2.30327 0
M  V30 14615 H 1397.51 2.11135 1.4758 0
M  V30 14616 H 1397.47 1.16253 2.92117 0
M  V30 14617 N 1401.24 0.0551678 1.57503 0
M  V30 14618 C 1402.65 -0.479948 1.80426 0
M  V30 14619 C 1403 -1.70673 0.967733 0
M  V30 14620 O 1402.13 -2.15604 0.185462 0
M  V30 14621 C 1402.72 -0.877496 3.27239 0
M  V30 14622 C 1401.28 -1.35757 3.51066 0
M  V30 14623 C 1400.43 -0.334681 2.75273 0
M  V30 14624 H 1403.38 0.281016 1.56192 0
M  V30 14625 H 1403.4 -1.74013 3.38378 0
M  V30 14626 H 1402.91 0.015571 3.88097 0
M  V30 14627 H 1401.01 -2.26969 2.95492 0
M  V30 14628 H 1401.12 -1.34697 4.59776 0
M  V30 14629 H 1399.49 -0.808421 2.4153 0
M  V30 14630 H 1400.27 0.550369 3.3886 0
M  V30 14631 N 1402.72 -1.56081 -0.218252 0
M  V30 14632 C 1403.96 -1.78893 -0.940296 0
M  V30 14633 C 1404.29 -0.62425 -1.84738 0
M  V30 14634 O 1403.56 0.358686 -1.92588 0
M  V30 14635 H 1402.14 -0.659828 -0.350193 0
M  V30 14636 H 1404.8 -1.93546 -0.229316 0
M  V30 14637 H 1403.89 -2.71167 -1.54516 0
M  V30 14638 N 1404.2 0.485086 -1.49949 0
M  V30 14639 C 1405.61 0.817651 -1.37064 0
M  V30 14640 C 1405.81 1.9716 -0.415949 0
M  V30 14641 O 1404.87 2.52074 0.146567 0
M  V30 14642 C 1406.18 1.14288 -2.78134 0
M  V30 14643 C 1407.73 1.25016 -2.8695 0
M  V30 14644 C 1408.2 1.60859 -4.28822 0
M  V30 14645 N 1409.69 1.67878 -4.31707 0
M  V30 14646 C 1410.43 1.97089 -5.38464 0
M  V30 14647 N 1409.93 2.24415 -6.55446 0
M  V30 14648 N 1411.72 1.98474 -5.25894 0
M  V30 14649 H 1403.87 -0.275606 -2.10604 0
M  V30 14650 H 1406.13 -0.0607486 -0.946052 0
M  V30 14651 H 1405.84 0.36817 -3.49768 0
M  V30 14652 H 1405.71 2.0825 -3.14502 0
M  V30 14653 H 1408.1 2.01556 -2.15544 0
M  V30 14654 H 1408.18 0.290664 -2.54143 0
M  V30 14655 H 1407.82 0.848639 -5.0076 0
M  V30 14656 H 1407.75 2.57936 -4.59104 0
M  V30 14657 H 1410.25 1.48856 -3.47347 0
M  V30 14658 H 1410.56 2.45938 -7.32622 0
M  V30 14659 H 1408.9 2.21837 -6.58645 0
M  V30 14660 H 1412.09 1.76612 -4.33504 0
M  V30 14661 H 1412.27 2.20904 -6.09184 0
M  V30 14662 N 1405.67 1.39291 0.737279 0
M  V30 14663 C 1406.6 1.40562 1.86452 0
M  V30 14664 C 1407.58 0.269283 1.67955 0
M  V30 14665 O 1408.77 0.474769 1.88307 0
M  V30 14666 C 1405.9 1.2461 3.24175 0
M  V30 14667 C 1404.85 2.35619 3.57306 0
M  V30 14668 C 1404.18 2.04758 4.93941 0
M  V30 14669 C 1405.48 3.77927 3.60512 0
M  V30 14670 H 1407.17 2.34896 1.85646 0
M  V30 14671 H 1404.72 1.13065 0.891756 0
M  V30 14672 H 1406.67 1.2412 4.02706 0
M  V30 14673 H 1405.4 0.267438 3.25503 0
M  V30 14674 H 1404.06 2.35322 2.81104 0
M  V30 14675 H 1403.7 1.05336 4.91847 0
M  V30 14676 H 1403.4 2.79117 5.17076 0
M  V30 14677 H 1404.93 2.05915 5.74832 0
M  V30 14678 H 1406.34 3.80166 4.29123 0
M  V30 14679 H 1404.74 4.51626 3.95164 0
M  V30 14680 H 1405.81 4.09068 2.60368 0
M  V30 14681 N 1407.15 -0.967221 1.24429 0
M  V30 14682 C 1408.38 -1.7452 1.11133 0
M  V30 14683 C 1408.79 -1.85785 -0.336087 0
M  V30 14684 O 1408.15 -1.34652 -1.23188 0
M  V30 14685 C 1408.2 -3.16544 1.74591 0
M  V30 14686 O 1407.92 -3.05845 3.13673 0
M  V30 14687 C 1409.42 -4.10677 1.6691 0
M  V30 14688 H 1406.64 -0.547267 0.388253 0
M  V30 14689 H 1409.19 -1.2143 1.64545 0
M  V30 14690 H 1407.34 -3.66618 1.2518 0
M  V30 14691 H 1407.76 -3.95346 3.44676 0
M  V30 14692 H 1409.23 -5.07987 2.15992 0
M  V30 14693 H 1409.71 -4.34652 0.630411 0
M  V30 14694 H 1410.31 -3.66514 2.15749 0
M  V30 14695 N 1408.63 -1.05812 -1.16797 0
M  V30 14696 C 1409.86 -0.792519 -1.9112 0
M  V30 14697 C 1410.27 0.652549 -1.77164 0
M  V30 14698 O 1409.63 1.44633 -1.113 0
M  V30 14699 C 1409.68 -1.17172 -3.41984 0
M  V30 14700 O 1409.4 -2.56008 -3.55516 0
M  V30 14701 C 1410.9 -0.933162 -4.33367 0
M  V30 14702 H 1408.12 -0.28768 -0.606202 0
M  V30 14703 H 1410.67 -1.41046 -1.48075 0
M  V30 14704 H 1408.82 -0.598413 -3.8275 0
M  V30 14705 H 1409.24 -2.71053 -4.49033 0
M  V30 14706 H 1410.71 -1.24817 -5.37703 0
M  V30 14707 H 1411.19 0.131345 -4.39004 0
M  V30 14708 H 1411.79 -1.49062 -3.98322 0
M  V30 14709 N 1410.11 1.33347 -0.840014 0
M  V30 14710 C 1411.38 1.92293 -0.358158 0
M  V30 14711 C 1411.76 1.76594 1.15662 0
M  V30 14712 O 1411.11 1.15503 1.97158 0
M  V30 14713 C 1411.32 3.39558 -0.806329 0
M  V30 14714 C 1412.67 4.16705 -0.81501 0
M  V30 14715 O 1413.69 3.48214 -0.75001 0
M  V30 14716 O 1412.55 5.38974 -0.903818 0
M  V30 14717 H 1409.65 0.820737 -0.101585 0
M  V30 14718 H 1412.19 1.42213 -0.925942 0
M  V30 14719 H 1410.97 3.44861 -1.84897 0
M  V30 14720 H 1410.59 3.97017 -0.215181 0
M  V30 14721 N 1411.59 0.596556 1.45873 0
M  V30 14722 C 1412.83 0.0850976 2.0152 0
M  V30 14723 C 1413.15 -1.28799 1.47208 0
M  V30 14724 O 1414.35 -1.89156 1.94762 0
M  V30 14725 C 1412.81 0.101488 3.59757 0
M  V30 14726 C 1412.42 1.47374 4.23066 0
M  V30 14727 C 1414.16 -0.355303 4.2301 0
M  V30 14728 C 1412.07 1.44711 5.73422 0
M  V30 14729 H 1411 0.0280444 0.753478 0
M  V30 14730 H 1413.65 0.750255 1.67462 0
M  V30 14731 H 1412.03 -0.630108 3.90955 0
M  V30 14732 H 1413.21 2.22617 4.03458 0
M  V30 14733 H 1411.52 1.87171 3.71962 0
M  V30 14734 H 1414.12 -0.394236 5.33245 0
M  V30 14735 H 1414.46 -1.37573 3.92911 0
M  V30 14736 H 1414.99 0.32267 3.96489 0
M  V30 14737 H 1411.73 2.44479 6.08203 0
M  V30 14738 H 1411.25 0.737102 5.95254 0
M  V30 14739 H 1412.93 1.16598 6.36407 0
M  V30 14740 N 1413.06 -1.53996 0.335095 0
M  V30 14741 C 1414.31 -2.00375 -0.263475 0
M  V30 14742 C 1414.63 -1.22471 -1.51742 0
M  V30 14743 O 1413.9 -0.329604 -1.93107 0
M  V30 14744 H 1412.48 -0.740229 -0.100347 0
M  V30 14745 H 1415.14 -1.89531 0.454302 0
M  V30 14746 H 1414.24 -3.07874 -0.511834 0
M  V30 14747 N 1414.54 -0.0635198 -1.57472 0
M  V30 14748 C 1415.95 0.470372 -1.80678 0
M  V30 14749 C 1416.3 1.70158 -0.976771 0
M  V30 14750 O 1415.43 2.15502 -0.196893 0
M  V30 14751 C 1416.02 0.860129 -3.277 0
M  V30 14752 C 1414.58 1.33893 -3.51781 0
M  V30 14753 C 1413.73 0.320078 -2.75447 0
M  V30 14754 H 1416.68 -0.289295 -1.56041 0
M  V30 14755 H 1416.7 1.72216 -3.39296 0
M  V30 14756 H 1416.21 -0.0361525 -3.88083 0
M  V30 14757 H 1414.31 2.25399 -2.96692 0
M  V30 14758 H 1414.43 1.32257 -4.60483 0
M  V30 14759 H 1412.79 0.795601 -2.41955 0
M  V30 14760 H 1413.57 -0.568332 -3.38563 0
M  V30 14761 N 1416.02 1.56195 0.209972 0
M  V30 14762 C 1417.27 1.80011 0.93402 0
M  V30 14763 C 1417.6 0.635109 1.83521 0
M  V30 14764 O 1416.87 -0.365099 1.91043 0
M  V30 14765 C 1417.16 3.13989 1.76304 0
M  V30 14766 C 1417.01 4.40956 0.887567 0
M  V30 14767 C 1418.33 3.44514 2.73857 0
M  V30 14768 H 1415.45 0.654859 0.338125 0
M  V30 14769 H 1418.09 1.88921 0.20221 0
M  V30 14770 H 1416.24 3.06524 2.38695 0
M  V30 14771 H 1417.91 4.60452 0.279507 0
M  V30 14772 H 1416.15 4.33368 0.193533 0
M  V30 14773 H 1416.83 5.31164 1.50228 0
M  V30 14774 H 1419.3 3.52182 2.216 0
M  V30 14775 H 1418.18 4.39407 3.28957 0
M  V30 14776 H 1418.44 2.6726 3.52171 0
M  V30 14777 N 1417.5 -0.477127 1.50204 0
M  V30 14778 C 1418.75 -1.22639 1.60133 0
M  V30 14779 C 1419.06 -1.93218 0.304333 0
M  V30 14780 O 1420.27 -2.70027 0.282457 0
M  V30 14781 C 1418.72 -2.22807 2.82639 0
M  V30 14782 C 1418.33 -1.58059 4.19191 0
M  V30 14783 C 1420.07 -2.98413 3.01911 0
M  V30 14784 C 1417.98 -2.56478 5.32891 0
M  V30 14785 H 1416.91 -0.461439 0.596314 0
M  V30 14786 H 1419.56 -0.497533 1.76626 0
M  V30 14787 H 1417.94 -2.98959 2.59692 0
M  V30 14788 H 1419.12 -0.877374 4.5237 0
M  V30 14789 H 1417.43 -0.947563 4.05475 0
M  V30 14790 H 1420.03 -3.72059 3.84026 0
M  V30 14791 H 1420.37 -3.57444 2.134 0
M  V30 14792 H 1420.91 -2.29375 3.25011 0
M  V30 14793 H 1417.64 -2.02194 6.23536 0
M  V30 14794 H 1417.16 -3.24969 5.04138 0
M  V30 14795 H 1418.84 -3.18429 5.63216 0
M  V30 14796 N 1418.98 -1.3968 -0.729882 0
M  V30 14797 C 1420.25 -1.27689 -1.48172 0
M  V30 14798 C 1420.63 0.111239 -2.10807 0
M  V30 14799 O 1419.98 1.12289 -1.99006 0
M  V30 14800 C 1420.19 -2.40505 -2.529 0
M  V30 14801 C 1421.54 -2.80064 -3.19138 0
M  V30 14802 O 1422.56 -2.39992 -2.63215 0
M  V30 14803 O 1421.42 -3.49248 -4.20342 0
M  V30 14804 H 1418.52 -0.500674 -0.658221 0
M  V30 14805 H 1421.06 -1.51566 -0.763272 0
M  V30 14806 H 1419.83 -3.33282 -2.05033 0
M  V30 14807 H 1419.46 -2.1832 -3.32298 0
M  V30 14808 N 1420.45 0.960609 -1.2494 0
M  V30 14809 C 1421.68 1.7446 -1.12153 0
M  V30 14810 C 1422.1 1.85335 0.321315 0
M  V30 14811 O 1421.46 1.32944 1.23271 0
M  V30 14812 C 1421.51 3.13945 -1.774 0
M  V30 14813 O 1420.61 3.9882 -1.04958 0
M  V30 14814 H 1419.96 0.536007 -0.391909 0
M  V30 14815 H 1422.49 1.2045 -1.65388 0
M  V30 14816 H 1422.5 3.64434 -1.83444 0
M  V30 14817 H 1421.17 3.05346 -2.82377 0
M  V30 14818 H 1419.75 3.57293 -1.06752 0
M  V30 14819 N 1421.93 1.0643 1.16234 0
M  V30 14820 C 1422.84 0.687446 2.24302 0
M  V30 14821 C 1423.86 -0.297132 1.71444 0
M  V30 14822 O 1425.03 -0.146101 2.00869 0
M  V30 14823 C 1422.1 0.0810973 3.46605 0
M  V30 14824 C 1421.16 1.11772 4.14494 0
M  V30 14825 C 1420.39 0.54021 5.30959 0
M  V30 14826 O 1420.62 -0.646619 5.66723 0
M  V30 14827 O 1419.55 1.28057 5.8812 0
M  V30 14828 H 1423.38 1.58842 2.58849 0
M  V30 14829 H 1420.96 0.836649 1.23776 0
M  V30 14830 H 1422.84 -0.25524 4.20626 0
M  V30 14831 H 1421.52 -0.793338 3.13828 0
M  V30 14832 H 1420.43 1.50626 3.42436 0
M  V30 14833 H 1421.76 1.96373 4.5133 0
M  V30 14834 N 1423.41 -1.329 0.847073 0
M  V30 14835 C 1424.37 -2.27341 0.291324 0
M  V30 14836 C 1425.37 -1.51295 -0.544653 0
M  V30 14837 O 1426.56 -1.70497 -0.357258 0
M  V30 14838 C 1423.7 -3.35779 -0.588668 0
M  V30 14839 H 1424.89 -2.78009 1.12477 0
M  V30 14840 H 1422.44 -1.43442 0.620803 0
M  V30 14841 H 1423.18 -2.90366 -1.44423 0
M  V30 14842 H 1422.96 -3.92099 0.00960515 0
M  V30 14843 H 1424.45 -4.06166 -0.970526 0
M  V30 14844 N 1424.89 -0.604284 -1.45555 0
M  V30 14845 C 1425.84 0.116491 -2.30506 0
M  V30 14846 C 1426.81 0.863214 -1.41908 0
M  V30 14847 O 1427.99 0.849606 -1.7084 0
M  V30 14848 C 1425.13 1.11009 -3.26758 0
M  V30 14849 C 1424.24 0.36458 -4.30459 0
M  V30 14850 C 1423.38 1.34761 -5.13822 0
M  V30 14851 C 1422.42 0.589724 -6.09253 0
M  V30 14852 N 1421.55 1.52187 -6.85408 0
M  V30 14853 H 1426.39 -0.61394 -2.91607 0
M  V30 14854 H 1423.93 -0.314561 -1.43697 0
M  V30 14855 H 1425.89 1.69925 -3.81027 0
M  V30 14856 H 1424.52 1.80797 -2.67418 0
M  V30 14857 H 1423.57 -0.340026 -3.78877 0
M  V30 14858 H 1424.88 -0.226906 -4.98284 0
M  V30 14859 H 1424.04 2.00893 -5.72474 0
M  V30 14860 H 1422.78 1.97302 -4.46008 0
M  V30 14861 H 1421.78 -0.0852486 -5.49734 0
M  V30 14862 H 1423.01 -0.0306001 -6.79093 0
M  V30 14863 H 1420.95 2.13499 -6.20286 0
M  V30 14864 H 1420.87 0.983737 -7.49572 0
M  V30 14865 H 1422.14 2.17287 -7.48603 0
M  V30 14866 N 1426.37 1.53816 -0.343257 0
M  V30 14867 C 1427.33 2.23654 0.501161 0
M  V30 14868 C 1428.33 1.23664 1.02781 0
M  V30 14869 O 1429.52 1.48104 0.917103 0
M  V30 14870 C 1426.65 2.95596 1.69812 0
M  V30 14871 H 1427.84 2.997 -0.109626 0
M  V30 14872 H 1425.4 1.56013 -0.0946011 0
M  V30 14873 H 1426.13 2.23736 2.34761 0
M  V30 14874 H 1425.92 3.68938 1.32768 0
M  V30 14875 H 1427.41 3.48748 2.29706 0
M  V30 14876 N 1427.84 0.0718701 1.57436 0
M  V30 14877 C 1428.79 -0.913026 2.13931 0
M  V30 14878 C 1429.79 -1.3082 1.07622 0
M  V30 14879 O 1430.99 -1.28544 1.26002 0
M  V30 14880 H 1427.37 -0.31238 0.684049 0
M  V30 14881 H 1429.34 -0.411613 2.95547 0
M  V30 14882 C 1428.09 -2.17109 2.71586 0
M  V30 14883 H 1427.41 -1.87585 3.53061 0
M  V30 14884 H 1428.85 -2.84134 3.14712 0
M  V30 14885 C 1427.31 -2.92967 1.6635 0
M  V30 14886 O 1427.84 -3.8667 1.08854 0
M  V30 14887 N 1426.05 -2.56075 1.37383 0
M  V30 14888 H 1425.59 -1.79949 1.84326 0
M  V30 14889 H 1425.55 -3.07134 0.672039 0
M  V30 14890 N 1429.32 -1.56304 -0.201686 0
M  V30 14891 C 1430.57 -1.79433 -0.921241 0
M  V30 14892 C 1430.88 -0.643943 -1.84696 0
M  V30 14893 O 1432.09 -0.759359 -2.60665 0
M  V30 14894 C 1430.55 -3.17835 -1.68846 0
M  V30 14895 C 1430.15 -4.40655 -0.807892 0
M  V30 14896 C 1431.9 -3.50277 -2.39805 0
M  V30 14897 C 1429.81 -5.7008 -1.5736 0
M  V30 14898 H 1428.74 -0.669029 -0.34773 0
M  V30 14899 H 1431.39 -1.82667 -0.174657 0
M  V30 14900 H 1429.77 -3.08832 -2.47869 0
M  V30 14901 H 1430.94 -4.60765 -0.0567923 0
M  V30 14902 H 1429.26 -4.15873 -0.209465 0
M  V30 14903 H 1431.85 -4.44207 -2.97631 0
M  V30 14904 H 1432.2 -2.7371 -3.1367 0
M  V30 14905 H 1432.73 -3.60698 -1.67754 0
M  V30 14906 H 1429.47 -6.49595 -0.877855 0
M  V30 14907 H 1428.99 -5.53999 -2.2988 0
M  V30 14908 H 1430.67 -6.10964 -2.12912 0
M  V30 14909 N 1430.8 0.469154 -1.50455 0
M  V30 14910 C 1431.71 1.59271 -1.7225 0
M  V30 14911 C 1432.73 1.63119 -0.605668 0
M  V30 14912 O 1433.9 1.80952 -0.884222 0
M  V30 14913 C 1430.97 2.95475 -1.81372 0
M  V30 14914 C 1430.03 3.02 -3.05114 0
M  V30 14915 C 1429.26 4.31707 -3.13791 0
M  V30 14916 O 1429.48 5.2232 -2.29211 0
M  V30 14917 O 1428.42 4.43864 -4.06532 0
M  V30 14918 H 1432.24 1.43804 -2.67496 0
M  V30 14919 H 1429.83 0.648855 -1.34574 0
M  V30 14920 H 1431.71 3.76367 -1.89541 0
M  V30 14921 H 1430.39 3.11136 -0.893094 0
M  V30 14922 H 1429.29 2.20178 -3.02444 0
M  V30 14923 H 1430.63 2.91275 -3.96761 0
M  V30 14924 N 1432.28 1.40065 0.722464 0
M  V30 14925 C 1433.69 1.21944 1.02965 0
M  V30 14926 C 1433.89 0.0898069 2.013 0
M  V30 14927 O 1432.95 -0.554519 2.46336 0
M  V30 14928 C 1434.26 2.55848 1.57995 0
M  V30 14929 C 1435.81 2.62801 1.70013 0
M  V30 14930 C 1436.29 3.96957 2.2845 0
M  V30 14931 N 1437.78 3.98662 2.35844 0
M  V30 14932 C 1438.51 4.99248 2.82026 0
M  V30 14933 N 1438.01 6.1023 3.28012 0
M  V30 14934 N 1439.8 4.8662 2.81349 0
M  V30 14935 H 1431.95 2.12283 0.0705301 0
M  V30 14936 H 1434.22 0.943338 0.0938991 0
M  V30 14937 H 1433.92 3.39125 0.932034 0
M  V30 14938 H 1433.8 2.76452 2.5662 0
M  V30 14939 H 1436.18 1.799 2.33923 0
M  V30 14940 H 1436.26 2.46034 0.700062 0
M  V30 14941 H 1435.91 4.80295 1.65164 0
M  V30 14942 H 1435.84 4.1105 3.29158 0
M  V30 14943 H 1438.33 3.18518 2.03358 0
M  V30 14944 H 1438.64 6.82878 3.61797 0
M  V30 14945 H 1436.99 6.13805 3.25988 0
M  V30 14946 H 1440.18 3.99015 2.44755 0
M  V30 14947 H 1440.35 5.65155 3.17024 0
M  V30 14948 N 1433.76 -0.95397 1.25448 0
M  V30 14949 C 1434.71 -2.03623 1.02575 0
M  V30 14950 C 1435.69 -1.60856 -0.0375824 0
M  V30 14951 O 1436.88 -1.76104 0.177833 0
M  V30 14952 C 1434.01 -3.37145 0.64714 0
M  V30 14953 C 1433.1 -3.86434 1.74726 0
M  V30 14954 N 1433.49 -4.08509 2.98251 0
M  V30 14955 C 1431.79 -4.15228 1.62793 0
M  V30 14956 C 1432.49 -4.49137 3.69663 0
M  V30 14957 N 1431.46 -4.55106 2.97287 0
M  V30 14958 H 1435.27 -2.18685 1.96352 0
M  V30 14959 H 1432.78 -1.13884 1.15777 0
M  V30 14960 H 1434.78 -4.14305 0.464462 0
M  V30 14961 H 1433.44 -3.23462 -0.283296 0
M  V30 14962 H 1434.45 -3.95564 3.3429 0
M  V30 14963 H 1431.13 -4.10403 0.766501 0
M  V30 14964 H 1432.52 -4.74515 4.75695 0
M  V30 14965 N 1435.24 -1.07045 -1.15668 0
M  V30 14966 C 1436.48 -0.786751 -1.85723 0
M  V30 14967 C 1436.8 0.689604 -1.83041 0
M  V30 14968 O 1438 1.08796 -2.48748 0
M  V30 14969 C 1436.46 -1.35729 -3.33325 0
M  V30 14970 C 1436.07 -2.86444 -3.44462 0
M  V30 14971 C 1437.81 -1.15148 -4.08584 0
M  V30 14972 C 1435.72 -3.36705 -4.86193 0
M  V30 14973 H 1434.65 -0.29063 -0.695737 0
M  V30 14974 H 1437.3 -1.29012 -1.30492 0
M  V30 14975 H 1435.68 -0.781671 -3.88209 0
M  V30 14976 H 1436.86 -3.50023 -2.997 0
M  V30 14977 H 1435.17 -3.0578 -2.82644 0
M  V30 14978 H 1437.77 -1.50179 -5.13177 0
M  V30 14979 H 1438.11 -0.0903159 -4.16202 0
M  V30 14980 H 1438.64 -1.6933 -3.59962 0
M  V30 14981 H 1435.38 -4.42333 -4.83758 0
M  V30 14982 H 1434.9 -2.77877 -5.31549 0
M  V30 14983 H 1436.58 -3.32478 -5.55038 0
M  V30 14984 N 1436.71 1.32449 -0.85411 0
M  V30 14985 C 1437.65 2.2777 -0.255605 0
M  V30 14986 C 1438.66 1.52407 0.572355 0
M  V30 14987 O 1439.85 1.74031 0.396935 0
M  V30 14988 C 1436.95 3.32461 0.657496 0
M  V30 14989 C 1436.12 4.37193 -0.134492 0
M  V30 14990 C 1435.18 5.21465 0.704288 0
M  V30 14991 O 1434.21 5.69033 0.138001 0
M  V30 14992 N 1435.41 5.44254 2.01911 0
M  V30 14993 H 1438.17 2.79769 -1.07468 0
M  V30 14994 H 1435.73 1.45304 -0.714038 0
M  V30 14995 H 1437.73 3.85748 1.22396 0
M  V30 14996 H 1436.3 2.80625 1.37726 0
M  V30 14997 H 1435.52 3.84198 -0.882378 0
M  V30 14998 H 1436.8 5.04256 -0.678508 0
M  V30 14999 H 1436.2 5.07336 2.50252 0
M  V30 15000 H 1434.76 6.00538 2.53371 0
M  V30 15001 N 1438.19 0.611994 1.45232 0
M  V30 15002 C 1439.42 0.115409 2.06578 0
M  V30 15003 C 1439.83 -1.20206 1.45588 0
M  V30 15004 O 1439.19 -1.73315 0.571668 0
M  V30 15005 C 1439.24 -0.0259943 3.61491 0
M  V30 15006 O 1438.96 1.23936 4.20204 0
M  V30 15007 C 1440.46 -0.553522 4.39831 0
M  V30 15008 H 1437.68 0.0708656 0.667247 0
M  V30 15009 H 1440.23 0.840977 1.86408 0
M  V30 15010 H 1438.38 -0.701909 3.80988 0
M  V30 15011 H 1438.8 1.07187 5.13431 0
M  V30 15012 H 1440.27 -0.601536 5.48713 0
M  V30 15013 H 1440.75 -1.57671 4.09923 0
M  V30 15014 H 1441.35 0.0884954 4.25208 0
M  V30 15015 N 1439.67 -1.53632 0.351409 0
M  V30 15016 C 1440.6 -2.21598 -0.544952 0
M  V30 15017 C 1441.58 -1.20279 -1.09415 0
M  V30 15018 O 1442.76 -1.49129 -1.15295 0
M  V30 15019 C 1439.89 -2.89959 -1.75048 0
M  V30 15020 C 1438.94 -4.05232 -1.33002 0
M  V30 15021 S 1439.77 -5.34399 -0.343204 0
M  V30 15022 C 1440.93 -6.06266 -1.55538 0
M  V30 15023 H 1441.16 -2.97282 0.0323028 0
M  V30 15024 H 1438.69 -1.53804 0.13549 0
M  V30 15025 H 1440.65 -3.29961 -2.44204 0
M  V30 15026 H 1439.31 -2.14025 -2.29896 0
M  V30 15027 H 1438.5 -4.52027 -2.22907 0
M  V30 15028 H 1438.11 -3.67046 -0.717841 0
M  V30 15029 H 1440.4 -6.30137 -2.48865 0
M  V30 15030 H 1441.34 -6.9904 -1.12907 0
M  V30 15031 H 1441.75 -5.36526 -1.755 0
M  V30 15032 N 1441.15 -0.0802183 -1.57396 0
M  V30 15033 C 1442.56 0.276428 -1.57188 0
M  V30 15034 C 1442.76 1.69456 -1.09027 0
M  V30 15035 O 1441.82 2.40792 -0.75997 0
M  V30 15036 C 1443.13 0.0784079 -3.00598 0
M  V30 15037 C 1444.68 0.1473 -3.12653 0
M  V30 15038 C 1445.16 -0.0225423 -4.57994 0
M  V30 15039 N 1446.65 0.0327854 -4.63188 0
M  V30 15040 C 1447.38 -0.0740922 -5.73352 0
M  V30 15041 N 1446.88 -0.234966 -6.92401 0
M  V30 15042 N 1448.67 -0.0164241 -5.62098 0
M  V30 15043 H 1440.82 -1.00695 -1.87014 0
M  V30 15044 H 1443.08 -0.393402 -0.862519 0
M  V30 15045 H 1442.79 -0.900488 -3.39977 0
M  V30 15046 H 1442.66 0.82713 -3.6802 0
M  V30 15047 H 1445.05 1.11669 -2.73156 0
M  V30 15048 H 1445.13 -0.632666 -2.47853 0
M  V30 15049 H 1444.78 -0.988733 -4.98183 0
M  V30 15050 H 1444.71 0.776933 -5.20837 0
M  V30 15051 H 1447.2 0.15519 -3.77581 0
M  V30 15052 H 1447.51 -0.308435 -7.72184 0
M  V30 15053 H 1445.86 -0.270439 -6.94474 0
M  V30 15054 H 1449.05 0.108019 -4.67975 0
M  V30 15055 H 1449.22 -0.10317 -6.47918 0
M  V30 15056 N 1442.63 1.56409 0.193394 0
M  V30 15057 C 1443.85 1.8519 0.933775 0
M  V30 15058 C 1444.28 0.663991 1.75991 0
M  V30 15059 O 1443.63 -0.387198 1.77117 0
M  V30 15060 C 1443.68 3.12212 1.80432 0
M  V30 15061 O 1442.79 2.92884 2.90332 0
M  V30 15062 H 1442.13 0.609754 0.262862 0
M  V30 15063 H 1444.66 2.03638 0.198195 0
M  V30 15064 H 1444.67 3.4305 2.20864 0
M  V30 15065 H 1443.34 3.98292 1.19733 0
M  V30 15066 H 1441.92 2.73349 2.53643 0
M  V30 15067 N 1444.1 -0.461169 1.50702 0
M  V30 15068 C 1445.05 -1.5579 1.70288 0
M  V30 15069 C 1446.02 -1.5693 0.544251 0
M  V30 15070 O 1447.21 -1.74308 0.77597 0
M  V30 15071 C 1444.35 -2.93694 1.81212 0
M  V30 15072 C 1443.46 -3.02267 3.0864 0
M  V30 15073 C 1442.59 -4.31147 3.103 0
M  V30 15074 C 1441.63 -4.33498 4.32141 0
M  V30 15075 N 1440.77 -5.53864 4.31484 0
M  V30 15076 H 1445.61 -1.38393 2.63915 0
M  V30 15077 H 1443.15 -0.6727 1.30817 0
M  V30 15078 H 1445.1 -3.73679 1.85526 0
M  V30 15079 H 1443.73 -3.09703 0.91015 0
M  V30 15080 H 1442.79 -2.15093 3.1375 0
M  V30 15081 H 1444.1 -2.99864 3.98601 0
M  V30 15082 H 1443.25 -5.19487 3.13398 0
M  V30 15083 H 1441.99 -4.36172 2.18186 0
M  V30 15084 H 1441 -3.43554 4.29245 0
M  V30 15085 H 1442.22 -4.30156 5.25493 0
M  V30 15086 H 1440.17 -5.59657 3.42229 0
M  V30 15087 H 1440.08 -5.53244 5.15225 0
M  V30 15088 H 1441.35 -6.44302 4.38742 0
M  V30 15089 N 1445.58 -1.40446 -0.715026 0
M  V30 15090 C 1446.83 -1.3848 -1.47199 0
M  V30 15091 C 1447.15 0.0119198 -1.94996 0
M  V30 15092 O 1446.42 0.966772 -1.70383 0
M  V30 15093 H 1445 -0.509669 -0.54612 0
M  V30 15094 H 1447.66 -1.75505 -0.847588 0
M  V30 15095 H 1446.76 -2.06002 -2.34456 0
M  V30 15096 N 1447.06 0.947303 -1.25952 0
M  V30 15097 C 1448.48 1.21972 -1.02932 0
M  V30 15098 C 1448.68 1.99951 0.249333 0
M  V30 15099 O 1447.73 2.33534 0.960108 0
M  V30 15100 C 1449.04 1.98695 -2.257 0
M  V30 15101 C 1450.59 2.11711 -2.30538 0
M  V30 15102 C 1451.07 2.91835 -3.52982 0
M  V30 15103 N 1452.56 2.99411 -3.53422 0
M  V30 15104 C 1453.29 3.6182 -4.4483 0
M  V30 15105 N 1452.79 4.25781 -5.46519 0
M  V30 15106 N 1454.58 3.59033 -4.32495 0
M  V30 15107 H 1446.73 0.42583 -2.08088 0
M  V30 15108 H 1449 0.250899 -0.914196 0
M  V30 15109 H 1448.7 1.48801 -3.18671 0
M  V30 15110 H 1448.58 2.9938 -2.29459 0
M  V30 15111 H 1450.96 2.608 -1.38085 0
M  V30 15112 H 1451.04 1.10308 -2.30794 0
M  V30 15113 H 1450.69 2.43435 -4.4576 0
M  V30 15114 H 1450.62 3.9348 -3.49973 0
M  V30 15115 H 1453.11 2.53934 -2.79868 0
M  V30 15116 H 1453.42 4.71281 -6.12466 0
M  V30 15117 H 1451.77 4.24386 -5.50383 0
M  V30 15118 H 1454.96 3.08254 -3.52274 0
M  V30 15119 H 1455.13 4.07384 -5.03927 0
M  V30 15120 N 1448.54 1.07657 1.15099 0
M  V30 15121 C 1449.95 0.823828 1.67541 0
M  V30 15122 C 1450.3 -0.650601 1.85099 0
M  V30 15123 O 1449.43 -1.50333 1.55657 0
M  V30 15124 C 1450.02 1.4889 3.04331 0
M  V30 15125 C 1448.58 1.28359 3.53837 0
M  V30 15126 C 1447.73 1.55659 2.2949 0
M  V30 15127 H 1450.68 1.23819 0.992699 0
M  V30 15128 H 1450.7 0.911848 3.69412 0
M  V30 15129 H 1450.21 2.56199 2.9152 0
M  V30 15130 H 1448.31 0.230864 3.71884 0
M  V30 15131 H 1448.42 2.00593 4.35085 0
M  V30 15132 H 1446.79 0.977755 2.35185 0
M  V30 15133 H 1447.57 2.64157 2.19263 0
M  V30 15134 N 1450.02 -1.31994 0.861122 0
M  V30 15135 C 1451.26 -1.97317 0.468371 0
M  V30 15136 C 1451.6 -1.67954 -0.974941 0
M  V30 15137 O 1450.87 -0.971243 -1.68514 0
M  V30 15138 C 1451.15 -3.52918 0.715607 0
M  V30 15139 C 1451.01 -3.91888 2.20781 0
M  V30 15140 C 1452.33 -4.39747 0.17624 0
M  V30 15141 H 1449.44 -0.716733 0.171646 0
M  V30 15142 H 1452.09 -1.56269 1.08074 0
M  V30 15143 H 1450.24 -3.88013 0.194387 0
M  V30 15144 H 1451.91 -3.66938 2.7956 0
M  V30 15145 H 1450.15 -3.40813 2.68382 0
M  V30 15146 H 1450.82 -5.00346 2.33147 0
M  V30 15147 H 1453.3 -4.11424 0.622043 0
M  V30 15148 H 1452.17 -5.47592 0.378748 0
M  V30 15149 H 1452.44 -4.32393 -0.921358 0
M  V30 15150 N 1451.49 -0.619688 -1.44906 0
M  V30 15151 C 1452.74 -0.119633 -2.02146 0
M  V30 15152 C 1453.07 1.25432 -1.48651 0
M  V30 15153 O 1452.32 1.84372 -0.656155 0
M  V30 15154 C 1452.62 -0.0432891 -3.57374 0
M  V30 15155 C 1452.29 -1.35451 -4.30074 0
M  V30 15156 C 1450.95 -1.71365 -4.49653 0
M  V30 15157 C 1453.3 -2.22053 -4.71532 0
M  V30 15158 C 1450.63 -2.93611 -5.07946 0
M  V30 15159 C 1452.98 -3.43559 -5.31178 0
M  V30 15160 C 1451.65 -3.7971 -5.48977 0
M  V30 15161 H 1450.92 -0.0437769 -0.739706 0
M  V30 15162 H 1453.56 -0.803722 -1.73818 0
M  V30 15163 H 1451.87 0.72412 -3.8505 0
M  V30 15164 H 1453.57 0.359964 -3.99381 0
M  V30 15165 H 1450.16 -1.06499 -4.15158 0
M  V30 15166 H 1454.34 -1.95603 -4.56129 0
M  V30 15167 H 1449.6 -3.21712 -5.19915 0
M  V30 15168 H 1453.77 -4.10906 -5.62254 0
M  V30 15169 H 1451.4 -4.7452 -5.93915 0
M  V30 15170 N 1452.97 1.53444 -0.359552 0
M  V30 15171 C 1453.9 2.23121 0.524379 0
M  V30 15172 C 1454.92 1.24324 1.05106 0
M  V30 15173 O 1456.11 1.50584 0.958476 0
M  V30 15174 C 1453.21 2.91055 1.7361 0
M  V30 15175 C 1452.38 4.16306 1.34195 0
M  V30 15176 C 1451.44 4.67504 2.41508 0
M  V30 15177 O 1450.46 5.3133 2.04149 0
M  V30 15178 N 1451.67 4.44801 3.73005 0
M  V30 15179 H 1454.43 2.99612 -0.072427 0
M  V30 15180 H 1451.99 1.60846 -0.184438 0
M  V30 15181 H 1453.98 3.22216 2.44865 0
M  V30 15182 H 1452.55 2.18052 2.23991 0
M  V30 15183 H 1451.77 3.91513 0.459501 0
M  V30 15184 H 1453.06 4.97746 1.05483 0
M  V30 15185 H 1452.46 3.9379 4.06136 0
M  V30 15186 H 1451.02 4.80528 4.40382 0
M  V30 15187 N 1454.45 0.0885642 1.57351 0
M  V30 15188 C 1455.41 -0.858178 2.12528 0
M  V30 15189 C 1456.41 -1.21522 1.05304 0
M  V30 15190 O 1457.6 -1.14573 1.3122 0
M  V30 15191 C 1454.74 -2.15619 2.64048 0
M  V30 15192 H 1455.93 -0.37918 2.97493 0
M  V30 15193 H 1453.48 -0.160354 1.55475 0
M  V30 15194 H 1454.22 -2.68018 1.82584 0
M  V30 15195 H 1454 -1.90995 3.42437 0
M  V30 15196 H 1455.49 -2.83359 3.06753 0
M  V30 15197 N 1455.93 -1.56509 -0.185096 0
M  V30 15198 C 1457.17 -1.81474 -0.905263 0
M  V30 15199 C 1457.51 -0.664225 -1.82488 0
M  V30 15200 O 1456.78 0.33466 -1.91599 0
M  V30 15201 C 1457.07 -3.16754 -1.71287 0
M  V30 15202 C 1456.92 -4.42312 -0.817302 0
M  V30 15203 C 1458.24 -3.48828 -2.68342 0
M  V30 15204 H 1455.36 -0.660155 -0.327664 0
M  V30 15205 H 1458 -1.89219 -0.172129 0
M  V30 15206 H 1456.15 -3.10282 -2.33789 0
M  V30 15207 H 1457.82 -4.60839 -0.206218 0
M  V30 15208 H 1456.06 -4.33621 -0.124564 0
M  V30 15209 H 1456.73 -5.33487 -1.41758 0
M  V30 15210 H 1459.21 -3.55663 -2.15969 0
M  V30 15211 H 1458.09 -4.44585 -3.21924 0
M  V30 15212 H 1458.35 -2.72829 -3.47875 0
M  V30 15213 N 1457.41 0.45317 -1.50944 0
M  V30 15214 C 1458.82 0.788393 -1.38768 0
M  V30 15215 C 1459.02 1.96233 -0.457676 0
M  V30 15216 O 1458.08 2.52328 0.0930651 0
M  V30 15217 C 1459.39 1.08363 -2.80496 0
M  V30 15218 C 1460.94 1.18901 -2.89537 0
M  V30 15219 C 1461.41 1.51727 -4.32138 0
M  V30 15220 N 1462.91 1.58683 -4.35171 0
M  V30 15221 C 1463.64 1.85623 -5.42523 0
M  V30 15222 N 1463.14 2.10462 -6.60059 0
M  V30 15223 N 1464.93 1.87274 -5.29986 0
M  V30 15224 H 1457.08 -0.320216 -2.09972 0
M  V30 15225 H 1459.34 -0.0808021 -0.94455 0
M  V30 15226 H 1459.05 0.293897 -3.5047 0
M  V30 15227 H 1458.92 2.01532 -3.18849 0
M  V30 15228 H 1461.31 1.96939 -2.19771 0
M  V30 15229 H 1461.39 0.236691 -2.54703 0
M  V30 15230 H 1461.04 0.74223 -5.02447 0
M  V30 15231 H 1460.97 2.48139 -4.64472 0
M  V30 15232 H 1463.46 1.41455 -3.50427 0
M  V30 15233 H 1463.77 2.30343 -7.37673 0
M  V30 15234 H 1462.11 2.07817 -6.63202 0
M  V30 15235 H 1465.31 1.67377 -4.37153 0
M  V30 15236 H 1465.48 2.07933 -6.13733 0
M  V30 15237 N 1458.88 1.40823 0.707568 0
M  V30 15238 C 1459.79 1.44058 1.85161 0
M  V30 15239 C 1460.81 0.332357 1.70796 0
M  V30 15240 O 1461.99 0.578205 1.92922 0
M  V30 15241 C 1459.05 1.3091 3.21035 0
M  V30 15242 C 1458.11 2.51944 3.47595 0
M  V30 15243 C 1457.35 2.39414 4.76987 0
M  V30 15244 O 1457.57 1.41224 5.52641 0
M  V30 15245 O 1456.5 3.28944 5.04063 0
M  V30 15246 H 1460.33 2.40551 1.85388 0
M  V30 15247 H 1457.91 1.22232 0.859052 0
M  V30 15248 H 1459.8 1.25816 4.02179 0
M  V30 15249 H 1458.47 0.375263 3.21517 0
M  V30 15250 H 1457.38 2.62615 2.66428 0
M  V30 15251 H 1458.71 3.44115 3.51917 0
M  V30 15252 N 1460.36 -0.94061 1.26453 0
M  V30 15253 C 1461.31 -2.06073 1.07873 0
M  V30 15254 C 1462.3 -1.69399 0.0055001 0
M  V30 15255 O 1463.51 -1.79267 0.162224 0
M  V30 15256 H 1459.89 -0.674748 0.331993 0
M  V30 15257 H 1461.86 -2.18895 2.02799 0
M  V30 15258 C 1460.61 -3.39971 0.729054 0
M  V30 15259 H 1459.93 -3.68667 1.54675 0
M  V30 15260 H 1461.37 -4.1916 0.638844 0
M  V30 15261 C 1459.83 -3.32114 -0.565835 0
M  V30 15262 O 1460.36 -3.68287 -1.60399 0
M  V30 15263 N 1458.56 -2.85218 -0.556679 0
M  V30 15264 H 1458.11 -2.55979 0.288541 0
M  V30 15265 H 1458.07 -2.80344 -1.42318 0
M  V30 15266 N 1461.84 -1.08266 -1.14527 0
M  V30 15267 C 1463.07 -0.832994 -1.89937 0
M  V30 15268 C 1463.49 0.608985 -1.77969 0
M  V30 15269 O 1462.85 1.42657 -1.11887 0
M  V30 15270 C 1462.9 -1.25782 -3.37952 0
M  V30 15271 O 1462 -0.408853 -4.10368 0
M  V30 15272 H 1461.34 -0.30267 -0.591005 0
M  V30 15273 H 1463.87 -1.44371 -1.44977 0
M  V30 15274 H 1463.88 -1.23804 -3.88763 0
M  V30 15275 H 1462.56 -2.30804 -3.4598 0
M  V30 15276 H 1461.13 -0.49192 -3.69641 0
M  V30 15277 N 1463.32 1.31536 -0.86811 0
M  V30 15278 C 1464.23 2.32326 -0.32588 0
M  V30 15279 C 1465.25 1.64632 0.563243 0
M  V30 15280 O 1466.42 1.96067 0.460403 0
M  V30 15281 C 1463.49 3.43562 0.46539 0
M  V30 15282 C 1462.55 4.26919 -0.451472 0
M  V30 15283 C 1461.78 5.32844 0.302129 0
M  V30 15284 O 1462 5.49485 1.53045 0
M  V30 15285 O 1460.94 6.00944 -0.339048 0
M  V30 15286 H 1464.76 2.80622 -1.16126 0
M  V30 15287 H 1462.35 1.35401 -0.631428 0
M  V30 15288 H 1464.23 4.11368 0.914028 0
M  V30 15289 H 1462.91 2.97432 1.27734 0
M  V30 15290 H 1461.81 3.61874 -0.948571 0
M  V30 15291 H 1463.15 4.7661 -1.22897 0
M  V30 15292 N 1464.8 0.627364 1.44575 0
M  V30 15293 C 1466.07 0.0614392 1.95503 0
M  V30 15294 C 1466.45 -1.41182 1.56942 0
M  V30 15295 O 1465.8 -2.12435 0.841634 0
M  V30 15296 C 1466.01 0.280349 3.47872 0
M  V30 15297 C 1467.36 0.171559 4.24253 0
M  V30 15298 O 1468.38 0.211515 3.55571 0
M  V30 15299 O 1467.24 0.0733152 5.46451 0
M  V30 15300 H 1464.34 -0.0244626 0.826638 0
M  V30 15301 H 1466.88 0.698805 1.54644 0
M  V30 15302 H 1465.66 1.30278 3.68976 0
M  V30 15303 H 1465.28 -0.391336 3.95669 0
M  V30 15304 N 1466.28 -1.53251 0.367684 0
M  V30 15305 C 1467.24 -2.24423 -0.465516 0
M  V30 15306 C 1468.24 -1.25283 -1.00801 0
M  V30 15307 O 1469.43 -1.49545 -0.893424 0
M  V30 15308 C 1466.56 -2.9826 -1.65087 0
M  V30 15309 H 1467.75 -2.99487 0.157292 0
M  V30 15310 H 1465.31 -1.55843 0.119409 0
M  V30 15311 H 1466.04 -2.27443 -2.31171 0
M  V30 15312 H 1465.83 -3.71003 -1.26882 0
M  V30 15313 H 1467.32 -3.52358 -2.24128 0
M  V30 15314 N 1467.75 -0.0969077 -1.57302 0
M  V30 15315 C 1469.17 0.25974 -1.57472 0
M  V30 15316 C 1469.37 1.6829 -1.10818 0
M  V30 15317 O 1468.43 2.39972 -0.785466 0
M  V30 15318 C 1469.74 0.0465211 -3.00664 0
M  V30 15319 C 1471.29 0.114131 -3.12792 0
M  V30 15320 C 1471.76 -0.0711175 -4.57945 0
M  V30 15321 N 1473.25 -0.0163438 -4.63197 0
M  V30 15322 C 1473.99 -0.1349 -5.73241 0
M  V30 15323 N 1473.48 -0.308391 -6.92113 0
M  V30 15324 N 1475.28 -0.0760411 -5.62049 0
M  V30 15325 H 1467.43 -1.02673 -1.85935 0
M  V30 15326 H 1469.69 -0.402528 -0.858298 0
M  V30 15327 H 1469.4 -0.936496 -3.39002 0
M  V30 15328 H 1469.27 0.78805 -3.68876 0
M  V30 15329 H 1471.66 1.08765 -2.74325 0
M  V30 15330 H 1471.74 -0.658918 -2.47168 0
M  V30 15331 H 1471.38 -1.04152 -4.97106 0
M  V30 15332 H 1471.31 0.721647 -5.21632 0
M  V30 15333 H 1473.8 0.115134 -3.77725 0
M  V30 15334 H 1474.12 -0.390318 -7.71814 0
M  V30 15335 H 1472.46 -0.344082 -6.94148 0
M  V30 15336 H 1475.65 0.0583778 -4.68064 0
M  V30 15337 H 1475.83 -0.171884 -6.47772 0
M  V30 15338 N 1469.23 1.56605 0.176793 0
M  V30 15339 C 1470.14 1.99211 1.23903 0
M  V30 15340 C 1471.16 0.902614 1.48758 0
M  V30 15341 O 1472.33 1.20982 1.61014 0
M  V30 15342 C 1469.4 2.33873 2.55938 0
M  V30 15343 C 1468.46 3.56624 2.38994 0
M  V30 15344 C 1467.69 3.89623 3.64733 0
M  V30 15345 O 1467.92 3.23662 4.6968 0
M  V30 15346 O 1466.85 4.82992 3.5917 0
M  V30 15347 H 1470.68 2.89827 0.907398 0
M  V30 15348 H 1468.26 1.44401 0.383234 0
M  V30 15349 H 1470.14 2.57161 3.33836 0
M  V30 15350 H 1468.82 1.46421 2.88691 0
M  V30 15351 H 1467.72 3.38561 1.59146 0
M  V30 15352 H 1469.06 4.446 2.11167 0
M  V30 15353 N 1470.71 -0.445159 1.51182 0
M  V30 15354 C 1471.96 -1.19398 1.64669 0
M  V30 15355 C 1472.31 -1.89101 0.35474 0
M  V30 15356 O 1471.6 -1.80274 -0.648999 0
M  V30 15357 C 1471.8 -2.24274 2.78273 0
M  V30 15358 C 1471.63 -1.64863 4.1839 0
M  V30 15359 C 1470.4 -1.43697 4.84437 0
M  V30 15360 C 1472.59 -1.12917 5.01751 0
M  V30 15361 N 1470.58 -0.798009 6.08691 0
M  V30 15362 C 1471.95 -0.615012 6.16942 0
M  V30 15363 C 1474 -1.02018 4.87336 0
M  V30 15364 C 1472.71 -0.00258151 7.193 0
M  V30 15365 C 1474.73 -0.421658 5.89895 0
M  V30 15366 C 1474.09 0.0819981 7.04352 0
M  V30 15367 H 1470.19 -0.424858 0.656521 0
M  V30 15368 H 1472.78 -0.491798 1.88386 0
M  V30 15369 H 1470.95 -2.91889 2.56233 0
M  V30 15370 H 1472.68 -2.91259 2.8098 0
M  V30 15371 H 1469.43 -1.69652 4.42171 0
M  V30 15372 H 1469.86 -0.496194 6.75179 0
M  V30 15373 H 1474.5 -1.39546 3.99107 0
M  V30 15374 H 1472.22 0.384842 8.07183 0
M  V30 15375 H 1475.8 -0.339339 5.8081 0
M  V30 15376 H 1474.68 0.537861 7.82353 0
M  V30 15377 N 1472.19 -1.41197 -0.700089 0
M  V30 15378 C 1473.12 -1.38616 -1.82533 0
M  V30 15379 C 1474.13 -0.289047 -1.60213 0
M  V30 15380 O 1475.32 -0.550465 -1.698 0
M  V30 15381 C 1472.42 -1.13815 -3.19217 0
M  V30 15382 C 1471.59 -2.3548 -3.68603 0
M  V30 15383 C 1470.65 -2.06604 -4.83943 0
M  V30 15384 O 1469.68 -2.79604 -4.95792 0
M  V30 15385 N 1470.88 -1.05351 -5.7086 0
M  V30 15386 H 1473.65 -2.35598 -1.8524 0
M  V30 15387 H 1471.21 -1.3575 -0.882238 0
M  V30 15388 H 1473.2 -0.924571 -3.93997 0
M  V30 15389 H 1471.77 -0.254468 -3.11563 0
M  V30 15390 H 1470.99 -2.72569 -2.8478 0
M  V30 15391 H 1472.28 -3.16553 -3.98336 0
M  V30 15392 H 1471.68 -0.449223 -5.63914 0
M  V30 15393 H 1470.23 -0.899819 -6.45559 0
M  V30 15394 N 1473.67 0.933891 -1.2695 0
M  V30 15395 C 1474.89 1.72042 -1.15828 0
M  V30 15396 C 1475.32 1.85975 0.28193 0
M  V30 15397 O 1474.67 1.35528 1.20423 0
M  V30 15398 C 1474.72 3.10112 -1.84019 0
M  V30 15399 O 1473.83 3.96504 -1.13394 0
M  V30 15400 H 1473.17 0.527573 -0.40319 0
M  V30 15401 H 1475.7 1.16914 -1.67905 0
M  V30 15402 H 1475.71 3.60461 -1.91133 0
M  V30 15403 H 1474.38 2.99287 -2.8879 0
M  V30 15404 H 1472.96 3.54948 -1.14307 0
M  V30 15405 N 1475.14 1.08871 1.13951 0
M  V30 15406 C 1476.39 0.819665 1.84732 0
M  V30 15407 C 1476.71 -0.656535 1.83615 0
M  V30 15408 O 1475.98 -1.47614 1.28791 0
M  V30 15409 H 1474.56 0.30023 0.684011 0
M  V30 15410 H 1477.22 1.37568 1.38062 0
M  V30 15411 H 1476.32 1.16809 2.89417 0
M  V30 15412 N 1476.62 -1.31073 0.875073 0
M  V30 15413 C 1477.85 -2.00688 0.503179 0
M  V30 15414 C 1478.26 -1.65657 -0.905714 0
M  V30 15415 O 1477.62 -0.888468 -1.59413 0
M  V30 15416 C 1477.67 -3.55486 0.65666 0
M  V30 15417 O 1477.39 -3.89265 2.01007 0
M  V30 15418 C 1478.89 -4.42374 0.28645 0
M  V30 15419 H 1476.11 -0.641885 0.195512 0
M  V30 15420 H 1478.66 -1.67188 1.17765 0
M  V30 15421 H 1476.81 -3.87389 0.0296852 0
M  V30 15422 H 1477.23 -4.83978 2.02153 0
M  V30 15423 H 1478.7 -5.50205 0.444776 0
M  V30 15424 H 1479.18 -4.32312 -0.774789 0
M  V30 15425 H 1479.78 -4.15898 0.889336 0
M  V30 15426 N 1478.1 -0.635022 -1.4424 0
M  V30 15427 C 1479.35 -0.141067 -2.02008 0
M  V30 15428 C 1479.68 1.23849 -1.49973 0
M  V30 15429 O 1478.93 1.83666 -0.675673 0
M  V30 15430 C 1479.23 -0.081191 -3.57308 0
M  V30 15431 C 1478.9 -1.40004 -4.28614 0
M  V30 15432 C 1477.56 -1.76125 -4.4781 0
M  V30 15433 C 1479.91 -2.27041 -4.6915 0
M  V30 15434 C 1477.24 -2.98982 -5.04804 0
M  V30 15435 C 1479.59 -3.49173 -5.27504 0
M  V30 15436 C 1478.25 -3.85512 -5.44919 0
M  V30 15437 H 1477.52 -0.05162 -0.7392 0
M  V30 15438 H 1480.17 -0.822112 -1.72955 0
M  V30 15439 H 1478.48 0.68324 -3.85797 0
M  V30 15440 H 1480.17 0.317584 -3.9974 0
M  V30 15441 H 1476.76 -1.10897 -4.14005 0
M  V30 15442 H 1480.95 -2.0043 -4.54028 0
M  V30 15443 H 1476.2 -3.27208 -5.16473 0
M  V30 15444 H 1480.38 -4.16847 -5.57864 0
M  V30 15445 H 1478 -4.80793 -5.88848 0
M  V30 15446 N 1479.58 1.53054 -0.375806 0
M  V30 15447 C 1480.82 2.017 0.210985 0
M  V30 15448 C 1481.16 1.26228 1.47581 0
M  V30 15449 O 1480.43 0.358869 1.91161 0
M  V30 15450 C 1480.72 3.56715 0.492596 0
M  V30 15451 C 1480.57 4.42869 -0.786573 0
M  V30 15452 C 1481.89 4.20803 1.28891 0
M  V30 15453 H 1479.01 0.733153 0.0752084 0
M  V30 15454 H 1481.65 1.83229 -0.502715 0
M  V30 15455 H 1479.8 3.72585 1.10059 0
M  V30 15456 H 1481.47 4.38777 -1.42381 0
M  V30 15457 H 1479.71 4.10425 -1.40478 0
M  V30 15458 H 1480.38 5.49309 -0.544354 0
M  V30 15459 H 1482.86 4.08828 0.774498 0
M  V30 15460 H 1481.74 5.29273 1.45469 0
M  V30 15461 H 1482 3.77541 2.30033 0
M  V30 15462 N 1481.06 0.105248 1.57248 0
M  V30 15463 C 1482.02 -0.835589 2.13426 0
M  V30 15464 C 1483.02 -1.20398 1.06587 0
M  V30 15465 O 1484.21 -1.13175 1.32428 0
M  V30 15466 C 1481.34 -2.12806 2.6632 0
M  V30 15467 H 1482.53 -0.347606 2.97879 0
M  V30 15468 H 1480.09 -0.143855 1.55637 0
M  V30 15469 H 1480.82 -2.66066 1.85416 0
M  V30 15470 H 1480.61 -1.87352 3.44444 0
M  V30 15471 H 1482.1 -2.80089 3.09741 0
M  V30 15472 N 1482.53 -1.56697 -0.168486 0
M  V30 15473 C 1483.95 -1.71808 -0.730674 0
M  V30 15474 C 1484.3 -0.716224 -1.8266 0
M  V30 15475 O 1483.42 0.121803 -2.16057 0
M  V30 15476 C 1484.02 -3.1151 -1.33217 0
M  V30 15477 C 1482.58 -3.28297 -1.84115 0
M  V30 15478 C 1481.72 -2.67757 -0.72122 0
M  V30 15479 H 1484.67 -1.58598 0.0569421 0
M  V30 15480 H 1484.69 -3.10318 -2.20189 0
M  V30 15481 H 1484.21 -3.84404 -0.53431 0
M  V30 15482 H 1482.31 -2.60364 -2.66536 0
M  V30 15483 H 1482.42 -4.3606 -1.98464 0
M  V30 15484 H 1480.78 -2.27644 -1.14239 0
M  V30 15485 H 1481.57 -3.43239 0.0648388 0
M  V30 15486 N 1484.01 0.437135 -1.51416 0
M  V30 15487 C 1485.24 1.20898 -1.67903 0
M  V30 15488 C 1485.66 1.85009 -0.376458 0
M  V30 15489 O 1485.01 1.7072 0.645051 0
M  V30 15490 C 1485.06 2.29286 -2.79482 0
M  V30 15491 O 1484.78 1.67798 -4.04692 0
M  V30 15492 C 1486.29 3.19561 -3.07238 0
M  V30 15493 H 1483.51 0.364381 -0.563442 0
M  V30 15494 H 1486.05 0.517931 -1.97833 0
M  V30 15495 H 1484.2 2.94107 -2.5215 0
M  V30 15496 H 1484.62 2.39433 -4.6666 0
M  V30 15497 H 1486.09 3.91748 -3.88893 0
M  V30 15498 H 1486.57 3.80327 -2.19654 0
M  V30 15499 H 1487.18 2.60441 -3.3623 0
M  V30 15500 N 1485.49 1.41566 0.692592 0
M  V30 15501 C 1486.42 1.46423 1.81886 0
M  V30 15502 C 1487.4 0.32258 1.67013 0
M  V30 15503 O 1488.59 0.534437 1.86701 0
M  V30 15504 C 1485.72 1.3486 3.20047 0
M  V30 15505 C 1484.67 2.46867 3.49629 0
M  V30 15506 C 1484 2.20369 4.87177 0
M  V30 15507 C 1485.3 3.89205 3.48306 0
M  V30 15508 H 1486.99 2.40683 1.78079 0
M  V30 15509 H 1484.54 1.15845 0.855334 0
M  V30 15510 H 1486.49 1.36869 3.98553 0
M  V30 15511 H 1485.21 0.370859 3.24488 0
M  V30 15512 H 1483.87 2.44146 2.73475 0
M  V30 15513 H 1483.52 1.20931 4.88247 0
M  V30 15514 H 1483.22 2.95426 5.07934 0
M  V30 15515 H 1484.74 2.24099 5.6799 0
M  V30 15516 H 1486.16 3.93626 4.16811 0
M  V30 15517 H 1484.56 4.63969 3.80595 0
M  V30 15518 H 1485.63 4.17144 2.47222 0
M  V30 15519 N 1486.97 -0.927146 1.27443 0
M  V30 15520 C 1488.22 -1.66941 1.13197 0
M  V30 15521 C 1488.53 -1.92939 -0.32156 0
M  V30 15522 O 1489.74 -2.65124 -0.584931 0
M  V30 15523 C 1488.19 -3.00677 1.97791 0
M  V30 15524 C 1487.8 -2.82376 3.47805 0
M  V30 15525 C 1489.54 -3.78499 1.92195 0
M  V30 15526 C 1487.45 -4.1167 4.24596 0
M  V30 15527 H 1486.38 -0.626171 0.420031 0
M  V30 15528 H 1489.03 -1.02997 1.51868 0
M  V30 15529 H 1487.41 -3.65681 1.51965 0
M  V30 15530 H 1488.59 -2.26135 4.01497 0
M  V30 15531 H 1486.9 -2.17982 3.54786 0
M  V30 15532 H 1489.5 -4.74312 2.46844 0
M  V30 15533 H 1489.84 -4.0655 0.895702 0
M  V30 15534 H 1490.38 -3.20292 2.35919 0
M  V30 15535 H 1487.12 -3.88798 5.27747 0
M  V30 15536 H 1486.64 -4.67573 3.75681 0
M  V30 15537 H 1488.31 -4.80028 4.338 0
M  V30 15538 N 1488.45 -1.09474 -1.13372 0
M  V30 15539 C 1489.36 -0.746674 -2.224 0
M  V30 15540 C 1490.37 0.251572 -1.72172 0
M  V30 15541 O 1491.55 0.092793 -2.01186 0
M  V30 15542 C 1488.61 -0.172965 -3.46268 0
M  V30 15543 C 1487.67 -1.22722 -4.11385 0
M  V30 15544 C 1486.91 -0.680794 -5.2934 0
M  V30 15545 O 1487.13 0.496135 -5.68238 0
M  V30 15546 O 1486.06 -1.43605 -5.84518 0
M  V30 15547 H 1489.89 -1.65649 -2.54547 0
M  V30 15548 H 1487.48 -0.869172 -1.21514 0
M  V30 15549 H 1489.36 0.143629 -4.21155 0
M  V30 15550 H 1488.03 0.709853 -3.15821 0
M  V30 15551 H 1486.94 -1.59652 -3.38323 0
M  V30 15552 H 1488.27 -2.0827 -4.45965 0
M  V30 15553 N 1489.92 1.30607 -0.882012 0
M  V30 15554 C 1490.85 2.30666 -0.362706 0
M  V30 15555 C 1491.84 1.60865 0.552861 0
M  V30 15556 O 1493.02 1.88493 0.467339 0
M  V30 15557 C 1490.15 3.44675 0.42622 0
M  V30 15558 C 1489.1 4.26152 -0.397322 0
M  V30 15559 C 1488.43 5.32185 0.518027 0
M  V30 15560 C 1489.73 4.95955 -1.63785 0
M  V30 15561 H 1491.42 2.74351 -1.19883 0
M  V30 15562 H 1488.97 1.31895 -0.577912 0
M  V30 15563 H 1490.92 4.13734 0.80013 0
M  V30 15564 H 1489.65 2.99787 1.29597 0
M  V30 15565 H 1488.31 3.58776 -0.753332 0
M  V30 15566 H 1487.95 4.83545 1.3854 0
M  V30 15567 H 1487.65 5.87593 -0.0291802 0
M  V30 15568 H 1489.18 6.04101 0.888518 0
M  V30 15569 H 1490.59 5.57547 -1.3347 0
M  V30 15570 H 1488.99 5.61215 -2.12504 0
M  V30 15571 H 1490.06 4.22252 -2.38394 0
M  V30 15572 N 1491.4 0.642663 1.43901 0
M  V30 15573 C 1492.68 0.0821715 1.95427 0
M  V30 15574 C 1493.06 -1.3951 1.58431 0
M  V30 15575 O 1492.41 -2.11531 0.864118 0
M  V30 15576 C 1492.62 0.317229 3.47555 0
M  V30 15577 C 1493.97 0.216547 4.24047 0
M  V30 15578 O 1494.99 0.249216 3.55327 0
M  V30 15579 O 1493.85 0.131269 5.46342 0
M  V30 15580 H 1490.94 -0.0156936 0.826851 0
M  V30 15581 H 1493.49 0.715168 1.53894 0
M  V30 15582 H 1492.26 1.34184 3.67574 0
M  V30 15583 H 1491.88 -0.349348 3.96062 0
M  V30 15584 N 1492.88 -1.52852 0.383918 0
M  V30 15585 C 1494.16 -1.939 -0.25729 0
M  V30 15586 C 1494.54 -1.31895 -1.64824 0
M  V30 15587 O 1493.89 -0.484987 -2.23294 0
M  V30 15588 C 1494.1 -3.47801 -0.289064 0
M  V30 15589 C 1495.44 -4.21396 -0.520611 0
M  V30 15590 O 1496.47 -3.54278 -0.369502 0
M  V30 15591 O 1495.33 -5.4037 -0.816254 0
M  V30 15592 H 1492.42 -0.811658 -0.158558 0
M  V30 15593 H 1494.97 -1.63949 0.438034 0
M  V30 15594 H 1493.74 -3.8525 0.685441 0
M  V30 15595 H 1493.36 -3.8404 -1.02953 0
M  V30 15596 N 1494.36 -0.113586 -1.5719 0
M  V30 15597 C 1495.61 0.54572 -1.95008 0
M  V30 15598 C 1495.93 1.67031 -0.996541 0
M  V30 15599 O 1495.19 1.9569 -0.0194353 0
M  V30 15600 C 1495.49 1.1238 -3.39272 0
M  V30 15601 C 1495.15 0.12112 -4.50737 0
M  V30 15602 C 1493.82 -0.154607 -4.80952 0
M  V30 15603 C 1496.17 -0.562502 -5.18156 0
M  V30 15604 C 1493.5 -1.12033 -5.75904 0
M  V30 15605 C 1495.85 -1.51682 -6.14146 0
M  V30 15606 C 1494.51 -1.80059 -6.42756 0
M  V30 15607 H 1493.78 0.199693 -0.713585 0
M  V30 15608 H 1496.43 -0.193344 -1.90521 0
M  V30 15609 H 1494.73 1.93951 -3.40426 0
M  V30 15610 H 1496.43 1.64195 -3.65843 0
M  V30 15611 H 1493.02 0.34621 -4.27199 0
M  V30 15612 H 1497.21 -0.362645 -4.94973 0
M  V30 15613 H 1492.46 -1.34699 -5.96377 0
M  V30 15614 H 1496.64 -2.05225 -6.65474 0
M  V30 15615 H 1494.26 -2.55046 -7.16139 0
M  V30 15616 N 1495.84 1.56784 0.160173 0
M  V30 15617 C 1496.8 1.96373 1.18195 0
M  V30 15618 C 1497.8 0.848674 1.3658 0
M  V30 15619 O 1498.99 1.11553 1.33796 0
M  V30 15620 C 1496.12 2.26824 2.54487 0
M  V30 15621 H 1497.32 2.87819 0.842641 0
M  V30 15622 H 1494.87 1.51014 0.403038 0
M  V30 15623 H 1495.6 1.38129 2.93413 0
M  V30 15624 H 1495.39 3.08112 2.42507 0
M  V30 15625 H 1496.88 2.58337 3.28104 0
M  V30 15626 N 1497.32 -0.429099 1.51646 0
M  V30 15627 C 1498.23 -1.54648 1.76412 0
M  V30 15628 C 1499.24 -1.61455 0.648703 0
M  V30 15629 O 1500.42 -1.78544 0.931888 0
M  V30 15630 C 1497.48 -2.90562 1.89142 0
M  V30 15631 C 1496.54 -2.93804 3.13014 0
M  V30 15632 C 1495.78 -4.23235 3.25127 0
M  V30 15633 O 1496 -5.1606 2.42979 0
M  V30 15634 O 1494.93 -4.32929 4.18158 0
M  V30 15635 H 1498.76 -1.36661 2.71215 0
M  V30 15636 H 1496.34 -0.612946 1.36247 0
M  V30 15637 H 1498.23 -3.7121 1.99453 0
M  V30 15638 H 1496.9 -3.08659 0.975272 0
M  V30 15639 H 1495.81 -2.12082 3.08175 0
M  V30 15640 H 1497.14 -2.80654 4.04344 0
M  V30 15641 N 1498.79 -1.41931 -0.685074 0
M  V30 15642 C 1499.72 -1.47385 -1.81107 0
M  V30 15643 C 1500.7 -0.331433 -1.6684 0
M  V30 15644 O 1501.89 -0.544331 -1.86415 0
M  V30 15645 C 1499.02 -1.36555 -3.19327 0
M  V30 15646 C 1497.97 -2.48718 -3.48315 0
M  V30 15647 C 1497.3 -2.2295 -4.86002 0
M  V30 15648 C 1498.6 -3.91047 -3.46237 0
M  V30 15649 H 1500.29 -2.41624 -1.768 0
M  V30 15650 H 1497.84 -1.16297 -0.849178 0
M  V30 15651 H 1499.79 -1.38981 -3.97822 0
M  V30 15652 H 1498.52 -0.388063 -3.24286 0
M  V30 15653 H 1497.18 -2.45592 -2.72176 0
M  V30 15654 H 1496.82 -1.23518 -4.87598 0
M  V30 15655 H 1496.52 -2.98116 -5.0636 0
M  V30 15656 H 1498.05 -2.27108 -5.66793 0
M  V30 15657 H 1499.46 -3.95831 -4.14718 0
M  V30 15658 H 1497.86 -4.65981 -3.7813 0
M  V30 15659 H 1498.93 -4.1845 -2.45006 0
M  V30 15660 N 1500.27 0.920374 -1.27933 0
M  V30 15661 C 1501.2 2.02644 -1.07089 0
M  V30 15662 C 1502.22 1.62781 -0.024674 0
M  V30 15663 O 1503.41 1.76491 -0.267023 0
M  V30 15664 C 1500.51 3.33476 -0.603919 0
M  V30 15665 C 1499.68 4.01988 -1.72407 0
M  V30 15666 C 1498.74 5.11098 -1.25159 0
M  V30 15667 O 1497.76 5.3466 -1.95261 0
M  V30 15668 N 1498.97 5.80393 -0.111197 0
M  V30 15669 H 1501.73 2.21085 -2.0234 0
M  V30 15670 H 1499.29 1.09124 -1.19597 0
M  V30 15671 H 1501.28 4.03788 -0.271579 0
M  V30 15672 H 1499.85 3.11554 0.255557 0
M  V30 15673 H 1499.07 3.25312 -2.22633 0
M  V30 15674 H 1500.36 4.4451 -2.47566 0
M  V30 15675 H 1499.76 5.63713 0.473746 0
M  V30 15676 H 1498.32 6.51599 0.161912 0
M  V30 15677 N 1501.75 1.10074 1.1279 0
M  V30 15678 C 1502.7 0.746173 2.18405 0
M  V30 15679 C 1503.67 -0.275751 1.63795 0
M  V30 15680 O 1504.85 -0.155876 1.90162 0
M  V30 15681 C 1501.99 0.180105 3.4463 0
M  V30 15682 C 1501.1 1.25688 4.13312 0
M  V30 15683 C 1500.24 0.652852 5.27173 0
M  V30 15684 C 1499.28 1.71046 5.87716 0
M  V30 15685 N 1498.42 1.12698 6.92996 0
M  V30 15686 H 1503.26 1.65105 2.48081 0
M  V30 15687 H 1500.79 0.824768 1.21803 0
M  V30 15688 H 1502.75 -0.165948 4.1687 0
M  V30 15689 H 1501.38 -0.688014 3.15383 0
M  V30 15690 H 1500.43 1.72011 3.39288 0
M  V30 15691 H 1501.74 2.05762 4.54382 0
M  V30 15692 H 1500.9 0.25603 6.0616 0
M  V30 15693 H 1499.64 -0.17937 4.8737 0
M  V30 15694 H 1498.64 2.11676 5.07418 0
M  V30 15695 H 1499.87 2.54547 6.29589 0
M  V30 15696 H 1497.81 0.316154 6.55238 0
M  V30 15697 H 1497.73 1.86461 7.32645 0
M  V30 15698 H 1499 0.756582 7.7582 0
M  V30 15699 N 1503.23 -1.30138 0.888926 0
M  V30 15700 C 1504.14 -2.31778 0.3628 0
M  V30 15701 C 1505.15 -1.65507 -0.53698 0
M  V30 15702 O 1506.33 -1.96775 -0.429152 0
M  V30 15703 C 1503.39 -3.44259 -0.410673 0
M  V30 15704 C 1502.46 -4.26147 0.519334 0
M  V30 15705 C 1501.69 -5.33257 -0.21732 0
M  V30 15706 O 1501.91 -5.5185 -1.44284 0
M  V30 15707 O 1500.85 -6.00329 0.43461 0
M  V30 15708 H 1504.67 -2.78739 1.20575 0
M  V30 15709 H 1502.26 -1.34379 0.65289 0
M  V30 15710 H 1504.14 -4.1277 -0.848467 0
M  V30 15711 H 1502.81 -2.99426 -1.22986 0
M  V30 15712 H 1501.72 -3.60319 1.00602 0
M  V30 15713 H 1503.05 -4.74595 1.30464 0
M  V30 15714 N 1504.71 -0.650285 -1.43559 0
M  V30 15715 C 1505.95 -0.162725 -2.02146 0
M  V30 15716 C 1506.28 1.21911 -1.51166 0
M  V30 15717 O 1505.56 1.81329 -0.703563 0
M  V30 15718 C 1505.84 -0.170356 -3.59697 0
M  V30 15719 C 1505.7 -1.5859 -4.20915 0
M  V30 15720 C 1507.01 0.494831 -4.37309 0
M  V30 15721 H 1504.13 -0.0606055 -0.734504 0
M  V30 15722 H 1506.78 -0.830411 -1.70892 0
M  V30 15723 H 1504.93 0.39819 -3.86454 0
M  V30 15724 H 1506.6 -2.20481 -4.05199 0
M  V30 15725 H 1504.84 -2.13407 -3.77677 0
M  V30 15726 H 1505.51 -1.54312 -5.29992 0
M  V30 15727 H 1507.99 0.0111281 -4.16099 0
M  V30 15728 H 1506.86 0.458753 -5.4698 0
M  V30 15729 H 1507.12 1.56846 -4.13342 0
M  V30 15730 N 1506.18 1.52647 -0.392018 0
M  V30 15731 C 1507.43 2.01613 0.1893 0
M  V30 15732 C 1507.76 1.27837 1.46588 0
M  V30 15733 O 1507.01 0.368018 1.92209 0
M  V30 15734 C 1507.31 3.53872 0.500914 0
M  V30 15735 C 1506.98 4.45675 -0.684434 0
M  V30 15736 C 1505.64 4.70489 -1.00961 0
M  V30 15737 C 1507.99 4.99825 -1.4773 0
M  V30 15738 C 1505.32 5.46703 -2.12915 0
M  V30 15739 C 1507.67 5.77263 -2.58747 0
M  V30 15740 C 1506.34 6.00355 -2.9177 0
M  V30 15741 H 1505.61 0.737755 0.0692697 0
M  V30 15742 H 1508.25 1.84022 -0.529924 0
M  V30 15743 H 1506.56 3.69551 1.3015 0
M  V30 15744 H 1508.26 3.89256 0.963382 0
M  V30 15745 H 1504.85 4.26527 -0.420985 0
M  V30 15746 H 1509.03 4.80577 -1.23932 0
M  V30 15747 H 1504.29 5.62807 -2.38868 0
M  V30 15748 H 1508.46 6.18223 -3.20583 0
M  V30 15749 H 1506.09 6.59194 -3.7864 0
M  V30 15750 N 1507.66 0.121921 1.57128 0
M  V30 15751 C 1508.91 -0.534313 1.94909 0
M  V30 15752 C 1509.23 -1.67029 1.0063 0
M  V30 15753 O 1508.5 -1.95798 0.0631366 0
M  V30 15754 H 1507.08 -0.200372 0.719625 0
M  V30 15755 H 1509.74 0.191546 1.93956 0
M  V30 15756 H 1508.84 -0.926974 2.98016 0
M  V30 15757 N 1509.14 -1.56867 -0.151857 0
M  V30 15758 C 1510.55 -1.72573 -0.712411 0
M  V30 15759 C 1510.9 -0.735557 -1.8189 0
M  V30 15760 O 1510.03 0.09888 -2.16174 0
M  V30 15761 C 1510.62 -3.12906 -1.29905 0
M  V30 15762 C 1509.18 -3.30231 -1.80623 0
M  V30 15763 C 1508.33 -2.68507 -0.692781 0
M  V30 15764 H 1511.28 -1.58528 0.0737603 0
M  V30 15765 H 1511.3 -3.12636 -2.16885 0
M  V30 15766 H 1510.81 -3.84949 -0.493509 0
M  V30 15767 H 1508.91 -2.63176 -2.6376 0
M  V30 15768 H 1509.03 -4.38141 -1.93828 0
M  V30 15769 H 1507.39 -2.28842 -1.11818 0
M  V30 15770 H 1508.17 -3.43151 0.10124 0
M  V30 15771 N 1510.62 0.421051 -1.51871 0
M  V30 15772 C 1511.86 1.17082 -1.65589 0
M  V30 15773 C 1512.2 1.90469 -0.378861 0
M  V30 15774 O 1511.47 1.84277 0.622259 0
M  V30 15775 C 1511.76 2.17483 -2.87007 0
M  V30 15776 C 1511.61 1.48071 -4.24729 0
M  V30 15777 C 1512.93 3.18288 -3.03942 0
M  V30 15778 H 1510.05 0.424284 -0.602621 0
M  V30 15779 H 1512.69 0.457998 -1.84397 0
M  V30 15780 H 1510.84 2.78273 -2.71102 0
M  V30 15781 H 1512.51 0.904926 -4.52337 0
M  V30 15782 H 1510.75 0.782814 -4.26678 0
M  V30 15783 H 1511.42 2.21272 -5.0571 0
M  V30 15784 H 1513.9 2.67565 -3.18666 0
M  V30 15785 H 1512.78 3.85815 -3.90433 0
M  V30 15786 H 1513.04 3.85333 -2.16728 0
M  V30 15787 N 1512.1 1.42293 0.677538 0
M  V30 15788 C 1513.03 1.48344 1.80323 0
M  V30 15789 C 1514.01 0.340276 1.66662 0
M  V30 15790 O 1515.19 0.554209 1.86124 0
M  V30 15791 C 1512.32 1.38247 3.18599 0
M  V30 15792 C 1511.28 2.50562 3.46991 0
M  V30 15793 C 1510.6 2.25524 4.84812 0
M  V30 15794 C 1511.9 3.92877 3.44158 0
M  V30 15795 H 1513.6 2.42558 1.75516 0
M  V30 15796 H 1511.14 1.16746 0.842999 0
M  V30 15797 H 1513.1 1.41089 3.97079 0
M  V30 15798 H 1511.82 0.405255 3.24076 0
M  V30 15799 H 1510.48 2.47032 2.7087 0
M  V30 15800 H 1510.13 1.26102 4.86937 0
M  V30 15801 H 1509.83 3.00797 5.04772 0
M  V30 15802 H 1511.35 2.3011 5.65581 0
M  V30 15803 H 1512.76 3.98024 4.12613 0
M  V30 15804 H 1511.16 4.6798 3.75653 0
M  V30 15805 H 1512.23 4.19743 2.42783 0
M  V30 15806 N 1513.57 -0.913576 1.28419 0
M  V30 15807 C 1514.52 -2.00257 1.09001 0
M  V30 15808 C 1515.51 -1.60894 0.0136118 0
M  V30 15809 O 1516.7 -1.75449 0.233769 0
M  V30 15810 C 1513.83 -3.34916 0.754073 0
M  V30 15811 C 1512.92 -3.8068 1.86932 0
M  V30 15812 N 1513.31 -3.98814 3.11096 0
M  V30 15813 C 1511.6 -4.09839 1.75921 0
M  V30 15814 C 1512.31 -4.37149 3.83765 0
M  V30 15815 N 1511.28 -4.45417 3.11616 0
M  V30 15816 H 1515.08 -2.12327 2.0321 0
M  V30 15817 H 1512.6 -1.10143 1.19341 0
M  V30 15818 H 1514.59 -4.12617 0.596035 0
M  V30 15819 H 1513.25 -3.24199 -0.180246 0
M  V30 15820 H 1514.27 -3.84729 3.46705 0
M  V30 15821 H 1510.94 -4.07757 0.896679 0
M  V30 15822 H 1512.33 -4.5914 4.9055 0
M  V30 15823 N 1515.05 -1.1067 -1.12204 0
M  V30 15824 C 1516.3 -0.85189 -1.8404 0
M  V30 15825 C 1516.63 0.620988 -1.84004 0
M  V30 15826 O 1515.91 1.45801 -1.28734 0
M  V30 15827 C 1516.19 -1.40401 -3.31602 0
M  V30 15828 C 1516.04 -2.94392 -3.40078 0
M  V30 15829 C 1517.36 -1.04834 -4.27432 0
M  V30 15830 H 1514.48 -0.310924 -0.668203 0
M  V30 15831 H 1517.12 -1.37026 -1.3162 0
M  V30 15832 H 1515.27 -0.963107 -3.76373 0
M  V30 15833 H 1516.94 -3.47027 -3.03924 0
M  V30 15834 H 1515.19 -3.3087 -2.80548 0
M  V30 15835 H 1515.86 -3.28107 -4.43903 0
M  V30 15836 H 1518.33 -1.42882 -3.90799 0
M  V30 15837 H 1517.21 -1.46153 -5.29085 0
M  V30 15838 H 1517.47 0.0419272 -4.4208 0
M  V30 15839 N 1516.53 1.29665 -0.895815 0
M  V30 15840 C 1517.78 1.96006 -0.520522 0
M  V30 15841 C 1518.11 1.7048 0.930068 0
M  V30 15842 O 1517.38 1.01558 1.6588 0
M  V30 15843 C 1517.67 3.50897 -0.808925 0
M  V30 15844 C 1517.52 3.85896 -2.31093 0
M  V30 15845 C 1518.84 4.39125 -0.292769 0
M  V30 15846 H 1515.96 0.711931 -0.190588 0
M  V30 15847 H 1518.6 1.53349 -1.12179 0
M  V30 15848 H 1516.75 3.87362 -0.297194 0
M  V30 15849 H 1518.42 3.59397 -2.89191 0
M  V30 15850 H 1516.67 3.33578 -2.77323 0
M  V30 15851 H 1517.34 4.93989 -2.46331 0
M  V30 15852 H 1519.81 4.0963 -0.730906 0
M  V30 15853 H 1518.69 5.46395 -0.523799 0
M  V30 15854 H 1518.95 4.34683 0.806393 0
M  V30 15855 N 1518.01 0.657889 1.43212 0
M  V30 15856 C 1519.42 0.325876 1.56238 0
M  V30 15857 C 1519.62 -1.16975 1.6407 0
M  V30 15858 O 1518.68 -1.95473 1.59833 0
M  V30 15859 C 1519.99 1.04134 2.82093 0
M  V30 15860 C 1521.54 1.02204 2.95844 0
M  V30 15861 C 1522.02 1.71849 4.24537 0
M  V30 15862 N 1523.51 1.68635 4.31412 0
M  V30 15863 C 1524.24 2.19393 5.29768 0
M  V30 15864 N 1523.74 2.7846 6.34375 0
M  V30 15865 N 1525.53 2.09866 5.21452 0
M  V30 15866 H 1517.68 1.62839 1.36371 0
M  V30 15867 H 1519.95 0.685072 0.655271 0
M  V30 15868 H 1519.65 2.09647 2.82385 0
M  V30 15869 H 1519.53 0.595842 3.72464 0
M  V30 15870 H 1521.91 -0.0247029 2.9509 0
M  V30 15871 H 1521.99 1.50627 2.06749 0
M  V30 15872 H 1521.64 2.76482 4.26052 0
M  V30 15873 H 1521.57 1.20888 5.12536 0
M  V30 15874 H 1524.06 1.25536 3.56439 0
M  V30 15875 H 1524.37 3.14855 7.05752 0
M  V30 15876 H 1522.72 2.82523 6.34985 0
M  V30 15877 H 1525.91 1.63422 4.38647 0
M  V30 15878 H 1526.08 2.49732 5.97945 0
M  V30 15879 N 1519.49 -1.52437 0.400108 0
M  V30 15880 C 1520.72 -2.05831 -0.178105 0
M  V30 15881 C 1521.12 -1.27083 -1.40166 0
M  V30 15882 O 1520.47 -0.31347 -1.81006 0
M  V30 15883 C 1520.53 -3.5442 -0.602239 0
M  V30 15884 C 1520.19 -4.54153 0.509341 0
M  V30 15885 C 1521.19 -5.01521 1.37012 0
M  V30 15886 C 1518.88 -4.97683 0.679457 0
M  V30 15887 C 1520.87 -5.91056 2.38604 0
M  V30 15888 C 1518.56 -5.87016 1.6987 0
M  V30 15889 C 1519.55 -6.33595 2.55041 0
M  V30 15890 O 1519.24 -7.21161 3.55221 0
M  V30 15891 H 1518.97 -0.675423 -0.0279209 0
M  V30 15892 H 1521.53 -1.97419 0.567013 0
M  V30 15893 H 1519.76 -3.60487 -1.3995 0
M  V30 15894 H 1521.45 -3.90503 -1.10734 0
M  V30 15895 H 1522.21 -4.68614 1.25005 0
M  V30 15896 H 1518.09 -4.60993 0.0262086 0
M  V30 15897 H 1521.64 -6.27335 3.05118 0
M  V30 15898 H 1517.53 -6.19337 1.81912 0
M  V30 15899 H 1518.3 -7.39249 3.51358 0
M  V30 15900 N 1520.96 -0.130252 -1.57061 0
M  V30 15901 C 1521.91 0.832998 -2.17173 0
M  V30 15902 C 1522.91 1.26735 -1.12403 0
M  V30 15903 O 1524.11 1.23778 -1.30686 0
M  V30 15904 H 1520.49 0.286777 -0.695171 0
M  V30 15905 H 1522.46 0.301639 -2.96872 0
M  V30 15906 C 1521.21 2.06879 -2.79457 0
M  V30 15907 H 1520.53 1.74352 -3.5978 0
M  V30 15908 H 1521.97 2.72258 -3.25041 0
M  V30 15909 C 1520.43 2.86591 -1.77108 0
M  V30 15910 O 1520.96 3.82363 -1.2313 0
M  V30 15911 N 1519.17 2.508 -1.46792 0
M  V30 15912 H 1518.71 1.72984 -1.90878 0
M  V30 15913 H 1518.67 3.04428 -0.785566 0
M  V30 15914 N 1522.44 1.56945 0.143535 0
M  V30 15915 C 1523.86 1.51688 0.496291 0
M  V30 15916 C 1524.06 0.839251 1.83191 0
M  V30 15917 O 1523.12 0.411235 2.49129 0
M  V30 15918 C 1524.43 2.96456 0.503402 0
M  V30 15919 C 1525.98 3.07414 0.588676 0
M  V30 15920 C 1526.45 4.53696 0.626416 0
M  V30 15921 N 1527.94 4.58054 0.688543 0
M  V30 15922 C 1528.68 5.68621 0.738786 0
M  V30 15923 N 1528.17 6.88748 0.748163 0
M  V30 15924 N 1529.97 5.56663 0.779931 0
M  V30 15925 H 1522.12 1.99392 -0.731901 0
M  V30 15926 H 1524.38 0.909546 -0.267263 0
M  V30 15927 H 1524.09 3.49304 -0.409845 0
M  V30 15928 H 1523.96 3.52593 1.34008 0
M  V30 15929 H 1526.35 2.54584 1.49234 0
M  V30 15930 H 1526.43 2.54315 -0.275213 0
M  V30 15931 H 1526.07 5.07165 -0.273108 0
M  V30 15932 H 1526 5.04581 1.50684 0
M  V30 15933 H 1528.49 3.71576 0.688455 0
M  V30 15934 H 1528.81 7.68767 0.788444 0
M  V30 15935 H 1527.15 6.91302 0.715982 0
M  V30 15936 H 1530.34 4.61727 0.769799 0
M  V30 15937 H 1530.52 6.42847 0.815621 0
M  V30 15938 N 1523.92 -0.412991 1.52093 0
M  V30 15939 C 1524.87 -1.52347 1.75765 0
M  V30 15940 C 1525.86 -1.57463 0.624641 0
M  V30 15941 O 1527.07 -1.60916 0.806599 0
M  V30 15942 H 1523.44 -0.50659 0.555761 0
M  V30 15943 H 1525.42 -1.29564 2.68804 0
M  V30 15944 C 1524.16 -2.89757 1.92188 0
M  V30 15945 H 1523.49 -2.86561 2.78788 0
M  V30 15946 H 1524.93 -3.66759 2.12753 0
M  V30 15947 C 1523.39 -3.29801 0.687963 0
M  V30 15948 O 1523.92 -4.01435 -0.145984 0
M  V30 15949 N 1522.12 -2.85819 0.524978 0
M  V30 15950 H 1521.67 -2.27694 1.20471 0
M  V30 15951 H 1521.63 -3.12972 -0.299325 0
M  V30 15952 N 1525.4 -1.4265 -0.669982 0
M  V30 15953 C 1526.33 -1.42457 -1.79551 0
M  V30 15954 C 1527.34 -0.322966 -1.59564 0
M  V30 15955 O 1528.53 -0.586359 -1.68594 0
M  V30 15956 C 1525.63 -1.20561 -3.16731 0
M  V30 15957 C 1524.81 -2.43246 -3.63525 0
M  V30 15958 C 1523.87 -2.16823 -4.79452 0
M  V30 15959 O 1522.89 -2.90058 -4.8975 0
M  V30 15960 N 1524.09 -1.17436 -5.68497 0
M  V30 15961 H 1526.86 -2.39474 -1.80201 0
M  V30 15962 H 1524.42 -1.37591 -0.853244 0
M  V30 15963 H 1526.41 -1.00794 -3.91947 0
M  V30 15964 H 1524.98 -0.320497 -3.10953 0
M  V30 15965 H 1524.2 -2.78549 -2.78934 0
M  V30 15966 H 1525.49 -3.24931 -3.91532 0
M  V30 15967 H 1524.89 -0.568736 -5.62834 0
M  V30 15968 H 1523.44 -1.03655 -6.43505 0
M  V30 15969 N 1526.88 0.906753 -1.28902 0
M  V30 15970 C 1527.81 2.02663 -1.15974 0
M  V30 15971 C 1528.79 1.70009 -0.0557202 0
M  V30 15972 O 1529.97 1.92786 -0.233952 0
M  V30 15973 C 1527.1 3.37283 -0.828115 0
M  V30 15974 C 1526.06 3.84123 -1.88767 0
M  V30 15975 C 1525.38 5.15787 -1.40953 0
M  V30 15976 C 1526.68 4.05217 -3.2954 0
M  V30 15977 H 1528.38 2.13738 -2.09658 0
M  V30 15978 H 1525.92 1.02699 -1.0094 0
M  V30 15979 H 1527.88 4.15127 -0.724408 0
M  V30 15980 H 1526.6 3.2628 0.14443 0
M  V30 15981 H 1525.26 3.0849 -1.98065 0
M  V30 15982 H 1524.91 5.01194 -0.425848 0
M  V30 15983 H 1524.61 5.48098 -2.11807 0
M  V30 15984 H 1526.13 5.9618 -1.31918 0
M  V30 15985 H 1527.55 4.73565 -3.23124 0
M  V30 15986 H 1525.94 4.48871 -3.9829 0
M  V30 15987 H 1527.01 3.0979 -3.73039 0
M  V30 15988 N 1528.36 1.11264 1.11616 0
M  V30 15989 C 1529.77 0.876713 1.64835 0
M  V30 15990 C 1530.12 -0.591384 1.87075 0
M  V30 15991 O 1529.24 -1.45304 1.60361 0
M  V30 15992 C 1529.84 1.58496 2.9944 0
M  V30 15993 C 1528.4 1.39551 3.49575 0
M  V30 15994 C 1527.54 1.62881 2.24422 0
M  V30 15995 H 1530.49 1.26915 0.952804 0
M  V30 15996 H 1530.52 1.02891 3.66325 0
M  V30 15997 H 1530.03 2.65344 2.83221 0
M  V30 15998 H 1528.13 0.349059 3.70961 0
M  V30 15999 H 1528.24 2.14334 4.28483 0
M  V30 16000 H 1526.61 1.05208 2.31955 0
M  V30 16001 H 1527.39 2.70999 2.10748 0
M  V30 16002 N 1529.83 -1.29188 0.902679 0
M  V30 16003 C 1530.74 -2.3138 0.387363 0
M  V30 16004 C 1531.76 -1.66067 -0.519396 0
M  V30 16005 O 1532.94 -1.97219 -0.408257 0
M  V30 16006 C 1530 -3.44675 -0.374137 0
M  V30 16007 C 1529.06 -4.25572 0.564503 0
M  V30 16008 C 1528.29 -5.33458 -0.160748 0
M  V30 16009 O 1528.52 -5.53349 -1.38423 0
M  V30 16010 O 1527.45 -5.99834 0.498259 0
M  V30 16011 H 1531.28 -2.77444 1.23525 0
M  V30 16012 H 1528.86 -1.33679 0.667106 0
M  V30 16013 H 1530.74 -4.13647 -0.80464 0
M  V30 16014 H 1529.42 -3.00714 -1.19804 0
M  V30 16015 H 1528.33 -3.59232 1.04418 0
M  V30 16016 H 1529.66 -4.73184 1.3549 0
M  V30 16017 N 1531.31 -0.665475 -1.42861 0
M  V30 16018 C 1532.24 0.00482845 -2.335 0
M  V30 16019 C 1533.22 0.799135 -1.50159 0
M  V30 16020 O 1534.41 0.75816 -1.78789 0
M  V30 16021 C 1531.54 0.963347 -3.33672 0
M  V30 16022 C 1530.49 0.278294 -4.27094 0
M  V30 16023 C 1529.82 1.34911 -5.174 0
M  V30 16024 C 1531.12 -0.836925 -5.15551 0
M  V30 16025 H 1532.81 -0.752129 -2.89799 0
M  V30 16026 H 1530.36 -0.363139 -1.39346 0
M  V30 16027 H 1532.31 1.44128 -3.95986 0
M  V30 16028 H 1531.03 1.75161 -2.75656 0
M  V30 16029 H 1529.69 -0.179314 -3.66161 0
M  V30 16030 H 1529.34 2.12912 -4.55716 0
M  V30 16031 H 1529.04 0.895919 -5.8073 0
M  V30 16032 H 1530.57 1.82816 -5.8259 0
M  V30 16033 H 1531.98 -0.440617 -5.71604 0
M  V30 16034 H 1530.38 -1.21533 -5.87665 0
M  V30 16035 H 1531.45 -1.6897 -4.54507 0
M  V30 16036 N 1532.79 1.52222 -0.408187 0
M  V30 16037 C 1534.04 2.00989 0.169252 0
M  V30 16038 C 1534.35 1.29824 1.46305 0
M  V30 16039 O 1535.56 1.69402 2.12168 0
M  V30 16040 C 1534.01 3.58173 0.352179 0
M  V30 16041 C 1533.62 4.38252 -0.929468 0
M  V30 16042 C 1535.37 4.15173 0.88496 0
M  V30 16043 C 1533.27 5.87077 -0.713781 0
M  V30 16044 H 1532.2 0.751015 0.0670261 0
M  V30 16045 H 1534.85 1.75574 -0.533487 0
M  V30 16046 H 1533.24 3.79913 1.11723 0
M  V30 16047 H 1534.41 4.28272 -1.70059 0
M  V30 16048 H 1532.72 3.92565 -1.38859 0
M  V30 16049 H 1535.32 5.2404 1.06235 0
M  V30 16050 H 1535.66 3.72468 1.85938 0
M  V30 16051 H 1536.2 3.97397 0.178995 0
M  V30 16052 H 1532.94 6.3414 -1.65974 0
M  V30 16053 H 1532.46 5.99797 0.0180631 0
M  V30 16054 H 1534.14 6.46022 -0.355596 0
M  V30 16055 N 1534.27 0.138579 1.5699 0
M  V30 16056 C 1535.18 -0.817548 2.19894 0
M  V30 16057 C 1536.19 -1.27806 1.18075 0
M  V30 16058 O 1537.37 -1.33699 1.5062 0
M  V30 16059 C 1534.43 -2.04244 2.80152 0
M  V30 16060 C 1533.5 -1.63197 3.97071 0
M  V30 16061 C 1532.73 -2.79847 4.54446 0
M  V30 16062 O 1532.95 -3.95827 4.10703 0
M  V30 16063 O 1531.89 -2.55804 5.44838 0
M  V30 16064 H 1535.71 -0.312123 3.02092 0
M  V30 16065 H 1533.3 -0.0880281 1.4914 0
M  V30 16066 H 1535.18 -2.75945 3.18485 0
M  V30 16067 H 1533.85 -2.53755 2.00973 0
M  V30 16068 H 1532.76 -0.885448 3.6347 0
M  V30 16069 H 1534.09 -1.1841 4.77745 0
M  V30 16070 N 1535.75 -1.57019 -0.13521 0
M  V30 16071 C 1536.68 -1.95769 -1.19193 0
M  V30 16072 C 1537.69 -0.854953 -1.38544 0
M  V30 16073 O 1538.88 -1.13332 -1.37906 0
M  V30 16074 C 1535.98 -2.22674 -2.55479 0
M  V30 16075 C 1535.15 -3.53972 -2.56949 0
M  V30 16076 C 1534.21 -3.69278 -3.7486 0
M  V30 16077 O 1533.24 -4.41555 -3.59191 0
M  V30 16078 N 1534.44 -3.06826 -4.92786 0
M  V30 16079 H 1537.2 -2.87022 -0.862451 0
M  V30 16080 H 1534.77 -1.58611 -0.324658 0
M  V30 16081 H 1536.76 -2.30144 -3.3289 0
M  V30 16082 H 1535.33 -1.37628 -2.80673 0
M  V30 16083 H 1534.55 -3.57836 -1.65368 0
M  V30 16084 H 1535.84 -4.40303 -2.54973 0
M  V30 16085 H 1535.23 -2.48043 -5.0842 0
M  V30 16086 H 1533.79 -3.19841 -5.67931 0
M  V30 16087 N 1537.22 0.404919 -1.52309 0
M  V30 16088 C 1538.47 1.14859 -1.65802 0
M  V30 16089 C 1538.79 1.91546 -0.396174 0
M  V30 16090 O 1539.99 2.68372 -0.410969 0
M  V30 16091 C 1538.45 2.09068 -2.92948 0
M  V30 16092 C 1538.06 1.37878 -4.26255 0
M  V30 16093 C 1539.8 2.83669 -3.15804 0
M  V30 16094 C 1537.71 2.30761 -5.44521 0
M  V30 16095 H 1536.64 0.432463 -0.61765 0
M  V30 16096 H 1539.29 0.412695 -1.78799 0
M  V30 16097 H 1537.67 2.86228 -2.7366 0
M  V30 16098 H 1538.84 0.660543 -4.56041 0
M  V30 16099 H 1537.16 0.753026 -4.09534 0
M  V30 16100 H 1539.76 3.53313 -4.0134 0
M  V30 16101 H 1540.1 3.46855 -2.30212 0
M  V30 16102 H 1540.63 2.13607 -3.35584 0
M  V30 16103 H 1537.37 1.72214 -6.32473 0
M  V30 16104 H 1536.89 3.00546 -5.19069 0
M  V30 16105 H 1538.57 2.91195 -5.77767 0
M  V30 16106 N 1538.7 1.43003 0.662408 0
M  V30 16107 C 1539.65 1.47701 1.79686 0
M  V30 16108 C 1540.64 0.351491 1.65713 0
M  V30 16109 O 1541.85 0.525071 1.72171 0
M  V30 16110 H 1538.23 0.46285 0.592684 0
M  V30 16111 H 1540.2 2.43245 1.72843 0
M  V30 16112 C 1538.95 1.40828 3.17904 0
M  V30 16113 H 1538.27 2.26736 3.29288 0
M  V30 16114 H 1539.71 1.48177 3.97265 0
M  V30 16115 C 1538.17 0.124659 3.36669 0
M  V30 16116 O 1538.7 -0.81769 3.9329 0
M  V30 16117 N 1536.9 0.0378063 2.90575 0
M  V30 16118 H 1536.45 0.805456 2.44684 0
M  V30 16119 H 1536.41 -0.820377 3.03508 0
M  V30 16120 N 1540.18 -0.899904 1.29381 0
M  V30 16121 C 1541.14 -1.98554 1.14494 0
M  V30 16122 C 1542.14 -1.60599 0.0804732 0
M  V30 16123 O 1543.33 -1.71096 0.327395 0
M  V30 16124 C 1540.47 -3.32529 0.750818 0
M  V30 16125 H 1541.66 -2.13189 2.10928 0
M  V30 16126 H 1539.21 -1.08438 1.12565 0
M  V30 16127 H 1539.95 -3.23595 -0.213668 0
M  V30 16128 H 1539.73 -3.61443 1.51992 0
M  V30 16129 H 1541.22 -4.12195 0.669709 0
M  V30 16130 N 1541.66 -1.11854 -1.11024 0
M  V30 16131 C 1542.88 -0.892999 -1.8719 0
M  V30 16132 C 1543.31 0.552058 -1.79816 0
M  V30 16133 O 1542.67 1.39025 -1.16369 0
M  V30 16134 C 1542.71 -1.3647 -3.33779 0
M  V30 16135 O 1541.82 -0.539202 -4.0886 0
M  V30 16136 H 1541.16 -0.321319 -0.581076 0
M  V30 16137 H 1543.69 -1.4891 -1.4031 0
M  V30 16138 H 1543.7 -1.3611 -3.84627 0
M  V30 16139 H 1542.37 -2.41694 -3.38462 0
M  V30 16140 H 1540.95 -0.60927 -3.67889 0
M  V30 16141 N 1543.14 1.28707 -0.909517 0
M  V30 16142 C 1544.38 1.94768 -0.539413 0
M  V30 16143 C 1544.71 1.7198 0.919133 0
M  V30 16144 O 1543.98 1.0571 1.64931 0
M  V30 16145 H 1542.56 0.720693 -0.196496 0
M  V30 16146 H 1545.22 1.56772 -1.15795 0
M  V30 16147 H 1544.31 3.03436 -0.730281 0
M  V30 16148 N 1544.61 0.673042 1.42506 0
M  V30 16149 C 1545.84 0.202628 2.05604 0
M  V30 16150 C 1546.25 -1.14466 1.50646 0
M  V30 16151 O 1545.6 -1.7218 0.6403 0
M  V30 16152 C 1545.66 0.0583637 3.59453 0
M  V30 16153 C 1545.32 1.33408 4.37094 0
M  V30 16154 C 1546.32 2.26717 4.67863 0
M  V30 16155 C 1544 1.58119 4.76764 0
M  V30 16156 C 1546 3.43014 5.37234 0
M  V30 16157 C 1543.68 2.74706 5.45875 0
M  V30 16158 C 1544.68 3.66978 5.76035 0
M  V30 16159 O 1544.37 4.81526 6.4373 0
M  V30 16160 H 1544.1 0.0964964 0.669077 0
M  V30 16161 H 1546.66 0.919656 1.83661 0
M  V30 16162 H 1544.89 -0.714227 3.80047 0
M  V30 16163 H 1546.58 -0.37195 4.04192 0
M  V30 16164 H 1547.34 2.08875 4.37717 0
M  V30 16165 H 1543.22 0.871705 4.52683 0
M  V30 16166 H 1546.76 4.15055 5.60692 0
M  V30 16167 H 1542.66 2.92474 5.75438 0
M  V30 16168 H 1543.43 4.81047 6.6222 0
M  V30 16169 N 1546.09 -1.52004 0.416254 0
M  V30 16170 C 1547.34 -2.0149 -0.15689 0
M  V30 16171 C 1547.66 -1.30343 -1.45037 0
M  V30 16172 O 1546.93 -0.431503 -1.91089 0
M  V30 16173 H 1545.51 -0.744508 -0.0609682 0
M  V30 16174 H 1548.17 -1.86857 0.55413 0
M  V30 16175 H 1547.27 -3.10155 -0.347917 0
M  V30 16176 N 1547.57 -0.146903 -1.56914 0
M  V30 16177 C 1548.5 0.788924 -2.19769 0
M  V30 16178 C 1549.48 1.25712 -1.14589 0
M  V30 16179 O 1550.67 1.3147 -1.42931 0
M  V30 16180 C 1547.8 2.02824 -2.81921 0
M  V30 16181 C 1546.75 1.69683 -3.92927 0
M  V30 16182 C 1546.08 3.00877 -4.42015 0
M  V30 16183 C 1547.38 0.943559 -5.13706 0
M  V30 16184 H 1549.07 0.265076 -2.98224 0
M  V30 16185 H 1546.62 0.126057 -1.43447 0
M  V30 16186 H 1548.57 2.68773 -3.2456 0
M  V30 16187 H 1547.29 2.57581 -2.00797 0
M  V30 16188 H 1545.95 1.06112 -3.50907 0
M  V30 16189 H 1545.6 3.53625 -3.57713 0
M  V30 16190 H 1545.3 2.79466 -5.16888 0
M  V30 16191 H 1546.82 3.67897 -4.87323 0
M  V30 16192 H 1548.24 1.50513 -5.5319 0
M  V30 16193 H 1546.64 0.829387 -5.94341 0
M  V30 16194 H 1547.71 -0.0647228 -4.84857 0
M  V30 16195 N 1549.05 1.57088 0.126881 0
M  V30 16196 C 1550.28 1.88614 0.850444 0
M  V30 16197 C 1550.69 0.737309 1.73808 0
M  V30 16198 O 1550.05 -0.292196 1.80146 0
M  V30 16199 C 1550.1 3.19541 1.69044 0
M  V30 16200 O 1549.82 4.3 0.838555 0
M  V30 16201 C 1551.32 3.64717 2.51985 0
M  V30 16202 H 1548.54 0.624715 0.244892 0
M  V30 16203 H 1551.09 2.04184 0.113634 0
M  V30 16204 H 1549.24 3.05664 2.38009 0
M  V30 16205 H 1549.65 5.04992 1.41717 0
M  V30 16206 H 1551.13 4.5911 3.06467 0
M  V30 16207 H 1551.61 2.90986 3.28974 0
M  V30 16208 H 1552.21 3.81356 1.88276 0
M  V30 16209 N 1550.53 -0.396836 1.52522 0
M  V30 16210 C 1551.46 -1.49088 1.79708 0
M  V30 16211 C 1552.44 -1.57246 0.648678 0
M  V30 16212 O 1553.62 -1.72321 0.895495 0
M  V30 16213 C 1550.75 -2.86785 1.95887 0
M  V30 16214 C 1549.71 -2.93472 3.11542 0
M  V30 16215 C 1549.03 -4.33542 3.12963 0
M  V30 16216 C 1550.33 -2.63832 4.50766 0
M  V30 16217 H 1552.03 -1.26588 2.71322 0
M  V30 16218 H 1549.57 -0.607535 1.30557 0
M  V30 16219 H 1551.53 -3.63319 2.13489 0
M  V30 16220 H 1550.25 -3.10605 1.00955 0
M  V30 16221 H 1548.91 -2.19384 2.93711 0
M  V30 16222 H 1548.56 -4.5439 2.15729 0
M  V30 16223 H 1548.26 -4.38938 3.9065 0
M  V30 16224 H 1549.78 -5.11993 3.32709 0
M  V30 16225 H 1551.19 -3.30086 4.68739 0
M  V30 16226 H 1549.59 -2.80589 5.30462 0
M  V30 16227 H 1550.66 -1.59209 4.58018 0
M  V30 16228 N 1552.01 -1.43353 -0.654814 0
M  V30 16229 C 1553.25 -1.44599 -1.41193 0
M  V30 16230 C 1553.57 -0.0707955 -1.94871 0
M  V30 16231 O 1552.84 0.893637 -1.7433 0
M  V30 16232 H 1551.42 -0.532373 -0.524011 0
M  V30 16233 H 1554.09 -1.78942 -0.772388 0
M  V30 16234 H 1553.18 -2.15761 -2.25508 0
M  V30 16235 N 1553.48 0.89303 -1.29857 0
M  V30 16236 C 1554.73 1.64657 -1.18389 0
M  V30 16237 C 1555.06 1.92417 0.262587 0
M  V30 16238 O 1554.34 1.53936 1.18887 0
M  V30 16239 C 1554.62 2.99148 -2.00456 0
M  V30 16240 C 1554.47 2.78411 -3.53281 0
M  V30 16241 C 1555.79 3.99968 -1.83613 0
M  V30 16242 H 1552.91 0.59752 -0.431438 0
M  V30 16243 H 1555.55 1.03397 -1.59402 0
M  V30 16244 H 1553.7 3.51435 -1.65607 0
M  V30 16245 H 1555.38 2.32974 -3.98147 0
M  V30 16246 H 1553.62 2.13067 -3.77869 0
M  V30 16247 H 1554.29 3.74008 -4.05983 0
M  V30 16248 H 1556.77 3.56813 -2.14064 0
M  V30 16249 H 1555.64 4.91997 -2.43373 0
M  V30 16250 H 1555.9 4.34928 -0.793098 0
M  V30 16251 N 1554.96 1.12442 1.10429 0
M  V30 16252 C 1555.91 0.761266 2.14916 0
M  V30 16253 C 1556.9 -0.239768 1.59103 0
M  V30 16254 O 1558.09 -0.045261 1.76942 0
M  V30 16255 C 1555.22 0.217596 3.4261 0
M  V30 16256 C 1554.3 1.24692 4.05355 0
M  V30 16257 N 1554.69 2.44456 4.42804 0
M  V30 16258 C 1552.99 1.09229 4.32418 0
M  V30 16259 C 1553.69 3.10186 4.92097 0
M  V30 16260 N 1552.67 2.37634 4.88908 0
M  V30 16261 H 1556.47 1.67262 2.41662 0
M  V30 16262 H 1553.98 1.0052 1.27552 0
M  V30 16263 H 1555.98 -0.0607568 4.16856 0
M  V30 16264 H 1554.64 -0.688215 3.17323 0
M  V30 16265 H 1555.65 2.81837 4.34498 0
M  V30 16266 H 1552.33 0.24379 4.16788 0
M  V30 16267 H 1553.72 4.12179 5.3062 0
M  V30 16268 N 1556.44 -1.28223 0.91633 0
M  V30 16269 C 1557.67 -1.98986 0.566772 0
M  V30 16270 C 1558.08 -1.68455 -0.852553 0
M  V30 16271 O 1557.44 -0.938734 -1.56506 0
M  V30 16272 C 1557.49 -3.53217 0.769423 0
M  V30 16273 O 1557.21 -3.82674 2.1329 0
M  V30 16274 C 1558.71 -4.41238 0.427043 0
M  V30 16275 H 1555.93 -0.63534 0.215834 0
M  V30 16276 H 1558.48 -1.63357 1.23024 0
M  V30 16277 H 1556.63 -3.87098 0.152915 0
M  V30 16278 H 1557.05 -4.77302 2.17448 0
M  V30 16279 H 1558.52 -5.48512 0.619594 0
M  V30 16280 H 1559 -4.34558 -0.63686 0
M  V30 16281 H 1559.6 -4.12858 1.0212 0
M  V30 16282 N 1557.92 -0.68059 -1.42147 0
M  V30 16283 C 1559.33 -0.350691 -1.55699 0
M  V30 16284 C 1559.53 1.1435 -1.6591 0
M  V30 16285 O 1558.59 1.92905 -1.62923 0
M  V30 16286 C 1559.9 -1.08608 -2.80401 0
M  V30 16287 C 1561.45 -1.06897 -2.9418 0
M  V30 16288 C 1561.93 -1.78581 -4.2175 0
M  V30 16289 N 1563.42 -1.75477 -4.28675 0
M  V30 16290 C 1564.15 -2.27794 -5.26211 0
M  V30 16291 N 1563.65 -2.88518 -6.29865 0
M  V30 16292 N 1565.44 -2.18135 -5.18048 0
M  V30 16293 H 1557.59 -1.64988 -1.33763 0
M  V30 16294 H 1559.85 -0.695411 -0.644289 0
M  V30 16295 H 1559.56 -2.14113 -2.79014 0
M  V30 16296 H 1559.43 -0.655022 -3.71469 0
M  V30 16297 H 1561.82 -0.0222464 -2.95092 0
M  V30 16298 H 1561.9 -1.53897 -2.04327 0
M  V30 16299 H 1561.55 -2.83225 -4.21599 0
M  V30 16300 H 1561.48 -1.29027 -5.10548 0
M  V30 16301 H 1563.97 -1.31191 -3.54397 0
M  V30 16302 H 1564.28 -3.26043 -7.00654 0
M  V30 16303 H 1562.63 -2.92589 -6.3041 0
M  V30 16304 H 1565.82 -1.7038 -4.35991 0
M  V30 16305 H 1565.99 -2.59213 -5.93896 0
M  V30 16306 N 1559.4 1.51781 -0.424309 0
M  V30 16307 C 1560.64 2.01157 0.147925 0
M  V30 16308 C 1560.96 1.31369 1.44919 0
M  V30 16309 O 1562.16 1.71643 2.10359 0
M  V30 16310 C 1560.62 3.58526 0.31417 0
M  V30 16311 C 1560.23 4.37242 -0.975898 0
M  V30 16312 C 1561.97 4.16088 0.840876 0
M  V30 16313 C 1559.88 5.86287 -0.776009 0
M  V30 16314 H 1558.81 0.751684 0.0590568 0
M  V30 16315 H 1561.46 1.74998 -0.552079 0
M  V30 16316 H 1559.84 3.81077 1.07687 0
M  V30 16317 H 1561.02 4.26444 -1.74592 0
M  V30 16318 H 1559.33 3.9107 -1.43015 0
M  V30 16319 H 1561.93 5.25138 1.0067 0
M  V30 16320 H 1562.27 3.7442 1.81977 0
M  V30 16321 H 1562.8 3.97565 0.136836 0
M  V30 16322 H 1559.54 6.32343 -1.7269 0
M  V30 16323 H 1559.06 5.99783 -0.0455544 0
M  V30 16324 H 1560.74 6.45609 -0.424095 0
M  V30 16325 N 1560.87 0.155222 1.56834 0
M  V30 16326 C 1562.15 -0.539327 1.88018 0
M  V30 16327 C 1562.53 -1.8241 1.06253 0
M  V30 16328 O 1561.88 -2.27996 0.151721 0
M  V30 16329 C 1562.09 -0.796826 3.39782 0
M  V30 16330 C 1563.44 -1.13397 4.09178 0
M  V30 16331 O 1564.46 -0.885907 3.45007 0
M  V30 16332 O 1563.32 -1.60117 5.22518 0
M  V30 16333 H 1560.41 -0.276066 0.779562 0
M  V30 16334 H 1562.96 0.192451 1.68605 0
M  V30 16335 H 1561.73 0.112097 3.91139 0
M  V30 16336 H 1561.35 -1.5825 3.6475 0
M  V30 16337 N 1562.35 -1.57153 -0.118549 0
M  V30 16338 C 1563.26 -2.03673 -1.16424 0
M  V30 16339 C 1564.28 -0.957203 -1.45305 0
M  V30 16340 O 1565.45 -1.26874 -1.56413 0
M  V30 16341 C 1562.52 -2.43211 -2.47082 0
M  V30 16342 C 1561.58 -3.65248 -2.25593 0
M  V30 16343 C 1560.81 -4.02891 -3.50021 0
M  V30 16344 O 1561.04 -3.40871 -4.57344 0
M  V30 16345 O 1559.97 -4.95989 -3.40996 0
M  V30 16346 H 1563.8 -2.92996 -0.799206 0
M  V30 16347 H 1561.38 -1.45724 -0.329376 0
M  V30 16348 H 1563.26 -2.69374 -3.24061 0
M  V30 16349 H 1561.94 -1.57034 -2.83058 0
M  V30 16350 H 1560.84 -3.44234 -1.46471 0
M  V30 16351 H 1562.18 -4.52131 -1.94521 0
M  V30 16352 N 1563.83 0.388742 -1.5273 0
M  V30 16353 C 1565.06 1.15495 -1.71664 0
M  V30 16354 C 1565.47 1.83717 -0.435127 0
M  V30 16355 O 1564.83 1.72686 0.590411 0
M  V30 16356 C 1564.88 2.20279 -2.86635 0
M  V30 16357 O 1564.6 1.54838 -4.09825 0
M  V30 16358 C 1566.1 3.09625 -3.1725 0
M  V30 16359 H 1563.32 0.346271 -0.57475 0
M  V30 16360 H 1565.87 0.454729 -1.9938 0
M  V30 16361 H 1564.02 2.85936 -2.61379 0
M  V30 16362 H 1564.44 2.24466 -4.74042 0
M  V30 16363 H 1565.91 3.79177 -4.01159 0
M  V30 16364 H 1566.39 3.73147 -2.31643 0
M  V30 16365 H 1566.99 2.49612 -3.44345 0
M  V30 16366 N 1565.31 1.43698 0.647203 0
M  V30 16367 C 1566.56 1.44918 1.40292 0
M  V30 16368 C 1566.87 0.0794243 1.95439 0
M  V30 16369 O 1568.08 -0.0309052 2.71482 0
M  V30 16370 C 1566.53 2.55052 2.53923 0
M  V30 16371 C 1566.14 3.98161 2.05357 0
M  V30 16372 C 1567.88 2.65473 3.31246 0
M  V30 16373 C 1565.79 4.99749 3.16235 0
M  V30 16374 H 1564.72 0.539106 0.527144 0
M  V30 16375 H 1567.37 1.69708 0.697951 0
M  V30 16376 H 1565.75 2.23473 3.26919 0
M  V30 16377 H 1566.93 4.3923 1.39333 0
M  V30 16378 H 1565.24 3.91839 1.40896 0
M  V30 16379 H 1567.84 3.38546 4.13873 0
M  V30 16380 H 1568.18 1.70745 3.79673 0
M  V30 16381 H 1568.72 2.96383 2.65334 0
M  V30 16382 H 1565.45 5.96051 2.7277 0
M  V30 16383 H 1564.97 4.63288 3.80952 0
M  V30 16384 H 1566.65 5.22725 3.81271 0
M  V30 16385 N 1566.79 -0.886131 1.30328 0
M  V30 16386 C 1567.75 -1.97328 1.16594 0
M  V30 16387 C 1568.75 -1.60504 0.0975023 0
M  V30 16388 O 1569.94 -1.70739 0.345524 0
M  V30 16389 C 1567.07 -3.31714 0.786045 0
M  V30 16390 H 1568.26 -2.1094 2.13177 0
M  V30 16391 H 1565.82 -1.07238 1.13708 0
M  V30 16392 H 1566.55 -3.23804 -0.179334 0
M  V30 16393 H 1566.34 -3.5981 1.55817 0
M  V30 16394 H 1567.83 -4.11461 0.71339 0
M  V30 16395 N 1568.26 -1.13026 -1.09832 0
M  V30 16396 C 1569.2 -0.761606 -2.16176 0
M  V30 16397 C 1570.21 0.214709 -1.61378 0
M  V30 16398 O 1571.4 -0.00487178 -1.78499 0
M  V30 16399 C 1568.5 -0.107513 -3.38729 0
M  V30 16400 C 1567.67 -1.11487 -4.22953 0
M  V30 16401 C 1566.73 -0.487243 -5.23939 0
M  V30 16402 O 1565.76 -1.14605 -5.57543 0
M  V30 16403 N 1566.96 0.742571 -5.75731 0
M  V30 16404 H 1569.72 -1.67669 -2.48409 0
M  V30 16405 H 1567.28 -1.0227 -1.25509 0
M  V30 16406 H 1569.28 0.324507 -4.03397 0
M  V30 16407 H 1567.85 0.710438 -3.0442 0
M  V30 16408 H 1567.07 -1.72432 -3.54487 0
M  V30 16409 H 1568.35 -1.79584 -4.76053 0
M  V30 16410 H 1567.75 1.29667 -5.50639 0
M  V30 16411 H 1566.31 1.11731 -6.42152 0
M  V30 16412 N 1569.74 1.27735 -0.923117 0
M  V30 16413 C 1570.99 1.94858 -0.56198 0
M  V30 16414 C 1571.32 1.72414 0.893698 0
M  V30 16415 O 1570.6 1.05054 1.63689 0
M  V30 16416 C 1570.88 3.49102 -0.883173 0
M  V30 16417 C 1570.73 3.80908 -2.39227 0
M  V30 16418 C 1572.05 4.38405 -0.385848 0
M  V30 16419 H 1569.17 0.707728 -0.205646 0
M  V30 16420 H 1571.81 1.50935 -1.15406 0
M  V30 16421 H 1569.96 3.86644 -0.379292 0
M  V30 16422 H 1571.63 3.53182 -2.96749 0
M  V30 16423 H 1569.88 3.2762 -2.84337 0
M  V30 16424 H 1570.55 4.88653 -2.56754 0
M  V30 16425 H 1573.02 4.07988 -0.817631 0
M  V30 16426 H 1571.9 5.45161 -0.63958 0
M  V30 16427 H 1572.16 4.36296 0.714009 0
M  V30 16428 N 1571.22 0.688118 1.41784 0
M  V30 16429 C 1572.45 0.22475 2.05676 0
M  V30 16430 C 1572.86 -1.1232 1.51755 0
M  V30 16431 O 1572.22 -1.70041 0.662735 0
M  V30 16432 C 1572.27 0.165661 3.6112 0
M  V30 16433 O 1571.99 1.46035 4.13044 0
M  V30 16434 C 1573.49 -0.319599 4.42146 0
M  V30 16435 H 1570.71 0.106135 0.662553 0
M  V30 16436 H 1573.26 0.938605 1.81688 0
M  V30 16437 H 1571.41 -0.498968 3.84173 0
M  V30 16438 H 1571.83 1.34252 5.07027 0
M  V30 16439 H 1573.3 -0.30983 5.5113 0
M  V30 16440 H 1573.78 -1.3572 4.17704 0
M  V30 16441 H 1574.38 0.313764 4.24141 0
M  V30 16442 N 1572.7 -1.51554 0.432352 0
M  V30 16443 C 1573.95 -2.01645 -0.135511 0
M  V30 16444 C 1574.27 -1.31874 -1.43647 0
M  V30 16445 O 1573.54 -0.451746 -1.9062 0
M  V30 16446 H 1572.12 -0.745113 -0.0530683 0
M  V30 16447 H 1574.78 -1.86258 0.573917 0
M  V30 16448 H 1573.88 -3.10506 -0.315001 0
M  V30 16449 N 1574.18 -0.163538 -1.56749 0
M  V30 16450 C 1575.4 0.493087 -2.01453 0
M  V30 16451 C 1575.83 1.56535 -1.043 0
M  V30 16452 O 1575.18 1.81287 -0.0213039 0
M  V30 16453 C 1575.23 1.05546 -3.44808 0
M  V30 16454 O 1574.34 2.16977 -3.50706 0
M  V30 16455 H 1573.68 0.118905 -0.653267 0
M  V30 16456 H 1576.21 -0.265139 -2.02875 0
M  V30 16457 H 1576.22 1.38002 -3.83953 0
M  V30 16458 H 1574.89 0.270333 -4.1502 0
M  V30 16459 H 1573.47 1.85625 -3.23416 0
M  V30 16460 N 1575.65 1.57214 0.110213 0
M  V30 16461 C 1576.62 2.00034 1.11888 0
M  V30 16462 C 1577.62 0.891697 1.33811 0
M  V30 16463 O 1578.81 1.15754 1.3018 0
M  V30 16464 C 1575.94 2.34806 2.47142 0
M  V30 16465 H 1577.13 2.90354 0.750647 0
M  V30 16466 H 1574.69 1.5222 0.35479 0
M  V30 16467 H 1575.42 1.47393 2.8887 0
M  V30 16468 H 1575.21 3.15671 2.32581 0
M  V30 16469 H 1576.7 2.68644 3.19719 0
M  V30 16470 N 1577.13 -0.380637 1.52934 0
M  V30 16471 C 1578.08 -1.46521 1.74687 0
M  V30 16472 C 1579.07 -1.49251 0.601087 0
M  V30 16473 O 1580.26 -1.54746 0.859224 0
M  V30 16474 C 1577.39 -2.84137 1.92668 0
M  V30 16475 C 1576.47 -2.85944 3.13204 0
M  V30 16476 N 1576.86 -2.57413 4.35399 0
M  V30 16477 C 1575.16 -3.1711 3.13619 0
M  V30 16478 C 1575.86 -2.66516 5.17053 0
M  V30 16479 N 1574.84 -3.00598 4.52926 0
M  V30 16480 H 1578.64 -1.23301 2.66785 0
M  V30 16481 H 1576.16 -0.588675 1.51355 0
M  V30 16482 H 1578.15 -3.62236 2.06376 0
M  V30 16483 H 1576.81 -3.08333 1.01789 0
M  V30 16484 H 1577.82 -2.31281 4.63389 0
M  V30 16485 H 1574.5 -3.46717 2.3258 0
M  V30 16486 H 1575.89 -2.47931 6.24484 0
M  V30 16487 N 1578.61 -1.44039 -0.639573 0
M  V30 16488 C 1579.86 -1.46594 -1.40136 0
M  V30 16489 C 1580.19 -0.0949646 -1.93968 0
M  V30 16490 O 1579.46 0.886201 -1.73138 0
M  V30 16491 C 1579.75 -2.51947 -2.57283 0
M  V30 16492 C 1579.6 -3.98371 -2.08855 0
M  V30 16493 C 1580.92 -2.53891 -3.59482 0
M  V30 16494 H 1578.04 -0.533759 -0.508203 0
M  V30 16495 H 1580.68 -1.75669 -0.723898 0
M  V30 16496 H 1578.83 -2.27285 -3.15077 0
M  V30 16497 H 1580.5 -4.34137 -1.55956 0
M  V30 16498 H 1578.75 -4.10551 -1.40109 0
M  V30 16499 H 1579.42 -4.67721 -2.93157 0
M  V30 16500 H 1581.89 -2.75906 -3.11473 0
M  V30 16501 H 1580.77 -3.29524 -4.38982 0
M  V30 16502 H 1581.03 -1.57774 -4.12989 0
M  V30 16503 N 1580.09 0.879207 -1.30796 0
M  V30 16504 C 1581.34 1.62828 -1.19715 0
M  V30 16505 C 1581.66 1.93429 0.247031 0
M  V30 16506 O 1580.93 1.57478 1.16522 0
M  V30 16507 H 1579.51 0.603607 -0.440077 0
M  V30 16508 H 1582.17 1.05309 -1.64 0
M  V30 16509 H 1581.27 2.57591 -1.76219 0
M  V30 16510 N 1581.57 1.13606 1.09231 0
M  V30 16511 C 1582.52 0.810747 2.18013 0
M  V30 16512 C 1583.51 -0.207782 1.68121 0
M  V30 16513 O 1584.72 -0.0647274 1.79884 0
M  V30 16514 H 1581.09 0.244415 0.711172 0
M  V30 16515 H 1583.06 1.73632 2.42682 0
M  V30 16516 C 1581.81 0.295302 3.46444 0
M  V30 16517 H 1581.13 1.07037 3.85205 0
M  V30 16518 H 1582.57 0.106127 4.23867 0
M  V30 16519 C 1581.03 -0.979398 3.2235 0
M  V30 16520 O 1581.56 -2.05483 3.45166 0
M  V30 16521 N 1579.77 -0.911282 2.75942 0
M  V30 16522 H 1579.32 -0.035979 2.57575 0
M  V30 16523 H 1579.27 -1.76476 2.60199 0
M  V30 16524 N 1583.05 -1.27244 0.929878 0
M  V30 16525 C 1583.98 -2.29161 0.448066 0
M  V30 16526 C 1584.96 -1.62806 -0.492776 0
M  V30 16527 O 1586.14 -1.90098 -0.39706 0
M  V30 16528 C 1583.27 -3.46019 -0.298002 0
M  V30 16529 C 1582.23 -4.24384 0.555211 0
M  V30 16530 C 1581.55 -5.33741 -0.320153 0
M  V30 16531 C 1582.85 -4.89535 1.8208 0
M  V30 16532 H 1584.55 -2.69712 1.29983 0
M  V30 16533 H 1582.09 -1.29659 0.626466 0
M  V30 16534 H 1584.04 -4.16419 -0.646024 0
M  V30 16535 H 1582.77 -3.0439 -1.18381 0
M  V30 16536 H 1581.43 -3.55733 0.885971 0
M  V30 16537 H 1581.08 -4.88354 -1.20498 0
M  V30 16538 H 1580.78 -5.8708 0.247241 0
M  V30 16539 H 1582.3 -6.06982 -0.663697 0
M  V30 16540 H 1583.71 -5.52209 1.54071 0
M  V30 16541 H 1582.11 -5.52941 2.33186 0
M  V30 16542 H 1583.18 -4.13113 2.53901 0
M  V30 16543 N 1584.52 -0.695628 -1.41417 0
M  V30 16544 C 1585.75 -0.235312 -2.05256 0
M  V30 16545 C 1586.16 1.12055 -1.52448 0
M  V30 16546 O 1585.5 1.71139 -0.667612 0
M  V30 16547 C 1585.57 -0.115542 -3.59314 0
M  V30 16548 C 1585.23 -1.40345 -4.34916 0
M  V30 16549 C 1586.23 -2.34131 -4.64197 0
M  V30 16550 C 1583.91 -1.65684 -4.74188 0
M  V30 16551 C 1585.91 -3.51518 -5.31709 0
M  V30 16552 C 1583.59 -2.83355 -5.41436 0
M  V30 16553 C 1584.59 -3.76095 -5.70124 0
M  V30 16554 O 1584.28 -4.91706 -6.35988 0
M  V30 16555 H 1584.01 -0.107129 -0.667457 0
M  V30 16556 H 1586.57 -0.948759 -1.82175 0
M  V30 16557 H 1584.8 0.653675 -3.81135 0
M  V30 16558 H 1586.48 0.307599 -4.04733 0
M  V30 16559 H 1587.25 -2.15812 -4.34339 0
M  V30 16560 H 1583.13 -0.943613 -4.51239 0
M  V30 16561 H 1586.67 -4.23923 -5.54017 0
M  V30 16562 H 1582.57 -3.01591 -5.70713 0
M  V30 16563 H 1583.34 -4.91522 -6.54484 0
M  V30 16564 N 1586 1.51322 -0.440383 0
M  V30 16565 C 1587.25 2.02413 0.125248 0
M  V30 16566 C 1587.58 1.32374 1.42094 0
M  V30 16567 O 1586.86 0.439624 1.89467 0
M  V30 16568 C 1587.14 3.58483 0.340858 0
M  V30 16569 C 1586.99 4.39134 -0.973701 0
M  V30 16570 C 1588.31 4.25891 1.10927 0
M  V30 16571 H 1585.43 0.735683 0.0440452 0
M  V30 16572 H 1588.07 1.80932 -0.579976 0
M  V30 16573 H 1586.22 3.76917 0.941572 0
M  V30 16574 H 1587.89 4.32343 -1.60863 0
M  V30 16575 H 1586.14 4.04097 -1.57759 0
M  V30 16576 H 1586.81 5.46506 -0.776845 0
M  V30 16577 H 1589.28 4.11746 0.600403 0
M  V30 16578 H 1588.16 5.34967 1.2289 0
M  V30 16579 H 1588.42 3.86958 2.13813 0
M  V30 16580 N 1587.48 0.171848 1.5666 0
M  V30 16581 C 1588.43 -0.775125 2.19305 0
M  V30 16582 C 1589.42 -1.23711 1.15724 0
M  V30 16583 O 1590.63 -1.2027 1.33922 0
M  V30 16584 H 1587 -0.268245 0.70253 0
M  V30 16585 H 1588.97 -0.222823 2.97567 0
M  V30 16586 C 1587.72 -1.99397 2.84844 0
M  V30 16587 H 1587.05 -1.64752 3.64276 0
M  V30 16588 H 1588.49 -2.63545 3.32145 0
M  V30 16589 C 1586.94 -2.81794 1.84645 0
M  V30 16590 O 1587.47 -3.78964 1.33225 0
M  V30 16591 N 1585.68 -2.4682 1.5339 0
M  V30 16592 H 1585.23 -1.67862 1.95397 0
M  V30 16593 H 1585.19 -3.02238 0.866004 0
M  V30 16594 N 1588.96 -1.5727 -0.101874 0
M  V30 16595 C 1590.37 -1.5295 -0.455899 0
M  V30 16596 C 1590.57 -0.887526 -1.80901 0
M  V30 16597 O 1589.63 -0.477143 -2.47951 0
M  V30 16598 C 1590.94 -2.97687 -0.424625 0
M  V30 16599 C 1592.49 -3.08867 -0.506963 0
M  V30 16600 C 1592.97 -4.55197 -0.505907 0
M  V30 16601 N 1594.46 -4.59718 -0.566856 0
M  V30 16602 C 1595.19 -5.7038 -0.587766 0
M  V30 16603 N 1594.69 -6.9049 -0.56529 0
M  V30 16604 N 1596.48 -5.58535 -0.632067 0
M  V30 16605 H 1588.63 -1.97381 0.784509 0
M  V30 16606 H 1590.89 -0.902141 0.291284 0
M  V30 16607 H 1590.6 -3.48094 0.502312 0
M  V30 16608 H 1590.47 -3.56022 -1.24612 0
M  V30 16609 H 1592.86 -2.58451 -1.42432 0
M  V30 16610 H 1592.94 -2.53496 0.342544 0
M  V30 16611 H 1592.59 -5.06263 0.407477 0
M  V30 16612 H 1592.52 -5.08399 -1.37253 0
M  V30 16613 H 1595.01 -3.73271 -0.589696 0
M  V30 16614 H 1595.32 -7.70588 -0.584342 0
M  V30 16615 H 1593.67 -6.92957 -0.532444 0
M  V30 16616 H 1596.86 -4.63606 -0.647109 0
M  V30 16617 H 1597.03 -6.44783 -0.644895 0
M  V30 16618 N 1590.44 0.372521 -1.53134 0
M  V30 16619 C 1591.38 1.47633 -1.79742 0
M  V30 16620 C 1592.38 1.55752 -0.66617 0
M  V30 16621 O 1593.58 1.58721 -0.848979 0
M  V30 16622 H 1589.96 0.491677 -0.568997 0
M  V30 16623 H 1591.93 1.22392 -2.72145 0
M  V30 16624 C 1590.68 2.84559 -1.99803 0
M  V30 16625 H 1590 2.79069 -2.86288 0
M  V30 16626 H 1591.44 3.60989 -2.22402 0
M  V30 16627 C 1589.9 3.27861 -0.775162 0
M  V30 16628 O 1590.43 4.01681 0.0394991 0
M  V30 16629 N 1588.64 2.84326 -0.600573 0
M  V30 16630 H 1588.18 2.2442 -1.26466 0
M  V30 16631 H 1588.14 3.13655 0.216241 0
M  V30 16632 N 1591.91 1.44376 0.631925 0
M  V30 16633 C 1592.85 1.45649 1.75675 0
M  V30 16634 C 1593.82 0.31542 1.59511 0
M  V30 16635 O 1595.01 0.512271 1.81406 0
M  V30 16636 C 1592.14 1.2884 3.13238 0
M  V30 16637 C 1591.18 2.46499 3.48053 0
M  V30 16638 S 1592.01 4.0903 3.45622 0
M  V30 16639 C 1593.17 3.94643 4.85807 0
M  V30 16640 H 1593.4 2.40825 1.74328 0
M  V30 16641 H 1590.94 1.31664 0.806467 0
M  V30 16642 H 1592.89 1.19829 3.92621 0
M  V30 16643 H 1591.56 0.351754 3.12124 0
M  V30 16644 H 1590.75 2.30599 4.48152 0
M  V30 16645 H 1590.35 2.52245 2.76131 0
M  V30 16646 H 1592.64 3.58283 5.75012 0
M  V30 16647 H 1593.59 4.94569 5.06761 0
M  V30 16648 H 1593.99 3.26717 4.60343 0
M  V30 16649 N 1593.39 -0.872258 1.31261 0
M  V30 16650 C 1594.64 -1.62752 1.20994 0
M  V30 16651 C 1594.97 -1.9281 -0.231942 0
M  V30 16652 O 1594.25 -1.55808 -1.16423 0
M  V30 16653 C 1594.53 -2.95921 2.0519 0
M  V30 16654 C 1594.38 -2.72756 3.57665 0
M  V30 16655 C 1595.7 -3.96996 1.89953 0
M  V30 16656 H 1592.82 -0.590581 0.440889 0
M  V30 16657 H 1595.46 -1.00848 1.61027 0
M  V30 16658 H 1593.61 -3.48756 1.71177 0
M  V30 16659 H 1595.28 -2.26611 4.01803 0
M  V30 16660 H 1593.53 -2.07029 3.81211 0
M  V30 16661 H 1594.2 -3.67502 4.11882 0
M  V30 16662 H 1596.67 -3.53363 2.19713 0
M  V30 16663 H 1595.55 -4.88063 2.51169 0
M  V30 16664 H 1595.81 -4.33611 0.862191 0
M  V30 16665 N 1594.87 -1.14184 -1.08627 0
M  V30 16666 C 1596.12 -0.906869 -1.80611 0
M  V30 16667 C 1596.44 0.568182 -1.86539 0
M  V30 16668 O 1595.71 1.41301 -1.35687 0
M  V30 16669 H 1594.29 -0.332523 -0.668908 0
M  V30 16670 H 1596.95 -1.43998 -1.31341 0
M  V30 16671 H 1596.05 -1.30484 -2.83514 0
M  V30 16672 N 1596.35 1.26749 -0.936613 0
M  V30 16673 C 1597.31 2.24794 -0.447243 0
M  V30 16674 C 1598.31 1.54688 0.439135 0
M  V30 16675 O 1599.5 1.72553 0.238957 0
M  V30 16676 C 1596.63 3.39036 0.355958 0
M  V30 16677 H 1597.83 2.696 -1.31361 0
M  V30 16678 H 1595.38 1.38825 -0.718143 0
M  V30 16679 H 1596.11 2.99625 1.24077 0
M  V30 16680 H 1595.9 3.91101 -0.279691 0
M  V30 16681 H 1597.39 4.11887 0.688421 0
M  V30 16682 N 1597.83 0.703118 1.41046 0
M  V30 16683 C 1599.07 0.237638 2.01403 0
M  V30 16684 C 1599.41 -1.16217 1.55587 0
M  V30 16685 O 1598.68 -1.78593 0.770377 0
M  V30 16686 C 1598.96 0.303738 3.58817 0
M  V30 16687 C 1598.82 1.74103 4.14739 0
M  V30 16688 C 1600.14 -0.332186 4.38845 0
M  V30 16689 H 1597.25 0.0878243 0.731749 0
M  V30 16690 H 1599.9 0.893264 1.67693 0
M  V30 16691 H 1598.05 -0.254485 3.87666 0
M  V30 16692 H 1599.72 2.35368 3.96736 0
M  V30 16693 H 1597.96 2.27277 3.69496 0
M  V30 16694 H 1598.63 1.73876 5.239 0
M  V30 16695 H 1601.11 0.143312 4.15853 0
M  V30 16696 H 1599.98 -0.255429 5.48305 0
M  V30 16697 H 1600.25 -1.41397 4.18878 0
M  V30 16698 N 1599.3 -1.51086 0.448402 0
M  V30 16699 C 1600.55 -2.02476 -0.114511 0
M  V30 16700 C 1600.88 -1.33126 -1.4139 0
M  V30 16701 O 1600.16 -0.449665 -1.89231 0
M  V30 16702 C 1600.44 -3.58659 -0.321842 0
M  V30 16703 C 1600.29 -4.38612 0.996975 0
M  V30 16704 C 1601.61 -4.26473 -1.08667 0
M  V30 16705 H 1598.73 -0.735906 -0.0401431 0
M  V30 16706 H 1601.37 -1.80622 0.589563 0
M  V30 16707 H 1599.52 -3.77411 -0.92157 0
M  V30 16708 H 1601.2 -4.31484 1.63154 0
M  V30 16709 H 1599.44 -4.03255 1.599 0
M  V30 16710 H 1600.11 -5.46087 0.805817 0
M  V30 16711 H 1602.59 -4.12058 -0.578559 0
M  V30 16712 H 1601.46 -5.35611 -1.20051 0
M  V30 16713 H 1601.72 -3.88086 -2.11758 0
M  V30 16714 N 1600.78 -0.180154 -1.56567 0
M  V30 16715 C 1602.03 0.461606 -1.96758 0
M  V30 16716 C 1602.35 1.63179 -1.0676 0
M  V30 16717 O 1601.62 1.95429 -0.135762 0
M  V30 16718 H 1600.2 0.173526 -0.726566 0
M  V30 16719 H 1602.86 -0.2634 -1.93112 0
M  V30 16720 H 1601.96 0.815729 -3.01251 0
M  V30 16721 N 1602.26 1.57322 0.0935319 0
M  V30 16722 C 1603.51 1.86443 0.797919 0
M  V30 16723 C 1603.84 0.769491 1.78304 0
M  V30 16724 O 1603.11 -0.222383 1.93225 0
M  V30 16725 C 1603.4 3.26201 1.52528 0
M  V30 16726 C 1603.25 4.46325 0.558031 0
M  V30 16727 C 1604.57 3.63879 2.47548 0
M  V30 16728 H 1601.69 0.678136 0.288618 0
M  V30 16729 H 1604.33 1.899 0.0615161 0
M  V30 16730 H 1602.48 3.23385 2.15301 0
M  V30 16731 H 1604.15 4.61257 -0.0628154 0
M  V30 16732 H 1602.4 4.3361 -0.128462 0
M  V30 16733 H 1603.07 5.40845 1.10413 0
M  V30 16734 H 1605.54 3.6765 1.94866 0
M  V30 16735 H 1604.42 4.62598 2.95456 0
M  V30 16736 H 1604.68 2.92647 3.31376 0
M  V30 16737 N 1603.74 -0.364395 1.53329 0
M  V30 16738 C 1604.67 -1.46658 1.76137 0
M  V30 16739 C 1605.68 -1.496 0.642166 0
M  V30 16740 O 1606.87 -1.53058 0.918452 0
M  V30 16741 C 1603.97 -2.85417 1.8273 0
M  V30 16742 C 1603.15 -3.06158 3.12388 0
M  V30 16743 C 1602.2 -4.25038 3.10208 0
M  V30 16744 O 1601.23 -4.20156 3.84002 0
M  V30 16745 N 1602.43 -5.32511 2.31111 0
M  V30 16746 H 1605.2 -1.27471 2.7124 0
M  V30 16747 H 1602.76 -0.554127 1.52122 0
M  V30 16748 H 1604.75 -3.63086 1.78748 0
M  V30 16749 H 1603.32 -2.97845 0.949058 0
M  V30 16750 H 1602.54 -2.16139 3.29663 0
M  V30 16751 H 1603.83 -3.16885 3.98072 0
M  V30 16752 H 1603.23 -5.39341 1.70669 0
M  V30 16753 H 1601.78 -6.08752 2.32946 0
M  V30 16754 N 1605.22 -1.44709 -0.62426 0
M  V30 16755 C 1606.63 -1.42523 -1.20599 0
M  V30 16756 C 1606.98 -0.144129 -1.9567 0
M  V30 16757 O 1606.1 0.755175 -2.02796 0
M  V30 16758 C 1606.7 -2.58194 -2.19365 0
M  V30 16759 C 1605.26 -2.59181 -2.72951 0
M  V30 16760 C 1604.4 -2.34461 -1.48065 0
M  V30 16761 H 1607.36 -1.5319 -0.414532 0
M  V30 16762 H 1607.38 -2.3134 -3.02096 0
M  V30 16763 H 1606.89 -3.5142 -1.64699 0
M  V30 16764 H 1604.99 -1.69916 -3.31601 0
M  V30 16765 H 1605.1 -3.57884 -3.18521 0
M  V30 16766 H 1603.47 -1.83688 -1.76439 0
M  V30 16767 H 1604.25 -3.2981 -0.952918 0
M  V30 16768 N 1606.69 0.865285 -1.31722 0
M  V30 16769 C 1607.94 1.61868 -1.21675 0
M  V30 16770 C 1608.27 1.93206 0.223988 0
M  V30 16771 O 1607.52 1.5657 1.17407 0
M  V30 16772 C 1607.82 2.95462 -2.0109 0
M  V30 16773 C 1607.49 2.83598 -3.50547 0
M  V30 16774 C 1606.15 2.80069 -3.91299 0
M  V30 16775 C 1608.5 2.70295 -4.45635 0
M  V30 16776 C 1605.83 2.61102 -5.25398 0
M  V30 16777 C 1608.18 2.52864 -5.79864 0
M  V30 16778 C 1606.85 2.47722 -6.19831 0
M  V30 16779 H 1606.12 0.592319 -0.445241 0
M  V30 16780 H 1608.76 1.00456 -1.63036 0
M  V30 16781 H 1607.07 3.60935 -1.52424 0
M  V30 16782 H 1608.77 3.52756 -1.90693 0
M  V30 16783 H 1605.36 2.87164 -3.18175 0
M  V30 16784 H 1609.54 2.72073 -4.15078 0
M  V30 16785 H 1604.8 2.55549 -5.55432 0
M  V30 16786 H 1608.97 2.41548 -6.53167 0
M  V30 16787 H 1606.6 2.32784 -7.23682 0
M  V30 16788 N 1608.17 1.14759 1.0802 0
M  V30 16789 C 1609.42 0.916435 1.80127 0
M  V30 16790 C 1609.74 -0.558281 1.86837 0
M  V30 16791 O 1609.01 -1.40579 1.36434 0
M  V30 16792 H 1607.59 0.336066 0.667135 0
M  V30 16793 H 1610.25 1.44693 1.30576 0
M  V30 16794 H 1609.35 1.31986 2.82818 0
M  V30 16795 N 1609.65 -1.26251 0.943322 0
M  V30 16796 C 1610.9 -1.9327 0.590863 0
M  V30 16797 C 1611.22 -1.74356 -0.873212 0
M  V30 16798 O 1610.49 -1.10046 -1.6207 0
M  V30 16799 H 1609.07 -0.71523 0.215535 0
M  V30 16800 H 1611.73 -1.53647 1.19911 0
M  V30 16801 H 1610.83 -3.01393 0.810475 0
M  V30 16802 N 1611.13 -0.710588 -1.40671 0
M  V30 16803 C 1612.04 -0.0557164 -2.34534 0
M  V30 16804 C 1613.06 0.749387 -1.57036 0
M  V30 16805 O 1614.23 0.683493 -1.89447 0
M  V30 16806 C 1611.3 0.858583 -3.35901 0
M  V30 16807 C 1610.36 0.043995 -4.29277 0
M  V30 16808 C 1609.59 0.91475 -5.25802 0
M  V30 16809 O 1609.81 2.15407 -5.28163 0
M  V30 16810 O 1608.75 0.356407 -6.00844 0
M  V30 16811 H 1612.57 -0.829807 -2.92144 0
M  V30 16812 H 1610.16 -0.471028 -1.4178 0
M  V30 16813 H 1612.04 1.38244 -3.98079 0
M  V30 16814 H 1610.72 1.61191 -2.80712 0
M  V30 16815 H 1609.62 -0.524815 -3.704 0
M  V30 16816 H 1610.96 -0.670996 -4.87605 0
M  V30 16817 N 1612.61 1.50847 -0.456408 0
M  V30 16818 C 1613.86 2.01835 0.103414 0
M  V30 16819 C 1614.18 1.34142 1.4153 0
M  V30 16820 O 1613.45 0.482015 1.89877 0
M  V30 16821 H 1612.03 0.745863 0.0412074 0
M  V30 16822 H 1614.69 1.85322 -0.603477 0
M  V30 16823 H 1613.78 3.10968 0.265562 0
M  V30 16824 N 1614.09 0.188454 1.56469 0
M  V30 16825 C 1615.02 -0.730379 2.21783 0
M  V30 16826 C 1616 -1.22629 1.17882 0
M  V30 16827 O 1617.18 -1.27634 1.46367 0
M  V30 16828 C 1614.31 -1.95278 2.872 0
M  V30 16829 C 1613.27 -1.59205 3.97288 0
M  V30 16830 C 1612.59 -2.89052 4.49836 0
M  V30 16831 C 1613.89 -0.807027 5.16027 0
M  V30 16832 H 1615.59 -0.185914 2.98822 0
M  V30 16833 H 1613.13 -0.0879804 1.43731 0
M  V30 16834 H 1615.08 -2.60074 3.31571 0
M  V30 16835 H 1613.81 -2.52167 2.07556 0
M  V30 16836 H 1612.47 -0.967713 3.53597 0
M  V30 16837 H 1612.12 -3.44017 3.66963 0
M  V30 16838 H 1611.82 -2.65663 5.24115 0
M  V30 16839 H 1613.34 -3.54847 4.96906 0
M  V30 16840 H 1614.75 -1.35794 5.56986 0
M  V30 16841 H 1613.15 -0.671516 5.96331 0
M  V30 16842 H 1614.22 0.193251 4.84515 0
M  V30 16843 N 1615.56 -1.5737 -0.0851874 0
M  V30 16844 C 1616.79 -1.91183 -0.803983 0
M  V30 16845 C 1617.21 -0.78365 -1.70999 0
M  V30 16846 O 1616.57 0.264266 -1.79364 0
M  V30 16847 C 1616.62 -3.239 -1.58496 0
M  V30 16848 O 1615.72 -3.12189 -2.69466 0
M  V30 16849 H 1615.06 -0.626413 -0.220233 0
M  V30 16850 H 1617.59 -2.04519 -0.0574426 0
M  V30 16851 H 1617.6 -3.5745 -1.96707 0
M  V30 16852 H 1616.28 -4.05594 -0.920111 0
M  V30 16853 H 1614.86 -2.90173 -2.3421 0
M  V30 16854 N 1617.04 0.356258 -1.53521 0
M  V30 16855 C 1618.29 1.09573 -1.69818 0
M  V30 16856 C 1618.61 1.89559 -0.457406 0
M  V30 16857 O 1617.88 1.88633 0.528616 0
M  V30 16858 H 1616.46 0.407512 -0.626054 0
M  V30 16859 H 1619.12 0.400612 -1.90738 0
M  V30 16860 H 1618.22 1.7803 -2.56343 0
M  V30 16861 N 1618.52 1.45038 0.616577 0
M  V30 16862 C 1619.75 1.52094 1.40267 0
M  V30 16863 C 1620.16 0.150558 1.88199 0
M  V30 16864 O 1619.52 -0.846258 1.61693 0
M  V30 16865 C 1619.57 2.49786 2.61322 0
M  V30 16866 O 1619.29 3.81498 2.15385 0
M  V30 16867 C 1620.79 2.66451 3.54286 0
M  V30 16868 H 1618.01 0.515378 0.429681 0
M  V30 16869 H 1620.56 1.90141 0.752768 0
M  V30 16870 H 1618.71 2.14835 3.22373 0
M  V30 16871 H 1619.13 4.34374 2.93972 0
M  V30 16872 H 1620.6 3.38802 4.35795 0
M  V30 16873 H 1621.08 1.72177 4.04044 0
M  V30 16874 H 1621.68 3.02362 2.99095 0
M  V30 16875 N 1620 -0.858287 1.32179 0
M  V30 16876 C 1621.25 -1.60902 1.2229 0
M  V30 16877 C 1621.57 -1.93797 -0.216227 0
M  V30 16878 O 1620.84 -1.59312 -1.14002 0
M  V30 16879 H 1619.42 -0.596529 0.449624 0
M  V30 16880 H 1622.08 -1.02686 1.65655 0
M  V30 16881 H 1621.17 -2.54755 1.80295 0
M  V30 16882 N 1621.48 -1.1533 -1.07409 0
M  V30 16883 C 1622.89 -0.937287 -1.61468 0
M  V30 16884 C 1623.24 0.521545 -1.89141 0
M  V30 16885 O 1622.36 1.39253 -1.65643 0
M  V30 16886 C 1622.96 -1.69501 -2.93351 0
M  V30 16887 C 1621.52 -1.52429 -3.44154 0
M  V30 16888 C 1620.66 -1.71098 -2.18222 0
M  V30 16889 H 1623.61 -1.30364 -0.905044 0
M  V30 16890 H 1623.64 -1.16416 -3.62253 0
M  V30 16891 H 1623.15 -2.75672 -2.73178 0
M  V30 16892 H 1621.25 -0.486498 -3.6941 0
M  V30 16893 H 1621.36 -2.30089 -4.20233 0
M  V30 16894 H 1619.73 -1.13745 -2.27891 0
M  V30 16895 H 1620.51 -2.78634 -2.00545 0
M  V30 16896 N 1622.95 1.25748 -0.950004 0
M  V30 16897 C 1623.9 2.26061 -0.46531 0
M  V30 16898 C 1624.87 1.59021 0.479742 0
M  V30 16899 O 1626.06 1.86687 0.394011 0
M  V30 16900 C 1623.2 3.44156 0.255146 0
M  V30 16901 C 1622.31 4.25846 -0.726604 0
M  V30 16902 C 1621.44 5.31198 0.0159429 0
M  V30 16903 C 1620.48 6.04572 -0.957046 0
M  V30 16904 N 1619.62 7.0167 -0.245676 0
M  V30 16905 H 1624.46 2.66891 -1.32563 0
M  V30 16906 H 1622 1.31216 -0.664882 0
M  V30 16907 H 1623.95 4.11465 0.689381 0
M  V30 16908 H 1622.58 3.04213 1.07954 0
M  V30 16909 H 1621.64 3.58242 -1.27933 0
M  V30 16910 H 1622.95 4.76669 -1.46928 0
M  V30 16911 H 1622.1 6.04561 0.509037 0
M  V30 16912 H 1620.84 4.81235 0.791442 0
M  V30 16913 H 1619.85 5.30028 -1.46118 0
M  V30 16914 H 1621.07 6.56624 -1.7327 0
M  V30 16915 H 1619.02 6.54005 0.51117 0
M  V30 16916 H 1618.93 7.50289 -0.927527 0
M  V30 16917 H 1620.2 7.79172 0.226034 0
M  V30 16918 N 1624.43 0.718038 1.40292 0
M  V30 16919 C 1625.39 0.0757483 2.29075 0
M  V30 16920 C 1626.39 -0.684831 1.45488 0
M  V30 16921 O 1627.58 -0.516369 1.66371 0
M  V30 16922 C 1624.72 -0.902534 3.28736 0
M  V30 16923 H 1625.91 0.857729 2.87373 0
M  V30 16924 H 1623.46 0.482839 1.48655 0
M  V30 16925 H 1624.2 -1.71148 2.75461 0
M  V30 16926 H 1623.98 -0.360009 3.90444 0
M  V30 16927 H 1625.47 -1.34903 3.9521 0
M  V30 16928 N 1625.91 -1.50602 0.464402 0
M  V30 16929 C 1627.16 -2.01887 -0.0927084 0
M  V30 16930 C 1627.48 -1.34891 -1.40817 0
M  V30 16931 O 1626.75 -0.492078 -1.89619 0
M  V30 16932 H 1625.33 -0.746071 -0.0372514 0
M  V30 16933 H 1627.99 -1.84999 0.613296 0
M  V30 16934 H 1627.09 -3.11105 -0.249067 0
M  V30 16935 N 1627.39 -0.19675 -1.56367 0
M  V30 16936 C 1628.64 0.440711 -1.97236 0
M  V30 16937 C 1628.96 1.62037 -1.08485 0
M  V30 16938 O 1628.23 1.95274 -0.156483 0
M  V30 16939 H 1626.81 0.16581 -0.728365 0
M  V30 16940 H 1629.47 -0.283867 -1.92822 0
M  V30 16941 H 1628.57 0.783731 -3.02099 0
M  V30 16942 N 1628.87 1.57413 0.0768405 0
M  V30 16943 C 1630.28 1.75776 0.629262 0
M  V30 16944 C 1630.63 0.821502 1.78173 0
M  V30 16945 O 1629.75 0.00437198 2.164 0
M  V30 16946 C 1630.35 3.18747 1.14828 0
M  V30 16947 C 1628.91 3.38472 1.64661 0
M  V30 16948 C 1628.05 2.71506 0.563884 0
M  V30 16949 H 1631.01 1.57996 -0.149312 0
M  V30 16950 H 1631.03 3.22628 2.01722 0
M  V30 16951 H 1630.54 3.86866 0.309282 0
M  V30 16952 H 1628.64 2.75461 2.50903 0
M  V30 16953 H 1628.75 4.4689 1.72703 0
M  V30 16954 H 1627.12 2.33917 1.00772 0
M  V30 16955 H 1627.9 3.42277 -0.264847 0
M  V30 16956 N 1630.34 -0.348112 1.53707 0
M  V30 16957 C 1631.27 -1.43296 1.8436 0
M  V30 16958 C 1632.26 -1.55102 0.698376 0
M  V30 16959 O 1633.44 -1.69385 0.949864 0
M  V30 16960 C 1630.57 -2.80407 2.04912 0
M  V30 16961 C 1629.52 -2.83412 3.20721 0
M  V30 16962 C 1628.85 -4.23365 3.26597 0
M  V30 16963 C 1630.15 -2.49358 4.58931 0
M  V30 16964 H 1631.84 -1.17892 2.75212 0
M  V30 16965 H 1629.39 -0.565692 1.32423 0
M  V30 16966 H 1631.34 -3.56343 2.24939 0
M  V30 16967 H 1630.07 -3.07236 1.10786 0
M  V30 16968 H 1628.73 -2.09929 3.00542 0
M  V30 16969 H 1628.37 -4.47297 2.30076 0
M  V30 16970 H 1628.07 -4.26287 4.04417 0
M  V30 16971 H 1629.6 -5.01149 3.4883 0
M  V30 16972 H 1631.01 -3.15006 4.79003 0
M  V30 16973 H 1629.41 -2.6357 5.3912 0
M  V30 16974 H 1630.48 -1.44557 4.62851 0
M  V30 16975 N 1631.82 -1.45363 -0.608876 0
M  V30 16976 C 1633.05 -1.52614 -1.39257 0
M  V30 16977 C 1633.46 -0.157106 -1.88547 0
M  V30 16978 O 1632.8 0.851329 -1.62782 0
M  V30 16979 C 1632.87 -2.44821 -2.63255 0
M  V30 16980 C 1632.53 -3.91582 -2.35612 0
M  V30 16981 C 1633.53 -4.81517 -1.96054 0
M  V30 16982 C 1631.21 -4.36488 -2.48564 0
M  V30 16983 C 1633.21 -6.14365 -1.69808 0
M  V30 16984 C 1630.89 -5.69377 -2.21931 0
M  V30 16985 C 1631.89 -6.58135 -1.82614 0
M  V30 16986 O 1631.58 -7.88561 -1.56292 0
M  V30 16987 H 1631.31 -0.51935 -0.432726 0
M  V30 16988 H 1633.86 -1.91227 -0.749768 0
M  V30 16989 H 1632.09 -2.01177 -3.30249 0
M  V30 16990 H 1633.78 -2.4277 -3.25296 0
M  V30 16991 H 1634.55 -4.48088 -1.85585 0
M  V30 16992 H 1630.43 -3.67646 -2.78133 0
M  V30 16993 H 1633.97 -6.83602 -1.39045 0
M  V30 16994 H 1629.87 -6.02361 -2.32016 0
M  V30 16995 H 1630.64 -8.00576 -1.70355 0
M  V30 16996 N 1633.3 0.851265 -1.32632 0
M  V30 16997 C 1634.23 1.97562 -1.24465 0
M  V30 16998 C 1635.21 1.69619 -0.127777 0
M  V30 16999 O 1636.4 1.9162 -0.315509 0
M  V30 17000 C 1633.53 3.33467 -0.970423 0
M  V30 17001 C 1632.48 3.75772 -2.0489 0
M  V30 17002 C 1631.81 5.09345 -1.62702 0
M  V30 17003 C 1633.11 3.90876 -3.4643 0
M  V30 17004 H 1634.8 2.04653 -2.18535 0
M  V30 17005 H 1632.35 0.983252 -1.05205 0
M  V30 17006 H 1634.3 4.11681 -0.899825 0
M  V30 17007 H 1633.02 3.26599 0.00591373 0
M  V30 17008 H 1631.68 2.99812 -2.1097 0
M  V30 17009 H 1631.33 4.98937 -0.638039 0
M  V30 17010 H 1631.03 5.38621 -2.34864 0
M  V30 17011 H 1632.55 5.90048 -1.57085 0
M  V30 17012 H 1633.97 4.59434 -3.42919 0
M  V30 17013 H 1632.37 4.31574 -4.1697 0
M  V30 17014 H 1633.44 2.93689 -3.85843 0
M  V30 17015 N 1634.78 1.15898 1.06796 0
M  V30 17016 C 1636.01 0.959978 1.82943 0
M  V30 17017 C 1636.42 -0.495084 1.82608 0
M  V30 17018 O 1635.76 -1.35528 1.24008 0
M  V30 17019 C 1635.82 1.40408 3.30947 0
M  V30 17020 C 1635.49 2.87801 3.54993 0
M  V30 17021 C 1636.48 3.85834 3.48465 0
M  V30 17022 C 1634.17 3.25601 3.82478 0
M  V30 17023 C 1636.16 5.19672 3.6908 0
M  V30 17024 C 1633.85 4.59609 4.02744 0
M  V30 17025 C 1634.85 5.56454 3.96041 0
M  V30 17026 O 1634.53 6.8804 4.1576 0
M  V30 17027 H 1634.27 0.340717 0.583856 0
M  V30 17028 H 1636.82 1.54211 1.35677 0
M  V30 17029 H 1635.05 0.765395 3.7905 0
M  V30 17030 H 1636.74 1.1733 3.88572 0
M  V30 17031 H 1637.51 3.57977 3.27227 0
M  V30 17032 H 1633.38 2.50803 3.86806 0
M  V30 17033 H 1636.93 5.95249 3.63764 0
M  V30 17034 H 1632.83 4.8718 4.23469 0
M  V30 17035 H 1633.59 6.94541 4.33076 0
M  V30 17036 N 1636.26 -1.25243 0.956659 0
M  V30 17037 C 1637.67 -1.4525 0.661409 0
M  V30 17038 C 1637.87 -1.85774 -0.780404 0
M  V30 17039 O 1636.93 -1.98899 -1.55549 0
M  V30 17040 C 1638.24 -2.52296 1.63607 0
M  V30 17041 C 1639.79 -2.66134 1.64748 0
M  V30 17042 C 1640.26 -3.76366 2.60983 0
M  V30 17043 N 1641.76 -3.8378 2.5936 0
M  V30 17044 C 1642.49 -4.68569 3.30501 0
M  V30 17045 N 1641.99 -5.5763 4.11122 0
M  V30 17046 N 1643.78 -4.62551 3.19378 0
M  V30 17047 H 1635.93 -0.972321 1.88838 0
M  V30 17048 H 1638.19 -0.488615 0.812379 0
M  V30 17049 H 1637.9 -2.29382 2.66603 0
M  V30 17050 H 1637.77 -3.5025 1.40017 0
M  V30 17051 H 1640.16 -2.88412 0.624692 0
M  V30 17052 H 1640.24 -1.68573 1.92397 0
M  V30 17053 H 1639.89 -3.54839 3.63389 0
M  V30 17054 H 1639.82 -4.73417 2.30617 0
M  V30 17055 H 1642.31 -3.20117 2.00832 0
M  V30 17056 H 1642.62 -6.19258 4.62319 0
M  V30 17057 H 1640.96 -5.57331 4.15219 0
M  V30 17058 H 1644.16 -3.91983 2.55865 0
M  V30 17059 H 1644.33 -5.28407 3.75086 0
M  V30 17060 N 1637.73 -0.725468 -1.3991 0
M  V30 17061 C 1638.66 -0.094211 -2.3331 0
M  V30 17062 C 1639.65 0.734728 -1.53414 0
M  V30 17063 O 1640.83 0.681647 -1.81844 0
M  V30 17064 C 1637.96 0.820958 -3.37457 0
M  V30 17065 C 1636.91 0.0968983 -4.2789 0
M  V30 17066 C 1636.24 1.12845 -5.22657 0
M  V30 17067 C 1637.54 -1.05483 -5.11537 0
M  V30 17068 H 1639.23 -0.874365 -2.86348 0
M  V30 17069 H 1636.78 -0.421913 -1.3768 0
M  V30 17070 H 1638.73 1.27203 -4.01743 0
M  V30 17071 H 1637.46 1.63312 -2.82837 0
M  V30 17072 H 1636.12 -0.334454 -3.65071 0
M  V30 17073 H 1635.76 1.93392 -4.64337 0
M  V30 17074 H 1635.46 0.648805 -5.84007 0
M  V30 17075 H 1636.99 1.57942 -5.89819 0
M  V30 17076 H 1638.4 -0.682657 -5.69221 0
M  V30 17077 H 1636.8 -1.46349 -5.81981 0
M  V30 17078 H 1637.87 -1.88095 -4.46932 0
M  V30 17079 N 1639.21 1.50354 -0.472382 0
M  V30 17080 C 1640.14 2.3142 0.310995 0
M  V30 17081 C 1641.12 1.38383 0.989151 0
M  V30 17082 O 1642.31 1.67303 0.986074 0
M  V30 17083 C 1639.44 3.18157 1.3926 0
M  V30 17084 C 1638.39 4.19756 0.835977 0
M  V30 17085 C 1637.72 4.9524 2.01597 0
M  V30 17086 C 1639.02 5.22074 -0.15361 0
M  V30 17087 H 1640.71 2.97159 -0.365595 0
M  V30 17088 H 1638.26 1.42905 -0.177266 0
M  V30 17089 H 1640.21 3.73666 1.94813 0
M  V30 17090 H 1638.94 2.50305 2.09798 0
M  V30 17091 H 1637.59 3.65351 0.302414 0
M  V30 17092 H 1637.24 4.2386 2.70836 0
M  V30 17093 H 1636.94 5.63966 1.64974 0
M  V30 17094 H 1638.47 5.53584 2.57637 0
M  V30 17095 H 1639.88 5.72446 0.312783 0
M  V30 17096 H 1638.28 5.98527 -0.43418 0
M  V30 17097 H 1639.35 4.72741 -1.07908 0
M  V30 17098 N 1640.69 0.205039 1.56261 0
M  V30 17099 C 1641.65 -0.698166 2.18308 0
M  V30 17100 C 1642.65 -1.13376 1.14029 0
M  V30 17101 O 1643.84 -1.04524 1.39357 0
M  V30 17102 C 1640.98 -1.95438 2.79315 0
M  V30 17103 H 1642.17 -0.157462 2.99486 0
M  V30 17104 H 1639.72 -0.0445849 1.56236 0
M  V30 17105 H 1640.46 -2.53736 2.01962 0
M  V30 17106 H 1640.24 -1.65068 3.55662 0
M  V30 17107 H 1641.73 -2.59824 3.26927 0
M  V30 17108 N 1642.17 -1.57451 -0.0684915 0
M  V30 17109 C 1643.12 -2.04959 -1.09975 0
M  V30 17110 C 1644.11 -0.955558 -1.39877 0
M  V30 17111 O 1645.32 -1.14066 -1.39245 0
M  V30 17112 H 1641.69 -0.653542 -0.372003 0
M  V30 17113 H 1643.66 -2.90713 -0.67294 0
M  V30 17114 C 1642.41 -2.51192 -2.40412 0
M  V30 17115 H 1641.74 -3.3497 -2.18254 0
M  V30 17116 H 1643.18 -2.88183 -3.11008 0
M  V30 17117 C 1641.63 -1.39624 -3.06605 0
M  V30 17118 O 1642.16 -0.740191 -3.94822 0
M  V30 17119 N 1640.37 -1.14054 -2.67283 0
M  V30 17120 H 1639.92 -1.67585 -1.95635 0
M  V30 17121 H 1639.88 -0.396106 -3.11895 0
M  V30 17122 N 1643.65 0.339955 -1.5389 0
M  V30 17123 C 1645.06 0.683287 -1.44234 0
M  V30 17124 C 1645.26 1.92298 -0.601976 0
M  V30 17125 O 1644.32 2.52324 -0.0943623 0
M  V30 17126 C 1645.63 0.872576 -2.87761 0
M  V30 17127 C 1647.18 0.970965 -2.97559 0
M  V30 17128 C 1647.66 1.19254 -4.42202 0
M  V30 17129 N 1649.15 1.25966 -4.45743 0
M  V30 17130 C 1649.88 1.44869 -5.54798 0
M  V30 17131 N 1649.38 1.6092 -6.73852 0
M  V30 17132 N 1651.17 1.47445 -5.42417 0
M  V30 17133 H 1643.32 -0.475086 -2.07019 0
M  V30 17134 H 1645.58 -0.150644 -0.935954 0
M  V30 17135 H 1645.29 0.033117 -3.51684 0
M  V30 17136 H 1645.16 1.77326 -3.32919 0
M  V30 17137 H 1647.55 1.80094 -2.33774 0
M  V30 17138 H 1647.63 0.0471065 -2.55757 0
M  V30 17139 H 1647.28 0.367482 -5.06569 0
M  V30 17140 H 1647.21 2.13002 -4.81599 0
M  V30 17141 H 1649.7 1.15072 -3.59954 0
M  V30 17142 H 1650.01 1.74989 -7.52727 0
M  V30 17143 H 1648.36 1.58049 -6.7679 0
M  V30 17144 H 1651.55 1.34489 -4.48364 0
M  V30 17145 H 1651.72 1.61834 -6.27466 0
M  V30 17146 N 1645.13 1.45684 0.601159 0
M  V30 17147 C 1646.54 1.44423 1.18317 0
M  V30 17148 C 1646.89 0.17524 1.95416 0
M  V30 17149 O 1646.01 -0.722816 2.03971 0
M  V30 17150 C 1646.61 2.61651 2.1523 0
M  V30 17151 C 1645.17 2.6349 2.68793 0
M  V30 17152 C 1644.31 2.36787 1.44317 0
M  V30 17153 H 1647.26 1.53831 0.390108 0
M  V30 17154 H 1647.29 2.36117 2.98377 0
M  V30 17155 H 1646.8 3.53995 1.59088 0
M  V30 17156 H 1644.9 1.7517 3.28856 0
M  V30 17157 H 1645.01 3.62906 3.12787 0
M  V30 17158 H 1643.38 1.86472 1.73494 0
M  V30 17159 H 1644.16 3.31284 0.900327 0
M  V30 17160 N 1646.6 -0.84422 1.33082 0
M  V30 17161 C 1647.51 -1.9858 1.24913 0
M  V30 17162 C 1648.53 -1.73256 0.160708 0
M  V30 17163 O 1649.71 -1.97719 0.383313 0
M  V30 17164 C 1646.77 -3.32471 0.983063 0
M  V30 17165 C 1645.83 -3.70946 2.16096 0
M  V30 17166 C 1645.06 -4.98448 1.90749 0
M  V30 17167 O 1645.29 -5.63953 0.855173 0
M  V30 17168 O 1644.22 -5.34301 2.7714 0
M  V30 17169 H 1648.05 -2.0841 2.20905 0
M  V30 17170 H 1645.63 -0.976447 1.13075 0
M  V30 17171 H 1647.51 -4.12705 0.851612 0
M  V30 17172 H 1646.19 -3.23656 0.053384 0
M  V30 17173 H 1645.1 -2.91244 2.34793 0
M  V30 17174 H 1646.43 -3.8442 3.07379 0
M  V30 17175 N 1648.08 -1.16463 -1.0618 0
M  V30 17176 C 1649.31 -0.97159 -1.83235 0
M  V30 17177 C 1649.73 0.475295 -1.81996 0
M  V30 17178 O 1649.09 1.33964 -1.22161 0
M  V30 17179 C 1649.14 -1.50504 -3.2769 0
M  V30 17180 O 1648.24 -0.712128 -4.06205 0
M  V30 17181 H 1647.58 -0.345676 -0.566925 0
M  V30 17182 H 1650.11 -1.54727 -1.33868 0
M  V30 17183 H 1650.12 -1.52301 -3.78508 0
M  V30 17184 H 1648.8 -2.55832 -3.27907 0
M  V30 17185 H 1647.37 -0.764756 -3.64974 0
M  V30 17186 N 1649.56 1.24734 -0.963288 0
M  V30 17187 C 1650.52 2.23795 -0.494824 0
M  V30 17188 C 1651.52 1.55584 0.406225 0
M  V30 17189 O 1652.71 1.73021 0.202302 0
M  V30 17190 C 1649.84 3.39715 0.283963 0
M  V30 17191 H 1651.04 2.66753 -1.37051 0
M  V30 17192 H 1648.59 1.37271 -0.747428 0
M  V30 17193 H 1649.33 3.0219 1.17693 0
M  V30 17194 H 1649.11 3.9042 -0.362586 0
M  V30 17195 H 1650.6 4.13254 0.600899 0
M  V30 17196 N 1651.04 0.732878 1.39523 0
M  V30 17197 C 1651.97 0.106583 2.33257 0
M  V30 17198 C 1652.95 -0.726582 1.53801 0
M  V30 17199 O 1654.13 -0.671994 1.82203 0
M  V30 17200 C 1651.26 -0.803051 3.37888 0
M  V30 17201 C 1650.22 -0.0742048 4.27936 0
M  V30 17202 C 1649.54 -1.10071 5.23248 0
M  V30 17203 C 1650.84 1.08195 5.10971 0
M  V30 17204 H 1652.54 0.889539 2.8588 0
M  V30 17205 H 1650.08 0.429209 1.37455 0
M  V30 17206 H 1652.04 -1.25071 4.02412 0
M  V30 17207 H 1650.76 -1.6181 2.83699 0
M  V30 17208 H 1649.42 0.35381 3.64889 0
M  V30 17209 H 1649.07 -1.90927 4.65356 0
M  V30 17210 H 1648.77 -0.617825 5.84343 0
M  V30 17211 H 1650.29 -1.54812 5.90649 0
M  V30 17212 H 1651.71 0.712835 5.68851 0
M  V30 17213 H 1650.1 1.49433 5.81197 0
M  V30 17214 H 1651.17 1.90463 4.45928 0
M  V30 17215 N 1652.52 -1.50101 0.480349 0
M  V30 17216 C 1653.48 -2.27258 -0.297763 0
M  V30 17217 C 1654.48 -1.32415 -0.912296 0
M  V30 17218 O 1655.67 -1.5576 -0.780035 0
M  V30 17219 C 1652.8 -3.09684 -1.42508 0
M  V30 17220 H 1653.99 -2.97495 0.379011 0
M  V30 17221 H 1651.55 -1.54528 0.234681 0
M  V30 17222 H 1652.28 -2.43964 -2.13663 0
M  V30 17223 H 1652.07 -3.79393 -0.990125 0
M  V30 17224 H 1653.56 -3.68013 -1.97374 0
M  V30 17225 N 1653.99 -0.213323 -1.5615 0
M  V30 17226 C 1655.24 0.421221 -1.98377 0
M  V30 17227 C 1655.57 1.59998 -1.10065 0
M  V30 17228 O 1654.85 1.93869 -0.15654 0
M  V30 17229 C 1655.13 0.86375 -3.49587 0
M  V30 17230 C 1654.98 -0.318077 -4.48674 0
M  V30 17231 C 1656.3 1.72285 -4.04976 0
M  V30 17232 H 1653.42 0.151635 -0.721232 0
M  V30 17233 H 1656.06 -0.307907 -1.87488 0
M  V30 17234 H 1654.21 1.48503 -3.58998 0
M  V30 17235 H 1655.89 -0.956094 -4.51283 0
M  V30 17236 H 1654.13 -0.966881 -4.22888 0
M  V30 17237 H 1654.8 0.0343662 -5.51989 0
M  V30 17238 H 1657.28 1.19872 -3.98459 0
M  V30 17239 H 1656.15 2.0014 -5.11112 0
M  V30 17240 H 1656.41 2.68336 -3.51352 0
M  V30 17241 N 1655.47 1.57485 0.0601405 0
M  V30 17242 C 1656.7 1.92051 0.769681 0
M  V30 17243 C 1657.12 0.810364 1.70524 0
M  V30 17244 O 1656.47 -0.215527 1.81223 0
M  V30 17245 C 1656.52 3.26423 1.55339 0
M  V30 17246 O 1656.24 4.3317 0.655423 0
M  V30 17247 C 1657.75 3.75076 2.36289 0
M  V30 17248 H 1654.97 0.63454 0.218175 0
M  V30 17249 H 1657.51 2.04482 0.0269308 0
M  V30 17250 H 1655.66 3.15483 2.24831 0
M  V30 17251 H 1656.08 5.10548 1.20171 0
M  V30 17252 H 1657.55 4.71695 2.86719 0
M  V30 17253 H 1658.03 3.04677 3.16336 0
M  V30 17254 H 1658.64 3.88998 1.71932 0
M  V30 17255 N 1656.95 -0.331789 1.54068 0
M  V30 17256 C 1657.88 -1.41332 1.8587 0
M  V30 17257 C 1658.86 -1.54353 0.714787 0
M  V30 17258 O 1660.05 -1.68368 0.967777 0
M  V30 17259 C 1657.18 -2.78218 2.07875 0
M  V30 17260 C 1656.13 -2.79994 3.23709 0
M  V30 17261 C 1655.46 -4.19878 3.31069 0
M  V30 17262 C 1656.76 -2.44476 4.6155 0
M  V30 17263 H 1658.45 -1.14966 2.76447 0
M  V30 17264 H 1656 -0.551615 1.33016 0
M  V30 17265 H 1657.95 -3.53937 2.28706 0
M  V30 17266 H 1656.67 -3.06044 1.14038 0
M  V30 17267 H 1655.33 -2.0673 3.02751 0
M  V30 17268 H 1654.98 -4.44831 2.34807 0
M  V30 17269 H 1654.68 -4.21974 4.08915 0
M  V30 17270 H 1656.2 -4.97421 3.54125 0
M  V30 17271 H 1657.62 -3.09908 4.82317 0
M  V30 17272 H 1656.02 -2.57837 5.41886 0
M  V30 17273 H 1657.09 -1.3964 4.64358 0
M  V30 17274 N 1658.43 -1.46001 -0.593424 0
M  V30 17275 C 1659.39 -1.55347 -1.68523 0
M  V30 17276 C 1660.39 -0.431599 -1.549 0
M  V30 17277 O 1661.58 -0.695559 -1.59711 0
M  V30 17278 C 1658.71 -1.46355 -3.07885 0
M  V30 17279 H 1659.91 -2.52639 -1.61597 0
M  V30 17280 H 1657.46 -1.33652 -0.810363 0
M  V30 17281 H 1658.19 -0.503024 -3.20375 0
M  V30 17282 H 1657.98 -2.27741 -3.19181 0
M  V30 17283 H 1659.47 -1.55958 -3.87385 0
M  V30 17284 N 1659.91 0.83715 -1.33527 0
M  V30 17285 C 1661.32 1.12809 -1.12899 0
M  V30 17286 C 1661.52 2.01345 0.0789761 0
M  V30 17287 O 1660.58 2.40831 0.758732 0
M  V30 17288 C 1661.89 1.78852 -2.41728 0
M  V30 17289 C 1663.44 1.91411 -2.47651 0
M  V30 17290 C 1663.91 2.6087 -3.76445 0
M  V30 17291 N 1665.41 2.68381 -3.77526 0
M  V30 17292 C 1666.14 3.22819 -4.73894 0
M  V30 17293 N 1665.64 3.77931 -5.80638 0
M  V30 17294 N 1667.43 3.21087 -4.61367 0
M  V30 17295 H 1659.58 0.247942 -2.10948 0
M  V30 17296 H 1661.84 0.172518 -0.93217 0
M  V30 17297 H 1661.55 1.21258 -3.30135 0
M  V30 17298 H 1661.42 2.78856 -2.54006 0
M  V30 17299 H 1663.81 2.48159 -1.59691 0
M  V30 17300 H 1663.89 0.903512 -2.39312 0
M  V30 17301 H 1663.54 2.0478 -4.64787 0
M  V30 17302 H 1663.47 3.62404 -3.82061 0
M  V30 17303 H 1665.96 2.29301 -3.00382 0
M  V30 17304 H 1666.27 4.17678 -6.50204 0
M  V30 17305 H 1664.61 3.76214 -5.8437 0
M  V30 17306 H 1667.81 2.7729 -3.77131 0
M  V30 17307 H 1667.98 3.6321 -5.3664 0
M  V30 17308 N 1661.38 1.17024 1.05561 0
M  V30 17309 C 1662.32 0.841314 2.13201 0
M  V30 17310 C 1663.33 -0.154667 1.62064 0
M  V30 17311 O 1664.52 0.0711173 1.78358 0
M  V30 17312 C 1661.62 0.233156 3.38097 0
M  V30 17313 C 1660.79 1.27108 4.18524 0
M  V30 17314 C 1659.85 0.681364 5.2177 0
M  V30 17315 O 1658.88 1.35219 5.52906 0
M  V30 17316 N 1660.08 -0.528381 5.7809 0
M  V30 17317 H 1662.84 1.76773 2.42015 0
M  V30 17318 H 1660.4 1.06858 1.21626 0
M  V30 17319 H 1662.4 -0.174565 4.04323 0
M  V30 17320 H 1660.97 -0.596965 3.06847 0
M  V30 17321 H 1660.19 1.85469 3.47843 0
M  V30 17322 H 1661.47 1.97129 4.6906 0
M  V30 17323 H 1660.87 -1.09141 5.55072 0
M  V30 17324 H 1659.43 -0.878214 6.45857 0
M  V30 17325 N 1662.86 -1.24221 0.969889 0
M  V30 17326 C 1664.14 -1.87715 0.549772 0
M  V30 17327 C 1664.52 -1.87333 -0.973114 0
M  V30 17328 O 1663.87 -1.3475 -1.84539 0
M  V30 17329 C 1664.08 -3.29724 1.14381 0
M  V30 17330 C 1665.43 -4.06393 1.23005 0
M  V30 17331 O 1666.45 -3.38904 1.09648 0
M  V30 17332 O 1665.31 -5.27149 1.4414 0
M  V30 17333 H 1662.4 -0.806356 0.183629 0
M  V30 17334 H 1664.95 -1.32177 1.0643 0
M  V30 17335 H 1663.72 -3.24513 2.18649 0
M  V30 17336 H 1663.34 -3.92839 0.613456 0
M  V30 17337 N 1664.34 -0.740267 -1.39132 0
M  V30 17338 C 1665.3 -0.112183 -2.28925 0
M  V30 17339 C 1666.3 0.661598 -1.46559 0
M  V30 17340 O 1667.49 0.489835 -1.67171 0
M  V30 17341 C 1664.63 0.850121 -3.3013 0
M  V30 17342 H 1665.82 -0.903339 -2.85972 0
M  V30 17343 H 1663.37 -0.506427 -1.47868 0
M  V30 17344 H 1664.11 1.66744 -2.78149 0
M  V30 17345 H 1663.89 0.297847 -3.90967 0
M  V30 17346 H 1665.38 1.28599 -3.97306 0
M  V30 17347 N 1665.82 1.49844 -0.488302 0
M  V30 17348 C 1666.77 2.28883 0.296859 0
M  V30 17349 C 1667.74 1.34703 0.971818 0
M  V30 17350 O 1668.92 1.63653 0.980937 0
M  V30 17351 C 1666.06 3.17049 1.36286 0
M  V30 17352 C 1665.17 4.26275 0.700956 0
M  V30 17353 C 1664.31 5.01674 1.74632 0
M  V30 17354 C 1663.35 6.02753 1.06559 0
M  V30 17355 N 1662.48 6.71366 2.05457 0
M  V30 17356 H 1667.32 2.95523 -0.383417 0
M  V30 17357 H 1664.86 1.45721 -0.200928 0
M  V30 17358 H 1666.82 3.66531 1.99276 0
M  V30 17359 H 1665.45 2.52419 2.01207 0
M  V30 17360 H 1664.5 3.80377 -0.0419236 0
M  V30 17361 H 1665.81 4.98529 0.164469 0
M  V30 17362 H 1664.97 5.54961 2.45159 0
M  V30 17363 H 1663.71 4.29166 2.31664 0
M  V30 17364 H 1662.71 5.4871 0.346029 0
M  V30 17365 H 1663.94 6.77243 0.501932 0
M  V30 17366 H 1661.88 6.01637 2.61475 0
M  V30 17367 H 1661.8 7.39552 1.56841 0
M  V30 17368 H 1663.07 7.29262 2.75312 0
M  V30 17369 N 1667.3 0.221601 1.56034 0
M  V30 17370 C 1668.53 -0.414343 2.02402 0
M  V30 17371 C 1668.93 -1.5389 1.10066 0
M  V30 17372 O 1668.28 -1.83413 0.102587 0
M  V30 17373 C 1668.34 -1.00704 3.45107 0
M  V30 17374 C 1668 -0.0179259 4.56996 0
M  V30 17375 C 1669 0.782467 5.13978 0
M  V30 17376 C 1666.69 0.100842 5.02199 0
M  V30 17377 C 1668.68 1.68833 6.14633 0
M  V30 17378 C 1666.37 1.01024 6.02692 0
M  V30 17379 C 1667.36 1.80253 6.58785 0
M  V30 17380 O 1667.05 2.69664 7.57322 0
M  V30 17381 H 1666.78 -0.105645 0.667694 0
M  V30 17382 H 1669.34 0.335505 2.02641 0
M  V30 17383 H 1667.57 -1.80598 3.41937 0
M  V30 17384 H 1669.26 -1.5504 3.75123 0
M  V30 17385 H 1670.02 0.70116 4.79905 0
M  V30 17386 H 1665.9 -0.505723 4.58218 0
M  V30 17387 H 1669.45 2.30718 6.58343 0
M  V30 17388 H 1665.34 1.09256 6.36187 0
M  V30 17389 H 1666.11 2.6374 7.74844 0
M  V30 17390 N 1668.77 -1.57515 -0.0517878 0
M  V30 17391 C 1670.19 -1.76755 -0.601218 0
M  V30 17392 C 1670.54 -0.849744 -1.76844 0
M  V30 17393 O 1669.66 -0.0387987 -2.16365 0
M  V30 17394 C 1670.26 -3.20534 -1.09743 0
M  V30 17395 C 1668.82 -3.41049 -1.59256 0
M  V30 17396 C 1667.96 -2.72369 -0.520618 0
M  V30 17397 H 1670.91 -1.57739 0.174429 0
M  V30 17398 H 1670.93 -3.25796 -1.96563 0
M  V30 17399 H 1670.45 -3.87309 -0.247696 0
M  V30 17400 H 1668.55 -2.79417 -2.46489 0
M  V30 17401 H 1668.66 -4.49581 -1.65572 0
M  V30 17402 H 1667.02 -2.3549 -0.97038 0
M  V30 17403 H 1667.81 -3.41812 0.319266 0
M  V30 17404 N 1670.25 0.323614 -1.54242 0
M  V30 17405 C 1671.5 1.06314 -1.727 0
M  V30 17406 C 1671.83 1.87674 -0.499225 0
M  V30 17407 O 1671.11 1.87862 0.503805 0
M  V30 17408 C 1671.39 1.9879 -3.00258 0
M  V30 17409 C 1671.24 1.2076 -4.33286 0
M  V30 17410 C 1672.56 2.98314 -3.23569 0
M  V30 17411 H 1669.68 0.385101 -0.628384 0
M  V30 17412 H 1672.32 0.339801 -1.86937 0
M  V30 17413 H 1670.47 2.60468 -2.88251 0
M  V30 17414 H 1672.15 0.615425 -4.57176 0
M  V30 17415 H 1670.39 0.509878 -4.30793 0
M  V30 17416 H 1671.06 1.88662 -5.18759 0
M  V30 17417 H 1673.54 2.46757 -3.35037 0
M  V30 17418 H 1672.41 3.60204 -4.14179 0
M  V30 17419 H 1672.67 3.7077 -2.40795 0
M  V30 17420 N 1671.73 1.46313 0.585673 0
M  V30 17421 C 1673.01 1.41946 1.34576 0
M  V30 17422 C 1673.39 0.101379 2.10856 0
M  V30 17423 O 1672.74 -0.917016 2.09292 0
M  V30 17424 C 1672.95 2.64724 2.27425 0
M  V30 17425 C 1674.29 3.10746 2.89347 0
M  V30 17426 O 1675.32 2.65252 2.37739 0
M  V30 17427 O 1674.18 3.8976 3.83079 0
M  V30 17428 H 1671.27 0.564346 0.604519 0
M  V30 17429 H 1673.82 1.58475 0.606937 0
M  V30 17430 H 1672.59 3.52217 1.70467 0
M  V30 17431 H 1672.21 2.50639 3.08652 0
M  V30 17432 N 1673.21 -0.830057 1.33969 0
M  V30 17433 C 1674.17 -1.92206 1.24858 0
M  V30 17434 C 1675.17 -1.59946 0.16549 0
M  V30 17435 O 1676.36 -1.6912 0.417629 0
M  V30 17436 C 1673.49 -3.28082 0.926029 0
M  V30 17437 H 1674.69 -2.01708 2.21932 0
M  V30 17438 H 1672.24 -1.02319 1.18154 0
M  V30 17439 H 1672.98 -3.24273 -0.0418364 0
M  V30 17440 H 1672.76 -3.52878 1.70938 0
M  V30 17441 H 1674.25 -4.08065 0.887263 0
M  V30 17442 N 1674.69 -1.17582 -1.04939 0
M  V30 17443 C 1675.62 -0.852608 -2.12752 0
M  V30 17444 C 1676.63 0.14607 -1.62143 0
M  V30 17445 O 1677.82 -0.0805751 -1.78318 0
M  V30 17446 C 1674.92 -0.251083 -3.37969 0
M  V30 17447 C 1674.09 -1.29325 -4.17844 0
M  V30 17448 C 1673.15 -0.709025 -5.21401 0
M  V30 17449 O 1672.18 -1.38149 -5.52181 0
M  V30 17450 N 1673.38 0.497716 -5.78362 0
M  V30 17451 H 1676.15 -1.78054 -2.41074 0
M  V30 17452 H 1673.71 -1.07502 -1.21058 0
M  V30 17453 H 1675.7 0.15312 -4.0441 0
M  V30 17454 H 1674.27 0.580684 -3.07159 0
M  V30 17455 H 1673.49 -1.87311 -3.46855 0
M  V30 17456 H 1674.78 -1.99614 -4.68008 0
M  V30 17457 H 1674.18 1.06196 -5.55643 0
M  V30 17458 H 1672.73 0.843951 -6.46313 0
M  V30 17459 N 1676.17 1.23705 -0.976463 0
M  V30 17460 C 1677.1 2.2734 -0.532809 0
M  V30 17461 C 1678.08 1.64523 0.432012 0
M  V30 17462 O 1679.26 1.9144 0.326233 0
M  V30 17463 C 1676.39 3.46887 0.169374 0
M  V30 17464 C 1675.35 4.22031 -0.712336 0
M  V30 17465 C 1674.67 5.34561 0.121838 0
M  V30 17466 C 1675.97 4.8244 -2.00123 0
M  V30 17467 H 1677.67 2.64702 -1.39904 0
M  V30 17468 H 1675.21 1.27244 -0.674156 0
M  V30 17469 H 1677.16 4.18529 0.491028 0
M  V30 17470 H 1675.89 3.08574 1.07002 0
M  V30 17471 H 1674.55 3.522 -1.01739 0
M  V30 17472 H 1674.2 4.92489 1.0229 0
M  V30 17473 H 1673.9 5.85758 -0.464962 0
M  V30 17474 H 1675.42 6.09027 0.437963 0
M  V30 17475 H 1676.83 5.46111 -1.7446 0
M  V30 17476 H 1675.23 5.43906 -2.53548 0
M  V30 17477 H 1676.3 4.03405 -2.69059 0
M  V30 17478 N 1677.64 0.747635 1.38738 0
M  V30 17479 C 1678.59 0.11597 2.30508 0
M  V30 17480 C 1679.56 -0.716088 1.49871 0
M  V30 17481 O 1680.75 -0.673446 1.7852 0
M  V30 17482 C 1677.89 -0.775765 3.36268 0
M  V30 17483 C 1677 0.070275 4.31943 0
M  V30 17484 C 1676.13 -0.823908 5.24772 0
M  V30 17485 C 1675.17 0.0261249 6.12094 0
M  V30 17486 N 1674.31 -0.824688 6.9724 0
M  V30 17487 H 1679.15 0.904158 2.83952 0
M  V30 17488 H 1676.69 0.457513 1.39804 0
M  V30 17489 H 1678.64 -1.30735 3.96187 0
M  V30 17490 H 1677.27 -1.5298 2.84248 0
M  V30 17491 H 1676.33 0.719421 3.73535 0
M  V30 17492 H 1677.64 0.726987 4.93474 0
M  V30 17493 H 1676.79 -1.42287 5.89779 0
M  V30 17494 H 1675.53 -1.51437 4.63593 0
M  V30 17495 H 1674.54 0.637803 5.46088 0
M  V30 17496 H 1675.76 0.713556 6.75341 0
M  V30 17497 H 1673.71 -1.50021 6.38616 0
M  V30 17498 H 1673.62 -0.22474 7.55666 0
M  V30 17499 H 1674.89 -1.40882 7.66663 0
M  V30 17500 N 1679.12 -1.49583 0.496242 0
M  V30 17501 C 1680.08 -2.27561 -0.273642 0
M  V30 17502 C 1681.08 -1.33375 -0.8982 0
M  V30 17503 O 1682.27 -1.56578 -0.76347 0
M  V30 17504 C 1679.41 -3.11178 -1.39216 0
M  V30 17505 H 1680.6 -2.97077 0.410543 0
M  V30 17506 H 1678.15 -1.54271 0.251058 0
M  V30 17507 H 1678.89 -2.46217 -2.11064 0
M  V30 17508 H 1678.67 -3.80422 -0.949829 0
M  V30 17509 H 1680.16 -3.70085 -1.93459 0
M  V30 17510 N 1680.6 -0.229873 -1.55915 0
M  V30 17511 C 1681.56 0.663347 -2.19391 0
M  V30 17512 C 1682.56 1.11548 -1.15818 0
M  V30 17513 O 1683.75 1.02294 -1.41002 0
M  V30 17514 C 1680.88 1.9097 -2.82389 0
M  V30 17515 H 1682.08 0.109797 -2.99699 0
M  V30 17516 H 1679.63 0.0197234 -1.56288 0
M  V30 17517 H 1680.37 2.50491 -2.05973 0
M  V30 17518 H 1680.15 1.59388 -3.58243 0
M  V30 17519 H 1681.64 2.5459 -3.31019 0
M  V30 17520 N 1682.08 1.5754 0.0434337 0
M  V30 17521 C 1683.01 2.08648 1.04824 0
M  V30 17522 C 1683.99 0.985894 1.38615 0
M  V30 17523 O 1685.17 1.2603 1.4775 0
M  V30 17524 C 1682.3 2.55399 2.35348 0
M  V30 17525 C 1681.26 3.69592 2.15837 0
M  V30 17526 C 1680.58 4.02497 3.51995 0
M  V30 17527 C 1681.88 4.98575 1.55629 0
M  V30 17528 H 1683.58 2.9285 0.622849 0
M  V30 17529 H 1681.12 1.40879 0.298158 0
M  V30 17530 H 1683.08 2.89771 3.05958 0
M  V30 17531 H 1681.8 1.68262 2.7992 0
M  V30 17532 H 1680.46 3.35546 1.47663 0
M  V30 17533 H 1680.11 3.12448 3.94189 0
M  V30 17534 H 1679.81 4.79406 3.39771 0
M  V30 17535 H 1681.33 4.39391 4.23991 0
M  V30 17536 H 1682.75 5.30996 2.16138 0
M  V30 17537 H 1681.14 5.79998 1.54021 0
M  V30 17538 H 1682.21 4.82098 0.520567 0
M  V30 17539 N 1683.56 -0.31543 1.54411 0
M  V30 17540 C 1684.78 -1.07173 1.76979 0
M  V30 17541 C 1685.2 -1.81432 0.522285 0
M  V30 17542 O 1684.56 -1.75306 -0.507348 0
M  V30 17543 C 1684.61 -2.06352 2.96818 0
M  V30 17544 O 1684.33 -1.35108 4.16746 0
M  V30 17545 C 1685.83 -2.94136 3.31661 0
M  V30 17546 H 1683.05 -0.318455 0.590616 0
M  V30 17547 H 1685.59 -0.359085 2.01323 0
M  V30 17548 H 1683.75 -2.7314 2.74724 0
M  V30 17549 H 1684.16 -2.01593 4.84211 0
M  V30 17550 H 1685.64 -3.59606 4.18793 0
M  V30 17551 H 1686.11 -3.6167 2.49182 0
M  V30 17552 H 1686.72 -2.32899 3.55863 0
M  V30 17553 N 1685.03 -1.46622 -0.577906 0
M  V30 17554 C 1685.97 -1.53587 -1.70128 0
M  V30 17555 C 1686.98 -0.423789 -1.57187 0
M  V30 17556 O 1688.17 -0.692392 -1.64524 0
M  V30 17557 C 1685.27 -1.40459 -3.08422 0
M  V30 17558 C 1684.44 -2.65872 -3.47319 0
M  V30 17559 C 1683.5 -2.46875 -4.64693 0
M  V30 17560 O 1682.53 -3.20617 -4.70312 0
M  V30 17561 N 1683.73 -1.53352 -5.59878 0
M  V30 17562 H 1686.49 -2.50449 -1.64606 0
M  V30 17563 H 1684.05 -1.42739 -0.764014 0
M  V30 17564 H 1686.05 -1.25516 -3.84744 0
M  V30 17565 H 1684.62 -0.517603 -3.08285 0
M  V30 17566 H 1683.84 -2.95724 -2.60655 0
M  V30 17567 H 1685.12 -3.49173 -3.70075 0
M  V30 17568 H 1684.52 -0.925526 -5.58078 0
M  V30 17569 H 1683.08 -1.4437 -6.3561 0
M  V30 17570 N 1686.51 0.822941 -1.34408 0
M  V30 17571 C 1687.92 1.39571 -1.24003 0
M  V30 17572 C 1688.27 1.95739 0.134483 0
M  V30 17573 O 1687.4 1.90054 1.03481 0
M  V30 17574 C 1687.99 2.53726 -2.24519 0
M  V30 17575 C 1686.55 3.06911 -2.17905 0
M  V30 17576 C 1685.7 1.79783 -2.11124 0
M  V30 17577 H 1688.65 0.62734 -1.45774 0
M  V30 17578 H 1688.67 3.31818 -1.86217 0
M  V30 17579 H 1688.18 2.12816 -3.24547 0
M  V30 17580 H 1686.29 3.52326 -1.21233 0
M  V30 17581 H 1686.4 3.66003 -3.09158 0
M  V30 17582 H 1684.76 2.00679 -1.56845 0
M  V30 17583 H 1685.55 1.41047 -3.12987 0
M  V30 17584 N 1687.99 1.18137 1.04314 0
M  V30 17585 C 1688.92 0.929593 2.14198 0
M  V30 17586 C 1689.9 -0.131766 1.69589 0
M  V30 17587 O 1691.09 0.0203104 1.94189 0
M  V30 17588 C 1688.22 0.451799 3.44349 0
M  V30 17589 C 1687.17 1.45336 4.02569 0
M  V30 17590 C 1686.5 0.833176 5.28169 0
M  V30 17591 C 1687.8 2.8293 4.39031 0
M  V30 17592 H 1689.49 1.84856 2.35518 0
M  V30 17593 H 1687.04 0.890217 1.13186 0
M  V30 17594 H 1688.99 0.26303 4.20578 0
M  V30 17595 H 1687.71 -0.502725 3.22708 0
M  V30 17596 H 1686.37 1.62902 3.28418 0
M  V30 17597 H 1686.02 -0.128459 5.02836 0
M  V30 17598 H 1685.72 1.50185 5.68083 0
M  V30 17599 H 1687.24 0.654881 6.07078 0
M  V30 17600 H 1688.66 2.6903 5.06257 0
M  V30 17601 H 1687.06 3.46458 4.89987 0
M  V30 17602 H 1688.13 3.3667 3.48972 0
M  V30 17603 N 1689.47 -1.23186 0.98301 0
M  V30 17604 C 1690.42 -2.26762 0.517846 0
M  V30 17605 C 1691.41 -1.63944 -0.426459 0
M  V30 17606 O 1692.62 -1.77481 -0.300065 0
M  V30 17607 H 1688.99 -0.737082 0.149042 0
M  V30 17608 H 1690.96 -2.63356 1.40307 0
M  V30 17609 C 1689.71 -3.47324 -0.16157 0
M  V30 17610 H 1689.03 -3.95915 0.555973 0
M  V30 17611 H 1690.47 -4.21598 -0.450644 0
M  V30 17612 C 1688.93 -3.06722 -1.39366 0
M  V30 17613 O 1689.46 -3.15239 -2.48973 0
M  V30 17614 N 1687.67 -2.61609 -1.26528 0
M  V30 17615 H 1687.22 -2.54879 -0.373449 0
M  V30 17616 H 1687.17 -2.34809 -2.09074 0
M  V30 17617 N 1690.95 -0.754982 -1.38339 0
M  V30 17618 C 1691.91 -0.136457 -2.28793 0
M  V30 17619 C 1692.91 0.646016 -1.47252 0
M  V30 17620 O 1694.1 0.472077 -1.67681 0
M  V30 17621 C 1691.23 0.815058 -3.31013 0
M  V30 17622 H 1692.42 -0.933619 -2.84997 0
M  V30 17623 H 1689.98 -0.522082 -1.47323 0
M  V30 17624 H 1690.71 1.63785 -2.79902 0
M  V30 17625 H 1690.5 0.256363 -3.91261 0
M  V30 17626 H 1691.99 1.24378 -3.98648 0
M  V30 17627 N 1692.42 1.49318 -0.504168 0
M  V30 17628 C 1693.35 2.32027 0.261837 0
M  V30 17629 C 1694.34 1.4045 0.959575 0
M  V30 17630 O 1695.52 1.69357 0.950365 0
M  V30 17631 C 1692.65 3.21039 1.3248 0
M  V30 17632 C 1691.6 4.21435 0.746752 0
M  V30 17633 C 1690.93 4.99405 1.91047 0
M  V30 17634 C 1692.23 5.21631 -0.264315 0
M  V30 17635 H 1693.92 2.96317 -0.428544 0
M  V30 17636 H 1691.47 1.42497 -0.207539 0
M  V30 17637 H 1693.42 3.77714 1.86843 0
M  V30 17638 H 1692.15 2.54699 2.04441 0
M  V30 17639 H 1690.81 3.6591 0.22485 0
M  V30 17640 H 1690.45 4.29509 2.61784 0
M  V30 17641 H 1690.15 5.67338 1.52975 0
M  V30 17642 H 1691.68 5.58924 2.45837 0
M  V30 17643 H 1693.09 5.72981 0.191288 0
M  V30 17644 H 1691.49 5.97472 -0.561039 0
M  V30 17645 H 1692.56 4.70346 -1.17911 0
M  V30 17646 N 1693.9 0.238138 1.5579 0
M  V30 17647 C 1695.32 -0.116908 1.59171 0
M  V30 17648 C 1695.52 -1.57629 1.2552 0
M  V30 17649 O 1694.57 -2.31926 0.998332 0
M  V30 17650 C 1695.89 0.224366 2.99862 0
M  V30 17651 C 1697.44 0.16795 3.12549 0
M  V30 17652 C 1697.91 0.483132 4.55445 0
M  V30 17653 N 1699.4 0.43331 4.61169 0
M  V30 17654 C 1700.14 0.650461 5.69699 0
M  V30 17655 N 1699.63 0.930272 6.86526 0
M  V30 17656 N 1701.43 0.581764 5.59081 0
M  V30 17657 H 1693.58 1.18996 1.75936 0
M  V30 17658 H 1695.84 0.478169 0.818571 0
M  V30 17659 H 1695.55 1.23791 3.29194 0
M  V30 17660 H 1695.42 -0.452738 3.74473 0
M  V30 17661 H 1697.81 -0.836252 2.83003 0
M  V30 17662 H 1697.89 0.878776 2.40231 0
M  V30 17663 H 1697.53 1.48485 4.8571 0
M  V30 17664 H 1697.46 -0.249073 5.26011 0
M  V30 17665 H 1699.95 0.225412 3.77227 0
M  V30 17666 H 1700.27 1.08362 7.65165 0
M  V30 17667 H 1698.61 0.96765 6.88231 0
M  V30 17668 H 1701.8 0.363273 4.66688 0
M  V30 17669 H 1701.97 0.754398 6.43594 0
M  V30 17670 N 1695.38 -1.57561 -0.0350783 0
M  V30 17671 C 1696.29 -2.09558 -1.05464 0
M  V30 17672 C 1697.31 -1.03288 -1.40027 0
M  V30 17673 O 1698.48 -1.34987 -1.49467 0
M  V30 17674 C 1695.55 -2.55966 -2.33842 0
M  V30 17675 C 1694.61 -3.76693 -2.05915 0
M  V30 17676 C 1693.84 -4.20878 -3.28172 0
M  V30 17677 O 1694.06 -3.64634 -4.38632 0
M  V30 17678 O 1693 -5.13367 -3.14225 0
M  V30 17679 H 1696.82 -2.9682 -0.642771 0
M  V30 17680 H 1694.41 -1.47265 -0.251668 0
M  V30 17681 H 1696.29 -2.86173 -3.09327 0
M  V30 17682 H 1694.97 -1.71818 -2.74336 0
M  V30 17683 H 1693.87 -3.51514 -1.28018 0
M  V30 17684 H 1695.21 -4.61807 -1.70281 0
M  V30 17685 N 1696.86 0.307236 -1.54576 0
M  V30 17686 C 1698.1 1.04087 -1.7475 0
M  V30 17687 C 1698.46 1.8514 -0.523554 0
M  V30 17688 O 1697.75 1.85385 0.484057 0
M  V30 17689 C 1697.95 1.9831 -2.97335 0
M  V30 17690 C 1697.78 1.26524 -4.31534 0
M  V30 17691 C 1696.55 0.994977 -4.95407 0
M  V30 17692 C 1698.74 0.672844 -5.0988 0
M  V30 17693 N 1696.73 0.246742 -6.13404 0
M  V30 17694 C 1698.1 0.0570599 -6.19974 0
M  V30 17695 C 1700.15 0.577275 -4.94542 0
M  V30 17696 C 1698.85 -0.64504 -7.16402 0
M  V30 17697 C 1700.88 -0.111157 -5.91296 0
M  V30 17698 C 1700.24 -0.715818 -7.00753 0
M  V30 17699 H 1696.34 0.364024 -0.692106 0
M  V30 17700 H 1698.93 0.32019 -1.92049 0
M  V30 17701 H 1697.1 2.67634 -2.81472 0
M  V30 17702 H 1698.83 2.64779 -3.06062 0
M  V30 17703 H 1695.58 1.29153 -4.55649 0
M  V30 17704 H 1696.01 -0.113708 -6.76905 0
M  V30 17705 H 1700.65 1.03046 -4.1005 0
M  V30 17706 H 1698.37 -1.11001 -8.0044 0
M  V30 17707 H 1701.95 -0.184962 -5.81506 0
M  V30 17708 H 1700.83 -1.24006 -7.74333 0
M  V30 17709 N 1698.34 1.46926 0.570122 0
M  V30 17710 C 1699.3 1.58009 1.6603 0
M  V30 17711 C 1700.3 0.456188 1.54193 0
M  V30 17712 O 1701.49 0.720879 1.58584 0
M  V30 17713 C 1698.62 1.51235 3.05517 0
M  V30 17714 H 1699.81 2.55178 1.57558 0
M  V30 17715 H 1697.37 1.34924 0.788998 0
M  V30 17716 H 1698.1 0.553929 3.19534 0
M  V30 17717 H 1697.89 2.3279 3.15518 0
M  V30 17718 H 1699.38 1.62101 3.84854 0
M  V30 17719 N 1699.82 -0.815801 1.34842 0
M  V30 17720 C 1700.78 -1.90871 1.2689 0
M  V30 17721 C 1701.78 -1.59762 0.182445 0
M  V30 17722 O 1702.97 -1.68667 0.435543 0
M  V30 17723 C 1700.1 -3.27081 0.960774 0
M  V30 17724 H 1701.29 -1.99343 2.24059 0
M  V30 17725 H 1698.85 -1.0106 1.19233 0
M  V30 17726 H 1699.58 -3.24299 -0.00744059 0
M  V30 17727 H 1699.37 -3.51045 1.74671 0
M  V30 17728 H 1700.86 -4.07101 0.930494 0
M  V30 17729 N 1701.29 -1.18689 -1.03686 0
M  V30 17730 C 1702.24 -0.91384 -2.13897 0
M  V30 17731 C 1703.24 0.127333 -1.68921 0
M  V30 17732 O 1704.44 -0.0211711 -1.79988 0
M  V30 17733 H 1700.82 -0.278067 -0.698701 0
M  V30 17734 H 1702.79 -1.85013 -2.34122 0
M  V30 17735 C 1701.54 -0.460259 -3.4464 0
M  V30 17736 H 1700.86 -1.25294 -3.7966 0
M  V30 17737 H 1702.3 -0.308239 -4.22878 0
M  V30 17738 C 1700.76 0.824485 -3.26656 0
M  V30 17739 O 1701.29 1.8878 -3.54577 0
M  V30 17740 N 1699.49 0.778588 -2.79976 0
M  V30 17741 H 1699.04 -0.0869543 -2.57453 0
M  V30 17742 H 1699 1.6386 -2.68323 0
M  V30 17743 N 1702.77 1.22662 -0.989529 0
M  V30 17744 C 1704.19 1.43445 -0.699687 0
M  V30 17745 C 1704.39 1.87778 0.730875 0
M  V30 17746 O 1703.44 2.02953 1.5022 0
M  V30 17747 C 1704.76 2.47869 -1.70239 0
M  V30 17748 C 1706.3 2.61672 -1.71746 0
M  V30 17749 C 1706.78 3.69315 -2.7087 0
M  V30 17750 N 1708.27 3.76768 -2.69444 0
M  V30 17751 C 1709.01 4.59641 -3.42808 0
M  V30 17752 N 1708.5 5.46533 -4.25762 0
M  V30 17753 N 1710.29 4.53921 -3.3153 0
M  V30 17754 H 1702.45 0.921912 -1.91349 0
M  V30 17755 H 1704.71 0.466905 -0.825048 0
M  V30 17756 H 1704.41 2.22233 -2.7259 0
M  V30 17757 H 1704.29 3.46415 -1.49254 0
M  V30 17758 H 1706.68 2.86655 -0.70094 0
M  V30 17759 H 1706.76 1.63413 -1.96799 0
M  V30 17760 H 1706.4 3.4508 -3.72669 0
M  V30 17761 H 1706.33 4.67136 -2.43088 0
M  V30 17762 H 1708.82 3.1468 -2.09249 0
M  V30 17763 H 1709.13 6.06783 -4.78575 0
M  V30 17764 H 1707.48 5.46126 -4.2985 0
M  V30 17765 H 1710.67 3.85062 -2.66168 0
M  V30 17766 H 1710.84 5.18277 -3.88964 0
M  V30 17767 N 1704.25 0.762308 1.37937 0
M  V30 17768 C 1705.66 0.388966 1.82603 0
M  V30 17769 C 1706.01 -1.08362 1.63561 0
M  V30 17770 O 1705.14 -1.83842 1.14154 0
M  V30 17771 C 1705.73 0.699218 3.31506 0
M  V30 17772 C 1704.29 0.379048 3.74487 0
M  V30 17773 C 1703.44 0.947924 2.60595 0
M  V30 17774 H 1706.39 0.957743 1.26542 0
M  V30 17775 H 1706.41 -0.019502 3.80495 0
M  V30 17776 H 1705.92 1.77105 3.45334 0
M  V30 17777 H 1704.02 -0.685844 3.66233 0
M  V30 17778 H 1704.14 0.880697 4.70936 0
M  V30 17779 H 1702.5 0.372746 2.51958 0
M  V30 17780 H 1703.28 2.02496 2.77219 0
M  V30 17781 N 1705.73 -1.49049 0.51208 0
M  V30 17782 C 1706.64 -2.33102 -0.264695 0
M  V30 17783 C 1707.65 -1.45347 -0.956571 0
M  V30 17784 O 1708.83 -1.78355 -0.935501 0
M  V30 17785 C 1705.89 -3.21051 -1.30871 0
M  V30 17786 C 1704.96 -4.24666 -0.629094 0
M  V30 17787 C 1704.19 -5.08412 -1.62337 0
M  V30 17788 O 1704.41 -4.93847 -2.85432 0
M  V30 17789 O 1703.35 -5.90368 -1.17259 0
M  V30 17790 H 1707.17 -3.00732 0.423585 0
M  V30 17791 H 1704.76 -1.4688 0.273246 0
M  V30 17792 H 1706.64 -3.75503 -1.91248 0
M  V30 17793 H 1705.31 -2.56103 -1.97972 0
M  V30 17794 H 1704.22 -3.74097 0.0147056 0
M  V30 17795 H 1705.55 -4.922 -0.000339859 0
M  V30 17796 N 1707.21 -0.246397 -1.55662 0
M  V30 17797 C 1708.14 0.647563 -2.24341 0
M  V30 17798 C 1709.12 1.1817 -1.22352 0
M  V30 17799 O 1710.3 1.22114 -1.51003 0
M  V30 17800 C 1707.43 1.84485 -2.94249 0
M  V30 17801 C 1706.39 1.4435 -4.02923 0
M  V30 17802 C 1705.71 2.72158 -4.60255 0
M  V30 17803 C 1707.01 0.614951 -5.18667 0
M  V30 17804 H 1708.71 0.0748803 -2.99306 0
M  V30 17805 H 1706.25 0.034575 -1.43958 0
M  V30 17806 H 1708.2 2.47588 -3.40995 0
M  V30 17807 H 1706.93 2.4429 -2.16772 0
M  V30 17808 H 1705.59 0.835811 -3.56945 0
M  V30 17809 H 1705.24 3.3016 -3.79478 0
M  V30 17810 H 1704.94 2.46028 -5.33614 0
M  V30 17811 H 1706.46 3.36161 -5.09734 0
M  V30 17812 H 1707.87 1.15028 -5.61642 0
M  V30 17813 H 1706.27 0.449729 -5.98412 0
M  V30 17814 H 1707.34 -0.372943 -4.83464 0
M  V30 17815 N 1708.68 1.57577 0.026722 0
M  V30 17816 C 1709.62 2.03515 1.05424 0
M  V30 17817 C 1710.63 0.948362 1.32325 0
M  V30 17818 O 1711.82 1.22563 1.29771 0
M  V30 17819 C 1708.92 2.39744 2.39533 0
M  V30 17820 C 1708.09 3.70832 2.31954 0
M  V30 17821 C 1707.15 3.94224 3.48531 0
M  V30 17822 O 1706.18 4.6525 3.27919 0
M  V30 17823 N 1707.38 3.40044 4.70479 0
M  V30 17824 H 1710.14 2.92282 0.662678 0
M  V30 17825 H 1707.7 1.60471 0.214623 0
M  V30 17826 H 1709.7 2.52529 3.16245 0
M  V30 17827 H 1708.27 1.56636 2.70525 0
M  V30 17828 H 1707.49 3.68378 1.40325 0
M  V30 17829 H 1708.77 4.56821 2.24035 0
M  V30 17830 H 1708.17 2.82478 4.90125 0
M  V30 17831 H 1706.73 3.58205 5.44548 0
M  V30 17832 N 1710.16 -0.299034 1.54737 0
M  V30 17833 C 1711.12 -1.35199 1.85078 0
M  V30 17834 C 1712.12 -1.4359 0.723788 0
M  V30 17835 O 1713.31 -1.43191 0.992067 0
M  V30 17836 C 1710.45 -2.73659 2.03282 0
M  V30 17837 H 1711.64 -1.09538 2.7918 0
M  V30 17838 H 1709.19 -0.535803 1.46829 0
M  V30 17839 H 1709.93 -3.04539 1.11475 0
M  V30 17840 H 1709.71 -2.68959 2.85313 0
M  V30 17841 H 1711.2 -3.49787 2.28119 0
M  V30 17842 N 1711.64 -1.47227 -0.562322 0
M  V30 17843 C 1712.57 -1.62204 -1.67965 0
M  V30 17844 C 1713.55 -0.471638 -1.63431 0
M  V30 17845 O 1714.74 -0.70036 -1.81131 0
M  V30 17846 C 1711.87 -1.63127 -3.06605 0
M  V30 17847 C 1710.82 -2.77343 -3.25983 0
M  V30 17848 C 1710.15 -2.63336 -4.65358 0
M  V30 17849 C 1711.45 -4.18983 -3.1185 0
M  V30 17850 H 1713.14 -2.55739 -1.55686 0
M  V30 17851 H 1710.69 -1.23075 -0.747561 0
M  V30 17852 H 1712.64 -1.72197 -3.84612 0
M  V30 17853 H 1711.36 -0.661501 -3.19831 0
M  V30 17854 H 1710.02 -2.67776 -2.50383 0
M  V30 17855 H 1709.67 -1.64398 -4.75376 0
M  V30 17856 H 1709.37 -3.39957 -4.79273 0
M  V30 17857 H 1710.89 -2.74327 -5.45506 0
M  V30 17858 H 1712.31 -4.29554 -3.79679 0
M  V30 17859 H 1710.7 -4.96351 -3.37277 0
M  V30 17860 H 1711.77 -4.37709 -2.08661 0
M  V30 17861 N 1713.12 0.808639 -1.35273 0
M  V30 17862 C 1714.36 1.57901 -1.29794 0
M  V30 17863 C 1714.72 1.91582 0.126611 0
M  V30 17864 O 1715.92 2.67056 0.305745 0
M  V30 17865 C 1714.19 2.83433 -2.17716 0
M  V30 17866 S 1715.75 3.73856 -2.29732 0
M  V30 17867 H 1712.57 0.541041 -0.461298 0
M  V30 17868 H 1715.17 0.954024 -1.70642 0
M  V30 17869 H 1713.88 2.5671 -3.202 0
M  V30 17870 H 1713.41 3.50919 -1.77818 0
M  V30 17871 H 1715.42 4.73595 -1.48063 0
M  V30 17872 N 1714.6 1.19237 1.03055 0
M  V30 17873 C 1715.82 1.01917 1.80057 0
M  V30 17874 C 1716.24 -0.43214 1.83788 0
M  V30 17875 O 1715.6 -1.30016 1.28071 0
M  V30 17876 C 1715.65 1.57912 3.25186 0
M  V30 17877 O 1715.37 2.97362 3.21725 0
M  V30 17878 C 1716.87 1.45352 4.18793 0
M  V30 17879 H 1714.09 0.359301 0.566696 0
M  V30 17880 H 1716.63 1.58015 1.29814 0
M  V30 17881 H 1714.79 1.05967 3.72625 0
M  V30 17882 H 1715.2 3.23674 4.12717 0
M  V30 17883 H 1716.68 1.89313 5.18521 0
M  V30 17884 H 1717.15 0.40378 4.3734 0
M  V30 17885 H 1717.76 1.96419 3.77226 0
M  V30 17886 N 1716.07 -1.22136 0.99602 0
M  V30 17887 C 1717.01 -2.23518 0.507162 0
M  V30 17888 C 1718.02 -1.57824 -0.399426 0
M  V30 17889 O 1719.21 -1.77364 -0.20106 0
M  V30 17890 C 1716.31 -3.37709 -0.283931 0
M  V30 17891 C 1715.48 -4.3299 0.619549 0
M  V30 17892 C 1714.54 -5.26062 -0.120376 0
M  V30 17893 O 1713.57 -5.67041 0.495269 0
M  V30 17894 N 1714.77 -5.63322 -1.40172 0
M  V30 17895 H 1717.53 -2.66092 1.37896 0
M  V30 17896 H 1715.09 -1.36468 0.871102 0
M  V30 17897 H 1717.09 -3.96961 -0.787661 0
M  V30 17898 H 1715.66 -2.94193 -1.05685 0
M  V30 17899 H 1714.88 -3.72011 1.3039 0
M  V30 17900 H 1716.16 -4.93591 1.23473 0
M  V30 17901 H 1715.56 -5.32006 -1.92318 0
M  V30 17902 H 1714.12 -6.24977 -1.85058 0
M  V30 17903 N 1717.55 -0.769612 -1.37531 0
M  V30 17904 C 1718.78 -0.343783 -2.0372 0
M  V30 17905 C 1719.19 1.03816 -1.58173 0
M  V30 17906 O 1718.53 1.6736 -0.75739 0
M  V30 17907 C 1718.6 -0.305844 -3.58197 0
M  V30 17908 C 1718.26 -1.63202 -4.26866 0
M  V30 17909 C 1719.26 -2.58408 -4.51133 0
M  V30 17910 C 1716.94 -1.90587 -4.64739 0
M  V30 17911 C 1718.94 -3.79208 -5.12328 0
M  V30 17912 C 1716.62 -3.11657 -5.25655 0
M  V30 17913 C 1717.62 -4.05788 -5.49386 0
M  V30 17914 O 1717.31 -5.24727 -6.09029 0
M  V30 17915 H 1717.04 -0.142358 -0.66084 0
M  V30 17916 H 1719.59 -1.04399 -1.7689 0
M  V30 17917 H 1717.82 0.450724 -3.84064 0
M  V30 17918 H 1719.51 0.0926269 -4.05794 0
M  V30 17919 H 1720.28 -2.38532 -4.22288 0
M  V30 17920 H 1716.16 -1.18148 -4.45603 0
M  V30 17921 H 1719.7 -4.52694 -5.30767 0
M  V30 17922 H 1715.6 -3.3142 -5.53924 0
M  V30 17923 H 1716.37 -5.25523 -6.27509 0
M  V30 17924 N 1719.03 1.48775 -0.519977 0
M  V30 17925 C 1720.28 2.02092 0.0177154 0
M  V30 17926 C 1720.6 1.40024 1.35714 0
M  V30 17927 O 1719.87 0.562115 1.87662 0
M  V30 17928 H 1718.45 0.746939 0.00953578 0
M  V30 17929 H 1721.11 1.82595 -0.681535 0
M  V30 17930 H 1720.21 3.11815 0.133431 0
M  V30 17931 N 1720.51 0.254649 1.55529 0
M  V30 17932 C 1721.42 -0.652184 2.25352 0
M  V30 17933 C 1722.43 -1.18695 1.2723 0
M  V30 17934 O 1723.61 -1.22158 1.60123 0
M  V30 17935 C 1720.68 -1.829 2.94531 0
M  V30 17936 C 1719.74 -1.33294 4.08082 0
M  V30 17937 C 1718.97 -2.45367 4.73952 0
M  V30 17938 O 1719.19 -3.64271 4.38933 0
M  V30 17939 O 1718.13 -2.14684 5.62311 0
M  V30 17940 H 1721.95 -0.0871786 3.03575 0
M  V30 17941 H 1719.54 0.0228432 1.49383 0
M  V30 17942 H 1721.42 -2.5156 3.38076 0
M  V30 17943 H 1720.09 -2.38148 2.19242 0
M  V30 17944 H 1719 -0.613396 3.69037 0
M  V30 17945 H 1720.33 -0.826454 4.85212 0
M  V30 17946 N 1721.99 -1.57589 -0.0183649 0
M  V30 17947 C 1722.92 -2.1029 -1.01492 0
M  V30 17948 C 1723.9 -1.00782 -1.37029 0
M  V30 17949 O 1725.08 -1.28365 -1.45726 0
M  V30 17950 C 1722.21 -2.59111 -2.31255 0
M  V30 17951 C 1721.17 -3.72979 -2.0993 0
M  V30 17952 C 1720.49 -4.08046 -3.45547 0
M  V30 17953 C 1721.79 -5.00988 -1.47677 0
M  V30 17954 H 1723.49 -2.93804 -0.57618 0
M  V30 17955 H 1721.03 -1.41336 -0.275708 0
M  V30 17956 H 1722.99 -2.94602 -3.0131 0
M  V30 17957 H 1721.71 -1.72694 -2.77208 0
M  V30 17958 H 1720.37 -3.37853 -1.42306 0
M  V30 17959 H 1720.02 -3.1868 -3.89169 0
M  V30 17960 H 1719.72 -4.8475 -3.32101 0
M  V30 17961 H 1721.24 -4.46081 -4.16947 0
M  V30 17962 H 1722.65 -5.34368 -2.07663 0
M  V30 17963 H 1721.05 -5.82375 -1.44774 0
M  V30 17964 H 1722.12 -4.82865 -0.443804 0
M  V30 17965 N 1723.46 0.290824 -1.54893 0
M  V30 17966 C 1724.43 1.34215 -1.85793 0
M  V30 17967 C 1725.43 1.43204 -0.731393 0
M  V30 17968 O 1726.62 1.42663 -0.999647 0
M  V30 17969 C 1723.75 2.72577 -2.0473 0
M  V30 17970 H 1724.94 1.08056 -2.79757 0
M  V30 17971 H 1722.5 0.528008 -1.47111 0
M  V30 17972 H 1723.23 3.03943 -1.13088 0
M  V30 17973 H 1723.02 2.67442 -2.86736 0
M  V30 17974 H 1724.51 3.48573 -2.29971 0
M  V30 17975 N 1724.94 1.47523 0.554506 0
M  V30 17976 C 1725.87 1.56275 1.67663 0
M  V30 17977 C 1726.89 0.448743 1.56493 0
M  V30 17978 O 1728.08 0.718478 1.63402 0
M  V30 17979 C 1725.18 1.45348 3.06149 0
M  V30 17980 C 1724.35 2.71364 3.43046 0
M  V30 17981 C 1723.41 2.54237 4.60706 0
M  V30 17982 O 1722.43 3.28059 4.65152 0
M  V30 17983 N 1723.64 1.6224 5.57367 0
M  V30 17984 H 1726.4 2.53036 1.60601 0
M  V30 17985 H 1723.96 1.43936 0.741209 0
M  V30 17986 H 1725.95 1.31621 3.82698 0
M  V30 17987 H 1724.52 0.566583 3.07423 0
M  V30 17988 H 1723.74 2.99833 2.55917 0
M  V30 17989 H 1725.03 3.55017 3.64473 0
M  V30 17990 H 1724.43 1.01419 5.56534 0
M  V30 17991 H 1722.99 1.54463 6.33233 0
M  V30 17992 N 1726.42 -0.801453 1.357 0
M  V30 17993 C 1727.38 -1.89514 1.28907 0
M  V30 17994 C 1728.38 -1.59559 0.19938 0
M  V30 17995 O 1729.57 -1.68196 0.453408 0
M  V30 17996 C 1726.71 -3.26044 0.995411 0
M  V30 17997 H 1727.9 -1.96956 2.2616 0
M  V30 17998 H 1725.45 -0.997899 1.20298 0
M  V30 17999 H 1726.19 -3.24289 0.0269561 0
M  V30 18000 H 1725.97 -3.49172 1.78385 0
M  V30 18001 H 1727.46 -4.06092 0.97362 0
M  V30 18002 N 1727.9 -1.19782 -1.02421 0
M  V30 18003 C 1729.15 -1.00133 -1.7555 0
M  V30 18004 C 1729.47 0.468503 -1.89288 0
M  V30 18005 O 1728.74 1.3391 -1.42986 0
M  V30 18006 H 1727.32 -0.367513 -0.650341 0
M  V30 18007 H 1729.98 -1.50758 -1.23523 0
M  V30 18008 H 1729.08 -1.45329 -2.76199 0
M  V30 18009 N 1729.38 1.21606 -1.00248 0
M  V30 18010 C 1730.61 1.94609 -0.702502 0
M  V30 18011 C 1731.02 1.73928 0.734483 0
M  V30 18012 O 1730.38 1.04432 1.49667 0
M  V30 18013 C 1730.43 3.47077 -1.01092 0
M  V30 18014 O 1730.15 3.67071 -2.39145 0
M  V30 18015 C 1731.65 4.37248 -0.729988 0
M  V30 18016 H 1728.87 0.618962 -0.259088 0
M  V30 18017 H 1731.41 1.54494 -1.33985 0
M  V30 18018 H 1729.57 3.85125 -0.419215 0
M  V30 18019 H 1729.98 4.61188 -2.49811 0
M  V30 18020 H 1731.46 5.4294 -0.99598 0
M  V30 18021 H 1731.93 4.37913 0.33599 0
M  V30 18022 H 1732.54 4.04842 -1.30318 0
M  V30 18023 N 1730.86 0.776895 1.37121 0
M  V30 18024 C 1731.79 0.124809 2.2886 0
M  V30 18025 C 1732.8 -0.658655 1.48881 0
M  V30 18026 O 1733.99 -0.4959 1.71473 0
M  V30 18027 C 1731.09 -0.84672 3.28152 0
M  V30 18028 C 1730.26 -0.11598 4.37246 0
M  V30 18029 C 1729.32 -1.00162 5.16579 0
M  V30 18030 O 1728.35 -0.463491 5.6731 0
M  V30 18031 N 1729.55 -2.32733 5.31804 0
M  V30 18032 H 1732.31 0.91278 2.85462 0
M  V30 18033 H 1729.88 0.629695 1.49152 0
M  V30 18034 H 1731.87 -1.44275 3.78109 0
M  V30 18035 H 1730.44 -1.53563 2.72281 0
M  V30 18036 H 1729.66 0.661015 3.88618 0
M  V30 18037 H 1730.95 0.388757 5.07313 0
M  V30 18038 H 1730.34 -2.78882 4.9218 0
M  V30 18039 H 1728.9 -2.8733 5.85051 0
M  V30 18040 N 1732.33 -1.48497 0.527859 0
M  V30 18041 C 1733.75 -1.58517 0.185573 0
M  V30 18042 C 1733.95 -1.53012 -1.31109 0
M  V30 18043 O 1733.01 -1.41807 -2.08919 0
M  V30 18044 C 1734.32 -2.9024 0.786219 0
M  V30 18045 C 1735.87 -3.03764 0.75476 0
M  V30 18046 C 1736.34 -4.38144 1.33394 0
M  V30 18047 N 1737.83 -4.44705 1.29582 0
M  V30 18048 C 1738.57 -5.47187 1.71388 0
M  V30 18049 N 1738.06 -6.56635 2.20913 0
M  V30 18050 N 1739.86 -5.38057 1.62638 0
M  V30 18051 H 1732.01 -1.50319 1.5006 0
M  V30 18052 H 1734.27 -0.713625 0.624054 0
M  V30 18053 H 1733.98 -2.99918 1.8369 0
M  V30 18054 H 1733.85 -3.76288 0.262084 0
M  V30 18055 H 1736.24 -2.937 -0.287157 0
M  V30 18056 H 1736.32 -2.19331 1.31634 0
M  V30 18057 H 1735.96 -4.48962 2.37478 0
M  V30 18058 H 1735.89 -5.2126 0.748063 0
M  V30 18059 H 1738.38 -3.66195 0.933246 0
M  V30 18060 H 1738.7 -7.30967 2.50813 0
M  V30 18061 H 1737.04 -6.57604 2.24906 0
M  V30 18062 H 1740.23 -4.51447 1.23746 0
M  V30 18063 H 1740.41 -6.17793 1.9554 0
M  V30 18064 N 1733.81 -0.262893 -1.55392 0
M  V30 18065 C 1734.74 0.623732 -2.25015 0
M  V30 18066 C 1735.72 1.16865 -1.23598 0
M  V30 18067 O 1736.91 1.20505 -1.5229 0
M  V30 18068 C 1734.04 1.81353 -2.9619 0
M  V30 18069 C 1732.99 1.40069 -4.04431 0
M  V30 18070 C 1732.32 2.67261 -4.63115 0
M  V30 18071 C 1733.62 0.559905 -5.1929 0
M  V30 18072 H 1735.31 0.0431306 -2.99369 0
M  V30 18073 H 1732.86 0.0193043 -1.43987 0
M  V30 18074 H 1734.81 2.43958 -3.43602 0
M  V30 18075 H 1733.53 2.41977 -2.1935 0
M  V30 18076 H 1732.19 0.797905 -3.57811 0
M  V30 18077 H 1731.84 3.26117 -3.82958 0
M  V30 18078 H 1731.54 2.40354 -5.36194 0
M  V30 18079 H 1733.07 3.30735 -5.1327 0
M  V30 18080 H 1734.48 1.09064 -5.6283 0
M  V30 18081 H 1732.88 0.386234 -5.98856 0
M  V30 18082 H 1733.95 -0.424199 -4.83041 0
M  V30 18083 N 1735.29 1.57597 0.0100073 0
M  V30 18084 C 1736.22 2.10825 1.00375 0
M  V30 18085 C 1737.2 1.01507 1.36493 0
M  V30 18086 O 1738.39 1.29136 1.45043 0
M  V30 18087 C 1735.52 2.60334 2.29878 0
M  V30 18088 C 1734.47 3.74087 2.07949 0
M  V30 18089 C 1733.8 4.09873 3.43378 0
M  V30 18090 C 1735.1 5.01764 1.45018 0
M  V30 18091 H 1736.79 2.94105 0.560591 0
M  V30 18092 H 1734.34 1.4148 0.268208 0
M  V30 18093 H 1736.29 2.96196 2.99743 0
M  V30 18094 H 1735.01 1.74162 2.76288 0
M  V30 18095 H 1733.67 3.38603 1.40512 0
M  V30 18096 H 1733.32 3.20739 3.87473 0
M  V30 18097 H 1733.02 4.86505 3.29525 0
M  V30 18098 H 1734.54 4.48285 4.14575 0
M  V30 18099 H 1735.96 5.35462 2.04826 0
M  V30 18100 H 1734.35 5.83135 1.41683 0
M  V30 18101 H 1735.42 4.83093 0.41819 0
M  V30 18102 N 1736.77 -0.282606 1.55045 0
M  V30 18103 C 1738.18 -0.854338 1.66006 0
M  V30 18104 C 1738.53 -1.87408 0.580753 0
M  V30 18105 O 1737.65 -2.14588 -0.279449 0
M  V30 18106 C 1738.25 -1.55637 3.00936 0
M  V30 18107 C 1736.81 -2.07626 3.13956 0
M  V30 18108 C 1735.96 -0.915064 2.61767 0
M  V30 18109 H 1738.91 -0.0591711 1.5859 0
M  V30 18110 H 1738.93 -2.42289 2.93388 0
M  V30 18111 H 1738.44 -0.813942 3.79469 0
M  V30 18112 H 1736.54 -2.84859 2.40179 0
M  V30 18113 H 1736.65 -2.29816 4.20382 0
M  V30 18114 H 1735.02 -1.30577 2.18682 0
M  V30 18115 H 1735.8 -0.186298 3.42794 0
M  V30 18116 N 1738.25 -1.47815 -0.546675 0
M  V30 18117 C 1739.49 -1.54674 -1.30078 0
M  V30 18118 C 1739.81 -0.215151 -1.93809 0
M  V30 18119 O 1739.08 0.761862 -1.80478 0
M  V30 18120 H 1737.66 -0.569776 -0.483078 0
M  V30 18121 H 1740.33 -1.84178 -0.637525 0
M  V30 18122 H 1739.42 -2.31894 -2.08882 0
M  V30 18123 N 1739.72 0.794246 -1.36123 0
M  V30 18124 C 1741.13 1.36909 -1.26936 0
M  V30 18125 C 1741.49 1.9598 0.0929337 0
M  V30 18126 O 1740.61 1.92206 0.994266 0
M  V30 18127 C 1741.21 2.48906 -2.2985 0
M  V30 18128 C 1739.76 3.0222 -2.24366 0
M  V30 18129 C 1738.91 1.75264 -2.1489 0
M  V30 18130 H 1741.86 0.596278 -1.47072 0
M  V30 18131 H 1741.88 3.27794 -1.93213 0
M  V30 18132 H 1741.4 2.05884 -3.28988 0
M  V30 18133 H 1739.5 3.49675 -1.28679 0
M  V30 18134 H 1739.61 3.59363 -3.16852 0
M  V30 18135 H 1737.97 1.97306 -1.61066 0
M  V30 18136 H 1738.76 1.34377 -3.15908 0
M  V30 18137 N 1741.2 1.20323 1.01785 0
M  V30 18138 C 1742.43 1.03821 1.78966 0
M  V30 18139 C 1742.84 -0.412622 1.84236 0
M  V30 18140 O 1742.2 -1.2865 1.29443 0
M  V30 18141 C 1742.25 1.61352 3.23493 0
M  V30 18142 O 1741.97 3.00758 3.18553 0
M  V30 18143 C 1743.47 1.49786 4.17228 0
M  V30 18144 H 1740.69 0.365291 0.562853 0
M  V30 18145 H 1743.24 1.59383 1.2813 0
M  V30 18146 H 1741.39 1.09913 3.71481 0
M  V30 18147 H 1741.81 3.28034 4.09261 0
M  V30 18148 H 1743.28 1.94802 5.16484 0
M  V30 18149 H 1743.76 0.450143 4.36887 0
M  V30 18150 H 1744.36 2.00409 3.75122 0
M  V30 18151 N 1742.68 -1.21073 1.00892 0
M  V30 18152 C 1743.93 -1.89866 0.69248 0
M  V30 18153 C 1744.25 -1.7874 -0.779562 0
M  V30 18154 O 1743.52 -1.18482 -1.56009 0
M  V30 18155 H 1742.1 -0.702799 0.253145 0
M  V30 18156 H 1744.76 -1.47075 1.27887 0
M  V30 18157 H 1743.86 -2.96673 0.969098 0
M  V30 18158 N 1744.16 -0.784156 -1.36707 0
M  V30 18159 C 1745.07 -0.179959 -2.33909 0
M  V30 18160 C 1746.08 0.665092 -1.60787 0
M  V30 18161 O 1747.26 0.582111 -1.92804 0
M  V30 18162 C 1744.33 0.679323 -3.3998 0
M  V30 18163 C 1743.39 -0.183618 -4.28907 0
M  V30 18164 C 1742.62 0.634747 -5.29912 0
M  V30 18165 O 1742.84 1.87107 -5.38839 0
M  V30 18166 O 1741.78 0.0374113 -6.01888 0
M  V30 18167 H 1745.6 -0.983499 -2.87334 0
M  V30 18168 H 1743.19 -0.545521 -1.39084 0
M  V30 18169 H 1745.07 1.16948 -4.04847 0
M  V30 18170 H 1743.74 1.46084 -2.88862 0
M  V30 18171 H 1742.65 -0.720419 -3.67098 0
M  V30 18172 H 1743.98 -0.928522 -4.83363 0
M  V30 18173 N 1745.64 1.48215 -0.535727 0
M  V30 18174 C 1747.05 1.58417 -0.193977 0
M  V30 18175 C 1747.25 1.53705 1.30296 0
M  V30 18176 O 1746.31 1.42913 2.08164 0
M  V30 18177 C 1747.62 2.89819 -0.8016 0
M  V30 18178 C 1749.17 3.03359 -0.770858 0
M  V30 18179 C 1749.64 4.3743 -1.35716 0
M  V30 18180 N 1751.14 4.44012 -1.31938 0
M  V30 18181 C 1751.87 5.4627 -1.74287 0
M  V30 18182 N 1751.37 6.55454 -2.24393 0
M  V30 18183 N 1753.16 5.37187 -1.65489 0
M  V30 18184 H 1745.31 1.49521 -1.50855 0
M  V30 18185 H 1747.57 0.710306 -0.627829 0
M  V30 18186 H 1747.28 2.98939 -1.85278 0
M  V30 18187 H 1747.15 3.76144 -0.282036 0
M  V30 18188 H 1749.54 2.93848 0.271577 0
M  V30 18189 H 1749.62 2.1863 -1.32795 0
M  V30 18190 H 1749.27 4.47696 -2.39855 0
M  V30 18191 H 1749.2 5.20856 -0.775696 0
M  V30 18192 H 1751.69 3.65695 -0.952653 0
M  V30 18193 H 1752 7.29626 -2.54686 0
M  V30 18194 H 1750.34 6.56402 -2.2839 0
M  V30 18195 H 1753.54 4.50785 -1.26138 0
M  V30 18196 H 1753.71 6.16747 -1.98814 0
M  V30 18197 N 1747.11 0.27113 1.5525 0
M  V30 18198 C 1748.06 -0.634087 2.2379 0
M  V30 18199 C 1749.06 -1.16101 1.23357 0
M  V30 18200 O 1750.26 -1.1151 1.413 0
M  V30 18201 H 1746.64 -0.223023 0.718168 0
M  V30 18202 H 1748.61 -0.0331304 2.98382 0
M  V30 18203 C 1747.36 -1.80879 2.96948 0
M  V30 18204 H 1746.68 -1.41252 3.74016 0
M  V30 18205 H 1748.12 -2.41888 3.48233 0
M  V30 18206 C 1746.58 -2.69481 2.02192 0
M  V30 18207 O 1747.11 -3.69725 1.57056 0
M  V30 18208 N 1745.32 -2.36565 1.68776 0
M  V30 18209 H 1744.86 -1.55096 2.05677 0
M  V30 18210 H 1744.82 -2.96119 1.05646 0
M  V30 18211 N 1748.59 -1.576 -0.00164943 0
M  V30 18212 C 1749.82 -1.94775 -0.697872 0
M  V30 18213 C 1750.24 -0.873094 -1.67399 0
M  V30 18214 O 1749.59 0.148119 -1.81898 0
M  V30 18215 C 1749.64 -3.31963 -1.43117 0
M  V30 18216 O 1749.36 -4.35304 -0.494203 0
M  V30 18217 C 1750.87 -3.83588 -2.22206 0
M  V30 18218 H 1748.09 -0.6422 -0.194474 0
M  V30 18219 H 1750.63 -2.04441 0.04898 0
M  V30 18220 H 1748.78 -3.2361 -2.12967 0
M  V30 18221 H 1749.2 -5.14656 -1.0114 0
M  V30 18222 H 1750.67 -4.82012 -2.69014 0
M  V30 18223 H 1751.15 -3.16208 -3.0481 0
M  V30 18224 H 1751.76 -3.95111 -1.57376 0
M  V30 18225 N 1750.07 0.274379 -1.55193 0
M  V30 18226 C 1751.32 1.00357 -1.76918 0
M  V30 18227 C 1751.67 1.83987 -0.562707 0
M  V30 18228 O 1750.96 1.8637 0.444625 0
M  V30 18229 C 1751.16 1.91958 -3.01475 0
M  V30 18230 C 1750.99 1.17342 -4.34121 0
M  V30 18231 C 1749.76 0.88967 -4.97406 0
M  V30 18232 C 1751.96 0.56454 -5.11192 0
M  V30 18233 N 1749.94 0.116574 -6.13789 0
M  V30 18234 C 1751.31 -0.0744586 -6.19955 0
M  V30 18235 C 1753.36 0.472246 -4.95655 0
M  V30 18236 C 1752.07 -0.796854 -7.14873 0
M  V30 18237 C 1754.09 -0.236554 -5.90927 0
M  V30 18238 C 1753.45 -0.864297 -6.99077 0
M  V30 18239 H 1749.55 0.349261 -0.699672 0
M  V30 18240 H 1752.14 0.279381 -1.92685 0
M  V30 18241 H 1750.31 2.61604 -2.87085 0
M  V30 18242 H 1752.04 2.58227 -3.1161 0
M  V30 18243 H 1748.8 1.19459 -4.58286 0
M  V30 18244 H 1749.22 -0.257264 -6.76511 0
M  V30 18245 H 1753.86 0.943254 -4.12144 0
M  V30 18246 H 1751.58 -1.27955 -7.97905 0
M  V30 18247 H 1755.17 -0.308266 -5.80983 0
M  V30 18248 H 1754.05 -1.40403 -7.71529 0
M  V30 18249 N 1751.55 1.48103 0.538828 0
M  V30 18250 C 1752.78 1.59316 1.32008 0
M  V30 18251 C 1753.19 0.250107 1.87136 0
M  V30 18252 O 1752.55 -0.759358 1.65952 0
M  V30 18253 C 1752.6 2.63287 2.47714 0
M  V30 18254 O 1752.32 3.92379 1.9486 0
M  V30 18255 C 1753.82 2.84856 3.39664 0
M  V30 18256 H 1751.04 0.53743 0.401758 0
M  V30 18257 H 1753.59 1.93864 0.65092 0
M  V30 18258 H 1751.74 2.31621 3.10532 0
M  V30 18259 H 1752.15 4.49346 2.70534 0
M  V30 18260 H 1753.63 3.61426 4.17223 0
M  V30 18261 H 1754.11 1.93352 3.9435 0
M  V30 18262 H 1754.71 3.17791 2.82647 0
M  V30 18263 N 1753.03 -0.787016 1.36542 0
M  V30 18264 C 1753.96 -1.91399 1.33749 0
M  V30 18265 C 1754.94 -1.68817 0.208559 0
M  V30 18266 O 1756.12 -1.89896 0.406574 0
M  V30 18267 C 1753.25 -3.28457 1.12842 0
M  V30 18268 C 1752.21 -3.65568 2.22585 0
M  V30 18269 C 1751.53 -5.01002 1.86818 0
M  V30 18270 C 1752.83 -3.73902 3.64684 0
M  V30 18271 H 1754.53 -1.93993 2.2805 0
M  V30 18272 H 1752.07 -0.931937 1.09777 0
M  V30 18273 H 1754.03 -4.06919 1.09522 0
M  V30 18274 H 1752.75 -3.26256 0.149918 0
M  V30 18275 H 1751.41 -2.89405 2.25035 0
M  V30 18276 H 1751.06 -4.95325 0.875361 0
M  V30 18277 H 1750.76 -5.26802 2.60294 0
M  V30 18278 H 1752.28 -5.81881 1.85058 0
M  V30 18279 H 1753.69 -4.4255 3.64448 0
M  V30 18280 H 1752.09 -4.11188 4.37086 0
M  V30 18281 H 1753.16 -2.74946 3.99416 0
M  V30 18282 N 1754.5 -1.20861 -1.01145 0
M  V30 18283 C 1755.43 -0.986058 -2.11658 0
M  V30 18284 C 1756.42 0.0867558 -1.69879 0
M  V30 18285 O 1757.6 -0.0717892 -1.94067 0
M  V30 18286 C 1754.73 -0.542938 -3.4303 0
M  V30 18287 C 1753.68 -1.55958 -3.98574 0
M  V30 18288 C 1753.01 -0.972917 -5.25774 0
M  V30 18289 C 1754.31 -2.94471 -4.31375 0
M  V30 18290 H 1756 -1.91035 -2.30534 0
M  V30 18291 H 1753.55 -0.919914 -1.10786 0
M  V30 18292 H 1755.5 -0.374446 -4.19733 0
M  V30 18293 H 1754.23 0.416988 -3.23927 0
M  V30 18294 H 1752.89 -1.71552 -3.23984 0
M  V30 18295 H 1752.53 -0.00490446 -5.03 0
M  V30 18296 H 1752.23 -1.65194 -5.63901 0
M  V30 18297 H 1753.76 -0.815607 -6.05128 0
M  V30 18298 H 1755.17 -2.82358 -4.98946 0
M  V30 18299 H 1753.57 -3.59327 -4.80629 0
M  V30 18300 H 1754.64 -3.45804 -3.39923 0
M  V30 18301 N 1755.98 1.20536 -1.01532 0
M  V30 18302 C 1757.39 1.71594 -0.735687 0
M  V30 18303 C 1757.74 1.81469 0.745873 0
M  V30 18304 O 1756.87 1.47638 1.58215 0
M  V30 18305 C 1757.46 3.11654 -1.3288 0
M  V30 18306 C 1756.02 3.60027 -1.09806 0
M  V30 18307 C 1755.17 2.37266 -1.43528 0
M  V30 18308 H 1758.12 1.05568 -1.18495 0
M  V30 18309 H 1758.14 3.7365 -0.718725 0
M  V30 18310 H 1757.65 3.04434 -2.4071 0
M  V30 18311 H 1755.76 3.72581 -0.0373763 0
M  V30 18312 H 1755.87 4.44918 -1.77722 0
M  V30 18313 H 1754.23 2.39947 -0.854268 0
M  V30 18314 H 1755.02 2.32688 -2.5241 0
M  V30 18315 N 1757.46 0.791395 1.36289 0
M  V30 18316 C 1758.88 0.473308 1.5242 0
M  V30 18317 C 1759.08 -1.00805 1.74473 0
M  V30 18318 O 1758.13 -1.79349 1.77737 0
M  V30 18319 C 1759.45 1.30547 2.70884 0
M  V30 18320 C 1760.99 1.29936 2.84755 0
M  V30 18321 C 1761.47 2.1153 4.06225 0
M  V30 18322 N 1762.96 2.08987 4.13375 0
M  V30 18323 C 1763.69 2.68889 5.06445 0
M  V30 18324 N 1763.19 3.37657 6.04946 0
M  V30 18325 N 1764.98 2.58612 4.99075 0
M  V30 18326 H 1757.13 1.75096 1.20229 0
M  V30 18327 H 1759.4 0.74441 0.586991 0
M  V30 18328 H 1759.1 2.35607 2.61117 0
M  V30 18329 H 1758.98 0.948139 3.65089 0
M  V30 18330 H 1761.36 0.256671 2.93982 0
M  V30 18331 H 1761.45 1.69647 1.91451 0
M  V30 18332 H 1761.09 3.15832 3.9776 0
M  V30 18333 H 1761.02 1.69189 4.98681 0
M  V30 18334 H 1763.51 1.58938 3.42851 0
M  V30 18335 H 1763.82 3.8069 6.72529 0
M  V30 18336 H 1762.17 3.4176 6.05165 0
M  V30 18337 H 1765.36 2.04487 4.21073 0
M  V30 18338 H 1765.53 3.05587 5.7142 0
M  V30 18339 N 1758.94 -1.47929 0.54358 0
M  V30 18340 C 1759.85 -2.33611 -0.215191 0
M  V30 18341 C 1760.87 -1.47343 -0.925526 0
M  V30 18342 O 1762.04 -1.80299 -0.897459 0
M  V30 18343 C 1759.11 -3.23755 -1.24031 0
M  V30 18344 C 1758.17 -4.25904 -0.538874 0
M  V30 18345 C 1757.4 -5.11741 -1.51516 0
M  V30 18346 O 1757.62 -4.9979 -2.74893 0
M  V30 18347 O 1756.56 -5.92722 -1.0471 0
M  V30 18348 H 1760.38 -2.99765 0.487279 0
M  V30 18349 H 1757.97 -1.46267 0.30434 0
M  V30 18350 H 1759.85 -3.79475 -1.8324 0
M  V30 18351 H 1758.53 -2.60245 -1.92495 0
M  V30 18352 H 1757.43 -3.73982 0.0940539 0
M  V30 18353 H 1758.77 -4.9209 0.104063 0
M  V30 18354 N 1760.42 -0.27936 -1.55104 0
M  V30 18355 C 1761.83 0.074665 -1.59425 0
M  V30 18356 C 1762.03 1.54246 -1.29655 0
M  V30 18357 O 1761.09 2.29197 -1.05947 0
M  V30 18358 C 1762.4 -0.30379 -2.99162 0
M  V30 18359 C 1763.95 -0.250758 -3.11994 0
M  V30 18360 C 1764.43 -0.603715 -4.54004 0
M  V30 18361 N 1765.92 -0.555428 -4.59858 0
M  V30 18362 C 1766.65 -0.801278 -5.67774 0
M  V30 18363 N 1766.15 -1.11197 -6.83818 0
M  V30 18364 N 1767.94 -0.72979 -5.57342 0
M  V30 18365 H 1760.09 -1.23619 -1.7272 0
M  V30 18366 H 1762.35 -0.499704 -0.805606 0
M  V30 18367 H 1762.06 -1.32475 -3.25796 0
M  V30 18368 H 1761.93 0.353294 -3.75542 0
M  V30 18369 H 1764.32 0.760925 -2.85121 0
M  V30 18370 H 1764.4 -0.94216 -2.37817 0
M  V30 18371 H 1764.05 -1.6131 -4.81603 0
M  V30 18372 H 1763.98 0.109523 -5.26486 0
M  V30 18373 H 1766.47 -0.325348 -3.76497 0
M  V30 18374 H 1766.78 -1.28611 -7.62023 0
M  V30 18375 H 1765.13 -1.14978 -6.85423 0
M  V30 18376 H 1768.32 -0.48688 -4.65561 0
M  V30 18377 H 1768.49 -0.92477 -6.41367 0
M  V30 18378 N 1761.9 1.57599 -0.0067085 0
M  V30 18379 C 1763.14 1.9114 0.677733 0
M  V30 18380 C 1763.47 0.881328 1.7305 0
M  V30 18381 O 1762.75 -0.099049 1.94248 0
M  V30 18382 C 1763.03 3.35241 1.31474 0
M  V30 18383 C 1762.89 4.4897 0.273055 0
M  V30 18384 C 1764.2 3.78886 2.23905 0
M  V30 18385 H 1761.32 0.695119 0.244907 0
M  V30 18386 H 1763.97 1.89907 -0.059378 0
M  V30 18387 H 1762.12 3.36423 1.94299 0
M  V30 18388 H 1763.79 4.59924 -0.356031 0
M  V30 18389 H 1762.03 4.31915 -0.403961 0
M  V30 18390 H 1762.7 5.46772 0.757941 0
M  V30 18391 H 1765.18 3.79299 1.7109 0
M  V30 18392 H 1764.05 4.80451 2.65439 0
M  V30 18393 H 1764.31 3.13129 3.12094 0
M  V30 18394 N 1763.37 -0.266145 1.55336 0
M  V30 18395 C 1764.3 -1.33322 1.91697 0
M  V30 18396 C 1765.28 -1.51182 0.77961 0
M  V30 18397 O 1766.47 -1.64112 1.03832 0
M  V30 18398 C 1763.6 -2.69151 2.19488 0
M  V30 18399 C 1762.55 -2.66012 3.35293 0
M  V30 18400 C 1761.88 -4.05458 3.4858 0
M  V30 18401 C 1763.18 -2.24681 4.71504 0
M  V30 18402 H 1764.87 -1.03138 2.81075 0
M  V30 18403 H 1762.42 -0.494702 1.35236 0
M  V30 18404 H 1764.37 -3.43918 2.43512 0
M  V30 18405 H 1763.1 -3.00932 1.26916 0
M  V30 18406 H 1761.76 -1.93703 3.11247 0
M  V30 18407 H 1761.4 -4.34472 2.53462 0
M  V30 18408 H 1761.1 -4.04251 4.26445 0
M  V30 18409 H 1762.63 -4.81954 3.74904 0
M  V30 18410 H 1764.04 -2.89173 4.95027 0
M  V30 18411 H 1762.44 -2.34622 5.52334 0
M  V30 18412 H 1763.51 -1.19819 4.69863 0
M  V30 18413 N 1764.85 -1.48386 -0.530967 0
M  V30 18414 C 1766.09 -1.57951 -1.29734 0
M  V30 18415 C 1766.46 -0.247309 -1.90401 0
M  V30 18416 O 1767.66 -0.217934 -2.67915 0
M  V30 18417 C 1765.93 -2.68547 -2.35833 0
M  V30 18418 S 1767.49 -2.9787 -3.2221 0
M  V30 18419 H 1764.3 -0.55746 -0.441315 0
M  V30 18420 H 1766.91 -1.85903 -0.605005 0
M  V30 18421 H 1765.61 -3.63903 -1.89744 0
M  V30 18422 H 1765.14 -2.42493 -3.09775 0
M  V30 18423 H 1767.16 -2.37092 -4.35892 0
M  V30 18424 N 1766.33 0.779763 -1.36958 0
M  V30 18425 C 1767.58 1.53326 -1.31049 0
M  V30 18426 C 1767.89 1.95317 0.105139 0
M  V30 18427 O 1769.1 2.69983 0.286652 0
M  V30 18428 C 1767.55 2.76832 -2.29983 0
M  V30 18429 C 1767.16 2.41972 -3.77033 0
M  V30 18430 C 1768.91 3.54794 -2.3307 0
M  V30 18431 C 1766.81 3.61931 -4.67718 0
M  V30 18432 H 1765.74 0.57561 -0.48702 0
M  V30 18433 H 1768.39 0.854801 -1.62374 0
M  V30 18434 H 1766.78 3.46527 -1.91665 0
M  V30 18435 H 1767.95 1.80112 -4.24142 0
M  V30 18436 H 1766.26 1.77201 -3.76814 0
M  V30 18437 H 1768.86 4.4394 -2.98029 0
M  V30 18438 H 1769.2 3.94077 -1.34199 0
M  V30 18439 H 1769.74 2.92088 -2.70054 0
M  V30 18440 H 1766.48 3.27736 -5.67688 0
M  V30 18441 H 1766 4.22923 -4.25319 0
M  V30 18442 H 1767.68 4.28842 -4.84462 0
M  V30 18443 N 1767.81 1.21396 1.00503 0
M  V30 18444 C 1768.77 0.974756 2.07439 0
M  V30 18445 C 1769.77 -0.0542142 1.60709 0
M  V30 18446 O 1770.96 0.183056 1.73236 0
M  V30 18447 C 1768.09 0.46989 3.37646 0
M  V30 18448 H 1769.29 1.92346 2.30094 0
M  V30 18449 H 1766.84 1.03095 1.17479 0
M  V30 18450 H 1767.57 -0.483735 3.20672 0
M  V30 18451 H 1767.36 1.2121 3.72895 0
M  V30 18452 H 1768.85 0.322393 4.16354 0
M  V30 18453 N 1769.29 -1.19996 1.0217 0
M  V30 18454 C 1770.56 -1.85214 0.628894 0
M  V30 18455 C 1770.94 -1.91292 -0.892784 0
M  V30 18456 O 1770.29 -1.42455 -1.78658 0
M  V30 18457 C 1770.5 -3.24576 1.28262 0
M  V30 18458 C 1771.85 -4.0081 1.4013 0
M  V30 18459 O 1772.87 -3.33948 1.23923 0
M  V30 18460 O 1771.73 -5.20561 1.66368 0
M  V30 18461 H 1768.83 -0.797842 0.217664 0
M  V30 18462 H 1771.37 -1.27544 1.1194 0
M  V30 18463 H 1770.14 -3.14947 2.32216 0
M  V30 18464 H 1769.77 -3.89884 0.77952 0
M  V30 18465 N 1770.76 -0.798611 -1.35867 0
M  V30 18466 C 1772.04 -0.298858 -1.93303 0
M  V30 18467 C 1772.42 1.21038 -1.72954 0
M  V30 18468 O 1771.77 2.00617 -1.09386 0
M  V30 18469 C 1771.98 -0.701532 -3.41876 0
M  V30 18470 C 1773.33 -0.686486 -4.19014 0
M  V30 18471 O 1774.35 -0.642577 -3.50356 0
M  V30 18472 O 1773.21 -0.737653 -5.41499 0
M  V30 18473 H 1770.3 -0.0762987 -0.823473 0
M  V30 18474 H 1772.85 -0.881773 -1.44993 0
M  V30 18475 H 1771.62 -1.74204 -3.50383 0
M  V30 18476 H 1771.24 -0.092994 -3.97491 0
M  V30 18477 N 1772.24 1.47639 -0.551417 0
M  V30 18478 C 1773.15 2.33722 0.202799 0
M  V30 18479 C 1774.17 1.47832 0.917699 0
M  V30 18480 O 1775.34 1.80772 0.887885 0
M  V30 18481 C 1772.41 3.24408 1.22313 0
M  V30 18482 C 1771.47 4.26184 0.51628 0
M  V30 18483 C 1770.7 5.12537 1.488 0
M  V30 18484 O 1770.93 5.01241 2.72238 0
M  V30 18485 O 1769.86 5.93269 1.01566 0
M  V30 18486 H 1773.69 2.99503 -0.50317 0
M  V30 18487 H 1771.27 1.46104 -0.312093 0
M  V30 18488 H 1773.15 3.80441 1.81225 0
M  V30 18489 H 1771.83 2.61262 1.91112 0
M  V30 18490 H 1770.73 3.73927 -0.113886 0
M  V30 18491 H 1772.07 4.92028 -0.130158 0
M  V30 18492 N 1773.72 0.287581 1.54954 0
M  V30 18493 C 1774.65 -0.62789 2.20432 0
M  V30 18494 C 1775.67 -1.10792 1.19286 0
M  V30 18495 O 1776.85 -1.02768 1.45949 0
M  V30 18496 C 1773.95 -1.86998 2.82639 0
M  V30 18497 C 1773.13 -1.53469 4.09592 0
M  V30 18498 C 1772.19 -2.63053 4.5573 0
M  V30 18499 O 1771.21 -2.28712 5.21229 0
M  V30 18500 N 1772.41 -3.93348 4.26917 0
M  V30 18501 H 1775.18 -0.067416 2.99624 0
M  V30 18502 H 1772.74 0.109205 1.61531 0
M  V30 18503 H 1774.73 -2.59629 3.10443 0
M  V30 18504 H 1773.3 -2.33919 2.07366 0
M  V30 18505 H 1772.52 -0.641635 3.88943 0
M  V30 18506 H 1773.81 -1.28587 4.92283 0
M  V30 18507 H 1773.21 -4.24063 3.74415 0
M  V30 18508 H 1771.77 -4.62318 4.59462 0
M  V30 18509 N 1775.2 -1.57593 0.0150662 0
M  V30 18510 C 1776.48 -1.82473 -0.704474 0
M  V30 18511 C 1776.86 -0.896018 -1.91141 0
M  V30 18512 O 1776.2 0.0517365 -2.28441 0
M  V30 18513 C 1776.41 -3.31345 -1.09598 0
M  V30 18514 C 1777.76 -3.97465 -1.49353 0
M  V30 18515 O 1778.79 -3.35757 -1.18936 0
M  V30 18516 O 1777.64 -5.06199 -2.05972 0
M  V30 18517 H 1774.74 -0.751908 -0.344331 0
M  V30 18518 H 1777.28 -1.69649 0.041674 0
M  V30 18519 H 1776.06 -3.90586 -0.236358 0
M  V30 18520 H 1775.68 -3.49224 -1.90075 0
M  V30 18521 N 1776.68 0.257904 -1.55475 0
M  V30 18522 C 1777.64 1.30244 -1.88598 0
M  V30 18523 C 1778.64 1.4162 -0.761604 0
M  V30 18524 O 1779.83 1.4051 -1.02968 0
M  V30 18525 C 1776.96 2.68173 -2.10466 0
M  V30 18526 H 1778.15 1.02098 -2.81986 0
M  V30 18527 H 1775.71 0.496685 -1.48198 0
M  V30 18528 H 1776.44 3.01476 -1.1951 0
M  V30 18529 H 1776.23 2.61299 -2.92344 0
M  V30 18530 H 1777.72 3.43616 -2.37313 0
M  V30 18531 N 1778.15 1.48666 0.52309 0
M  V30 18532 C 1779.08 1.666 1.63605 0
M  V30 18533 C 1780.07 0.514803 1.62123 0
M  V30 18534 O 1781.25 0.748138 1.79211 0
M  V30 18535 C 1778.38 1.71199 3.02172 0
M  V30 18536 C 1777.33 2.85888 3.18515 0
M  V30 18537 C 1776.66 2.75582 4.58213 0
M  V30 18538 C 1777.96 4.27104 3.00631 0
M  V30 18539 H 1779.65 2.59776 1.48851 0
M  V30 18540 H 1777.2 1.25014 0.714667 0
M  V30 18541 H 1779.15 1.82333 3.79911 0
M  V30 18542 H 1777.88 0.746066 3.17964 0
M  V30 18543 H 1776.54 2.7432 2.43195 0
M  V30 18544 H 1776.18 1.76944 4.7085 0
M  V30 18545 H 1775.88 3.52545 4.70091 0
M  V30 18546 H 1777.41 2.88693 5.38041 0
M  V30 18547 H 1778.82 4.3947 3.68157 0
M  V30 18548 H 1777.22 5.05119 3.23999 0
M  V30 18549 H 1778.29 4.43087 1.96982 0
M  V30 18550 N 1779.63 -0.772489 1.37369 0
M  V30 18551 C 1780.86 -1.56158 1.35729 0
M  V30 18552 C 1781.28 -1.88712 -0.0575274 0
M  V30 18553 O 1780.63 -1.51395 -1.01911 0
M  V30 18554 C 1780.68 -2.87231 2.19501 0
M  V30 18555 O 1780.4 -2.56072 3.5547 0
M  V30 18556 C 1781.91 -3.81464 2.25831 0
M  V30 18557 H 1779.13 -0.483803 0.464947 0
M  V30 18558 H 1781.67 -0.957502 1.80699 0
M  V30 18559 H 1779.82 -3.44063 1.78042 0
M  V30 18560 H 1780.24 -3.40002 3.99373 0
M  V30 18561 H 1781.71 -4.70442 2.8877 0
M  V30 18562 H 1782.19 -4.20542 1.26653 0
M  V30 18563 H 1782.8 -3.30561 2.67599 0
M  V30 18564 N 1781.11 -1.21927 -0.998575 0
M  V30 18565 C 1782.04 -0.942076 -2.08944 0
M  V30 18566 C 1783.06 0.0771683 -1.62617 0
M  V30 18567 O 1784.24 -0.156133 -1.77816 0
M  V30 18568 C 1781.34 -0.394201 -3.366 0
M  V30 18569 C 1780.52 -1.46931 -4.11983 0
M  V30 18570 C 1779.58 -0.929531 -5.17925 0
M  V30 18571 O 1778.6 -1.61444 -5.45824 0
M  V30 18572 N 1779.8 0.251965 -5.79953 0
M  V30 18573 H 1782.57 -1.88119 -2.33306 0
M  V30 18574 H 1780.13 -1.12539 -1.16389 0
M  V30 18575 H 1782.12 -0.0185416 -4.04696 0
M  V30 18576 H 1780.69 0.449884 -3.09346 0
M  V30 18577 H 1779.91 -2.01854 -3.38598 0
M  V30 18578 H 1781.2 -2.19284 -4.59121 0
M  V30 18579 H 1780.6 0.825333 -5.59647 0
M  V30 18580 H 1779.16 0.569068 -6.49311 0
M  V30 18581 N 1782.59 1.19452 -1.02805 0
M  V30 18582 C 1783.52 2.24875 -0.628752 0
M  V30 18583 C 1784.5 1.66207 0.361844 0
M  V30 18584 O 1785.68 1.92652 0.244743 0
M  V30 18585 C 1782.81 3.47293 0.0220954 0
M  V30 18586 C 1781.77 4.1863 -0.890693 0
M  V30 18587 C 1781.09 5.34597 -0.104997 0
M  V30 18588 C 1782.39 4.73518 -2.20405 0
M  V30 18589 H 1784.09 2.5853 -1.51005 0
M  V30 18590 H 1781.63 1.24271 -0.727518 0
M  V30 18591 H 1783.59 4.20235 0.313073 0
M  V30 18592 H 1782.31 3.12835 0.938182 0
M  V30 18593 H 1780.97 3.47568 -1.16585 0
M  V30 18594 H 1780.62 4.96385 0.813098 0
M  V30 18595 H 1780.32 5.83258 -0.712983 0
M  V30 18596 H 1781.84 6.10337 0.179259 0
M  V30 18597 H 1783.26 5.3822 -1.97465 0
M  V30 18598 H 1781.65 5.32663 -2.76388 0
M  V30 18599 H 1782.72 3.9163 -2.85926 0
M  V30 18600 N 1784.07 0.805805 1.35442 0
M  V30 18601 C 1785.03 0.221278 2.28129 0
M  V30 18602 C 1786.03 -0.590919 1.49549 0
M  V30 18603 O 1787.22 -0.409518 1.69318 0
M  V30 18604 C 1784.35 -0.691643 3.3381 0
M  V30 18605 H 1785.54 1.03875 2.81336 0
M  V30 18606 H 1783.1 0.5764 1.45284 0
M  V30 18607 H 1783.83 -1.53283 2.85788 0
M  V30 18608 H 1783.62 -0.110972 3.91943 0
M  V30 18609 H 1785.11 -1.09497 4.02989 0
M  V30 18610 N 1785.54 -1.47344 0.559239 0
M  V30 18611 C 1786.51 -2.28516 -0.17688 0
M  V30 18612 C 1787.51 -1.37065 -0.840823 0
M  V30 18613 O 1788.7 -1.59676 -0.696373 0
M  V30 18614 C 1785.83 -3.16803 -1.25892 0
M  V30 18615 H 1787.02 -2.95068 0.536174 0
M  V30 18616 H 1784.58 -1.53067 0.316263 0
M  V30 18617 H 1785.31 -2.54947 -2.00431 0
M  V30 18618 H 1785.1 -3.84108 -0.787625 0
M  V30 18619 H 1786.59 -3.77958 -1.77589 0
M  V30 18620 N 1787.02 -0.295795 -1.54799 0
M  V30 18621 C 1788.27 0.315473 -2.00331 0
M  V30 18622 C 1788.6 1.53939 -1.18392 0
M  V30 18623 O 1787.88 1.92767 -0.259086 0
M  V30 18624 C 1788.16 0.677227 -3.53674 0
M  V30 18625 C 1788.01 -0.555462 -4.46357 0
M  V30 18626 C 1789.33 1.50576 -4.1354 0
M  V30 18627 H 1786.45 0.113191 -0.728256 0
M  V30 18628 H 1789.09 -0.406858 -1.85593 0
M  V30 18629 H 1787.24 1.29264 -3.66365 0
M  V30 18630 H 1788.91 -1.19397 -4.45581 0
M  V30 18631 H 1787.16 -1.18968 -4.17168 0
M  V30 18632 H 1787.83 -0.25828 -5.51395 0
M  V30 18633 H 1790.3 0.985819 -4.04253 0
M  V30 18634 H 1789.18 1.72766 -5.21002 0
M  V30 18635 H 1789.44 2.49334 -3.65082 0
M  V30 18636 N 1788.5 1.57583 -0.0234236 0
M  V30 18637 C 1789.43 2.12907 0.958804 0
M  V30 18638 C 1790.41 1.0438 1.34309 0
M  V30 18639 O 1791.6 1.32184 1.42271 0
M  V30 18640 C 1788.73 2.65151 2.24304 0
M  V30 18641 C 1787.68 3.78414 1.99967 0
M  V30 18642 C 1787.01 4.17064 3.34607 0
M  V30 18643 C 1788.31 5.04727 1.34342 0
M  V30 18644 H 1790 2.95228 0.498081 0
M  V30 18645 H 1787.55 1.42017 0.238138 0
M  V30 18646 H 1789.5 3.02487 2.93393 0
M  V30 18647 H 1788.22 1.79983 2.72532 0
M  V30 18648 H 1786.88 3.41507 1.33298 0
M  V30 18649 H 1786.53 3.28886 3.80583 0
M  V30 18650 H 1786.23 4.93385 3.19132 0
M  V30 18651 H 1787.76 4.56978 4.04973 0
M  V30 18652 H 1789.17 5.39686 1.93422 0
M  V30 18653 H 1787.57 5.86009 1.29282 0
M  V30 18654 H 1788.64 4.83872 0.315625 0
M  V30 18655 N 1789.98 -0.249655 1.5561 0
M  V30 18656 C 1790.94 -1.29242 1.89286 0
M  V30 18657 C 1791.94 -1.41214 0.769104 0
M  V30 18658 O 1793.13 -1.39962 1.03712 0
M  V30 18659 C 1790.26 -2.67053 2.11885 0
M  V30 18660 H 1791.46 -1.00601 2.82523 0
M  V30 18661 H 1789.01 -0.488819 1.4846 0
M  V30 18662 H 1789.75 -3.00838 1.21107 0
M  V30 18663 H 1789.53 -2.59745 2.93726 0
M  V30 18664 H 1791.02 -3.42353 2.39132 0
M  V30 18665 N 1791.46 -1.48941 -0.515198 0
M  V30 18666 C 1792.7 -1.57943 -1.27207 0
M  V30 18667 C 1793.04 -0.259011 -1.92465 0
M  V30 18668 O 1792.31 0.736277 -1.80026 0
M  V30 18669 C 1792.59 -2.72846 -2.35005 0
M  V30 18670 C 1792.45 -4.14639 -1.74341 0
M  V30 18671 C 1793.77 -2.83444 -3.36672 0
M  V30 18672 H 1790.89 -0.574909 -0.461138 0
M  V30 18673 H 1793.53 -1.81172 -0.572413 0
M  V30 18674 H 1791.68 -2.5317 -2.94681 0
M  V30 18675 H 1793.35 -4.45793 -1.18602 0
M  V30 18676 H 1791.59 -4.20948 -1.0481 0
M  V30 18677 H 1792.26 -4.90883 -2.52463 0
M  V30 18678 H 1794.74 -3.01311 -2.86969 0
M  V30 18679 H 1793.62 -3.65542 -4.09475 0
M  V30 18680 H 1793.88 -1.92208 -3.98131 0
M  V30 18681 N 1792.94 0.765193 -1.37777 0
M  V30 18682 C 1794.18 1.52096 -1.33084 0
M  V30 18683 C 1794.5 1.94827 0.08221 0
M  V30 18684 O 1793.77 1.66787 1.02757 0
M  V30 18685 H 1792.35 0.564139 -0.489649 0
M  V30 18686 H 1795.02 0.910308 -1.72335 0
M  V30 18687 H 1794.11 2.4173 -1.97416 0
M  V30 18688 N 1794.41 1.22455 0.992094 0
M  V30 18689 C 1795.64 1.07677 1.77258 0
M  V30 18690 C 1796.06 -0.368377 1.84458 0
M  V30 18691 O 1795.42 -1.26614 1.29763 0
M  V30 18692 C 1795.47 1.69353 3.18358 0
M  V30 18693 O 1794.57 0.947746 4.01362 0
M  V30 18694 H 1793.91 0.378141 0.545807 0
M  V30 18695 H 1796.44 1.62269 1.2462 0
M  V30 18696 H 1796.45 1.7411 3.68985 0
M  V30 18697 H 1795.13 2.74515 3.12433 0
M  V30 18698 H 1793.71 0.976245 3.59894 0
M  V30 18699 N 1795.89 -1.18905 1.03437 0
M  V30 18700 C 1796.82 -2.21792 0.578016 0
M  V30 18701 C 1797.84 -1.59015 -0.349014 0
M  V30 18702 O 1799.03 -1.77914 -0.144532 0
M  V30 18703 C 1796.13 -3.38441 -0.176348 0
M  V30 18704 C 1795.3 -4.308 0.756988 0
M  V30 18705 C 1794.36 -5.26179 0.0470478 0
M  V30 18706 O 1793.38 -5.65179 0.675418 0
M  V30 18707 N 1794.59 -5.67497 -1.2218 0
M  V30 18708 H 1797.35 -2.6157 1.46291 0
M  V30 18709 H 1794.91 -1.33627 0.914078 0
M  V30 18710 H 1796.9 -3.99266 -0.660972 0
M  V30 18711 H 1795.47 -2.97406 -0.962715 0
M  V30 18712 H 1794.69 -3.67674 1.4216 0
M  V30 18713 H 1795.98 -4.89413 1.39113 0
M  V30 18714 H 1795.38 -5.37855 -1.75295 0
M  V30 18715 H 1793.94 -6.30548 -1.65081 0
M  V30 18716 N 1797.37 -0.812977 -1.35013 0
M  V30 18717 C 1798.62 -0.396932 -1.98878 0
M  V30 18718 C 1798.95 1.03486 -1.6433 0
M  V30 18719 O 1798.22 1.71906 -0.90986 0
M  V30 18720 C 1798.51 -0.587911 -3.55268 0
M  V30 18721 C 1798.36 -2.06509 -3.99592 0
M  V30 18722 C 1799.68 -0.017593 -4.40096 0
M  V30 18723 H 1796.8 -0.145695 -0.722455 0
M  V30 18724 H 1799.44 -1.0237 -1.60064 0
M  V30 18725 H 1797.59 -0.0543785 -3.88462 0
M  V30 18726 H 1799.26 -2.6615 -3.76778 0
M  V30 18727 H 1797.5 -2.55921 -3.50267 0
M  V30 18728 H 1798.18 -2.14958 -5.08426 0
M  V30 18729 H 1800.65 -0.473317 -4.13399 0
M  V30 18730 H 1799.53 -0.18109 -5.48601 0
M  V30 18731 H 1799.79 1.07664 -4.2879 0
M  V30 18732 N 1798.85 1.47045 -0.567045 0
M  V30 18733 C 1799.78 2.32929 0.163191 0
M  V30 18734 C 1800.76 1.44393 0.899142 0
M  V30 18735 O 1801.94 1.73235 0.87768 0
M  V30 18736 C 1799.07 3.26369 1.18745 0
M  V30 18737 C 1798.03 4.24223 0.567335 0
M  V30 18738 C 1797.35 5.07058 1.69693 0
M  V30 18739 C 1798.65 5.2004 -0.485319 0
M  V30 18740 H 1800.35 2.94233 -0.553837 0
M  V30 18741 H 1797.89 1.41488 -0.267789 0
M  V30 18742 H 1799.85 3.85299 1.70654 0
M  V30 18743 H 1798.57 2.6314 1.93455 0
M  V30 18744 H 1797.23 3.66534 0.0694525 0
M  V30 18745 H 1796.88 4.40226 2.43331 0
M  V30 18746 H 1796.58 5.73316 1.28774 0
M  V30 18747 H 1798.1 5.68848 2.2191 0
M  V30 18748 H 1799.52 5.73277 -0.0519049 0
M  V30 18749 H 1797.91 5.94554 -0.813942 0
M  V30 18750 H 1798.98 4.64921 -1.37754 0
M  V30 18751 N 1800.33 0.304 1.5464 0
M  V30 18752 C 1801.57 -0.297701 2.0121 0
M  V30 18753 C 1801.93 -1.51295 1.18859 0
M  V30 18754 O 1801.22 -1.89859 0.257697 0
M  V30 18755 C 1801.41 -0.702651 3.50425 0
M  V30 18756 C 1801.24 0.47181 4.47218 0
M  V30 18757 C 1800.01 0.964773 4.96004 0
M  V30 18758 C 1802.21 1.31774 4.97132 0
M  V30 18759 N 1800.19 2.10568 5.76658 0
M  V30 18760 C 1801.56 2.3061 5.75516 0
M  V30 18761 C 1803.62 1.34777 4.79312 0
M  V30 18762 C 1802.32 3.32228 6.37979 0
M  V30 18763 C 1804.35 2.35255 5.42595 0
M  V30 18764 C 1803.71 3.3282 6.20814 0
M  V30 18765 H 1799.81 -0.073314 0.778556 0
M  V30 18766 H 1802.39 0.434597 1.89788 0
M  V30 18767 H 1800.56 -1.40412 3.62131 0
M  V30 18768 H 1802.3 -1.28415 3.83786 0
M  V30 18769 H 1799.05 0.539254 4.7052 0
M  V30 18770 H 1799.47 2.68063 6.21668 0
M  V30 18771 H 1804.12 0.607191 4.18417 0
M  V30 18772 H 1801.83 4.07203 6.98005 0
M  V30 18773 H 1805.42 2.38355 5.30733 0
M  V30 18774 H 1804.3 4.09296 6.68914 0
M  V30 18775 N 1801.8 -1.57568 0.0317802 0
M  V30 18776 C 1803.21 -1.79693 -0.506679 0
M  V30 18777 C 1803.57 -0.94229 -1.72091 0
M  V30 18778 O 1802.69 -0.153435 -2.15855 0
M  V30 18779 C 1803.29 -3.259 -0.925978 0
M  V30 18780 C 1801.84 -3.49012 -1.40953 0
M  V30 18781 C 1800.99 -2.74746 -0.375509 0
M  V30 18782 H 1803.94 -1.56592 0.257798 0
M  V30 18783 H 1803.96 -3.35757 -1.79017 0
M  V30 18784 H 1803.48 -3.88077 -0.0420441 0
M  V30 18785 H 1801.58 -2.9209 -2.31331 0
M  V30 18786 H 1801.69 -4.57725 -1.41508 0
M  V30 18787 H 1800.05 -2.40303 -0.844187 0
M  V30 18788 H 1800.84 -3.39639 0.500005 0
M  V30 18789 N 1803.28 0.241399 -1.5574 0
M  V30 18790 C 1804.56 0.991821 -1.68589 0
M  V30 18791 C 1804.94 2.03167 -0.573274 0
M  V30 18792 O 1804.29 2.2456 0.422521 0
M  V30 18793 C 1804.5 1.6202 -3.09112 0
M  V30 18794 C 1805.85 2.11998 -3.67889 0
M  V30 18795 O 1806.87 1.71951 -3.11948 0
M  V30 18796 O 1805.73 2.85545 -4.65968 0
M  V30 18797 H 1802.82 0.462017 -0.685907 0
M  V30 18798 H 1805.37 0.23475 -1.68068 0
M  V30 18799 H 1804.14 0.86835 -3.81543 0
M  V30 18800 H 1803.76 2.44333 -3.13667 0
M  V30 18801 N 1804.76 1.49212 0.507292 0
M  V30 18802 C 1806.04 1.4888 1.26863 0
M  V30 18803 C 1806.42 0.213007 2.10023 0
M  V30 18804 O 1805.77 -0.804785 2.13858 0
M  V30 18805 C 1805.98 2.76407 2.13073 0
M  V30 18806 C 1807.32 3.25647 2.72468 0
M  V30 18807 O 1808.35 2.77481 2.23344 0
M  V30 18808 O 1807.21 4.09518 3.6188 0
M  V30 18809 H 1804.3 0.595597 0.573754 0
M  V30 18810 H 1806.85 1.6147 0.52208 0
M  V30 18811 H 1805.62 3.60758 1.51558 0
M  V30 18812 H 1805.24 2.66648 2.94932 0
M  V30 18813 N 1806.24 -0.757876 1.38181 0
M  V30 18814 C 1807.2 -1.85317 1.34871 0
M  V30 18815 C 1808.2 -1.58844 0.250041 0
M  V30 18816 O 1809.39 -1.66668 0.506688 0
M  V30 18817 C 1806.52 -3.22712 1.09864 0
M  V30 18818 H 1807.72 -1.89661 2.32312 0
M  V30 18819 H 1805.27 -0.959122 1.23412 0
M  V30 18820 H 1806 -3.24039 0.130112 0
M  V30 18821 H 1805.79 -3.4332 1.89403 0
M  V30 18822 H 1807.28 -4.02789 1.10232 0
M  V30 18823 N 1807.72 -1.22979 -0.985586 0
M  V30 18824 C 1808.65 -1.03073 -2.09519 0
M  V30 18825 C 1809.63 0.0507025 -1.70024 0
M  V30 18826 O 1810.81 -0.112938 -1.93871 0
M  V30 18827 C 1807.94 -0.615578 -3.41801 0
M  V30 18828 C 1806.9 -1.64377 -3.95176 0
M  V30 18829 C 1806.22 -1.08422 -5.23592 0
M  V30 18830 C 1807.52 -3.03555 -4.25032 0
M  V30 18831 H 1809.22 -1.95882 -2.2643 0
M  V30 18832 H 1806.76 -0.943206 -1.0881 0
M  V30 18833 H 1808.72 -0.463394 -4.18844 0
M  V30 18834 H 1807.44 0.348185 -3.24739 0
M  V30 18835 H 1806.1 -1.78386 -3.20272 0
M  V30 18836 H 1805.75 -0.111597 -5.02876 0
M  V30 18837 H 1805.45 -1.77118 -5.6027 0
M  V30 18838 H 1806.97 -0.94378 -6.03262 0
M  V30 18839 H 1808.38 -2.92878 -4.92844 0
M  V30 18840 H 1806.78 -3.69441 -4.72899 0
M  V30 18841 H 1807.85 -3.52937 -3.32511 0
M  V30 18842 N 1809.19 1.18355 -1.04066 0
M  V30 18843 C 1810.14 2.19907 -0.60209 0
M  V30 18844 C 1811.13 1.56925 0.355457 0
M  V30 18845 O 1812.32 1.76138 0.174513 0
M  V30 18846 C 1809.45 3.43284 0.0334903 0
M  V30 18847 C 1808.54 4.13387 -0.947205 0
M  V30 18848 N 1808.93 4.59492 -2.11425 0
M  V30 18849 C 1807.22 4.39247 -0.773204 0
M  V30 18850 C 1807.93 5.1346 -2.73375 0
M  V30 18851 N 1806.9 5.04974 -2.01251 0
M  V30 18852 H 1810.7 2.53245 -1.49145 0
M  V30 18853 H 1808.22 1.3456 -0.90925 0
M  V30 18854 H 1810.21 4.15296 0.365384 0
M  V30 18855 H 1808.87 3.11441 0.918387 0
M  V30 18856 H 1809.89 4.53942 -2.49314 0
M  V30 18857 H 1806.56 4.17455 0.0616022 0
M  V30 18858 H 1807.95 5.59337 -3.72279 0
M  V30 18859 N 1810.67 0.820125 1.3458 0
M  V30 18860 C 1812.09 0.505533 1.51382 0
M  V30 18861 C 1812.29 -0.970812 1.76571 0
M  V30 18862 O 1811.34 -1.75538 1.81501 0
M  V30 18863 C 1812.66 1.36264 2.68054 0
M  V30 18864 C 1814.21 1.35947 2.81935 0
M  V30 18865 C 1814.68 2.201 4.01647 0
M  V30 18866 N 1816.17 2.17708 4.08849 0
M  V30 18867 C 1816.91 2.79571 5.00627 0
M  V30 18868 N 1816.4 3.50413 5.97647 0
M  V30 18869 N 1818.2 2.6914 4.93477 0
M  V30 18870 H 1810.35 1.77607 1.16488 0
M  V30 18871 H 1812.61 0.756693 0.571068 0
M  V30 18872 H 1812.32 2.41093 2.56061 0
M  V30 18873 H 1812.19 1.02537 3.62996 0
M  V30 18874 H 1814.58 0.318971 2.93371 0
M  V30 18875 H 1814.66 1.7367 1.8781 0
M  V30 18876 H 1814.3 3.24198 3.90971 0
M  V30 18877 H 1814.23 1.79729 4.9498 0
M  V30 18878 H 1816.72 1.66175 3.39403 0
M  V30 18879 H 1817.04 3.9487 6.64303 0
M  V30 18880 H 1815.38 3.54519 5.9778 0
M  V30 18881 H 1818.57 2.13372 4.16641 0
M  V30 18882 H 1818.74 3.17639 5.64809 0
M  V30 18883 N 1812.15 -1.46743 0.574835 0
M  V30 18884 C 1813.08 -2.2832 -0.20062 0
M  V30 18885 C 1814.1 -1.3805 -0.862898 0
M  V30 18886 O 1815.28 -1.6272 -0.733785 0
M  V30 18887 C 1812.38 -3.1285 -1.303 0
M  V30 18888 C 1811.56 -4.31195 -0.734153 0
M  V30 18889 C 1810.62 -4.97183 -1.72324 0
M  V30 18890 O 1809.64 -5.55025 -1.26239 0
M  V30 18891 N 1810.84 -4.93476 -3.05714 0
M  V30 18892 H 1813.61 -2.95513 0.499231 0
M  V30 18893 H 1811.17 -1.56568 0.412077 0
M  V30 18894 H 1813.16 -3.53861 -1.96378 0
M  V30 18895 H 1811.73 -2.47784 -1.90583 0
M  V30 18896 H 1810.95 -3.94063 0.103888 0
M  V30 18897 H 1812.24 -5.07704 -0.333751 0
M  V30 18898 H 1811.64 -4.47715 -3.45786 0
M  V30 18899 H 1810.2 -5.38453 -3.67304 0
M  V30 18900 N 1813.63 -0.312197 -1.54477 0
M  V30 18901 C 1814.56 0.551829 -2.26886 0
M  V30 18902 C 1815.54 1.12874 -1.27254 0
M  V30 18903 O 1816.72 1.15599 -1.56046 0
M  V30 18904 C 1813.85 1.71839 -3.01809 0
M  V30 18905 C 1812.81 1.27131 -4.08683 0
M  V30 18906 C 1812.13 2.52392 -4.71384 0
M  V30 18907 C 1813.43 0.394413 -5.20809 0
M  V30 18908 H 1815.13 -0.0521331 -2.99355 0
M  V30 18909 H 1812.67 -0.0265138 -1.43976 0
M  V30 18910 H 1814.63 2.32903 -3.5119 0
M  V30 18911 H 1813.35 2.34876 -2.26938 0
M  V30 18912 H 1812.01 0.683666 -3.60169 0
M  V30 18913 H 1811.66 3.13768 -3.93139 0
M  V30 18914 H 1811.36 2.23174 -5.43569 0
M  V30 18915 H 1812.88 3.14239 -5.23533 0
M  V30 18916 H 1814.3 0.911031 -5.66015 0
M  V30 18917 H 1812.69 0.195517 -5.99781 0
M  V30 18918 H 1813.76 -0.577661 -4.81447 0
M  V30 18919 N 1815.11 1.57549 -0.040136 0
M  V30 18920 C 1816.35 1.92535 0.637037 0
M  V30 18921 C 1816.69 0.917836 1.71141 0
M  V30 18922 O 1815.96 -0.057824 1.94414 0
M  V30 18923 C 1816.24 3.37955 1.24333 0
M  V30 18924 C 1816.1 4.49449 0.177761 0
M  V30 18925 C 1817.42 3.8355 2.15818 0
M  V30 18926 H 1814.53 0.700157 0.230107 0
M  V30 18927 H 1817.18 1.89739 -0.0996468 0
M  V30 18928 H 1815.33 3.40468 1.87119 0
M  V30 18929 H 1817 4.59065 -0.453507 0
M  V30 18930 H 1815.24 4.30961 -0.495486 0
M  V30 18931 H 1815.91 5.48256 0.641792 0
M  V30 18932 H 1818.39 3.82842 1.63006 0
M  V30 18933 H 1817.26 4.85974 2.55188 0
M  V30 18934 H 1817.53 3.19678 3.05382 0
M  V30 18935 N 1816.58 -0.233136 1.55866 0
M  V30 18936 C 1817.53 -1.28882 1.91463 0
M  V30 18937 C 1818.5 -1.47151 0.770435 0
M  V30 18938 O 1819.69 -1.6091 1.02531 0
M  V30 18939 C 1816.83 -2.63653 2.22668 0
M  V30 18940 C 1815.94 -2.53278 3.49963 0
M  V30 18941 C 1815.07 -3.80494 3.70672 0
M  V30 18942 C 1814.11 -3.64794 4.9152 0
M  V30 18943 N 1813.25 -4.83933 5.08678 0
M  V30 18944 H 1818.09 -0.978251 2.81486 0
M  V30 18945 H 1815.63 -0.471757 1.3933 0
M  V30 18946 H 1817.59 -3.42119 2.38769 0
M  V30 18947 H 1816.22 -2.9283 1.35833 0
M  V30 18948 H 1815.27 -1.66308 3.4212 0
M  V30 18949 H 1816.58 -2.37592 4.38579 0
M  V30 18950 H 1815.73 -4.67404 3.86806 0
M  V30 18951 H 1814.47 -3.99092 2.80315 0
M  V30 18952 H 1813.48 -2.76268 4.75348 0
M  V30 18953 H 1814.7 -3.47677 5.8335 0
M  V30 18954 H 1812.65 -5.02866 4.21262 0
M  V30 18955 H 1812.57 -4.7093 5.91406 0
M  V30 18956 H 1813.83 -5.72302 5.29236 0
M  V30 18957 N 1818.06 -1.49479 -0.499372 0
M  V30 18958 C 1819.03 -1.6575 -1.58302 0
M  V30 18959 C 1820.03 -0.529236 -1.51841 0
M  V30 18960 O 1821.22 -0.795721 -1.54964 0
M  V30 18961 C 1818.35 -1.65639 -2.97954 0
M  V30 18962 H 1819.54 -2.62404 -1.45203 0
M  V30 18963 H 1817.09 -1.38535 -0.723725 0
M  V30 18964 H 1817.83 -0.705752 -3.16527 0
M  V30 18965 H 1817.61 -2.47578 -3.04051 0
M  V30 18966 H 1819.1 -1.80279 -3.76682 0
M  V30 18967 N 1819.54 0.750537 -1.38581 0
M  V30 18968 C 1820.47 1.87785 -1.38777 0
M  V30 18969 C 1821.45 1.68204 -0.253244 0
M  V30 18970 O 1822.64 1.88752 -0.456779 0
M  V30 18971 C 1819.77 3.2535 -1.21511 0
M  V30 18972 C 1818.72 3.59538 -2.32199 0
M  V30 18973 C 1818.05 4.95873 -2.00036 0
M  V30 18974 C 1819.35 3.64102 -3.74469 0
M  V30 18975 H 1821.04 1.87879 -2.33113 0
M  V30 18976 H 1818.59 0.902504 -1.12209 0
M  V30 18977 H 1820.54 4.03872 -1.20272 0
M  V30 18978 H 1819.26 3.25744 -0.236366 0
M  V30 18979 H 1817.92 2.83336 -2.32629 0
M  V30 18980 H 1817.57 4.9283 -1.00638 0
M  V30 18981 H 1817.27 5.19716 -2.7417 0
M  V30 18982 H 1818.8 5.7677 -2.00421 0
M  V30 18983 H 1820.21 4.32731 -3.76054 0
M  V30 18984 H 1818.61 3.99455 -4.47834 0
M  V30 18985 H 1819.68 2.64259 -4.06565 0
M  V30 18986 N 1821.02 1.235 0.979051 0
M  V30 18987 C 1822.43 1.06263 1.53509 0
M  V30 18988 C 1822.78 -0.369594 1.92687 0
M  V30 18989 O 1821.91 -1.25649 1.76185 0
M  V30 18990 C 1822.5 1.92276 2.78954 0
M  V30 18991 C 1821.06 1.79296 3.30953 0
M  V30 18992 C 1820.21 1.87898 2.03935 0
M  V30 18993 H 1823.16 1.37143 0.798588 0
M  V30 18994 H 1823.18 1.44835 3.51857 0
M  V30 18995 H 1822.69 2.96509 2.50408 0
M  V30 18996 H 1820.79 0.778512 3.64376 0
M  V30 18997 H 1820.91 2.62755 4.0062 0
M  V30 18998 H 1819.27 1.31494 2.18131 0
M  V30 18999 H 1820.05 2.93689 1.77769 0
M  V30 19000 N 1822.5 -1.17802 1.04693 0
M  V30 19001 C 1823.72 -1.92408 0.774194 0
M  V30 19002 C 1824.15 -1.76012 -0.663424 0
M  V30 19003 O 1823.51 -1.07447 -1.4603 0
M  V30 19004 C 1823.55 -3.4166 1.1533 0
M  V30 19005 O 1822.66 -4.11431 0.282469 0
M  V30 19006 H 1822 -0.600033 0.284353 0
M  V30 19007 H 1824.53 -1.49348 1.39844 0
M  V30 19008 H 1824.54 -3.92386 1.11791 0
M  V30 19009 H 1823.21 -3.52914 2.20056 0
M  V30 19010 H 1821.79 -3.70979 0.378021 0
M  V30 19011 N 1823.98 -0.827251 -1.34143 0
M  V30 19012 C 1824.94 -0.257543 -2.27748 0
M  V30 19013 C 1825.94 0.567053 -1.5047 0
M  V30 19014 O 1827.13 0.382529 -1.69948 0
M  V30 19015 C 1824.26 0.638449 -3.34868 0
M  V30 19016 H 1825.45 -1.08338 -2.79648 0
M  V30 19017 H 1823.01 -0.599441 -1.44348 0
M  V30 19018 H 1823.74 1.48717 -2.8819 0
M  V30 19019 H 1823.53 0.0486033 -3.9207 0
M  V30 19020 H 1825.02 1.03071 -4.0468 0
M  V30 19021 N 1825.45 1.46436 -0.582609 0
M  V30 19022 C 1826.7 2.02685 -0.0682503 0
M  V30 19023 C 1827.03 1.45315 1.2883 0
M  V30 19024 O 1826.31 0.61821 1.84414 0
M  V30 19025 C 1826.59 3.601 -0.00237797 0
M  V30 19026 C 1826.44 4.27855 -1.38782 0
M  V30 19027 C 1827.76 4.34525 0.69829 0
M  V30 19028 H 1824.88 0.736531 -0.0262761 0
M  V30 19029 H 1827.52 1.7458 -0.749789 0
M  V30 19030 H 1825.67 3.84176 0.57803 0
M  V30 19031 H 1827.35 4.15043 -2.01339 0
M  V30 19032 H 1825.59 3.87221 -1.95557 0
M  V30 19033 H 1826.26 5.36614 -1.2942 0
M  V30 19034 H 1828.74 4.15594 0.205219 0
M  V30 19035 H 1827.61 5.44244 0.71341 0
M  V30 19036 H 1827.87 4.05575 1.75957 0
M  V30 19037 N 1826.93 0.320385 1.54309 0
M  V30 19038 C 1828.16 -0.28794 2.05391 0
M  V30 19039 C 1828.58 -1.45249 1.19517 0
M  V30 19040 O 1827.94 -1.80154 0.203556 0
M  V30 19041 C 1827.99 -0.703261 3.53676 0
M  V30 19042 O 1827.09 -1.80598 3.70753 0
M  V30 19043 H 1826.43 -0.052589 0.661914 0
M  V30 19044 H 1828.96 0.46787 1.99179 0
M  V30 19045 H 1828.97 -0.986793 3.95887 0
M  V30 19046 H 1827.65 0.148514 4.15635 0
M  V30 19047 H 1826.22 -1.5215 3.40448 0
M  V30 19048 N 1828.41 -1.57525 0.0484906 0
M  V30 19049 C 1829.32 -2.14854 -0.942076 0
M  V30 19050 C 1830.34 -1.10565 -1.34355 0
M  V30 19051 O 1831.51 -1.4272 -1.42102 0
M  V30 19052 C 1828.58 -2.68002 -2.19945 0
M  V30 19053 C 1827.64 -3.87078 -1.85658 0
M  V30 19054 C 1826.87 -4.37682 -3.05401 0
M  V30 19055 O 1827.09 -3.87373 -4.18687 0
M  V30 19056 O 1826.03 -5.29302 -2.86571 0
M  V30 19057 H 1829.85 -2.9981 -0.48453 0
M  V30 19058 H 1827.44 -1.48392 -0.173252 0
M  V30 19059 H 1829.32 -3.02167 -2.93722 0
M  V30 19060 H 1828 -1.86118 -2.64843 0
M  V30 19061 H 1826.9 -3.57806 -1.09205 0
M  V30 19062 H 1828.24 -4.70184 -1.45562 0
M  V30 19063 N 1829.89 0.224867 -1.55988 0
M  V30 19064 C 1831.3 0.574415 -1.48905 0
M  V30 19065 C 1831.5 1.87303 -0.74296 0
M  V30 19066 O 1830.56 2.50929 -0.28127 0
M  V30 19067 C 1831.87 0.656717 -2.93441 0
M  V30 19068 C 1833.42 0.747568 -3.03941 0
M  V30 19069 C 1833.9 0.861243 -4.4983 0
M  V30 19070 N 1835.39 0.92555 -4.53859 0
M  V30 19071 C 1836.12 1.03316 -5.64015 0
M  V30 19072 N 1835.62 1.10492 -6.83932 0
M  V30 19073 N 1837.41 1.06804 -5.5186 0
M  V30 19074 H 1829.56 -0.627339 -2.02924 0
M  V30 19075 H 1831.82 -0.219656 -0.922201 0
M  V30 19076 H 1831.53 -0.227845 -3.50961 0
M  V30 19077 H 1831.4 1.52142 -3.45156 0
M  V30 19078 H 1833.79 1.62257 -2.46489 0
M  V30 19079 H 1833.87 -0.142737 -2.55401 0
M  V30 19080 H 1833.52 -0.00929123 -5.07899 0
M  V30 19081 H 1833.45 1.76692 -4.96072 0
M  V30 19082 H 1835.94 0.880541 -3.67498 0
M  V30 19083 H 1836.25 1.18672 -7.63634 0
M  V30 19084 H 1834.6 1.07411 -6.8665 0
M  V30 19085 H 1837.79 1.0086 -4.57105 0
M  V30 19086 H 1837.96 1.14845 -6.37742 0
M  V30 19087 N 1831.37 1.49742 0.491438 0
M  V30 19088 C 1832.61 1.58956 1.24161 0
M  V30 19089 C 1832.93 0.285882 1.935 0
M  V30 19090 O 1834.13 0.256678 2.70284 0
M  V30 19091 C 1832.59 2.805 2.25494 0
M  V30 19092 C 1832.2 4.17664 1.62051 0
M  V30 19093 C 1833.94 2.99049 3.0128 0
M  V30 19094 C 1831.85 5.3042 2.61551 0
M  V30 19095 H 1830.78 0.591883 0.467108 0
M  V30 19096 H 1833.43 1.76144 0.514364 0
M  V30 19097 H 1831.81 2.56827 3.01423 0
M  V30 19098 H 1832.99 4.51512 0.9205 0
M  V30 19099 H 1831.3 4.04553 0.986211 0
M  V30 19100 H 1833.9 3.80458 3.75707 0
M  V30 19101 H 1834.24 2.0998 3.59464 0
M  V30 19102 H 1834.77 3.22807 2.32466 0
M  V30 19103 H 1831.51 6.21579 2.08135 0
M  V30 19104 H 1831.03 5.01014 3.29765 0
M  V30 19105 H 1832.71 5.60152 3.23789 0
M  V30 19106 N 1832.84 -0.743177 1.38977 0
M  V30 19107 C 1833.78 -1.86709 1.32938 0
M  V30 19108 C 1834.79 -1.61027 0.239644 0
M  V30 19109 O 1835.98 -1.71413 0.497991 0
M  V30 19110 C 1833.08 -3.22566 1.03945 0
M  V30 19111 C 1832.25 -3.75669 2.24034 0
M  V30 19112 C 1831.31 -4.90068 1.91625 0
M  V30 19113 O 1830.34 -5.04156 2.64226 0
M  V30 19114 N 1831.54 -5.7383 0.877465 0
M  V30 19115 H 1834.3 -1.92397 2.2979 0
M  V30 19116 H 1831.86 -0.923564 1.32973 0
M  V30 19117 H 1833.86 -3.96654 0.802977 0
M  V30 19118 H 1832.43 -3.12198 0.15854 0
M  V30 19119 H 1831.65 -2.93027 2.63683 0
M  V30 19120 H 1832.93 -4.07882 3.04154 0
M  V30 19121 H 1832.33 -5.65028 0.275604 0
M  V30 19122 H 1830.89 -6.48021 0.700881 0
M  V30 19123 N 1834.32 -1.24018 -0.972487 0
M  V30 19124 C 1835.25 -1.0529 -2.08414 0
M  V30 19125 C 1836.23 0.0326663 -1.70069 0
M  V30 19126 O 1837.42 -0.133494 -1.93741 0
M  V30 19127 C 1834.55 -0.651796 -3.41129 0
M  V30 19128 C 1833.5 -1.68559 -3.9341 0
M  V30 19129 C 1832.83 -1.1397 -5.22413 0
M  V30 19130 C 1834.13 -3.08046 -4.21788 0
M  V30 19131 H 1835.82 -1.98272 -2.2434 0
M  V30 19132 H 1833.37 -0.954694 -1.07804 0
M  V30 19133 H 1835.32 -0.507792 -4.18329 0
M  V30 19134 H 1834.05 0.313722 -3.2509 0
M  V30 19135 H 1832.7 -1.81773 -3.18362 0
M  V30 19136 H 1832.35 -0.164928 -5.0273 0
M  V30 19137 H 1832.05 -1.83051 -5.5836 0
M  V30 19138 H 1833.58 -1.00771 -6.02227 0
M  V30 19139 H 1834.99 -2.98088 -4.8971 0
M  V30 19140 H 1833.39 -3.74436 -4.68954 0
M  V30 19141 H 1834.46 -3.56444 -3.28749 0
M  V30 19142 N 1835.8 1.17245 -1.05316 0
M  V30 19143 C 1836.76 2.19508 -0.659467 0
M  V30 19144 C 1837.76 1.58169 0.289697 0
M  V30 19145 O 1838.95 1.74045 0.0734019 0
M  V30 19146 C 1836.09 3.40886 0.0311886 0
M  V30 19147 H 1837.28 2.55852 -1.5646 0
M  V30 19148 H 1834.83 1.31348 -0.847193 0
M  V30 19149 H 1835.57 3.10088 0.949535 0
M  V30 19150 H 1835.35 3.86655 -0.651191 0
M  V30 19151 H 1836.84 4.16573 0.292702 0
M  V30 19152 N 1837.28 0.834353 1.33702 0
M  V30 19153 C 1838.23 0.26233 2.29304 0
M  V30 19154 C 1839.2 -0.619326 1.54122 0
M  V30 19155 O 1840.38 -0.558551 1.82441 0
M  V30 19156 C 1837.52 -0.560341 3.4052 0
M  V30 19157 C 1836.63 0.344832 4.30622 0
M  V30 19158 C 1835.77 -0.488505 5.28949 0
M  V30 19159 C 1834.81 0.415341 6.10689 0
M  V30 19160 N 1833.94 -0.3796 7.01073 0
M  V30 19161 H 1838.78 1.08291 2.77628 0
M  V30 19162 H 1836.32 0.545497 1.36612 0
M  V30 19163 H 1838.28 -1.05274 4.03699 0
M  V30 19164 H 1836.91 -1.34593 2.93402 0
M  V30 19165 H 1835.96 0.955519 3.68204 0
M  V30 19166 H 1837.27 1.03935 4.87851 0
M  V30 19167 H 1836.43 -1.04492 5.97634 0
M  V30 19168 H 1835.17 -1.21648 4.72285 0
M  V30 19169 H 1834.17 0.983803 5.40926 0
M  V30 19170 H 1835.4 1.1416 6.69436 0
M  V30 19171 H 1833.34 -1.09103 6.46864 0
M  V30 19172 H 1833.26 0.25629 7.55565 0
M  V30 19173 H 1834.53 -0.918394 7.74071 0
M  V30 19174 N 1838.76 -1.46125 0.590367 0
M  V30 19175 C 1839.72 -2.2884 -0.128368 0
M  V30 19176 C 1840.72 -1.38818 -0.81156 0
M  V30 19177 O 1841.91 -1.61117 -0.662347 0
M  V30 19178 C 1839.04 -3.19402 -1.19144 0
M  V30 19179 H 1840.23 -2.93864 0.598641 0
M  V30 19180 H 1837.79 -1.52362 0.34866 0
M  V30 19181 H 1838.52 -2.59141 -1.94978 0
M  V30 19182 H 1838.31 -3.85692 -0.705973 0
M  V30 19183 H 1839.8 -3.8164 -1.69532 0
M  V30 19184 N 1840.23 -0.328564 -1.54137 0
M  V30 19185 C 1841.14 0.543922 -2.28207 0
M  V30 19186 C 1842.16 1.1249 -1.32748 0
M  V30 19187 O 1843.34 1.1438 -1.65769 0
M  V30 19188 C 1840.4 1.6864 -3.02922 0
M  V30 19189 C 1839.46 1.13672 -4.13977 0
M  V30 19190 C 1838.7 2.22474 -4.85119 0
M  V30 19191 O 1838.92 3.42914 -4.55813 0
M  V30 19192 O 1837.85 1.87611 -5.71914 0
M  V30 19193 H 1841.68 -0.0577601 -3.03645 0
M  V30 19194 H 1839.26 -0.0940895 -1.49103 0
M  V30 19195 H 1841.15 2.35143 -3.49693 0
M  V30 19196 H 1839.82 2.27417 -2.30355 0
M  V30 19197 H 1838.73 0.436625 -3.71543 0
M  V30 19198 H 1840.06 0.594012 -4.88602 0
M  V30 19199 N 1841.71 1.57497 -0.0568439 0
M  V30 19200 C 1842.66 2.1305 0.933398 0
M  V30 19201 C 1843.65 1.06369 1.31841 0
M  V30 19202 O 1844.86 1.2477 1.2974 0
M  V30 19203 H 1841.24 0.681037 0.318893 0
M  V30 19204 H 1843.21 2.95141 0.439796 0
M  V30 19205 C 1841.96 2.69502 2.1969 0
M  V30 19206 H 1841.28 3.51255 1.90945 0
M  V30 19207 H 1842.72 3.11986 2.87124 0
M  V30 19208 C 1841.18 1.63547 2.94541 0
M  V30 19209 O 1841.71 1.0516 3.87691 0
M  V30 19210 N 1839.91 1.34933 2.57374 0
M  V30 19211 H 1839.46 1.82601 1.81699 0
M  V30 19212 H 1839.42 0.642701 3.07761 0
M  V30 19213 N 1843.19 -0.216591 1.56105 0
M  V30 19214 C 1844.44 -0.938321 1.78545 0
M  V30 19215 C 1844.75 -1.85302 0.62629 0
M  V30 19216 O 1845.96 -2.61377 0.734451 0
M  V30 19217 C 1844.41 -1.71871 3.16209 0
M  V30 19218 C 1844.02 -0.849904 4.39864 0
M  V30 19219 C 1845.77 -2.43136 3.47973 0
M  V30 19220 C 1843.67 -1.62793 5.68553 0
M  V30 19221 H 1842.6 -0.354098 0.66568 0
M  V30 19222 H 1845.25 -0.192079 1.82492 0
M  V30 19223 H 1843.64 -2.50804 3.06453 0
M  V30 19224 H 1844.81 -0.100757 4.6069 0
M  V30 19225 H 1843.13 -0.249139 4.15654 0
M  V30 19226 H 1845.72 -3.01856 4.41347 0
M  V30 19227 H 1846.07 -3.16267 2.70704 0
M  V30 19228 H 1846.6 -1.71189 3.59081 0
M  V30 19229 H 1843.34 -0.939801 6.48728 0
M  V30 19230 H 1842.86 -2.35156 5.5178 0
M  V30 19231 H 1844.54 -2.18733 6.08905 0
M  V30 19232 N 1844.67 -1.5 -0.48349 0
M  V30 19233 C 1845.9 -1.64105 -1.26004 0
M  V30 19234 C 1846.31 -0.319389 -1.86079 0
M  V30 19235 O 1845.67 0.697243 -1.68656 0
M  V30 19236 C 1845.72 -2.72299 -2.37772 0
M  V30 19237 O 1845.44 -3.99341 -1.80163 0
M  V30 19238 C 1846.94 -2.97266 -3.28858 0
M  V30 19239 H 1844.16 -0.551971 -0.381535 0
M  V30 19240 H 1846.71 -1.96146 -0.57852 0
M  V30 19241 H 1844.86 -2.42987 -3.01722 0
M  V30 19242 H 1845.27 -4.59077 -2.5367 0
M  V30 19243 H 1846.75 -3.76662 -4.03521 0
M  V30 19244 H 1847.23 -2.07855 -3.86902 0
M  V30 19245 H 1847.83 -3.28062 -2.70657 0
M  V30 19246 N 1846.15 0.735796 -1.39369 0
M  V30 19247 C 1847.11 1.83148 -1.37802 0
M  V30 19248 C 1848.11 1.58426 -0.27528 0
M  V30 19249 O 1849.3 1.65841 -0.53314 0
M  V30 19250 C 1846.43 3.20923 -1.14984 0
M  V30 19251 H 1847.62 1.85941 -2.353 0
M  V30 19252 H 1845.18 0.939367 -1.24922 0
M  V30 19253 H 1845.91 3.23791 -0.181648 0
M  V30 19254 H 1845.7 3.40264 -1.94841 0
M  V30 19255 H 1847.19 4.00984 -1.16626 0
M  V30 19256 N 1847.63 1.24532 0.965897 0
M  V30 19257 C 1848.56 0.997143 2.06373 0
M  V30 19258 C 1849.57 -0.0340261 1.62764 0
M  V30 19259 O 1850.76 0.203223 1.77339 0
M  V30 19260 C 1847.86 0.483305 3.35436 0
M  V30 19261 C 1847.03 1.57803 4.07942 0
M  V30 19262 C 1846.09 1.06652 5.15278 0
M  V30 19263 O 1845.12 1.75859 5.41352 0
M  V30 19264 N 1846.32 -0.0981119 5.80417 0
M  V30 19265 H 1849.08 1.94238 2.28236 0
M  V30 19266 H 1846.65 1.15586 1.13365 0
M  V30 19267 H 1848.64 0.125833 4.04504 0
M  V30 19268 H 1847.21 -0.367709 3.1043 0
M  V30 19269 H 1846.43 2.1076 3.33127 0
M  V30 19270 H 1847.72 2.3138 4.53146 0
M  V30 19271 H 1847.11 -0.676662 5.61638 0
M  V30 19272 H 1845.67 -0.396714 6.50592 0
M  V30 19273 N 1849.1 -1.16685 1.05936 0
M  V30 19274 C 1850.51 -1.68745 0.798866 0
M  V30 19275 C 1850.87 -1.84113 -0.678008 0
M  V30 19276 O 1849.99 -1.53408 -1.52627 0
M  V30 19277 C 1850.59 -3.06508 1.44356 0
M  V30 19278 C 1849.14 -3.55704 1.23092 0
M  V30 19279 C 1848.29 -2.31776 1.52235 0
M  V30 19280 H 1851.24 -1.01097 1.22332 0
M  V30 19281 H 1851.26 -3.70725 0.856908 0
M  V30 19282 H 1850.78 -2.95291 2.51843 0
M  V30 19283 H 1848.88 -3.72186 0.175632 0
M  V30 19284 H 1848.99 -4.38015 1.94112 0
M  V30 19285 H 1847.35 -2.36611 0.942734 0
M  V30 19286 H 1848.14 -2.2316 2.60873 0
M  V30 19287 N 1850.58 -0.841432 -1.33258 0
M  V30 19288 C 1851.83 -0.438378 -1.97698 0
M  V30 19289 C 1852.16 1.00298 -1.66645 0
M  V30 19290 O 1851.41 1.71648 -0.939965 0
M  V30 19291 C 1851.71 -0.608921 -3.52175 0
M  V30 19292 C 1851.38 -2.01876 -4.03184 0
M  V30 19293 C 1850.04 -2.40438 -4.16825 0
M  V30 19294 C 1852.39 -2.93952 -4.30397 0
M  V30 19295 C 1849.72 -3.70376 -4.55015 0
M  V30 19296 C 1852.07 -4.23373 -4.7004 0
M  V30 19297 C 1850.73 -4.61888 -4.81888 0
M  V30 19298 H 1850 -0.160414 -0.723428 0
M  V30 19299 H 1852.65 -1.06895 -1.58889 0
M  V30 19300 H 1850.96 0.104948 -3.91659 0
M  V30 19301 H 1852.65 -0.277313 -4.0004 0
M  V30 19302 H 1849.24 -1.70927 -3.93042 0
M  V30 19303 H 1853.43 -2.65396 -4.19379 0
M  V30 19304 H 1848.68 -4.00018 -4.62381 0
M  V30 19305 H 1852.86 -4.94793 -4.90054 0
M  V30 19306 H 1850.48 -5.6262 -5.11237 0
M  V30 19307 N 1852.06 1.4581 -0.598108 0
M  V30 19308 C 1853.34 1.95588 -0.0220376 0
M  V30 19309 C 1853.72 1.54066 1.44316 0
M  V30 19310 O 1853.06 0.798663 2.14088 0
M  V30 19311 C 1853.27 3.48366 -0.210204 0
M  V30 19312 C 1854.62 4.24513 -0.0860474 0
M  V30 19313 O 1855.65 3.55925 -0.139833 0
M  V30 19314 O 1854.51 5.46488 0.0367961 0
M  V30 19315 H 1851.6 0.825977 0.0411123 0
M  V30 19316 H 1854.15 1.56021 -0.667506 0
M  V30 19317 H 1852.92 3.71526 -1.22818 0
M  V30 19318 H 1852.54 3.94801 0.470974 0
M  V30 19319 N 1853.54 0.336733 1.53961 0
M  V30 19320 C 1854.5 -0.510638 2.23439 0
M  V30 19321 C 1855.5 -1.03304 1.23227 0
M  V30 19322 O 1856.69 -0.923373 1.47714 0
M  V30 19323 C 1853.82 -1.71063 2.94873 0
M  V30 19324 H 1855.02 0.0969205 2.99743 0
M  V30 19325 H 1852.57 0.0879867 1.56052 0
M  V30 19326 H 1853.3 -2.35707 2.22739 0
M  V30 19327 H 1853.09 -1.34331 3.68371 0
M  V30 19328 H 1854.58 -2.31182 3.47771 0
M  V30 19329 N 1855.02 -1.57465 0.0651956 0
M  V30 19330 C 1856.26 -1.93524 -0.606325 0
M  V30 19331 C 1856.59 -0.944947 -1.6966 0
M  V30 19332 O 1855.87 0.0268871 -1.94481 0
M  V30 19333 C 1856.15 -3.3989 -1.18941 0
M  V30 19334 C 1856.01 -4.49675 -0.106235 0
M  V30 19335 C 1857.32 -3.86935 -2.09689 0
M  V30 19336 H 1854.44 -0.703729 -0.218939 0
M  V30 19337 H 1857.09 -1.89556 0.12982 0
M  V30 19338 H 1855.24 -3.43402 -1.81679 0
M  V30 19339 H 1856.91 -4.58286 0.526483 0
M  V30 19340 H 1855.15 -4.30118 0.563985 0
M  V30 19341 H 1855.82 -5.49208 -0.554488 0
M  V30 19342 H 1858.3 -3.85387 -1.56895 0
M  V30 19343 H 1857.17 -4.89972 -2.47424 0
M  V30 19344 H 1857.43 -3.24496 -3.00258 0
M  V30 19345 N 1856.49 0.20831 -1.56217 0
M  V30 19346 C 1857.74 0.928839 -1.7904 0
M  V30 19347 C 1858.06 1.84968 -0.636108 0
M  V30 19348 O 1859.26 2.60984 -0.748302 0
M  V30 19349 C 1857.72 1.70192 -3.17116 0
M  V30 19350 C 1857.33 0.826564 -4.40309 0
M  V30 19351 C 1859.07 2.41287 -3.49257 0
M  V30 19352 C 1856.98 1.59775 -5.69408 0
M  V30 19353 H 1855.91 0.350563 -0.667549 0
M  V30 19354 H 1858.56 0.182398 -1.82591 0
M  V30 19355 H 1856.94 2.49176 -3.07778 0
M  V30 19356 H 1858.11 0.076324 -4.60737 0
M  V30 19357 H 1856.43 0.227092 -4.1578 0
M  V30 19358 H 1859.03 2.99511 -4.42942 0
M  V30 19359 H 1859.37 3.14827 -2.72377 0
M  V30 19360 H 1859.9 1.69282 -3.59984 0
M  V30 19361 H 1856.64 0.905384 -6.49217 0
M  V30 19362 H 1856.16 2.32227 -5.5302 0
M  V30 19363 H 1857.84 2.155 -6.10056 0
M  V30 19364 N 1857.97 1.50255 0.475528 0
M  V30 19365 C 1859.22 1.61022 1.22793 0
M  V30 19366 C 1859.55 0.308508 1.92038 0
M  V30 19367 O 1858.8 -0.70533 1.82547 0
M  V30 19368 C 1859.1 2.73698 2.29835 0
M  V30 19369 C 1858.77 4.14333 1.77873 0
M  V30 19370 C 1857.43 4.526 1.63423 0
M  V30 19371 C 1859.78 5.02247 1.39275 0
M  V30 19372 C 1857.11 5.76525 1.08791 0
M  V30 19373 C 1859.46 6.26715 0.860869 0
M  V30 19374 C 1858.12 6.63788 0.702959 0
M  V30 19375 H 1857.39 0.589221 0.449332 0
M  V30 19376 H 1860.04 1.84173 0.524633 0
M  V30 19377 H 1858.35 2.44617 3.06055 0
M  V30 19378 H 1860.04 2.79233 2.87802 0
M  V30 19379 H 1856.63 3.84142 1.90087 0
M  V30 19380 H 1860.82 4.73319 1.49276 0
M  V30 19381 H 1856.07 6.03927 0.952987 0
M  V30 19382 H 1860.25 6.942 0.553109 0
M  V30 19383 H 1857.87 7.59693 0.277471 0
M  V30 19384 N 1859.45 -0.728395 1.39758 0
M  V30 19385 C 1860.4 -1.83374 1.35491 0
M  V30 19386 C 1861.38 -1.5918 0.234629 0
M  V30 19387 O 1862.58 -1.70571 0.472703 0
M  V30 19388 C 1859.7 -3.21373 1.20725 0
M  V30 19389 C 1858.79 -3.51373 2.37482 0
M  V30 19390 N 1859.18 -3.52269 3.6296 0
M  V30 19391 C 1857.48 -3.81769 2.30583 0
M  V30 19392 C 1858.18 -3.80252 4.40208 0
M  V30 19393 N 1857.16 -3.98359 3.6988 0
M  V30 19394 H 1860.96 -1.82381 2.30465 0
M  V30 19395 H 1858.47 -0.926941 1.33348 0
M  V30 19396 H 1860.47 -4.00509 1.15751 0
M  V30 19397 H 1859.13 -3.236 0.267072 0
M  V30 19398 H 1860.14 -3.33423 3.96295 0
M  V30 19399 H 1856.82 -3.91562 1.44862 0
M  V30 19400 H 1858.21 -3.87357 5.49003 0
M  V30 19401 N 1860.93 -1.25042 -0.959279 0
M  V30 19402 C 1862.18 -1.09298 -1.69995 0
M  V30 19403 C 1862.5 0.367507 -1.91506 0
M  V30 19404 O 1861.77 1.26142 -1.49883 0
M  V30 19405 H 1860.35 -0.401469 -0.629945 0
M  V30 19406 H 1863.01 -1.57094 -1.15358 0
M  V30 19407 H 1862.1 -1.59766 -2.68107 0
M  V30 19408 N 1862.41 1.16121 -1.06553 0
M  V30 19409 C 1863.68 1.82752 -0.697202 0
M  V30 19410 C 1864.06 1.94474 0.821172 0
M  V30 19411 O 1863.41 1.48988 1.73248 0
M  V30 19412 C 1863.62 3.19592 -1.4022 0
M  V30 19413 C 1864.97 3.95333 -1.5491 0
M  V30 19414 O 1865.99 3.29119 -1.36232 0
M  V30 19415 O 1864.85 5.14028 -1.85574 0
M  V30 19416 H 1861.95 0.789214 -0.247125 0
M  V30 19417 H 1864.49 1.23302 -1.16597 0
M  V30 19418 H 1863.26 3.06111 -2.43745 0
M  V30 19419 H 1862.89 3.86722 -0.923686 0
M  V30 19420 N 1863.88 0.848487 1.3281 0
M  V30 19421 C 1865.11 0.46174 2.02195 0
M  V30 19422 C 1865.53 -0.932159 1.63378 0
M  V30 19423 O 1864.89 -1.6112 0.831266 0
M  V30 19424 C 1864.94 0.601234 3.55552 0
M  V30 19425 O 1864.04 -0.368549 4.1075 0
M  V30 19426 H 1863.39 0.186379 0.637306 0
M  V30 19427 H 1865.92 1.14598 1.69495 0
M  V30 19428 H 1865.93 0.486456 4.0509 0
M  V30 19429 H 1864.6 1.61773 3.83148 0
M  V30 19430 H 1863.18 -0.210525 3.72305 0
M  V30 19431 N 1865.36 -1.4549 0.605832 0
M  V30 19432 C 1866.64 -1.95573 0.0324098 0
M  V30 19433 C 1867.02 -1.54829 -1.43496 0
M  V30 19434 O 1866.37 -0.810005 -2.13661 0
M  V30 19435 C 1866.58 -3.4825 0.228676 0
M  V30 19436 C 1867.93 -4.24461 0.108559 0
M  V30 19437 O 1868.95 -3.55846 0.158706 0
M  V30 19438 O 1867.81 -5.46499 -0.00781404 0
M  V30 19439 H 1864.9 -0.826184 -0.0367314 0
M  V30 19440 H 1867.45 -1.55664 0.675771 0
M  V30 19441 H 1866.22 -3.70869 1.24786 0
M  V30 19442 H 1865.84 -3.95045 -0.450031 0
M  V30 19443 N 1866.84 -0.344893 -1.5378 0
M  V30 19444 C 1867.77 0.545646 -2.2261 0
M  V30 19445 C 1868.79 1.06288 -1.23315 0
M  V30 19446 O 1869.97 0.972802 -1.49662 0
M  V30 19447 C 1867.07 1.76379 -2.89385 0
M  V30 19448 C 1866.25 1.38162 -4.15006 0
M  V30 19449 C 1865.31 2.45958 -4.65179 0
M  V30 19450 O 1864.33 2.0921 -5.29358 0
M  V30 19451 N 1865.53 3.77232 -4.41221 0
M  V30 19452 H 1868.3 -0.043834 -2.99668 0
M  V30 19453 H 1865.86 -0.169081 -1.61015 0
M  V30 19454 H 1867.85 2.47928 -3.19865 0
M  V30 19455 H 1866.42 2.26061 -2.15905 0
M  V30 19456 H 1865.64 0.496839 -3.91056 0
M  V30 19457 H 1866.93 1.10227 -4.96717 0
M  V30 19458 H 1866.33 4.09875 -3.89896 0
M  V30 19459 H 1864.89 4.44947 -4.76304 0
M  V30 19460 N 1868.32 1.57428 -0.0735454 0
M  V30 19461 C 1869.25 2.15849 0.890584 0
M  V30 19462 C 1870.23 1.086 1.3092 0
M  V30 19463 O 1871.41 1.36643 1.37994 0
M  V30 19464 C 1868.54 2.72153 2.15755 0
M  V30 19465 C 1867.5 3.84584 1.87827 0
M  V30 19466 C 1866.82 4.27498 3.21169 0
M  V30 19467 C 1868.12 5.08746 1.18217 0
M  V30 19468 H 1869.82 2.96663 0.403904 0
M  V30 19469 H 1867.36 1.42703 0.192836 0
M  V30 19470 H 1869.32 3.11668 2.83621 0
M  V30 19471 H 1868.04 1.88562 2.66668 0
M  V30 19472 H 1866.7 3.45575 1.22366 0
M  V30 19473 H 1866.35 3.40827 3.69927 0
M  V30 19474 H 1866.05 5.03288 3.03273 0
M  V30 19475 H 1867.57 4.69631 3.9023 0
M  V30 19476 H 1868.99 5.45566 1.76155 0
M  V30 19477 H 1867.38 5.89825 1.10573 0
M  V30 19478 H 1868.45 4.84631 0.161525 0
M  V30 19479 N 1869.8 -0.200022 1.56326 0
M  V30 19480 C 1871.21 -0.550653 1.498 0
M  V30 19481 C 1871.41 -1.86097 0.772664 0
M  V30 19482 O 1870.47 -2.50449 0.321155 0
M  V30 19483 C 1871.78 -0.60995 2.94449 0
M  V30 19484 C 1873.33 -0.699119 3.05092 0
M  V30 19485 C 1873.8 -0.78957 4.51143 0
M  V30 19486 N 1875.3 -0.853228 4.55274 0
M  V30 19487 C 1876.03 -0.943298 5.65588 0
M  V30 19488 N 1875.53 -0.995976 6.85603 0
M  V30 19489 N 1877.32 -0.980106 5.53489 0
M  V30 19490 H 1869.47 0.659543 2.019 0
M  V30 19491 H 1871.73 0.234299 0.91859 0
M  V30 19492 H 1871.44 0.283651 3.50554 0
M  V30 19493 H 1871.31 -1.46632 3.47533 0
M  V30 19494 H 1873.7 -1.58315 2.49039 0
M  V30 19495 H 1873.78 0.183351 2.55142 0
M  V30 19496 H 1873.43 0.0900924 5.0782 0
M  V30 19497 H 1873.36 -1.68777 4.9882 0
M  V30 19498 H 1875.85 -0.821964 3.68853 0
M  V30 19499 H 1876.16 -1.06508 7.65425 0
M  V30 19500 H 1874.5 -0.964738 6.88272 0
M  V30 19501 H 1877.7 -0.935755 4.58652 0
M  V30 19502 H 1877.87 -1.04684 6.39488 0
M  V30 19503 N 1871.27 -1.50505 -0.467553 0
M  V30 19504 C 1872.24 -1.69071 -1.54751 0
M  V30 19505 C 1873.24 -0.561325 -1.50684 0
M  V30 19506 O 1874.43 -0.828412 -1.53242 0
M  V30 19507 C 1871.56 -1.71922 -2.94373 0
M  V30 19508 H 1872.75 -2.65425 -1.39605 0
M  V30 19509 H 1870.31 -1.40039 -0.694177 0
M  V30 19510 H 1871.04 -0.772734 -3.14959 0
M  V30 19511 H 1870.83 -2.53972 -2.98732 0
M  V30 19512 H 1872.32 -1.88228 -3.72773 0
M  V30 19513 N 1872.75 0.720973 -1.40142 0
M  V30 19514 C 1873.68 1.84799 -1.42729 0
M  V30 19515 C 1874.66 1.67629 -0.288866 0
M  V30 19516 O 1875.85 1.8774 -0.496713 0
M  V30 19517 C 1872.98 3.22699 -1.28385 0
M  V30 19518 C 1871.93 3.54532 -2.39773 0
M  V30 19519 C 1871.26 4.91518 -2.10509 0
M  V30 19520 C 1872.56 3.56077 -3.82108 0
M  V30 19521 H 1874.25 1.82892 -2.37046 0
M  V30 19522 H 1871.8 0.8785 -1.14098 0
M  V30 19523 H 1873.75 4.0123 -1.28812 0
M  V30 19524 H 1872.48 3.25169 -0.305408 0
M  V30 19525 H 1871.13 2.78338 -2.38586 0
M  V30 19526 H 1870.78 4.90584 -1.11069 0
M  V30 19527 H 1870.48 5.13783 -2.85132 0
M  V30 19528 H 1872.01 5.72389 -2.1261 0
M  V30 19529 H 1873.42 4.24657 -3.85148 0
M  V30 19530 H 1871.82 3.89866 -4.56207 0
M  V30 19531 H 1872.89 2.55576 -4.12079 0
M  V30 19532 N 1874.23 1.25549 0.952634 0
M  V30 19533 C 1875.47 1.11623 1.7123 0
M  V30 19534 C 1875.83 -0.336737 1.89024 0
M  V30 19535 O 1877.04 -0.597864 2.62067 0
M  V30 19536 C 1875.31 1.85192 3.05677 0
M  V30 19537 S 1876.87 1.87182 3.96873 0
M  V30 19538 H 1873.68 0.398936 0.588533 0
M  V30 19539 H 1876.29 1.59103 1.13607 0
M  V30 19540 H 1874.99 2.89995 2.90398 0
M  V30 19541 H 1874.52 1.38108 3.68361 0
M  V30 19542 H 1876.54 0.950292 4.87015 0
M  V30 19543 N 1875.71 -1.15554 1.07168 0
M  V30 19544 C 1876.62 -2.2386 0.701714 0
M  V30 19545 C 1877.63 -1.7163 -0.28621 0
M  V30 19546 O 1878.81 -2.00958 -0.133308 0
M  V30 19547 C 1875.88 -3.46546 0.103165 0
M  V30 19548 C 1874.94 -4.13774 1.14409 0
M  V30 19549 C 1874.17 -5.30604 0.574007 0
M  V30 19550 O 1874.39 -5.67123 -0.610521 0
M  V30 19551 O 1873.33 -5.87293 1.31799 0
M  V30 19552 H 1877.15 -2.57833 1.60487 0
M  V30 19553 H 1874.74 -1.23241 0.844514 0
M  V30 19554 H 1876.62 -4.2078 -0.228452 0
M  V30 19555 H 1875.29 -3.14327 -0.773339 0
M  V30 19556 H 1874.2 -3.4147 1.52803 0
M  V30 19557 H 1875.53 -4.5007 1.99243 0
M  V30 19558 N 1877.19 -0.855519 -1.32358 0
M  V30 19559 C 1878.15 -0.305794 -2.27151 0
M  V30 19560 C 1879.15 0.535008 -1.51639 0
M  V30 19561 O 1880.34 0.346394 -1.70721 0
M  V30 19562 C 1877.47 0.567275 -3.36147 0
M  V30 19563 H 1878.67 -1.14245 -2.77287 0
M  V30 19564 H 1876.22 -0.629924 -1.43044 0
M  V30 19565 H 1876.95 1.42571 -2.9128 0
M  V30 19566 H 1876.74 -0.0345714 -3.92085 0
M  V30 19567 H 1878.23 0.944644 -4.06775 0
M  V30 19568 N 1878.67 1.45167 -0.61354 0
M  V30 19569 C 1879.91 2.02495 -0.111227 0
M  V30 19570 C 1880.24 1.48015 1.25719 0
M  V30 19571 O 1879.52 0.657188 1.83061 0
M  V30 19572 C 1879.8 3.60014 -0.07876 0
M  V30 19573 C 1879.66 4.24814 -1.47827 0
M  V30 19574 C 1880.97 4.35908 0.605964 0
M  V30 19575 H 1878.09 0.735808 -0.0418931 0
M  V30 19576 H 1880.74 1.7295 -0.786651 0
M  V30 19577 H 1878.89 3.85315 0.496411 0
M  V30 19578 H 1880.56 4.10678 -2.10097 0
M  V30 19579 H 1878.8 3.82986 -2.03726 0
M  V30 19580 H 1879.47 5.33748 -1.40774 0
M  V30 19581 H 1881.95 4.15935 0.117019 0
M  V30 19582 H 1880.82 5.45635 0.597808 0
M  V30 19583 H 1881.08 4.09216 1.67315 0
M  V30 19584 N 1880.14 0.353044 1.53595 0
M  V30 19585 C 1881.11 -0.48691 2.23968 0
M  V30 19586 C 1882.11 -1.01991 1.24316 0
M  V30 19587 O 1883.3 -0.907654 1.48685 0
M  V30 19588 C 1880.43 -1.67926 2.96671 0
M  V30 19589 H 1881.62 0.128707 2.99624 0
M  V30 19590 H 1879.17 0.104533 1.5595 0
M  V30 19591 H 1879.91 -2.33331 2.25227 0
M  V30 19592 H 1879.69 -1.30417 3.69776 0
M  V30 19593 H 1881.18 -2.2748 3.50203 0
M  V30 19594 N 1881.62 -1.57387 0.0818932 0
M  V30 19595 C 1882.58 -2.12162 -0.86718 0
M  V30 19596 C 1883.58 -1.04788 -1.21967 0
M  V30 19597 O 1884.77 -1.30733 -1.15128 0
M  V30 19598 C 1881.91 -2.63132 -2.16736 0
M  V30 19599 H 1883.1 -2.9733 -0.391788 0
M  V30 19600 H 1880.65 -1.55406 -0.166944 0
M  V30 19601 H 1881.39 -1.81446 -2.6879 0
M  V30 19602 H 1881.17 -3.41625 -1.92445 0
M  V30 19603 H 1882.66 -3.05549 -2.84657 0
M  V30 19604 N 1883.1 0.191729 -1.56429 0
M  V30 19605 C 1884.52 0.542701 -1.5009 0
M  V30 19606 C 1884.72 1.85685 -0.782522 0
M  V30 19607 O 1883.77 2.50275 -0.334432 0
M  V30 19608 C 1885.08 0.594326 -2.94768 0
M  V30 19609 C 1886.63 0.682929 -3.05459 0
M  V30 19610 C 1887.11 0.765634 -4.51555 0
M  V30 19611 N 1888.6 0.829072 -4.5572 0
M  V30 19612 C 1889.33 0.91329 -5.6608 0
M  V30 19613 N 1888.83 0.959603 -6.86122 0
M  V30 19614 N 1890.62 0.950739 -5.54001 0
M  V30 19615 H 1882.77 -0.670241 -2.01548 0
M  V30 19616 H 1885.04 -0.239168 -0.917335 0
M  V30 19617 H 1884.74 -0.302238 -3.50399 0
M  V30 19618 H 1884.62 1.44787 -3.48305 0
M  V30 19619 H 1887 1.56992 -2.49875 0
M  V30 19620 H 1887.08 -0.19688 -2.55041 0
M  V30 19621 H 1886.73 -0.117022 -5.07765 0
M  V30 19622 H 1886.66 1.66129 -4.99709 0
M  V30 19623 H 1889.15 0.802391 -3.69283 0
M  V30 19624 H 1889.46 1.02447 -7.65979 0
M  V30 19625 H 1887.81 0.928223 -6.88774 0
M  V30 19626 H 1891 0.911418 -4.59141 0
M  V30 19627 H 1891.17 1.01291 -6.40034 0
M  V30 19628 N 1884.58 1.50751 0.459565 0
M  V30 19629 C 1885.85 1.5284 1.22062 0
M  V30 19630 C 1886.23 0.279716 2.09239 0
M  V30 19631 O 1885.58 -0.73634 2.16311 0
M  V30 19632 C 1885.79 2.83046 2.04171 0
M  V30 19633 C 1887.14 3.34151 2.6197 0
M  V30 19634 O 1888.16 2.84446 2.14403 0
M  V30 19635 O 1887.02 4.20824 3.48668 0
M  V30 19636 H 1884.12 0.613549 0.554515 0
M  V30 19637 H 1886.66 1.63049 0.470445 0
M  V30 19638 H 1885.44 3.65397 1.40004 0
M  V30 19639 H 1885.06 2.75896 2.86299 0
M  V30 19640 N 1886.06 -0.713531 1.40522 0
M  V30 19641 C 1887.3 -1.47052 1.38637 0
M  V30 19642 C 1887.62 -1.94998 -0.00984474 0
M  V30 19643 O 1886.89 -1.70486 -0.964959 0
M  V30 19644 H 1885.47 -0.545577 0.51025 0
M  V30 19645 H 1888.14 -0.84572 1.75595 0
M  V30 19646 H 1887.23 -2.34237 2.06251 0
M  V30 19647 N 1887.53 -1.26053 -0.945962 0
M  V30 19648 C 1888.76 -1.14079 -1.72608 0
M  V30 19649 C 1889.18 0.304506 -1.86328 0
M  V30 19650 O 1888.53 1.20885 -1.36723 0
M  V30 19651 C 1888.58 -1.79938 -3.13535 0
M  V30 19652 O 1888.31 -3.18819 -3.00476 0
M  V30 19653 C 1889.81 -1.73856 -4.07785 0
M  V30 19654 H 1887.03 -0.397486 -0.540598 0
M  V30 19655 H 1889.57 -1.66582 -1.1862 0
M  V30 19656 H 1887.73 -1.31385 -3.6444 0
M  V30 19657 H 1888.14 -3.51337 -3.89439 0
M  V30 19658 H 1889.61 -2.24584 -5.04248 0
M  V30 19659 H 1890.09 -0.704095 -4.33519 0
M  V30 19660 H 1890.7 -2.21939 -3.62799 0
M  V30 19661 N 1889.01 1.14984 -1.07779 0
M  V30 19662 C 1890.26 1.85219 -0.798561 0
M  V30 19663 C 1890.57 1.83476 0.677935 0
M  V30 19664 O 1891.78 2.49436 1.0721 0
M  V30 19665 C 1890.24 3.32454 -1.37849 0
M  V30 19666 C 1889.84 3.42631 -2.88631 0
M  V30 19667 C 1891.59 4.07843 -1.17747 0
M  V30 19668 C 1889.49 4.8404 -3.39794 0
M  V30 19669 H 1888.42 0.693872 -0.295054 0
M  V30 19670 H 1891.08 1.29668 -1.2984 0
M  V30 19671 H 1889.46 3.87703 -0.806374 0
M  V30 19672 H 1890.63 2.97466 -3.51925 0
M  V30 19673 H 1888.95 2.80691 -3.07573 0
M  V30 19674 H 1891.54 5.1221 -1.53444 0
M  V30 19675 H 1891.89 4.16136 -0.116815 0
M  V30 19676 H 1892.42 3.58876 -1.71618 0
M  V30 19677 H 1889.16 4.80932 -4.45404 0
M  V30 19678 H 1888.68 5.29769 -2.81256 0
M  V30 19679 H 1890.36 5.5291 -3.36005 0
M  V30 19680 N 1890.49 0.862526 1.31902 0
M  V30 19681 C 1891.74 0.470471 1.97267 0
M  V30 19682 C 1892.07 -0.973153 1.68058 0
M  V30 19683 O 1891.34 -1.68411 0.973035 0
M  V30 19684 C 1891.63 0.719362 3.52842 0
M  V30 19685 C 1891.48 2.21198 3.91652 0
M  V30 19686 C 1892.8 0.18092 4.39728 0
M  V30 19687 H 1889.92 0.172408 0.71655 0
M  V30 19688 H 1892.56 1.0824 1.56154 0
M  V30 19689 H 1890.71 0.198516 3.87992 0
M  V30 19690 H 1892.38 2.79951 3.66641 0
M  V30 19691 H 1890.62 2.68744 3.40528 0
M  V30 19692 H 1891.3 2.33679 5.00098 0
M  V30 19693 H 1893.77 0.626421 4.11358 0
M  V30 19694 H 1892.65 0.384575 5.47551 0
M  V30 19695 H 1892.91 -0.916756 4.3249 0
M  V30 19696 N 1891.97 -1.4484 0.62123 0
M  V30 19697 C 1893.19 -2.07012 0.126801 0
M  V30 19698 C 1893.62 -1.46046 -1.18542 0
M  V30 19699 O 1892.98 -0.558202 -1.72493 0
M  V30 19700 C 1893.02 -3.60597 0.0150611 0
M  V30 19701 O 1892.13 -3.9929 -1.03157 0
M  V30 19702 H 1891.47 -0.659131 0.0802646 0
M  V30 19703 H 1894 -1.85874 0.855105 0
M  V30 19704 H 1894.01 -4.07608 -0.178742 0
M  V30 19705 H 1892.68 -4.04354 0.973153 0
M  V30 19706 H 1891.26 -3.63927 -0.813135 0
M  V30 19707 N 1893.45 -0.361184 -1.53405 0
M  V30 19708 C 1894.69 0.230222 -2.01489 0
M  V30 19709 C 1895.03 1.48779 -1.24814 0
M  V30 19710 O 1894.3 1.91494 -0.340612 0
M  V30 19711 C 1894.58 0.526613 -3.56229 0
M  V30 19712 C 1894.44 -0.744277 -4.436 0
M  V30 19713 C 1895.76 1.32901 -4.19554 0
M  V30 19714 H 1892.87 0.0822009 -0.732402 0
M  V30 19715 H 1895.52 -0.485208 -1.837 0
M  V30 19716 H 1893.67 1.13609 -3.71517 0
M  V30 19717 H 1895.34 -1.38188 -4.40116 0
M  V30 19718 H 1893.58 -1.36555 -4.11747 0
M  V30 19719 H 1894.25 -0.491913 -5.49804 0
M  V30 19720 H 1896.73 0.813474 -4.08071 0
M  V30 19721 H 1895.6 1.50513 -5.27861 0
M  V30 19722 H 1895.87 2.33625 -3.75329 0
M  V30 19723 N 1894.92 1.57341 -0.0902386 0
M  V30 19724 C 1895.86 2.10775 0.900374 0
M  V30 19725 C 1896.87 1.0439 1.24926 0
M  V30 19726 O 1898.06 1.31851 1.20322 0
M  V30 19727 C 1895.16 2.56852 2.21089 0
M  V30 19728 C 1894.33 3.87016 2.03808 0
M  V30 19729 C 1893.39 4.18991 3.18328 0
M  V30 19730 O 1892.42 4.88292 2.92505 0
M  V30 19731 N 1893.62 3.74006 4.43959 0
M  V30 19732 H 1896.38 2.96392 0.444045 0
M  V30 19733 H 1893.94 1.61621 0.0949979 0
M  V30 19734 H 1895.94 2.75292 2.96642 0
M  V30 19735 H 1894.51 1.76271 2.58161 0
M  V30 19736 H 1893.73 3.77772 1.12613 0
M  V30 19737 H 1895.01 4.72181 1.89532 0
M  V30 19738 H 1894.41 3.18056 4.67821 0
M  V30 19739 H 1892.97 3.97611 5.16477 0
M  V30 19740 N 1896.4 -0.183431 1.56529 0
M  V30 19741 C 1897.65 -0.900214 1.80944 0
M  V30 19742 C 1897.97 -1.83302 0.665246 0
M  V30 19743 O 1897.24 -1.9334 -0.315697 0
M  V30 19744 H 1895.82 -0.335409 0.667465 0
M  V30 19745 H 1898.48 -0.186146 1.94009 0
M  V30 19746 H 1897.58 -1.48437 2.74541 0
M  V30 19747 N 1897.88 -1.50992 -0.451564 0
M  V30 19748 C 1899.13 -1.62955 -1.20216 0
M  V30 19749 C 1899.46 -0.33902 -1.91523 0
M  V30 19750 O 1898.71 0.676199 -1.83647 0
M  V30 19751 C 1899.01 -2.7732 -2.25452 0
M  V30 19752 C 1898.68 -4.1711 -1.71259 0
M  V30 19753 C 1897.34 -4.55142 -1.56202 0
M  V30 19754 C 1899.69 -5.04399 -1.31268 0
M  V30 19755 C 1897.02 -5.78183 -0.996051 0
M  V30 19756 C 1899.37 -6.28005 -0.761055 0
M  V30 19757 C 1898.03 -6.64823 -0.597267 0
M  V30 19758 H 1897.3 -0.596295 -0.439901 0
M  V30 19759 H 1899.95 -1.84985 -0.495266 0
M  V30 19760 H 1898.26 -2.49455 -3.02125 0
M  V30 19761 H 1899.95 -2.83777 -2.83323 0
M  V30 19762 H 1896.54 -3.87117 -1.83952 0
M  V30 19763 H 1900.73 -4.75633 -1.41727 0
M  V30 19764 H 1895.98 -6.05367 -0.856787 0
M  V30 19765 H 1900.16 -6.94992 -0.442598 0
M  V30 19766 H 1897.78 -7.60039 -0.156575 0
M  V30 19767 N 1899.36 0.706069 -1.40899 0
M  V30 19768 C 1900.32 1.80184 -1.41656 0
M  V30 19769 C 1901.32 1.57807 -0.308823 0
M  V30 19770 O 1902.51 1.64673 -0.568197 0
M  V30 19771 C 1899.64 3.18412 -1.21765 0
M  V30 19772 H 1900.84 1.80908 -2.39191 0
M  V30 19773 H 1898.39 0.912658 -1.26887 0
M  V30 19774 H 1899.12 3.23333 -0.250288 0
M  V30 19775 H 1898.91 3.36054 -2.02015 0
M  V30 19776 H 1900.4 3.9842 -1.25106 0
M  V30 19777 N 1900.84 1.26553 0.939264 0
M  V30 19778 C 1902.25 1.03707 1.21314 0
M  V30 19779 C 1902.45 -0.236596 2.00106 0
M  V30 19780 O 1901.51 -0.945218 2.34141 0
M  V30 19781 C 1902.82 2.26961 1.97254 0
M  V30 19782 C 1904.37 2.31881 2.10238 0
M  V30 19783 C 1904.84 3.54833 2.89582 0
M  V30 19784 N 1906.34 3.55321 2.97155 0
M  V30 19785 C 1907.07 4.47125 3.58981 0
M  V30 19786 N 1906.57 5.49219 4.22292 0
M  V30 19787 N 1908.36 4.34772 3.56272 0
M  V30 19788 H 1900.51 2.08355 0.412571 0
M  V30 19789 H 1902.77 0.915775 0.245073 0
M  V30 19790 H 1902.48 3.19612 1.46769 0
M  V30 19791 H 1902.35 2.3136 2.97913 0
M  V30 19792 H 1904.74 1.39743 2.59915 0
M  V30 19793 H 1904.82 2.31492 1.08836 0
M  V30 19794 H 1904.47 4.47301 2.40591 0
M  V30 19795 H 1904.4 3.52471 3.91244 0
M  V30 19796 H 1906.89 2.81479 2.52147 0
M  V30 19797 H 1907.2 6.15454 4.67371 0
M  V30 19798 H 1905.54 5.53074 4.20873 0
M  V30 19799 H 1908.74 3.5423 3.06005 0
M  V30 19800 H 1908.91 5.06511 4.04167 0
M  V30 19801 N 1902.31 -1.14411 1.08387 0
M  V30 19802 C 1903.56 -1.85078 0.811826 0
M  V30 19803 C 1903.88 -1.83335 -0.664312 0
M  V30 19804 O 1903.15 -1.28164 -1.48158 0
M  V30 19805 H 1901.73 -0.685278 0.297328 0
M  V30 19806 H 1904.4 -1.38644 1.36981 0
M  V30 19807 H 1903.49 -2.89909 1.15581 0
M  V30 19808 N 1903.79 -0.869509 -1.31443 0
M  V30 19809 C 1904.7 -0.328352 -2.32291 0
M  V30 19810 C 1905.72 0.561491 -1.64691 0
M  V30 19811 O 1906.89 0.458316 -1.96116 0
M  V30 19812 C 1903.96 0.461733 -3.43612 0
M  V30 19813 C 1903.02 -0.456015 -4.26871 0
M  V30 19814 C 1902.25 0.296458 -5.32876 0
M  V30 19815 O 1902.48 1.5246 -5.49647 0
M  V30 19816 O 1901.41 -0.345443 -6.00908 0
M  V30 19817 H 1905.24 -1.16424 -2.80498 0
M  V30 19818 H 1902.82 -0.632869 -1.35333 0
M  V30 19819 H 1904.7 0.90965 -4.11465 0
M  V30 19820 H 1903.38 1.27418 -2.97567 0
M  V30 19821 H 1902.29 -0.952421 -3.61773 0
M  V30 19822 H 1903.62 -1.23404 -4.76479 0
M  V30 19823 N 1905.27 1.44508 -0.628902 0
M  V30 19824 C 1906.5 2.06942 -0.137778 0
M  V30 19825 C 1906.92 1.46672 1.17766 0
M  V30 19826 O 1906.28 0.567342 1.72194 0
M  V30 19827 C 1906.33 3.60584 -0.0341843 0
M  V30 19828 O 1905.43 3.99831 1.01038 0
M  V30 19829 H 1904.77 0.658696 -0.083759 0
M  V30 19830 H 1907.3 1.85418 -0.864951 0
M  V30 19831 H 1907.31 4.07697 0.157123 0
M  V30 19832 H 1905.99 4.03833 -0.994583 0
M  V30 19833 H 1904.56 3.64353 0.793824 0
M  V30 19834 N 1906.75 0.369315 1.53212 0
M  V30 19835 C 1907.7 -0.490481 2.2737 0
M  V30 19836 C 1908.69 -1.08021 1.30491 0
M  V30 19837 O 1909.9 -1.02298 1.48105 0
M  V30 19838 H 1906.27 -0.176899 0.730897 0
M  V30 19839 H 1908.24 0.156696 2.97988 0
M  V30 19840 C 1906.99 -1.61628 3.0785 0
M  V30 19841 H 1906.32 -1.1718 3.82242 0
M  V30 19842 H 1907.76 -2.19252 3.62911 0
M  V30 19843 C 1906.21 -2.56077 2.18921 0
M  V30 19844 O 1906.74 -3.58988 1.80251 0
M  V30 19845 N 1904.95 -2.25352 1.83479 0
M  V30 19846 H 1904.5 -1.41701 2.15124 0
M  V30 19847 H 1904.46 -2.888 1.24264 0
M  V30 19848 N 1908.23 -1.57291 0.0985816 0
M  V30 19849 C 1909.48 -1.93654 -0.564011 0
M  V30 19850 C 1909.79 -0.982723 -1.69121 0
M  V30 19851 O 1911 -1.2402 -2.41519 0
M  V30 19852 C 1909.45 -3.441 -1.05466 0
M  V30 19853 C 1909.06 -4.47979 0.0429743 0
M  V30 19854 C 1910.8 -3.89418 -1.68979 0
M  V30 19855 C 1908.71 -5.89583 -0.463226 0
M  V30 19856 H 1907.64 -0.722858 -0.214457 0
M  V30 19857 H 1910.29 -1.82662 0.175145 0
M  V30 19858 H 1908.67 -3.50256 -1.84761 0
M  V30 19859 H 1909.85 -4.53471 0.818587 0
M  V30 19860 H 1908.16 -4.12291 0.583501 0
M  V30 19861 H 1910.76 -4.92615 -2.0793 0
M  V30 19862 H 1911.1 -3.28258 -2.56032 0
M  V30 19863 H 1911.64 -3.85978 -0.962602 0
M  V30 19864 H 1908.37 -6.54451 0.370767 0
M  V30 19865 H 1907.89 -5.87555 -1.20577 0
M  V30 19866 H 1909.57 -6.40266 -0.931072 0
M  V30 19867 N 1909.71 0.175127 -1.56624 0
M  V30 19868 C 1910.64 1.21918 -1.99144 0
M  V30 19869 C 1911.62 1.4638 -0.866428 0
M  V30 19870 O 1912.8 1.57779 -1.13223 0
M  V30 19871 C 1909.93 2.55897 -2.34807 0
M  V30 19872 C 1908.89 2.46011 -3.50232 0
M  V30 19873 C 1908.21 3.84445 -3.71626 0
M  V30 19874 C 1909.51 1.96808 -4.83801 0
M  V30 19875 H 1911.21 0.86575 -2.8661 0
M  V30 19876 H 1908.75 0.415014 -1.3789 0
M  V30 19877 H 1910.7 3.29136 -2.63149 0
M  V30 19878 H 1909.43 2.9302 -1.44245 0
M  V30 19879 H 1908.09 1.75227 -3.22011 0
M  V30 19880 H 1907.74 4.18955 -2.78362 0
M  V30 19881 H 1907.44 3.787 -4.49288 0
M  V30 19882 H 1908.96 4.59276 -4.02366 0
M  V30 19883 H 1910.37 2.59819 -5.11045 0
M  V30 19884 H 1908.77 2.0202 -5.65073 0
M  V30 19885 H 1909.84 0.922209 -4.7605 0
M  V30 19886 N 1911.18 1.5123 0.44355 0
M  V30 19887 C 1912.11 1.75038 1.54544 0
M  V30 19888 C 1913.09 0.600017 1.59166 0
M  V30 19889 O 1914.28 0.842082 1.74993 0
M  V30 19890 C 1911.41 1.86976 2.92673 0
M  V30 19891 C 1910.36 3.0237 3.02913 0
M  V30 19892 C 1909.69 2.99483 4.4296 0
M  V30 19893 C 1910.99 4.4244 2.77569 0
M  V30 19894 H 1912.68 2.67301 1.34872 0
M  V30 19895 H 1910.23 1.28627 0.647395 0
M  V30 19896 H 1912.18 2.02215 3.69712 0
M  V30 19897 H 1910.91 0.913563 3.13563 0
M  V30 19898 H 1909.57 2.86826 2.28312 0
M  V30 19899 H 1909.21 2.01654 4.60809 0
M  V30 19900 H 1908.91 3.76968 4.50743 0
M  V30 19901 H 1910.44 3.16808 5.21982 0
M  V30 19902 H 1911.85 4.58367 3.44344 0
M  V30 19903 H 1910.25 5.21583 2.96768 0
M  V30 19904 H 1911.32 4.52906 1.73218 0
M  V30 19905 N 1912.66 -0.698586 1.41271 0
M  V30 19906 C 1913.57 -1.8424 1.45234 0
M  V30 19907 C 1914.59 -1.70581 0.343225 0
M  V30 19908 O 1915.76 -1.9255 0.590477 0
M  V30 19909 C 1912.83 -3.20195 1.32951 0
M  V30 19910 C 1911.89 -3.45984 2.54152 0
M  V30 19911 C 1911.12 -4.75453 2.42446 0
M  V30 19912 O 1911.35 -5.5173 1.44741 0
M  V30 19913 O 1910.28 -5.01958 3.32147 0
M  V30 19914 H 1914.11 -1.83853 2.41727 0
M  V30 19915 H 1911.69 -0.851252 1.22776 0
M  V30 19916 H 1913.57 -4.0137 1.28374 0
M  V30 19917 H 1912.25 -3.21272 0.395728 0
M  V30 19918 H 1911.15 -2.64751 2.64306 0
M  V30 19919 H 1912.49 -3.49718 3.46349 0
M  V30 19920 N 1914.14 -1.27049 -0.93254 0
M  V30 19921 C 1915.56 -1.04349 -1.20762 0
M  V30 19922 C 1915.76 0.225981 -2.00229 0
M  V30 19923 O 1914.81 0.932788 -2.34639 0
M  V30 19924 C 1916.12 -2.28004 -1.96048 0
M  V30 19925 C 1917.67 -2.32993 -2.09006 0
M  V30 19926 C 1918.15 -3.56364 -2.87696 0
M  V30 19927 N 1919.64 -3.56892 -2.95266 0
M  V30 19928 C 1920.37 -4.49022 -3.56604 0
M  V30 19929 N 1919.87 -5.51451 -4.19374 0
M  V30 19930 N 1921.66 -4.36656 -3.53961 0
M  V30 19931 H 1913.81 -2.0857 -0.401516 0
M  V30 19932 H 1916.08 -0.917061 -0.240213 0
M  V30 19933 H 1915.78 -3.20386 -1.45072 0
M  V30 19934 H 1915.66 -2.32937 -2.96682 0
M  V30 19935 H 1918.04 -1.41119 -2.5917 0
M  V30 19936 H 1918.12 -2.32065 -1.07607 0
M  V30 19937 H 1917.77 -4.48571 -2.38216 0
M  V30 19938 H 1917.7 -3.54541 -3.89369 0
M  V30 19939 H 1920.19 -2.82812 -2.5065 0
M  V30 19940 H 1920.5 -6.17924 -4.64101 0
M  V30 19941 H 1918.85 -5.55298 -4.17934 0
M  V30 19942 H 1922.04 -3.55848 -3.04122 0
M  V30 19943 H 1922.21 -5.08647 -4.01475 0
M  V30 19944 N 1915.62 1.13835 -1.08993 0
M  V30 19945 C 1916.55 2.21226 -0.74707 0
M  V30 19946 C 1917.53 1.67891 0.273232 0
M  V30 19947 O 1918.71 1.93678 0.142278 0
M  V30 19948 C 1915.84 3.46922 -0.162028 0
M  V30 19949 C 1914.8 4.1332 -1.11135 0
M  V30 19950 C 1914.12 5.33289 -0.388228 0
M  V30 19951 C 1915.42 4.61169 -2.45195 0
M  V30 19952 H 1917.12 2.50162 -1.64497 0
M  V30 19953 H 1914.66 1.20239 -0.792368 0
M  V30 19954 H 1916.62 4.21304 0.0898753 0
M  V30 19955 H 1915.34 3.17368 0.771036 0
M  V30 19956 H 1914 3.40899 -1.34845 0
M  V30 19957 H 1913.65 4.99997 0.548832 0
M  V30 19958 H 1913.35 5.78659 -1.02115 0
M  V30 19959 H 1914.87 6.10429 -0.144519 0
M  V30 19960 H 1916.29 5.26996 -2.25717 0
M  V30 19961 H 1914.68 5.17263 -3.04235 0
M  V30 19962 H 1915.75 3.75923 -3.06284 0
M  V30 19963 N 1917.1 0.876467 1.3098 0
M  V30 19964 C 1918.33 0.504582 2.00344 0
M  V30 19965 C 1918.73 -0.909186 1.65923 0
M  V30 19966 O 1918.08 -1.60812 0.887988 0
M  V30 19967 C 1918.14 0.589519 3.54634 0
M  V30 19968 C 1917.8 1.96607 4.12547 0
M  V30 19969 C 1918.8 2.9344 4.29172 0
M  V30 19970 C 1916.48 2.26914 4.48124 0
M  V30 19971 C 1918.48 4.18721 4.80574 0
M  V30 19972 C 1916.17 3.52443 4.99227 0
M  V30 19973 C 1917.16 4.48161 5.15403 0
M  V30 19974 O 1916.85 5.71464 5.65406 0
M  V30 19975 H 1916.58 0.194422 0.647438 0
M  V30 19976 H 1919.14 1.18126 1.68034 0
M  V30 19977 H 1917.37 -0.144102 3.86431 0
M  V30 19978 H 1919.06 0.230131 4.05247 0
M  V30 19979 H 1919.82 2.71335 4.01998 0
M  V30 19980 H 1915.7 1.53184 4.34805 0
M  V30 19981 H 1919.25 4.9344 4.93115 0
M  V30 19982 H 1915.14 3.74389 5.25836 0
M  V30 19983 H 1915.91 5.73727 5.83764 0
M  V30 19984 N 1918.57 -1.44173 0.636557 0
M  V30 19985 C 1919.82 -2.01209 0.140639 0
M  V30 19986 C 1920.14 -1.50704 -1.2469 0
M  V30 19987 O 1921.34 -1.99904 -1.83713 0
M  V30 19988 C 1919.8 -3.5934 0.20066 0
M  V30 19989 C 1919.41 -4.18841 1.58985 0
M  V30 19990 C 1921.15 -4.23829 -0.238514 0
M  V30 19991 C 1919.06 -5.69213 1.60469 0
M  V30 19992 H 1917.99 -0.752418 0.0488124 0
M  V30 19993 H 1920.64 -1.65329 0.796151 0
M  V30 19994 H 1919.02 -3.92544 -0.522054 0
M  V30 19995 H 1920.19 -3.97165 2.33658 0
M  V30 19996 H 1918.51 -3.66659 1.97357 0
M  V30 19997 H 1921.11 -5.34129 -0.247033 0
M  V30 19998 H 1921.45 -3.96556 -1.26685 0
M  V30 19999 H 1921.98 -3.95449 0.431887 0
M  V30 20000 H 1918.72 -6.01229 2.61158 0
M  V30 20001 H 1918.24 -5.92995 0.900975 0
M  V30 20002 H 1919.92 -6.3295 1.34104 0
M  V30 20003 N 1920.05 -0.377435 -1.53014 0
M  V30 20004 C 1920.96 0.471045 -2.29822 0
M  V30 20005 C 1921.98 1.0821 -1.36259 0
M  V30 20006 O 1923.15 1.09048 -1.69324 0
M  V30 20007 C 1920.22 1.58917 -3.08134 0
M  V30 20008 C 1919.28 1.00444 -4.17384 0
M  V30 20009 C 1918.51 2.06928 -4.91952 0
M  V30 20010 O 1918.74 3.2824 -4.66492 0
M  V30 20011 O 1917.67 1.69321 -5.77593 0
M  V30 20012 H 1921.5 -0.154333 -3.03308 0
M  V30 20013 H 1919.08 -0.141478 -1.48729 0
M  V30 20014 H 1920.96 2.23899 -3.56997 0
M  V30 20015 H 1919.64 2.19973 -2.37473 0
M  V30 20016 H 1918.54 0.3182 -3.72744 0
M  V30 20017 H 1919.88 0.438266 -4.90245 0
M  V30 20018 N 1921.53 1.57237 -0.106922 0
M  V30 20019 C 1922.95 1.57634 0.249708 0
M  V30 20020 C 1923.15 1.11888 1.67581 0
M  V30 20021 O 1922.2 0.80073 2.39467 0
M  V30 20022 C 1923.52 3.00688 0.0273757 0
M  V30 20023 C 1925.06 3.12858 0.0942116 0
M  V30 20024 C 1925.54 4.5789 -0.100275 0
M  V30 20025 N 1927.03 4.63177 -0.045837 0
M  V30 20026 C 1927.76 5.73144 -0.171398 0
M  V30 20027 N 1927.26 6.91903 -0.352455 0
M  V30 20028 N 1929.05 5.61989 -0.111827 0
M  V30 20029 H 1921.2 1.85278 -1.03855 0
M  V30 20030 H 1923.47 0.855717 -0.407985 0
M  V30 20031 H 1923.17 3.38399 -0.958063 0
M  V30 20032 H 1923.05 3.6937 0.764546 0
M  V30 20033 H 1925.43 2.75012 1.07016 0
M  V30 20034 H 1925.52 2.46743 -0.674643 0
M  V30 20035 H 1925.16 4.96433 -1.07315 0
M  V30 20036 H 1925.09 5.22081 0.688418 0
M  V30 20037 H 1927.58 3.7779 0.0910806 0
M  V30 20038 H 1927.89 7.7155 -0.439454 0
M  V30 20039 H 1926.24 6.93915 -0.388274 0
M  V30 20040 H 1929.43 4.68091 0.0285732 0
M  V30 20041 H 1929.6 6.47649 -0.213127 0
M  V30 20042 N 1923.01 -0.166818 1.56715 0
M  V30 20043 C 1924.23 -0.902208 1.86748 0
M  V30 20044 C 1924.66 -1.74838 0.693767 0
M  V30 20045 O 1924.02 -1.77749 -0.35708 0
M  V30 20046 C 1924.06 -1.75107 3.1523 0
M  V30 20047 O 1923.17 -2.85319 2.9777 0
M  V30 20048 H 1922.51 -0.252474 0.614128 0
M  V30 20049 H 1925.04 -0.163603 2.03945 0
M  V30 20050 H 1925.05 -2.15009 3.46749 0
M  V30 20051 H 1923.72 -1.12955 4.00267 0
M  V30 20052 H 1922.3 -2.48967 2.77615 0
M  V30 20053 N 1924.49 -1.51463 -0.435524 0
M  V30 20054 C 1925.42 -1.75856 -1.53613 0
M  V30 20055 C 1926.4 -0.608449 -1.58846 0
M  V30 20056 O 1927.58 -0.85135 -1.74544 0
M  V30 20057 C 1924.71 -1.88525 -2.91677 0
M  V30 20058 C 1923.67 -3.03972 -3.01305 0
M  V30 20059 C 1922.99 -3.01828 -4.41366 0
M  V30 20060 C 1924.29 -4.43905 -2.75219 0
M  V30 20061 H 1925.99 -2.68013 -1.33452 0
M  V30 20062 H 1923.53 -1.28968 -0.640564 0
M  V30 20063 H 1925.49 -2.04173 -3.68634 0
M  V30 20064 H 1924.21 -0.930179 -3.13074 0
M  V30 20065 H 1922.87 -2.88033 -2.26788 0
M  V30 20066 H 1922.52 -2.04095 -4.59733 0
M  V30 20067 H 1922.22 -3.79353 -4.48737 0
M  V30 20068 H 1923.74 -3.19572 -5.20294 0
M  V30 20069 H 1925.15 -4.60187 -3.41908 0
M  V30 20070 H 1923.55 -5.2315 -2.93998 0
M  V30 20071 H 1924.62 -4.53818 -1.70814 0
M  V30 20072 N 1925.96 0.691085 -1.4164 0
M  V30 20073 C 1927.19 1.48481 -1.44804 0
M  V30 20074 C 1927.61 1.88016 -0.0561606 0
M  V30 20075 O 1926.97 1.54927 0.941657 0
M  V30 20076 C 1927.02 2.72083 -2.3665 0
M  V30 20077 O 1926.12 3.6974 -1.82663 0
M  V30 20078 H 1925.47 0.446714 -0.491267 0
M  V30 20079 H 1928 0.849076 -1.8615 0
M  V30 20080 H 1928.01 3.2034 -2.52678 0
M  V30 20081 H 1926.68 2.42645 -3.37781 0
M  V30 20082 H 1925.26 3.28695 -1.76108 0
M  V30 20083 N 1927.44 1.27542 0.925789 0
M  V30 20084 C 1928.69 1.14161 1.67616 0
M  V30 20085 C 1929.02 -0.311471 1.91686 0
M  V30 20086 O 1928.3 -1.22766 1.5086 0
M  V30 20087 C 1928.58 1.92778 3.04152 0
M  V30 20088 C 1928.43 3.46081 2.87312 0
M  V30 20089 C 1929.75 1.73374 4.04511 0
M  V30 20090 H 1926.87 0.416091 0.608307 0
M  V30 20091 H 1929.51 1.56719 1.0742 0
M  V30 20092 H 1927.66 1.5661 3.55536 0
M  V30 20093 H 1929.33 3.92089 2.43031 0
M  V30 20094 H 1927.58 3.72324 2.22615 0
M  V30 20095 H 1928.25 3.96333 3.84219 0
M  V30 20096 H 1930.72 2.04914 3.62146 0
M  V30 20097 H 1929.6 2.30773 4.98031 0
M  V30 20098 H 1929.86 0.682154 4.36806 0
M  V30 20099 N 1928.92 -1.13255 1.09595 0
M  V30 20100 C 1929.87 -2.20794 0.731624 0
M  V30 20101 C 1930.86 -1.67263 -0.268256 0
M  V30 20102 O 1932.07 -1.79533 -0.129535 0
M  V30 20103 H 1928.44 -0.719521 0.218618 0
M  V30 20104 H 1930.41 -2.48784 1.6477 0
M  V30 20105 C 1929.16 -3.47283 0.170214 0
M  V30 20106 H 1928.49 -3.88814 0.930805 0
M  V30 20107 H 1929.93 -4.23974 -0.0467499 0
M  V30 20108 C 1928.39 -3.18609 -1.09497 0
M  V30 20109 O 1928.92 -3.37534 -2.17793 0
M  V30 20110 N 1927.12 -2.72477 -1.01017 0
M  V30 20111 H 1926.67 -2.57278 -0.128814 0
M  V30 20112 H 1926.63 -2.53668 -1.85741 0
M  V30 20113 N 1930.4 -0.883401 -1.30514 0
M  V30 20114 C 1931.63 -0.515948 -2.00364 0
M  V30 20115 C 1932.04 0.895148 -1.6623 0
M  V30 20116 O 1931.4 1.58844 -0.898601 0
M  V30 20117 C 1931.45 -0.679282 -3.55061 0
M  V30 20118 O 1931.17 -2.03482 -3.87978 0
M  V30 20119 C 1932.67 -0.314612 -4.42182 0
M  V30 20120 H 1929.89 -0.199595 -0.640627 0
M  V30 20121 H 1932.44 -1.18827 -1.66435 0
M  V30 20122 H 1930.59 -0.0543511 -3.87362 0
M  V30 20123 H 1931 -2.0523 -4.82681 0
M  V30 20124 H 1932.48 -0.4798 -5.49911 0
M  V30 20125 H 1932.96 0.747247 -4.32797 0
M  V30 20126 H 1933.56 -0.9158 -4.15323 0
M  V30 20127 N 1931.88 1.43833 -0.644194 0
M  V30 20128 C 1932.84 2.29159 0.0433471 0
M  V30 20129 C 1933.84 1.41734 0.75948 0
M  V30 20130 O 1935.03 1.63464 0.602093 0
M  V30 20131 C 1932.16 3.23604 1.07208 0
M  V30 20132 H 1933.35 2.9144 -0.707295 0
M  V30 20133 H 1930.91 1.50963 -0.404968 0
M  V30 20134 H 1931.64 2.66199 1.85226 0
M  V30 20135 H 1931.43 3.88047 0.562339 0
M  V30 20136 H 1932.92 3.87669 1.55251 0
M  V30 20137 N 1933.35 0.385544 1.52811 0
M  V30 20138 C 1934.32 -0.439294 2.24951 0
M  V30 20139 C 1935.32 -0.993315 1.26451 0
M  V30 20140 O 1936.51 -0.875911 1.50577 0
M  V30 20141 C 1933.64 -1.61595 3.00166 0
M  V30 20142 H 1934.83 0.192232 2.99283 0
M  V30 20143 H 1932.39 0.137589 1.55693 0
M  V30 20144 H 1933.12 -2.28501 2.30125 0
M  V30 20145 H 1932.91 -1.22544 3.72459 0
M  V30 20146 H 1934.4 -2.20001 3.5495 0
M  V30 20147 N 1934.83 -1.57178 0.115259 0
M  V30 20148 C 1935.8 -2.13953 -0.821982 0
M  V30 20149 C 1936.8 -1.07352 -1.19717 0
M  V30 20150 O 1937.99 -1.33146 -1.12329 0
M  V30 20151 C 1935.12 -2.6767 -2.11106 0
M  V30 20152 H 1936.31 -2.98094 -0.328631 0
M  V30 20153 H 1933.86 -1.55725 -0.133942 0
M  V30 20154 H 1934.6 -1.87106 -2.6488 0
M  V30 20155 H 1934.38 -3.4563 -1.85155 0
M  V30 20156 H 1935.87 -3.11519 -2.78111 0
M  V30 20157 N 1936.31 0.158505 -1.56801 0
M  V30 20158 C 1937.56 0.871313 -1.82353 0
M  V30 20159 C 1937.88 1.8222 -0.694324 0
M  V30 20160 O 1937.15 1.93817 0.284899 0
M  V30 20161 H 1935.73 0.324747 -0.672717 0
M  V30 20162 H 1938.39 0.155257 -1.94281 0
M  V30 20163 H 1937.49 1.44051 -2.76868 0
M  V30 20164 N 1937.79 1.51692 0.427485 0
M  V30 20165 C 1939.04 1.64521 1.17376 0
M  V30 20166 C 1939.36 0.368482 1.91487 0
M  V30 20167 O 1938.63 -0.616035 1.85962 0
M  V30 20168 H 1937.21 0.606362 0.436273 0
M  V30 20169 H 1939.87 1.88662 0.489152 0
M  V30 20170 H 1938.97 2.47759 1.89794 0
M  V30 20171 N 1939.27 -0.683564 1.42004 0
M  V30 20172 C 1940.22 -1.81859 1.45018 0
M  V30 20173 C 1941.21 -1.66217 0.326852 0
M  V30 20174 O 1942.42 -1.72932 0.499454 0
M  V30 20175 H 1938.79 -0.599489 0.454001 0
M  V30 20176 H 1940.76 -1.76435 2.40652 0
M  V30 20177 C 1939.51 -3.19959 1.36094 0
M  V30 20178 H 1938.83 -3.32618 2.21823 0
M  V30 20179 H 1940.27 -3.99421 1.42263 0
M  V30 20180 C 1938.73 -3.36817 0.074666 0
M  V30 20181 O 1939.26 -3.92032 -0.875984 0
M  V30 20182 N 1937.47 -2.906 -0.00533406 0
M  V30 20183 H 1937.02 -2.45853 0.769044 0
M  V30 20184 H 1936.97 -3.02257 -0.865343 0
M  V30 20185 N 1940.75 -1.28031 -0.919012 0
M  V30 20186 C 1941.71 -1.11534 -2.00232 0
M  V30 20187 C 1942.71 -0.0566233 -1.607 0
M  V30 20188 O 1943.9 -0.30196 -1.71563 0
M  V30 20189 C 1941.03 -0.701371 -3.33607 0
M  V30 20190 H 1942.22 -2.0774 -2.16297 0
M  V30 20191 H 1939.78 -1.10942 -1.10098 0
M  V30 20192 H 1940.51 0.261682 -3.23243 0
M  V30 20193 H 1940.3 -1.4661 -3.63659 0
M  V30 20194 H 1941.79 -0.608444 -4.13144 0
M  V30 20195 N 1942.22 1.12672 -1.10194 0
M  V30 20196 C 1943.45 1.88496 -0.865112 0
M  V30 20197 C 1943.87 1.78977 0.578691 0
M  V30 20198 O 1943.23 1.14292 1.40737 0
M  V30 20199 C 1943.28 3.35768 -1.315 0
M  V30 20200 O 1942.38 4.09615 -0.478447 0
M  V30 20201 H 1941.72 0.585782 -0.312658 0
M  V30 20202 H 1944.25 1.42506 -1.46811 0
M  V30 20203 H 1944.26 3.86605 -1.30385 0
M  V30 20204 H 1942.94 3.42013 -2.36643 0
M  V30 20205 H 1941.52 3.68753 -0.554589 0
M  V30 20206 N 1943.7 0.89031 1.30043 0
M  V30 20207 C 1944.63 0.377386 2.3043 0
M  V30 20208 C 1945.61 -0.542607 1.61213 0
M  V30 20209 O 1946.8 -0.455328 1.88787 0
M  V30 20210 C 1943.93 -0.404264 3.44939 0
M  V30 20211 C 1942.88 0.424448 4.2589 0
M  V30 20212 C 1942.21 -0.48413 5.32504 0
M  V30 20213 C 1943.51 1.6694 4.94902 0
M  V30 20214 H 1945.2 1.21628 2.73582 0
M  V30 20215 H 1942.75 0.586299 1.31524 0
M  V30 20216 H 1944.7 -0.773769 4.14235 0
M  V30 20217 H 1943.42 -1.27685 3.00606 0
M  V30 20218 H 1942.08 0.776162 3.58289 0
M  V30 20219 H 1941.73 -1.35458 4.84417 0
M  V30 20220 H 1941.43 0.0665939 5.87562 0
M  V30 20221 H 1942.96 -0.850034 6.04654 0
M  V30 20222 H 1944.37 1.37017 5.56686 0
M  V30 20223 H 1942.77 2.16073 5.59851 0
M  V30 20224 H 1943.84 2.41077 4.20725 0
M  V30 20225 N 1945.18 -1.43489 0.651812 0
M  V30 20226 C 1946.11 -2.28021 -0.0903669 0
M  V30 20227 C 1947.09 -1.39746 -0.831253 0
M  V30 20228 O 1948.27 -1.69189 -0.831112 0
M  V30 20229 C 1945.4 -3.19129 -1.13466 0
M  V30 20230 C 1944.45 -4.23653 -0.49198 0
M  V30 20231 S 1945.28 -5.30454 0.73341 0
M  V30 20232 C 1946.44 -6.2513 -0.310383 0
M  V30 20233 H 1946.67 -2.9062 0.626698 0
M  V30 20234 H 1944.2 -1.4798 0.440607 0
M  V30 20235 H 1946.16 -3.72165 -1.73216 0
M  V30 20236 H 1944.82 -2.5571 -1.82403 0
M  V30 20237 H 1944.01 -4.87497 -1.27917 0
M  V30 20238 H 1943.62 -3.73987 0.0313774 0
M  V30 20239 H 1945.91 -6.67198 -1.17698 0
M  V30 20240 H 1946.85 -7.07494 0.292997 0
M  V30 20241 H 1947.26 -5.60797 -0.645559 0
M  V30 20242 N 1946.66 -0.393643 -1.52605 0
M  V30 20243 C 1947.89 0.1871 -2.06052 0
M  V30 20244 C 1948.3 1.40154 -1.26501 0
M  V30 20245 O 1947.66 1.798 -0.31279 0
M  V30 20246 C 1947.71 0.552918 -3.57246 0
M  V30 20247 O 1947.43 -0.613274 -4.33786 0
M  V30 20248 C 1948.93 1.18906 -4.27055 0
M  V30 20249 H 1946.15 0.0272042 -0.670448 0
M  V30 20250 H 1948.69 -0.560126 -1.9668 0
M  V30 20251 H 1946.85 1.25004 -3.66678 0
M  V30 20252 H 1947.26 -0.311611 -5.23574 0
M  V30 20253 H 1948.74 1.39535 -5.34073 0
M  V30 20254 H 1949.21 2.15768 -3.82545 0
M  V30 20255 H 1949.82 0.532579 -4.21952 0
M  V30 20256 N 1948.14 1.57115 -0.123593 0
M  V30 20257 C 1949.38 1.94527 0.533131 0
M  V30 20258 C 1949.7 1.0095 1.67536 0
M  V30 20259 O 1950.9 1.27846 2.39515 0
M  V30 20260 C 1949.36 3.45735 0.999783 0
M  V30 20261 C 1948.97 4.47854 -0.114238 0
M  V30 20262 C 1950.71 3.92057 1.62762 0
M  V30 20263 C 1948.62 5.90245 0.36937 0
M  V30 20264 H 1947.55 0.726179 0.20293 0
M  V30 20265 H 1950.2 1.8236 -0.204183 0
M  V30 20266 H 1948.58 3.53151 1.79166 0
M  V30 20267 H 1949.76 4.52111 -0.890627 0
M  V30 20268 H 1948.07 4.11311 -0.649019 0
M  V30 20269 H 1950.67 4.9586 2.00067 0
M  V30 20270 H 1951.01 3.3229 2.50777 0
M  V30 20271 H 1951.54 3.8746 0.901074 0
M  V30 20272 H 1948.28 6.53778 -0.474837 0
M  V30 20273 H 1947.8 5.89399 1.11214 0
M  V30 20274 H 1949.48 6.41666 0.829093 0
M  V30 20275 N 1949.61 -0.150187 1.56883 0
M  V30 20276 C 1950.86 -0.86163 1.82812 0
M  V30 20277 C 1951.18 -1.81849 0.703977 0
M  V30 20278 O 1950.45 -1.93966 -0.274616 0
M  V30 20279 H 1949.03 -0.321175 0.67443 0
M  V30 20280 H 1951.69 -0.144952 1.9436 0
M  V30 20281 H 1950.79 -1.4258 2.77628 0
M  V30 20282 O 1951.13 -1.58784 -0.294922 0
M  V30 20283 H 1951.82 -1.69273 -0.941615 0
M  V30 END ATOM
M  V30 BEGIN BOND
M  V30 END BOND
M  V30 END CTAB
M  END
$$$$
