drugbank_target|P41235 Hepatocyte nuclear factor 4-alpha (DB03017; DB05447; DB08231)
 OpenBabel12092120453D

  0  0  0     0  0            999 V3000
M  V30 BEGIN CTAB
M  V30 COUNTS 7415 7488 0 0 0
M  V30 BEGIN ATOM
M  V30 1 H -0.908 1.98254 -0.117106 0
M  V30 2 N 0 1.576 0 0
M  V30 3 C 0.933 2.03868 1.02534 0
M  V30 4 C 1.911 0.928543 1.3348 0
M  V30 5 O 3.095 1.19667 1.45644 0
M  V30 6 C 0.222 2.43627 2.35294 0
M  V30 7 C -0.732 3.65373 2.2001 0
M  V30 8 S 0.101 5.13292 1.52614 0
M  V30 9 C 1.257 5.56322 2.86805 0
M  V30 10 H 1.49 2.90518 0.631377 0
M  V30 11 H -0.977 1.52953 0.210867 0
M  V30 12 H 0.981 2.67203 3.11629 0
M  V30 13 H -0.358 1.57376 2.7183 0
M  V30 14 H -1.165 3.90944 3.18086 0
M  V30 15 H -1.563 3.418 1.51819 0
M  V30 16 H 0.729 5.58782 3.83104 0
M  V30 17 H 1.672 6.56266 2.65933 0
M  V30 18 H 2.08 4.83886 2.90714 0
M  V30 19 N 1.4781 -0.272755 1.55222 0
M  V30 20 C 2.8941 -0.619959 1.47067 0
M  V30 21 C 3.0941 -1.895 0.684978 0
M  V30 22 O 2.1501 -2.51675 0.203931 0
M  V30 23 C 3.4631 -0.746693 2.91282 0
M  V30 24 C 5.0111 -0.840731 3.01497 0
M  V30 25 C 5.4861 -0.99924 4.46967 0
M  V30 26 N 6.9771 -1.06476 4.50796 0
M  V30 27 C 7.7121 -1.20621 5.6057 0
M  V30 28 N 7.2081 -1.31483 6.80209 0
M  V30 29 N 9.0011 -1.23733 5.48312 0
M  V30 30 H 1.1521 0.564606 2.04758 0
M  V30 31 H 3.4151 0.191177 0.928523 0
M  V30 32 H 3.1211 0.119753 3.51496 0
M  V30 33 H 2.9951 -1.6269 3.40311 0
M  V30 34 H 5.3821 -1.69764 2.41379 0
M  V30 35 H 5.4631 0.0640874 2.5572 0
M  V30 36 H 5.1071 -0.146984 5.07687 0
M  V30 37 H 5.0371 -1.91871 4.90401 0
M  V30 38 H 7.5281 -0.993196 3.64615 0
M  V30 39 H 7.8411 -1.42111 7.59621 0
M  V30 40 H 6.1861 -1.28487 6.8302 0
M  V30 41 H 9.3771 -1.14877 4.53785 0
M  V30 42 H 9.5501 -1.34412 6.33906 0
M  V30 43 N 2.9562 -1.48159 -0.537278 0
M  V30 44 C 3.8862 -1.65029 -1.6519 0
M  V30 45 C 4.8672 -0.499281 -1.62607 0
M  V30 46 O 6.0522 -0.730972 -1.79918 0
M  V30 47 C 3.1822 -1.68303 -3.03795 0
M  V30 48 C 2.1362 -2.8283 -3.21234 0
M  V30 49 C 1.4622 -2.71189 -4.60826 0
M  V30 50 C 2.7622 -4.24211 -3.04701 0
M  V30 51 H 4.4562 -2.58341 -1.51328 0
M  V30 52 H 2.0022 -1.24325 -0.726585 0
M  V30 53 H 3.9552 -1.78693 -3.81637 0
M  V30 54 H 2.6792 -0.715635 -3.18663 0
M  V30 55 H 1.3382 -2.71983 -2.45807 0
M  V30 56 H 0.9862 -1.72435 -4.7252 0
M  V30 57 H 0.6862 -3.48035 -4.7344 0
M  V30 58 H 2.2102 -2.83537 -5.40777 0
M  V30 59 H 3.6242 -4.3593 -3.72341 0
M  V30 60 H 2.0212 -5.01998 -3.28813 0
M  V30 61 H 3.0912 -4.41184 -2.01209 0
M  V30 62 N 4.4343 0.785586 -1.36625 0
M  V30 63 C 5.6593 1.57963 -1.34397 0
M  V30 64 C 6.0843 1.87964 0.071526 0
M  V30 65 O 5.4423 1.48182 1.0446 0
M  V30 66 C 5.4903 2.87511 -2.17646 0
M  V30 67 O 4.5943 3.81281 -1.57158 0
M  V30 68 H 3.9353 0.479014 -0.459828 0
M  V30 69 H 6.4653 0.973411 -1.79961 0
M  V30 70 H 6.4753 3.36745 -2.30362 0
M  V30 71 H 5.1503 2.65002 -3.20541 0
M  V30 72 H 3.7273 3.39885 -1.53403 0
M  V30 73 N 5.9124 1.20967 1.01018 0
M  V30 74 C 6.8594 0.964281 2.09691 0
M  V30 75 C 7.8294 -0.107853 1.65749 0
M  V30 76 O 9.0144 0.0381987 1.90762 0
M  V30 77 C 6.1544 0.52943 3.41015 0
M  V30 78 C 5.2674 1.67043 3.98398 0
M  V30 79 C 4.4024 1.18525 5.17808 0
M  V30 80 C 3.4414 2.29892 5.67288 0
M  V30 81 N 2.5784 1.82546 6.77954 0
M  V30 82 H 7.4184 1.89463 2.30017 0
M  V30 83 H 4.9554 0.944289 1.1279 0
M  V30 84 H 6.9134 0.258588 4.16398 0
M  V30 85 H 5.5434 -0.363919 3.20742 0
M  V30 86 H 4.5954 2.05603 3.20049 0
M  V30 87 H 5.9074 2.50877 4.31117 0
M  V30 88 H 5.0614 0.870762 6.00419 0
M  V30 89 H 3.8004 0.316887 4.86669 0
M  V30 90 H 2.8054 2.6215 4.83278 0
M  V30 91 H 4.0304 3.17216 6.00459 0
M  V30 92 H 1.9764 0.980454 6.48632 0
M  V30 93 H 1.8934 2.59956 7.09901 0
M  V30 94 H 3.1614 1.54115 7.64113 0
M  V30 95 N 7.3905 -1.2043 1.01659 0
M  V30 96 C 8.6185 -1.93777 0.725132 0
M  V30 97 C 9.0335 -1.74772 -0.714166 0
M  V30 98 O 8.3905 -1.06169 -1.4844 0
M  V30 99 C 8.4415 -3.45876 1.05129 0
M  V30 100 O 8.1625 -3.6426 2.43406 0
M  V30 101 C 9.6635 -4.36368 0.780891 0
M  V30 102 H 6.8835 -0.615901 0.266284 0
M  V30 103 H 9.4275 -1.52922 1.35776 0
M  V30 104 H 7.5825 -3.8461 0.464065 0
M  V30 105 H 7.9965 -4.58246 2.55169 0
M  V30 106 H 9.4705 -5.41743 1.05918 0
M  V30 107 H 9.9475 -4.38275 -0.284937 0
M  V30 108 H 10.5535 -4.03296 1.35027 0
M  V30 109 N 8.8686 -0.792821 -1.36206 0
M  V30 110 C 9.7986 -0.207853 -2.32573 0
M  V30 111 C 10.7796 0.659055 -1.56813 0
M  V30 112 O 11.9646 0.592176 -1.84951 0
M  V30 113 C 9.0946 0.655449 -3.41059 0
M  V30 114 C 8.0486 -0.111842 -4.27854 0
M  V30 115 C 7.3746 0.872274 -5.27537 0
M  V30 116 C 8.6746 -1.30299 -5.05786 0
M  V30 117 H 10.3686 -1.01294 -2.81744 0
M  V30 118 H 7.9146 -0.48854 -1.3546 0
M  V30 119 H 9.8676 1.07464 -4.07467 0
M  V30 120 H 8.5916 1.49328 -2.90463 0
M  V30 121 H 7.2506 -0.512053 -3.63006 0
M  V30 122 H 6.8986 1.70523 -4.73214 0
M  V30 123 H 6.5986 0.363291 -5.86476 0
M  V30 124 H 8.1226 1.28996 -5.96818 0
M  V30 125 H 9.5366 -0.959379 -5.65216 0
M  V30 126 H 7.9336 -1.7455 -5.74154 0
M  V30 127 H 9.0036 -2.09663 -4.37229 0
M  V30 128 N 10.3467 1.47872 -0.545128 0
M  V30 129 C 11.5927 2.02793 -0.0166104 0
M  V30 130 C 11.9257 1.41987 1.32489 0
M  V30 131 O 11.2007 0.571045 1.85928 0
M  V30 132 C 11.4837 3.59989 0.0893294 0
M  V30 133 C 11.3367 4.3125 -1.27841 0
M  V30 134 C 12.6557 4.32606 0.808724 0
M  V30 135 H 9.7747 0.736962 -0.00751035 0
M  V30 136 H 12.4167 1.76433 -0.705085 0
M  V30 137 H 10.5667 3.82579 0.675681 0
M  V30 138 H 12.2387 4.20035 -1.90704 0
M  V30 139 H 10.4817 3.92076 -1.85632 0
M  V30 140 H 11.1527 5.39736 -1.15713 0
M  V30 141 H 13.6287 4.14936 0.310992 0
M  V30 142 H 12.5047 5.42251 0.851782 0
M  V30 143 H 12.7657 4.00963 1.86229 0
M  V30 144 N 11.8248 0.280983 1.55075 0
M  V30 145 C 13.1018 -0.386207 1.91749 0
M  V30 146 C 13.4818 -1.73264 1.20594 0
M  V30 147 O 12.8298 -2.26034 0.334784 0
M  V30 148 C 13.0398 -0.520687 3.45094 0
M  V30 149 C 14.3878 -0.800865 4.16979 0
M  V30 150 O 15.4118 -0.605271 3.5102 0
M  V30 151 O 14.2708 -1.1753 5.33712 0
M  V30 152 H 11.3648 -0.212408 0.799257 0
M  V30 153 H 13.9108 0.327568 1.66509 0
M  V30 154 H 12.6828 0.426633 3.88967 0
M  V30 155 H 12.3058 -1.2837 3.76307 0
M  V30 156 N 13.3029 -1.57598 0.00835791 0
M  V30 157 C 14.2359 -2.04409 -1.01451 0
M  V30 158 C 15.2139 -0.935609 -1.32985 0
M  V30 159 O 16.3979 -1.20437 -1.45007 0
M  V30 160 C 13.5249 -2.44872 -2.33999 0
M  V30 161 C 12.5709 -3.66535 -2.18069 0
M  V30 162 S 13.4039 -5.14095 -1.4989 0
M  V30 163 C 14.5599 -5.57835 -2.8385 0
M  V30 164 H 14.7929 -2.90849 -0.615961 0
M  V30 165 H 12.3259 -1.53063 -0.202752 0
M  V30 166 H 14.2839 -2.68852 -3.10208 0
M  V30 167 H 12.9449 -1.58815 -2.70992 0
M  V30 168 H 12.1379 -3.92626 -3.16008 0
M  V30 169 H 11.7399 -3.426 -1.50004 0
M  V30 170 H 14.0319 -5.60806 -3.80136 0
M  V30 171 H 14.9749 -6.57667 -2.62449 0
M  V30 172 H 15.3829 -4.85421 -2.88144 0
M  V30 173 N 14.781 0.264519 -1.55364 0
M  V30 174 C 16.058 1.01677 -1.67096 0
M  V30 175 C 16.438 2.03996 -0.543015 0
M  V30 176 O 15.786 2.23907 0.45585 0
M  V30 177 C 15.996 1.66596 -3.0667 0
M  V30 178 C 17.344 2.17442 -3.64697 0
M  V30 179 O 18.368 1.76568 -3.09358 0
M  V30 180 O 17.227 2.92439 -4.61673 0
M  V30 181 H 14.321 0.472161 -0.678965 0
M  V30 182 H 16.867 0.259703 -1.67701 0
M  V30 183 H 15.639 0.924962 -3.80211 0
M  V30 184 H 15.262 2.48968 -3.10001 0
M  V30 185 N 16.2591 1.48442 0.529413 0
M  V30 186 C 17.1921 1.57577 1.65059 0
M  V30 187 C 18.1701 0.426198 1.56915 0
M  V30 188 O 19.3541 0.637877 1.77379 0
M  V30 189 C 16.4811 1.5043 3.03461 0
M  V30 190 C 15.5271 2.70235 3.29962 0
M  V30 191 S 16.3601 4.32198 3.16172 0
M  V30 192 C 17.5161 4.2765 4.57019 0
M  V30 193 H 17.7491 2.52427 1.5706 0
M  V30 194 H 15.2821 1.36982 0.712417 0
M  V30 195 H 17.2401 1.46992 3.8328 0
M  V30 196 H 15.9011 0.569167 3.089 0
M  V30 197 H 15.0941 2.61374 4.30929 0
M  V30 198 H 14.6961 2.70938 2.57815 0
M  V30 199 H 16.9881 3.97618 5.48549 0
M  V30 200 H 17.9311 5.28797 4.70934 0
M  V30 201 H 18.3391 3.5811 4.36368 0
M  V30 202 N 17.7372 -0.778329 1.37039 0
M  V30 203 C 18.7002 -1.87301 1.32102 0
M  V30 204 C 19.7002 -1.59198 0.226405 0
M  V30 205 O 20.8902 -1.67403 0.481861 0
M  V30 206 C 18.0222 -3.24309 1.05055 0
M  V30 207 H 19.2152 -1.93093 2.29467 0
M  V30 208 H 16.7682 -0.977358 1.21973 0
M  V30 209 H 17.5032 -3.24196 0.0819373 0
M  V30 210 H 17.2882 -3.46098 1.84279 0
M  V30 211 H 18.7782 -4.04382 1.04234 0
M  V30 212 N 19.2153 -1.21501 -1.00376 0
M  V30 213 C 20.4923 -0.941745 -1.71437 0
M  V30 214 C 20.8723 0.546114 -2.03914 0
M  V30 215 O 20.2203 1.51128 -1.71384 0
M  V30 216 C 20.4303 -1.82812 -2.97289 0
M  V30 217 C 21.7783 -2.07771 -3.70292 0
M  V30 218 O 22.8023 -1.80171 -3.07273 0
M  V30 219 O 21.6613 -2.54456 -4.83647 0
M  V30 220 H 18.7553 -0.353243 -0.747762 0
M  V30 221 H 21.3013 -1.32436 -1.06108 0
M  V30 222 H 20.0733 -2.83501 -2.69709 0
M  V30 223 H 19.6963 -1.4464 -3.70358 0
M  V30 224 N 20.6934 1.19889 -1.02296 0
M  V30 225 C 21.9234 1.93109 -0.734332 0
M  V30 226 C 22.3314 1.75377 0.709889 0
M  V30 227 O 21.6744 1.06912 1.49384 0
M  V30 228 C 21.7364 3.45362 -0.99827 0
M  V30 229 C 21.4004 3.8686 -2.43287 0
M  V30 230 C 22.3974 3.92102 -3.41397 0
M  V30 231 C 20.0824 4.18668 -2.77529 0
M  V30 232 C 22.0764 4.28573 -4.71809 0
M  V30 233 C 19.7634 4.54813 -4.08153 0
M  V30 234 C 20.7614 4.59739 -5.05103 0
M  V30 235 O 20.4494 4.95051 -6.33388 0
M  V30 236 H 20.1814 0.620409 -0.268456 0
M  V30 237 H 22.7354 1.53144 -1.3688 0
M  V30 238 H 20.9654 3.85482 -0.306645 0
M  V30 239 H 22.6544 3.99814 -0.700234 0
M  V30 240 H 23.4204 3.67685 -3.1628 0
M  V30 241 H 19.2994 4.14021 -2.0275 0
M  V30 242 H 22.8434 4.32333 -5.4748 0
M  V30 243 H 18.7404 4.78687 -4.33047 0
M  V30 244 H 19.5084 5.1302 -6.37772 0
M  V30 245 N 22.1715 0.800033 1.35784 0
M  V30 246 C 23.3965 0.388511 2.03729 0
M  V30 247 C 23.8215 -0.990481 1.5991 0
M  V30 248 O 23.1795 -1.64013 0.772612 0
M  V30 249 C 23.2275 0.4726 3.5749 0
M  V30 250 O 22.3315 -0.51646 4.09153 0
M  V30 251 H 21.6725 0.163271 0.643614 0
M  V30 252 H 24.2025 1.0841 1.73518 0
M  V30 253 H 24.2125 0.34003 4.06581 0
M  V30 254 H 22.8875 1.47848 3.88734 0
M  V30 255 H 21.4645 -0.344673 3.71304 0
M  V30 256 N 23.6496 -1.47581 0.552962 0
M  V30 257 C 24.6126 -2.28439 -0.186605 0
M  V30 258 C 25.6126 -1.36706 -0.84665 0
M  V30 259 O 26.8026 -1.59378 -0.703164 0
M  V30 260 C 23.9346 -3.16264 -1.2724 0
M  V30 261 H 25.1276 -2.95294 0.523609 0
M  V30 262 H 22.6806 -1.532 0.309745 0
M  V30 263 H 23.4156 -2.54091 -2.01514 0
M  V30 264 H 23.2006 -3.83769 -0.803968 0
M  V30 265 H 24.6906 -3.77198 -1.79196 0
M  V30 266 N 25.1277 -0.289203 -1.54924 0
M  V30 267 C 26.0907 0.579144 -2.21762 0
M  V30 268 C 27.0907 1.07047 -1.1999 0
M  V30 269 O 28.2807 0.968384 -1.44803 0
M  V30 270 C 25.4127 1.80055 -2.8947 0
M  V30 271 H 26.6057 -0.00464908 -2.999 0
M  V30 272 H 24.1587 -0.0399306 -1.56249 0
M  V30 273 H 24.8937 2.42449 -2.15381 0
M  V30 274 H 24.6787 1.45602 -3.64064 0
M  V30 275 H 26.1687 2.41773 -3.40493 0
M  V30 276 N 26.6058 1.57591 -0.0167156 0
M  V30 277 C 27.5358 2.12496 0.967858 0
M  V30 278 C 28.5168 1.03807 1.34752 0
M  V30 279 O 29.7018 1.31577 1.42833 0
M  V30 280 C 26.8318 2.64194 2.25431 0
M  V30 281 C 25.7858 3.77559 2.01576 0
M  V30 282 C 25.1118 4.15636 3.36379 0
M  V30 283 C 26.4118 5.04151 1.36489 0
M  V30 284 H 28.1058 2.95013 0.510643 0
M  V30 285 H 25.6518 1.41915 0.244181 0
M  V30 286 H 27.6048 3.01236 2.94678 0
M  V30 287 H 26.3288 1.78821 2.73296 0
M  V30 288 H 24.9878 3.40937 1.34751 0
M  V30 289 H 24.6358 3.27263 3.81979 0
M  V30 290 H 24.3358 4.92022 3.21229 0
M  V30 291 H 25.8598 4.5525 4.06915 0
M  V30 292 H 27.2738 5.38857 1.95718 0
M  V30 293 H 25.6708 5.85453 1.31776 0
M  V30 294 H 26.7408 4.83733 0.336219 0
M  V30 295 N 28.0839 -0.256276 1.55502 0
M  V30 296 C 29.3609 -1.00789 1.67633 0
M  V30 297 C 29.7409 -2.03706 0.553826 0
M  V30 298 O 29.0889 -2.24145 -0.443969 0
M  V30 299 C 29.2989 -1.64968 3.07549 0
M  V30 300 C 30.6469 -2.15505 3.65845 0
M  V30 301 O 31.6709 -1.74925 3.1029 0
M  V30 302 O 30.5299 -2.89986 4.63217 0
M  V30 303 H 27.6239 -0.468553 0.681459 0
M  V30 304 H 30.1699 -0.250806 1.67836 0
M  V30 305 H 28.9419 -0.904785 3.80696 0
M  V30 306 H 28.5649 -2.47321 3.11317 0
M  V30 307 N 29.562 -1.4872 -0.521534 0
M  V30 308 C 30.973 -1.50607 -1.10337 0
M  V30 309 C 31.324 -0.280612 -1.94183 0
M  V30 310 O 30.449 0.611507 -2.0758 0
M  V30 311 C 31.044 -2.72903 -2.00772 0
M  V30 312 C 29.603 -2.77634 -2.54158 0
M  V30 313 C 28.75 -2.44241 -1.31307 0
M  V30 314 H 31.701 -1.55714 -0.306388 0
M  V30 315 H 31.722 -2.519 -2.85178 0
M  V30 316 H 31.234 -3.62077 -1.39721 0
M  V30 317 H 29.335 -1.92689 -3.18907 0
M  V30 318 H 29.448 -3.79283 -2.92714 0
M  V30 319 H 27.812 -1.95577 -1.63161 0
M  V30 320 H 28.595 -3.35666 -0.719943 0
M  V30 321 N 31.0401 0.771051 -1.3745 0
M  V30 322 C 32.0031 1.86598 -1.33093 0
M  V30 323 C 33.0031 1.59076 -0.234845 0
M  V30 324 O 34.1931 1.67145 -0.490732 0
M  V30 325 C 31.3251 3.23747 -1.06773 0
M  V30 326 H 32.5181 1.91873 -2.30488 0
M  V30 327 H 30.0711 0.970876 -1.2249 0
M  V30 328 H 30.8061 3.24148 -0.099129 0
M  V30 329 H 30.5911 3.45115 -1.86112 0
M  V30 330 H 32.0811 4.03824 -1.06377 0
M  V30 331 N 32.5182 1.22032 0.997298 0
M  V30 332 C 33.7482 1.06686 1.76923 0
M  V30 333 C 34.1562 -0.385838 1.85224 0
M  V30 334 O 33.4992 -1.27929 1.31833 0
M  V30 335 C 33.5612 1.59802 3.22031 0
M  V30 336 C 33.2252 3.08362 3.37286 0
M  V30 337 C 34.2222 4.05835 3.24952 0
M  V30 338 C 31.9072 3.47727 3.6248 0
M  V30 339 C 33.9012 5.4066 3.37588 0
M  V30 340 C 31.5882 4.82701 3.74757 0
M  V30 341 C 32.5862 5.78977 3.62319 0
M  V30 342 O 32.2742 7.11502 3.74193 0
M  V30 343 H 32.0062 0.374767 0.562606 0
M  V30 344 H 34.5602 1.61991 1.26286 0
M  V30 345 H 32.7902 0.989003 3.73839 0
M  V30 346 H 34.4792 1.40184 3.80924 0
M  V30 347 H 35.2452 3.76766 3.05405 0
M  V30 348 H 31.1242 2.73317 3.7124 0
M  V30 349 H 34.6682 6.15788 3.27796 0
M  V30 350 H 30.5652 5.11453 3.9381 0
M  V30 351 H 31.3332 7.19019 3.91093 0
M  V30 352 N 33.9963 -1.19345 1.0293 0
M  V30 353 C 35.2243 -1.92997 0.745644 0
M  V30 354 C 35.6393 -1.75519 -0.695589 0
M  V30 355 O 34.9963 -1.07737 -1.47306 0
M  V30 356 C 35.0473 -3.44741 1.08792 0
M  V30 357 O 34.7683 -3.61658 2.47256 0
M  V30 358 C 36.2693 -4.35515 0.827129 0
M  V30 359 H 33.4893 -0.613042 0.272801 0
M  V30 360 H 36.0333 -1.51473 1.3739 0
M  V30 361 H 34.1883 -3.84097 0.504832 0
M  V30 362 H 34.6023 -4.55514 2.60015 0
M  V30 363 H 36.0763 -5.40589 1.11658 0
M  V30 364 H 36.5533 -4.38552 -0.238436 0
M  V30 365 H 37.1593 -4.01841 1.39297 0
M  V30 366 N 35.4744 -0.807222 -1.35358 0
M  V30 367 C 36.7024 -0.400377 -2.02989 0
M  V30 368 C 37.1174 0.988859 -1.60832 0
M  V30 369 O 36.4744 1.63729 -0.806175 0
M  V30 370 C 36.5254 -0.474867 -3.58368 0
M  V30 371 O 36.2464 -1.80933 -3.98992 0
M  V30 372 C 37.7474 -0.0609112 -4.43258 0
M  V30 373 H 34.9674 -0.162587 -0.651004 0
M  V30 374 H 37.5114 -1.09102 -1.72965 0
M  V30 375 H 35.6664 0.167534 -3.87038 0
M  V30 376 H 36.0804 -1.77256 -4.9364 0
M  V30 377 H 37.5544 -0.164145 -5.51756 0
M  V30 378 H 38.0314 0.993831 -4.27808 0
M  V30 379 H 38.6374 -0.676492 -4.19885 0
M  V30 380 N 36.9525 1.47285 -0.560781 0
M  V30 381 C 37.8825 2.32857 0.173105 0
M  V30 382 C 38.8635 1.44009 0.905281 0
M  V30 383 O 40.0485 1.7286 0.885046 0
M  V30 384 C 37.1785 3.25861 1.20133 0
M  V30 385 C 36.1325 4.23978 0.585388 0
M  V30 386 C 35.4585 5.06332 1.7185 0
M  V30 387 C 36.7585 5.20242 -0.463178 0
M  V30 388 H 38.4525 2.94466 -0.541307 0
M  V30 389 H 35.9985 1.41601 -0.261764 0
M  V30 390 H 37.9515 3.84569 1.72293 0
M  V30 391 H 36.6755 2.62315 1.94573 0
M  V30 392 H 35.3345 3.66501 0.085054 0
M  V30 393 H 34.9825 4.39186 2.45203 0
M  V30 394 H 34.6825 5.72762 1.31213 0
M  V30 395 H 36.2065 5.67899 2.24329 0
M  V30 396 H 37.6205 5.73293 -0.027502 0
M  V30 397 H 36.0175 5.94896 -0.788627 0
M  V30 398 H 37.0875 4.65504 -1.35773 0
M  V30 399 N 38.4306 0.297415 1.54768 0
M  V30 400 C 39.3406 -0.58983 2.27064 0
M  V30 401 C 40.3566 -1.15144 1.30453 0
M  V30 402 O 41.5326 -1.17699 1.63428 0
M  V30 403 C 38.5976 -1.74714 2.9946 0
M  V30 404 C 37.6586 -1.21997 4.11601 0
M  V30 405 C 36.8916 -2.32212 4.80535 0
M  V30 406 O 37.1146 -3.52036 4.48806 0
M  V30 407 O 36.0486 -1.99106 5.68014 0
M  V30 408 H 39.8746 -0.00348199 3.037 0
M  V30 409 H 37.4596 0.0640035 1.49263 0
M  V30 410 H 39.3416 -2.42147 3.44881 0
M  V30 411 H 38.0166 -2.32016 2.25722 0
M  V30 412 H 36.9236 -0.511458 3.70587 0
M  V30 413 H 38.2566 -0.692419 4.87305 0
M  V30 414 N 39.9087 -1.5758 0.0250728 0
M  V30 415 C 41.1557 -1.91633 -0.654444 0
M  V30 416 C 41.4837 -0.901103 -1.72367 0
M  V30 417 O 40.7387 0.0905647 -1.9549 0
M  V30 418 C 41.0377 -3.32421 -1.31268 0
M  V30 419 C 40.7037 -4.49344 -0.374223 0
M  V30 420 C 39.3657 -4.8106 -0.115911 0
M  V30 421 C 41.7177 -5.20498 0.270432 0
M  V30 422 C 39.0457 -5.8129 0.79493 0
M  V30 423 C 41.3977 -6.21699 1.1693 0
M  V30 424 C 40.0617 -6.51859 1.43655 0
M  V30 425 H 39.3317 -0.701236 -0.239478 0
M  V30 426 H 41.9787 -1.91307 0.0859734 0
M  V30 427 H 40.2837 -3.28989 -2.12775 0
M  V30 428 H 41.9807 -3.56038 -1.84494 0
M  V30 429 H 38.5707 -4.24579 -0.58573 0
M  V30 430 H 42.7547 -4.96229 0.0839194 0
M  V30 431 H 38.0107 -6.03005 1.00973 0
M  V30 432 H 42.1847 -6.75955 1.67504 0
M  V30 433 H 39.8117 -7.2934 2.144 0
M  V30 434 N 41.3868 0.248026 -1.55636 0
M  V30 435 C 42.2968 1.32859 -1.93354 0
M  V30 436 C 43.3128 1.52719 -0.833838 0
M  V30 437 O 44.4888 1.66363 -1.13513 0
M  V30 438 C 41.5538 2.66337 -2.21958 0
M  V30 439 C 40.6148 2.55008 -3.45354 0
M  V30 440 C 39.8478 3.82121 -3.72584 0
M  V30 441 O 40.0708 4.83951 -3.01907 0
M  V30 442 O 39.0048 3.80822 -4.6611 0
M  V30 443 H 42.8308 1.03862 -2.85388 0
M  V30 444 H 40.4158 0.448686 -1.42503 0
M  V30 445 H 42.2978 3.45216 -2.4167 0
M  V30 446 H 40.9728 2.95068 -1.33103 0
M  V30 447 H 39.8798 1.7442 -3.30951 0
M  V30 448 H 41.2128 2.31222 -4.34508 0
M  V30 449 N 42.8649 1.48995 0.513639 0
M  V30 450 C 43.8129 1.65199 1.63744 0
M  V30 451 C 44.8069 0.51809 1.61283 0
M  V30 452 O 46.0129 0.697335 1.65943 0
M  V30 453 H 42.3879 0.52069 0.542574 0
M  V30 454 H 44.3589 2.59552 1.47226 0
M  V30 455 C 43.1079 1.72409 3.01945 0
M  V30 456 H 42.4309 2.59029 3.04539 0
M  V30 457 H 43.8709 1.87785 3.80148 0
M  V30 458 C 42.3299 0.46618 3.33659 0
M  V30 459 O 42.8599 -0.413744 3.99564 0
M  V30 460 N 41.0659 0.332931 2.88687 0
M  V30 461 H 40.6129 1.04996 2.35231 0
M  V30 462 H 40.5709 -0.507665 3.10274 0
M  V30 463 N 44.343 -0.763751 1.37857 0
M  V30 464 C 45.589 -1.52483 1.33704 0
M  V30 465 C 45.922 -1.94051 -0.0759612 0
M  V30 466 O 45.197 -1.64675 -1.03501 0
M  V30 467 C 45.48 -2.78441 2.28348 0
M  V30 468 C 45.333 -2.43075 3.78463 0
M  V30 469 C 46.652 -3.80415 2.21298 0
M  V30 470 H 43.771 -0.553169 0.487005 0
M  V30 471 H 46.413 -0.875562 1.68624 0
M  V30 472 H 44.563 -3.33842 1.987 0
M  V30 473 H 46.235 -1.93527 4.18742 0
M  V30 474 H 44.478 -1.75666 3.96641 0
M  V30 475 H 45.149 -3.33149 4.40132 0
M  V30 476 H 47.625 -3.34527 2.47449 0
M  V30 477 H 46.501 -4.66257 2.89647 0
M  V30 478 H 46.762 -4.25262 1.20849 0
M  V30 479 N 45.8211 -1.22559 -0.990812 0
M  V30 480 C 46.7531 -0.955325 -2.08342 0
M  V30 481 C 47.7661 0.0668408 -1.62663 0
M  V30 482 O 48.9551 -0.167421 -1.77713 0
M  V30 483 C 46.0551 -0.415566 -3.36342 0
M  V30 484 C 45.2281 -1.49544 -4.11042 0
M  V30 485 C 44.2871 -0.962399 -5.17324 0
M  V30 486 O 43.3131 -1.64907 -5.44788 0
M  V30 487 N 44.5151 0.215134 -5.80101 0
M  V30 488 H 47.2801 -1.89596 -2.32106 0
M  V30 489 H 44.8411 -1.13276 -1.15673 0
M  V30 490 H 46.8331 -0.0442386 -4.04676 0
M  V30 491 H 45.4031 0.430232 -3.09625 0
M  V30 492 H 44.6231 -2.04 -3.37309 0
M  V30 493 H 45.9111 -2.22195 -4.57719 0
M  V30 494 H 45.3091 0.789779 -5.6016 0
M  V30 495 H 43.8661 0.527826 -6.49659 0
M  V30 496 N 47.2992 1.18797 -1.03562 0
M  V30 497 C 48.5452 1.8893 -0.737113 0
M  V30 498 C 48.8782 1.79837 0.732956 0
M  V30 499 O 48.1532 1.19525 1.5344 0
M  V30 500 C 48.4362 3.39607 -1.19745 0
M  V30 501 C 48.2892 3.57537 -2.72924 0
M  V30 502 C 49.6082 4.33069 -0.783526 0
M  V30 503 H 46.7272 0.686057 -0.269249 0
M  V30 504 H 49.3692 1.39797 -1.28673 0
M  V30 505 H 47.5192 3.81583 -0.729855 0
M  V30 506 H 49.1912 3.24688 -3.27682 0
M  V30 507 H 47.4342 3.00363 -3.12993 0
M  V30 508 H 48.1052 4.63238 -3.00191 0
M  V30 509 H 50.5812 3.98846 -1.18581 0
M  V30 510 H 49.4572 5.3707 -1.13343 0
M  V30 511 H 49.7182 4.40986 0.313681 0
M  V30 512 N 48.7773 0.814389 1.34928 0
M  V30 513 C 49.7073 0.244827 2.32213 0
M  V30 514 C 50.6883 -0.634024 1.57842 0
M  V30 515 O 51.8733 -0.562676 1.8587 0
M  V30 516 C 49.0033 -0.601106 3.42058 0
M  V30 517 C 47.9573 0.179896 4.27622 0
M  V30 518 C 47.2833 -0.788237 5.28858 0
M  V30 519 C 48.5833 1.38329 5.03649 0
M  V30 520 H 50.2773 1.05763 2.80097 0
M  V30 521 H 47.8233 0.510029 1.34665 0
M  V30 522 H 49.7763 -1.00968 4.09125 0
M  V30 523 H 48.5003 -1.44688 2.92802 0
M  V30 524 H 47.1593 0.569739 3.62146 0
M  V30 525 H 46.8073 -1.62973 4.75866 0
M  V30 526 H 46.5073 -0.269942 5.8698 0
M  V30 527 H 48.0313 -1.19485 5.98795 0
M  V30 528 H 49.4453 1.04918 5.63618 0
M  V30 529 H 47.8423 1.83662 5.71304 0
M  V30 530 H 48.9123 2.16592 4.33839 0
M  V30 531 N 50.2554 -1.46986 0.568584 0
M  V30 532 C 51.4834 -2.0683 0.0539956 0
M  V30 533 C 51.8984 -1.41953 -1.24478 0
M  V30 534 O 51.2554 -0.519933 -1.74937 0
M  V30 535 C 51.3064 -3.61254 -0.133362 0
M  V30 536 O 51.0274 -4.237 1.11399 0
M  V30 537 C 52.5284 -4.37992 -0.683927 0
M  V30 538 H 49.7484 -0.669058 0.0510141 0
M  V30 539 H 52.2924 -1.88824 0.785234 0
M  V30 540 H 50.4474 -3.78735 -0.81477 0
M  V30 541 H 50.8614 -5.16388 0.91888 0
M  V30 542 H 52.3354 -5.46684 -0.764263 0
M  V30 543 H 52.8124 -4.05058 -1.69778 0
M  V30 544 H 53.4184 -4.25283 -0.0378494 0
M  V30 545 N 51.7335 -0.305618 -1.54608 0
M  V30 546 C 52.6665 0.610536 -2.19881 0
M  V30 547 C 53.6445 1.1294 -1.16976 0
M  V30 548 O 54.8285 1.19673 -1.45638 0
M  V30 549 C 51.9555 1.83583 -2.84631 0
M  V30 550 C 51.0015 1.4498 -4.01102 0
M  V30 551 S 51.8345 0.501793 -5.33144 0
M  V30 552 C 52.9905 1.73478 -6.01379 0
M  V30 553 H 53.2235 0.0560177 -2.97247 0
M  V30 554 H 50.7565 -0.0897434 -1.54139 0
M  V30 555 H 52.7145 2.53898 -3.22562 0
M  V30 556 H 51.3755 2.36152 -2.07102 0
M  V30 557 H 50.5685 2.36236 -4.45206 0
M  V30 558 H 50.1705 0.826553 -3.64752 0
M  V30 559 H 52.4625 2.67473 -6.22467 0
M  V30 560 H 53.4055 1.33622 -6.95378 0
M  V30 561 H 53.8135 1.9136 -5.31076 0
M  V30 562 N 53.2116 1.57565 -0.0334293 0
M  V30 563 C 54.4596 1.91598 0.642999 0
M  V30 564 C 54.7806 0.910847 1.7242 0
M  V30 565 O 54.0506 -0.0469931 1.95844 0
M  V30 566 H 52.6306 0.707228 0.240496 0
M  V30 567 H 55.2926 1.94726 -0.0822488 0
M  V30 568 H 54.3886 2.92336 1.09298 0
M  V30 569 N 54.6897 -0.239769 1.55765 0
M  V30 570 C 55.6377 -1.31668 1.91745 0
M  V30 571 C 56.6317 -1.49462 0.797338 0
M  V30 572 O 57.8377 -1.50852 0.982021 0
M  V30 573 H 54.2127 -0.441048 0.609082 0
M  V30 574 H 56.1837 -0.985923 2.81642 0
M  V30 575 C 54.9327 -2.66368 2.2348 0
M  V30 576 H 54.2557 -2.53478 3.09175 0
M  V30 577 H 55.6957 -3.40578 2.52553 0
M  V30 578 C 54.1547 -3.20002 1.05359 0
M  V30 579 O 54.6847 -4.00538 0.305261 0
M  V30 580 N 52.8907 -2.78126 0.842292 0
M  V30 581 H 52.4377 -2.12742 1.45253 0
M  V30 582 H 52.3957 -3.14354 0.053652 0
M  V30 583 N 56.1678 -1.49265 -0.50573 0
M  V30 584 C 57.4448 -1.49012 -1.26707 0
M  V30 585 C 57.8248 -0.215205 -2.1 0
M  V30 586 O 57.1728 0.802547 -2.13943 0
M  V30 587 C 57.3828 -2.7663 -2.12783 0
M  V30 588 C 58.7308 -3.25932 -2.72127 0
M  V30 589 O 59.7548 -2.77715 -2.23054 0
M  V30 590 O 58.6138 -4.09897 -3.61451 0
M  V30 591 H 55.7078 -0.596197 -0.57313 0
M  V30 592 H 58.2538 -1.61524 -0.52039 0
M  V30 593 H 57.0258 -3.60916 -1.5118 0
M  V30 594 H 56.6488 -2.66956 -2.94653 0
M  V30 595 N 57.6459 0.756429 -1.3826 0
M  V30 596 C 58.8739 1.54565 -1.3754 0
M  V30 597 C 59.2889 1.88767 0.0355331 0
M  V30 598 O 58.6459 1.52572 1.0014 0
M  V30 599 C 58.6969 2.84654 -2.22833 0
M  V30 600 O 58.4179 2.51912 -3.5843 0
M  V30 601 C 59.9189 3.78807 -2.30261 0
M  V30 602 H 57.1389 0.478353 -0.470553 0
M  V30 603 H 59.6829 0.936381 -1.81803 0
M  V30 604 H 57.8379 3.41965 -1.8204 0
M  V30 605 H 58.2519 3.35325 -4.03308 0
M  V30 606 H 59.7259 4.67045 -2.94233 0
M  V30 607 H 60.2029 4.19038 -1.31545 0
M  V30 608 H 60.8089 3.2742 -2.71433 0
M  V30 609 N 59.124 1.23083 0.984299 0
M  V30 610 C 60.349 1.088 1.76571 0
M  V30 611 C 60.774 -0.356657 1.84688 0
M  V30 612 O 60.132 -1.25788 1.30565 0
M  V30 613 C 60.18 1.71371 3.17277 0
M  V30 614 O 59.284 0.973213 4.00752 0
M  V30 615 H 58.625 0.381599 0.543395 0
M  V30 616 H 61.155 1.63057 1.23587 0
M  V30 617 H 61.165 1.76449 3.67872 0
M  V30 618 H 59.84 2.76493 3.10684 0
M  V30 619 H 58.417 0.999078 3.59267 0
M  V30 620 N 60.6021 -1.18246 1.0419 0
M  V30 621 C 62.0131 -1.69914 0.773698 0
M  V30 622 C 62.3641 -1.83085 -0.705297 0
M  V30 623 O 61.4891 -1.51123 -1.5489 0
M  V30 624 C 62.0841 -3.08619 1.39784 0
M  V30 625 C 60.6431 -3.57494 1.17792 0
M  V30 626 C 59.7901 -2.34013 1.48773 0
M  V30 627 H 62.7411 -1.02904 1.20816 0
M  V30 628 H 62.7621 -3.71958 0.801714 0
M  V30 629 H 62.2741 -2.99001 2.47426 0
M  V30 630 H 60.3751 -3.72406 0.120295 0
M  V30 631 H 60.4881 -4.40852 1.87581 0
M  V30 632 H 58.8521 -2.37986 0.907463 0
M  V30 633 H 59.6351 -2.27013 2.57527 0
M  V30 634 N 62.0802 -0.821533 -1.34494 0
M  V30 635 C 63.3052 -0.420873 -2.03085 0
M  V30 636 C 63.7302 0.964915 -1.61465 0
M  V30 637 O 63.0882 1.62763 -0.798607 0
M  V30 638 C 63.1362 -0.529414 -3.56693 0
M  V30 639 O 62.2402 0.451302 -4.09923 0
M  V30 640 H 61.5812 -0.173489 -0.640935 0
M  V30 641 H 64.1112 -1.11157 -1.71771 0
M  V30 642 H 64.1212 -0.404671 -4.05988 0
M  V30 643 H 62.7962 -1.54014 -3.86332 0
M  V30 644 H 61.3732 0.285558 -3.71805 0
M  V30 645 N 63.5583 1.46682 -0.576371 0
M  V30 646 C 64.4683 2.34032 0.163141 0
M  V30 647 C 65.4843 1.49367 0.892501 0
M  V30 648 O 66.6603 1.82252 0.857106 0
M  V30 649 C 63.7253 3.26435 1.16795 0
M  V30 650 C 62.7863 4.26998 0.443944 0
M  V30 651 C 62.0193 5.14986 1.40088 0
M  V30 652 O 62.2423 5.05785 2.637 0
M  V30 653 O 61.1763 5.94906 0.914917 0
M  V30 654 H 65.0023 2.98607 -0.55388 0
M  V30 655 H 62.5873 1.45554 -0.336821 0
M  V30 656 H 64.4693 3.83459 1.74748 0
M  V30 657 H 63.1443 2.64465 1.86655 0
M  V30 658 H 62.0513 3.7368 -0.177271 0
M  V30 659 H 63.3843 4.91736 -0.213566 0
M  V30 660 N 65.0364 0.313813 1.54444 0
M  V30 661 C 66.2844 -0.291099 1.99993 0
M  V30 662 C 66.6054 -1.53418 1.20366 0
M  V30 663 O 65.8754 -1.93544 0.302927 0
M  V30 664 H 64.4554 -0.110552 0.738774 0
M  V30 665 H 67.1174 0.428106 1.9014 0
M  V30 666 H 66.2134 -0.554268 3.07139 0
M  V30 667 N 66.5145 -1.57545 0.0417849 0
M  V30 668 C 67.7425 -1.96624 -0.643928 0
M  V30 669 C 68.1575 -0.918897 -1.64929 0
M  V30 670 O 67.5145 0.0979323 -1.82237 0
M  V30 671 C 67.5655 -3.35781 -1.33914 0
M  V30 672 O 67.2865 -4.365 -0.374048 0
M  V30 673 C 68.7875 -3.89566 -2.1155 0
M  V30 674 H 66.0075 -0.647316 -0.176702 0
M  V30 675 H 68.5515 -2.04229 0.105304 0
M  V30 676 H 66.7065 -3.29357 -2.03968 0
M  V30 677 H 67.1205 -5.17248 -0.869179 0
M  V30 678 H 68.5945 -4.89242 -2.55628 0
M  V30 679 H 69.0715 -3.24488 -2.9598 0
M  V30 680 H 69.6775 -3.99298 -1.46427 0
M  V30 681 N 67.9926 0.231505 -1.5589 0
M  V30 682 C 68.9406 1.30649 -1.92441 0
M  V30 683 C 69.9346 1.49037 -0.805254 0
M  V30 684 O 71.1406 1.50329 -0.990007 0
M  V30 685 H 67.5156 0.437812 -0.611412 0
M  V30 686 H 69.4866 0.970973 -2.82161 0
M  V30 687 C 68.2356 2.65179 -2.24889 0
M  V30 688 H 67.5586 2.51835 -3.10514 0
M  V30 689 H 68.9986 3.39234 -2.54355 0
M  V30 690 C 67.4576 3.19439 -1.07054 0
M  V30 691 O 67.9876 4.00371 -0.326499 0
M  V30 692 N 66.1936 2.77675 -0.85703 0
M  V30 693 H 65.7406 2.11969 -1.46379 0
M  V30 694 H 65.6986 3.14321 -0.0703223 0
M  V30 695 N 69.4707 1.49531 0.497807 0
M  V30 696 C 70.4007 1.6935 1.60757 0
M  V30 697 C 71.3817 0.542218 1.61227 0
M  V30 698 O 72.5667 0.778417 1.77917 0
M  V30 699 C 69.6967 1.76298 2.99226 0
M  V30 700 C 68.6507 2.91248 3.13622 0
M  V30 701 C 67.9767 2.83312 4.53474 0
M  V30 702 C 69.2767 4.3214 2.93346 0
M  V30 703 H 70.9707 2.62263 1.44425 0
M  V30 704 H 68.5167 1.26208 0.693367 0
M  V30 705 H 70.4697 1.88749 3.76765 0
M  V30 706 H 69.1937 0.799871 3.16654 0
M  V30 707 H 67.8527 2.78404 2.38509 0
M  V30 708 H 67.5007 1.84902 4.67782 0
M  V30 709 H 67.2007 3.60465 4.64046 0
M  V30 710 H 68.7247 2.97775 5.33069 0
M  V30 711 H 70.1387 4.45649 3.60652 0
M  V30 712 H 68.5357 5.1054 3.15387 0
M  V30 713 H 69.6057 4.46363 1.89441 0
M  V30 714 N 70.9488 -0.749086 1.3866 0
M  V30 715 C 71.8968 -1.88428 1.36373 0
M  V30 716 C 72.8908 -1.67561 0.248929 0
M  V30 717 O 74.0968 -1.75074 0.41821 0
M  V30 718 H 70.4718 -0.620023 0.42553 0
M  V30 719 H 72.4428 -1.87473 2.32156 0
M  V30 720 C 71.1918 -3.25961 1.21014 0
M  V30 721 H 70.5148 -3.42607 2.06059 0
M  V30 722 H 71.9548 -4.05625 1.23469 0
M  V30 723 C 70.4138 -3.36799 -0.0825941 0
M  V30 724 O 70.9438 -3.87517 -1.05797 0
M  V30 725 N 69.1498 -2.90258 -0.140939 0
M  V30 726 H 68.6968 -2.49174 0.653477 0
M  V30 727 H 68.6548 -2.97889 -1.00545 0
M  V30 728 N 72.4269 -1.23603 -0.977757 0
M  V30 729 C 73.3899 -1.02069 -2.05218 0
M  V30 730 C 74.3899 0.0184305 -1.60789 0
M  V30 731 O 75.5799 -0.221569 -1.72785 0
M  V30 732 C 72.7119 -0.544926 -3.36517 0
M  V30 733 H 73.9049 -1.9742 -2.25755 0
M  V30 734 H 71.4579 -1.05684 -1.15155 0
M  V30 735 H 72.1929 0.412241 -3.21669 0
M  V30 736 H 71.9779 -1.2948 -3.70105 0
M  V30 737 H 73.4679 -0.414985 -4.15533 0
M  V30 738 N 73.905 1.17692 -1.04816 0
M  V30 739 C 75.316 1.69501 -0.782698 0
M  V30 740 C 75.667 1.83456 0.695577 0
M  V30 741 O 74.792 1.51942 1.54086 0
M  V30 742 C 75.387 3.07874 -1.41419 0
M  V30 743 C 73.946 3.56864 -1.19686 0
M  V30 744 C 73.093 2.3322 -1.50012 0
M  V30 745 H 76.044 1.02262 -1.2136 0
M  V30 746 H 76.065 3.71528 -0.821428 0
M  V30 747 H 75.577 2.97685 -2.49009 0
M  V30 748 H 73.678 3.72337 -0.140043 0
M  V30 749 H 73.791 4.39851 -1.89916 0
M  V30 750 H 72.155 2.37501 -0.920071 0
M  V30 751 H 72.938 2.25644 -2.58727 0
M  V30 752 N 75.3831 0.828654 1.34056 0
M  V30 753 C 76.3311 0.242973 2.31327 0
M  V30 754 C 77.3251 -0.61944 1.57668 0
M  V30 755 O 78.5311 -0.51014 1.7262 0
M  V30 756 H 74.9061 0.059834 0.749616 0
M  V30 757 H 76.8771 1.07809 2.78244 0
M  V30 758 C 75.6261 -0.575733 3.429 0
M  V30 759 H 74.9491 0.0785582 3.99723 0
M  V30 760 H 76.3891 -0.951547 4.13185 0
M  V30 761 C 74.8481 -1.75044 2.87856 0
M  V30 762 O 75.3781 -2.84882 2.83205 0
M  V30 763 N 73.5841 -1.56903 2.44602 0
M  V30 764 H 73.1311 -0.675547 2.48584 0
M  V30 765 H 73.0891 -2.35652 2.08124 0
M  V30 766 N 76.8612 -1.46375 0.584142 0
M  V30 767 C 78.0862 -2.07268 0.0740405 0
M  V30 768 C 78.5112 -1.42979 -1.22223 0
M  V30 769 O 77.8692 -0.514092 -1.73859 0
M  V30 770 C 77.9172 -3.60518 -0.0767769 0
M  V30 771 O 77.0212 -3.96533 -1.13292 0
M  V30 772 H 76.3622 -0.660961 0.0634524 0
M  V30 773 H 78.8922 -1.87991 0.807492 0
M  V30 774 H 78.9022 -4.07021 -0.282489 0
M  V30 775 H 77.5772 -4.06702 0.86986 0
M  V30 776 H 76.1542 -3.61738 -0.905553 0
M  V30 777 N 78.3393 -0.321999 -1.54275 0
M  V30 778 C 79.2693 0.537411 -2.27231 0
M  V30 779 C 80.2503 1.12064 -1.27968 0
M  V30 780 O 81.4353 1.14606 -1.56777 0
M  V30 781 C 78.5653 1.69919 -3.02894 0
M  V30 782 C 77.5193 1.24534 -4.09482 0
M  V30 783 C 76.8453 2.49394 -4.72977 0
M  V30 784 C 78.1453 0.361335 -5.21049 0
M  V30 785 H 79.8393 -0.0711406 -2.99315 0
M  V30 786 H 77.3853 -0.0356555 -1.43956 0
M  V30 787 H 79.3383 2.30668 -3.52662 0
M  V30 788 H 78.0623 2.33431 -2.28424 0
M  V30 789 H 76.7213 0.660782 -3.60596 0
M  V30 790 H 76.3693 3.11265 -3.95124 0
M  V30 791 H 76.0693 2.19718 -5.44975 0
M  V30 792 H 77.5933 3.10908 -5.25517 0
M  V30 793 H 79.0073 0.875072 -5.66582 0
M  V30 794 H 77.4043 0.157428 -5.99893 0
M  V30 795 H 78.4743 -0.60822 -4.8107 0
M  V30 796 N 79.8174 1.5752 -0.0501392 0
M  V30 797 C 81.0654 1.9227 0.622642 0
M  V30 798 C 81.3864 0.929083 1.71444 0
M  V30 799 O 80.6564 -0.0262186 1.95882 0
M  V30 800 H 79.2364 0.709739 0.232981 0
M  V30 801 H 81.8984 1.94628 -0.102898 0
M  V30 802 H 80.9944 2.93479 1.06191 0
M  V30 803 N 81.2955 -0.223234 1.56011 0
M  V30 804 C 82.5415 -0.949279 1.79211 0
M  V30 805 C 82.8745 -1.84054 0.619494 0
M  V30 806 O 82.1495 -1.90726 -0.381317 0
M  V30 807 C 82.4325 -1.78965 3.12479 0
M  V30 808 C 82.2855 -0.924997 4.40186 0
M  V30 809 C 83.6045 -2.76774 3.42175 0
M  V30 810 H 80.7235 -0.343676 0.651963 0
M  V30 811 H 83.3655 -0.218253 1.88742 0
M  V30 812 H 81.5155 -2.41291 3.04485 0
M  V30 813 H 83.1875 -0.318615 4.60198 0
M  V30 814 H 81.4305 -0.230344 4.33188 0
M  V30 815 H 82.1015 -1.54735 5.29869 0
M  V30 816 H 84.5775 -2.24584 3.50287 0
M  V30 817 H 83.4535 -3.32678 4.36597 0
M  V30 818 H 83.7145 -3.54429 2.64258 0
M  V30 819 N 82.7736 -1.49793 -0.48987 0
M  V30 820 C 83.9986 -1.63836 -1.27172 0
M  V30 821 C 84.4236 -0.31402 -1.8546 0
M  V30 822 O 83.7816 0.719803 -1.66399 0
M  V30 823 C 83.8296 -2.71797 -2.36978 0
M  V30 824 O 82.9336 -2.31744 -3.41128 0
M  V30 825 H 82.2746 -0.547997 -0.37496 0
M  V30 826 H 84.8046 -1.96053 -0.585191 0
M  V30 827 H 84.8146 -2.94305 -2.82575 0
M  V30 828 H 83.4896 -3.67923 -1.93921 0
M  V30 829 H 82.0666 -2.1961 -3.01373 0
M  V30 830 N 84.2517 0.741722 -1.39055 0
M  V30 831 C 85.2147 1.83733 -1.37021 0
M  V30 832 C 86.2147 1.58542 -0.268534 0
M  V30 833 O 87.4047 1.66067 -0.526076 0
M  V30 834 C 84.5367 3.2141 -1.13617 0
M  V30 835 H 85.7297 1.86941 -2.34506 0
M  V30 836 H 83.2827 0.944676 -1.24521 0
M  V30 837 H 84.0177 3.23865 -0.167863 0
M  V30 838 H 83.8027 3.4109 -1.93391 0
M  V30 839 H 85.2927 4.01477 -1.14918 0
M  V30 840 N 85.7298 1.2412 0.971189 0
M  V30 841 C 86.6598 1.05508 2.08304 0
M  V30 842 C 87.6408 -0.0308864 1.70072 0
M  V30 843 O 88.8258 0.135521 1.93727 0
M  V30 844 C 85.9558 0.655365 3.4106 0
M  V30 845 C 84.9098 1.68971 3.93234 0
M  V30 846 C 84.2358 1.14516 5.22293 0
M  V30 847 C 85.5358 3.08487 4.21465 0
M  V30 848 H 87.2298 1.98507 2.24132 0
M  V30 849 H 84.7758 0.955821 1.07704 0
M  V30 850 H 86.7288 0.51217 4.18276 0
M  V30 851 H 85.4528 -0.31032 3.25122 0
M  V30 852 H 84.1118 1.82106 3.18171 0
M  V30 853 H 83.7598 0.170189 5.02712 0
M  V30 854 H 83.4598 1.83635 5.58168 0
M  V30 855 H 84.9838 1.01401 6.02121 0
M  V30 856 H 86.3978 2.98601 4.89398 0
M  V30 857 H 84.7948 3.74926 4.68562 0
M  V30 858 H 85.8648 3.56787 3.28376 0
M  V30 859 N 87.2079 -1.17134 1.05439 0
M  V30 860 C 88.4479 -1.89137 0.77502 0
M  V30 861 C 88.8119 -1.79345 -0.685526 0
M  V30 862 O 90.0129 -2.46188 -1.0791 0
M  V30 863 C 88.2839 -3.35003 1.2453 0
M  V30 864 S 89.8429 -4.24952 1.09367 0
M  V30 865 H 86.6609 -0.652949 0.281387 0
M  V30 866 H 89.2629 -1.4145 1.34953 0
M  V30 867 H 87.9669 -3.39666 2.30338 0
M  V30 868 H 87.4979 -3.87736 0.665166 0
M  V30 869 H 89.5129 -4.96196 0.0193397 0
M  V30 870 N 88.686 -0.835752 -1.33615 0
M  V30 871 C 89.649 -0.272 -2.2758 0
M  V30 872 C 90.649 0.557487 -1.50827 0
M  V30 873 O 91.839 0.37173 -1.70188 0
M  V30 874 C 88.971 0.617173 -3.35267 0
M  V30 875 H 90.164 -1.10111 -2.78954 0
M  V30 876 H 87.717 -0.608594 -1.43965 0
M  V30 877 H 88.452 1.46884 -2.89129 0
M  V30 878 H 88.237 0.0237066 -3.92093 0
M  V30 879 H 89.727 1.005 -4.05326 0
M  V30 880 N 90.1641 1.46063 -0.591896 0
M  V30 881 C 91.4131 2.01547 -0.0786637 0
M  V30 882 C 91.7261 1.46796 1.29268 0
M  V30 883 O 92.9321 1.94157 1.89777 0
M  V30 884 C 91.3881 3.59787 -0.0900024 0
M  V30 885 C 90.9961 4.23534 -1.46023 0
M  V30 886 C 92.7401 4.22895 0.368806 0
M  V30 887 C 90.6471 5.73881 -1.4288 0
M  V30 888 H 89.5771 0.753564 -0.0256388 0
M  V30 889 H 92.2281 1.677 -0.744905 0
M  V30 890 H 90.6101 3.90752 0.642586 0
M  V30 891 H 91.7841 4.04167 -2.21328 0
M  V30 892 H 90.0991 3.72558 -1.85982 0
M  V30 893 H 92.6961 5.33116 0.411258 0
M  V30 894 H 93.0391 3.9247 1.38827 0
M  V30 895 H 93.5721 3.9659 -0.31001 0
M  V30 896 H 90.3111 6.0898 -2.42536 0
M  V30 897 H 89.8311 5.95486 -0.718095 0
M  V30 898 H 91.5101 6.36776 -1.14565 0
M  V30 899 N 91.6422 0.330177 1.54103 0
M  V30 900 C 92.8822 -0.270916 2.02597 0
M  V30 901 C 93.2462 -1.48826 1.21304 0
M  V30 902 O 94.4472 -2.16266 1.59633 0
M  V30 903 C 92.7182 -0.590328 3.52491 0
M  V30 904 S 94.2772 -1.17014 4.2291 0
M  V30 905 H 91.0952 -0.0815379 0.706309 0
M  V30 906 H 93.6972 0.464835 1.89893 0
M  V30 907 H 92.4012 0.303691 4.09275 0
M  V30 908 H 91.9322 -1.3561 3.69288 0
M  V30 909 H 93.9472 -2.45662 4.3112 0
M  V30 910 N 93.1203 -1.57491 0.0584922 0
M  V30 911 C 94.3683 -1.92597 -0.612436 0
M  V30 912 C 94.6893 -0.938162 -1.70949 0
M  V30 913 O 93.9593 0.0158301 -1.95894 0
M  V30 914 H 92.5393 -0.710964 -0.229214 0
M  V30 915 H 95.2013 -1.94571 0.113218 0
M  V30 916 H 94.2973 -2.94038 -1.04633 0
M  V30 917 N 94.5984 0.214957 -1.56127 0
M  V30 918 C 95.8754 0.963093 -1.70247 0
M  V30 919 C 96.2554 2.02166 -0.60764 0
M  V30 920 O 95.6034 2.25244 0.384385 0
M  V30 921 C 95.8134 1.56756 -3.11815 0
M  V30 922 C 97.1614 2.0573 -3.7143 0
M  V30 923 O 98.1854 1.66637 -3.14818 0
M  V30 924 O 97.0444 2.77603 -4.70743 0
M  V30 925 H 94.1384 0.450321 -0.693643 0
M  V30 926 H 96.6844 0.206219 -1.68442 0
M  V30 927 H 95.4564 0.803533 -3.82961 0
M  V30 928 H 95.0794 2.3898 -3.17765 0
M  V30 929 N 96.0765 1.50051 0.48192 0
M  V30 930 C 97.4925 1.37237 0.814756 0
M  V30 931 C 97.6925 0.420109 1.97072 0
M  V30 932 O 96.7485 -0.141246 2.52105 0
M  V30 933 C 98.0615 2.78375 1.13701 0
M  V30 934 C 99.6095 2.87213 1.2441 0
M  V30 935 C 100.084 4.29161 1.59954 0
M  V30 936 N 101.575 4.32061 1.66967 0
M  V30 937 C 102.31 5.38879 1.95952 0
M  V30 938 N 101.806 6.55918 2.23031 0
M  V30 939 N 103.599 5.26312 1.97363 0
M  V30 940 H 95.7505 2.10546 -0.28005 0
M  V30 941 H 98.0135 0.945921 -0.0627454 0
M  V30 942 H 97.7195 3.49845 0.360787 0
M  V30 943 H 97.5935 3.14941 2.07586 0
M  V30 944 H 99.9805 2.15969 2.01101 0
M  V30 945 H 100.061 2.54204 0.285299 0
M  V30 946 H 99.7055 5.00938 0.838067 0
M  V30 947 H 99.6355 4.59648 2.56966 0
M  V30 948 H 102.126 3.47661 1.48123 0
M  V30 949 H 102.439 7.33139 2.44391 0
M  V30 950 H 100.784 6.59112 2.20447 0
M  V30 951 H 103.975 4.33876 1.75697 0
M  V30 952 H 104.148 6.09649 2.19618 0
M  V30 953 N 97.5546 -0.734337 1.39446 0
M  V30 954 C 98.5176 -1.83004 1.37994 0
M  V30 955 C 99.5176 -1.58397 0.276938 0
M  V30 956 O 100.708 -1.65785 0.534875 0
M  V30 957 C 97.8396 -3.20802 1.1532 0
M  V30 958 H 99.0326 -1.85694 2.35494 0
M  V30 959 H 96.5856 -0.938059 1.25021 0
M  V30 960 H 97.3206 -3.23772 0.185036 0
M  V30 961 H 97.1056 -3.4006 1.95197 0
M  V30 962 H 98.5956 -4.00862 1.17046 0
M  V30 963 N 99.0327 -1.24633 -0.964593 0
M  V30 964 C 100.261 -1.11501 -1.74285 0
M  V30 965 C 100.676 0.332165 -1.85855 0
M  V30 966 O 100.033 1.22903 -1.34911 0
M  V30 967 C 100.084 -1.75258 -3.16175 0
M  V30 968 O 99.8047 -3.14318 -3.05182 0
M  V30 969 C 101.306 -1.67776 -4.10324 0
M  V30 970 H 98.5257 -0.389407 -0.546446 0
M  V30 971 H 101.07 -1.64801 -1.21083 0
M  V30 972 H 99.2247 -1.25954 -3.66353 0
M  V30 973 H 99.6387 -3.4551 -3.94618 0
M  V30 974 H 101.113 -2.17064 -5.0753 0
M  V30 975 H 101.59 -0.639584 -4.34518 0
M  V30 976 H 102.196 -2.16522 -3.66058 0
M  V30 977 N 100.511 1.16574 -1.06058 0
M  V30 978 C 101.759 1.86677 -0.77434 0
M  V30 979 C 102.08 1.81959 0.701147 0
M  V30 980 O 101.35 1.2515 1.50713 0
M  V30 981 H 99.9298 0.691134 -0.283449 0
M  V30 982 H 102.592 1.41378 -1.34158 0
M  V30 983 H 101.688 2.92181 -1.09711 0
M  V30 984 N 101.989 0.842826 1.3317 0
M  V30 985 C 102.936 0.276885 2.29133 0
M  V30 986 C 103.906 -0.609527 1.54512 0
M  V30 987 O 105.091 -0.546955 1.82792 0
M  V30 988 C 102.231 -0.538707 3.40869 0
M  V30 989 C 101.344 0.372169 4.30394 0
M  V30 990 C 100.479 -0.454908 5.29249 0
M  V30 991 C 99.5179 0.45411 6.10413 0
M  V30 992 N 98.6549 -0.335075 7.013 0
M  V30 993 H 103.495 1.10052 2.76934 0
M  V30 994 H 101.032 0.554161 1.36262 0
M  V30 995 H 102.99 -1.02709 4.0436 0
M  V30 996 H 101.62 -1.32727 2.9425 0
M  V30 997 H 100.672 0.97888 3.6759 0
M  V30 998 H 101.984 1.0703 4.87182 0
M  V30 999 H 101.138 -1.00695 5.98285 0
M  V30 1000 H 99.8769 -1.18646 4.73048 0
M  V30 1001 H 98.8819 1.01813 5.40291 0
M  V30 1002 H 100.107 1.18409 6.68697 0
M  V30 1003 H 98.0529 -1.04994 6.47543 0
M  V30 1004 H 97.9699 0.304262 7.55387 0
M  V30 1005 H 99.2379 -0.869224 7.74638 0
M  V30 1006 N 103.467 -1.45747 0.599634 0
M  V30 1007 C 104.417 -2.27538 -0.145107 0
M  V30 1008 C 105.401 -1.3686 -0.846055 0
M  V30 1009 O 106.593 -1.6091 -0.737357 0
M  V30 1010 C 103.722 -3.23569 -1.14708 0
M  V30 1011 C 102.808 -4.21734 -0.447383 0
M  V30 1012 N 103.199 -5.03257 0.506535 0
M  V30 1013 C 101.497 -4.40536 -0.695966 0
M  V30 1014 C 102.198 -5.74426 0.917068 0
M  V30 1015 N 101.174 -5.42966 0.26253 0
M  V30 1016 H 104.976 -2.87965 0.587672 0
M  V30 1017 H 102.49 -1.56803 0.422697 0
M  V30 1018 H 104.487 -3.8089 -1.69495 0
M  V30 1019 H 103.147 -2.64702 -1.8805 0
M  V30 1020 H 104.158 -5.10319 0.882899 0
M  V30 1021 H 100.835 -3.92802 -1.41467 0
M  V30 1022 H 102.225 -6.4995 1.70338 0
M  V30 1023 N 104.945 -0.338344 -1.53925 0
M  V30 1024 C 106.175 0.260919 -2.04946 0
M  V30 1025 C 106.583 1.45174 -1.2133 0
M  V30 1026 O 105.926 1.82122 -0.240262 0
M  V30 1027 C 105.988 0.744596 -3.51704 0
M  V30 1028 C 105.652 -0.325883 -4.55837 0
M  V30 1029 C 106.649 -1.16687 -5.06636 0
M  V30 1030 C 104.334 -0.478317 -5.00017 0
M  V30 1031 C 106.328 -2.14588 -6.00192 0
M  V30 1032 C 104.015 -1.46073 -5.93385 0
M  V30 1033 C 105.013 -2.29297 -6.4336 0
M  V30 1034 O 104.701 -3.25867 -7.34892 0
M  V30 1035 H 104.433 0.0551207 -0.673749 0
M  V30 1036 H 106.987 -0.486984 -1.99544 0
M  V30 1037 H 105.217 1.54366 -3.54553 0
M  V30 1038 H 106.906 1.26383 -3.85723 0
M  V30 1039 H 107.672 -1.06016 -4.73271 0
M  V30 1040 H 103.551 0.159613 -4.60724 0
M  V30 1041 H 107.095 -2.79585 -6.39123 0
M  V30 1042 H 102.992 -1.56802 -6.26166 0
M  V30 1043 H 103.76 -3.21278 -7.5281 0
M  V30 1044 N 106.423 1.57458 -0.0668435 0
M  V30 1045 C 107.671 1.92919 0.602214 0
M  V30 1046 C 107.992 0.947215 1.70449 0
M  V30 1047 O 107.262 -0.00544117 1.95899 0
M  V30 1048 H 105.842 0.71217 0.22544 0
M  V30 1049 H 108.504 1.94508 -0.123535 0
M  V30 1050 H 107.6 2.94589 1.03073 0
M  V30 1051 N 107.901 -0.206675 1.56239 0
M  V30 1052 C 108.864 -1.23976 1.92776 0
M  V30 1053 C 109.864 -1.39041 0.807729 0
M  V30 1054 O 111.054 -1.37051 1.0753 0
M  V30 1055 C 108.186 -2.61112 2.19165 0
M  V30 1056 H 109.379 -0.927764 2.85189 0
M  V30 1057 H 106.932 -0.447718 1.4975 0
M  V30 1058 H 107.667 -2.97386 1.29352 0
M  V30 1059 H 107.452 -2.51552 3.00772 0
M  V30 1060 H 108.942 -3.35633 2.48476 0
M  V30 1061 N 109.379 -1.50304 -0.473955 0
M  V30 1062 C 110.604 -1.65175 -1.25427 0
M  V30 1063 C 111.029 -0.333673 -1.85117 0
M  V30 1064 O 110.387 0.702114 -1.67153 0
M  V30 1065 C 110.435 -2.74295 -2.34082 0
M  V30 1066 O 109.539 -2.35349 -3.38651 0
M  V30 1067 H 108.88 -0.551944 -0.369126 0
M  V30 1068 H 111.41 -1.96662 -0.564364 0
M  V30 1069 H 111.42 -2.97285 -2.79438 0
M  V30 1070 H 110.095 -3.69959 -1.90008 0
M  V30 1071 H 108.672 -2.22794 -2.99027 0
M  V30 1072 N 110.857 0.726932 -1.39834 0
M  V30 1073 C 112.082 1.52121 -1.40976 0
M  V30 1074 C 112.507 1.88098 -0.00826029 0
M  V30 1075 O 111.865 1.52479 0.980807 0
M  V30 1076 C 111.913 2.78021 -2.29644 0
M  V30 1077 O 111.017 3.74272 -1.73188 0
M  V30 1078 H 110.358 0.45908 -0.479731 0
M  V30 1079 H 112.888 0.896207 -1.83927 0
M  V30 1080 H 112.898 3.26671 -2.44438 0
M  V30 1081 H 111.573 2.51169 -3.31492 0
M  V30 1082 H 110.15 3.33073 -1.6768 0
M  V30 1083 N 112.336 1.25143 0.95797 0
M  V30 1084 C 113.576 1.10893 1.71703 0
M  V30 1085 C 113.94 -0.34478 1.88879 0
M  V30 1086 O 115.141 -0.609014 2.6181 0
M  V30 1087 C 113.412 1.83889 3.06463 0
M  V30 1088 S 114.971 1.85491 3.97666 0
M  V30 1089 H 111.789 0.396428 0.590226 0
M  V30 1090 H 114.391 1.58618 1.14283 0
M  V30 1091 H 113.095 2.88756 2.9163 0
M  V30 1092 H 112.626 1.36538 3.68946 0
M  V30 1093 H 114.641 0.929553 4.87415 0
M  V30 1094 N 113.814 -1.1601 1.06675 0
M  V30 1095 C 115.091 -1.82679 0.699114 0
M  V30 1096 C 115.471 -1.94559 -0.819137 0
M  V30 1097 O 114.819 -1.49169 -1.73092 0
M  V30 1098 C 115.029 -3.19445 1.40555 0
M  V30 1099 C 116.377 -3.95171 1.55323 0
M  V30 1100 O 117.401 -3.28976 1.36577 0
M  V30 1101 O 116.26 -5.13833 1.86112 0
M  V30 1102 H 113.354 -0.788954 0.247951 0
M  V30 1103 H 115.9 -1.23179 1.16726 0
M  V30 1104 H 114.672 -3.05856 2.44065 0
M  V30 1105 H 114.295 -3.86625 0.927733 0
M  V30 1106 N 115.292 -0.849877 -1.32721 0
M  V30 1107 C 116.54 -0.450032 -1.97026 0
M  V30 1108 C 116.861 0.996604 -1.67609 0
M  V30 1109 O 116.131 1.6958 -0.980786 0
M  V30 1110 H 114.711 -0.163426 -0.728904 0
M  V30 1111 H 117.373 -1.08526 -1.6189 0
M  V30 1112 H 116.469 -0.591146 -3.0645 0
M  V30 1113 N 116.77 1.45427 -0.607355 0
M  V30 1114 C 118.01 2.04128 -0.105458 0
M  V30 1115 C 118.374 1.46555 1.24039 0
M  V30 1116 O 119.575 1.96608 1.833 0
M  V30 1117 C 117.846 3.57338 -0.0665324 0
M  V30 1118 S 119.405 4.37201 0.374207 0
M  V30 1119 H 116.223 0.709278 -0.0494575 0
M  V30 1120 H 118.825 1.78139 -0.805404 0
M  V30 1121 H 117.529 3.96752 -1.04957 0
M  V30 1122 H 117.06 3.87902 0.655415 0
M  V30 1123 H 119.075 4.6888 1.62377 0
M  V30 1124 N 118.248 0.346503 1.53744 0
M  V30 1125 C 119.195 -0.508914 2.25119 0
M  V30 1126 C 120.165 -1.09315 1.25058 0
M  V30 1127 O 121.35 -1.12921 1.53797 0
M  V30 1128 C 118.49 -1.65246 3.02965 0
M  V30 1129 C 117.603 -1.09525 4.17886 0
M  V30 1130 C 116.738 -2.20634 4.83212 0
M  V30 1131 C 115.777 -1.62279 5.90196 0
M  V30 1132 N 114.914 -2.67143 6.49291 0
M  V30 1133 H 119.754 0.106283 2.9781 0
M  V30 1134 H 117.291 0.0642227 1.4696 0
M  V30 1135 H 119.249 -2.32574 3.4636 0
M  V30 1136 H 117.879 -2.2386 2.32565 0
M  V30 1137 H 116.931 -0.312818 3.79112 0
M  V30 1138 H 118.243 -0.628444 4.94825 0
M  V30 1139 H 117.397 -2.95821 5.29693 0
M  V30 1140 H 116.136 -2.70659 4.05703 0
M  V30 1141 H 115.141 -0.855989 5.43096 0
M  V30 1142 H 116.366 -1.13102 6.69615 0
M  V30 1143 H 114.312 -3.16417 5.74645 0
M  V30 1144 H 114.229 -2.25093 7.21713 0
M  V30 1145 H 115.497 -3.4209 7.00425 0
M  V30 1146 N 119.726 -1.57421 0.075193 0
M  V30 1147 C 120.974 -1.93236 -0.591974 0
M  V30 1148 C 121.295 -0.956241 -1.69944 0
M  V30 1149 O 120.565 -0.00494792 -1.95899 0
M  V30 1150 H 119.145 -0.713355 -0.22166 0
M  V30 1151 H 121.807 -1.9444 0.133848 0
M  V30 1152 H 120.903 -2.95131 -1.01509 0
M  V30 1153 N 121.204 0.198386 -1.56346 0
M  V30 1154 C 122.451 0.919286 -1.80431 0
M  V30 1155 C 122.779 1.83393 -0.647866 0
M  V30 1156 O 122.034 1.92236 0.366556 0
M  V30 1157 C 122.333 1.77031 -3.10475 0
M  V30 1158 C 121.999 1.00693 -4.39513 0
M  V30 1159 C 120.661 0.796145 -4.74568 0
M  V30 1160 C 123.013 0.469559 -5.19081 0
M  V30 1161 C 120.341 0.0364588 -5.86689 0
M  V30 1162 C 122.693 -0.2769 -6.31994 0
M  V30 1163 C 121.357 -0.49873 -6.65634 0
M  V30 1164 H 120.627 0.336391 -0.660244 0
M  V30 1165 H 123.274 0.185872 -1.90596 0
M  V30 1166 H 121.579 2.5723 -2.95533 0
M  V30 1167 H 123.276 2.33065 -3.26315 0
M  V30 1168 H 119.866 1.18122 -4.12001 0
M  V30 1169 H 124.05 0.619816 -4.92414 0
M  V30 1170 H 119.306 -0.145412 -6.11227 0
M  V30 1171 H 123.48 -0.700684 -6.92866 0
M  V30 1172 H 121.107 -1.0893 -7.52355 0
M  V30 1173 N 122.682 1.50554 0.465978 0
M  V30 1174 C 123.929 1.61798 1.21768 0
M  V30 1175 C 124.257 0.320696 1.91838 0
M  V30 1176 O 123.512 -0.693724 1.82992 0
M  V30 1177 C 123.811 2.75152 2.28093 0
M  V30 1178 C 123.477 4.15454 1.75239 0
M  V30 1179 C 122.139 4.53628 1.60546 0
M  V30 1180 C 124.491 5.03121 1.36083 0
M  V30 1181 C 121.819 5.77204 1.05128 0
M  V30 1182 C 124.171 6.27249 0.821056 0
M  V30 1183 C 122.835 6.64221 0.660795 0
M  V30 1184 H 122.105 0.592063 0.445582 0
M  V30 1185 H 124.752 1.84503 0.512927 0
M  V30 1186 H 123.057 2.46556 3.04496 0
M  V30 1187 H 124.754 2.81055 2.86023 0
M  V30 1188 H 121.344 3.85341 1.87644 0
M  V30 1189 H 125.528 4.74257 1.46267 0
M  V30 1190 H 120.784 6.0452 0.91462 0
M  V30 1191 H 124.958 6.94537 0.509018 0
M  V30 1192 H 122.585 7.59854 0.229226 0
M  V30 1193 N 124.16 -0.719506 1.40217 0
M  V30 1194 C 125.576 -1.02707 1.22161 0
M  V30 1195 C 125.776 -2.0128 0.0940557 0
M  V30 1196 O 124.832 -2.46452 -0.549318 0
M  V30 1197 C 126.145 -1.57454 2.56181 0
M  V30 1198 C 127.693 -1.69458 2.63159 0
M  V30 1199 C 128.168 -2.27611 3.97438 0
M  V30 1200 N 129.659 -2.35002 3.99159 0
M  V30 1201 C 130.394 -2.80972 4.99842 0
M  V30 1202 N 129.89 -3.26723 6.10921 0
M  V30 1203 N 131.683 -2.80321 4.87213 0
M  V30 1204 H 123.834 -0.0660492 2.12297 0
M  V30 1205 H 126.097 -0.0919077 0.943534 0
M  V30 1206 H 125.803 -0.924873 3.39321 0
M  V30 1207 H 125.677 -2.56036 2.76993 0
M  V30 1208 H 128.064 -2.33543 1.80393 0
M  V30 1209 H 128.145 -0.694867 2.46181 0
M  V30 1210 H 127.789 -1.6415 4.80643 0
M  V30 1211 H 127.719 -3.2829 4.11744 0
M  V30 1212 H 130.21 -2.02685 3.18947 0
M  V30 1213 H 130.523 -3.60355 6.8364 0
M  V30 1214 H 128.868 -3.24692 6.14492 0
M  V30 1215 H 132.059 -2.43912 3.9953 0
M  V30 1216 H 132.232 -3.15831 5.65822 0
M  V30 1217 N 125.638 -1.25649 -0.95132 0
M  V30 1218 C 127.054 -1.02542 -1.223 0
M  V30 1219 C 127.254 0.255715 -1.99871 0
M  V30 1220 O 126.31 0.967558 -2.33226 0
M  V30 1221 C 127.623 -2.25065 -1.99415 0
M  V30 1222 C 129.171 -2.29861 -2.12446 0
M  V30 1223 C 129.646 -3.52048 -2.92961 0
M  V30 1224 N 131.137 -3.52465 -3.00538 0
M  V30 1225 C 131.872 -4.43672 -3.63239 0
M  V30 1226 N 131.368 -5.45157 -4.27523 0
M  V30 1227 N 133.161 -4.31346 -3.60412 0
M  V30 1228 H 125.312 -2.07951 -0.432471 0
M  V30 1229 H 127.575 -0.91339 -0.253816 0
M  V30 1230 H 127.281 -3.18194 -1.49817 0
M  V30 1231 H 127.155 -2.28502 -3.00111 0
M  V30 1232 H 129.542 -1.37252 -2.61239 0
M  V30 1233 H 129.623 -2.3044 -1.11044 0
M  V30 1234 H 129.267 -4.44981 -2.44856 0
M  V30 1235 H 129.197 -3.48715 -3.94596 0
M  V30 1236 H 131.688 -2.79056 -2.54826 0
M  V30 1237 H 132.001 -6.10958 -4.73234 0
M  V30 1238 H 130.346 -5.49025 -4.26141 0
M  V30 1239 H 133.537 -3.51288 -3.09377 0
M  V30 1240 H 133.71 -5.02624 -4.0899 0
M  V30 1241 N 127.117 1.15442 -1.07289 0
M  V30 1242 C 128.342 1.90638 -0.816828 0
M  V30 1243 C 128.767 1.77445 0.624083 0
M  V30 1244 O 128.125 1.10671 1.43602 0
M  V30 1245 C 128.173 3.39008 -1.22906 0
M  V30 1246 O 127.277 4.10701 -0.373975 0
M  V30 1247 H 126.618 0.593555 -0.297638 0
M  V30 1248 H 129.148 1.46198 -1.43134 0
M  V30 1249 H 129.158 3.89801 -1.20497 0
M  V30 1250 H 127.833 3.47929 -2.27856 0
M  V30 1251 H 126.41 3.70046 -0.460499 0
M  V30 1252 N 128.595 0.856903 1.32268 0
M  V30 1253 C 129.841 0.462069 1.97466 0
M  V30 1254 C 130.174 -0.980298 1.67642 0
M  V30 1255 O 129.449 -1.68824 0.965858 0
M  V30 1256 C 129.732 0.704336 3.53145 0
M  V30 1257 C 129.585 2.19529 3.9259 0
M  V30 1258 C 130.904 0.1622 4.39801 0
M  V30 1259 H 128.023 0.169357 0.717278 0
M  V30 1260 H 130.665 1.07574 1.56614 0
M  V30 1261 H 128.815 0.181999 3.88073 0
M  V30 1262 H 130.487 2.78387 3.67829 0
M  V30 1263 H 128.73 2.67292 3.41668 0
M  V30 1264 H 129.401 2.31549 5.01088 0
M  V30 1265 H 131.877 0.608905 4.11621 0
M  V30 1266 H 130.753 0.361265 5.4771 0
M  V30 1267 H 131.014 -0.935158 4.32096 0
M  V30 1268 N 130.073 -1.45103 0.615059 0
M  V30 1269 C 131.489 -1.57137 0.279322 0
M  V30 1270 C 131.689 -1.60523 -1.21797 0
M  V30 1271 O 130.745 -1.53956 -2.00134 0
M  V30 1272 C 132.058 -2.85062 0.957083 0
M  V30 1273 C 133.606 -2.98749 0.933706 0
M  V30 1274 C 134.081 -4.29455 1.59162 0
M  V30 1275 N 135.572 -4.36231 1.55746 0
M  V30 1276 C 136.307 -5.36051 2.0356 0
M  V30 1277 N 135.803 -6.42367 2.59494 0
M  V30 1278 N 137.596 -5.27456 1.94284 0
M  V30 1279 H 129.747 -1.41148 1.58717 0
M  V30 1280 H 132.01 -0.675331 0.665306 0
M  V30 1281 H 131.716 -2.88488 2.01166 0
M  V30 1282 H 131.59 -3.7407 0.48494 0
M  V30 1283 H 133.977 -2.94886 -0.112347 0
M  V30 1284 H 134.058 -2.11132 1.44419 0
M  V30 1285 H 133.702 -4.34077 2.63704 0
M  V30 1286 H 133.632 -5.15901 1.0561 0
M  V30 1287 H 136.123 -3.60011 1.14893 0
M  V30 1288 H 136.436 -7.14793 2.93752 0
M  V30 1289 H 134.781 -6.43097 2.63537 0
M  V30 1290 H 137.972 -4.43308 1.5032 0
M  V30 1291 H 138.145 -6.05099 2.3186 0
M  V30 1292 N 131.551 -0.354651 -1.53558 0
M  V30 1293 C 132.498 0.496968 -2.25386 0
M  V30 1294 C 133.468 1.0865 -1.25636 0
M  V30 1295 O 134.653 1.12104 -1.54394 0
M  V30 1296 C 131.793 1.63637 -3.03837 0
M  V30 1297 C 130.906 1.07307 -4.18461 0
M  V30 1298 C 130.041 2.18068 -4.84376 0
M  V30 1299 C 129.08 1.59147 -5.91049 0
M  V30 1300 N 128.217 2.63695 -6.50699 0
M  V30 1301 H 133.057 -0.122075 -2.9775 0
M  V30 1302 H 130.594 -0.0720154 -1.46924 0
M  V30 1303 H 132.552 2.30734 -3.47589 0
M  V30 1304 H 131.182 2.22623 -2.33749 0
M  V30 1305 H 130.234 0.292708 -3.79272 0
M  V30 1306 H 131.546 0.602193 -4.95152 0
M  V30 1307 H 130.7 2.93007 -5.31255 0
M  V30 1308 H 129.439 2.68504 -4.07133 0
M  V30 1309 H 128.444 0.827175 -5.43542 0
M  V30 1310 H 129.669 1.09549 -6.70206 0
M  V30 1311 H 127.615 3.13365 -5.76315 0
M  V30 1312 H 127.532 2.21263 -7.22896 0
M  V30 1313 H 128.8 3.3837 -7.02229 0
M  V30 1314 N 133.029 1.57378 -0.0835403 0
M  V30 1315 C 133.977 2.14602 0.89714 0
M  V30 1316 C 134.971 1.08589 1.30018 0
M  V30 1317 O 136.177 1.26952 1.27606 0
M  V30 1318 H 132.552 0.686346 0.3073 0
M  V30 1319 H 134.523 2.95845 0.38969 0
M  V30 1320 C 133.272 2.73188 2.15089 0
M  V30 1321 H 132.595 3.54442 1.84962 0
M  V30 1322 H 134.035 3.1681 2.81793 0
M  V30 1323 C 132.494 1.68517 2.91725 0
M  V30 1324 O 133.024 1.11718 3.85852 0
M  V30 1325 N 131.23 1.39277 2.55049 0
M  V30 1326 H 130.777 1.85655 1.78577 0
M  V30 1327 H 130.735 0.694791 3.06627 0
M  V30 1328 N 134.507 -0.190092 1.56449 0
M  V30 1329 C 135.457 -1.23977 1.91347 0
M  V30 1330 C 136.441 -1.40747 0.779693 0
M  V30 1331 O 137.633 -1.43033 1.04262 0
M  V30 1332 C 134.762 -2.58347 2.26079 0
M  V30 1333 C 133.848 -2.4535 3.45925 0
M  V30 1334 N 134.239 -2.02039 4.63696 0
M  V30 1335 C 132.537 -2.76229 3.50162 0
M  V30 1336 C 133.238 -2.01053 5.4585 0
M  V30 1337 N 132.214 -2.42747 4.8639 0
M  V30 1338 H 136.016 -0.896318 2.79899 0
M  V30 1339 H 133.53 -0.398496 1.57435 0
M  V30 1340 H 135.527 -3.34173 2.49267 0
M  V30 1341 H 134.187 -2.93512 1.38856 0
M  V30 1342 H 135.198 -1.7267 4.88268 0
M  V30 1343 H 131.875 -3.15556 2.73369 0
M  V30 1344 H 133.265 -1.69426 6.50188 0
M  V30 1345 N 135.985 -1.50799 -0.457987 0
M  V30 1346 C 136.918 -1.65273 -1.57353 0
M  V30 1347 C 137.896 -0.500578 -1.54703 0
M  V30 1348 O 139.08 -0.721781 -1.74134 0
M  V30 1349 C 136.207 -1.64737 -2.95938 0
M  V30 1350 C 135.253 -2.8567 -3.16693 0
M  V30 1351 S 136.086 -4.46791 -2.95191 0
M  V30 1352 C 137.242 -4.48968 -4.36095 0
M  V30 1353 H 137.475 -2.59633 -1.44838 0
M  V30 1354 H 135.008 -1.40225 -0.64625 0
M  V30 1355 H 136.966 -1.65112 -3.7583 0
M  V30 1356 H 135.627 -0.715899 -3.05833 0
M  V30 1357 H 134.82 -2.81637 -4.17967 0
M  V30 1358 H 134.422 -2.8293 -2.44594 0
M  V30 1359 H 136.714 -4.23337 -5.28954 0
M  V30 1360 H 137.657 -5.50664 -4.45168 0
M  V30 1361 H 138.065 -3.78522 -4.18786 0
M  V30 1362 N 137.463 0.71206 -1.40597 0
M  V30 1363 C 138.693 1.49894 -1.42181 0
M  V30 1364 C 139.101 1.89189 -0.0208078 0
M  V30 1365 O 138.444 1.56223 0.966436 0
M  V30 1366 C 138.506 2.80215 -2.25211 0
M  V30 1367 C 138.17 2.63221 -3.73582 0
M  V30 1368 C 139.167 2.30249 -4.66135 0
M  V30 1369 C 136.852 2.79376 -4.17438 0
M  V30 1370 C 138.846 2.13645 -6.00529 0
M  V30 1371 C 136.533 2.6239 -5.51901 0
M  V30 1372 C 137.531 2.29573 -6.43262 0
M  V30 1373 O 137.219 2.12719 -7.75246 0
M  V30 1374 H 136.951 0.469031 -0.486812 0
M  V30 1375 H 139.505 0.88564 -1.85326 0
M  V30 1376 H 137.735 3.4389 -1.76852 0
M  V30 1377 H 139.424 3.41947 -2.18694 0
M  V30 1378 H 140.19 2.17398 -4.33547 0
M  V30 1379 H 136.069 3.03906 -3.46644 0
M  V30 1380 H 139.613 1.87953 -6.71803 0
M  V30 1381 H 135.51 2.74826 -5.84073 0
M  V30 1382 H 136.278 2.27611 -7.86216 0
M  V30 1383 N 138.941 1.26152 0.944643 0
M  V30 1384 C 140.166 1.14363 1.7302 0
M  V30 1385 C 140.591 -0.29772 1.85729 0
M  V30 1386 O 139.949 -1.2157 1.34501 0
M  V30 1387 C 139.997 1.81378 3.11664 0
M  V30 1388 O 139.101 1.10022 3.97453 0
M  V30 1389 H 138.442 0.398694 0.53098 0
M  V30 1390 H 140.972 1.66906 1.18337 0
M  V30 1391 H 140.982 1.88064 3.62072 0
M  V30 1392 H 139.657 2.86237 3.0173 0
M  V30 1393 H 138.234 1.11287 3.55907 0
M  V30 1394 N 140.419 -1.14872 1.07899 0
M  V30 1395 C 141.659 -1.8745 0.814965 0
M  V30 1396 C 142.023 -1.80758 -0.64733 0
M  V30 1397 O 143.224 -2.48422 -1.02664 0
M  V30 1398 C 141.495 -3.32286 1.31607 0
M  V30 1399 S 143.054 -4.22537 1.18357 0
M  V30 1400 H 139.872 -0.646833 0.295174 0
M  V30 1401 H 142.474 -1.38555 1.37923 0
M  V30 1402 H 141.178 -3.34703 2.37491 0
M  V30 1403 H 140.709 -3.86238 0.747261 0
M  V30 1404 H 142.724 -4.96044 0.124586 0
M  V30 1405 N 141.898 -0.863906 -1.31812 0
M  V30 1406 C 143.314 -0.555004 -1.49639 0
M  V30 1407 C 143.514 0.912266 -1.79666 0
M  V30 1408 O 142.57 1.69479 -1.87171 0
M  V30 1409 C 143.883 -1.44998 -2.63431 0
M  V30 1410 C 145.431 -1.45138 -2.77316 0
M  V30 1411 C 145.906 -2.33179 -3.94197 0
M  V30 1412 N 147.397 -2.31025 -4.01474 0
M  V30 1413 C 148.132 -2.95871 -4.9117 0
M  V30 1414 N 147.628 -3.69863 -5.8581 0
M  V30 1415 N 149.421 -2.85211 -4.84367 0
M  V30 1416 H 141.572 -1.81339 -1.10589 0
M  V30 1417 H 143.835 -0.77505 -0.545895 0
M  V30 1418 H 143.541 -2.49377 -2.48 0
M  V30 1419 H 143.415 -1.14409 -3.59431 0
M  V30 1420 H 145.802 -0.415201 -2.92164 0
M  V30 1421 H 145.883 -1.79747 -1.82001 0
M  V30 1422 H 145.527 -3.3687 -3.80107 0
M  V30 1423 H 145.457 -1.95897 -4.88807 0
M  V30 1424 H 147.948 -1.77238 -3.33759 0
M  V30 1425 H 148.261 -4.16486 -6.50968 0
M  V30 1426 H 146.606 -3.73971 -5.85808 0
M  V30 1427 H 149.797 -2.26948 -4.09405 0
M  V30 1428 H 149.97 -3.36027 -5.54066 0
M  V30 1429 N 143.376 1.44774 -0.622745 0
M  V30 1430 C 144.623 2.02121 -0.1239 0
M  V30 1431 C 144.951 1.48915 1.25118 0
M  V30 1432 O 144.206 0.660045 1.84233 0
M  V30 1433 C 144.505 3.57364 -0.0508323 0
M  V30 1434 C 144.171 4.29787 -1.36358 0
M  V30 1435 C 142.833 4.4929 -1.72314 0
M  V30 1436 C 145.185 4.71062 -2.23048 0
M  V30 1437 C 142.513 5.07325 -2.94682 0
M  V30 1438 C 144.865 5.30452 -3.44679 0
M  V30 1439 C 143.529 5.48175 -3.80868 0
M  V30 1440 H 142.799 0.739612 -0.0453381 0
M  V30 1441 H 145.446 1.73648 -0.807389 0
M  V30 1442 H 143.751 3.85202 0.715991 0
M  V30 1443 H 145.448 3.99456 0.351533 0
M  V30 1444 H 142.038 4.14932 -1.07375 0
M  V30 1445 H 146.222 4.55715 -1.96565 0
M  V30 1446 H 141.478 5.19235 -3.22809 0
M  V30 1447 H 145.652 5.61385 -4.12092 0
M  V30 1448 H 143.279 5.92912 -4.75773 0
M  V30 1449 N 144.854 0.36279 1.53368 0
M  V30 1450 C 146.079 -0.231226 2.06107 0
M  V30 1451 C 146.504 -1.419 1.23474 0
M  V30 1452 O 145.862 -1.79524 0.253128 0
M  V30 1453 C 145.91 -0.605523 3.5548 0
M  V30 1454 O 145.014 -1.70312 3.7559 0
M  V30 1455 H 144.355 -0.034327 0.663112 0
M  V30 1456 H 146.885 0.522584 1.97814 0
M  V30 1457 H 146.895 -0.877314 3.98456 0
M  V30 1458 H 145.57 0.263004 4.15068 0
M  V30 1459 H 144.147 -1.4271 3.44512 0
M  V30 1460 N 146.332 -1.57332 0.0918853 0
M  V30 1461 C 147.748 -1.57389 -0.264766 0
M  V30 1462 C 147.948 -1.10281 -1.68643 0
M  V30 1463 O 147.004 -0.777801 -2.40222 0
M  V30 1464 C 148.317 -3.00648 -0.0561195 0
M  V30 1465 C 149.865 -3.12754 -0.124116 0
M  V30 1466 C 150.34 -4.57965 0.0564972 0
M  V30 1467 N 151.831 -4.632 0.00155611 0
M  V30 1468 C 152.566 -5.73281 0.116598 0
M  V30 1469 N 152.062 -6.92208 0.286294 0
M  V30 1470 N 153.855 -5.6207 0.0580973 0
M  V30 1471 H 146.006 -1.86262 1.02079 0
M  V30 1472 H 148.269 -0.859579 0.399786 0
M  V30 1473 H 147.975 -3.393 0.925669 0
M  V30 1474 H 147.849 -3.68623 -0.799823 0
M  V30 1475 H 150.236 -2.73976 -1.09641 0
M  V30 1476 H 150.317 -2.47377 0.651024 0
M  V30 1477 H 149.961 -4.97436 1.02564 0
M  V30 1478 H 149.891 -5.21399 -0.738297 0
M  V30 1479 H 152.382 -3.77686 -0.127192 0
M  V30 1480 H 152.695 -7.71934 0.365676 0
M  V30 1481 H 151.04 -6.94254 0.32192 0
M  V30 1482 H 154.231 -4.68043 -0.0733204 0
M  V30 1483 H 154.404 -6.47824 0.151203 0
M  V30 1484 N 147.81 0.181792 -1.56548 0
M  V30 1485 C 148.742 1.24956 -1.92142 0
M  V30 1486 C 149.755 1.41022 -0.813422 0
M  V30 1487 O 150.944 1.41212 -1.09186 0
M  V30 1488 C 148.044 2.61981 -2.14987 0
M  V30 1489 C 147.217 2.6735 -3.46183 0
M  V30 1490 C 146.276 3.85664 -3.5798 0
M  V30 1491 O 145.302 3.72148 -4.30691 0
M  V30 1492 N 146.504 5.01683 -2.92053 0
M  V30 1493 H 149.269 0.947329 -2.84334 0
M  V30 1494 H 146.83 0.371629 -1.57577 0
M  V30 1495 H 148.822 3.3958 -2.20154 0
M  V30 1496 H 147.392 2.84637 -1.2923 0
M  V30 1497 H 146.612 1.75925 -3.52766 0
M  V30 1498 H 147.9 2.67939 -4.32534 0
M  V30 1499 H 147.298 5.15564 -2.32832 0
M  V30 1500 H 145.855 5.77181 -3.0283 0
M  V30 1501 N 149.288 1.51039 0.449983 0
M  V30 1502 C 150.528 1.64732 1.21007 0
M  V30 1503 C 150.892 0.349865 1.88785 0
M  V30 1504 O 152.093 0.362431 2.66345 0
M  V30 1505 C 150.364 2.80902 2.20973 0
M  V30 1506 S 151.923 3.14851 3.05638 0
M  V30 1507 H 148.741 0.5805 0.410538 0
M  V30 1508 H 151.343 1.88901 0.503634 0
M  V30 1509 H 150.047 3.73627 1.69796 0
M  V30 1510 H 149.578 2.58882 2.96215 0
M  V30 1511 H 151.593 2.60306 4.22439 0
M  V30 1512 N 150.766 -0.704594 1.40972 0
M  V30 1513 C 152.012 -1.46675 1.40051 0
M  V30 1514 C 152.345 -1.94199 0.00641102 0
M  V30 1515 O 151.62 -1.68916 -0.964235 0
M  V30 1516 C 151.903 -2.68505 2.39952 0
M  V30 1517 C 151.756 -2.26805 3.88432 0
M  V30 1518 C 153.075 -3.70686 2.37233 0
M  V30 1519 H 150.194 -0.532015 0.510028 0
M  V30 1520 H 152.836 -0.803255 1.72185 0
M  V30 1521 H 150.986 -3.25114 2.1268 0
M  V30 1522 H 152.658 -1.75592 4.26574 0
M  V30 1523 H 150.901 -1.58685 4.03734 0
M  V30 1524 H 151.572 -3.14181 4.53866 0
M  V30 1525 H 154.048 -3.23731 2.61415 0
M  V30 1526 H 152.924 -4.53553 3.09162 0
M  V30 1527 H 153.185 -4.19754 1.38777 0
M  V30 1528 N 152.244 -1.26651 -0.937939 0
M  V30 1529 C 153.49 -1.12553 -1.687 0
M  V30 1530 C 153.823 0.329782 -1.91379 0
M  V30 1531 O 153.098 1.24202 -1.4968 0
M  V30 1532 C 153.381 -1.89862 -3.05981 0
M  V30 1533 C 153.234 -3.43318 -2.90607 0
M  V30 1534 C 154.553 -1.69499 -4.0615 0
M  V30 1535 H 151.672 -0.410257 -0.612257 0
M  V30 1536 H 154.314 -1.55685 -1.08913 0
M  V30 1537 H 152.464 -1.53204 -3.57017 0
M  V30 1538 H 154.136 -3.89747 -2.46769 0
M  V30 1539 H 152.379 -3.70179 -2.26164 0
M  V30 1540 H 153.05 -3.92642 -3.8799 0
M  V30 1541 H 155.526 -2.01442 -3.64088 0
M  V30 1542 H 154.402 -2.26002 -5.00214 0
M  V30 1543 H 154.663 -0.640365 -4.37438 0
M  V30 1544 N 153.722 1.14298 -1.08507 0
M  V30 1545 C 154.999 1.81544 -0.728088 0
M  V30 1546 C 155.379 1.95838 0.78808 0
M  V30 1547 O 154.727 1.51904 1.70697 0
M  V30 1548 C 154.937 3.17169 -1.45619 0
M  V30 1549 C 156.285 3.9265 -1.61591 0
M  V30 1550 O 157.309 3.26762 -1.41793 0
M  V30 1551 O 156.168 5.10807 -1.94263 0
M  V30 1552 H 153.262 0.78491 -0.260471 0
M  V30 1553 H 155.808 1.21307 -1.18671 0
M  V30 1554 H 154.58 3.01934 -2.489 0
M  V30 1555 H 154.203 3.851 -0.989124 0
M  V30 1556 N 155.201 0.870884 1.31352 0
M  V30 1557 C 156.148 0.325425 2.28494 0
M  V30 1558 C 157.118 -0.576615 1.5577 0
M  V30 1559 O 158.303 -0.508059 1.83911 0
M  V30 1560 C 155.443 -0.466283 3.41935 0
M  V30 1561 C 154.556 0.463378 4.29508 0
M  V30 1562 C 153.691 -0.342544 5.30094 0
M  V30 1563 C 152.73 0.583486 6.09313 0
M  V30 1564 N 151.867 -0.186244 7.01853 0
M  V30 1565 H 156.707 1.15901 2.74538 0
M  V30 1566 H 154.244 0.58294 1.35056 0
M  V30 1567 H 156.202 -0.941085 4.06447 0
M  V30 1568 H 154.832 -1.26456 2.97 0
M  V30 1569 H 153.884 1.05663 3.65431 0
M  V30 1570 H 155.196 1.1734 4.84802 0
M  V30 1571 H 154.35 -0.879816 6.00287 0
M  V30 1572 H 153.089 -1.08585 4.75458 0
M  V30 1573 H 152.094 1.13251 5.3801 0
M  V30 1574 H 153.319 1.32566 6.66035 0
M  V30 1575 H 151.265 -0.912348 6.49625 0
M  V30 1576 H 151.182 0.464422 7.54572 0
M  V30 1577 H 152.45 -0.704716 7.76308 0
M  V30 1578 N 156.679 -1.44442 0.630414 0
M  V30 1579 C 157.956 -1.9549 0.0655657 0
M  V30 1580 C 158.336 -1.5724 -1.40851 0
M  V30 1581 O 157.684 -0.846116 -2.12257 0
M  V30 1582 C 157.894 -3.47812 0.287691 0
M  V30 1583 C 159.242 -4.24216 0.180513 0
M  V30 1584 O 160.266 -3.55526 0.219019 0
M  V30 1585 O 159.125 -5.46434 0.0848493 0
M  V30 1586 H 156.219 -0.826688 -0.0227177 0
M  V30 1587 H 158.765 -1.54496 0.702068 0
M  V30 1588 H 157.537 -3.687 1.31056 0
M  V30 1589 H 157.16 -3.95751 -0.382984 0
M  V30 1590 N 158.157 -0.370918 -1.53173 0
M  V30 1591 C 159.104 0.473035 -2.259 0
M  V30 1592 C 160.074 1.07311 -1.26781 0
M  V30 1593 O 161.259 1.1046 -1.55574 0
M  V30 1594 C 158.399 1.60405 -3.05556 0
M  V30 1595 C 157.512 1.02863 -4.19575 0
M  V30 1596 C 156.647 2.12918 -4.86661 0
M  V30 1597 C 155.686 1.52869 -5.92704 0
M  V30 1598 N 154.823 2.56779 -6.53459 0
M  V30 1599 H 159.663 -0.153649 -2.97604 0
M  V30 1600 H 157.2 -0.0875946 -1.46839 0
M  V30 1601 H 159.158 2.27034 -3.50016 0
M  V30 1602 H 157.788 2.20131 -2.36097 0
M  V30 1603 H 156.84 0.252465 -3.79561 0
M  V30 1604 H 158.152 0.549642 -4.95762 0
M  V30 1605 H 157.306 2.87356 -5.34333 0
M  V30 1606 H 156.045 2.6417 -4.09958 0
M  V30 1607 H 155.05 0.769479 -5.44389 0
M  V30 1608 H 156.275 1.02435 -6.7133 0
M  V30 1609 H 154.221 3.07235 -5.79606 0
M  V30 1610 H 154.138 2.13583 -7.25202 0
M  V30 1611 H 155.406 3.30903 -7.05779 0
M  V30 1612 N 159.635 1.57281 -0.100228 0
M  V30 1613 C 161.051 1.57527 0.256416 0
M  V30 1614 C 161.251 1.11173 1.68056 0
M  V30 1615 O 160.307 0.79053 2.39806 0
M  V30 1616 C 161.62 3.00673 0.0401747 0
M  V30 1617 C 163.168 3.12815 0.107528 0
M  V30 1618 C 163.643 4.57929 -0.0807834 0
M  V30 1619 N 165.134 4.63193 -0.0261207 0
M  V30 1620 C 165.869 5.73212 -0.146999 0
M  V30 1621 N 165.365 6.92047 -0.322999 0
M  V30 1622 N 167.158 5.62031 -0.0879044 0
M  V30 1623 H 159.309 1.85718 -1.03065 0
M  V30 1624 H 161.572 0.857446 -0.404339 0
M  V30 1625 H 161.278 3.38804 -0.943649 0
M  V30 1626 H 161.152 3.69042 0.780262 0
M  V30 1627 H 163.539 2.74554 1.08186 0
M  V30 1628 H 163.62 2.47028 -0.664134 0
M  V30 1629 H 163.264 4.96886 -1.05201 0
M  V30 1630 H 163.194 5.21783 0.710635 0
M  V30 1631 H 165.685 3.77748 0.107161 0
M  V30 1632 H 165.998 7.7173 -0.406608 0
M  V30 1633 H 164.343 6.94074 -0.358733 0
M  V30 1634 H 167.534 4.68075 0.048498 0
M  V30 1635 H 167.707 6.47734 -0.185557 0
M  V30 1636 N 161.113 -0.173488 1.56642 0
M  V30 1637 C 162.061 -1.23417 1.97157 0
M  V30 1638 C 163.055 -1.45946 0.860013 0
M  V30 1639 O 164.261 -1.46551 1.04512 0
M  V30 1640 H 160.636 -0.414818 0.62724 0
M  V30 1641 H 162.607 -0.865582 2.8557 0
M  V30 1642 C 161.356 -2.5665 2.34576 0
M  V30 1643 H 160.679 -2.40137 3.19647 0
M  V30 1644 H 162.119 -3.2956 2.6677 0
M  V30 1645 C 160.578 -3.15245 1.18836 0
M  V30 1646 O 161.108 -3.98883 0.474869 0
M  V30 1647 N 159.314 -2.74303 0.959497 0
M  V30 1648 H 158.861 -2.0639 1.54146 0
M  V30 1649 H 158.819 -3.13844 0.186932 0
M  V30 1650 N 162.591 -1.51276 -0.441967 0
M  V30 1651 C 163.523 -1.68444 -1.55433 0
M  V30 1652 C 164.536 -0.565187 -1.52674 0
M  V30 1653 O 165.725 -0.839356 -1.57534 0
M  V30 1654 C 162.825 -1.67966 -2.94348 0
M  V30 1655 C 161.998 -2.964 -3.21661 0
M  V30 1656 C 161.057 -2.88171 -4.40277 0
M  V30 1657 O 160.083 -3.62119 -4.39157 0
M  V30 1658 N 161.285 -2.03706 -5.43584 0
M  V30 1659 H 164.05 -2.644 -1.41112 0
M  V30 1660 H 161.611 -1.49104 -0.630838 0
M  V30 1661 H 163.603 -1.60035 -3.71713 0
M  V30 1662 H 162.173 -0.796225 -3.0229 0
M  V30 1663 H 161.393 -3.18234 -2.32638 0
M  V30 1664 H 162.681 -3.81427 -3.36736 0
M  V30 1665 H 162.079 -1.42995 -5.47329 0
M  V30 1666 H 160.636 -2.01658 -6.1982 0
M  V30 1667 N 164.069 0.697108 -1.41344 0
M  V30 1668 C 165.309 1.46939 -1.42085 0
M  V30 1669 C 165.673 1.9198 -0.0280397 0
M  V30 1670 O 166.874 2.6865 0.0897504 0
M  V30 1671 C 165.145 2.64985 -2.39828 0
M  V30 1672 S 166.704 3.54147 -2.59085 0
M  V30 1673 H 163.522 0.502146 -0.503359 0
M  V30 1674 H 166.124 0.813546 -1.77769 0
M  V30 1675 H 164.828 2.30098 -3.39828 0
M  V30 1676 H 164.359 3.35464 -2.05493 0
M  V30 1677 H 166.374 4.60137 -1.85711 0
M  V30 1678 N 165.547 1.27147 0.931209 0
M  V30 1679 C 166.963 1.04475 1.20653 0
M  V30 1680 C 167.163 -0.223885 2.00252 0
M  V30 1681 O 166.219 -0.930332 2.34736 0
M  V30 1682 C 167.532 2.28209 1.95809 0
M  V30 1683 C 169.08 2.33211 2.08762 0
M  V30 1684 C 169.555 3.56665 2.87323 0
M  V30 1685 N 171.046 3.57201 2.94892 0
M  V30 1686 C 171.781 4.49395 3.56134 0
M  V30 1687 N 171.277 5.51889 4.18796 0
M  V30 1688 N 173.07 4.37026 3.53504 0
M  V30 1689 H 165.221 2.08612 0.399333 0
M  V30 1690 H 167.484 0.917312 0.239253 0
M  V30 1691 H 167.19 3.20538 1.44736 0
M  V30 1692 H 167.064 2.33247 2.96438 0
M  V30 1693 H 169.451 1.41391 2.59023 0
M  V30 1694 H 169.532 2.32178 1.07364 0
M  V30 1695 H 169.176 4.4882 2.37746 0
M  V30 1696 H 169.106 3.54948 3.88998 0
M  V30 1697 H 171.597 2.83074 2.50354 0
M  V30 1698 H 171.91 6.18409 4.63454 0
M  V30 1699 H 170.255 5.55735 4.17353 0
M  V30 1700 H 173.446 3.56166 3.03749 0
M  V30 1701 H 173.619 5.09067 4.00942 0
M  V30 1702 N 167.025 -1.13721 1.09112 0
M  V30 1703 C 168.255 -1.88499 0.845671 0
M  V30 1704 C 168.663 -1.79218 -0.606432 0
M  V30 1705 O 168.006 -1.1544 -1.42896 0
M  V30 1706 C 168.068 -3.38954 1.19793 0
M  V30 1707 C 167.732 -3.72018 2.65428 0
M  V30 1708 C 168.729 -3.7153 3.63677 0
M  V30 1709 C 166.414 -4.01775 3.01467 0
M  V30 1710 C 168.408 -4.00336 4.95994 0
M  V30 1711 C 166.095 -4.30243 4.33975 0
M  V30 1712 C 167.093 -4.29508 5.31048 0
M  V30 1713 O 166.781 -4.5728 6.61173 0
M  V30 1714 H 166.513 -0.603702 0.304171 0
M  V30 1715 H 169.067 -1.44903 1.45576 0
M  V30 1716 H 167.297 -3.83039 0.530871 0
M  V30 1717 H 168.986 -3.95052 0.932146 0
M  V30 1718 H 169.752 -3.4862 3.37179 0
M  V30 1719 H 165.631 -4.01496 2.26544 0
M  V30 1720 H 169.175 -3.99678 5.71755 0
M  V30 1721 H 165.072 -4.52625 4.60219 0
M  V30 1722 H 165.84 -4.74964 6.66597 0
M  V30 1723 N 168.503 -0.877838 -1.30888 0
M  V30 1724 C 169.743 -0.499301 -1.98208 0
M  V30 1725 C 170.107 0.932649 -1.67826 0
M  V30 1726 O 171.308 1.41694 -2.28421 0
M  V30 1727 C 169.579 -0.758221 -3.49265 0
M  V30 1728 S 171.138 -0.480719 -4.36159 0
M  V30 1729 H 167.956 -0.186062 -0.686223 0
M  V30 1730 H 170.558 -1.13556 -1.59139 0
M  V30 1731 H 169.262 -1.79903 -3.68867 0
M  V30 1732 H 168.793 -0.109247 -3.93248 0
M  V30 1733 H 170.808 0.683698 -4.91467 0
M  V30 1734 N 169.982 1.44106 -0.638065 0
M  V30 1735 C 171.398 1.56672 -0.304286 0
M  V30 1736 C 171.598 1.6244 1.19228 0
M  V30 1737 O 170.654 1.57121 1.9766 0
M  V30 1738 C 171.967 2.83503 -1.00231 0
M  V30 1739 C 173.515 2.97226 -0.981116 0
M  V30 1740 C 173.99 4.26868 -1.65974 0
M  V30 1741 N 175.481 4.33698 -1.62666 0
M  V30 1742 C 176.216 5.32745 -2.12063 0
M  V30 1743 N 175.712 6.38157 -2.6968 0
M  V30 1744 N 177.505 5.24299 -2.02651 0
M  V30 1745 H 169.656 1.38605 -1.60942 0
M  V30 1746 H 171.919 0.664661 -0.675965 0
M  V30 1747 H 171.625 2.85251 -2.0573 0
M  V30 1748 H 171.499 3.73251 -0.54439 0
M  V30 1749 H 173.886 2.95027 0.0654188 0
M  V30 1750 H 173.967 2.08808 -1.47759 0
M  V30 1751 H 173.611 4.29826 -2.70576 0
M  V30 1752 H 173.541 5.14156 -1.13804 0
M  V30 1753 H 176.032 3.58138 -1.20606 0
M  V30 1754 H 176.345 7.10029 -3.05087 0
M  V30 1755 H 174.69 6.38823 -2.73734 0
M  V30 1756 H 177.881 4.4086 -1.57353 0
M  V30 1757 H 178.054 6.01334 -2.41457 0
M  V30 1758 N 171.46 0.379036 1.52974 0
M  V30 1759 C 172.39 -0.452706 2.29069 0
M  V30 1760 C 173.371 -1.07237 1.32039 0
M  V30 1761 O 174.556 -1.08708 1.60923 0
M  V30 1762 C 171.686 -1.5856 3.08992 0
M  V30 1763 C 170.64 -1.0925 4.13822 0
M  V30 1764 C 169.966 -2.31668 4.81907 0
M  V30 1765 C 171.266 -0.167702 5.22031 0
M  V30 1766 H 172.96 0.182181 2.98845 0
M  V30 1767 H 170.506 0.0890592 1.43724 0
M  V30 1768 H 172.459 -2.1742 3.6098 0
M  V30 1769 H 171.183 -2.24792 2.36931 0
M  V30 1770 H 169.842 -0.526494 3.628 0
M  V30 1771 H 169.49 -2.96386 4.06404 0
M  V30 1772 H 169.19 -1.9934 5.52754 0
M  V30 1773 H 170.714 -2.91189 5.36695 0
M  V30 1774 H 172.128 -0.664186 5.6944 0
M  V30 1775 H 170.525 0.0653265 6.00064 0
M  V30 1776 H 171.595 0.786347 4.78482 0
M  V30 1777 N 172.938 -1.57226 0.108567 0
M  V30 1778 C 173.885 -2.14756 -0.845481 0
M  V30 1779 C 174.855 -1.06971 -1.27068 0
M  V30 1780 O 176.04 -1.34827 -1.35005 0
M  V30 1781 C 173.18 -2.74298 -2.09415 0
M  V30 1782 C 172.293 -3.96358 -1.71826 0
M  V30 1783 C 171.428 -4.44021 -2.9158 0
M  V30 1784 C 170.467 -5.58637 -2.50181 0
M  V30 1785 N 169.604 -6.01091 -3.62814 0
M  V30 1786 H 174.444 -2.95961 -0.348035 0
M  V30 1787 H 171.981 -1.46226 -0.160106 0
M  V30 1788 H 173.939 -3.06945 -2.82561 0
M  V30 1789 H 172.569 -1.95801 -2.56636 0
M  V30 1790 H 171.621 -3.69939 -0.885947 0
M  V30 1791 H 172.933 -4.79504 -1.37394 0
M  V30 1792 H 172.087 -4.78522 -3.72963 0
M  V30 1793 H 170.826 -3.59803 -3.29231 0
M  V30 1794 H 169.831 -5.23751 -1.67228 0
M  V30 1795 H 171.056 -6.44613 -2.13659 0
M  V30 1796 H 169.002 -5.19817 -4.00158 0
M  V30 1797 H 168.919 -6.79066 -3.32273 0
M  V30 1798 H 170.187 -6.40227 -4.44668 0
M  V30 1799 N 174.416 0.165178 -1.56732 0
M  V30 1800 C 175.363 1.2044 -1.96883 0
M  V30 1801 C 176.333 1.43664 -0.833657 0
M  V30 1802 O 177.518 1.56302 -1.09427 0
M  V30 1803 C 174.658 2.53727 -2.33916 0
M  V30 1804 C 173.771 2.3783 -3.6064 0
M  V30 1805 C 172.906 3.64026 -3.86857 0
M  V30 1806 C 171.945 3.43088 -5.06909 0
M  V30 1807 N 171.082 4.61369 -5.29229 0
M  V30 1808 H 175.922 0.854996 -2.85471 0
M  V30 1809 H 173.459 0.41076 -1.41249 0
M  V30 1810 H 175.417 3.31419 -2.53411 0
M  V30 1811 H 174.047 2.8665 -1.48431 0
M  V30 1812 H 173.099 1.51282 -3.49024 0
M  V30 1813 H 174.411 2.18308 -4.4849 0
M  V30 1814 H 173.565 4.50152 -4.06753 0
M  V30 1815 H 172.304 3.86533 -2.97394 0
M  V30 1816 H 171.309 2.55349 -4.86906 0
M  V30 1817 H 172.534 3.21997 -5.97909 0
M  V30 1818 H 170.48 4.84084 -4.42718 0
M  V30 1819 H 170.397 4.44783 -6.11313 0
M  V30 1820 H 171.665 5.48761 -5.53608 0
M  V30 1821 N 175.894 1.51508 0.433938 0
M  V30 1822 C 177.134 1.66006 1.19253 0
M  V30 1823 C 177.498 0.369868 1.88404 0
M  V30 1824 O 178.699 0.39066 2.65946 0
M  V30 1825 C 176.97 2.83229 2.17981 0
M  V30 1826 S 178.529 3.18075 3.02281 0
M  V30 1827 H 175.347 0.584821 0.404358 0
M  V30 1828 H 177.949 1.89425 0.48357 0
M  V30 1829 H 176.653 3.75407 1.65824 0
M  V30 1830 H 176.184 2.6201 2.93453 0
M  V30 1831 H 178.199 2.64772 4.19655 0
M  V30 1832 N 177.372 -0.689602 1.41712 0
M  V30 1833 C 178.619 -1.44966 1.4139 0
M  V30 1834 C 178.947 -1.94484 0.025105 0
M  V30 1835 O 178.202 -1.70307 -0.964048 0
M  V30 1836 C 178.501 -2.67298 2.37247 0
M  V30 1837 C 178.167 -2.36405 3.83958 0
M  V30 1838 C 176.829 -2.27691 4.23923 0
M  V30 1839 C 179.181 -2.11043 4.76561 0
M  V30 1840 C 176.509 -1.91719 5.54492 0
M  V30 1841 C 178.861 -1.76578 6.07456 0
M  V30 1842 C 177.525 -1.66363 6.46436 0
M  V30 1843 H 176.795 -0.53047 0.517381 0
M  V30 1844 H 179.442 -0.787655 1.74552 0
M  V30 1845 H 177.747 -3.38461 1.9736 0
M  V30 1846 H 179.444 -3.25452 2.34269 0
M  V30 1847 H 176.034 -2.44085 3.52308 0
M  V30 1848 H 180.218 -2.16717 4.46483 0
M  V30 1849 H 175.474 -1.82367 5.83568 0
M  V30 1850 H 179.648 -1.55974 6.78708 0
M  V30 1851 H 177.275 -1.38258 7.47522 0
M  V30 1852 N 178.85 -1.27639 -0.924453 0
M  V30 1853 C 180.266 -1.05113 -1.20097 0
M  V30 1854 C 180.466 0.213262 -2.00368 0
M  V30 1855 O 179.522 0.91787 -2.35226 0
M  V30 1856 C 180.835 -2.29244 -1.94596 0
M  V30 1857 C 182.383 -2.34315 -2.07522 0
M  V30 1858 C 182.858 -3.58183 -2.85427 0
M  V30 1859 N 184.349 -3.5876 -2.92994 0
M  V30 1860 C 185.084 -4.51277 -3.53746 0
M  V30 1861 N 184.58 -5.54102 -4.15863 0
M  V30 1862 N 186.373 -4.38894 -3.51181 0
M  V30 1863 H 178.524 -2.08821 -0.388264 0
M  V30 1864 H 180.787 -0.918568 -0.234385 0
M  V30 1865 H 180.493 -3.21301 -1.43034 0
M  V30 1866 H 180.367 -2.34816 -2.95197 0
M  V30 1867 H 182.754 -1.42762 -2.58269 0
M  V30 1868 H 182.835 -2.32744 -1.06131 0
M  V30 1869 H 182.479 -4.50074 -2.35363 0
M  V30 1870 H 182.409 -3.57006 -3.8711 0
M  V30 1871 H 184.9 -2.84398 -2.4885 0
M  V30 1872 H 185.213 -6.20859 -4.60168 0
M  V30 1873 H 183.558 -5.57941 -4.144 0
M  V30 1874 H 186.749 -3.57772 -3.01856 0
M  V30 1875 H 186.922 -5.11186 -3.98237 0
M  V30 1876 N 180.328 1.1314 -1.09713 0
M  V30 1877 C 181.291 2.16831 -0.742751 0
M  V30 1878 C 182.291 1.59159 0.229129 0
M  V30 1879 O 183.481 1.74199 0.00693237 0
M  V30 1880 C 180.613 3.40756 -0.0989168 0
M  V30 1881 H 181.806 2.49695 -1.66109 0
M  V30 1882 H 179.359 1.2802 -0.896699 0
M  V30 1883 H 180.094 3.13485 0.830514 0
M  V30 1884 H 179.879 3.83888 -0.798265 0
M  V30 1885 H 181.369 4.17386 0.133524 0
M  V30 1886 N 181.806 0.884767 1.30421 0
M  V30 1887 C 183.054 0.502112 1.95763 0
M  V30 1888 C 183.375 -0.951815 1.70192 0
M  V30 1889 O 182.645 -1.6692 1.0254 0
M  V30 1890 H 181.225 0.182694 0.724315 0
M  V30 1891 H 183.887 1.1278 1.58955 0
M  V30 1892 H 182.983 0.672188 3.04775 0
M  V30 1893 N 183.284 -1.43765 0.645699 0
M  V30 1894 C 184.217 -2.2798 -0.100072 0
M  V30 1895 C 185.195 -1.39391 -0.837194 0
M  V30 1896 O 186.379 -1.68833 -0.838306 0
M  V30 1897 C 183.506 -3.18643 -1.14823 0
M  V30 1898 C 182.552 -4.2344 -0.510009 0
M  V30 1899 S 183.385 -5.30761 0.710824 0
M  V30 1900 C 184.541 -6.24992 -0.33699 0
M  V30 1901 H 184.774 -2.90884 0.614322 0
M  V30 1902 H 182.307 -1.48166 0.434304 0
M  V30 1903 H 184.265 -3.71424 -1.74799 0
M  V30 1904 H 182.926 -2.54932 -1.8349 0
M  V30 1905 H 182.119 -4.86948 -1.29991 0
M  V30 1906 H 181.721 -3.73997 0.0154577 0
M  V30 1907 H 184.013 -6.66691 -1.20537 0
M  V30 1908 H 184.956 -7.07612 0.262879 0
M  V30 1909 H 185.364 -5.60517 -0.669425 0
M  V30 1910 N 184.763 -0.387143 -1.52771 0
M  V30 1911 C 185.71 0.449048 -2.26389 0
M  V30 1912 C 186.68 1.05961 -1.27912 0
M  V30 1913 O 187.865 1.08804 -1.56737 0
M  V30 1914 C 185.005 1.57155 -3.0724 0
M  V30 1915 C 184.118 0.984066 -4.20643 0
M  V30 1916 C 183.253 2.07745 -4.88892 0
M  V30 1917 C 182.292 1.46574 -5.94292 0
M  V30 1918 N 181.429 2.49834 -6.56146 0
M  V30 1919 H 186.269 -0.185205 -2.97424 0
M  V30 1920 H 183.806 -0.103164 -1.46738 0
M  V30 1921 H 185.764 2.23309 -3.52405 0
M  V30 1922 H 184.394 2.17615 -2.38419 0
M  V30 1923 H 183.446 0.212193 -3.79808 0
M  V30 1924 H 184.758 0.497029 -4.96318 0
M  V30 1925 H 183.912 2.81673 -5.3735 0
M  V30 1926 H 182.651 2.59807 -4.12737 0
M  V30 1927 H 181.656 0.711696 -5.45174 0
M  V30 1928 H 182.881 0.953088 -6.72379 0
M  V30 1929 H 180.827 3.0107 -5.82832 0
M  V30 1930 H 180.744 2.05879 -7.27427 0
M  V30 1931 H 182.012 3.23399 -7.09249 0
M  V30 1932 N 186.241 1.57166 -0.116904 0
M  V30 1933 C 187.188 2.15202 0.83408 0
M  V30 1934 C 188.158 1.07644 1.26499 0
M  V30 1935 O 189.343 1.35541 1.34288 0
M  V30 1936 C 186.483 2.75405 2.07957 0
M  V30 1937 C 185.596 3.97264 1.69721 0
M  V30 1938 C 184.731 4.45561 2.89221 0
M  V30 1939 C 183.77 5.59956 2.47215 0
M  V30 1940 N 182.907 6.03006 3.59622 0
M  V30 1941 H 187.747 2.96141 0.332335 0
M  V30 1942 H 185.284 1.46309 0.152349 0
M  V30 1943 H 187.242 3.08439 2.80929 0
M  V30 1944 H 185.872 1.97159 2.55594 0
M  V30 1945 H 184.924 3.70404 0.866316 0
M  V30 1946 H 186.236 4.80226 1.34849 0
M  V30 1947 H 185.39 4.80493 3.7042 0
M  V30 1948 H 184.129 3.61544 3.27318 0
M  V30 1949 H 183.134 5.2463 1.64448 0
M  V30 1950 H 184.359 6.45738 2.10238 0
M  V30 1951 H 182.305 5.21931 3.97396 0
M  V30 1952 H 182.222 6.80819 3.28667 0
M  V30 1953 H 183.49 6.42576 4.41267 0
M  V30 1954 N 187.719 -0.156864 1.56817 0
M  V30 1955 C 188.629 -1.2136 2.00771 0
M  V30 1956 C 189.645 -1.47598 0.921459 0
M  V30 1957 O 190.821 -1.59462 1.2302 0
M  V30 1958 C 187.886 -2.52943 2.37109 0
M  V30 1959 C 186.947 -2.34439 3.59634 0
M  V30 1960 C 186.18 -3.59748 3.94229 0
M  V30 1961 O 186.403 -4.65526 3.29609 0
M  V30 1962 O 185.337 -3.52998 4.8752 0
M  V30 1963 H 189.163 -0.870468 2.90958 0
M  V30 1964 H 186.748 -0.36484 1.44877 0
M  V30 1965 H 188.63 -3.30538 2.61386 0
M  V30 1966 H 187.305 -2.86806 1.5008 0
M  V30 1967 H 186.212 -1.54828 3.40557 0
M  V30 1968 H 187.545 -2.05496 4.4725 0
M  V30 1969 N 189.197 -1.51736 -0.425897 0
M  V30 1970 C 190.16 -1.73271 -1.50032 0
M  V30 1971 C 191.16 -0.602639 -1.4908 0
M  V30 1972 O 192.35 -0.87033 -1.509 0
M  V30 1973 C 189.482 -1.79969 -2.89523 0
M  V30 1974 H 190.675 -2.69172 -1.32237 0
M  V30 1975 H 188.228 -1.41899 -0.65532 0
M  V30 1976 H 188.963 -0.859241 -3.1271 0
M  V30 1977 H 188.748 -2.62109 -2.91619 0
M  V30 1978 H 190.238 -1.9843 -3.67444 0
M  V30 1979 N 190.675 0.682077 -1.42076 0
M  V30 1980 C 191.921 1.44428 -1.42367 0
M  V30 1981 C 192.254 1.94164 -0.0373056 0
M  V30 1982 O 191.529 1.70429 0.937239 0
M  V30 1983 C 191.812 2.64654 -2.44194 0
M  V30 1984 C 191.665 2.20596 -3.91991 0
M  V30 1985 C 192.984 3.66865 -2.431 0
M  V30 1986 H 190.103 0.523834 -0.518428 0
M  V30 1987 H 192.745 0.77576 -1.73442 0
M  V30 1988 H 190.895 3.2169 -2.17826 0
M  V30 1989 H 192.567 1.68783 -4.29313 0
M  V30 1990 H 190.81 1.52242 -4.06208 0
M  V30 1991 H 191.481 3.06921 -4.58807 0
M  V30 1992 H 193.957 3.19531 -2.66532 0
M  V30 1993 H 192.833 4.48577 -3.16339 0
M  V30 1994 H 193.094 4.17493 -1.45437 0
M  V30 1995 N 192.153 1.28127 0.917671 0
M  V30 1996 C 193.085 1.07517 2.02417 0
M  V30 1997 C 194.098 0.0281099 1.62776 0
M  V30 1998 O 195.287 0.270748 1.76435 0
M  V30 1999 C 192.387 0.610957 3.33347 0
M  V30 2000 C 191.56 1.73255 4.01624 0
M  V30 2001 C 190.619 1.26238 5.10833 0
M  V30 2002 O 189.645 1.96389 5.34247 0
M  V30 2003 N 190.847 0.123448 5.80369 0
M  V30 2004 H 193.612 2.02806 2.20658 0
M  V30 2005 H 191.173 1.19827 1.08871 0
M  V30 2006 H 193.165 0.280101 4.0373 0
M  V30 2007 H 191.735 -0.24898 3.11607 0
M  V30 2008 H 190.955 2.23319 3.24842 0
M  V30 2009 H 192.243 2.48503 4.43986 0
M  V30 2010 H 191.641 -0.461847 5.63812 0
M  V30 2011 H 190.198 -0.148158 6.51632 0
M  V30 2012 N 193.631 -1.12557 1.10312 0
M  V30 2013 C 194.579 -2.20325 0.745629 0
M  V30 2014 C 195.573 -1.67429 -0.25763 0
M  V30 2015 O 196.779 -1.79612 -0.118132 0
M  V30 2016 H 193.154 -0.718118 0.223182 0
M  V30 2017 H 195.125 -2.47733 1.66346 0
M  V30 2018 C 193.874 -3.47168 0.192262 0
M  V30 2019 H 193.197 -3.88215 0.955475 0
M  V30 2020 H 194.637 -4.23995 -0.0198274 0
M  V30 2021 C 193.096 -3.19298 -1.07472 0
M  V30 2022 O 193.626 -3.3891 -2.15645 0
M  V30 2023 N 191.832 -2.73113 -0.992847 0
M  V30 2024 H 191.379 -2.57354 -0.112474 0
M  V30 2025 H 191.337 -2.54842 -1.84127 0
M  V30 2026 N 195.109 -0.891671 -1.2995 0
M  V30 2027 C 196.019 -0.367691 -2.31701 0
M  V30 2028 C 197.035 0.533486 -1.6562 0
M  V30 2029 O 198.211 0.424997 -1.96865 0
M  V30 2030 C 195.276 0.403406 -3.44345 0
M  V30 2031 C 194.337 -0.528328 -4.26037 0
M  V30 2032 C 193.57 0.206063 -5.33302 0
M  V30 2033 O 193.793 1.43119 -5.52153 0
M  V30 2034 O 192.727 -0.447281 -6.00236 0
M  V30 2035 H 196.553 -1.21163 -2.78484 0
M  V30 2036 H 194.138 -0.655725 -1.34241 0
M  V30 2037 H 196.02 0.839753 -4.12948 0
M  V30 2038 H 194.695 1.22354 -2.99685 0
M  V30 2039 H 193.602 -1.01362 -3.60106 0
M  V30 2040 H 194.935 -1.31465 -4.74318 0
M  V30 2041 N 196.587 1.43421 -0.653314 0
M  V30 2042 C 198.003 1.56341 -0.320886 0
M  V30 2043 C 198.203 1.63696 1.17499 0
M  V30 2044 O 197.259 1.59208 1.95982 0
M  V30 2045 C 198.572 2.82424 -1.03233 0
M  V30 2046 C 200.12 2.96168 -1.01259 0
M  V30 2047 C 200.595 4.25084 -1.70492 0
M  V30 2048 N 202.086 4.31948 -1.67257 0
M  V30 2049 C 202.821 5.30466 -2.17701 0
M  V30 2050 N 202.317 6.35261 -2.76434 0
M  V30 2051 N 204.11 5.2212 -2.082 0
M  V30 2052 H 196.261 1.3689 -1.62403 0
M  V30 2053 H 198.524 0.657455 -0.682977 0
M  V30 2054 H 198.23 2.83053 -2.08744 0
M  V30 2055 H 198.104 3.72653 -0.583948 0
M  V30 2056 H 200.491 2.9508 0.0341235 0
M  V30 2057 H 200.572 2.07229 -1.49966 0
M  V30 2058 H 200.216 4.26932 -2.7512 0
M  V30 2059 H 200.146 5.1292 -1.19251 0
M  V30 2060 H 202.637 3.56838 -1.24398 0
M  V30 2061 H 202.95 7.06754 -3.12601 0
M  V30 2062 H 201.295 6.35884 -2.80495 0
M  V30 2063 H 204.486 4.39166 -1.62021 0
M  V30 2064 H 204.659 5.98739 -2.47822 0
M  V30 2065 N 198.065 0.39524 1.52563 0
M  V30 2066 C 199.342 -0.242908 1.94086 0
M  V30 2067 C 199.722 -1.63841 1.33114 0
M  V30 2068 O 199.07 -2.22928 0.501529 0
M  V30 2069 C 199.28 -0.26327 3.48006 0
M  V30 2070 C 200.628 -0.489354 4.21771 0
M  V30 2071 O 201.652 -0.343226 3.54543 0
M  V30 2072 O 200.511 -0.776169 5.4096 0
M  V30 2073 H 197.605 -0.152536 0.812811 0
M  V30 2074 H 200.151 0.450178 1.6362 0
M  V30 2075 H 198.923 0.713985 3.84731 0
M  V30 2076 H 198.546 -1.00103 3.84792 0
M  V30 2077 N 199.544 -1.57102 0.125237 0
M  V30 2078 C 200.96 -1.57915 -0.231322 0
M  V30 2079 C 201.16 -1.13833 -1.66266 0
M  V30 2080 O 200.216 -0.828581 -2.38518 0
M  V30 2081 C 201.529 -3.00699 0.00766489 0
M  V30 2082 C 203.077 -3.12947 -0.0577483 0
M  V30 2083 C 203.552 -4.57742 0.153626 0
M  V30 2084 N 205.043 -4.63092 0.0998073 0
M  V30 2085 C 205.778 -5.72905 0.238174 0
M  V30 2086 N 205.274 -6.91445 0.433057 0
M  V30 2087 N 207.067 -5.6182 0.177308 0
M  V30 2088 H 199.218 -1.84055 1.06007 0
M  V30 2089 H 201.481 -0.850905 0.417929 0
M  V30 2090 H 201.187 -3.3726 0.997431 0
M  V30 2091 H 201.061 -3.70236 -0.721452 0
M  V30 2092 H 203.448 -2.7624 -1.03804 0
M  V30 2093 H 203.529 -2.4594 0.70335 0
M  V30 2094 H 203.173 -4.95149 1.13092 0
M  V30 2095 H 203.103 -5.22848 -0.627534 0
M  V30 2096 H 205.594 -3.77871 -0.047051 0
M  V30 2097 H 205.907 -7.70985 0.529332 0
M  V30 2098 H 204.252 -6.93415 0.469109 0
M  V30 2099 H 207.443 -4.68093 0.0259748 0
M  V30 2100 H 207.616 -6.47357 0.288582 0
M  V30 2101 N 201.022 0.148545 -1.56898 0
M  V30 2102 C 202.271 0.85984 -1.82454 0
M  V30 2103 C 202.584 1.82406 -0.706229 0
M  V30 2104 O 203.79 2.57938 -0.847349 0
M  V30 2105 C 202.246 1.57967 -3.2338 0
M  V30 2106 C 201.854 0.65794 -4.43142 0
M  V30 2107 C 203.598 2.27784 -3.58211 0
M  V30 2108 C 201.505 1.3793 -5.75091 0
M  V30 2109 H 200.435 0.324834 -0.68044 0
M  V30 2110 H 203.086 0.112588 -1.83154 0
M  V30 2111 H 201.468 2.37249 -3.17063 0
M  V30 2112 H 202.642 -0.0995497 -4.60692 0
M  V30 2113 H 200.957 0.0682643 -4.16344 0
M  V30 2114 H 203.554 2.8239 -4.54048 0
M  V30 2115 H 203.897 3.04204 -2.84193 0
M  V30 2116 H 204.43 1.55421 -3.66182 0
M  V30 2117 H 201.169 0.656982 -6.52199 0
M  V30 2118 H 200.689 2.10954 -5.61479 0
M  V30 2119 H 202.368 1.92063 -6.17835 0
M  V30 2120 N 202.5 1.5196 0.417844 0
M  V30 2121 C 203.725 1.69717 1.1921 0
M  V30 2122 C 204.15 0.402148 1.83751 0
M  V30 2123 O 203.508 -0.639593 1.69643 0
M  V30 2124 C 203.556 2.82794 2.2374 0
M  V30 2125 O 202.66 2.47756 3.29683 0
M  V30 2126 H 202.001 0.565263 0.348387 0
M  V30 2127 H 204.531 1.98621 0.490985 0
M  V30 2128 H 204.541 3.07452 2.68212 0
M  V30 2129 H 203.216 3.76756 1.76146 0
M  V30 2130 H 201.793 2.33739 2.90552 0
M  V30 2131 N 203.978 -0.674533 1.42435 0
M  V30 2132 C 205.206 -1.46283 1.46317 0
M  V30 2133 C 205.621 -1.88653 0.0745836 0
M  V30 2134 O 204.978 -1.58151 -0.91074 0
M  V30 2135 C 205.029 -2.71178 2.3905 0
M  V30 2136 O 204.75 -2.30586 3.72507 0
M  V30 2137 C 206.251 -3.64738 2.51955 0
M  V30 2138 H 203.471 -0.450104 0.497642 0
M  V30 2139 H 206.015 -0.828792 1.86953 0
M  V30 2140 H 204.17 -3.3077 2.01667 0
M  V30 2141 H 204.584 -3.11241 4.22172 0
M  V30 2142 H 206.058 -4.49096 3.20962 0
M  V30 2143 H 206.535 -4.10656 1.55752 0
M  V30 2144 H 207.141 -3.11038 2.90061 0
M  V30 2145 N 205.456 -1.28612 -0.910864 0
M  V30 2146 C 206.872 -1.06381 -1.18976 0
M  V30 2147 C 207.072 0.191998 -2.00583 0
M  V30 2148 O 206.128 0.892869 -2.36187 0
M  V30 2149 C 207.441 -2.31295 -1.92154 0
M  V30 2150 C 208.989 -2.36503 -2.05025 0
M  V30 2151 C 209.464 -3.61191 -2.81612 0
M  V30 2152 N 210.955 -3.61847 -2.89172 0
M  V30 2153 C 211.69 -4.55004 -3.4894 0
M  V30 2154 N 211.186 -5.58482 -4.09963 0
M  V30 2155 N 212.979 -4.42594 -3.46506 0
M  V30 2156 H 205.13 -2.09221 -0.366094 0
M  V30 2157 H 207.393 -0.921003 -0.224629 0
M  V30 2158 H 207.099 -3.228 -1.39618 0
M  V30 2159 H 206.973 -2.37934 -2.9269 0
M  V30 2160 H 209.36 -1.45494 -2.5674 0
M  V30 2161 H 209.441 -2.33857 -1.03657 0
M  V30 2162 H 209.085 -4.52545 -2.30576 0
M  V30 2163 H 209.015 -3.61092 -3.83302 0
M  V30 2164 H 211.506 -2.87022 -2.45819 0
M  V30 2165 H 211.819 -6.25704 -4.53557 0
M  V30 2166 H 210.164 -5.62305 -4.08459 0
M  V30 2167 H 213.355 -3.60953 -2.98045 0
M  V30 2168 H 213.528 -5.15381 -3.92793 0
M  V30 2169 N 206.934 1.1197 -1.10907 0
M  V30 2170 C 208.35 1.35591 -0.841852 0
M  V30 2171 C 208.55 1.94233 0.536246 0
M  V30 2172 O 207.606 2.1717 1.28816 0
M  V30 2173 C 208.919 2.29284 -1.94549 0
M  V30 2174 C 210.467 2.42862 -1.97451 0
M  V30 2175 C 210.942 3.39873 -3.07002 0
M  V30 2176 N 212.433 3.47433 -3.06341 0
M  V30 2177 C 213.168 4.22421 -3.87748 0
M  V30 2178 N 212.664 5.00432 -4.79103 0
M  V30 2179 N 214.457 4.17876 -3.75946 0
M  V30 2180 H 206.608 0.722664 -1.99728 0
M  V30 2181 H 208.871 0.380635 -0.868229 0
M  V30 2182 H 208.577 1.93378 -2.93765 0
M  V30 2183 H 208.451 3.29452 -1.83688 0
M  V30 2184 H 210.838 2.78046 -0.988645 0
M  V30 2185 H 210.919 1.42566 -2.12388 0
M  V30 2186 H 210.563 3.05417 -4.05811 0
M  V30 2187 H 210.493 4.40011 -2.89306 0
M  V30 2188 H 212.984 2.91784 -2.40147 0
M  V30 2189 H 213.297 5.55002 -5.37766 0
M  V30 2190 H 211.642 4.99612 -4.83128 0
M  V30 2191 H 214.833 3.56016 -3.03924 0
M  V30 2192 H 215.006 4.76061 -4.39624 0
M  V30 2193 N 208.412 0.89855 1.29475 0
M  V30 2194 C 209.637 0.538561 2.00285 0
M  V30 2195 C 210.062 -0.869135 1.66816 0
M  V30 2196 O 209.42 -1.57831 0.892145 0
M  V30 2197 C 209.468 0.736475 3.52999 0
M  V30 2198 O 208.572 -0.211537 4.11857 0
M  V30 2199 H 207.913 0.210563 0.62973 0
M  V30 2200 H 210.443 1.20982 1.64998 0
M  V30 2201 H 210.453 0.640685 4.02938 0
M  V30 2202 H 209.128 1.76276 3.76696 0
M  V30 2203 H 207.705 -0.0682991 3.72837 0
M  V30 2204 N 209.89 -1.43072 0.660911 0
M  V30 2205 C 211.115 -2.06584 0.183805 0
M  V30 2206 C 211.54 -1.49257 -1.14472 0
M  V30 2207 O 210.898 -0.605528 -1.70889 0
M  V30 2208 C 210.946 -3.60418 0.114434 0
M  V30 2209 O 210.05 -4.01981 -0.921137 0
M  V30 2210 H 209.391 -0.656669 0.0983994 0
M  V30 2211 H 211.921 -1.83447 0.906006 0
M  V30 2212 H 211.931 -4.07946 -0.0663394 0
M  V30 2213 H 210.606 -4.01519 1.08422 0
M  V30 2214 H 209.183 -3.66029 -0.71253 0
M  V30 2215 N 211.368 -0.403325 -1.52352 0
M  V30 2216 C 212.598 0.17376 -2.05868 0
M  V30 2217 C 213.006 1.39898 -1.27378 0
M  V30 2218 O 212.349 1.80939 -0.31729 0
M  V30 2219 C 212.411 0.594756 -3.54546 0
M  V30 2220 C 212.075 -0.518926 -4.54044 0
M  V30 2221 C 213.072 -1.3807 -5.01231 0
M  V30 2222 C 210.757 -0.689961 -4.97539 0
M  V30 2223 C 212.751 -2.39852 -5.90551 0
M  V30 2224 C 210.438 -1.71109 -5.86656 0
M  V30 2225 C 211.436 -2.56378 -6.33056 0
M  V30 2226 O 211.124 -3.56743 -7.20409 0
M  V30 2227 H 210.856 0.0264951 -0.675481 0
M  V30 2228 H 213.41 -0.571179 -1.97299 0
M  V30 2229 H 211.64 1.39189 -3.60782 0
M  V30 2230 H 213.329 1.0991 -3.90736 0
M  V30 2231 H 214.095 -1.25994 -4.68349 0
M  V30 2232 H 209.974 -0.035939 -4.60986 0
M  V30 2233 H 213.518 -3.06441 -6.26689 0
M  V30 2234 H 209.415 -1.83218 -6.18952 0
M  V30 2235 H 210.183 -3.52918 -7.38506 0
M  V30 2236 N 212.846 1.57033 -0.133567 0
M  V30 2237 C 213.756 2.19632 0.824564 0
M  V30 2238 C 214.772 1.17666 1.28182 0
M  V30 2239 O 215.948 1.50193 1.3418 0
M  V30 2240 C 213.013 2.79499 2.05137 0
M  V30 2241 C 212.074 3.96548 1.64464 0
M  V30 2242 C 211.307 4.5355 2.81297 0
M  V30 2243 O 211.53 4.09438 3.97136 0
M  V30 2244 O 210.464 5.44018 2.57542 0
M  V30 2245 H 214.29 3.01991 0.321766 0
M  V30 2246 H 211.875 1.49112 0.0927889 0
M  V30 2247 H 213.757 3.17602 2.7696 0
M  V30 2248 H 212.432 2.00162 2.54395 0
M  V30 2249 H 211.339 3.63186 0.897048 0
M  V30 2250 H 212.672 4.77364 1.19934 0
M  V30 2251 N 214.325 -0.140222 1.56975 0
M  V30 2252 C 215.602 -0.880769 1.74648 0
M  V30 2253 C 215.982 -1.99036 0.703404 0
M  V30 2254 O 215.33 -2.26821 -0.27648 0
M  V30 2255 C 215.54 -1.417 3.18939 0
M  V30 2256 C 216.888 -1.87774 3.80823 0
M  V30 2257 O 217.912 -1.51427 3.2241 0
M  V30 2258 O 216.771 -2.54827 4.83452 0
M  V30 2259 H 213.865 -0.416713 0.714338 0
M  V30 2260 H 216.411 -0.125618 1.69234 0
M  V30 2261 H 215.183 -0.619902 3.86359 0
M  V30 2262 H 214.806 -2.23546 3.28805 0
M  V30 2263 N 215.803 -1.52179 -0.40978 0
M  V30 2264 C 217.028 -1.70347 -1.18308 0
M  V30 2265 C 217.453 -0.411887 -1.83535 0
M  V30 2266 O 216.811 0.630587 -1.6998 0
M  V30 2267 C 216.859 -2.83977 -2.22238 0
M  V30 2268 O 215.963 -2.495 -3.28365 0
M  V30 2269 H 215.304 -0.567103 -0.345384 0
M  V30 2270 H 217.834 -1.98879 -0.480445 0
M  V30 2271 H 217.844 -3.0887 -2.66577 0
M  V30 2272 H 216.519 -3.77685 -1.74146 0
M  V30 2273 H 215.096 -2.35277 -2.89308 0
M  V30 2274 N 217.281 0.66697 -1.42791 0
M  V30 2275 C 218.506 1.46004 -1.47301 0
M  V30 2276 C 218.931 1.87894 -0.0880317 0
M  V30 2277 O 218.289 1.56502 0.915253 0
M  V30 2278 C 218.337 2.68031 -2.41229 0
M  V30 2279 O 217.441 3.6659 -1.88906 0
M  V30 2280 H 216.782 0.43832 -0.49877 0
M  V30 2281 H 219.312 0.817391 -1.87563 0
M  V30 2282 H 219.322 3.1601 -2.58073 0
M  V30 2283 H 217.997 2.36883 -3.41847 0
M  V30 2284 H 216.574 3.25661 -1.81656 0
M  V30 2285 N 218.759 1.29093 0.90403 0
M  V30 2286 C 219.689 1.16401 2.02418 0
M  V30 2287 C 220.67 0.0593085 1.69997 0
M  V30 2288 O 221.855 0.238021 1.92736 0
M  V30 2289 C 218.985 0.835233 3.37107 0
M  V30 2290 C 217.939 1.89578 3.83724 0
M  V30 2291 C 217.265 1.42041 5.15489 0
M  V30 2292 C 218.565 3.30394 4.04521 0
M  V30 2293 H 220.259 2.10109 2.13295 0
M  V30 2294 H 217.805 1.01157 1.02486 0
M  V30 2295 H 219.758 0.733169 4.14973 0
M  V30 2296 H 218.482 -0.137543 3.2631 0
M  V30 2297 H 217.141 1.98715 3.08071 0
M  V30 2298 H 216.789 0.436426 5.01103 0
M  V30 2299 H 216.489 2.12964 5.4765 0
M  V30 2300 H 218.013 1.33176 5.959 0
M  V30 2301 H 219.427 3.24123 4.72882 0
M  V30 2302 H 217.824 3.99237 4.48029 0
M  V30 2303 H 218.894 3.73692 3.09002 0
M  V30 2304 N 220.237 -1.11381 1.11499 0
M  V30 2305 C 221.648 -1.6465 0.880191 0
M  V30 2306 C 221.999 -1.87199 -0.587434 0
M  V30 2307 O 221.124 -1.60667 -1.44966 0
M  V30 2308 C 221.719 -2.99105 1.59128 0
M  V30 2309 C 220.278 -3.49279 1.40289 0
M  V30 2310 C 219.425 -2.24077 1.63354 0
M  V30 2311 H 222.376 -0.950123 1.27116 0
M  V30 2312 H 222.397 -3.66107 1.03664 0
M  V30 2313 H 221.909 -2.82661 2.65941 0
M  V30 2314 H 220.01 -3.70887 0.356888 0
M  V30 2315 H 220.123 -4.2803 2.15238 0
M  V30 2316 H 218.487 -2.31733 1.05698 0
M  V30 2317 H 219.27 -2.10175 2.71443 0
M  V30 2318 N 221.715 -0.905404 -1.28997 0
M  V30 2319 C 222.94 -0.549175 -1.99997 0
M  V30 2320 C 223.365 0.860276 -1.67275 0
M  V30 2321 O 222.723 1.57355 -0.900502 0
M  V30 2322 C 222.771 -0.755185 -3.52604 0
M  V30 2323 O 221.875 0.189692 -4.11964 0
M  V30 2324 H 221.216 -0.213899 -0.628604 0
M  V30 2325 H 223.746 -1.21856 -1.64354 0
M  V30 2326 H 223.756 -0.662045 -4.02593 0
M  V30 2327 H 222.431 -1.78271 -3.75755 0
M  V30 2328 H 221.008 0.0485257 -3.72868 0
M  V30 2329 N 223.193 1.4272 -0.668489 0
M  V30 2330 C 224.442 2.00846 -0.185389 0
M  V30 2331 C 224.755 1.53442 1.21305 0
M  V30 2332 O 225.961 2.03944 1.79218 0
M  V30 2333 C 224.417 3.58805 -0.280591 0
M  V30 2334 C 224.025 4.15198 -1.68268 0
M  V30 2335 C 225.769 4.24255 0.14412 0
M  V30 2336 C 223.676 5.655 -1.73099 0
M  V30 2337 H 222.606 0.751145 -0.0655475 0
M  V30 2338 H 225.257 1.63516 -0.832752 0
M  V30 2339 H 223.639 3.93608 0.434553 0
M  V30 2340 H 224.813 3.91866 -2.42441 0
M  V30 2341 H 223.128 3.62176 -2.05469 0
M  V30 2342 H 225.725 5.34547 0.128086 0
M  V30 2343 H 226.068 3.99277 1.17827 0
M  V30 2344 H 226.601 3.94389 -0.519798 0
M  V30 2345 H 223.34 5.95268 -2.74475 0
M  V30 2346 H 222.86 5.90842 -1.03274 0
M  V30 2347 H 224.539 6.29808 -1.48158 0
M  V30 2348 N 224.671 0.411399 1.52136 0
M  V30 2349 C 225.619 -0.427633 2.28635 0
M  V30 2350 C 226.613 -1.04383 1.33419 0
M  V30 2351 O 227.819 -0.981772 1.50868 0
M  V30 2352 H 224.194 -0.156689 0.735495 0
M  V30 2353 H 226.165 0.238761 2.97443 0
M  V30 2354 C 224.914 -1.53082 3.12188 0
M  V30 2355 H 224.237 -1.06601 3.85326 0
M  V30 2356 H 225.677 -2.09167 3.68816 0
M  V30 2357 C 224.136 -2.49946 2.25895 0
M  V30 2358 O 224.666 -3.53884 1.90076 0
M  V30 2359 N 222.872 -2.2021 1.8962 0
M  V30 2360 H 222.419 -1.35719 2.18948 0
M  V30 2361 H 222.377 -2.85266 1.32176 0
M  V30 2362 N 226.149 -1.5696 0.141893 0
M  V30 2363 C 227.112 -2.15316 -0.785587 0
M  V30 2364 C 228.112 -1.09366 -1.1788 0
M  V30 2365 O 229.302 -1.35031 -1.10056 0
M  V30 2366 C 226.434 -2.71211 -2.06537 0
M  V30 2367 H 227.627 -2.98608 -0.278041 0
M  V30 2368 H 225.18 -1.5593 -0.107519 0
M  V30 2369 H 225.915 -1.91571 -2.6167 0
M  V30 2370 H 225.7 -3.4872 -1.79268 0
M  V30 2371 H 227.19 -3.16189 -2.72789 0
M  V30 2372 N 227.627 0.131896 -1.57047 0
M  V30 2373 C 228.557 1.16384 -2.02428 0
M  V30 2374 C 229.538 1.43936 -0.90644 0
M  V30 2375 O 230.723 1.54599 -1.17528 0
M  V30 2376 C 227.853 2.49328 -2.4177 0
M  V30 2377 C 226.807 2.36266 -3.56879 0
M  V30 2378 C 226.133 3.74057 -3.8208 0
M  V30 2379 C 227.433 1.834 -4.89042 0
M  V30 2380 H 229.127 0.786433 -2.88887 0
M  V30 2381 H 226.673 0.376855 -1.38981 0
M  V30 2382 H 228.626 3.21759 -2.7212 0
M  V30 2383 H 227.35 2.88934 -1.52266 0
M  V30 2384 H 226.009 1.66286 -3.26718 0
M  V30 2385 H 225.657 4.11125 -2.89803 0
M  V30 2386 H 225.357 3.66174 -4.59554 0
M  V30 2387 H 226.881 4.48012 -4.1487 0
M  V30 2388 H 228.295 2.45636 -5.18011 0
M  V30 2389 H 226.692 1.8637 -5.70426 0
M  V30 2390 H 227.762 0.790662 -4.7841 0
M  V30 2391 N 229.106 1.52395 0.401703 0
M  V30 2392 C 230.036 1.79231 1.49661 0
M  V30 2393 C 231.017 0.643654 1.57452 0
M  V30 2394 O 232.202 0.889989 1.72606 0
M  V30 2395 C 229.332 1.94971 2.87409 0
M  V30 2396 C 228.286 3.10604 2.94465 0
M  V30 2397 C 227.612 3.11577 4.34538 0
M  V30 2398 C 228.912 4.49921 2.6527 0
M  V30 2399 H 230.606 2.70917 1.27454 0
M  V30 2400 H 228.152 1.30362 0.6117 0
M  V30 2401 H 230.105 2.12328 3.63999 0
M  V30 2402 H 228.829 0.999632 3.10926 0
M  V30 2403 H 227.488 2.93009 2.20321 0
M  V30 2404 H 227.136 2.14277 4.55076 0
M  V30 2405 H 226.836 3.89247 4.40183 0
M  V30 2406 H 228.36 3.31073 5.13053 0
M  V30 2407 H 229.774 4.67683 3.31581 0
M  V30 2408 H 228.171 5.29564 2.82281 0
M  V30 2409 H 229.241 4.57507 1.60671 0
M  V30 2410 N 230.584 -0.659388 1.43143 0
M  V30 2411 C 231.516 -1.7849 1.43784 0
M  V30 2412 C 232.529 -1.5932 0.334787 0
M  V30 2413 O 233.718 -1.68155 0.598842 0
M  V30 2414 C 230.818 -3.15828 1.22906 0
M  V30 2415 C 229.991 -3.61711 2.45934 0
M  V30 2416 C 229.05 -4.77831 2.20371 0
M  V30 2417 O 228.076 -4.87586 2.93681 0
M  V30 2418 N 229.278 -5.67611 1.21647 0
M  V30 2419 H 232.043 -1.7842 2.40803 0
M  V30 2420 H 229.604 -0.84302 1.3822 0
M  V30 2421 H 231.596 -3.91189 1.03697 0
M  V30 2422 H 230.166 -3.10707 0.343542 0
M  V30 2423 H 229.386 -2.76861 2.80609 0
M  V30 2424 H 230.674 -3.89112 3.27825 0
M  V30 2425 H 230.072 -5.62397 0.610449 0
M  V30 2426 H 228.629 -6.42719 1.08423 0
M  V30 2427 N 232.062 -1.29571 -0.897171 0
M  V30 2428 C 233.025 -1.14913 -1.98312 0
M  V30 2429 C 234.025 -0.0838629 -1.60581 0
M  V30 2430 O 235.215 -0.331006 -1.71026 0
M  V30 2431 C 232.347 -0.757835 -3.3237 0
M  V30 2432 H 233.54 -2.11377 -2.12743 0
M  V30 2433 H 231.093 -1.12793 -1.08201 0
M  V30 2434 H 231.828 0.206837 -3.2364 0
M  V30 2435 H 231.613 -1.52755 -3.61121 0
M  V30 2436 H 233.103 -0.678408 -4.12053 0
M  V30 2437 N 233.54 1.10788 -1.12088 0
M  V30 2438 C 234.45 2.20599 -0.798338 0
M  V30 2439 C 235.466 1.72712 0.21135 0
M  V30 2440 O 236.642 2.01348 0.0458477 0
M  V30 2441 C 233.707 3.45771 -0.253674 0
M  V30 2442 C 232.768 4.08411 -1.32283 0
M  V30 2443 C 232.001 5.27608 -0.80406 0
M  V30 2444 O 232.224 5.69241 0.363478 0
M  V30 2445 O 231.158 5.8101 -1.57198 0
M  V30 2446 H 234.984 2.50614 -1.7154 0
M  V30 2447 H 232.569 1.19454 -0.897275 0
M  V30 2448 H 234.451 4.21376 0.0453691 0
M  V30 2449 H 233.126 3.1739 0.636005 0
M  V30 2450 H 232.033 3.34507 -1.67499 0
M  V30 2451 H 233.366 4.40986 -2.18614 0
M  V30 2452 N 235.018 0.912232 1.28515 0
M  V30 2453 C 236.264 0.545405 1.95328 0
M  V30 2454 C 236.597 -0.908313 1.71649 0
M  V30 2455 O 235.872 -1.64575 1.03659 0
M  V30 2456 C 236.155 0.853483 3.4984 0
M  V30 2457 C 236.008 2.35982 3.82926 0
M  V30 2458 C 237.327 0.348589 4.38717 0
M  V30 2459 H 234.446 0.199626 0.709449 0
M  V30 2460 H 237.088 1.1412 1.5191 0
M  V30 2461 H 235.238 0.34643 3.86952 0
M  V30 2462 H 236.91 2.93738 3.55691 0
M  V30 2463 H 235.153 2.81543 3.30024 0
M  V30 2464 H 235.824 2.52593 4.90816 0
M  V30 2465 H 238.3 0.78294 4.08668 0
M  V30 2466 H 237.176 0.593242 5.45685 0
M  V30 2467 H 237.437 -0.751049 4.35674 0
M  V30 2468 N 236.496 -1.42363 0.676048 0
M  V30 2469 C 237.426 -2.33497 0.0124832 0
M  V30 2470 C 238.407 -1.50748 -0.787981 0
M  V30 2471 O 239.592 -1.79346 -0.744884 0
M  V30 2472 C 236.722 -3.34377 -0.938582 0
M  V30 2473 C 235.676 -4.27289 -0.246622 0
M  V30 2474 C 235.002 -5.18386 -1.31071 0
M  V30 2475 C 236.302 -5.14916 0.875125 0
M  V30 2476 H 237.996 -2.89233 0.773593 0
M  V30 2477 H 235.542 -1.39073 0.37346 0
M  V30 2478 H 237.495 -3.97044 -1.41188 0
M  V30 2479 H 236.219 -2.76947 -1.73113 0
M  V30 2480 H 234.878 -3.66018 0.206456 0
M  V30 2481 H 234.526 -4.57282 -2.09528 0
M  V30 2482 H 234.226 -5.81378 -0.852839 0
M  V30 2483 H 235.75 -5.83929 -1.78492 0
M  V30 2484 H 237.164 -5.71262 0.482983 0
M  V30 2485 H 235.561 -5.86747 1.25887 0
M  V30 2486 H 236.631 -4.53242 1.72335 0
M  V30 2487 N 237.974 -0.419461 -1.51915 0
M  V30 2488 C 239.199 0.154572 -2.06823 0
M  V30 2489 C 239.624 1.3722 -1.28656 0
M  V30 2490 O 238.982 1.78461 -0.319583 0
M  V30 2491 C 239.03 0.473172 -3.57482 0
M  V30 2492 O 238.134 1.56255 -3.81652 0
M  V30 2493 H 237.475 0.0096924 -0.663929 0
M  V30 2494 H 240.005 -0.595642 -1.95738 0
M  V30 2495 H 240.015 0.728825 -4.01438 0
M  V30 2496 H 238.69 -0.416873 -4.13805 0
M  V30 2497 H 237.267 1.29825 -3.49571 0
M  V30 2498 N 239.452 1.56882 -0.150215 0
M  V30 2499 C 240.868 1.58263 0.20617 0
M  V30 2500 C 241.068 1.16464 1.64434 0
M  V30 2501 O 240.124 0.866422 2.3717 0
M  V30 2502 C 241.437 3.00649 -0.0555025 0
M  V30 2503 C 242.985 3.12999 0.00795388 0
M  V30 2504 C 243.46 4.5744 -0.226429 0
M  V30 2505 N 244.951 4.62875 -0.173469 0
M  V30 2506 C 245.686 5.72454 -0.329288 0
M  V30 2507 N 245.182 6.90669 -0.543005 0
M  V30 2508 N 246.975 5.61467 -0.266666 0
M  V30 2509 H 239.126 1.82345 -1.08922 0
M  V30 2510 H 241.389 0.844149 -0.431413 0
M  V30 2511 H 241.095 3.3563 -1.05096 0
M  V30 2512 H 240.969 3.71337 0.66246 0
M  V30 2513 H 243.356 2.77857 0.993966 0
M  V30 2514 H 243.437 2.4479 -0.742388 0
M  V30 2515 H 243.081 4.93287 -1.20956 0
M  V30 2516 H 243.011 5.2378 0.544274 0
M  V30 2517 H 245.502 3.77898 -0.0130709 0
M  V30 2518 H 245.815 7.70045 -0.651922 0
M  V30 2519 H 244.16 6.92581 -0.579366 0
M  V30 2520 H 247.351 4.67992 -0.100441 0
M  V30 2521 H 247.524 6.46816 -0.391535 0
M  V30 2522 N 240.93 -0.123565 1.57115 0
M  V30 2523 C 241.862 -1.17739 1.96648 0
M  V30 2524 C 242.875 -1.37906 0.865201 0
M  V30 2525 O 244.064 -1.37062 1.14351 0
M  V30 2526 C 241.164 -2.53821 2.24562 0
M  V30 2527 C 240.337 -2.54317 3.55867 0
M  V30 2528 C 239.396 -3.72112 3.72047 0
M  V30 2529 O 238.422 -3.55907 4.44206 0
M  V30 2530 N 239.624 -4.90498 3.10471 0
M  V30 2531 H 242.389 -0.841147 2.87654 0
M  V30 2532 H 239.95 -0.31289 1.58848 0
M  V30 2533 H 241.942 -3.31175 2.32606 0
M  V30 2534 H 240.512 -2.79645 1.39705 0
M  V30 2535 H 239.732 -1.62711 3.59053 0
M  V30 2536 H 241.02 -2.51701 4.42181 0
M  V30 2537 H 240.418 -5.06567 2.51806 0
M  V30 2538 H 238.975 -5.65544 3.24043 0
M  V30 2539 N 242.408 -1.52605 -0.393616 0
M  V30 2540 C 243.657 -1.66649 -1.13627 0
M  V30 2541 C 243.97 -0.410364 -1.91247 0
M  V30 2542 O 245.176 -0.430854 -2.68059 0
M  V30 2543 C 243.632 -2.9449 -2.06891 0
M  V30 2544 C 243.24 -4.27266 -1.34714 0
M  V30 2545 C 244.984 -3.17899 -2.81319 0
M  V30 2546 C 242.891 -5.46217 -2.26717 0
M  V30 2547 H 241.821 -0.62084 -0.427871 0
M  V30 2548 H 244.472 -1.791 -0.399428 0
M  V30 2549 H 242.854 -2.75774 -2.84191 0
M  V30 2550 H 244.028 -4.56518 -0.626714 0
M  V30 2551 H 242.343 -4.10081 -0.722643 0
M  V30 2552 H 244.94 -4.03949 -3.50328 0
M  V30 2553 H 245.283 -2.32777 -3.45139 0
M  V30 2554 H 245.816 -3.37159 -2.11113 0
M  V30 2555 H 242.555 -6.33733 -1.67521 0
M  V30 2556 H 242.075 -5.21283 -2.96689 0
M  V30 2557 H 243.754 -5.7991 -2.86903 0
M  V30 2558 N 243.887 0.651787 -1.4349 0
M  V30 2559 C 245.115 1.43937 -1.48626 0
M  V30 2560 C 245.53 1.8851 -0.104587 0
M  V30 2561 O 244.887 1.5958 0.885464 0
M  V30 2562 C 244.938 2.6734 -2.43334 0
M  V30 2563 O 244.659 2.24631 -3.76128 0
M  V30 2564 C 246.16 3.60683 -2.57726 0
M  V30 2565 H 243.38 0.44213 -0.504739 0
M  V30 2566 H 245.924 0.798944 -1.88248 0
M  V30 2567 H 244.079 3.2752 -2.06904 0
M  V30 2568 H 244.493 3.04485 -4.2707 0
M  V30 2569 H 245.967 4.43933 -3.28067 0
M  V30 2570 H 246.444 4.08126 -1.62265 0
M  V30 2571 H 247.05 3.06384 -2.94973 0
M  V30 2572 N 245.365 1.30045 0.890287 0
M  V30 2573 C 246.59 1.21598 1.68014 0
M  V30 2574 C 247.015 -0.218678 1.86825 0
M  V30 2575 O 246.373 -1.15756 1.39536 0
M  V30 2576 C 246.421 1.94434 3.03691 0
M  V30 2577 O 245.525 1.2678 3.92429 0
M  V30 2578 H 244.866 0.420856 0.513592 0
M  V30 2579 H 247.396 1.71775 1.11151 0
M  V30 2580 H 247.406 2.03251 3.5377 0
M  V30 2581 H 246.081 2.98777 2.89318 0
M  V30 2582 H 244.658 1.26282 3.50866 0
M  V30 2583 N 246.843 -1.10192 1.12674 0
M  V30 2584 C 248.254 -1.63707 0.897604 0
M  V30 2585 C 248.605 -1.87812 -0.567546 0
M  V30 2586 O 247.73 -1.62196 -1.43253 0
M  V30 2587 C 248.325 -2.974 1.62292 0
M  V30 2588 C 246.884 -3.47772 1.43986 0
M  V30 2589 C 246.031 -2.22332 1.65722 0
M  V30 2590 H 248.982 -0.936587 1.28116 0
M  V30 2591 H 249.003 -3.64986 1.07541 0
M  V30 2592 H 248.515 -2.79824 2.68924 0
M  V30 2593 H 246.616 -3.70487 0.396206 0
M  V30 2594 H 246.729 -4.25723 2.19765 0
M  V30 2595 H 245.093 -2.30599 1.08149 0
M  V30 2596 H 245.876 -2.07285 2.73657 0
M  V30 2597 N 248.321 -0.919034 -1.28029 0
M  V30 2598 C 249.567 -0.555757 -1.95036 0
M  V30 2599 C 249.9 0.899198 -1.72128 0
M  V30 2600 O 249.175 1.64023 -1.04531 0
M  V30 2601 C 249.458 -0.872024 -3.49382 0
M  V30 2602 C 249.311 -2.3801 -3.81669 0
M  V30 2603 C 250.63 -0.37185 -4.38526 0
M  V30 2604 H 247.749 -0.203386 -0.708381 0
M  V30 2605 H 250.391 -1.14924 -1.51303 0
M  V30 2606 H 248.541 -0.366946 -3.86763 0
M  V30 2607 H 250.213 -2.9562 -3.54128 0
M  V30 2608 H 248.456 -2.83289 -3.28526 0
M  V30 2609 H 249.127 -2.55192 -4.8947 0
M  V30 2610 H 251.603 -0.804602 -4.08247 0
M  V30 2611 H 250.479 -0.622173 -5.45362 0
M  V30 2612 H 250.74 0.727934 -4.36066 0
M  V30 2613 N 249.799 1.42003 -0.683588 0
M  V30 2614 C 251.024 2.06265 -0.216647 0
M  V30 2615 C 251.449 1.51059 1.12083 0
M  V30 2616 O 250.807 0.632638 1.69904 0
M  V30 2617 C 250.855 3.60191 -0.171759 0
M  V30 2618 O 249.959 4.03396 0.857069 0
M  V30 2619 H 249.3 0.65502 -0.108834 0
M  V30 2620 H 251.83 1.81982 -0.935077 0
M  V30 2621 H 251.84 4.08 0.0014303 0
M  V30 2622 H 250.515 3.99743 -1.14796 0
M  V30 2623 H 249.092 3.67117 0.654208 0
M  V30 2624 N 251.277 0.427512 1.51691 0
M  V30 2625 C 252.525 -0.141948 2.01601 0
M  V30 2626 C 252.846 -1.44067 1.31414 0
M  V30 2627 O 252.116 -1.90763 0.445658 0
M  V30 2628 H 250.696 -0.0554468 0.744939 0
M  V30 2629 H 253.358 0.567968 1.86441 0
M  V30 2630 H 252.454 -0.324913 3.10404 0
M  V30 2631 N 252.755 -1.56801 0.158532 0
M  V30 2632 C 254.004 -1.95665 -0.489702 0
M  V30 2633 C 254.317 -1.04654 -1.65248 0
M  V30 2634 O 255.523 -1.33146 -2.3661 0
M  V30 2635 C 253.979 -3.47874 -0.922582 0
M  V30 2636 C 253.587 -4.47489 0.213893 0
M  V30 2637 C 255.331 -3.95583 -1.53996 0
M  V30 2638 C 253.238 -5.90921 -0.237903 0
M  V30 2639 H 252.168 -0.730516 -0.186716 0
M  V30 2640 H 254.819 -1.81861 0.244722 0
M  V30 2641 H 253.201 -3.57051 -1.71261 0
M  V30 2642 H 254.375 -4.50017 0.991036 0
M  V30 2643 H 252.69 -4.09764 0.740407 0
M  V30 2644 H 255.287 -5.0019 -1.8898 0
M  V30 2645 H 255.63 -3.37789 -2.43319 0
M  V30 2646 H 256.163 -3.8937 -0.814611 0
M  V30 2647 H 252.902 -6.52559 0.620236 0
M  V30 2648 H 252.422 -5.91729 -0.980676 0
M  V30 2649 H 254.101 -6.43352 -0.686067 0
M  V30 2650 N 254.233 0.115231 -1.57178 0
M  V30 2651 C 255.181 1.16014 -2.01602 0
M  V30 2652 C 256.175 1.42653 -0.913587 0
M  V30 2653 O 257.381 1.42571 -1.09879 0
M  V30 2654 H 253.756 0.391252 -0.642204 0
M  V30 2655 H 255.727 0.758998 -2.88586 0
M  V30 2656 C 254.476 2.47767 -2.4394 0
M  V30 2657 H 253.799 2.28108 -3.28339 0
M  V30 2658 H 255.239 3.19432 -2.78818 0
M  V30 2659 C 253.698 3.10617 -1.30455 0
M  V30 2660 O 254.228 3.96846 -0.622585 0
M  V30 2661 N 252.434 2.70553 -1.06064 0
M  V30 2662 H 251.981 2.00527 -1.61699 0
M  V30 2663 H 251.939 3.12934 -0.303284 0
M  V30 2664 N 255.711 1.52812 0.385517 0
M  V30 2665 C 256.959 1.67694 1.12797 0
M  V30 2666 C 257.28 0.421115 1.90399 0
M  V30 2667 O 256.55 -0.564551 1.87589 0
M  V30 2668 H 255.13 0.618155 0.419396 0
M  V30 2669 H 257.792 1.89938 0.436972 0
M  V30 2670 H 256.888 2.52896 1.82894 0
M  V30 2671 N 257.189 -0.644168 1.43834 0
M  V30 2672 C 258.466 -1.40188 1.36406 0
M  V30 2673 C 258.846 -2.11094 0.0163124 0
M  V30 2674 O 258.194 -2.05426 -1.00062 0
M  V30 2675 C 258.404 -2.3791 2.55343 0
M  V30 2676 C 259.752 -3.01637 2.98832 0
M  V30 2677 O 260.776 -2.48237 2.55455 0
M  V30 2678 O 259.635 -3.98477 3.74003 0
M  V30 2679 H 256.729 -0.626773 0.539523 0
M  V30 2680 H 259.275 -0.670317 1.559 0
M  V30 2681 H 258.047 -1.84525 3.4506 0
M  V30 2682 H 257.67 -3.18503 2.37995 0
M  V30 2683 N 258.668 -1.30515 -0.883378 0
M  V30 2684 C 259.917 -1.18795 -1.63005 0
M  V30 2685 C 260.23 0.255923 -1.93919 0
M  V30 2686 O 261.436 0.494654 -2.66956 0
M  V30 2687 C 259.892 -2.07878 -2.93794 0
M  V30 2688 C 259.5 -3.57184 -2.70414 0
M  V30 2689 C 261.244 -2.04924 -3.71761 0
M  V30 2690 C 259.151 -4.38317 -3.97029 0
M  V30 2691 H 258.081 -0.441031 -0.611562 0
M  V30 2692 H 260.732 -1.55275 -0.977854 0
M  V30 2693 H 259.114 -1.64283 -3.60315 0
M  V30 2694 H 260.288 -4.08937 -2.12384 0
M  V30 2695 H 258.603 -3.61976 -2.0582 0
M  V30 2696 H 261.2 -2.62792 -4.65665 0
M  V30 2697 H 261.543 -1.0331 -4.03277 0
M  V30 2698 H 262.076 -2.46649 -3.12104 0
M  V30 2699 H 258.815 -5.40632 -3.70671 0
M  V30 2700 H 258.335 -3.91326 -4.54559 0
M  V30 2701 H 260.014 -4.49834 -4.65036 0
M  V30 2702 N 260.146 1.09593 -1.13257 0
M  V30 2703 C 261.562 1.33775 -0.870423 0
M  V30 2704 C 261.762 1.95327 0.494926 0
M  V30 2705 O 260.818 2.19853 1.2418 0
M  V30 2706 C 262.131 2.25106 -1.99369 0
M  V30 2707 C 263.679 2.3862 -2.02558 0
M  V30 2708 C 264.154 3.33285 -3.14142 0
M  V30 2709 N 265.645 3.40857 -3.13641 0
M  V30 2710 C 266.38 4.14101 -3.96621 0
M  V30 2711 N 265.876 4.90157 -4.8961 0
M  V30 2712 N 267.669 4.09808 -3.84726 0
M  V30 2713 H 259.82 0.680136 -2.01216 0
M  V30 2714 H 262.083 0.362133 -0.876107 0
M  V30 2715 H 261.789 1.87103 -2.97801 0
M  V30 2716 H 261.663 3.25481 -1.90635 0
M  V30 2717 H 264.05 2.75887 -1.0474 0
M  V30 2718 H 264.131 1.38028 -2.15364 0
M  V30 2719 H 263.775 2.96741 -4.12198 0
M  V30 2720 H 263.705 4.33776 -2.98574 0
M  V30 2721 H 266.196 2.86624 -2.46282 0
M  V30 2722 H 266.509 5.4347 -5.49418 0
M  V30 2723 H 264.854 4.89251 -4.93617 0
M  V30 2724 H 268.045 3.4949 -3.11408 0
M  V30 2725 H 268.218 4.66629 -4.49623 0
M  V30 2726 N 261.624 0.925811 1.2754 0
M  V30 2727 C 262.587 0.428129 2.25166 0
M  V30 2728 C 263.587 -0.452261 1.54309 0
M  V30 2729 O 264.777 -0.253608 1.72344 0
M  V30 2730 C 261.909 -0.384749 3.38722 0
M  V30 2731 H 263.102 1.29066 2.70706 0
M  V30 2732 H 260.655 0.706323 1.3943 0
M  V30 2733 H 261.39 -1.26618 2.98561 0
M  V30 2734 H 261.175 0.246454 3.91325 0
M  V30 2735 H 262.665 -0.723389 4.11287 0
M  V30 2736 N 263.102 -1.41638 0.69111 0
M  V30 2737 C 264.049 -2.30789 0.0229705 0
M  V30 2738 C 265.019 -1.46863 -0.775911 0
M  V30 2739 O 266.204 -1.75661 -0.74485 0
M  V30 2740 C 263.344 -3.32868 -0.910666 0
M  V30 2741 C 262.457 -4.31875 -0.103874 0
M  V30 2742 C 261.592 -5.21024 -1.03475 0
M  V30 2743 C 260.631 -6.11702 -0.220598 0
M  V30 2744 N 259.768 -6.93349 -1.10504 0
M  V30 2745 H 264.608 -2.87366 0.788978 0
M  V30 2746 H 262.145 -1.41535 0.400794 0
M  V30 2747 H 264.103 -3.90596 -1.46597 0
M  V30 2748 H 262.733 -2.77851 -1.64312 0
M  V30 2749 H 261.785 -3.76131 0.568285 0
M  V30 2750 H 263.097 -4.96003 0.527504 0
M  V30 2751 H 262.251 -5.83565 -1.65943 0
M  V30 2752 H 260.99 -4.57112 -1.69999 0
M  V30 2753 H 259.995 -5.48215 0.417187 0
M  V30 2754 H 261.22 -6.77668 0.440784 0
M  V30 2755 H 259.166 -6.3205 -1.75638 0
M  V30 2756 H 259.083 -7.54146 -0.529125 0
M  V30 2757 H 260.351 -7.60362 -1.71667 0
M  V30 2758 N 264.58 -0.43555 -1.51462 0
M  V30 2759 C 265.527 0.376797 -2.27703 0
M  V30 2760 C 266.497 1.01838 -1.31219 0
M  V30 2761 O 267.682 1.03762 -1.60119 0
M  V30 2762 C 264.822 1.47301 -3.12084 0
M  V30 2763 C 263.935 0.849744 -4.2356 0
M  V30 2764 C 263.07 1.92086 -4.95254 0
M  V30 2765 C 262.109 1.27593 -5.98654 0
M  V30 2766 N 261.246 2.28833 -6.63762 0
M  V30 2767 H 266.086 -0.279734 -2.96684 0
M  V30 2768 H 263.623 -0.149795 -1.46335 0
M  V30 2769 H 265.581 2.11984 -3.59331 0
M  V30 2770 H 264.211 2.0992 -2.45221 0
M  V30 2771 H 263.263 0.0912529 -3.80291 0
M  V30 2772 H 264.575 0.338878 -4.97648 0
M  V30 2773 H 263.729 2.64435 -5.46039 0
M  V30 2774 H 262.468 2.46545 -4.20793 0
M  V30 2775 H 261.473 0.537893 -5.47162 0
M  V30 2776 H 262.698 0.738693 -6.7507 0
M  V30 2777 H 260.644 2.82375 -5.92115 0
M  V30 2778 H 260.561 1.82632 -7.33608 0
M  V30 2779 H 261.829 3.00671 -7.19178 0
M  V30 2780 N 266.058 1.56714 -0.166846 0
M  V30 2781 C 267.307 1.95922 0.479318 0
M  V30 2782 C 267.62 1.05529 1.6469 0
M  V30 2783 O 268.826 1.34399 2.35901 0
M  V30 2784 C 267.282 3.48359 0.90412 0
M  V30 2785 C 266.89 4.47369 -0.237621 0
M  V30 2786 C 268.634 3.96394 1.51896 0
M  V30 2787 C 266.541 5.91039 0.206561 0
M  V30 2788 H 265.471 0.731495 0.18284 0
M  V30 2789 H 268.122 1.81728 -0.254363 0
M  V30 2790 H 266.504 3.57955 1.69365 0
M  V30 2791 H 267.678 4.49485 -1.01489 0
M  V30 2792 H 265.993 4.09366 -0.762128 0
M  V30 2793 H 268.59 5.01186 1.86325 0
M  V30 2794 H 268.933 3.39075 2.41524 0
M  V30 2795 H 269.466 3.89796 0.79395 0
M  V30 2796 H 266.205 6.52221 -0.654834 0
M  V30 2797 H 265.725 5.9224 0.949282 0
M  V30 2798 H 267.404 6.43707 0.651939 0
M  V30 2799 N 267.536 -0.106894 1.57237 0
M  V30 2800 C 268.499 -1.11466 2.0027 0
M  V30 2801 C 269.499 -1.33623 0.894519 0
M  V30 2802 O 270.689 -1.29935 1.16028 0
M  V30 2803 C 267.821 -2.46646 2.35327 0
M  V30 2804 H 269.014 -0.744516 2.90512 0
M  V30 2805 H 266.567 -0.351576 1.52295 0
M  V30 2806 H 267.302 -2.88558 1.48003 0
M  V30 2807 H 267.087 -2.31915 3.16161 0
M  V30 2808 H 268.577 -3.19151 2.69318 0
M  V30 2809 N 269.014 -1.53014 -0.377408 0
M  V30 2810 C 270.239 -1.72818 -1.14668 0
M  V30 2811 C 270.664 -0.450725 -1.8262 0
M  V30 2812 O 270.022 0.59439 -1.7128 0
M  V30 2813 C 270.07 -2.88627 -2.16164 0
M  V30 2814 O 269.174 -2.56409 -3.22998 0
M  V30 2815 H 268.515 -0.574301 -0.333278 0
M  V30 2816 H 271.045 -1.99853 -0.438152 0
M  V30 2817 H 271.055 -3.14455 -2.59966 0
M  V30 2818 H 269.73 -3.81294 -1.66095 0
M  V30 2819 H 268.307 -2.4136 -2.84253 0
M  V30 2820 N 270.492 0.636531 -1.44174 0
M  V30 2821 C 271.741 1.39213 -1.45954 0
M  V30 2822 C 272.054 1.95374 -0.0939119 0
M  V30 2823 O 273.26 2.71498 0.0107767 0
M  V30 2824 C 271.716 2.52025 -2.56927 0
M  V30 2825 C 271.324 2.024 -3.99673 0
M  V30 2826 C 273.068 3.29269 -2.67922 0
M  V30 2827 C 270.975 3.12521 -5.0208 0
M  V30 2828 H 269.905 0.523132 -0.542999 0
M  V30 2829 H 272.556 0.685349 -1.70221 0
M  V30 2830 H 270.938 3.25253 -2.25891 0
M  V30 2831 H 272.112 1.36073 -4.40251 0
M  V30 2832 H 270.427 1.37987 -3.92872 0
M  V30 2833 H 273.024 4.11352 -3.41605 0
M  V30 2834 H 273.367 3.78397 -1.73555 0
M  V30 2835 H 273.9 2.63129 -2.98342 0
M  V30 2836 H 270.639 2.68343 -5.98057 0
M  V30 2837 H 270.159 3.77507 -4.66099 0
M  V30 2838 H 271.838 3.77385 -5.25538 0
M  V30 2839 N 271.97 1.30982 0.876444 0
M  V30 2840 C 272.933 1.18054 1.96459 0
M  V30 2841 C 273.933 0.109399 1.60427 0
M  V30 2842 O 275.123 0.358173 1.70478 0
M  V30 2843 C 272.255 0.810616 3.31122 0
M  V30 2844 H 273.448 2.14735 2.09354 0
M  V30 2845 H 271.001 1.145 1.06392 0
M  V30 2846 H 271.736 -0.155322 3.23928 0
M  V30 2847 H 271.521 1.58481 3.58645 0
M  V30 2848 H 273.011 0.743876 4.10921 0
M  V30 2849 N 273.449 -1.08991 1.13837 0
M  V30 2850 C 274.726 -1.77863 0.813876 0
M  V30 2851 C 275.106 -1.99375 -0.693746 0
M  V30 2852 O 274.454 -1.59875 -1.63255 0
M  V30 2853 C 274.664 -3.0986 1.60586 0
M  V30 2854 C 276.012 -3.84493 1.8014 0
M  V30 2855 O 277.036 -3.19624 1.57222 0
M  V30 2856 O 275.895 -5.00957 2.18413 0
M  V30 2857 H 272.989 -0.771589 0.297624 0
M  V30 2858 H 275.535 -1.15507 1.24323 0
M  V30 2859 H 274.307 -2.89715 2.63022 0
M  V30 2860 H 273.93 -3.79942 1.17173 0
M  V30 2861 N 274.927 -0.932562 -1.27047 0
M  V30 2862 C 276.173 -0.576412 -1.94436 0
M  V30 2863 C 276.506 0.880891 -1.73072 0
M  V30 2864 O 275.781 1.62905 -1.06264 0
M  V30 2865 C 276.064 -0.909031 -3.48437 0
M  V30 2866 C 275.917 -2.42044 -3.79123 0
M  V30 2867 C 277.236 -0.418341 -4.38107 0
M  V30 2868 H 274.355 -0.210888 -0.706184 0
M  V30 2869 H 276.997 -1.16522 -1.50075 0
M  V30 2870 H 275.147 -0.407947 -3.86352 0
M  V30 2871 H 276.819 -2.99359 -3.50973 0
M  V30 2872 H 275.062 -2.86758 -3.25503 0
M  V30 2873 H 275.733 -2.6037 -4.86736 0
M  V30 2874 H 278.209 -0.847856 -4.0737 0
M  V30 2875 H 277.085 -0.679981 -5.44672 0
M  V30 2876 H 277.346 0.681642 -4.36814 0
M  V30 2877 N 276.405 1.4127 -0.698611 0
M  V30 2878 C 277.645 2.03044 -0.235062 0
M  V30 2879 C 278.009 1.54146 1.14468 0
M  V30 2880 O 279.21 2.07867 1.70425 0
M  V30 2881 C 277.481 3.56192 -0.293651 0
M  V30 2882 S 279.04 4.38696 0.0954053 0
M  V30 2883 H 275.858 0.704697 -0.0944648 0
M  V30 2884 H 278.46 1.72656 -0.917064 0
M  V30 2885 H 277.164 3.89274 -1.29977 0
M  V30 2886 H 276.695 3.91285 0.407397 0
M  V30 2887 H 278.71 4.78257 1.3223 0
M  V30 2888 N 277.883 0.443576 1.51229 0
M  V30 2889 C 278.793 -0.370721 2.31652 0
M  V30 2890 C 279.809 -1.02186 1.40833 0
M  V30 2891 O 280.985 -1.01586 1.73903 0
M  V30 2892 C 278.05 -1.45376 3.14749 0
M  V30 2893 C 277.111 -0.822099 4.21355 0
M  V30 2894 C 276.344 -1.85353 5.0048 0
M  V30 2895 O 276.567 -3.07656 4.80316 0
M  V30 2896 O 275.501 -1.4406 5.84406 0
M  V30 2897 H 279.327 0.286002 3.0235 0
M  V30 2898 H 276.912 0.20598 1.47973 0
M  V30 2899 H 278.794 -2.08173 3.66391 0
M  V30 2900 H 277.469 -2.09445 2.46809 0
M  V30 2901 H 276.376 -0.155909 3.73775 0
M  V30 2902 H 277.709 -0.224797 4.91686 0
M  V30 2903 N 279.361 -1.56624 0.175154 0
M  V30 2904 C 280.586 -2.01813 -0.478137 0
M  V30 2905 C 281.011 -1.05457 -1.55757 0
M  V30 2906 O 280.369 -0.0347439 -1.81267 0
M  V30 2907 C 280.417 -3.45581 -1.02987 0
M  V30 2908 O 279.521 -3.52305 -2.14371 0
M  V30 2909 H 278.862 -0.65413 -0.114059 0
M  V30 2910 H 281.392 -2.02673 0.280173 0
M  V30 2911 H 281.402 -3.84965 -1.35151 0
M  V30 2912 H 280.077 -4.1521 -0.239556 0
M  V30 2913 H 278.654 -3.24783 -1.83222 0
M  V30 2914 N 280.839 0.0985539 -1.57292 0
M  V30 2915 C 281.772 1.15082 -1.97057 0
M  V30 2916 C 282.75 1.39025 -0.843255 0
M  V30 2917 O 283.934 1.52842 -1.10325 0
M  V30 2918 C 281.061 2.50069 -2.28437 0
M  V30 2919 C 280.107 2.42428 -3.509 0
M  V30 2920 S 280.94 1.84414 -5.02744 0
M  V30 2921 C 282.096 3.21032 -5.37298 0
M  V30 2922 H 282.329 0.811815 -2.86002 0
M  V30 2923 H 279.862 0.306102 -1.51335 0
M  V30 2924 H 281.82 3.27729 -2.47192 0
M  V30 2925 H 280.481 2.8114 -1.40069 0
M  V30 2926 H 279.674 3.41911 -3.70288 0
M  V30 2927 H 279.276 1.72896 -3.31637 0
M  V30 2928 H 281.568 4.17297 -5.33731 0
M  V30 2929 H 282.511 3.06452 -6.38352 0
M  V30 2930 H 282.919 3.20404 -4.64759 0
M  V30 2931 N 282.317 1.53212 0.369288 0
M  V30 2932 C 283.264 1.79388 1.45219 0
M  V30 2933 C 284.234 0.638059 1.53356 0
M  V30 2934 O 285.419 0.879852 1.69302 0
M  V30 2935 C 282.559 1.98623 2.82211 0
M  V30 2936 C 281.672 3.26337 2.8307 0
M  V30 2937 C 280.807 3.35779 4.11614 0
M  V30 2938 C 279.846 4.5754 4.06601 0
M  V30 2939 N 278.983 4.64155 5.26787 0
M  V30 2940 H 283.823 2.71794 1.22198 0
M  V30 2941 H 281.36 1.34642 0.592444 0
M  V30 2942 H 283.318 2.07761 3.61789 0
M  V30 2943 H 281.948 1.09558 3.03639 0
M  V30 2944 H 281 3.26171 1.95747 0
M  V30 2945 H 282.312 4.15988 2.75237 0
M  V30 2946 H 281.466 3.44208 4.99606 0
M  V30 2947 H 280.205 2.44137 4.22195 0
M  V30 2948 H 279.21 4.49215 3.16996 0
M  V30 2949 H 280.435 5.50519 3.97625 0
M  V30 2950 H 278.381 3.75413 5.3796 0
M  V30 2951 H 278.298 5.47706 5.21109 0
M  V30 2952 H 279.566 4.76863 6.16621 0
M  V30 2953 N 283.795 -0.628877 1.44509 0
M  V30 2954 C 284.705 -1.7694 1.54044 0
M  V30 2955 C 285.721 -1.68705 0.425987 0
M  V30 2956 O 286.897 -1.89442 0.683656 0
M  V30 2957 C 283.962 -3.13332 1.48405 0
M  V30 2958 C 283.023 -3.33181 2.70719 0
M  V30 2959 C 282.256 -4.63067 2.6534 0
M  V30 2960 O 282.479 -5.44017 1.71469 0
M  V30 2961 O 281.413 -4.85167 3.56226 0
M  V30 2962 H 285.239 -1.71848 2.50403 0
M  V30 2963 H 282.824 -0.790378 1.26781 0
M  V30 2964 H 284.706 -3.94634 1.47791 0
M  V30 2965 H 283.381 -3.1896 0.551898 0
M  V30 2966 H 282.288 -2.51549 2.769 0
M  V30 2967 H 283.621 -3.32416 3.62988 0
M  V30 2968 N 285.273 -1.31445 -0.869486 0
M  V30 2969 C 286.205 -1.14955 -1.98287 0
M  V30 2970 C 287.218 -0.0885037 -1.62559 0
M  V30 2971 O 288.407 -0.336044 -1.75308 0
M  V30 2972 C 285.507 -0.734255 -3.3085 0
M  V30 2973 C 284.68 -1.88042 -3.94917 0
M  V30 2974 C 283.739 -1.4511 -5.05796 0
M  V30 2975 O 282.765 -2.16082 -5.2659 0
M  V30 2976 N 283.967 -0.338763 -5.79511 0
M  V30 2977 H 286.732 -2.10856 -2.12979 0
M  V30 2978 H 284.293 -1.23786 -1.04349 0
M  V30 2979 H 286.285 -0.42975 -4.02412 0
M  V30 2980 H 284.855 0.133158 -3.12316 0
M  V30 2981 H 284.075 -2.35222 -3.1633 0
M  V30 2982 H 285.363 -2.6481 -4.34457 0
M  V30 2983 H 284.761 0.252274 -5.65137 0
M  V30 2984 H 283.318 -0.0937925 -6.51733 0
M  V30 2985 N 286.751 1.08385 -1.14413 0
M  V30 2986 C 287.681 2.17321 -0.854044 0
M  V30 2987 C 288.662 1.69024 0.191049 0
M  V30 2988 O 289.847 1.94141 0.0476779 0
M  V30 2989 C 286.977 3.45719 -0.330983 0
M  V30 2990 C 285.931 4.07409 -1.31155 0
M  V30 2991 C 285.257 5.30762 -0.64778 0
M  V30 2992 C 286.557 4.48665 -2.67388 0
M  V30 2993 H 288.251 2.41845 -1.76498 0
M  V30 2994 H 285.797 1.16233 -0.850051 0
M  V30 2995 H 287.75 4.21241 -0.115645 0
M  V30 2996 H 286.474 3.2075 0.615381 0
M  V30 2997 H 285.133 3.33919 -1.51306 0
M  V30 2998 H 284.781 5.02078 0.304398 0
M  V30 2999 H 284.481 5.72992 -1.30207 0
M  V30 3000 H 286.005 6.08998 -0.441972 0
M  V30 3001 H 287.419 5.15364 -2.51143 0
M  V30 3002 H 285.816 5.01814 -3.29093 0
M  V30 3003 H 286.886 3.60543 -3.24248 0
M  V30 3004 N 288.23 0.939286 1.26551 0
M  V30 3005 C 289.16 0.465044 2.28822 0
M  V30 3006 C 290.141 -0.480692 1.63167 0
M  V30 3007 O 291.326 -0.382955 1.90387 0
M  V30 3008 C 288.456 -0.27234 3.46231 0
M  V30 3009 C 287.41 0.58666 4.2396 0
M  V30 3010 C 286.736 -0.280573 5.33963 0
M  V30 3011 C 288.036 1.85704 4.88171 0
M  V30 3012 H 289.73 1.31979 2.68741 0
M  V30 3013 H 287.276 0.636061 1.29191 0
M  V30 3014 H 289.229 -0.615133 4.16886 0
M  V30 3015 H 287.953 -1.16121 3.0526 0
M  V30 3016 H 286.612 0.91232 3.55067 0
M  V30 3017 H 286.26 -1.16874 4.89234 0
M  V30 3018 H 285.96 0.29076 5.8688 0
M  V30 3019 H 287.484 -0.618678 6.07458 0
M  V30 3020 H 288.898 1.58161 5.51052 0
M  V30 3021 H 287.295 2.37279 5.51197 0
M  V30 3022 H 288.365 2.56957 4.11219 0
M  V30 3023 N 289.708 -1.40897 0.706093 0
M  V30 3024 C 290.954 -2.01352 0.241889 0
M  V30 3025 C 291.287 -1.55832 -1.15888 0
M  V30 3026 O 290.562 -0.774145 -1.7843 0
M  V30 3027 C 290.845 -3.58752 0.311311 0
M  V30 3028 C 290.698 -4.1437 1.74978 0
M  V30 3029 C 292.017 -4.38914 -0.322922 0
M  V30 3030 H 289.136 -0.731562 0.0893687 0
M  V30 3031 H 291.778 -1.67504 0.896802 0
M  V30 3032 H 289.928 -3.87718 -0.246302 0
M  V30 3033 H 291.6 -3.96239 2.36205 0
M  V30 3034 H 289.843 -3.69016 2.28057 0
M  V30 3035 H 290.514 -5.23532 1.74981 0
M  V30 3036 H 292.99 -4.15822 0.152089 0
M  V30 3037 H 291.866 -5.48358 -0.243855 0
M  V30 3038 H 292.127 -4.19176 -1.40513 0
M  V30 3039 N 291.186 -0.45159 -1.50991 0
M  V30 3040 C 292.116 0.342898 -2.30969 0
M  V30 3041 C 293.097 1.00815 -1.37005 0
M  V30 3042 O 294.282 1.00907 -1.65926 0
M  V30 3043 C 291.412 1.43637 -3.16205 0
M  V30 3044 C 290.366 0.893818 -4.18563 0
M  V30 3045 C 289.692 2.08411 -4.92411 0
M  V30 3046 C 290.992 -0.0815568 -5.22236 0
M  V30 3047 H 292.686 -0.324556 -2.97636 0
M  V30 3048 H 290.232 -0.157531 -1.43136 0
M  V30 3049 H 292.185 1.9995 -3.70942 0
M  V30 3050 H 290.909 2.13232 -2.47386 0
M  V30 3051 H 289.568 0.352798 -3.64898 0
M  V30 3052 H 289.216 2.76658 -4.20082 0
M  V30 3053 H 288.916 1.72741 -5.61636 0
M  V30 3054 H 290.44 2.65251 -5.49976 0
M  V30 3055 H 291.854 0.391742 -5.7196 0
M  V30 3056 H 290.251 -0.351551 -5.99069 0
M  V30 3057 H 291.321 -1.01374 -4.74185 0
M  V30 3058 N 292.664 1.56529 -0.183458 0
M  V30 3059 C 293.91 1.97537 0.459036 0
M  V30 3060 C 294.243 1.06989 1.62071 0
M  V30 3061 O 293.518 0.11948 1.94133 0
M  V30 3062 C 293.801 3.47874 0.930368 0
M  V30 3063 C 293.654 4.492 -0.232317 0
M  V30 3064 C 294.973 4.01612 1.79989 0
M  V30 3065 H 292.092 0.718204 0.165383 0
M  V30 3066 H 294.734 1.88042 -0.272038 0
M  V30 3067 H 292.884 3.56095 1.55333 0
M  V30 3068 H 294.556 4.53027 -0.86972 0
M  V30 3069 H 292.799 4.24657 -0.885928 0
M  V30 3070 H 293.47 5.51823 0.139796 0
M  V30 3071 H 295.946 3.96097 1.27461 0
M  V30 3072 H 294.822 5.07195 2.09867 0
M  V30 3073 H 295.083 3.46163 2.74998 0
M  V30 3074 N 294.142 -0.090211 1.57342 0
M  V30 3075 C 295.052 -1.12735 2.05738 0
M  V30 3076 C 296.068 -1.43557 0.983231 0
M  V30 3077 O 297.244 -1.54101 1.29672 0
M  V30 3078 C 294.309 -2.42659 2.47624 0
M  V30 3079 C 293.37 -2.18975 3.69254 0
M  V30 3080 C 292.603 -3.42704 4.09133 0
M  V30 3081 O 292.826 -4.51127 3.49057 0
M  V30 3082 O 291.76 -3.32003 5.02053 0
M  V30 3083 H 295.586 -0.746279 2.94388 0
M  V30 3084 H 293.171 -0.303064 1.46294 0
M  V30 3085 H 295.053 -3.19155 2.7517 0
M  V30 3086 H 293.728 -2.80182 1.62109 0
M  V30 3087 H 292.635 -1.40244 3.46818 0
M  V30 3088 H 293.968 -1.86342 4.55563 0
M  V30 3089 N 295.62 -1.53406 -0.361157 0
M  V30 3090 C 296.866 -1.70999 -1.1014 0
M  V30 3091 C 297.221 -0.458425 -1.86859 0
M  V30 3092 O 296.514 0.548654 -1.83577 0
M  V30 3093 C 296.708 -2.90211 -2.08596 0
M  V30 3094 C 296.537 -4.26841 -1.41553 0
M  V30 3095 C 295.307 -4.91621 -1.16778 0
M  V30 3096 C 297.505 -5.07212 -0.850915 0
M  V30 3097 N 295.487 -6.12164 -0.461312 0
M  V30 3098 C 296.858 -6.19394 -0.274046 0
M  V30 3099 C 298.913 -4.92218 -0.750036 0
M  V30 3100 C 297.616 -7.18221 0.393868 0
M  V30 3101 C 299.642 -5.91322 -0.095894 0
M  V30 3102 C 299.004 -7.0283 0.470081 0
M  V30 3103 H 295.103 -0.678939 -0.388028 0
M  V30 3104 H 297.687 -1.90811 -0.38722 0
M  V30 3105 H 295.858 -2.71931 -2.77323 0
M  V30 3106 H 297.59 -2.96606 -2.7533 0
M  V30 3107 H 294.345 -4.50849 -1.45024 0
M  V30 3108 H 294.769 -6.76888 -0.123312 0
M  V30 3109 H 299.411 -4.06192 -1.17337 0
M  V30 3110 H 297.129 -8.03835 0.82914 0
M  V30 3111 H 300.715 -5.81797 -0.0187075 0
M  V30 3112 H 299.595 -7.782 0.968241 0
M  V30 3113 N 297.098 0.621204 -1.44841 0
M  V30 3114 C 298.061 1.71459 -1.521 0
M  V30 3115 C 299.061 1.55696 -0.401933 0
M  V30 3116 O 300.251 1.61011 -0.664925 0
M  V30 3117 C 297.383 3.10624 -1.40447 0
M  V30 3118 H 298.576 1.66394 -2.49506 0
M  V30 3119 H 296.129 0.835745 -1.3208 0
M  V30 3120 H 296.864 3.21277 -0.441737 0
M  V30 3121 H 296.649 3.23473 -2.21602 0
M  V30 3122 H 298.139 3.90293 -1.4853 0
M  V30 3123 N 298.576 1.31904 0.862503 0
M  V30 3124 C 299.523 1.20182 1.9704 0
M  V30 3125 C 300.493 0.0858247 1.65878 0
M  V30 3126 O 301.678 0.26 1.8902 0
M  V30 3127 C 298.818 0.922797 3.32533 0
M  V30 3128 C 297.931 2.12284 3.76244 0
M  V30 3129 C 297.066 1.77996 5.00491 0
M  V30 3130 C 296.105 2.94366 5.36671 0
M  V30 3131 N 295.242 2.60223 6.52095 0
M  V30 3132 H 300.082 2.14951 2.06398 0
M  V30 3133 H 297.619 1.06917 1.01031 0
M  V30 3134 H 299.577 0.741548 4.10557 0
M  V30 3135 H 298.207 0.0119227 3.22798 0
M  V30 3136 H 297.259 2.41461 2.9394 0
M  V30 3137 H 298.571 2.99357 3.98982 0
M  V30 3138 H 297.725 1.56377 5.862 0
M  V30 3139 H 296.464 0.881252 4.79672 0
M  V30 3140 H 295.469 3.16625 4.49476 0
M  V30 3141 H 296.694 3.84957 5.59451 0
M  V30 3142 H 294.64 1.72884 6.32809 0
M  V30 3143 H 294.557 3.40827 6.74814 0
M  V30 3144 H 295.825 2.42016 7.40978 0
M  V30 3145 N 300.054 -1.07777 1.14986 0
M  V30 3146 C 301.284 -1.83752 0.944402 0
M  V30 3147 C 301.692 -1.8218 -0.51058 0
M  V30 3148 O 301.035 -1.22852 -1.36576 0
M  V30 3149 C 301.097 -3.32128 1.37592 0
M  V30 3150 C 300.761 -3.57425 2.84775 0
M  V30 3151 C 301.758 -3.5173 3.8286 0
M  V30 3152 C 299.443 -3.8523 3.2234 0
M  V30 3153 C 301.437 -3.73482 5.16517 0
M  V30 3154 C 299.124 -4.06634 4.56171 0
M  V30 3155 C 300.122 -4.00754 5.53069 0
M  V30 3156 O 299.81 -4.2159 6.84483 0
M  V30 3157 H 299.542 -0.58673 0.335744 0
M  V30 3158 H 302.096 -1.36982 1.53052 0
M  V30 3159 H 300.326 -3.79686 0.733165 0
M  V30 3160 H 302.015 -3.89555 1.14024 0
M  V30 3161 H 302.781 -3.30256 3.55184 0
M  V30 3162 H 298.66 -3.88923 2.47508 0
M  V30 3163 H 302.204 -3.68808 5.92137 0
M  V30 3164 H 298.101 -4.27593 4.83564 0
M  V30 3165 H 298.869 -4.38961 6.90837 0
M  V30 3166 N 301.532 -0.945985 -1.26051 0
M  V30 3167 C 302.781 -0.591836 -1.92822 0
M  V30 3168 C 303.094 0.873956 -1.7499 0
M  V30 3169 O 304.3 1.33769 -2.36259 0
M  V30 3170 C 302.756 -1.00776 -3.45503 0
M  V30 3171 C 302.364 -2.4955 -3.7206 0
M  V30 3172 C 304.108 -0.725735 -4.1825 0
M  V30 3173 C 302.015 -2.84988 -5.18205 0
M  V30 3174 H 300.945 -0.217635 -0.721908 0
M  V30 3175 H 303.596 -1.14927 -1.43052 0
M  V30 3176 H 301.978 -0.378812 -3.94184 0
M  V30 3177 H 303.152 -3.1739 -3.34066 0
M  V30 3178 H 301.467 -2.75133 -3.12555 0
M  V30 3179 H 304.064 -0.966771 -5.25887 0
M  V30 3180 H 304.407 0.337639 -4.14929 0
M  V30 3181 H 304.94 -1.31463 -3.7545 0
M  V30 3182 H 301.679 -3.90307 -5.26631 0
M  V30 3183 H 301.199 -2.21813 -5.57278 0
M  V30 3184 H 302.878 -2.73712 -5.86252 0
M  V30 3185 N 303.011 1.40521 -0.713556 0
M  V30 3186 C 304.422 1.83853 -0.324807 0
M  V30 3187 C 304.773 1.59667 1.14021 0
M  V30 3188 O 303.898 1.07649 1.87725 0
M  V30 3189 C 304.493 3.33751 -0.582746 0
M  V30 3190 C 303.052 3.75584 -0.247727 0
M  V30 3191 C 302.199 2.63753 -0.856121 0
M  V30 3192 H 305.15 1.29817 -0.91286 0
M  V30 3193 H 305.171 3.80194 0.152682 0
M  V30 3194 H 304.683 3.51322 -1.64908 0
M  V30 3195 H 302.784 3.63608 0.813624 0
M  V30 3196 H 302.897 4.7373 -0.715307 0
M  V30 3197 H 301.261 2.53108 -0.28432 0
M  V30 3198 H 302.044 2.84137 -1.92668 0
M  V30 3199 N 304.489 0.459591 1.5075 0
M  V30 3200 C 305.452 -0.329093 2.26825 0
M  V30 3201 C 306.452 -0.930481 1.31144 0
M  V30 3202 O 307.642 -0.801453 1.54669 0
M  V30 3203 C 304.774 -1.46768 3.07688 0
M  V30 3204 H 305.967 0.337924 2.9799 0
M  V30 3205 H 303.52 0.213336 1.54837 0
M  V30 3206 H 304.255 -2.17009 2.40993 0
M  V30 3207 H 304.04 -1.04238 3.77991 0
M  V30 3208 H 305.53 -2.02433 3.65254 0
M  V30 3209 N 305.967 -1.56429 0.191757 0
M  V30 3210 C 307.214 -1.97485 -0.447891 0
M  V30 3211 C 307.542 -1.07852 -1.61859 0
M  V30 3212 O 306.797 -0.116903 -1.95351 0
M  V30 3213 C 307.096 -3.44449 -0.953384 0
M  V30 3214 C 306.762 -4.50781 0.103586 0
M  V30 3215 C 305.424 -4.79584 0.394023 0
M  V30 3216 C 307.776 -5.1471 0.819946 0
M  V30 3217 C 305.104 -5.69607 1.40585 0
M  V30 3218 C 307.456 -6.05827 1.8209 0
M  V30 3219 C 306.12 -6.32987 2.11857 0
M  V30 3220 H 305.39 -0.722648 -0.163895 0
M  V30 3221 H 308.037 -1.89322 0.28802 0
M  V30 3222 H 306.342 -3.49666 -1.76751 0
M  V30 3223 H 308.039 -3.73569 -1.45765 0
M  V30 3224 H 304.629 -4.28394 -0.132951 0
M  V30 3225 H 308.813 -4.92552 0.608789 0
M  V30 3226 H 304.069 -5.88926 1.64243 0
M  V30 3227 H 308.243 -6.54424 2.38123 0
M  V30 3228 H 305.87 -7.02544 2.90407 0
M  V30 3229 N 307.445 0.0818655 -1.57387 0
M  V30 3230 C 308.685 0.788375 -1.88584 0
M  V30 3231 C 309.049 1.75248 -0.784351 0
M  V30 3232 O 310.25 2.50334 -0.979105 0
M  V30 3233 C 308.521 1.48654 -3.25018 0
M  V30 3234 S 310.08 2.22951 -3.7794 0
M  V30 3235 H 306.898 0.262383 -0.660815 0
M  V30 3236 H 309.5 0.0448995 -1.95448 0
M  V30 3237 H 308.204 0.770919 -4.03094 0
M  V30 3238 H 307.735 2.26965 -3.21326 0
M  V30 3239 H 309.75 3.49309 -3.52417 0
M  V30 3240 N 308.923 1.53595 0.353017 0
M  V30 3241 C 309.833 1.83897 1.45667 0
M  V30 3242 C 310.849 0.728334 1.58023 0
M  V30 3243 O 312.025 1.01968 1.73679 0
M  V30 3244 C 309.09 2.03383 2.80778 0
M  V30 3245 C 308.151 3.27262 2.77845 0
M  V30 3246 C 307.384 3.45809 4.06512 0
M  V30 3247 O 307.607 2.68387 5.03314 0
M  V30 3248 O 306.541 4.39207 4.11559 0
M  V30 3249 H 310.367 2.77686 1.2298 0
M  V30 3250 H 307.952 1.39132 0.544308 0
M  V30 3251 H 309.834 2.17698 3.60812 0
M  V30 3252 H 308.509 1.12783 3.03417 0
M  V30 3253 H 307.416 3.18359 1.96465 0
M  V30 3254 H 308.749 4.17824 2.60161 0
M  V30 3255 N 310.401 -0.613514 1.45168 0
M  V30 3256 C 311.331 -1.7354 1.56225 0
M  V30 3257 C 312.312 -1.64981 0.41414 0
M  V30 3258 O 313.497 -1.83472 0.636526 0
M  V30 3259 C 310.627 -3.12128 1.52295 0
M  V30 3260 C 309.581 -3.35491 2.65762 0
M  V30 3261 C 308.907 -4.74291 2.46885 0
M  V30 3262 C 310.207 -3.26325 4.0781 0
M  V30 3263 H 311.901 -1.64543 2.50132 0
M  V30 3264 H 309.447 -0.790185 1.20383 0
M  V30 3265 H 311.4 -3.90404 1.58628 0
M  V30 3266 H 310.124 -3.2195 0.549139 0
M  V30 3267 H 308.783 -2.59603 2.58847 0
M  V30 3268 H 308.431 -4.80839 1.47657 0
M  V30 3269 H 308.131 -4.9088 3.22972 0
M  V30 3270 H 309.655 -5.54775 2.55063 0
M  V30 3271 H 311.069 -3.94483 4.16 0
M  V30 3272 H 309.466 -3.54445 4.8424 0
M  V30 3273 H 310.536 -2.23855 4.30136 0
M  V30 3274 N 311.879 -1.3236 -0.855495 0
M  V30 3275 C 313.29 -1.2056 -1.42556 0
M  V30 3276 C 313.641 0.182209 -1.95352 0
M  V30 3277 O 312.766 1.08088 -1.87472 0
M  V30 3278 C 313.361 -2.1826 -2.59129 0
M  V30 3279 C 311.92 -2.10351 -3.12137 0
M  V30 3280 C 311.067 -2.06674 -1.84882 0
M  V30 3281 H 314.018 -1.442 -0.662727 0
M  V30 3282 H 314.039 -1.78064 -3.36264 0
M  V30 3283 H 313.551 -3.19257 -2.20673 0
M  V30 3284 H 311.652 -1.12599 -3.55179 0
M  V30 3285 H 311.765 -3.00135 -3.73438 0
M  V30 3286 H 310.129 -1.51901 -2.04446 0
M  V30 3287 H 310.912 -3.09451 -1.48643 0
M  V30 3288 N 313.357 1.07166 -1.15556 0
M  V30 3289 C 314.287 2.16403 -0.877046 0
M  V30 3290 C 315.268 1.69217 0.173111 0
M  V30 3291 O 316.453 1.94181 0.027084 0
M  V30 3292 C 313.583 3.45349 -0.367632 0
M  V30 3293 C 312.537 4.05995 -1.35468 0
M  V30 3294 C 311.863 5.30045 -0.704038 0
M  V30 3295 C 313.163 4.45804 -2.72132 0
M  V30 3296 H 314.857 2.39959 -1.79053 0
M  V30 3297 H 312.403 1.15325 -0.862331 0
M  V30 3298 H 314.356 4.21095 -0.160317 0
M  V30 3299 H 313.08 3.21385 0.581326 0
M  V30 3300 H 311.739 3.32296 -1.54839 0
M  V30 3301 H 311.387 5.02373 0.251128 0
M  V30 3302 H 311.087 5.71579 -1.36277 0
M  V30 3303 H 312.611 6.08495 -0.50654 0
M  V30 3304 H 314.025 5.12671 -2.56595 0
M  V30 3305 H 312.422 4.98296 -3.34397 0
M  V30 3306 H 313.492 3.57083 -3.28054 0
M  V30 3307 N 314.835 0.952656 1.25548 0
M  V30 3308 C 316.112 0.523818 1.88456 0
M  V30 3309 C 316.492 -0.998871 1.85973 0
M  V30 3310 O 315.84 -1.86381 1.3219 0
M  V30 3311 C 316.05 1.0982 3.31271 0
M  V30 3312 C 317.398 1.17385 4.08051 0
M  V30 3313 O 318.422 1.04961 3.40384 0
M  V30 3314 O 317.281 1.36852 5.29088 0
M  V30 3315 H 314.375 0.172485 0.808813 0
M  V30 3316 H 316.921 1.04596 1.33633 0
M  V30 3317 H 315.693 2.1415 3.27499 0
M  V30 3318 H 315.316 0.559191 3.93648 0
M  V30 3319 N 316.313 -1.40141 0.720998 0
M  V30 3320 C 317.59 -1.94677 0.189757 0
M  V30 3321 C 317.97 -1.65879 -1.30566 0
M  V30 3322 O 317.318 -0.979391 -2.06447 0
M  V30 3323 C 317.528 -3.45279 0.508304 0
M  V30 3324 C 318.876 -4.22209 0.449934 0
M  V30 3325 O 319.9 -3.53413 0.444677 0
M  V30 3326 O 318.759 -5.44788 0.432189 0
M  V30 3327 H 315.853 -0.826459 0.0299026 0
M  V30 3328 H 318.399 -1.49719 0.7989 0
M  V30 3329 H 317.171 -3.59619 1.54239 0
M  V30 3330 H 316.794 -3.97386 -0.130525 0
M  V30 3331 N 317.792 -0.46758 -1.50504 0
M  V30 3332 C 318.724 0.364655 -2.26281 0
M  V30 3333 C 319.737 0.960151 -1.31472 0
M  V30 3334 O 320.926 0.849153 -1.57008 0
M  V30 3335 C 318.026 1.52509 -3.02645 0
M  V30 3336 C 317.199 1.04302 -4.24782 0
M  V30 3337 C 316.258 2.07709 -4.8347 0
M  V30 3338 O 315.284 1.65913 -5.44483 0
M  V30 3339 N 316.486 3.40485 -4.70159 0
M  V30 3340 H 319.251 -0.28495 -2.98342 0
M  V30 3341 H 316.812 -0.298163 -1.59131 0
M  V30 3342 H 318.804 2.21371 -3.38787 0
M  V30 3343 H 317.374 2.07945 -2.33404 0
M  V30 3344 H 316.594 0.180393 -3.93787 0
M  V30 3345 H 317.882 0.698798 -5.03978 0
M  V30 3346 H 317.28 3.77155 -4.21629 0
M  V30 3347 H 315.837 4.05156 -5.1058 0
M  V30 3348 N 319.27 1.56325 -0.20005 0
M  V30 3349 C 320.516 1.98012 0.438059 0
M  V30 3350 C 320.849 1.08702 1.60927 0
M  V30 3351 O 320.124 0.140064 1.93995 0
M  V30 3352 C 320.407 3.48841 0.893419 0
M  V30 3353 C 320.26 4.48928 -0.279947 0
M  V30 3354 C 321.579 4.03498 1.75719 0
M  V30 3355 H 318.698 0.719918 0.157757 0
M  V30 3356 H 321.34 1.87743 -0.291968 0
M  V30 3357 H 319.49 3.57723 1.51547 0
M  V30 3358 H 321.162 4.52079 -0.91772 0
M  V30 3359 H 319.405 4.23694 -0.930919 0
M  V30 3360 H 320.076 5.5194 0.0812601 0
M  V30 3361 H 322.552 3.97427 1.23253 0
M  V30 3362 H 321.428 5.09393 2.04476 0
M  V30 3363 H 321.689 3.4906 2.71311 0
M  V30 3364 N 320.748 -0.0735177 1.57428 0
M  V30 3365 C 321.711 -1.07192 2.02589 0
M  V30 3366 C 322.711 -1.31695 0.922661 0
M  V30 3367 O 323.901 -1.27445 1.18758 0
M  V30 3368 C 321.033 -2.41599 2.40506 0
M  V30 3369 H 322.226 -0.682727 2.92025 0
M  V30 3370 H 319.779 -0.319193 1.53006 0
M  V30 3371 H 320.514 -2.85354 1.5409 0
M  V30 3372 H 320.299 -2.25156 3.21009 0
M  V30 3373 H 321.789 -3.13367 2.76027 0
M  V30 3374 N 322.226 -1.5378 -0.344866 0
M  V30 3375 C 323.156 -1.84662 -1.42906 0
M  V30 3376 C 324.137 -0.701648 -1.54955 0
M  V30 3377 O 325.322 -0.953438 -1.69184 0
M  V30 3378 C 322.452 -2.05503 -2.79974 0
M  V30 3379 C 321.406 -3.21318 -2.82734 0
M  V30 3380 C 320.732 -3.2749 -4.22675 0
M  V30 3381 C 322.032 -4.59456 -2.48389 0
M  V30 3382 H 323.726 -2.75461 -1.17311 0
M  V30 3383 H 321.272 -1.32542 -0.562896 0
M  V30 3384 H 323.225 -2.25691 -3.55867 0
M  V30 3385 H 321.949 -1.11434 -3.07002 0
M  V30 3386 H 320.608 -3.00984 -2.09294 0
M  V30 3387 H 320.256 -2.31019 -4.4681 0
M  V30 3388 H 319.956 -4.05316 -4.25433 0
M  V30 3389 H 321.48 -3.49887 -5.00412 0
M  V30 3390 H 322.894 -4.79667 -3.13995 0
M  V30 3391 H 321.291 -5.39675 -2.62432 0
M  V30 3392 H 322.361 -4.63155 -1.4358 0
M  V30 3393 N 323.704 0.605807 -1.45491 0
M  V30 3394 C 324.634 1.72709 -1.57143 0
M  V30 3395 C 325.615 1.6476 -0.422884 0
M  V30 3396 O 326.8 1.83132 -0.646247 0
M  V30 3397 C 323.93 3.11316 -1.53948 0
M  V30 3398 C 322.884 3.34077 -2.67537 0
M  V30 3399 C 322.21 4.72975 -2.49397 0
M  V30 3400 C 323.51 3.24158 -4.09535 0
M  V30 3401 H 325.204 1.63214 -2.51001 0
M  V30 3402 H 322.75 0.78379 -1.208 0
M  V30 3403 H 324.703 3.89557 -1.60696 0
M  V30 3404 H 323.427 3.21655 -0.566205 0
M  V30 3405 H 322.086 2.58227 -2.6022 0
M  V30 3406 H 321.734 4.8005 -1.50205 0
M  V30 3407 H 321.434 4.8916 -3.25571 0
M  V30 3408 H 322.958 5.53414 -2.58002 0
M  V30 3409 H 324.372 3.92271 -4.18086 0
M  V30 3410 H 322.769 3.51872 -4.86113 0
M  V30 3411 H 323.839 2.2157 -4.31317 0
M  V30 3412 N 325.182 1.32811 0.848464 0
M  V30 3413 C 326.598 1.11937 1.13764 0
M  V30 3414 C 326.798 -0.0960789 2.01271 0
M  V30 3415 O 325.854 -0.779165 2.40178 0
M  V30 3416 C 327.167 2.402 1.809 0
M  V30 3417 C 328.715 2.46016 1.93508 0
M  V30 3418 C 329.19 3.74215 2.64059 0
M  V30 3419 N 330.681 3.75232 2.71579 0
M  V30 3420 C 331.416 4.71134 3.26833 0
M  V30 3421 N 330.912 5.77406 3.8285 0
M  V30 3422 N 332.705 4.58623 3.24995 0
M  V30 3423 H 324.856 2.1073 0.265855 0
M  V30 3424 H 327.119 0.930671 0.180431 0
M  V30 3425 H 326.825 3.29093 1.24058 0
M  V30 3426 H 326.699 2.51628 2.81004 0
M  V30 3427 H 329.086 1.57577 2.49506 0
M  V30 3428 H 329.167 2.38536 0.923811 0
M  V30 3429 H 328.811 4.63031 2.08722 0
M  V30 3430 H 328.741 3.78968 3.65637 0
M  V30 3431 H 331.232 2.98423 2.31845 0
M  V30 3432 H 331.545 6.46632 4.23187 0
M  V30 3433 H 329.89 5.81152 3.81165 0
M  V30 3434 H 333.081 3.74762 2.80484 0
M  V30 3435 H 333.254 5.33535 3.67756 0
M  V30 3436 N 326.66 -1.06551 1.16123 0
M  V30 3437 C 327.623 -2.12132 0.867906 0
M  V30 3438 C 328.623 -1.60224 -0.135944 0
M  V30 3439 O 329.813 -1.73943 0.0946422 0
M  V30 3440 C 326.945 -3.396 0.297419 0
M  V30 3441 H 328.138 -2.39586 1.80385 0
M  V30 3442 H 325.691 -1.22574 0.969812 0
M  V30 3443 H 326.426 -3.17794 -0.64633 0
M  V30 3444 H 326.211 -3.78581 1.02073 0
M  V30 3445 H 327.701 -4.17455 0.110052 0
M  V30 3446 N 328.138 -0.959301 -1.25041 0
M  V30 3447 C 329.088 -0.453888 -2.23436 0
M  V30 3448 C 330.072 0.459461 -1.542 0
M  V30 3449 O 331.264 0.291752 -1.74579 0
M  V30 3450 C 328.393 0.262667 -3.42294 0
M  V30 3451 C 327.479 -0.669022 -4.1879 0
M  V30 3452 N 327.87 -1.80267 -4.72586 0
M  V30 3453 C 326.168 -0.47814 -4.4343 0
M  V30 3454 C 326.869 -2.38475 -5.3057 0
M  V30 3455 N 325.845 -1.67078 -5.17287 0
M  V30 3456 H 329.647 -1.319 -2.6264 0
M  V30 3457 H 327.161 -0.817358 -1.40332 0
M  V30 3458 H 329.158 0.641911 -4.11929 0
M  V30 3459 H 327.818 1.12432 -3.04613 0
M  V30 3460 H 328.829 -2.18442 -4.69578 0
M  V30 3461 H 325.506 0.340249 -4.16111 0
M  V30 3462 H 326.896 -3.34094 -5.8295 0
M  V30 3463 N 329.616 1.39756 -0.72842 0
M  V30 3464 C 330.579 2.29012 -0.0927297 0
M  V30 3465 C 331.579 1.45992 0.674025 0
M  V30 3466 O 332.769 1.66749 0.50402 0
M  V30 3467 C 329.901 3.29396 0.878137 0
M  V30 3468 H 331.094 2.86729 -0.879011 0
M  V30 3469 H 328.647 1.48293 -0.493847 0
M  V30 3470 H 329.382 2.76722 1.69101 0
M  V30 3471 H 329.167 3.907 0.331051 0
M  V30 3472 H 330.657 3.96199 1.3197 0
M  V30 3473 N 331.094 0.475555 1.50254 0
M  V30 3474 C 332.342 -0.077738 2.0195 0
M  V30 3475 C 332.663 -1.39813 1.35931 0
M  V30 3476 O 331.933 -1.89249 0.506123 0
M  V30 3477 H 330.513 -0.031719 0.746326 0
M  V30 3478 H 333.175 0.626995 1.84539 0
M  V30 3479 H 332.271 -0.225995 3.11281 0
M  V30 3480 N 332.573 -1.56217 0.208337 0
M  V30 3481 C 333.483 -2.23316 -0.718836 0
M  V30 3482 C 334.499 -1.23648 -1.22422 0
M  V30 3483 O 335.675 -1.56423 -1.26861 0
M  V30 3484 C 332.74 -2.88968 -1.91568 0
M  V30 3485 C 331.801 -4.03943 -1.45357 0
M  V30 3486 C 331.034 -4.66455 -2.59337 0
M  V30 3487 O 331.257 -4.27919 -3.77149 0
M  V30 3488 O 330.191 -5.55686 -2.31293 0
M  V30 3489 H 334.017 -3.03182 -0.177315 0
M  V30 3490 H 331.602 -1.49384 -0.0215402 0
M  V30 3491 H 333.484 -3.30455 -2.61491 0
M  V30 3492 H 332.159 -2.12071 -2.44556 0
M  V30 3493 H 331.066 -3.67052 -0.722746 0
M  V30 3494 H 332.399 -4.82543 -0.970219 0
M  V30 3495 N 334.051 0.0651679 -1.57465 0
M  V30 3496 C 335.001 1.0838 -2.00594 0
M  V30 3497 C 335.985 1.34106 -0.889071 0
M  V30 3498 O 337.177 1.34295 -1.15299 0
M  V30 3499 C 334.306 2.39565 -2.45894 0
M  V30 3500 C 333.392 2.17085 -3.64328 0
M  V30 3501 N 333.783 1.64553 -4.78285 0
M  V30 3502 C 332.081 2.4753 -3.71006 0
M  V30 3503 C 332.782 1.57042 -5.60101 0
M  V30 3504 N 331.758 2.03328 -5.04141 0
M  V30 3505 H 335.56 0.671062 -2.86136 0
M  V30 3506 H 333.074 0.27213 -1.60104 0
M  V30 3507 H 335.071 3.13308 -2.75034 0
M  V30 3508 H 333.731 2.81549 -1.61741 0
M  V30 3509 H 334.742 1.33323 -5.00445 0
M  V30 3510 H 331.419 2.92835 -2.9758 0
M  V30 3511 H 332.809 1.17223 -6.61595 0
M  V30 3512 N 335.529 1.53961 0.336706 0
M  V30 3513 C 336.459 1.85417 1.41925 0
M  V30 3514 C 337.44 0.709856 1.5458 0
M  V30 3515 O 338.625 0.962396 1.68676 0
M  V30 3516 C 335.755 2.06985 2.78881 0
M  V30 3517 C 334.709 3.22813 2.81026 0
M  V30 3518 C 334.035 3.29727 4.20932 0
M  V30 3519 C 335.335 4.60767 2.45949 0
M  V30 3520 H 337.029 2.76079 1.15848 0
M  V30 3521 H 334.575 1.32839 0.555859 0
M  V30 3522 H 336.528 2.27575 3.54665 0
M  V30 3523 H 335.252 1.13061 3.06406 0
M  V30 3524 H 333.911 3.0209 2.07695 0
M  V30 3525 H 333.559 2.33385 4.45579 0
M  V30 3526 H 333.259 4.07566 4.23277 0
M  V30 3527 H 334.783 3.52536 4.98549 0
M  V30 3528 H 336.197 4.81325 3.11446 0
M  V30 3529 H 334.594 5.4106 2.59566 0
M  V30 3530 H 335.664 4.6391 1.41122 0
M  V30 3531 N 337.007 -0.598083 1.45811 0
M  V30 3532 C 337.937 -1.71873 1.58057 0
M  V30 3533 C 338.918 -1.64533 0.431615 0
M  V30 3534 O 340.103 -1.82787 0.65595 0
M  V30 3535 C 337.233 -3.10495 1.55597 0
M  V30 3536 C 336.187 -3.32654 2.69305 0
M  V30 3537 C 335.513 -4.71646 2.51902 0
M  V30 3538 C 336.813 -3.21981 4.11248 0
M  V30 3539 H 338.507 -1.61881 2.51863 0
M  V30 3540 H 336.053 -0.777372 1.21214 0
M  V30 3541 H 338.006 -3.88699 1.6276 0
M  V30 3542 H 336.73 -3.2135 0.583255 0
M  V30 3543 H 335.389 -2.56843 2.61586 0
M  V30 3544 H 335.037 -4.79246 1.52748 0
M  V30 3545 H 334.737 -4.87426 3.2816 0
M  V30 3546 H 336.261 -5.52038 2.60933 0
M  V30 3547 H 337.675 -3.90049 4.20161 0
M  V30 3548 H 336.072 -3.49289 4.87972 0
M  V30 3549 H 337.142 -2.1928 4.32486 0
M  V30 3550 N 338.485 -1.33259 -0.841409 0
M  V30 3551 C 339.415 -1.25926 -1.96634 0
M  V30 3552 C 340.396 -0.140349 -1.6952 0
M  V30 3553 O 341.581 -0.329707 -1.91381 0
M  V30 3554 C 338.711 -0.99512 -3.32738 0
M  V30 3555 C 337.665 -2.0767 -3.74242 0
M  V30 3556 C 336.991 -1.66474 -5.08125 0
M  V30 3557 C 338.291 -3.49318 -3.88297 0
M  V30 3558 H 339.985 -2.20046 -2.03027 0
M  V30 3559 H 337.531 -1.05931 -0.975425 0
M  V30 3560 H 339.484 -0.930323 -4.11002 0
M  V30 3561 H 338.208 -0.0183004 -3.26595 0
M  V30 3562 H 336.867 -2.13187 -2.98239 0
M  V30 3563 H 336.515 -0.675012 -4.9845 0
M  V30 3564 H 336.215 -2.3885 -5.36865 0
M  V30 3565 H 337.739 -1.61455 -5.88867 0
M  V30 3566 H 339.153 -3.46316 -4.56879 0
M  V30 3567 H 337.55 -4.20158 -4.28471 0
M  V30 3568 H 338.62 -3.8801 -2.9082 0
M  V30 3569 N 339.963 1.05934 -1.16686 0
M  V30 3570 C 341.211 1.78447 -0.948744 0
M  V30 3571 C 341.532 1.87813 0.524523 0
M  V30 3572 O 340.802 1.38945 1.38098 0
M  V30 3573 H 339.382 0.660971 -0.348033 0
M  V30 3574 H 342.044 1.27947 -1.47022 0
M  V30 3575 H 341.14 2.80394 -1.37061 0
M  V30 3576 N 341.441 0.965919 1.2453 0
M  V30 3577 C 342.404 0.499547 2.2369 0
M  V30 3578 C 343.404 -0.40294 1.5567 0
M  V30 3579 O 344.594 -0.19865 1.73064 0
M  V30 3580 C 341.726 -0.276792 3.39774 0
M  V30 3581 H 342.919 1.37613 2.66463 0
M  V30 3582 H 340.472 0.750324 1.37112 0
M  V30 3583 H 341.207 -1.17055 3.02438 0
M  V30 3584 H 340.992 0.370826 3.90343 0
M  V30 3585 H 342.482 -0.592175 4.1338 0
M  V30 3586 N 342.919 -1.39368 0.735821 0
M  V30 3587 C 344.147 -2.04795 0.294393 0
M  V30 3588 C 344.562 -1.55478 -1.07107 0
M  V30 3589 O 343.919 -0.720038 -1.67695 0
M  V30 3590 C 343.97 -3.6035 0.288071 0
M  V30 3591 O 343.691 -4.07852 1.59963 0
M  V30 3592 C 345.192 -4.42976 -0.169422 0
M  V30 3593 H 342.412 -0.658571 0.128551 0
M  V30 3594 H 344.956 -1.78399 0.999701 0
M  V30 3595 H 343.111 -3.85645 -0.368355 0
M  V30 3596 H 343.525 -5.02181 1.51375 0
M  V30 3597 H 344.999 -5.51864 -0.122687 0
M  V30 3598 H 345.476 -4.22068 -1.21472 0
M  V30 3599 H 346.082 -4.22832 0.457469 0
M  V30 3600 N 344.397 -0.483516 -1.5 0
M  V30 3601 C 345.344 0.304164 -2.28787 0
M  V30 3602 C 346.314 0.976114 -1.34392 0
M  V30 3603 O 347.499 0.986156 -1.63339 0
M  V30 3604 C 344.639 1.37298 -3.16612 0
M  V30 3605 C 343.752 0.714561 -4.26049 0
M  V30 3606 C 342.887 1.76232 -5.01114 0
M  V30 3607 C 341.926 1.08483 -6.0241 0
M  V30 3608 N 341.063 2.076 -6.70706 0
M  V30 3609 H 345.903 -0.373981 -2.95644 0
M  V30 3610 H 343.44 -0.196275 -1.45785 0
M  V30 3611 H 345.398 2.00445 -3.65893 0
M  V30 3612 H 344.028 2.02012 -2.51776 0
M  V30 3613 H 343.08 -0.0297798 -3.80388 0
M  V30 3614 H 344.392 0.180383 -4.98474 0
M  V30 3615 H 343.546 2.46929 -5.54176 0
M  V30 3616 H 342.285 2.33033 -4.28424 0
M  V30 3617 H 341.29 0.363545 -5.48597 0
M  V30 3618 H 342.515 0.523551 -6.77079 0
M  V30 3619 H 340.461 2.63394 -6.00799 0
M  V30 3620 H 340.378 1.59201 -7.39047 0
M  V30 3621 H 341.646 2.77639 -7.2838 0
M  V30 3622 N 345.875 1.56104 -0.216619 0
M  V30 3623 C 347.291 1.58995 0.13886 0
M  V30 3624 C 347.491 1.23333 1.59346 0
M  V30 3625 O 346.547 0.966234 2.33281 0
M  V30 3626 C 347.86 3.00143 -0.182968 0
M  V30 3627 C 349.408 3.12751 -0.124807 0
M  V30 3628 C 349.883 4.56068 -0.420241 0
M  V30 3629 N 351.374 4.61723 -0.369634 0
M  V30 3630 C 352.109 5.70542 -0.571789 0
M  V30 3631 N 351.605 6.87744 -0.835453 0
M  V30 3632 N 353.398 5.59831 -0.504563 0
M  V30 3633 H 345.549 1.77562 -1.16557 0
M  V30 3634 H 347.812 0.825091 -0.466828 0
M  V30 3635 H 347.518 3.30871 -1.19237 0
M  V30 3636 H 347.392 3.73813 0.504367 0
M  V30 3637 H 349.779 2.81822 0.875223 0
M  V30 3638 H 349.86 2.41421 -0.845544 0
M  V30 3639 H 349.504 4.87713 -1.41769 0
M  V30 3640 H 349.434 5.25617 0.321631 0
M  V30 3641 H 351.925 3.77502 -0.173338 0
M  V30 3642 H 352.238 7.66587 -0.977938 0
M  V30 3643 H 350.583 6.895 -0.872592 0
M  V30 3644 H 353.774 4.67145 -0.298842 0
M  V30 3645 H 353.947 6.44573 -0.665519 0
M  V30 3646 N 347.353 -0.0568162 1.57498 0
M  V30 3647 C 348.578 -0.769402 1.92601 0
M  V30 3648 C 349.003 -1.69559 0.814336 0
M  V30 3649 O 348.361 -1.79811 -0.231903 0
M  V30 3650 C 348.409 -1.52634 3.26704 0
M  V30 3651 O 347.513 -2.63797 3.16994 0
M  V30 3652 H 346.854 -0.208909 0.63028 0
M  V30 3653 H 349.384 -0.0205798 2.0459 0
M  V30 3654 H 349.394 -1.90234 3.60936 0
M  V30 3655 H 348.069 -0.846875 4.07186 0
M  V30 3656 H 346.646 -2.28943 2.94346 0
M  V30 3657 N 348.832 -1.54138 -0.328536 0
M  V30 3658 C 349.765 -1.78014 -1.4278 0
M  V30 3659 C 350.743 -0.629889 -1.49904 0
M  V30 3660 O 351.927 -0.866763 -1.6739 0
M  V30 3661 C 349.054 -1.89225 -2.80912 0
M  V30 3662 C 348.1 -3.11483 -2.91343 0
M  V30 3663 S 348.933 -4.70201 -2.56263 0
M  V30 3664 C 350.089 -4.84312 -3.96476 0
M  V30 3665 H 350.322 -2.70974 -1.22313 0
M  V30 3666 H 347.855 -1.45197 -0.525084 0
M  V30 3667 H 349.813 -1.9637 -3.60485 0
M  V30 3668 H 348.474 -0.972518 -2.98665 0
M  V30 3669 H 347.667 -3.16046 -3.92595 0
M  V30 3670 H 347.269 -3.02642 -2.19736 0
M  V30 3671 H 349.561 -4.66643 -4.91173 0
M  V30 3672 H 350.504 -5.86411 -3.96898 0
M  V30 3673 H 350.912 -4.12652 -3.85199 0
M  V30 3674 N 350.31 0.590341 -1.46126 0
M  V30 3675 C 351.556 1.35082 -1.51264 0
M  V30 3676 C 351.889 1.93534 -0.160711 0
M  V30 3677 O 351.164 1.76045 0.826956 0
M  V30 3678 C 351.447 2.48588 -2.6053 0
M  V30 3679 C 351.3 1.95221 -4.05227 0
M  V30 3680 C 352.619 3.50662 -2.6594 0
M  V30 3681 H 349.738 0.489803 -0.550692 0
M  V30 3682 H 352.38 0.663887 -1.78024 0
M  V30 3683 H 350.53 3.07186 -2.37843 0
M  V30 3684 H 352.202 1.41139 -4.39178 0
M  V30 3685 H 350.445 1.26101 -4.15068 0
M  V30 3686 H 351.116 2.77121 -4.77397 0
M  V30 3687 H 353.592 3.01934 -2.86313 0
M  V30 3688 H 352.468 4.27551 -3.44226 0
M  V30 3689 H 352.729 4.07399 -1.71694 0
M  V30 3690 N 351.788 1.33704 0.83433 0
M  V30 3691 C 353.035 1.25417 1.58987 0
M  V30 3692 C 353.363 -0.178869 1.93676 0
M  V30 3693 O 352.618 -1.13723 1.59265 0
M  V30 3694 C 352.917 2.07926 2.90692 0
M  V30 3695 C 352.583 3.57066 2.75345 0
M  V30 3696 C 351.245 3.97724 2.70867 0
M  V30 3697 C 353.597 4.51817 2.59828 0
M  V30 3698 C 350.925 5.31344 2.48778 0
M  V30 3699 C 353.277 5.85604 2.39272 0
M  V30 3700 C 351.941 6.25439 2.33199 0
M  V30 3701 H 351.211 0.458934 0.581774 0
M  V30 3702 H 353.858 1.65335 0.966261 0
M  V30 3703 H 352.163 1.608 3.57282 0
M  V30 3704 H 353.86 1.98868 3.48213 0
M  V30 3705 H 350.45 3.24785 2.79665 0
M  V30 3706 H 354.634 4.21311 2.62319 0
M  V30 3707 H 349.89 5.61241 2.42526 0
M  V30 3708 H 354.064 6.58623 2.2625 0
M  V30 3709 H 351.691 7.28914 2.15843 0
M  V30 3710 N 353.266 -1.05314 1.17247 0
M  V30 3711 C 354.213 -2.13031 0.888058 0
M  V30 3712 C 355.183 -1.65253 -0.167537 0
M  V30 3713 O 356.368 -1.90775 -0.0305974 0
M  V30 3714 C 353.508 -3.42702 0.406147 0
M  V30 3715 C 352.621 -4.04161 1.52572 0
M  V30 3716 C 351.756 -5.21744 0.997808 0
M  V30 3717 C 350.795 -5.75207 2.09291 0
M  V30 3718 N 349.932 -6.84094 1.57986 0
M  V30 3719 H 354.772 -2.36698 1.81048 0
M  V30 3720 H 352.309 -1.16121 0.903013 0
M  V30 3721 H 354.267 -4.17059 0.108305 0
M  V30 3722 H 352.897 -3.19222 -0.479313 0
M  V30 3723 H 351.949 -3.27253 1.93931 0
M  V30 3724 H 353.261 -4.39881 2.35172 0
M  V30 3725 H 352.415 -6.03168 0.653739 0
M  V30 3726 H 351.154 -4.87495 0.141232 0
M  V30 3727 H 350.159 -4.92414 2.44557 0
M  V30 3728 H 351.384 -6.11505 2.95362 0
M  V30 3729 H 349.33 -6.51745 0.74598 0
M  V30 3730 H 349.247 -7.18811 2.34195 0
M  V30 3731 H 350.515 -7.69172 1.26468 0
M  V30 3732 N 354.744 -0.972509 -1.24016 0
M  V30 3733 C 356.021 -0.553733 -1.87598 0
M  V30 3734 C 356.401 0.969158 -1.87538 0
M  V30 3735 O 355.749 1.84255 -1.35139 0
M  V30 3736 C 355.959 -1.15076 -3.29482 0
M  V30 3737 C 357.307 -1.23862 -4.06132 0
M  V30 3738 O 358.331 -1.10363 -3.38672 0
M  V30 3739 O 357.19 -1.45252 -5.26844 0
M  V30 3740 H 354.284 -0.185331 -0.805966 0
M  V30 3741 H 356.83 -1.06709 -1.31952 0
M  V30 3742 H 355.602 -2.19333 -3.2405 0
M  V30 3743 H 355.225 -0.621746 -3.92709 0
M  V30 3744 N 356.222 1.38976 -0.743202 0
M  V30 3745 C 357.468 2.0064 -0.295189 0
M  V30 3746 C 357.801 1.5885 1.11716 0
M  V30 3747 O 357.076 0.821181 1.76315 0
M  V30 3748 C 357.359 3.578 -0.406318 0
M  V30 3749 C 357.212 4.09586 -1.85903 0
M  V30 3750 C 358.531 4.39616 0.206439 0
M  V30 3751 H 355.65 0.728935 -0.108733 0
M  V30 3752 H 358.292 1.65067 -0.940897 0
M  V30 3753 H 356.442 3.88235 0.143419 0
M  V30 3754 H 358.114 3.89837 -2.46627 0
M  V30 3755 H 356.357 3.6284 -2.3776 0
M  V30 3756 H 357.028 5.18708 -1.888 0
M  V30 3757 H 359.504 4.15273 -0.262283 0
M  V30 3758 H 358.38 5.48812 0.0983819 0
M  V30 3759 H 358.641 4.22754 1.2935 0
M  V30 3760 N 357.7 0.491464 1.49741 0
M  V30 3761 C 358.63 -0.28154 2.31796 0
M  V30 3762 C 359.611 -0.971473 1.3963 0
M  V30 3763 O 360.796 -0.964719 1.68543 0
M  V30 3764 C 357.926 -1.35203 3.19902 0
M  V30 3765 C 356.88 -0.782529 4.20786 0
M  V30 3766 C 356.206 -1.95283 4.97764 0
M  V30 3767 C 357.506 0.21999 5.21837 0
M  V30 3768 H 359.2 0.403355 2.96671 0
M  V30 3769 H 356.746 0.195425 1.42668 0
M  V30 3770 H 358.699 -1.90045 3.76113 0
M  V30 3771 H 357.423 -2.06598 2.52953 0
M  V30 3772 H 356.082 -0.255928 3.65706 0
M  V30 3773 H 355.73 -2.65423 4.2727 0
M  V30 3774 H 355.43 -1.57789 5.66018 0
M  V30 3775 H 356.954 -2.50577 5.56816 0
M  V30 3776 H 358.368 -0.23996 5.72798 0
M  V30 3777 H 356.765 0.51026 5.97927 0
M  V30 3778 H 357.835 1.13911 4.7133 0
M  V30 3779 N 359.178 -1.55987 0.224894 0
M  V30 3780 C 360.108 -2.23426 -0.678457 0
M  V30 3781 C 361.089 -1.20709 -1.19847 0
M  V30 3782 O 362.274 -1.49304 -1.24186 0
M  V30 3783 C 359.404 -2.91676 -1.88527 0
M  V30 3784 C 358.358 -4.00893 -1.49896 0
M  V30 3785 C 357.684 -4.56455 -2.78483 0
M  V30 3786 C 358.984 -5.17769 -0.686461 0
M  V30 3787 H 360.678 -2.99175 -0.116173 0
M  V30 3788 H 358.224 -1.43897 -0.054436 0
M  V30 3789 H 360.177 -3.37547 -2.5227 0
M  V30 3790 H 358.901 -2.1338 -2.47258 0
M  V30 3791 H 357.56 -3.55758 -0.884985 0
M  V30 3792 H 357.208 -3.74886 -3.35365 0
M  V30 3793 H 356.908 -5.30169 -2.53368 0
M  V30 3794 H 358.432 -5.05047 -3.43162 0
M  V30 3795 H 359.846 -5.60001 -1.22767 0
M  V30 3796 H 358.243 -5.97735 -0.532259 0
M  V30 3797 H 359.313 -4.83932 0.306196 0
M  V30 3798 N 360.656 0.0484629 -1.57525 0
M  V30 3799 C 361.586 1.0549 -2.08313 0
M  V30 3800 C 362.567 1.38929 -0.981463 0
M  V30 3801 O 363.752 1.48151 -1.25558 0
M  V30 3802 C 360.882 2.36162 -2.54646 0
M  V30 3803 C 359.836 2.17016 -3.68901 0
M  V30 3804 C 359.162 3.53278 -4.01371 0
M  V30 3805 C 360.462 1.57219 -4.98076 0
M  V30 3806 H 362.156 0.632195 -2.92649 0
M  V30 3807 H 359.702 0.302654 -1.40784 0
M  V30 3808 H 361.655 3.06882 -2.88793 0
M  V30 3809 H 360.379 2.80456 -1.67368 0
M  V30 3810 H 359.038 1.48733 -3.35073 0
M  V30 3811 H 358.686 3.95185 -3.11188 0
M  V30 3812 H 358.386 3.41299 -4.78318 0
M  V30 3813 H 359.91 4.25391 -4.38035 0
M  V30 3814 H 361.324 2.17832 -5.30304 0
M  V30 3815 H 359.721 1.55871 -5.79503 0
M  V30 3816 H 360.791 0.535956 -4.81929 0
M  V30 3817 N 362.134 1.5431 0.320358 0
M  V30 3818 C 363.382 1.72327 1.05583 0
M  V30 3819 C 363.703 0.50149 1.88441 0
M  V30 3820 O 362.973 -0.48448 1.89815 0
M  V30 3821 H 361.553 0.635387 0.3928 0
M  V30 3822 H 364.215 1.91621 0.356019 0
M  V30 3823 H 363.311 2.60426 1.72003 0
M  V30 3824 N 363.613 -0.582584 1.46437 0
M  V30 3825 C 364.561 -1.71272 1.5738 0
M  V30 3826 C 365.555 -1.63524 0.44229 0
M  V30 3827 O 366.761 -1.69016 0.619166 0
M  V30 3828 H 363.136 -0.566273 0.494813 0
M  V30 3829 H 365.107 -1.59174 2.52401 0
M  V30 3830 C 363.856 -3.09658 1.58136 0
M  V30 3831 H 363.179 -3.16291 2.44541 0
M  V30 3832 H 364.619 -3.88494 1.69847 0
M  V30 3833 C 363.078 -3.3547 0.310026 0
M  V30 3834 O 363.608 -3.97199 -0.599683 0
M  V30 3835 N 361.814 -2.89925 0.197901 0
M  V30 3836 H 361.361 -2.39873 0.93909 0
M  V30 3837 H 361.319 -3.07568 -0.65185 0
M  V30 3838 N 365.091 -1.34144 -0.827227 0
M  V30 3839 C 366.368 -1.16844 -1.56865 0
M  V30 3840 C 366.748 0.260654 -2.09485 0
M  V30 3841 O 366.096 1.26138 -1.9053 0
M  V30 3842 C 366.306 -2.21939 -2.6934 0
M  V30 3843 C 367.654 -2.56695 -3.3822 0
M  V30 3844 O 368.678 -2.20695 -2.79593 0
M  V30 3845 O 367.537 -3.18518 -4.44082 0
M  V30 3846 H 364.631 -0.452669 -0.692112 0
M  V30 3847 H 367.177 -1.45763 -0.868973 0
M  V30 3848 H 365.949 -3.17882 -2.28182 0
M  V30 3849 H 365.572 -1.94172 -3.46962 0
M  V30 3850 N 366.569 1.04691 -1.17803 0
M  V30 3851 C 367.799 1.81183 -0.992788 0
M  V30 3852 C 368.207 1.8347 0.462098 0
M  V30 3853 O 367.55 1.2643 1.33271 0
M  V30 3854 C 367.612 3.28363 -1.46349 0
M  V30 3855 C 367.276 3.49749 -2.94151 0
M  V30 3856 C 368.273 3.41456 -3.92051 0
M  V30 3857 C 365.958 3.76548 -3.32441 0
M  V30 3858 C 367.952 3.59656 -5.26238 0
M  V30 3859 C 365.639 3.94396 -4.66792 0
M  V30 3860 C 366.637 3.8595 -5.635 0
M  V30 3861 O 366.325 4.03294 -6.9542 0
M  V30 3862 H 366.057 0.577622 -0.351182 0
M  V30 3863 H 368.611 1.32876 -1.5663 0
M  V30 3864 H 366.841 3.77609 -0.833574 0
M  V30 3865 H 368.53 3.86395 -1.24313 0
M  V30 3866 H 369.296 3.20723 -3.63815 0
M  V30 3867 H 365.175 3.82224 -2.57732 0
M  V30 3868 H 368.719 3.52979 -6.01707 0
M  V30 3869 H 364.616 4.14622 -4.94731 0
M  V30 3870 H 365.384 4.2049 -7.02232 0
M  V30 3871 N 368.047 0.979072 1.23499 0
M  V30 3872 C 369.296 0.642751 1.91185 0
M  V30 3873 C 369.609 -0.827253 1.77245 0
M  V30 3874 O 370.815 -1.27458 2.39722 0
M  V30 3875 C 369.271 1.09901 3.42709 0
M  V30 3876 C 368.879 2.59327 3.65313 0
M  V30 3877 C 370.623 0.836371 4.16179 0
M  V30 3878 C 368.53 2.98627 5.10467 0
M  V30 3879 H 367.46 0.236698 0.715884 0
M  V30 3880 H 370.111 1.1868 1.39955 0
M  V30 3881 H 368.493 0.48319 3.93041 0
M  V30 3882 H 369.667 3.26136 3.25533 0
M  V30 3883 H 367.982 2.83323 3.05151 0
M  V30 3884 H 370.579 1.10586 5.23139 0
M  V30 3885 H 370.922 -0.227509 4.15678 0
M  V30 3886 H 371.455 1.41371 3.71832 0
M  V30 3887 H 368.194 4.04133 5.16098 0
M  V30 3888 H 367.714 2.3651 5.51201 0
M  V30 3889 H 369.393 2.89159 5.78788 0
M  V30 3890 N 369.525 -1.3858 0.750561 0
M  V30 3891 C 370.771 -2.00481 0.305825 0
M  V30 3892 C 371.104 -1.5944 -1.10872 0
M  V30 3893 O 370.379 -0.83052 -1.75877 0
M  V30 3894 C 370.662 -3.5758 0.425287 0
M  V30 3895 C 370.515 -4.08594 1.88072 0
M  V30 3896 C 371.834 -4.39719 -0.183122 0
M  V30 3897 H 368.953 -0.728348 0.112598 0
M  V30 3898 H 371.595 -1.64566 0.949638 0
M  V30 3899 H 369.745 -3.88306 -0.122828 0
M  V30 3900 H 371.417 -3.88523 2.48691 0
M  V30 3901 H 369.66 -3.61574 2.39681 0
M  V30 3902 H 370.331 -5.177 1.91548 0
M  V30 3903 H 372.807 -4.15128 0.284303 0
M  V30 3904 H 371.683 -5.48856 -0.0692757 0
M  V30 3905 H 371.944 -4.23434 -1.27106 0
M  V30 3906 N 371.003 -0.499398 -1.49478 0
M  V30 3907 C 372.414 -0.051215 -1.8663 0
M  V30 3908 C 372.765 1.36238 -1.41186 0
M  V30 3909 O 371.89 2.01502 -0.789051 0
M  V30 3910 C 372.485 -0.0861651 -3.3869 0
M  V30 3911 C 371.044 0.30667 -3.75149 0
M  V30 3912 C 370.191 -0.459397 -2.73468 0
M  V30 3913 H 373.142 -0.712264 -1.41818 0
M  V30 3914 H 373.163 0.709507 -3.73826 0
M  V30 3915 H 372.675 -1.11512 -3.71735 0
M  V30 3916 H 370.776 1.33892 -3.47712 0
M  V30 3917 H 370.889 -0.0116669 -4.79099 0
M  V30 3918 H 369.253 0.0905645 -2.54539 0
M  V30 3919 H 370.036 -1.4884 -3.09357 0
M  V30 3920 N 372.481 1.55866 -0.233164 0
M  V30 3921 C 373.897 1.59133 0.121988 0
M  V30 3922 C 374.097 1.25016 1.58029 0
M  V30 3923 O 373.153 0.990922 2.32243 0
M  V30 3924 C 374.466 2.99932 -0.214792 0
M  V30 3925 C 376.014 3.12601 -0.157971 0
M  V30 3926 C 376.489 4.55597 -0.46859 0
M  V30 3927 N 377.98 4.61305 -0.418585 0
M  V30 3928 C 378.715 5.69903 -0.63227 0
M  V30 3929 N 378.211 6.86819 -0.90835 0
M  V30 3930 N 380.004 5.59264 -0.563913 0
M  V30 3931 H 372.155 1.76315 -1.18434 0
M  V30 3932 H 374.418 0.820093 -0.475553 0
M  V30 3933 H 374.124 3.29588 -1.22739 0
M  V30 3934 H 373.998 3.74327 0.464691 0
M  V30 3935 H 376.385 2.82735 0.845283 0
M  V30 3936 H 376.466 2.40511 -0.871102 0
M  V30 3937 H 376.11 4.86182 -1.46934 0
M  V30 3938 H 376.04 5.25928 0.265865 0
M  V30 3939 H 378.531 3.77297 -0.213368 0
M  V30 3940 H 378.844 7.65507 -1.05919 0
M  V30 3941 H 377.189 6.88536 -0.945673 0
M  V30 3942 H 380.38 4.66802 -0.348372 0
M  V30 3943 H 380.553 6.43831 -0.733847 0
M  V30 3944 N 373.959 -0.0401083 1.57549 0
M  V30 3945 C 374.909 -1.05175 2.02292 0
M  V30 3946 C 375.893 -1.32674 0.910294 0
M  V30 3947 O 377.085 -1.32444 1.17421 0
M  V30 3948 C 374.214 -2.35622 2.49674 0
M  V30 3949 C 373.3 -2.11261 3.67736 0
M  V30 3950 N 373.691 -1.56923 4.80842 0
M  V30 3951 C 371.989 -2.41596 3.74897 0
M  V30 3952 C 372.69 -1.48111 5.62528 0
M  V30 3953 N 371.666 -1.95282 5.07312 0
M  V30 3954 H 375.468 -0.625455 2.87168 0
M  V30 3955 H 372.982 -0.246624 1.60516 0
M  V30 3956 H 374.979 -3.08893 2.79983 0
M  V30 3957 H 373.639 -2.7894 1.662 0
M  V30 3958 H 374.65 -1.25345 5.02503 0
M  V30 3959 H 371.327 -2.88064 3.02201 0
M  V30 3960 H 372.717 -1.06683 6.63377 0
M  V30 3961 N 375.437 -1.54477 -0.31217 0
M  V30 3962 C 376.677 -1.74958 -1.05684 0
M  V30 3963 C 377.041 -0.518414 -1.84869 0
M  V30 3964 O 378.242 -0.600759 -2.62001 0
M  V30 3965 C 376.513 -2.99656 -1.94785 0
M  V30 3966 S 378.072 -3.4109 -2.76049 0
M  V30 3967 H 374.89 -0.615104 -0.356606 0
M  V30 3968 H 377.492 -1.92669 -0.331514 0
M  V30 3969 H 376.196 -3.87397 -1.35468 0
M  V30 3970 H 375.727 -2.845 -2.71704 0
M  V30 3971 H 377.742 -2.97283 -3.97287 0
M  V30 3972 N 376.915 0.57481 -1.46744 0
M  V30 3973 C 378.326 1.15695 -1.46532 0
M  V30 3974 C 378.677 1.95068 -0.210425 0
M  V30 3975 O 377.802 2.05241 0.685944 0
M  V30 3976 C 378.397 2.1048 -2.65487 0
M  V30 3977 C 376.956 2.64002 -2.68291 0
M  V30 3978 C 376.103 1.40026 -2.39349 0
M  V30 3979 H 379.054 0.362325 -1.54509 0
M  V30 3980 H 379.075 2.94074 -2.41455 0
M  V30 3981 H 378.587 1.52683 -3.56805 0
M  V30 3982 H 376.688 3.25646 -1.81067 0
M  V30 3983 H 376.801 3.06197 -3.68483 0
M  V30 3984 H 375.165 1.70106 -1.89568 0
M  V30 3985 H 375.948 0.840485 -3.32852 0
M  V30 3986 N 378.394 1.34581 0.820102 0
M  V30 3987 C 379.304 1.28471 1.96297 0
M  V30 3988 C 380.32 0.191902 1.72939 0
M  V30 3989 O 381.496 0.418879 1.96996 0
M  V30 3990 C 378.561 1.04281 3.30645 0
M  V30 3991 C 377.622 2.22745 3.66992 0
M  V30 3992 C 376.855 1.997 4.9493 0
M  V30 3993 O 377.078 0.956656 5.6232 0
M  V30 3994 O 376.012 2.86723 5.2922 0
M  V30 3995 H 379.838 2.24624 2.04396 0
M  V30 3996 H 377.423 1.14816 0.955913 0
M  V30 3997 H 379.305 0.925841 4.11104 0
M  V30 3998 H 377.98 0.111697 3.23507 0
M  V30 3999 H 376.887 2.40003 2.86966 0
M  V30 4000 H 378.22 3.14257 3.78819 0
M  V30 4001 N 379.872 -1.04064 1.18357 0
M  V30 4002 C 380.802 -2.14001 0.934113 0
M  V30 4003 C 381.783 -1.69616 -0.128186 0
M  V30 4004 O 382.968 -1.94185 0.0244093 0
M  V30 4005 C 380.098 -3.44253 0.459066 0
M  V30 4006 C 379.052 -4.02261 1.46185 0
M  V30 4007 C 378.378 -5.27992 0.844322 0
M  V30 4008 C 379.678 -4.38432 2.83856 0
M  V30 4009 H 381.372 -2.35127 1.85352 0
M  V30 4010 H 378.918 -1.12998 0.892604 0
M  V30 4011 H 380.871 -4.20522 0.271907 0
M  V30 4012 H 379.595 -3.22813 -0.495912 0
M  V30 4013 H 378.254 -3.28074 1.63595 0
M  V30 4014 H 377.902 -5.02862 -0.117845 0
M  V30 4015 H 377.602 -5.67765 1.51384 0
M  V30 4016 H 379.126 -6.06938 0.667693 0
M  V30 4017 H 380.54 -5.05688 2.70098 0
M  V30 4018 H 378.937 -4.89254 3.47491 0
M  V30 4019 H 380.007 -3.4826 3.37406 0
M  V30 4020 N 381.35 -0.985608 -1.22978 0
M  V30 4021 C 382.313 -0.535071 -2.22867 0
M  V30 4022 C 383.313 0.378123 -1.56291 0
M  V30 4023 O 384.503 0.171092 -1.73358 0
M  V30 4024 C 381.635 0.222702 -3.40172 0
M  V30 4025 H 382.828 -1.41835 -2.6424 0
M  V30 4026 H 380.381 -0.772042 -1.35901 0
M  V30 4027 H 381.116 1.12229 -3.04262 0
M  V30 4028 H 380.901 -0.43288 -3.89703 0
M  V30 4029 H 382.391 0.526335 -4.1427 0
M  V30 4030 N 382.828 1.3818 -0.7579 0
M  V30 4031 C 383.738 2.3421 -0.135247 0
M  V30 4032 C 384.754 1.59487 0.695683 0
M  V30 4033 O 385.93 1.91657 0.618832 0
M  V30 4034 C 382.995 3.3862 0.744139 0
M  V30 4035 C 382.056 4.2918 -0.101658 0
M  V30 4036 C 381.289 5.28603 0.735851 0
M  V30 4037 O 381.512 5.35166 1.97366 0
M  V30 4038 O 380.446 6.01707 0.152372 0
M  V30 4039 H 384.272 2.8916 -0.928436 0
M  V30 4040 H 381.857 1.40101 -0.518855 0
M  V30 4041 H 383.739 4.02539 1.2466 0
M  V30 4042 H 382.414 2.86019 1.51575 0
M  V30 4043 H 381.321 3.68407 -0.650167 0
M  V30 4044 H 382.654 4.85048 -0.836024 0
M  V30 4045 N 384.306 0.507319 1.49211 0
M  V30 4046 C 385.239 -0.314509 2.26022 0
M  V30 4047 C 386.217 -0.964849 1.30879 0
M  V30 4048 O 387.401 -0.993707 1.6018 0
M  V30 4049 C 384.528 -1.44346 3.06402 0
M  V30 4050 C 383.574 -0.90685 4.16748 0
M  V30 4051 S 384.407 0.207392 5.35098 0
M  V30 4052 C 385.563 -0.924573 6.19033 0
M  V30 4053 H 385.796 0.337416 2.95379 0
M  V30 4054 H 383.329 0.292718 1.516 0
M  V30 4055 H 385.287 -2.09029 3.53295 0
M  V30 4056 H 383.948 -2.06702 2.36502 0
M  V30 4057 H 383.141 -1.75309 4.72528 0
M  V30 4058 H 382.743 -0.33712 3.72478 0
M  V30 4059 H 385.035 -1.82839 6.52362 0
M  V30 4060 H 385.978 -0.405248 7.06939 0
M  V30 4061 H 386.386 -1.19476 5.51712 0
M  V30 4062 N 385.784 -1.5574 0.241426 0
M  V30 4063 C 387.009 -2.0366 -0.392111 0
M  V30 4064 C 387.434 -1.11969 -1.51144 0
M  V30 4065 O 386.792 -0.111594 -1.80956 0
M  V30 4066 C 386.84 -3.49638 -0.882371 0
M  V30 4067 O 385.944 -3.6108 -1.99235 0
M  V30 4068 H 385.285 -0.658379 -0.0862122 0
M  V30 4069 H 387.815 -2.01302 0.365881 0
M  V30 4070 H 387.825 -3.90351 -1.18702 0
M  V30 4071 H 386.5 -4.15852 -0.0632361 0
M  V30 4072 H 385.077 -3.32262 -1.69282 0
M  V30 4073 N 387.262 0.0317525 -1.57568 0
M  V30 4074 C 388.678 0.38735 -1.54828 0
M  V30 4075 C 388.878 1.7677 -0.967187 0
M  V30 4076 O 387.934 2.45581 -0.587063 0
M  V30 4077 C 389.247 0.291667 -2.99282 0
M  V30 4078 C 390.795 0.368946 -3.10818 0
M  V30 4079 C 391.27 0.302741 -4.56998 0
M  V30 4080 N 392.761 0.361617 -4.61786 0
M  V30 4081 C 393.496 0.333238 -5.72431 0
M  V30 4082 N 392.992 0.257308 -6.92322 0
M  V30 4083 N 394.785 0.382769 -5.60795 0
M  V30 4084 H 386.936 -0.871609 -1.93692 0
M  V30 4085 H 389.199 -0.331161 -0.888277 0
M  V30 4086 H 388.905 -0.656794 -3.45513 0
M  V30 4087 H 388.779 1.08638 -3.61217 0
M  V30 4088 H 391.166 1.30784 -2.64536 0
M  V30 4089 H 391.247 -0.455066 -2.5172 0
M  V30 4090 H 390.891 -0.632473 -5.03947 0
M  V30 4091 H 390.821 1.14482 -5.14005 0
M  V30 4092 H 393.312 0.422923 -3.75526 0
M  V30 4093 H 393.625 0.24068 -7.72425 0
M  V30 4094 H 391.97 0.223396 -6.94641 0
M  V30 4095 H 395.161 0.44006 -4.66027 0
M  V30 4096 H 395.334 0.357184 -6.47015 0
M  V30 4097 N 388.74 1.54641 0.303973 0
M  V30 4098 C 389.986 1.74038 1.04109 0
M  V30 4099 C 390.319 0.523051 1.87024 0
M  V30 4100 O 389.594 -0.479874 1.88487 0
M  V30 4101 C 389.877 3.02761 1.94955 0
M  V30 4102 C 389.73 4.34787 1.1524 0
M  V30 4103 C 391.049 3.27336 2.94175 0
M  V30 4104 H 388.168 0.63323 0.377079 0
M  V30 4105 H 390.81 1.87354 0.316001 0
M  V30 4106 H 388.96 2.9154 2.56782 0
M  V30 4107 H 390.632 4.57922 0.557236 0
M  V30 4108 H 388.875 4.31407 0.455053 0
M  V30 4109 H 389.546 5.21116 1.8205 0
M  V30 4110 H 392.022 3.38148 2.42477 0
M  V30 4111 H 390.898 4.18726 3.54908 0
M  V30 4112 H 391.159 2.45491 3.67677 0
M  V30 4113 N 390.218 -0.567019 1.47046 0
M  V30 4114 C 391.443 -1.3551 1.57009 0
M  V30 4115 C 391.868 -1.86841 0.217259 0
M  V30 4116 O 391.226 -1.62435 -0.805268 0
M  V30 4117 C 391.274 -2.50777 2.5912 0
M  V30 4118 O 390.378 -3.52706 2.13711 0
M  V30 4119 H 389.719 -0.402919 0.52778 0
M  V30 4120 H 392.249 -0.686241 1.92748 0
M  V30 4121 H 392.259 -2.97481 2.79229 0
M  V30 4122 H 390.934 -2.12771 3.57353 0
M  V30 4123 H 389.511 -3.12374 2.03659 0
M  V30 4124 N 391.696 -1.35014 -0.812953 0
M  V30 4125 C 392.945 -1.27269 -1.56479 0
M  V30 4126 C 393.258 0.152771 -1.95002 0
M  V30 4127 O 394.464 0.352451 -2.69203 0
M  V30 4128 C 392.92 -2.23159 -2.82362 0
M  V30 4129 C 392.528 -3.71016 -2.511 0
M  V30 4130 C 394.272 -2.24342 -3.60376 0
M  V30 4131 C 392.179 -4.58746 -3.73237 0
M  V30 4132 H 391.109 -0.472829 -0.587324 0
M  V30 4133 H 393.76 -1.6024 -0.894171 0
M  V30 4134 H 392.142 -1.83151 -3.51101 0
M  V30 4135 H 393.316 -4.1962 -1.90409 0
M  V30 4136 H 391.631 -3.72378 -1.86343 0
M  V30 4137 H 394.228 -2.87107 -4.51081 0
M  V30 4138 H 394.571 -1.24542 -3.97234 0
M  V30 4139 H 395.104 -2.62846 -2.98591 0
M  V30 4140 H 391.843 -5.59521 -3.41492 0
M  V30 4141 H 391.363 -4.14871 -4.33176 0
M  V30 4142 H 393.042 -4.73852 -4.40537 0
M  V30 4143 N 393.175 1.03435 -1.18907 0
M  V30 4144 C 394.591 1.28973 -0.940111 0
M  V30 4145 C 394.791 1.97676 0.390691 0
M  V30 4146 O 393.847 2.26127 1.12352 0
M  V30 4147 C 395.16 2.14221 -2.11021 0
M  V30 4148 C 396.708 2.27547 -2.14922 0
M  V30 4149 C 397.183 3.16164 -3.31367 0
M  V30 4150 N 398.674 3.23752 -3.31269 0
M  V30 4151 C 399.409 3.92495 -4.18014 0
M  V30 4152 N 398.905 4.63515 -5.14904 0
M  V30 4153 N 400.698 3.88838 -4.05908 0
M  V30 4154 H 392.849 0.57252 -2.04538 0
M  V30 4155 H 395.112 0.315184 -0.894071 0
M  V30 4156 H 394.818 1.71054 -3.073 0
M  V30 4157 H 394.692 3.14919 -2.0762 0
M  V30 4158 H 397.079 2.69947 -1.19217 0
M  V30 4159 H 397.16 1.26418 -2.22378 0
M  V30 4160 H 396.804 2.74474 -4.27348 0
M  V30 4161 H 396.734 4.17339 -3.21148 0
M  V30 4162 H 399.225 2.73167 -2.61129 0
M  V30 4163 H 399.538 5.13583 -5.77453 0
M  V30 4164 H 397.883 4.62398 -5.18857 0
M  V30 4165 H 401.074 3.32491 -3.29495 0
M  V30 4166 H 401.247 4.4214 -4.73726 0
M  V30 4167 N 394.653 0.992116 1.22453 0
M  V30 4168 C 395.902 0.662992 1.90492 0
M  V30 4169 C 396.215 -0.808407 1.78113 0
M  V30 4170 O 397.421 -1.24908 2.41061 0
M  V30 4171 C 395.877 1.1353 3.41524 0
M  V30 4172 C 395.485 2.63187 3.62542 0
M  V30 4173 C 397.229 0.880465 4.15269 0
M  V30 4174 C 395.136 3.04024 5.0727 0
M  V30 4175 H 394.066 0.244278 0.713333 0
M  V30 4176 H 396.717 1.20157 1.38688 0
M  V30 4177 H 395.099 0.52485 3.92506 0
M  V30 4178 H 396.273 3.2957 3.22056 0
M  V30 4179 H 394.588 2.86543 3.02129 0
M  V30 4180 H 397.185 1.16128 5.21937 0
M  V30 4181 H 397.528 -0.183408 4.15896 0
M  V30 4182 H 398.061 1.45307 3.70312 0
M  V30 4183 H 394.8 4.09584 5.11782 0
M  V30 4184 H 394.32 2.42343 5.48662 0
M  V30 4185 H 395.999 2.95282 5.75689 0
M  V30 4186 N 396.131 -1.37776 0.765217 0
M  V30 4187 C 397.061 -2.32945 0.160953 0
M  V30 4188 C 398.042 -1.55454 -0.690516 0
M  V30 4189 O 399.227 -1.83721 -0.629318 0
M  V30 4190 C 396.357 -3.39669 -0.724031 0
M  V30 4191 C 395.311 -4.27992 0.0256173 0
M  V30 4192 C 394.637 -5.25673 -0.978383 0
M  V30 4193 C 395.937 -5.08309 1.20082 0
M  V30 4194 H 397.631 -2.83728 0.955969 0
M  V30 4195 H 395.177 -1.36416 0.461149 0
M  V30 4196 H 397.13 -4.05219 -1.15652 0
M  V30 4197 H 395.854 -2.87396 -1.5515 0
M  V30 4198 H 394.513 -3.63964 0.438812 0
M  V30 4199 H 394.161 -4.69682 -1.80022 0
M  V30 4200 H 393.861 -5.85625 -0.481378 0
M  V30 4201 H 395.385 -5.94098 -1.40995 0
M  V30 4202 H 396.799 -5.67034 0.845307 0
M  V30 4203 H 395.196 -5.77554 1.62947 0
M  V30 4204 H 396.266 -4.41365 2.00811 0
M  V30 4205 N 397.609 -0.515225 -1.4894 0
M  V30 4206 C 398.886 0.0879088 -1.95402 0
M  V30 4207 C 399.266 1.52745 -1.45712 0
M  V30 4208 O 398.614 2.18238 -0.677093 0
M  V30 4209 C 398.824 -0.0141055 -3.48997 0
M  V30 4210 C 400.172 0.152646 -4.24326 0
M  V30 4211 O 401.196 0.0604025 -3.56149 0
M  V30 4212 O 400.055 0.34384 -5.45417 0
M  V30 4213 H 397.149 0.0874636 -0.822362 0
M  V30 4214 H 399.695 -0.578775 -1.59525 0
M  V30 4215 H 398.467 -1.01745 -3.77841 0
M  V30 4216 H 398.09 0.692091 -3.9153 0
M  V30 4217 N 399.087 1.5561 -0.249682 0
M  V30 4218 C 399.997 2.25143 0.659375 0
M  V30 4219 C 401.013 1.2685 1.19101 0
M  V30 4220 O 402.189 1.59732 1.22669 0
M  V30 4221 C 399.254 2.93945 1.8384 0
M  V30 4222 C 398.315 4.07655 1.34596 0
M  V30 4223 C 397.548 4.73167 2.46878 0
M  V30 4224 O 397.771 4.37768 3.65671 0
M  V30 4225 O 396.705 5.61623 2.16478 0
M  V30 4226 H 400.531 3.03545 0.0968698 0
M  V30 4227 H 398.116 1.49389 -0.018074 0
M  V30 4228 H 399.998 3.37271 2.52638 0
M  V30 4229 H 398.673 2.18481 2.38847 0
M  V30 4230 H 397.58 3.68839 0.625174 0
M  V30 4231 H 398.913 4.84946 0.841941 0
M  V30 4232 N 400.565 -0.0233959 1.57583 0
M  V30 4233 C 401.495 -1.02162 2.09965 0
M  V30 4234 C 402.476 -1.3735 1.00344 0
M  V30 4235 O 403.661 -1.46135 1.27899 0
M  V30 4236 C 400.791 -2.32081 2.58371 0
M  V30 4237 C 399.745 -2.1112 3.72307 0
M  V30 4238 C 399.071 -3.46848 4.06941 0
M  V30 4239 C 400.371 -1.49276 5.00514 0
M  V30 4240 H 402.065 -0.585557 2.93618 0
M  V30 4241 H 399.611 -0.280218 1.41247 0
M  V30 4242 H 401.564 -3.02249 2.93639 0
M  V30 4243 H 400.288 -2.77758 1.71808 0
M  V30 4244 H 398.947 -1.43384 3.37397 0
M  V30 4245 H 398.595 -3.90184 3.17436 0
M  V30 4246 H 398.295 -3.33646 4.83688 0
M  V30 4247 H 399.819 -4.18369 4.44747 0
M  V30 4248 H 401.233 -2.09368 5.33702 0
M  V30 4249 H 399.63 -1.46632 5.8191 0
M  V30 4250 H 400.7 -0.459217 4.82721 0
M  V30 4251 N 402.043 -1.548 -0.295768 0
M  V30 4252 C 403.289 -1.74588 -1.03184 0
M  V30 4253 C 403.622 -0.532962 -1.86744 0
M  V30 4254 O 402.897 0.469872 -1.88739 0
M  V30 4255 C 403.18 -3.03791 -1.93347 0
M  V30 4256 C 403.033 -4.35392 -1.12933 0
M  V30 4257 C 404.352 -3.28892 -2.92435 0
M  V30 4258 H 401.471 -0.635221 -0.373715 0
M  V30 4259 H 404.113 -1.87519 -0.30606 0
M  V30 4260 H 402.263 -2.92898 -2.55232 0
M  V30 4261 H 403.935 -4.58211 -0.532943 0
M  V30 4262 H 402.178 -4.31642 -0.432168 0
M  V30 4263 H 402.849 -5.22074 -1.79284 0
M  V30 4264 H 405.325 -3.39429 -2.4068 0
M  V30 4265 H 404.201 -4.20603 -3.52682 0
M  V30 4266 H 404.462 -2.47437 -3.6637 0
M  V30 4267 N 403.521 0.559213 -1.47345 0
M  V30 4268 C 404.451 1.67622 -1.62558 0
M  V30 4269 C 405.432 1.63331 -0.475087 0
M  V30 4270 O 406.617 1.80983 -0.704182 0
M  V30 4271 C 403.747 3.0626 -1.63774 0
M  V30 4272 C 402.701 3.25397 -2.7803 0
M  V30 4273 C 402.027 4.64801 -2.64318 0
M  V30 4274 C 403.327 3.10965 -4.19641 0
M  V30 4275 H 405.021 1.55146 -2.56067 0
M  V30 4276 H 402.567 0.744961 -1.23233 0
M  V30 4277 H 404.52 3.84247 -1.73008 0
M  V30 4278 H 403.244 3.1969 -0.66825 0
M  V30 4279 H 401.903 2.49817 -2.68304 0
M  V30 4280 H 401.551 4.75028 -1.65401 0
M  V30 4281 H 401.251 4.78555 -3.40968 0
M  V30 4282 H 402.775 5.44926 -2.75478 0
M  V30 4283 H 404.189 3.78772 -4.30354 0
M  V30 4284 H 402.586 3.36229 -4.97062 0
M  V30 4285 H 403.656 2.07736 -4.38148 0
M  V30 4286 N 404.999 1.35443 0.805782 0
M  V30 4287 C 406.41 1.25768 1.37983 0
M  V30 4288 C 406.761 -0.10958 1.95894 0
M  V30 4289 O 405.886 -1.01056 1.91355 0
M  V30 4290 C 406.481 2.27727 2.5085 0
M  V30 4291 C 405.04 2.2179 3.04115 0
M  V30 4292 C 404.187 2.13393 1.77084 0
M  V30 4293 H 407.138 1.4656 0.608752 0
M  V30 4294 H 407.159 1.90422 3.29424 0
M  V30 4295 H 406.671 3.27227 2.08671 0
M  V30 4296 H 404.772 1.25703 3.50756 0
M  V30 4297 H 404.885 3.13788 3.62042 0
M  V30 4298 H 403.249 1.59384 1.98668 0
M  V30 4299 H 404.032 3.14755 1.37056 0
M  V30 4300 N 406.477 -1.02803 1.19454 0
M  V30 4301 C 407.724 -1.76217 0.997693 0
M  V30 4302 C 408.052 -1.887 -0.47144 0
M  V30 4303 O 407.307 -1.4011 -1.3663 0
M  V30 4304 C 407.606 -3.18941 1.6128 0
M  V30 4305 C 407.272 -3.26463 3.11019 0
M  V30 4306 C 405.934 -3.28223 3.51885 0
M  V30 4307 C 408.286 -3.25542 4.07028 0
M  V30 4308 C 405.614 -3.26719 4.8731 0
M  V30 4309 C 407.966 -3.25579 5.42385 0
M  V30 4310 C 406.63 -3.25637 5.82681 0
M  V30 4311 H 405.9 -0.644823 0.365082 0
M  V30 4312 H 408.547 -1.20655 1.4871 0
M  V30 4313 H 406.852 -3.77587 1.04572 0
M  V30 4314 H 408.549 -3.74415 1.43577 0
M  V30 4315 H 405.139 -3.25822 2.78457 0
M  V30 4316 H 409.323 -3.23362 3.76498 0
M  V30 4317 H 404.579 -3.25089 5.1781 0
M  V30 4318 H 408.753 -3.23817 6.16535 0
M  V30 4319 H 406.38 -3.24226 6.87591 0
M  V30 4320 N 407.956 -0.998596 -1.21925 0
M  V30 4321 C 408.888 -0.511879 -2.23411 0
M  V30 4322 C 409.901 0.396094 -1.57908 0
M  V30 4323 O 411.09 0.197316 -1.77406 0
M  V30 4324 C 408.19 0.276802 -3.37768 0
M  V30 4325 C 407.363 -0.628687 -4.32858 0
M  V30 4326 C 406.422 0.109272 -5.26087 0
M  V30 4327 O 405.448 -0.507237 -5.66935 0
M  V30 4328 N 406.65 1.38983 -5.63617 0
M  V30 4329 H 409.415 -1.38457 -2.658 0
M  V30 4330 H 406.976 -0.873981 -1.36283 0
M  V30 4331 H 408.968 0.77928 -3.97126 0
M  V30 4332 H 407.538 1.05063 -2.94415 0
M  V30 4333 H 406.758 -1.31175 -3.71735 0
M  V30 4334 H 408.046 -1.24514 -4.93329 0
M  V30 4335 H 407.444 1.91194 -5.32411 0
M  V30 4336 H 406.001 1.83739 -6.25367 0
M  V30 4337 N 409.434 1.37368 -0.772513 0
M  V30 4338 C 410.344 2.34053 -0.160081 0
M  V30 4339 C 411.36 1.60216 0.678728 0
M  V30 4340 O 412.536 1.92303 0.59847 0
M  V30 4341 C 409.601 3.3939 0.708182 0
M  V30 4342 C 408.662 4.29048 -0.147172 0
M  V30 4343 C 407.895 5.29354 0.679744 0
M  V30 4344 O 408.118 5.3723 1.91678 0
M  V30 4345 O 407.052 6.01835 0.0885444 0
M  V30 4346 H 410.878 2.88159 -0.959053 0
M  V30 4347 H 408.463 1.39543 -0.533685 0
M  V30 4348 H 410.345 4.03839 1.20384 0
M  V30 4349 H 409.02 2.8761 1.48533 0
M  V30 4350 H 407.927 3.67697 -0.689205 0
M  V30 4351 H 409.26 4.84134 -0.887423 0
M  V30 4352 N 410.912 0.523116 1.48665 0
M  V30 4353 C 411.842 -0.23231 2.32342 0
M  V30 4354 C 412.823 -0.941637 1.41659 0
M  V30 4355 O 414.008 -0.928751 1.70552 0
M  V30 4356 C 411.138 -1.28387 3.22698 0
M  V30 4357 C 410.092 -0.693098 4.22351 0
M  V30 4358 C 409.418 -1.8468 5.01794 0
M  V30 4359 C 410.718 0.33063 5.21252 0
M  V30 4360 H 412.412 0.466192 2.95748 0
M  V30 4361 H 409.958 0.225643 1.42221 0
M  V30 4362 H 411.911 -1.82024 3.80059 0
M  V30 4363 H 410.635 -2.01186 2.57278 0
M  V30 4364 H 409.294 -0.178299 3.66166 0
M  V30 4365 H 408.942 -2.56301 4.32804 0
M  V30 4366 H 408.642 -1.45747 5.69238 0
M  V30 4367 H 410.166 -2.38709 5.62006 0
M  V30 4368 H 411.58 -0.118407 5.73178 0
M  V30 4369 H 409.977 0.636974 5.9671 0
M  V30 4370 H 411.047 1.23883 4.68808 0
M  V30 4371 N 412.39 -1.55475 0.257931 0
M  V30 4372 C 413.322 -2.19192 -0.669881 0
M  V30 4373 C 414.335 -1.17148 -1.1305 0
M  V30 4374 O 415.524 -1.43959 -1.05537 0
M  V30 4375 C 412.624 -2.79016 -1.92363 0
M  V30 4376 C 411.797 -4.06586 -1.61265 0
M  V30 4377 C 410.856 -4.50622 -2.7171 0
M  V30 4378 O 409.882 -5.16765 -2.38627 0
M  V30 4379 N 411.084 -4.19325 -4.01431 0
M  V30 4380 H 413.849 -2.99441 -0.124635 0
M  V30 4381 H 411.41 -1.6171 0.0783311 0
M  V30 4382 H 413.402 -3.05427 -2.65511 0
M  V30 4383 H 411.972 -2.0286 -2.37837 0
M  V30 4384 H 411.192 -3.87646 -0.715811 0
M  V30 4385 H 412.48 -4.89737 -1.37967 0
M  V30 4386 H 411.878 -3.66247 -4.31138 0
M  V30 4387 H 410.435 -4.50547 -4.7101 0
M  V30 4388 N 413.868 0.0150385 -1.57593 0
M  V30 4389 C 415.117 0.702115 -1.89085 0
M  V30 4390 C 415.43 1.75764 -0.858277 0
M  V30 4391 O 416.636 2.49829 -1.0629 0
M  V30 4392 C 415.092 1.29992 -3.35604 0
M  V30 4393 C 414.7 0.280007 -4.47124 0
M  V30 4394 C 416.444 1.96606 -3.76227 0
M  V30 4395 C 414.351 0.886949 -5.84711 0
M  V30 4396 H 413.281 0.265997 -0.705522 0
M  V30 4397 H 415.932 -0.0430408 -1.8345 0
M  V30 4398 H 414.314 2.09525 -3.36029 0
M  V30 4399 H 415.488 -0.489631 -4.58191 0
M  V30 4400 H 413.803 -0.284835 -4.15425 0
M  V30 4401 H 416.4 2.42893 -4.76347 0
M  V30 4402 H 416.743 2.79024 -3.08952 0
M  V30 4403 H 417.276 1.23828 -3.78036 0
M  V30 4404 H 414.015 0.101876 -6.55421 0
M  V30 4405 H 413.535 1.6261 -5.77337 0
M  V30 4406 H 415.214 1.39011 -6.3189 0
M  V30 4407 N 415.346 1.54954 0.287554 0
M  V30 4408 C 416.623 1.65569 1.04146 0
M  V30 4409 C 417.003 0.512672 2.0478 0
M  V30 4410 O 416.351 -0.489038 2.23205 0
M  V30 4411 C 416.561 3.04163 1.71131 0
M  V30 4412 C 417.909 3.61429 2.22832 0
M  V30 4413 O 418.933 3.06702 1.81141 0
M  V30 4414 O 417.792 4.57281 2.9926 0
M  V30 4415 H 414.886 0.671881 0.482188 0
M  V30 4416 H 417.432 1.67297 0.28457 0
M  V30 4417 H 416.204 3.78796 0.981303 0
M  V30 4418 H 415.827 3.06271 2.53543 0
M  V30 4419 N 416.824 -0.551391 1.4764 0
M  V30 4420 C 418.101 -1.31229 1.45046 0
M  V30 4421 C 418.481 -2.10563 0.150527 0
M  V30 4422 O 417.829 -2.11374 -0.867956 0
M  V30 4423 C 418.039 -2.21189 2.69956 0
M  V30 4424 C 419.387 -2.82021 3.1741 0
M  V30 4425 O 420.411 -2.31488 2.70724 0
M  V30 4426 O 419.27 -3.73885 3.98588 0
M  V30 4427 H 416.364 -0.591193 0.578291 0
M  V30 4428 H 418.91 -0.569813 1.59847 0
M  V30 4429 H 417.682 -1.62207 3.56096 0
M  V30 4430 H 417.305 -3.02722 2.57769 0
M  V30 4431 N 418.302 -1.35869 -0.798587 0
M  V30 4432 C 419.25 -1.29491 -1.93222 0
M  V30 4433 C 420.244 -0.18836 -1.6835 0
M  V30 4434 O 421.45 -0.354822 -1.76468 0
M  V30 4435 H 417.825 -0.402901 -0.63496 0
M  V30 4436 H 419.796 -2.25247 -1.9572 0
M  V30 4437 C 418.545 -1.09184 -3.30112 0
M  V30 4438 H 417.868 -1.93574 -3.49813 0
M  V30 4439 H 419.308 -1.08766 -4.09812 0
M  V30 4440 C 417.767 0.203959 -3.36282 0
M  V30 4441 O 418.297 1.19699 -3.83451 0
M  V30 4442 N 416.503 0.245488 -2.89561 0
M  V30 4443 H 416.05 -0.563223 -2.51367 0
M  V30 4444 H 416.008 1.11219 -2.94071 0
M  V30 4445 N 419.78 1.02168 -1.19998 0
M  V30 4446 C 420.69 2.14069 -0.959774 0
M  V30 4447 C 421.706 1.73804 0.082655 0
M  V30 4448 O 422.882 2.01133 -0.103633 0
M  V30 4449 C 419.947 3.42936 -0.509459 0
M  V30 4450 C 419.008 3.97474 -1.62213 0
M  V30 4451 C 418.241 5.2019 -1.19321 0
M  V30 4452 O 418.464 5.70369 -0.0597726 0
M  V30 4453 O 417.398 5.67749 -1.99863 0
M  V30 4454 H 421.224 2.37199 -1.89658 0
M  V30 4455 H 418.809 1.12469 -0.983411 0
M  V30 4456 H 420.691 4.20551 -0.267322 0
M  V30 4457 H 419.366 3.21234 0.398821 0
M  V30 4458 H 418.273 3.21161 -1.9185 0
M  V30 4459 H 419.606 4.23555 -2.50723 0
M  V30 4460 N 421.258 1.00505 1.21394 0
M  V30 4461 C 422.488 0.705584 1.94178 0
M  V30 4462 C 422.896 -0.735846 1.74304 0
M  V30 4463 O 422.239 -1.50954 1.04683 0
M  V30 4464 C 422.301 0.94689 3.46806 0
M  V30 4465 C 421.965 2.37517 3.90429 0
M  V30 4466 C 422.962 3.35539 3.97127 0
M  V30 4467 C 420.647 2.71284 4.22742 0
M  V30 4468 C 422.641 4.65395 4.3553 0
M  V30 4469 C 420.328 4.01356 4.60822 0
M  V30 4470 C 421.326 4.98223 4.67186 0
M  V30 4471 O 421.014 6.25969 5.04399 0
M  V30 4472 H 420.746 0.259216 0.624326 0
M  V30 4473 H 423.3 1.34592 1.55159 0
M  V30 4474 H 421.53 0.249386 3.85895 0
M  V30 4475 H 423.219 0.640804 4.0081 0
M  V30 4476 H 423.985 3.10786 3.7234 0
M  V30 4477 H 419.864 1.96581 4.16985 0
M  V30 4478 H 423.408 5.41002 4.40412 0
M  V30 4479 H 419.305 4.25893 4.85063 0
M  V30 4480 H 420.073 6.30085 5.22431 0
M  V30 4481 N 422.737 -1.36956 0.779787 0
M  V30 4482 C 423.7 -2.2851 0.177662 0
M  V30 4483 C 424.7 -1.48393 -0.619377 0
M  V30 4484 O 425.89 -1.68505 -0.441785 0
M  V30 4485 C 423.022 -3.32428 -0.755279 0
M  V30 4486 H 424.215 -2.83269 0.984823 0
M  V30 4487 H 421.768 -1.46358 0.548544 0
M  V30 4488 H 422.503 -2.82808 -1.58714 0
M  V30 4489 H 422.288 -3.91659 -0.185817 0
M  V30 4490 H 423.778 -4.00824 -1.17174 0
M  V30 4491 N 424.215 -0.530993 -1.48385 0
M  V30 4492 C 425.445 -0.00133928 -2.066 0
M  V30 4493 C 425.853 1.28599 -1.38777 0
M  V30 4494 O 425.196 1.77599 -0.469495 0
M  V30 4495 C 425.258 0.292137 -3.58311 0
M  V30 4496 C 424.922 -0.901864 -4.48013 0
M  V30 4497 C 425.919 -1.80053 -4.87726 0
M  V30 4498 C 423.604 -1.10915 -4.89901 0
M  V30 4499 C 425.598 -2.89038 -5.68098 0
M  V30 4500 C 423.285 -2.20213 -5.70043 0
M  V30 4501 C 424.283 -3.09107 -6.0905 0
M  V30 4502 O 423.971 -4.16514 -6.87583 0
M  V30 4503 H 423.703 -0.0308475 -0.675296 0
M  V30 4504 H 426.257 -0.736335 -1.91748 0
M  V30 4505 H 424.487 1.08112 -3.7128 0
M  V30 4506 H 426.176 0.763994 -3.98645 0
M  V30 4507 H 426.942 -1.65234 -4.55986 0
M  V30 4508 H 422.821 -0.426498 -4.59023 0
M  V30 4509 H 426.365 -3.58451 -5.98464 0
M  V30 4510 H 422.262 -2.35016 -6.01197 0
M  V30 4511 H 423.03 -4.14237 -7.05939 0
M  V30 4512 N 425.693 1.55336 -0.266172 0
M  V30 4513 C 426.623 2.25146 0.618981 0
M  V30 4514 C 427.604 1.23845 1.16604 0
M  V30 4515 O 428.789 1.52544 1.20183 0
M  V30 4516 C 425.919 2.96572 1.80728 0
M  V30 4517 C 424.873 4.04726 1.39215 0
M  V30 4518 C 424.199 4.63678 2.66283 0
M  V30 4519 C 425.499 5.19407 0.548942 0
M  V30 4520 H 427.193 2.99377 0.0368116 0
M  V30 4521 H 424.739 1.43991 0.0162651 0
M  V30 4522 H 426.692 3.44116 2.43232 0
M  V30 4523 H 425.416 2.19861 2.41514 0
M  V30 4524 H 424.075 3.57979 0.790351 0
M  V30 4525 H 423.723 3.83646 3.25308 0
M  V30 4526 H 423.423 5.367 2.39222 0
M  V30 4527 H 424.947 5.13967 3.29651 0
M  V30 4528 H 426.361 5.63059 1.07876 0
M  V30 4529 H 424.758 5.98936 0.373593 0
M  V30 4530 H 425.828 4.8295 -0.434394 0
M  V30 4531 N 427.171 -0.0066808 1.57599 0
M  V30 4532 C 428.118 -1.00024 2.08 0
M  V30 4533 C 429.088 -1.34549 0.973943 0
M  V30 4534 O 430.273 -1.44502 1.24595 0
M  V30 4535 C 427.413 -2.2891 2.58252 0
M  V30 4536 C 426.526 -2.00346 3.82734 0
M  V30 4537 C 425.661 -3.23265 4.21513 0
M  V30 4538 C 424.7 -2.90357 5.3885 0
M  V30 4539 N 423.837 -4.05793 5.72954 0
M  V30 4540 H 428.677 -0.563499 2.92624 0
M  V30 4541 H 426.214 -0.266592 1.44664 0
M  V30 4542 H 428.172 -3.04247 2.85464 0
M  V30 4543 H 426.802 -2.70265 1.76512 0
M  V30 4544 H 425.854 -1.15406 3.62471 0
M  V30 4545 H 427.166 -1.72086 4.68175 0
M  V30 4546 H 426.32 -4.06953 4.49971 0
M  V30 4547 H 425.059 -3.54657 3.34768 0
M  V30 4548 H 424.064 -2.05075 5.10122 0
M  V30 4549 H 425.289 -2.60219 6.27266 0
M  V30 4550 H 423.235 -4.37094 4.89167 0
M  V30 4551 H 423.152 -3.81034 6.52954 0
M  V30 4552 H 424.42 -4.90289 6.06001 0
M  V30 4553 N 428.649 -1.55105 -0.279332 0
M  V30 4554 C 429.612 -1.86783 -1.32834 0
M  V30 4555 C 430.612 -0.74199 -1.42657 0
M  V30 4556 O 431.802 -1.0102 -1.41918 0
M  V30 4557 C 428.934 -2.06746 -2.71052 0
M  V30 4558 H 430.127 -2.8055 -1.05979 0
M  V30 4559 H 427.68 -1.47499 -0.517087 0
M  V30 4560 H 428.415 -1.15339 -3.03097 0
M  V30 4561 H 428.2 -2.88711 -2.65309 0
M  V30 4562 H 429.69 -2.32549 -3.46858 0
M  V30 4563 N 430.127 0.543554 -1.4793 0
M  V30 4564 C 431.376 1.29649 -1.54512 0
M  V30 4565 C 431.689 1.94382 -0.217973 0
M  V30 4566 O 432.895 2.71017 -0.161908 0
M  V30 4567 C 431.351 2.35175 -2.72435 0
M  V30 4568 C 430.959 1.76572 -4.11736 0
M  V30 4569 C 432.703 3.11564 -2.8832 0
M  V30 4570 C 430.61 2.79958 -5.20939 0
M  V30 4571 H 429.54 0.487541 -0.57517 0
M  V30 4572 H 432.191 0.575708 -1.74235 0
M  V30 4573 H 430.573 3.10229 -2.46118 0
M  V30 4574 H 431.747 1.07799 -4.48013 0
M  V30 4575 H 430.062 1.12722 -4.00852 0
M  V30 4576 H 432.659 3.88794 -3.67074 0
M  V30 4577 H 433.002 3.66594 -1.97268 0
M  V30 4578 H 433.535 2.43623 -3.14472 0
M  V30 4579 H 430.274 2.29766 -6.13912 0
M  V30 4580 H 429.794 3.47101 -4.89164 0
M  V30 4581 H 431.473 3.43198 -5.48474 0
M  V30 4582 N 431.605 1.3629 0.791371 0
M  V30 4583 C 432.854 1.29742 1.54434 0
M  V30 4584 C 433.167 -0.121729 1.95221 0
M  V30 4585 O 434.373 -0.309579 2.69729 0
M  V30 4586 C 432.829 2.27623 2.78776 0
M  V30 4587 C 432.437 3.74963 2.45166 0
M  V30 4588 C 434.181 2.30047 3.56761 0
M  V30 4589 C 432.088 4.64626 3.65891 0
M  V30 4590 H 431.018 0.482113 0.579727 0
M  V30 4591 H 433.669 1.61642 0.868565 0
M  V30 4592 H 432.051 1.88714 3.48142 0
M  V30 4593 H 433.225 4.22596 1.83709 0
M  V30 4594 H 431.54 3.75295 1.80396 0
M  V30 4595 H 434.137 2.94247 4.46456 0
M  V30 4596 H 434.48 1.30846 3.95203 0
M  V30 4597 H 435.013 2.67563 2.94372 0
M  V30 4598 H 431.752 5.64883 3.32547 0
M  V30 4599 H 431.272 4.2171 4.26521 0
M  V30 4600 H 432.951 4.80801 4.32943 0
M  V30 4601 N 433.083 -1.0153 1.20538 0
M  V30 4602 C 434.33 -1.75149 1.01633 0
M  V30 4603 C 434.658 -1.89189 -0.451399 0
M  V30 4604 O 433.913 -1.41551 -1.35136 0
M  V30 4605 C 434.212 -3.17213 1.64654 0
M  V30 4606 C 433.878 -3.23146 3.14464 0
M  V30 4607 C 432.54 -3.24472 3.55347 0
M  V30 4608 C 434.892 -3.21207 4.10458 0
M  V30 4609 C 432.22 -3.21532 4.90748 0
M  V30 4610 C 434.572 -3.19808 5.45807 0
M  V30 4611 C 433.236 -3.19439 5.86102 0
M  V30 4612 H 432.506 -0.640914 0.3719 0
M  V30 4613 H 435.153 -1.19071 1.49981 0
M  V30 4614 H 433.458 -3.76457 1.08571 0
M  V30 4615 H 435.155 -3.72871 1.4754 0
M  V30 4616 H 431.745 -3.2285 2.81897 0
M  V30 4617 H 435.929 -3.19351 3.79906 0
M  V30 4618 H 431.185 -3.19578 5.21229 0
M  V30 4619 H 435.359 -3.1726 6.19935 0
M  V30 4620 H 432.986 -3.16915 6.90991 0
M  V30 4621 N 434.561 -1.01147 -1.20859 0
M  V30 4622 C 435.808 -0.697865 -1.90095 0
M  V30 4623 C 436.136 0.772014 -1.78522 0
M  V30 4624 O 435.391 1.57595 -1.16027 0
M  V30 4625 C 435.69 -1.0727 -3.40922 0
M  V30 4626 C 435.356 -2.53792 -3.72693 0
M  V30 4627 C 434.018 -2.93829 -3.81075 0
M  V30 4628 C 436.37 -3.48674 -3.87397 0
M  V30 4629 C 433.698 -4.27696 -4.01613 0
M  V30 4630 C 436.05 -4.82223 -4.09444 0
M  V30 4631 C 434.714 -5.21973 -4.16054 0
M  V30 4632 H 433.984 -0.255367 -0.695607 0
M  V30 4633 H 436.631 -1.27111 -1.43231 0
M  V30 4634 H 434.936 -0.417799 -3.89566 0
M  V30 4635 H 436.633 -0.807818 -3.92779 0
M  V30 4636 H 433.223 -2.21768 -3.66765 0
M  V30 4637 H 437.407 -3.18904 -3.80281 0
M  V30 4638 H 432.663 -4.58055 -4.04964 0
M  V30 4639 H 436.837 -5.55672 -4.19763 0
M  V30 4640 H 434.464 -6.25717 -4.31721 0
M  V30 4641 N 436.039 1.36541 -0.78704 0
M  V30 4642 C 437.316 1.9355 -0.282424 0
M  V30 4643 C 437.696 1.71919 1.22503 0
M  V30 4644 O 437.044 1.07677 2.01539 0
M  V30 4645 C 437.254 3.4246 -0.672462 0
M  V30 4646 C 438.602 4.19582 -0.650863 0
M  V30 4647 O 439.626 3.50889 -0.612789 0
M  V30 4648 O 438.485 5.42106 -0.691623 0
M  V30 4649 H 435.579 0.824091 -0.0693 0
M  V30 4650 H 438.125 1.45736 -0.869423 0
M  V30 4651 H 436.897 3.51851 -1.71221 0
M  V30 4652 H 436.52 3.97556 -0.0592211 0
M  V30 4653 N 437.518 0.538854 1.48102 0
M  V30 4654 C 438.929 0.100679 1.86428 0
M  V30 4655 C 439.28 -1.32447 1.44749 0
M  V30 4656 O 438.405 -1.99339 0.842199 0
M  V30 4657 C 439 0.175933 3.38343 0
M  V30 4658 C 437.559 -0.207098 3.7583 0
M  V30 4659 C 436.706 0.531741 2.72154 0
M  V30 4660 H 439.657 0.749614 1.3988 0
M  V30 4661 H 439.678 -0.610144 3.75576 0
M  V30 4662 H 439.19 1.21328 3.68648 0
M  V30 4663 H 437.291 -1.24626 3.5114 0
M  V30 4664 H 437.404 0.138687 4.78899 0
M  V30 4665 H 435.768 -0.0230462 2.5469 0
M  V30 4666 H 436.551 1.56989 3.05302 0
M  V30 4667 N 438.996 -1.55193 0.274407 0
M  V30 4668 C 440.273 -1.91584 -0.394331 0
M  V30 4669 C 440.653 -1.19858 -1.73774 0
M  V30 4670 O 440.001 -0.3252 -2.26174 0
M  V30 4671 C 440.211 -3.4487 -0.535311 0
M  V30 4672 C 441.559 -4.16636 -0.818534 0
M  V30 4673 O 442.583 -3.5076 -0.620146 0
M  V30 4674 O 441.442 -5.33209 -1.19792 0
M  V30 4675 H 438.536 -0.798349 -0.215794 0
M  V30 4676 H 441.082 -1.66646 0.320507 0
M  V30 4677 H 439.854 -3.89145 0.410141 0
M  V30 4678 H 439.477 -3.75759 -1.29964 0
M  V30 4679 N 440.474 -0.00167713 -1.576 0
M  V30 4680 C 441.437 0.974046 -2.07473 0
M  V30 4681 C 442.437 1.27143 -0.984444 0
M  V30 4682 O 443.627 1.21633 -1.24703 0
M  V30 4683 C 440.759 2.29849 -2.51759 0
M  V30 4684 H 441.952 0.54262 -2.9495 0
M  V30 4685 H 439.505 0.245829 -1.54355 0
M  V30 4686 H 440.24 2.77677 -1.67529 0
M  V30 4687 H 440.025 2.09584 -3.31386 0
M  V30 4688 H 441.515 2.9984 -2.90664 0
M  V30 4689 N 441.952 1.55251 0.271103 0
M  V30 4690 C 442.899 1.88261 1.33516 0
M  V30 4691 C 443.869 0.734296 1.48988 0
M  V30 4692 O 445.054 0.985741 1.63364 0
M  V30 4693 C 442.194 2.16168 2.69008 0
M  V30 4694 C 441.307 3.43678 2.61743 0
M  V30 4695 C 440.442 3.61276 3.89427 0
M  V30 4696 C 439.481 4.82472 3.7668 0
M  V30 4697 N 438.618 4.96717 4.96202 0
M  V30 4698 H 443.458 2.79015 1.04665 0
M  V30 4699 H 440.995 1.38137 0.505618 0
M  V30 4700 H 442.953 2.30349 3.47844 0
M  V30 4701 H 441.583 1.28646 2.96057 0
M  V30 4702 H 440.635 3.37959 1.74607 0
M  V30 4703 H 441.947 4.3265 2.48224 0
M  V30 4704 H 441.101 3.75284 4.76704 0
M  V30 4705 H 439.84 2.70492 4.05814 0
M  V30 4706 H 438.845 4.68465 2.87786 0
M  V30 4707 H 440.07 5.74692 3.61809 0
M  V30 4708 H 438.016 4.08865 5.12997 0
M  V30 4709 H 437.933 5.79738 4.85222 0
M  V30 4710 H 439.201 5.15113 5.85046 0
M  V30 4711 N 443.43 -0.535701 1.48216 0
M  V30 4712 C 444.678 -1.28928 1.55634 0
M  V30 4713 C 444.999 -1.93645 0.229514 0
M  V30 4714 O 444.269 -1.81038 -0.74846 0
M  V30 4715 H 442.849 -0.47884 0.573342 0
M  V30 4716 H 445.511 -0.623853 1.84646 0
M  V30 4717 H 444.607 -2.07157 2.33436 0
M  V30 4718 N 444.908 -1.36708 -0.784132 0
M  V30 4719 C 445.838 -1.34153 -1.91116 0
M  V30 4720 C 446.819 -0.212121 -1.68772 0
M  V30 4721 O 448.004 -0.410581 -1.8981 0
M  V30 4722 C 445.134 -1.13535 -3.28218 0
M  V30 4723 C 444.088 -2.23356 -3.65097 0
M  V30 4724 C 443.414 -1.87875 -5.00607 0
M  V30 4725 C 444.714 -3.65473 -3.73131 0
M  V30 4726 H 446.408 -2.28459 -1.93512 0
M  V30 4727 H 443.954 -1.09973 -0.929618 0
M  V30 4728 H 445.907 -1.10381 -4.06687 0
M  V30 4729 H 444.631 -0.156804 -3.26223 0
M  V30 4730 H 443.29 -2.25645 -2.88929 0
M  V30 4731 H 442.938 -0.885814 -4.95139 0
M  V30 4732 H 442.638 -2.61406 -5.26252 0
M  V30 4733 H 444.162 -1.86286 -5.81489 0
M  V30 4734 H 445.576 -3.65382 -4.41779 0
M  V30 4735 H 443.973 -4.37953 -4.10265 0
M  V30 4736 H 445.043 -3.99995 -2.74102 0
M  V30 4737 N 446.386 1.0089 -1.21074 0
M  V30 4738 C 447.611 1.78727 -1.05221 0
M  V30 4739 C 448.036 1.83932 0.393795 0
M  V30 4740 O 447.394 1.28004 1.28393 0
M  V30 4741 C 447.442 3.20665 -1.64944 0
M  V30 4742 O 446.546 4.02632 -0.892273 0
M  V30 4743 H 445.887 0.550973 -0.370574 0
M  V30 4744 H 448.417 1.26847 -1.60534 0
M  V30 4745 H 448.427 3.71352 -1.69002 0
M  V30 4746 H 447.102 3.16191 -2.70177 0
M  V30 4747 H 445.679 3.61207 -0.926492 0
M  V30 4748 N 447.864 1.01787 1.20321 0
M  V30 4749 C 449.141 0.622978 1.85414 0
M  V30 4750 C 449.521 -0.898887 1.91006 0
M  V30 4751 O 448.869 -1.79112 1.41884 0
M  V30 4752 C 449.079 1.27226 3.24984 0
M  V30 4753 C 450.427 1.3885 4.01255 0
M  V30 4754 O 451.451 1.22857 3.34342 0
M  V30 4755 O 450.31 1.64705 5.2109 0
M  V30 4756 H 447.404 0.215116 0.798533 0
M  V30 4757 H 449.95 1.11533 1.27901 0
M  V30 4758 H 448.722 2.31209 3.15687 0
M  V30 4759 H 448.345 0.767069 3.90131 0
M  V30 4760 N 449.342 -1.36122 0.79427 0
M  V30 4761 C 450.753 -1.81646 0.431446 0
M  V30 4762 C 451.104 -1.66043 -1.04518 0
M  V30 4763 O 450.229 -1.1841 -1.8113 0
M  V30 4764 C 450.824 -3.29785 0.776341 0
M  V30 4765 C 449.383 -3.73501 0.466282 0
M  V30 4766 C 448.53 -2.58313 1.00844 0
M  V30 4767 H 451.481 -1.24274 0.986995 0
M  V30 4768 H 451.502 -3.80437 0.0692413 0
M  V30 4769 H 451.014 -3.4111 1.8511 0
M  V30 4770 H 449.115 -3.67733 -0.600245 0
M  V30 4771 H 449.228 -4.68754 0.990288 0
M  V30 4772 H 447.592 -2.5102 0.431406 0
M  V30 4773 H 448.375 -2.72421 2.08906 0
M  V30 4774 N 450.82 -0.546701 -1.47814 0
M  V30 4775 C 452.068 -0.0187037 -2.02091 0
M  V30 4776 C 452.389 1.33168 -1.42447 0
M  V30 4777 O 451.659 1.86619 -0.595839 0
M  V30 4778 H 450.239 -0.00392531 -0.74699 0
M  V30 4779 H 452.901 -0.714327 -1.81338 0
M  V30 4780 H 451.997 0.0772219 -3.12004 0
M  V30 4781 N 452.299 1.55045 -0.282633 0
M  V30 4782 C 453.246 2.22822 0.601566 0
M  V30 4783 C 454.216 1.20431 1.14392 0
M  V30 4784 O 455.401 1.48996 1.19184 0
M  V30 4785 C 452.541 2.95873 1.77632 0
M  V30 4786 C 451.654 4.12999 1.26711 0
M  V30 4787 C 450.789 4.73676 2.40426 0
M  V30 4788 C 449.828 5.82981 1.86545 0
M  V30 4789 N 448.965 6.3769 2.93762 0
M  V30 4790 H 453.805 2.97995 0.0169528 0
M  V30 4791 H 451.342 1.471 -0.00339964 0
M  V30 4792 H 453.3 3.36447 2.46697 0
M  V30 4793 H 451.93 2.2311 2.33285 0
M  V30 4794 H 450.982 3.77494 0.469314 0
M  V30 4795 H 452.294 4.91803 0.832518 0
M  V30 4796 H 451.448 5.17008 3.17471 0
M  V30 4797 H 450.187 3.94164 2.87203 0
M  V30 4798 H 449.192 5.39092 1.07983 0
M  V30 4799 H 450.417 6.64366 1.40694 0
M  V30 4800 H 448.363 5.61069 3.39908 0
M  V30 4801 H 448.28 7.11788 2.54744 0
M  V30 4802 H 449.548 6.8568 3.7076 0
M  V30 4803 N 453.777 0.010035 1.57597 0
M  V30 4804 C 455.026 -0.671945 1.90178 0
M  V30 4805 C 455.339 -1.74376 0.886131 0
M  V30 4806 O 456.545 -2.48107 1.10252 0
M  V30 4807 C 455.001 -1.24636 3.3763 0
M  V30 4808 C 454.609 -0.208838 4.47513 0
M  V30 4809 C 456.353 -1.90595 3.79307 0
M  V30 4810 C 454.26 -0.793814 5.86048 0
M  V30 4811 H 453.19 -0.25474 0.709665 0
M  V30 4812 H 455.841 0.0722206 1.83358 0
M  V30 4813 H 454.223 -2.04152 3.3932 0
M  V30 4814 H 455.397 0.562463 4.57354 0
M  V30 4815 H 453.712 0.350889 4.14919 0
M  V30 4816 H 456.309 -2.35284 4.80151 0
M  V30 4817 H 456.652 -2.74074 3.13352 0
M  V30 4818 H 457.185 -1.17798 3.79958 0
M  V30 4819 H 453.924 0.00240855 6.555 0
M  V30 4820 H 453.444 -1.53404 5.79851 0
M  V30 4821 H 455.123 -1.2894 6.34022 0
M  V30 4822 N 455.255 -1.55392 -0.262866 0
M  V30 4823 C 456.202 -1.88966 -1.32516 0
M  V30 4824 C 457.172 -0.742187 -1.48596 0
M  V30 4825 O 458.357 -0.99439 -1.62839 0
M  V30 4826 C 455.497 -2.17592 -2.67858 0
M  V30 4827 C 454.61 -3.45061 -2.59917 0
M  V30 4828 C 453.745 -3.63336 -3.87505 0
M  V30 4829 C 452.784 -4.84462 -3.74116 0
M  V30 4830 N 451.921 -4.99342 -4.93561 0
M  V30 4831 H 456.761 -2.79566 -1.03184 0
M  V30 4832 H 454.298 -1.38404 -0.498285 0
M  V30 4833 H 456.256 -2.3219 -3.46617 0
M  V30 4834 H 454.886 -1.30215 -2.95371 0
M  V30 4835 H 453.938 -3.38881 -1.72812 0
M  V30 4836 H 455.25 -4.3396 -2.45926 0
M  V30 4837 H 454.404 -3.77807 -4.74707 0
M  V30 4838 H 453.143 -2.72641 -4.04374 0
M  V30 4839 H 452.148 -4.69985 -2.85297 0
M  V30 4840 H 453.373 -5.76603 -3.58757 0
M  V30 4841 H 451.319 -4.1158 -5.10821 0
M  V30 4842 H 451.236 -5.82303 -4.82141 0
M  V30 4843 H 452.504 -5.18208 -5.82306 0
M  V30 4844 N 456.733 0.527833 -1.48498 0
M  V30 4845 C 458.149 0.856571 -1.34666 0
M  V30 4846 C 458.349 1.98271 -0.35931 0
M  V30 4847 O 457.405 2.51551 0.218703 0
M  V30 4848 C 458.718 1.22207 -2.74747 0
M  V30 4849 C 460.266 1.33183 -2.83251 0
M  V30 4850 C 460.741 1.73075 -4.24039 0
M  V30 4851 N 462.232 1.80174 -4.26722 0
M  V30 4852 C 462.967 2.1243 -5.32598 0
M  V30 4853 N 462.463 2.43096 -6.4875 0
M  V30 4854 N 464.256 2.13454 -5.19994 0
M  V30 4855 H 456.407 -0.215174 -2.11307 0
M  V30 4856 H 458.67 -0.0336281 -0.947403 0
M  V30 4857 H 458.376 0.468195 -3.4857 0
M  V30 4858 H 458.25 2.17173 -3.08409 0
M  V30 4859 H 460.637 2.07647 -2.09683 0
M  V30 4860 H 460.718 0.363333 -2.53206 0
M  V30 4861 H 460.362 0.991712 -4.98124 0
M  V30 4862 H 460.292 2.70979 -4.51529 0
M  V30 4863 H 462.783 1.58744 -3.42942 0
M  V30 4864 H 463.096 2.6682 -7.25277 0
M  V30 4865 H 461.441 2.40611 -6.52021 0
M  V30 4866 H 464.632 1.88956 -4.28268 0
M  V30 4867 H 464.805 2.38261 -6.02608 0
M  V30 4868 N 458.211 1.37122 0.776871 0
M  V30 4869 C 459.141 1.35164 1.90402 0
M  V30 4870 C 460.122 0.221069 1.68657 0
M  V30 4871 O 461.307 0.420642 1.8959 0
M  V30 4872 C 458.437 1.15274 3.27611 0
M  V30 4873 C 457.391 2.25289 3.63908 0
M  V30 4874 C 456.717 1.90527 4.99603 0
M  V30 4875 C 458.017 3.67446 3.71188 0
M  V30 4876 H 459.711 2.29482 1.92297 0
M  V30 4877 H 457.257 1.10465 0.923773 0
M  V30 4878 H 459.21 1.12536 4.06096 0
M  V30 4879 H 457.934 0.174102 3.26136 0
M  V30 4880 H 456.593 2.27174 2.87728 0
M  V30 4881 H 456.241 0.91206 4.94662 0
M  V30 4882 H 455.941 2.64193 5.24858 0
M  V30 4883 H 457.465 1.89367 5.80493 0
M  V30 4884 H 458.879 3.67719 4.39836 0
M  V30 4885 H 457.276 4.40123 4.07936 0
M  V30 4886 H 458.346 4.01443 2.71977 0
M  V30 4887 N 459.689 -1.00246 1.21608 0
M  V30 4888 C 461.105 -1.26435 0.973975 0
M  V30 4889 C 461.305 -1.98642 -0.338143 0
M  V30 4890 O 460.361 -2.29026 -1.06317 0
M  V30 4891 C 461.674 -2.08551 2.16626 0
M  V30 4892 C 463.222 -2.21769 2.20879 0
M  V30 4893 C 463.697 -3.07267 3.39633 0
M  V30 4894 N 465.188 -3.14855 3.39736 0
M  V30 4895 C 465.923 -3.81274 4.28273 0
M  V30 4896 N 465.419 -4.497 5.27012 0
M  V30 4897 N 467.212 -3.7794 4.16074 0
M  V30 4898 H 459.363 -0.518089 2.05984 0
M  V30 4899 H 461.626 -0.291368 0.902113 0
M  V30 4900 H 461.332 -1.62847 3.11727 0
M  V30 4901 H 461.206 -3.09303 2.15897 0
M  V30 4902 H 463.593 -2.66691 1.26332 0
M  V30 4903 H 463.674 -1.20478 2.25652 0
M  V30 4904 H 463.318 -2.63047 4.34475 0
M  V30 4905 H 463.248 -4.08678 3.321 0
M  V30 4906 H 465.739 -2.66147 2.6828 0
M  V30 4907 H 466.052 -4.98092 5.90867 0
M  V30 4908 H 464.397 -4.48479 5.30935 0
M  V30 4909 H 467.588 -3.23638 3.38195 0
M  V30 4910 H 467.761 -4.29424 4.85282 0
M  V30 4911 N 461.167 -1.02423 -1.1978 0
M  V30 4912 C 462.392 -0.7373 -1.93852 0
M  V30 4913 C 462.817 0.696923 -1.74713 0
M  V30 4914 O 462.175 1.48056 -1.04638 0
M  V30 4915 C 462.223 -1.08783 -3.438 0
M  V30 4916 O 461.327 -0.20383 -4.11896 0
M  V30 4917 H 460.668 -0.27284 -0.605355 0
M  V30 4918 H 463.198 -1.36966 -1.51992 0
M  V30 4919 H 463.208 -1.04276 -3.9445 0
M  V30 4920 H 461.883 -2.13274 -3.57053 0
M  V30 4921 H 460.46 -0.307091 -3.71633 0
M  V30 4922 N 462.645 1.35699 -0.801477 0
M  V30 4923 C 463.577 2.28598 -0.166028 0
M  V30 4924 C 464.59 1.50044 0.631721 0
M  V30 4925 O 465.779 1.72339 0.464921 0
M  V30 4926 C 462.879 3.29625 0.787451 0
M  V30 4927 C 462.052 4.37384 0.037171 0
M  V30 4928 C 461.111 5.183 0.908375 0
M  V30 4929 O 460.137 5.68053 0.361189 0
M  V30 4930 N 461.339 5.35912 2.23112 0
M  V30 4931 H 464.104 2.83771 -0.964071 0
M  V30 4932 H 461.665 1.47994 -0.656469 0
M  V30 4933 H 463.657 3.80648 1.37439 0
M  V30 4934 H 462.227 2.75004 1.48632 0
M  V30 4935 H 461.447 3.87364 -0.730935 0
M  V30 4936 H 462.735 5.0653 -0.480109 0
M  V30 4937 H 462.133 4.97125 2.69968 0
M  V30 4938 H 460.69 5.90133 2.76741 0
M  V30 4939 N 464.123 0.554532 1.47522 0
M  V30 4940 C 465.369 0.0295227 2.02779 0
M  V30 4941 C 465.702 -1.31582 1.42828 0
M  V30 4942 O 464.977 -1.85561 0.582872 0
M  V30 4943 C 465.26 -0.0664057 3.60039 0
M  V30 4944 C 465.113 1.30585 4.30427 0
M  V30 4945 C 466.432 -0.781162 4.33112 0
M  V30 4946 H 463.551 0.0122027 0.736899 0
M  V30 4947 H 466.193 0.716305 1.7598 0
M  V30 4948 H 464.343 -0.651307 3.83002 0
M  V30 4949 H 466.015 1.93374 4.18813 0
M  V30 4950 H 464.258 1.88125 3.90886 0
M  V30 4951 H 464.929 1.19147 5.38988 0
M  V30 4952 H 467.405 -0.284565 4.15126 0
M  V30 4953 H 466.281 -0.817237 5.42782 0
M  V30 4954 H 466.542 -1.83672 4.0214 0
M  V30 4955 N 465.601 -1.54893 0.290851 0
M  V30 4956 C 466.533 -2.20564 -0.623236 0
M  V30 4957 C 467.546 -1.19519 -1.1054 0
M  V30 4958 O 468.735 -1.46165 -1.02459 0
M  V30 4959 C 465.835 -2.83033 -1.86401 0
M  V30 4960 C 465.008 -4.09916 -1.52604 0
M  V30 4961 C 464.067 -4.56284 -2.62091 0
M  V30 4962 O 463.093 -5.2171 -2.27612 0
M  V30 4963 N 464.295 -4.27746 -3.92446 0
M  V30 4964 H 467.06 -2.99638 -0.0610915 0
M  V30 4965 H 464.621 -1.61508 0.112615 0
M  V30 4966 H 466.613 -3.1099 -2.58973 0
M  V30 4967 H 465.183 -2.0786 -2.33481 0
M  V30 4968 H 464.403 -3.89078 -0.633424 0
M  V30 4969 H 465.691 -4.92554 -1.27547 0
M  V30 4970 H 465.089 -3.7531 -4.23272 0
M  V30 4971 H 463.646 -4.60437 -4.61347 0
M  V30 4972 N 467.08 -0.0183926 -1.57589 0
M  V30 4973 C 468.326 0.663543 -1.91638 0
M  V30 4974 C 468.659 1.72392 -0.894134 0
M  V30 4975 O 467.934 1.94316 0.0846449 0
M  V30 4976 C 468.217 1.28984 -3.36207 0
M  V30 4977 C 468.07 0.239761 -4.49161 0
M  V30 4978 C 469.389 2.2109 -3.80536 0
M  V30 4979 H 466.508 0.239746 -0.696915 0
M  V30 4980 H 469.15 -0.073456 -1.89858 0
M  V30 4981 H 467.3 1.91799 -3.37854 0
M  V30 4982 H 468.972 -0.390119 -4.59647 0
M  V30 4983 H 467.215 -0.435972 -4.31604 0
M  V30 4984 H 467.886 0.717383 -5.47319 0
M  V30 4985 H 470.362 1.68273 -3.80557 0
M  V30 4986 H 469.238 2.61869 -4.82406 0
M  V30 4987 H 469.499 3.09764 -3.15434 0
M  V30 4988 N 468.558 1.5553 0.254621 0
M  V30 4989 C 469.783 1.81383 1.00573 0
M  V30 4990 C 470.208 0.594419 1.78461 0
M  V30 4991 O 469.566 -0.456403 1.75461 0
M  V30 4992 C 469.614 3.04892 1.92545 0
M  V30 4993 O 468.718 2.81266 3.01601 0
M  V30 4994 H 468.059 0.598969 0.286587 0
M  V30 4995 H 470.589 2.02703 0.277952 0
M  V30 4996 H 470.599 3.34119 2.34155 0
M  V30 4997 H 469.274 3.93287 1.3527 0
M  V30 4998 H 467.851 2.63185 2.64174 0
M  V30 4999 N 470.036 -0.519951 1.48776 0
M  V30 5000 C 470.966 -1.63253 1.66945 0
M  V30 5001 C 471.947 -1.62014 0.518224 0
M  V30 5002 O 473.132 -1.79053 0.751919 0
M  V30 5003 C 470.262 -3.0181 1.71836 0
M  V30 5004 C 469.216 -3.17911 2.8656 0
M  V30 5005 C 468.542 -4.5763 2.76548 0
M  V30 5006 C 469.842 -2.99729 4.27738 0
M  V30 5007 H 471.536 -1.48302 2.6009 0
M  V30 5008 H 469.082 -0.712026 1.25165 0
M  V30 5009 H 471.035 -3.79525 1.83135 0
M  V30 5010 H 469.759 -3.17806 0.752775 0
M  V30 5011 H 468.418 -2.42616 2.74833 0
M  V30 5012 H 468.066 -4.70476 1.77937 0
M  V30 5013 H 467.766 -4.69346 3.53536 0
M  V30 5014 H 469.29 -5.37431 2.89828 0
M  V30 5015 H 470.704 -3.67228 4.40246 0
M  V30 5016 H 469.101 -3.22932 5.05801 0
M  V30 5017 H 470.171 -1.96047 4.43502 0
M  V30 5018 N 471.514 -1.37532 -0.769588 0
M  V30 5019 C 472.424 -1.35668 -1.91393 0
M  V30 5020 C 473.44 -0.255954 -1.72107 0
M  V30 5021 O 474.616 -0.491704 -1.95305 0
M  V30 5022 C 471.681 -1.16481 -3.26547 0
M  V30 5023 C 470.742 -2.36212 -3.58472 0
M  V30 5024 C 469.975 -2.17932 -4.87177 0
M  V30 5025 O 470.198 -1.1647 -5.58382 0
M  V30 5026 O 469.132 -3.06167 -5.18214 0
M  V30 5027 H 472.958 -2.32055 -1.95918 0
M  V30 5028 H 470.543 -1.18284 -0.912641 0
M  V30 5029 H 472.425 -1.07778 -4.07384 0
M  V30 5030 H 471.1 -0.231687 -3.2287 0
M  V30 5031 H 470.007 -2.50488 -2.77861 0
M  V30 5032 H 471.34 -3.281 -3.66894 0
M  V30 5033 N 472.992 0.995999 -1.22138 0
M  V30 5034 C 474.269 1.70834 -0.952642 0
M  V30 5035 C 474.649 2.04257 0.533119 0
M  V30 5036 O 473.997 1.72343 1.50034 0
M  V30 5037 C 474.207 2.96119 -1.84701 0
M  V30 5038 C 475.555 3.68962 -2.10124 0
M  V30 5039 O 476.579 3.0612 -1.82124 0
M  V30 5040 O 475.438 4.82017 -2.57531 0
M  V30 5041 H 472.532 0.745498 -0.357997 0
M  V30 5042 H 475.078 1.05262 -1.33109 0
M  V30 5043 H 473.85 2.67898 -2.85213 0
M  V30 5044 H 473.473 3.6943 -1.46995 0
M  V30 5045 N 474.47 1.03057 1.19235 0
M  V30 5046 C 475.7 0.746613 1.92638 0
M  V30 5047 C 476.108 -0.698708 1.75826 0
M  V30 5048 O 475.451 -1.487 1.07861 0
M  V30 5049 C 475.513 1.02024 3.44719 0
M  V30 5050 C 475.177 2.45745 3.85303 0
M  V30 5051 C 476.174 3.43887 3.8992 0
M  V30 5052 C 473.859 2.8019 4.16892 0
M  V30 5053 C 475.853 4.74529 4.2556 0
M  V30 5054 C 473.54 4.1104 4.52205 0
M  V30 5055 C 474.538 5.0802 4.56513 0
M  V30 5056 O 474.226 6.36527 4.91008 0
M  V30 5057 H 473.958 0.272401 0.618687 0
M  V30 5058 H 476.512 1.37853 1.52269 0
M  V30 5059 H 474.742 0.331184 3.85279 0
M  V30 5060 H 476.431 0.725677 3.9936 0
M  V30 5061 H 477.197 3.18614 3.65664 0
M  V30 5062 H 473.076 2.05382 4.12722 0
M  V30 5063 H 476.62 5.50222 4.28838 0
M  V30 5064 H 472.517 4.36086 4.7592 0
M  V30 5065 H 473.285 6.41025 5.08949 0
M  V30 5066 N 475.948 -1.35272 0.808662 0
M  V30 5067 C 477.197 -1.97963 0.386483 0
M  V30 5068 C 477.51 -1.64866 -1.05255 0
M  V30 5069 O 478.716 -2.20937 -1.57794 0
M  V30 5070 C 477.172 -3.54162 0.640096 0
M  V30 5071 C 476.78 -3.96166 2.0918 0
M  V30 5072 C 478.524 -4.23553 0.283376 0
M  V30 5073 C 476.431 -5.4522 2.29106 0
M  V30 5074 H 475.361 -0.740742 0.140774 0
M  V30 5075 H 478.012 -1.5431 0.993012 0
M  V30 5076 H 476.394 -3.95983 -0.0364117 0
M  V30 5077 H 477.568 -3.65491 2.80629 0
M  V30 5078 H 475.883 -3.3967 2.40859 0
M  V30 5079 H 478.48 -5.33124 0.410273 0
M  V30 5080 H 478.823 -4.09105 -0.770659 0
M  V30 5081 H 479.356 -3.8716 0.913884 0
M  V30 5082 H 476.095 -5.64638 3.32962 0
M  V30 5083 H 475.615 -5.77457 1.62184 0
M  V30 5084 H 477.294 -6.1171 2.1076 0
M  V30 5085 N 477.426 -0.562348 -1.47226 0
M  V30 5086 C 478.374 0.195476 -2.31777 0
M  V30 5087 C 479.368 0.90433 -1.43242 0
M  V30 5088 O 480.574 0.825031 -1.59979 0
M  V30 5089 H 476.949 0.0819095 -0.747526 0
M  V30 5090 H 478.92 -0.536753 -2.93533 0
M  V30 5091 C 477.669 1.20902 -3.26003 0
M  V30 5092 H 476.992 0.672997 -3.94095 0
M  V30 5093 H 478.432 1.71006 -3.87986 0
M  V30 5094 C 476.891 2.25955 -2.49891 0
M  V30 5095 O 477.421 3.32969 -2.2471 0
M  V30 5096 N 475.627 2.00019 -2.1081 0
M  V30 5097 H 475.174 1.13006 -2.31489 0
M  V30 5098 H 475.132 2.70523 -1.60201 0
M  V30 5099 N 478.904 1.54736 -0.299062 0
M  V30 5100 C 480.181 1.92187 0.363802 0
M  V30 5101 C 480.561 1.22607 1.71845 0
M  V30 5102 O 479.909 0.361141 2.25628 0
M  V30 5103 C 480.119 3.45678 0.480377 0
M  V30 5104 C 481.467 4.17885 0.752147 0
M  V30 5105 O 482.491 3.51702 0.564264 0
M  V30 5106 O 481.35 5.35048 1.11294 0
M  V30 5107 H 478.444 0.801681 0.203066 0
M  V30 5108 H 480.99 1.66115 -0.346978 0
M  V30 5109 H 479.762 3.88443 -0.471999 0
M  V30 5110 H 479.385 3.77779 1.2397 0
M  V30 5111 N 480.382 0.0267497 1.57577 0
M  V30 5112 C 481.798 -0.32962 1.56159 0
M  V30 5113 C 481.998 -1.73059 1.03213 0
M  V30 5114 O 481.054 -2.43233 0.677804 0
M  V30 5115 C 482.367 -0.18039 3.00158 0
M  V30 5116 C 483.915 -0.253334 3.11973 0
M  V30 5117 C 484.39 -0.132921 4.57807 0
M  V30 5118 N 485.881 -0.189979 4.6281 0
M  V30 5119 C 486.616 -0.120554 5.73273 0
M  V30 5120 N 486.112 -0.000180315 6.928 0
M  V30 5121 N 487.905 -0.174369 5.61829 0
M  V30 5122 H 480.056 0.942896 1.90324 0
M  V30 5123 H 482.319 0.3639 0.875375 0
M  V30 5124 H 482.025 0.784576 3.42837 0
M  V30 5125 H 481.899 -0.951565 3.65 0
M  V30 5126 H 484.286 -1.20876 2.69208 0
M  V30 5127 H 484.367 0.548177 2.49857 0
M  V30 5128 H 484.011 0.819073 5.01252 0
M  V30 5129 H 483.941 -0.953264 5.179 0
M  V30 5130 H 486.432 -0.283257 3.76837 0
M  V30 5131 H 486.745 0.0461666 7.72786 0
M  V30 5132 H 485.09 0.034569 6.94991 0
M  V30 5133 H 488.281 -0.266794 4.67339 0
M  V30 5134 H 488.454 -0.116802 6.47895 0
M  V30 5135 N 481.861 -1.55662 -0.24637 0
M  V30 5136 C 482.793 -1.86811 -1.32794 0
M  V30 5137 C 483.806 -0.754413 -1.44265 0
M  V30 5138 O 484.995 -1.03253 -1.45606 0
M  V30 5139 C 482.095 -2.0397 -2.70646 0
M  V30 5140 C 481.268 -3.34832 -2.81436 0
M  V30 5141 C 480.327 -3.41727 -4.00136 0
M  V30 5142 O 479.353 -4.14934 -3.89639 0
M  V30 5143 N 480.555 -2.71058 -5.1333 0
M  V30 5144 H 483.32 -2.80174 -1.06409 0
M  V30 5145 H 480.881 -1.55906 -0.43647 0
M  V30 5146 H 482.873 -2.05924 -3.48393 0
M  V30 5147 H 481.443 -1.1735 -2.89738 0
M  V30 5148 H 480.663 -3.4519 -1.90361 0
M  V30 5149 H 481.951 -4.21085 -2.85595 0
M  V30 5150 H 481.349 -2.11314 -5.2475 0
M  V30 5151 H 479.906 -2.78704 -5.89209 0
M  V30 5152 N 483.339 0.512053 -1.4905 0
M  V30 5153 C 484.569 1.28928 -1.61434 0
M  V30 5154 C 484.977 1.87107 -0.280647 0
M  V30 5155 O 484.32 1.68024 0.742537 0
M  V30 5156 C 484.382 2.466 -2.61588 0
M  V30 5157 C 484.046 2.09375 -4.06216 0
M  V30 5158 C 485.043 1.63994 -4.93358 0
M  V30 5159 C 482.728 2.19348 -4.51876 0
M  V30 5160 C 484.722 1.29076 -6.24194 0
M  V30 5161 C 482.409 1.84041 -5.82728 0
M  V30 5162 C 483.407 1.38978 -6.68711 0
M  V30 5163 O 483.095 1.04144 -7.97126 0
M  V30 5164 H 482.827 0.397668 -0.546659 0
M  V30 5165 H 485.381 0.622507 -1.9574 0
M  V30 5166 H 483.611 3.16318 -2.22441 0
M  V30 5167 H 485.3 3.08642 -2.63619 0
M  V30 5168 H 486.066 1.55744 -4.59313 0
M  V30 5169 H 481.945 2.53376 -3.85125 0
M  V30 5170 H 485.489 0.938303 -6.91261 0
M  V30 5171 H 481.386 1.91938 -6.16304 0
M  V30 5172 H 482.154 1.17387 -8.10039 0
M  V30 5173 N 484.817 1.37938 0.762283 0
M  V30 5174 C 486.094 1.24196 1.51112 0
M  V30 5175 C 486.474 -0.160409 2.1049 0
M  V30 5176 O 485.822 -1.16904 1.96331 0
M  V30 5177 C 486.032 2.34537 2.58445 0
M  V30 5178 C 487.38 2.7254 3.25588 0
M  V30 5179 O 488.404 2.33783 2.68745 0
M  V30 5180 O 487.263 3.39343 4.28379 0
M  V30 5181 H 484.357 0.485175 0.669727 0
M  V30 5182 H 486.903 1.49743 0.798438 0
M  V30 5183 H 485.675 3.28406 2.12756 0
M  V30 5184 H 485.298 2.10505 3.37303 0
M  V30 5185 N 486.295 -0.989507 1.22664 0
M  V30 5186 C 487.52 -1.77031 1.08051 0
M  V30 5187 C 487.945 -1.84535 -0.364483 0
M  V30 5188 O 487.303 -1.3003 -1.2634 0
M  V30 5189 C 487.351 -3.18 1.70024 0
M  V30 5190 O 486.455 -4.01161 0.956216 0
M  V30 5191 H 485.796 -0.545008 0.379292 0
M  V30 5192 H 488.326 -1.24277 1.62531 0
M  V30 5193 H 488.336 -3.68616 1.74888 0
M  V30 5194 H 487.011 -3.11853 2.75174 0
M  V30 5195 H 485.588 -3.59687 0.98384 0
M  V30 5196 N 487.773 -1.03688 -1.18687 0
M  V30 5197 C 489.189 -0.755413 -1.4059 0
M  V30 5198 C 489.389 0.656659 -1.905 0
M  V30 5199 O 488.445 1.42144 -2.08689 0
M  V30 5200 C 489.758 -1.7983 -2.41001 0
M  V30 5201 C 491.306 -1.81877 -2.54735 0
M  V30 5202 C 491.781 -2.85148 -3.58406 0
M  V30 5203 N 493.272 -2.84015 -3.6591 0
M  V30 5204 C 494.007 -3.60573 -4.45841 0
M  V30 5205 N 493.503 -4.46871 -5.29413 0
M  V30 5206 N 495.296 -3.49079 -4.40568 0
M  V30 5207 H 487.447 -1.94818 -0.846148 0
M  V30 5208 H 489.71 -0.842727 -0.434184 0
M  V30 5209 H 489.416 -2.81097 -2.1137 0
M  V30 5210 H 489.29 -1.62727 -3.40294 0
M  V30 5211 H 491.677 -0.812836 -2.83685 0
M  V30 5212 H 491.758 -2.03057 -1.55568 0
M  V30 5213 H 491.402 -3.85918 -3.30197 0
M  V30 5214 H 491.332 -2.61224 -4.57241 0
M  V30 5215 H 493.823 -2.21431 -3.0623 0
M  V30 5216 H 494.136 -5.02007 -5.87545 0
M  V30 5217 H 492.481 -4.5094 -5.28846 0
M  V30 5218 H 495.672 -2.81066 -3.74325 0
M  V30 5219 H 495.845 -4.08994 -5.02621 0
M  V30 5220 N 489.251 1.34841 -0.815825 0
M  V30 5221 C 490.499 1.98107 -0.399744 0
M  V30 5222 C 490.82 1.65019 1.03894 0
M  V30 5223 O 490.09 0.937311 1.72021 0
M  V30 5224 H 488.67 0.732827 -0.144823 0
M  V30 5225 H 491.332 1.64599 -1.0437 0
M  V30 5226 H 490.428 3.07856 -0.512965 0
M  V30 5227 N 490.729 0.570148 1.46925 0
M  V30 5228 C 492.145 0.23087 1.57921 0
M  V30 5229 C 492.345 -1.26676 1.56702 0
M  V30 5230 O 491.401 -2.04774 1.47729 0
M  V30 5231 C 492.714 0.868973 2.8787 0
M  V30 5232 C 494.262 0.841397 3.01479 0
M  V30 5233 C 494.737 1.45881 4.34146 0
M  V30 5234 N 496.228 1.42258 4.40814 0
M  V30 5235 C 496.963 1.8698 5.42057 0
M  V30 5236 N 496.459 2.39618 6.50042 0
M  V30 5237 N 498.252 1.77972 5.33181 0
M  V30 5238 H 490.403 1.54301 1.45962 0
M  V30 5239 H 492.666 0.644224 0.69547 0
M  V30 5240 H 492.372 1.922 2.94537 0
M  V30 5241 H 492.246 0.369682 3.75384 0
M  V30 5242 H 494.633 -0.202973 2.94401 0
M  V30 5243 H 494.714 1.37858 2.15474 0
M  V30 5244 H 494.358 2.50231 4.4198 0
M  V30 5245 H 494.288 0.896958 5.18905 0
M  V30 5246 H 496.779 1.03768 3.63374 0
M  V30 5247 H 497.092 2.71633 7.23488 0
M  V30 5248 H 495.437 2.43636 6.50897 0
M  V30 5249 H 498.628 1.36617 4.4772 0
M  V30 5250 H 498.801 2.13143 6.11943 0
M  V30 5251 N 492.207 -1.54576 0.307264 0
M  V30 5252 C 493.454 -2.00263 -0.300167 0
M  V30 5253 C 493.782 -1.19561 -1.53413 0
M  V30 5254 O 493.037 -0.261487 -1.93945 0
M  V30 5255 C 493.336 -3.50572 -0.695253 0
M  V30 5256 C 493.002 -4.48771 0.437679 0
M  V30 5257 C 491.664 -4.7534 0.748681 0
M  V30 5258 C 494.016 -5.0721 1.19949 0
M  V30 5259 C 491.344 -5.5761 1.8245 0
M  V30 5260 C 493.696 -5.90651 2.26527 0
M  V30 5261 C 492.36 -6.15528 2.58227 0
M  V30 5262 H 491.63 -0.732814 -0.109839 0
M  V30 5263 H 494.277 -1.86664 0.427661 0
M  V30 5264 H 492.582 -3.61814 -1.50326 0
M  V30 5265 H 494.279 -3.83352 -1.17653 0
M  V30 5266 H 490.869 -4.282 0.185187 0
M  V30 5267 H 495.053 -4.86679 0.972474 0
M  V30 5268 H 490.309 -5.75121 2.07476 0
M  V30 5269 H 494.483 -6.34957 2.86011 0
M  V30 5270 H 492.11 -6.79066 3.4172 0
M  V30 5271 N 493.685 -0.035106 -1.57561 0
M  V30 5272 C 494.933 0.64096 -1.91667 0
M  V30 5273 C 495.254 1.72323 -0.912681 0
M  V30 5274 O 494.524 1.95849 0.0449089 0
M  V30 5275 H 493.104 0.239743 -0.707483 0
M  V30 5276 H 495.766 -0.084321 -1.94718 0
M  V30 5277 H 494.862 1.08987 -2.92452 0
M  V30 5278 N 495.163 1.55791 0.238111 0
M  V30 5279 C 496.073 1.94196 1.31625 0
M  V30 5280 C 497.089 0.843545 1.52185 0
M  V30 5281 O 498.265 1.1457 1.65637 0
M  V30 5282 C 495.33 2.2365 2.64918 0
M  V30 5283 C 494.391 3.46971 2.52804 0
M  V30 5284 C 493.624 3.7501 3.79741 0
M  V30 5285 O 493.847 3.04982 4.82019 0
M  V30 5286 O 492.781 4.68525 3.77846 0
M  V30 5287 H 496.607 2.86044 1.02043 0
M  V30 5288 H 494.192 1.42786 0.439603 0
M  V30 5289 H 496.074 2.43863 3.4367 0
M  V30 5290 H 494.749 1.34979 2.94215 0
M  V30 5291 H 493.656 3.32055 1.72309 0
M  V30 5292 H 494.989 4.35971 2.28451 0
M  V30 5293 N 496.642 -0.504142 1.49319 0
M  V30 5294 C 497.572 -1.61473 1.68667 0
M  V30 5295 C 498.553 -1.61455 0.535378 0
M  V30 5296 O 499.738 -1.78245 0.770868 0
M  V30 5297 C 496.868 -2.99971 1.75028 0
M  V30 5298 C 495.822 -3.14854 2.89916 0
M  V30 5299 C 495.148 -4.54671 2.81387 0
M  V30 5300 C 496.448 -2.95176 4.30893 0
M  V30 5301 H 498.142 -1.45535 2.61648 0
M  V30 5302 H 495.688 -0.698711 1.25913 0
M  V30 5303 H 497.641 -3.77562 1.8715 0
M  V30 5304 H 496.365 -3.1699 0.786441 0
M  V30 5305 H 495.024 -2.39687 2.77391 0
M  V30 5306 H 494.672 -4.68562 1.82917 0
M  V30 5307 H 494.372 -4.6557 3.58494 0
M  V30 5308 H 495.896 -5.34327 2.95512 0
M  V30 5309 H 497.31 -3.62538 4.44116 0
M  V30 5310 H 495.707 -3.17549 5.09198 0
M  V30 5311 H 496.777 -1.91332 4.45556 0
M  V30 5312 N 498.12 -1.38341 -0.754957 0
M  V30 5313 C 499.05 -1.38176 -1.88227 0
M  V30 5314 C 500.031 -0.247873 -1.68284 0
M  V30 5315 O 501.216 -0.45075 -1.88896 0
M  V30 5316 C 498.346 -1.20471 -3.25736 0
M  V30 5317 C 497.3 -2.3105 -3.60278 0
M  V30 5318 C 496.626 -1.98452 -4.96509 0
M  V30 5319 C 497.926 -3.73305 -3.65295 0
M  V30 5320 H 499.62 -2.32512 -1.88622 0
M  V30 5321 H 497.166 -1.1192 -0.906082 0
M  V30 5322 H 499.119 -1.18982 -4.04254 0
M  V30 5323 H 497.843 -0.225965 -3.25817 0
M  V30 5324 H 496.502 -2.31723 -2.84078 0
M  V30 5325 H 496.15 -0.990641 -4.93148 0
M  V30 5326 H 495.85 -2.7251 -5.20588 0
M  V30 5327 H 497.374 -1.98578 -5.77407 0
M  V30 5328 H 498.788 -3.7467 -4.3393 0
M  V30 5329 H 497.185 -4.46557 -4.00883 0
M  V30 5330 H 498.255 -4.05719 -2.65556 0
M  V30 5331 N 499.598 0.982988 -1.23187 0
M  V30 5332 C 500.528 2.09301 -1.03515 0
M  V30 5333 C 501.509 1.70035 0.0471136 0
M  V30 5334 O 502.694 1.93847 -0.117029 0
M  V30 5335 C 499.824 3.4167 -0.622791 0
M  V30 5336 C 498.778 3.94828 -1.65211 0
M  V30 5337 C 498.104 5.23362 -1.09527 0
M  V30 5338 C 499.404 4.2439 -3.04451 0
M  V30 5339 H 501.098 2.26016 -1.96359 0
M  V30 5340 H 498.644 1.08611 -0.945501 0
M  V30 5341 H 500.597 4.18746 -0.472233 0
M  V30 5342 H 499.321 3.24811 0.341329 0
M  V30 5343 H 497.98 3.19895 -1.79061 0
M  V30 5344 H 497.628 5.02852 -0.122211 0
M  V30 5345 H 497.328 5.59895 -1.783 0
M  V30 5346 H 498.852 6.03062 -0.956511 0
M  V30 5347 H 500.266 4.92225 -2.93917 0
M  V30 5348 H 498.663 4.72118 -3.70438 0
M  V30 5349 H 499.733 3.31765 -3.53638 0
M  V30 5350 N 501.076 1.04316 1.18135 0
M  V30 5351 C 502.006 0.657299 2.24058 0
M  V30 5352 C 502.987 -0.340678 1.66654 0
M  V30 5353 O 504.172 -0.220223 1.92947 0
M  V30 5354 C 501.302 0.0220715 3.47293 0
M  V30 5355 C 500.256 0.943857 4.17463 0
M  V30 5356 C 499.582 0.172973 5.3442 0
M  V30 5357 C 500.882 2.26409 4.70677 0
M  V30 5358 H 502.576 1.5428 2.56589 0
M  V30 5359 H 500.122 0.743263 1.23335 0
M  V30 5360 H 502.075 -0.259607 4.206 0
M  V30 5361 H 500.799 -0.898323 3.14003 0
M  V30 5362 H 499.458 1.20996 3.46057 0
M  V30 5363 H 499.106 -0.749907 4.97379 0
M  V30 5364 H 498.806 0.787098 5.82304 0
M  V30 5365 H 500.33 -0.101628 6.10515 0
M  V30 5366 H 501.744 2.04294 5.35665 0
M  V30 5367 H 500.141 2.8314 5.29105 0
M  V30 5368 H 501.211 2.90883 3.87962 0
M  V30 5369 N 502.554 -1.34406 0.822964 0
M  V30 5370 C 503.484 -2.32052 0.259608 0
M  V30 5371 C 504.465 -1.58243 -0.623961 0
M  V30 5372 O 505.65 -1.86224 -0.55083 0
M  V30 5373 C 502.78 -3.42434 -0.579314 0
M  V30 5374 C 501.734 -4.27499 0.20712 0
M  V30 5375 C 501.06 -5.29349 -0.754547 0
M  V30 5376 C 502.36 -5.02758 1.41533 0
M  V30 5377 H 504.054 -2.79418 1.07545 0
M  V30 5378 H 501.6 -1.34338 0.518593 0
M  V30 5379 H 503.553 -4.0976 -0.983612 0
M  V30 5380 H 502.277 -2.93717 -1.4282 0
M  V30 5381 H 500.936 -3.61776 0.592787 0
M  V30 5382 H 500.584 -4.76895 -1.59939 0
M  V30 5383 H 500.284 -5.8714 -0.232561 0
M  V30 5384 H 501.808 -5.99544 -1.1567 0
M  V30 5385 H 503.222 -5.62938 1.08504 0
M  V30 5386 H 501.619 -5.70123 1.87296 0
M  V30 5387 H 502.689 -4.32451 2.1935 0
M  V30 5388 N 504.032 -0.577932 -1.46621 0
M  V30 5389 C 505.443 -0.150071 -1.86096 0
M  V30 5390 C 505.794 1.28563 -1.48209 0
M  V30 5391 O 504.919 1.97036 -0.894754 0
M  V30 5392 C 505.514 -0.265576 -3.37758 0
M  V30 5393 C 504.073 0.10738 -3.76247 0
M  V30 5394 C 503.22 -0.603711 -2.70649 0
M  V30 5395 H 506.171 -0.786438 -1.37844 0
M  V30 5396 H 506.192 0.510352 -3.77062 0
M  V30 5397 H 505.704 -1.3106 -3.65301 0
M  V30 5398 H 503.805 1.15272 -3.54321 0
M  V30 5399 H 503.918 -0.26561 -4.78363 0
M  V30 5400 H 502.282 -0.0444884 -2.54661 0
M  V30 5401 H 503.065 -1.65029 -3.01032 0
M  V30 5402 N 505.51 1.54411 -0.315457 0
M  V30 5403 C 506.738 2.04833 0.291738 0
M  V30 5404 C 507.153 1.19203 1.46411 0
M  V30 5405 O 506.51 0.220867 1.81159 0
M  V30 5406 C 506.561 3.53969 0.73404 0
M  V30 5407 O 506.282 4.36346 -0.391682 0
M  V30 5408 C 507.783 4.2045 1.40489 0
M  V30 5409 H 505.003 0.668195 0.0612947 0
M  V30 5410 H 507.547 1.99276 -0.45929 0
M  V30 5411 H 505.702 3.5984 1.43506 0
M  V30 5412 H 506.116 5.24481 -0.0447088 0
M  V30 5413 H 507.59 5.26278 1.66539 0
M  V30 5414 H 508.067 3.71067 2.3496 0
M  V30 5415 H 508.673 4.18694 0.746662 0
M  V30 5416 N 506.988 0.0434614 1.5754 0
M  V30 5417 C 507.918 -0.931651 2.14109 0
M  V30 5418 C 508.899 -1.32971 1.06079 0
M  V30 5419 O 510.084 -1.40579 1.33982 0
M  V30 5420 C 507.214 -2.20914 2.67982 0
M  V30 5421 C 506.168 -1.95139 3.80926 0
M  V30 5422 C 505.494 -3.29276 4.21285 0
M  V30 5423 C 506.794 -1.27913 5.06395 0
M  V30 5424 H 508.488 -0.460497 2.95837 0
M  V30 5425 H 506.034 -0.220058 1.42309 0
M  V30 5426 H 507.987 -2.89522 3.06194 0
M  V30 5427 H 506.711 -2.70221 1.83434 0
M  V30 5428 H 505.37 -1.28945 3.43175 0
M  V30 5429 H 505.018 -3.76369 3.33699 0
M  V30 5430 H 504.718 -3.12831 4.97404 0
M  V30 5431 H 506.242 -3.99129 4.62091 0
M  V30 5432 H 507.656 -1.86544 5.42102 0
M  V30 5433 H 506.053 -1.2182 5.87605 0
M  V30 5434 H 507.123 -0.254066 4.84234 0
M  V30 5435 N 508.466 -1.55915 -0.229846 0
M  V30 5436 C 509.398 -1.88209 -1.30805 0
M  V30 5437 C 510.411 -0.769672 -1.43457 0
M  V30 5438 O 511.6 -1.04792 -1.44502 0
M  V30 5439 C 508.7 -2.06829 -2.68468 0
M  V30 5440 C 507.873 -3.37798 -2.77869 0
M  V30 5441 C 506.932 -3.45952 -3.96489 0
M  V30 5442 O 505.958 -4.19043 -3.85216 0
M  V30 5443 N 507.16 -2.76488 -5.10426 0
M  V30 5444 H 509.925 -2.81286 -1.03431 0
M  V30 5445 H 507.486 -1.5636 -0.41991 0
M  V30 5446 H 509.478 -2.09608 -3.46189 0
M  V30 5447 H 508.048 -1.20416 -2.88477 0
M  V30 5448 H 507.268 -3.4719 -1.86689 0
M  V30 5449 H 508.556 -4.24091 -2.81113 0
M  V30 5450 H 507.954 -2.16868 -5.2248 0
M  V30 5451 H 506.511 -2.84938 -5.8622 0
M  V30 5452 N 509.944 0.496216 -1.49584 0
M  V30 5453 C 511.169 1.27865 -1.63295 0
M  V30 5454 C 511.594 1.85592 -0.306156 0
M  V30 5455 O 510.952 1.66092 0.726851 0
M  V30 5456 C 511 2.38128 -2.7079 0
M  V30 5457 O 510.104 3.42108 -2.30296 0
M  V30 5458 H 509.445 0.377279 -0.546403 0
M  V30 5459 H 511.975 0.593497 -1.95803 0
M  V30 5460 H 511.985 2.8382 -2.93104 0
M  V30 5461 H 510.66 1.95479 -3.67098 0
M  V30 5462 H 509.237 3.02301 -2.18331 0
M  V30 5463 N 511.423 1.38739 0.74761 0
M  V30 5464 C 512.672 1.3459 1.50228 0
M  V30 5465 C 512.985 -0.0595592 1.95509 0
M  V30 5466 O 514.191 -0.22361 2.70578 0
M  V30 5467 C 512.647 2.36377 2.71393 0
M  V30 5468 C 512.255 3.82573 2.33113 0
M  V30 5469 C 513.999 2.41281 3.49262 0
M  V30 5470 C 511.906 4.76032 3.50924 0
M  V30 5471 H 510.836 0.500312 0.564096 0
M  V30 5472 H 513.487 1.64324 0.8167 0
M  V30 5473 H 511.869 1.99694 3.41962 0
M  V30 5474 H 513.043 4.28227 1.70171 0
M  V30 5475 H 511.358 3.80844 1.68365 0
M  V30 5476 H 513.955 3.08301 4.36869 0
M  V30 5477 H 514.298 1.43353 3.9084 0
M  V30 5478 H 514.831 2.76793 2.85711 0
M  V30 5479 H 511.57 5.75177 3.14408 0
M  V30 5480 H 511.09 4.35066 4.12889 0
M  V30 5481 H 512.769 4.94331 4.17427 0
M  V30 5482 N 512.901 -0.976442 1.23707 0
M  V30 5483 C 514.129 -1.75341 1.09833 0
M  V30 5484 C 514.544 -1.8553 -0.349885 0
M  V30 5485 O 513.901 -1.33732 -1.24185 0
M  V30 5486 C 513.952 -3.17833 1.72233 0
M  V30 5487 O 513.673 -3.08167 3.11391 0
M  V30 5488 C 515.174 -4.11906 1.63853 0
M  V30 5489 H 512.394 -0.550137 0.384175 0
M  V30 5490 H 514.938 -1.2265 1.63638 0
M  V30 5491 H 513.093 -3.67538 1.22452 0
M  V30 5492 H 513.507 -3.97897 3.41729 0
M  V30 5493 H 514.981 -5.09579 2.12211 0
M  V30 5494 H 515.458 -4.35109 0.598092 0
M  V30 5495 H 516.064 -3.68107 2.13019 0
M  V30 5496 N 514.379 -1.04941 -1.1758 0
M  V30 5497 C 515.625 -0.768896 -1.88307 0
M  V30 5498 C 515.98 0.696361 -1.79356 0
M  V30 5499 O 515.273 1.50245 -1.18899 0
M  V30 5500 C 515.467 -1.18062 -3.37337 0
M  V30 5501 C 515.296 -2.68436 -3.60794 0
M  V30 5502 C 514.066 -3.35709 -3.77661 0
M  V30 5503 C 516.264 -3.66657 -3.60649 0
M  V30 5504 N 514.246 -4.74974 -3.88939 0
M  V30 5505 C 515.617 -4.91638 -3.77747 0
M  V30 5506 C 517.672 -3.60162 -3.43785 0
M  V30 5507 C 516.375 -6.10902 -3.79726 0
M  V30 5508 C 518.401 -4.78863 -3.47051 0
M  V30 5509 C 517.763 -6.02666 -3.64654 0
M  V30 5510 H 513.862 -0.33355 -0.707296 0
M  V30 5511 H 516.446 -1.34085 -1.41171 0
M  V30 5512 H 514.617 -0.636648 -3.83147 0
M  V30 5513 H 516.349 -0.8502 -3.95669 0
M  V30 5514 H 513.104 -2.8611 -3.77409 0
M  V30 5515 H 513.528 -5.47378 -3.98379 0
M  V30 5516 H 518.17 -2.65412 -3.29114 0
M  V30 5517 H 515.888 -7.05998 -3.93182 0
M  V30 5518 H 519.474 -4.75488 -3.35265 0
M  V30 5519 H 518.354 -6.92979 -3.67083 0
M  V30 5520 N 515.857 1.33968 -0.830081 0
M  V30 5521 C 516.789 2.28194 -0.21448 0
M  V30 5522 C 517.802 1.5135 0.599752 0
M  V30 5523 O 518.991 1.73286 0.42826 0
M  V30 5524 C 516.091 3.31221 0.717356 0
M  V30 5525 C 515.264 4.37365 -0.055613 0
M  V30 5526 C 514.323 5.2011 0.798231 0
M  V30 5527 O 513.349 5.68691 0.240616 0
M  V30 5528 N 514.551 5.40523 2.11695 0
M  V30 5529 H 517.316 2.81662 -1.02405 0
M  V30 5530 H 514.877 1.46568 -0.687713 0
M  V30 5531 H 516.869 3.83477 1.29334 0
M  V30 5532 H 515.439 2.78095 1.42765 0
M  V30 5533 H 514.659 3.85727 -0.812936 0
M  V30 5534 H 515.947 5.05397 -0.587444 0
M  V30 5535 H 515.345 5.0274 2.59363 0
M  V30 5536 H 513.902 5.95871 2.64162 0
M  V30 5537 N 517.335 0.585699 1.46312 0
M  V30 5538 C 518.268 -0.194257 2.27372 0
M  V30 5539 C 519.246 -0.894116 1.3581 0
M  V30 5540 O 520.43 -0.907402 1.65222 0
M  V30 5541 C 517.557 -1.27901 3.13622 0
M  V30 5542 C 516.603 -0.684666 4.20969 0
M  V30 5543 S 517.436 0.490745 5.33247 0
M  V30 5544 C 518.592 -0.595137 6.23064 0
M  V30 5545 H 518.825 0.493515 2.93175 0
M  V30 5546 H 516.358 0.372666 1.49835 0
M  V30 5547 H 518.316 -1.90008 3.63878 0
M  V30 5548 H 516.977 -1.93875 2.47126 0
M  V30 5549 H 516.17 -1.50015 4.81156 0
M  V30 5550 H 515.772 -0.139204 3.73741 0
M  V30 5551 H 518.064 -1.48002 6.61137 0
M  V30 5552 H 519.007 -0.0299446 7.08094 0
M  V30 5553 H 519.415 -0.900627 5.57269 0
M  V30 5554 N 518.813 -1.54241 0.323641 0
M  V30 5555 C 520.062 -1.9975 -0.279806 0
M  V30 5556 C 520.375 -1.2156 -1.5324 0
M  V30 5557 O 521.581 -1.57447 -2.21185 0
M  V30 5558 C 520.037 -3.55686 -0.549115 0
M  V30 5559 C 519.645 -4.4271 0.686432 0
M  V30 5560 C 521.389 -4.09663 -1.11251 0
M  V30 5561 C 519.296 -5.90119 0.389022 0
M  V30 5562 H 518.226 -0.746177 -0.10833 0
M  V30 5563 H 520.877 -1.78248 0.435877 0
M  V30 5564 H 519.259 -3.73176 -1.32499 0
M  V30 5565 H 520.433 -4.36996 1.46188 0
M  V30 5566 H 518.748 -3.99623 1.17005 0
M  V30 5567 H 521.345 -5.17386 -1.34965 0
M  V30 5568 H 521.688 -3.61651 -2.06191 0
M  V30 5569 H 522.221 -3.95806 -0.39782 0
M  V30 5570 H 518.96 -6.42326 1.30759 0
M  V30 5571 H 518.48 -5.98785 -0.348722 0
M  V30 5572 H 520.159 -6.47 -0.0011164 0
M  V30 5573 N 520.291 -0.0518155 -1.57515 0
M  V30 5574 C 521.201 0.937539 -2.15052 0
M  V30 5575 C 522.217 1.34121 -1.10849 0
M  V30 5576 O 523.393 1.418 -1.4302 0
M  V30 5577 C 520.458 2.19379 -2.68466 0
M  V30 5578 C 519.519 1.84841 -3.87469 0
M  V30 5579 C 518.752 3.04477 -4.38326 0
M  V30 5580 O 518.975 4.17868 -3.88256 0
M  V30 5581 O 517.909 2.85453 -5.29906 0
M  V30 5582 H 521.735 0.478201 -2.99912 0
M  V30 5583 H 519.32 0.17012 -1.48428 0
M  V30 5584 H 521.202 2.93084 -3.02787 0
M  V30 5585 H 519.877 2.64449 -1.86677 0
M  V30 5586 H 518.784 1.08449 -3.58036 0
M  V30 5587 H 520.117 1.44569 -4.7049 0
M  V30 5588 N 521.769 1.56035 0.221574 0
M  V30 5589 C 522.701 1.889 1.29805 0
M  V30 5590 C 523.714 0.777269 1.43047 0
M  V30 5591 O 524.903 1.05557 1.43945 0
M  V30 5592 C 522.003 2.0825 2.67367 0
M  V30 5593 C 521.176 3.39267 2.76073 0
M  V30 5594 C 520.235 3.48049 3.94649 0
M  V30 5595 O 519.261 4.2108 3.82988 0
M  V30 5596 N 520.463 2.79191 5.08953 0
M  V30 5597 H 523.228 2.81831 1.01938 0
M  V30 5598 H 520.789 1.5658 0.411612 0
M  V30 5599 H 522.781 2.11441 3.45072 0
M  V30 5600 H 521.351 1.21944 2.87834 0
M  V30 5601 H 520.571 3.48175 1.84846 0
M  V30 5602 H 521.859 4.25575 2.7886 0
M  V30 5603 H 521.257 2.19635 5.21322 0
M  V30 5604 H 519.814 2.88043 5.84701 0
M  V30 5605 N 523.247 -0.488276 1.49845 0
M  V30 5606 C 524.496 -1.23826 1.59217 0
M  V30 5607 C 524.809 -1.93439 0.289966 0
M  V30 5608 O 526.015 -2.70229 0.262382 0
M  V30 5609 C 524.471 -2.24902 2.80976 0
M  V30 5610 C 524.079 -1.6117 4.18005 0
M  V30 5611 C 525.823 -3.00648 2.99685 0
M  V30 5612 C 523.73 -2.60431 5.3097 0
M  V30 5613 H 522.66 -0.465858 0.592868 0
M  V30 5614 H 525.311 -0.510645 1.76252 0
M  V30 5615 H 523.693 -3.0088 2.57463 0
M  V30 5616 H 524.867 -0.910968 4.51706 0
M  V30 5617 H 523.182 -0.97767 4.0476 0
M  V30 5618 H 525.779 -3.74903 3.81251 0
M  V30 5619 H 526.122 -3.5902 2.10738 0
M  V30 5620 H 526.655 -2.31784 3.23297 0
M  V30 5621 H 523.394 -2.06823 6.22017 0
M  V30 5622 H 522.914 -3.28707 5.01709 0
M  V30 5623 H 524.593 -3.22606 5.60834 0
M  V30 5624 N 524.725 -1.39134 -0.740242 0
M  V30 5625 C 525.657 -1.33332 -1.86428 0
M  V30 5626 C 526.67 -0.243042 -1.60976 0
M  V30 5627 O 527.859 -0.501608 -1.71307 0
M  V30 5628 C 524.959 -1.04626 -3.22346 0
M  V30 5629 C 524.132 -2.24826 -3.75196 0
M  V30 5630 C 523.191 -1.92659 -4.89662 0
M  V30 5631 O 522.217 -2.6529 -5.03597 0
M  V30 5632 N 523.419 -0.889575 -5.73643 0
M  V30 5633 H 526.184 -2.30196 -1.91911 0
M  V30 5634 H 523.745 -1.33168 -0.920756 0
M  V30 5635 H 525.737 -0.811347 -3.96484 0
M  V30 5636 H 524.307 -0.165129 -3.12164 0
M  V30 5637 H 523.527 -2.64301 -2.9247 0
M  V30 5638 H 524.815 -3.05015 -4.07239 0
M  V30 5639 H 524.213 -0.287529 -5.64969 0
M  V30 5640 H 522.77 -0.714557 -6.47871 0
M  V30 5641 N 526.204 0.969867 -1.24223 0
M  V30 5642 C 527.451 1.71256 -1.08063 0
M  V30 5643 C 527.779 1.90734 0.380872 0
M  V30 5644 O 527.034 1.46469 1.29789 0
M  V30 5645 C 527.333 3.10883 -1.76314 0
M  V30 5646 C 526.999 3.11252 -3.26241 0
M  V30 5647 C 525.661 3.1106 -3.67144 0
M  V30 5648 C 528.013 3.05751 -4.22097 0
M  V30 5649 C 525.341 3.03097 -5.02344 0
M  V30 5650 C 527.693 2.9933 -5.57301 0
M  V30 5651 C 526.357 2.97466 -5.97554 0
M  V30 5652 H 525.627 0.62667 -0.395431 0
M  V30 5653 H 528.274 1.13422 -1.54297 0
M  V30 5654 H 526.579 3.72168 -1.22468 0
M  V30 5655 H 528.276 3.67138 -1.61277 0
M  V30 5656 H 524.866 3.12165 -2.93685 0
M  V30 5657 H 529.05 3.05031 -3.91497 0
M  V30 5658 H 524.306 3.00013 -5.32731 0
M  V30 5659 H 528.48 2.94033 -6.31283 0
M  V30 5660 H 526.107 2.91051 -7.02277 0
M  V30 5661 N 527.682 1.05563 1.17022 0
M  V30 5662 C 528.931 0.763036 1.8671 0
M  V30 5663 C 529.244 -0.712857 1.82147 0
M  V30 5664 O 530.45 -1.11955 2.47343 0
M  V30 5665 C 528.906 1.31474 3.35026 0
M  V30 5666 C 528.514 2.82034 3.48081 0
M  V30 5667 C 530.258 1.09935 4.10018 0
M  V30 5668 C 528.165 3.30486 4.90442 0
M  V30 5669 H 527.095 0.281747 0.699382 0
M  V30 5670 H 529.746 1.2734 1.32124 0
M  V30 5671 H 528.128 0.732171 3.89173 0
M  V30 5672 H 529.302 3.46178 3.04133 0
M  V30 5673 H 527.617 3.02156 2.86515 0
M  V30 5674 H 530.214 1.43632 5.15048 0
M  V30 5675 H 530.557 0.0373072 4.16283 0
M  V30 5676 H 531.09 1.64732 3.62089 0
M  V30 5677 H 527.829 4.36137 4.89352 0
M  V30 5678 H 527.349 2.71086 5.35044 0
M  V30 5679 H 529.028 3.25382 5.59227 0
M  V30 5680 N 529.16 -1.33526 0.837174 0
M  V30 5681 C 530.107 -2.29248 0.267169 0
M  V30 5682 C 531.077 -1.54252 -0.616071 0
M  V30 5683 O 532.262 -1.82559 -0.554699 0
M  V30 5684 C 529.402 -3.40638 -0.553152 0
M  V30 5685 C 528.515 -4.30548 0.353921 0
M  V30 5686 C 527.65 -5.29051 -0.477339 0
M  V30 5687 C 526.689 -6.106 0.42823 0
M  V30 5688 N 525.826 -7.01152 -0.364801 0
M  V30 5689 H 530.666 -2.77398 1.08877 0
M  V30 5690 H 528.203 -1.36496 0.54838 0
M  V30 5691 H 530.161 -4.03921 -1.04422 0
M  V30 5692 H 528.791 -2.93685 -1.33973 0
M  V30 5693 H 527.843 -3.68001 0.963289 0
M  V30 5694 H 529.155 -4.87631 1.04964 0
M  V30 5695 H 528.309 -5.97853 -1.0323 0
M  V30 5696 H 527.048 -4.72541 -1.2065 0
M  V30 5697 H 526.053 -5.40718 0.995219 0
M  V30 5698 H 527.278 -6.69193 1.15573 0
M  V30 5699 H 525.224 -6.47092 -1.07738 0
M  V30 5700 H 525.141 -7.5551 0.272238 0
M  V30 5701 H 526.409 -7.74263 -0.902054 0
M  V30 5702 N 530.638 -0.59345 -1.46 0
M  V30 5703 C 531.568 0.121192 -2.33185 0
M  V30 5704 C 532.549 0.872977 -1.4599 0
M  V30 5705 O 533.734 0.846321 -1.74789 0
M  V30 5706 C 530.864 1.12844 -3.28456 0
M  V30 5707 C 529.818 0.4908 -4.25177 0
M  V30 5708 C 529.144 1.60529 -5.10034 0
M  V30 5709 C 530.444 -0.578949 -5.19081 0
M  V30 5710 H 532.138 -0.606767 -2.93187 0
M  V30 5711 H 529.684 -0.293242 -1.40983 0
M  V30 5712 H 531.637 1.63684 -3.88311 0
M  V30 5713 H 530.361 1.88681 -2.66584 0
M  V30 5714 H 529.02 0.00339328 -3.666 0
M  V30 5715 H 528.668 2.35359 -4.44539 0
M  V30 5716 H 528.368 1.18422 -5.75543 0
M  V30 5717 H 529.892 2.11623 -5.72755 0
M  V30 5718 H 531.306 -0.155199 -5.7309 0
M  V30 5719 H 529.703 -0.920947 -5.92991 0
M  V30 5720 H 530.773 -1.46109 -4.62364 0
M  V30 5721 N 532.116 1.54067 -0.331816 0
M  V30 5722 C 533.363 2.00715 0.268269 0
M  V30 5723 C 533.691 1.21986 1.51491 0
M  V30 5724 O 532.946 0.292309 1.93505 0
M  V30 5725 C 533.245 3.51634 0.639392 0
M  V30 5726 C 532.911 4.48018 -0.509019 0
M  V30 5727 C 531.573 4.74089 -0.824209 0
M  V30 5728 C 533.925 5.05237 -1.28003 0
M  V30 5729 C 531.253 5.54637 -1.91298 0
M  V30 5730 C 533.605 5.86972 -2.35895 0
M  V30 5731 C 532.269 6.11342 -2.67987 0
M  V30 5732 H 531.539 0.734469 0.0981667 0
M  V30 5733 H 534.186 1.8596 -0.457304 0
M  V30 5734 H 532.491 3.6416 1.44551 0
M  V30 5735 H 534.188 3.85175 1.11539 0
M  V30 5736 H 530.778 4.27851 -0.253287 0
M  V30 5737 H 534.962 4.8507 -1.04978 0
M  V30 5738 H 530.218 5.71747 -2.16599 0
M  V30 5739 H 534.392 6.30327 -2.96076 0
M  V30 5740 H 532.019 6.73544 -3.5248 0
M  V30 5741 N 533.594 0.0601682 1.57485 0
M  V30 5742 C 534.842 -0.610386 1.92662 0
M  V30 5743 C 535.163 -1.70849 0.939981 0
M  V30 5744 O 534.433 -1.95895 -0.0137455 0
M  V30 5745 H 533.013 -0.228457 0.711208 0
M  V30 5746 H 535.675 0.115288 1.94559 0
M  V30 5747 H 534.771 -1.0432 2.94149 0
M  V30 5748 N 535.072 -1.5615 -0.213296 0
M  V30 5749 C 536.005 -1.88115 -1.29182 0
M  V30 5750 C 536.983 -0.739348 -1.44819 0
M  V30 5751 O 538.167 -0.988541 -1.605 0
M  V30 5752 C 535.294 -2.09541 -2.66102 0
M  V30 5753 C 534.34 -3.32236 -2.67436 0
M  V30 5754 S 535.173 -4.87915 -2.20679 0
M  V30 5755 C 536.329 -5.12387 -3.59458 0
M  V30 5756 H 536.562 -2.793 -1.01876 0
M  V30 5757 H 534.095 -1.48692 -0.415934 0
M  V30 5758 H 536.053 -2.22568 -3.44925 0
M  V30 5759 H 534.714 -1.19138 -2.90628 0
M  V30 5760 H 533.907 -3.44297 -3.6807 0
M  V30 5761 H 533.509 -3.18108 -1.96681 0
M  V30 5762 H 535.801 -5.01791 -4.55205 0
M  V30 5763 H 536.744 -6.14236 -3.52306 0
M  V30 5764 H 537.152 -4.40089 -3.53528 0
M  V30 5765 N 536.55 0.480323 -1.50102 0
M  V30 5766 C 537.513 1.56181 -1.6775 0
M  V30 5767 C 538.513 1.51156 -0.548503 0
M  V30 5768 O 539.703 1.5394 -0.815363 0
M  V30 5769 C 536.835 2.95823 -1.69415 0
M  V30 5770 H 538.028 1.41855 -2.6423 0
M  V30 5771 H 535.581 0.70605 -1.39444 0
M  V30 5772 H 536.316 3.15604 -0.745948 0
M  V30 5773 H 536.101 3.00878 -2.51425 0
M  V30 5774 H 537.591 3.74359 -1.85054 0
M  V30 5775 N 538.028 1.39524 0.732853 0
M  V30 5776 C 538.975 1.38416 1.84688 0
M  V30 5777 C 539.945 0.243539 1.64305 0
M  V30 5778 O 541.13 0.438979 1.85681 0
M  V30 5779 C 538.27 1.23555 3.22224 0
M  V30 5780 C 537.383 2.47179 3.54298 0
M  V30 5781 C 536.518 2.2489 4.81246 0
M  V30 5782 C 535.557 3.44178 5.0617 0
M  V30 5783 N 534.694 3.21192 6.24323 0
M  V30 5784 H 539.534 2.33645 1.84971 0
M  V30 5785 H 537.071 1.16059 0.903804 0
M  V30 5786 H 539.029 1.12949 4.0162 0
M  V30 5787 H 537.659 0.31954 3.21215 0
M  V30 5788 H 536.711 2.68379 2.69587 0
M  V30 5789 H 538.023 3.36022 3.68633 0
M  V30 5790 H 537.177 2.11538 5.68627 0
M  V30 5791 H 535.916 1.33443 4.69089 0
M  V30 5792 H 534.921 3.58025 4.17251 0
M  V30 5793 H 536.146 4.36528 5.20212 0
M  V30 5794 H 534.092 2.32413 6.1345 0
M  V30 5795 H 534.009 4.03594 6.39256 0
M  V30 5796 H 535.277 3.1154 7.14537 0
M  V30 5797 N 539.506 -0.963266 1.24736 0
M  V30 5798 C 540.755 -1.70115 1.08369 0
M  V30 5799 C 541.068 -1.91939 -0.376688 0
M  V30 5800 O 542.274 -2.6334 -0.660624 0
M  V30 5801 C 540.73 -3.06218 1.89099 0
M  V30 5802 C 540.338 -2.92221 3.39574 0
M  V30 5803 C 542.082 -3.83848 1.81275 0
M  V30 5804 C 539.989 -4.23662 4.12631 0
M  V30 5805 H 538.919 -0.637944 0.401924 0
M  V30 5806 H 541.57 -1.07304 1.48856 0
M  V30 5807 H 539.952 -3.69884 1.41429 0
M  V30 5808 H 541.126 -2.37541 3.94856 0
M  V30 5809 H 539.441 -2.28054 3.48397 0
M  V30 5810 H 542.038 -4.81188 2.33158 0
M  V30 5811 H 542.381 -4.08949 0.778895 0
M  V30 5812 H 542.914 -3.26918 2.26649 0
M  V30 5813 H 539.653 -4.03753 5.16395 0
M  V30 5814 H 539.173 -4.78141 3.62135 0
M  V30 5815 H 540.852 -4.92256 4.19873 0
M  V30 5816 N 540.985 -1.06182 -1.16461 0
M  V30 5817 C 542.262 -0.691364 -1.82974 0
M  V30 5818 C 542.642 0.827377 -1.9421 0
M  V30 5819 O 541.99 1.73723 -1.48434 0
M  V30 5820 C 542.2 -1.39199 -3.20038 0
M  V30 5821 C 543.548 -1.53647 -3.95825 0
M  V30 5822 O 544.572 -1.35181 -3.29552 0
M  V30 5823 O 543.431 -1.83932 -5.14618 0
M  V30 5824 H 540.525 -0.244605 -0.789998 0
M  V30 5825 H 543.071 -1.16203 -1.23673 0
M  V30 5826 H 541.843 -2.42766 -3.06888 0
M  V30 5827 H 541.466 -0.911335 -3.87015 0
M  V30 5828 N 542.463 1.3308 -0.844243 0
M  V30 5829 C 543.411 2.31028 -0.269954 0
M  V30 5830 C 544.405 1.58381 0.600997 0
M  V30 5831 O 545.611 1.73203 0.48996 0
M  V30 5832 H 541.986 0.748866 -0.0685782 0
M  V30 5833 H 543.957 2.76967 -1.11049 0
M  V30 5834 C 542.706 3.43549 0.535676 0
M  V30 5835 H 542.029 3.99604 -0.125202 0
M  V30 5836 H 543.469 4.14267 0.903262 0
M  V30 5837 C 541.928 2.8988 1.71672 0
M  V30 5838 O 542.458 2.86511 2.81557 0
M  V30 5839 N 540.664 2.46416 1.54037 0
M  V30 5840 H 540.211 2.49356 0.64649 0
M  V30 5841 H 540.169 2.1086 2.33207 0
M  V30 5842 N 543.941 0.601185 1.45683 0
M  V30 5843 C 544.871 -0.108824 2.33246 0
M  V30 5844 C 545.852 -0.865223 1.46451 0
M  V30 5845 O 547.037 -0.83704 1.75235 0
M  V30 5846 C 544.167 -1.11101 3.2905 0
M  V30 5847 C 543.121 -0.468244 4.25431 0
M  V30 5848 C 542.447 -1.57822 5.10878 0
M  V30 5849 C 543.747 0.606469 5.18767 0
M  V30 5850 H 545.441 0.622306 2.92861 0
M  V30 5851 H 542.987 0.300714 1.40825 0
M  V30 5852 H 544.94 -1.61622 3.89174 0
M  V30 5853 H 543.664 -1.87265 2.67581 0
M  V30 5854 H 542.323 0.0160484 3.66596 0
M  V30 5855 H 541.971 -2.32998 4.45781 0
M  V30 5856 H 541.671 -1.15369 5.76163 0
M  V30 5857 H 543.195 -2.08583 5.73869 0
M  V30 5858 H 544.609 0.185589 5.73 0
M  V30 5859 H 543.006 0.952381 5.92494 0
M  V30 5860 H 544.076 1.48559 4.61582 0
M  V30 5861 N 545.419 -1.53889 0.339982 0
M  V30 5862 C 546.349 -2.27843 -0.510856 0
M  V30 5863 C 547.33 -1.29267 -1.10563 0
M  V30 5864 O 548.515 -1.58104 -1.12768 0
M  V30 5865 C 545.645 -3.04857 -1.66372 0
M  V30 5866 C 544.599 -4.10907 -1.19746 0
M  V30 5867 C 543.925 -4.75855 -2.43857 0
M  V30 5868 C 545.225 -5.21435 -0.300501 0
M  V30 5869 H 546.919 -2.99212 0.106067 0
M  V30 5870 H 544.465 -1.43904 0.0524533 0
M  V30 5871 H 546.418 -3.5533 -2.26537 0
M  V30 5872 H 545.142 -2.31133 -2.30749 0
M  V30 5873 H 543.801 -3.61342 -0.618654 0
M  V30 5874 H 543.449 -3.9873 -3.06633 0
M  V30 5875 H 543.149 -5.47502 -2.13343 0
M  V30 5876 H 544.673 -5.2911 -3.04754 0
M  V30 5877 H 546.087 -5.67565 -0.80889 0
M  V30 5878 H 544.484 -6.00036 -0.0874076 0
M  V30 5879 H 545.554 -4.80328 0.664321 0
M  V30 5880 N 546.897 -0.0685191 -1.57451 0
M  V30 5881 C 547.829 0.929372 -2.09512 0
M  V30 5882 C 548.842 1.26354 -1.02657 0
M  V30 5883 O 550.031 1.2213 -1.30179 0
M  V30 5884 C 547.131 2.24612 -2.53777 0
M  V30 5885 C 546.304 2.09128 -3.84167 0
M  V30 5886 C 545.363 3.24079 -4.14559 0
M  V30 5887 O 544.389 2.99215 -4.8421 0
M  V30 5888 N 545.591 4.49077 -3.67845 0
M  V30 5889 H 548.356 0.484901 -2.95751 0
M  V30 5890 H 545.917 0.11729 -1.61475 0
M  V30 5891 H 547.909 3.00412 -2.71172 0
M  V30 5892 H 546.479 2.60569 -1.72692 0
M  V30 5893 H 545.699 1.17815 -3.76182 0
M  V30 5894 H 546.987 1.9603 -4.69521 0
M  V30 5895 H 546.385 4.72165 -3.11571 0
M  V30 5896 H 544.942 5.21915 -3.90446 0
M  V30 5897 N 548.375 1.56261 0.205012 0
M  V30 5898 C 549.285 1.96944 1.27476 0
M  V30 5899 C 550.301 0.875636 1.50362 0
M  V30 5900 O 551.477 1.18058 1.6317 0
M  V30 5901 C 548.542 2.29219 2.60115 0
M  V30 5902 C 547.603 3.52255 2.45387 0
M  V30 5903 C 546.836 3.8298 3.71701 0
M  V30 5904 O 547.059 3.15138 4.75441 0
M  V30 5905 O 545.993 4.76435 3.67823 0
M  V30 5906 H 549.819 2.88144 0.959527 0
M  V30 5907 H 547.404 1.43686 0.409217 0
M  V30 5908 H 549.286 2.51098 3.3842 0
M  V30 5909 H 547.961 1.4119 2.91285 0
M  V30 5910 H 546.868 3.35635 1.65227 0
M  V30 5911 H 548.201 4.40719 2.19152 0
M  V30 5912 N 549.853 -0.472356 1.50355 0
M  V30 5913 C 550.786 -1.58923 1.63764 0
M  V30 5914 C 551.764 -1.55173 0.485793 0
M  V30 5915 O 552.948 -1.74815 0.705132 0
M  V30 5916 C 550.075 -2.97497 1.61905 0
M  V30 5917 C 549.121 -3.19405 2.82635 0
M  V30 5918 S 549.954 -2.99441 4.43954 0
M  V30 5919 C 551.11 -4.40359 4.44786 0
M  V30 5920 H 551.343 -1.47309 2.58239 0
M  V30 5921 H 548.876 -0.659601 1.39602 0
M  V30 5922 H 550.834 -3.77389 1.61518 0
M  V30 5923 H 549.495 -3.06502 0.686683 0
M  V30 5924 H 548.688 -4.20636 2.77636 0
M  V30 5925 H 548.29 -2.47283 2.80583 0
M  V30 5926 H 550.582 -5.32969 4.1827 0
M  V30 5927 H 551.525 -4.50403 5.46391 0
M  V30 5928 H 551.933 -4.22378 3.74509 0
M  V30 5929 N 551.331 -1.39911 -0.725443 0
M  V30 5930 C 552.261 -1.42138 -1.85254 0
M  V30 5931 C 553.242 -0.283513 -1.67721 0
M  V30 5932 O 554.427 -0.490717 -1.87898 0
M  V30 5933 C 551.557 -1.27354 -3.23107 0
M  V30 5934 C 550.511 -2.3864 -3.55296 0
M  V30 5935 C 549.837 -2.08939 -4.92188 0
M  V30 5936 C 551.137 -3.8097 -3.57295 0
M  V30 5937 H 552.831 -2.36461 -1.83648 0
M  V30 5938 H 550.377 -1.13817 -0.882138 0
M  V30 5939 H 552.33 -1.2753 -4.01639 0
M  V30 5940 H 551.054 -0.295025 -3.25265 0
M  V30 5941 H 549.713 -2.37696 -2.79099 0
M  V30 5942 H 549.361 -1.09502 -4.90936 0
M  V30 5943 H 549.061 -2.83491 -5.14691 0
M  V30 5944 H 550.585 -2.10781 -5.73065 0
M  V30 5945 H 551.999 -3.8379 -4.25885 0
M  V30 5946 H 550.396 -4.5496 -3.9132 0
M  V30 5947 H 551.466 -4.11261 -2.5689 0
M  V30 5948 N 552.809 0.956637 -1.25245 0
M  V30 5949 C 553.739 2.07058 -1.07931 0
M  V30 5950 C 554.72 1.70096 0.0110361 0
M  V30 5951 O 555.905 1.93555 -0.158121 0
M  V30 5952 C 553.035 3.40272 -0.695124 0
M  V30 5953 C 551.989 3.91235 -1.73549 0
M  V30 5954 C 551.315 5.20921 -1.20604 0
M  V30 5955 C 552.615 4.17837 -3.13385 0
M  V30 5956 H 554.309 2.218 -2.01109 0
M  V30 5957 H 551.855 1.06581 -0.968326 0
M  V30 5958 H 553.808 4.1765 -0.560949 0
M  V30 5959 H 552.532 3.25462 0.272355 0
M  V30 5960 H 551.191 3.16025 -1.85807 0
M  V30 5961 H 550.839 5.02479 -0.228846 0
M  V30 5962 H 550.539 5.55987 -1.90136 0
M  V30 5963 H 552.063 6.00897 -1.08421 0
M  V30 5964 H 553.477 4.8588 -3.04292 0
M  V30 5965 H 551.874 4.64154 -3.80369 0
M  V30 5966 H 552.944 3.2419 -3.60595 0
M  V30 5967 N 554.287 1.06798 1.15896 0
M  V30 5968 C 555.535 0.786211 1.8618 0
M  V30 5969 C 555.856 -0.689547 1.82401 0
M  V30 5970 O 555.126 -1.49913 1.26107 0
M  V30 5971 H 553.706 0.287843 0.689315 0
M  V30 5972 H 556.368 1.35055 1.40521 0
M  V30 5973 H 555.464 1.1157 2.91477 0
M  V30 5974 N 555.766 -1.3263 0.851289 0
M  V30 5975 C 557.014 -1.96978 0.452128 0
M  V30 5976 C 557.335 -1.67715 -0.99482 0
M  V30 5977 O 556.605 -0.98259 -1.69476 0
M  V30 5978 H 555.185 -0.72873 0.164202 0
M  V30 5979 H 557.847 -1.61774 1.08698 0
M  V30 5980 H 556.943 -3.06387 0.594407 0
M  V30 5981 N 557.244 -0.608902 -1.45362 0
M  V30 5982 C 558.469 -0.10921 -2.07112 0
M  V30 5983 C 558.894 1.19779 -1.45033 0
M  V30 5984 O 558.252 1.72961 -0.543527 0
M  V30 5985 C 558.3 0.0155745 -3.60597 0
M  V30 5986 O 557.404 1.06546 -3.98399 0
M  V30 5987 H 556.745 -0.0746619 -0.659789 0
M  V30 5988 H 559.275 -0.839283 -1.86594 0
M  V30 5989 H 559.285 0.213364 -4.07442 0
M  V30 5990 H 557.96 -0.938765 -4.05167 0
M  V30 5991 H 556.537 0.844024 -3.63223 0
M  V30 5992 N 558.722 1.53707 -0.348139 0
M  V30 5993 C 560.133 1.86213 0.134797 0
M  V30 5994 C 560.484 1.26925 1.49614 0
M  V30 5995 O 559.609 0.584573 2.08355 0
M  V30 5996 C 560.204 3.37866 0.251371 0
M  V30 5997 C 558.763 3.70233 0.678543 0
M  V30 5998 C 557.91 2.76683 -0.184925 0
M  V30 5999 H 560.861 1.48204 -0.567571 0
M  V30 6000 H 560.882 3.64908 1.07806 0
M  V30 6001 H 560.394 3.80988 -0.739581 0
M  V30 6002 H 558.495 3.32659 1.67835 0
M  V30 6003 H 558.608 4.76836 0.465251 0
M  V30 6004 H 556.972 2.52374 0.343465 0
M  V30 6005 H 557.755 3.22635 -1.1731 0
M  V30 6006 N 560.2 0.0768682 1.57412 0
M  V30 6007 C 561.425 -0.603404 1.98428 0
M  V30 6008 C 561.85 -1.62047 0.955108 0
M  V30 6009 O 561.208 -1.81129 -0.0786778 0
M  V30 6010 C 561.256 -1.24396 3.38464 0
M  V30 6011 O 560.36 -2.35982 3.3821 0
M  V30 6012 H 559.701 -0.154741 0.645718 0
M  V30 6013 H 562.231 0.152885 2.04028 0
M  V30 6014 H 562.241 -1.5896 3.7576 0
M  V30 6015 H 560.916 -0.498735 4.12899 0
M  V30 6016 H 559.493 -2.03173 3.1269 0
M  V30 6017 N 561.678 -1.56367 -0.196722 0
M  V30 6018 C 562.955 -1.71359 -0.943159 0
M  V30 6019 C 563.335 -0.631192 -2.01443 0
M  V30 6020 O 562.683 0.358071 -2.25677 0
M  V30 6021 C 562.893 -3.13623 -1.53106 0
M  V30 6022 C 564.241 -3.73806 -2.01381 0
M  V30 6023 O 565.265 -3.16742 -1.62951 0
M  V30 6024 O 564.124 -4.73951 -2.7209 0
M  V30 6025 H 561.218 -0.698851 -0.442195 0
M  V30 6026 H 563.764 -1.68672 -0.186547 0
M  V30 6027 H 562.536 -3.83873 -0.758785 0
M  V30 6028 H 562.159 -3.20532 -2.35255 0
M  V30 6029 N 563.156 0.464375 -1.50603 0
M  V30 6030 C 564.119 1.54393 -1.69397 0
M  V30 6031 C 565.119 1.50566 -0.564504 0
M  V30 6032 O 566.309 1.53066 -0.831645 0
M  V30 6033 C 563.441 2.9401 -1.72543 0
M  V30 6034 H 564.634 1.39044 -2.65719 0
M  V30 6035 H 562.187 0.69122 -1.40185 0
M  V30 6036 H 562.922 3.14795 -0.77938 0
M  V30 6037 H 562.707 2.98195 -2.54602 0
M  V30 6038 H 564.197 3.72375 -1.89015 0
M  V30 6039 N 564.634 1.40294 0.718013 0
M  V30 6040 C 566.045 1.34289 1.29705 0
M  V30 6041 C 566.396 0.0152228 1.96194 0
M  V30 6042 O 565.521 -0.88682 1.97394 0
M  V30 6043 C 566.116 2.43219 2.3586 0
M  V30 6044 C 564.675 2.40682 2.89394 0
M  V30 6045 C 563.822 2.24223 1.63154 0
M  V30 6046 H 566.773 1.50135 0.514312 0
M  V30 6047 H 566.794 2.10986 3.16647 0
M  V30 6048 H 566.306 3.39836 1.87439 0
M  V30 6049 H 564.407 1.47756 3.42051 0
M  V30 6050 H 564.52 3.36177 3.41353 0
M  V30 6051 H 562.884 1.71696 1.88129 0
M  V30 6052 H 563.667 3.22834 1.16761 0
M  V30 6053 N 566.112 -0.949982 1.2575 0
M  V30 6054 C 567.062 -2.03297 1.03221 0
M  V30 6055 C 568.046 -1.60867 -0.0324751 0
M  V30 6056 O 569.238 -1.76047 0.183423 0
M  V30 6057 C 566.367 -3.36938 0.657841 0
M  V30 6058 C 565.453 -3.85878 1.75952 0
M  V30 6059 N 565.844 -4.0756 2.99547 0
M  V30 6060 C 564.142 -4.14709 1.64111 0
M  V30 6061 C 564.843 -4.47961 3.71087 0
M  V30 6062 N 563.819 -4.5416 2.98731 0
M  V30 6063 H 567.621 -2.1806 1.97045 0
M  V30 6064 H 565.135 -1.13516 1.16138 0
M  V30 6065 H 567.132 -4.14155 0.477614 0
M  V30 6066 H 565.792 -3.2355 -0.273025 0
M  V30 6067 H 566.803 -3.94501 3.35544 0
M  V30 6068 H 563.48 -4.10158 0.779527 0
M  V30 6069 H 564.87 -4.73002 4.77199 0
M  V30 6070 N 567.59 -1.07411 -1.15328 0
M  V30 6071 C 568.553 -0.698914 -2.18284 0
M  V30 6072 C 569.553 0.261149 -1.58665 0
M  V30 6073 O 570.743 0.0420277 -1.74149 0
M  V30 6074 C 567.875 -0.0302427 -3.40887 0
M  V30 6075 H 569.068 -1.61045 -2.52991 0
M  V30 6076 H 566.621 -0.870724 -1.298 0
M  V30 6077 H 567.356 0.893505 -3.11748 0
M  V30 6078 H 567.141 -0.720759 -3.85419 0
M  V30 6079 H 568.631 0.21759 -4.17033 0
M  V30 6080 N 569.068 1.32177 -0.85831 0
M  V30 6081 C 570.018 2.26307 -0.277307 0
M  V30 6082 C 571.002 1.50123 0.578946 0
M  V30 6083 O 572.194 1.71754 0.427731 0
M  V30 6084 C 569.323 3.39181 0.530232 0
M  V30 6085 C 568.409 4.22746 -0.338613 0
M  V30 6086 N 568.8 4.85265 -1.4266 0
M  V30 6087 C 567.098 4.45813 -0.129 0
M  V30 6088 C 567.799 5.47634 -1.96142 0
M  V30 6089 N 566.775 5.28794 -1.26007 0
M  V30 6090 H 570.577 2.72173 -1.10902 0
M  V30 6091 H 568.091 1.46308 -0.704816 0
M  V30 6092 H 570.088 4.05628 0.962904 0
M  V30 6093 H 568.748 2.9486 1.35969 0
M  V30 6094 H 569.759 4.85259 -1.80953 0
M  V30 6095 H 566.436 4.12163 0.665451 0
M  V30 6096 H 567.826 6.0735 -2.8736 0
M  V30 6097 N 570.547 0.616602 1.45037 0
M  V30 6098 C 571.497 -0.118543 2.27692 0
M  V30 6099 C 572.481 -0.830025 1.37838 0
M  V30 6100 O 573.673 -0.718528 1.6176 0
M  V30 6101 C 570.802 -1.10924 3.24886 0
M  V30 6102 C 569.888 -0.398134 4.22227 0
M  V30 6103 N 570.279 0.565233 5.02632 0
M  V30 6104 C 568.577 -0.644506 4.41319 0
M  V30 6105 C 569.278 0.984043 5.73316 0
M  V30 6106 N 568.254 0.325879 5.42622 0
M  V30 6107 H 572.056 0.621239 2.87259 0
M  V30 6108 H 569.57 0.440968 1.56299 0
M  V30 6109 H 571.567 -1.65038 3.82842 0
M  V30 6110 H 570.227 -1.84948 2.66879 0
M  V30 6111 H 571.238 0.942395 5.09254 0
M  V30 6112 H 567.915 -1.36873 3.94426 0
M  V30 6113 H 569.305 1.77911 6.47918 0
M  V30 6114 N 572.025 -1.5352 0.356285 0
M  V30 6115 C 573.436 -1.86282 -0.12492 0
M  V30 6116 C 573.787 -1.27717 -1.48939 0
M  V30 6117 O 572.912 -0.595614 -2.08042 0
M  V30 6118 C 573.507 -3.37995 -0.23345 0
M  V30 6119 C 572.066 -3.70588 -0.658899 0
M  V30 6120 C 571.213 -2.76581 0.199596 0
M  V30 6121 H 574.164 -1.47901 0.575423 0
M  V30 6122 H 574.185 -3.65475 -1.0587 0
M  V30 6123 H 573.697 -3.8059 0.759776 0
M  V30 6124 H 571.798 -3.33544 -1.66069 0
M  V30 6125 H 571.911 -4.77076 -0.439957 0
M  V30 6126 H 570.275 -2.52552 -0.330076 0
M  V30 6127 H 571.058 -3.22008 1.19019 0
M  V30 6128 N 573.503 -0.0852151 -1.57369 0
M  V30 6129 C 574.433 0.874556 -2.16503 0
M  V30 6130 C 575.414 1.30111 -1.09568 0
M  V30 6131 O 576.599 1.36977 -1.37662 0
M  V30 6132 C 573.729 2.13731 -2.73745 0
M  V30 6133 C 572.683 1.84971 -3.85966 0
M  V30 6134 C 572.009 3.17991 -4.29867 0
M  V30 6135 C 573.309 1.14442 -5.09608 0
M  V30 6136 H 575.003 0.381899 -2.96954 0
M  V30 6137 H 572.549 0.18225 -1.42842 0
M  V30 6138 H 574.502 2.81302 -3.13763 0
M  V30 6139 H 573.226 2.65263 -1.90534 0
M  V30 6140 H 571.885 1.19801 -3.46473 0
M  V30 6141 H 571.533 3.6739 -3.4356 0
M  V30 6142 H 571.233 2.99534 -5.05523 0
M  V30 6143 H 572.757 3.86737 -4.72511 0
M  V30 6144 H 574.171 1.72105 -5.46857 0
M  V30 6145 H 572.568 1.06197 -5.90629 0
M  V30 6146 H 573.638 0.12559 -4.84737 0
M  V30 6147 N 574.981 1.5647 0.188427 0
M  V30 6148 C 575.931 1.91479 1.23774 0
M  V30 6149 C 576.915 0.78119 1.40664 0
M  V30 6150 O 578.107 1.04414 1.42922 0
M  V30 6151 C 575.236 2.26354 2.58106 0
M  V30 6152 C 574.322 3.46186 2.44981 0
M  V30 6153 N 574.713 4.63911 2.01546 0
M  V30 6154 C 573.011 3.50456 2.75856 0
M  V30 6155 C 573.712 5.46064 2.00472 0
M  V30 6156 N 572.688 4.86648 2.42229 0
M  V30 6157 H 576.49 2.79994 0.893339 0
M  V30 6158 H 574.004 1.57477 0.39682 0
M  V30 6159 H 576.001 2.49622 3.33908 0
M  V30 6160 H 574.661 1.39168 2.93364 0
M  V30 6161 H 575.672 4.88451 1.7215 0
M  V30 6162 H 572.349 2.73704 3.15265 0
M  V30 6163 H 573.739 6.50368 1.68734 0
M  V30 6164 N 576.459 -0.456382 1.50847 0
M  V30 6165 C 577.87 -1.03685 1.55262 0
M  V30 6166 C 578.221 -1.92779 0.364771 0
M  V30 6167 O 577.346 -2.10043 -0.52068 0
M  V30 6168 C 577.941 -1.88718 2.81374 0
M  V30 6169 C 576.5 -2.41847 2.88422 0
M  V30 6170 C 575.647 -1.20564 2.49719 0
M  V30 6171 H 578.598 -0.238399 1.56899 0
M  V30 6172 H 578.619 -2.73957 2.6406 0
M  V30 6173 H 578.131 -1.23847 3.67809 0
M  V30 6174 H 576.232 -3.10228 2.06372 0
M  V30 6175 H 576.345 -2.75947 3.9165 0
M  V30 6176 H 574.709 -1.54504 2.02486 0
M  V30 6177 H 575.492 -0.573326 3.38479 0
M  V30 6178 N 577.937 -1.40673 -0.710563 0
M  V30 6179 C 578.887 -1.37812 -1.81636 0
M  V30 6180 C 579.871 -0.254853 -1.58869 0
M  V30 6181 O 581.063 -0.494356 -1.69956 0
M  V30 6182 C 578.192 -1.24802 -3.19811 0
M  V30 6183 C 577.278 -2.41931 -3.48325 0
M  V30 6184 N 577.669 -3.67411 -3.47625 0
M  V30 6185 C 575.967 -2.35419 -3.78806 0
M  V30 6186 C 576.668 -4.45008 -3.74623 0
M  V30 6187 N 575.644 -3.74916 -3.93623 0
M  V30 6188 H 579.446 -2.32766 -1.79436 0
M  V30 6189 H 576.96 -1.34516 -0.909909 0
M  V30 6190 H 578.957 -1.20835 -3.99004 0
M  V30 6191 H 577.617 -0.308202 -3.23234 0
M  V30 6192 H 578.628 -4.00503 -3.28356 0
M  V30 6193 H 575.305 -1.4983 -3.89689 0
M  V30 6194 H 576.695 -5.53884 -3.80344 0
M  V30 6195 N 579.415 0.9433 -1.26252 0
M  V30 6196 C 580.345 2.05902 -1.10122 0
M  V30 6197 C 581.326 1.70099 -0.00700552 0
M  V30 6198 O 582.511 1.93377 -0.178641 0
M  V30 6199 C 579.641 3.39516 -0.731175 0
M  V30 6200 C 578.595 3.89372 -1.77688 0
M  V30 6201 C 577.921 5.19613 -1.26122 0
M  V30 6202 C 579.221 4.14489 -3.17799 0
M  V30 6203 H 580.915 2.19655 -2.03451 0
M  V30 6204 H 578.461 1.05548 -0.979576 0
M  V30 6205 H 580.414 4.17031 -0.605215 0
M  V30 6206 H 579.138 3.25733 0.23782 0
M  V30 6207 H 577.797 3.14036 -1.89148 0
M  V30 6208 H 577.445 5.02208 -0.282128 0
M  V30 6209 H 577.145 5.53939 -1.96023 0
M  V30 6210 H 578.669 5.99713 -1.14789 0
M  V30 6211 H 580.083 4.82625 -3.09428 0
M  V30 6212 H 578.48 4.60094 -3.85271 0
M  V30 6213 H 579.55 3.20347 -3.64014 0
M  V30 6214 N 580.893 1.08022 1.14757 0
M  V30 6215 C 581.826 0.650738 2.18725 0
M  V30 6216 C 582.804 -0.335496 1.59101 0
M  V30 6217 O 583.988 -0.240295 1.86962 0
M  V30 6218 C 581.115 -0.0434377 3.38672 0
M  V30 6219 C 580.161 0.90232 4.16846 0
M  V30 6220 S 580.994 2.40693 4.78359 0
M  V30 6221 C 582.15 1.72475 6.01667 0
M  V30 6222 H 582.383 1.53152 2.54817 0
M  V30 6223 H 579.916 0.894823 1.25826 0
M  V30 6224 H 581.874 -0.437684 4.0816 0
M  V30 6225 H 580.535 -0.900659 3.0091 0
M  V30 6226 H 579.728 0.363445 5.02688 0
M  V30 6227 H 579.33 1.23728 3.52941 0
M  V30 6228 H 581.622 1.0404 6.69464 0
M  V30 6229 H 582.565 2.56175 6.60136 0
M  V30 6230 H 582.973 1.19979 5.51602 0
M  V30 6231 N 582.371 -1.3172 0.865308 0
M  V30 6232 C 583.303 -2.27545 0.274906 0
M  V30 6233 C 584.316 -1.52887 -0.559413 0
M  V30 6234 O 585.505 -1.74361 -0.382166 0
M  V30 6235 C 582.605 -3.33006 -0.629286 0
M  V30 6236 C 581.778 -4.37063 0.171553 0
M  V30 6237 C 580.837 -5.22044 -0.660052 0
M  V30 6238 O 579.863 -5.69129 -0.0897527 0
M  V30 6239 N 581.065 -5.45946 -1.97289 0
M  V30 6240 H 583.83 -2.78848 1.09836 0
M  V30 6241 H 581.391 -1.44693 0.726331 0
M  V30 6242 H 583.383 -3.86772 -1.19121 0
M  V30 6243 H 581.953 -2.81782 -1.35342 0
M  V30 6244 H 581.173 -3.83436 0.914919 0
M  V30 6245 H 582.461 -5.03662 0.721235 0
M  V30 6246 H 581.859 -5.0944 -2.45942 0
M  V30 6247 H 580.416 -6.02665 -2.4827 0
M  V30 6248 N 583.85 -0.624285 -1.44708 0
M  V30 6249 C 584.76 0.0861083 -2.34442 0
M  V30 6250 C 585.776 0.84291 -1.5222 0
M  V30 6251 O 586.952 0.796723 -1.84971 0
M  V30 6252 C 584.017 1.05999 -3.30099 0
M  V30 6253 C 583.077 0.303316 -4.28227 0
M  V30 6254 C 582.311 1.23081 -5.19314 0
M  V30 6255 O 582.534 2.46929 -5.14181 0
M  V30 6256 O 581.468 0.71883 -5.97592 0
M  V30 6257 H 585.293 -0.651756 -2.96624 0
M  V30 6258 H 582.879 -0.384493 -1.44368 0
M  V30 6259 H 584.76 1.62046 -3.88997 0
M  V30 6260 H 583.436 1.77859 -2.70459 0
M  V30 6261 H 582.343 -0.300033 -3.72895 0
M  V30 6262 H 583.676 -0.375123 -4.90768 0
M  V30 6263 N 585.328 1.53329 -0.364422 0
M  V30 6264 C 586.278 2.22472 0.499024 0
M  V30 6265 C 587.262 1.21952 1.0496 0
M  V30 6266 O 588.454 1.47405 0.979836 0
M  V30 6267 C 585.583 3.01659 1.6388 0
M  V30 6268 C 584.669 4.09555 1.10116 0
M  V30 6269 N 585.06 5.04988 0.286414 0
M  V30 6270 C 583.358 4.2424 1.37608 0
M  V30 6271 C 584.059 5.81699 -0.00781682 0
M  V30 6272 N 583.035 5.40394 0.589494 0
M  V30 6273 H 586.837 2.93611 -0.130284 0
M  V30 6274 H 584.351 1.61483 -0.172377 0
M  V30 6275 H 586.348 3.4971 2.26954 0
M  V30 6276 H 585.008 2.32051 2.27118 0
M  V30 6277 H 586.019 5.17847 -0.0742839 0
M  V30 6278 H 582.696 3.65858 2.01133 0
M  V30 6279 H 584.086 6.68587 -0.666394 0
M  V30 6280 N 586.806 0.0935595 1.57322 0
M  V30 6281 C 587.739 -0.902505 2.09595 0
M  V30 6282 C 588.717 -1.27732 1.00615 0
M  V30 6283 O 589.901 -1.38283 1.28102 0
M  V30 6284 C 587.028 -2.20416 2.57166 0
M  V30 6285 C 586.074 -1.97932 3.7779 0
M  V30 6286 S 586.907 -1.21873 5.21447 0
M  V30 6287 C 588.063 -2.53273 5.72367 0
M  V30 6288 H 588.296 -0.457797 2.93754 0
M  V30 6289 H 585.829 -0.119694 1.53935 0
M  V30 6290 H 587.787 -2.95217 2.85232 0
M  V30 6291 H 586.448 -2.62008 1.73235 0
M  V30 6292 H 585.641 -2.94316 4.09138 0
M  V30 6293 H 585.243 -1.3126 3.5021 0
M  V30 6294 H 587.535 -3.49256 5.8054 0
M  V30 6295 H 588.478 -2.26505 6.70896 0
M  V30 6296 H 588.886 -2.61475 5.00291 0
M  V30 6297 N 588.284 -1.56567 -0.180126 0
M  V30 6298 C 589.532 -1.81133 -0.896392 0
M  V30 6299 C 589.853 -0.669114 -1.83161 0
M  V30 6300 O 589.123 0.311616 -1.93406 0
M  V30 6301 H 587.703 -0.668172 -0.333999 0
M  V30 6302 H 590.365 -1.94048 -0.182051 0
M  V30 6303 H 589.461 -2.74854 -1.47857 0
M  V30 6304 N 589.762 0.448376 -1.51087 0
M  V30 6305 C 590.99 1.22143 -1.66999 0
M  V30 6306 C 591.405 1.85283 -0.362699 0
M  V30 6307 O 590.762 1.70236 0.65772 0
M  V30 6308 C 590.813 2.31357 -2.7777 0
M  V30 6309 O 590.534 1.70801 -4.03434 0
M  V30 6310 C 592.035 3.21836 -3.04855 0
M  V30 6311 H 589.255 0.368558 -0.560719 0
M  V30 6312 H 591.799 0.532618 -1.97442 0
M  V30 6313 H 589.954 2.95973 -2.49958 0
M  V30 6314 H 590.368 2.42895 -4.64868 0
M  V30 6315 H 591.842 3.94627 -3.85971 0
M  V30 6316 H 592.319 3.81949 -2.16821 0
M  V30 6317 H 592.925 2.62933 -3.34285 0
M  V30 6318 N 591.24 1.41047 0.703093 0
M  V30 6319 C 592.188 1.42494 1.83843 0
M  V30 6320 C 593.182 0.303885 1.66652 0
M  V30 6321 O 594.388 0.475544 1.73605 0
M  V30 6322 H 590.763 0.445685 0.605697 0
M  V30 6323 H 592.734 2.38194 1.79739 0
M  V30 6324 C 591.483 1.31666 3.21807 0
M  V30 6325 H 590.806 2.17212 3.35647 0
M  V30 6326 H 592.246 1.36738 4.01346 0
M  V30 6327 C 590.705 0.0281828 3.36888 0
M  V30 6328 O 591.235 -0.929995 3.90786 0
M  V30 6329 N 589.441 -0.0454322 2.90564 0
M  V30 6330 H 588.988 0.735046 2.4689 0
M  V30 6331 H 588.946 -0.906968 3.01034 0
M  V30 6332 N 592.718 -0.936591 1.26751 0
M  V30 6333 C 593.964 -1.6858 1.12733 0
M  V30 6334 C 594.297 -1.91414 -0.327745 0
M  V30 6335 O 593.572 -1.49812 -1.24043 0
M  V30 6336 C 593.855 -3.05779 1.90187 0
M  V30 6337 C 593.708 -2.90242 3.43627 0
M  V30 6338 C 595.027 -4.0597 1.69931 0
M  V30 6339 H 592.146 -0.61182 0.410908 0
M  V30 6340 H 594.788 -1.08747 1.55801 0
M  V30 6341 H 592.938 -3.56853 1.53584 0
M  V30 6342 H 594.61 -2.46354 3.9001 0
M  V30 6343 H 592.853 -2.2577 3.70419 0
M  V30 6344 H 593.524 -3.87572 3.93055 0
M  V30 6345 H 596 -3.63874 2.0183 0
M  V30 6346 H 594.876 -4.99974 2.26534 0
M  V30 6347 H 595.137 -4.37369 0.64502 0
M  V30 6348 N 594.196 -1.08629 -1.14182 0
M  V30 6349 C 595.445 -0.812271 -1.84621 0
M  V30 6350 C 595.758 0.664313 -1.83973 0
M  V30 6351 O 596.964 1.05357 -2.50224 0
M  V30 6352 C 595.42 -1.4031 -3.31423 0
M  V30 6353 C 595.028 -2.91164 -3.40481 0
M  V30 6354 C 596.772 -1.20767 -4.06959 0
M  V30 6355 C 594.679 -3.43373 -4.81507 0
M  V30 6356 H 593.609 -0.30019 -0.691666 0
M  V30 6357 H 596.26 -1.30798 -1.28701 0
M  V30 6358 H 594.642 -0.835096 -3.87094 0
M  V30 6359 H 595.816 -3.5412 -2.94848 0
M  V30 6360 H 594.131 -3.09646 -2.78403 0
M  V30 6361 H 596.728 -1.57237 -5.11058 0
M  V30 6362 H 597.071 -0.147664 -4.16038 0
M  V30 6363 H 597.604 -1.74274 -3.57594 0
M  V30 6364 H 594.343 -4.48958 -4.77616 0
M  V30 6365 H 593.863 -2.85176 -5.27669 0
M  V30 6366 H 595.542 -3.40095 -5.50404 0
M  V30 6367 N 595.674 1.31259 -0.872281 0
M  V30 6368 C 596.92 1.96913 -0.485083 0
M  V30 6369 C 597.253 1.68774 0.960667 0
M  V30 6370 O 596.528 0.985495 1.67685 0
M  V30 6371 C 596.811 3.52299 -0.745502 0
M  V30 6372 C 596.664 3.90002 -2.24095 0
M  V30 6373 C 597.983 4.39582 -0.213516 0
M  V30 6374 H 595.102 0.715252 -0.177716 0
M  V30 6375 H 597.744 1.55347 -1.09395 0
M  V30 6376 H 595.894 3.87835 -0.227276 0
M  V30 6377 H 597.566 3.64555 -2.82661 0
M  V30 6378 H 595.809 3.38526 -2.71261 0
M  V30 6379 H 596.48 4.98352 -2.37381 0
M  V30 6380 H 598.956 4.10882 -0.656902 0
M  V30 6381 H 597.832 5.47251 -0.42516 0
M  V30 6382 H 598.093 4.33158 0.884666 0
M  V30 6383 N 597.152 0.631951 1.44375 0
M  V30 6384 C 598.115 -0.0628142 2.29114 0
M  V30 6385 C 599.115 -0.771494 1.41084 0
M  V30 6386 O 600.305 -0.615959 1.62947 0
M  V30 6387 C 597.437 -1.09953 3.22681 0
M  V30 6388 H 598.63 0.682509 2.92031 0
M  V30 6389 H 596.183 0.392128 1.51301 0
M  V30 6390 H 596.918 -1.87481 2.64616 0
M  V30 6391 H 596.703 -0.595286 3.87555 0
M  V30 6392 H 598.193 -1.58538 3.86336 0
M  V30 6393 N 598.631 -1.53133 0.372548 0
M  V30 6394 C 599.579 -2.27473 -0.485681 0
M  V30 6395 C 600.573 -1.30719 -1.07745 0
M  V30 6396 O 601.779 -1.48321 -1.01985 0
M  V30 6397 H 598.154 -0.731269 -0.175356 0
M  V30 6398 H 600.125 -2.97955 0.162986 0
M  V30 6399 C 598.874 -3.08191 -1.60978 0
M  V30 6400 H 598.197 -3.82488 -1.16373 0
M  V30 6401 H 599.637 -3.63373 -2.18485 0
M  V30 6402 C 598.096 -2.19461 -2.55614 0
M  V30 6403 O 598.626 -1.81008 -3.58607 0
M  V30 6404 N 596.832 -1.83955 -2.24965 0
M  V30 6405 H 596.379 -2.15423 -1.41247 0
M  V30 6406 H 596.337 -1.24874 -2.88538 0
M  V30 6407 N 600.109 -0.101901 -1.5727 0
M  V30 6408 C 601.337 0.568392 -1.98939 0
M  V30 6409 C 601.752 1.61301 -0.981194 0
M  V30 6410 O 601.109 1.82478 0.0282869 0
M  V30 6411 C 601.16 1.20997 -3.40649 0
M  V30 6412 O 600.881 0.207129 -4.3761 0
M  V30 6413 C 602.382 1.96523 -3.97358 0
M  V30 6414 H 599.602 0.15186 -0.65359 0
M  V30 6415 H 602.146 -0.183198 -2.03678 0
M  V30 6416 H 600.301 1.91245 -3.36904 0
M  V30 6417 H 600.715 0.671071 -5.20189 0
M  V30 6418 H 602.189 2.36764 -4.98645 0
M  V30 6419 H 602.666 2.83376 -3.35552 0
M  V30 6420 H 603.272 1.31076 -4.04598 0
M  V30 6421 N 601.587 1.56661 0.17182 0
M  V30 6422 C 602.52 1.91474 1.24149 0
M  V30 6423 C 603.498 0.777485 1.42807 0
M  V30 6424 O 604.682 1.03075 1.57822 0
M  V30 6425 C 601.809 2.16523 2.60453 0
M  V30 6426 C 600.855 3.39209 2.58533 0
M  V30 6427 S 601.688 4.93594 2.07665 0
M  V30 6428 C 602.844 5.21737 3.45747 0
M  V30 6429 H 603.077 2.81903 0.944346 0
M  V30 6430 H 600.61 1.49743 0.376364 0
M  V30 6431 H 602.568 2.31635 3.38903 0
M  V30 6432 H 601.229 1.26802 2.87368 0
M  V30 6433 H 600.422 3.53935 3.58812 0
M  V30 6434 H 600.024 3.2321 1.88178 0
M  V30 6435 H 602.316 5.13684 4.41741 0
M  V30 6436 H 603.259 6.23361 3.35896 0
M  V30 6437 H 603.667 4.49307 3.41736 0
M  V30 6438 N 603.065 -0.440357 1.51323 0
M  V30 6439 C 604.476 -1.02032 1.56353 0
M  V30 6440 C 604.827 -1.92382 0.385197 0
M  V30 6441 O 603.952 -2.10583 -0.498373 0
M  V30 6442 C 604.547 -1.85723 2.83359 0
M  V30 6443 C 603.106 -2.38774 2.90971 0
M  V30 6444 C 602.253 -1.17908 2.50984 0
M  V30 6445 H 605.204 -0.221744 1.57143 0
M  V30 6446 H 605.225 -2.71141 2.66951 0
M  V30 6447 H 604.737 -1.19939 3.69102 0
M  V30 6448 H 602.838 -3.08021 2.09651 0
M  V30 6449 H 602.951 -2.71778 3.94555 0
M  V30 6450 H 601.315 -1.52347 2.04114 0
M  V30 6451 H 602.098 -0.537393 3.39068 0
M  V30 6452 N 604.543 -1.41418 -0.695603 0
M  V30 6453 C 605.771 -1.4413 -1.48439 0
M  V30 6454 C 606.186 -0.0465698 -1.88743 0
M  V30 6455 O 605.543 0.934117 -1.56782 0
M  V30 6456 C 605.594 -2.34998 -2.74696 0
M  V30 6457 O 605.315 -3.69043 -2.36091 0
M  V30 6458 C 606.816 -2.46513 -3.68438 0
M  V30 6459 H 604.036 -0.490905 -0.457442 0
M  V30 6460 H 606.58 -1.85702 -0.856454 0
M  V30 6461 H 604.735 -1.96735 -3.33728 0
M  V30 6462 H 605.149 -4.17505 -3.17474 0
M  V30 6463 H 606.623 -3.1426 -4.53811 0
M  V30 6464 H 607.1 -1.49638 -4.12922 0
M  V30 6465 H 607.706 -2.85412 -3.1531 0
M  V30 6466 N 606.021 0.929856 -1.27246 0
M  V30 6467 C 606.971 2.01629 -1.06442 0
M  V30 6468 C 607.955 1.60899 0.00687842 0
M  V30 6469 O 609.147 1.75733 -0.211407 0
M  V30 6470 C 606.276 3.35849 -0.711361 0
M  V30 6471 C 605.362 3.8303 -1.82069 0
M  V30 6472 N 605.753 4.02743 -3.05993 0
M  V30 6473 C 604.051 4.12046 -1.70687 0
M  V30 6474 C 604.752 4.42001 -3.78167 0
M  V30 6475 N 603.728 4.4935 -3.05918 0
M  V30 6476 H 607.53 2.14898 -2.00489 0
M  V30 6477 H 605.044 1.11654 -1.17929 0
M  V30 6478 H 607.041 4.13343 -0.543442 0
M  V30 6479 H 605.701 3.23944 0.221517 0
M  V30 6480 H 606.712 3.89112 -3.41778 0
M  V30 6481 H 603.389 4.08866 -0.844681 0
M  V30 6482 H 604.779 4.6535 -4.84664 0
M  V30 6483 N 607.499 1.09233 1.13605 0
M  V30 6484 C 608.429 0.751738 2.21068 0
M  V30 6485 C 609.41 -0.269688 1.67948 0
M  V30 6486 O 610.595 -0.13819 1.93708 0
M  V30 6487 C 607.725 0.16935 3.46887 0
M  V30 6488 C 606.679 1.12007 4.13084 0
M  V30 6489 C 606.005 0.399483 5.33206 0
M  V30 6490 C 607.305 2.46168 4.6065 0
M  V30 6491 H 608.999 1.65024 2.49815 0
M  V30 6492 H 606.545 0.794905 1.20072 0
M  V30 6493 H 608.498 -0.0809824 4.21322 0
M  V30 6494 H 607.222 -0.764335 3.1753 0
M  V30 6495 H 605.881 1.35564 3.40614 0
M  V30 6496 H 605.529 -0.538277 5.00112 0
M  V30 6497 H 605.229 1.03337 5.78442 0
M  V30 6498 H 606.753 0.157403 6.10397 0
M  V30 6499 H 608.167 2.26829 5.26518 0
M  V30 6500 H 606.564 3.05326 5.1662 0
M  V30 6501 H 607.634 3.07076 3.75276 0
M  V30 6502 N 608.977 -1.30795 0.87923 0
M  V30 6503 C 610.202 -2.01063 0.508769 0
M  V30 6504 C 610.627 -1.65508 -0.893803 0
M  V30 6505 O 609.985 -0.868616 -1.59138 0
M  V30 6506 C 610.033 -3.54054 0.683991 0
M  V30 6507 O 609.137 -4.11498 -0.272654 0
M  V30 6508 H 608.478 -0.632786 0.201191 0
M  V30 6509 H 611.008 -1.66776 1.18519 0
M  V30 6510 H 611.018 -4.03845 0.580798 0
M  V30 6511 H 609.693 -3.79271 1.70665 0
M  V30 6512 H 608.27 -3.72695 -0.12364 0
M  V30 6513 N 610.455 -0.639598 -1.44038 0
M  V30 6514 C 611.403 0.0723409 -2.32487 0
M  V30 6515 C 612.397 0.827129 -1.47834 0
M  V30 6516 O 613.603 0.73907 -1.64127 0
M  V30 6517 H 609.978 0.0421696 -0.750817 0
M  V30 6518 H 611.949 -0.691593 -2.90275 0
M  V30 6519 C 610.698 1.03452 -3.31953 0
M  V30 6520 H 610.021 0.46315 -3.97108 0
M  V30 6521 H 611.461 1.502 -3.96505 0
M  V30 6522 C 609.92 2.12392 -2.61518 0
M  V30 6523 O 610.45 3.2059 -2.42044 0
M  V30 6524 N 608.656 1.88563 -2.21116 0
M  V30 6525 H 608.203 1.00577 -2.37154 0
M  V30 6526 H 608.161 2.61651 -1.74316 0
M  V30 6527 N 611.933 1.52934 -0.380664 0
M  V30 6528 C 613.181 2.01069 0.203874 0
M  V30 6529 C 613.502 1.26922 1.4804 0
M  V30 6530 O 612.772 0.386787 1.92044 0
M  V30 6531 H 611.352 0.742882 0.0783279 0
M  V30 6532 H 614.014 1.88099 -0.510368 0
M  V30 6533 H 613.11 3.09258 0.42021 0
M  V30 6534 N 613.412 0.11024 1.57214 0
M  V30 6535 C 614.344 -0.873497 2.11902 0
M  V30 6536 C 615.357 -1.23588 1.05971 0
M  V30 6537 O 616.546 -1.18636 1.33371 0
M  V30 6538 C 613.646 -2.17805 2.59643 0
M  V30 6539 C 612.819 -1.98869 3.89576 0
M  V30 6540 C 611.878 -3.12974 4.23006 0
M  V30 6541 O 610.904 -2.86272 4.91973 0
M  V30 6542 N 612.106 -4.39167 3.79622 0
M  V30 6543 H 614.871 -0.406317 2.96933 0
M  V30 6544 H 612.432 -0.074437 1.61729 0
M  V30 6545 H 614.424 -2.93117 2.79042 0
M  V30 6546 H 612.994 -2.55899 1.7954 0
M  V30 6547 H 612.214 -1.078 3.79174 0
M  V30 6548 H 613.502 -1.83512 4.74553 0
M  V30 6549 H 612.9 -4.63739 3.2398 0
M  V30 6550 H 611.457 -5.11379 4.04147 0
M  V30 6551 N 614.89 -1.56749 -0.16351 0
M  V30 6552 C 615.823 -1.9213 -1.23132 0
M  V30 6553 C 616.801 -0.785047 -1.42393 0
M  V30 6554 O 617.985 -1.0391 -1.57273 0
M  V30 6555 C 615.112 -2.17901 -2.59301 0
M  V30 6556 C 614.158 -3.40576 -2.5673 0
M  V30 6557 S 614.991 -4.94689 -2.05045 0
M  V30 6558 C 616.147 -5.23564 -3.42975 0
M  V30 6559 H 616.38 -2.824 -0.929383 0
M  V30 6560 H 613.913 -1.4994 -0.368418 0
M  V30 6561 H 615.871 -2.33429 -3.3767 0
M  V30 6562 H 614.532 -1.28324 -2.86691 0
M  V30 6563 H 613.725 -3.55833 -3.5693 0
M  V30 6564 H 613.327 -3.24204 -1.86462 0
M  V30 6565 H 615.619 -5.16019 -4.3901 0
M  V30 6566 H 616.562 -6.25134 -3.32586 0
M  V30 6567 H 616.97 -4.51113 -3.39348 0
M  V30 6568 N 616.368 0.432326 -1.51554 0
M  V30 6569 C 617.608 1.19076 -1.66133 0
M  V30 6570 C 617.972 1.88364 -0.371873 0
M  V30 6571 O 619.173 2.65904 -0.39349 0
M  V30 6572 C 617.444 2.1768 -2.83461 0
M  V30 6573 S 619.003 3.01943 -3.18396 0
M  V30 6574 H 615.821 0.403735 -0.585251 0
M  V30 6575 H 618.423 0.481554 -1.89476 0
M  V30 6576 H 617.127 1.65424 -3.75583 0
M  V30 6577 H 616.658 2.93174 -2.62322 0
M  V30 6578 H 618.673 4.19373 -2.65219 0
M  V30 6579 N 617.846 1.41785 0.688094 0
M  V30 6580 C 618.756 1.46596 1.83158 0
M  V30 6581 C 619.772 0.355862 1.70322 0
M  V30 6582 O 620.948 0.604737 1.92106 0
M  V30 6583 C 618.013 1.35322 3.192 0
M  V30 6584 C 617.074 2.56711 3.4409 0
M  V30 6585 C 616.307 2.45965 4.73642 0
M  V30 6586 O 616.53 1.48827 5.50642 0
M  V30 6587 O 615.464 3.35859 4.99482 0
M  V30 6588 H 619.29 2.43083 1.82056 0
M  V30 6589 H 616.875 1.23404 0.842126 0
M  V30 6590 H 618.757 1.31347 4.00407 0
M  V30 6591 H 617.432 0.419536 3.2097 0
M  V30 6592 H 616.339 2.66262 2.62784 0
M  V30 6593 H 617.672 3.48933 3.47141 0
M  V30 6594 N 619.324 -0.923095 1.27737 0
M  V30 6595 C 620.57 -1.67409 1.15524 0
M  V30 6596 C 620.925 -1.90124 -0.295072 0
M  V30 6597 O 620.218 -1.48382 -1.21216 0
M  V30 6598 C 620.412 -3.04125 1.8773 0
M  V30 6599 C 620.241 -2.94752 3.39634 0
M  V30 6600 C 619.011 -2.96783 4.0896 0
M  V30 6601 C 621.209 -2.73524 4.35533 0
M  V30 6602 N 619.191 -2.779 5.47398 0
M  V30 6603 C 620.562 -2.63391 5.61271 0
M  V30 6604 C 622.617 -2.58447 4.2557 0
M  V30 6605 C 621.32 -2.3972 6.78179 0
M  V30 6606 C 623.346 -2.36154 5.42204 0
M  V30 6607 C 622.708 -2.26768 6.669 0
M  V30 6608 H 618.807 -0.619196 0.477619 0
M  V30 6609 H 621.391 -1.09094 1.61266 0
M  V30 6610 H 619.562 -3.60545 1.44436 0
M  V30 6611 H 621.294 -3.6819 1.67982 0
M  V30 6612 H 618.049 -3.07186 3.60463 0
M  V30 6613 H 618.473 -2.71576 6.20141 0
M  V30 6614 H 623.115 -2.6446 3.2988 0
M  V30 6615 H 620.833 -2.32447 7.73947 0
M  V30 6616 H 624.419 -2.25367 5.36378 0
M  V30 6617 H 623.299 -2.09751 7.55628 0
M  V30 6618 N 620.802 -1.09834 -1.13024 0
M  V30 6619 C 622.213 -0.855651 -1.65938 0
M  V30 6620 C 622.564 0.615159 -1.86307 0
M  V30 6621 O 621.689 1.47335 -1.58497 0
M  V30 6622 C 622.284 -1.5467 -3.01434 0
M  V30 6623 C 620.843 -1.35088 -3.51323 0
M  V30 6624 C 619.99 -1.6001 -2.26478 0
M  V30 6625 H 622.941 -1.25691 -0.968889 0
M  V30 6626 H 622.962 -0.982179 -3.67605 0
M  V30 6627 H 622.474 -2.61715 -2.86578 0
M  V30 6628 H 620.575 -0.30179 -3.71376 0
M  V30 6629 H 620.688 -2.0886 -4.31178 0
M  V30 6630 H 619.052 -1.02246 -2.33276 0
M  V30 6631 H 619.835 -2.68293 -2.14182 0
M  V30 6632 N 622.28 1.30327 -0.886154 0
M  V30 6633 C 623.696 1.48676 -0.580323 0
M  V30 6634 C 623.896 1.81189 0.881639 0
M  V30 6635 O 622.952 1.90021 1.66278 0
M  V30 6636 C 624.265 2.60932 -1.49449 0
M  V30 6637 C 625.813 2.74812 -1.49824 0
M  V30 6638 C 626.288 3.90183 -2.39836 0
M  V30 6639 N 627.779 3.97495 -2.37806 0
M  V30 6640 C 628.514 4.86078 -3.04165 0
M  V30 6641 N 628.01 5.79448 -3.79753 0
M  V30 6642 N 629.803 4.79456 -2.93391 0
M  V30 6643 H 621.954 1.07495 -1.8319 0
M  V30 6644 H 624.217 0.532661 -0.784204 0
M  V30 6645 H 623.923 2.43731 -2.5355 0
M  V30 6646 H 623.797 3.57437 -1.20494 0
M  V30 6647 H 626.184 2.91418 -0.464731 0
M  V30 6648 H 626.265 1.78924 -1.82811 0
M  V30 6649 H 625.909 3.74334 -3.43273 0
M  V30 6650 H 625.839 4.85411 -2.04166 0
M  V30 6651 H 628.33 3.30703 -1.82877 0
M  V30 6652 H 628.643 6.43805 -4.27475 0
M  V30 6653 H 626.988 5.79376 -3.8386 0
M  V30 6654 H 630.179 4.05494 -2.33864 0
M  V30 6655 H 630.352 5.48283 -3.45383 0
M  V30 6656 N 623.758 0.647228 1.43697 0
M  V30 6657 C 625.169 0.238689 1.85168 0
M  V30 6658 C 625.52 -1.21345 1.54175 0
M  V30 6659 O 624.645 -1.92542 0.987743 0
M  V30 6660 C 625.24 0.426422 3.36106 0
M  V30 6661 C 623.799 0.0722541 3.76331 0
M  V30 6662 C 622.946 0.732153 2.6746 0
M  V30 6663 H 625.897 0.851309 1.33934 0
M  V30 6664 H 625.918 -0.32987 3.79067 0
M  V30 6665 H 625.43 1.48339 3.58632 0
M  V30 6666 H 623.531 -0.982355 3.59417 0
M  V30 6667 H 623.644 0.493541 4.76551 0
M  V30 6668 H 622.008 0.16594 2.54159 0
M  V30 6669 H 622.791 1.79204 2.92816 0
M  V30 6670 N 625.236 -1.5273 0.388769 0
M  V30 6671 C 626.652 -1.59553 0.0387049 0
M  V30 6672 C 626.852 -1.40278 -1.44652 0
M  V30 6673 O 625.908 -1.21951 -2.21098 0
M  V30 6674 C 627.221 -2.9625 0.515409 0
M  V30 6675 C 628.769 -3.09426 0.471621 0
M  V30 6676 C 629.244 -4.48572 0.924505 0
M  V30 6677 N 630.735 -4.54754 0.880496 0
M  V30 6678 C 631.47 -5.60653 1.20234 0
M  V30 6679 N 630.966 -6.74198 1.59463 0
M  V30 6680 N 632.759 -5.50755 1.12363 0
M  V30 6681 H 624.91 -1.63508 1.35569 0
M  V30 6682 H 627.173 -0.768097 0.555636 0
M  V30 6683 H 626.879 -3.15569 1.5527 0
M  V30 6684 H 626.753 -3.77102 -0.085792 0
M  V30 6685 H 629.14 -2.89804 -0.556588 0
M  V30 6686 H 629.221 -2.30528 1.10862 0
M  V30 6687 H 628.865 -4.68936 1.95094 0
M  V30 6688 H 628.795 -5.25935 0.264524 0
M  V30 6689 H 631.286 -3.73237 0.591815 0
M  V30 6690 H 631.599 -7.5097 1.82385 0
M  V30 6691 H 629.944 -6.75531 1.63349 0
M  V30 6692 H 633.135 -4.6093 0.816169 0
M  V30 6693 H 633.308 -6.33184 1.37777 0
M  V30 6694 N 626.714 -0.118576 -1.57153 0
M  V30 6695 C 627.962 0.538461 -1.94795 0
M  V30 6696 C 628.283 1.67243 -1.00274 0
M  V30 6697 O 627.553 1.95811 -0.0589692 0
M  V30 6698 H 626.133 0.201904 -0.719197 0
M  V30 6699 H 628.795 -0.187418 -1.93997 0
M  V30 6700 H 627.891 0.933315 -2.97818 0
M  V30 6701 N 628.193 1.56834 0.155195 0
M  V30 6702 C 629.125 1.94235 1.21677 0
M  V30 6703 C 630.138 0.83724 1.39621 0
M  V30 6704 O 631.327 1.11567 1.39338 0
M  V30 6705 C 628.427 2.19402 2.58294 0
M  V30 6706 C 627.6 3.50671 2.61436 0
M  V30 6707 C 626.659 3.64475 3.79532 0
M  V30 6708 O 625.685 4.36945 3.64784 0
M  V30 6709 N 626.887 3.00526 4.96653 0
M  V30 6710 H 629.652 2.85901 0.898932 0
M  V30 6711 H 627.213 1.58185 0.34483 0
M  V30 6712 H 629.205 2.25886 3.35794 0
M  V30 6713 H 627.775 1.34042 2.82403 0
M  V30 6714 H 626.995 3.55702 1.69912 0
M  V30 6715 H 628.283 4.3702 2.60559 0
M  V30 6716 H 627.681 2.41549 5.11538 0
M  V30 6717 H 626.238 3.12583 5.71958 0
M  V30 6718 N 629.671 -0.424282 1.51781 0
M  V30 6719 C 630.634 -1.49848 1.73431 0
M  V30 6720 C 631.634 -1.49016 0.604225 0
M  V30 6721 O 632.824 -1.50808 0.871935 0
M  V30 6722 C 629.956 -2.89332 1.80277 0
M  V30 6723 H 631.149 -1.3195 2.69312 0
M  V30 6724 H 628.702 -0.653809 1.41968 0
M  V30 6725 H 629.437 -3.12618 0.862568 0
M  V30 6726 H 629.222 -2.9134 2.62419 0
M  V30 6727 H 630.712 -3.67233 1.98821 0
M  V30 6728 N 631.149 -1.42148 -0.680565 0
M  V30 6729 C 632.112 -1.4488 -1.77602 0
M  V30 6730 C 633.112 -0.337209 -1.57224 0
M  V30 6731 O 634.302 -0.597778 -1.63622 0
M  V30 6732 C 631.434 -1.27483 -3.16166 0
M  V30 6733 H 632.627 -2.42412 -1.76568 0
M  V30 6734 H 630.18 -1.28511 -0.889645 0
M  V30 6735 H 630.915 -0.30851 -3.22829 0
M  V30 6736 H 630.7 -2.08037 -3.3236 0
M  V30 6737 H 632.19 -1.32265 -3.96101 0
M  V30 6738 N 632.627 0.916307 -1.28225 0
M  V30 6739 C 633.855 1.69901 -1.18073 0
M  V30 6740 C 634.27 1.86988 0.260968 0
M  V30 6741 O 633.627 1.39505 1.17663 0
M  V30 6742 C 633.678 3.09254 -1.87201 0
M  V30 6743 O 633.399 2.92959 -3.2574 0
M  V30 6744 C 634.9 4.0362 -1.83319 0
M  V30 6745 H 632.12 0.531181 -0.409985 0
M  V30 6746 H 634.664 1.14703 -1.69303 0
M  V30 6747 H 632.819 3.61277 -1.39848 0
M  V30 6748 H 633.233 3.81139 -3.60324 0
M  V30 6749 H 634.707 4.98873 -2.36282 0
M  V30 6750 H 635.184 4.3176 -0.805007 0
M  V30 6751 H 635.79 3.57524 -2.3034 0
M  V30 6752 N 634.105 1.10431 1.1244 0
M  V30 6753 C 635.516 0.864439 1.65482 0
M  V30 6754 C 635.867 -0.60527 1.8663 0
M  V30 6755 O 634.992 -1.46492 1.59276 0
M  V30 6756 C 635.587 1.56267 3.0061 0
M  V30 6757 C 634.146 1.3695 3.50602 0
M  V30 6758 C 633.293 1.61209 2.25626 0
M  V30 6759 H 636.244 1.26203 0.962209 0
M  V30 6760 H 636.265 1.00166 3.67079 0
M  V30 6761 H 635.777 2.63231 2.85186 0
M  V30 6762 H 633.878 0.321481 3.71211 0
M  V30 6763 H 633.991 2.11143 4.30064 0
M  V30 6764 H 632.355 1.03482 2.32731 0
M  V30 6765 H 633.138 2.69425 2.12756 0
M  V30 6766 N 635.583 -1.29855 0.893053 0
M  V30 6767 C 636.493 -2.31661 0.370157 0
M  V30 6768 C 637.509 -1.65677 -0.531723 0
M  V30 6769 O 638.685 -1.9691 -0.422902 0
M  V30 6770 C 635.75 -3.44388 -0.399741 0
M  V30 6771 C 634.811 -4.2598 0.532861 0
M  V30 6772 C 634.044 -5.33324 -0.200388 0
M  V30 6773 O 634.267 -5.52305 -1.42531 0
M  V30 6774 O 633.201 -6.00188 0.453668 0
M  V30 6775 H 637.027 -2.78354 1.2146 0
M  V30 6776 H 634.612 -1.34171 0.657153 0
M  V30 6777 H 636.494 -4.13037 -0.835358 0
M  V30 6778 H 635.169 -2.99815 -1.22035 0
M  V30 6779 H 634.076 -3.59998 1.01746 0
M  V30 6780 H 635.409 -4.74178 1.3197 0
M  V30 6781 N 637.061 -0.65484 -1.43351 0
M  V30 6782 C 638.289 -0.176685 -2.06144 0
M  V30 6783 C 638.704 1.15831 -1.49093 0
M  V30 6784 O 638.061 1.71542 -0.622868 0
M  V30 6785 C 638.112 -0.0813326 -3.61408 0
M  V30 6786 O 637.833 -1.36355 -4.1634 0
M  V30 6787 C 639.334 0.422706 -4.4128 0
M  V30 6788 H 636.554 -0.0906429 -0.66485 0
M  V30 6789 H 639.098 -0.895945 -1.83829 0
M  V30 6790 H 637.253 0.588496 -3.82904 0
M  V30 6791 H 637.667 -1.22381 -5.10023 0
M  V30 6792 H 639.141 0.438375 -5.50257 0
M  V30 6793 H 639.618 1.45432 -4.14423 0
M  V30 6794 H 640.224 -0.214687 -4.24758 0
M  V30 6795 N 638.539 1.52521 -0.396863 0
M  V30 6796 C 639.95 1.86547 0.0754868 0
M  V30 6797 C 640.301 1.31621 1.45501 0
M  V30 6798 O 639.426 0.650563 2.0639 0
M  V30 6799 C 640.021 3.38495 0.143754 0
M  V30 6800 C 638.58 3.72205 0.560413 0
M  V30 6801 C 637.727 2.75954 -0.272856 0
M  V30 6802 H 640.678 1.46323 -0.614434 0
M  V30 6803 H 640.699 3.68153 0.961425 0
M  V30 6804 H 640.211 3.78442 -0.860415 0
M  V30 6805 H 638.312 3.3783 1.57167 0
M  V30 6806 H 638.425 4.78074 0.313314 0
M  V30 6807 H 636.789 2.53339 0.263 0
M  V30 6808 H 637.572 3.1874 -1.27515 0
M  V30 6809 N 640.017 0.126909 1.57088 0
M  V30 6810 C 640.949 -0.850973 2.12817 0
M  V30 6811 C 641.962 -1.22457 1.07276 0
M  V30 6812 O 643.151 -1.17215 1.34622 0
M  V30 6813 C 640.251 -2.15039 2.61938 0
M  V30 6814 C 639.424 -1.94726 3.91664 0
M  V30 6815 C 638.483 -3.0847 4.26301 0
M  V30 6816 O 637.509 -2.81038 4.94981 0
M  V30 6817 N 638.711 -4.35116 3.84259 0
M  V30 6818 H 641.476 -0.3748 2.97347 0
M  V30 6819 H 639.037 -0.0572793 1.61799 0
M  V30 6820 H 641.029 -2.90141 2.82135 0
M  V30 6821 H 639.599 -2.5398 1.82244 0
M  V30 6822 H 638.819 -1.03772 3.80296 0
M  V30 6823 H 640.107 -1.78469 4.76473 0
M  V30 6824 H 639.505 -4.60276 3.2888 0
M  V30 6825 H 638.062 -5.07064 4.09548 0
M  V30 6826 N 641.495 -1.56914 -0.146875 0
M  V30 6827 C 642.906 -1.72799 -0.706928 0
M  V30 6828 C 643.257 -0.741329 -1.81656 0
M  V30 6829 O 642.382 0.0920162 -2.16204 0
M  V30 6830 C 642.977 -3.13317 -1.28911 0
M  V30 6831 C 641.536 -3.30803 -1.79573 0
M  V30 6832 C 640.683 -2.68725 -0.684252 0
M  V30 6833 H 643.634 -1.58504 0.0787931 0
M  V30 6834 H 643.655 -3.13323 -2.15891 0
M  V30 6835 H 643.167 -3.85104 -0.481284 0
M  V30 6836 H 641.268 -2.64012 -2.62923 0
M  V30 6837 H 641.381 -4.38754 -1.92436 0
M  V30 6838 H 639.745 -2.29196 -1.11091 0
M  V30 6839 H 640.528 -3.43117 0.112134 0
M  V30 6840 N 642.974 0.416227 -1.52004 0
M  V30 6841 C 644.199 1.19029 -1.69843 0
M  V30 6842 C 644.624 1.83708 -0.404103 0
M  V30 6843 O 643.982 1.69711 0.637787 0
M  V30 6844 C 644.03 2.23439 -2.83032 0
M  V30 6845 O 643.134 3.29419 -2.48106 0
M  V30 6846 H 642.475 0.347785 -0.565634 0
M  V30 6847 H 645.005 0.488871 -1.98674 0
M  V30 6848 H 645.015 2.67884 -3.07737 0
M  V30 6849 H 643.69 1.75745 -3.76944 0
M  V30 6850 H 642.267 2.90303 -2.34048 0
M  V30 6851 N 644.452 1.42507 0.673017 0
M  V30 6852 C 645.863 1.38347 1.25367 0
M  V30 6853 C 646.214 0.0776327 1.96046 0
M  V30 6854 O 645.339 -0.823571 2.00116 0
M  V30 6855 C 645.934 2.506 2.28002 0
M  V30 6856 C 644.493 2.49767 2.81591 0
M  V30 6857 C 643.64 2.293 1.55938 0
M  V30 6858 H 646.591 1.51695 0.466288 0
M  V30 6859 H 646.612 2.20953 3.09774 0
M  V30 6860 H 646.124 3.45627 1.76532 0
M  V30 6861 H 644.225 1.58563 3.37177 0
M  V30 6862 H 644.338 3.46867 3.30485 0
M  V30 6863 H 642.702 1.77594 1.82572 0
M  V30 6864 H 643.485 3.26385 1.06431 0
M  V30 6865 N 645.93 -0.909495 1.28709 0
M  V30 6866 C 647.341 -1.47419 1.14563 0
M  V30 6867 C 647.692 -1.94432 -0.262832 0
M  V30 6868 O 646.817 -1.82842 -1.15748 0
M  V30 6869 C 647.412 -2.67933 2.07358 0
M  V30 6870 C 645.971 -3.20568 1.97264 0
M  V30 6871 C 645.118 -1.93269 1.98852 0
M  V30 6872 H 648.069 -0.721787 1.41336 0
M  V30 6873 H 648.09 -3.43339 1.64007 0
M  V30 6874 H 647.602 -2.33685 3.09859 0
M  V30 6875 H 645.703 -3.59531 0.978157 0
M  V30 6876 H 645.816 -3.85529 2.84436 0
M  V30 6877 H 644.18 -2.10553 1.43317 0
M  V30 6878 H 644.963 -1.61312 3.0304 0
M  V30 6879 N 647.408 -1.11026 -1.11852 0
M  V30 6880 C 648.656 -0.854769 -1.83134 0
M  V30 6881 C 648.977 0.621375 -1.84835 0
M  V30 6882 O 648.247 1.45129 -1.31584 0
M  V30 6883 H 646.827 -0.313229 -0.678157 0
M  V30 6884 H 649.489 -1.40178 -1.35411 0
M  V30 6885 H 648.585 -1.22311 -2.87135 0
M  V30 6886 N 648.886 1.2938 -0.899927 0
M  V30 6887 C 650.134 1.95164 -0.524924 0
M  V30 6888 C 650.455 1.71292 0.931888 0
M  V30 6889 O 649.725 1.04481 1.65712 0
M  V30 6890 H 648.305 0.722133 -0.191135 0
M  V30 6891 H 650.967 1.57628 -1.14627 0
M  V30 6892 H 650.063 3.0397 -0.707711 0
M  V30 6893 N 650.364 0.662433 1.43002 0
M  V30 6894 C 651.589 0.186003 2.06564 0
M  V30 6895 C 652.014 -1.14314 1.49379 0
M  V30 6896 O 651.372 -1.70824 0.607346 0
M  V30 6897 C 651.42 0.118269 3.60406 0
M  V30 6898 O 650.524 -0.916859 4.02079 0
M  V30 6899 H 649.865 0.0990981 0.656563 0
M  V30 6900 H 652.395 0.907958 1.8335 0
M  V30 6901 H 652.405 -0.0619981 4.07953 0
M  V30 6902 H 651.08 1.08849 4.01403 0
M  V30 6903 H 649.657 -0.708635 3.66105 0
M  V30 6904 N 651.842 -1.52309 0.404946 0
M  V30 6905 C 653.09 -2.01368 -0.17186 0
M  V30 6906 C 653.411 -1.29261 -1.46002 0
M  V30 6907 O 652.681 -0.41729 -1.91404 0
M  V30 6908 H 651.261 -0.744034 -0.0664993 0
M  V30 6909 H 653.923 -1.87263 0.540228 0
M  V30 6910 H 653.019 -3.09888 -0.370957 0
M  V30 6911 N 653.32 -0.135238 -1.57019 0
M  V30 6912 C 654.545 0.529343 -2.00531 0
M  V30 6913 C 654.97 1.58391 -1.01459 0
M  V30 6914 O 654.328 1.81296 0.0113986 0
M  V30 6915 C 654.376 1.11748 -3.42848 0
M  V30 6916 O 653.48 2.23267 -3.46736 0
M  V30 6917 H 652.821 0.130669 -0.651016 0
M  V30 6918 H 655.351 -0.228503 -2.0332 0
M  V30 6919 H 655.361 1.44905 -3.81401 0
M  V30 6920 H 654.036 0.345147 -4.14465 0
M  V30 6921 H 652.613 1.91428 -3.20015 0
M  V30 6922 N 654.798 1.5699 0.138552 0
M  V30 6923 C 655.708 2.02174 1.19008 0
M  V30 6924 C 656.724 0.938622 1.46512 0
M  V30 6925 O 657.9 1.24872 1.58016 0
M  V30 6926 C 654.965 2.40045 2.50159 0
M  V30 6927 C 654.026 3.62346 2.30226 0
M  V30 6928 C 653.259 3.98401 3.55123 0
M  V30 6929 O 653.482 3.35019 4.61647 0
M  V30 6930 O 652.416 4.91606 3.47285 0
M  V30 6931 H 656.242 2.91954 0.836452 0
M  V30 6932 H 653.827 1.45293 0.347907 0
M  V30 6933 H 655.709 2.65225 3.27465 0
M  V30 6934 H 654.384 1.53417 2.85035 0
M  V30 6935 H 653.291 3.42341 1.50843 0
M  V30 6936 H 654.624 4.49617 2.00262 0
M  V30 6937 N 656.276 -0.40816 1.52223 0
M  V30 6938 C 657.687 -0.986929 1.58482 0
M  V30 6939 C 658.038 -1.91521 0.425917 0
M  V30 6940 O 657.163 -2.11593 -0.453593 0
M  V30 6941 C 657.758 -1.7967 2.87235 0
M  V30 6942 C 656.317 -2.32549 2.9597 0
M  V30 6943 C 655.464 -1.12558 2.53428 0
M  V30 6944 H 658.415 -0.188362 1.57578 0
M  V30 6945 H 658.436 -2.65417 2.72642 0
M  V30 6946 H 657.948 -1.12082 3.71563 0
M  V30 6947 H 656.049 -3.03505 2.16137 0
M  V30 6948 H 656.162 -2.63348 4.00231 0
M  V30 6949 H 654.526 -1.47984 2.07299 0
M  V30 6950 H 655.309 -0.465351 3.40131 0
M  V30 6951 N 657.755 -1.42862 -0.66545 0
M  V30 6952 C 658.985 -1.47032 -1.45138 0
M  V30 6953 C 659.393 -0.0829977 -1.89018 0
M  V30 6954 O 658.736 0.914551 -1.59316 0
M  V30 6955 C 658.798 -2.34302 -2.72659 0
M  V30 6956 C 658.462 -3.82034 -2.50796 0
M  V30 6957 C 659.459 -4.73453 -2.14799 0
M  V30 6958 C 657.144 -4.26397 -2.655 0
M  V30 6959 C 659.138 -6.07228 -1.93785 0
M  V30 6960 C 656.825 -5.6023 -2.44103 0
M  V30 6961 C 657.823 -6.50462 -2.08299 0
M  V30 6962 O 657.511 -7.8182 -1.87116 0
M  V30 6963 H 657.243 -0.501969 -0.452772 0
M  V30 6964 H 659.797 -1.88137 -0.82423 0
M  V30 6965 H 658.027 -1.88063 -3.37889 0
M  V30 6966 H 659.716 -2.29818 -3.34572 0
M  V30 6967 H 660.482 -4.4046 -2.03026 0
M  V30 6968 H 656.361 -3.56448 -2.92345 0
M  V30 6969 H 659.905 -6.7762 -1.65763 0
M  V30 6970 H 655.802 -5.92793 -2.55475 0
M  V30 6971 H 656.57 -7.93274 -2.01639 0
M  V30 6972 N 659.233 0.902656 -1.29189 0
M  V30 6973 C 660.18 2.00643 -1.14066 0
M  V30 6974 C 661.15 1.66064 -0.0347756 0
M  V30 6975 O 662.335 1.8973 -0.201752 0
M  V30 6976 C 659.475 3.35214 -0.820104 0
M  V30 6977 C 658.588 3.82594 -2.00614 0
M  V30 6978 C 657.723 5.05727 -1.62522 0
M  V30 6979 C 656.762 5.45469 -2.77724 0
M  V30 6980 N 655.899 6.59789 -2.40048 0
M  V30 6981 H 660.739 2.1291 -2.08502 0
M  V30 6982 H 658.276 1.04271 -1.03759 0
M  V30 6983 H 660.234 4.12643 -0.614949 0
M  V30 6984 H 658.864 3.22682 0.0873452 0
M  V30 6985 H 657.916 3.01226 -2.32308 0
M  V30 6986 H 659.228 4.07999 -2.86946 0
M  V30 6987 H 658.382 5.90732 -1.38277 0
M  V30 6988 H 657.121 4.82155 -0.733333 0
M  V30 6989 H 656.126 4.59 -3.02653 0
M  V30 6990 H 657.351 5.71024 -3.67572 0
M  V30 6991 H 655.297 6.37826 -1.53343 0
M  V30 6992 H 655.214 6.84975 -3.19914 0
M  V30 6993 H 656.482 7.4807 -2.19116 0
M  V30 6994 N 660.711 1.11618 1.11262 0
M  V30 6995 C 661.641 0.79846 2.19424 0
M  V30 6996 C 662.622 -0.234003 1.68483 0
M  V30 6997 O 663.807 -0.0970704 1.93957 0
M  V30 6998 C 660.937 0.242892 3.4645 0
M  V30 6999 C 659.891 1.20744 4.10615 0
M  V30 7000 C 659.217 0.512494 5.32238 0
M  V30 7001 C 660.517 2.55884 4.55325 0
M  V30 7002 H 662.211 1.70286 2.46258 0
M  V30 7003 H 659.757 0.820195 1.18359 0
M  V30 7004 H 661.71 0.00840447 4.21399 0
M  V30 7005 H 660.434 -0.696811 3.1908 0
M  V30 7006 H 659.093 1.42759 3.37662 0
M  V30 7007 H 658.741 -0.432075 5.01141 0
M  V30 7008 H 658.441 1.15583 5.7612 0
M  V30 7009 H 659.965 0.286842 6.09926 0
M  V30 7010 H 661.379 2.37946 5.21588 0
M  V30 7011 H 659.776 3.16216 5.10027 0
M  V30 7012 H 660.846 3.14968 3.68678 0
M  V30 7013 N 662.189 -1.289 0.906776 0
M  V30 7014 C 663.119 -2.29932 0.406659 0
M  V30 7015 C 664.1 -1.6189 -0.522061 0
M  V30 7016 O 665.285 -1.8935 -0.431283 0
M  V30 7017 C 662.415 -3.45425 -0.360366 0
M  V30 7018 C 661.369 -4.25316 0.478574 0
M  V30 7019 C 660.695 -5.33076 -0.416373 0
M  V30 7020 C 661.995 -4.92739 1.7322 0
M  V30 7021 H 663.689 -2.72013 1.25097 0
M  V30 7022 H 661.235 -1.30768 0.602977 0
M  V30 7023 H 663.188 -4.15186 -0.721029 0
M  V30 7024 H 661.912 -3.02206 -1.23852 0
M  V30 7025 H 660.571 -3.57273 0.821662 0
M  V30 7026 H 660.219 -4.86101 -1.29287 0
M  V30 7027 H 659.919 -5.8743 0.141309 0
M  V30 7028 H 661.443 -6.05686 -0.773072 0
M  V30 7029 H 662.857 -5.54898 1.44086 0
M  V30 7030 H 661.254 -5.57057 2.23175 0
M  V30 7031 H 662.324 -4.17625 2.46408 0
M  V30 7032 N 663.667 -0.670007 -1.42649 0
M  V30 7033 C 665.078 -0.268118 -1.84765 0
M  V30 7034 C 665.429 1.18877 -1.56086 0
M  V30 7035 O 664.554 1.90947 -1.01825 0
M  V30 7036 C 665.149 -0.47984 -3.35385 0
M  V30 7037 C 663.708 -0.132116 -3.76168 0
M  V30 7038 C 662.855 -0.774611 -2.66261 0
M  V30 7039 H 665.806 -0.872509 -1.32563 0
M  V30 7040 H 665.827 0.269522 -3.79544 0
M  V30 7041 H 665.339 -1.54026 -3.56227 0
M  V30 7042 H 663.44 0.92505 -3.60934 0
M  V30 7043 H 663.553 -0.569294 -4.75706 0
M  V30 7044 H 661.917 -0.206353 -2.53863 0
M  V30 7045 H 662.7 -1.83839 -2.89928 0
M  V30 7046 N 665.145 1.52092 -0.413018 0
M  V30 7047 C 666.393 2.01456 0.161178 0
M  V30 7048 C 666.714 1.30034 1.45314 0
M  V30 7049 O 665.984 0.427435 1.9118 0
M  V30 7050 H 664.564 0.744376 0.0625526 0
M  V30 7051 H 667.226 1.86974 -0.550151 0
M  V30 7052 H 666.322 3.1008 0.354517 0
M  V30 7053 N 666.623 0.143563 1.56945 0
M  V30 7054 C 667.586 -0.783295 2.154 0
M  V30 7055 C 668.586 -1.17763 1.09492 0
M  V30 7056 O 669.776 -1.09912 1.35148 0
M  V30 7057 C 666.908 -2.06248 2.7143 0
M  V30 7058 H 668.101 -0.274863 2.98638 0
M  V30 7059 H 665.654 -0.105859 1.55941 0
M  V30 7060 H 666.389 -2.61466 1.91849 0
M  V30 7061 H 666.174 -1.78897 3.4891 0
M  V30 7062 H 667.664 -2.72453 3.16479 0
M  V30 7063 N 668.101 -1.57061 -0.130224 0
M  V30 7064 C 669.347 -1.8453 -0.841216 0
M  V30 7065 C 669.68 -0.727666 -1.80052 0
M  V30 7066 O 668.955 0.267419 -1.92653 0
M  V30 7067 C 669.238 -3.22553 -1.60099 0
M  V30 7068 C 669.091 -4.44901 -0.662048 0
M  V30 7069 C 670.41 -3.58003 -2.55973 0
M  V30 7070 H 667.529 -0.671215 -0.304366 0
M  V30 7071 H 670.171 -1.89705 -0.105821 0
M  V30 7072 H 668.321 -3.18272 -2.22789 0
M  V30 7073 H 669.993 -4.61278 -0.0448559 0
M  V30 7074 H 668.236 -4.33791 0.0272253 0
M  V30 7075 H 668.907 -5.3812 -1.23006 0
M  V30 7076 H 671.383 -3.63002 -2.03393 0
M  V30 7077 H 670.259 -4.55576 -3.06172 0
M  V30 7078 H 670.52 -2.84833 -3.38116 0
M  V30 7079 N 669.579 0.400081 -1.52437 0
M  V30 7080 C 670.542 1.4707 -1.75793 0
M  V30 7081 C 671.542 1.48036 -0.627856 0
M  V30 7082 O 672.732 1.49401 -0.895817 0
M  V30 7083 C 669.864 2.86427 -1.84858 0
M  V30 7084 H 671.057 1.27649 -2.71377 0
M  V30 7085 H 668.61 0.631141 -1.42991 0
M  V30 7086 H 669.345 3.11207 -0.912194 0
M  V30 7087 H 669.13 2.87128 -2.6702 0
M  V30 7088 H 670.62 3.64023 -2.04638 0
M  V30 7089 N 671.057 1.43213 0.657864 0
M  V30 7090 C 672.285 1.48015 1.44566 0
M  V30 7091 C 672.7 0.0965951 1.88553 0
M  V30 7092 O 672.057 -0.892221 1.59203 0
M  V30 7093 C 672.108 2.42199 2.68369 0
M  V30 7094 O 671.829 3.75173 2.26223 0
M  V30 7095 C 673.33 2.56195 3.61772 0
M  V30 7096 H 670.55 0.502861 0.444266 0
M  V30 7097 H 673.094 1.87907 0.806917 0
M  V30 7098 H 671.249 2.05514 3.28394 0
M  V30 7099 H 671.663 4.25776 3.06293 0
M  V30 7100 H 673.137 3.26182 4.4532 0
M  V30 7101 H 673.614 1.60534 4.0881 0
M  V30 7102 H 674.22 2.93671 3.07632 0
M  V30 7103 N 672.536 -0.895792 1.29666 0
M  V30 7104 C 673.785 -1.64131 1.17234 0
M  V30 7105 C 674.098 -1.93665 -0.274416 0
M  V30 7106 O 675.304 -2.66472 -0.520105 0
M  V30 7107 C 673.76 -2.95764 2.05065 0
M  V30 7108 C 673.368 -2.7381 3.54587 0
M  V30 7109 C 675.112 -3.737 2.01367 0
M  V30 7110 C 673.019 -4.01194 4.34508 0
M  V30 7111 H 671.949 -0.615742 0.435175 0
M  V30 7112 H 674.6 -0.992626 1.54335 0
M  V30 7113 H 672.982 -3.61867 1.60837 0
M  V30 7114 H 674.156 -2.16277 4.06892 0
M  V30 7115 H 672.471 -2.09265 3.59996 0
M  V30 7116 H 675.068 -4.68152 2.58337 0
M  V30 7117 H 675.411 -4.04245 0.994575 0
M  V30 7118 H 675.944 -3.14444 2.43659 0
M  V30 7119 H 672.683 -3.75813 5.37071 0
M  V30 7120 H 672.203 -4.58272 3.86971 0
M  V30 7121 H 673.882 -4.69307 4.45376 0
M  V30 7122 N 674.014 -1.12206 -1.10668 0
M  V30 7123 C 675.26 -0.877172 -1.82848 0
M  V30 7124 C 675.593 0.595571 -1.84842 0
M  V30 7125 O 674.868 1.44013 -1.30731 0
M  V30 7126 C 675.151 -1.44957 -3.29635 0
M  V30 7127 C 675.004 -2.99051 -3.35989 0
M  V30 7128 C 676.323 -1.10714 -4.25946 0
M  V30 7129 H 673.442 -0.320103 -0.663854 0
M  V30 7130 H 676.084 -1.38827 -1.2972 0
M  V30 7131 H 674.234 -1.01488 -3.7501 0
M  V30 7132 H 675.906 -3.51182 -2.99113 0
M  V30 7133 H 674.149 -3.34705 -2.75962 0
M  V30 7134 H 674.82 -3.34194 -4.39339 0
M  V30 7135 H 677.296 -1.48254 -3.88793 0
M  V30 7136 H 676.172 -1.5343 -5.2702 0
M  V30 7137 H 676.433 -0.019 -4.42096 0
M  V30 7138 N 675.492 1.28418 -0.913599 0
M  V30 7139 C 676.439 2.27301 -0.400373 0
M  V30 7140 C 677.409 1.57582 0.52509 0
M  V30 7141 O 678.594 1.85482 0.447318 0
M  V30 7142 C 675.734 3.43284 0.35361 0
M  V30 7143 C 674.847 4.27752 -0.604341 0
M  V30 7144 C 673.982 5.30934 0.168075 0
M  V30 7145 C 673.021 6.07065 -0.783499 0
M  V30 7146 N 672.158 7.02086 -0.0446112 0
M  V30 7147 H 676.998 2.70579 -1.24865 0
M  V30 7148 H 674.535 1.33067 -0.627028 0
M  V30 7149 H 676.493 4.09322 0.806945 0
M  V30 7150 H 675.123 3.00997 1.16623 0
M  V30 7151 H 674.175 3.61759 -1.17621 0
M  V30 7152 H 675.487 4.80682 -1.33216 0
M  V30 7153 H 674.641 6.02855 0.681979 0
M  V30 7154 H 673.38 4.78771 0.928947 0
M  V30 7155 H 672.385 5.33995 -1.30878 0
M  V30 7156 H 673.61 6.61317 -1.54392 0
M  V30 7157 H 671.556 6.52273 0.698272 0
M  V30 7158 H 671.473 7.52637 -0.712258 0
M  V30 7159 H 672.741 7.78205 0.449102 0
M  V30 7160 N 676.97 0.677563 1.42291 0
M  V30 7161 C 678.381 0.277912 1.8462 0
M  V30 7162 C 678.732 -1.18048 1.56714 0
M  V30 7163 O 677.857 -1.90404 1.02836 0
M  V30 7164 C 678.452 0.497619 3.35126 0
M  V30 7165 C 677.011 0.152063 3.76093 0
M  V30 7166 C 676.158 0.78872 2.65847 0
M  V30 7167 H 679.109 0.879527 1.32098 0
M  V30 7168 H 679.13 -0.24939 3.79682 0
M  V30 7169 H 678.642 1.55913 3.55405 0
M  V30 7170 H 676.743 -0.905896 3.6142 0
M  V30 7171 H 676.856 0.594514 4.75397 0
M  V30 7172 H 675.22 0.219813 2.5375 0
M  V30 7173 H 676.003 1.85374 2.88949 0
M  V30 7174 N 678.448 -1.51871 0.421078 0
M  V30 7175 C 679.378 -2.30231 -0.389363 0
M  V30 7176 C 680.359 -1.34946 -1.03555 0
M  V30 7177 O 681.544 -1.63859 -1.04229 0
M  V30 7178 C 678.674 -3.13247 -1.49979 0
M  V30 7179 C 677.628 -4.16677 -0.977966 0
M  V30 7180 C 676.954 -4.88112 -2.1829 0
M  V30 7181 C 678.254 -5.22295 -0.0236775 0
M  V30 7182 H 679.948 -2.98229 0.264524 0
M  V30 7183 H 677.494 -1.43424 0.12866 0
M  V30 7184 H 679.447 -3.66838 -2.07383 0
M  V30 7185 H 678.171 -2.4304 -2.18173 0
M  V30 7186 H 676.83 -3.64114 -0.426245 0
M  V30 7187 H 676.478 -4.14423 -2.85066 0
M  V30 7188 H 676.178 -5.58041 -1.84021 0
M  V30 7189 H 677.702 -5.44521 -2.76278 0
M  V30 7190 H 679.116 -5.71055 -0.506899 0
M  V30 7191 H 677.513 -5.99656 0.230782 0
M  V30 7192 H 678.583 -4.76131 0.917999 0
M  V30 7193 N 679.926 -0.151884 -1.56866 0
M  V30 7194 C 681.151 0.508044 -2.01081 0
M  V30 7195 C 681.576 1.57306 -1.03134 0
M  V30 7196 O 680.934 1.81298 -0.0078309 0
M  V30 7197 C 680.982 1.08106 -3.44014 0
M  V30 7198 O 680.086 2.19577 -3.49084 0
M  V30 7199 H 679.427 0.123757 -0.652365 0
M  V30 7200 H 681.957 -0.250055 -2.03066 0
M  V30 7201 H 681.967 1.40851 -3.82916 0
M  V30 7202 H 680.642 0.301168 -4.14808 0
M  V30 7203 H 679.219 1.88023 -3.22027 0
M  V30 7204 N 681.404 1.57128 0.121893 0
M  V30 7205 C 682.367 1.99197 1.13372 0
M  V30 7206 C 683.367 0.881728 1.3447 0
M  V30 7207 O 684.557 1.14783 1.31036 0
M  V30 7208 C 681.689 2.32963 2.4888 0
M  V30 7209 H 682.882 2.89788 0.772204 0
M  V30 7210 H 680.435 1.51952 0.366093 0
M  V30 7211 H 681.17 1.45243 2.89957 0
M  V30 7212 H 680.955 3.13934 2.34921 0
M  V30 7213 H 682.445 2.66261 3.21706 0
M  V30 7214 N 682.882 -0.391992 1.52647 0
M  V30 7215 C 684.131 -1.13449 1.6677 0
M  V30 7216 C 684.444 -1.91203 0.412399 0
M  V30 7217 O 685.65 -2.68013 0.433707 0
M  V30 7218 C 684.106 -2.06577 2.9471 0
M  V30 7219 C 683.714 -1.3426 4.27409 0
M  V30 7220 C 685.458 -2.80981 3.18198 0
M  V30 7221 C 683.365 -2.26136 5.46458 0
M  V30 7222 H 682.295 -0.427211 0.621295 0
M  V30 7223 H 684.946 -0.397522 1.79142 0
M  V30 7224 H 683.328 -2.83898 2.76076 0
M  V30 7225 H 684.502 -0.621856 4.56585 0
M  V30 7226 H 682.817 -0.718279 4.10158 0
M  V30 7227 H 685.414 -3.49898 4.04321 0
M  V30 7228 H 685.757 -3.44891 2.33144 0
M  V30 7229 H 686.29 -2.10754 3.37383 0
M  V30 7230 H 683.029 -1.66846 6.33911 0
M  V30 7231 H 682.549 -2.96134 5.21598 0
M  V30 7232 H 684.228 -2.86286 5.80215 0
M  V30 7233 N 684.36 -1.4356 -0.65026 0
M  V30 7234 C 685.771 -1.40324 -1.2315 0
M  V30 7235 C 686.122 -0.108812 -1.95898 0
M  V30 7236 O 685.247 0.79163 -2.01401 0
M  V30 7237 C 685.842 -2.54195 -2.23987 0
M  V30 7238 C 684.401 -2.54215 -2.77582 0
M  V30 7239 C 683.548 -2.31752 -1.5227 0
M  V30 7240 H 686.499 -1.52418 -0.442095 0
M  V30 7241 H 686.52 -2.25854 -3.0622 0
M  V30 7242 H 686.032 -3.48392 -1.71011 0
M  V30 7243 H 684.133 -1.63907 -3.34612 0
M  V30 7244 H 684.246 -3.52081 -3.24925 0
M  V30 7245 H 682.61 -1.80476 -1.79723 0
M  V30 7246 H 683.393 -3.28037 -1.01225 0
M  V30 7247 N 685.838 0.888903 -1.30139 0
M  V30 7248 C 686.77 1.99972 -1.11999 0
M  V30 7249 C 687.783 1.62673 -0.0643619 0
M  V30 7250 O 688.972 1.75788 -0.309983 0
M  V30 7251 C 686.072 3.31904 -0.685059 0
M  V30 7252 C 685.245 3.97665 -1.82158 0
M  V30 7253 C 684.304 5.07894 -1.37585 0
M  V30 7254 O 683.33 5.2974 -2.08241 0
M  V30 7255 N 684.532 5.7995 -0.252697 0
M  V30 7256 H 687.297 2.16085 -2.07671 0
M  V30 7257 H 684.858 1.06175 -1.22223 0
M  V30 7258 H 686.85 4.03005 -0.369964 0
M  V30 7259 H 685.42 3.12084 0.179507 0
M  V30 7260 H 684.64 3.19787 -2.305 0
M  V30 7261 H 685.928 4.3834 -2.58332 0
M  V30 7262 H 685.326 5.647 0.336141 0
M  V30 7263 H 683.883 6.518 0.00296813 0
M  V30 7264 N 687.317 1.12792 1.10072 0
M  V30 7265 C 688.728 0.899346 1.63611 0
M  V30 7266 C 689.079 -0.565547 1.87872 0
M  V30 7267 O 688.204 -1.43081 1.62348 0
M  V30 7268 C 688.799 1.62608 2.97227 0
M  V30 7269 C 687.358 1.44356 3.47618 0
M  V30 7270 C 686.505 1.65958 2.22156 0
M  V30 7271 H 689.456 1.28216 0.935223 0
M  V30 7272 H 689.477 1.0793 3.64872 0
M  V30 7273 H 688.989 2.69221 2.79538 0
M  V30 7274 H 687.09 0.400148 3.70445 0
M  V30 7275 H 687.203 2.20218 4.25489 0
M  V30 7276 H 685.567 1.08395 2.30484 0
M  V30 7277 H 686.35 2.73877 2.06993 0
M  V30 7278 N 688.795 -1.27931 0.920396 0
M  V30 7279 C 690.023 -1.98805 0.573087 0
M  V30 7280 C 690.438 -1.68724 -0.847201 0
M  V30 7281 O 689.795 -0.943699 -1.56207 0
M  V30 7282 C 689.846 -3.52971 0.780633 0
M  V30 7283 O 689.567 -3.81994 2.14504 0
M  V30 7284 C 691.068 -4.411 0.44105 0
M  V30 7285 H 688.288 -0.634651 0.21785 0
M  V30 7286 H 690.832 -1.62965 1.23542 0
M  V30 7287 H 688.987 -3.87048 0.165204 0
M  V30 7288 H 689.401 -4.76609 2.18962 0
M  V30 7289 H 690.875 -5.48312 0.637006 0
M  V30 7290 H 691.352 -4.34758 -0.62306 0
M  V30 7291 H 691.958 -4.12532 1.0343 0
M  V30 7292 N 690.273 -0.685099 -1.4193 0
M  V30 7293 C 691.522 -0.208816 -2.00616 0
M  V30 7294 C 691.835 1.19506 -1.54847 0
M  V30 7295 O 693.041 1.76826 -2.06021 0
M  V30 7296 C 691.497 -0.322446 -3.58453 0
M  V30 7297 C 691.105 -1.73102 -4.13206 0
M  V30 7298 C 692.849 0.0945979 -4.24395 0
M  V30 7299 C 690.756 -1.79687 -5.63442 0
M  V30 7300 H 689.686 -0.0743092 -0.750329 0
M  V30 7301 H 692.337 -0.851778 -1.62533 0
M  V30 7302 H 690.719 0.388588 -3.94089 0
M  V30 7303 H 691.893 -2.46997 -3.8901 0
M  V30 7304 H 690.208 -2.09682 -3.59753 0
M  V30 7305 H 692.805 0.0656937 -5.3466 0
M  V30 7306 H 693.148 1.1316 -4.00625 0
M  V30 7307 H 693.681 -0.56579 -3.93756 0
M  V30 7308 H 690.42 -2.81404 -5.92024 0
M  V30 7309 H 689.94 -1.10162 -5.89597 0
M  V30 7310 H 691.619 -1.55498 -6.28036 0
M  V30 7311 N 691.751 1.51645 -0.429126 0
M  V30 7312 C 692.979 2.06433 0.138994 0
M  V30 7313 C 693.394 1.29735 1.37165 0
M  V30 7314 O 692.751 0.354638 1.79021 0
M  V30 7315 C 692.802 3.58439 0.469452 0
M  V30 7316 O 692.523 4.32238 -0.714273 0
M  V30 7317 C 694.024 4.29712 1.08914 0
M  V30 7318 H 691.244 0.6709 0.0115608 0
M  V30 7319 H 693.788 1.9532 -0.605843 0
M  V30 7320 H 691.943 3.69494 1.16419 0
M  V30 7321 H 692.357 5.22704 -0.433633 0
M  V30 7322 H 693.831 5.37182 1.27042 0
M  V30 7323 H 694.308 3.87473 2.06788 0
M  V30 7324 H 694.914 4.2308 0.434028 0
M  V30 7325 N 693.229 0.160201 1.56784 0
M  V30 7326 C 694.176 -0.774416 2.1742 0
M  V30 7327 C 695.146 -1.23483 1.11091 0
M  V30 7328 O 696.331 -1.30499 1.39193 0
M  V30 7329 C 693.471 -2.00283 2.81035 0
M  V30 7330 C 692.584 -1.58701 4.01793 0
M  V30 7331 C 691.719 -2.76824 4.53367 0
M  V30 7332 C 690.758 -2.31679 5.66561 0
M  V30 7333 N 689.895 -3.42856 6.12694 0
M  V30 7334 H 694.735 -0.250542 2.96945 0
M  V30 7335 H 692.272 -0.111943 1.46673 0
M  V30 7336 H 694.23 -2.72316 3.16069 0
M  V30 7337 H 692.86 -2.5006 2.04132 0
M  V30 7338 H 691.912 -0.76384 3.72652 0
M  V30 7339 H 693.224 -1.21555 4.83762 0
M  V30 7340 H 692.378 -3.57029 4.90525 0
M  V30 7341 H 691.117 -3.17223 3.70433 0
M  V30 7342 H 690.122 -1.49917 5.28966 0
M  V30 7343 H 691.347 -1.9235 6.5129 0
M  V30 7344 H 689.293 -3.82852 5.32692 0
M  V30 7345 H 689.21 -3.09767 6.89624 0
M  V30 7346 H 690.478 -4.23379 6.545 0
M  V30 7347 N 694.707 -1.5719 -0.113559 0
M  V30 7348 C 695.639 -1.97393 -1.16484 0
M  V30 7349 C 696.652 -0.873964 -1.37352 0
M  V30 7350 O 697.841 -1.15222 -1.36331 0
M  V30 7351 C 694.941 -2.26174 -2.52386 0
M  V30 7352 C 694.114 -3.57479 -2.52046 0
M  V30 7353 C 693.173 -3.74409 -3.69735 0
M  V30 7354 O 692.199 -4.46463 -3.53071 0
M  V30 7355 N 693.401 -3.13588 -4.88511 0
M  V30 7356 H 696.166 -2.88184 -0.822814 0
M  V30 7357 H 693.727 -1.59044 -0.302769 0
M  V30 7358 H 695.719 -2.3471 -3.29687 0
M  V30 7359 H 694.289 -1.41483 -2.7875 0
M  V30 7360 H 693.509 -3.60081 -1.60421 0
M  V30 7361 H 694.797 -4.43775 -2.48881 0
M  V30 7362 H 694.195 -2.55026 -5.04953 0
M  V30 7363 H 692.752 -3.27637 -5.63469 0
M  V30 7364 N 696.185 0.383891 -1.52853 0
M  V30 7365 C 697.095 1.49343 -1.80925 0
M  V30 7366 C 698.111 1.59458 -0.696348 0
M  V30 7367 O 699.287 1.75698 -0.984481 0
M  V30 7368 C 696.352 2.84819 -1.97684 0
M  V30 7369 C 695.413 2.84382 -3.21598 0
M  V30 7370 C 694.646 4.13397 -3.37548 0
M  V30 7371 O 694.869 5.08619 -2.58192 0
M  V30 7372 O 693.803 4.20325 -4.30826 0
M  V30 7373 H 697.629 1.2855 -2.75152 0
M  V30 7374 H 695.214 0.572229 -1.38007 0
M  V30 7375 H 697.096 3.65125 -2.10385 0
M  V30 7376 H 695.771 3.05627 -1.06647 0
M  V30 7377 H 694.678 2.0284 -3.14336 0
M  V30 7378 H 696.011 2.68526 -4.12498 0
M  V30 7379 N 697.663 1.43903 0.642637 0
M  V30 7380 C 698.909 1.46296 1.40447 0
M  V30 7381 C 699.242 0.0908361 1.93987 0
M  V30 7382 O 698.517 -0.889884 1.72949 0
M  V30 7383 C 698.8 2.51399 2.57819 0
M  V30 7384 C 698.653 3.97926 2.09702 0
M  V30 7385 C 699.972 2.53125 3.60022 0
M  V30 7386 H 697.091 0.532676 0.509338 0
M  V30 7387 H 699.733 1.75515 0.727635 0
M  V30 7388 H 697.883 2.26614 3.1556 0
M  V30 7389 H 699.555 4.33804 1.5688 0
M  V30 7390 H 697.798 4.10252 1.40982 0
M  V30 7391 H 698.469 4.67096 2.94152 0
M  V30 7392 H 700.945 2.75242 3.12059 0
M  V30 7393 H 699.821 3.28589 4.39682 0
M  V30 7394 H 700.082 1.56895 4.13324 0
M  V30 7395 N 699.141 -0.881989 1.30609 0
M  V30 7396 C 700.39 -1.62878 1.18969 0
M  V30 7397 C 700.703 -1.93946 -0.253859 0
M  V30 7398 O 701.909 -2.67008 -0.491813 0
M  V30 7399 C 700.365 -2.93573 2.0819 0
M  V30 7400 C 699.973 -2.70034 3.57471 0
M  V30 7401 C 701.717 -3.71543 2.0532 0
M  V30 7402 C 699.624 -3.96563 4.38739 0
M  V30 7403 H 698.554 -0.611092 0.441682 0
M  V30 7404 H 701.205 -0.976201 1.55379 0
M  V30 7405 H 699.587 -3.6014 1.64666 0
M  V30 7406 H 700.761 -2.11949 4.09163 0
M  V30 7407 H 699.076 -2.05435 3.62195 0
M  V30 7408 H 701.673 -4.65386 2.63288 0
M  V30 7409 H 702.016 -4.03167 1.03739 0
M  V30 7410 H 702.549 -3.11842 2.46981 0
M  V30 7411 H 699.288 -3.70095 5.41027 0
M  V30 7412 H 698.808 -4.54142 3.9181 0
M  V30 7413 H 700.487 -4.64557 4.50329 0
M  V30 7414 O 700.658 -1.25359 -1.0182 0
M  V30 7415 H 701.349 -1.03652 -1.63634 0
M  V30 END ATOM
M  V30 BEGIN BOND
M  V30 END BOND
M  V30 END CTAB
M  END
$$$$
