drugbank_target|P48065 Sodium- and chloride-dependent betaine transporter (DB08848)
 OpenBabel12092120583D

  0  0  0     0  0            999 V3000
M  V30 BEGIN CTAB
M  V30 COUNTS 9770 9924 0 0 0
M  V30 BEGIN ATOM
M  V30 1 H -0.908 1.98254 -0.117106 0
M  V30 2 N 0 1.576 0 0
M  V30 3 C 0.933 2.03868 1.02534 0
M  V30 4 C 1.911 0.928543 1.3348 0
M  V30 5 O 3.095 1.19667 1.45644 0
M  V30 6 C 0.222 2.43627 2.35294 0
M  V30 7 C -0.732 3.65373 2.2001 0
M  V30 8 S 0.101 5.13292 1.52614 0
M  V30 9 C 1.257 5.56322 2.86805 0
M  V30 10 H 1.49 2.90518 0.631377 0
M  V30 11 H -0.977 1.52953 0.210867 0
M  V30 12 H 0.981 2.67203 3.11629 0
M  V30 13 H -0.358 1.57376 2.7183 0
M  V30 14 H -1.165 3.90944 3.18086 0
M  V30 15 H -1.563 3.418 1.51819 0
M  V30 16 H 0.729 5.58782 3.83104 0
M  V30 17 H 1.672 6.56266 2.65933 0
M  V30 18 H 2.08 4.83886 2.90714 0
M  V30 19 N 1.4781 -0.272755 1.55222 0
M  V30 20 C 2.7551 -1.02562 1.66555 0
M  V30 21 C 3.1351 -2.04282 0.532189 0
M  V30 22 O 2.4831 -2.23662 -0.467717 0
M  V30 23 C 2.6931 -1.6822 3.05782 0
M  V30 24 C 4.0411 -2.19373 3.63539 0
M  V30 25 O 5.0651 -1.78206 3.08417 0
M  V30 26 O 3.9241 -2.94883 4.60115 0
M  V30 27 H 1.0181 -0.475755 0.676451 0
M  V30 28 H 3.5641 -0.268593 1.67561 0
M  V30 29 H 2.3361 -0.945112 3.79715 0
M  V30 30 H 1.9591 -2.50609 3.08676 0
M  V30 31 N 2.9562 -1.48159 -0.537278 0
M  V30 32 C 4.2042 -1.55497 -1.29094 0
M  V30 33 C 4.5252 -0.227454 -1.93669 0
M  V30 34 O 3.7952 0.750386 -1.80959 0
M  V30 35 H 2.3752 -0.572832 -0.47945 0
M  V30 36 H 5.0372 -1.84579 -0.625818 0
M  V30 37 H 4.1332 -2.33216 -2.07405 0
M  V30 38 N 4.4343 0.785586 -1.36625 0
M  V30 39 C 5.3813 1.89838 -1.31264 0
M  V30 40 C 6.3513 1.65115 -0.180633 0
M  V30 41 O 7.5363 1.87222 -0.36777 0
M  V30 42 C 4.6763 3.26706 -1.11163 0
M  V30 43 C 3.7893 3.63476 -2.33472 0
M  V30 44 C 2.9243 4.89481 -2.06353 0
M  V30 45 C 1.9633 5.18941 -3.24602 0
M  V30 46 N 1.1003 6.36131 -2.97123 0
M  V30 47 H 5.9403 1.93756 -2.26413 0
M  V30 48 H 3.4773 0.947454 -1.12524 0
M  V30 49 H 5.4353 4.05639 -0.975337 0
M  V30 50 H 4.0653 3.222 -0.196674 0
M  V30 51 H 3.1173 2.79636 -2.57891 0
M  V30 52 H 4.4293 3.81193 -3.21704 0
M  V30 53 H 3.5833 5.76288 -1.89675 0
M  V30 54 H 2.3223 4.73841 -1.15437 0
M  V30 55 H 1.3273 4.30615 -3.41834 0
M  V30 56 H 2.5523 5.36498 -4.16349 0
M  V30 57 H 0.4983 6.21875 -2.08823 0
M  V30 58 H 0.4153 6.54198 -3.78894 0
M  V30 59 H 1.6833 7.2591 -2.84033 0
M  V30 60 N 5.9124 1.20967 1.01018 0
M  V30 61 C 7.1584 1.02526 1.74975 0
M  V30 62 C 7.4914 -0.4408 1.89131 0
M  V30 63 O 6.7664 -1.32718 1.42184 0
M  V30 64 C 7.0494 1.71699 3.1653 0
M  V30 65 C 6.9024 3.25791 3.10129 0
M  V30 66 C 8.2214 1.45531 4.15342 0
M  V30 67 H 5.3404 0.373863 0.635134 0
M  V30 68 H 7.9824 1.49071 1.17805 0
M  V30 69 H 6.1324 1.32128 3.65341 0
M  V30 70 H 7.8044 3.74697 2.69072 0
M  V30 71 H 6.0474 3.56363 2.47362 0
M  V30 72 H 6.7184 3.69353 4.10222 0
M  V30 73 H 9.1944 1.79872 3.75213 0
M  V30 74 H 8.0704 1.96453 5.1254 0
M  V30 75 H 8.3314 0.384237 4.40427 0
M  V30 76 N 7.3905 -1.2043 1.01659 0
M  V30 77 C 8.3535 -2.21433 0.591616 0
M  V30 78 C 9.3535 -1.57203 -0.338226 0
M  V30 79 O 10.5435 -1.73737 -0.126918 0
M  V30 80 C 7.6755 -3.40628 -0.136058 0
M  V30 81 H 8.8685 -2.60545 1.48514 0
M  V30 82 H 6.4215 -1.33893 0.806379 0
M  V30 83 H 7.1565 -3.07019 -1.04449 0
M  V30 84 H 6.9415 -3.88475 0.531917 0
M  V30 85 H 8.4315 -4.15475 -0.420735 0
M  V30 86 N 8.8686 -0.792821 -1.36206 0
M  V30 87 C 10.1146 -0.36733 -1.99446 0
M  V30 88 C 10.4476 1.05917 -1.62774 0
M  V30 89 O 9.7226 1.7324 -0.88421 0
M  V30 90 C 10.0056 -0.535044 -3.56103 0
M  V30 91 C 9.8586 -2.00548 -4.02617 0
M  V30 92 C 11.1776 0.0478191 -4.40074 0
M  V30 93 H 8.2966 -0.134941 -0.724541 0
M  V30 94 H 10.9386 -0.999794 -1.61568 0
M  V30 95 H 9.0886 0.00336329 -3.885 0
M  V30 96 H 10.7606 -2.60521 -3.80692 0
M  V30 97 H 9.0036 -2.50686 -3.54032 0
M  V30 98 H 9.6746 -2.07377 -5.11565 0
M  V30 99 H 12.1506 -0.411822 -4.14057 0
M  V30 100 H 11.0266 -0.0995336 -5.4881 0
M  V30 101 H 11.2876 1.14025 -4.27142 0
M  V30 102 N 10.3467 1.47872 -0.545128 0
M  V30 103 C 11.2787 2.27869 0.246621 0
M  V30 104 C 12.2917 1.36282 0.890561 0
M  V30 105 O 13.4807 1.61207 0.766449 0
M  V30 106 C 10.5807 3.10159 1.36582 0
M  V30 107 C 9.7537 4.29627 0.820954 0
M  V30 108 C 8.8127 4.93607 1.82314 0
M  V30 109 O 7.8387 5.52366 1.37406 0
M  V30 110 N 9.0407 4.87211 3.15603 0
M  V30 111 H 11.8057 2.96459 -0.439539 0
M  V30 112 H 9.3667 1.57367 -0.380421 0
M  V30 113 H 11.3587 3.49829 2.03474 0
M  V30 114 H 9.9287 2.43891 1.9554 0
M  V30 115 H 9.1487 3.94192 -0.0244032 0
M  V30 116 H 10.4367 5.06928 0.436063 0
M  V30 117 H 9.8347 4.40651 3.54744 0
M  V30 118 H 8.3917 5.30937 3.78087 0
M  V30 119 N 11.8248 0.280983 1.55075 0
M  V30 120 C 12.7348 -0.61388 2.26426 0
M  V30 121 C 13.7508 -1.16521 1.29224 0
M  V30 122 O 14.9268 -1.19426 1.62171 0
M  V30 123 C 11.9918 -1.7788 2.9759 0
M  V30 124 C 11.0528 -1.26355 4.10284 0
M  V30 125 C 10.2858 -2.37295 4.78045 0
M  V30 126 O 10.5088 -3.56777 4.45047 0
M  V30 127 O 9.4428 -2.05119 5.65871 0
M  V30 128 H 13.2688 -0.0356932 3.03679 0
M  V30 129 H 10.8538 0.0481686 1.49322 0
M  V30 130 H 12.7358 -2.45791 3.42293 0
M  V30 131 H 11.4108 -2.34397 2.23249 0
M  V30 132 H 10.3178 -0.550735 3.70024 0
M  V30 133 H 11.6508 -0.744065 4.86543 0
M  V30 134 N 13.3029 -1.57598 0.00835791 0
M  V30 135 C 14.5429 -1.92788 -0.679136 0
M  V30 136 C 14.9069 -0.883378 -1.70471 0
M  V30 137 O 16.1079 -1.12079 -2.44319 0
M  V30 138 C 14.3789 -3.32994 -1.29807 0
M  V30 139 S 15.9379 -3.90082 -2.00952 0
M  V30 140 H 12.7559 -0.67475 -0.224127 0
M  V30 141 H 15.3579 -1.95385 0.0670497 0
M  V30 142 H 14.0619 -4.06846 -0.538922 0
M  V30 143 H 13.5929 -3.33791 -2.082 0
M  V30 144 H 15.6079 -3.71834 -3.28563 0
M  V30 145 N 14.781 0.264519 -1.55364 0
M  V30 146 C 16.029 0.993021 -1.76021 0
M  V30 147 C 16.35 1.86511 -0.569099 0
M  V30 148 O 15.62 1.91438 0.415735 0
M  V30 149 H 14.2 0.369639 -0.649135 0
M  V30 150 H 16.862 0.286707 -1.9278 0
M  V30 151 H 15.958 1.62502 -2.66457 0
M  V30 152 N 16.2591 1.48442 0.529413 0
M  V30 153 C 17.6701 1.5002 1.11134 0
M  V30 154 C 18.0211 0.27031 1.94329 0
M  V30 155 O 17.1461 -0.622507 2.07253 0
M  V30 156 C 17.7411 2.71834 2.02217 0
M  V30 157 C 16.3001 2.76283 2.55627 0
M  V30 158 C 15.4471 2.43542 1.326 0
M  V30 159 H 18.3981 1.5555 0.314641 0
M  V30 160 H 18.4191 2.50384 2.8651 0
M  V30 161 H 17.9311 3.61331 1.41639 0
M  V30 162 H 16.0321 1.90995 3.19924 0
M  V30 163 H 16.1451 3.77725 2.94721 0
M  V30 164 H 14.5091 1.94709 1.64196 0
M  V30 165 H 15.2921 3.3528 0.737734 0
M  V30 166 N 17.7372 -0.778329 1.37039 0
M  V30 167 C 19.1482 -1.35421 1.28523 0
M  V30 168 C 19.4992 -1.96075 -0.0700901 0
M  V30 169 O 18.6242 -1.93352 -0.971801 0
M  V30 170 C 19.2192 -2.46211 2.32735 0
M  V30 171 C 17.7782 -2.99585 2.27873 0
M  V30 172 C 16.9252 -1.72748 2.16918 0
M  V30 173 H 19.8762 -0.5791 1.47757 0
M  V30 174 H 19.8972 -3.2552 1.9702 0
M  V30 175 H 19.4092 -2.02036 3.31365 0
M  V30 176 H 17.5102 -3.48152 1.32745 0
M  V30 177 H 17.6232 -3.55646 3.21018 0
M  V30 178 H 15.9872 -1.95416 1.63354 0
M  V30 179 H 16.7702 -1.30686 3.17452 0
M  V30 180 N 19.2153 -1.21501 -1.00376 0
M  V30 181 C 20.1783 -0.976927 -2.07337 0
M  V30 182 C 21.1783 0.0525322 -1.60714 0
M  V30 183 O 22.3683 -0.184869 -1.73216 0
M  V30 184 C 19.5003 -0.473423 -3.37597 0
M  V30 185 H 20.6933 -1.92587 -2.29892 0
M  V30 186 H 18.2463 -1.03217 -1.17371 0
M  V30 187 H 18.9813 0.480379 -3.20722 0
M  V30 188 H 18.7663 -1.216 -3.72768 0
M  V30 189 H 20.2563 -0.32675 -4.1632 0
M  V30 190 N 20.6934 1.19889 -1.02296 0
M  V30 191 C 21.9394 1.89701 -0.717033 0
M  V30 192 C 22.2724 1.7905 0.751989 0
M  V30 193 O 21.5474 1.17891 1.547 0
M  V30 194 C 21.8304 3.40858 -1.16136 0
M  V30 195 C 21.6834 3.60411 -2.69117 0
M  V30 196 C 23.0024 4.33876 -0.737549 0
M  V30 197 H 20.1214 0.688874 -0.261957 0
M  V30 198 H 22.7634 1.41154 -1.27183 0
M  V30 199 H 20.9134 3.82335 -0.689342 0
M  V30 200 H 22.5854 3.28145 -3.2422 0
M  V30 201 H 20.8284 3.03665 -3.0979 0
M  V30 202 H 21.4994 4.66396 -2.95261 0
M  V30 203 H 23.9754 4.00081 -1.14344 0
M  V30 204 H 22.8514 5.38242 -1.0764 0
M  V30 205 H 23.1124 4.40628 0.360436 0
M  V30 206 N 22.1715 0.800033 1.35784 0
M  V30 207 C 23.3965 0.388511 2.03729 0
M  V30 208 C 23.8215 -0.990481 1.5991 0
M  V30 209 O 23.1795 -1.64013 0.772612 0
M  V30 210 C 23.2275 0.4726 3.5749 0
M  V30 211 O 22.3315 -0.51646 4.09153 0
M  V30 212 H 21.6725 0.163271 0.643614 0
M  V30 213 H 24.2025 1.0841 1.73518 0
M  V30 214 H 24.2125 0.34003 4.06581 0
M  V30 215 H 22.8875 1.47848 3.88734 0
M  V30 216 H 21.4645 -0.344673 3.71304 0
M  V30 217 N 23.6496 -1.47581 0.552962 0
M  V30 218 C 24.8956 -2.03369 0.0355807 0
M  V30 219 C 25.2506 -1.42016 -1.29805 0
M  V30 220 O 24.5436 -0.564917 -1.83083 0
M  V30 221 C 24.7376 -3.57199 -0.119728 0
M  V30 222 C 24.5666 -4.33468 1.1973 0
M  V30 223 C 23.3366 -4.7353 1.76345 0
M  V30 224 C 25.5346 -4.68866 2.11351 0
M  V30 225 N 23.5166 -5.34426 3.02097 0
M  V30 226 C 24.8876 -5.3002 3.21681 0
M  V30 227 C 26.9426 -4.50795 2.11397 0
M  V30 228 C 25.6456 -5.75011 4.32151 0
M  V30 229 C 27.6716 -4.96782 3.20876 0
M  V30 230 C 27.0336 -5.57981 4.29926 0
M  V30 231 H 23.1326 -0.780058 0.0550806 0
M  V30 232 H 25.7166 -1.80117 0.739315 0
M  V30 233 H 23.8876 -3.80227 -0.792579 0
M  V30 234 H 25.6196 -3.99627 -0.638792 0
M  V30 235 H 22.3746 -4.55352 1.30196 0
M  V30 236 H 22.7986 -5.69421 3.66182 0
M  V30 237 H 27.4406 -4.0284 1.28372 0
M  V30 238 H 25.1586 -6.21959 5.15938 0
M  V30 239 H 28.7446 -4.84573 3.21994 0
M  V30 240 H 27.6246 -5.92918 5.13243 0
M  V30 241 N 25.1277 -0.289203 -1.54924 0
M  V30 242 C 26.3737 0.323998 -2.00195 0
M  V30 243 C 26.7067 1.54441 -1.17735 0
M  V30 244 O 25.9817 1.92875 -0.250878 0
M  V30 245 C 26.2647 0.692276 -3.53383 0
M  V30 246 C 26.1177 -0.536457 -4.46589 0
M  V30 247 C 27.4367 1.52335 -4.12895 0
M  V30 248 H 24.5557 0.116289 -0.727768 0
M  V30 249 H 27.1977 -0.398954 -1.85764 0
M  V30 250 H 25.3477 1.30822 -3.65811 0
M  V30 251 H 27.0197 -1.17499 -4.46085 0
M  V30 252 H 25.2627 -1.17192 -4.1767 0
M  V30 253 H 25.9337 -0.234806 -5.515 0
M  V30 254 H 28.4097 1.00302 -4.0383 0
M  V30 255 H 27.2857 1.74982 -5.20262 0
M  V30 256 H 27.5467 2.50886 -3.64018 0
M  V30 257 N 26.6058 1.57591 -0.0167156 0
M  V30 258 C 28.0168 1.79201 0.523834 0
M  V30 259 C 28.3678 0.925796 1.72984 0
M  V30 260 O 27.4928 0.132792 2.15992 0
M  V30 261 C 28.0878 3.25 0.957091 0
M  V30 262 C 26.6468 3.47648 1.44283 0
M  V30 263 C 25.7938 2.74374 0.401757 0
M  V30 264 H 28.7448 1.56831 -0.242816 0
M  V30 265 H 28.7658 3.34031 1.82219 0
M  V30 266 H 28.2778 3.88019 0.0791415 0
M  V30 267 H 26.3788 2.89866 2.34113 0
M  V30 268 H 26.4918 4.56352 1.45877 0
M  V30 269 H 24.8558 2.39485 0.867121 0
M  V30 270 H 25.6388 3.40102 -0.467513 0
M  V30 271 N 28.0839 -0.256276 1.55502 0
M  V30 272 C 28.9939 -1.33882 1.92647 0
M  V30 273 C 30.0099 -1.53159 0.825727 0
M  V30 274 O 31.1859 -1.66963 1.12629 0
M  V30 275 C 28.2509 -2.6751 2.20543 0
M  V30 276 C 27.3119 -2.56836 3.43997 0
M  V30 277 C 26.5449 -3.84092 3.70553 0
M  V30 278 O 26.7679 -4.85545 2.99336 0
M  V30 279 O 25.7019 -3.83288 4.64084 0
M  V30 280 H 29.5279 -1.05374 2.84833 0
M  V30 281 H 27.1129 -0.456237 1.42263 0
M  V30 282 H 28.9949 -3.46492 2.39835 0
M  V30 283 H 27.6699 -2.9577 1.31536 0
M  V30 284 H 26.5769 -1.76172 3.30021 0
M  V30 285 H 27.9099 -2.33523 4.33275 0
M  V30 286 N 29.562 -1.4872 -0.521534 0
M  V30 287 C 30.472 -1.66569 -1.65203 0
M  V30 288 C 31.488 -0.548197 -1.65139 0
M  V30 289 O 32.664 -0.820339 -1.83936 0
M  V30 290 C 29.729 -1.70917 -3.01642 0
M  V30 291 C 28.79 -2.94356 -3.12495 0
M  V30 292 C 28.023 -2.98487 -4.42426 0
M  V30 293 O 28.246 -2.10786 -5.30024 0
M  V30 294 O 27.18 -3.90746 -4.57822 0
M  V30 295 H 31.006 -2.62298 -1.5308 0
M  V30 296 H 28.591 -1.3222 -0.695565 0
M  V30 297 H 30.473 -1.7625 -3.82771 0
M  V30 298 H 29.148 -0.783633 -3.14071 0
M  V30 299 H 28.055 -2.94552 -2.3063 0
M  V30 300 H 29.388 -3.86322 -3.04986 0
M  V30 301 N 31.0401 0.771051 -1.3745 0
M  V30 302 C 32.2881 1.52661 -1.32435 0
M  V30 303 C 32.6091 1.9479 0.0905024 0
M  V30 304 O 31.8791 1.66348 1.03466 0
M  V30 305 H 30.4591 0.566218 -0.487244 0
M  V30 306 H 33.1211 0.917636 -1.71946 0
M  V30 307 H 32.2171 2.42568 -1.96385 0
M  V30 308 N 32.5182 1.22032 0.997298 0
M  V30 309 C 33.4282 1.00271 2.12092 0
M  V30 310 C 34.4442 -0.047621 1.73935 0
M  V30 311 O 35.6202 0.144136 2.00884 0
M  V30 312 C 32.6852 0.578449 3.4184 0
M  V30 313 C 31.7462 1.70189 3.94125 0
M  V30 314 C 30.9792 1.29778 5.17681 0
M  V30 315 O 31.2022 0.174676 5.70132 0
M  V30 316 O 30.1362 2.11261 5.63607 0
M  V30 317 H 33.9622 1.94398 2.3333 0
M  V30 318 H 31.5472 1.00587 1.10465 0
M  V30 319 H 33.4292 0.351998 4.19927 0
M  V30 320 H 32.1042 -0.334019 3.21972 0
M  V30 321 H 31.0112 1.98282 3.1723 0
M  V30 322 H 32.3442 2.59206 4.18417 0
M  V30 323 N 33.9963 -1.19345 1.0293 0
M  V30 324 C 34.9433 -2.2258 0.610464 0
M  V30 325 C 35.9133 -1.6179 -0.375946 0
M  V30 326 O 37.0983 -1.88844 -0.272511 0
M  V30 327 C 34.2383 -3.45085 -0.0321473 0
M  V30 328 C 33.3513 -4.20258 1.00035 0
M  V30 329 C 32.4863 -5.3019 0.32746 0
M  V30 330 C 31.5253 -5.97121 1.34584 0
M  V30 331 N 30.6623 -6.98615 0.698726 0
M  V30 332 H 35.5023 -2.57764 1.49538 0
M  V30 333 H 33.0393 -1.26644 0.748311 0
M  V30 334 H 34.9973 -4.15061 -0.421966 0
M  V30 335 H 33.6273 -3.10555 -0.88064 0
M  V30 336 H 32.6793 -3.49223 1.50823 0
M  V30 337 H 33.9913 -4.66175 1.77433 0
M  V30 338 H 33.1453 -6.06587 -0.11718 0
M  V30 339 H 31.8843 -4.85345 -0.478713 0
M  V30 340 H 30.8893 -5.19474 1.80074 0
M  V30 341 H 32.1143 -6.4405 2.15352 0
M  V30 342 H 30.0603 -6.55942 -0.0873471 0
M  V30 343 H 29.9773 -7.42724 1.41058 0
M  V30 344 H 31.2453 -7.79004 0.278102 0
M  V30 345 N 35.4744 -0.807222 -1.35358 0
M  V30 346 C 36.4044 -0.232509 -2.3234 0
M  V30 347 C 37.3854 0.642386 -1.57504 0
M  V30 348 O 38.5704 0.572526 -1.85569 0
M  V30 349 C 35.7004 0.619238 -3.41735 0
M  V30 350 C 34.6544 -0.157215 -4.27711 0
M  V30 351 C 33.9804 0.816273 -5.28433 0
M  V30 352 C 35.2804 -1.35656 -5.04376 0
M  V30 353 H 36.9744 -1.04276 -2.80654 0
M  V30 354 H 34.5204 -0.50288 -1.34934 0
M  V30 355 H 36.4734 1.03137 -4.08584 0
M  V30 356 H 35.1974 1.46239 -2.92031 0
M  V30 357 H 33.8564 -0.550525 -3.62443 0
M  V30 358 H 33.5044 1.65494 -4.74996 0
M  V30 359 H 33.2044 0.301067 -5.86828 0
M  V30 360 H 34.7284 1.22659 -5.98153 0
M  V30 361 H 36.1424 -1.01927 -5.64166 0
M  V30 362 H 34.5394 -1.8063 -5.7227 0
M  V30 363 H 35.6094 -2.14288 -4.34981 0
M  V30 364 N 36.9525 1.47285 -0.560781 0
M  V30 365 C 38.2295 1.9558 0.0277798 0
M  V30 366 C 38.6095 1.5034 1.48192 0
M  V30 367 O 37.9575 0.743882 2.16052 0
M  V30 368 C 38.1675 3.48789 -0.121418 0
M  V30 369 C 39.5155 4.24594 0.0220912 0
M  V30 370 O 40.5395 3.56166 -0.0491439 0
M  V30 371 O 39.3985 5.46217 0.175958 0
M  V30 372 H 36.4925 0.824663 0.0621342 0
M  V30 373 H 39.0385 1.5767 -0.627556 0
M  V30 374 H 37.8105 3.74533 -1.13316 0
M  V30 375 H 37.4335 3.93473 0.571366 0
M  V30 376 N 38.4306 0.297415 1.54768 0
M  V30 377 C 39.3626 -0.613881 2.20826 0
M  V30 378 C 40.3756 -1.10032 1.19987 0
M  V30 379 O 41.5646 -1.01839 1.46598 0
M  V30 380 C 38.6646 -1.852 2.83821 0
M  V30 381 C 37.8376 -1.50865 4.10559 0
M  V30 382 C 36.8966 -2.60154 4.57391 0
M  V30 383 O 35.9226 -2.25398 5.2267 0
M  V30 384 N 37.1246 -3.90629 4.29406 0
M  V30 385 H 39.8896 -0.048389 2.99661 0
M  V30 386 H 37.4506 0.11946 1.61459 0
M  V30 387 H 39.4426 -2.57652 3.12086 0
M  V30 388 H 38.0126 -2.32597 2.08847 0
M  V30 389 H 37.2326 -0.616925 3.89343 0
M  V30 390 H 38.5206 -1.25458 4.9309 0
M  V30 391 H 37.9186 -4.21677 3.77101 0
M  V30 392 H 36.4756 -4.59391 4.62388 0
M  V30 393 N 39.9087 -1.5758 0.0250728 0
M  V30 394 C 40.8187 -2.1343 -0.973905 0
M  V30 395 C 41.8347 -1.08556 -1.35984 0
M  V30 396 O 43.0107 -1.40592 -1.44207 0
M  V30 397 C 40.0757 -2.64703 -2.23904 0
M  V30 398 C 39.1367 -3.84276 -1.91391 0
M  V30 399 C 38.3697 -4.33095 -3.11873 0
M  V30 400 O 38.5927 -3.81107 -4.24398 0
M  V30 401 O 37.5267 -5.24984 -2.94406 0
M  V30 402 H 41.3527 -2.99057 -0.529036 0
M  V30 403 H 38.9377 -1.48118 -0.195288 0
M  V30 404 H 40.8197 -2.97769 -2.98181 0
M  V30 405 H 39.4947 -1.82161 -2.6758 0
M  V30 406 H 38.4017 -3.56143 -1.14511 0
M  V30 407 H 39.7347 -4.67968 -1.52534 0
M  V30 408 N 41.3868 0.248026 -1.55636 0
M  V30 409 C 42.6638 0.998988 -1.68165 0
M  V30 410 C 43.0438 2.03409 -0.564621 0
M  V30 411 O 42.3918 2.24378 0.432076 0
M  V30 412 C 42.6018 1.63334 -3.0842 0
M  V30 413 C 43.9498 2.13562 -3.66983 0
M  V30 414 O 44.9738 1.73277 -3.11213 0
M  V30 415 O 43.8328 2.87526 -4.64749 0
M  V30 416 H 40.9268 0.464933 -0.683935 0
M  V30 417 H 43.4728 0.241902 -1.67967 0
M  V30 418 H 42.2448 0.884583 -3.8117 0
M  V30 419 H 41.8678 2.45666 -3.12624 0
M  V30 420 N 42.8649 1.48995 0.513639 0
M  V30 421 C 43.7749 1.67443 1.64317 0
M  V30 422 C 44.7909 0.556947 1.64846 0
M  V30 423 O 45.9669 0.830082 1.83498 0
M  V30 424 C 43.0319 1.72515 3.00732 0
M  V30 425 C 42.0929 2.96009 3.1093 0
M  V30 426 C 41.3259 3.00829 4.40837 0
M  V30 427 O 41.5489 2.13594 5.28898 0
M  V30 428 O 40.4829 3.93168 4.55744 0
M  V30 429 H 44.3089 2.63106 1.51687 0
M  V30 430 H 41.8939 1.32588 0.688543 0
M  V30 431 H 43.7759 1.78277 3.81831 0
M  V30 432 H 42.4509 0.800278 3.13651 0
M  V30 433 H 41.3579 2.9577 2.29065 0
M  V30 434 H 42.6909 3.87934 3.02933 0
M  V30 435 N 44.343 -0.763751 1.37857 0
M  V30 436 C 45.62 -1.51244 1.24035 0
M  V30 437 C 46 -2.10472 -0.162649 0
M  V30 438 O 45.348 -1.96206 -1.17112 0
M  V30 439 C 45.558 -2.58694 2.34261 0
M  V30 440 C 46.906 -3.25878 2.72193 0
M  V30 441 O 47.93 -2.68993 2.33497 0
M  V30 442 O 46.789 -4.2874 3.38887 0
M  V30 443 H 43.883 -0.670243 0.484462 0
M  V30 444 H 46.429 -0.800031 1.49658 0
M  V30 445 H 45.201 -2.13105 3.2818 0
M  V30 446 H 44.824 -3.37527 2.10146 0
M  V30 447 N 45.8211 -1.22559 -0.990812 0
M  V30 448 C 46.7531 -0.955325 -2.08342 0
M  V30 449 C 47.7661 0.0668408 -1.62663 0
M  V30 450 O 48.9551 -0.167421 -1.77713 0
M  V30 451 C 46.0551 -0.415566 -3.36342 0
M  V30 452 C 45.2281 -1.49544 -4.11042 0
M  V30 453 C 44.2871 -0.962399 -5.17324 0
M  V30 454 O 43.3131 -1.64907 -5.44788 0
M  V30 455 N 44.5151 0.215134 -5.80101 0
M  V30 456 H 47.2801 -1.89596 -2.32106 0
M  V30 457 H 44.8411 -1.13276 -1.15673 0
M  V30 458 H 46.8331 -0.0442386 -4.04676 0
M  V30 459 H 45.4031 0.430232 -3.09625 0
M  V30 460 H 44.6231 -2.04 -3.37309 0
M  V30 461 H 45.9111 -2.22195 -4.57719 0
M  V30 462 H 45.3091 0.789779 -5.6016 0
M  V30 463 H 43.8661 0.527826 -6.49659 0
M  V30 464 N 47.2992 1.18797 -1.03562 0
M  V30 465 C 48.5452 1.8893 -0.737113 0
M  V30 466 C 48.8782 1.79837 0.732956 0
M  V30 467 O 48.1532 1.19525 1.5344 0
M  V30 468 C 48.4362 3.39607 -1.19745 0
M  V30 469 C 48.2892 3.57537 -2.72924 0
M  V30 470 C 49.6082 4.33069 -0.783526 0
M  V30 471 H 46.7272 0.686057 -0.269249 0
M  V30 472 H 49.3692 1.39797 -1.28673 0
M  V30 473 H 47.5192 3.81583 -0.729855 0
M  V30 474 H 49.1912 3.24688 -3.27682 0
M  V30 475 H 47.4342 3.00363 -3.12993 0
M  V30 476 H 48.1052 4.63238 -3.00191 0
M  V30 477 H 50.5812 3.98846 -1.18581 0
M  V30 478 H 49.4572 5.3707 -1.13343 0
M  V30 479 H 49.7182 4.40986 0.313681 0
M  V30 480 N 48.7773 0.814389 1.34928 0
M  V30 481 C 49.7243 0.22822 2.29669 0
M  V30 482 C 50.6943 -0.642164 1.53184 0
M  V30 483 O 51.8793 -0.585605 1.81591 0
M  V30 484 C 49.0193 -0.61089 3.3965 0
M  V30 485 C 48.1323 0.280792 4.31086 0
M  V30 486 C 47.2673 -0.567067 5.28165 0
M  V30 487 C 46.3063 0.324531 6.11239 0
M  V30 488 N 45.4433 -0.483756 7.00431 0
M  V30 489 H 50.2833 1.04153 2.79206 0
M  V30 490 H 47.8203 0.525133 1.37407 0
M  V30 491 H 49.7783 -1.11263 4.0209 0
M  V30 492 H 48.4083 -1.38939 2.91369 0
M  V30 493 H 47.4603 0.900688 3.69583 0
M  V30 494 H 48.7723 0.966723 4.89342 0
M  V30 495 H 47.9263 -1.13363 5.96015 0
M  V30 496 H 46.6653 -1.28654 4.70425 0
M  V30 497 H 45.6703 0.903298 5.42329 0
M  V30 498 H 46.8953 1.04198 6.71059 0
M  V30 499 H 44.8413 -1.18706 6.45171 0
M  V30 500 H 44.7583 0.143965 7.55863 0
M  V30 501 H 46.0263 -1.03334 7.7262 0
M  V30 502 N 50.2554 -1.46986 0.568584 0
M  V30 503 C 51.5324 -1.95592 -0.0174074 0
M  V30 504 C 51.9124 -1.51124 -1.47393 0
M  V30 505 O 51.2604 -0.755329 -2.15655 0
M  V30 506 C 51.4704 -3.48719 0.139913 0
M  V30 507 C 52.8184 -4.246 0.000426376 0
M  V30 508 O 53.8424 -3.56135 0.0680316 0
M  V30 509 O 52.7014 -5.46302 -0.146988 0
M  V30 510 H 49.7954 -0.82498 -0.0577599 0
M  V30 511 H 52.3414 -1.57335 0.635909 0
M  V30 512 H 51.1134 -3.73927 1.15301 0
M  V30 513 H 50.7364 -3.93771 -0.550491 0
M  V30 514 N 51.7335 -0.305618 -1.54608 0
M  V30 515 C 53.1495 0.0476228 -1.59529 0
M  V30 516 C 53.3495 1.52025 -1.32252 0
M  V30 517 O 52.4055 2.27368 -1.09818 0
M  V30 518 C 53.7185 -0.354471 -2.98603 0
M  V30 519 C 55.2665 -0.303622 -3.11524 0
M  V30 520 C 55.7415 -0.680608 -4.52915 0
M  V30 521 N 57.2325 -0.63332 -4.5885 0
M  V30 522 C 57.9675 -0.897432 -5.66334 0
M  V30 523 N 57.4635 -1.22775 -6.81834 0
M  V30 524 N 59.2565 -0.824186 -5.56025 0
M  V30 525 H 51.4075 -1.2653 -1.70599 0
M  V30 526 H 53.6705 -0.513291 -0.797017 0
M  V30 527 H 53.3765 -1.3798 -3.23503 0
M  V30 528 H 53.2505 0.289568 -3.76087 0
M  V30 529 H 55.6375 0.712472 -2.8637 0
M  V30 530 H 55.7185 -0.982348 -2.36185 0
M  V30 531 H 55.3625 -1.69453 -4.78799 0
M  V30 532 H 55.2925 0.0202385 -5.26596 0
M  V30 533 H 57.7835 -0.389138 -3.75891 0
M  V30 534 H 58.0965 -1.41513 -7.59733 0
M  V30 535 H 56.4415 -1.26583 -6.83375 0
M  V30 536 H 59.6325 -0.565748 -4.64669 0
M  V30 537 H 59.8055 -1.03338 -6.39707 0
M  V30 538 N 53.2116 1.57565 -0.0334293 0
M  V30 539 C 54.4596 1.91598 0.642999 0
M  V30 540 C 54.7806 0.910847 1.7242 0
M  V30 541 O 54.0506 -0.0469931 1.95844 0
M  V30 542 H 52.6306 0.707228 0.240496 0
M  V30 543 H 55.2926 1.94726 -0.0822488 0
M  V30 544 H 54.3886 2.92336 1.09298 0
M  V30 545 N 54.6897 -0.239769 1.55765 0
M  V30 546 C 55.6217 -1.32001 1.87372 0
M  V30 547 C 56.6347 -1.43944 0.760522 0
M  V30 548 O 57.8237 -1.45167 1.0387 0
M  V30 549 C 54.9237 -2.69779 2.05115 0
M  V30 550 C 54.0967 -2.80014 3.36022 0
M  V30 551 C 53.1557 -3.98684 3.4342 0
M  V30 552 O 52.1817 -3.87877 4.16582 0
M  V30 553 N 53.3837 -5.12176 2.73232 0
M  V30 554 H 56.1487 -1.0522 2.80622 0
M  V30 555 H 53.7097 -0.429857 1.56089 0
M  V30 556 H 55.7017 -3.47517 2.07399 0
M  V30 557 H 54.2717 -2.89237 1.18577 0
M  V30 558 H 53.4917 -1.88896 3.45994 0
M  V30 559 H 54.7797 -2.83808 4.22292 0
M  V30 560 H 54.1777 -5.2385 2.13536 0
M  V30 561 H 52.7347 -5.88022 2.81199 0
M  V30 562 N 56.1678 -1.49265 -0.50573 0
M  V30 563 C 57.4138 -1.59723 -1.25937 0
M  V30 564 C 57.7688 -0.278236 -1.90378 0
M  V30 565 O 57.0618 0.72113 -1.77511 0
M  V30 566 C 57.2558 -2.69008 -2.35308 0
M  V30 567 C 57.0848 -4.11405 -1.81592 0
M  V30 568 C 55.8548 -4.78252 -1.63105 0
M  V30 569 C 58.0528 -4.96792 -1.33048 0
M  V30 570 N 56.0348 -6.0498 -1.04269 0
M  V30 571 C 57.4058 -6.13962 -0.863168 0
M  V30 572 C 59.4608 -4.82828 -1.21577 0
M  V30 573 C 58.1638 -7.18705 -0.292489 0
M  V30 574 C 60.1898 -5.87716 -0.65907 0
M  V30 575 C 59.5518 -7.0411 -0.201954 0
M  V30 576 H 55.6508 -0.638864 -0.450973 0
M  V30 577 H 58.2348 -1.86251 -0.567326 0
M  V30 578 H 56.4058 -2.4426 -3.01979 0
M  V30 579 H 58.1378 -2.69013 -3.02348 0
M  V30 580 H 54.8928 -4.34974 -1.87336 0
M  V30 581 H 55.3168 -6.72631 -0.767919 0
M  V30 582 H 59.9588 -3.93159 -1.55518 0
M  V30 583 H 57.6768 -8.08078 0.0591987 0
M  V30 584 H 61.2628 -5.7897 -0.573156 0
M  V30 585 H 60.1428 -7.83885 0.222101 0
M  V30 586 N 57.6459 0.756429 -1.3826 0
M  V30 587 C 58.8739 1.54565 -1.3754 0
M  V30 588 C 59.2889 1.88767 0.0355331 0
M  V30 589 O 58.6459 1.52572 1.0014 0
M  V30 590 C 58.6969 2.84654 -2.22833 0
M  V30 591 O 58.4179 2.51912 -3.5843 0
M  V30 592 C 59.9189 3.78807 -2.30261 0
M  V30 593 H 57.1389 0.478353 -0.470553 0
M  V30 594 H 59.6829 0.936381 -1.81803 0
M  V30 595 H 57.8379 3.41965 -1.8204 0
M  V30 596 H 58.2519 3.35325 -4.03308 0
M  V30 597 H 59.7259 4.67045 -2.94233 0
M  V30 598 H 60.2029 4.19038 -1.31545 0
M  V30 599 H 60.8089 3.2742 -2.71433 0
M  V30 600 N 59.124 1.23083 0.984299 0
M  V30 601 C 60.072 1.00593 2.09723 0
M  V30 602 C 61.066 -0.0538014 1.69315 0
M  V30 603 O 62.272 0.0993719 1.79725 0
M  V30 604 H 58.647 0.30817 0.685956 0
M  V30 605 H 60.618 1.95012 2.2586 0
M  V30 606 C 59.367 0.609601 3.42314 0
M  V30 607 H 58.69 1.41675 3.73856 0
M  V30 608 H 60.13 0.491726 4.21139 0
M  V30 609 C 58.589 -0.681745 3.2993 0
M  V30 610 O 59.119 -1.73192 3.62446 0
M  V30 611 N 57.325 -0.656178 2.83095 0
M  V30 612 H 56.872 0.198759 2.56832 0
M  V30 613 H 56.83 -1.52044 2.75191 0
M  V30 614 N 60.6021 -1.18246 1.0419 0
M  V30 615 C 61.5491 -2.2192 0.634037 0
M  V30 616 C 62.5191 -1.62179 -0.358765 0
M  V30 617 O 63.7041 -1.89122 -0.252466 0
M  V30 618 C 60.8441 -3.451 0.00445535 0
M  V30 619 C 59.9571 -4.19174 1.04487 0
M  V30 620 C 59.0921 -5.29813 0.383676 0
M  V30 621 C 58.1311 -5.9566 1.4091 0
M  V30 622 N 57.2681 -6.97834 0.772784 0
M  V30 623 H 62.1081 -2.56164 1.52263 0
M  V30 624 H 59.6451 -1.25843 0.761701 0
M  V30 625 H 61.6031 -4.15485 -0.377919 0
M  V30 626 H 60.2331 -3.11472 -0.847652 0
M  V30 627 H 59.2851 -3.47604 1.54518 0
M  V30 628 H 60.5971 -4.64267 1.82368 0
M  V30 629 H 59.7511 -6.06677 -0.0528366 0
M  V30 630 H 58.4901 -4.85825 -0.427208 0
M  V30 631 H 57.4951 -5.17535 1.85574 0
M  V30 632 H 58.7201 -6.4173 2.22171 0
M  V30 633 H 56.6661 -6.55998 -0.0177708 0
M  V30 634 H 56.5831 -7.41186 1.48928 0
M  V30 635 H 57.8511 -7.78665 0.36071 0
M  V30 636 N 62.0802 -0.821533 -1.34494 0
M  V30 637 C 63.0132 -0.187704 -2.27427 0
M  V30 638 C 63.9912 0.65507 -1.48821 0
M  V30 639 O 65.1752 0.619111 -1.78043 0
M  V30 640 C 62.3022 0.737996 -3.30562 0
M  V30 641 C 61.3482 -0.0270713 -4.26491 0
M  V30 642 S 62.1812 -1.37329 -5.17592 0
M  V30 643 C 63.3372 -0.452427 -6.24263 0
M  V30 644 H 63.5702 -0.975598 -2.80837 0
M  V30 645 H 61.1032 -0.61736 -1.4152 0
M  V30 646 H 63.0612 1.26654 -3.90473 0
M  V30 647 H 61.7222 1.4994 -2.76001 0
M  V30 648 H 60.9152 0.6766 -4.99438 0
M  V30 649 H 60.5172 -0.48612 -3.70827 0
M  V30 650 H 62.8092 0.356557 -6.76561 0
M  V30 651 H 63.7522 -1.15153 -6.98674 0
M  V30 652 H 64.1602 -0.0414755 -5.64485 0
M  V30 653 N 63.5583 1.46682 -0.576371 0
M  V30 654 C 64.4683 2.34032 0.163141 0
M  V30 655 C 65.4843 1.49367 0.892501 0
M  V30 656 O 66.6603 1.82252 0.857106 0
M  V30 657 C 63.7253 3.26435 1.16795 0
M  V30 658 C 62.7863 4.26998 0.443944 0
M  V30 659 C 62.0193 5.14986 1.40088 0
M  V30 660 O 62.2423 5.05785 2.637 0
M  V30 661 O 61.1763 5.94906 0.914917 0
M  V30 662 H 65.0023 2.98607 -0.55388 0
M  V30 663 H 62.5873 1.45554 -0.336821 0
M  V30 664 H 64.4693 3.83459 1.74748 0
M  V30 665 H 63.1443 2.64465 1.86655 0
M  V30 666 H 62.0513 3.7368 -0.177271 0
M  V30 667 H 63.3843 4.91736 -0.213566 0
M  V30 668 N 65.0364 0.313813 1.54444 0
M  V30 669 C 66.2834 -0.291675 2.00388 0
M  V30 670 C 66.6114 -1.52904 1.2021 0
M  V30 671 O 65.8664 -1.93833 0.269707 0
M  V30 672 C 66.1654 -0.680386 3.50864 0
M  V30 673 C 65.8314 0.456699 4.48581 0
M  V30 674 C 64.4934 0.768824 4.75018 0
M  V30 675 C 66.8454 1.22098 5.06697 0
M  V30 676 C 64.1734 1.84812 5.56831 0
M  V30 677 C 66.5254 2.29029 5.89685 0
M  V30 678 C 65.1894 2.60834 6.14428 0
M  V30 679 H 64.4594 -0.106732 0.733273 0
M  V30 680 H 67.1064 0.43557 1.86481 0
M  V30 681 H 65.4114 -1.48791 3.62448 0
M  V30 682 H 67.1084 -1.16026 3.83847 0
M  V30 683 H 63.6984 0.203337 4.28117 0
M  V30 684 H 67.8824 0.993096 4.86263 0
M  V30 685 H 63.1384 2.09912 5.74236 0
M  V30 686 H 67.3124 2.887 6.33739 0
M  V30 687 H 64.9394 3.44596 6.77612 0
M  V30 688 N 66.5145 -1.57545 0.0417849 0
M  V30 689 C 67.7605 -1.92601 -0.635021 0
M  V30 690 C 68.0935 -0.919627 -1.71045 0
M  V30 691 O 67.3685 0.0557892 -1.9442 0
M  V30 692 C 67.6515 -3.38085 -1.23979 0
M  V30 693 C 67.5045 -4.49467 -0.173057 0
M  V30 694 C 68.8235 -3.83776 -2.15416 0
M  V30 695 H 65.9425 -0.700397 -0.229374 0
M  V30 696 H 68.5845 -1.89728 0.101633 0
M  V30 697 H 66.7345 -3.40664 -1.86762 0
M  V30 698 H 68.4065 -4.59018 0.458312 0
M  V30 699 H 66.6495 -4.30909 0.499996 0
M  V30 700 H 67.3205 -5.48323 -0.636054 0
M  V30 701 H 69.7965 -3.83013 -1.62605 0
M  V30 702 H 68.6725 -4.8624 -2.54679 0
M  V30 703 H 68.9335 -3.19998 -3.05047 0
M  V30 704 N 67.9926 0.231505 -1.5589 0
M  V30 705 C 68.9226 1.29022 -1.94617 0
M  V30 706 C 69.9036 1.4941 -0.813067 0
M  V30 707 O 71.0886 1.6176 -1.07459 0
M  V30 708 C 68.2186 2.64199 -2.25424 0
M  V30 709 C 67.1726 2.58484 -3.41131 0
M  V30 710 C 66.4986 3.97599 -3.57518 0
M  V30 711 C 67.7986 2.1413 -4.76388 0
M  V30 712 H 69.4926 0.968563 -2.83301 0
M  V30 713 H 67.0386 0.464479 -1.36303 0
M  V30 714 H 68.9916 3.38413 -2.51107 0
M  V30 715 H 67.7156 2.98032 -1.33583 0
M  V30 716 H 66.3746 1.86727 -3.15481 0
M  V30 717 H 66.0226 4.28723 -2.6307 0
M  V30 718 H 65.7226 3.94659 -4.35337 0
M  V30 719 H 67.2466 4.7349 -3.85538 0
M  V30 720 H 68.6606 2.78083 -5.01341 0
M  V30 721 H 67.0576 2.2227 -5.57419 0
M  V30 722 H 68.1276 1.09331 -4.72414 0
M  V30 723 N 69.4707 1.49531 0.497807 0
M  V30 724 C 70.6957 1.63159 1.28039 0
M  V30 725 C 71.1207 0.30418 1.85624 0
M  V30 726 O 70.4787 -0.728618 1.66015 0
M  V30 727 C 70.5267 2.70537 2.38416 0
M  V30 728 O 69.6307 2.29931 3.42353 0
M  V30 729 H 68.9717 0.546001 0.377861 0
M  V30 730 H 71.5017 1.9574 0.59558 0
M  V30 731 H 71.5117 2.92802 2.84132 0
M  V30 732 H 70.1867 3.6689 1.95869 0
M  V30 733 H 68.7637 2.18009 3.02533 0
M  V30 734 N 70.9488 -0.749086 1.3866 0
M  V30 735 C 72.1948 -1.51056 1.35314 0
M  V30 736 C 72.5278 -1.94121 -0.0553751 0
M  V30 737 O 71.8028 -1.65763 -1.01749 0
M  V30 738 C 72.0858 -2.76003 2.31288 0
M  V30 739 C 71.9388 -2.39047 3.8102 0
M  V30 740 C 73.2578 -3.78046 2.2532 0
M  V30 741 H 70.3768 -0.547972 0.492844 0
M  V30 742 H 73.0188 -0.857628 1.69543 0
M  V30 743 H 71.1688 -3.31716 2.02229 0
M  V30 744 H 72.8408 -1.89074 4.20771 0
M  V30 745 H 71.0838 -1.71449 3.98482 0
M  V30 746 H 71.7548 -3.28462 4.4364 0
M  V30 747 H 74.2308 -3.31884 2.50983 0
M  V30 748 H 73.1068 -4.63159 2.94576 0
M  V30 749 H 73.3678 -4.23957 1.25352 0
M  V30 750 N 72.4269 -1.23603 -0.977757 0
M  V30 751 C 73.3899 -1.02069 -2.05218 0
M  V30 752 C 74.3899 0.0184305 -1.60789 0
M  V30 753 O 75.5799 -0.221569 -1.72785 0
M  V30 754 C 72.7119 -0.544926 -3.36517 0
M  V30 755 H 73.9049 -1.9742 -2.25755 0
M  V30 756 H 71.4579 -1.05684 -1.15155 0
M  V30 757 H 72.1929 0.412241 -3.21669 0
M  V30 758 H 71.9779 -1.2948 -3.70105 0
M  V30 759 H 73.4679 -0.414985 -4.15533 0
M  V30 760 N 73.905 1.17692 -1.04816 0
M  V30 761 C 75.153 1.87488 -0.754497 0
M  V30 762 C 75.474 1.81205 0.720407 0
M  V30 763 O 74.744 1.23544 1.52032 0
M  V30 764 H 73.324 0.694101 -0.276102 0
M  V30 765 H 75.986 1.42793 -1.32651 0
M  V30 766 H 75.082 2.93328 -1.06606 0
M  V30 767 N 75.3831 0.828654 1.34056 0
M  V30 768 C 76.2931 0.256725 2.33191 0
M  V30 769 C 77.3091 -0.611898 1.62886 0
M  V30 770 O 78.4851 -0.51844 1.94613 0
M  V30 771 C 75.5501 -0.567238 3.42028 0
M  V30 772 C 74.6111 0.324458 4.28072 0
M  V30 773 C 73.8441 -0.460274 5.31712 0
M  V30 774 O 74.0671 -1.693 5.44696 0
M  V30 775 O 73.0011 0.160391 6.01686 0
M  V30 776 H 76.8271 1.07739 2.83947 0
M  V30 777 H 74.4121 0.59093 1.37217 0
M  V30 778 H 76.2941 -1.03582 4.08471 0
M  V30 779 H 74.9691 -1.36513 2.93506 0
M  V30 780 H 73.8761 0.840659 3.64532 0
M  V30 781 H 75.2091 1.08685 4.8005 0
M  V30 782 N 76.8612 -1.46375 0.584142 0
M  V30 783 C 78.1102 -2.01585 0.0679741 0
M  V30 784 C 78.4232 -1.46109 -1.30045 0
M  V30 785 O 79.6292 -1.93148 -1.90804 0
M  V30 786 C 78.0852 -3.5983 0.0709207 0
M  V30 787 C 77.6932 -4.24303 1.43775 0
M  V30 788 C 79.4372 -4.22693 -0.391228 0
M  V30 789 C 77.3442 -5.74631 1.39834 0
M  V30 790 H 76.2742 -0.753689 0.0216421 0
M  V30 791 H 78.9252 -1.68093 0.736001 0
M  V30 792 H 77.3072 -3.90405 -0.663299 0
M  V30 793 H 78.4812 -4.05335 2.19181 0
M  V30 794 H 76.7962 -3.73539 1.84004 0
M  V30 795 H 79.3932 -5.3289 -0.439524 0
M  V30 796 H 79.7362 -3.91728 -1.40906 0
M  V30 797 H 80.2692 -3.96749 0.288974 0
M  V30 798 H 77.0082 -6.10258 2.39303 0
M  V30 799 H 76.5282 -5.95858 0.686505 0
M  V30 800 H 78.2072 -6.37375 1.11187 0
M  V30 801 N 78.3393 -0.321999 -1.54275 0
M  V30 802 C 79.5883 0.281931 -1.9972 0
M  V30 803 C 79.9013 1.53369 -1.21397 0
M  V30 804 O 81.1073 2.21352 -1.57211 0
M  V30 805 C 79.5633 0.5529 -3.55628 0
M  V30 806 C 79.1713 -0.681721 -4.42783 0
M  V30 807 C 80.9153 1.11687 -4.09544 0
M  V30 808 C 78.8223 -0.382742 -5.9016 0
M  V30 809 H 77.7523 0.109124 -0.746062 0
M  V30 810 H 80.4033 -0.43398 -1.78294 0
M  V30 811 H 78.7853 1.32896 -3.73035 0
M  V30 812 H 79.9593 -1.45723 -4.37151 0
M  V30 813 H 78.2743 -1.1658 -3.99748 0
M  V30 814 H 80.8713 1.35515 -5.17242 0
M  V30 815 H 81.2143 2.06575 -3.61431 0
M  V30 816 H 81.7473 0.402032 -3.95763 0
M  V30 817 H 78.4863 -1.30076 -6.42464 0
M  V30 818 H 78.0063 0.355094 -5.98748 0
M  V30 819 H 79.6853 0.00800157 -6.47 0
M  V30 820 N 79.8174 1.5752 -0.0501392 0
M  V30 821 C 81.0654 1.9227 0.622642 0
M  V30 822 C 81.3864 0.929083 1.71444 0
M  V30 823 O 80.6564 -0.0262186 1.95882 0
M  V30 824 H 79.2364 0.709739 0.232981 0
M  V30 825 H 81.8984 1.94628 -0.102898 0
M  V30 826 H 80.9944 2.93479 1.06191 0
M  V30 827 N 81.2955 -0.223234 1.56011 0
M  V30 828 C 82.2255 -1.27988 1.95298 0
M  V30 829 C 83.2065 -1.48976 0.820979 0
M  V30 830 O 84.3915 -1.61188 1.08315 0
M  V30 831 C 81.5215 -2.63 2.26822 0
M  V30 832 C 80.4755 -2.56671 3.42497 0
M  V30 833 C 79.8015 -3.95697 3.59622 0
M  V30 834 C 81.1015 -2.11601 4.77517 0
M  V30 835 H 82.7955 -0.953525 2.8381 0
M  V30 836 H 80.3415 -0.457244 1.36548 0
M  V30 837 H 82.2945 -3.37077 2.52898 0
M  V30 838 H 81.0185 -2.9732 1.35161 0
M  V30 839 H 79.6775 -1.85051 3.16467 0
M  V30 840 H 79.3255 -4.27322 2.6534 0
M  V30 841 H 79.0255 -3.92345 4.37424 0
M  V30 842 H 80.5495 -4.71438 3.88044 0
M  V30 843 H 81.9635 -2.7542 5.02809 0
M  V30 844 H 80.3605 -2.19311 5.5859 0
M  V30 845 H 81.4305 -1.06824 4.72987 0
M  V30 846 N 82.7736 -1.49793 -0.48987 0
M  V30 847 C 84.0216 -1.59525 -1.24081 0
M  V30 848 C 84.3426 -0.288953 -1.92847 0
M  V30 849 O 83.6126 0.692436 -1.83254 0
M  V30 850 H 82.1926 -0.587796 -0.460983 0
M  V30 851 H 84.8546 -1.86477 -0.566778 0
M  V30 852 H 83.9506 -2.39696 -1.99881 0
M  V30 853 N 84.2517 0.741722 -1.39055 0
M  V30 854 C 85.1997 1.87702 -1.3737 0
M  V30 855 C 86.1937 1.67427 -0.257812 0
M  V30 856 O 87.3997 1.7485 -0.427489 0
M  V30 857 H 83.7747 0.617757 -0.428812 0
M  V30 858 H 85.7457 1.86239 -2.33147 0
M  V30 859 C 84.4947 3.25315 -1.22741 0
M  V30 860 H 83.8177 3.41509 -2.07873 0
M  V30 861 H 85.2577 4.04964 -1.25618 0
M  V30 862 C 83.7167 3.36838 0.0647316 0
M  V30 863 O 84.2467 3.88073 1.03741 0
M  V30 864 N 82.4527 2.90329 0.125544 0
M  V30 865 H 81.9997 2.48823 -0.666682 0
M  V30 866 H 81.9577 2.98418 0.989639 0
M  V30 867 N 85.7298 1.2412 0.971189 0
M  V30 868 C 86.9758 1.08041 1.71625 0
M  V30 869 C 87.3088 -0.380407 1.90438 0
M  V30 870 O 86.5838 -1.28127 1.46334 0
M  V30 871 C 86.8668 1.81682 3.10908 0
M  V30 872 C 86.7198 3.35493 2.99608 0
M  V30 873 C 88.0388 1.58671 4.10501 0
M  V30 874 H 85.1578 0.39388 0.622919 0
M  V30 875 H 87.7998 1.52743 1.13003 0
M  V30 876 H 85.9498 1.43684 3.60953 0
M  V30 877 H 87.6218 3.83068 2.57015 0
M  V30 878 H 85.8648 3.64052 2.35899 0
M  V30 879 H 86.5358 3.82217 3.98264 0
M  V30 880 H 89.0118 1.91719 3.69301 0
M  V30 881 H 87.8878 2.1266 5.06031 0
M  V30 882 H 88.1488 0.524161 4.38982 0
M  V30 883 N 87.2079 -1.17134 1.05439 0
M  V30 884 C 88.4539 -1.87979 0.776872 0
M  V30 885 C 88.8089 -1.7965 -0.688751 0
M  V30 886 O 88.1019 -1.19535 -1.4974 0
M  V30 887 C 88.2959 -3.36833 1.19491 0
M  V30 888 C 88.1249 -3.59653 2.69963 0
M  V30 889 C 86.8949 -3.76234 3.37307 0
M  V30 890 C 89.0929 -3.59091 3.68182 0
M  V30 891 N 87.0749 -3.86922 4.76618 0
M  V30 892 C 88.4459 -3.75659 4.93235 0
M  V30 893 C 90.5009 -3.42255 3.61616 0
M  V30 894 C 89.2039 -3.77133 6.12506 0
M  V30 895 C 91.2299 -3.45018 4.8033 0
M  V30 896 C 90.5919 -3.62096 6.04207 0
M  V30 897 H 86.6909 -0.705876 0.336546 0
M  V30 898 H 89.2749 -1.40602 1.34682 0
M  V30 899 H 87.4459 -3.82873 0.652884 0
M  V30 900 H 89.1779 -3.95305 0.866966 0
M  V30 901 H 85.9329 -3.76193 2.87708 0
M  V30 902 H 86.3569 -3.96055 5.49062 0
M  V30 903 H 90.9989 -3.27986 2.66805 0
M  V30 904 H 88.7169 -3.90186 7.07659 0
M  V30 905 H 92.3029 -3.33246 4.76905 0
M  V30 906 H 91.1829 -3.64142 6.94529 0
M  V30 907 N 88.686 -0.835752 -1.33615 0
M  V30 908 C 90.102 -0.523139 -1.50783 0
M  V30 909 C 90.302 0.950171 -1.77691 0
M  V30 910 O 89.358 1.73411 -1.83534 0
M  V30 911 C 90.671 -1.39378 -2.66448 0
M  V30 912 C 92.219 -1.39223 -2.80332 0
M  V30 913 C 92.694 -2.24765 -3.99055 0
M  V30 914 N 94.185 -2.22458 -4.06284 0
M  V30 915 C 94.92 -2.85386 -4.97336 0
M  V30 916 N 94.416 -3.57354 -5.93523 0
M  V30 917 N 96.209 -2.74872 -4.90308 0
M  V30 918 H 88.36 -1.78952 -1.14411 0
M  V30 919 H 90.623 -0.763297 -0.562212 0
M  V30 920 H 90.329 -2.44061 -2.53234 0
M  V30 921 H 90.203 -1.0676 -3.61776 0
M  V30 922 H 92.59 -0.353136 -2.92979 0
M  V30 923 H 92.671 -1.75846 -1.85773 0
M  V30 924 H 92.315 -3.28732 -3.87167 0
M  V30 925 H 92.245 -1.85485 -4.92852 0
M  V30 926 H 94.736 -1.70119 -3.37443 0
M  V30 927 H 95.049 -4.02584 -6.59656 0
M  V30 928 H 93.394 -3.61461 -5.93608 0
M  V30 929 H 96.585 -2.18213 -4.14126 0
M  V30 930 H 96.758 -3.24199 -5.61069 0
M  V30 931 N 90.1641 1.46063 -0.591896 0
M  V30 932 C 91.4111 2.02338 -0.0809991 0
M  V30 933 C 91.7391 1.46228 1.28249 0
M  V30 934 O 90.9941 0.620818 1.85592 0
M  V30 935 C 91.2931 3.57391 0.0249813 0
M  V30 936 C 90.9591 4.32583 -1.27211 0
M  V30 937 C 89.6211 4.52844 -1.62745 0
M  V30 938 C 91.9731 4.75687 -2.13005 0
M  V30 939 C 89.3011 5.13462 -2.83855 0
M  V30 940 C 91.6531 5.37644 -3.3335 0
M  V30 941 C 90.3171 5.5613 -3.69155 0
M  V30 942 H 89.5871 0.740407 -0.0296397 0
M  V30 943 H 92.2341 1.75321 -0.770374 0
M  V30 944 H 90.5391 3.83597 0.797537 0
M  V30 945 H 92.2361 3.98621 0.436184 0
M  V30 946 H 88.8261 4.17116 -0.985499 0
M  V30 947 H 93.0101 4.59782 -1.86855 0
M  V30 948 H 88.2661 5.25965 -3.11722 0
M  V30 949 H 92.4401 5.7 -4.00092 0
M  V30 950 H 90.0671 6.0287 -4.63089 0
M  V30 951 N 91.6422 0.330177 1.54103 0
M  V30 952 C 93.0532 -0.15652 1.86043 0
M  V30 953 C 93.4042 -1.51086 1.2517 0
M  V30 954 O 92.5292 -2.09023 0.560217 0
M  V30 955 C 93.1242 -0.290784 3.3755 0
M  V30 956 C 91.6832 -0.721705 3.69416 0
M  V30 957 C 90.8302 0.152622 2.7688 0
M  V30 958 H 93.7812 0.550237 1.48856 0
M  V30 959 H 93.8022 -1.12058 3.63625 0
M  V30 960 H 93.3142 0.695068 3.81825 0
M  V30 961 H 91.4152 -1.71706 3.30678 0
M  V30 962 H 91.5282 -0.520869 4.7626 0
M  V30 963 H 89.8922 -0.372894 2.51956 0
M  V30 964 H 90.6752 1.13536 3.23982 0
M  V30 965 N 93.1203 -1.57491 0.0584922 0
M  V30 966 C 94.3503 -1.9701 -0.622134 0
M  V30 967 C 94.7583 -0.935034 -1.6448 0
M  V30 968 O 94.1013 0.0882904 -1.83488 0
M  V30 969 C 94.1633 -3.32794 -1.35972 0
M  V30 970 C 93.8273 -4.54343 -0.492043 0
M  V30 971 C 94.8243 -5.19323 0.244901 0
M  V30 972 C 92.5093 -5.00534 -0.420821 0
M  V30 973 C 94.5033 -6.28835 1.04143 0
M  V30 974 C 92.1903 -6.09921 0.379389 0
M  V30 975 C 93.1883 -6.73933 1.10919 0
M  V30 976 O 92.8763 -7.81216 1.89623 0
M  V30 977 H 92.6083 -0.653127 -0.174359 0
M  V30 978 H 95.1623 -2.05029 0.123418 0
M  V30 979 H 93.3923 -3.21351 -2.15105 0
M  V30 980 H 95.0813 -3.5701 -1.93129 0
M  V30 981 H 95.8473 -4.8459 0.19939 0
M  V30 982 H 91.7263 -4.50496 -0.978474 0
M  V30 983 H 95.2703 -6.7873 1.61157 0
M  V30 984 H 91.1673 -6.44089 0.426512 0
M  V30 985 H 91.9353 -7.98029 1.81913 0
M  V30 986 N 94.5984 0.214957 -1.56127 0
M  V30 987 C 95.5284 1.2695 -1.95974 0
M  V30 988 C 96.5094 1.48539 -0.828868 0
M  V30 989 O 97.6944 1.60611 -1.09168 0
M  V30 990 C 94.8244 2.61794 -2.28214 0
M  V30 991 C 93.7784 2.54851 -3.43853 0
M  V30 992 C 93.1044 3.93785 -3.61715 0
M  V30 993 C 94.4044 2.09065 -4.78632 0
M  V30 994 H 96.0984 0.93846 -2.84312 0
M  V30 995 H 93.6444 0.449996 -1.36788 0
M  V30 996 H 95.5974 3.35731 -2.54682 0
M  V30 997 H 94.3214 2.96599 -1.36736 0
M  V30 998 H 92.9804 1.8337 -3.17444 0
M  V30 999 H 92.6284 4.25908 -2.67602 0
M  V30 1000 H 92.3284 3.90019 -4.39498 0
M  V30 1001 H 93.8524 4.69374 -3.90539 0
M  V30 1002 H 95.2664 2.7275 -5.04262 0
M  V30 1003 H 93.6634 2.16346 -5.59745 0
M  V30 1004 H 94.7334 1.04315 -4.73547 0
M  V30 1005 N 96.0765 1.50051 0.48192 0
M  V30 1006 C 97.3165 1.62128 1.24474 0
M  V30 1007 C 97.6805 0.309742 1.89485 0
M  V30 1008 O 98.8815 0.305854 2.67054 0
M  V30 1009 C 97.1525 2.76151 2.26882 0
M  V30 1010 S 98.7115 3.08297 3.12247 0
M  V30 1011 H 95.5295 0.571661 0.422759 0
M  V30 1012 H 98.1315 1.87791 0.54359 0
M  V30 1013 H 96.8355 3.69942 1.77683 0
M  V30 1014 H 96.3665 2.52541 3.0164 0
M  V30 1015 H 98.3815 2.51287 4.27866 0
M  V30 1016 N 97.5546 -0.734337 1.39446 0
M  V30 1017 C 98.7846 -1.52137 1.39778 0
M  V30 1018 C 99.1926 -1.89198 -0.00929312 0
M  V30 1019 O 98.5356 -1.54666 -0.991168 0
M  V30 1020 C 98.5976 -2.83762 2.20724 0
M  V30 1021 C 98.2616 -2.69131 3.69347 0
M  V30 1022 C 99.2586 -2.37635 4.62413 0
M  V30 1023 C 96.9436 -2.85982 4.1294 0
M  V30 1024 C 98.9376 -2.23172 5.97054 0
M  V30 1025 C 96.6246 -2.71137 5.47657 0
M  V30 1026 C 97.6226 -2.39777 6.39528 0
M  V30 1027 O 97.3106 -2.25026 7.71763 0
M  V30 1028 H 97.0426 -0.476717 0.479288 0
M  V30 1029 H 99.5966 -0.915012 1.83893 0
M  V30 1030 H 97.8266 -3.4666 1.71359 0
M  V30 1031 H 99.5156 -3.45383 2.13226 0
M  V30 1032 H 100.282 -2.24267 4.30034 0
M  V30 1033 H 96.1606 -3.09383 3.41765 0
M  V30 1034 H 99.7046 -1.98617 6.68728 0
M  V30 1035 H 95.6016 -2.84083 5.79626 0
M  V30 1036 H 96.3696 -2.40091 7.82495 0
M  V30 1037 N 99.0327 -1.24633 -0.964593 0
M  V30 1038 C 99.9797 -1.04144 -2.05968 0
M  V30 1039 C 100.95 0.046262 -1.66036 0
M  V30 1040 O 102.135 -0.108972 -1.90489 0
M  V30 1041 C 99.2747 -0.65563 -3.38815 0
M  V30 1042 C 98.3877 -1.81714 -3.91923 0
M  V30 1043 C 97.5227 -1.37662 -5.13052 0
M  V30 1044 C 96.5617 -2.50788 -5.58365 0
M  V30 1045 N 95.6987 -2.07582 -6.70712 0
M  V30 1046 H 100.539 -1.9787 -2.22827 0
M  V30 1047 H 98.0757 -0.9855 -1.09208 0
M  V30 1048 H 100.034 -0.412954 -4.15151 0
M  V30 1049 H 98.6637 0.244627 -3.21872 0
M  V30 1050 H 97.7157 -2.1734 -3.12198 0
M  V30 1051 H 99.0277 -2.66705 -4.21509 0
M  V30 1052 H 98.1817 -1.093 -5.96773 0
M  V30 1053 H 96.9207 -0.497293 -4.85158 0
M  V30 1054 H 95.9257 -2.79906 -4.73215 0
M  V30 1055 H 97.1507 -3.39283 -5.88272 0
M  V30 1056 H 95.0967 -1.22051 -6.44546 0
M  V30 1057 H 95.0137 -2.86125 -6.99763 0
M  V30 1058 H 96.2817 -1.82369 -7.57867 0
M  V30 1059 N 100.511 1.16574 -1.06058 0
M  V30 1060 C 101.459 2.22941 -0.663343 0
M  V30 1061 C 102.453 1.66358 0.319593 0
M  V30 1062 O 103.659 1.7905 0.184713 0
M  V30 1063 H 100.034 0.725907 -0.196376 0
M  V30 1064 H 102.005 2.53736 -1.57037 0
M  V30 1065 C 100.754 3.47642 -0.0632808 0
M  V30 1066 H 100.077 3.91493 -0.810733 0
M  V30 1067 H 101.517 4.2363 0.177177 0
M  V30 1068 C 99.9758 3.1509 1.19248 0
M  V30 1069 O 100.506 3.30673 2.28075 0
M  V30 1070 N 98.7118 2.6924 1.09353 0
M  V30 1071 H 98.2588 2.5676 0.207912 0
M  V30 1072 H 98.2168 2.47833 1.93458 0
M  V30 1073 N 101.989 0.842826 1.3317 0
M  V30 1074 C 103.237 0.439577 1.97262 0
M  V30 1075 C 103.558 -1.00548 1.67078 0
M  V30 1076 O 102.828 -1.70098 0.971779 0
M  V30 1077 H 101.408 0.159558 0.72976 0
M  V30 1078 H 104.07 1.07665 1.62463 0
M  V30 1079 H 103.166 0.574886 3.0676 0
M  V30 1080 N 103.467 -1.45747 0.599634 0
M  V30 1081 C 104.715 -2.01893 0.0915472 0
M  V30 1082 C 105.036 -1.47155 -1.27946 0
M  V30 1083 O 104.306 -0.66273 -1.84349 0
M  V30 1084 H 102.886 -0.746363 0.0308524 0
M  V30 1085 H 105.548 -1.78645 0.779237 0
M  V30 1086 H 104.644 -3.1208 0.0353086 0
M  V30 1087 N 104.945 -0.338344 -1.53925 0
M  V30 1088 C 106.193 0.259245 -2.0043 0
M  V30 1089 C 106.514 1.51484 -1.22791 0
M  V30 1090 O 105.784 1.93037 -0.33368 0
M  V30 1091 H 104.364 0.0987845 -0.740439 0
M  V30 1092 H 107.026 -0.458302 -1.89435 0
M  V30 1093 H 106.122 0.505334 -3.07982 0
M  V30 1094 N 106.423 1.57458 -0.0668435 0
M  V30 1095 C 107.386 2.11323 0.887422 0
M  V30 1096 C 108.386 1.03618 1.22964 0
M  V30 1097 O 109.576 1.29626 1.16373 0
M  V30 1098 C 106.708 2.61048 2.19242 0
M  V30 1099 H 107.901 2.96942 0.420194 0
M  V30 1100 H 105.454 1.55239 0.181793 0
M  V30 1101 H 106.189 1.78868 2.70512 0
M  V30 1102 H 105.974 3.39769 1.95702 0
M  V30 1103 H 107.464 3.02814 2.87565 0
M  V30 1104 N 107.901 -0.206675 1.56239 0
M  V30 1105 C 109.148 -0.928842 1.79941 0
M  V30 1106 C 109.476 -1.83734 0.638131 0
M  V30 1107 O 108.731 -1.92039 -0.376746 0
M  V30 1108 C 109.03 -1.78675 3.09532 0
M  V30 1109 C 108.696 -1.03022 4.38973 0
M  V30 1110 C 107.358 -0.821302 4.74139 0
M  V30 1111 C 109.71 -0.497081 5.18824 0
M  V30 1112 C 107.038 -0.0675719 5.86661 0
M  V30 1113 C 109.39 0.24338 6.32132 0
M  V30 1114 C 108.054 0.463422 6.65889 0
M  V30 1115 H 107.324 -0.339887 0.658451 0
M  V30 1116 H 109.971 -0.195977 1.90495 0
M  V30 1117 H 108.276 -2.58794 2.94165 0
M  V30 1118 H 109.973 -2.34792 3.25075 0
M  V30 1119 H 106.563 -1.20306 4.11369 0
M  V30 1120 H 110.747 -0.645921 4.92079 0
M  V30 1121 H 106.003 0.112995 6.11296 0
M  V30 1122 H 110.177 0.66393 6.93228 0
M  V30 1123 H 107.804 1.04938 7.52922 0
M  V30 1124 N 109.379 -1.50304 -0.473955 0
M  V30 1125 C 110.626 -1.6115 -1.22625 0
M  V30 1126 C 110.954 -0.310517 -1.92005 0
M  V30 1127 O 110.209 0.703419 -1.82621 0
M  V30 1128 C 110.508 -2.73938 -2.29549 0
M  V30 1129 C 110.174 -4.14519 -1.7744 0
M  V30 1130 C 108.836 -4.5277 -1.62949 0
M  V30 1131 C 111.188 -5.02392 -1.3875 0
M  V30 1132 C 108.516 -5.76639 -1.08187 0
M  V30 1133 C 110.868 -6.26805 -0.854309 0
M  V30 1134 C 109.532 -6.63861 -0.696011 0
M  V30 1135 H 108.802 -0.589691 -0.448715 0
M  V30 1136 H 111.449 -1.84228 -0.522705 0
M  V30 1137 H 109.754 -2.44937 -3.05799 0
M  V30 1138 H 111.451 -2.79534 -2.87509 0
M  V30 1139 H 108.041 -3.8434 -1.89685 0
M  V30 1140 H 112.225 -4.73474 -1.4878 0
M  V30 1141 H 107.481 -6.04027 -0.946666 0
M  V30 1142 H 111.655 -6.94258 -0.545843 0
M  V30 1143 H 109.282 -7.59722 -0.26952 0
M  V30 1144 N 110.857 0.726932 -1.39834 0
M  V30 1145 C 112.106 1.48214 -1.36805 0
M  V30 1146 C 112.419 1.95576 0.0305291 0
M  V30 1147 O 113.625 2.7088 0.183417 0
M  V30 1148 C 112.081 2.67854 -2.40379 0
M  V30 1149 C 111.689 2.27408 -3.85992 0
M  V30 1150 C 113.433 3.45641 -2.46439 0
M  V30 1151 C 111.34 3.43819 -4.81189 0
M  V30 1152 H 110.27 0.556606 -0.508631 0
M  V30 1153 H 112.921 0.792216 -1.65518 0
M  V30 1154 H 111.303 3.3896 -2.04749 0
M  V30 1155 H 112.477 1.63795 -4.30706 0
M  V30 1156 H 110.792 1.62692 -3.83302 0
M  V30 1157 H 113.389 4.32244 -3.14753 0
M  V30 1158 H 113.732 3.88669 -1.49139 0
M  V30 1159 H 114.265 2.8157 -2.81004 0
M  V30 1160 H 111.004 3.05834 -5.79781 0
M  V30 1161 H 110.524 4.06385 -4.41148 0
M  V30 1162 H 112.203 4.10043 -5.00474 0
M  V30 1163 N 112.336 1.25143 0.95797 0
M  V30 1164 C 113.747 1.08851 1.51685 0
M  V30 1165 C 114.098 -0.33687 1.93286 0
M  V30 1166 O 113.223 -1.22644 1.7829 0
M  V30 1167 C 113.818 1.96978 2.75654 0
M  V30 1168 C 112.377 1.84881 3.27866 0
M  V30 1169 C 111.524 1.91329 2.0072 0
M  V30 1170 H 114.475 1.38478 0.77522 0
M  V30 1171 H 114.496 1.5078 3.4935 0
M  V30 1172 H 114.008 3.00712 2.45345 0
M  V30 1173 H 112.109 0.840182 3.63004 0
M  V30 1174 H 112.222 2.6951 3.96107 0
M  V30 1175 H 110.586 1.35174 2.15871 0
M  V30 1176 H 111.369 2.96661 1.72764 0
M  V30 1177 N 113.814 -1.1601 1.06675 0
M  V30 1178 C 115.044 -1.90251 0.805497 0
M  V30 1179 C 115.452 -1.77891 -0.64431 0
M  V30 1180 O 114.795 -1.12383 -1.45313 0
M  V30 1181 C 114.857 -3.41419 1.12576 0
M  V30 1182 C 114.521 -3.77564 2.57477 0
M  V30 1183 C 115.518 -3.79161 3.55715 0
M  V30 1184 C 113.203 -4.08079 2.92877 0
M  V30 1185 C 115.197 -4.10767 4.8739 0
M  V30 1186 C 112.884 -4.39351 4.24751 0
M  V30 1187 C 113.882 -4.40675 5.21818 0
M  V30 1188 O 113.57 -4.71202 6.51325 0
M  V30 1189 H 113.302 -0.610018 0.291297 0
M  V30 1190 H 115.856 -1.47958 1.4247 0
M  V30 1191 H 114.086 -3.84079 0.449503 0
M  V30 1192 H 115.775 -3.9694 0.84814 0
M  V30 1193 H 116.541 -3.55693 3.29708 0
M  V30 1194 H 112.42 -4.06211 2.17976 0
M  V30 1195 H 115.964 -4.11715 5.63148 0
M  V30 1196 H 111.861 -4.62285 4.50514 0
M  V30 1197 H 112.629 -4.88996 6.56373 0
M  V30 1198 N 115.292 -0.849877 -1.32721 0
M  V30 1199 C 116.539 -0.450923 -1.97416 0
M  V30 1200 C 116.867 0.992376 -1.67279 0
M  V30 1201 O 116.122 1.71048 -0.950845 0
M  V30 1202 C 116.421 -0.631272 -3.51781 0
M  V30 1203 C 116.087 -2.04432 -4.01894 0
M  V30 1204 C 114.749 -2.4308 -4.1529 0
M  V30 1205 C 117.101 -2.96679 -4.28522 0
M  V30 1206 C 114.429 -3.73257 -4.52654 0
M  V30 1207 C 116.781 -4.26349 -4.67343 0
M  V30 1208 C 115.445 -4.64939 -4.78945 0
M  V30 1209 H 114.715 -0.165004 -0.722395 0
M  V30 1210 H 117.362 -1.07901 -1.58207 0
M  V30 1211 H 115.667 0.0800767 -3.91718 0
M  V30 1212 H 117.364 -0.302709 -3.99856 0
M  V30 1213 H 113.954 -1.73419 -3.91949 0
M  V30 1214 H 118.138 -2.68054 -4.17685 0
M  V30 1215 H 113.394 -4.02946 -4.59831 0
M  V30 1216 H 117.568 -4.97895 -4.86902 0
M  V30 1217 H 115.195 -5.65855 -5.07654 0
M  V30 1218 N 116.77 1.45427 -0.607355 0
M  V30 1219 C 118.019 2.01452 -0.100036 0
M  V30 1220 C 118.332 1.48159 1.27704 0
M  V30 1221 O 119.538 1.96159 1.87707 0
M  V30 1222 C 117.994 3.59672 -0.128158 0
M  V30 1223 C 117.602 4.21962 -1.50507 0
M  V30 1224 C 119.346 4.23262 0.323932 0
M  V30 1225 C 117.253 5.72333 -1.48959 0
M  V30 1226 H 116.183 0.75325 -0.0336299 0
M  V30 1227 H 118.834 1.66901 -0.76265 0
M  V30 1228 H 117.216 3.91411 0.601105 0
M  V30 1229 H 118.39 4.01796 -2.25602 0
M  V30 1230 H 116.705 3.70565 -1.89923 0
M  V30 1231 H 119.302 5.33522 0.354691 0
M  V30 1232 H 119.645 3.93921 1.34656 0
M  V30 1233 H 120.178 3.96239 -0.352056 0
M  V30 1234 H 116.917 6.06373 -2.48981 0
M  V30 1235 H 116.437 5.94691 -0.781214 0
M  V30 1236 H 118.116 6.35525 -1.21313 0
M  V30 1237 N 118.248 0.346503 1.53744 0
M  V30 1238 C 119.495 -0.249104 2.00962 0
M  V30 1239 C 119.823 -1.5032 1.23426 0
M  V30 1240 O 119.078 -1.93217 0.310761 0
M  V30 1241 C 119.377 -0.605809 3.52228 0
M  V30 1242 C 119.043 0.551747 4.47512 0
M  V30 1243 C 117.705 0.86941 4.73281 0
M  V30 1244 C 120.057 1.32818 5.03993 0
M  V30 1245 C 117.385 1.96582 5.52786 0
M  V30 1246 C 119.737 2.41486 5.84694 0
M  V30 1247 C 118.401 2.73808 6.08757 0
M  V30 1248 H 117.671 -0.0911538 0.735372 0
M  V30 1249 H 120.318 0.475027 1.85515 0
M  V30 1250 H 118.623 -1.4107 3.65522 0
M  V30 1251 H 120.32 -1.07858 3.86222 0
M  V30 1252 H 116.91 0.294102 4.2759 0
M  V30 1253 H 121.094 1.09602 4.84047 0
M  V30 1254 H 116.35 2.22045 5.69654 0
M  V30 1255 H 120.524 3.02078 6.27473 0
M  V30 1256 H 118.151 3.58892 6.7015 0
M  V30 1257 N 119.726 -1.57421 0.075193 0
M  V30 1258 C 120.973 -1.93618 -0.593146 0
M  V30 1259 C 121.301 -0.955484 -1.69413 0
M  V30 1260 O 120.556 0.0283251 -1.9568 0
M  V30 1261 C 120.855 -3.36428 -1.20626 0
M  V30 1262 C 120.521 -4.50307 -0.231078 0
M  V30 1263 C 119.183 -4.81186 0.0371936 0
M  V30 1264 C 121.535 -5.19374 0.435888 0
M  V30 1265 C 118.863 -5.78466 0.979461 0
M  V30 1266 C 121.215 -6.17665 1.3665 0
M  V30 1267 C 119.879 -6.46958 1.6432 0
M  V30 1268 H 119.149 -0.708499 -0.217047 0
M  V30 1269 H 121.796 -1.90937 0.146793 0
M  V30 1270 H 120.101 -3.35592 -2.02201 0
M  V30 1271 H 121.798 -3.61727 -1.73073 0
M  V30 1272 H 118.388 -4.26227 -0.450357 0
M  V30 1273 H 122.572 -4.95711 0.241748 0
M  V30 1274 H 117.828 -5.99487 1.20106 0
M  V30 1275 H 122.002 -6.70284 1.88924 0
M  V30 1276 H 119.629 -7.2215 2.37494 0
M  V30 1277 N 121.204 0.198386 -1.56346 0
M  V30 1278 C 122.451 0.919286 -1.80431 0
M  V30 1279 C 122.779 1.83393 -0.647866 0
M  V30 1280 O 122.034 1.92236 0.366556 0
M  V30 1281 C 122.333 1.77031 -3.10475 0
M  V30 1282 C 121.999 1.00693 -4.39513 0
M  V30 1283 C 120.661 0.796145 -4.74568 0
M  V30 1284 C 123.013 0.469559 -5.19081 0
M  V30 1285 C 120.341 0.0364588 -5.86689 0
M  V30 1286 C 122.693 -0.2769 -6.31994 0
M  V30 1287 C 121.357 -0.49873 -6.65634 0
M  V30 1288 H 120.627 0.336391 -0.660244 0
M  V30 1289 H 123.274 0.185872 -1.90596 0
M  V30 1290 H 121.579 2.5723 -2.95533 0
M  V30 1291 H 123.276 2.33065 -3.26315 0
M  V30 1292 H 119.866 1.18122 -4.12001 0
M  V30 1293 H 124.05 0.619816 -4.92414 0
M  V30 1294 H 119.306 -0.145412 -6.11227 0
M  V30 1295 H 123.48 -0.700684 -6.92866 0
M  V30 1296 H 121.107 -1.0893 -7.52355 0
M  V30 1297 N 122.682 1.50554 0.465978 0
M  V30 1298 C 123.928 1.62038 1.21949 0
M  V30 1299 C 124.261 0.322116 1.9151 0
M  V30 1300 O 123.536 -0.676723 1.82348 0
M  V30 1301 C 123.819 2.80421 2.25912 0
M  V30 1302 C 123.672 4.20144 1.60622 0
M  V30 1303 C 124.991 2.94354 3.27176 0
M  V30 1304 H 122.11 0.589752 0.441998 0
M  V30 1305 H 124.752 1.82956 0.51257 0
M  V30 1306 H 122.902 2.62717 2.86203 0
M  V30 1307 H 124.574 4.49449 1.03889 0
M  V30 1308 H 122.817 4.24165 0.909211 0
M  V30 1309 H 123.488 4.98914 2.36196 0
M  V30 1310 H 125.964 3.10578 2.76913 0
M  V30 1311 H 124.84 3.788 3.97242 0
M  V30 1312 H 125.101 2.05186 3.916 0
M  V30 1313 N 124.16 -0.719506 1.40217 0
M  V30 1314 C 125.4 -1.49181 1.39729 0
M  V30 1315 C 125.764 -1.92 -0.00250614 0
M  V30 1316 O 126.965 -2.68473 -0.132479 0
M  V30 1317 C 125.236 -2.68767 2.35582 0
M  V30 1318 S 126.795 -3.58224 2.53418 0
M  V30 1319 H 123.613 -0.510091 0.495307 0
M  V30 1320 H 126.215 -0.841724 1.76452 0
M  V30 1321 H 124.919 -2.35475 3.36124 0
M  V30 1322 H 124.45 -3.38691 2.0013 0
M  V30 1323 H 126.465 -4.63033 1.78367 0
M  V30 1324 N 125.638 -1.25649 -0.95132 0
M  V30 1325 C 126.886 -1.10375 -1.69298 0
M  V30 1326 C 127.207 0.355339 -1.91735 0
M  V30 1327 O 126.477 1.25188 -1.50681 0
M  V30 1328 H 125.057 -0.405461 -0.627384 0
M  V30 1329 H 127.719 -1.57823 -1.14358 0
M  V30 1330 H 126.815 -1.61465 -2.67087 0
M  V30 1331 N 127.117 1.15442 -1.07289 0
M  V30 1332 C 128.366 1.85557 -0.790669 0
M  V30 1333 C 128.679 1.83186 0.685739 0
M  V30 1334 O 129.885 2.48977 1.0827 0
M  V30 1335 C 128.341 3.33038 -1.36433 0
M  V30 1336 C 127.949 3.43856 -2.8717 0
M  V30 1337 C 129.693 4.0834 -1.1601 0
M  V30 1338 C 127.6 4.85482 -3.3773 0
M  V30 1339 H 126.53 0.695122 -0.292098 0
M  V30 1340 H 129.181 1.30219 -1.29287 0
M  V30 1341 H 127.563 3.88043 -0.789864 0
M  V30 1342 H 128.737 2.98961 -3.50655 0
M  V30 1343 H 127.052 2.81998 -3.06376 0
M  V30 1344 H 129.649 5.12859 -1.51262 0
M  V30 1345 H 129.992 4.16182 -0.0991007 0
M  V30 1346 H 130.525 3.59603 -1.70089 0
M  V30 1347 H 127.264 4.82823 -4.43353 0
M  V30 1348 H 126.784 5.30961 -2.78999 0
M  V30 1349 H 128.463 5.54335 -3.33648 0
M  V30 1350 N 128.595 0.856903 1.32268 0
M  V30 1351 C 130.006 0.515711 1.79436 0
M  V30 1352 C 130.357 -0.966586 1.70738 0
M  V30 1353 O 129.482 -1.75409 1.26731 0
M  V30 1354 C 130.077 0.929335 3.25805 0
M  V30 1355 C 128.636 0.640006 3.70919 0
M  V30 1356 C 127.783 1.12784 2.53328 0
M  V30 1357 H 130.734 1.04389 1.19535 0
M  V30 1358 H 130.755 0.246633 3.797 0
M  V30 1359 H 130.267 2.00821 3.32103 0
M  V30 1360 H 128.368 -0.428051 3.70133 0
M  V30 1361 H 128.481 1.20788 4.63624 0
M  V30 1362 H 126.845 0.548033 2.48734 0
M  V30 1363 H 127.628 2.21387 2.62379 0
M  V30 1364 N 130.073 -1.45103 0.615059 0
M  V30 1365 C 131.319 -2.02483 0.113347 0
M  V30 1366 C 131.652 -1.48146 -1.25564 0
M  V30 1367 O 130.927 -0.659104 -1.82992 0
M  V30 1368 C 131.21 -3.60005 0.0825278 0
M  V30 1369 C 131.063 -4.2466 1.48271 0
M  V30 1370 C 132.382 -4.35972 -0.601401 0
M  V30 1371 H 129.501 -0.735764 0.0426632 0
M  V30 1372 H 132.143 -1.72868 0.788461 0
M  V30 1373 H 130.293 -3.85367 -0.492378 0
M  V30 1374 H 131.965 -4.10458 2.10527 0
M  V30 1375 H 130.208 -3.82772 2.04127 0
M  V30 1376 H 130.879 -5.336 1.41332 0
M  V30 1377 H 133.355 -4.15947 -0.112666 0
M  V30 1378 H 132.231 -5.45697 -0.592097 0
M  V30 1379 H 132.492 -4.09391 -1.66887 0
M  V30 1380 N 131.551 -0.354651 -1.53558 0
M  V30 1381 C 132.798 0.238443 -2.01091 0
M  V30 1382 C 133.126 1.49663 -1.24222 0
M  V30 1383 O 132.381 1.93049 -0.321003 0
M  V30 1384 C 132.68 0.587121 -3.52545 0
M  V30 1385 C 132.346 -0.575472 -4.47213 0
M  V30 1386 C 131.008 -0.894497 -4.72813 0
M  V30 1387 C 133.36 -1.35489 -5.03281 0
M  V30 1388 C 130.688 -1.99511 -5.51736 0
M  V30 1389 C 133.04 -2.44583 -5.83405 0
M  V30 1390 C 131.704 -2.77033 -6.07296 0
M  V30 1391 H 130.974 0.0872526 -0.735845 0
M  V30 1392 H 133.621 -0.484859 -1.8526 0
M  V30 1393 H 131.926 1.39129 -3.66265 0
M  V30 1394 H 133.623 1.05809 -3.86789 0
M  V30 1395 H 130.213 -0.316774 -4.27428 0
M  V30 1396 H 134.397 -1.12167 -4.83459 0
M  V30 1397 H 129.653 -2.25063 -5.68469 0
M  V30 1398 H 133.827 -3.05401 -6.25862 0
M  V30 1399 H 131.454 -3.6244 -6.68237 0
M  V30 1400 N 133.029 1.57378 -0.0835403 0
M  V30 1401 C 134.276 1.9393 0.58287 0
M  V30 1402 C 134.604 0.964455 1.68904 0
M  V30 1403 O 133.859 -0.0179474 1.95692 0
M  V30 1404 C 134.158 3.37063 1.1884 0
M  V30 1405 C 133.824 4.50424 0.207194 0
M  V30 1406 C 132.486 4.81159 -0.0627115 0
M  V30 1407 C 134.838 5.19136 -0.463426 0
M  V30 1408 C 132.166 5.77939 -1.01012 0
M  V30 1409 C 134.518 6.16931 -1.39924 0
M  V30 1410 C 133.182 6.46078 -1.67749 0
M  V30 1411 H 132.452 0.70964 0.213287 0
M  V30 1412 H 135.099 1.90856 -0.156916 0
M  V30 1413 H 133.404 3.3666 2.00418 0
M  V30 1414 H 135.101 3.6264 1.71153 0
M  V30 1415 H 131.691 4.2646 0.427747 0
M  V30 1416 H 135.875 4.95576 -0.268034 0
M  V30 1417 H 131.131 5.98842 -1.23283 0
M  V30 1418 H 135.305 6.69273 -1.92476 0
M  V30 1419 H 132.932 7.2088 -2.41321 0
M  V30 1420 N 134.507 -0.190092 1.56449 0
M  V30 1421 C 135.437 -1.23816 1.97969 0
M  V30 1422 C 136.418 -1.47201 0.852395 0
M  V30 1423 O 137.603 -1.58854 1.1171 0
M  V30 1424 C 134.733 -2.5813 2.3235 0
M  V30 1425 C 133.687 -2.49348 3.47864 0
M  V30 1426 C 133.013 -3.8798 3.67934 0
M  V30 1427 C 134.313 -2.01424 4.81898 0
M  V30 1428 H 136.007 -0.89311 2.85769 0
M  V30 1429 H 133.553 -0.428177 1.37487 0
M  V30 1430 H 135.506 -3.31637 2.59991 0
M  V30 1431 H 134.23 -2.94386 1.41438 0
M  V30 1432 H 132.889 -1.78297 3.20321 0
M  V30 1433 H 132.537 -4.21597 2.74344 0
M  V30 1434 H 132.237 -3.82978 4.45648 0
M  V30 1435 H 133.761 -4.63101 3.97957 0
M  V30 1436 H 135.175 -2.64693 5.08538 0
M  V30 1437 H 133.572 -2.07413 5.63116 0
M  V30 1438 H 134.642 -0.967677 4.75146 0
M  V30 1439 N 135.985 -1.50799 -0.457987 0
M  V30 1440 C 136.895 -1.73426 -1.57989 0
M  V30 1441 C 137.911 -0.617745 -1.62665 0
M  V30 1442 O 139.087 -0.897614 -1.80291 0
M  V30 1443 C 136.152 -1.83557 -2.94122 0
M  V30 1444 C 135.213 -3.07345 -2.99729 0
M  V30 1445 C 134.446 -3.16983 -4.29368 0
M  V30 1446 O 134.669 -2.33077 -5.20607 0
M  V30 1447 O 133.603 -4.09812 -4.40837 0
M  V30 1448 H 137.429 -2.68555 -1.41817 0
M  V30 1449 H 135.014 -1.35052 -0.638859 0
M  V30 1450 H 136.896 -1.92326 -3.74952 0
M  V30 1451 H 135.571 -0.916137 -3.10465 0
M  V30 1452 H 134.478 -3.04068 -2.1793 0
M  V30 1453 H 135.811 -3.9891 -2.88326 0
M  V30 1454 N 137.463 0.71206 -1.40597 0
M  V30 1455 C 138.709 1.47416 -1.39271 0
M  V30 1456 C 139.042 1.942 0.00388791 0
M  V30 1457 O 138.317 1.68403 0.973179 0
M  V30 1458 C 138.6 2.69774 -2.38525 0
M  V30 1459 C 138.453 2.28861 -3.87224 0
M  V30 1460 C 139.772 3.71939 -2.35264 0
M  V30 1461 H 136.891 0.534713 -0.5072 0
M  V30 1462 H 139.533 0.812375 -1.71757 0
M  V30 1463 H 137.683 3.26238 -2.10953 0
M  V30 1464 H 139.355 1.77852 -4.25636 0
M  V30 1465 H 137.598 1.60824 -4.02887 0
M  V30 1466 H 138.269 3.16584 -4.52193 0
M  V30 1467 H 140.745 3.25113 -2.59694 0
M  V30 1468 H 139.621 4.55186 -3.06753 0
M  V30 1469 H 139.882 4.20484 -1.36549 0
M  V30 1470 N 138.941 1.26152 0.944643 0
M  V30 1471 C 139.904 1.07474 2.0244 0
M  V30 1472 C 140.904 0.0242064 1.60782 0
M  V30 1473 O 142.094 0.267302 1.72137 0
M  V30 1474 C 139.226 0.633956 3.34953 0
M  V30 1475 H 140.419 2.03336 2.20442 0
M  V30 1476 H 137.972 1.087 1.12312 0
M  V30 1477 H 138.707 -0.326811 3.22649 0
M  V30 1478 H 138.492 1.39247 3.66542 0
M  V30 1479 H 139.982 0.52501 4.14287 0
M  V30 1480 N 140.419 -1.14872 1.07899 0
M  V30 1481 C 141.349 -2.2193 0.725887 0
M  V30 1482 C 142.33 -1.67622 -0.28927 0
M  V30 1483 O 143.515 -1.93533 -0.160787 0
M  V30 1484 C 140.645 -3.47061 0.128856 0
M  V30 1485 C 139.599 -4.14363 1.07178 0
M  V30 1486 C 138.925 -5.33636 0.337229 0
M  V30 1487 C 140.225 -4.63492 2.40775 0
M  V30 1488 H 141.919 -2.51724 1.62097 0
M  V30 1489 H 139.465 -1.20991 0.780838 0
M  V30 1490 H 141.418 -4.21199 -0.130147 0
M  V30 1491 H 140.142 -3.16617 -0.80134 0
M  V30 1492 H 138.801 -3.42173 1.3158 0
M  V30 1493 H 138.449 -4.99449 -0.596606 0
M  V30 1494 H 138.149 -5.79609 0.965788 0
M  V30 1495 H 139.673 -6.10539 0.0861567 0
M  V30 1496 H 141.087 -5.2913 2.20669 0
M  V30 1497 H 139.484 -5.20148 2.99276 0
M  V30 1498 H 140.554 -3.78834 3.02676 0
M  V30 1499 N 141.898 -0.863906 -1.31812 0
M  V30 1500 C 143.146 -0.470904 -1.96537 0
M  V30 1501 C 143.467 0.978771 -1.68657 0
M  V30 1502 O 142.737 1.6853 -0.998717 0
M  V30 1503 H 141.317 -0.171148 -0.72713 0
M  V30 1504 H 143.979 -1.10236 -1.60729 0
M  V30 1505 H 143.075 -0.623616 -3.05806 0
M  V30 1506 N 143.376 1.44774 -0.622745 0
M  V30 1507 C 144.308 2.28856 0.125485 0
M  V30 1508 C 145.321 1.40811 0.817069 0
M  V30 1509 O 146.51 1.65044 0.679918 0
M  V30 1510 C 143.61 3.16963 1.19949 0
M  V30 1511 C 142.783 4.33374 0.592064 0
M  V30 1512 C 141.842 5.02577 1.55893 0
M  V30 1513 O 140.868 5.58873 1.07933 0
M  V30 1514 N 142.07 5.03256 2.89334 0
M  V30 1515 H 144.835 2.93713 -0.596068 0
M  V30 1516 H 142.396 1.55129 -0.463303 0
M  V30 1517 H 144.388 3.60123 1.84644 0
M  V30 1518 H 142.958 2.53913 1.82337 0
M  V30 1519 H 142.178 3.93509 -0.233322 0
M  V30 1520 H 143.466 5.08527 0.166738 0
M  V30 1521 H 142.864 4.58836 3.30887 0
M  V30 1522 H 141.421 5.50232 3.49412 0
M  V30 1523 N 144.854 0.36279 1.53368 0
M  V30 1524 C 146.084 -0.228281 2.05335 0
M  V30 1525 C 146.492 -1.43226 1.23625 0
M  V30 1526 O 145.835 -1.81717 0.269206 0
M  V30 1527 C 145.897 -0.688549 3.52845 0
M  V30 1528 C 145.561 0.398362 4.5526 0
M  V30 1529 C 146.558 1.24732 5.04716 0
M  V30 1530 C 144.243 0.557805 4.99193 0
M  V30 1531 C 146.237 2.2411 5.96702 0
M  V30 1532 C 143.924 1.55495 5.90986 0
M  V30 1533 C 144.922 2.39503 6.39631 0
M  V30 1534 O 144.61 3.37517 7.29615 0
M  V30 1535 H 144.342 -0.044395 0.674541 0
M  V30 1536 H 146.896 0.518668 1.98744 0
M  V30 1537 H 145.126 -1.48706 3.56964 0
M  V30 1538 H 146.815 -1.20231 3.87685 0
M  V30 1539 H 147.581 1.13532 4.71525 0
M  V30 1540 H 143.46 -0.0862959 4.60919 0
M  V30 1541 H 147.004 2.89718 6.34594 0
M  V30 1542 H 142.901 1.66744 6.23592 0
M  V30 1543 H 143.669 3.33213 7.47604 0
M  V30 1544 N 146.332 -1.57332 0.0918853 0
M  V30 1545 C 147.56 -1.98574 -0.581048 0
M  V30 1546 C 147.975 -0.970903 -1.61923 0
M  V30 1547 O 147.332 0.0399054 -1.82456 0
M  V30 1548 C 147.383 -3.39872 -1.23164 0
M  V30 1549 O 147.104 -4.37469 -0.234989 0
M  V30 1550 C 148.605 -3.96099 -1.99049 0
M  V30 1551 H 145.825 -0.65261 -0.156018 0
M  V30 1552 H 148.369 -2.0379 0.170225 0
M  V30 1553 H 146.524 -3.35679 -1.93386 0
M  V30 1554 H 146.938 -5.19751 -0.70418 0
M  V30 1555 H 148.412 -4.97127 -2.39934 0
M  V30 1556 H 148.889 -3.3374 -2.85507 0
M  V30 1557 H 149.495 -4.03755 -1.3365 0
M  V30 1558 N 147.81 0.181792 -1.56548 0
M  V30 1559 C 149.035 0.920019 -1.85877 0
M  V30 1560 C 149.46 1.75494 -0.677021 0
M  V30 1561 O 148.818 1.77399 0.374056 0
M  V30 1562 C 148.866 1.78112 -3.13542 0
M  V30 1563 O 147.97 2.88152 -2.95029 0
M  V30 1564 H 147.311 0.258334 -0.611686 0
M  V30 1565 H 149.841 0.183092 -2.03779 0
M  V30 1566 H 149.851 2.18314 -3.44678 0
M  V30 1567 H 148.526 1.16777 -3.99169 0
M  V30 1568 H 147.103 2.51609 -2.75222 0
M  V30 1569 N 149.288 1.51039 0.449983 0
M  V30 1570 C 150.22 1.67617 1.56324 0
M  V30 1571 C 151.233 0.557083 1.52972 0
M  V30 1572 O 152.422 0.830989 1.57977 0
M  V30 1573 C 149.522 1.66402 2.95235 0
M  V30 1574 C 148.695 2.9469 3.23229 0
M  V30 1575 C 147.754 2.85832 4.41799 0
M  V30 1576 O 146.78 3.59785 4.41071 0
M  V30 1577 N 147.982 2.00821 5.44657 0
M  V30 1578 H 150.747 2.63648 1.42512 0
M  V30 1579 H 148.308 1.48767 0.638737 0
M  V30 1580 H 150.3 1.58062 3.72557 0
M  V30 1581 H 148.87 0.780182 3.02708 0
M  V30 1582 H 148.09 3.16996 2.34323 0
M  V30 1583 H 149.378 3.79636 3.38754 0
M  V30 1584 H 148.776 1.40091 5.48079 0
M  V30 1585 H 147.333 1.98368 6.20881 0
M  V30 1586 N 150.766 -0.704594 1.40972 0
M  V30 1587 C 152.014 -1.46169 1.39568 0
M  V30 1588 C 152.335 -1.95 0.00253745 0
M  V30 1589 O 151.605 -1.71095 -0.954114 0
M  V30 1590 H 150.185 -0.542326 0.513704 0
M  V30 1591 H 152.847 -0.834553 1.76128 0
M  V30 1592 H 151.943 -2.32922 2.07735 0
M  V30 1593 N 152.244 -1.26651 -0.937939 0
M  V30 1594 C 153.469 -1.15279 -1.72411 0
M  V30 1595 C 153.894 0.287866 -1.85884 0
M  V30 1596 O 153.252 1.20855 -1.35143 0
M  V30 1597 C 153.3 -1.83028 -3.10698 0
M  V30 1598 O 152.404 -1.12128 -3.96864 0
M  V30 1599 H 151.745 -0.401504 -0.528858 0
M  V30 1600 H 154.275 -1.67531 -1.1745 0
M  V30 1601 H 154.285 -1.89981 -3.6107 0
M  V30 1602 H 152.96 -2.87833 -3.00208 0
M  V30 1603 H 151.537 -1.13173 -3.55312 0
M  V30 1604 N 153.722 1.14298 -1.08507 0
M  V30 1605 C 154.968 1.85633 -0.816581 0
M  V30 1606 C 155.301 1.82784 0.656021 0
M  V30 1607 O 154.576 1.25926 1.48233 0
M  V30 1608 C 154.859 3.34223 -1.34041 0
M  V30 1609 C 154.712 3.45639 -2.87843 0
M  V30 1610 C 156.031 4.29356 -0.9665 0
M  V30 1611 H 153.15 0.67402 -0.298104 0
M  V30 1612 H 155.792 1.34214 -1.34487 0
M  V30 1613 H 153.942 3.78144 -0.89104 0
M  V30 1614 H 155.614 3.10498 -3.41158 0
M  V30 1615 H 153.857 2.86817 -3.25451 0
M  V30 1616 H 154.528 4.50089 -3.19569 0
M  V30 1617 H 157.004 3.93457 -1.35391 0
M  V30 1618 H 155.88 5.3178 -1.3602 0
M  V30 1619 H 156.141 4.41919 0.126362 0
M  V30 1620 N 155.201 0.870884 1.31352 0
M  V30 1621 C 156.429 0.49677 2.00848 0
M  V30 1622 C 156.844 -0.910998 1.65367 0
M  V30 1623 O 156.201 -1.59696 0.883374 0
M  V30 1624 C 156.252 0.645308 3.55694 0
M  V30 1625 O 155.973 1.99764 3.89905 0
M  V30 1626 C 157.474 0.272326 4.42463 0
M  V30 1627 H 154.694 0.193462 0.642506 0
M  V30 1628 H 157.238 1.1723 1.67563 0
M  V30 1629 H 155.393 0.0173176 3.87396 0
M  V30 1630 H 155.807 2.00607 4.84621 0
M  V30 1631 H 157.281 0.427208 5.50344 0
M  V30 1632 H 157.758 -0.788587 4.32062 0
M  V30 1633 H 158.364 0.876054 4.1618 0
M  V30 1634 N 156.679 -1.44442 0.630414 0
M  V30 1635 C 157.642 -2.29107 -0.0652523 0
M  V30 1636 C 158.642 -1.41002 -0.772995 0
M  V30 1637 O 159.832 -1.62881 -0.617692 0
M  V30 1638 C 156.964 -3.22564 -1.10296 0
M  V30 1639 H 158.157 -2.92103 0.679401 0
M  V30 1640 H 155.71 -1.51343 0.390517 0
M  V30 1641 H 156.445 -2.64416 -1.87762 0
M  V30 1642 H 156.23 -3.87491 -0.59941 0
M  V30 1643 H 157.72 -3.86167 -1.5895 0
M  V30 1644 N 158.157 -0.370918 -1.53173 0
M  V30 1645 C 159.403 0.209976 -2.02313 0
M  V30 1646 C 159.758 1.45987 -1.25322 0
M  V30 1647 O 159.051 1.8856 -0.339965 0
M  V30 1648 C 159.245 0.549696 -3.53147 0
M  V30 1649 C 159.074 -0.665721 -4.44745 0
M  V30 1650 C 157.844 -1.17942 -4.91343 0
M  V30 1651 C 160.042 -1.53255 -4.90935 0
M  V30 1652 N 158.024 -2.35431 -5.66962 0
M  V30 1653 C 159.395 -2.55403 -5.64951 0
M  V30 1654 C 161.45 -1.5548 -4.73002 0
M  V30 1655 C 160.153 -3.5964 -6.22938 0
M  V30 1656 C 162.179 -2.58613 -5.31858 0
M  V30 1657 C 161.541 -3.59485 -6.05764 0
M  V30 1658 H 157.64 0.0394095 -0.781006 0
M  V30 1659 H 160.224 -0.516666 -1.8772 0
M  V30 1660 H 158.395 1.24541 -3.67891 0
M  V30 1661 H 160.127 1.11614 -3.89004 0
M  V30 1662 H 156.882 -0.743228 -4.67732 0
M  V30 1663 H 157.306 -2.94827 -6.09431 0
M  V30 1664 H 161.948 -0.788457 -4.15383 0
M  V30 1665 H 159.666 -4.37153 -6.79649 0
M  V30 1666 H 163.252 -2.61195 -5.19873 0
M  V30 1667 H 162.132 -4.3798 -6.50495 0
M  V30 1668 N 159.635 1.57281 -0.100228 0
M  V30 1669 C 161.051 1.57527 0.256416 0
M  V30 1670 C 161.251 1.11173 1.68056 0
M  V30 1671 O 160.307 0.79053 2.39806 0
M  V30 1672 C 161.62 3.00673 0.0401747 0
M  V30 1673 C 163.168 3.12815 0.107528 0
M  V30 1674 C 163.643 4.57929 -0.0807834 0
M  V30 1675 N 165.134 4.63193 -0.0261207 0
M  V30 1676 C 165.869 5.73212 -0.146999 0
M  V30 1677 N 165.365 6.92047 -0.322999 0
M  V30 1678 N 167.158 5.62031 -0.0879044 0
M  V30 1679 H 159.309 1.85718 -1.03065 0
M  V30 1680 H 161.572 0.857446 -0.404339 0
M  V30 1681 H 161.278 3.38804 -0.943649 0
M  V30 1682 H 161.152 3.69042 0.780262 0
M  V30 1683 H 163.539 2.74554 1.08186 0
M  V30 1684 H 163.62 2.47028 -0.664134 0
M  V30 1685 H 163.264 4.96886 -1.05201 0
M  V30 1686 H 163.194 5.21783 0.710635 0
M  V30 1687 H 165.685 3.77748 0.107161 0
M  V30 1688 H 165.998 7.7173 -0.406608 0
M  V30 1689 H 164.343 6.94074 -0.358733 0
M  V30 1690 H 167.534 4.68075 0.048498 0
M  V30 1691 H 167.707 6.47734 -0.185557 0
M  V30 1692 N 161.113 -0.173488 1.56642 0
M  V30 1693 C 162.06 -1.21482 1.96242 0
M  V30 1694 C 163.03 -1.44104 0.826027 0
M  V30 1695 O 164.215 -1.5688 1.08597 0
M  V30 1696 C 161.355 -2.54964 2.32567 0
M  V30 1697 C 160.468 -2.39739 3.59373 0
M  V30 1698 C 159.603 -3.66072 3.84921 0
M  V30 1699 C 158.642 -3.45771 5.05083 0
M  V30 1700 N 157.779 -4.64169 5.26775 0
M  V30 1701 H 162.619 -0.870123 2.85014 0
M  V30 1702 H 160.156 -0.418245 1.41029 0
M  V30 1703 H 162.114 -3.32758 2.5165 0
M  V30 1704 H 160.744 -2.87433 1.46908 0
M  V30 1705 H 159.796 -1.53131 3.48217 0
M  V30 1706 H 161.108 -2.20683 4.47326 0
M  V30 1707 H 160.262 -4.52303 4.0436 0
M  V30 1708 H 159.001 -3.88105 2.9534 0
M  V30 1709 H 158.006 -2.57927 4.85545 0
M  V30 1710 H 159.231 -3.25163 5.96193 0
M  V30 1711 H 157.177 -4.86425 4.40144 0
M  V30 1712 H 157.094 -4.48019 6.08946 0
M  V30 1713 H 158.362 -5.51689 5.5069 0
M  V30 1714 N 162.591 -1.51276 -0.441967 0
M  V30 1715 C 163.84 -1.6295 -1.18871 0
M  V30 1716 C 164.153 -0.349312 -1.92456 0
M  V30 1717 O 165.359 -0.345355 -2.69295 0
M  V30 1718 C 163.815 -2.87759 -2.16155 0
M  V30 1719 C 163.423 -4.22764 -1.48239 0
M  V30 1720 C 165.167 -3.08788 -2.91291 0
M  V30 1721 C 163.074 -5.38728 -2.4398 0
M  V30 1722 H 162.004 -0.606913 -0.447406 0
M  V30 1723 H 164.655 -1.77739 -0.456205 0
M  V30 1724 H 163.037 -2.66593 -2.92821 0
M  V30 1725 H 164.211 -4.54293 -0.771635 0
M  V30 1726 H 162.526 -4.07575 -0.852741 0
M  V30 1727 H 165.123 -3.92599 -3.63002 0
M  V30 1728 H 165.466 -2.21679 -3.5237 0
M  V30 1729 H 165.999 -3.30272 -2.21733 0
M  V30 1730 H 162.738 -6.28082 -1.87598 0
M  V30 1731 H 162.258 -5.1158 -3.13123 0
M  V30 1732 H 163.937 -5.70489 -3.05207 0
M  V30 1733 N 164.069 0.697108 -1.41344 0
M  V30 1734 C 165.309 1.46939 -1.42085 0
M  V30 1735 C 165.673 1.9198 -0.0280397 0
M  V30 1736 O 166.874 2.6865 0.0897504 0
M  V30 1737 C 165.145 2.64985 -2.39828 0
M  V30 1738 S 166.704 3.54147 -2.59085 0
M  V30 1739 H 163.522 0.502146 -0.503359 0
M  V30 1740 H 166.124 0.813546 -1.77769 0
M  V30 1741 H 164.828 2.30098 -3.39828 0
M  V30 1742 H 164.359 3.35464 -2.05493 0
M  V30 1743 H 166.374 4.60137 -1.85711 0
M  V30 1744 N 165.547 1.27147 0.931209 0
M  V30 1745 C 166.958 1.12044 1.49342 0
M  V30 1746 C 167.309 -0.295795 1.93957 0
M  V30 1747 O 166.434 -1.18835 1.80852 0
M  V30 1748 C 167.029 2.02781 2.71414 0
M  V30 1749 C 165.588 1.91794 3.2387 0
M  V30 1750 C 164.735 1.95543 1.96617 0
M  V30 1751 H 167.686 1.40091 0.745672 0
M  V30 1752 H 167.707 1.58156 3.46074 0
M  V30 1753 H 167.219 3.05848 2.38911 0
M  V30 1754 H 165.32 0.916992 3.6114 0
M  V30 1755 H 165.433 2.77852 3.90302 0
M  V30 1756 H 163.797 1.39722 2.12955 0
M  V30 1757 H 164.58 3.00259 1.66432 0
M  V30 1758 N 167.025 -1.13721 1.09112 0
M  V30 1759 C 167.955 -2.21148 0.749385 0
M  V30 1760 C 168.936 -1.6792 -0.271475 0
M  V30 1761 O 170.121 -1.93693 -0.140251 0
M  V30 1762 C 167.251 -3.46905 0.165659 0
M  V30 1763 C 166.205 -4.13203 1.11567 0
M  V30 1764 C 165.531 -5.33248 0.393809 0
M  V30 1765 C 166.831 -4.60912 2.45678 0
M  V30 1766 H 168.525 -2.4999 1.64758 0
M  V30 1767 H 166.071 -1.20156 0.793626 0
M  V30 1768 H 168.024 -4.21313 -0.085466 0
M  V30 1769 H 166.748 -3.17449 -0.767714 0
M  V30 1770 H 165.407 -3.40758 1.35202 0
M  V30 1771 H 165.055 -5.00054 -0.543599 0
M  V30 1772 H 164.755 -5.78552 1.02721 0
M  V30 1773 H 166.279 -6.10413 0.150908 0
M  V30 1774 H 167.693 -5.26759 2.26269 0
M  V30 1775 H 166.09 -5.16944 3.04776 0
M  V30 1776 H 167.16 -3.75603 3.06677 0
M  V30 1777 N 168.503 -0.877838 -1.30888 0
M  V30 1778 C 169.75 -0.492696 -1.96415 0
M  V30 1779 C 170.078 0.956671 -1.69346 0
M  V30 1780 O 169.333 1.68993 -0.986913 0
M  V30 1781 C 169.632 -0.705748 -3.50363 0
M  V30 1782 C 169.298 -2.1291 -3.97467 0
M  V30 1783 C 167.96 -2.51834 -4.1004 0
M  V30 1784 C 170.312 -3.05702 -4.22132 0
M  V30 1785 C 167.64 -3.82775 -4.44635 0
M  V30 1786 C 169.992 -4.36166 -4.58194 0
M  V30 1787 C 168.656 -4.74993 -4.68975 0
M  V30 1788 H 167.926 -0.18029 -0.718733 0
M  V30 1789 H 170.573 -1.11233 -1.55883 0
M  V30 1790 H 168.878 -0.00303058 -3.918 0
M  V30 1791 H 170.575 -0.387456 -3.99124 0
M  V30 1792 H 167.165 -1.81694 -3.88182 0
M  V30 1793 H 171.349 -2.76853 -4.11906 0
M  V30 1794 H 166.605 -4.12609 -4.51181 0
M  V30 1795 H 170.779 -5.08111 -4.76231 0
M  V30 1796 H 168.406 -5.76495 -4.95537 0
M  V30 1797 N 169.982 1.44106 -0.638065 0
M  V30 1798 C 170.914 2.28976 0.101205 0
M  V30 1799 C 171.927 1.4167 0.802088 0
M  V30 1800 O 173.116 1.65755 0.662375 0
M  V30 1801 C 170.216 3.18217 1.16581 0
M  V30 1802 C 169.389 4.33978 0.546066 0
M  V30 1803 C 168.448 5.04202 1.50554 0
M  V30 1804 O 167.474 5.59986 1.01999 0
M  V30 1805 N 168.676 5.06296 2.8398 0
M  V30 1806 H 171.441 2.93064 -0.627186 0
M  V30 1807 H 169.002 1.54629 -0.479731 0
M  V30 1808 H 170.994 3.62061 1.80815 0
M  V30 1809 H 169.564 2.55833 1.79634 0
M  V30 1810 H 168.784 3.93239 -0.275046 0
M  V30 1811 H 170.072 5.08675 0.112793 0
M  V30 1812 H 169.47 4.62319 3.26002 0
M  V30 1813 H 168.027 5.53907 3.43556 0
M  V30 1814 N 171.46 0.379036 1.52974 0
M  V30 1815 C 172.708 -0.206014 2.01047 0
M  V30 1816 C 173.029 -1.48175 1.26765 0
M  V30 1817 O 172.299 -1.92085 0.384743 0
M  V30 1818 H 170.879 -0.0791184 0.742798 0
M  V30 1819 H 173.541 0.508366 1.88153 0
M  V30 1820 H 172.637 -0.423501 3.09213 0
M  V30 1821 N 172.938 -1.57226 0.108567 0
M  V30 1822 C 174.187 -1.94008 -0.551703 0
M  V30 1823 C 174.5 -0.993442 -1.68494 0
M  V30 1824 O 175.706 -1.25551 -2.40726 0
M  V30 1825 C 174.162 -3.44763 -1.03279 0
M  V30 1826 C 173.77 -4.47943 0.0714193 0
M  V30 1827 C 175.514 -3.90483 -1.66503 0
M  V30 1828 C 173.421 -5.89865 -0.425779 0
M  V30 1829 H 172.351 -0.724206 -0.209863 0
M  V30 1830 H 175.002 -1.82547 0.186741 0
M  V30 1831 H 173.384 -3.51422 -1.82533 0
M  V30 1832 H 174.558 -4.52942 0.847365 0
M  V30 1833 H 172.873 -4.11913 0.609669 0
M  V30 1834 H 175.47 -4.93925 -2.04798 0
M  V30 1835 H 175.813 -3.29877 -2.53942 0
M  V30 1836 H 176.346 -3.86581 -0.938074 0
M  V30 1837 H 173.085 -6.54202 0.412316 0
M  V30 1838 H 172.605 -5.88309 -1.16843 0
M  V30 1839 H 174.284 -6.40844 -0.890397 0
M  V30 1840 N 174.416 0.165178 -1.56732 0
M  V30 1841 C 175.664 0.879068 -1.8198 0
M  V30 1842 C 175.985 1.82514 -0.686561 0
M  V30 1843 O 175.255 1.93694 0.293146 0
M  V30 1844 H 173.835 0.327608 -0.671329 0
M  V30 1845 H 176.497 0.163526 -1.94213 0
M  V30 1846 H 175.593 1.45228 -2.76252 0
M  V30 1847 N 175.894 1.51508 0.433938 0
M  V30 1848 C 176.824 1.76016 1.53429 0
M  V30 1849 C 177.805 0.610112 1.58782 0
M  V30 1850 O 178.99 0.853177 1.74455 0
M  V30 1851 C 176.12 1.88831 2.9148 0
M  V30 1852 C 175.074 3.04288 3.00987 0
M  V30 1853 C 174.4 3.0229 4.4105 0
M  V30 1854 C 175.7 4.44193 2.74754 0
M  V30 1855 H 177.394 2.68152 1.33171 0
M  V30 1856 H 174.94 1.29035 0.639214 0
M  V30 1857 H 176.893 2.04559 3.6842 0
M  V30 1858 H 175.617 0.933455 3.12976 0
M  V30 1859 H 174.276 2.8827 2.26486 0
M  V30 1860 H 173.924 2.04576 4.59519 0
M  V30 1861 H 173.624 3.79822 4.4834 0
M  V30 1862 H 175.148 3.20116 5.1996 0
M  V30 1863 H 176.562 4.60544 3.41426 0
M  V30 1864 H 174.959 5.23457 2.9345 0
M  V30 1865 H 176.029 4.53996 1.70339 0
M  V30 1866 N 177.372 -0.689602 1.41712 0
M  V30 1867 C 178.335 -1.78521 1.43746 0
M  V30 1868 C 179.335 -1.57436 0.327191 0
M  V30 1869 O 180.525 -1.64 0.587348 0
M  V30 1870 C 177.657 -3.16971 1.25467 0
M  V30 1871 H 178.85 -1.78108 2.41283 0
M  V30 1872 H 176.403 -0.89781 1.27942 0
M  V30 1873 H 177.138 -3.23019 0.287948 0
M  V30 1874 H 176.923 -3.33678 2.05917 0
M  V30 1875 H 178.413 -3.96935 1.2974 0
M  V30 1876 N 178.85 -1.27639 -0.924453 0
M  V30 1877 C 180.075 -1.17101 -1.71179 0
M  V30 1878 C 180.5 0.268134 -1.86179 0
M  V30 1879 O 179.858 1.19415 -1.36418 0
M  V30 1880 C 179.906 -1.86313 -3.08739 0
M  V30 1881 O 179.01 -1.16331 -3.95652 0
M  V30 1882 H 178.351 -0.407091 -0.524569 0
M  V30 1883 H 180.881 -1.68767 -1.15666 0
M  V30 1884 H 180.891 -1.938 -3.59034 0
M  V30 1885 H 179.566 -2.91001 -2.97138 0
M  V30 1886 H 178.143 -1.16935 -3.54091 0
M  V30 1887 N 180.328 1.1314 -1.09713 0
M  V30 1888 C 181.574 1.84757 -0.836224 0
M  V30 1889 C 181.907 1.8347 0.636598 0
M  V30 1890 O 181.182 1.27491 1.46889 0
M  V30 1891 C 181.465 3.32782 -1.37578 0
M  V30 1892 C 181.318 3.42567 -2.91493 0
M  V30 1893 C 182.637 4.28307 -1.01198 0
M  V30 1894 H 179.756 0.67082 -0.305236 0
M  V30 1895 H 182.398 1.3278 -1.35903 0
M  V30 1896 H 180.548 3.77177 -0.931097 0
M  V30 1897 H 182.22 3.06862 -3.44432 0
M  V30 1898 H 180.463 2.83349 -3.28475 0
M  V30 1899 H 181.134 4.46674 -3.24324 0
M  V30 1900 H 183.61 3.91999 -1.39556 0
M  V30 1901 H 182.486 5.30307 -1.41653 0
M  V30 1902 H 182.747 4.42029 0.0794833 0
M  V30 1903 N 181.806 0.884767 1.30421 0
M  V30 1904 C 183.052 0.503851 1.96441 0
M  V30 1905 C 183.385 -0.944518 1.69684 0
M  V30 1906 O 182.66 -1.66737 1.00145 0
M  V30 1907 C 182.943 0.779085 3.51571 0
M  V30 1908 C 182.796 2.27807 3.87846 0
M  V30 1909 C 184.115 0.255452 4.39358 0
M  V30 1910 H 181.234 0.184533 0.713524 0
M  V30 1911 H 183.876 1.10872 1.54297 0
M  V30 1912 H 182.026 0.264274 3.876 0
M  V30 1913 H 183.698 2.86127 3.61841 0
M  V30 1914 H 181.941 2.74479 3.35922 0
M  V30 1915 H 182.612 2.42125 4.96064 0
M  V30 1916 H 185.088 0.696079 4.10236 0
M  V30 1917 H 183.964 0.477361 5.4682 0
M  V30 1918 H 184.225 -0.843293 4.33983 0
M  V30 1919 N 183.284 -1.43765 0.645699 0
M  V30 1920 C 184.533 -2.01116 0.153412 0
M  V30 1921 C 184.846 -1.51493 -1.23731 0
M  V30 1922 O 186.052 -2.01067 -1.8244 0
M  V30 1923 C 184.508 -3.59206 0.223473 0
M  V30 1924 C 184.116 -4.17823 1.61642 0
M  V30 1925 C 185.86 -4.23972 -0.211597 0
M  V30 1926 C 183.767 -5.68183 1.64081 0
M  V30 1927 H 182.697 -0.752093 0.0535891 0
M  V30 1928 H 185.348 -1.6482 0.806633 0
M  V30 1929 H 183.73 -3.92867 -0.497118 0
M  V30 1930 H 184.904 -3.95674 2.36176 0
M  V30 1931 H 183.219 -3.65399 1.99681 0
M  V30 1932 H 185.816 -5.34275 -0.213112 0
M  V30 1933 H 186.159 -3.97352 -1.24165 0
M  V30 1934 H 186.692 -3.95166 0.456988 0
M  V30 1935 H 183.431 -5.99559 2.64971 0
M  V30 1936 H 182.951 -5.9241 0.938611 0
M  V30 1937 H 184.63 -6.32085 1.3812 0
M  V30 1938 N 184.763 -0.387143 -1.52771 0
M  V30 1939 C 185.673 0.456442 -2.30117 0
M  V30 1940 C 186.689 1.07342 -1.36944 0
M  V30 1941 O 187.865 1.07971 -1.70013 0
M  V30 1942 C 184.93 1.56957 -3.09136 0
M  V30 1943 C 183.991 0.977916 -4.18014 0
M  V30 1944 C 183.224 2.038 -4.93256 0
M  V30 1945 O 183.447 3.25271 -4.68567 0
M  V30 1946 O 182.381 1.6565 -5.78657 0
M  V30 1947 H 186.207 -0.17359 -3.03203 0
M  V30 1948 H 183.792 -0.150919 -1.48636 0
M  V30 1949 H 185.674 2.21628 -3.58412 0
M  V30 1950 H 184.349 2.18461 -2.38865 0
M  V30 1951 H 183.256 0.294525 -3.72939 0
M  V30 1952 H 184.589 0.407128 -4.90513 0
M  V30 1953 N 186.241 1.57166 -0.116904 0
M  V30 1954 C 187.466 1.999 0.55271 0
M  V30 1955 C 187.891 0.996039 1.59564 0
M  V30 1956 O 187.249 -0.032556 1.81271 0
M  V30 1957 C 187.297 3.4152 1.15742 0
M  V30 1958 O 186.401 3.44106 2.27299 0
M  V30 1959 H 185.742 0.649447 0.138258 0
M  V30 1960 H 188.272 2.03573 -0.204759 0
M  V30 1961 H 188.282 3.79684 1.49346 0
M  V30 1962 H 186.957 4.14034 0.393493 0
M  V30 1963 H 185.534 3.17759 1.9515 0
M  V30 1964 N 187.719 -0.156864 1.56817 0
M  V30 1965 C 188.949 -0.885031 1.86684 0
M  V30 1966 C 189.357 -1.75696 0.701954 0
M  V30 1967 O 188.7 -1.80569 -0.337732 0
M  V30 1968 C 188.762 -1.80092 3.11138 0
M  V30 1969 C 188.426 -1.10714 4.43386 0
M  V30 1970 C 189.423 -0.465714 5.1781 0
M  V30 1971 C 187.108 -1.09959 4.90117 0
M  V30 1972 C 189.102 0.174002 6.37162 0
M  V30 1973 C 186.789 -0.456055 6.09396 0
M  V30 1974 C 187.787 0.179622 6.82764 0
M  V30 1975 O 187.475 0.812975 7.99779 0
M  V30 1976 H 187.207 -0.261813 0.623242 0
M  V30 1977 H 189.761 -0.157383 2.04796 0
M  V30 1978 H 187.991 -2.56926 2.89009 0
M  V30 1979 H 189.68 -2.40018 3.27332 0
M  V30 1980 H 190.446 -0.463427 4.82781 0
M  V30 1981 H 186.325 -1.58378 4.3294 0
M  V30 1982 H 189.869 0.670765 6.94368 0
M  V30 1983 H 185.766 -0.455975 6.43888 0
M  V30 1984 H 186.534 0.71366 8.15383 0
M  V30 1985 N 189.197 -1.51736 -0.425897 0
M  V30 1986 C 190.127 -1.76827 -1.52494 0
M  V30 1987 C 191.108 -0.618524 -1.58456 0
M  V30 1988 O 192.293 -0.862416 -1.74 0
M  V30 1989 C 189.423 -1.90374 -2.90474 0
M  V30 1990 C 188.377 -3.0588 -2.99369 0
M  V30 1991 C 187.703 -3.04625 -4.3944 0
M  V30 1992 C 189.003 -4.45644 -2.72394 0
M  V30 1993 H 190.697 -2.68855 -1.31748 0
M  V30 1994 H 188.243 -1.29372 -0.632362 0
M  V30 1995 H 190.196 -2.0651 -3.6733 0
M  V30 1996 H 188.92 -0.95004 -3.12477 0
M  V30 1997 H 187.579 -2.89467 -2.24954 0
M  V30 1998 H 187.227 -2.0701 -4.58428 0
M  V30 1999 H 186.927 -3.82195 -4.46319 0
M  V30 2000 H 188.451 -3.22869 -5.18255 0
M  V30 2001 H 189.865 -4.62348 -3.38979 0
M  V30 2002 H 188.262 -5.25006 -2.9067 0
M  V30 2003 H 189.332 -4.54893 -1.67929 0
M  V30 2004 N 190.675 0.682077 -1.42076 0
M  V30 2005 C 191.623 1.81707 -1.45208 0
M  V30 2006 C 192.617 1.66183 -0.328591 0
M  V30 2007 O 193.823 1.7288 -0.501264 0
M  V30 2008 H 190.198 0.599014 -0.454628 0
M  V30 2009 H 192.169 1.76183 -2.40836 0
M  V30 2010 C 190.918 3.19816 -1.36428 0
M  V30 2011 H 190.241 3.32385 -2.22171 0
M  V30 2012 H 191.681 3.99272 -1.42681 0
M  V30 2013 C 190.14 3.36809 -0.078191 0
M  V30 2014 O 190.67 3.92124 0.87188 0
M  V30 2015 N 188.876 2.906 0.00229266 0
M  V30 2016 H 188.423 2.45772 -0.771616 0
M  V30 2017 H 188.381 3.02347 0.862179 0
M  V30 2018 N 192.153 1.28127 0.917671 0
M  V30 2019 C 193.399 1.15223 1.66888 0
M  V30 2020 C 193.732 -0.299293 1.9188 0
M  V30 2021 O 193.007 -1.21805 1.51637 0
M  V30 2022 C 193.29 1.94706 3.02922 0
M  V30 2023 C 193.143 3.47898 2.85109 0
M  V30 2024 C 194.462 1.75939 4.03402 0
M  V30 2025 H 191.581 0.419946 0.605652 0
M  V30 2026 H 194.223 1.57398 1.06423 0
M  V30 2027 H 192.373 1.58864 3.54534 0
M  V30 2028 H 194.045 3.93624 2.40537 0
M  V30 2029 H 192.288 3.7373 2.20246 0
M  V30 2030 H 192.959 3.98765 3.81694 0
M  V30 2031 H 195.435 2.07209 3.60837 0
M  V30 2032 H 194.311 2.33931 4.96556 0
M  V30 2033 H 194.572 0.709877 4.36364 0
M  V30 2034 N 193.631 -1.12557 1.10312 0
M  V30 2035 C 194.861 -1.87592 0.865617 0
M  V30 2036 C 195.269 -1.79851 -0.587389 0
M  V30 2037 O 194.612 -1.16949 -1.41664 0
M  V30 2038 C 194.674 -3.37665 1.23381 0
M  V30 2039 C 194.338 -3.69181 2.69359 0
M  V30 2040 C 195.335 -3.67652 3.67597 0
M  V30 2041 C 193.02 -3.98555 3.05711 0
M  V30 2042 C 195.014 -3.95053 5.00212 0
M  V30 2043 C 192.701 -4.25616 4.38514 0
M  V30 2044 C 193.699 -4.23851 5.35574 0
M  V30 2045 O 193.387 -4.50242 6.65986 0
M  V30 2046 H 193.119 -0.600442 0.310557 0
M  V30 2047 H 195.673 -1.4335 1.47105 0
M  V30 2048 H 193.903 -3.82454 0.571467 0
M  V30 2049 H 195.592 -3.94041 0.973994 0
M  V30 2050 H 196.358 -3.45024 3.40857 0
M  V30 2051 H 192.237 -3.99071 2.30789 0
M  V30 2052 H 195.781 -3.93591 5.75962 0
M  V30 2053 H 191.678 -4.47718 4.64994 0
M  V30 2054 H 192.446 -4.67867 6.71597 0
M  V30 2055 N 195.109 -0.891671 -1.2995 0
M  V30 2056 C 196.339 -0.527893 -1.99742 0
M  V30 2057 C 196.747 0.88979 -1.66971 0
M  V30 2058 O 196.09 1.59766 -0.906667 0
M  V30 2059 C 196.152 -0.630804 -3.53922 0
M  V30 2060 C 195.816 -2.01401 -4.10228 0
M  V30 2061 C 196.813 -2.98422 -4.25724 0
M  V30 2062 C 194.498 -2.32121 -4.45449 0
M  V30 2063 C 196.492 -4.24293 -4.75662 0
M  V30 2064 C 194.179 -3.58237 -4.95086 0
M  V30 2065 C 195.177 -4.54137 -5.10146 0
M  V30 2066 O 194.865 -5.78014 -5.58708 0
M  V30 2067 H 194.597 -0.201953 -0.645129 0
M  V30 2068 H 197.151 -1.20076 -1.66646 0
M  V30 2069 H 195.381 0.0990616 -3.86573 0
M  V30 2070 H 197.07 -0.277338 -4.04951 0
M  V30 2071 H 197.836 -2.76001 -3.98809 0
M  V30 2072 H 193.715 -1.5824 -4.32991 0
M  V30 2073 H 197.259 -4.99153 -4.87332 0
M  V30 2074 H 193.156 -3.80491 -5.21437 0
M  V30 2075 H 193.924 -5.8049 -5.77039 0
M  V30 2076 N 196.587 1.43421 -0.653314 0
M  V30 2077 C 197.836 2.01032 -0.164076 0
M  V30 2078 C 198.149 1.52147 1.22926 0
M  V30 2079 O 199.355 2.02031 1.81371 0
M  V30 2080 C 197.811 3.59082 -0.24252 0
M  V30 2081 C 197.419 4.1696 -1.63855 0
M  V30 2082 C 199.163 4.24079 0.18911 0
M  V30 2083 C 197.07 5.67304 -1.67092 0
M  V30 2084 H 196 0.751798 -0.0575769 0
M  V30 2085 H 198.651 1.6439 -0.815362 0
M  V30 2086 H 197.033 3.93125 0.476276 0
M  V30 2087 H 198.207 3.94416 -2.38271 0
M  V30 2088 H 196.522 3.64335 -2.01616 0
M  V30 2089 H 199.119 5.34381 0.184775 0
M  V30 2090 H 199.462 3.98005 1.22056 0
M  V30 2091 H 199.995 3.94918 -0.477938 0
M  V30 2092 H 196.734 5.98145 -2.68146 0
M  V30 2093 H 196.254 5.91904 -0.970014 0
M  V30 2094 H 197.933 6.31344 -1.4147 0
M  V30 2095 N 198.065 0.39524 1.52563 0
M  V30 2096 C 199.314 -0.186321 2.00838 0
M  V30 2097 C 199.627 -1.47402 1.28577 0
M  V30 2098 O 200.833 -2.13599 1.67593 0
M  V30 2099 C 199.289 -0.382595 3.57861 0
M  V30 2100 C 198.897 0.892202 4.39026 0
M  V30 2101 C 200.641 -0.9202 4.14406 0
M  V30 2102 C 198.548 0.66388 5.87662 0
M  V30 2103 H 197.478 -0.0734041 0.750418 0
M  V30 2104 H 200.129 0.518552 1.76021 0
M  V30 2105 H 198.511 -1.14946 3.7895 0
M  V30 2106 H 199.685 1.66414 4.29701 0
M  V30 2107 H 198 1.35519 3.9373 0
M  V30 2108 H 200.597 -1.10683 5.23119 0
M  V30 2109 H 200.94 -1.89096 3.70875 0
M  V30 2110 H 201.473 -0.212751 3.97231 0
M  V30 2111 H 198.212 1.6058 6.35527 0
M  V30 2112 H 197.732 -0.0690193 5.9976 0
M  V30 2113 H 199.411 0.300699 6.46301 0
M  V30 2114 N 199.544 -1.57102 0.125237 0
M  V30 2115 C 200.793 -1.94582 -0.531095 0
M  V30 2116 C 201.106 -1.01126 -1.6743 0
M  V30 2117 O 202.312 -1.28097 -2.39381 0
M  V30 2118 C 200.768 -3.45839 -0.996164 0
M  V30 2119 C 200.376 -4.47842 0.118926 0
M  V30 2120 C 202.12 -3.92227 -1.62352 0
M  V30 2121 C 200.027 -5.90284 -0.363192 0
M  V30 2122 H 198.957 -0.726391 -0.20217 0
M  V30 2123 H 201.608 -1.82339 0.206092 0
M  V30 2124 H 199.99 -3.53338 -1.78796 0
M  V30 2125 H 201.164 -4.52018 0.895358 0
M  V30 2126 H 199.479 -4.11243 0.653324 0
M  V30 2127 H 202.076 -4.96069 -1.99548 0
M  V30 2128 H 202.419 -3.32552 -2.50429 0
M  V30 2129 H 202.952 -3.87554 -0.897019 0
M  V30 2130 H 199.691 -6.53728 0.481679 0
M  V30 2131 H 199.211 -5.89515 -1.10597 0
M  V30 2132 H 200.89 -6.41752 -0.822377 0
M  V30 2133 N 201.022 0.148545 -1.56898 0
M  V30 2134 C 201.952 1.18524 -2.01182 0
M  V30 2135 C 202.933 1.4489 -0.891123 0
M  V30 2136 O 204.118 1.55836 -1.15882 0
M  V30 2137 C 201.248 2.51879 -2.39112 0
M  V30 2138 C 200.202 2.40038 -3.54353 0
M  V30 2139 C 199.528 3.78089 -3.78091 0
M  V30 2140 C 200.828 1.88577 -4.87069 0
M  V30 2141 H 202.522 0.817029 -2.88036 0
M  V30 2142 H 200.068 0.391575 -1.38574 0
M  V30 2143 H 202.021 3.24627 -2.68692 0
M  V30 2144 H 200.745 2.90532 -1.49193 0
M  V30 2145 H 199.404 1.69742 -3.24936 0
M  V30 2146 H 199.052 4.14175 -2.85426 0
M  V30 2147 H 198.752 3.71028 -4.55645 0
M  V30 2148 H 200.276 4.52387 -4.10095 0
M  V30 2149 H 201.69 2.51117 -5.15377 0
M  V30 2150 H 200.087 1.9241 -5.68417 0
M  V30 2151 H 201.157 0.84136 -4.77545 0
M  V30 2152 N 202.5 1.5196 0.417844 0
M  V30 2153 C 203.463 1.74065 1.49111 0
M  V30 2154 C 204.463 0.610537 1.48758 0
M  V30 2155 O 205.653 0.87832 1.50437 0
M  V30 2156 C 202.785 1.81502 2.88565 0
M  V30 2157 H 203.978 2.69869 1.30807 0
M  V30 2158 H 201.531 1.42244 0.647785 0
M  V30 2159 H 202.266 0.875813 3.1225 0
M  V30 2160 H 202.051 2.63651 2.90225 0
M  V30 2161 H 203.541 2.00376 3.66387 0
M  V30 2162 N 203.978 -0.674533 1.42435 0
M  V30 2163 C 205.224 -1.43521 1.4413 0
M  V30 2164 C 205.579 -1.92316 0.0567773 0
M  V30 2165 O 204.872 -1.68008 -0.921076 0
M  V30 2166 C 205.066 -2.64767 2.40069 0
M  V30 2167 C 204.895 -2.27836 3.87713 0
M  V30 2168 C 203.665 -2.17183 4.56245 0
M  V30 2169 C 205.863 -1.89466 4.78129 0
M  V30 2170 N 203.845 -1.73358 5.88915 0
M  V30 2171 C 205.216 -1.56561 5.99907 0
M  V30 2172 C 207.271 -1.7646 4.65582 0
M  V30 2173 C 205.974 -1.11957 7.10534 0
M  V30 2174 C 208 -1.3326 5.76191 0
M  V30 2175 C 207.362 -1.0128 6.97081 0
M  V30 2176 H 203.461 -0.521656 0.582579 0
M  V30 2177 H 206.045 -0.778381 1.78464 0
M  V30 2178 H 204.216 -3.28139 2.07796 0
M  V30 2179 H 205.948 -3.3136 2.32342 0
M  V30 2180 H 202.703 -2.3626 4.10461 0
M  V30 2181 H 203.127 -1.53867 6.59283 0
M  V30 2182 H 207.769 -1.99831 3.72595 0
M  V30 2183 H 205.487 -0.873318 8.03367 0
M  V30 2184 H 209.073 -1.23717 5.68494 0
M  V30 2185 H 207.953 -0.683597 7.81215 0
M  V30 2186 N 205.456 -1.28612 -0.910864 0
M  V30 2187 C 206.419 -1.12803 -1.9952 0
M  V30 2188 C 207.419 -0.0668264 -1.60661 0
M  V30 2189 O 208.609 -0.312847 -1.71368 0
M  V30 2190 C 205.741 -0.72254 -3.33155 0
M  V30 2191 H 206.934 -2.09109 -2.14973 0
M  V30 2192 H 204.487 -1.11639 -1.09391 0
M  V30 2193 H 205.222 0.241152 -3.23402 0
M  V30 2194 H 205.007 -1.48916 -3.62721 0
M  V30 2195 H 206.497 -0.634666 -4.12749 0
M  V30 2196 N 206.934 1.1197 -1.10907 0
M  V30 2197 C 207.864 2.19928 -0.784473 0
M  V30 2198 C 208.845 1.6833 0.244726 0
M  V30 2199 O 210.03 1.93892 0.109418 0
M  V30 2200 C 207.16 3.46597 -0.220827 0
M  V30 2201 C 206.114 4.11376 -1.18127 0
M  V30 2202 C 205.44 5.32554 -0.478594 0
M  V30 2203 C 206.74 4.56945 -2.52979 0
M  V30 2204 H 208.434 2.47337 -1.68715 0
M  V30 2205 H 205.98 1.18879 -0.812642 0
M  V30 2206 H 207.933 4.21396 0.0184278 0
M  V30 2207 H 206.657 3.1863 0.717113 0
M  V30 2208 H 205.316 3.38564 -1.40606 0
M  V30 2209 H 204.964 5.00856 0.463976 0
M  V30 2210 H 204.664 5.76844 -1.11912 0
M  V30 2211 H 206.188 6.10096 -0.248 0
M  V30 2212 H 207.602 5.23093 -2.3462 0
M  V30 2213 H 205.999 5.1203 -3.12962 0
M  V30 2214 H 207.069 3.70676 -3.12614 0
M  V30 2215 N 208.412 0.89855 1.29475 0
M  V30 2216 C 209.659 0.523882 1.95606 0
M  V30 2217 C 209.987 -0.929608 1.70847 0
M  V30 2218 O 209.242 -1.67401 1.01367 0
M  V30 2219 C 209.541 0.761398 3.49195 0
M  V30 2220 C 209.207 2.19207 3.94029 0
M  V30 2221 C 207.869 2.58326 4.05982 0
M  V30 2222 C 210.221 3.12379 4.17216 0
M  V30 2223 C 207.549 3.898 4.38489 0
M  V30 2224 C 209.901 4.43401 4.51197 0
M  V30 2225 C 208.565 4.82394 4.61359 0
M  V30 2226 H 207.835 0.191702 0.715773 0
M  V30 2227 H 210.482 1.13699 1.54094 0
M  V30 2228 H 208.787 0.0653622 3.91745 0
M  V30 2229 H 210.484 0.450904 3.98457 0
M  V30 2230 H 207.074 1.87846 3.85242 0
M  V30 2231 H 211.258 2.83371 4.07449 0
M  V30 2232 H 206.514 4.19734 4.44559 0
M  V30 2233 H 210.688 5.15623 4.68087 0
M  V30 2234 H 208.315 5.84306 4.86303 0
M  V30 2235 N 209.89 -1.43072 0.660911 0
M  V30 2236 C 211.12 -2.05769 0.185153 0
M  V30 2237 C 211.528 -1.49668 -1.15742 0
M  V30 2238 O 210.871 -0.625649 -1.72717 0
M  V30 2239 C 210.933 -3.59489 0.0278237 0
M  V30 2240 C 210.597 -4.38212 1.2969 0
M  V30 2241 C 211.594 -4.69772 2.22734 0
M  V30 2242 C 209.279 -4.7809 1.54063 0
M  V30 2243 C 211.273 -5.40129 3.38437 0
M  V30 2244 C 208.96 -5.4819 2.70058 0
M  V30 2245 C 209.958 -5.79132 3.62071 0
M  V30 2246 O 209.646 -6.47798 4.76039 0
M  V30 2247 H 209.378 -0.669873 0.0908086 0
M  V30 2248 H 211.932 -1.84436 0.90402 0
M  V30 2249 H 210.162 -3.79426 -0.746489 0
M  V30 2250 H 211.851 -4.03862 -0.406275 0
M  V30 2251 H 212.617 -4.39476 2.05149 0
M  V30 2252 H 208.496 -4.53408 0.833215 0
M  V30 2253 H 212.04 -5.64198 4.10277 0
M  V30 2254 H 207.937 -5.77902 2.87574 0
M  V30 2255 H 208.705 -6.66283 4.75404 0
M  V30 2256 N 211.368 -0.403325 -1.52352 0
M  V30 2257 C 212.298 0.416205 -2.29761 0
M  V30 2258 C 213.279 1.05123 -1.33728 0
M  V30 2259 O 214.464 1.06134 -1.62632 0
M  V30 2260 C 211.594 1.53624 -3.11475 0
M  V30 2261 C 210.548 1.02653 -4.15507 0
M  V30 2262 C 209.874 2.23971 -4.85532 0
M  V30 2263 C 211.174 0.08463 -5.22231 0
M  V30 2264 H 212.868 -0.229701 -2.98518 0
M  V30 2265 H 210.414 -0.111913 -1.43564 0
M  V30 2266 H 212.367 2.1165 -3.64393 0
M  V30 2267 H 211.091 2.20994 -2.40477 0
M  V30 2268 H 209.75 0.46871 -3.63591 0
M  V30 2269 H 209.398 2.89883 -4.11068 0
M  V30 2270 H 209.098 1.90521 -5.55856 0
M  V30 2271 H 210.622 2.82614 -5.41259 0
M  V30 2272 H 212.036 0.573509 -5.70424 0
M  V30 2273 H 210.433 -0.160783 -5.99885 0
M  V30 2274 H 211.503 -0.86237 -4.7717 0
M  V30 2275 N 212.846 1.57033 -0.133567 0
M  V30 2276 C 214.093 1.95686 0.520877 0
M  V30 2277 C 214.421 1.0177 1.6575 0
M  V30 2278 O 213.676 0.0443195 1.9565 0
M  V30 2279 C 213.975 3.40674 1.08057 0
M  V30 2280 C 213.641 4.50855 0.0637899 0
M  V30 2281 C 212.303 4.80716 -0.215757 0
M  V30 2282 C 214.655 5.17398 -0.62835 0
M  V30 2283 C 211.983 5.74433 -1.19348 0
M  V30 2284 C 214.335 6.12167 -1.5948 0
M  V30 2285 C 212.999 6.40414 -1.88218 0
M  V30 2286 H 212.269 0.716067 0.190602 0
M  V30 2287 H 214.916 1.9026 -0.217556 0
M  V30 2288 H 213.221 3.42865 1.89606 0
M  V30 2289 H 214.918 3.67902 1.59529 0
M  V30 2290 H 211.508 4.27605 0.291855 0
M  V30 2291 H 215.692 4.94472 -0.425562 0
M  V30 2292 H 210.948 5.94616 -1.42272 0
M  V30 2293 H 215.122 6.6281 -2.13671 0
M  V30 2294 H 212.749 7.12838 -2.64133 0
M  V30 2295 N 214.325 -0.140222 1.56975 0
M  V30 2296 C 215.55 -0.870414 1.88251 0
M  V30 2297 C 215.975 -1.73637 0.723312 0
M  V30 2298 O 215.333 -1.78329 -0.32689 0
M  V30 2299 C 215.381 -1.69737 3.18154 0
M  V30 2300 O 214.485 -2.80229 3.02565 0
M  V30 2301 H 213.826 -0.242025 0.61832 0
M  V30 2302 H 216.356 -0.128999 2.04193 0
M  V30 2303 H 216.366 -2.09099 3.50345 0
M  V30 2304 H 215.041 -1.06152 4.02125 0
M  V30 2305 H 213.618 -2.44224 2.81796 0
M  V30 2306 N 215.803 -1.52179 -0.40978 0
M  V30 2307 C 217.028 -1.70347 -1.18308 0
M  V30 2308 C 217.453 -0.411887 -1.83535 0
M  V30 2309 O 216.811 0.630587 -1.6998 0
M  V30 2310 C 216.859 -2.83977 -2.22238 0
M  V30 2311 O 215.963 -2.495 -3.28365 0
M  V30 2312 H 215.304 -0.567103 -0.345384 0
M  V30 2313 H 217.834 -1.98879 -0.480445 0
M  V30 2314 H 217.844 -3.0887 -2.66577 0
M  V30 2315 H 216.519 -3.77685 -1.74146 0
M  V30 2316 H 215.096 -2.35277 -2.89308 0
M  V30 2317 N 217.281 0.66697 -1.42791 0
M  V30 2318 C 218.528 1.42699 -1.43678 0
M  V30 2319 C 218.856 1.94419 -0.0560425 0
M  V30 2320 O 218.111 1.7182 0.936831 0
M  V30 2321 C 218.41 2.6349 -2.4147 0
M  V30 2322 C 218.076 2.30267 -3.8767 0
M  V30 2323 C 216.738 2.20918 -4.27491 0
M  V30 2324 C 219.09 2.03435 -4.79858 0
M  V30 2325 C 216.418 1.82873 -5.57471 0
M  V30 2326 C 218.77 1.66892 -6.10188 0
M  V30 2327 C 217.434 1.56058 -6.49001 0
M  V30 2328 H 216.704 0.522171 -0.525755 0
M  V30 2329 H 219.351 0.759785 -1.75783 0
M  V30 2330 H 217.656 3.35279 -2.0272 0
M  V30 2331 H 219.353 3.21684 -2.39417 0
M  V30 2332 H 215.943 2.38449 -3.56146 0
M  V30 2333 H 220.127 2.09586 -4.49875 0
M  V30 2334 H 215.383 1.7306 -5.86396 0
M  V30 2335 H 219.557 1.45157 -6.81104 0
M  V30 2336 H 217.184 1.26348 -7.49627 0
M  V30 2337 N 218.759 1.29093 0.90403 0
M  V30 2338 C 219.987 1.19689 1.68766 0
M  V30 2339 C 220.402 -0.243113 1.87228 0
M  V30 2340 O 219.759 -1.16326 1.40621 0
M  V30 2341 C 219.81 1.90144 3.07453 0
M  V30 2342 O 219.531 3.2852 2.89838 0
M  V30 2343 C 221.032 1.87162 4.01852 0
M  V30 2344 H 218.252 0.415035 0.527244 0
M  V30 2345 H 220.796 1.7039 1.13082 0
M  V30 2346 H 218.951 1.43289 3.59926 0
M  V30 2347 H 219.365 3.63944 3.77684 0
M  V30 2348 H 220.839 2.41032 4.96596 0
M  V30 2349 H 221.316 0.84617 4.30972 0
M  V30 2350 H 221.922 2.33741 3.5531 0
M  V30 2351 N 220.237 -1.11381 1.11499 0
M  V30 2352 C 221.462 -1.87475 0.887019 0
M  V30 2353 C 221.887 -1.79639 -0.557796 0
M  V30 2354 O 221.245 -1.15924 -1.39396 0
M  V30 2355 C 221.293 -3.34213 1.35403 0
M  V30 2356 O 220.397 -4.0903 0.526146 0
M  V30 2357 H 219.738 -0.582099 0.319463 0
M  V30 2358 H 222.268 -1.40785 1.48461 0
M  V30 2359 H 222.278 -3.8506 1.34881 0
M  V30 2360 H 220.953 -3.39232 2.40612 0
M  V30 2361 H 219.53 -3.68082 0.597522 0
M  V30 2362 N 221.715 -0.905404 -1.28997 0
M  V30 2363 C 222.625 -0.392246 -2.31298 0
M  V30 2364 C 223.641 0.515889 -1.66176 0
M  V30 2365 O 224.817 0.404093 -1.97304 0
M  V30 2366 C 221.882 0.36686 -3.44754 0
M  V30 2367 C 220.943 -0.573485 -4.25452 0
M  V30 2368 C 220.176 0.149488 -5.33491 0
M  V30 2369 O 220.399 1.37255 -5.5364 0
M  V30 2370 O 219.333 -0.510919 -5.99728 0
M  V30 2371 H 223.159 -1.2411 -2.77183 0
M  V30 2372 H 220.744 -0.669926 -1.33538 0
M  V30 2373 H 222.626 0.795907 -4.13816 0
M  V30 2374 H 221.301 1.19169 -3.00966 0
M  V30 2375 H 220.208 -1.05176 -3.59011 0
M  V30 2376 H 221.541 -1.36489 -4.72897 0
M  V30 2377 N 223.193 1.4272 -0.668489 0
M  V30 2378 C 224.123 2.335 -0.000100175 0
M  V30 2379 C 225.104 1.50328 0.795964 0
M  V30 2380 O 226.289 1.78949 0.754385 0
M  V30 2381 C 223.419 3.33874 0.956302 0
M  V30 2382 C 222.373 4.27152 0.269278 0
M  V30 2383 C 221.699 5.17684 1.33818 0
M  V30 2384 C 222.999 5.15373 -0.847805 0
M  V30 2385 H 224.693 2.89639 -0.758244 0
M  V30 2386 H 222.239 1.39269 -0.366079 0
M  V30 2387 H 224.192 3.9629 1.43292 0
M  V30 2388 H 222.916 2.76025 1.74579 0
M  V30 2389 H 221.575 3.66123 -0.187042 0
M  V30 2390 H 221.223 4.56165 2.1195 0
M  V30 2391 H 220.923 5.80918 0.883659 0
M  V30 2392 H 222.447 5.82974 1.81586 0
M  V30 2393 H 223.861 5.7151 -0.452681 0
M  V30 2394 H 222.258 5.87407 -1.22773 0
M  V30 2395 H 223.328 4.5415 -1.69929 0
M  V30 2396 N 224.671 0.411399 1.52136 0
M  V30 2397 C 226.082 -0.0576826 1.86611 0
M  V30 2398 C 226.433 -1.44238 1.33003 0
M  V30 2399 O 225.558 -2.05759 0.670228 0
M  V30 2400 C 226.153 -0.111448 3.38617 0
M  V30 2401 C 224.712 -0.52487 3.72723 0
M  V30 2402 C 223.859 0.299176 2.75681 0
M  V30 2403 H 226.81 0.628368 1.4573 0
M  V30 2404 H 226.831 -0.926252 3.69054 0
M  V30 2405 H 226.343 0.896488 3.77604 0
M  V30 2406 H 224.444 -1.53936 3.39315 0
M  V30 2407 H 224.557 -0.267681 4.78352 0
M  V30 2408 H 222.921 -0.238814 2.53578 0
M  V30 2409 H 223.704 1.3055 3.17508 0
M  V30 2410 N 226.149 -1.5696 0.141893 0
M  V30 2411 C 227.395 -1.97034 -0.504884 0
M  V30 2412 C 227.75 -1.02518 -1.62812 0
M  V30 2413 O 227.043 -0.0592943 -1.91508 0
M  V30 2414 C 227.237 -3.41242 -1.06249 0
M  V30 2415 C 227.066 -4.497 0.00519653 0
M  V30 2416 C 225.836 -5.03338 0.444873 0
M  V30 2417 C 228.034 -5.08122 0.794767 0
M  V30 2418 N 226.016 -5.95395 1.49593 0
M  V30 2419 C 227.387 -5.96339 1.69645 0
M  V30 2420 C 229.442 -4.9071 0.843122 0
M  V30 2421 C 228.145 -6.69009 2.64233 0
M  V30 2422 C 230.171 -5.64077 1.77681 0
M  V30 2423 C 229.533 -6.51999 2.66603 0
M  V30 2424 H 225.632 -0.766745 -0.153707 0
M  V30 2425 H 228.216 -1.93273 0.235313 0
M  V30 2426 H 226.387 -3.45606 -1.77231 0
M  V30 2427 H 228.119 -3.68389 -1.67546 0
M  V30 2428 H 224.874 -4.73576 0.0480959 0
M  V30 2429 H 225.298 -6.46128 2.02107 0
M  V30 2430 H 229.94 -4.22459 0.169732 0
M  V30 2431 H 227.658 -7.36492 3.32575 0
M  V30 2432 H 231.244 -5.52602 1.81996 0
M  V30 2433 H 230.124 -7.07775 3.37675 0
M  V30 2434 N 227.627 0.131896 -1.57047 0
M  V30 2435 C 228.855 0.856461 -1.88341 0
M  V30 2436 C 229.27 1.74042 -0.731757 0
M  V30 2437 O 228.627 1.80051 0.297945 0
M  V30 2438 C 228.678 1.70064 -3.18999 0
M  V30 2439 O 228.399 0.852278 -4.2973 0
M  V30 2440 C 229.9 2.53148 -3.63911 0
M  V30 2441 H 227.12 0.246885 -0.62393 0
M  V30 2442 H 229.664 0.120152 -2.04147 0
M  V30 2443 H 227.819 2.38984 -3.04902 0
M  V30 2444 H 228.233 1.43329 -5.04537 0
M  V30 2445 H 229.707 3.07931 -4.58129 0
M  V30 2446 H 230.184 3.29901 -2.89935 0
M  V30 2447 H 230.79 1.89492 -3.80753 0
M  V30 2448 N 229.106 1.52395 0.401703 0
M  V30 2449 C 230.334 1.70676 1.16949 0
M  V30 2450 C 230.749 0.419503 1.8408 0
M  V30 2451 O 230.106 -0.605061 1.72178 0
M  V30 2452 C 230.157 2.84753 2.22706 0
M  V30 2453 O 229.878 4.08495 1.58314 0
M  V30 2454 C 231.379 3.14608 3.12309 0
M  V30 2455 H 228.599 0.571787 0.351142 0
M  V30 2456 H 231.143 1.98987 0.471652 0
M  V30 2457 H 229.298 2.58941 2.88147 0
M  V30 2458 H 229.712 4.72117 2.28485 0
M  V30 2459 H 231.186 3.97923 3.82572 0
M  V30 2460 H 231.663 2.28464 3.75101 0
M  V30 2461 H 232.269 3.42212 2.52529 0
M  V30 2462 N 230.584 -0.659388 1.43143 0
M  V30 2463 C 231.824 -1.43121 1.45931 0
M  V30 2464 C 232.188 -1.91838 0.0789298 0
M  V30 2465 O 233.389 -2.68794 -0.018491 0
M  V30 2466 C 231.66 -2.58534 2.46769 0
M  V30 2467 S 233.219 -3.47154 2.68384 0
M  V30 2468 H 230.037 -0.488624 0.516496 0
M  V30 2469 H 232.639 -0.766128 1.79863 0
M  V30 2470 H 231.343 -2.21007 3.45809 0
M  V30 2471 H 230.874 -3.29898 2.14315 0
M  V30 2472 H 232.889 -4.55051 1.97845 0
M  V30 2473 N 232.062 -1.29571 -0.897171 0
M  V30 2474 C 233.01 -1.14802 -2.02295 0
M  V30 2475 C 234.004 -0.0629637 -1.69283 0
M  V30 2476 O 235.21 -0.222945 -1.78614 0
M  V30 2477 H 231.585 -0.354692 -0.663097 0
M  V30 2478 H 233.556 -2.10108 -2.11889 0
M  V30 2479 C 232.305 -0.843966 -3.37302 0
M  V30 2480 H 231.628 -1.67093 -3.63208 0
M  V30 2481 H 233.068 -0.780672 -4.16751 0
M  V30 2482 C 231.527 0.452843 -3.33843 0
M  V30 2483 O 232.057 1.47813 -3.73516 0
M  V30 2484 N 230.263 0.459601 -2.86943 0
M  V30 2485 H 229.81 -0.375213 -2.54853 0
M  V30 2486 H 229.768 1.32726 -2.85011 0
M  V30 2487 N 233.54 1.10788 -1.12088 0
M  V30 2488 C 234.488 2.19111 -0.780587 0
M  V30 2489 C 235.482 1.67818 0.230961 0
M  V30 2490 O 236.688 1.79777 0.0895427 0
M  V30 2491 H 233.063 0.714477 -0.234578 0
M  V30 2492 H 235.034 2.45055 -1.70266 0
M  V30 2493 C 233.783 3.46818 -0.24747 0
M  V30 2494 H 233.106 3.86646 -1.01712 0
M  V30 2495 H 234.546 4.23973 -0.0476291 0
M  V30 2496 C 233.005 3.20968 1.02378 0
M  V30 2497 O 233.535 3.42298 2.10226 0
M  V30 2498 N 231.741 2.74658 0.949271 0
M  V30 2499 H 231.288 2.57501 0.0715173 0
M  V30 2500 H 231.246 2.57739 1.80049 0
M  V30 2501 N 235.018 0.912232 1.28515 0
M  V30 2502 C 236.265 0.544599 1.95039 0
M  V30 2503 C 236.593 -0.911435 1.71823 0
M  V30 2504 O 235.848 -1.66317 1.03137 0
M  V30 2505 C 236.147 0.798392 3.48368 0
M  V30 2506 C 235.813 2.23374 3.91682 0
M  V30 2507 C 234.475 2.62617 4.03219 0
M  V30 2508 C 236.827 3.16786 4.13879 0
M  V30 2509 C 234.155 3.94429 4.3433 0
M  V30 2510 C 236.507 4.48161 4.46469 0
M  V30 2511 C 235.171 4.8726 4.56217 0
M  V30 2512 H 234.441 0.199283 0.7137 0
M  V30 2513 H 237.088 1.15327 1.52879 0
M  V30 2514 H 235.393 0.106908 3.91654 0
M  V30 2515 H 237.09 0.493141 3.97956 0
M  V30 2516 H 233.68 1.91922 3.83228 0
M  V30 2517 H 237.864 2.87677 4.0442 0
M  V30 2518 H 233.12 4.24426 4.40082 0
M  V30 2519 H 237.294 5.20559 4.62592 0
M  V30 2520 H 234.921 5.89431 4.80078 0
M  V30 2521 N 236.496 -1.42363 0.676048 0
M  V30 2522 C 237.742 -2.02336 0.207809 0
M  V30 2523 C 238.097 -1.52506 -1.17302 0
M  V30 2524 O 237.39 -0.718048 -1.77636 0
M  V30 2525 C 237.584 -3.56929 0.183431 0
M  V30 2526 C 237.413 -4.21762 1.56036 0
M  V30 2527 C 236.183 -4.56881 2.15842 0
M  V30 2528 C 238.381 -4.49267 2.50327 0
M  V30 2529 N 236.363 -5.069 3.46303 0
M  V30 2530 C 237.734 -5.00851 3.65443 0
M  V30 2531 C 239.789 -4.31257 2.48841 0
M  V30 2532 C 238.492 -5.36317 4.79329 0
M  V30 2533 C 240.518 -4.678 3.61824 0
M  V30 2534 C 239.88 -5.19537 4.75668 0
M  V30 2535 H 235.979 -0.772583 0.120993 0
M  V30 2536 H 238.563 -1.73203 0.889306 0
M  V30 2537 H 236.734 -3.85576 -0.467483 0
M  V30 2538 H 238.466 -4.03603 -0.297808 0
M  V30 2539 H 235.221 -4.4268 1.68319 0
M  V30 2540 H 235.645 -5.36338 4.13123 0
M  V30 2541 H 240.287 -3.90511 1.62051 0
M  V30 2542 H 238.005 -5.75995 5.66794 0
M  V30 2543 H 241.591 -4.55541 3.61903 0
M  V30 2544 H 240.471 -5.47287 5.61646 0
M  V30 2545 N 237.974 -0.419461 -1.51915 0
M  V30 2546 C 238.922 0.415502 -2.28859 0
M  V30 2547 C 239.916 1.03674 -1.3397 0
M  V30 2548 O 241.122 0.973757 -1.51387 0
M  V30 2549 H 237.497 0.152786 -0.736315 0
M  V30 2550 H 239.468 -0.254531 -2.97312 0
M  V30 2551 C 238.217 1.51425 -3.12995 0
M  V30 2552 H 237.54 1.04556 -3.85886 0
M  V30 2553 H 238.98 2.07208 -3.6992 0
M  V30 2554 C 237.439 2.48745 -2.27217 0
M  V30 2555 O 237.969 3.52871 -1.9195 0
M  V30 2556 N 236.175 2.19202 -1.90785 0
M  V30 2557 H 235.722 1.34556 -2.19664 0
M  V30 2558 H 235.68 2.84561 -1.33687 0
M  V30 2559 N 239.452 1.56882 -0.150215 0
M  V30 2560 C 240.68 2.00593 0.506948 0
M  V30 2561 C 241.095 1.03033 1.58208 0
M  V30 2562 O 240.452 0.0278396 1.82479 0
M  V30 2563 C 240.503 3.44209 1.10465 0
M  V30 2564 O 240.224 4.3804 0.0724636 0
M  V30 2565 C 241.725 4.03214 1.84211 0
M  V30 2566 H 238.945 0.65795 0.13169 0
M  V30 2567 H 241.489 2.03018 -0.245743 0
M  V30 2568 H 239.644 3.42625 1.80795 0
M  V30 2569 H 240.058 5.22007 0.510793 0
M  V30 2570 H 241.532 5.0569 2.21318 0
M  V30 2571 H 242.009 3.44107 2.72923 0
M  V30 2572 H 242.615 4.08437 1.18572 0
M  V30 2573 N 240.93 -0.123565 1.57115 0
M  V30 2574 C 241.84 -1.17074 2.033 0
M  V30 2575 C 242.856 -1.4561 0.952559 0
M  V30 2576 O 244.032 -1.56817 1.26374 0
M  V30 2577 C 241.097 -2.47857 2.42421 0
M  V30 2578 C 240.158 -2.26758 3.64526 0
M  V30 2579 C 239.391 -3.51305 4.01771 0
M  V30 2580 O 239.614 -4.5843 3.39409 0
M  V30 2581 O 238.548 -3.42578 4.94898 0
M  V30 2582 H 242.374 -0.808555 2.92739 0
M  V30 2583 H 239.959 -0.334027 1.45618 0
M  V30 2584 H 241.841 -3.2492 2.68338 0
M  V30 2585 H 240.516 -2.83558 1.5613 0
M  V30 2586 H 239.423 -1.47569 3.43765 0
M  V30 2587 H 240.756 -1.95963 4.51508 0
M  V30 2588 N 242.408 -1.52605 -0.393616 0
M  V30 2589 C 243.358 -1.73436 -1.48 0
M  V30 2590 C 244.342 -0.588386 -1.49756 0
M  V30 2591 O 245.534 -0.846047 -1.5547 0
M  V30 2592 C 242.663 -1.90247 -2.85764 0
M  V30 2593 C 241.749 -3.10763 -2.88595 0
M  V30 2594 N 242.14 -4.33196 -2.61103 0
M  V30 2595 C 240.438 -3.10914 -3.19763 0
M  V30 2596 C 241.139 -5.1477 -2.70899 0
M  V30 2597 N 240.115 -4.50356 -3.04435 0
M  V30 2598 H 243.917 -2.65727 -1.25563 0
M  V30 2599 H 241.431 -1.5085 -0.601513 0
M  V30 2600 H 243.428 -2.03291 -3.63976 0
M  V30 2601 H 242.088 -0.991663 -3.09186 0
M  V30 2602 H 243.099 -4.61408 -2.35209 0
M  V30 2603 H 239.776 -2.29626 -3.4868 0
M  V30 2604 H 241.166 -6.22355 -2.53227 0
M  V30 2605 N 243.887 0.651787 -1.4349 0
M  V30 2606 C 245.127 1.42345 -1.46688 0
M  V30 2607 C 245.491 1.91793 -0.0891023 0
M  V30 2608 O 246.692 2.688 0.00423594 0
M  V30 2609 C 244.963 2.57221 -2.48137 0
M  V30 2610 S 246.522 3.45725 -2.70221 0
M  V30 2611 H 243.34 0.485878 -0.51908 0
M  V30 2612 H 245.942 0.756578 -1.80267 0
M  V30 2613 H 244.646 2.1917 -3.46976 0
M  V30 2614 H 244.177 3.28757 -2.16061 0
M  V30 2615 H 246.192 4.53996 -2.00255 0
M  V30 2616 N 245.365 1.30045 0.890287 0
M  V30 2617 C 246.593 1.21472 1.67487 0
M  V30 2618 C 247.008 -0.223241 1.87476 0
M  V30 2619 O 246.365 -1.14828 1.41847 0
M  V30 2620 C 246.416 1.93394 3.05419 0
M  V30 2621 O 246.137 3.31576 2.86337 0
M  V30 2622 C 247.638 1.91414 3.99844 0
M  V30 2623 H 244.858 0.420604 0.522813 0
M  V30 2624 H 247.402 1.7158 1.11268 0
M  V30 2625 H 245.557 1.47099 3.58386 0
M  V30 2626 H 245.971 3.67929 3.73802 0
M  V30 2627 H 247.445 2.46285 4.94012 0
M  V30 2628 H 247.922 0.891833 4.3005 0
M  V30 2629 H 248.528 2.37496 3.52811 0
M  V30 2630 N 246.843 -1.10192 1.12674 0
M  V30 2631 C 248.12 -1.78717 0.794965 0
M  V30 2632 C 248.5 -1.98628 -0.714853 0
M  V30 2633 O 247.848 -1.58135 -1.64941 0
M  V30 2634 C 248.058 -3.11546 1.5729 0
M  V30 2635 C 249.406 -3.86382 1.76052 0
M  V30 2636 O 250.43 -3.21274 1.53823 0
M  V30 2637 O 249.289 -5.03246 2.13087 0
M  V30 2638 H 246.383 -0.774702 0.289423 0
M  V30 2639 H 248.929 -1.16819 1.23091 0
M  V30 2640 H 247.701 -2.92489 2.59935 0
M  V30 2641 H 247.324 -3.81164 1.13137 0
M  V30 2642 N 248.321 -0.919034 -1.28029 0
M  V30 2643 C 249.568 -0.554934 -1.94748 0
M  V30 2644 C 249.896 0.90231 -1.72304 0
M  V30 2645 O 249.151 1.65767 -1.04018 0
M  V30 2646 C 249.45 -0.816855 -3.4794 0
M  V30 2647 C 249.116 -2.25448 -3.90492 0
M  V30 2648 C 247.778 -2.64752 -4.01821 0
M  V30 2649 C 250.13 -3.18977 -4.12193 0
M  V30 2650 C 247.458 -3.96727 -4.32232 0
M  V30 2651 C 249.81 -4.50523 -4.44086 0
M  V30 2652 C 248.474 -4.89673 -4.53626 0
M  V30 2653 H 247.744 -0.203065 -0.712633 0
M  V30 2654 H 250.391 -1.16136 -1.52265 0
M  V30 2655 H 248.696 -0.127677 -3.91592 0
M  V30 2656 H 250.393 -0.514238 -3.97689 0
M  V30 2657 H 246.983 -1.93952 -3.82205 0
M  V30 2658 H 251.167 -2.89817 -4.02889 0
M  V30 2659 H 246.423 -4.26754 -4.37825 0
M  V30 2660 H 250.597 -5.23005 -4.59825 0
M  V30 2661 H 248.224 -5.91969 -4.76946 0
M  V30 2662 N 249.799 1.42003 -0.683588 0
M  V30 2663 C 250.729 2.33487 -0.024866 0
M  V30 2664 C 251.71 1.51163 0.779975 0
M  V30 2665 O 252.895 1.79739 0.735362 0
M  V30 2666 C 250.025 3.3487 0.920836 0
M  V30 2667 C 248.979 4.27414 0.223958 0
M  V30 2668 C 248.305 5.19074 1.2832 0
M  V30 2669 C 249.605 5.14445 -0.90242 0
M  V30 2670 H 251.299 2.88819 -0.788921 0
M  V30 2671 H 248.845 1.38873 -0.38083 0
M  V30 2672 H 250.798 3.97787 1.39081 0
M  V30 2673 H 249.522 2.77861 1.71642 0
M  V30 2674 H 248.181 3.65904 -0.225864 0
M  V30 2675 H 247.829 4.58387 2.071 0
M  V30 2676 H 247.529 5.81822 0.821995 0
M  V30 2677 H 249.053 5.84867 1.75392 0
M  V30 2678 H 250.467 5.70998 -0.513272 0
M  V30 2679 H 248.864 5.86072 -1.28997 0
M  V30 2680 H 249.934 4.52322 -1.74737 0
M  V30 2681 N 251.277 0.427512 1.51691 0
M  V30 2682 C 252.225 -0.403359 2.29076 0
M  V30 2683 C 253.219 -1.02962 1.34518 0
M  V30 2684 O 254.425 -0.965715 1.51901 0
M  V30 2685 H 250.8 -0.148879 0.737115 0
M  V30 2686 H 252.771 0.270295 2.97173 0
M  V30 2687 C 251.52 -1.49763 3.13794 0
M  V30 2688 H 250.843 -1.02508 3.86435 0
M  V30 2689 H 252.283 -2.05244 3.71014 0
M  V30 2690 C 250.742 -2.47536 2.28533 0
M  V30 2691 O 251.272 -3.51848 1.93819 0
M  V30 2692 N 249.478 -2.18187 1.91945 0
M  V30 2693 H 249.025 -1.33389 2.20375 0
M  V30 2694 H 248.983 -2.83848 1.35195 0
M  V30 2695 N 252.755 -1.56801 0.158532 0
M  V30 2696 C 253.705 -2.13923 -0.788738 0
M  V30 2697 C 254.689 -1.07006 -1.2016 0
M  V30 2698 O 255.881 -1.33159 -1.1661 0
M  V30 2699 C 253.01 -2.77348 -2.02319 0
M  V30 2700 C 252.096 -3.91404 -1.6329 0
M  V30 2701 N 252.487 -4.9677 -0.951463 0
M  V30 2702 C 250.785 -4.02326 -1.92482 0
M  V30 2703 C 251.486 -5.76698 -0.761221 0
M  V30 2704 N 250.462 -5.27859 -1.29869 0
M  V30 2705 H 254.264 -2.92757 -0.258995 0
M  V30 2706 H 251.778 -1.62344 -0.0426055 0
M  V30 2707 H 253.775 -3.16639 -2.71192 0
M  V30 2708 H 252.435 -1.99991 -2.558 0
M  V30 2709 H 253.446 -5.14284 -0.610928 0
M  V30 2710 H 250.123 -3.36059 -2.47732 0
M  V30 2711 H 251.513 -6.71529 -0.223284 0
M  V30 2712 N 254.233 0.115231 -1.57178 0
M  V30 2713 C 255.458 0.840354 -1.89612 0
M  V30 2714 C 255.883 1.72464 -0.750845 0
M  V30 2715 O 255.241 1.78826 0.298478 0
M  V30 2716 C 255.289 1.64654 -3.20814 0
M  V30 2717 O 254.393 2.7538 -3.06985 0
M  V30 2718 H 253.734 0.232158 -0.622092 0
M  V30 2719 H 256.264 0.0964977 -2.04372 0
M  V30 2720 H 256.274 2.03499 -3.53627 0
M  V30 2721 H 254.949 0.997416 -4.03763 0
M  V30 2722 H 253.526 2.3971 -2.85646 0
M  V30 2723 N 255.711 1.52812 0.385517 0
M  V30 2724 C 256.959 1.67694 1.12797 0
M  V30 2725 C 257.28 0.421115 1.90399 0
M  V30 2726 O 256.55 -0.564551 1.87589 0
M  V30 2727 H 255.13 0.618155 0.419396 0
M  V30 2728 H 257.792 1.89938 0.436972 0
M  V30 2729 H 256.888 2.52896 1.82894 0
M  V30 2730 N 257.189 -0.644168 1.43834 0
M  V30 2731 C 258.152 -1.73857 1.49353 0
M  V30 2732 C 259.152 -1.56315 0.377112 0
M  V30 2733 O 260.342 -1.62048 0.639226 0
M  V30 2734 C 257.474 -3.12819 1.35488 0
M  V30 2735 H 258.667 -1.70342 2.46827 0
M  V30 2736 H 256.22 -0.856652 1.30733 0
M  V30 2737 H 256.955 -3.2194 0.390569 0
M  V30 2738 H 256.74 -3.26958 2.16428 0
M  V30 2739 H 258.23 -3.92606 1.42302 0
M  V30 2740 N 258.668 -1.30515 -0.883378 0
M  V30 2741 C 259.916 -1.19194 -1.63209 0
M  V30 2742 C 260.237 0.253205 -1.93349 0
M  V30 2743 O 259.507 1.17025 -1.57105 0
M  V30 2744 H 258.087 -0.438148 -0.605009 0
M  V30 2745 H 260.749 -1.63663 -1.05832 0
M  V30 2746 H 259.845 -1.75396 -2.58153 0
M  V30 2747 N 260.146 1.09593 -1.13257 0
M  V30 2748 C 261.374 1.855 -0.916378 0
M  V30 2749 C 261.789 1.81069 0.534738 0
M  V30 2750 O 261.146 1.20562 1.37007 0
M  V30 2751 C 261.197 3.33546 -1.39388 0
M  V30 2752 O 260.918 3.37927 -2.78813 0
M  V30 2753 C 262.419 4.26299 -1.21588 0
M  V30 2754 H 259.639 0.585991 -0.326887 0
M  V30 2755 H 262.183 1.38488 -1.5047 0
M  V30 2756 H 260.338 3.77992 -0.848597 0
M  V30 2757 H 260.752 4.30254 -2.9997 0
M  V30 2758 H 262.226 5.28341 -1.59876 0
M  V30 2759 H 262.703 4.38918 -0.157376 0
M  V30 2760 H 263.309 3.87668 -1.7491 0
M  V30 2761 N 261.624 0.925811 1.2754 0
M  V30 2762 C 262.87 0.566092 1.94739 0
M  V30 2763 C 263.203 -0.890057 1.72603 0
M  V30 2764 O 262.478 -1.63467 1.05399 0
M  V30 2765 C 262.761 0.89054 3.48915 0
M  V30 2766 C 262.614 2.4003 3.80402 0
M  V30 2767 C 263.933 0.395101 4.38323 0
M  V30 2768 H 261.052 0.20714 0.707292 0
M  V30 2769 H 263.694 1.15725 1.50691 0
M  V30 2770 H 261.844 0.387452 3.86563 0
M  V30 2771 H 263.516 2.97494 3.52555 0
M  V30 2772 H 261.759 2.85028 3.2702 0
M  V30 2773 H 262.43 2.57785 4.8811 0
M  V30 2774 H 264.906 0.826241 4.07814 0
M  V30 2775 H 263.782 0.651086 5.45025 0
M  V30 2776 H 264.043 -0.704798 4.36446 0
M  V30 2777 N 263.102 -1.41638 0.69111 0
M  V30 2778 C 264.33 -2.05628 0.22909 0
M  V30 2779 C 264.745 -1.51992 -1.11999 0
M  V30 2780 O 264.102 -0.666322 -1.69901 0
M  V30 2781 C 264.153 -3.61084 0.173283 0
M  V30 2782 O 263.874 -4.12735 1.46907 0
M  V30 2783 C 265.375 -4.42213 -0.310266 0
M  V30 2784 H 262.595 -0.662327 0.107534 0
M  V30 2785 H 265.139 -1.81489 0.942438 0
M  V30 2786 H 263.294 -3.84278 -0.490858 0
M  V30 2787 H 263.708 -5.06743 1.35322 0
M  V30 2788 H 265.182 -5.51194 -0.298196 0
M  V30 2789 H 265.659 -4.1799 -1.34838 0
M  V30 2790 H 266.265 -4.24074 0.322716 0
M  V30 2791 N 264.58 -0.43555 -1.51462 0
M  V30 2792 C 265.991 0.0279871 -1.86679 0
M  V30 2793 C 266.342 1.42104 -1.35281 0
M  V30 2794 O 265.467 2.04667 -0.702878 0
M  V30 2795 C 266.062 0.0575626 -3.38751 0
M  V30 2796 C 264.621 0.465507 -3.7351 0
M  V30 2797 C 263.768 -0.342996 -2.75171 0
M  V30 2798 H 266.719 -0.651473 -1.44712 0
M  V30 2799 H 266.74 0.867421 -3.70481 0
M  V30 2800 H 266.252 -0.956448 -3.7613 0
M  V30 2801 H 264.353 1.48519 -3.41721 0
M  V30 2802 H 264.466 0.191546 -4.78717 0
M  V30 2803 H 262.83 0.198442 -2.53926 0
M  V30 2804 H 263.613 -1.35585 -3.15391 0
M  V30 2805 N 266.058 1.56714 -0.166846 0
M  V30 2806 C 267.305 1.96747 0.479252 0
M  V30 2807 C 267.633 1.05263 1.63554 0
M  V30 2808 O 266.888 0.0858098 1.95512 0
M  V30 2809 C 267.187 3.42889 1.00806 0
M  V30 2810 C 266.853 4.50889 -0.0318574 0
M  V30 2811 C 265.515 4.8015 -0.317675 0
M  V30 2812 C 267.867 5.15949 -0.737956 0
M  V30 2813 C 265.195 5.71772 -1.31506 0
M  V30 2814 C 267.547 6.08647 -1.72429 0
M  V30 2815 C 266.211 6.36277 -2.0176 0
M  V30 2816 H 265.481 0.719949 0.175371 0
M  V30 2817 H 268.128 1.89756 -0.257864 0
M  V30 2818 H 266.433 3.4681 1.82291 0
M  V30 2819 H 268.13 3.71203 1.51689 0
M  V30 2820 H 264.72 4.28128 0.201088 0
M  V30 2821 H 268.904 4.93458 -0.530351 0
M  V30 2822 H 264.16 5.91465 -1.54853 0
M  V30 2823 H 268.334 6.58129 -2.27682 0
M  V30 2824 H 265.961 7.07075 -2.79194 0
M  V30 2825 N 267.536 -0.106894 1.57237 0
M  V30 2826 C 268.446 -1.14911 2.0453 0
M  V30 2827 C 269.462 -1.44592 0.96795 0
M  V30 2828 O 270.638 -1.55468 1.2803 0
M  V30 2829 C 267.703 -2.45272 2.45036 0
M  V30 2830 C 266.764 -2.22879 3.66911 0
M  V30 2831 C 265.997 -3.47024 4.05475 0
M  V30 2832 O 266.22 -4.54804 3.44252 0
M  V30 2833 O 265.154 -3.3731 4.98504 0
M  V30 2834 H 268.98 -0.777461 2.9358 0
M  V30 2835 H 266.565 -0.318563 1.45964 0
M  V30 2836 H 268.447 -3.22055 2.71769 0
M  V30 2837 H 267.122 -2.81886 1.59129 0
M  V30 2838 H 266.029 -1.43915 3.45311 0
M  V30 2839 H 267.362 -1.91163 4.53561 0
M  V30 2840 N 269.014 -1.53014 -0.377408 0
M  V30 2841 C 269.962 -1.7927 -1.48206 0
M  V30 2842 C 270.956 -0.661195 -1.55963 0
M  V30 2843 O 272.162 -0.843908 -1.58991 0
M  V30 2844 H 268.537 -0.567425 -0.493491 0
M  V30 2845 H 270.508 -2.71753 -1.2326 0
M  V30 2846 C 269.257 -1.98894 -2.85196 0
M  V30 2847 H 268.58 -2.85395 -2.79981 0
M  V30 2848 H 270.02 -2.21249 -3.61698 0
M  V30 2849 C 268.479 -0.764691 -3.28107 0
M  V30 2850 O 269.009 0.0523226 -4.01666 0
M  V30 2851 N 267.215 -0.591493 -2.84517 0
M  V30 2852 H 266.762 -1.25749 -2.24822 0
M  V30 2853 H 266.72 0.226253 -3.13585 0
M  V30 2854 N 270.492 0.636531 -1.44174 0
M  V30 2855 C 271.739 1.39619 -1.46672 0
M  V30 2856 C 272.067 1.94257 -0.0972691 0
M  V30 2857 O 271.322 1.73768 0.900175 0
M  V30 2858 C 271.621 2.58309 -2.47005 0
M  V30 2859 C 271.287 2.21992 -3.92467 0
M  V30 2860 C 269.949 2.118 -4.32081 0
M  V30 2861 C 272.301 1.9321 -4.84065 0
M  V30 2862 C 269.629 1.71007 -5.61225 0
M  V30 2863 C 271.981 1.53911 -6.13591 0
M  V30 2864 C 270.645 1.42257 -6.52165 0
M  V30 2865 H 269.915 0.510902 -0.536712 0
M  V30 2866 H 272.562 0.722328 -1.77355 0
M  V30 2867 H 270.867 3.30903 -2.09786 0
M  V30 2868 H 272.564 3.16533 -2.46186 0
M  V30 2869 H 269.154 2.30841 -3.61124 0
M  V30 2870 H 273.338 1.99997 -4.54219 0
M  V30 2871 H 268.594 1.60583 -5.89935 0
M  V30 2872 H 272.768 1.30677 -6.8403 0
M  V30 2873 H 270.395 1.10419 -7.52138 0
M  V30 2874 N 271.97 1.30982 0.876444 0
M  V30 2875 C 273.198 1.23242 1.6619 0
M  V30 2876 C 273.613 -0.203345 1.87702 0
M  V30 2877 O 272.97 -1.13317 1.43057 0
M  V30 2878 C 273.021 1.96623 3.03351 0
M  V30 2879 O 272.742 3.34594 2.82804 0
M  V30 2880 C 274.243 1.95644 3.97792 0
M  V30 2881 H 271.463 0.426126 0.518322 0
M  V30 2882 H 274.007 1.7275 1.09442 0
M  V30 2883 H 272.162 1.50892 3.56806 0
M  V30 2884 H 272.576 3.71873 3.69879 0
M  V30 2885 H 274.05 2.51511 4.91372 0
M  V30 2886 H 274.527 0.937395 4.2908 0
M  V30 2887 H 275.133 2.41225 3.50272 0
M  V30 2888 N 273.449 -1.08991 1.13837 0
M  V30 2889 C 274.674 -1.85551 0.926585 0
M  V30 2890 C 275.099 -1.80782 -0.519566 0
M  V30 2891 O 274.457 -1.18855 -1.36906 0
M  V30 2892 C 274.505 -3.31266 1.42462 0
M  V30 2893 O 273.609 -4.07822 0.612789 0
M  V30 2894 H 272.95 -0.575192 0.331738 0
M  V30 2895 H 275.48 -1.37604 1.51414 0
M  V30 2896 H 275.49 -3.82112 1.43019 0
M  V30 2897 H 274.165 -3.34052 2.47754 0
M  V30 2898 H 272.742 -3.66731 0.675463 0
M  V30 2899 N 274.927 -0.932562 -1.27047 0
M  V30 2900 C 276.338 -0.619451 -1.76124 0
M  V30 2901 C 276.689 0.865397 -1.76083 0
M  V30 2902 O 275.814 1.67722 -1.36742 0
M  V30 2903 C 276.409 -1.11771 -3.19832 0
M  V30 2904 C 274.968 -0.855174 -3.66557 0
M  V30 2905 C 274.115 -1.27362 -2.46321 0
M  V30 2906 H 277.066 -1.11181 -1.13245 0
M  V30 2907 H 277.087 -0.46759 -3.77616 0
M  V30 2908 H 276.599 -2.19842 -3.1983 0
M  V30 2909 H 274.7 0.211524 -3.71999 0
M  V30 2910 H 274.813 -1.47613 -4.55793 0
M  V30 2911 H 273.177 -0.692119 -2.45116 0
M  V30 2912 H 273.96 -2.36307 -2.49025 0
M  V30 2913 N 276.405 1.4127 -0.698611 0
M  V30 2914 C 277.651 2.01478 -0.231207 0
M  V30 2915 C 277.984 1.55215 1.16713 0
M  V30 2916 O 277.259 0.764672 1.78838 0
M  V30 2917 C 277.542 3.58912 -0.292281 0
M  V30 2918 C 277.395 4.15293 -1.72778 0
M  V30 2919 C 278.714 4.38736 0.346194 0
M  V30 2920 H 275.833 0.732025 -0.0854878 0
M  V30 2921 H 278.475 1.67977 -0.887906 0
M  V30 2922 H 276.625 3.87582 0.26686 0
M  V30 2923 H 278.297 3.97486 -2.341 0
M  V30 2924 H 276.54 3.7022 -2.26096 0
M  V30 2925 H 277.211 5.24452 -1.72202 0
M  V30 2926 H 279.687 4.15897 -0.130035 0
M  V30 2927 H 278.563 5.48221 0.272932 0
M  V30 2928 H 278.824 4.18425 1.42734 0
M  V30 2929 N 277.883 0.443576 1.51229 0
M  V30 2930 C 278.816 -0.410089 2.24485 0
M  V30 2931 C 279.794 -1.01949 1.26669 0
M  V30 2932 O 280.978 -1.06075 1.55821 0
M  V30 2933 C 278.105 -1.57211 3.00004 0
M  V30 2934 C 277.151 -1.08279 4.12526 0
M  V30 2935 S 277.984 -0.0197476 5.35496 0
M  V30 2936 C 279.14 -1.18629 6.14555 0
M  V30 2937 H 279.373 0.211832 2.96544 0
M  V30 2938 H 276.906 0.228156 1.52705 0
M  V30 2939 H 278.864 -2.23825 3.44111 0
M  V30 2940 H 277.525 -2.16547 2.27522 0
M  V30 2941 H 276.718 -1.95193 4.64667 0
M  V30 2942 H 276.32 -0.494797 3.70713 0
M  V30 2943 H 278.612 -2.10344 6.4402 0
M  V30 2944 H 279.555 -0.70472 7.04584 0
M  V30 2945 H 279.963 -1.42768 5.46148 0
M  V30 2946 N 279.361 -1.56624 0.175154 0
M  V30 2947 C 280.271 -2.21741 -0.766042 0
M  V30 2948 C 281.287 -1.21023 -1.25018 0
M  V30 2949 O 282.463 -1.53697 -1.3015 0
M  V30 2950 C 279.528 -2.84839 -1.97655 0
M  V30 2951 C 278.589 -4.00769 -1.53892 0
M  V30 2952 C 277.822 -4.60849 -2.69173 0
M  V30 2953 O 278.045 -4.19823 -3.86141 0
M  V30 2954 O 276.979 -5.50655 -2.43028 0
M  V30 2955 H 280.805 -3.02738 -0.241585 0
M  V30 2956 H 278.39 -1.49305 -0.053222 0
M  V30 2957 H 280.272 -3.24834 -2.68442 0
M  V30 2958 H 278.947 -2.06836 -2.48999 0
M  V30 2959 H 277.854 -3.65436 -0.80044 0
M  V30 2960 H 279.187 -4.80376 -1.07236 0
M  V30 2961 N 280.839 0.0985539 -1.57292 0
M  V30 2962 C 282.086 0.802678 -1.85912 0
M  V30 2963 C 282.414 1.78901 -0.763186 0
M  V30 2964 O 281.669 1.94178 0.243559 0
M  V30 2965 C 281.968 1.56927 -3.21105 0
M  V30 2966 C 281.634 0.725376 -4.45027 0
M  V30 2967 C 280.296 0.492726 -4.78671 0
M  V30 2968 C 282.648 0.138493 -5.21016 0
M  V30 2969 C 279.976 -0.336727 -5.85733 0
M  V30 2970 C 282.328 -0.678264 -6.28953 0
M  V30 2971 C 280.992 -0.921039 -6.61115 0
M  V30 2972 H 280.262 0.293721 -0.680301 0
M  V30 2973 H 282.909 0.0642841 -1.91392 0
M  V30 2974 H 281.214 2.37914 -3.11294 0
M  V30 2975 H 282.911 2.11841 -3.40477 0
M  V30 2976 H 279.501 0.916815 -4.18679 0
M  V30 2977 H 283.685 0.305404 -4.95359 0
M  V30 2978 H 278.941 -0.533836 -6.09065 0
M  V30 2979 H 283.115 -1.1399 -6.87007 0
M  V30 2980 H 280.742 -1.56556 -7.43905 0
M  V30 2981 N 282.317 1.53212 0.369288 0
M  V30 2982 C 283.563 1.70413 1.11046 0
M  V30 2983 C 283.918 0.448509 1.87099 0
M  V30 2984 O 283.211 -0.558382 1.83283 0
M  V30 2985 C 283.405 2.89101 2.10132 0
M  V30 2986 C 283.234 4.26084 1.43814 0
M  V30 2987 C 282.004 4.90994 1.19384 0
M  V30 2988 C 284.202 5.06754 0.877802 0
M  V30 2989 N 282.184 6.11911 0.49377 0
M  V30 2990 C 283.555 6.1924 0.306891 0
M  V30 2991 C 285.61 4.91814 0.776129 0
M  V30 2992 C 284.313 7.1842 -0.355774 0
M  V30 2993 C 286.339 5.91263 0.127252 0
M  V30 2994 C 285.701 7.03069 -0.432801 0
M  V30 2995 H 281.8 0.676872 0.391623 0
M  V30 2996 H 284.384 1.90603 0.397334 0
M  V30 2997 H 282.555 2.70456 2.78761 0
M  V30 2998 H 284.287 2.95142 2.76899 0
M  V30 2999 H 281.042 4.50074 1.47413 0
M  V30 3000 H 281.466 6.76813 0.159207 0
M  V30 3001 H 286.108 4.05564 1.19489 0
M  V30 3002 H 283.826 8.04264 -0.786499 0
M  V30 3003 H 287.412 5.81779 0.0495613 0
M  V30 3004 H 286.292 7.78702 -0.926958 0
M  V30 3005 N 283.795 -0.628877 1.44509 0
M  V30 3006 C 284.705 -1.7694 1.54044 0
M  V30 3007 C 285.721 -1.68705 0.425987 0
M  V30 3008 O 286.897 -1.89442 0.683656 0
M  V30 3009 C 283.962 -3.13332 1.48405 0
M  V30 3010 C 283.023 -3.33181 2.70719 0
M  V30 3011 C 282.256 -4.63067 2.6534 0
M  V30 3012 O 282.479 -5.44017 1.71469 0
M  V30 3013 O 281.413 -4.85167 3.56226 0
M  V30 3014 H 285.239 -1.71848 2.50403 0
M  V30 3015 H 282.824 -0.790378 1.26781 0
M  V30 3016 H 284.706 -3.94634 1.47791 0
M  V30 3017 H 283.381 -3.1896 0.551898 0
M  V30 3018 H 282.288 -2.51549 2.769 0
M  V30 3019 H 283.621 -3.32416 3.62988 0
M  V30 3020 N 285.273 -1.31445 -0.869486 0
M  V30 3021 C 286.689 -1.10113 -1.15531 0
M  V30 3022 C 286.889 0.128087 -2.01092 0
M  V30 3023 O 285.945 0.817276 -2.38908 0
M  V30 3024 C 287.258 -2.37291 -1.84698 0
M  V30 3025 C 288.806 -2.42906 -1.97397 0
M  V30 3026 C 289.281 -3.69967 -2.69979 0
M  V30 3027 N 290.772 -3.70864 -2.77514 0
M  V30 3028 C 291.507 -4.65875 -3.34287 0
M  V30 3029 N 291.003 -5.71242 -3.91988 0
M  V30 3030 N 292.796 -4.53394 -3.3225 0
M  V30 3031 H 284.947 -2.1028 -0.299347 0
M  V30 3032 H 287.21 -0.927683 -0.195214 0
M  V30 3033 H 286.916 -3.27078 -1.29278 0
M  V30 3034 H 286.79 -2.47125 -2.84972 0
M  V30 3035 H 289.177 -1.53588 -2.51982 0
M  V30 3036 H 289.258 -2.37036 -0.961643 0
M  V30 3037 H 288.902 -4.59652 -2.16062 0
M  V30 3038 H 288.832 -3.73103 -3.7162 0
M  V30 3039 H 291.323 -2.94697 -2.36563 0
M  V30 3040 H 291.636 -6.39817 -4.33421 0
M  V30 3041 H 289.981 -5.75015 -3.90362 0
M  V30 3042 H 293.172 -3.70252 -2.8641 0
M  V30 3043 H 293.345 -5.27617 -3.76197 0
M  V30 3044 N 286.751 1.08385 -1.14413 0
M  V30 3045 C 288.167 1.32844 -0.884563 0
M  V30 3046 C 288.367 1.95841 0.474181 0
M  V30 3047 O 287.423 2.21158 1.21842 0
M  V30 3048 C 288.736 2.22978 -2.01745 0
M  V30 3049 C 290.284 2.36458 -2.05077 0
M  V30 3050 C 290.759 3.29934 -3.1766 0
M  V30 3051 N 292.25 3.37511 -3.17239 0
M  V30 3052 C 292.985 4.09871 -4.0099 0
M  V30 3053 N 292.481 4.84936 -4.94781 0
M  V30 3054 N 294.274 4.05704 -3.89051 0
M  V30 3055 H 286.425 0.658756 -2.01926 0
M  V30 3056 H 288.688 0.352821 -0.879899 0
M  V30 3057 H 288.394 1.83934 -2.99769 0
M  V30 3058 H 288.268 3.23441 -1.94077 0
M  V30 3059 H 290.655 2.7476 -1.0766 0
M  V30 3060 H 290.736 1.35736 -2.16816 0
M  V30 3061 H 290.38 2.92352 -4.15322 0
M  V30 3062 H 290.31 4.30584 -3.03158 0
M  V30 3063 H 292.801 2.83996 -2.49308 0
M  V30 3064 H 293.114 5.37612 -5.55151 0
M  V30 3065 H 291.459 4.83988 -4.98779 0
M  V30 3066 H 294.65 3.46167 -3.15097 0
M  V30 3067 H 294.823 4.61834 -4.54547 0
M  V30 3068 N 288.23 0.939286 1.26551 0
M  V30 3069 C 289.476 0.586715 1.94128 0
M  V30 3070 C 289.809 -0.8717 1.73537 0
M  V30 3071 O 289.084 -1.62339 1.07127 0
M  V30 3072 C 289.367 0.927497 3.4795 0
M  V30 3073 C 289.22 2.44052 3.77834 0
M  V30 3074 C 290.539 0.441569 4.37879 0
M  V30 3075 H 287.658 0.21463 0.705055 0
M  V30 3076 H 290.3 1.17316 1.49455 0
M  V30 3077 H 288.45 0.428431 3.8613 0
M  V30 3078 H 290.122 3.01216 3.4938 0
M  V30 3079 H 288.365 2.8848 3.23978 0
M  V30 3080 H 289.036 2.62947 4.85348 0
M  V30 3081 H 291.512 0.869448 4.06915 0
M  V30 3082 H 290.388 0.708856 5.44304 0
M  V30 3083 H 290.649 -0.658467 4.37169 0
M  V30 3084 N 289.708 -1.40897 0.706093 0
M  V30 3085 C 290.638 -2.33418 0.0620085 0
M  V30 3086 C 291.619 -1.52385 -0.755827 0
M  V30 3087 O 292.804 -1.80886 -0.706674 0
M  V30 3088 C 289.934 -3.36293 -0.867445 0
M  V30 3089 C 288.888 -4.27716 -0.155932 0
M  V30 3090 C 288.214 -5.2105 -1.20046 0
M  V30 3091 C 289.514 -5.12944 0.984149 0
M  V30 3092 H 291.208 -2.87527 0.83477 0
M  V30 3093 H 288.754 -1.38249 0.402875 0
M  V30 3094 H 290.707 -3.99949 -1.32735 0
M  V30 3095 H 289.431 -2.80556 -1.67199 0
M  V30 3096 H 288.09 -3.65498 0.284047 0
M  V30 3097 H 287.738 -4.61624 -1.99781 0
M  V30 3098 H 287.438 -5.83056 -0.729328 0
M  V30 3099 H 288.962 -5.87584 -1.66066 0
M  V30 3100 H 290.376 -5.70109 0.604048 0
M  V30 3101 H 288.773 -5.83945 1.38304 0
M  V30 3102 H 289.843 -4.49485 1.81911 0
M  V30 3103 N 291.186 -0.45159 -1.50991 0
M  V30 3104 C 292.434 0.109857 -2.01801 0
M  V30 3105 C 292.755 1.41958 -1.3369 0
M  V30 3106 O 292.025 1.9003 -0.475951 0
M  V30 3107 H 290.605 0.0435884 -0.745727 0
M  V30 3108 H 293.267 -0.597557 -1.85514 0
M  V30 3109 H 292.363 0.275489 -3.10882 0
M  V30 3110 N 292.664 1.56529 -0.183458 0
M  V30 3111 C 293.913 1.96419 0.458511 0
M  V30 3112 C 294.226 1.0727 1.63562 0
M  V30 3113 O 295.432 1.36893 2.34462 0
M  V30 3114 C 293.888 3.49298 0.867122 0
M  V30 3115 C 293.496 4.47092 -0.285057 0
M  V30 3116 C 295.24 3.97983 1.47683 0
M  V30 3117 C 293.147 5.91225 0.143862 0
M  V30 3118 H 292.077 0.733394 0.175071 0
M  V30 3119 H 294.728 1.81448 -0.273624 0
M  V30 3120 H 293.11 3.59731 1.65559 0
M  V30 3121 H 294.284 4.48383 -1.0625 0
M  V30 3122 H 292.599 4.08535 -0.805503 0
M  V30 3123 H 295.196 5.03134 1.80999 0
M  V30 3124 H 295.539 3.41618 2.37914 0
M  V30 3125 H 296.072 3.90617 0.752562 0
M  V30 3126 H 292.811 6.5149 -0.723974 0
M  V30 3127 H 292.331 5.93214 0.886413 0
M  V30 3128 H 294.01 6.44362 0.583628 0
M  V30 3129 N 294.142 -0.090211 1.57342 0
M  V30 3130 C 295.37 -0.806224 1.90546 0
M  V30 3131 C 295.785 -1.72041 0.777644 0
M  V30 3132 O 295.142 -1.80778 -0.250103 0
M  V30 3133 C 295.193 -1.61546 3.23396 0
M  V30 3134 O 294.914 -0.738043 4.31839 0
M  V30 3135 C 296.415 -2.4341 3.70495 0
M  V30 3136 H 293.635 -0.230256 0.630257 0
M  V30 3137 H 296.179 -0.0659843 2.04394 0
M  V30 3138 H 294.334 -2.30816 3.11131 0
M  V30 3139 H 294.748 -1.29901 5.08159 0
M  V30 3140 H 296.222 -2.95676 4.66133 0
M  V30 3141 H 296.699 -3.22098 2.98579 0
M  V30 3142 H 297.305 -1.79331 3.85643 0
M  V30 3143 N 295.62 -1.53406 -0.361157 0
M  V30 3144 C 296.845 -1.74024 -1.12829 0
M  V30 3145 C 297.27 -0.470069 -1.82132 0
M  V30 3146 O 296.628 0.57619 -1.719 0
M  V30 3147 C 296.676 -2.90903 -2.13091 0
M  V30 3148 O 295.78 -2.59821 -3.20261 0
M  V30 3149 H 295.121 -0.577804 -0.327168 0
M  V30 3150 H 297.651 -2.00307 -0.41693 0
M  V30 3151 H 297.661 -3.17194 -2.56616 0
M  V30 3152 H 296.336 -3.83034 -1.62042 0
M  V30 3153 H 294.913 -2.44362 -2.81677 0
M  V30 3154 N 297.098 0.621204 -1.44841 0
M  V30 3155 C 298.346 1.37783 -1.47852 0
M  V30 3156 C 298.667 1.94653 -0.116224 0
M  V30 3157 O 297.937 1.76367 0.852737 0
M  V30 3158 H 296.517 0.511453 -0.544449 0
M  V30 3159 H 299.179 0.730446 -1.80694 0
M  V30 3160 H 298.275 2.20414 -2.20961 0
M  V30 3161 N 298.576 1.31904 0.862503 0
M  V30 3162 C 299.825 1.21373 1.61094 0
M  V30 3163 C 300.138 -0.22504 1.94301 0
M  V30 3164 O 301.344 -0.452121 2.67709 0
M  V30 3165 C 299.8 2.12525 2.9045 0
M  V30 3166 C 299.408 3.61441 2.64697 0
M  V30 3167 C 301.152 2.10813 3.68454 0
M  V30 3168 C 299.059 4.44578 3.90006 0
M  V30 3169 H 297.989 0.450705 0.604468 0
M  V30 3170 H 300.64 1.56811 0.953027 0
M  V30 3171 H 299.022 1.69994 3.57656 0
M  V30 3172 H 300.196 4.12264 2.05851 0
M  V30 3173 H 298.511 3.65205 2.00036 0
M  V30 3174 H 301.108 2.70167 4.61426 0
M  V30 3175 H 301.451 1.09713 4.01583 0
M  V30 3176 H 301.984 2.51583 3.08141 0
M  V30 3177 H 298.723 5.46461 3.62023 0
M  V30 3178 H 298.243 3.98508 4.48276 0
M  V30 3179 H 299.922 4.57176 4.5782 0
M  V30 3180 N 300.054 -1.07777 1.14986 0
M  V30 3181 C 301.004 -2.13082 0.811181 0
M  V30 3182 C 301.988 -1.59619 -0.202597 0
M  V30 3183 O 303.18 -1.77 -0.00398275 0
M  V30 3184 C 300.309 -3.42009 0.297439 0
M  V30 3185 C 299.395 -4.02337 1.34112 0
M  V30 3186 N 299.786 -4.36982 2.54716 0
M  V30 3187 C 298.084 -4.29752 1.19285 0
M  V30 3188 C 298.785 -4.84729 3.21578 0
M  V30 3189 N 297.761 -4.83233 2.48972 0
M  V30 3190 H 301.563 -2.37696 1.72853 0
M  V30 3191 H 299.077 -1.25173 1.03468 0
M  V30 3192 H 301.074 -4.16884 0.0364777 0
M  V30 3193 H 299.734 -3.18841 -0.614022 0
M  V30 3194 H 300.745 -4.27807 2.91894 0
M  V30 3195 H 297.422 -4.16106 0.340926 0
M  V30 3196 H 298.812 -5.20863 4.24442 0
M  V30 3197 N 301.532 -0.945985 -1.26051 0
M  V30 3198 C 302.809 -0.513816 -1.88731 0
M  V30 3199 C 303.189 1.00872 -1.8544 0
M  V30 3200 O 302.537 1.8708 -1.312 0
M  V30 3201 C 302.747 -1.08062 -3.31849 0
M  V30 3202 C 304.095 -1.1522 -4.08668 0
M  V30 3203 O 305.119 -1.03155 -3.40936 0
M  V30 3204 O 303.978 -1.34044 -5.29806 0
M  V30 3205 H 301.072 -0.168193 -0.809716 0
M  V30 3206 H 303.618 -1.03886 -1.34186 0
M  V30 3207 H 302.39 -2.1241 -3.2863 0
M  V30 3208 H 302.013 -0.538307 -3.93939 0
M  V30 3209 N 303.011 1.40521 -0.713556 0
M  V30 3210 C 303.941 2.33381 -0.0743864 0
M  V30 3211 C 304.922 1.52784 0.747735 0
M  V30 3212 O 306.107 1.81258 0.697071 0
M  V30 3213 C 303.237 3.36748 0.849598 0
M  V30 3214 C 302.191 4.27793 0.133247 0
M  V30 3215 C 301.517 5.21679 1.17281 0
M  V30 3216 C 302.817 5.12415 -1.01134 0
M  V30 3217 H 304.511 2.87081 -0.850007 0
M  V30 3218 H 302.057 1.38034 -0.410201 0
M  V30 3219 H 304.01 4.00648 1.30612 0
M  V30 3220 H 302.734 2.81439 1.65709 0
M  V30 3221 H 301.393 3.65342 -0.303426 0
M  V30 3222 H 301.041 4.62677 1.9733 0
M  V30 3223 H 300.741 5.83435 0.698397 0
M  V30 3224 H 302.265 5.88456 1.62947 0
M  V30 3225 H 303.679 5.69781 -0.634274 0
M  V30 3226 H 302.076 5.83203 -1.41399 0
M  V30 3227 H 303.146 4.48514 -1.84292 0
M  V30 3228 N 304.489 0.459591 1.5075 0
M  V30 3229 C 305.737 -0.0991532 2.01857 0
M  V30 3230 C 306.058 -1.41247 1.34441 0
M  V30 3231 O 305.328 -1.89775 0.486022 0
M  V30 3232 H 303.908 -0.039633 0.745948 0
M  V30 3233 H 306.57 0.607387 1.85194 0
M  V30 3234 H 305.666 -0.258998 3.11023 0
M  V30 3235 N 305.967 -1.56429 0.191757 0
M  V30 3236 C 307.192 -2.02309 -0.456706 0
M  V30 3237 C 307.617 -1.07103 -1.5463 0
M  V30 3238 O 306.975 -0.0539677 -1.8122 0
M  V30 3239 C 307.023 -3.46654 -0.993159 0
M  V30 3240 O 306.127 -3.54559 -2.10622 0
M  V30 3241 H 305.468 -0.655303 -0.107114 0
M  V30 3242 H 307.998 -2.02364 0.301653 0
M  V30 3243 H 308.008 -3.86377 -1.31061 0
M  V30 3244 H 306.683 -4.1544 -0.195504 0
M  V30 3245 H 305.26 -3.26708 -1.79767 0
M  V30 3246 N 307.445 0.0818655 -1.57387 0
M  V30 3247 C 308.375 1.09885 -2.06028 0
M  V30 3248 C 309.356 1.4098 -0.951774 0
M  V30 3249 O 310.541 1.50781 -1.22387 0
M  V30 3250 C 307.671 2.4151 -2.4958 0
M  V30 3251 C 306.625 2.24792 -3.64215 0
M  V30 3252 C 305.951 3.61712 -3.93787 0
M  V30 3253 C 307.251 1.67749 -4.94629 0
M  V30 3254 H 308.945 0.694128 -2.91243 0
M  V30 3255 H 306.491 0.332448 -1.4011 0
M  V30 3256 H 308.444 3.12939 -2.82219 0
M  V30 3257 H 307.168 2.83943 -1.61381 0
M  V30 3258 H 305.827 1.55807 -3.31843 0
M  V30 3259 H 305.475 4.01697 -3.02735 0
M  V30 3260 H 305.175 3.51368 -4.70971 0
M  V30 3261 H 306.699 4.34587 -4.28913 0
M  V30 3262 H 308.113 2.29032 -5.25564 0
M  V30 3263 H 306.51 1.68128 -5.76067 0
M  V30 3264 H 307.58 0.638059 -4.80684 0
M  V30 3265 N 308.923 1.53595 0.353017 0
M  V30 3266 C 310.339 1.43648 0.695516 0
M  V30 3267 C 310.539 0.585617 1.92802 0
M  V30 3268 O 309.595 0.0729223 2.52395 0
M  V30 3269 C 310.908 2.8701 0.896991 0
M  V30 3270 C 312.456 2.96723 0.996209 0
M  V30 3271 C 312.931 4.41173 1.23007 0
M  V30 3272 N 314.422 4.44657 1.29749 0
M  V30 3273 C 315.157 5.53547 1.49577 0
M  V30 3274 N 314.653 6.72461 1.66639 0
M  V30 3275 N 316.446 5.41145 1.52048 0
M  V30 3276 H 308.597 2.07415 -0.457481 0
M  V30 3277 H 310.86 0.9372 -0.142687 0
M  V30 3278 H 310.566 3.51644 0.0629938 0
M  V30 3279 H 310.44 3.31401 1.80148 0
M  V30 3280 H 312.827 2.32235 1.82074 0
M  V30 3281 H 312.908 2.55707 0.0688331 0
M  V30 3282 H 312.552 5.06238 0.410505 0
M  V30 3283 H 312.482 4.79772 2.17086 0
M  V30 3284 H 314.973 3.58963 1.18126 0
M  V30 3285 H 315.286 7.51214 1.81378 0
M  V30 3286 H 313.631 6.75423 1.63794 0
M  V30 3287 H 316.822 4.47205 1.38294 0
M  V30 3288 H 316.995 6.26068 1.67159 0
M  V30 3289 N 310.401 -0.613514 1.45168 0
M  V30 3290 C 311.647 -1.37279 1.50087 0
M  V30 3291 C 312.002 -1.91902 0.138294 0
M  V30 3292 O 311.295 -1.71764 -0.84899 0
M  V30 3293 C 311.489 -2.54347 2.51083 0
M  V30 3294 C 311.318 -2.11186 3.97027 0
M  V30 3295 C 310.088 -1.97636 4.65046 0
M  V30 3296 C 312.286 -1.69016 4.85735 0
M  V30 3297 N 310.268 -1.48224 5.95737 0
M  V30 3298 C 311.639 -1.30976 6.06008 0
M  V30 3299 C 313.694 -1.56555 4.72647 0
M  V30 3300 C 312.397 -0.817197 7.14643 0
M  V30 3301 C 314.423 -1.08702 5.81324 0
M  V30 3302 C 313.785 -0.716233 7.00749 0
M  V30 3303 H 309.884 -0.496478 0.60418 0
M  V30 3304 H 312.468 -0.701988 1.81605 0
M  V30 3305 H 310.639 -3.19031 2.21527 0
M  V30 3306 H 312.371 -3.21208 2.46187 0
M  V30 3307 H 309.126 -2.18638 4.20112 0
M  V30 3308 H 309.55 -1.25767 6.65216 0
M  V30 3309 H 314.192 -1.83849 3.80736 0
M  V30 3310 H 311.91 -0.531797 8.06348 0
M  V30 3311 H 315.496 -0.994943 5.7323 0
M  V30 3312 H 314.376 -0.351642 7.83411 0
M  V30 3313 N 311.879 -1.3236 -0.855495 0
M  V30 3314 C 312.789 -1.23221 -1.99634 0
M  V30 3315 C 313.805 -0.145983 -1.73387 0
M  V30 3316 O 314.981 -0.366502 -1.98037 0
M  V30 3317 C 312.046 -0.954782 -3.33294 0
M  V30 3318 C 311.107 -2.12937 -3.72769 0
M  V30 3319 C 310.34 -1.86508 -5.00051 0
M  V30 3320 O 310.563 -0.807231 -5.64659 0
M  V30 3321 O 309.497 -2.72591 -5.36636 0
M  V30 3322 H 313.323 -2.19126 -2.1028 0
M  V30 3323 H 310.908 -1.12241 -0.986018 0
M  V30 3324 H 312.79 -0.816519 -4.13414 0
M  V30 3325 H 311.465 -0.0258854 -3.2369 0
M  V30 3326 H 310.372 -2.3231 -2.93228 0
M  V30 3327 H 311.705 -3.04102 -3.87018 0
M  V30 3328 N 313.357 1.07166 -1.15556 0
M  V30 3329 C 314.287 2.16403 -0.877046 0
M  V30 3330 C 315.268 1.69217 0.173111 0
M  V30 3331 O 316.453 1.94181 0.027084 0
M  V30 3332 C 313.583 3.45349 -0.367632 0
M  V30 3333 C 312.537 4.05995 -1.35468 0
M  V30 3334 C 311.863 5.30045 -0.704038 0
M  V30 3335 C 313.163 4.45804 -2.72132 0
M  V30 3336 H 314.857 2.39959 -1.79053 0
M  V30 3337 H 312.403 1.15325 -0.862331 0
M  V30 3338 H 314.356 4.21095 -0.160317 0
M  V30 3339 H 313.08 3.21385 0.581326 0
M  V30 3340 H 311.739 3.32296 -1.54839 0
M  V30 3341 H 311.387 5.02373 0.251128 0
M  V30 3342 H 311.087 5.71579 -1.36277 0
M  V30 3343 H 312.611 6.08495 -0.50654 0
M  V30 3344 H 314.025 5.12671 -2.56595 0
M  V30 3345 H 312.422 4.98296 -3.34397 0
M  V30 3346 H 313.492 3.57083 -3.28054 0
M  V30 3347 N 314.835 0.952656 1.25548 0
M  V30 3348 C 315.798 0.475794 2.24207 0
M  V30 3349 C 316.798 -0.419428 1.55234 0
M  V30 3350 O 317.988 -0.216994 1.72843 0
M  V30 3351 C 315.12 -0.312814 3.39462 0
M  V30 3352 H 316.313 1.34779 2.67908 0
M  V30 3353 H 313.866 0.735739 1.37901 0
M  V30 3354 H 314.601 -1.20257 3.01179 0
M  V30 3355 H 314.386 0.329404 3.90714 0
M  V30 3356 H 315.876 -0.635986 4.12729 0
M  V30 3357 N 316.313 -1.40141 0.720998 0
M  V30 3358 C 317.243 -2.33339 0.0867621 0
M  V30 3359 C 318.224 -1.53178 -0.739622 0
M  V30 3360 O 319.409 -1.81625 -0.687449 0
M  V30 3361 C 316.539 -3.37194 -0.831728 0
M  V30 3362 C 315.493 -4.27857 -0.110558 0
M  V30 3363 C 314.819 -5.22294 -1.14513 0
M  V30 3364 C 316.119 -5.11872 1.0385 0
M  V30 3365 H 317.813 -2.86626 0.865219 0
M  V30 3366 H 315.359 -1.37814 0.417516 0
M  V30 3367 H 317.312 -4.01335 -1.28485 0
M  V30 3368 H 316.036 -2.82314 -1.64214 0
M  V30 3369 H 314.695 -3.65176 0.322797 0
M  V30 3370 H 314.343 -4.63717 -1.94874 0
M  V30 3371 H 314.043 -5.83797 -0.667446 0
M  V30 3372 H 315.567 -5.89312 -1.59824 0
M  V30 3373 H 316.981 -5.69436 0.664482 0
M  V30 3374 H 315.378 -5.82445 1.4449 0
M  V30 3375 H 316.448 -4.4753 1.86668 0
M  V30 3376 N 317.792 -0.46758 -1.50504 0
M  V30 3377 C 319.032 0.0874114 -2.04213 0
M  V30 3378 C 319.396 1.37301 -1.34211 0
M  V30 3379 O 320.597 2.01015 -1.78456 0
M  V30 3380 C 318.868 0.270571 -3.56374 0
M  V30 3381 S 320.427 0.784623 -4.31728 0
M  V30 3382 H 317.245 0.0176153 -0.710782 0
M  V30 3383 H 319.847 -0.633915 -1.84937 0
M  V30 3384 H 318.551 -0.670942 -4.04878 0
M  V30 3385 H 318.082 1.01811 -3.79997 0
M  V30 3386 H 320.097 2.05849 -4.51487 0
M  V30 3387 N 319.27 1.56325 -0.20005 0
M  V30 3388 C 320.2 2.22318 0.713916 0
M  V30 3389 C 321.181 1.18788 1.21752 0
M  V30 3390 O 322.366 1.47309 1.26545 0
M  V30 3391 C 319.496 2.88639 1.93144 0
M  V30 3392 C 318.45 3.98457 1.56255 0
M  V30 3393 C 317.776 4.51967 2.85709 0
M  V30 3394 C 319.076 5.16612 0.768747 0
M  V30 3395 H 320.77 2.98952 0.163755 0
M  V30 3396 H 318.316 1.43792 0.0773219 0
M  V30 3397 H 320.269 3.33491 2.57608 0
M  V30 3398 H 318.993 2.09419 2.50621 0
M  V30 3399 H 317.652 3.54305 0.941471 0
M  V30 3400 H 317.3 3.69503 3.41287 0
M  V30 3401 H 317 5.26071 2.6177 0
M  V30 3402 H 318.524 4.99523 3.51154 0
M  V30 3403 H 319.938 5.57977 1.3166 0
M  V30 3404 H 318.335 5.96812 0.627286 0
M  V30 3405 H 319.405 4.84358 -0.229168 0
M  V30 3406 N 320.748 -0.0735177 1.57428 0
M  V30 3407 C 321.678 -1.0879 2.06608 0
M  V30 3408 C 322.659 -1.40473 0.959237 0
M  V30 3409 O 323.844 -1.5013 1.23185 0
M  V30 3410 C 320.974 -2.40183 2.50857 0
M  V30 3411 C 319.928 -2.22858 3.65402 0
M  V30 3412 C 319.254 -3.59619 3.957 0
M  V30 3413 C 320.554 -1.65123 4.95511 0
M  V30 3414 H 322.248 -0.678673 2.91607 0
M  V30 3415 H 319.794 -0.325013 1.40284 0
M  V30 3416 H 321.747 -3.11437 2.83874 0
M  V30 3417 H 320.471 -2.83083 1.62885 0
M  V30 3418 H 319.13 -1.54045 3.32664 0
M  V30 3419 H 318.778 -4.00086 3.04861 0
M  V30 3420 H 318.478 -3.48866 4.72828 0
M  V30 3421 H 320.002 -4.32306 4.31212 0
M  V30 3422 H 321.416 -2.26241 5.26771 0
M  V30 3423 H 319.813 -1.65071 5.7695 0
M  V30 3424 H 320.883 -0.612559 4.81015 0
M  V30 3425 N 322.226 -1.5378 -0.344866 0
M  V30 3426 C 323.156 -1.84662 -1.42906 0
M  V30 3427 C 324.137 -0.701648 -1.54955 0
M  V30 3428 O 325.322 -0.953438 -1.69184 0
M  V30 3429 C 322.452 -2.05503 -2.79974 0
M  V30 3430 C 321.406 -3.21318 -2.82734 0
M  V30 3431 C 320.732 -3.2749 -4.22675 0
M  V30 3432 C 322.032 -4.59456 -2.48389 0
M  V30 3433 H 323.726 -2.75461 -1.17311 0
M  V30 3434 H 321.272 -1.32542 -0.562896 0
M  V30 3435 H 323.225 -2.25691 -3.55867 0
M  V30 3436 H 321.949 -1.11434 -3.07002 0
M  V30 3437 H 320.608 -3.00984 -2.09294 0
M  V30 3438 H 320.256 -2.31019 -4.4681 0
M  V30 3439 H 319.956 -4.05316 -4.25433 0
M  V30 3440 H 321.48 -3.49887 -5.00412 0
M  V30 3441 H 322.894 -4.79667 -3.13995 0
M  V30 3442 H 321.291 -5.39675 -2.62432 0
M  V30 3443 H 322.361 -4.63155 -1.4358 0
M  V30 3444 N 323.704 0.605807 -1.45491 0
M  V30 3445 C 324.667 1.69836 -1.5391 0
M  V30 3446 C 325.667 1.55261 -0.418424 0
M  V30 3447 O 326.857 1.60296 -0.681965 0
M  V30 3448 C 323.989 3.09117 -1.43734 0
M  V30 3449 H 325.182 1.63738 -2.51257 0
M  V30 3450 H 322.735 0.821689 -1.32959 0
M  V30 3451 H 323.47 3.20791 -0.475788 0
M  V30 3452 H 323.255 3.21104 -2.25021 0
M  V30 3453 H 324.745 3.88696 -1.52661 0
M  V30 3454 N 325.182 1.32811 0.848464 0
M  V30 3455 C 326.428 1.24917 1.60522 0
M  V30 3456 C 326.783 -0.185761 1.91501 0
M  V30 3457 O 326.076 -1.12524 1.55077 0
M  V30 3458 C 326.27 2.04831 2.92881 0
M  V30 3459 C 326.099 3.55949 2.74828 0
M  V30 3460 C 324.869 4.25277 2.72887 0
M  V30 3461 C 327.067 4.50476 2.48145 0
M  V30 3462 N 325.049 5.62408 2.46111 0
M  V30 3463 C 326.42 5.75427 2.30832 0
M  V30 3464 C 328.475 4.39665 2.33664 0
M  V30 3465 C 327.178 6.90789 2.00508 0
M  V30 3466 C 329.204 5.54833 2.04731 0
M  V30 3467 C 328.566 6.78787 1.88223 0
M  V30 3468 H 324.665 0.512279 0.590842 0
M  V30 3469 H 327.249 1.67246 0.996839 0
M  V30 3470 H 325.42 1.64837 3.51686 0
M  V30 3471 H 327.152 1.88782 3.57971 0
M  V30 3472 H 323.907 3.77456 2.86049 0
M  V30 3473 H 324.331 6.3467 2.35634 0
M  V30 3474 H 328.973 3.44477 2.45144 0
M  V30 3475 H 326.691 7.85984 1.87765 0
M  V30 3476 H 330.277 5.48398 1.94295 0
M  V30 3477 H 329.157 7.66396 1.66155 0
M  V30 3478 N 326.66 -1.06551 1.16123 0
M  V30 3479 C 327.906 -1.79567 0.94252 0
M  V30 3480 C 328.239 -1.86869 -0.528547 0
M  V30 3481 O 327.514 -1.35838 -1.39206 0
M  V30 3482 C 327.797 -3.24195 1.56747 0
M  V30 3483 C 327.65 -3.24989 3.10969 0
M  V30 3484 C 328.969 -4.21678 1.25998 0
M  V30 3485 H 326.088 -0.651883 0.343828 0
M  V30 3486 H 328.73 -1.2463 1.43413 0
M  V30 3487 H 326.88 -3.71107 1.14942 0
M  V30 3488 H 328.552 -2.86258 3.61737 0
M  V30 3489 H 326.795 -2.63716 3.44436 0
M  V30 3490 H 327.466 -4.27005 3.49815 0
M  V30 3491 H 329.942 -3.83196 1.62174 0
M  V30 3492 H 328.818 -5.21146 1.7233 0
M  V30 3493 H 329.079 -4.4174 0.178367 0
M  V30 3494 N 328.138 -0.959301 -1.25041 0
M  V30 3495 C 329.387 -0.612254 -1.92183 0
M  V30 3496 C 329.7 0.855347 -1.75907 0
M  V30 3497 O 330.906 1.31256 -2.37664 0
M  V30 3498 C 329.362 -1.04435 -3.44414 0
M  V30 3499 C 328.97 -2.53482 -3.69393 0
M  V30 3500 C 330.714 -0.770055 -4.17457 0
M  V30 3501 C 328.621 -2.90468 -5.15153 0
M  V30 3502 H 327.551 -0.225279 -0.719559 0
M  V30 3503 H 330.202 -1.16438 -1.41825 0
M  V30 3504 H 328.584 -0.4206 -3.9376 0
M  V30 3505 H 329.758 -3.20916 -3.30681 0
M  V30 3506 H 328.073 -2.78432 -3.0962 0
M  V30 3507 H 330.67 -1.02249 -5.24832 0
M  V30 3508 H 331.013 0.293611 -4.15263 0
M  V30 3509 H 331.546 -1.35437 -3.74034 0
M  V30 3510 H 328.285 -3.95871 -5.22462 0
M  V30 3511 H 327.805 -2.27711 -5.54894 0
M  V30 3512 H 329.484 -2.79914 -5.83315 0
M  V30 3513 N 329.616 1.39756 -0.72842 0
M  V30 3514 C 330.856 2.025 -0.278078 0
M  V30 3515 C 331.22 1.5654 1.11173 0
M  V30 3516 O 332.421 2.11435 1.65978 0
M  V30 3517 C 330.692 3.55489 -0.369139 0
M  V30 3518 S 332.251 4.388 0.00232983 0
M  V30 3519 H 329.069 0.702534 -0.109391 0
M  V30 3520 H 331.671 1.70672 -0.95348 0
M  V30 3521 H 330.375 3.86429 -1.38204 0
M  V30 3522 H 329.906 3.92061 0.324308 0
M  V30 3523 H 331.921 4.80954 1.22055 0
M  V30 3524 N 331.094 0.475555 1.50254 0
M  V30 3525 C 332.324 -0.0753399 2.06463 0
M  V30 3526 C 332.732 -1.33661 1.33908 0
M  V30 3527 O 332.075 -1.79219 0.403257 0
M  V30 3528 C 332.137 -0.424921 3.5698 0
M  V30 3529 C 331.801 0.734965 4.51051 0
M  V30 3530 C 332.798 1.61827 4.94073 0
M  V30 3531 C 330.483 0.926557 4.9368 0
M  V30 3532 C 332.477 2.67754 5.78434 0
M  V30 3533 C 330.164 1.98904 5.77824 0
M  V30 3534 C 331.162 2.8629 6.20103 0
M  V30 3535 O 330.85 3.90708 7.02568 0
M  V30 3536 H 330.582 0.00576308 0.675975 0
M  V30 3537 H 333.136 0.664662 1.94349 0
M  V30 3538 H 331.366 -1.21817 3.67012 0
M  V30 3539 H 333.055 -0.911422 3.95535 0
M  V30 3540 H 333.821 1.48196 4.61804 0
M  V30 3541 H 329.7 0.25584 4.6029 0
M  V30 3542 H 333.244 3.35992 6.11355 0
M  V30 3543 H 329.141 2.12541 6.09505 0
M  V30 3544 H 329.909 3.87751 7.20827 0
M  V30 3545 N 332.573 -1.56217 0.208337 0
M  V30 3546 C 333.82 -1.97949 -0.42692 0
M  V30 3547 C 334.148 -1.09562 -1.60706 0
M  V30 3548 O 333.403 -0.137616 -1.95216 0
M  V30 3549 C 333.702 -3.45441 -0.916797 0
M  V30 3550 C 333.368 -4.50646 0.151391 0
M  V30 3551 C 332.03 -4.79139 0.444867 0
M  V30 3552 C 334.382 -5.13811 0.874492 0
M  V30 3553 C 331.71 -5.68084 1.46619 0
M  V30 3554 C 334.062 -6.03861 1.88506 0
M  V30 3555 C 332.726 -6.30704 2.18559 0
M  V30 3556 H 331.996 -0.724345 -0.156221 0
M  V30 3557 H 334.643 -1.89006 0.308084 0
M  V30 3558 H 332.948 -3.51521 -1.73032 0
M  V30 3559 H 334.645 -3.75094 -1.41794 0
M  V30 3560 H 331.235 -4.28511 -0.0875068 0
M  V30 3561 H 335.419 -4.91879 0.660996 0
M  V30 3562 H 330.675 -5.87151 1.7048 0
M  V30 3563 H 334.849 -6.51861 2.45051 0
M  V30 3564 H 332.476 -6.99424 2.97843 0
M  V30 3565 N 334.051 0.0651679 -1.57465 0
M  V30 3566 C 335.291 0.768329 -1.8941 0
M  V30 3567 C 335.655 1.74406 -0.802894 0
M  V30 3568 O 336.856 2.49281 -1.0056 0
M  V30 3569 C 335.127 1.45199 -3.26576 0
M  V30 3570 S 336.686 2.1893 -3.80283 0
M  V30 3571 H 333.504 0.255359 -0.663561 0
M  V30 3572 H 336.106 0.024167 -1.95485 0
M  V30 3573 H 334.81 0.728123 -4.03889 0
M  V30 3574 H 334.341 2.23545 -3.23715 0
M  V30 3575 H 336.356 3.45551 -3.56102 0
M  V30 3576 N 335.529 1.53961 0.336706 0
M  V30 3577 C 336.778 1.70751 1.07363 0
M  V30 3578 C 337.091 0.481061 1.89592 0
M  V30 3579 O 338.297 0.530046 2.66276 0
M  V30 3580 C 336.753 3.01965 1.95818 0
M  V30 3581 C 336.361 4.31971 1.18764 0
M  V30 3582 C 338.105 3.28121 2.69327 0
M  V30 3583 C 336.012 5.54255 2.06289 0
M  V30 3584 H 334.942 0.636292 0.404535 0
M  V30 3585 H 337.593 1.80459 0.332681 0
M  V30 3586 H 335.975 2.86132 2.7376 0
M  V30 3587 H 337.149 4.5853 0.456849 0
M  V30 3588 H 335.464 4.12481 0.569946 0
M  V30 3589 H 338.061 4.16673 3.35094 0
M  V30 3590 H 338.404 2.45426 3.36261 0
M  V30 3591 H 338.937 3.44762 1.98454 0
M  V30 3592 H 335.676 6.39513 1.43885 0
M  V30 3593 H 335.196 5.31935 2.77138 0
M  V30 3594 H 336.875 5.90159 2.65182 0
M  V30 3595 N 337.007 -0.598083 1.45811 0
M  V30 3596 C 338.253 -1.35679 1.51535 0
M  V30 3597 C 338.608 -1.91745 0.15864 0
M  V30 3598 O 337.901 -1.72654 -0.830724 0
M  V30 3599 C 338.095 -2.51669 2.53766 0
M  V30 3600 C 337.924 -2.06963 3.99245 0
M  V30 3601 C 336.694 -1.92693 4.67116 0
M  V30 3602 C 338.892 -1.63855 4.875 0
M  V30 3603 N 336.874 -1.41897 5.97276 0
M  V30 3604 C 338.245 -1.24541 6.07363 0
M  V30 3605 C 340.3 -1.51533 4.74281 0
M  V30 3606 C 339.003 -0.741354 7.15469 0
M  V30 3607 C 341.029 -1.0253 5.82444 0
M  V30 3608 C 340.391 -0.641869 7.01469 0
M  V30 3609 H 336.49 -0.490042 0.609412 0
M  V30 3610 H 339.074 -0.682687 1.82339 0
M  V30 3611 H 337.245 -3.16663 2.24898 0
M  V30 3612 H 338.977 -3.18578 2.4958 0
M  V30 3613 H 335.732 -2.1417 4.22408 0
M  V30 3614 H 336.156 -1.18704 6.66512 0
M  V30 3615 H 340.798 -1.798 3.82664 0
M  V30 3616 H 338.516 -0.446243 8.06867 0
M  V30 3617 H 342.102 -0.934088 5.74253 0
M  V30 3618 H 340.982 -0.268531 7.8374 0
M  V30 3619 N 338.485 -1.33259 -0.841409 0
M  V30 3620 C 339.432 -1.23302 -1.95103 0
M  V30 3621 C 340.402 -0.112204 -1.65721 0
M  V30 3622 O 341.587 -0.290038 -1.88583 0
M  V30 3623 C 338.727 -0.975583 -3.31023 0
M  V30 3624 C 337.84 -2.18243 -3.72819 0
M  V30 3625 C 336.975 -1.85936 -4.97595 0
M  V30 3626 C 336.014 -3.02866 -5.3192 0
M  V30 3627 N 335.151 -2.70565 -6.47873 0
M  V30 3628 H 339.991 -2.18207 -2.02952 0
M  V30 3629 H 337.528 -1.0851 -0.993173 0
M  V30 3630 H 339.486 -0.80677 -4.09325 0
M  V30 3631 H 338.116 -0.0632755 -3.22738 0
M  V30 3632 H 337.168 -2.46107 -2.90061 0
M  V30 3633 H 338.48 -3.05666 -3.94169 0
M  V30 3634 H 337.634 -1.65684 -5.83638 0
M  V30 3635 H 336.373 -0.957452 -4.78209 0
M  V30 3636 H 335.378 -3.23736 -4.44382 0
M  V30 3637 H 336.603 -3.93809 -5.53255 0
M  V30 3638 H 334.549 -1.8293 -6.29978 0
M  V30 3639 H 334.466 -3.51519 -6.69306 0
M  V30 3640 H 335.734 -2.53774 -7.37034 0
M  V30 3641 N 339.963 1.05934 -1.16686 0
M  V30 3642 C 341.211 1.78447 -0.948744 0
M  V30 3643 C 341.532 1.87813 0.524523 0
M  V30 3644 O 340.802 1.38945 1.38098 0
M  V30 3645 H 339.382 0.660971 -0.348033 0
M  V30 3646 H 342.044 1.27947 -1.47022 0
M  V30 3647 H 341.14 2.80394 -1.37061 0
M  V30 3648 N 341.441 0.965919 1.2453 0
M  V30 3649 C 342.687 0.62776 1.92839 0
M  V30 3650 C 343.02 -0.834694 1.75347 0
M  V30 3651 O 342.295 -1.60031 1.10546 0
M  V30 3652 C 342.578 1.00109 3.45905 0
M  V30 3653 C 342.431 2.52011 3.72573 0
M  V30 3654 C 343.75 0.53435 4.36844 0
M  V30 3655 H 340.869 0.229537 0.700344 0
M  V30 3656 H 343.511 1.2046 1.46933 0
M  V30 3657 H 341.661 0.510238 3.85135 0
M  V30 3658 H 343.333 3.08559 3.42912 0
M  V30 3659 H 341.576 2.95287 3.17786 0
M  V30 3660 H 342.247 2.73183 4.79661 0
M  V30 3661 H 344.723 0.955565 4.04979 0
M  V30 3662 H 343.599 0.824152 5.42678 0
M  V30 3663 H 343.86 -0.565589 4.38467 0
M  V30 3664 N 342.919 -1.39368 0.735821 0
M  V30 3665 C 343.866 -2.30599 0.0963825 0
M  V30 3666 C 344.836 -1.49257 -0.728794 0
M  V30 3667 O 346.021 -1.77941 -0.688588 0
M  V30 3668 C 343.161 -3.35596 -0.804305 0
M  V30 3669 C 342.274 -4.31987 0.0335761 0
M  V30 3670 C 341.409 -5.24053 -0.868461 0
M  V30 3671 C 340.448 -6.12095 -0.0258776 0
M  V30 3672 N 339.585 -6.96514 -0.883893 0
M  V30 3673 H 344.425 -2.8471 0.880002 0
M  V30 3674 H 341.962 -1.40188 0.445619 0
M  V30 3675 H 343.92 -3.95062 -1.34096 0
M  V30 3676 H 342.55 -2.82938 -1.55389 0
M  V30 3677 H 341.602 -3.74133 0.68766 0
M  V30 3678 H 342.914 -4.94074 0.685036 0
M  V30 3679 H 342.068 -5.88549 -1.47293 0
M  V30 3680 H 340.807 -4.62289 -1.5537 0
M  V30 3681 H 339.812 -5.4661 0.591386 0
M  V30 3682 H 341.037 -6.75923 0.656156 0
M  V30 3683 H 338.983 -6.37318 -1.55441 0
M  V30 3684 H 338.9 -7.55448 -0.288931 0
M  V30 3685 H 340.168 -7.65439 -1.4739 0
M  V30 3686 N 344.397 -0.483516 -1.5 0
M  V30 3687 C 345.622 0.0667119 -2.07293 0
M  V30 3688 C 346.047 1.3164 -1.3436 0
M  V30 3689 O 345.405 1.76945 -0.394987 0
M  V30 3690 C 345.453 0.321126 -3.59167 0
M  V30 3691 O 344.557 1.39927 -3.87936 0
M  V30 3692 H 343.898 -0.0184758 -0.663743 0
M  V30 3693 H 346.428 -0.678125 -1.93035 0
M  V30 3694 H 346.438 0.557906 -4.04168 0
M  V30 3695 H 345.113 -0.592007 -4.11665 0
M  V30 3696 H 343.69 1.14882 -3.54763 0
M  V30 3697 N 345.875 1.56104 -0.216619 0
M  V30 3698 C 347.103 2.02563 0.421413 0
M  V30 3699 C 347.518 1.0965 1.53695 0
M  V30 3700 O 346.875 0.10521 1.82196 0
M  V30 3701 C 346.926 3.48584 0.957665 0
M  V30 3702 O 346.647 4.37953 -0.113389 0
M  V30 3703 C 348.148 4.10664 1.66943 0
M  V30 3704 H 345.368 0.662944 0.103665 0
M  V30 3705 H 347.912 2.01793 -0.331629 0
M  V30 3706 H 346.067 3.49985 1.661 0
M  V30 3707 H 346.481 5.23704 0.288932 0
M  V30 3708 H 347.955 5.14622 1.99671 0
M  V30 3709 H 348.432 3.55373 2.58083 0
M  V30 3710 H 349.038 4.13098 1.01142 0
M  V30 3711 N 347.353 -0.0568162 1.57498 0
M  V30 3712 C 348.601 -0.751617 1.87604 0
M  V30 3713 C 348.922 -1.77351 0.81066 0
M  V30 3714 O 348.192 -1.95254 -0.159018 0
M  V30 3715 H 346.772 -0.280583 0.692302 0
M  V30 3716 H 349.434 -0.0293483 1.94878 0
M  V30 3717 H 348.53 -1.25852 2.856 0
M  V30 3718 N 348.832 -1.54138 -0.328536 0
M  V30 3719 C 349.779 -1.83176 -1.40411 0
M  V30 3720 C 350.749 -0.678494 -1.5161 0
M  V30 3721 O 351.934 -0.92443 -1.6691 0
M  V30 3722 C 349.074 -2.06035 -2.76846 0
M  V30 3723 C 348.187 -3.33727 -2.74318 0
M  V30 3724 C 347.322 -3.46574 -4.02567 0
M  V30 3725 C 346.361 -4.68159 -3.94327 0
M  V30 3726 N 345.498 -4.77959 -5.14296 0
M  V30 3727 H 350.338 -2.74938 -1.14948 0
M  V30 3728 H 347.875 -1.36166 -0.556538 0
M  V30 3729 H 349.833 -2.1728 -3.56153 0
M  V30 3730 H 348.463 -1.1757 -3.00628 0
M  V30 3731 H 347.515 -3.31246 -1.8703 0
M  V30 3732 H 348.827 -4.23139 -2.64111 0
M  V30 3733 H 347.981 -3.57333 -4.90304 0
M  V30 3734 H 346.72 -2.55245 -4.15574 0
M  V30 3735 H 345.725 -4.57461 -3.04974 0
M  V30 3736 H 346.95 -5.60868 -3.82889 0
M  V30 3737 H 344.896 -3.89544 -5.27818 0
M  V30 3738 H 344.813 -5.6133 -5.06404 0
M  V30 3739 H 346.081 -4.93044 -6.03761 0
M  V30 3740 N 350.31 0.590341 -1.46126 0
M  V30 3741 C 351.556 1.35082 -1.51264 0
M  V30 3742 C 351.889 1.93534 -0.160711 0
M  V30 3743 O 351.164 1.76045 0.826956 0
M  V30 3744 C 351.447 2.48588 -2.6053 0
M  V30 3745 C 351.3 1.95221 -4.05227 0
M  V30 3746 C 352.619 3.50662 -2.6594 0
M  V30 3747 H 349.738 0.489803 -0.550692 0
M  V30 3748 H 352.38 0.663887 -1.78024 0
M  V30 3749 H 350.53 3.07186 -2.37843 0
M  V30 3750 H 352.202 1.41139 -4.39178 0
M  V30 3751 H 350.445 1.26101 -4.15068 0
M  V30 3752 H 351.116 2.77121 -4.77397 0
M  V30 3753 H 353.592 3.01934 -2.86313 0
M  V30 3754 H 352.468 4.27551 -3.44226 0
M  V30 3755 H 352.729 4.07399 -1.71694 0
M  V30 3756 N 351.788 1.33704 0.83433 0
M  V30 3757 C 353.034 1.25603 1.59222 0
M  V30 3758 C 353.367 -0.176659 1.93395 0
M  V30 3759 O 352.642 -1.11915 1.59076 0
M  V30 3760 C 352.925 2.13576 2.89926 0
M  V30 3761 C 352.778 3.65326 2.62406 0
M  V30 3762 C 354.097 2.01238 3.91397 0
M  V30 3763 H 351.216 0.457613 0.577719 0
M  V30 3764 H 353.858 1.63848 0.961972 0
M  V30 3765 H 352.008 1.8109 3.43713 0
M  V30 3766 H 353.68 4.08124 2.15017 0
M  V30 3767 H 351.923 3.8698 1.96033 0
M  V30 3768 H 352.594 4.22232 3.55562 0
M  V30 3769 H 355.07 2.29738 3.46929 0
M  V30 3770 H 353.946 2.65036 4.80673 0
M  V30 3771 H 354.207 0.985951 4.30966 0
M  V30 3772 N 353.266 -1.05314 1.17247 0
M  V30 3773 C 354.496 -1.81707 0.983166 0
M  V30 3774 C 354.904 -1.83222 -0.471822 0
M  V30 3775 O 354.247 -1.25721 -1.3394 0
M  V30 3776 C 354.309 -3.29134 1.44606 0
M  V30 3777 C 353.973 -3.51304 2.92292 0
M  V30 3778 C 354.97 -3.4353 3.90235 0
M  V30 3779 C 352.655 -3.78306 3.30439 0
M  V30 3780 C 354.649 -3.62442 5.24323 0
M  V30 3781 C 352.336 -3.96866 4.64694 0
M  V30 3782 C 353.334 -3.88933 5.61445 0
M  V30 3783 O 353.022 -4.06976 6.93272 0
M  V30 3784 H 352.754 -0.579476 0.348114 0
M  V30 3785 H 355.308 -1.33705 1.55924 0
M  V30 3786 H 353.538 -3.78046 0.813537 0
M  V30 3787 H 355.227 -3.87049 1.22262 0
M  V30 3788 H 355.993 -3.22648 3.62109 0
M  V30 3789 H 351.872 -3.83585 2.55702 0
M  V30 3790 H 355.416 -3.56165 5.99827 0
M  V30 3791 H 351.313 -4.1724 4.92525 0
M  V30 3792 H 352.081 -4.24209 6.99992 0
M  V30 3793 N 354.744 -0.972509 -1.24016 0
M  V30 3794 C 355.991 -0.637034 -1.92219 0
M  V30 3795 C 356.319 0.828418 -1.75976 0
M  V30 3796 O 355.574 1.61206 -1.10955 0
M  V30 3797 C 355.873 -0.963694 -3.44162 0
M  V30 3798 C 355.539 -2.41807 -3.80579 0
M  V30 3799 C 354.201 -2.81556 -3.9023 0
M  V30 3800 C 356.553 -3.36172 -3.98293 0
M  V30 3801 C 353.881 -4.14702 -4.15017 0
M  V30 3802 C 356.233 -4.68952 -4.24578 0
M  V30 3803 C 354.897 -5.08472 -4.32449 0
M  V30 3804 H 354.167 -0.233107 -0.703379 0
M  V30 3805 H 356.814 -1.2249 -1.47202 0
M  V30 3806 H 355.119 -0.29365 -3.90698 0
M  V30 3807 H 356.816 -0.682449 -3.9515 0
M  V30 3808 H 353.406 -2.09988 -3.73635 0
M  V30 3809 H 357.59 -3.06644 -3.90234 0
M  V30 3810 H 352.846 -4.4494 -4.19331 0
M  V30 3811 H 357.02 -5.42037 -4.37229 0
M  V30 3812 H 354.647 -6.11665 -4.51409 0
M  V30 3813 N 356.222 1.38976 -0.743202 0
M  V30 3814 C 357.45 2.04636 -0.30525 0
M  V30 3815 C 357.865 1.56044 1.06281 0
M  V30 3816 O 357.222 0.728921 1.67311 0
M  V30 3817 C 357.273 3.60193 -0.307177 0
M  V30 3818 O 356.994 4.06998 -1.62124 0
M  V30 3819 C 358.495 4.4306 0.145928 0
M  V30 3820 H 355.715 0.65788 -0.132041 0
M  V30 3821 H 358.259 1.77866 -1.00915 0
M  V30 3822 H 356.414 3.85835 0.347898 0
M  V30 3823 H 356.828 5.01371 -1.54036 0
M  V30 3824 H 358.302 5.51921 0.0934183 0
M  V30 3825 H 358.779 4.22706 1.19231 0
M  V30 3826 H 359.385 4.22584 -0.479886 0
M  V30 3827 N 357.7 0.491464 1.49741 0
M  V30 3828 C 358.663 -0.280906 2.27472 0
M  V30 3829 C 359.663 -0.902454 1.33088 0
M  V30 3830 O 360.853 -0.768465 1.56334 0
M  V30 3831 C 357.985 -1.40209 3.10732 0
M  V30 3832 H 359.178 0.401056 2.97206 0
M  V30 3833 H 356.731 0.246131 1.5435 0
M  V30 3834 H 357.466 -2.11849 2.45541 0
M  V30 3835 H 357.251 -0.961969 3.80117 0
M  V30 3836 H 358.741 -1.9464 3.69466 0
M  V30 3837 N 359.178 -1.55987 0.224894 0
M  V30 3838 C 360.406 -2.02784 -0.410665 0
M  V30 3839 C 360.821 -1.10464 -1.53112 0
M  V30 3840 O 360.178 -0.114871 -1.82138 0
M  V30 3841 C 360.229 -3.49087 -0.939165 0
M  V30 3842 O 359.95 -4.37887 0.136614 0
M  V30 3843 C 361.451 -4.11543 -1.64763 0
M  V30 3844 H 358.671 -0.663484 -0.100148 0
M  V30 3845 H 361.215 -2.01614 0.342326 0
M  V30 3846 H 359.37 -3.50861 -1.64242 0
M  V30 3847 H 359.784 -5.23849 -0.261155 0
M  V30 3848 H 361.258 -5.15673 -1.96939 0
M  V30 3849 H 361.735 -3.56736 -2.56195 0
M  V30 3850 H 362.341 -4.13629 -0.989503 0
M  V30 3851 N 360.656 0.0484629 -1.57525 0
M  V30 3852 C 361.903 0.743125 -1.88372 0
M  V30 3853 C 362.231 1.76383 -0.819715 0
M  V30 3854 O 361.486 1.94855 0.181659 0
M  V30 3855 C 361.785 1.46632 -3.25935 0
M  V30 3856 C 361.451 0.583427 -4.4711 0
M  V30 3857 C 360.113 0.340191 -4.79996 0
M  V30 3858 C 362.465 -0.0273345 -5.21193 0
M  V30 3859 C 359.793 -0.522903 -5.84365 0
M  V30 3860 C 362.145 -0.878017 -6.26477 0
M  V30 3861 C 360.809 -1.1309 -6.5785 0
M  V30 3862 H 360.079 0.271929 -0.689301 0
M  V30 3863 H 362.726 0.00336166 -1.915 0
M  V30 3864 H 361.031 2.2789 -3.18706 0
M  V30 3865 H 362.728 2.00902 -3.47044 0
M  V30 3866 H 359.318 0.783151 -4.21384 0
M  V30 3867 H 363.502 0.147654 -4.9608 0
M  V30 3868 H 358.758 -0.727335 -6.07058 0
M  V30 3869 H 362.932 -1.35789 -6.83033 0
M  V30 3870 H 360.559 -1.80144 -7.38547 0
M  V30 3871 N 362.134 1.5431 0.320358 0
M  V30 3872 C 363.545 1.63872 0.894594 0
M  V30 3873 C 363.896 0.534847 1.88769 0
M  V30 3874 O 363.021 -0.331732 2.13842 0
M  V30 3875 C 363.616 2.97049 1.62934 0
M  V30 3876 C 362.175 3.08796 2.15226 0
M  V30 3877 C 361.322 2.59456 0.978671 0
M  V30 3878 H 364.273 1.58398 0.0978544 0
M  V30 3879 H 364.294 2.87388 2.49376 0
M  V30 3880 H 363.806 3.7737 0.906302 0
M  V30 3881 H 361.907 2.33156 2.90636 0
M  V30 3882 H 362.02 4.14649 2.40006 0
M  V30 3883 H 360.384 2.1543 1.35875 0
M  V30 3884 H 361.167 3.42237 0.269895 0
M  V30 3885 N 363.613 -0.582584 1.46437 0
M  V30 3886 C 364.843 -1.36484 1.55099 0
M  V30 3887 C 365.251 -1.88233 0.191056 0
M  V30 3888 O 364.594 -1.6429 -0.821858 0
M  V30 3889 C 364.656 -2.588 2.49525 0
M  V30 3890 C 364.32 -2.28517 3.95764 0
M  V30 3891 C 365.317 -1.87346 4.84972 0
M  V30 3892 C 363.002 -2.40658 4.40896 0
M  V30 3893 C 364.996 -1.5871 6.17325 0
M  V30 3894 C 362.683 -2.11635 5.73284 0
M  V30 3895 C 363.681 -1.70725 6.61318 0
M  V30 3896 O 363.369 -1.42057 7.91249 0
M  V30 3897 H 363.101 -0.423297 0.527063 0
M  V30 3898 H 365.655 -0.715188 1.92547 0
M  V30 3899 H 363.885 -3.26571 2.07095 0
M  V30 3900 H 365.574 -3.20868 2.48593 0
M  V30 3901 H 366.34 -1.77481 4.5136 0
M  V30 3902 H 362.219 -2.71463 3.72598 0
M  V30 3903 H 365.763 -1.26704 6.85997 0
M  V30 3904 H 361.66 -2.21124 6.06444 0
M  V30 3905 H 362.428 -1.55901 8.03515 0
M  V30 3906 N 365.091 -1.34144 -0.827227 0
M  V30 3907 C 366.021 -1.28005 -1.95287 0
M  V30 3908 C 367.002 -0.158321 -1.69362 0
M  V30 3909 O 368.187 -0.349987 -1.9102 0
M  V30 3910 C 365.317 -1.03036 -3.31664 0
M  V30 3911 C 364.271 -2.11628 -3.72019 0
M  V30 3912 C 363.597 -1.71854 -5.0633 0
M  V30 3913 C 364.897 -3.53417 -3.8457 0
M  V30 3914 H 366.591 -2.22187 -2.00682 0
M  V30 3915 H 364.137 -1.0696 -0.964135 0
M  V30 3916 H 366.09 -0.973863 -4.09993 0
M  V30 3917 H 364.814 -0.0529391 -3.26557 0
M  V30 3918 H 363.473 -2.16339 -2.95961 0
M  V30 3919 H 363.121 -0.727841 -4.97706 0
M  V30 3920 H 362.821 -2.44531 -5.34302 0
M  V30 3921 H 364.345 -1.67692 -5.87122 0
M  V30 3922 H 365.759 -3.51142 -4.5318 0
M  V30 3923 H 364.156 -4.24679 -4.2399 0
M  V30 3924 H 365.226 -3.91072 -2.86689 0
M  V30 3925 N 366.569 1.04691 -1.17803 0
M  V30 3926 C 367.502 2.12068 -0.842765 0
M  V30 3927 C 368.48 1.61455 0.192608 0
M  V30 3928 O 369.664 1.88359 0.072995 0
M  V30 3929 C 366.791 3.37715 -0.258063 0
M  V30 3930 C 365.837 4.07164 -1.26962 0
M  V30 3931 S 366.67 4.55047 -2.82299 0
M  V30 3932 C 367.826 5.83935 -2.25323 0
M  V30 3933 H 368.059 2.4018 -1.75217 0
M  V30 3934 H 365.592 1.17366 -1.00323 0
M  V30 3935 H 367.55 4.10435 0.0727935 0
M  V30 3936 H 366.211 3.0773 0.629357 0
M  V30 3937 H 365.404 4.9746 -0.809263 0
M  V30 3938 H 365.006 3.40533 -1.54639 0
M  V30 3939 H 367.298 6.57552 -1.63192 0
M  V30 3940 H 368.241 6.34725 -3.13894 0
M  V30 3941 H 368.649 5.3874 -1.68582 0
M  V30 3942 N 368.047 0.979072 1.23499 0
M  V30 3943 C 368.977 0.537606 2.27227 0
M  V30 3944 C 369.958 -0.428539 1.64613 0
M  V30 3945 O 371.143 -0.322191 1.91509 0
M  V30 3946 C 368.273 -0.162052 3.46922 0
M  V30 3947 C 367.227 0.721242 4.21879 0
M  V30 3948 C 366.553 -0.110555 5.34586 0
M  V30 3949 C 367.853 2.01141 4.82016 0
M  V30 3950 H 369.547 1.40462 2.64406 0
M  V30 3951 H 367.093 0.67684 1.27102 0
M  V30 3952 H 369.046 -0.482192 4.18632 0
M  V30 3953 H 367.77 -1.06351 3.08799 0
M  V30 3954 H 366.429 1.02482 3.51984 0
M  V30 3955 H 366.077 -1.0125 4.92704 0
M  V30 3956 H 365.777 0.477325 5.85658 0
M  V30 3957 H 367.301 -0.425107 6.09118 0
M  V30 3958 H 368.715 1.75612 5.45741 0
M  V30 3959 H 367.112 2.54695 5.43369 0
M  V30 3960 H 368.182 2.69909 4.02836 0
M  V30 3961 N 369.525 -1.3858 0.750561 0
M  V30 3962 C 370.771 -2.00481 0.305825 0
M  V30 3963 C 371.104 -1.5944 -1.10872 0
M  V30 3964 O 370.379 -0.83052 -1.75877 0
M  V30 3965 C 370.662 -3.5758 0.425287 0
M  V30 3966 C 370.515 -4.08594 1.88072 0
M  V30 3967 C 371.834 -4.39719 -0.183122 0
M  V30 3968 H 368.953 -0.728348 0.112598 0
M  V30 3969 H 371.595 -1.64566 0.949638 0
M  V30 3970 H 369.745 -3.88306 -0.122828 0
M  V30 3971 H 371.417 -3.88523 2.48691 0
M  V30 3972 H 369.66 -3.61574 2.39681 0
M  V30 3973 H 370.331 -5.177 1.91548 0
M  V30 3974 H 372.807 -4.15128 0.284303 0
M  V30 3975 H 371.683 -5.48856 -0.0692757 0
M  V30 3976 H 371.944 -4.23434 -1.27106 0
M  V30 3977 N 371.003 -0.499398 -1.49478 0
M  V30 3978 C 372.252 0.0475259 -2.01644 0
M  V30 3979 C 372.565 1.38195 -1.38425 0
M  V30 3980 O 373.771 2.01547 -1.8191 0
M  V30 3981 C 372.227 0.135164 -3.59646 0
M  V30 3982 C 371.835 -1.19252 -4.31837 0
M  V30 3983 C 373.579 0.632538 -4.19761 0
M  V30 3984 C 371.486 -1.06713 -5.81693 0
M  V30 3985 H 370.416 0.0215349 -0.753692 0
M  V30 3986 H 373.067 -0.638577 -1.7203 0
M  V30 3987 H 371.449 0.885681 -3.85969 0
M  V30 3988 H 372.623 -1.9562 -4.17216 0
M  V30 3989 H 370.938 -1.62321 -3.83459 0
M  V30 3990 H 373.535 0.743833 -5.29501 0
M  V30 3991 H 373.878 1.63098 -3.83021 0
M  V30 3992 H 374.411 -0.0613987 -3.97753 0
M  V30 3993 H 371.15 -2.03979 -6.22955 0
M  V30 3994 H 370.67 -0.344307 -5.98811 0
M  V30 3995 H 372.349 -0.745208 -6.42694 0
M  V30 3996 N 372.481 1.55866 -0.233164 0
M  V30 3997 C 373.411 2.23783 0.666599 0
M  V30 3998 C 374.392 1.21343 1.19205 0
M  V30 3999 O 375.577 1.4996 1.23392 0
M  V30 4000 C 372.707 2.92671 1.86978 0
M  V30 4001 C 371.661 4.01682 1.47768 0
M  V30 4002 C 370.987 4.57926 2.76058 0
M  V30 4003 C 372.287 5.18126 0.658993 0
M  V30 4004 H 373.981 2.99232 0.100306 0
M  V30 4005 H 371.527 1.43924 0.046804 0
M  V30 4006 H 373.48 3.3888 2.50476 0
M  V30 4007 H 372.204 2.14688 2.46123 0
M  V30 4008 H 370.863 3.56222 0.866106 0
M  V30 4009 H 370.511 3.76659 3.33372 0
M  V30 4010 H 370.211 5.31505 2.50552 0
M  V30 4011 H 371.735 5.06859 3.40479 0
M  V30 4012 H 373.149 5.60644 1.19795 0
M  V30 4013 H 371.546 5.98009 0.500552 0
M  V30 4014 H 372.616 4.83763 -0.331856 0
M  V30 4015 N 373.959 -0.0401083 1.57549 0
M  V30 4016 C 374.889 -1.04384 2.08869 0
M  V30 4017 C 375.87 -1.38407 0.988817 0
M  V30 4018 O 377.055 -1.47483 1.26342 0
M  V30 4019 C 374.185 -2.34808 2.55895 0
M  V30 4020 C 373.139 -2.15057 3.70047 0
M  V30 4021 C 372.465 -3.51145 4.03239 0
M  V30 4022 C 373.765 -1.54576 4.98902 0
M  V30 4023 H 375.459 -0.616666 2.92981 0
M  V30 4024 H 373.005 -0.295184 1.40942 0
M  V30 4025 H 374.958 -3.05346 2.90417 0
M  V30 4026 H 373.682 -2.79565 1.68853 0
M  V30 4027 H 372.341 -1.46954 3.35857 0
M  V30 4028 H 371.989 -3.93529 3.13279 0
M  V30 4029 H 371.689 -3.38758 4.80122 0
M  V30 4030 H 373.213 -4.23062 4.40285 0
M  V30 4031 H 374.627 -2.15017 5.31451 0
M  V30 4032 H 373.024 -1.52796 5.80322 0
M  V30 4033 H 374.094 -0.51039 4.82206 0
M  V30 4034 N 375.437 -1.54477 -0.31217 0
M  V30 4035 C 376.686 -1.72438 -1.04633 0
M  V30 4036 C 376.999 -0.511163 -1.88803 0
M  V30 4037 O 378.205 -0.572341 -2.65399 0
M  V30 4038 C 376.661 -3.05043 -1.9099 0
M  V30 4039 C 376.269 -4.33806 -1.11877 0
M  V30 4040 C 378.013 -3.32364 -2.64073 0
M  V30 4041 C 375.92 -5.57467 -1.97445 0
M  V30 4042 H 374.85 -0.642647 -0.394361 0
M  V30 4043 H 377.501 -1.80966 -0.303929 0
M  V30 4044 H 375.883 -2.90451 -2.69173 0
M  V30 4045 H 377.057 -4.59199 -0.383843 0
M  V30 4046 H 375.372 -4.13336 -0.504252 0
M  V30 4047 H 377.969 -4.21951 -3.28423 0
M  V30 4048 H 378.312 -2.50745 -3.32314 0
M  V30 4049 H 378.845 -3.47875 -1.92944 0
M  V30 4050 H 375.584 -6.41722 -1.33692 0
M  V30 4051 H 375.104 -5.36277 -2.6864 0
M  V30 4052 H 376.783 -5.94303 -2.5576 0
M  V30 4053 N 376.915 0.57481 -1.46744 0
M  V30 4054 C 378.331 0.898981 -1.31873 0
M  V30 4055 C 378.531 1.99313 -0.29605 0
M  V30 4056 O 377.587 2.50728 0.298621 0
M  V30 4057 C 378.9 1.30886 -2.7072 0
M  V30 4058 C 380.448 1.42127 -2.78871 0
M  V30 4059 C 380.923 1.86478 -4.18318 0
M  V30 4060 N 382.414 1.93658 -4.20774 0
M  V30 4061 C 383.149 2.29267 -5.2557 0
M  V30 4062 N 382.645 2.63612 -6.40688 0
M  V30 4063 N 384.438 2.29889 -5.1294 0
M  V30 4064 H 376.589 -0.147839 -2.11885 0
M  V30 4065 H 378.852 -0.00347013 -0.947994 0
M  V30 4066 H 378.558 0.578853 -3.46904 0
M  V30 4067 H 378.432 2.26874 -3.01343 0
M  V30 4068 H 380.819 2.14213 -2.0297 0
M  V30 4069 H 380.9 0.443705 -2.51922 0
M  V30 4070 H 380.544 1.14968 -4.94717 0
M  V30 4071 H 380.474 2.85207 -4.42679 0
M  V30 4072 H 382.965 1.69574 -3.37718 0
M  V30 4073 H 383.278 2.89759 -7.16421 0
M  V30 4074 H 381.623 2.61232 -6.44036 0
M  V30 4075 H 384.814 2.02485 -4.22039 0
M  V30 4076 H 384.987 2.57312 -5.94722 0
M  V30 4077 N 378.394 1.34581 0.820102 0
M  V30 4078 C 379.642 1.26845 1.57336 0
M  V30 4079 C 379.963 -0.160667 1.94337 0
M  V30 4080 O 379.233 -1.09396 1.6251 0
M  V30 4081 H 377.813 0.466514 0.583415 0
M  V30 4082 H 380.475 1.68526 0.979027 0
M  V30 4083 H 379.571 1.87513 2.4949 0
M  V30 4084 N 379.872 -1.04064 1.18357 0
M  V30 4085 C 381.118 -1.77528 0.980397 0
M  V30 4086 C 381.451 -1.87948 -0.48879 0
M  V30 4087 O 380.726 -1.3876 -1.36293 0
M  V30 4088 C 381.009 -3.20797 1.63588 0
M  V30 4089 C 380.862 -3.1832 3.17793 0
M  V30 4090 C 382.181 -4.18911 1.34914 0
M  V30 4091 H 379.3 -0.644443 0.357578 0
M  V30 4092 H 381.942 -1.2156 1.46024 0
M  V30 4093 H 380.092 -3.68586 1.22788 0
M  V30 4094 H 381.764 -2.78521 3.67728 0
M  V30 4095 H 380.007 -2.56351 3.49952 0
M  V30 4096 H 380.678 -4.19489 3.58794 0
M  V30 4097 H 383.154 -3.7967 1.70265 0
M  V30 4098 H 382.03 -5.17374 1.83346 0
M  V30 4099 H 382.291 -4.41262 0.272027 0
M  V30 4100 N 381.35 -0.985608 -1.22978 0
M  V30 4101 C 382.578 -0.675582 -1.95559 0
M  V30 4102 C 382.993 0.758413 -1.72897 0
M  V30 4103 O 382.35 1.51094 -1.02357 0
M  V30 4104 C 382.401 -0.96293 -3.48439 0
M  V30 4105 O 382.122 -2.34057 -3.70336 0
M  V30 4106 C 383.623 -0.669585 -4.38214 0
M  V30 4107 H 380.843 -0.250523 -0.622478 0
M  V30 4108 H 383.387 -1.3184 -1.56328 0
M  V30 4109 H 381.542 -0.366033 -3.85667 0
M  V30 4110 H 381.956 -2.43424 -4.64591 0
M  V30 4111 H 383.43 -0.920967 -5.44263 0
M  V30 4112 H 383.907 0.396383 -4.37408 0
M  V30 4113 H 384.513 -1.2472 -4.06602 0
M  V30 4114 N 382.828 1.3818 -0.7579 0
M  V30 4115 C 383.758 2.33027 -0.148597 0
M  V30 4116 C 384.739 1.55085 0.69875 0
M  V30 4117 O 385.924 1.83384 0.639053 0
M  V30 4118 C 383.054 3.3928 0.742034 0
M  V30 4119 C 382.008 4.28 -0.00291946 0
M  V30 4120 C 381.334 5.25146 1.00625 0
M  V30 4121 C 382.634 5.08938 -1.17385 0
M  V30 4122 H 384.328 2.84231 -0.940909 0
M  V30 4123 H 381.874 1.36659 -0.453908 0
M  V30 4124 H 383.827 4.046 1.17799 0
M  V30 4125 H 382.551 2.86569 1.56671 0
M  V30 4126 H 381.21 3.64192 -0.419504 0
M  V30 4127 H 380.858 4.68721 1.8251 0
M  V30 4128 H 380.558 5.85361 0.512428 0
M  V30 4129 H 382.082 5.93342 1.44143 0
M  V30 4130 H 383.496 5.67474 -0.815224 0
M  V30 4131 H 381.893 5.7841 -1.59882 0
M  V30 4132 H 382.963 4.42424 -1.98468 0
M  V30 4133 N 384.306 0.507319 1.49211 0
M  V30 4134 C 385.717 0.0611118 1.866 0
M  V30 4135 C 386.068 -1.35488 1.41907 0
M  V30 4136 O 385.193 -2.0108 0.799726 0
M  V30 4137 C 385.788 0.104125 3.3864 0
M  V30 4138 C 384.347 -0.28677 3.75306 0
M  V30 4139 C 383.494 0.473893 2.73221 0
M  V30 4140 H 386.445 0.719775 1.41439 0
M  V30 4141 H 386.466 -0.689672 3.74198 0
M  V30 4142 H 385.978 1.13482 3.71138 0
M  V30 4143 H 384.079 -1.32046 3.48417 0
M  V30 4144 H 384.192 0.0370745 4.79086 0
M  V30 4145 H 382.556 -0.0770644 2.54583 0
M  V30 4146 H 383.339 1.50478 3.08563 0
M  V30 4147 N 385.784 -1.5574 0.241426 0
M  V30 4148 C 387.032 -1.98417 -0.384075 0
M  V30 4149 C 387.353 -1.13078 -1.58866 0
M  V30 4150 O 386.623 -0.212312 -1.94746 0
M  V30 4151 H 385.203 -0.732813 -0.144894 0
M  V30 4152 H 387.865 -1.9193 0.338943 0
M  V30 4153 H 386.961 -3.04219 -0.696939 0
M  V30 4154 N 387.262 0.0317525 -1.57568 0
M  V30 4155 C 388.225 1.01783 -2.0536 0
M  V30 4156 C 389.225 1.29203 -0.957253 0
M  V30 4157 O 390.415 1.24251 -1.22095 0
M  V30 4158 C 387.547 2.35137 -2.46827 0
M  V30 4159 H 388.74 0.605062 -2.93733 0
M  V30 4160 H 386.293 0.278514 -1.53799 0
M  V30 4161 H 387.028 2.81168 -1.61602 0
M  V30 4162 H 386.813 2.16566 -3.26866 0
M  V30 4163 H 388.303 3.05938 -2.84239 0
M  V30 4164 N 388.74 1.54641 0.303973 0
M  V30 4165 C 389.97 1.77511 1.05705 0
M  V30 4166 C 390.378 0.533228 1.81531 0
M  V30 4167 O 389.721 -0.506423 1.76582 0
M  V30 4168 C 389.783 2.92779 2.08617 0
M  V30 4169 C 389.447 4.30977 1.52013 0
M  V30 4170 C 390.444 5.11115 0.9517 0
M  V30 4171 C 388.129 4.77571 1.55665 0
M  V30 4172 C 390.123 6.35966 0.427327 0
M  V30 4173 C 387.81 6.02384 1.02841 0
M  V30 4174 C 388.808 6.81417 0.464713 0
M  V30 4175 O 388.496 8.03881 -0.0555283 0
M  V30 4176 H 388.228 0.59579 0.319391 0
M  V30 4177 H 390.782 2.02401 0.349712 0
M  V30 4178 H 389.012 2.63506 2.83022 0
M  V30 4179 H 390.701 3.03252 2.69802 0
M  V30 4180 H 391.467 4.76264 0.916407 0
M  V30 4181 H 387.346 4.16085 1.9848 0
M  V30 4182 H 390.89 6.97599 -0.0133062 0
M  V30 4183 H 386.787 6.36723 1.06084 0
M  V30 4184 H 387.555 8.18479 0.0580522 0
M  V30 4185 N 390.218 -0.567019 1.47046 0
M  V30 4186 C 391.15 -1.68985 1.54844 0
M  V30 4187 C 392.163 -1.56869 0.435431 0
M  V30 4188 O 393.352 -1.64006 0.70457 0
M  V30 4189 C 390.452 -3.07373 1.42742 0
M  V30 4190 C 389.625 -3.45339 2.6844 0
M  V30 4191 C 388.684 -4.62849 2.50314 0
M  V30 4192 O 387.71 -4.67922 3.24095 0
M  V30 4193 N 388.912 -5.58726 1.57499 0
M  V30 4194 H 391.677 -1.62745 2.51663 0
M  V30 4195 H 389.238 -0.753411 1.43302 0
M  V30 4196 H 391.23 -3.83803 1.28365 0
M  V30 4197 H 389.8 -3.07893 0.540445 0
M  V30 4198 H 389.02 -2.58455 2.97648 0
M  V30 4199 H 390.308 -3.67476 3.51907 0
M  V30 4200 H 389.706 -5.57376 0.966876 0
M  V30 4201 H 388.263 -6.34523 1.49078 0
M  V30 4202 N 391.696 -1.35014 -0.812953 0
M  V30 4203 C 392.944 -1.27678 -1.56661 0
M  V30 4204 C 393.265 0.150359 -1.94419 0
M  V30 4205 O 392.535 1.08532 -1.63088 0
M  V30 4206 H 391.115 -0.469602 -0.580933 0
M  V30 4207 H 393.777 -1.69043 -0.970076 0
M  V30 4208 H 392.873 -1.88833 -2.48492 0
M  V30 4209 N 393.175 1.03435 -1.18907 0
M  V30 4210 C 394.424 1.76143 -0.982669 0
M  V30 4211 C 394.737 1.89416 0.487953 0
M  V30 4212 O 395.943 2.59041 0.813036 0
M  V30 4213 C 394.399 3.16722 -1.70924 0
M  V30 4214 C 394.007 3.11522 -3.21959 0
M  V30 4215 C 395.751 3.93764 -1.58588 0
M  V30 4216 C 393.658 4.46999 -3.87228 0
M  V30 4217 H 392.588 0.660292 -0.364047 0
M  V30 4218 H 395.239 1.158 -1.42347 0
M  V30 4219 H 393.621 3.775 -1.19623 0
M  V30 4220 H 394.795 2.60158 -3.80335 0
M  V30 4221 H 393.11 2.47978 -3.34508 0
M  V30 4222 H 395.707 4.93963 -2.04707 0
M  V30 4223 H 396.05 4.12794 -0.539142 0
M  V30 4224 H 396.583 3.39576 -2.07203 0
M  V30 4225 H 393.322 4.33174 -4.91976 0
M  V30 4226 H 392.842 4.98441 -3.33642 0
M  V30 4227 H 394.521 5.15898 -3.90459 0
M  V30 4228 N 394.653 0.992116 1.22453 0
M  V30 4229 C 395.902 0.662992 1.90492 0
M  V30 4230 C 396.215 -0.808407 1.78113 0
M  V30 4231 O 397.421 -1.24908 2.41061 0
M  V30 4232 C 395.877 1.1353 3.41524 0
M  V30 4233 C 395.485 2.63187 3.62542 0
M  V30 4234 C 397.229 0.880465 4.15269 0
M  V30 4235 C 395.136 3.04024 5.0727 0
M  V30 4236 H 394.066 0.244278 0.713333 0
M  V30 4237 H 396.717 1.20157 1.38688 0
M  V30 4238 H 395.099 0.52485 3.92506 0
M  V30 4239 H 396.273 3.2957 3.22056 0
M  V30 4240 H 394.588 2.86543 3.02129 0
M  V30 4241 H 397.185 1.16128 5.21937 0
M  V30 4242 H 397.528 -0.183408 4.15896 0
M  V30 4243 H 398.061 1.45307 3.70312 0
M  V30 4244 H 394.8 4.09584 5.11782 0
M  V30 4245 H 394.32 2.42343 5.48662 0
M  V30 4246 H 395.999 2.95282 5.75689 0
M  V30 4247 N 396.131 -1.37776 0.765217 0
M  V30 4248 C 397.361 -2.03828 0.337277 0
M  V30 4249 C 397.769 -1.57841 -1.04321 0
M  V30 4250 O 397.112 -0.752043 -1.67601 0
M  V30 4251 C 397.174 -3.58292 0.294407 0
M  V30 4252 C 396.838 -4.27384 1.61838 0
M  V30 4253 C 397.835 -4.51956 2.56967 0
M  V30 4254 C 395.52 -4.65345 1.89102 0
M  V30 4255 C 397.514 -5.13536 3.77571 0
M  V30 4256 C 395.201 -5.26647 3.09978 0
M  V30 4257 C 396.199 -5.50679 4.04032 0
M  V30 4258 O 395.887 -6.10702 5.2278 0
M  V30 4259 H 395.619 -0.661292 0.140248 0
M  V30 4260 H 398.173 -1.77222 1.03834 0
M  V30 4261 H 396.403 -3.83918 -0.462983 0
M  V30 4262 H 398.092 -4.05763 -0.105581 0
M  V30 4263 H 398.858 -4.23048 2.37183 0
M  V30 4264 H 394.737 -4.45978 1.16725 0
M  V30 4265 H 398.281 -5.3221 4.50997 0
M  V30 4266 H 394.178 -5.54979 3.29649 0
M  V30 4267 H 394.946 -6.29183 5.23517 0
M  V30 4268 N 397.609 -0.515225 -1.4894 0
M  V30 4269 C 398.839 0.0205735 -2.0659 0
M  V30 4270 C 399.247 1.30064 -1.37405 0
M  V30 4271 O 398.59 1.78087 -0.450632 0
M  V30 4272 C 398.652 0.330124 -3.57981 0
M  V30 4273 C 398.316 -0.854295 -4.48944 0
M  V30 4274 C 399.313 -1.7487 -4.89609 0
M  V30 4275 C 396.998 -1.05712 -4.9105 0
M  V30 4276 C 398.992 -2.82996 -5.71132 0
M  V30 4277 C 396.679 -2.14154 -5.72347 0
M  V30 4278 C 397.677 -3.0263 -6.12294 0
M  V30 4279 O 397.365 -4.09198 -6.91962 0
M  V30 4280 H 397.097 -0.0236833 -0.675585 0
M  V30 4281 H 399.651 -0.715956 -1.92518 0
M  V30 4282 H 397.881 1.12044 -3.70112 0
M  V30 4283 H 399.57 0.806233 -3.97812 0
M  V30 4284 H 400.336 -1.60388 -4.57712 0
M  V30 4285 H 396.215 -0.377788 -4.59449 0
M  V30 4286 H 399.759 -3.52083 -6.02232 0
M  V30 4287 H 395.656 -2.28626 -6.03656 0
M  V30 4288 H 396.424 -4.06726 -7.10293 0
M  V30 4289 N 399.087 1.5561 -0.249682 0
M  V30 4290 C 400.017 2.24477 0.642826 0
M  V30 4291 C 400.998 1.22601 1.17911 0
M  V30 4292 O 402.183 1.5126 1.21795 0
M  V30 4293 C 399.313 2.94638 1.83863 0
M  V30 4294 C 398.267 4.03227 1.435 0
M  V30 4295 C 397.593 4.60828 2.71186 0
M  V30 4296 C 398.893 5.18796 0.604002 0
M  V30 4297 H 400.587 2.99321 0.0685625 0
M  V30 4298 H 398.133 1.43965 0.0315363 0
M  V30 4299 H 400.086 3.41517 2.46868 0
M  V30 4300 H 398.81 2.17287 2.43832 0
M  V30 4301 H 397.469 3.57121 0.828275 0
M  V30 4302 H 397.117 3.80174 3.29358 0
M  V30 4303 H 396.817 5.34132 2.44901 0
M  V30 4304 H 398.341 5.10442 3.35084 0
M  V30 4305 H 399.755 5.61883 1.13842 0
M  V30 4306 H 398.152 5.98506 0.437097 0
M  V30 4307 H 399.222 4.83384 -0.383147 0
M  V30 4308 N 400.565 -0.0233959 1.57583 0
M  V30 4309 C 401.512 -1.02224 2.06927 0
M  V30 4310 C 402.482 -1.35575 0.959617 0
M  V30 4311 O 403.667 -1.45815 1.23055 0
M  V30 4312 C 400.807 -2.31636 2.5581 0
M  V30 4313 C 399.92 -2.04394 3.80588 0
M  V30 4314 C 399.055 -3.27717 4.18061 0
M  V30 4315 C 398.094 -2.96056 5.3574 0
M  V30 4316 N 397.231 -4.11847 5.68618 0
M  V30 4317 H 402.071 -0.594504 2.9201 0
M  V30 4318 H 399.608 -0.281921 1.44373 0
M  V30 4319 H 401.566 -3.07258 2.82221 0
M  V30 4320 H 400.196 -2.72122 1.73636 0
M  V30 4321 H 399.248 -1.19244 3.61227 0
M  V30 4322 H 400.56 -1.77042 4.66323 0
M  V30 4323 H 399.714 -4.11702 4.4563 0
M  V30 4324 H 398.453 -3.58188 3.30988 0
M  V30 4325 H 397.458 -2.10474 5.07918 0
M  V30 4326 H 398.683 -2.66857 6.24471 0
M  V30 4327 H 396.629 -4.42258 4.84504 0
M  V30 4328 H 396.546 -3.87938 6.48876 0
M  V30 4329 H 397.814 -4.96689 6.00766 0
M  V30 4330 N 402.043 -1.548 -0.295768 0
M  V30 4331 C 403.454 -1.65274 -0.868411 0
M  V30 4332 C 403.805 -0.56481 -1.87894 0
M  V30 4333 O 402.93 0.29767 -2.14343 0
M  V30 4334 C 403.525 -2.99603 -1.58188 0
M  V30 4335 C 402.084 -3.12181 -2.10286 0
M  V30 4336 C 401.231 -2.6098 -0.93727 0
M  V30 4337 H 404.182 -1.58534 -0.0726422 0
M  V30 4338 H 404.203 -2.91319 -2.44772 0
M  V30 4339 H 403.715 -3.78764 -0.846151 0
M  V30 4340 H 401.816 -2.3775 -2.8689 0
M  V30 4341 H 401.929 -4.18415 -2.33379 0
M  V30 4342 H 400.293 -2.17564 -1.32431 0
M  V30 4343 H 401.076 -3.42623 -0.215414 0
M  V30 4344 N 403.521 0.559213 -1.47345 0
M  V30 4345 C 404.798 1.31997 -1.44348 0
M  V30 4346 C 405.178 2.1064 -0.139358 0
M  V30 4347 O 404.526 2.1091 0.879153 0
M  V30 4348 C 404.736 2.22618 -2.68779 0
M  V30 4349 C 406.084 2.83701 -3.1591 0
M  V30 4350 O 407.108 2.32921 -2.69493 0
M  V30 4351 O 405.967 3.75993 -3.966 0
M  V30 4352 H 403.061 0.594251 -0.575147 0
M  V30 4353 H 405.607 0.578282 -1.59543 0
M  V30 4354 H 404.379 1.64093 -3.55231 0
M  V30 4355 H 404.002 3.04085 -2.5616 0
M  V30 4356 N 404.999 1.35443 0.805782 0
M  V30 4357 C 405.929 1.31095 1.93226 0
M  V30 4358 C 406.91 0.185244 1.69088 0
M  V30 4359 O 408.095 0.380332 1.90439 0
M  V30 4360 C 405.225 1.08299 3.29983 0
M  V30 4361 C 404.179 2.17519 3.68605 0
M  V30 4362 C 403.505 1.79887 5.03532 0
M  V30 4363 C 404.805 3.5949 3.78898 0
M  V30 4364 H 406.499 2.25352 1.97122 0
M  V30 4365 H 404.045 1.0848 0.946996 0
M  V30 4366 H 405.998 1.03897 4.08391 0
M  V30 4367 H 404.722 0.104885 3.26432 0
M  V30 4368 H 403.381 2.2102 2.92482 0
M  V30 4369 H 403.029 0.80693 4.96485 0
M  V30 4370 H 402.729 2.53001 5.30344 0
M  V30 4371 H 404.253 1.77011 5.84379 0
M  V30 4372 H 405.667 3.58307 4.47536 0
M  V30 4373 H 404.064 4.31371 4.1718 0
M  V30 4374 H 405.134 3.95584 2.80431 0
M  V30 4375 N 406.477 -1.02803 1.19454 0
M  V30 4376 C 407.724 -1.76217 0.997693 0
M  V30 4377 C 408.052 -1.887 -0.47144 0
M  V30 4378 O 407.307 -1.4011 -1.3663 0
M  V30 4379 C 407.606 -3.18941 1.6128 0
M  V30 4380 C 407.272 -3.26463 3.11019 0
M  V30 4381 C 405.934 -3.28223 3.51885 0
M  V30 4382 C 408.286 -3.25542 4.07028 0
M  V30 4383 C 405.614 -3.26719 4.8731 0
M  V30 4384 C 407.966 -3.25579 5.42385 0
M  V30 4385 C 406.63 -3.25637 5.82681 0
M  V30 4386 H 405.9 -0.644823 0.365082 0
M  V30 4387 H 408.547 -1.20655 1.4871 0
M  V30 4388 H 406.852 -3.77587 1.04572 0
M  V30 4389 H 408.549 -3.74415 1.43577 0
M  V30 4390 H 405.139 -3.25822 2.78457 0
M  V30 4391 H 409.323 -3.23362 3.76498 0
M  V30 4392 H 404.579 -3.25089 5.1781 0
M  V30 4393 H 408.753 -3.23817 6.16535 0
M  V30 4394 H 406.38 -3.24226 6.87591 0
M  V30 4395 N 407.956 -0.998596 -1.21925 0
M  V30 4396 C 409.372 -0.710303 -1.42923 0
M  V30 4397 C 409.572 0.716933 -1.88314 0
M  V30 4398 O 408.628 1.48712 -2.04062 0
M  V30 4399 C 409.941 -1.72072 -2.466 0
M  V30 4400 C 411.489 -1.73681 -2.60392 0
M  V30 4401 C 411.964 -2.73601 -3.67296 0
M  V30 4402 N 413.455 -2.7223 -3.7476 0
M  V30 4403 C 414.19 -3.46206 -4.57087 0
M  V30 4404 N 413.686 -4.29802 -5.43362 0
M  V30 4405 N 415.479 -3.34886 -4.51451 0
M  V30 4406 H 407.63 -1.92028 -0.9077 0
M  V30 4407 H 409.893 -0.828487 -0.460775 0
M  V30 4408 H 409.599 -2.74231 -2.20206 0
M  V30 4409 H 409.473 -1.51818 -3.45299 0
M  V30 4410 H 411.86 -0.722173 -2.86127 0
M  V30 4411 H 411.941 -1.98005 -1.61949 0
M  V30 4412 H 411.585 -3.75217 -3.42307 0
M  V30 4413 H 411.515 -2.46545 -4.65321 0
M  V30 4414 H 414.006 -2.11576 -3.1312 0
M  V30 4415 H 414.319 -4.83061 -6.03218 0
M  V30 4416 H 412.664 -4.33887 -5.42925 0
M  V30 4417 H 415.855 -2.69015 -3.83078 0
M  V30 4418 H 416.028 -3.92796 -5.15379 0
M  V30 4419 N 409.434 1.37368 -0.772513 0
M  V30 4420 C 410.364 2.32856 -0.173304 0
M  V30 4421 C 411.345 1.55818 0.682262 0
M  V30 4422 O 412.53 1.84052 0.619566 0
M  V30 4423 C 409.66 3.40048 0.706007 0
M  V30 4424 C 408.614 4.27973 -0.0483144 0
M  V30 4425 C 407.94 5.26184 0.950491 0
M  V30 4426 C 409.24 5.07665 -1.22776 0
M  V30 4427 H 410.934 2.83217 -0.971002 0
M  V30 4428 H 408.48 1.3617 -0.468377 0
M  V30 4429 H 410.433 4.05827 1.13501 0
M  V30 4430 H 409.157 2.88214 1.53623 0
M  V30 4431 H 407.816 3.63726 -0.458107 0
M  V30 4432 H 407.464 4.7063 1.77529 0
M  V30 4433 H 407.164 5.85872 0.450314 0
M  V30 4434 H 408.688 5.94838 1.37842 0
M  V30 4435 H 410.102 5.66578 -0.875366 0
M  V30 4436 H 408.499 5.76681 -1.66007 0
M  V30 4437 H 409.569 4.40294 -2.03149 0
M  V30 4438 N 410.912 0.523116 1.48665 0
M  V30 4439 C 411.859 -0.243398 2.29513 0
M  V30 4440 C 412.829 -0.940139 1.36933 0
M  V30 4441 O 414.014 -0.942503 1.65896 0
M  V30 4442 C 411.154 -1.28855 3.20141 0
M  V30 4443 C 410.267 -0.60135 4.27794 0
M  V30 4444 C 409.402 -1.62884 5.05611 0
M  V30 4445 C 408.441 -0.924726 6.05075 0
M  V30 4446 N 407.578 -1.89744 6.75975 0
M  V30 4447 H 412.418 0.452234 2.94549 0
M  V30 4448 H 409.955 0.234858 1.45213 0
M  V30 4449 H 411.913 -1.90674 3.71079 0
M  V30 4450 H 410.543 -1.95266 2.57043 0
M  V30 4451 H 409.595 0.130623 3.80176 0
M  V30 4452 H 410.907 -0.0481585 4.98777 0
M  V30 4453 H 410.061 -2.32149 5.60528 0
M  V30 4454 H 408.8 -2.21592 4.34452 0
M  V30 4455 H 407.805 -0.217966 5.49368 0
M  V30 4456 H 409.03 -0.343851 6.78229 0
M  V30 4457 H 406.976 -2.47373 6.07571 0
M  V30 4458 H 406.893 -1.3955 7.43009 0
M  V30 4459 H 408.161 -2.58229 7.35485 0
M  V30 4460 N 412.39 -1.55475 0.257931 0
M  V30 4461 C 413.667 -1.91155 -0.414629 0
M  V30 4462 C 414.047 -1.18008 -1.75035 0
M  V30 4463 O 413.395 -0.301193 -2.26506 0
M  V30 4464 C 413.605 -3.44283 -0.571859 0
M  V30 4465 C 414.953 -4.15744 -0.862678 0
M  V30 4466 O 415.977 -3.50083 -0.657314 0
M  V30 4467 O 414.836 -5.31909 -1.2544 0
M  V30 4468 H 411.93 -0.796016 -0.22425 0
M  V30 4469 H 414.476 -1.66976 0.302814 0
M  V30 4470 H 413.248 -3.89558 0.368844 0
M  V30 4471 H 412.871 -3.7436 -1.33943 0
M  V30 4472 N 413.868 0.0150385 -1.57593 0
M  V30 4473 C 415.279 0.559832 -1.78109 0
M  V30 4474 C 415.63 1.74814 -0.890756 0
M  V30 4475 O 414.755 2.16216 -0.0892482 0
M  V30 4476 C 415.35 1.02238 -3.23006 0
M  V30 4477 C 413.909 1.51258 -3.44671 0
M  V30 4478 C 413.056 0.456955 -2.73509 0
M  V30 4479 H 416.007 -0.211169 -1.57289 0
M  V30 4480 H 416.028 1.88912 -3.30292 0
M  V30 4481 H 415.54 0.157302 -3.87781 0
M  V30 4482 H 413.641 2.39905 -2.8509 0
M  V30 4483 H 413.754 1.55042 -4.5332 0
M  V30 4484 H 412.118 0.915196 -2.37689 0
M  V30 4485 H 412.901 -0.398896 -3.40975 0
M  V30 4486 N 415.346 1.54954 0.287554 0
M  V30 4487 C 416.278 1.83224 1.37701 0
M  V30 4488 C 417.291 0.715898 1.46215 0
M  V30 4489 O 418.48 0.993565 1.48292 0
M  V30 4490 C 415.58 1.96723 2.75959 0
M  V30 4491 C 414.753 3.27253 2.90215 0
M  V30 4492 C 413.812 3.30998 4.09056 0
M  V30 4493 O 412.838 4.04457 4.00503 0
M  V30 4494 N 414.04 2.57353 5.20336 0
M  V30 4495 H 416.805 2.77254 1.138 0
M  V30 4496 H 414.366 1.54694 0.477652 0
M  V30 4497 H 416.358 1.96615 3.5373 0
M  V30 4498 H 414.928 1.09626 2.92747 0
M  V30 4499 H 414.148 3.40022 1.99447 0
M  V30 4500 H 415.436 4.13365 2.96659 0
M  V30 4501 H 414.834 1.97327 5.30169 0
M  V30 4502 H 413.391 2.62984 5.96391 0
M  V30 4503 N 416.824 -0.551391 1.4764 0
M  V30 4504 C 418.07 -1.31024 1.54792 0
M  V30 4505 C 418.403 -1.9304 0.211967 0
M  V30 4506 O 417.678 -1.78175 -0.77999 0
M  V30 4507 C 417.961 -2.41593 2.67029 0
M  V30 4508 C 417.814 -1.84408 4.10261 0
M  V30 4509 C 419.133 -3.43488 2.75143 0
M  V30 4510 H 416.252 -0.475031 0.563485 0
M  V30 4511 H 418.894 -0.616454 1.79722 0
M  V30 4512 H 417.044 -3.00772 2.45904 0
M  V30 4513 H 418.716 -1.29445 4.42766 0
M  V30 4514 H 416.959 -1.15051 4.18265 0
M  V30 4515 H 417.63 -2.64367 4.84576 0
M  V30 4516 H 420.106 -2.94236 2.94218 0
M  V30 4517 H 418.982 -4.18274 3.55441 0
M  V30 4518 H 419.243 -4.02703 1.82435 0
M  V30 4519 N 418.302 -1.35869 -0.798587 0
M  V30 4520 C 419.548 -1.30788 -1.55775 0
M  V30 4521 C 419.903 0.114558 -1.92059 0
M  V30 4522 O 419.196 1.06691 -1.59147 0
M  V30 4523 C 419.39 -2.1556 -2.85077 0
M  V30 4524 C 419.219 -3.65904 -2.61428 0
M  V30 4525 C 417.989 -4.35112 -2.56915 0
M  V30 4526 C 420.187 -4.59375 -2.31255 0
M  V30 4527 N 418.169 -5.71155 -2.25068 0
M  V30 4528 C 419.54 -5.83598 -2.09316 0
M  V30 4529 C 421.595 -4.48035 -2.17185 0
M  V30 4530 C 420.298 -6.97755 -1.74731 0
M  V30 4531 C 422.324 -5.62049 -1.83998 0
M  V30 4532 C 421.686 -6.85305 -1.629 0
M  V30 4533 H 417.785 -0.533855 -0.571422 0
M  V30 4534 H 420.369 -1.7083 -0.934079 0
M  V30 4535 H 418.54 -1.77776 -3.45326 0
M  V30 4536 H 420.272 -2.01938 -3.50718 0
M  V30 4537 H 417.027 -3.87812 -2.71843 0
M  V30 4538 H 417.451 -6.42978 -2.11916 0
M  V30 4539 H 422.093 -3.53338 -2.3219 0
M  V30 4540 H 419.811 -7.92411 -1.58464 0
M  V30 4541 H 423.397 -5.55232 -1.73808 0
M  V30 4542 H 422.277 -7.72034 -1.37596 0
M  V30 4543 N 419.78 1.02168 -1.19998 0
M  V30 4544 C 420.713 2.10232 -0.887558 0
M  V30 4545 C 421.691 1.61827 0.158317 0
M  V30 4546 O 422.875 1.88471 0.0330249 0
M  V30 4547 C 420.002 3.37092 -0.32964 0
M  V30 4548 C 419.048 4.0438 -1.3557 0
M  V30 4549 S 419.881 4.48956 -2.91888 0
M  V30 4550 C 421.037 5.79024 -2.37658 0
M  V30 4551 H 421.27 2.36409 -1.80272 0
M  V30 4552 H 418.803 1.15211 -1.0279 0
M  V30 4553 H 420.761 4.10498 -0.0142824 0
M  V30 4554 H 419.422 3.08996 0.563941 0
M  V30 4555 H 418.615 4.95632 -0.9146 0
M  V30 4556 H 418.217 3.37176 -1.61828 0
M  V30 4557 H 420.509 6.53942 -1.77103 0
M  V30 4558 H 421.452 6.27924 -3.27287 0
M  V30 4559 H 421.86 5.35043 -1.79971 0
M  V30 4560 N 421.258 1.00505 1.21394 0
M  V30 4561 C 422.535 0.603277 1.86064 0
M  V30 4562 C 422.915 -0.919095 1.90042 0
M  V30 4563 O 422.263 -1.80607 1.39977 0
M  V30 4564 C 422.473 1.23772 3.26315 0
M  V30 4565 C 423.821 1.34586 4.02705 0
M  V30 4566 O 424.845 1.19304 3.35626 0
M  V30 4567 O 423.704 1.59169 5.22807 0
M  V30 4568 H 420.798 0.206634 0.800769 0
M  V30 4569 H 423.344 1.1017 1.29076 0
M  V30 4570 H 422.116 2.27848 3.18121 0
M  V30 4571 H 421.739 0.725648 3.90922 0
M  V30 4572 N 422.737 -1.36956 0.779787 0
M  V30 4573 C 423.7 -2.2851 0.177662 0
M  V30 4574 C 424.7 -1.48393 -0.619377 0
M  V30 4575 O 425.89 -1.68505 -0.441785 0
M  V30 4576 C 423.022 -3.32428 -0.755279 0
M  V30 4577 H 424.215 -2.83269 0.984823 0
M  V30 4578 H 421.768 -1.46358 0.548544 0
M  V30 4579 H 422.503 -2.82808 -1.58714 0
M  V30 4580 H 422.288 -3.91659 -0.185817 0
M  V30 4581 H 423.778 -4.00824 -1.17174 0
M  V30 4582 N 424.215 -0.530993 -1.48385 0
M  V30 4583 C 425.463 0.00273189 -2.021 0
M  V30 4584 C 425.784 1.34672 -1.41027 0
M  V30 4585 O 425.054 1.8724 -0.576012 0
M  V30 4586 H 423.634 0.00399774 -0.746989 0
M  V30 4587 H 426.296 -0.695054 -1.82085 0
M  V30 4588 H 425.392 0.11031 -3.11905 0
M  V30 4589 N 425.693 1.55336 -0.266172 0
M  V30 4590 C 426.921 2.03801 0.356756 0
M  V30 4591 C 427.336 1.14485 1.50129 0
M  V30 4592 O 426.693 0.163121 1.8177 0
M  V30 4593 C 426.744 3.51455 0.846281 0
M  V30 4594 O 426.465 4.37371 -0.252663 0
M  V30 4595 C 427.966 4.15767 1.53794 0
M  V30 4596 H 425.186 0.665906 0.0825218 0
M  V30 4597 H 427.73 2.00636 -0.39566 0
M  V30 4598 H 425.885 3.55092 1.54881 0
M  V30 4599 H 426.299 5.24358 0.122173 0
M  V30 4600 H 427.773 5.20714 1.83198 0
M  V30 4601 H 428.25 3.63404 2.46646 0
M  V30 4602 H 428.856 4.16107 0.879488 0
M  V30 4603 N 427.171 -0.0066808 1.57599 0
M  V30 4604 C 428.103 -1.02827 2.04839 0
M  V30 4605 C 429.116 -1.31108 0.965113 0
M  V30 4606 O 430.305 -1.28202 1.24203 0
M  V30 4607 C 427.405 -2.36464 2.42771 0
M  V30 4608 C 426.578 -2.27219 3.73751 0
M  V30 4609 C 425.637 -3.43489 3.98625 0
M  V30 4610 O 424.663 -3.21976 4.69382 0
M  V30 4611 N 425.865 -4.66116 3.46 0
M  V30 4612 H 428.63 -0.625455 2.93101 0
M  V30 4613 H 426.191 -0.194198 1.60731 0
M  V30 4614 H 428.183 -3.13008 2.56531 0
M  V30 4615 H 426.753 -2.68512 1.60063 0
M  V30 4616 H 425.973 -1.35629 3.70133 0
M  V30 4617 H 427.261 -2.18208 4.59633 0
M  V30 4618 H 426.659 -4.86493 2.88688 0
M  V30 4619 H 425.216 -5.39949 3.65101 0
M  V30 4620 N 428.649 -1.55105 -0.279332 0
M  V30 4621 C 429.898 -1.74618 -1.00952 0
M  V30 4622 C 430.211 -0.551096 -1.87676 0
M  V30 4623 O 431.417 -0.628507 -2.64125 0
M  V30 4624 C 429.873 -3.09025 -1.84476 0
M  V30 4625 C 429.481 -4.36081 -1.0265 0
M  V30 4626 C 431.225 -3.37891 -2.56963 0
M  V30 4627 C 429.132 -5.6153 -1.85576 0
M  V30 4628 H 428.062 -0.650868 -0.38064 0
M  V30 4629 H 430.713 -1.81569 -0.265475 0
M  V30 4630 H 429.095 -2.96095 -2.62952 0
M  V30 4631 H 430.269 -4.59909 -0.286354 0
M  V30 4632 H 428.584 -4.14312 -0.416464 0
M  V30 4633 H 431.181 -4.28822 -3.19399 0
M  V30 4634 H 431.524 -2.57737 -3.26921 0
M  V30 4635 H 432.057 -3.5189 -1.85522 0
M  V30 4636 H 428.796 -6.44413 -1.2005 0
M  V30 4637 H 428.316 -5.41854 -2.57204 0
M  V30 4638 H 429.995 -5.99594 -2.43096 0
M  V30 4639 N 430.127 0.543554 -1.4793 0
M  V30 4640 C 431.374 1.30008 -1.55255 0
M  V30 4641 C 431.702 1.93245 -0.220612 0
M  V30 4642 O 430.957 1.79141 0.787843 0
M  V30 4643 C 431.256 2.42078 -2.62932 0
M  V30 4644 C 430.922 1.96583 -4.0579 0
M  V30 4645 C 429.584 1.83893 -4.44676 0
M  V30 4646 C 431.936 1.62034 -4.95373 0
M  V30 4647 C 429.264 1.34969 -5.70964 0
M  V30 4648 C 431.616 1.14577 -6.22137 0
M  V30 4649 C 430.28 1.00493 -6.59892 0
M  V30 4650 H 429.55 0.475735 -0.568117 0
M  V30 4651 H 432.197 0.608075 -1.81589 0
M  V30 4652 H 430.502 3.16892 -2.30406 0
M  V30 4653 H 432.199 3.00236 -2.65818 0
M  V30 4654 H 428.789 2.07407 -3.75074 0
M  V30 4655 H 432.973 1.70705 -4.66019 0
M  V30 4656 H 428.229 1.2274 -5.98953 0
M  V30 4657 H 432.403 0.869109 -6.90955 0
M  V30 4658 H 430.03 0.623624 -7.57638 0
M  V30 4659 N 431.605 1.3629 0.791371 0
M  V30 4660 C 432.852 1.30412 1.54916 0
M  V30 4661 C 433.18 -0.117162 1.94147 0
M  V30 4662 O 432.435 -1.08599 1.62803 0
M  V30 4663 C 432.734 2.17068 2.8393 0
M  V30 4664 C 432.4 3.65645 2.63846 0
M  V30 4665 C 431.062 4.0614 2.58077 0
M  V30 4666 C 433.414 4.59855 2.45322 0
M  V30 4667 C 430.742 5.3899 2.31748 0
M  V30 4668 C 433.094 5.9292 2.2052 0
M  V30 4669 C 431.758 6.32542 2.13183 0
M  V30 4670 H 431.028 0.47721 0.566879 0
M  V30 4671 H 433.675 1.68325 0.913172 0
M  V30 4672 H 431.98 1.72085 3.51986 0
M  V30 4673 H 433.677 2.09846 3.4171 0
M  V30 4674 H 430.267 3.33518 2.69191 0
M  V30 4675 H 434.451 4.29443 2.48782 0
M  V30 4676 H 429.707 5.68672 2.24548 0
M  V30 4677 H 433.881 6.65487 2.05182 0
M  V30 4678 H 431.508 7.35412 1.92544 0
M  V30 4679 N 433.083 -1.0153 1.20538 0
M  V30 4680 C 434.308 -1.79283 1.04271 0
M  V30 4681 C 434.733 -1.8372 -0.403544 0
M  V30 4682 O 434.091 -1.27321 -1.2907 0
M  V30 4683 C 434.139 -3.21535 1.63241 0
M  V30 4684 O 433.243 -4.03099 0.870908 0
M  V30 4685 H 432.584 -0.55293 0.367647 0
M  V30 4686 H 435.114 -1.27696 1.59859 0
M  V30 4687 H 435.124 -3.72243 1.6703 0
M  V30 4688 H 433.799 -3.1762 2.68497 0
M  V30 4689 H 432.376 -3.61693 0.907323 0
M  V30 4690 N 434.561 -1.01147 -1.20859 0
M  V30 4691 C 435.808 -0.697865 -1.90095 0
M  V30 4692 C 436.136 0.772014 -1.78522 0
M  V30 4693 O 435.391 1.57595 -1.16027 0
M  V30 4694 C 435.69 -1.0727 -3.40922 0
M  V30 4695 C 435.356 -2.53792 -3.72693 0
M  V30 4696 C 434.018 -2.93829 -3.81075 0
M  V30 4697 C 436.37 -3.48674 -3.87397 0
M  V30 4698 C 433.698 -4.27696 -4.01613 0
M  V30 4699 C 436.05 -4.82223 -4.09444 0
M  V30 4700 C 434.714 -5.21973 -4.16054 0
M  V30 4701 H 433.984 -0.255367 -0.695607 0
M  V30 4702 H 436.631 -1.27111 -1.43231 0
M  V30 4703 H 434.936 -0.417799 -3.89566 0
M  V30 4704 H 436.633 -0.807818 -3.92779 0
M  V30 4705 H 433.223 -2.21768 -3.66765 0
M  V30 4706 H 437.407 -3.18904 -3.80281 0
M  V30 4707 H 432.663 -4.58055 -4.04964 0
M  V30 4708 H 436.837 -5.55672 -4.19763 0
M  V30 4709 H 434.464 -6.25717 -4.31721 0
M  V30 4710 N 436.039 1.36541 -0.78704 0
M  V30 4711 C 437.002 2.28413 -0.189778 0
M  V30 4712 C 438.002 1.48719 0.611499 0
M  V30 4713 O 439.192 1.68737 0.432842 0
M  V30 4714 C 436.324 3.32824 0.737638 0
M  V30 4715 H 437.517 2.82743 -0.999831 0
M  V30 4716 H 435.07 1.46065 -0.556298 0
M  V30 4717 H 435.805 2.83646 1.57212 0
M  V30 4718 H 435.59 3.91752 0.165044 0
M  V30 4719 H 437.08 4.0144 1.15047 0
M  V30 4720 N 437.518 0.538854 1.48102 0
M  V30 4721 C 438.767 0.0059532 2.01699 0
M  V30 4722 C 439.08 -1.34476 1.42041 0
M  V30 4723 O 440.286 -1.96653 1.87189 0
M  V30 4724 C 438.742 -0.0397627 3.59878 0
M  V30 4725 C 438.35 1.30659 4.28523 0
M  V30 4726 C 440.094 -0.521024 4.2129 0
M  V30 4727 C 438.001 1.22098 5.78659 0
M  V30 4728 H 436.931 -0.00154456 0.753998 0
M  V30 4729 H 439.582 0.683963 1.70277 0
M  V30 4730 H 437.964 -0.783037 3.88181 0
M  V30 4731 H 439.138 2.06613 4.11883 0
M  V30 4732 H 437.453 1.7243 3.79021 0
M  V30 4733 H 440.05 -0.603184 5.31287 0
M  V30 4734 H 440.393 -1.52885 3.8721 0
M  V30 4735 H 440.926 0.166834 3.9745 0
M  V30 4736 H 437.665 2.20424 6.17328 0
M  V30 4737 H 437.185 0.50295 5.97688 0
M  V30 4738 H 438.864 0.915345 6.40492 0
M  V30 4739 N 438.996 -1.55193 0.274407 0
M  V30 4740 C 440.236 -2.01488 -0.343778 0
M  V30 4741 C 440.6 -1.1586 -1.53103 0
M  V30 4742 O 441.801 -1.51732 -2.2188 0
M  V30 4743 C 440.072 -3.50134 -0.717021 0
M  V30 4744 S 441.631 -4.18417 -1.32184 0
M  V30 4745 H 438.449 -0.70291 -0.106948 0
M  V30 4746 H 441.051 -1.91446 0.396075 0
M  V30 4747 H 439.755 -4.10104 0.155947 0
M  V30 4748 H 439.286 -3.64159 -1.48835 0
M  V30 4749 H 441.301 -4.21984 -2.61044 0
M  V30 4750 N 440.474 -0.00167713 -1.576 0
M  V30 4751 C 441.406 1.0174 -2.05382 0
M  V30 4752 C 442.419 1.30595 -0.972052 0
M  V30 4753 O 443.608 1.27542 -1.24882 0
M  V30 4754 C 440.708 2.35174 -2.44022 0
M  V30 4755 C 439.881 2.25234 -3.74951 0
M  V30 4756 C 438.94 3.4137 -4.00441 0
M  V30 4757 O 437.966 3.19483 -4.71083 0
M  V30 4758 N 439.168 4.64275 -3.48467 0
M  V30 4759 H 441.933 0.609902 -2.93428 0
M  V30 4760 H 439.494 0.185672 -1.60832 0
M  V30 4761 H 441.486 3.11643 -2.58187 0
M  V30 4762 H 440.056 2.67659 -1.61485 0
M  V30 4763 H 439.276 1.33664 -3.70847 0
M  V30 4764 H 440.564 2.15767 -4.60784 0
M  V30 4765 H 439.962 4.84955 -2.91264 0
M  V30 4766 H 438.519 5.38005 -3.67959 0
M  V30 4767 N 441.952 1.55251 0.271103 0
M  V30 4768 C 443.2 1.75599 1.00047 0
M  V30 4769 C 443.521 0.561188 1.8675 0
M  V30 4770 O 442.791 -0.423846 1.9126 0
M  V30 4771 H 441.371 0.647562 0.372387 0
M  V30 4772 H 444.033 1.92656 0.294876 0
M  V30 4773 H 443.129 2.65766 1.6363 0
M  V30 4774 N 443.43 -0.535701 1.48216 0
M  V30 4775 C 444.67 -1.30238 1.57536 0
M  V30 4776 C 445.034 -1.90479 0.241229 0
M  V30 4777 O 446.235 -2.67983 0.20938 0
M  V30 4778 C 444.506 -2.3669 2.67792 0
M  V30 4779 S 446.065 -3.23159 2.9684 0
M  V30 4780 H 442.883 -0.443093 0.556048 0
M  V30 4781 H 445.485 -0.610937 1.85709 0
M  V30 4782 H 444.189 -1.90905 3.63296 0
M  V30 4783 H 443.72 -3.10548 2.41502 0
M  V30 4784 H 445.735 -4.36647 2.35699 0
M  V30 4785 N 444.908 -1.36708 -0.784132 0
M  V30 4786 C 445.838 -1.34153 -1.91116 0
M  V30 4787 C 446.819 -0.212121 -1.68772 0
M  V30 4788 O 448.004 -0.410581 -1.8981 0
M  V30 4789 C 445.134 -1.13535 -3.28218 0
M  V30 4790 C 444.088 -2.23356 -3.65097 0
M  V30 4791 C 443.414 -1.87875 -5.00607 0
M  V30 4792 C 444.714 -3.65473 -3.73131 0
M  V30 4793 H 446.408 -2.28459 -1.93512 0
M  V30 4794 H 443.954 -1.09973 -0.929618 0
M  V30 4795 H 445.907 -1.10381 -4.06687 0
M  V30 4796 H 444.631 -0.156804 -3.26223 0
M  V30 4797 H 443.29 -2.25645 -2.88929 0
M  V30 4798 H 442.938 -0.885814 -4.95139 0
M  V30 4799 H 442.638 -2.61406 -5.26252 0
M  V30 4800 H 444.162 -1.86286 -5.81489 0
M  V30 4801 H 445.576 -3.65382 -4.41779 0
M  V30 4802 H 443.973 -4.37953 -4.10265 0
M  V30 4803 H 445.043 -3.99995 -2.74102 0
M  V30 4804 N 446.386 1.0089 -1.21074 0
M  V30 4805 C 447.614 1.78191 -1.05145 0
M  V30 4806 C 448.029 1.84537 0.398952 0
M  V30 4807 O 447.386 1.30393 1.27687 0
M  V30 4808 C 447.437 3.22288 -1.63746 0
M  V30 4809 O 447.158 3.16315 -3.03111 0
M  V30 4810 C 448.659 4.16106 -1.52875 0
M  V30 4811 H 445.879 0.560129 -0.369454 0
M  V30 4812 H 448.423 1.26945 -1.60328 0
M  V30 4813 H 446.578 3.70655 -1.12664 0
M  V30 4814 H 446.992 4.06817 -3.31059 0
M  V30 4815 H 448.466 5.15026 -1.98626 0
M  V30 4816 H 448.943 4.36541 -0.482521 0
M  V30 4817 H 449.549 3.73625 -2.03185 0
M  V30 4818 N 447.864 1.01787 1.20321 0
M  V30 4819 C 448.827 0.593972 2.2137 0
M  V30 4820 C 449.827 -0.336553 1.57239 0
M  V30 4821 O 451.017 -0.125069 1.7375 0
M  V30 4822 C 448.149 -0.132433 3.40643 0
M  V30 4823 H 449.342 1.48791 2.60387 0
M  V30 4824 H 446.895 0.807803 1.33807 0
M  V30 4825 H 447.63 -1.04123 3.0713 0
M  V30 4826 H 447.415 0.53605 3.88418 0
M  V30 4827 H 448.905 -0.416314 4.1552 0
M  V30 4828 N 449.342 -1.36122 0.79427 0
M  V30 4829 C 450.272 -2.32551 0.210328 0
M  V30 4830 C 451.253 -1.56884 -0.657386 0
M  V30 4831 O 452.438 -1.85014 -0.590207 0
M  V30 4832 C 449.568 -3.41128 -0.651819 0
M  V30 4833 C 448.522 -4.27842 0.116395 0
M  V30 4834 C 447.848 -5.2763 -0.86666 0
M  V30 4835 C 449.148 -5.05647 1.30837 0
M  V30 4836 H 450.842 -2.81636 1.01594 0
M  V30 4837 H 448.388 -1.35407 0.489981 0
M  V30 4838 H 450.341 -4.07581 -1.07031 0
M  V30 4839 H 449.065 -2.90622 -1.49019 0
M  V30 4840 H 447.724 -3.62952 0.515915 0
M  V30 4841 H 447.372 -4.73395 -1.70019 0
M  V30 4842 H 447.072 -5.86514 -0.35705 0
M  V30 4843 H 448.596 -5.96955 -1.28361 0
M  V30 4844 H 450.01 -5.65113 0.965393 0
M  V30 4845 H 448.407 -5.73967 1.75161 0
M  V30 4846 H 449.477 -4.37006 2.10128 0
M  V30 4847 N 450.82 -0.546701 -1.47814 0
M  V30 4848 C 452.068 -0.0187037 -2.02091 0
M  V30 4849 C 452.389 1.33168 -1.42447 0
M  V30 4850 O 451.659 1.86619 -0.595839 0
M  V30 4851 H 450.239 -0.00392531 -0.74699 0
M  V30 4852 H 452.901 -0.714327 -1.81338 0
M  V30 4853 H 451.997 0.0772219 -3.12004 0
M  V30 4854 N 452.299 1.55045 -0.282633 0
M  V30 4855 C 453.524 2.04628 0.337977 0
M  V30 4856 C 453.949 1.15937 1.48123 0
M  V30 4857 O 453.307 0.159532 1.80597 0
M  V30 4858 C 453.355 3.51854 0.78936 0
M  V30 4859 O 452.459 3.66236 1.89592 0
M  V30 4860 H 451.8 0.660434 0.0687261 0
M  V30 4861 H 454.33 2.00261 -0.419124 0
M  V30 4862 H 454.34 3.93361 1.08311 0
M  V30 4863 H 453.015 4.15873 -0.0470419 0
M  V30 4864 H 451.592 3.36633 1.60413 0
M  V30 4865 N 453.777 0.010035 1.57597 0
M  V30 4866 C 455.007 -0.682422 1.95004 0
M  V30 4867 C 455.415 -1.67278 0.884014 0
M  V30 4868 O 454.758 -1.83129 -0.144672 0
M  V30 4869 C 454.82 -1.46141 3.28456 0
M  V30 4870 C 454.484 -0.631523 4.52615 0
M  V30 4871 C 455.481 0.0850905 5.1983 0
M  V30 4872 C 453.166 -0.574539 4.99003 0
M  V30 4873 C 455.16 0.847566 6.3174 0
M  V30 4874 C 452.847 0.191655 6.10799 0
M  V30 4875 C 453.845 0.901432 6.77025 0
M  V30 4876 O 453.533 1.65511 7.86677 0
M  V30 4877 H 453.265 -0.194361 0.647456 0
M  V30 4878 H 455.819 0.060312 2.05311 0
M  V30 4879 H 454.049 -2.24885 3.14585 0
M  V30 4880 H 455.738 -2.04016 3.50902 0
M  V30 4881 H 456.504 0.0502812 4.84974 0
M  V30 4882 H 452.383 -1.11654 4.47274 0
M  V30 4883 H 455.927 1.4021 6.83364 0
M  V30 4884 H 451.824 0.228249 6.45096 0
M  V30 4885 H 452.592 1.57287 8.03245 0
M  V30 4886 N 455.255 -1.55392 -0.262866 0
M  V30 4887 C 456.203 -1.8977 -1.345 0
M  V30 4888 C 457.197 -0.775063 -1.50629 0
M  V30 4889 O 458.403 -0.959519 -1.52293 0
M  V30 4890 H 454.778 -0.602467 -0.450041 0
M  V30 4891 H 456.749 -2.80147 -1.02762 0
M  V30 4892 C 455.498 -2.19501 -2.69657 0
M  V30 4893 H 454.821 -3.05378 -2.5804 0
M  V30 4894 H 456.261 -2.47469 -3.44289 0
M  V30 4895 C 454.72 -1.00597 -3.21531 0
M  V30 4896 O 455.25 -0.245768 -4.00947 0
M  V30 4897 N 453.456 -0.800911 -2.79345 0
M  V30 4898 H 453.003 -1.42079 -2.14875 0
M  V30 4899 H 452.961 -0.00697996 -3.14399 0
M  V30 4900 N 456.733 0.527833 -1.48498 0
M  V30 4901 C 457.68 1.6322 -1.6318 0
M  V30 4902 C 458.65 1.59199 -0.473815 0
M  V30 4903 O 459.835 1.77591 -0.697563 0
M  V30 4904 C 456.975 3.01474 -1.67951 0
M  V30 4905 C 456.088 3.15713 -2.94871 0
M  V30 4906 C 455.223 4.44539 -2.90789 0
M  V30 4907 C 454.262 4.52315 -4.12404 0
M  V30 4908 N 453.399 5.72533 -4.06387 0
M  V30 4909 H 458.239 1.50011 -2.57489 0
M  V30 4910 H 455.776 0.730298 -1.27691 0
M  V30 4911 H 457.734 3.81572 -1.68698 0
M  V30 4912 H 456.364 3.1345 -0.771306 0
M  V30 4913 H 455.416 2.28854 -3.03859 0
M  V30 4914 H 456.728 3.1732 -3.8485 0
M  V30 4915 H 455.882 5.3293 -2.89949 0
M  V30 4916 H 454.621 4.45457 -1.98542 0
M  V30 4917 H 453.626 3.62331 -4.13517 0
M  V30 4918 H 454.851 4.53134 -5.05812 0
M  V30 4919 H 452.797 5.74344 -3.16962 0
M  V30 4920 H 452.714 5.75643 -4.90073 0
M  V30 4921 H 453.982 6.63204 -4.0961 0
M  V30 4922 N 458.211 1.37122 0.776871 0
M  V30 4923 C 459.441 1.35034 1.56363 0
M  V30 4924 C 459.849 -0.0674681 1.8908 0
M  V30 4925 O 459.192 -1.03826 1.51545 0
M  V30 4926 C 459.254 2.11894 2.90415 0
M  V30 4927 C 458.918 3.60897 2.80362 0
M  V30 4928 C 459.915 4.54887 2.51742 0
M  V30 4929 C 457.6 4.03951 2.98545 0
M  V30 4930 C 459.594 5.89909 2.41426 0
M  V30 4931 C 457.281 5.3906 2.87849 0
M  V30 4932 C 458.279 6.31852 2.5933 0
M  V30 4933 O 457.967 7.64479 2.48651 0
M  V30 4934 H 457.699 0.464402 0.49123 0
M  V30 4935 H 460.253 1.80992 0.971127 0
M  V30 4936 H 458.483 1.60618 3.51765 0
M  V30 4937 H 460.172 2.02505 3.51776 0
M  V30 4938 H 460.938 4.22934 2.37385 0
M  V30 4939 H 456.817 3.3209 3.19746 0
M  V30 4940 H 460.361 6.62304 2.19086 0
M  V30 4941 H 456.258 5.70617 3.01773 0
M  V30 4942 H 457.026 7.74742 2.64039 0
M  V30 4943 N 459.689 -1.00246 1.21608 0
M  V30 4944 C 460.639 -2.07492 0.945051 0
M  V30 4945 C 461.623 -1.60585 -0.100675 0
M  V30 4946 O 462.815 -1.76667 0.10859 0
M  V30 4947 C 459.944 -3.39425 0.514342 0
M  V30 4948 C 459.03 -3.92993 1.59428 0
M  V30 4949 N 459.421 -4.19898 2.81991 0
M  V30 4950 C 457.719 -4.21297 1.46374 0
M  V30 4951 C 458.42 -4.63297 3.51754 0
M  V30 4952 N 457.396 -4.66421 2.79199 0
M  V30 4953 H 461.198 -2.26222 1.87619 0
M  V30 4954 H 458.712 -1.18339 1.11219 0
M  V30 4955 H 460.709 -4.15808 0.301527 0
M  V30 4956 H 459.369 -3.22101 -0.410008 0
M  V30 4957 H 460.38 -4.08377 3.1851 0
M  V30 4958 H 457.057 -4.13095 0.604863 0
M  V30 4959 H 458.447 -4.92816 4.56708 0
M  V30 4960 N 461.167 -1.02423 -1.1978 0
M  V30 4961 C 462.115 -0.594474 -2.24875 0
M  V30 4962 C 463.109 0.370598 -1.65296 0
M  V30 4963 O 464.315 0.239684 -1.78397 0
M  V30 4964 H 460.69 -0.173961 -0.731602 0
M  V30 4965 H 462.661 -1.4916 -2.58445 0
M  V30 4966 C 461.41 0.0436512 -3.47673 0
M  V30 4967 H 460.733 -0.689963 -3.93801 0
M  V30 4968 H 462.173 0.307362 -4.22884 0
M  V30 4969 C 460.632 1.28881 -3.11274 0
M  V30 4970 O 461.162 2.38135 -3.23503 0
M  V30 4971 N 459.368 1.1758 -2.6575 0
M  V30 4972 H 458.915 0.286769 -2.55999 0
M  V30 4973 H 458.873 2.00988 -2.41767 0
M  V30 4974 N 462.645 1.35699 -0.801477 0
M  V30 4975 C 463.593 2.3177 -0.196317 0
M  V30 4976 C 464.587 1.56388 0.651081 0
M  V30 4977 O 465.793 1.71557 0.544815 0
M  V30 4978 H 462.168 0.750669 -0.0447189 0
M  V30 4979 H 464.139 2.8036 -1.02181 0
M  V30 4980 C 462.888 3.41671 0.644702 0
M  V30 4981 H 462.211 3.998 0.0019921 0
M  V30 4982 H 463.651 4.11184 1.0346 0
M  V30 4983 C 462.11 2.84271 1.80808 0
M  V30 4984 O 462.64 2.77408 2.9053 0
M  V30 4985 N 460.846 2.41391 1.61799 0
M  V30 4986 H 460.393 2.47173 0.725493 0
M  V30 4987 H 460.351 2.03334 2.39797 0
M  V30 4988 N 464.123 0.554532 1.47522 0
M  V30 4989 C 465.363 0.0317994 2.04375 0
M  V30 4990 C 465.727 -1.29242 1.41988 0
M  V30 4991 O 466.928 -1.90269 1.89872 0
M  V30 4992 C 465.199 -0.0623344 3.57346 0
M  V30 4993 S 466.758 -0.531578 4.35568 0
M  V30 4994 H 463.576 0.0238553 0.7106 0
M  V30 4995 H 466.178 0.74066 1.80927 0
M  V30 4996 H 464.882 0.905857 4.00278 0
M  V30 4997 H 464.413 -0.794831 3.85287 0
M  V30 4998 H 466.428 -1.79175 4.62721 0
M  V30 4999 N 465.601 -1.54893 0.290851 0
M  V30 5000 C 466.831 -2.04047 -0.323818 0
M  V30 5001 C 467.239 -1.16809 -1.48837 0
M  V30 5002 O 466.582 -0.184145 -1.82775 0
M  V30 5003 C 466.644 -3.49248 -0.852395 0
M  V30 5004 C 466.308 -4.56623 0.185557 0
M  V30 5005 C 467.305 -5.09985 1.01053 0
M  V30 5006 C 464.99 -5.01252 0.324332 0
M  V30 5007 C 466.984 -6.06507 1.96031 0
M  V30 5008 C 464.671 -5.97596 1.27757 0
M  V30 5009 C 465.669 -6.50107 2.09405 0
M  V30 5010 O 465.357 -7.44565 3.03114 0
M  V30 5011 H 465.089 -0.671735 -0.0758129 0
M  V30 5012 H 467.643 -2.00947 0.425393 0
M  V30 5013 H 465.873 -3.49639 -1.65195 0
M  V30 5014 H 467.562 -3.81654 -1.38185 0
M  V30 5015 H 468.328 -4.76307 0.914129 0
M  V30 5016 H 464.207 -4.60015 -0.301213 0
M  V30 5017 H 467.751 -6.47418 2.598 0
M  V30 5018 H 463.648 -6.30691 1.37473 0
M  V30 5019 H 464.416 -7.62334 2.97976 0
M  V30 5020 N 467.08 -0.0183926 -1.57589 0
M  V30 5021 C 468.027 0.967022 -2.09565 0
M  V30 5022 C 468.997 1.32983 -0.995225 0
M  V30 5023 O 470.182 1.42501 -1.26878 0
M  V30 5024 C 467.322 2.24772 -2.61861 0
M  V30 5025 C 466.435 1.94232 -3.85873 0
M  V30 5026 C 465.57 3.16518 -4.26603 0
M  V30 5027 C 464.609 2.81748 -5.43401 0
M  V30 5028 N 463.746 3.96626 -5.79338 0
M  V30 5029 H 468.586 0.516874 -2.93483 0
M  V30 5030 H 466.123 0.243544 -1.4507 0
M  V30 5031 H 468.081 2.99667 -2.90268 0
M  V30 5032 H 466.711 2.67423 -1.8079 0
M  V30 5033 H 465.763 1.09625 -3.64262 0
M  V30 5034 H 467.075 1.64616 -4.70853 0
M  V30 5035 H 466.229 3.99743 -4.56389 0
M  V30 5036 H 464.968 3.49286 -3.40368 0
M  V30 5037 H 463.973 1.96933 -5.1332 0
M  V30 5038 H 465.198 2.50207 -6.31327 0
M  V30 5039 H 463.144 4.29257 -4.96059 0
M  V30 5040 H 463.061 3.70598 -6.58933 0
M  V30 5041 H 464.329 4.80586 -6.13724 0
M  V30 5042 N 468.558 1.5553 0.254621 0
M  V30 5043 C 469.835 1.6774 1.00611 0
M  V30 5044 C 470.215 0.555993 2.03647 0
M  V30 5045 O 469.563 -0.441583 2.24193 0
M  V30 5046 C 469.773 3.07725 1.6464 0
M  V30 5047 C 471.121 3.66074 2.15116 0
M  V30 5048 O 472.145 3.10476 1.74595 0
M  V30 5049 O 471.004 4.63526 2.89493 0
M  V30 5050 H 468.098 0.681958 0.467828 0
M  V30 5051 H 470.644 1.67863 0.24902 0
M  V30 5052 H 469.416 3.80792 0.900734 0
M  V30 5053 H 469.039 3.1158 2.46989 0
M  V30 5054 N 470.036 -0.519951 1.48776 0
M  V30 5055 C 471.276 -1.2856 1.58908 0
M  V30 5056 C 471.64 -1.90212 0.261418 0
M  V30 5057 O 472.841 -2.67746 0.237791 0
M  V30 5058 C 471.112 -2.33836 2.70288 0
M  V30 5059 S 472.671 -3.19992 3.0025 0
M  V30 5060 H 469.489 -0.43717 0.560717 0
M  V30 5061 H 472.091 -0.591205 1.86346 0
M  V30 5062 H 470.795 -1.87041 3.653 0
M  V30 5063 H 470.326 -3.07969 2.44783 0
M  V30 5064 H 472.341 -4.34122 2.40317 0
M  V30 5065 N 471.514 -1.37532 -0.769588 0
M  V30 5066 C 472.763 -1.32183 -1.5235 0
M  V30 5067 C 473.076 0.0906555 -1.9539 0
M  V30 5068 O 474.282 0.266628 -2.70188 0
M  V30 5069 C 472.738 -2.32029 -2.75119 0
M  V30 5070 C 472.346 -3.78816 -2.3917 0
M  V30 5071 C 474.09 -2.35694 -3.53056 0
M  V30 5072 C 471.997 -4.70388 -3.58453 0
M  V30 5073 H 470.927 -0.491275 -0.571984 0
M  V30 5074 H 473.578 -1.63004 -0.842739 0
M  V30 5075 H 471.96 -1.94229 -3.45096 0
M  V30 5076 H 473.134 -4.25466 -1.76962 0
M  V30 5077 H 471.449 -3.78117 -1.74402 0
M  V30 5078 H 474.046 -3.01312 -4.41718 0
M  V30 5079 H 474.389 -1.37117 -3.93071 0
M  V30 5080 H 474.922 -2.72212 -2.90078 0
M  V30 5081 H 471.661 -5.70102 -3.23518 0
M  V30 5082 H 471.181 -4.28442 -4.19758 0
M  V30 5083 H 472.86 -4.87628 -4.25239 0
M  V30 5084 N 472.992 0.995999 -1.22138 0
M  V30 5085 C 473.955 2.06711 -0.990109 0
M  V30 5086 C 474.955 1.60744 0.0422978 0
M  V30 5087 O 476.145 1.73095 -0.195895 0
M  V30 5088 C 473.277 3.37288 -0.49491 0
M  V30 5089 H 474.47 2.28661 -1.94047 0
M  V30 5090 H 472.023 1.16711 -1.03963 0
M  V30 5091 H 472.758 3.21022 0.459948 0
M  V30 5092 H 472.543 3.71986 -1.23971 0
M  V30 5093 H 474.033 4.16103 -0.353253 0
M  V30 5094 N 474.47 1.03057 1.19235 0
M  V30 5095 C 475.4 0.633497 2.24742 0
M  V30 5096 C 476.381 -0.358335 1.66283 0
M  V30 5097 O 477.566 -0.240676 1.92703 0
M  V30 5098 C 474.696 -0.0147648 3.47297 0
M  V30 5099 C 473.65 0.899527 4.18441 0
M  V30 5100 C 472.976 0.116281 5.34574 0
M  V30 5101 C 474.276 2.21404 4.73051 0
M  V30 5102 H 475.97 1.5155 2.58211 0
M  V30 5103 H 473.516 0.73014 1.24117 0
M  V30 5104 H 475.469 -0.304202 4.20301 0
M  V30 5105 H 474.193 -0.931577 3.13032 0
M  V30 5106 H 472.852 1.17319 3.47321 0
M  V30 5107 H 472.5 -0.802619 4.96555 0
M  V30 5108 H 472.2 0.725293 5.83107 0
M  V30 5109 H 473.724 -0.166376 6.10373 0
M  V30 5110 H 475.138 1.98601 5.37802 0
M  V30 5111 H 473.535 2.77512 5.32078 0
M  V30 5112 H 474.605 2.86752 3.91026 0
M  V30 5113 N 475.948 -1.35272 0.808662 0
M  V30 5114 C 477.188 -2.00534 0.395668 0
M  V30 5115 C 477.552 -1.62755 -1.01857 0
M  V30 5116 O 478.753 -2.20752 -1.53368 0
M  V30 5117 C 477.024 -3.52732 0.575771 0
M  V30 5118 S 478.583 -4.38067 0.253507 0
M  V30 5119 H 475.401 -0.694962 0.150165 0
M  V30 5120 H 478.003 -1.64823 1.05137 0
M  V30 5121 H 476.707 -3.77714 1.60499 0
M  V30 5122 H 476.238 -3.93285 -0.0951739 0
M  V30 5123 H 478.253 -4.87252 -0.938068 0
M  V30 5124 N 477.426 -0.562348 -1.47226 0
M  V30 5125 C 478.673 -0.0402165 -2.0246 0
M  V30 5126 C 479.001 1.31169 -1.43614 0
M  V30 5127 O 478.256 1.86805 -0.5833 0
M  V30 5128 C 478.555 0.0969817 -3.57268 0
M  V30 5129 C 478.221 -1.1847 -4.35058 0
M  V30 5130 C 476.883 -1.53588 -4.56031 0
M  V30 5131 C 479.235 -2.03378 -4.79882 0
M  V30 5132 C 476.563 -2.73452 -5.19077 0
M  V30 5133 C 478.915 -3.2245 -5.44251 0
M  V30 5134 C 477.579 -3.57876 -5.63455 0
M  V30 5135 H 476.849 -0.0147163 -0.740854 0
M  V30 5136 H 479.496 -0.734895 -1.76838 0
M  V30 5137 H 477.801 0.87466 -3.81912 0
M  V30 5138 H 479.498 0.516408 -3.97661 0
M  V30 5139 H 476.088 -0.90126 -4.19017 0
M  V30 5140 H 480.272 -1.77553 -4.63453 0
M  V30 5141 H 475.528 -3.01062 -5.32139 0
M  V30 5142 H 479.702 -3.88526 -5.77945 0
M  V30 5143 H 477.329 -4.50849 -6.12078 0
M  V30 5144 N 478.904 1.54736 -0.299062 0
M  V30 5145 C 479.834 2.26409 0.571085 0
M  V30 5146 C 480.815 1.2629 1.13951 0
M  V30 5147 O 482 1.55059 1.16921 0
M  V30 5148 C 479.13 3.00338 1.74396 0
M  V30 5149 C 478.084 4.07588 1.30599 0
M  V30 5150 C 477.41 4.69222 2.56387 0
M  V30 5151 C 478.71 5.20455 0.438645 0
M  V30 5152 H 480.404 2.99388 -0.0266991 0
M  V30 5153 H 477.95 1.43993 -0.0142812 0
M  V30 5154 H 479.903 3.49198 2.35878 0
M  V30 5155 H 478.627 2.24934 2.36796 0
M  V30 5156 H 477.286 3.59575 0.71424 0
M  V30 5157 H 476.934 3.9046 3.17097 0
M  V30 5158 H 476.634 5.41653 2.27784 0
M  V30 5159 H 478.158 5.20844 3.18675 0
M  V30 5160 H 479.572 5.65221 0.959085 0
M  V30 5161 H 477.969 5.99594 0.246466 0
M  V30 5162 H 479.039 4.8192 -0.536738 0
M  V30 5163 N 480.382 0.0267497 1.57577 0
M  V30 5164 C 481.33 -0.973923 2.11229 0
M  V30 5165 C 482.324 -1.33849 1.03831 0
M  V30 5166 O 483.53 -1.321 1.22269 0
M  V30 5167 H 479.905 -0.331844 0.674821 0
M  V30 5168 H 481.876 -0.496092 2.94247 0
M  V30 5169 C 480.625 -2.24798 2.65257 0
M  V30 5170 H 479.948 -1.9762 3.47543 0
M  V30 5171 H 481.388 -2.93031 3.06445 0
M  V30 5172 C 479.847 -2.97611 1.57891 0
M  V30 5173 O 480.377 -3.89629 0.97735 0
M  V30 5174 N 478.583 -2.59905 1.29992 0
M  V30 5175 H 478.13 -1.85154 1.79097 0
M  V30 5176 H 478.088 -3.08932 0.583798 0
M  V30 5177 N 481.861 -1.55662 -0.24637 0
M  V30 5178 C 483.086 -1.81914 -0.996093 0
M  V30 5179 C 483.511 -0.603875 -1.78143 0
M  V30 5180 O 482.869 0.447091 -1.75701 0
M  V30 5181 C 482.917 -3.05908 -1.90925 0
M  V30 5182 O 482.021 -2.82861 -3.00105 0
M  V30 5183 H 481.362 -0.600481 -0.283406 0
M  V30 5184 H 483.892 -2.02848 -0.267199 0
M  V30 5185 H 483.902 -3.35356 -2.3238 0
M  V30 5186 H 482.577 -3.93999 -1.33183 0
M  V30 5187 H 481.154 -2.64583 -2.62775 0
M  V30 5188 N 483.339 0.512053 -1.4905 0
M  V30 5189 C 484.302 1.59704 -1.64399 0
M  V30 5190 C 485.302 1.52285 -0.516317 0
M  V30 5191 O 486.492 1.55635 -0.782527 0
M  V30 5192 C 483.624 2.9935 -1.63102 0
M  V30 5193 H 484.817 1.47428 -2.61161 0
M  V30 5194 H 482.37 0.735469 -1.37915 0
M  V30 5195 H 483.105 3.17116 -0.678836 0
M  V30 5196 H 482.89 3.06144 -2.44986 0
M  V30 5197 H 484.38 3.782 -1.77072 0
M  V30 5198 N 484.817 1.37938 0.762283 0
M  V30 5199 C 486.045 1.36883 1.55147 0
M  V30 5200 C 486.46 -0.0435348 1.8875 0
M  V30 5201 O 485.817 -1.00786 1.52146 0
M  V30 5202 C 485.868 2.21624 2.85596 0
M  V30 5203 O 485.589 3.57358 2.5343 0
M  V30 5204 C 487.09 2.28653 3.7978 0
M  V30 5205 H 484.31 0.468521 0.480343 0
M  V30 5206 H 486.854 1.81404 0.944079 0
M  V30 5207 H 485.009 1.80588 3.42734 0
M  V30 5208 H 485.423 4.01883 3.37032 0
M  V30 5209 H 486.897 2.9225 4.68288 0
M  V30 5210 H 487.374 1.29767 4.19592 0
M  V30 5211 H 487.98 2.70043 3.28568 0
M  V30 5212 N 486.295 -0.989507 1.22664 0
M  V30 5213 C 487.52 -1.77031 1.08051 0
M  V30 5214 C 487.945 -1.84535 -0.364483 0
M  V30 5215 O 487.303 -1.3003 -1.2634 0
M  V30 5216 C 487.351 -3.18 1.70024 0
M  V30 5217 O 486.455 -4.01161 0.956216 0
M  V30 5218 H 485.796 -0.545008 0.379292 0
M  V30 5219 H 488.326 -1.24277 1.62531 0
M  V30 5220 H 488.336 -3.68616 1.74888 0
M  V30 5221 H 487.011 -3.11853 2.75174 0
M  V30 5222 H 485.588 -3.59687 0.98384 0
M  V30 5223 N 487.773 -1.03688 -1.18687 0
M  V30 5224 C 489.02 -0.73803 -1.88572 0
M  V30 5225 C 489.348 0.733973 -1.8012 0
M  V30 5226 O 488.603 1.55098 -1.19344 0
M  V30 5227 C 488.902 -1.14477 -3.3857 0
M  V30 5228 C 488.568 -2.61641 -3.67226 0
M  V30 5229 C 487.23 -3.01846 -3.74757 0
M  V30 5230 C 489.582 -3.56812 -3.79914 0
M  V30 5231 C 486.91 -4.36118 -3.92451 0
M  V30 5232 C 489.262 -4.90799 -3.99123 0
M  V30 5233 C 487.926 -5.3068 -4.04888 0
M  V30 5234 H 487.196 -0.270064 -0.690034 0
M  V30 5235 H 489.843 -1.3012 -1.40503 0
M  V30 5236 H 488.148 -0.500337 -3.88592 0
M  V30 5237 H 489.845 -0.89095 -3.90977 0
M  V30 5238 H 486.435 -2.29498 -3.61979 0
M  V30 5239 H 490.619 -3.26899 -3.73431 0
M  V30 5240 H 485.875 -4.66542 -3.95157 0
M  V30 5241 H 490.049 -5.64451 -4.07882 0
M  V30 5242 H 487.676 -6.34733 -4.18351 0
M  V30 5243 N 489.251 1.34841 -0.815825 0
M  V30 5244 C 490.497 1.98793 -0.401129 0
M  V30 5245 C 490.83 1.64548 1.03139 0
M  V30 5246 O 490.105 0.913487 1.71714 0
M  V30 5247 C 490.388 3.55143 -0.595409 0
M  V30 5248 C 490.241 3.99155 -2.07352 0
M  V30 5249 C 491.56 4.40092 -0.0268823 0
M  V30 5250 H 488.679 0.722146 -0.14722 0
M  V30 5251 H 491.321 1.59847 -1.02707 0
M  V30 5252 H 489.471 3.8845 -0.0625779 0
M  V30 5253 H 491.143 3.76216 -2.66945 0
M  V30 5254 H 489.386 3.49726 -2.56659 0
M  V30 5255 H 490.057 5.07971 -2.1603 0
M  V30 5256 H 492.533 4.13298 -0.482042 0
M  V30 5257 H 491.409 5.48562 -0.19267 0
M  V30 5258 H 491.67 4.29016 1.06759 0
M  V30 5259 N 490.729 0.570148 1.46925 0
M  V30 5260 C 491.692 -0.159933 2.28641 0
M  V30 5261 C 492.692 -0.830638 1.37685 0
M  V30 5262 O 493.882 -0.684516 1.60187 0
M  V30 5263 C 491.014 -1.2354 3.17727 0
M  V30 5264 H 492.207 0.558035 2.94662 0
M  V30 5265 H 489.76 0.327603 1.52828 0
M  V30 5266 H 490.495 -1.98535 2.56426 0
M  V30 5267 H 490.28 -0.759125 3.84681 0
M  V30 5268 H 491.77 -1.74782 3.79264 0
M  V30 5269 N 492.207 -1.54576 0.307264 0
M  V30 5270 C 493.455 -1.99867 -0.299574 0
M  V30 5271 C 493.776 -1.19714 -1.53927 0
M  V30 5272 O 493.046 -0.29472 -1.9367 0
M  V30 5273 H 491.626 -0.738299 -0.113683 0
M  V30 5274 H 494.288 -1.9032 0.420042 0
M  V30 5275 H 493.384 -3.06901 -0.567283 0
M  V30 5276 N 493.685 -0.035106 -1.57561 0
M  V30 5277 C 494.932 0.642229 -1.92046 0
M  V30 5278 C 495.26 1.7179 -0.91206 0
M  V30 5279 O 494.515 1.95544 0.0781153 0
M  V30 5280 C 494.814 1.29149 -3.3325 0
M  V30 5281 C 494.48 0.345604 -4.49574 0
M  V30 5282 C 493.142 0.0852775 -4.81124 0
M  V30 5283 C 495.494 -0.303569 -5.20315 0
M  V30 5284 C 492.822 -0.831927 -5.80772 0
M  V30 5285 C 495.174 -1.20886 -6.20942 0
M  V30 5286 C 493.838 -1.47802 -6.50931 0
M  V30 5287 H 493.108 0.235008 -0.702746 0
M  V30 5288 H 495.755 -0.0981529 -1.91248 0
M  V30 5289 H 494.06 2.10676 -3.30337 0
M  V30 5290 H 495.757 1.82223 -3.57205 0
M  V30 5291 H 492.347 0.558683 -4.24943 0
M  V30 5292 H 496.531 -0.115515 -4.96166 0
M  V30 5293 H 491.787 -1.0481 -6.02349 0
M  V30 5294 H 495.961 -1.71804 -6.74875 0
M  V30 5295 H 493.588 -2.19039 -7.2796 0
M  V30 5296 N 495.163 1.55791 0.238111 0
M  V30 5297 C 496.409 1.78297 0.966337 0
M  V30 5298 C 496.742 0.601903 1.84637 0
M  V30 5299 O 496.017 -0.399499 1.90353 0
M  V30 5300 C 496.3 3.10758 1.81939 0
M  V30 5301 C 496.153 4.39283 0.966958 0
M  V30 5302 C 497.472 3.39519 2.80027 0
M  V30 5303 H 494.591 0.648654 0.349882 0
M  V30 5304 H 497.233 1.88525 0.236253 0
M  V30 5305 H 495.383 3.02168 2.44185 0
M  V30 5306 H 497.055 4.59873 0.362514 0
M  V30 5307 H 495.298 4.32948 0.271669 0
M  V30 5308 H 495.969 5.28368 1.59784 0
M  V30 5309 H 498.445 3.48128 2.27917 0
M  V30 5310 H 497.321 4.33402 3.36829 0
M  V30 5311 H 497.582 2.60864 3.56934 0
M  V30 5312 N 496.642 -0.504142 1.49319 0
M  V30 5313 C 497.888 -1.26033 1.58882 0
M  V30 5314 C 498.221 -1.92268 0.273274 0
M  V30 5315 O 497.496 -1.80567 -0.72291 0
M  V30 5316 C 497.779 -2.32976 2.7458 0
M  V30 5317 C 497.632 -1.71263 4.1592 0
M  V30 5318 C 498.951 -3.34561 2.85932 0
M  V30 5319 H 496.07 -0.456863 0.578312 0
M  V30 5320 H 498.712 -0.558965 1.81592 0
M  V30 5321 H 496.862 -2.92796 2.55348 0
M  V30 5322 H 498.534 -1.15294 4.4666 0
M  V30 5323 H 496.777 -1.01686 4.21714 0
M  V30 5324 H 497.448 -2.48816 4.92742 0
M  V30 5325 H 499.924 -2.84727 3.0343 0
M  V30 5326 H 498.8 -4.06754 3.68568 0
M  V30 5327 H 499.061 -3.96695 1.95154 0
M  V30 5328 N 498.12 -1.38341 -0.754957 0
M  V30 5329 C 499.367 -1.34473 -1.51404 0
M  V30 5330 C 499.695 0.0656458 -1.94389 0
M  V30 5331 O 498.95 1.04244 -1.65625 0
M  V30 5332 C 499.249 -2.2452 -2.78075 0
M  V30 5333 C 498.915 -3.72512 -2.54059 0
M  V30 5334 C 497.577 -4.1284 -2.47218 0
M  V30 5335 C 499.929 -4.66197 -2.33044 0
M  V30 5336 C 497.257 -5.44945 -2.17376 0
M  V30 5337 C 499.609 -5.98558 -2.04723 0
M  V30 5338 C 498.273 -6.37972 -1.96337 0
M  V30 5339 H 497.543 -0.492072 -0.554027 0
M  V30 5340 H 500.19 -1.70687 -0.868223 0
M  V30 5341 H 498.495 -1.81357 -3.473 0
M  V30 5342 H 500.192 -2.18832 -3.36026 0
M  V30 5343 H 496.782 -3.40538 -2.60253 0
M  V30 5344 H 500.966 -4.35888 -2.37309 0
M  V30 5345 H 496.222 -5.74426 -2.09391 0
M  V30 5346 H 500.396 -6.70693 -1.87465 0
M  V30 5347 H 498.023 -7.40258 -1.72978 0
M  V30 5348 N 499.598 0.982988 -1.23187 0
M  V30 5349 C 500.823 1.76455 -1.08988 0
M  V30 5350 C 501.248 1.84726 0.354691 0
M  V30 5351 O 500.606 1.30699 1.25649 0
M  V30 5352 C 500.654 3.17094 -1.71708 0
M  V30 5353 O 499.758 4.00648 -0.977477 0
M  V30 5354 H 499.099 0.542988 -0.382177 0
M  V30 5355 H 501.629 1.23413 -1.63188 0
M  V30 5356 H 501.639 3.67684 -1.76841 0
M  V30 5357 H 500.314 3.10389 -2.76823 0
M  V30 5358 H 498.891 3.59161 -1.0029 0
M  V30 5359 N 501.076 1.04316 1.18135 0
M  V30 5360 C 502.325 0.74319 1.87509 0
M  V30 5361 C 502.638 -0.732136 1.81381 0
M  V30 5362 O 503.844 -1.14572 2.46141 0
M  V30 5363 C 502.3 1.27913 3.36402 0
M  V30 5364 C 501.908 2.78326 3.51053 0
M  V30 5365 C 503.652 1.0558 4.11161 0
M  V30 5366 C 501.559 3.25266 4.93919 0
M  V30 5367 H 500.489 0.274313 0.702331 0
M  V30 5368 H 503.14 1.25931 1.33467 0
M  V30 5369 H 501.522 0.690853 3.89927 0
M  V30 5370 H 502.696 3.42933 3.07788 0
M  V30 5371 H 501.011 2.991 2.89704 0
M  V30 5372 H 503.608 1.38161 5.16542 0
M  V30 5373 H 503.951 -0.00684729 4.16299 0
M  V30 5374 H 504.484 1.60882 3.63816 0
M  V30 5375 H 501.223 4.30922 4.9395 0
M  V30 5376 H 500.743 2.65396 5.3789 0
M  V30 5377 H 502.422 3.19433 5.62647 0
M  V30 5378 N 502.554 -1.34406 0.822964 0
M  V30 5379 C 503.484 -2.32052 0.259608 0
M  V30 5380 C 504.465 -1.58243 -0.623961 0
M  V30 5381 O 505.65 -1.86224 -0.55083 0
M  V30 5382 C 502.78 -3.42434 -0.579314 0
M  V30 5383 C 501.734 -4.27499 0.20712 0
M  V30 5384 C 501.06 -5.29349 -0.754547 0
M  V30 5385 C 502.36 -5.02758 1.41533 0
M  V30 5386 H 504.054 -2.79418 1.07545 0
M  V30 5387 H 501.6 -1.34338 0.518593 0
M  V30 5388 H 503.553 -4.0976 -0.983612 0
M  V30 5389 H 502.277 -2.93717 -1.4282 0
M  V30 5390 H 500.936 -3.61776 0.592787 0
M  V30 5391 H 500.584 -4.76895 -1.59939 0
M  V30 5392 H 500.284 -5.8714 -0.232561 0
M  V30 5393 H 501.808 -5.99544 -1.1567 0
M  V30 5394 H 503.222 -5.62938 1.08504 0
M  V30 5395 H 501.619 -5.70123 1.87296 0
M  V30 5396 H 502.689 -4.32451 2.1935 0
M  V30 5397 N 504.032 -0.577932 -1.46621 0
M  V30 5398 C 505.28 -0.061566 -2.02006 0
M  V30 5399 C 505.601 1.30117 -1.4524 0
M  V30 5400 O 504.871 1.85313 -0.63529 0
M  V30 5401 H 503.451 -0.0197692 -0.746738 0
M  V30 5402 H 506.113 -0.752631 -1.79782 0
M  V30 5403 H 505.209 0.0110238 -3.12098 0
M  V30 5404 N 505.51 1.54411 -0.315457 0
M  V30 5405 C 506.757 2.00419 0.289543 0
M  V30 5406 C 507.085 1.20373 1.52776 0
M  V30 5407 O 506.34 0.271769 1.93804 0
M  V30 5408 C 506.639 3.50936 0.676652 0
M  V30 5409 C 506.305 4.48532 -0.461472 0
M  V30 5410 C 504.967 4.74936 -0.773879 0
M  V30 5411 C 507.319 5.06567 -1.22637 0
M  V30 5412 C 504.647 5.56634 -1.85405 0
M  V30 5413 C 506.999 5.89441 -2.29657 0
M  V30 5414 C 505.663 6.1415 -2.61488 0
M  V30 5415 H 504.933 0.733386 0.105951 0
M  V30 5416 H 507.58 1.86434 -0.437554 0
M  V30 5417 H 505.885 3.62606 1.48405 0
M  V30 5418 H 507.582 3.83971 1.15618 0
M  V30 5419 H 504.172 4.28096 -0.207893 0
M  V30 5420 H 508.356 4.86157 -0.998271 0
M  V30 5421 H 503.612 5.74012 -2.10523 0
M  V30 5422 H 507.786 6.33432 -2.89374 0
M  V30 5423 H 505.413 6.77245 -3.45317 0
M  V30 5424 N 506.988 0.0434614 1.5754 0
M  V30 5425 C 507.921 -0.968729 2.06618 0
M  V30 5426 C 508.899 -1.30868 0.965 0
M  V30 5427 O 510.083 -1.42288 1.23638 0
M  V30 5428 C 507.21 -2.28486 2.50023 0
M  V30 5429 C 506.256 -2.09851 3.71302 0
M  V30 5430 S 507.089 -1.38401 5.17306 0
M  V30 5431 C 508.245 -2.71354 5.64019 0
M  V30 5432 H 508.478 -0.551021 2.92149 0
M  V30 5433 H 506.011 -0.168607 1.53477 0
M  V30 5434 H 507.969 -3.04142 2.75695 0
M  V30 5435 H 506.63 -2.67387 1.64812 0
M  V30 5436 H 505.823 -3.07184 3.99567 0
M  V30 5437 H 505.425 -1.42336 3.45856 0
M  V30 5438 H 507.717 -3.67549 5.69134 0
M  V30 5439 H 508.66 -2.47734 6.6335 0
M  V30 5440 H 509.068 -2.77259 4.91719 0
M  V30 5441 N 508.466 -1.55915 -0.229846 0
M  V30 5442 C 509.691 -1.8296 -0.976743 0
M  V30 5443 C 510.116 -0.622735 -1.77493 0
M  V30 5444 O 509.474 0.428431 -1.76165 0
M  V30 5445 C 509.522 -3.07916 -1.8767 0
M  V30 5446 O 508.626 -2.86028 -2.97088 0
M  V30 5447 H 507.967 -0.603453 -0.277021 0
M  V30 5448 H 510.497 -2.0312 -0.245669 0
M  V30 5449 H 510.507 -3.37802 -2.2881 0
M  V30 5450 H 509.182 -3.95389 -1.28996 0
M  V30 5451 H 507.759 -2.67355 -2.59954 0
M  V30 5452 N 509.944 0.496216 -1.49584 0
M  V30 5453 C 510.876 1.61404 -1.62731 0
M  V30 5454 C 511.889 1.54613 -0.50978 0
M  V30 5455 O 513.078 1.60458 -0.782017 0
M  V30 5456 C 510.178 3.00212 -1.57245 0
M  V30 5457 C 509.351 3.32138 -2.84611 0
M  V30 5458 C 508.41 4.5038 -2.72112 0
M  V30 5459 O 507.436 4.51926 -3.46051 0
M  V30 5460 N 508.638 5.50575 -1.83977 0
M  V30 5461 H 511.403 1.50552 -2.59141 0
M  V30 5462 H 508.964 0.684182 -1.46733 0
M  V30 5463 H 510.956 3.77241 -1.4653 0
M  V30 5464 H 509.526 3.04964 -0.686729 0
M  V30 5465 H 508.746 2.4396 -3.09641 0
M  V30 5466 H 510.034 3.50268 -3.69039 0
M  V30 5467 H 509.432 5.52128 -1.23171 0
M  V30 5468 H 507.989 6.26687 -1.79182 0
M  V30 5469 N 511.423 1.38739 0.74761 0
M  V30 5470 C 512.333 1.38696 1.89211 0
M  V30 5471 C 513.349 0.283303 1.71678 0
M  V30 5472 O 514.525 0.522713 1.94498 0
M  V30 5473 C 511.59 1.21662 3.24653 0
M  V30 5474 C 510.651 2.41886 3.54669 0
M  V30 5475 C 509.884 2.25655 4.83648 0
M  V30 5476 O 510.107 1.25339 5.56459 0
M  V30 5477 O 509.041 3.14372 5.13277 0
M  V30 5478 H 512.867 2.35143 1.92202 0
M  V30 5479 H 510.452 1.19721 0.893708 0
M  V30 5480 H 512.334 1.14246 4.05618 0
M  V30 5481 H 511.009 0.283024 3.2246 0
M  V30 5482 H 509.916 2.54877 2.73841 0
M  V30 5483 H 511.249 3.33895 3.61628 0
M  V30 5484 N 512.901 -0.976442 1.23707 0
M  V30 5485 C 513.833 -2.07212 0.979574 0
M  V30 5486 C 514.846 -1.6273 -0.0478528 0
M  V30 5487 O 516.035 -1.77506 0.18815 0
M  V30 5488 C 513.135 -3.35835 0.45479 0
M  V30 5489 C 512.308 -4.09268 1.54331 0
M  V30 5490 C 511.367 -5.16166 1.02271 0
M  V30 5491 O 510.393 -5.42827 1.71254 0
M  V30 5492 N 511.595 -5.80313 -0.147419 0
M  V30 5493 H 514.36 -2.29878 1.92292 0
M  V30 5494 H 511.921 -1.14343 1.14618 0
M  V30 5495 H 513.913 -4.04597 0.0914631 0
M  V30 5496 H 512.483 -3.10106 -0.394068 0
M  V30 5497 H 511.703 -3.34906 2.07923 0
M  V30 5498 H 512.991 -4.55095 2.27522 0
M  V30 5499 H 512.389 -5.61043 -0.724353 0
M  V30 5500 H 510.946 -6.50231 -0.451972 0
M  V30 5501 N 514.379 -1.04941 -1.1758 0
M  V30 5502 C 515.627 -0.756492 -1.87408 0
M  V30 5503 C 515.948 0.718478 -1.81281 0
M  V30 5504 O 515.218 1.519 -1.23706 0
M  V30 5505 H 513.798 -0.276841 -0.693807 0
M  V30 5506 H 516.46 -1.32803 -1.42652 0
M  V30 5507 H 515.556 -1.06918 -2.93215 0
M  V30 5508 N 515.857 1.33968 -0.830081 0
M  V30 5509 C 517.103 1.98357 -0.422191 0
M  V30 5510 C 517.436 1.65633 1.01387 0
M  V30 5511 O 516.711 0.931648 1.70735 0
M  V30 5512 C 516.994 3.54492 -0.633043 0
M  V30 5513 C 516.847 3.96934 -2.11574 0
M  V30 5514 C 518.166 4.40039 -0.0735584 0
M  V30 5515 H 515.285 0.720544 -0.154871 0
M  V30 5516 H 517.927 1.58749 -1.04397 0
M  V30 5517 H 516.077 3.88361 -0.103775 0
M  V30 5518 H 517.749 3.73363 -2.7092 0
M  V30 5519 H 515.992 3.46984 -2.60354 0
M  V30 5520 H 516.663 5.05651 -2.21406 0
M  V30 5521 H 519.139 4.12764 -0.52585 0
M  V30 5522 H 518.015 5.48327 -0.250841 0
M  V30 5523 H 518.276 4.30124 1.02202 0
M  V30 5524 N 517.335 0.585699 1.46312 0
M  V30 5525 C 518.746 0.159938 1.86014 0
M  V30 5526 C 519.097 -1.27775 1.48889 0
M  V30 5527 O 518.222 -1.96559 0.90519 0
M  V30 5528 C 518.817 0.283485 3.37612 0
M  V30 5529 C 517.376 -0.0874256 3.76298 0
M  V30 5530 C 516.523 0.618055 2.70325 0
M  V30 5531 H 519.474 0.793737 1.37425 0
M  V30 5532 H 519.495 -0.490348 3.77327 0
M  V30 5533 H 519.007 1.32995 3.64601 0
M  V30 5534 H 517.108 -1.13391 3.54927 0
M  V30 5535 H 517.221 0.290975 4.78216 0
M  V30 5536 H 515.585 0.057993 2.54634 0
M  V30 5537 H 516.368 1.66623 3.00153 0
M  V30 5538 N 518.813 -1.54241 0.323641 0
M  V30 5539 C 520.062 -1.9975 -0.279806 0
M  V30 5540 C 520.375 -1.2156 -1.5324 0
M  V30 5541 O 521.581 -1.57447 -2.21185 0
M  V30 5542 C 520.037 -3.55686 -0.549115 0
M  V30 5543 C 519.645 -4.4271 0.686432 0
M  V30 5544 C 521.389 -4.09663 -1.11251 0
M  V30 5545 C 519.296 -5.90119 0.389022 0
M  V30 5546 H 518.226 -0.746177 -0.10833 0
M  V30 5547 H 520.877 -1.78248 0.435877 0
M  V30 5548 H 519.259 -3.73176 -1.32499 0
M  V30 5549 H 520.433 -4.36996 1.46188 0
M  V30 5550 H 518.748 -3.99623 1.17005 0
M  V30 5551 H 521.345 -5.17386 -1.34965 0
M  V30 5552 H 521.688 -3.61651 -2.06191 0
M  V30 5553 H 522.221 -3.95806 -0.39782 0
M  V30 5554 H 518.96 -6.42326 1.30759 0
M  V30 5555 H 518.48 -5.98785 -0.348722 0
M  V30 5556 H 520.159 -6.47 -0.0011164 0
M  V30 5557 N 520.291 -0.0518155 -1.57515 0
M  V30 5558 C 521.516 0.634896 -1.97443 0
M  V30 5559 C 521.941 1.63546 -0.929207 0
M  V30 5560 O 521.299 1.80981 0.107484 0
M  V30 5561 C 521.347 1.29765 -3.36442 0
M  V30 5562 O 520.451 2.41333 -3.34413 0
M  V30 5563 H 519.792 0.164994 -0.643174 0
M  V30 5564 H 522.322 -0.120407 -2.04245 0
M  V30 5565 H 522.332 1.64918 -3.73184 0
M  V30 5566 H 521.007 0.564361 -4.12053 0
M  V30 5567 H 519.584 2.08122 -3.09418 0
M  V30 5568 N 521.769 1.56035 0.221574 0
M  V30 5569 C 522.679 1.95581 1.29558 0
M  V30 5570 C 523.695 0.859639 1.51282 0
M  V30 5571 O 524.871 1.16321 1.64413 0
M  V30 5572 C 521.936 2.26447 2.62531 0
M  V30 5573 C 520.997 3.49632 2.4911 0
M  V30 5574 C 520.23 3.79017 3.75742 0
M  V30 5575 O 520.453 3.10077 4.78757 0
M  V30 5576 O 519.387 4.72507 3.72855 0
M  V30 5577 H 523.213 2.8711 0.990035 0
M  V30 5578 H 520.798 1.43244 0.424434 0
M  V30 5579 H 522.68 2.47494 3.41064 0
M  V30 5580 H 521.355 1.38092 2.92766 0
M  V30 5581 H 520.262 3.33864 1.68777 0
M  V30 5582 H 521.595 4.3837 2.23814 0
M  V30 5583 N 523.247 -0.488276 1.49845 0
M  V30 5584 C 524.493 -1.24341 1.6021 0
M  V30 5585 C 524.826 -1.91967 0.293651 0
M  V30 5586 O 524.101 -1.81323 -0.703718 0
M  V30 5587 C 524.384 -2.3005 2.77036 0
M  V30 5588 C 524.237 -1.66842 4.17713 0
M  V30 5589 C 525.556 -3.31509 2.89464 0
M  V30 5590 H 522.675 -0.450704 0.583125 0
M  V30 5591 H 525.317 -0.539673 1.82174 0
M  V30 5592 H 523.467 -2.90071 2.58439 0
M  V30 5593 H 525.139 -1.1055 4.47858 0
M  V30 5594 H 523.382 -0.972079 4.22768 0
M  V30 5595 H 524.053 -2.43576 4.95353 0
M  V30 5596 H 526.529 -2.81493 3.06433 0
M  V30 5597 H 525.405 -4.02822 3.72861 0
M  V30 5598 H 525.666 -3.94603 1.99351 0
M  V30 5599 N 524.725 -1.39134 -0.740242 0
M  V30 5600 C 525.688 -1.37217 -1.83587 0
M  V30 5601 C 526.688 -0.270221 -1.58513 0
M  V30 5602 O 527.878 -0.527843 -1.6601 0
M  V30 5603 C 525.01 -1.13959 -3.21288 0
M  V30 5604 H 526.203 -2.34705 -1.86691 0
M  V30 5605 H 523.756 -1.24622 -0.94335 0
M  V30 5606 H 524.491 -0.17131 -3.23847 0
M  V30 5607 H 524.276 -1.93754 -3.40884 0
M  V30 5608 H 525.766 -1.15346 -4.01354 0
M  V30 5609 N 526.204 0.969867 -1.24223 0
M  V30 5610 C 527.114 2.09806 -1.0497 0
M  V30 5611 C 528.13 1.73998 0.00886455 0
M  V30 5612 O 529.306 2.00513 -0.188848 0
M  V30 5613 C 526.371 3.40467 -0.654452 0
M  V30 5614 C 525.432 3.90236 -1.78926 0
M  V30 5615 C 524.665 5.14662 -1.41277 0
M  V30 5616 O 524.888 5.69602 -0.301632 0
M  V30 5617 O 523.822 5.58761 -2.23763 0
M  V30 5618 H 527.648 2.28942 -1.99548 0
M  V30 5619 H 525.233 1.08197 -1.03023 0
M  V30 5620 H 527.115 4.19039 -0.445452 0
M  V30 5621 H 525.79 3.22636 0.262216 0
M  V30 5622 H 524.697 3.12735 -2.05299 0
M  V30 5623 H 526.03 4.1254 -2.68462 0
M  V30 5624 N 527.682 1.05563 1.17022 0
M  V30 5625 C 528.907 0.788437 1.91829 0
M  V30 5626 C 529.332 -0.650356 1.76499 0
M  V30 5627 O 528.69 -1.45229 1.08527 0
M  V30 5628 C 528.738 1.1786 3.40795 0
M  V30 5629 O 527.842 0.312965 4.11211 0
M  V30 5630 H 527.183 0.288794 0.597908 0
M  V30 5631 H 529.713 1.40948 1.48307 0
M  V30 5632 H 529.723 1.14697 3.91546 0
M  V30 5633 H 528.398 2.22666 3.51273 0
M  V30 5634 H 526.975 0.405515 3.70689 0
M  V30 5635 N 529.16 -1.33526 0.837174 0
M  V30 5636 C 530.408 -1.97446 0.431211 0
M  V30 5637 C 530.729 -1.6665 -1.01255 0
M  V30 5638 O 529.999 -0.964559 -1.70508 0
M  V30 5639 H 528.579 -0.73043 0.156463 0
M  V30 5640 H 531.241 -1.62918 1.06976 0
M  V30 5641 H 530.337 -3.07001 0.561877 0
M  V30 5642 N 530.638 -0.59345 -1.46 0
M  V30 5643 C 532.049 -0.169801 -1.85926 0
M  V30 5644 C 532.4 1.26984 -1.49565 0
M  V30 5645 O 531.525 1.96076 -0.915602 0
M  V30 5646 C 532.12 -0.301385 -3.37457 0
M  V30 5647 C 530.679 0.0674684 -3.7634 0
M  V30 5648 C 529.826 -0.632383 -2.69993 0
M  V30 5649 H 532.777 -0.801014 -1.37002 0
M  V30 5650 H 532.798 0.470331 -3.77582 0
M  V30 5651 H 532.31 -1.34927 -3.63891 0
M  V30 5652 H 530.411 1.11507 -3.55523 0
M  V30 5653 H 530.524 -0.316332 -4.78055 0
M  V30 5654 H 528.888 -0.0714961 -2.546 0
M  V30 5655 H 529.671 -1.68212 -2.99265 0
M  V30 5656 N 532.116 1.54067 -0.331816 0
M  V30 5657 C 533.364 2.00319 0.267739 0
M  V30 5658 C 533.685 1.22148 1.52003 0
M  V30 5659 O 532.955 0.325494 1.93177 0
M  V30 5660 H 531.535 0.740014 0.101922 0
M  V30 5661 H 534.197 1.89628 -0.450267 0
M  V30 5662 H 533.293 3.07765 0.518385 0
M  V30 5663 N 533.594 0.0601682 1.57485 0
M  V30 5664 C 534.524 -0.90889 2.15085 0
M  V30 5665 C 535.505 -1.31838 1.07484 0
M  V30 5666 O 536.69 -1.3915 1.35466 0
M  V30 5667 C 533.82 -2.18059 2.7031 0
M  V30 5668 C 532.774 -1.91088 3.82974 0
M  V30 5669 C 532.1 -3.24789 4.24754 0
M  V30 5670 C 533.4 -1.22535 5.07723 0
M  V30 5671 H 535.094 -0.429093 2.96309 0
M  V30 5672 H 532.64 -0.204952 1.42534 0
M  V30 5673 H 534.593 -2.86258 3.09248 0
M  V30 5674 H 533.317 -2.6826 1.8629 0
M  V30 5675 H 531.976 -1.25297 3.44523 0
M  V30 5676 H 531.624 -3.72809 3.37672 0
M  V30 5677 H 531.324 -3.07538 5.00694 0
M  V30 5678 H 532.848 -3.94205 4.66299 0
M  V30 5679 H 534.262 -1.80783 5.4405 0
M  V30 5680 H 532.659 -1.1558 5.88864 0
M  V30 5681 H 533.729 -0.202692 4.84476 0
M  V30 5682 N 535.072 -1.5615 -0.213296 0
M  V30 5683 C 536.035 -1.92249 -1.24792 0
M  V30 5684 C 537.035 -0.801828 -1.39382 0
M  V30 5685 O 538.225 -1.06948 -1.37506 0
M  V30 5686 C 535.357 -2.18056 -2.62039 0
M  V30 5687 H 536.55 -2.84793 -0.939845 0
M  V30 5688 H 534.103 -1.49559 -0.454062 0
M  V30 5689 H 534.838 -1.2809 -2.97932 0
M  V30 5690 H 534.623 -2.99703 -2.52825 0
M  V30 5691 H 536.113 -2.47051 -3.36683 0
M  V30 5692 N 536.55 0.480323 -1.50102 0
M  V30 5693 C 537.797 1.23307 -1.60629 0
M  V30 5694 C 538.125 1.92135 -0.302375 0
M  V30 5695 O 537.38 1.82321 0.711154 0
M  V30 5696 C 537.679 2.30708 -2.72963 0
M  V30 5697 C 537.345 1.79195 -4.13763 0
M  V30 5698 C 536.007 1.64867 -4.52076 0
M  V30 5699 C 538.359 1.40878 -5.018 0
M  V30 5700 C 535.687 1.10631 -5.76175 0
M  V30 5701 C 538.039 0.880872 -6.26437 0
M  V30 5702 C 536.703 0.724146 -6.6356 0
M  V30 5703 H 535.973 0.451211 -0.587784 0
M  V30 5704 H 538.62 0.53051 -1.84005 0
M  V30 5705 H 536.925 3.06834 -2.43639 0
M  V30 5706 H 538.622 2.88692 -2.78313 0
M  V30 5707 H 535.212 1.91313 -3.83533 0
M  V30 5708 H 539.396 1.50786 -4.7284 0
M  V30 5709 H 534.652 0.972263 -6.0362 0
M  V30 5710 H 538.826 0.575269 -6.9402 0
M  V30 5711 H 536.453 0.301722 -7.59601 0
M  V30 5712 N 538.028 1.39524 0.732853 0
M  V30 5713 C 539.277 1.36175 1.48792 0
M  V30 5714 C 539.59 -0.0388195 1.95561 0
M  V30 5715 O 540.796 -0.194899 2.708 0
M  V30 5716 C 539.252 2.39242 2.68871 0
M  V30 5717 C 538.86 3.85024 2.29042 0
M  V30 5718 C 540.604 2.44972 3.46683 0
M  V30 5719 C 538.511 4.79727 3.45856 0
M  V30 5720 H 537.441 0.506267 0.558757 0
M  V30 5721 H 540.092 1.65181 0.799226 0
M  V30 5722 H 538.474 2.0331 3.39825 0
M  V30 5723 H 539.648 4.30008 1.6562 0
M  V30 5724 H 537.963 3.82609 1.64316 0
M  V30 5725 H 540.56 3.12918 4.33574 0
M  V30 5726 H 540.903 1.4749 3.89297 0
M  V30 5727 H 541.436 2.79808 2.82759 0
M  V30 5728 H 538.175 5.78479 3.08289 0
M  V30 5729 H 537.695 4.39421 4.08251 0
M  V30 5730 H 539.374 4.98731 4.12161 0
M  V30 5731 N 539.506 -0.963266 1.24736 0
M  V30 5732 C 540.469 -2.04013 1.04457 0
M  V30 5733 C 541.469 -1.608 0.000335555 0
M  V30 5734 O 542.659 -1.72515 0.241719 0
M  V30 5735 C 539.791 -3.35858 0.584162 0
M  V30 5736 H 540.984 -2.23436 2.00041 0
M  V30 5737 H 538.537 -1.13914 1.07021 0
M  V30 5738 H 539.272 -3.22128 -0.374673 0
M  V30 5739 H 539.057 -3.68568 1.3379 0
M  V30 5740 H 540.547 -4.1502 0.463451 0
M  V30 5741 N 540.985 -1.06182 -1.16461 0
M  V30 5742 C 542.232 -0.777863 -1.86964 0
M  V30 5743 C 542.56 0.695602 -1.81636 0
M  V30 5744 O 541.815 1.52532 -1.22607 0
M  V30 5745 C 542.114 -1.21633 -3.36066 0
M  V30 5746 C 541.78 -2.69371 -3.61594 0
M  V30 5747 C 540.442 -3.09727 -3.6827 0
M  V30 5748 C 542.794 -3.64791 -3.7226 0
M  V30 5749 C 540.122 -4.44345 -3.83112 0
M  V30 5750 C 542.474 -4.99155 -3.88623 0
M  V30 5751 C 541.138 -5.39149 -3.93541 0
M  V30 5752 H 540.408 -0.28464 -0.68415 0
M  V30 5753 H 543.055 -1.33071 -1.37711 0
M  V30 5754 H 541.36 -0.582651 -3.87443 0
M  V30 5755 H 543.057 -0.973682 -3.88999 0
M  V30 5756 H 539.647 -2.37124 -3.57029 0
M  V30 5757 H 543.831 -3.34746 -3.66413 0
M  V30 5758 H 539.087 -4.74819 -3.85172 0
M  V30 5759 H 543.261 -5.72976 -3.95817 0
M  V30 5760 H 540.888 -6.43464 -4.04794 0
M  V30 5761 N 542.463 1.3308 -0.844243 0
M  V30 5762 C 543.874 1.7992 -0.498566 0
M  V30 5763 C 544.225 1.69808 0.982834 0
M  V30 5764 O 543.35 1.25051 1.7661 0
M  V30 5765 C 543.945 3.26677 -0.898204 0
M  V30 5766 C 542.504 3.71513 -0.604583 0
M  V30 5767 C 541.651 2.54393 -1.10362 0
M  V30 5768 H 544.602 1.20526 -1.03244 0
M  V30 5769 H 544.623 3.79918 -0.21039 0
M  V30 5770 H 544.135 3.34004 -1.97643 0
M  V30 5771 H 542.236 3.69708 0.46335 0
M  V30 5772 H 542.349 4.64755 -1.16358 0
M  V30 5773 H 540.713 2.49246 -0.524273 0
M  V30 5774 H 541.496 2.6448 -2.18873 0
M  V30 5775 N 543.941 0.601185 1.45683 0
M  V30 5776 C 544.888 -0.121396 2.30481 0
M  V30 5777 C 545.858 -0.866232 1.41724 0
M  V30 5778 O 547.043 -0.85324 1.70659 0
M  V30 5779 C 544.183 -1.11704 3.26521 0
M  V30 5780 C 543.296 -0.373741 4.3038 0
M  V30 5781 C 542.431 -1.35854 5.13534 0
M  V30 5782 C 541.47 -0.602689 6.09126 0
M  V30 5783 N 540.607 -1.53645 6.85082 0
M  V30 5784 H 545.447 0.607732 2.91737 0
M  V30 5785 H 542.984 0.311502 1.43764 0
M  V30 5786 H 544.942 -1.70735 3.80664 0
M  V30 5787 H 543.572 -1.81366 2.67032 0
M  V30 5788 H 542.624 0.331962 3.78949 0
M  V30 5789 H 543.936 0.2163 4.98331 0
M  V30 5790 H 543.09 -2.02111 5.72046 0
M  V30 5791 H 541.829 -1.98251 4.45587 0
M  V30 5792 H 540.834 0.0735482 5.49751 0
M  V30 5793 H 542.059 0.0161467 6.79098 0
M  V30 5794 H 540.005 -2.14819 6.1983 0
M  V30 5795 H 539.922 -0.999688 7.49361 0
M  V30 5796 H 541.19 -2.1888 7.48139 0
M  V30 5797 N 545.419 -1.53889 0.339982 0
M  V30 5798 C 546.382 -2.23547 -0.50592 0
M  V30 5799 C 547.382 -1.23445 -1.03044 0
M  V30 5800 O 548.572 -1.47909 -0.920253 0
M  V30 5801 C 545.704 -2.95234 -1.7044 0
M  V30 5802 H 546.897 -2.99722 0.103247 0
M  V30 5803 H 544.45 -1.56033 0.0912804 0
M  V30 5804 H 545.185 -2.23236 -2.35236 0
M  V30 5805 H 544.97 -3.68654 -1.33553 0
M  V30 5806 H 546.46 -3.48258 -2.30447 0
M  V30 5807 N 546.897 -0.0685191 -1.57451 0
M  V30 5808 C 548.143 0.602239 -1.93652 0
M  V30 5809 C 548.476 1.6946 -0.948526 0
M  V30 5810 O 547.751 1.94487 0.022782 0
M  V30 5811 C 548.034 1.18223 -3.4014 0
M  V30 5812 C 547.887 0.0967431 -4.49696 0
M  V30 5813 C 549.206 2.08872 -3.87377 0
M  V30 5814 H 546.325 0.217453 -0.70419 0
M  V30 5815 H 548.967 -0.133821 -1.89528 0
M  V30 5816 H 547.117 1.80953 -3.43785 0
M  V30 5817 H 548.789 -0.536155 -4.58174 0
M  V30 5818 H 547.032 -0.573063 -4.29998 0
M  V30 5819 H 547.703 0.542894 -5.49324 0
M  V30 5820 H 550.179 1.56081 -3.85717 0
M  V30 5821 H 549.055 2.46389 -4.90493 0
M  V30 5822 H 549.316 2.99572 -3.25129 0
M  V30 5823 N 548.375 1.56261 0.205012 0
M  V30 5824 C 549.603 1.84141 0.943386 0
M  V30 5825 C 550.018 0.649772 1.77266 0
M  V30 5826 O 549.375 -0.381612 1.78466 0
M  V30 5827 C 549.426 3.10719 1.84759 0
M  V30 5828 O 549.147 4.25286 1.05181 0
M  V30 5829 C 550.648 3.51706 2.69848 0
M  V30 5830 H 547.868 0.611734 0.275721 0
M  V30 5831 H 550.412 2.03364 0.215253 0
M  V30 5832 H 548.567 2.93422 2.52947 0
M  V30 5833 H 548.981 4.97301 1.66709 0
M  V30 5834 H 550.455 4.43266 3.28967 0
M  V30 5835 H 550.932 2.7423 3.43067 0
M  V30 5836 H 551.538 3.71499 2.07047 0
M  V30 5837 N 549.853 -0.472356 1.50355 0
M  V30 5838 C 550.786 -1.58923 1.63764 0
M  V30 5839 C 551.764 -1.55173 0.485793 0
M  V30 5840 O 552.948 -1.74815 0.705132 0
M  V30 5841 C 550.075 -2.97497 1.61905 0
M  V30 5842 C 549.121 -3.19405 2.82635 0
M  V30 5843 S 549.954 -2.99441 4.43954 0
M  V30 5844 C 551.11 -4.40359 4.44786 0
M  V30 5845 H 551.343 -1.47309 2.58239 0
M  V30 5846 H 548.876 -0.659601 1.39602 0
M  V30 5847 H 550.834 -3.77389 1.61518 0
M  V30 5848 H 549.495 -3.06502 0.686683 0
M  V30 5849 H 548.688 -4.20636 2.77636 0
M  V30 5850 H 548.29 -2.47283 2.80583 0
M  V30 5851 H 550.582 -5.32969 4.1827 0
M  V30 5852 H 551.525 -4.50403 5.46391 0
M  V30 5853 H 551.933 -4.22378 3.74509 0
M  V30 5854 N 551.331 -1.39911 -0.725443 0
M  V30 5855 C 552.264 -1.33788 -1.84867 0
M  V30 5856 C 553.242 -0.209907 -1.61239 0
M  V30 5857 O 554.426 -0.391943 -1.8438 0
M  V30 5858 C 551.553 -1.07975 -3.21028 0
M  V30 5859 C 550.599 -2.23092 -3.635 0
M  V30 5860 S 551.432 -3.85431 -3.71757 0
M  V30 5861 C 552.588 -3.61862 -5.10692 0
M  V30 5862 H 552.821 -2.28848 -1.89779 0
M  V30 5863 H 550.354 -1.26079 -0.891254 0
M  V30 5864 H 552.312 -0.937669 -3.99647 0
M  V30 5865 H 550.973 -0.145865 -3.13761 0
M  V30 5866 H 550.166 -2.00647 -4.62338 0
M  V30 5867 H 549.768 -2.33553 -2.92112 0
M  V30 5868 H 552.06 -3.19719 -5.97316 0
M  V30 5869 H 553.003 -4.60196 -5.38169 0
M  V30 5870 H 553.411 -2.95757 -4.8082 0
M  V30 5871 N 552.809 0.956637 -1.25245 0
M  V30 5872 C 554.22 1.51569 -1.09012 0
M  V30 5873 C 554.571 1.93322 0.334813 0
M  V30 5874 O 553.696 1.78421 1.22454 0
M  V30 5875 C 554.291 2.75444 -1.97271 0
M  V30 5876 C 552.85 3.27669 -1.8523 0
M  V30 5877 C 551.997 2.00517 -1.91542 0
M  V30 5878 H 554.948 0.773746 -1.3856 0
M  V30 5879 H 554.969 3.4919 -1.51151 0
M  V30 5880 H 554.481 2.45024 -3.00973 0
M  V30 5881 H 552.582 3.62914 -0.844045 0
M  V30 5882 H 552.695 3.9582 -2.69932 0
M  V30 5883 H 551.059 2.15727 -1.35404 0
M  V30 5884 H 551.842 1.72448 -2.96844 0
M  V30 5885 N 554.287 1.06798 1.15896 0
M  V30 5886 C 555.217 0.704677 2.22613 0
M  V30 5887 C 556.198 -0.305252 1.67339 0
M  V30 5888 O 557.383 -0.179247 1.93371 0
M  V30 5889 C 554.513 0.0957325 3.47168 0
M  V30 5890 C 553.467 1.0322 4.15367 0
M  V30 5891 C 552.793 0.286293 5.33933 0
M  V30 5892 C 554.093 2.36341 4.65768 0
M  V30 5893 H 555.787 1.59688 2.53259 0
M  V30 5894 H 553.333 0.769257 1.21731 0
M  V30 5895 H 555.286 -0.170333 4.21056 0
M  V30 5896 H 554.01 -0.831516 3.15838 0
M  V30 5897 H 552.669 1.28309 3.43413 0
M  V30 5898 H 552.317 -0.644237 4.98857 0
M  V30 5899 H 552.017 0.910436 5.80504 0
M  V30 5900 H 553.541 0.0278938 6.10594 0
M  V30 5901 H 554.955 2.1561 5.31211 0
M  V30 5902 H 553.352 2.94299 5.2298 0
M  V30 5903 H 554.422 2.99047 3.81705 0
M  V30 5904 N 555.766 -1.3263 0.851289 0
M  V30 5905 C 556.991 -2.02097 0.466006 0
M  V30 5906 C 557.416 -1.63574 -0.928709 0
M  V30 5907 O 556.774 -0.834665 -1.60944 0
M  V30 5908 C 556.822 -3.55425 0.608737 0
M  V30 5909 O 555.926 -4.10827 -0.359878 0
M  V30 5910 H 555.267 -0.636911 0.187724 0
M  V30 5911 H 557.797 -1.69253 1.14955 0
M  V30 5912 H 557.807 -4.04986 0.495006 0
M  V30 5913 H 556.482 -3.82806 1.62581 0
M  V30 5914 H 555.059 -3.72349 -0.202666 0
M  V30 5915 N 557.244 -0.608902 -1.45362 0
M  V30 5916 C 558.176 0.147318 -2.28726 0
M  V30 5917 C 559.189 0.830468 -1.40025 0
M  V30 5918 O 560.378 0.695636 -1.64387 0
M  V30 5919 C 557.478 1.22968 -3.15804 0
M  V30 5920 C 556.651 0.633391 -4.3279 0
M  V30 5921 C 555.71 1.60682 -5.01067 0
M  V30 5922 O 554.736 1.13261 -5.57818 0
M  V30 5923 N 555.938 2.94123 -5.00472 0
M  V30 5924 H 558.703 -0.568014 -2.94268 0
M  V30 5925 H 556.264 -0.448479 -1.55564 0
M  V30 5926 H 558.256 1.88072 -3.58345 0
M  V30 5927 H 556.826 1.84752 -2.52162 0
M  V30 5928 H 556.046 -0.195762 -3.93714 0
M  V30 5929 H 557.334 0.215255 -5.08344 0
M  V30 5930 H 556.732 3.3525 -4.55657 0
M  V30 5931 H 555.289 3.54646 -5.46872 0
M  V30 5932 N 558.722 1.53707 -0.348139 0
M  V30 5933 C 559.652 2.28111 0.498766 0
M  V30 5934 C 560.633 1.29851 1.09876 0
M  V30 5935 O 561.818 1.587 1.11928 0
M  V30 5936 C 558.948 3.05735 1.64753 0
M  V30 5937 C 557.902 4.11537 1.17565 0
M  V30 5938 C 557.228 4.77142 2.4133 0
M  V30 5939 C 558.528 5.21587 0.272844 0
M  V30 5940 H 560.222 2.99152 -0.121934 0
M  V30 5941 H 557.768 1.43875 -0.0600842 0
M  V30 5942 H 559.721 3.56526 2.24649 0
M  V30 5943 H 558.445 2.32354 2.2952 0
M  V30 5944 H 557.104 3.61665 0.599483 0
M  V30 5945 H 556.752 4.0035 3.04514 0
M  V30 5946 H 556.452 5.48626 2.10436 0
M  V30 5947 H 557.976 5.30719 3.01943 0
M  V30 5948 H 559.39 5.67986 0.778779 0
M  V30 5949 H 557.787 6.00074 0.0555849 0
M  V30 5950 H 558.857 4.79969 -0.689785 0
M  V30 5951 N 560.2 0.0768682 1.57412 0
M  V30 5952 C 561.446 -0.585926 1.94778 0
M  V30 5953 C 561.801 -1.66912 0.956982 0
M  V30 5954 O 561.094 -1.9159 -0.0199454 0
M  V30 5955 C 561.288 -1.20268 3.36557 0
M  V30 5956 C 561.117 -0.18076 4.49337 0
M  V30 5957 C 559.887 0.236362 5.04747 0
M  V30 5958 C 562.085 0.583978 5.10974 0
M  V30 5959 N 560.067 1.24846 6.01071 0
M  V30 5960 C 561.438 1.44841 6.02844 0
M  V30 5961 C 563.493 0.639492 4.93776 0
M  V30 5962 C 562.196 2.36343 6.79363 0
M  V30 5963 C 564.222 1.54204 5.70942 0
M  V30 5964 C 563.584 2.39414 6.62465 0
M  V30 5965 H 559.683 -0.185281 0.759734 0
M  V30 5966 H 562.267 0.155193 1.9408 0
M  V30 5967 H 560.438 -1.9137 3.37982 0
M  V30 5968 H 562.17 -1.82636 3.61146 0
M  V30 5969 H 558.925 -0.14777 4.73369 0
M  V30 5970 H 559.349 1.75217 6.53933 0
M  V30 5971 H 563.991 -0.00510074 4.228 0
M  V30 5972 H 561.709 3.01836 7.49614 0
M  V30 5973 H 565.295 1.5899 5.59655 0
M  V30 5974 H 564.175 3.0812 7.21132 0
M  V30 5975 N 561.678 -1.56367 -0.196722 0
M  V30 5976 C 562.903 -1.84991 -0.937714 0
M  V30 5977 C 563.328 -0.660244 -1.76132 0
M  V30 5978 O 562.686 0.390967 -1.77034 0
M  V30 5979 C 562.734 -3.11828 -1.81096 0
M  V30 5980 O 561.838 -2.92266 -2.90955 0
M  V30 5981 H 561.179 -0.609193 -0.264159 0
M  V30 5982 H 563.709 -2.03595 -0.202529 0
M  V30 5983 H 563.719 -3.42579 -2.21594 0
M  V30 5984 H 562.394 -3.98037 -1.2058 0
M  V30 5985 H 560.971 -2.72809 -2.54224 0
M  V30 5986 N 563.156 0.464375 -1.50603 0
M  V30 5987 C 564.396 1.22573 -1.6357 0
M  V30 5988 C 564.76 1.89111 -0.331834 0
M  V30 5989 O 565.961 2.66679 -0.336999 0
M  V30 5990 C 564.232 2.23643 -2.7878 0
M  V30 5991 S 565.791 3.08628 -3.1192 0
M  V30 5992 H 562.609 0.416058 -0.576556 0
M  V30 5993 H 565.211 0.521637 -1.88412 0
M  V30 5994 H 563.915 1.73354 -3.7199 0
M  V30 5995 H 563.446 2.98672 -2.56044 0
M  V30 5996 H 565.461 4.24904 -2.56264 0
M  V30 5997 N 564.634 1.40294 0.718013 0
M  V30 5998 C 565.564 1.43118 1.84498 0
M  V30 5999 C 566.545 0.292403 1.67568 0
M  V30 6000 O 567.73 0.500675 1.87635 0
M  V30 6001 C 564.86 1.29065 3.22427 0
M  V30 6002 C 563.814 2.40521 3.54025 0
M  V30 6003 C 563.14 2.11546 4.91073 0
M  V30 6004 C 564.44 3.82859 3.55269 0
M  V30 6005 H 566.134 2.37432 1.82391 0
M  V30 6006 H 563.68 1.14283 0.87609 0
M  V30 6007 H 565.633 1.29658 4.00957 0
M  V30 6008 H 564.357 0.312271 3.25104 0
M  V30 6009 H 563.016 2.39173 2.77834 0
M  V30 6010 H 562.664 1.12104 4.90348 0
M  V30 6011 H 562.364 2.86216 5.1318 0
M  V30 6012 H 563.888 2.13817 5.71939 0
M  V30 6013 H 565.302 3.86044 4.23843 0
M  V30 6014 H 563.699 4.57029 3.88902 0
M  V30 6015 H 564.769 4.12617 2.54706 0
M  V30 6016 N 566.112 -0.949982 1.2575 0
M  V30 6017 C 567.359 -1.69515 1.10774 0
M  V30 6018 C 567.687 -1.91316 -0.350479 0
M  V30 6019 O 566.942 -1.48515 -1.27443 0
M  V30 6020 C 567.241 -3.08039 1.81237 0
M  V30 6021 C 566.907 -3.06023 3.31151 0
M  V30 6022 C 565.569 -3.0518 3.72047 0
M  V30 6023 C 567.921 -2.98998 4.26907 0
M  V30 6024 C 565.249 -2.95067 5.07102 0
M  V30 6025 C 567.601 -2.90426 5.61992 0
M  V30 6026 C 566.265 -2.87922 6.0221 0
M  V30 6027 H 565.535 -0.6203 0.405351 0
M  V30 6028 H 568.182 -1.10953 1.56082 0
M  V30 6029 H 566.487 -3.70172 1.28373 0
M  V30 6030 H 568.184 -3.64526 1.67098 0
M  V30 6031 H 564.774 -3.07453 2.98614 0
M  V30 6032 H 568.958 -2.98764 3.963 0
M  V30 6033 H 564.214 -2.915 5.37436 0
M  V30 6034 H 568.388 -2.83952 6.35881 0
M  V30 6035 H 566.015 -2.79841 7.06819 0
M  V30 6036 N 567.59 -1.07411 -1.15328 0
M  V30 6037 C 568.837 -0.797649 -1.86128 0
M  V30 6038 C 569.165 0.676298 -1.82364 0
M  V30 6039 O 568.42 1.51223 -1.24218 0
M  V30 6040 C 568.719 -1.25191 -3.34757 0
M  V30 6041 C 568.385 -2.73191 -3.58716 0
M  V30 6042 C 567.047 -3.13616 -3.64964 0
M  V30 6043 C 569.399 -3.68718 -3.6837 0
M  V30 6044 C 566.727 -4.48383 -3.78377 0
M  V30 6045 C 569.079 -5.03248 -3.83306 0
M  V30 6046 C 567.743 -5.43293 -3.878 0
M  V30 6047 H 567.013 -0.29188 -0.681092 0
M  V30 6048 H 569.66 -1.34524 -1.36292 0
M  V30 6049 H 567.965 -0.623712 -3.86804 0
M  V30 6050 H 569.662 -1.01489 -3.87945 0
M  V30 6051 H 566.252 -2.40898 -3.54494 0
M  V30 6052 H 570.436 -3.38614 -3.62842 0
M  V30 6053 H 565.692 -4.78877 -3.80114 0
M  V30 6054 H 569.866 -5.77142 -3.89718 0
M  V30 6055 H 567.493 -6.47721 -3.97946 0
M  V30 6056 N 569.068 1.32177 -0.85831 0
M  V30 6057 C 570.317 1.96392 -0.459689 0
M  V30 6058 C 570.63 1.68659 0.990632 0
M  V30 6059 O 571.836 2.26641 1.49485 0
M  V30 6060 C 570.292 3.51542 -0.7711 0
M  V30 6061 C 569.9 3.8813 -2.2374 0
M  V30 6062 C 571.644 4.2221 -0.44038 0
M  V30 6063 C 569.551 5.36341 -2.49183 0
M  V30 6064 H 568.481 0.735007 -0.168169 0
M  V30 6065 H 571.132 1.50518 -1.0496 0
M  V30 6066 H 569.514 3.95846 -0.11058 0
M  V30 6067 H 570.688 3.54824 -2.94001 0
M  V30 6068 H 569.003 3.30497 -2.533 0
M  V30 6069 H 571.6 5.31234 -0.607855 0
M  V30 6070 H 571.943 4.11683 0.618291 0
M  V30 6071 H 572.476 3.83502 -1.05695 0
M  V30 6072 H 569.215 5.51892 -3.53689 0
M  V30 6073 H 568.735 5.7104 -1.83504 0
M  V30 6074 H 570.414 6.03466 -2.33318 0
M  V30 6075 N 570.547 0.616602 1.45037 0
M  V30 6076 C 571.48 -0.145984 2.27733 0
M  V30 6077 C 572.458 -0.865108 1.37676 0
M  V30 6078 O 573.642 -0.872152 1.6711 0
M  V30 6079 C 570.769 -1.2122 3.16265 0
M  V30 6080 C 569.815 -0.595218 4.22326 0
M  V30 6081 S 570.648 0.603744 5.32086 0
M  V30 6082 C 571.804 -0.462842 6.24186 0
M  V30 6083 H 572.037 0.555591 2.92062 0
M  V30 6084 H 569.57 0.404364 1.49011 0
M  V30 6085 H 571.528 -1.82247 3.67827 0
M  V30 6086 H 570.189 -1.88589 2.51183 0
M  V30 6087 H 569.382 -1.39775 4.8423 0
M  V30 6088 H 568.984 -0.0598965 3.73952 0
M  V30 6089 H 571.276 -1.33945 6.64127 0
M  V30 6090 H 572.219 0.120259 7.07998 0
M  V30 6091 H 572.627 -0.782219 5.59054 0
M  V30 6092 N 572.025 -1.5352 0.356285 0
M  V30 6093 C 572.955 -2.28372 -0.486661 0
M  V30 6094 C 573.936 -1.30432 -1.09185 0
M  V30 6095 O 575.121 -1.59291 -1.11085 0
M  V30 6096 C 572.251 -3.06604 -1.63129 0
M  V30 6097 C 571.205 -4.12154 -1.15381 0
M  V30 6098 C 570.531 -4.78415 -2.38796 0
M  V30 6099 C 571.831 -5.21724 -0.245179 0
M  V30 6100 H 573.525 -2.99083 0.137797 0
M  V30 6101 H 571.071 -1.43841 0.0677134 0
M  V30 6102 H 573.024 -3.57712 -2.22755 0
M  V30 6103 H 571.748 -2.33568 -2.28284 0
M  V30 6104 H 570.407 -3.61978 -0.580294 0
M  V30 6105 H 570.055 -4.01959 -3.02387 0
M  V30 6106 H 569.755 -5.49734 -2.07524 0
M  V30 6107 H 571.279 -5.32313 -2.99125 0
M  V30 6108 H 572.693 -5.68391 -0.748646 0
M  V30 6109 H 571.09 -6.00095 -0.0237608 0
M  V30 6110 H 572.16 -4.79596 0.715229 0
M  V30 6111 N 573.503 -0.0852151 -1.57369 0
M  V30 6112 C 574.752 0.580443 -1.93168 0
M  V30 6113 C 575.065 1.6995 -0.968319 0
M  V30 6114 O 576.271 2.42564 -1.21963 0
M  V30 6115 C 574.727 1.08386 -3.43192 0
M  V30 6116 C 574.335 -0.00491388 -4.48 0
M  V30 6117 C 576.079 1.72281 -3.87968 0
M  V30 6118 C 573.986 0.513299 -5.89168 0
M  V30 6119 H 572.916 0.22059 -0.72101 0
M  V30 6120 H 575.567 -0.159621 -1.82804 0
M  V30 6121 H 573.949 1.8773 -3.48674 0
M  V30 6122 H 575.123 -0.780032 -4.5415 0
M  V30 6123 H 573.438 -0.548453 -4.12772 0
M  V30 6124 H 576.035 2.12108 -4.9083 0
M  V30 6125 H 576.378 2.58811 -3.26071 0
M  V30 6126 H 576.911 0.995359 -3.85146 0
M  V30 6127 H 573.65 -0.315153 -6.54742 0
M  V30 6128 H 573.17 1.25564 -5.8651 0
M  V30 6129 H 574.849 0.985433 -6.39451 0
M  V30 6130 N 574.981 1.5647 0.188427 0
M  V30 6131 C 576.228 1.81013 0.907779 0
M  V30 6132 C 576.556 0.65953 1.82977 0
M  V30 6133 O 575.811 -0.354308 1.92466 0
M  V30 6134 C 576.11 3.11596 1.7505 0
M  V30 6135 C 575.776 4.40145 0.978922 0
M  V30 6136 C 574.438 4.75066 0.765912 0
M  V30 6137 C 576.79 5.19369 0.436498 0
M  V30 6138 C 574.118 5.867 -0.00089868 0
M  V30 6139 C 576.47 6.31805 -0.317136 0
M  V30 6140 C 575.134 6.65303 -0.541103 0
M  V30 6141 H 574.404 0.662373 0.33218 0
M  V30 6142 H 577.051 1.9071 0.173732 0
M  V30 6143 H 575.356 2.97165 2.55343 0
M  V30 6144 H 577.053 3.27793 2.30983 0
M  V30 6145 H 573.643 4.12745 1.15497 0
M  V30 6146 H 577.827 4.92799 0.588449 0
M  V30 6147 H 573.083 6.11122 -0.184329 0
M  V30 6148 H 577.257 6.92406 -0.744788 0
M  V30 6149 H 574.884 7.51646 -1.13718 0
M  V30 6150 N 576.459 -0.456382 1.50847 0
M  V30 6151 C 577.389 -1.56025 1.73719 0
M  V30 6152 C 578.37 -1.5967 0.586473 0
M  V30 6153 O 579.555 -1.75702 0.827185 0
M  V30 6154 C 576.685 -2.94251 1.84483 0
M  V30 6155 C 575.639 -3.05471 2.99786 0
M  V30 6156 C 574.965 -4.45489 2.95709 0
M  V30 6157 C 576.265 -2.81318 4.40065 0
M  V30 6158 H 577.959 -1.37138 2.66146 0
M  V30 6159 H 575.505 -0.658299 1.28072 0
M  V30 6160 H 577.458 -3.71417 1.99067 0
M  V30 6161 H 576.182 -3.14328 0.886891 0
M  V30 6162 H 574.841 -2.30741 2.84876 0
M  V30 6163 H 574.489 -4.62505 1.97732 0
M  V30 6164 H 574.189 -4.53929 3.73125 0
M  V30 6165 H 575.713 -5.24655 3.12362 0
M  V30 6166 H 577.127 -3.48226 4.55425 0
M  V30 6167 H 575.524 -3.01188 5.19043 0
M  V30 6168 H 576.594 -1.7706 4.51418 0
M  V30 6169 N 577.937 -1.40673 -0.710563 0
M  V30 6170 C 579.185 -1.38947 -1.46759 0
M  V30 6171 C 579.506 0.00572879 -1.94999 0
M  V30 6172 O 578.776 0.961358 -1.70689 0
M  V30 6173 H 577.356 -0.5114 -0.544499 0
M  V30 6174 H 580.018 -1.75773 -0.842012 0
M  V30 6175 H 579.114 -2.06745 -2.33801 0
M  V30 6176 N 579.415 0.9433 -1.26252 0
M  V30 6177 C 580.345 2.05902 -1.10122 0
M  V30 6178 C 581.326 1.70099 -0.00700552 0
M  V30 6179 O 582.511 1.93377 -0.178641 0
M  V30 6180 C 579.641 3.39516 -0.731175 0
M  V30 6181 C 578.595 3.89372 -1.77688 0
M  V30 6182 C 577.921 5.19613 -1.26122 0
M  V30 6183 C 579.221 4.14489 -3.17799 0
M  V30 6184 H 580.915 2.19655 -2.03451 0
M  V30 6185 H 578.461 1.05548 -0.979576 0
M  V30 6186 H 580.414 4.17031 -0.605215 0
M  V30 6187 H 579.138 3.25733 0.23782 0
M  V30 6188 H 577.797 3.14036 -1.89148 0
M  V30 6189 H 577.445 5.02208 -0.282128 0
M  V30 6190 H 577.145 5.53939 -1.96023 0
M  V30 6191 H 578.669 5.99713 -1.14789 0
M  V30 6192 H 580.083 4.82625 -3.09428 0
M  V30 6193 H 578.48 4.60094 -3.85271 0
M  V30 6194 H 579.55 3.20347 -3.64014 0
M  V30 6195 N 580.893 1.08022 1.14757 0
M  V30 6196 C 582.17 0.720386 1.81851 0
M  V30 6197 C 582.55 -0.796375 1.95502 0
M  V30 6198 O 581.898 -1.71339 1.51179 0
M  V30 6199 C 582.108 1.44273 3.17783 0
M  V30 6200 C 583.456 1.59925 3.93331 0
M  V30 6201 O 584.48 1.40407 3.2736 0
M  V30 6202 O 583.339 1.92096 5.11626 0
M  V30 6203 H 580.433 0.257142 0.786007 0
M  V30 6204 H 582.979 1.18155 1.21809 0
M  V30 6205 H 581.751 2.47618 3.02987 0
M  V30 6206 H 581.374 0.97279 3.85516 0
M  V30 6207 N 582.371 -1.3172 0.865308 0
M  V30 6208 C 583.596 -2.01591 0.487415 0
M  V30 6209 C 584.021 -1.6455 -0.911307 0
M  V30 6210 O 583.379 -0.851689 -1.6005 0
M  V30 6211 C 583.427 -3.54759 0.646401 0
M  V30 6212 O 582.531 -4.11185 -0.316284 0
M  V30 6213 H 581.872 -0.634884 0.194468 0
M  V30 6214 H 584.402 -1.68024 1.16744 0
M  V30 6215 H 584.412 -4.04438 0.537932 0
M  V30 6216 H 583.087 -3.8106 1.66632 0
M  V30 6217 H 581.664 -3.72543 -0.163162 0
M  V30 6218 N 583.85 -0.624285 -1.44708 0
M  V30 6219 C 584.782 0.12305 -2.28869 0
M  V30 6220 C 585.795 0.81557 -1.40898 0
M  V30 6221 O 586.984 0.678162 -1.65116 0
M  V30 6222 C 584.084 1.19612 -3.1709 0
M  V30 6223 C 583.257 0.587452 -4.33437 0
M  V30 6224 C 582.316 1.55358 -5.02743 0
M  V30 6225 O 581.341 1.07338 -5.58988 0
M  V30 6226 N 582.543 2.88798 -5.03563 0
M  V30 6227 H 585.308 -0.599193 -2.93649 0
M  V30 6228 H 582.87 -0.464954 -1.5508 0
M  V30 6229 H 584.861 1.84261 -3.60319 0
M  V30 6230 H 583.432 1.82067 -2.54107 0
M  V30 6231 H 582.652 -0.237509 -3.93484 0
M  V30 6232 H 583.94 0.161326 -5.08544 0
M  V30 6233 H 583.338 3.30399 -4.59188 0
M  V30 6234 H 581.894 3.48826 -5.50603 0
M  V30 6235 N 585.328 1.53329 -0.364422 0
M  V30 6236 C 586.575 2.01239 0.225634 0
M  V30 6237 C 586.903 1.25172 1.48869 0
M  V30 6238 O 586.158 0.333289 1.92841 0
M  V30 6239 C 586.457 3.52911 0.564661 0
M  V30 6240 C 586.123 4.46837 -0.603936 0
M  V30 6241 C 584.785 4.72234 -0.924585 0
M  V30 6242 C 587.137 5.02409 -1.38691 0
M  V30 6243 C 584.465 5.50454 -2.0302 0
M  V30 6244 C 586.817 5.81836 -2.48293 0
M  V30 6245 C 585.481 6.0552 -2.80894 0
M  V30 6246 H 584.751 0.736386 0.0825654 0
M  V30 6247 H 587.398 1.84948 -0.496645 0
M  V30 6248 H 585.703 3.67144 1.36794 0
M  V30 6249 H 587.4 3.87455 1.03344 0
M  V30 6250 H 583.99 4.27217 -0.343983 0
M  V30 6251 H 588.174 4.82735 -1.15243 0
M  V30 6252 H 583.43 5.67024 -2.28678 0
M  V30 6253 H 587.604 6.23905 -3.0938 0
M  V30 6254 H 585.231 6.65916 -3.66688 0
M  V30 6255 N 586.806 0.0935595 1.57322 0
M  V30 6256 C 588.052 -0.571355 1.94585 0
M  V30 6257 C 588.385 -1.67929 0.975366 0
M  V30 6258 O 587.66 -1.94498 0.00816206 0
M  V30 6259 C 587.943 -1.12797 3.41978 0
M  V30 6260 C 587.796 -0.0251881 4.49793 0
M  V30 6261 C 589.115 -2.02682 3.90651 0
M  V30 6262 H 586.234 -0.206223 0.70756 0
M  V30 6263 H 588.876 0.163956 1.89291 0
M  V30 6264 H 587.026 -1.75461 3.4662 0
M  V30 6265 H 588.698 0.608979 4.57263 0
M  V30 6266 H 586.941 0.641399 4.29032 0
M  V30 6267 H 587.612 -0.455433 5.50118 0
M  V30 6268 H 590.088 -1.49925 3.88152 0
M  V30 6269 H 588.964 -2.38555 4.94351 0
M  V30 6270 H 589.225 -2.94362 3.29854 0
M  V30 6271 N 588.284 -1.56567 -0.180126 0
M  V30 6272 C 589.524 -1.83285 -0.904761 0
M  V30 6273 C 589.888 -0.673226 -1.7981 0
M  V30 6274 O 591.089 -0.820645 -2.55967 0
M  V30 6275 C 589.36 -3.15086 -1.68688 0
M  V30 6276 S 590.919 -3.63258 -2.46149 0
M  V30 6277 H 587.737 -0.643114 -0.303193 0
M  V30 6278 H 590.339 -1.94785 -0.167034 0
M  V30 6279 H 589.043 -3.97484 -1.02148 0
M  V30 6280 H 588.574 -3.06504 -2.46615 0
M  V30 6281 H 590.589 -3.29884 -3.70663 0
M  V30 6282 N 589.762 0.448376 -1.51087 0
M  V30 6283 C 591.008 1.20049 -1.6345 0
M  V30 6284 C 591.341 1.91121 -0.344444 0
M  V30 6285 O 590.616 1.83125 0.655396 0
M  V30 6286 C 590.899 2.22624 -2.83038 0
M  V30 6287 C 590.752 1.55708 -4.21989 0
M  V30 6288 C 592.071 3.23718 -2.98152 0
M  V30 6289 H 589.19 0.435085 -0.59487 0
M  V30 6290 H 591.832 0.491183 -1.83541 0
M  V30 6291 H 589.982 2.83117 -2.66039 0
M  V30 6292 H 591.654 0.986367 -4.50631 0
M  V30 6293 H 589.897 0.859647 -4.25197 0
M  V30 6294 H 590.568 2.30357 -5.01637 0
M  V30 6295 H 593.044 2.73269 -3.13788 0
M  V30 6296 H 591.92 3.92795 -3.83411 0
M  V30 6297 H 592.181 3.89179 -2.09743 0
M  V30 6298 N 591.24 1.41047 0.703093 0
M  V30 6299 C 592.15 1.44645 1.84703 0
M  V30 6300 C 593.166 0.337778 1.7069 0
M  V30 6301 O 594.342 0.584327 1.92737 0
M  V30 6302 C 591.407 1.31928 3.20618 0
M  V30 6303 C 590.468 2.53047 3.46794 0
M  V30 6304 C 589.701 2.40927 4.76224 0
M  V30 6305 O 589.924 1.42978 5.5219 0
M  V30 6306 O 588.858 3.30543 5.03016 0
M  V30 6307 H 592.684 2.41139 1.84624 0
M  V30 6308 H 590.269 1.22504 0.855167 0
M  V30 6309 H 592.151 1.27092 4.01778 0
M  V30 6310 H 590.826 0.385469 3.21397 0
M  V30 6311 H 589.733 2.6346 2.65593 0
M  V30 6312 H 591.066 3.45231 3.50822 0
M  V30 6313 N 592.718 -0.936591 1.26751 0
M  V30 6314 C 593.958 -1.69796 1.13792 0
M  V30 6315 C 594.322 -1.89437 -0.312671 0
M  V30 6316 O 595.523 -2.62806 -0.564489 0
M  V30 6317 C 593.794 -3.03297 1.89065 0
M  V30 6318 S 595.353 -3.94461 1.92214 0
M  V30 6319 H 592.171 -0.583412 0.406389 0
M  V30 6320 H 594.773 -1.11575 1.60535 0
M  V30 6321 H 593.477 -2.86687 2.93665 0
M  V30 6322 H 593.008 -3.66575 1.42781 0
M  V30 6323 H 595.023 -4.85767 1.01215 0
M  V30 6324 N 594.196 -1.08629 -1.14182 0
M  V30 6325 C 595.126 -0.740003 -2.21464 0
M  V30 6326 C 596.107 0.278591 -1.67803 0
M  V30 6327 O 597.292 0.148461 -1.93632 0
M  V30 6328 C 594.422 -0.150952 -3.46972 0
M  V30 6329 C 593.376 -1.09815 -4.13672 0
M  V30 6330 C 592.702 -0.3712 -5.3341 0
M  V30 6331 C 594.002 -2.43722 -4.61949 0
M  V30 6332 H 595.696 -1.63697 -2.50686 0
M  V30 6333 H 593.242 -0.788526 -1.20492 0
M  V30 6334 H 595.195 0.103325 -4.21273 0
M  V30 6335 H 593.919 0.781164 -3.1712 0
M  V30 6336 H 592.578 -1.33756 -3.41328 0
M  V30 6337 H 592.226 0.564792 -4.99819 0
M  V30 6338 H 591.926 -1.00267 -5.78982 0
M  V30 6339 H 593.45 -0.12503 -6.10472 0
M  V30 6340 H 594.864 -2.24034 -5.27714 0
M  V30 6341 H 593.261 -3.02582 -5.18232 0
M  V30 6342 H 594.331 -3.05082 -3.76899 0
M  V30 6343 N 595.674 1.31259 -0.872281 0
M  V30 6344 C 596.92 1.96913 -0.485083 0
M  V30 6345 C 597.253 1.68774 0.960667 0
M  V30 6346 O 596.528 0.985495 1.67685 0
M  V30 6347 C 596.811 3.52299 -0.745502 0
M  V30 6348 C 596.664 3.90002 -2.24095 0
M  V30 6349 C 597.983 4.39582 -0.213516 0
M  V30 6350 H 595.102 0.715252 -0.177716 0
M  V30 6351 H 597.744 1.55347 -1.09395 0
M  V30 6352 H 595.894 3.87835 -0.227276 0
M  V30 6353 H 597.566 3.64555 -2.82661 0
M  V30 6354 H 595.809 3.38526 -2.71261 0
M  V30 6355 H 596.48 4.98352 -2.37381 0
M  V30 6356 H 598.956 4.10882 -0.656902 0
M  V30 6357 H 597.832 5.47251 -0.42516 0
M  V30 6358 H 598.093 4.33158 0.884666 0
M  V30 6359 N 597.152 0.631951 1.44375 0
M  V30 6360 C 598.38 0.143867 2.06399 0
M  V30 6361 C 598.795 -1.18188 1.47231 0
M  V30 6362 O 598.152 -1.72511 0.595498 0
M  V30 6363 C 598.203 0.0238253 3.61492 0
M  V30 6364 O 597.924 1.29715 4.18456 0
M  V30 6365 C 599.425 -0.492856 4.40552 0
M  V30 6366 H 596.645 0.0800542 0.666207 0
M  V30 6367 H 599.189 0.866586 1.85231 0
M  V30 6368 H 597.344 -0.649338 3.81919 0
M  V30 6369 H 597.758 1.14252 5.11905 0
M  V30 6370 H 599.232 -0.525861 5.49489 0
M  V30 6371 H 599.709 -1.52006 4.12057 0
M  V30 6372 H 600.315 0.147085 4.25046 0
M  V30 6373 N 598.631 -1.53133 0.372548 0
M  V30 6374 C 599.594 -2.24569 -0.458389 0
M  V30 6375 C 600.594 -1.25603 -1.00402 0
M  V30 6376 O 601.784 -1.49827 -0.888672 0
M  V30 6377 C 598.916 -2.98783 -1.6414 0
M  V30 6378 H 600.109 -2.99436 0.166799 0
M  V30 6379 H 597.662 -1.55805 0.124357 0
M  V30 6380 H 598.397 -2.28176 -2.30448 0
M  V30 6381 H 598.182 -3.71404 -1.25704 0
M  V30 6382 H 599.672 -3.53068 -2.23008 0
M  V30 6383 N 600.109 -0.101901 -1.5727 0
M  V30 6384 C 601.334 0.571759 -1.99363 0
M  V30 6385 C 601.759 1.60507 -0.980768 0
M  V30 6386 O 601.117 1.81231 0.0498517 0
M  V30 6387 C 601.165 1.18996 -3.404 0
M  V30 6388 O 600.269 2.30572 -3.41922 0
M  V30 6389 H 599.61 0.144449 -0.648098 0
M  V30 6390 H 602.14 -0.185325 -2.03759 0
M  V30 6391 H 602.15 1.52962 -3.78241 0
M  V30 6392 H 600.825 0.432984 -4.1364 0
M  V30 6393 H 599.402 1.98173 -3.15883 0
M  V30 6394 N 601.587 1.56661 0.17182 0
M  V30 6395 C 602.836 1.81158 0.886831 0
M  V30 6396 C 603.149 0.679072 1.83434 0
M  V30 6397 O 604.355 0.808964 2.59168 0
M  V30 6398 C 602.811 3.20999 1.6275 0
M  V30 6399 C 602.419 4.42117 0.723652 0
M  V30 6400 C 604.163 3.5479 2.33076 0
M  V30 6401 C 602.07 5.7298 1.46452 0
M  V30 6402 H 601 0.675543 0.334899 0
M  V30 6403 H 603.651 1.82967 0.139765 0
M  V30 6404 H 602.033 3.13506 2.4193 0
M  V30 6405 H 603.207 4.60789 -0.0311485 0
M  V30 6406 H 601.522 4.16197 0.130063 0
M  V30 6407 H 604.119 4.49806 2.89099 0
M  V30 6408 H 604.462 2.79646 3.08389 0
M  V30 6409 H 604.995 3.63834 1.6084 0
M  V30 6410 H 601.734 6.51152 0.753729 0
M  V30 6411 H 601.254 5.58285 2.19266 0
M  V30 6412 H 602.933 6.14916 2.01214 0
M  V30 6413 N 603.065 -0.440357 1.51323 0
M  V30 6414 C 604.342 -1.20109 1.5438 0
M  V30 6415 C 604.722 -2.08866 0.306303 0
M  V30 6416 O 604.07 -2.1723 -0.708773 0
M  V30 6417 C 604.28 -2.00555 2.8562 0
M  V30 6418 C 605.628 -2.577 3.37455 0
M  V30 6419 O 606.652 -2.10769 2.8715 0
M  V30 6420 O 605.511 -3.43289 4.25224 0
M  V30 6421 H 602.605 -0.546668 0.620551 0
M  V30 6422 H 605.151 -0.449672 1.63634 0
M  V30 6423 H 603.923 -1.35346 3.67147 0
M  V30 6424 H 603.546 -2.82768 2.79514 0
M  V30 6425 N 604.543 -1.41418 -0.695603 0
M  V30 6426 C 605.476 -1.3768 -1.81988 0
M  V30 6427 C 606.454 -0.244061 -1.60758 0
M  V30 6428 O 607.638 -0.430965 -1.83507 0
M  V30 6429 C 604.765 -1.1476 -3.18666 0
M  V30 6430 C 603.811 -2.30752 -3.58686 0
M  V30 6431 S 604.644 -3.9323 -3.63498 0
M  V30 6432 C 605.8 -3.72613 -5.02902 0
M  V30 6433 H 606.033 -2.32822 -1.84882 0
M  V30 6434 H 603.566 -1.27942 -0.86431 0
M  V30 6435 H 605.524 -1.02223 -3.97569 0
M  V30 6436 H 604.185 -0.212385 -3.13381 0
M  V30 6437 H 603.378 -2.10409 -4.57978 0
M  V30 6438 H 602.98 -2.39696 -2.87092 0
M  V30 6439 H 605.272 -3.32317 -5.904 0
M  V30 6440 H 606.215 -4.71507 -5.28286 0
M  V30 6441 H 606.623 -3.0589 -4.74438 0
M  V30 6442 N 606.021 0.929856 -1.27246 0
M  V30 6443 C 607.268 1.67731 -1.13457 0
M  V30 6444 C 607.596 1.9185 0.319998 0
M  V30 6445 O 606.851 1.50524 1.25064 0
M  V30 6446 C 607.15 3.05116 -1.86115 0
M  V30 6447 C 606.816 3.00715 -3.35978 0
M  V30 6448 C 605.478 2.99222 -3.76855 0
M  V30 6449 C 607.83 2.92168 -4.3161 0
M  V30 6450 C 605.158 2.86962 -5.11732 0
M  V30 6451 C 607.51 2.81449 -5.66542 0
M  V30 6452 C 606.174 2.78305 -6.06715 0
M  V30 6453 H 605.444 0.613772 -0.415168 0
M  V30 6454 H 608.091 1.08456 -1.57827 0
M  V30 6455 H 606.396 3.68083 -1.34246 0
M  V30 6456 H 608.093 3.61822 -1.72876 0
M  V30 6457 H 604.683 3.02664 -3.03468 0
M  V30 6458 H 608.867 2.92421 -4.01003 0
M  V30 6459 H 604.123 2.82913 -5.42006 0
M  V30 6460 H 608.297 2.738 -6.40317 0
M  V30 6461 H 605.924 2.68561 -7.11181 0
M  V30 6462 N 607.499 1.09233 1.13605 0
M  V30 6463 C 608.91 0.846839 1.6639 0
M  V30 6464 C 609.261 -0.625031 1.85978 0
M  V30 6465 O 608.386 -1.48173 1.57714 0
M  V30 6466 C 608.981 1.5307 3.0225 0
M  V30 6467 C 607.54 1.33223 3.52035 0
M  V30 6468 C 606.687 1.58806 2.27323 0
M  V30 6469 H 609.638 1.25175 0.975541 0
M  V30 6470 H 609.659 0.96267 3.68121 0
M  V30 6471 H 609.171 2.60192 2.87961 0
M  V30 6472 H 607.272 0.282091 3.71531 0
M  V30 6473 H 607.385 2.0657 4.32279 0
M  V30 6474 H 605.749 1.01007 2.33815 0
M  V30 6475 H 606.532 2.67153 2.15602 0
M  V30 6476 N 608.977 -1.30795 0.87923 0
M  V30 6477 C 610.393 -1.48981 0.57243 0
M  V30 6478 C 610.593 -1.80719 -0.891236 0
M  V30 6479 O 609.649 -1.89136 -1.67283 0
M  V30 6480 C 610.962 -2.61721 1.48063 0
M  V30 6481 C 612.51 -2.75603 1.48365 0
M  V30 6482 C 612.985 -3.91449 2.37763 0
M  V30 6483 N 614.476 -3.98751 2.35695 0
M  V30 6484 C 615.211 -4.87684 3.01583 0
M  V30 6485 N 614.707 -5.81454 3.76674 0
M  V30 6486 N 616.5 -4.81005 2.90844 0
M  V30 6487 H 608.651 -1.08465 1.82617 0
M  V30 6488 H 610.914 -0.536813 0.781368 0
M  V30 6489 H 610.62 -2.45073 2.52254 0
M  V30 6490 H 610.494 -3.58071 1.18596 0
M  V30 6491 H 612.881 -2.9166 0.44927 0
M  V30 6492 H 612.962 -1.79891 1.81859 0
M  V30 6493 H 612.606 -3.76149 3.41283 0
M  V30 6494 H 612.536 -4.86487 2.01589 0
M  V30 6495 H 615.027 -3.31668 1.81121 0
M  V30 6496 H 615.34 -6.46063 4.24054 0
M  V30 6497 H 613.685 -5.81403 3.80782 0
M  V30 6498 H 616.876 -4.06728 2.31711 0
M  V30 6499 H 617.049 -5.50107 3.42471 0
M  V30 6500 N 610.455 -0.639598 -1.44038 0
M  V30 6501 C 611.387 0.0987684 -2.28987 0
M  V30 6502 C 612.4 0.80058 -1.41755 0
M  V30 6503 O 613.589 0.660611 -1.65826 0
M  V30 6504 C 610.689 1.16242 -3.18341 0
M  V30 6505 C 609.862 0.541447 -4.34036 0
M  V30 6506 C 608.921 1.50017 -5.04362 0
M  V30 6507 O 607.947 1.01403 -5.60095 0
M  V30 6508 N 609.149 2.83441 -5.06598 0
M  V30 6509 H 611.914 -0.630305 -2.92997 0
M  V30 6510 H 609.475 -0.481376 -1.54578 0
M  V30 6511 H 611.467 1.80429 -3.62253 0
M  V30 6512 H 610.037 1.79362 -2.56024 0
M  V30 6513 H 609.257 -0.27923 -3.9321 0
M  V30 6514 H 610.545 0.107379 -5.08687 0
M  V30 6515 H 609.943 3.2551 -4.62666 0
M  V30 6516 H 608.5 3.42966 -5.54272 0
M  V30 6517 N 611.933 1.52934 -0.380664 0
M  V30 6518 C 612.863 2.29118 0.450268 0
M  V30 6519 C 613.844 1.32153 1.07096 0
M  V30 6520 O 615.029 1.61038 1.08537 0
M  V30 6521 C 612.159 3.09161 1.58231 0
M  V30 6522 C 611.113 4.13938 1.0881 0
M  V30 6523 C 610.439 4.82153 2.31155 0
M  V30 6524 C 611.739 5.22048 0.162146 0
M  V30 6525 H 613.433 2.98826 -0.185361 0
M  V30 6526 H 610.979 1.43715 -0.0905886 0
M  V30 6527 H 612.932 3.61211 2.17036 0
M  V30 6528 H 611.656 2.3717 2.2454 0
M  V30 6529 H 610.315 3.62855 0.522633 0
M  V30 6530 H 609.963 4.06719 2.95953 0
M  V30 6531 H 609.663 5.52966 1.98752 0
M  V30 6532 H 611.187 5.37004 2.90618 0
M  V30 6533 H 612.601 5.6951 0.658126 0
M  V30 6534 H 610.998 6.00057 -0.0717122 0
M  V30 6535 H 612.068 4.78398 -0.791438 0
M  V30 6536 N 613.412 0.11024 1.57214 0
M  V30 6537 C 614.828 -0.24638 1.57687 0
M  V30 6538 C 615.028 -1.67344 1.12241 0
M  V30 6539 O 614.084 -2.39298 0.805783 0
M  V30 6540 C 615.397 -0.0210288 3.00693 0
M  V30 6541 C 616.945 -0.0876077 3.12877 0
M  V30 6542 C 617.42 0.10994 4.57868 0
M  V30 6543 N 618.911 0.0556135 4.63167 0
M  V30 6544 C 619.646 0.183495 5.73106 0
M  V30 6545 N 619.142 0.367058 6.91827 0
M  V30 6546 N 620.935 0.123689 5.61964 0
M  V30 6547 H 613.086 1.04246 1.85058 0
M  V30 6548 H 615.349 0.40979 0.854854 0
M  V30 6549 H 615.055 0.965203 3.38196 0
M  V30 6550 H 614.929 -0.756748 3.69531 0
M  V30 6551 H 617.316 -1.06436 2.75237 0
M  V30 6552 H 617.397 0.67985 2.466 0
M  V30 6553 H 617.041 1.08362 4.96206 0
M  V30 6554 H 616.971 -0.677397 5.22225 0
M  V30 6555 H 619.462 -0.0831062 3.77809 0
M  V30 6556 H 619.775 0.455739 7.71455 0
M  V30 6557 H 618.12 0.40292 6.93831 0
M  V30 6558 H 621.311 -0.0186928 4.68096 0
M  V30 6559 H 621.484 0.226797 6.47603 0
M  V30 6560 N 614.89 -1.56749 -0.16351 0
M  V30 6561 C 615.837 -1.97011 -1.2023 0
M  V30 6562 C 616.807 -0.835186 -1.43575 0
M  V30 6563 O 617.992 -1.09594 -1.56185 0
M  V30 6564 C 615.132 -2.34186 -2.53478 0
M  V30 6565 C 614.245 -3.60893 -2.37446 0
M  V30 6566 C 613.38 -3.87245 -3.63614 0
M  V30 6567 C 612.419 -5.07274 -3.42548 0
M  V30 6568 N 611.556 -5.29719 -4.60806 0
M  V30 6569 H 616.396 -2.85562 -0.851958 0
M  V30 6570 H 613.933 -1.41292 -0.409257 0
M  V30 6571 H 615.891 -2.53764 -3.31149 0
M  V30 6572 H 614.521 -1.48736 -2.86492 0
M  V30 6573 H 613.573 -3.49185 -1.50911 0
M  V30 6574 H 614.885 -4.48722 -2.1783 0
M  V30 6575 H 614.039 -4.07232 -4.49719 0
M  V30 6576 H 612.778 -2.97806 -3.86216 0
M  V30 6577 H 611.783 -4.87177 -2.5483 0
M  V30 6578 H 613.008 -5.98251 -3.2136 0
M  V30 6579 H 610.954 -4.43233 -4.83612 0
M  V30 6580 H 610.871 -6.11786 -4.44132 0
M  V30 6581 H 612.139 -5.54192 -5.48171 0
M  V30 6582 N 616.368 0.432326 -1.51554 0
M  V30 6583 C 617.593 1.20824 -1.68571 0
M  V30 6584 C 618.018 1.84126 -0.384596 0
M  V30 6585 O 617.376 1.69025 0.655751 0
M  V30 6586 C 617.424 2.26429 -2.80646 0
M  V30 6587 O 616.528 3.32032 -2.44598 0
M  V30 6588 H 615.869 0.353765 -0.561913 0
M  V30 6589 H 618.399 0.509916 -1.98144 0
M  V30 6590 H 618.409 2.71133 -3.04878 0
M  V30 6591 H 617.084 1.79733 -3.75058 0
M  V30 6592 H 615.661 2.92769 -2.30956 0
M  V30 6593 N 617.846 1.41785 0.688094 0
M  V30 6594 C 619.094 1.41264 1.4453 0
M  V30 6595 C 619.415 0.0252946 1.94984 0
M  V30 6596 O 618.685 -0.934081 1.72197 0
M  V30 6597 H 617.265 0.519998 0.536294 0
M  V30 6598 H 619.927 1.7709 0.813941 0
M  V30 6599 H 619.023 2.10439 2.30482 0
M  V30 6600 N 619.324 -0.923095 1.27737 0
M  V30 6601 C 620.74 -1.19985 1.05241 0
M  V30 6602 C 620.94 -2.00391 -0.21113 0
M  V30 6603 O 619.996 -2.35324 -0.915366 0
M  V30 6604 C 621.309 -1.94352 2.29451 0
M  V30 6605 C 622.857 -2.07273 2.34536 0
M  V30 6606 C 623.332 -2.85046 3.58487 0
M  V30 6607 N 624.823 -2.92612 3.59072 0
M  V30 6608 C 625.558 -3.53266 4.51654 0
M  V30 6609 N 625.054 -4.15274 5.54545 0
M  V30 6610 N 626.847 -3.50714 4.39268 0
M  V30 6611 H 618.998 -0.386042 2.08862 0
M  V30 6612 H 621.261 -0.233407 0.918817 0
M  V30 6613 H 620.967 -1.42692 3.21453 0
M  V30 6614 H 620.841 -2.94947 2.3513 0
M  V30 6615 H 623.228 -2.58117 1.43037 0
M  V30 6616 H 623.309 -1.05884 2.32857 0
M  V30 6617 H 622.953 -2.34884 4.50324 0
M  V30 6618 H 622.883 -3.8673 3.57418 0
M  V30 6619 H 625.374 -2.48547 2.84663 0
M  V30 6620 H 625.687 -4.59507 6.21348 0
M  V30 6621 H 624.032 -4.13806 5.58382 0
M  V30 6622 H 627.223 -3.01475 3.58093 0
M  V30 6623 H 627.396 -3.97693 5.1161 0
M  V30 6624 N 620.802 -1.09834 -1.13024 0
M  V30 6625 C 622.218 -0.828875 -1.36388 0
M  V30 6626 C 622.418 0.554756 -1.93713 0
M  V30 6627 O 621.474 1.30882 -2.15931 0
M  V30 6628 C 622.787 -1.92352 -2.3113 0
M  V30 6629 C 624.335 -1.95124 -2.44735 0
M  V30 6630 C 624.81 -3.03745 -3.42787 0
M  V30 6631 N 626.301 -3.03012 -3.5034 0
M  V30 6632 C 627.036 -3.83699 -4.26101 0
M  V30 6633 N 626.532 -4.74306 -5.04981 0
M  V30 6634 N 628.325 -3.71942 -4.21445 0
M  V30 6635 H 620.476 -1.99029 -0.74169 0
M  V30 6636 H 622.739 -0.864557 -0.388903 0
M  V30 6637 H 622.445 -2.91906 -1.96172 0
M  V30 6638 H 622.319 -1.80536 -3.3119 0
M  V30 6639 H 624.706 -0.962069 -2.78977 0
M  V30 6640 H 624.787 -2.11018 -1.44586 0
M  V30 6641 H 624.431 -4.02878 -3.09276 0
M  V30 6642 H 624.361 -2.85094 -4.42752 0
M  V30 6643 H 626.852 -2.37352 -2.94062 0
M  V30 6644 H 627.165 -5.32446 -5.60108 0
M  V30 6645 H 625.51 -4.78339 -5.04199 0
M  V30 6646 H 628.701 -3.00513 -3.589 0
M  V30 6647 H 628.874 -4.35062 -4.80235 0
M  V30 6648 N 622.28 1.30327 -0.886154 0
M  V30 6649 C 623.19 2.31854 -0.357866 0
M  V30 6650 C 624.206 1.65392 0.540502 0
M  V30 6651 O 625.382 1.96683 0.433339 0
M  V30 6652 C 622.447 3.44171 0.417999 0
M  V30 6653 C 621.508 4.26257 -0.510263 0
M  V30 6654 C 620.741 5.3321 0.228669 0
M  V30 6655 O 620.964 5.51542 1.45458 0
M  V30 6656 O 619.898 6.0042 -0.421832 0
M  V30 6657 H 623.724 2.78995 -1.19982 0
M  V30 6658 H 621.309 1.34518 -0.650028 0
M  V30 6659 H 623.191 4.12588 0.857251 0
M  V30 6660 H 621.866 2.99164 1.23623 0
M  V30 6661 H 620.773 3.60533 -0.99835 0
M  V30 6662 H 622.106 4.74871 -1.29454 0
M  V30 6663 N 623.758 0.647228 1.43697 0
M  V30 6664 C 624.688 -0.0345631 2.33474 0
M  V30 6665 C 625.669 -0.818193 1.4913 0
M  V30 6666 O 626.854 -0.780867 1.77809 0
M  V30 6667 C 623.984 -1.00576 3.32418 0
M  V30 6668 C 622.938 -0.33266 4.26705 0
M  V30 6669 C 622.264 -1.41489 5.1564 0
M  V30 6670 C 623.564 0.771204 5.16575 0
M  V30 6671 H 625.258 0.715163 2.90733 0
M  V30 6672 H 622.804 0.345364 1.39797 0
M  V30 6673 H 624.757 -1.49159 3.94119 0
M  V30 6674 H 623.481 -1.78657 2.73403 0
M  V30 6675 H 622.14 0.13267 3.6636 0
M  V30 6676 H 621.788 -2.18698 4.52968 0
M  V30 6677 H 621.488 -0.969799 5.79542 0
M  V30 6678 H 623.012 -1.9022 5.80214 0
M  V30 6679 H 624.426 0.36779 5.72119 0
M  V30 6680 H 622.823 1.1404 5.89165 0
M  V30 6681 H 623.893 1.63169 4.56622 0
M  V30 6682 N 625.236 -1.5273 0.388769 0
M  V30 6683 C 626.166 -2.29353 -0.438111 0
M  V30 6684 C 627.147 -1.32719 -1.06394 0
M  V30 6685 O 628.332 -1.61612 -1.07681 0
M  V30 6686 C 625.462 -3.09995 -1.56589 0
M  V30 6687 C 624.416 -4.14509 -1.06613 0
M  V30 6688 C 623.742 -4.83372 -2.28594 0
M  V30 6689 C 625.042 -5.22127 -0.134459 0
M  V30 6690 H 626.736 -2.98723 0.201206 0
M  V30 6691 H 624.282 -1.43665 0.0982089 0
M  V30 6692 H 626.235 -3.62357 -2.15118 0
M  V30 6693 H 624.959 -2.38357 -2.23279 0
M  V30 6694 H 623.618 -3.63128 -0.503383 0
M  V30 6695 H 623.266 -4.08283 -2.93792 0
M  V30 6696 H 622.966 -5.54012 -1.95817 0
M  V30 6697 H 624.49 -5.38538 -2.87766 0
M  V30 6698 H 625.904 -5.69851 -0.627914 0
M  V30 6699 H 624.301 -6.00011 0.103534 0
M  V30 6700 H 625.371 -4.77971 0.816798 0
M  V30 6701 N 626.714 -0.118576 -1.57153 0
M  V30 6702 C 627.963 0.539339 -1.94355 0
M  V30 6703 C 628.276 1.67858 -1.00415 0
M  V30 6704 O 629.482 2.39922 -1.27081 0
M  V30 6705 C 627.938 1.01082 -3.45414 0
M  V30 6706 C 627.546 -0.0999402 -4.47889 0
M  V30 6707 C 629.29 1.64013 -3.91535 0
M  V30 6708 C 627.197 0.388212 -5.90124 0
M  V30 6709 H 626.127 0.205247 -0.725527 0
M  V30 6710 H 628.778 -0.19836 -1.82425 0
M  V30 6711 H 627.16 1.80292 -3.52577 0
M  V30 6712 H 628.334 -0.876189 -4.52393 0
M  V30 6713 H 626.649 -0.635885 -4.11516 0
M  V30 6714 H 629.246 2.01649 -4.95219 0
M  V30 6715 H 629.589 2.51836 -3.31488 0
M  V30 6716 H 630.122 0.913439 -3.87171 0
M  V30 6717 H 626.861 -0.453963 -6.53926 0
M  V30 6718 H 626.381 1.13095 -5.89041 0
M  V30 6719 H 628.06 0.849574 -6.41398 0
M  V30 6720 N 628.193 1.56834 0.155195 0
M  V30 6721 C 629.123 2.00678 1.19376 0
M  V30 6722 C 630.104 0.884973 1.45266 0
M  V30 6723 O 631.289 1.1522 1.56326 0
M  V30 6724 C 628.419 2.38042 2.5289 0
M  V30 6725 C 627.373 3.53332 2.41538 0
M  V30 6726 C 626.699 3.76485 3.79688 0
M  V30 6727 C 627.999 4.86265 1.9064 0
M  V30 6728 H 629.693 2.87688 0.829232 0
M  V30 6729 H 627.239 1.38407 0.397445 0
M  V30 6730 H 629.192 2.67314 3.25763 0
M  V30 6731 H 627.916 1.4796 2.91162 0
M  V30 6732 H 626.575 3.24213 1.71117 0
M  V30 6733 H 626.223 2.83667 4.15382 0
M  V30 6734 H 625.923 4.54068 3.72956 0
M  V30 6735 H 627.447 4.08174 4.54122 0
M  V30 6736 H 628.861 5.14308 2.53299 0
M  V30 6737 H 627.258 5.67597 1.94818 0
M  V30 6738 H 628.328 4.77184 0.861596 0
M  V30 6739 N 629.671 -0.424282 1.51781 0
M  V30 6740 C 630.899 -1.1947 1.68921 0
M  V30 6741 C 631.314 -1.84683 0.39213 0
M  V30 6742 O 630.671 -1.71261 -0.630554 0
M  V30 6743 C 630.722 -2.26909 2.81416 0
M  V30 6744 O 630.443 -1.64361 4.061 0
M  V30 6745 C 631.944 -3.16945 3.09937 0
M  V30 6746 H 629.164 -0.359591 0.566511 0
M  V30 6747 H 631.708 -0.501139 1.98265 0
M  V30 6748 H 629.863 -2.91959 2.54635 0
M  V30 6749 H 630.277 -2.35468 4.68674 0
M  V30 6750 H 631.751 -3.88437 3.922 0
M  V30 6751 H 632.228 -3.78451 2.22871 0
M  V30 6752 H 632.834 -2.57581 3.38426 0
M  V30 6753 N 631.149 -1.42148 -0.680565 0
M  V30 6754 C 632.398 -1.41604 -1.43636 0
M  V30 6755 C 632.711 -0.0337887 -1.95571 0
M  V30 6756 O 633.917 0.0942588 -2.71336 0
M  V30 6757 C 632.373 -2.49056 -2.59806 0
M  V30 6758 C 631.981 -3.9326 -2.14594 0
M  V30 6759 C 633.725 -2.5767 -3.37352 0
M  V30 6760 C 631.632 -4.92232 -3.27813 0
M  V30 6761 H 630.562 -0.526656 -0.539583 0
M  V30 6762 H 633.213 -1.68033 -0.737369 0
M  V30 6763 H 631.595 -2.15782 -3.32045 0
M  V30 6764 H 632.769 -4.35858 -1.49546 0
M  V30 6765 H 631.084 -3.88443 -1.50002 0
M  V30 6766 H 633.681 -3.28794 -4.21662 0
M  V30 6767 H 634.024 -1.61837 -3.83555 0
M  V30 6768 H 634.557 -2.90109 -2.72179 0
M  V30 6769 H 631.296 -5.89522 -2.86607 0
M  V30 6770 H 630.816 -4.5427 -3.91661 0
M  V30 6771 H 632.495 -5.13684 -3.93367 0
M  V30 6772 N 632.627 0.916307 -1.28225 0
M  V30 6773 C 633.59 1.99996 -1.11957 0
M  V30 6774 C 634.59 1.60688 -0.0600152 0
M  V30 6775 O 635.78 1.71499 -0.30558 0
M  V30 6776 C 632.912 3.33458 -0.708411 0
M  V30 6777 H 634.105 2.15858 -2.08196 0
M  V30 6778 H 631.658 1.09863 -1.11175 0
M  V30 6779 H 632.393 3.23297 0.254859 0
M  V30 6780 H 632.178 3.63349 -1.47377 0
M  V30 6781 H 633.668 4.13014 -0.617164 0
M  V30 6782 N 634.105 1.10431 1.1244 0
M  V30 6783 C 635.351 0.847972 1.84221 0
M  V30 6784 C 635.684 -0.624903 1.83871 0
M  V30 6785 O 634.959 -1.46074 1.28423 0
M  V30 6786 C 635.242 1.39695 3.319 0
M  V30 6787 C 635.095 2.93668 3.40704 0
M  V30 6788 C 636.414 1.03924 4.27654 0
M  V30 6789 H 633.533 0.309502 0.668863 0
M  V30 6790 H 636.175 1.36745 1.31912 0
M  V30 6791 H 634.325 0.955095 3.76577 0
M  V30 6792 H 635.997 3.46379 3.04662 0
M  V30 6793 H 634.24 3.30272 2.81252 0
M  V30 6794 H 634.911 3.27162 4.446 0
M  V30 6795 H 637.387 1.42049 3.91102 0
M  V30 6796 H 636.263 1.45027 5.29394 0
M  V30 6797 H 636.524 -0.051336 4.4207 0
M  V30 6798 N 635.583 -1.29855 0.893053 0
M  V30 6799 C 636.516 -2.26079 0.3104 0
M  V30 6800 C 637.494 -1.52145 -0.573644 0
M  V30 6801 O 638.678 -1.8113 -0.521937 0
M  V30 6802 C 635.805 -3.34069 -0.558179 0
M  V30 6803 C 634.851 -4.25721 0.257638 0
M  V30 6804 S 635.684 -5.09409 1.65114 0
M  V30 6805 C 636.84 -6.20903 0.789307 0
M  V30 6806 H 637.073 -2.75151 1.12602 0
M  V30 6807 H 634.606 -1.37975 0.692978 0
M  V30 6808 H 636.564 -3.9675 -1.05355 0
M  V30 6809 H 635.225 -2.83705 -1.34797 0
M  V30 6810 H 634.418 -5.02366 -0.405562 0
M  V30 6811 H 634.02 -3.67656 0.685917 0
M  V30 6812 H 636.312 -6.77499 0.00978451 0
M  V30 6813 H 637.255 -6.91426 1.52762 0
M  V30 6814 H 637.663 -5.63435 0.346634 0
M  V30 6815 N 637.061 -0.65484 -1.43351 0
M  V30 6816 C 638.301 -0.172514 -2.03671 0
M  V30 6817 C 638.665 1.19154 -1.50553 0
M  V30 6818 O 639.866 1.76737 -2.02528 0
M  V30 6819 C 638.137 -0.183982 -3.56926 0
M  V30 6820 S 639.696 0.230262 -4.38195 0
M  V30 6821 H 636.514 -0.0727503 -0.707268 0
M  V30 6822 H 639.116 -0.863537 -1.75395 0
M  V30 6823 H 637.82 -1.17945 -3.93087 0
M  V30 6824 H 637.351 0.527527 -3.89847 0
M  V30 6825 H 639.366 1.46874 -4.73965 0
M  V30 6826 N 638.539 1.52521 -0.396863 0
M  V30 6827 C 639.769 2.05792 0.182485 0
M  V30 6828 C 640.177 1.26784 1.40436 0
M  V30 6829 O 639.52 0.309617 1.81072 0
M  V30 6830 C 639.582 3.54291 0.609781 0
M  V30 6831 C 639.246 4.5426 -0.499674 0
M  V30 6832 C 640.243 5.01812 -1.35944 0
M  V30 6833 C 637.928 4.97827 -0.668864 0
M  V30 6834 C 639.922 5.91562 -2.37346 0
M  V30 6835 C 637.609 5.87376 -1.68621 0
M  V30 6836 C 638.607 6.34137 -2.53692 0
M  V30 6837 O 638.295 7.21915 -3.53686 0
M  V30 6838 H 638.027 0.675362 0.0293583 0
M  V30 6839 H 640.581 1.97539 -0.56281 0
M  V30 6840 H 638.811 3.60188 1.40717 0
M  V30 6841 H 640.5 3.90267 1.11565 0
M  V30 6842 H 641.266 4.68879 -1.24008 0
M  V30 6843 H 637.145 4.60997 -0.0163971 0
M  V30 6844 H 640.689 6.27983 -3.03782 0
M  V30 6845 H 636.586 6.19723 -1.80593 0
M  V30 6846 H 637.354 7.39996 -3.49784 0
M  V30 6847 N 640.017 0.126909 1.57088 0
M  V30 6848 C 640.947 -0.816847 2.18746 0
M  V30 6849 C 641.928 -1.27161 1.12979 0
M  V30 6850 O 643.113 -1.33279 1.41246 0
M  V30 6851 C 640.243 -2.06398 2.79315 0
M  V30 6852 C 639.197 -1.74673 3.90735 0
M  V30 6853 C 638.523 -3.06482 4.38147 0
M  V30 6854 C 639.823 -1.0089 5.12463 0
M  V30 6855 H 641.517 -0.303032 2.97863 0
M  V30 6856 H 639.063 -0.144314 1.43275 0
M  V30 6857 H 641.016 -2.72885 3.2111 0
M  V30 6858 H 639.74 -2.60118 1.975 0
M  V30 6859 H 638.399 -1.10572 3.49527 0
M  V30 6860 H 638.047 -3.58152 3.5318 0
M  V30 6861 H 637.747 -2.86025 5.13287 0
M  V30 6862 H 639.271 -3.74073 4.82599 0
M  V30 6863 H 640.685 -1.57546 5.51228 0
M  V30 6864 H 639.082 -0.905006 5.93237 0
M  V30 6865 H 640.152 0.00297335 4.849 0
M  V30 6866 N 641.495 -1.56914 -0.146875 0
M  V30 6867 C 642.744 -1.82546 -0.857898 0
M  V30 6868 C 643.057 -0.708169 -1.8233 0
M  V30 6869 O 644.263 -0.850093 -2.57848 0
M  V30 6870 C 642.719 -3.23548 -1.57623 0
M  V30 6871 C 642.327 -4.43212 -0.653224 0
M  V30 6872 C 644.071 -3.58453 -2.27402 0
M  V30 6873 C 641.978 -5.75237 -1.37318 0
M  V30 6874 H 640.908 -0.680786 -0.32411 0
M  V30 6875 H 643.559 -1.83166 -0.110639 0
M  V30 6876 H 641.941 -3.17315 -2.36912 0
M  V30 6877 H 643.115 -4.60682 0.104452 0
M  V30 6878 H 641.43 -4.16351 -0.0638336 0
M  V30 6879 H 644.027 -4.54349 -2.81907 0
M  V30 6880 H 644.37 -2.84516 -3.03901 0
M  V30 6881 H 644.903 -3.66347 -1.55032 0
M  V30 6882 H 641.642 -6.52269 -0.650041 0
M  V30 6883 H 641.162 -5.61703 -2.10357 0
M  V30 6884 H 642.841 -6.18039 -1.91406 0
M  V30 6885 N 642.974 0.416227 -1.52004 0
M  V30 6886 C 644.222 1.16153 -1.65387 0
M  V30 6887 C 644.543 1.91208 -0.382669 0
M  V30 6888 O 643.813 1.86413 0.602231 0
M  V30 6889 H 642.393 0.431765 -0.60958 0
M  V30 6890 H 645.055 0.475151 -1.89019 0
M  V30 6891 H 644.151 1.87952 -2.4916 0
M  V30 6892 N 644.452 1.42507 0.673017 0
M  V30 6893 C 645.382 1.48916 1.79851 0
M  V30 6894 C 646.363 0.345566 1.66553 0
M  V30 6895 O 647.548 0.560116 1.85947 0
M  V30 6896 C 644.678 1.39258 3.18158 0
M  V30 6897 C 643.632 2.51662 3.46194 0
M  V30 6898 C 642.958 2.27062 4.84094 0
M  V30 6899 C 644.258 3.93968 3.42909 0
M  V30 6900 H 645.952 2.43114 1.74745 0
M  V30 6901 H 643.498 1.17013 0.839288 0
M  V30 6902 H 645.451 1.42349 3.96629 0
M  V30 6903 H 644.175 0.415542 3.23946 0
M  V30 6904 H 642.834 2.47891 2.70084 0
M  V30 6905 H 642.482 1.27648 4.86534 0
M  V30 6906 H 642.182 3.02398 5.03815 0
M  V30 6907 H 643.706 2.31905 5.64847 0
M  V30 6908 H 645.12 3.99332 4.11347 0
M  V30 6909 H 643.517 4.6917 3.74165 0
M  V30 6910 H 644.587 4.20512 2.41449 0
M  V30 6911 N 645.93 -0.909495 1.28709 0
M  V30 6912 C 647.177 -1.65905 1.16111 0
M  V30 6913 C 647.505 -1.92334 -0.289436 0
M  V30 6914 O 646.76 -1.52495 -1.22653 0
M  V30 6915 C 647.059 -3.02117 1.90945 0
M  V30 6916 C 646.725 -2.95332 3.40719 0
M  V30 6917 C 645.387 -2.93189 3.81567 0
M  V30 6918 C 647.739 -2.85264 4.36204 0
M  V30 6919 C 645.067 -2.78784 5.16233 0
M  V30 6920 C 647.419 -2.724 5.70948 0
M  V30 6921 C 646.083 -2.68617 6.11066 0
M  V30 6922 H 645.353 -0.60709 0.42488 0
M  V30 6923 H 648 -1.05932 1.59533 0
M  V30 6924 H 646.305 -3.65901 1.40085 0
M  V30 6925 H 648.002 -3.59026 1.7861 0
M  V30 6926 H 644.592 -2.97797 3.08245 0
M  V30 6927 H 648.776 -2.86005 4.05605 0
M  V30 6928 H 644.032 -2.74254 5.46438 0
M  V30 6929 H 648.206 -2.63579 6.44592 0
M  V30 6930 H 645.833 -2.57213 7.15364 0
M  V30 6931 N 647.408 -1.11026 -1.11852 0
M  V30 6932 C 648.338 -0.786812 -2.19844 0
M  V30 6933 C 649.319 0.242935 -1.68356 0
M  V30 6934 O 650.504 0.107355 -1.93903 0
M  V30 6935 C 647.634 -0.224516 -3.46574 0
M  V30 6936 C 646.588 -1.18564 -4.1125 0
M  V30 6937 C 645.914 -0.484261 -5.32503 0
M  V30 6938 C 647.214 -2.53465 -4.56676 0
M  V30 6939 H 648.908 -1.68978 -2.47158 0
M  V30 6940 H 646.454 -0.813906 -1.18792 0
M  V30 6941 H 648.407 0.0139435 -4.21398 0
M  V30 6942 H 647.131 0.713722 -3.18706 0
M  V30 6943 H 645.79 -1.40966 -3.38414 0
M  V30 6944 H 645.438 0.458646 -5.00905 0
M  V30 6945 H 645.138 -1.12526 -5.76725 0
M  V30 6946 H 646.662 -0.254492 -6.10069 0
M  V30 6947 H 648.076 -2.35177 -5.22843 0
M  V30 6948 H 646.473 -3.13507 -5.11697 0
M  V30 6949 H 647.543 -3.13008 -3.70343 0
M  V30 6950 N 648.886 1.2938 -0.899927 0
M  V30 6951 C 650.132 1.9584 -0.526742 0
M  V30 6952 C 650.465 1.70774 0.924651 0
M  V30 6953 O 649.74 1.02084 1.65557 0
M  V30 6954 C 650.023 3.50638 -0.820062 0
M  V30 6955 C 649.876 3.85161 -2.32317 0
M  V30 6956 C 651.195 4.3903 -0.30671 0
M  V30 6957 H 648.314 0.711322 -0.192848 0
M  V30 6958 H 650.956 1.52992 -1.12665 0
M  V30 6959 H 649.106 3.87265 -0.309491 0
M  V30 6960 H 650.778 3.58477 -2.9033 0
M  V30 6961 H 649.021 3.32696 -2.78381 0
M  V30 6962 H 649.692 4.93204 -2.47898 0
M  V30 6963 H 652.168 4.09396 -0.743908 0
M  V30 6964 H 651.044 5.46226 -0.541144 0
M  V30 6965 H 651.305 4.34937 0.792588 0
M  V30 6966 N 650.364 0.662433 1.43002 0
M  V30 6967 C 651.592 0.187615 2.06048 0
M  V30 6968 C 652.007 -1.15039 1.49705 0
M  V30 6969 O 651.364 -1.71209 0.631956 0
M  V30 6970 C 651.415 0.100498 3.6136 0
M  V30 6971 O 651.136 1.38562 4.15611 0
M  V30 6972 C 652.637 -0.399298 4.41498 0
M  V30 6973 H 649.857 0.0941675 0.664359 0
M  V30 6974 H 652.401 0.905681 1.83351 0
M  V30 6975 H 650.556 -0.568181 3.83211 0
M  V30 6976 H 650.97 1.25084 5.09366 0
M  V30 6977 H 652.444 -0.409187 5.50481 0
M  V30 6978 H 652.921 -1.43232 4.15188 0
M  V30 6979 H 653.527 0.23721 4.24638 0
M  V30 6980 N 651.842 -1.52309 0.404946 0
M  V30 6981 C 652.752 -2.30634 -0.429555 0
M  V30 6982 C 653.768 -1.38187 -1.05737 0
M  V30 6983 O 654.944 -1.71261 -1.05979 0
M  V30 6984 C 652.009 -3.10947 -1.53339 0
M  V30 6985 C 651.07 -4.19126 -0.929065 0
M  V30 6986 C 650.303 -4.95601 -1.9803 0
M  V30 6987 O 650.526 -4.72331 -3.1978 0
M  V30 6988 O 649.46 -5.80551 -1.58886 0
M  V30 6989 H 653.286 -3.0298 0.208963 0
M  V30 6990 H 650.871 -1.4845 0.168255 0
M  V30 6991 H 652.753 -3.60974 -2.1743 0
M  V30 6992 H 651.428 -2.41399 -2.15658 0
M  V30 6993 H 650.335 -3.73257 -0.250982 0
M  V30 6994 H 651.668 -4.90955 -0.349855 0
M  V30 6995 N 653.32 -0.135238 -1.57019 0
M  V30 6996 C 654.568 0.51777 -1.95355 0
M  V30 6997 C 654.889 1.6617 -1.02042 0
M  V30 6998 O 654.159 1.95738 -0.0797343 0
M  V30 6999 H 652.739 0.194264 -0.721298 0
M  V30 7000 H 655.401 -0.207983 -1.93787 0
M  V30 7001 H 654.497 0.901675 -2.98791 0
M  V30 7002 N 654.798 1.5699 0.138552 0
M  V30 7003 C 656.046 1.83446 0.848053 0
M  V30 7004 C 656.367 0.71744 1.81322 0
M  V30 7005 O 655.637 -0.260228 1.94164 0
M  V30 7006 H 654.217 0.676792 0.316166 0
M  V30 7007 H 656.879 1.94462 0.130538 0
M  V30 7008 H 655.975 2.78677 1.40518 0
M  V30 7009 N 656.276 -0.40816 1.52223 0
M  V30 7010 C 657.209 -1.51834 1.70357 0
M  V30 7011 C 658.187 -1.52973 0.551171 0
M  V30 7012 O 659.371 -1.71667 0.778642 0
M  V30 7013 C 656.498 -2.90362 1.74378 0
M  V30 7014 C 655.544 -3.0713 2.95928 0
M  V30 7015 S 656.377 -2.80342 4.56255 0
M  V30 7016 C 657.533 -4.21098 4.63063 0
M  V30 7017 H 657.766 -1.36223 2.64255 0
M  V30 7018 H 655.299 -0.599798 1.42274 0
M  V30 7019 H 657.257 -3.70199 1.77379 0
M  V30 7020 H 655.918 -3.03314 0.816063 0
M  V30 7021 H 655.111 -4.08482 2.95226 0
M  V30 7022 H 654.713 -2.3516 2.90819 0
M  V30 7023 H 657.005 -5.14749 4.40499 0
M  V30 7024 H 657.948 -4.26823 5.65002 0
M  V30 7025 H 658.356 -4.06114 3.92086 0
M  V30 7026 N 657.755 -1.42862 -0.66545 0
M  V30 7027 C 658.985 -1.47032 -1.45138 0
M  V30 7028 C 659.393 -0.0829977 -1.89018 0
M  V30 7029 O 658.736 0.914551 -1.59316 0
M  V30 7030 C 658.798 -2.34302 -2.72659 0
M  V30 7031 C 658.462 -3.82034 -2.50796 0
M  V30 7032 C 659.459 -4.73453 -2.14799 0
M  V30 7033 C 657.144 -4.26397 -2.655 0
M  V30 7034 C 659.138 -6.07228 -1.93785 0
M  V30 7035 C 656.825 -5.6023 -2.44103 0
M  V30 7036 C 657.823 -6.50462 -2.08299 0
M  V30 7037 O 657.511 -7.8182 -1.87116 0
M  V30 7038 H 657.243 -0.501969 -0.452772 0
M  V30 7039 H 659.797 -1.88137 -0.82423 0
M  V30 7040 H 658.027 -1.88063 -3.37889 0
M  V30 7041 H 659.716 -2.29818 -3.34572 0
M  V30 7042 H 660.482 -4.4046 -2.03026 0
M  V30 7043 H 656.361 -3.56448 -2.92345 0
M  V30 7044 H 659.905 -6.7762 -1.65763 0
M  V30 7045 H 655.802 -5.92793 -2.55475 0
M  V30 7046 H 656.57 -7.93274 -2.01639 0
M  V30 7047 N 659.233 0.902656 -1.29189 0
M  V30 7048 C 660.482 1.6475 -1.16362 0
M  V30 7049 C 660.795 1.93517 0.284682 0
M  V30 7050 O 662.001 2.66192 0.534229 0
M  V30 7051 C 660.457 2.96848 -2.03493 0
M  V30 7052 C 660.065 2.75687 -3.5313 0
M  V30 7053 C 661.809 3.74762 -1.99383 0
M  V30 7054 C 659.716 4.03492 -4.32375 0
M  V30 7055 H 658.646 0.618041 -0.431904 0
M  V30 7056 H 661.297 1.0008 -1.53806 0
M  V30 7057 H 659.679 3.62715 -1.58916 0
M  V30 7058 H 660.853 2.18431 -4.05739 0
M  V30 7059 H 659.168 2.11171 -3.58881 0
M  V30 7060 H 661.765 4.69515 -2.5585 0
M  V30 7061 H 662.108 4.04767 -0.973123 0
M  V30 7062 H 662.641 3.15732 -2.41988 0
M  V30 7063 H 659.38 3.78656 -5.3507 0
M  V30 7064 H 658.9 4.60318 -3.84535 0
M  V30 7065 H 660.579 4.71662 -4.42881 0
M  V30 7066 N 660.711 1.11618 1.11262 0
M  V30 7067 C 661.958 0.86618 1.8304 0
M  V30 7068 C 662.286 -0.608149 1.84748 0
M  V30 7069 O 661.541 -1.46508 1.29745 0
M  V30 7070 C 661.84 1.37529 3.2988 0
M  V30 7071 C 661.506 2.86317 3.4833 0
M  V30 7072 C 660.168 3.26945 3.53073 0
M  V30 7073 C 662.52 3.82136 3.54431 0
M  V30 7074 C 659.848 4.62117 3.61475 0
M  V30 7075 C 662.2 5.17128 3.64365 0
M  V30 7076 C 660.864 5.57312 3.67369 0
M  V30 7077 H 660.134 0.316958 0.66979 0
M  V30 7078 H 662.781 1.3949 1.31205 0
M  V30 7079 H 661.086 0.766842 3.84222 0
M  V30 7080 H 662.783 1.15817 3.83911 0
M  V30 7081 H 659.373 2.53889 3.45309 0
M  V30 7082 H 663.557 3.51847 3.50025 0
M  V30 7083 H 658.813 4.92655 3.62079 0
M  V30 7084 H 662.987 5.91208 3.68029 0
M  V30 7085 H 660.614 6.62045 3.73632 0
M  V30 7086 N 662.189 -1.289 0.906776 0
M  V30 7087 C 663.121 -2.26556 0.347159 0
M  V30 7088 C 664.134 -1.54589 -0.51049 0
M  V30 7089 O 665.323 -1.75489 -0.326501 0
M  V30 7090 C 662.423 -3.3484 -0.523024 0
M  V30 7091 C 661.596 -4.36296 0.310515 0
M  V30 7092 C 660.655 -5.23879 -0.493634 0
M  V30 7093 O 659.681 -5.69127 0.0913569 0
M  V30 7094 N 660.883 -5.51946 -1.7982 0
M  V30 7095 H 663.648 -2.75212 1.18652 0
M  V30 7096 H 661.209 -1.42309 0.771996 0
M  V30 7097 H 663.201 -3.90366 -1.06756 0
M  V30 7098 H 661.771 -2.85946 -1.26309 0
M  V30 7099 H 660.991 -3.80331 1.03644 0
M  V30 7100 H 662.279 -5.01113 0.881106 0
M  V30 7101 H 661.677 -5.17006 -2.2961 0
M  V30 7102 H 660.234 -6.10258 -2.28971 0
M  V30 7103 N 663.667 -0.670007 -1.42649 0
M  V30 7104 C 664.597 -0.00258501 -2.335 0
M  V30 7105 C 665.578 0.794364 -1.50412 0
M  V30 7106 O 666.763 0.75248 -1.79029 0
M  V30 7107 C 663.893 0.952748 -3.33976 0
M  V30 7108 C 662.847 0.264733 -4.2718 0
M  V30 7109 C 662.173 1.33267 -5.17826 0
M  V30 7110 C 663.473 -0.853289 -5.15283 0
M  V30 7111 H 665.167 -0.761326 -2.89559 0
M  V30 7112 H 662.713 -0.367561 -1.3923 0
M  V30 7113 H 664.666 1.4287 -3.96442 0
M  V30 7114 H 663.39 1.74285 -2.7621 0
M  V30 7115 H 662.049 -0.190938 -3.66102 0
M  V30 7116 H 661.697 2.11464 -4.5639 0
M  V30 7117 H 661.397 0.877476 -5.81011 0
M  V30 7118 H 662.921 1.80965 -5.83167 0
M  V30 7119 H 664.335 -0.458763 -5.71462 0
M  V30 7120 H 662.732 -1.23398 -5.87276 0
M  V30 7121 H 663.802 -1.70412 -4.53969 0
M  V30 7122 N 665.145 1.52092 -0.413018 0
M  V30 7123 C 666.392 2.01855 0.161497 0
M  V30 7124 C 666.72 1.29845 1.44812 0
M  V30 7125 O 665.975 0.394471 1.91683 0
M  V30 7126 C 666.274 3.54529 0.4521 0
M  V30 7127 C 665.94 4.4469 -0.745788 0
M  V30 7128 C 664.602 4.69053 -1.07435 0
M  V30 7129 C 666.954 4.97742 -1.54604 0
M  V30 7130 C 664.282 5.43717 -2.20429 0
M  V30 7131 C 666.634 5.73642 -2.66678 0
M  V30 7132 C 665.298 5.96277 -3.00016 0
M  V30 7133 H 664.568 0.73864 0.0590961 0
M  V30 7134 H 667.215 1.83274 -0.555234 0
M  V30 7135 H 665.52 3.7131 1.25045 0
M  V30 7136 H 667.217 3.90546 0.909647 0
M  V30 7137 H 663.807 4.25907 -0.479725 0
M  V30 7138 H 667.991 4.78824 -1.30543 0
M  V30 7139 H 663.247 5.59462 -2.46602 0
M  V30 7140 H 667.421 6.13746 -3.29072 0
M  V30 7141 H 665.048 6.53913 -3.87688 0
M  V30 7142 N 666.623 0.143563 1.56945 0
M  V30 7143 C 667.9 -0.553285 1.87612 0
M  V30 7144 C 668.28 -1.83195 1.04894 0
M  V30 7145 O 667.628 -2.28102 0.134773 0
M  V30 7146 C 667.838 -0.822055 3.3918 0
M  V30 7147 C 669.186 -1.16435 4.08324 0
M  V30 7148 O 670.21 -0.911522 3.4434 0
M  V30 7149 O 669.069 -1.63996 5.21313 0
M  V30 7150 H 666.163 -0.281851 0.777489 0
M  V30 7151 H 668.709 0.179916 1.68744 0
M  V30 7152 H 667.481 0.0830265 3.91212 0
M  V30 7153 H 667.104 -1.60956 3.63564 0
M  V30 7154 N 668.101 -1.57061 -0.130224 0
M  V30 7155 C 669.331 -1.88159 -0.853217 0
M  V30 7156 C 669.739 -0.731675 -1.7448 0
M  V30 7157 O 669.082 0.307035 -1.81116 0
M  V30 7158 C 669.144 -3.1415 -1.74785 0
M  V30 7159 C 668.808 -4.45202 -1.03173 0
M  V30 7160 C 669.805 -5.18526 -0.377759 0
M  V30 7161 C 667.49 -4.91912 -1.01624 0
M  V30 7162 C 669.484 -6.36775 0.282123 0
M  V30 7163 C 667.171 -6.10082 -0.352555 0
M  V30 7164 C 668.169 -6.82361 0.295483 0
M  V30 7165 O 667.857 -7.98284 0.948606 0
M  V30 7166 H 667.589 -0.627596 -0.251197 0
M  V30 7167 H 670.143 -2.05034 -0.1226 0
M  V30 7168 H 668.373 -2.93328 -2.51983 0
M  V30 7169 H 670.062 -3.31359 -2.34427 0
M  V30 7170 H 670.828 -4.83498 -0.381417 0
M  V30 7171 H 666.707 -4.35566 -1.51007 0
M  V30 7172 H 670.251 -6.93129 0.788525 0
M  V30 7173 H 666.148 -6.44569 -0.346621 0
M  V30 7174 H 666.916 -8.14054 0.851954 0
M  V30 7175 N 669.579 0.400081 -1.52437 0
M  V30 7176 C 670.809 1.16598 -1.70553 0
M  V30 7177 C 671.217 1.8451 -0.418665 0
M  V30 7178 O 670.56 1.73069 0.615855 0
M  V30 7179 C 670.622 2.26517 -2.7916 0
M  V30 7180 C 670.286 1.78666 -4.20628 0
M  V30 7181 C 671.283 1.26946 -5.04163 0
M  V30 7182 C 668.968 1.85225 -4.66902 0
M  V30 7183 C 670.962 0.824187 -6.32049 0
M  V30 7184 C 668.649 1.40309 -5.94774 0
M  V30 7185 C 669.647 0.889922 -6.77178 0
M  V30 7186 O 669.335 0.447281 -8.02655 0
M  V30 7187 H 669.067 0.356023 -0.574651 0
M  V30 7188 H 671.621 0.475598 -1.99818 0
M  V30 7189 H 669.851 2.98946 -2.45292 0
M  V30 7190 H 671.54 2.88237 -2.85787 0
M  V30 7191 H 672.306 1.21244 -4.69601 0
M  V30 7192 H 668.185 2.24111 -4.02859 0
M  V30 7193 H 671.729 0.422958 -6.96317 0
M  V30 7194 H 667.626 1.45693 -6.28843 0
M  V30 7195 H 668.394 0.569768 -8.16514 0
M  V30 7196 N 671.057 1.43213 0.657864 0
M  V30 7197 C 672.02 1.47687 1.75275 0
M  V30 7198 C 673.02 0.362179 1.56668 0
M  V30 7199 O 674.21 0.623734 1.62651 0
M  V30 7200 C 671.342 1.32497 3.14098 0
M  V30 7201 H 672.535 2.4519 1.7269 0
M  V30 7202 H 670.088 1.2991 0.869087 0
M  V30 7203 H 670.823 0.359831 3.22298 0
M  V30 7204 H 670.608 2.13299 3.29008 0
M  V30 7205 H 672.098 1.38549 3.93946 0
M  V30 7206 N 672.536 -0.895792 1.29666 0
M  V30 7207 C 673.761 -1.68528 1.20885 0
M  V30 7208 C 674.186 -1.8673 -0.226595 0
M  V30 7209 O 673.544 -1.39044 -1.16347 0
M  V30 7210 C 673.592 -3.04512 1.93144 0
M  V30 7211 O 672.696 -3.92963 1.25115 0
M  V30 7212 H 672.037 -0.515371 0.418675 0
M  V30 7213 H 674.567 -1.11878 1.71302 0
M  V30 7214 H 674.577 -3.54628 2.0175 0
M  V30 7215 H 673.252 -2.90582 2.97548 0
M  V30 7216 H 671.829 -3.51399 1.24794 0
M  V30 7217 N 674.014 -1.12206 -1.10668 0
M  V30 7218 C 675.239 -0.898938 -1.86906 0
M  V30 7219 C 675.664 0.546346 -1.79991 0
M  V30 7220 O 675.022 1.38655 -1.1681 0
M  V30 7221 C 675.07 -1.37529 -3.33344 0
M  V30 7222 O 674.174 -0.55218 -4.08687 0
M  V30 7223 H 673.515 -0.323163 -0.580053 0
M  V30 7224 H 676.045 -1.49355 -1.39837 0
M  V30 7225 H 676.055 -1.3733 -3.84193 0
M  V30 7226 H 674.73 -2.42767 -3.37693 0
M  V30 7227 H 673.307 -0.620947 -3.67694 0
M  V30 7228 N 675.492 1.28418 -0.913599 0
M  V30 7229 C 676.74 1.94596 -0.545594 0
M  V30 7230 C 677.061 1.7227 0.913668 0
M  V30 7231 O 676.331 1.06233 1.64595 0
M  V30 7232 H 674.911 0.720065 -0.198783 0
M  V30 7233 H 677.573 1.56404 -1.16292 0
M  V30 7234 H 676.669 3.03202 -0.739911 0
M  V30 7235 N 676.97 0.677563 1.42291 0
M  V30 7236 C 678.219 0.198173 2.00724 0
M  V30 7237 C 678.532 -1.20325 1.54211 0
M  V30 7238 O 679.738 -1.77916 2.05081 0
M  V30 7239 C 678.194 0.303432 3.58619 0
M  V30 7240 C 677.802 1.70909 4.14119 0
M  V30 7241 C 679.546 -0.117103 4.24338 0
M  V30 7242 C 677.453 1.76696 5.64387 0
M  V30 7243 H 676.383 0.070329 0.750713 0
M  V30 7244 H 679.034 0.843147 1.62982 0
M  V30 7245 H 677.416 -0.409482 3.93877 0
M  V30 7246 H 678.59 2.44931 3.90315 0
M  V30 7247 H 676.905 2.07771 3.6086 0
M  V30 7248 H 679.502 -0.0940471 5.34617 0
M  V30 7249 H 679.845 -1.15283 4.00019 0
M  V30 7250 H 680.378 0.5449 3.9405 0
M  V30 7251 H 677.117 2.7826 5.93508 0
M  V30 7252 H 676.637 1.07034 5.90173 0
M  V30 7253 H 678.316 1.52166 6.28852 0
M  V30 7254 N 678.448 -1.51871 0.421078 0
M  V30 7255 C 679.688 -2.03848 -0.150167 0
M  V30 7256 C 680.052 -1.29925 -1.41363 0
M  V30 7257 O 681.253 -1.7219 -2.06408 0
M  V30 7258 C 679.524 -3.55374 -0.38003 0
M  V30 7259 S 681.083 -4.29111 -0.917011 0
M  V30 7260 H 677.901 -0.709904 -0.0394639 0
M  V30 7261 H 680.503 -1.86799 0.576746 0
M  V30 7262 H 679.207 -4.0675 0.546122 0
M  V30 7263 H 678.738 -3.76687 -1.13448 0
M  V30 7264 H 680.753 -4.44944 -2.19635 0
M  V30 7265 N 679.926 -0.151884 -1.56866 0
M  V30 7266 C 680.856 0.781943 -2.20018 0
M  V30 7267 C 681.837 1.25347 -1.14987 0
M  V30 7268 O 683.022 1.31015 -1.43348 0
M  V30 7269 C 680.152 2.01928 -2.82564 0
M  V30 7270 C 679.106 1.68434 -3.93464 0
M  V30 7271 C 678.432 2.99472 -4.42968 0
M  V30 7272 C 679.732 0.927244 -5.14003 0
M  V30 7273 H 681.426 0.255607 -2.98307 0
M  V30 7274 H 678.972 0.121502 -1.43486 0
M  V30 7275 H 680.925 2.67741 -3.25411 0
M  V30 7276 H 679.649 2.56943 -2.01614 0
M  V30 7277 H 678.308 1.04998 -3.51242 0
M  V30 7278 H 677.956 3.52488 -3.58834 0
M  V30 7279 H 677.656 2.77823 -5.17772 0
M  V30 7280 H 679.18 3.66348 -4.88489 0
M  V30 7281 H 680.594 1.48756 -5.53665 0
M  V30 7282 H 678.991 0.810513 -5.94601 0
M  V30 7283 H 680.061 -0.0801163 -4.84834 0
M  V30 7284 N 681.404 1.57128 0.121893 0
M  V30 7285 C 682.334 2.03165 1.15092 0
M  V30 7286 C 683.315 0.915587 1.43356 0
M  V30 7287 O 684.5 1.1851 1.53847 0
M  V30 7288 C 681.63 2.43352 2.47784 0
M  V30 7289 C 680.584 3.58376 2.33989 0
M  V30 7290 C 679.91 3.84454 3.71617 0
M  V30 7291 C 681.21 4.90199 1.80283 0
M  V30 7292 H 682.904 2.89382 0.768023 0
M  V30 7293 H 680.45 1.39218 0.367998 0
M  V30 7294 H 682.403 2.74163 3.20019 0
M  V30 7295 H 681.127 1.54103 2.87958 0
M  V30 7296 H 679.786 3.2777 1.64202 0
M  V30 7297 H 679.434 2.92414 4.09271 0
M  V30 7298 H 679.134 4.61877 3.6324 0
M  V30 7299 H 680.658 4.17714 4.45362 0
M  V30 7300 H 682.072 5.19565 2.42333 0
M  V30 7301 H 680.469 5.71601 1.82735 0
M  V30 7302 H 681.539 4.78904 0.760184 0
M  V30 7303 N 682.882 -0.391992 1.52647 0
M  V30 7304 C 684.129 -1.13732 1.67545 0
M  V30 7305 C 684.457 -1.90045 0.413881 0
M  V30 7306 O 683.712 -1.86157 -0.603646 0
M  V30 7307 C 684.011 -2.14401 2.85949 0
M  V30 7308 C 683.677 -1.54767 4.23507 0
M  V30 7309 C 682.339 -1.38229 4.60919 0
M  V30 7310 C 684.691 -1.11382 5.0916 0
M  V30 7311 C 682.019 -0.7685 5.81645 0
M  V30 7312 C 684.371 -0.514143 6.30507 0
M  V30 7313 C 683.035 -0.33604 6.66654 0
M  V30 7314 H 682.305 -0.416174 0.613091 0
M  V30 7315 H 684.952 -0.422327 1.86785 0
M  V30 7316 H 683.257 -2.92108 2.61114 0
M  V30 7317 H 684.954 -2.71974 2.94671 0
M  V30 7318 H 681.544 -1.68626 3.94035 0
M  V30 7319 H 685.728 -1.22962 4.80826 0
M  V30 7320 H 680.984 -0.618681 6.08262 0
M  V30 7321 H 685.158 -0.169657 6.96193 0
M  V30 7322 H 682.785 0.14166 7.60068 0
M  V30 7323 N 684.36 -1.4356 -0.65026 0
M  V30 7324 C 685.29 -1.51758 -1.77459 0
M  V30 7325 C 686.271 -0.372019 -1.65982 0
M  V30 7326 O 687.456 -0.589627 -1.85033 0
M  V30 7327 C 684.586 -1.44302 -3.15902 0
M  V30 7328 C 683.54 -2.57138 -3.42146 0
M  V30 7329 C 682.866 -2.34735 -4.8042 0
M  V30 7330 C 684.166 -3.99373 -3.36598 0
M  V30 7331 H 685.86 -2.45863 -1.70855 0
M  V30 7332 H 683.406 -1.18333 -0.820566 0
M  V30 7333 H 685.359 -1.48641 -3.94314 0
M  V30 7334 H 684.083 -0.467026 -3.23244 0
M  V30 7335 H 682.742 -2.52157 -2.66106 0
M  V30 7336 H 682.39 -1.35372 -4.84441 0
M  V30 7337 H 682.09 -3.10375 -4.9894 0
M  V30 7338 H 683.614 -2.40862 -5.61086 0
M  V30 7339 H 685.028 -4.05826 -4.04942 0
M  V30 7340 H 683.425 -4.75063 -3.66654 0
M  V30 7341 H 684.495 -4.243 -2.34729 0
M  V30 7342 N 685.838 0.888903 -1.30139 0
M  V30 7343 C 687.063 1.67884 -1.21777 0
M  V30 7344 C 687.488 1.86848 0.216689 0
M  V30 7345 O 686.846 1.39659 1.15608 0
M  V30 7346 C 686.894 3.03483 -1.94757 0
M  V30 7347 O 685.998 3.92294 -1.27198 0
M  V30 7348 H 685.339 0.513144 -0.421402 0
M  V30 7349 H 687.869 1.10968 -1.71893 0
M  V30 7350 H 687.879 3.53553 -2.03627 0
M  V30 7351 H 686.554 2.89 -2.99085 0
M  V30 7352 H 685.131 3.50732 -1.26655 0
M  V30 7353 N 687.317 1.12792 1.10072 0
M  V30 7354 C 688.247 0.821688 2.18565 0
M  V30 7355 C 689.228 -0.21612 1.68721 0
M  V30 7356 O 690.413 -0.0764932 1.94049 0
M  V30 7357 C 687.543 0.279624 3.46172 0
M  V30 7358 C 686.497 1.25092 4.09312 0
M  V30 7359 C 685.823 0.568916 5.31665 0
M  V30 7360 C 687.123 2.60699 4.52585 0
M  V30 7361 H 688.817 1.72888 2.44438 0
M  V30 7362 H 686.363 0.832702 1.17482 0
M  V30 7363 H 688.316 0.053099 4.21367 0
M  V30 7364 H 687.04 -0.662929 3.19801 0
M  V30 7365 H 685.699 1.46332 3.36129 0
M  V30 7366 H 685.347 -0.378898 5.01571 0
M  V30 7367 H 685.047 1.21687 5.74862 0
M  V30 7368 H 686.571 0.351517 6.09587 0
M  V30 7369 H 687.985 2.43465 5.19035 0
M  V30 7370 H 686.382 3.21608 5.06644 0
M  V30 7371 H 687.452 3.1886 3.65317 0
M  V30 7372 N 688.795 -1.27931 0.920396 0
M  V30 7373 C 690.042 -1.94689 0.557007 0
M  V30 7374 C 690.37 -1.724 -0.900476 0
M  V30 7375 O 689.625 -1.04194 -1.65657 0
M  V30 7376 C 689.924 -3.47853 0.820558 0
M  V30 7377 C 689.59 -3.90252 2.25863 0
M  V30 7378 C 688.252 -4.01539 2.65179 0
M  V30 7379 C 690.604 -4.11853 3.19415 0
M  V30 7380 C 687.932 -4.3181 3.97187 0
M  V30 7381 C 690.284 -4.43606 4.50995 0
M  V30 7382 C 688.948 -4.53105 4.90155 0
M  V30 7383 H 688.218 -0.712416 0.203823 0
M  V30 7384 H 690.865 -1.52142 1.16298 0
M  V30 7385 H 689.17 -3.91578 0.131844 0
M  V30 7386 H 690.867 -3.97634 0.51847 0
M  V30 7387 H 687.457 -3.81999 1.94358 0
M  V30 7388 H 691.641 -4.0258 2.90246 0
M  V30 7389 H 686.897 -4.37371 4.2722 0
M  V30 7390 H 691.071 -4.59268 5.23494 0
M  V30 7391 H 688.698 -4.76315 5.92476 0
M  V30 7392 N 690.273 -0.685099 -1.4193 0
M  V30 7393 C 691.183 -0.013404 -2.34596 0
M  V30 7394 C 692.199 0.777589 -1.55658 0
M  V30 7395 O 693.375 0.717553 -1.88184 0
M  V30 7396 C 690.44 0.919031 -3.34297 0
M  V30 7397 C 689.501 0.121417 -4.29128 0
M  V30 7398 C 688.734 1.00944 -5.24067 0
M  V30 7399 O 688.957 2.24898 -5.24192 0
M  V30 7400 O 687.891 0.464724 -6.00103 0
M  V30 7401 H 691.717 -0.776978 -2.93593 0
M  V30 7402 H 689.302 -0.445379 -1.42607 0
M  V30 7403 H 691.184 1.45402 -3.9552 0
M  V30 7404 H 689.859 1.66228 -2.77759 0
M  V30 7405 H 688.766 -0.45792 -3.71287 0
M  V30 7406 H 690.099 -0.582937 -4.88736 0
M  V30 7407 N 691.751 1.51645 -0.429126 0
M  V30 7408 C 692.997 2.02314 0.140286 0
M  V30 7409 C 693.33 1.31314 1.43074 0
M  V30 7410 O 692.605 0.425531 1.89788 0
M  V30 7411 C 692.888 3.5822 0.36749 0
M  V30 7412 C 692.741 4.39846 -0.941039 0
M  V30 7413 C 694.06 4.25055 1.14089 0
M  V30 7414 H 691.179 0.735335 0.0495112 0
M  V30 7415 H 693.821 1.81358 -0.566514 0
M  V30 7416 H 691.971 3.76207 0.969556 0
M  V30 7417 H 693.643 4.33527 -1.57646 0
M  V30 7418 H 691.886 4.05259 -1.54751 0
M  V30 7419 H 692.557 5.47069 -0.73621 0
M  V30 7420 H 695.033 4.11288 0.630986 0
M  V30 7421 H 693.909 5.34038 1.26863 0
M  V30 7422 H 694.17 3.85358 2.16683 0
M  V30 7423 N 693.229 0.160201 1.56784 0
M  V30 7424 C 694.475 -0.48831 1.96833 0
M  V30 7425 C 694.808 -1.63641 1.04571 0
M  V30 7426 O 694.083 -1.94289 0.0906481 0
M  V30 7427 C 694.366 -0.981908 3.46454 0
M  V30 7428 C 694.219 0.165607 4.49495 0
M  V30 7429 C 695.538 -1.85931 3.98896 0
M  V30 7430 H 692.657 -0.176027 0.71567 0
M  V30 7431 H 695.299 0.244093 1.88426 0
M  V30 7432 H 693.449 -1.60602 3.5375 0
M  V30 7433 H 695.121 0.802372 4.54268 0
M  V30 7434 H 693.364 0.822789 4.25926 0
M  V30 7435 H 694.035 -0.221699 5.51555 0
M  V30 7436 H 696.511 -1.33327 3.94161 0
M  V30 7437 H 695.387 -2.17373 5.04024 0
M  V30 7438 H 695.648 -2.80106 3.42042 0
M  V30 7439 N 694.707 -1.5719 -0.113559 0
M  V30 7440 C 695.947 -1.86958 -0.82621 0
M  V30 7441 C 696.311 -0.748884 -1.76793 0
M  V30 7442 O 697.512 -0.92847 -2.52256 0
M  V30 7443 C 695.783 -3.21957 -1.55173 0
M  V30 7444 S 697.342 -3.73371 -2.3052 0
M  V30 7445 H 694.16 -0.655394 -0.275643 0
M  V30 7446 H 696.762 -1.95318 -0.0842684 0
M  V30 7447 H 695.466 -4.01459 -0.851977 0
M  V30 7448 H 694.997 -3.16688 -2.33393 0
M  V30 7449 H 697.012 -3.45308 -3.56338 0
M  V30 7450 N 696.185 0.383891 -1.52853 0
M  V30 7451 C 697.434 1.12563 -1.67369 0
M  V30 7452 C 697.747 1.90982 -0.422533 0
M  V30 7453 O 698.953 2.6778 -0.447914 0
M  V30 7454 C 697.409 2.05011 -2.95801 0
M  V30 7455 C 697.017 1.31991 -4.28115 0
M  V30 7456 C 698.761 2.79289 -3.19684 0
M  V30 7457 C 696.668 2.23235 -5.4765 0
M  V30 7458 H 695.598 0.42391 -0.623552 0
M  V30 7459 H 698.249 0.388016 -1.79351 0
M  V30 7460 H 696.631 2.82429 -2.77578 0
M  V30 7461 H 697.805 0.597633 -4.56908 0
M  V30 7462 H 696.12 0.696517 -4.10533 0
M  V30 7463 H 698.717 3.47749 -4.06171 0
M  V30 7464 H 699.06 3.43649 -2.3497 0
M  V30 7465 H 699.593 2.08962 -3.38496 0
M  V30 7466 H 696.332 1.63482 -6.34786 0
M  V30 7467 H 695.852 2.93364 -5.23161 0
M  V30 7468 H 697.531 2.83205 -5.81725 0
M  V30 7469 N 697.663 1.43903 0.642637 0
M  V30 7470 C 698.888 1.49758 1.43483 0
M  V30 7471 C 699.313 0.119911 1.87717 0
M  V30 7472 O 698.671 -0.888558 1.58033 0
M  V30 7473 C 698.719 2.45744 2.63898 0
M  V30 7474 O 697.823 1.95101 3.63331 0
M  V30 7475 H 697.164 0.506138 0.429791 0
M  V30 7476 H 699.694 1.88923 0.785438 0
M  V30 7477 H 699.704 2.63399 3.11584 0
M  V30 7478 H 698.379 3.45818 2.31046 0
M  V30 7479 H 696.956 1.87158 3.22531 0
M  V30 7480 N 699.141 -0.881989 1.30609 0
M  V30 7481 C 700.387 -1.63649 1.20791 0
M  V30 7482 C 700.742 -1.90966 -0.234437 0
M  V30 7483 O 700.035 -1.52163 -1.16434 0
M  V30 7484 C 700.229 -2.97999 1.97311 0
M  V30 7485 C 700.058 -2.83798 3.48839 0
M  V30 7486 C 698.828 -2.83622 4.18195 0
M  V30 7487 C 701.026 -2.59529 4.44015 0
M  V30 7488 N 699.008 -2.60344 5.55962 0
M  V30 7489 C 700.379 -2.45401 5.69366 0
M  V30 7490 C 702.434 -2.44777 4.33576 0
M  V30 7491 C 701.137 -2.18023 6.85462 0
M  V30 7492 C 703.163 -2.18785 5.49443 0
M  V30 7493 C 702.525 -2.05436 6.73777 0
M  V30 7494 H 698.624 -0.603687 0.497077 0
M  V30 7495 H 701.208 -1.03908 1.64655 0
M  V30 7496 H 699.379 -3.55767 1.55834 0
M  V30 7497 H 701.111 -3.6266 1.79611 0
M  V30 7498 H 697.866 -2.95562 3.70054 0
M  V30 7499 H 698.29 -2.51709 6.28468 0
M  V30 7500 H 702.932 -2.53831 3.38126 0
M  V30 7501 H 700.65 -2.07707 7.8095 0
M  V30 7502 H 704.236 -2.08188 5.43276 0
M  V30 7503 H 703.116 -1.85605 7.61919 0
M  V30 7504 N 700.619 -1.13374 -1.09472 0
M  V30 7505 C 701.865 -0.896516 -1.81908 0
M  V30 7506 C 702.198 0.575933 -1.85463 0
M  V30 7507 O 701.473 1.42618 -1.32251 0
M  V30 7508 C 701.756 -1.48445 -3.28079 0
M  V30 7509 C 701.609 -3.02598 -3.32798 0
M  V30 7510 C 702.928 -1.15226 -4.24748 0
M  V30 7511 H 700.047 -0.327127 -0.660422 0
M  V30 7512 H 702.689 -1.40195 -1.2824 0
M  V30 7513 H 700.839 -1.0546 -3.73912 0
M  V30 7514 H 702.511 -3.54335 -2.95372 0
M  V30 7515 H 700.754 -3.37613 -2.72397 0
M  V30 7516 H 701.425 -3.38835 -4.3577 0
M  V30 7517 H 703.901 -1.52369 -3.87199 0
M  V30 7518 H 702.777 -1.59012 -5.25363 0
M  V30 7519 H 703.038 -0.0658891 -4.42051 0
M  V30 7520 N 702.098 1.27442 -0.927168 0
M  V30 7521 C 703.328 1.9821 -0.582775 0
M  V30 7522 C 703.736 1.69361 0.843406 0
M  V30 7523 O 703.079 0.950381 1.57205 0
M  V30 7524 C 703.141 3.52048 -0.728165 0
M  V30 7525 C 702.805 4.04518 -2.12637 0
M  V30 7526 C 703.802 4.17332 -3.10048 0
M  V30 7527 C 701.487 4.38879 -2.44317 0
M  V30 7528 C 703.481 4.6378 -4.37249 0
M  V30 7529 C 701.168 4.85018 -3.71753 0
M  V30 7530 C 702.166 4.97428 -4.68033 0
M  V30 7531 O 701.854 5.42556 -5.93202 0
M  V30 7532 H 701.586 0.639314 -0.219667 0
M  V30 7533 H 704.14 1.63272 -1.24626 0
M  V30 7534 H 702.37 3.86699 -0.00758143 0
M  V30 7535 H 704.059 4.04033 -0.388906 0
M  V30 7536 H 704.825 3.91046 -2.86894 0
M  V30 7537 H 700.704 4.28462 -1.70121 0
M  V30 7538 H 704.248 4.73382 -5.12402 0
M  V30 7539 H 700.145 5.10746 -3.94726 0
M  V30 7540 H 700.913 5.60811 -5.96182 0
M  V30 7541 N 703.576 0.692616 1.41565 0
M  V30 7542 C 704.824 0.221896 2.00878 0
M  V30 7543 C 705.145 -1.18164 1.5512 0
M  V30 7544 O 704.415 -1.79679 0.78054 0
M  V30 7545 H 702.995 0.0790463 0.742806 0
M  V30 7546 H 705.657 0.893115 1.73232 0
M  V30 7547 H 704.753 0.23702 3.11199 0
M  V30 7548 N 705.054 -1.51416 0.437162 0
M  V30 7549 C 706.017 -2.26312 -0.362729 0
M  V30 7550 C 707.017 -1.29748 -0.949847 0
M  V30 7551 O 708.207 -1.53462 -0.824325 0
M  V30 7552 C 705.339 -3.05475 -1.5132 0
M  V30 7553 H 706.532 -2.98459 0.29365 0
M  V30 7554 H 704.085 -1.55137 0.190327 0
M  V30 7555 H 704.82 -2.37744 -2.20563 0
M  V30 7556 H 704.605 -3.76401 -1.09838 0
M  V30 7557 H 706.095 -3.62209 -2.07833 0
M  V30 7558 N 706.532 -0.168513 -1.56696 0
M  V30 7559 C 707.809 0.523367 -1.88468 0
M  V30 7560 C 708.189 1.81503 -1.07796 0
M  V30 7561 O 707.537 2.27859 -0.171045 0
M  V30 7562 C 707.747 0.767991 -3.40445 0
M  V30 7563 C 709.095 1.09924 -4.10124 0
M  V30 7564 O 710.119 0.856625 -3.45746 0
M  V30 7565 O 708.978 1.55681 -5.23856 0
M  V30 7566 H 706.072 0.269447 -0.781874 0
M  V30 7567 H 708.618 -0.206739 -1.68436 0
M  V30 7568 H 707.39 -0.145254 -3.9103 0
M  V30 7569 H 707.013 1.55151 -3.66079 0
M  V30 7570 N 708.01 1.57248 0.105221 0
M  V30 7571 C 709.426 1.52853 0.459153 0
M  V30 7572 C 709.626 0.883674 1.8109 0
M  V30 7573 O 708.682 0.471864 2.48052 0
M  V30 7574 C 709.995 2.97596 0.43096 0
M  V30 7575 C 711.543 3.08758 0.513536 0
M  V30 7576 C 712.018 4.55089 0.515593 0
M  V30 7577 N 713.509 4.59597 0.576639 0
M  V30 7578 C 714.244 5.70253 0.599904 0
M  V30 7579 N 713.74 6.90368 0.579985 0
M  V30 7580 N 715.533 5.58399 0.643953 0
M  V30 7581 H 707.684 1.97547 -0.780306 0
M  V30 7582 H 709.947 0.902758 -0.289363 0
M  V30 7583 H 709.653 3.48201 -0.494903 0
M  V30 7584 H 709.527 3.55756 1.2537 0
M  V30 7585 H 711.914 2.58148 1.42982 0
M  V30 7586 H 711.995 2.53568 -0.337148 0
M  V30 7587 H 711.639 5.06348 -0.396701 0
M  V30 7588 H 711.569 5.08105 1.38335 0
M  V30 7589 H 714.06 3.73144 0.597639 0
M  V30 7590 H 714.373 7.70462 0.600741 0
M  V30 7591 H 712.718 6.92843 0.547191 0
M  V30 7592 H 715.909 4.63467 0.656975 0
M  V30 7593 H 716.082 6.44644 0.658616 0
M  V30 7594 N 709.488 -0.375779 1.53054 0
M  V30 7595 C 710.735 -1.11948 1.68742 0
M  V30 7596 C 711.063 -1.89596 0.434015 0
M  V30 7597 O 710.318 -1.86787 -0.583867 0
M  V30 7598 C 710.617 -2.11356 2.88207 0
M  V30 7599 C 710.283 -1.50266 4.25124 0
M  V30 7600 C 708.945 -1.33333 4.62359 0
M  V30 7601 C 711.297 -1.05976 5.10312 0
M  V30 7602 C 708.625 -0.706765 5.82427 0
M  V30 7603 C 710.977 -0.447241 6.31017 0
M  V30 7604 C 709.641 -0.265314 6.66973 0
M  V30 7605 H 708.911 -0.409648 0.61747 0
M  V30 7606 H 711.558 -0.402492 1.87222 0
M  V30 7607 H 709.863 -2.89322 2.64197 0
M  V30 7608 H 711.56 -2.68833 2.97539 0
M  V30 7609 H 708.15 -1.64437 3.95801 0
M  V30 7610 H 712.334 -1.17855 4.82104 0
M  V30 7611 H 707.59 -0.554132 6.08884 0
M  V30 7612 H 711.764 -0.0958064 6.96334 0
M  V30 7613 H 709.391 0.222267 7.59875 0
M  V30 7614 N 710.966 -1.44241 -0.634997 0
M  V30 7615 C 712.196 -1.50078 -1.41987 0
M  V30 7616 C 712.604 -0.123072 -1.88799 0
M  V30 7617 O 711.947 0.880552 -1.6122 0
M  V30 7618 C 712.009 -2.40033 -2.67628 0
M  V30 7619 C 711.673 -3.87268 -2.42637 0
M  V30 7620 C 712.67 -4.77902 -2.04708 0
M  V30 7621 C 710.355 -4.31933 -2.56396 0
M  V30 7622 C 712.349 -6.11202 -1.80862 0
M  V30 7623 C 710.036 -5.65281 -2.32164 0
M  V30 7624 C 711.034 -6.54734 -1.94455 0
M  V30 7625 O 710.722 -7.85613 -1.7049 0
M  V30 7626 H 710.454 -0.51146 -0.442023 0
M  V30 7627 H 713.008 -1.89843 -0.784138 0
M  V30 7628 H 711.238 -1.95188 -3.33824 0
M  V30 7629 H 712.927 -2.36863 -3.29622 0
M  V30 7630 H 713.693 -4.44668 -1.93638 0
M  V30 7631 H 709.572 -3.62569 -2.84719 0
M  V30 7632 H 713.116 -6.80983 -1.51353 0
M  V30 7633 H 709.013 -5.98078 -2.42843 0
M  V30 7634 H 709.781 -7.97373 -1.84767 0
M  V30 7635 N 712.444 0.87505 -1.31075 0
M  V30 7636 C 713.721 1.60976 -1.11113 0
M  V30 7637 C 714.101 2.08409 0.336006 0
M  V30 7638 O 713.449 1.85858 1.32924 0
M  V30 7639 C 713.659 2.77166 -2.12085 0
M  V30 7640 C 715.007 3.47254 -2.44335 0
M  V30 7641 O 716.031 2.87367 -2.10472 0
M  V30 7642 O 714.89 4.55276 -3.02301 0
M  V30 7643 H 711.984 0.707982 -0.427424 0
M  V30 7644 H 714.53 0.920957 -1.42536 0
M  V30 7645 H 713.302 2.39494 -3.09449 0
M  V30 7646 H 712.925 3.53737 -1.81538 0
M  V30 7647 N 713.922 1.13953 1.08869 0
M  V30 7648 C 714.87 0.817664 2.17754 0
M  V30 7649 C 715.864 -0.202444 1.68186 0
M  V30 7650 O 717.07 -0.0590159 1.79903 0
M  V30 7651 H 713.445 0.246671 0.710392 0
M  V30 7652 H 715.416 1.74401 2.4213 0
M  V30 7653 C 714.165 0.3063 3.46348 0
M  V30 7654 H 713.488 1.08259 3.84864 0
M  V30 7655 H 714.928 0.119584 4.23831 0
M  V30 7656 C 713.387 -0.969158 3.22659 0
M  V30 7657 O 713.917 -2.04386 3.45817 0
M  V30 7658 N 712.123 -0.902516 2.7623 0
M  V30 7659 H 711.67 -0.027801 2.57585 0
M  V30 7660 H 711.628 -1.75649 2.60758 0
M  V30 7661 N 715.4 -1.26948 0.933913 0
M  V30 7662 C 716.649 -1.93378 0.573409 0
M  V30 7663 C 716.962 -1.74148 -0.890614 0
M  V30 7664 O 718.168 -2.34971 -1.36017 0
M  V30 7665 C 716.624 -3.46449 0.974747 0
M  V30 7666 C 716.232 -3.74425 2.45988 0
M  V30 7667 C 717.976 -4.18924 0.685791 0
M  V30 7668 C 715.883 -5.209 2.8003 0
M  V30 7669 H 714.813 -0.723952 0.210736 0
M  V30 7670 H 717.464 -1.44143 1.13557 0
M  V30 7671 H 715.846 -3.94528 0.341181 0
M  V30 7672 H 717.02 -3.37079 3.14188 0
M  V30 7673 H 715.335 -3.15167 2.72138 0
M  V30 7674 H 717.932 -5.26786 0.916546 0
M  V30 7675 H 718.275 -4.14587 -0.377217 0
M  V30 7676 H 718.808 -3.76687 1.27874 0
M  V30 7677 H 715.547 -5.30332 3.85264 0
M  V30 7678 H 715.067 -5.59369 2.16485 0
M  V30 7679 H 716.746 -5.88837 2.68105 0
M  V30 7680 N 716.879 -0.700114 -1.41195 0
M  V30 7681 C 717.789 -0.0382854 -2.34569 0
M  V30 7682 C 718.805 0.761036 -1.56474 0
M  V30 7683 O 719.981 0.697553 -1.88934 0
M  V30 7684 C 717.046 0.883522 -3.35253 0
M  V30 7685 C 716.107 0.0758957 -4.29233 0
M  V30 7686 C 715.34 0.9538 -5.25108 0
M  V30 7687 O 715.563 2.19326 -5.26547 0
M  V30 7688 O 714.497 0.401049 -6.00562 0
M  V30 7689 H 718.323 -0.808073 -2.92752 0
M  V30 7690 H 715.908 -0.460479 -1.42127 0
M  V30 7691 H 717.79 1.41199 -3.9704 0
M  V30 7692 H 716.465 1.63272 -2.79506 0
M  V30 7693 H 715.372 -0.497274 -3.7078 0
M  V30 7694 H 716.705 -0.634741 -4.8809 0
M  V30 7695 N 718.357 1.51182 -0.445186 0
M  V30 7696 C 719.634 1.9478 0.178965 0
M  V30 7697 C 720.014 1.38428 1.59376 0
M  V30 7698 O 719.362 0.574552 2.21159 0
M  V30 7699 C 719.572 3.48683 0.148711 0
M  V30 7700 C 720.92 4.23152 0.35042 0
M  V30 7701 O 721.944 3.55479 0.226474 0
M  V30 7702 O 720.803 5.4322 0.597893 0
M  V30 7703 H 717.897 0.817387 0.12573 0
M  V30 7704 H 720.443 1.62051 -0.503729 0
M  V30 7705 H 719.215 3.82176 -0.84009 0
M  V30 7706 H 718.838 3.87875 0.873979 0
M  V30 7707 N 719.835 0.176821 1.56605 0
M  V30 7708 C 720.768 -0.790135 2.14084 0
M  V30 7709 C 721.746 -1.22219 1.07244 0
M  V30 7710 O 722.93 -1.31298 1.35252 0
M  V30 7711 C 720.057 -2.06475 2.68488 0
M  V30 7712 C 719.103 -1.77628 3.87751 0
M  V30 7713 S 719.936 -0.940612 5.27174 0
M  V30 7714 C 721.092 -2.22577 5.84988 0
M  V30 7715 H 721.325 -0.30144 2.95768 0
M  V30 7716 H 718.858 -0.0379279 1.54353 0
M  V30 7717 H 720.816 -2.79683 3.00479 0
M  V30 7718 H 719.477 -2.52457 1.8688 0
M  V30 7719 H 718.67 -2.72215 4.24164 0
M  V30 7720 H 718.272 -1.12512 3.56675 0
M  V30 7721 H 720.564 -3.17992 5.98237 0
M  V30 7722 H 721.507 -1.90624 6.81959 0
M  V30 7723 H 721.915 -2.34588 5.13448 0
M  V30 7724 N 721.313 -1.57302 -0.09688 0
M  V30 7725 C 722.562 -1.85183 -0.799388 0
M  V30 7726 C 722.875 -0.765818 -1.79985 0
M  V30 7727 O 724.081 -0.931696 -2.55013 0
M  V30 7728 C 722.537 -3.28399 -1.47249 0
M  V30 7729 C 722.145 -4.45066 -0.511888 0
M  V30 7730 C 723.889 -3.65506 -2.15883 0
M  V30 7731 C 721.796 -5.79315 -1.18948 0
M  V30 7732 H 720.726 -0.690752 -0.302287 0
M  V30 7733 H 723.377 -1.83425 -0.0523104 0
M  V30 7734 H 721.759 -3.24692 -2.26697 0
M  V30 7735 H 722.933 -4.60116 0.250962 0
M  V30 7736 H 721.248 -4.16343 0.0686576 0
M  V30 7737 H 723.845 -4.63087 -2.67309 0
M  V30 7738 H 724.188 -2.94041 -2.94696 0
M  V30 7739 H 724.721 -3.71094 -1.43298 0
M  V30 7740 H 721.46 -6.54007 -0.442198 0
M  V30 7741 H 720.98 -5.68111 -1.9238 0
M  V30 7742 H 722.659 -6.23816 -1.71646 0
M  V30 7743 N 722.791 0.367657 -1.53252 0
M  V30 7744 C 724.039 1.10832 -1.68999 0
M  V30 7745 C 724.36 1.89894 -0.443306 0
M  V30 7746 O 723.63 1.88235 0.54262 0
M  V30 7747 H 722.21 0.412153 -0.623008 0
M  V30 7748 H 724.872 0.414775 -1.90435 0
M  V30 7749 H 723.968 1.7993 -2.55013 0
M  V30 7750 N 724.269 1.44576 0.627338 0
M  V30 7751 C 725.499 1.50829 1.41189 0
M  V30 7752 C 725.907 0.133083 1.88731 0
M  V30 7753 O 725.25 -0.87199 1.61685 0
M  V30 7754 C 725.312 2.41449 2.66351 0
M  V30 7755 C 724.976 3.88549 2.40579 0
M  V30 7756 C 725.973 4.78981 2.0217 0
M  V30 7757 C 723.658 4.33287 2.54102 0
M  V30 7758 C 725.652 6.12153 1.77618 0
M  V30 7759 C 723.339 5.66505 2.29163 0
M  V30 7760 C 724.337 6.55756 1.9098 0
M  V30 7761 O 724.025 7.86506 1.66321 0
M  V30 7762 H 723.757 0.513797 0.439304 0
M  V30 7763 H 726.311 1.90256 0.774059 0
M  V30 7764 H 724.541 1.96955 3.32784 0
M  V30 7765 H 726.23 2.38608 3.28361 0
M  V30 7766 H 726.996 4.45689 1.91277 0
M  V30 7767 H 722.875 3.64074 2.82792 0
M  V30 7768 H 726.419 6.81776 1.47739 0
M  V30 7769 H 722.316 5.99358 2.39668 0
M  V30 7770 H 723.084 7.98341 1.80536 0
M  V30 7771 N 725.747 -0.868086 1.31537 0
M  V30 7772 C 727.163 -1.15414 1.10235 0
M  V30 7773 C 727.363 -2.01106 -0.125947 0
M  V30 7774 O 726.419 -2.38994 -0.814734 0
M  V30 7775 C 727.732 -1.84445 2.37488 0
M  V30 7776 C 729.28 -1.97139 2.43116 0
M  V30 7777 C 729.755 -2.69585 3.70254 0
M  V30 7778 N 731.246 -2.77119 3.71159 0
M  V30 7779 C 731.981 -3.33791 4.6623 0
M  V30 7780 N 731.477 -3.9138 5.71659 0
M  V30 7781 N 733.27 -3.31767 4.53747 0
M  V30 7782 H 725.421 -0.297109 2.10312 0
M  V30 7783 H 727.684 -0.194227 0.92789 0
M  V30 7784 H 727.39 -1.2893 3.27215 0
M  V30 7785 H 727.264 -2.84709 2.47428 0
M  V30 7786 H 729.651 -2.51818 1.53856 0
M  V30 7787 H 729.732 -0.95912 2.37138 0
M  V30 7788 H 729.376 -2.15572 4.59881 0
M  V30 7789 H 729.306 -3.71223 3.73499 0
M  V30 7790 H 731.797 -2.3625 2.94948 0
M  V30 7791 H 732.11 -4.3274 6.40278 0
M  V30 7792 H 730.455 -3.8975 5.7543 0
M  V30 7793 H 733.646 -2.86016 3.70557 0
M  V30 7794 H 733.819 -3.75636 5.28017 0
M  V30 7795 N 727.225 -1.14528 -1.08264 0
M  V30 7796 C 728.636 -0.925261 -1.6216 0
M  V30 7797 C 728.987 0.535587 -1.88748 0
M  V30 7798 O 728.112 1.4048 -1.64604 0
M  V30 7799 C 728.707 -1.67316 -2.94603 0
M  V30 7800 C 727.266 -1.49868 -3.45278 0
M  V30 7801 C 726.413 -1.69471 -2.19487 0
M  V30 7802 H 729.364 -1.29687 -0.914707 0
M  V30 7803 H 729.385 -1.13721 -3.63109 0
M  V30 7804 H 728.897 -2.73635 -2.75219 0
M  V30 7805 H 726.998 -0.459032 -3.69762 0
M  V30 7806 H 727.111 -2.2696 -4.21931 0
M  V30 7807 H 725.475 -1.12048 -2.2873 0
M  V30 7808 H 726.258 -2.77136 -2.0261 0
M  V30 7809 N 728.703 1.26451 -0.940633 0
M  V30 7810 C 729.949 1.94401 -0.598303 0
M  V30 7811 C 730.304 1.72449 0.853178 0
M  V30 7812 O 729.597 1.0506 1.60228 0
M  V30 7813 C 729.791 3.46503 -0.875794 0
M  V30 7814 C 729.62 3.83247 -2.3527 0
M  V30 7815 C 728.39 4.06032 -3.00776 0
M  V30 7816 C 730.588 3.91841 -3.33114 0
M  V30 7817 N 728.57 4.29656 -4.38485 0
M  V30 7818 C 729.941 4.19991 -4.56078 0
M  V30 7819 C 731.996 3.74466 -3.28146 0
M  V30 7820 C 730.699 4.32574 -5.74693 0
M  V30 7821 C 732.725 3.88281 -4.46085 0
M  V30 7822 C 732.087 4.16829 -5.67831 0
M  V30 7823 H 728.186 0.734168 -0.269297 0
M  V30 7824 H 730.77 1.52541 -1.20992 0
M  V30 7825 H 728.941 3.87292 -0.293223 0
M  V30 7826 H 730.673 4.01664 -0.494788 0
M  V30 7827 H 727.428 4.01369 -2.51396 0
M  V30 7828 H 727.852 4.45501 -5.09762 0
M  V30 7829 H 732.494 3.51424 -2.35077 0
M  V30 7830 H 730.212 4.54438 -6.68215 0
M  V30 7831 H 733.798 3.76241 -4.43773 0
M  V30 7832 H 732.678 4.27284 -6.5757 0
M  V30 7833 N 730.181 0.707592 1.40822 0
M  V30 7834 C 731.592 0.317011 1.83989 0
M  V30 7835 C 731.943 -1.14697 1.59182 0
M  V30 7836 O 731.068 -1.8818 1.06852 0
M  V30 7837 C 731.663 0.568593 3.33995 0
M  V30 7838 C 730.222 0.231804 3.75686 0
M  V30 7839 C 729.369 0.844933 2.64114 0
M  V30 7840 H 732.32 0.907349 1.30203 0
M  V30 7841 H 732.341 -0.168798 3.80125 0
M  V30 7842 H 731.853 1.63417 3.52018 0
M  V30 7843 H 729.954 -0.82903 3.6326 0
M  V30 7844 H 730.067 0.695219 4.74029 0
M  V30 7845 H 728.431 0.273588 2.53226 0
M  V30 7846 H 729.214 1.91462 2.84951 0
M  V30 7847 N 731.66 -1.50943 0.453197 0
M  V30 7848 C 732.59 -2.31005 -0.34044 0
M  V30 7849 C 733.571 -1.37112 -1.00669 0
M  V30 7850 O 734.756 -1.66033 -1.0073 0
M  V30 7851 C 731.886 -3.16358 -1.433 0
M  V30 7852 C 730.84 -4.18658 -0.889363 0
M  V30 7853 C 730.166 -4.92633 -2.07887 0
M  V30 7854 C 731.466 -5.22227 0.0871142 0
M  V30 7855 H 733.16 -2.97601 0.327723 0
M  V30 7856 H 730.706 -1.43119 0.159054 0
M  V30 7857 H 732.659 -3.71155 -1.99555 0
M  V30 7858 H 731.383 -2.47613 -2.12968 0
M  V30 7859 H 730.042 -3.64936 -0.348915 0
M  V30 7860 H 729.69 -4.20376 -2.76211 0
M  V30 7861 H 729.39 -5.61819 -1.72143 0
M  V30 7862 H 730.914 -5.50258 -2.64666 0
M  V30 7863 H 732.328 -5.72001 -0.385656 0
M  V30 7864 H 730.725 -5.99032 0.357926 0
M  V30 7865 H 731.795 -4.74077 1.01879 0
M  V30 7866 N 733.138 -0.185124 -1.56509 0
M  V30 7867 C 734.384 0.456934 -1.97585 0
M  V30 7868 C 734.717 1.61957 -1.07161 0
M  V30 7869 O 733.992 1.9412 -0.121546 0
M  V30 7870 C 734.275 0.926666 -3.47973 0
M  V30 7871 C 734.128 -0.237097 -4.49175 0
M  V30 7872 C 735.447 1.79561 -4.01803 0
M  V30 7873 H 732.566 0.164619 -0.71838 0
M  V30 7874 H 735.208 -0.274039 -1.88013 0
M  V30 7875 H 733.358 1.54954 -3.56261 0
M  V30 7876 H 735.03 -0.87454 -4.52934 0
M  V30 7877 H 733.273 -0.890446 -4.24563 0
M  V30 7878 H 733.944 0.133924 -5.51838 0
M  V30 7879 H 736.42 1.27039 -3.96232 0
M  V30 7880 H 735.296 2.09327 -5.07418 0
M  V30 7881 H 735.557 2.74629 -3.46455 0
M  V30 7882 N 734.616 1.57351 0.0885366 0
M  V30 7883 C 735.563 2.02523 1.10693 0
M  V30 7884 C 736.533 0.902736 1.39427 0
M  V30 7885 O 737.718 1.16921 1.50779 0
M  V30 7886 C 734.858 2.46013 2.42016 0
M  V30 7887 C 733.971 3.7181 2.19957 0
M  V30 7888 C 733.106 4.04152 3.44724 0
M  V30 7889 C 732.145 5.2304 3.17956 0
M  V30 7890 N 731.282 5.51102 4.35007 0
M  V30 7891 H 736.122 2.89302 0.714742 0
M  V30 7892 H 733.659 1.43084 0.341378 0
M  V30 7893 H 735.617 2.69274 3.18665 0
M  V30 7894 H 734.247 1.62235 2.79069 0
M  V30 7895 H 733.299 3.55987 1.34079 0
M  V30 7896 H 734.611 4.58604 1.96173 0
M  V30 7897 H 733.765 4.28225 4.29777 0
M  V30 7898 H 732.504 3.15893 3.71568 0
M  V30 7899 H 731.509 4.98781 2.31296 0
M  V30 7900 H 732.734 6.12902 2.92451 0
M  V30 7901 H 730.68 4.65802 4.61914 0
M  V30 7902 H 730.597 6.3228 4.14437 0
M  V30 7903 H 731.865 5.79714 5.21106 0
M  V30 7904 N 736.094 -0.359525 1.53444 0
M  V30 7905 C 737.343 -1.09886 1.69139 0
M  V30 7906 C 737.656 -1.90285 0.452863 0
M  V30 7907 O 738.862 -2.67033 0.490459 0
M  V30 7908 C 737.318 -2.0028 2.99025 0
M  V30 7909 C 736.926 -1.25164 4.30161 0
M  V30 7910 C 738.67 -2.74168 3.24086 0
M  V30 7911 C 736.577 -2.14494 5.51132 0
M  V30 7912 H 735.507 -0.413936 0.630217 0
M  V30 7913 H 738.158 -0.359434 1.79945 0
M  V30 7914 H 736.54 -2.77978 2.82036 0
M  V30 7915 H 737.714 -0.524867 4.57801 0
M  V30 7916 H 736.029 -0.631116 4.11589 0
M  V30 7917 H 738.626 -3.41243 4.11652 0
M  V30 7918 H 738.969 -3.39868 2.40407 0
M  V30 7919 H 739.502 -2.0355 3.41778 0
M  V30 7920 H 736.241 -1.53362 6.37307 0
M  V30 7921 H 735.761 -2.85004 5.27762 0
M  V30 7922 H 737.44 -2.73914 5.86157 0
M  V30 7923 N 737.572 -1.44907 -0.619662 0
M  V30 7924 C 738.797 -1.52021 -1.41083 0
M  V30 7925 C 739.222 -0.14976 -1.87503 0
M  V30 7926 O 738.58 0.863303 -1.59426 0
M  V30 7927 C 738.628 -2.49911 -2.59955 0
M  V30 7928 O 737.732 -2.00857 -3.60181 0
M  V30 7929 H 737.073 -0.512912 -0.421684 0
M  V30 7930 H 739.603 -1.90149 -0.755282 0
M  V30 7931 H 739.613 -2.68323 -3.07354 0
M  V30 7932 H 738.288 -3.4945 -2.25516 0
M  V30 7933 H 736.865 -1.92265 -3.19513 0
M  V30 7934 N 739.05 0.861098 -1.31996 0
M  V30 7935 C 740.296 1.61707 -1.23379 0
M  V30 7936 C 740.651 1.91315 0.204026 0
M  V30 7937 O 739.944 1.53997 1.13998 0
M  V30 7938 C 740.138 2.94822 -2.02027 0
M  V30 7939 C 739.967 2.78212 -3.5331 0
M  V30 7940 C 738.737 2.76933 -4.22654 0
M  V30 7941 C 740.935 2.52432 -4.48088 0
M  V30 7942 N 738.917 2.51466 -5.60034 0
M  V30 7943 C 740.288 2.36312 -5.73198 0
M  V30 7944 C 742.343 2.37848 -4.37416 0
M  V30 7945 C 741.046 2.0709 -6.88844 0
M  V30 7946 C 743.072 2.10016 -5.52854 0
M  V30 7947 C 742.434 1.94691 -6.7696 0
M  V30 7948 H 738.533 0.595703 -0.506618 0
M  V30 7949 H 741.117 1.01275 -1.66287 0
M  V30 7950 H 739.288 3.53243 -1.61474 0
M  V30 7951 H 741.02 3.59756 -1.85358 0
M  V30 7952 H 737.775 2.89638 -3.74709 0
M  V30 7953 H 738.199 2.41679 -6.32392 0
M  V30 7954 H 742.841 2.4842 -3.42122 0
M  V30 7955 H 740.559 1.95256 -7.84156 0
M  V30 7956 H 744.145 1.99519 -5.46519 0
M  V30 7957 H 743.025 1.7346 -7.64775 0
M  V30 7958 N 740.528 1.15101 1.07655 0
M  V30 7959 C 741.458 0.867864 2.16773 0
M  V30 7960 C 742.439 -0.180283 1.69142 0
M  V30 7961 O 743.624 -0.0353152 1.94168 0
M  V30 7962 C 740.754 0.35299 3.45501 0
M  V30 7963 C 739.708 1.33746 4.06566 0
M  V30 7964 C 739.034 0.681562 5.30338 0
M  V30 7965 C 740.334 2.7024 4.46954 0
M  V30 7966 H 742.028 1.78034 2.40716 0
M  V30 7967 H 739.574 0.857435 1.15689 0
M  V30 7968 H 741.527 0.142465 4.21159 0
M  V30 7969 H 740.251 -0.594945 3.21135 0
M  V30 7970 H 738.91 1.53429 3.32949 0
M  V30 7971 H 738.558 -0.272422 5.02262 0
M  V30 7972 H 738.258 1.33853 5.72151 0
M  V30 7973 H 739.782 0.48074 6.08705 0
M  V30 7974 H 741.196 2.5442 5.13754 0
M  V30 7975 H 739.593 3.32282 4.99709 0
M  V30 7976 H 740.663 3.26537 3.58471 0
M  V30 7977 N 742.006 -1.2595 0.947325 0
M  V30 7978 C 743.253 -1.93463 0.598178 0
M  V30 7979 C 743.581 -1.74271 -0.863705 0
M  V30 7980 O 742.836 -1.07684 -1.63409 0
M  V30 7981 C 743.135 -3.46034 0.894158 0
M  V30 7982 C 742.801 -3.85373 2.3409 0
M  V30 7983 C 741.463 -3.95823 2.73637 0
M  V30 7984 C 743.815 -4.04986 3.2808 0
M  V30 7985 C 741.143 -4.23288 4.06257 0
M  V30 7986 C 743.495 -4.3394 4.60303 0
M  V30 7987 C 742.159 -4.42606 4.99656 0
M  V30 7988 H 741.429 -0.707933 0.218889 0
M  V30 7989 H 744.076 -1.4964 1.19499 0
M  V30 7990 H 742.381 -3.9121 0.214874 0
M  V30 7991 H 744.078 -3.96445 0.602698 0
M  V30 7992 H 740.668 -3.7779 2.02417 0
M  V30 7993 H 744.852 -3.96333 2.9872 0
M  V30 7994 H 740.108 -4.28211 4.36401 0
M  V30 7995 H 744.282 -4.48061 5.33118 0
M  V30 7996 H 741.909 -4.63641 6.02446 0
M  V30 7997 N 743.484 -0.715051 -1.40445 0
M  V30 7998 C 744.414 -0.0768699 -2.33373 0
M  V30 7999 C 745.395 0.746109 -1.52863 0
M  V30 8000 O 746.58 0.695142 -1.81332 0
M  V30 8001 C 743.71 0.846014 -3.36838 0
M  V30 8002 C 742.664 0.128694 -4.27806 0
M  V30 8003 C 741.99 1.16726 -5.21804 0
M  V30 8004 C 743.29 -1.01679 -5.12307 0
M  V30 8005 H 744.984 -0.853061 -2.8699 0
M  V30 8006 H 742.53 -0.41167 -1.3799 0
M  V30 8007 H 744.483 1.30185 -4.00786 0
M  V30 8008 H 743.207 1.6541 -2.81615 0
M  V30 8009 H 741.866 -0.307314 -3.6531 0
M  V30 8010 H 741.514 1.96838 -4.62887 0
M  V30 8011 H 741.214 0.692188 -5.83509 0
M  V30 8012 H 742.738 1.62321 -5.88629 0
M  V30 8013 H 744.152 -0.640337 -5.69713 0
M  V30 8014 H 742.549 -1.4202 -5.83053 0
M  V30 8015 H 743.619 -1.84769 -4.48317 0
M  V30 8016 N 744.962 1.50701 -0.461195 0
M  V30 8017 C 746.19 2.06681 0.0951756 0
M  V30 8018 C 746.605 1.32615 1.34382 0
M  V30 8019 O 745.962 0.392531 1.78229 0
M  V30 8020 C 746.013 3.59354 0.393316 0
M  V30 8021 O 745.734 4.30626 -0.805797 0
M  V30 8022 C 747.235 4.31926 0.997744 0
M  V30 8023 H 744.455 0.670995 -0.00267259 0
M  V30 8024 H 746.999 1.93991 -0.647137 0
M  V30 8025 H 745.154 3.7188 1.08555 0
M  V30 8026 H 745.568 5.21667 -0.544409 0
M  V30 8027 H 747.042 5.39756 1.15619 0
M  V30 8028 H 747.519 3.91772 1.98523 0
M  V30 8029 H 748.125 4.23905 0.344188 0
M  V30 8030 N 746.441 0.193421 1.56409 0
M  V30 8031 C 747.852 -0.319471 1.83946 0
M  V30 8032 C 748.203 -1.61505 1.11403 0
M  V30 8033 O 747.328 -2.13139 0.374289 0
M  V30 8034 C 747.923 -0.586411 3.33686 0
M  V30 8035 C 746.482 -1.04368 3.61641 0
M  V30 8036 C 745.629 -0.0913834 2.77149 0
M  V30 8037 H 748.58 0.417242 1.53117 0
M  V30 8038 H 748.601 -1.43591 3.52366 0
M  V30 8039 H 748.113 0.356701 3.86457 0
M  V30 8040 H 746.214 -2.00113 3.14302 0
M  V30 8041 H 746.327 -0.937549 4.69837 0
M  V30 8042 H 744.691 -0.592954 2.47702 0
M  V30 8043 H 745.474 0.846142 3.32709 0
M  V30 8044 N 747.919 -1.57396 -0.0801906 0
M  V30 8045 C 749.167 -1.86467 -0.779384 0
M  V30 8046 C 749.488 -0.784243 -1.78535 0
M  V30 8047 O 748.758 0.187986 -1.94996 0
M  V30 8048 H 747.338 -0.68806 -0.29083 0
M  V30 8049 H 750 -1.94813 -0.0582749 0
M  V30 8050 H 749.096 -2.83701 -1.30078 0
M  V30 8051 N 749.397 0.351382 -1.53633 0
M  V30 8052 C 750.327 1.43688 -1.84055 0
M  V30 8053 C 751.308 1.55251 -0.695073 0
M  V30 8054 O 752.493 1.69587 -0.946257 0
M  V30 8055 C 749.623 2.80843 -2.04315 0
M  V30 8056 C 748.577 2.84094 -3.20117 0
M  V30 8057 C 747.903 4.2406 -3.25696 0
M  V30 8058 C 749.203 2.50334 -4.58399 0
M  V30 8059 H 750.897 1.18478 -2.74961 0
M  V30 8060 H 748.443 0.568509 -1.32303 0
M  V30 8061 H 750.396 3.56821 -2.2418 0
M  V30 8062 H 749.12 3.07471 -1.10132 0
M  V30 8063 H 747.779 2.10568 -3.00094 0
M  V30 8064 H 747.427 4.47785 -2.29123 0
M  V30 8065 H 747.127 4.27147 -4.03509 0
M  V30 8066 H 748.651 5.0189 -3.47762 0
M  V30 8067 H 750.065 3.16025 -4.78332 0
M  V30 8068 H 748.462 2.64717 -5.38558 0
M  V30 8069 H 749.532 1.45542 -4.62543 0
M  V30 8070 N 750.875 1.45233 0.611969 0
M  V30 8071 C 752.115 1.50558 1.38245 0
M  V30 8072 C 752.479 0.141959 1.91474 0
M  V30 8073 O 753.68 0.0698926 2.68709 0
M  V30 8074 C 751.951 2.55136 2.50281 0
M  V30 8075 S 753.51 2.79652 3.38142 0
M  V30 8076 H 750.328 0.532281 0.471378 0
M  V30 8077 H 752.93 1.82285 0.706578 0
M  V30 8078 H 751.634 3.52888 2.09518 0
M  V30 8079 H 751.165 2.25045 3.22674 0
M  V30 8080 H 753.18 2.12699 4.48301 0
M  V30 8081 N 752.353 -0.854086 1.3245 0
M  V30 8082 C 753.283 -1.97827 1.24044 0
M  V30 8083 C 754.264 -1.69646 0.124166 0
M  V30 8084 O 755.449 -1.91687 0.31143 0
M  V30 8085 C 752.579 -3.33673 0.963324 0
M  V30 8086 C 751.533 -3.76207 2.04089 0
M  V30 8087 C 750.859 -5.0969 1.61618 0
M  V30 8088 C 752.159 -3.91612 3.45597 0
M  V30 8089 H 753.853 -2.05118 2.18099 0
M  V30 8090 H 751.399 -0.985489 1.04996 0
M  V30 8091 H 753.352 -4.11871 0.891061 0
M  V30 8092 H 752.076 -3.26597 -0.0128649 0
M  V30 8093 H 750.735 -3.0026 2.10332 0
M  V30 8094 H 750.383 -4.99072 0.627418 0
M  V30 8095 H 750.083 -5.3912 2.33717 0
M  V30 8096 H 751.607 -5.90381 1.55829 0
M  V30 8097 H 753.021 -4.60163 3.4194 0
M  V30 8098 H 751.418 -4.3246 4.16051 0
M  V30 8099 H 752.488 -2.9451 3.85217 0
M  V30 8100 N 753.831 -1.1567 -1.07043 0
M  V30 8101 C 754.794 -0.858906 -2.12498 0
M  V30 8102 C 755.794 0.142735 -1.60165 0
M  V30 8103 O 756.984 -0.0872678 -1.73981 0
M  V30 8104 C 754.116 -0.283021 -3.39723 0
M  V30 8105 H 755.309 -1.79368 -2.40348 0
M  V30 8106 H 752.862 -0.964608 -1.22984 0
M  V30 8107 H 753.597 0.659796 -3.17517 0
M  V30 8108 H 753.382 -1.00467 -3.7901 0
M  V30 8109 H 754.872 -0.0923543 -4.17498 0
M  V30 8110 N 755.309 1.25446 -0.953992 0
M  V30 8111 C 756.537 1.97215 -0.625595 0
M  V30 8112 C 756.952 1.70911 0.802168 0
M  V30 8113 O 756.309 0.984782 1.5365 0
M  V30 8114 C 756.36 3.50777 -0.873943 0
M  V30 8115 O 756.081 3.76173 -2.24556 0
M  V30 8116 C 757.582 4.39776 -0.557845 0
M  V30 8117 H 754.802 0.628652 -0.2346 0
M  V30 8118 H 757.346 1.59632 -1.27819 0
M  V30 8119 H 755.501 3.86474 -0.267765 0
M  V30 8120 H 755.915 4.70636 -2.31522 0
M  V30 8121 H 757.389 5.46431 -0.782157 0
M  V30 8122 H 757.866 4.36257 0.507573 0
M  V30 8123 H 758.472 4.09644 -1.14332 0
M  V30 8124 N 756.787 0.722489 1.40064 0
M  V30 8125 C 758.034 0.264979 2.00759 0
M  V30 8126 C 758.362 -1.14395 1.57302 0
M  V30 8127 O 757.617 -1.79165 0.787298 0
M  V30 8128 C 757.916 0.300682 3.56133 0
M  V30 8129 C 757.582 1.66087 4.19197 0
M  V30 8130 C 756.244 2.03319 4.36136 0
M  V30 8131 C 758.596 2.55452 4.54306 0
M  V30 8132 C 755.924 3.29448 4.8547 0
M  V30 8133 C 758.276 3.8094 5.05042 0
M  V30 8134 C 756.94 4.1828 5.2019 0
M  V30 8135 H 756.21 0.0969625 0.734629 0
M  V30 8136 H 758.857 0.926877 1.67575 0
M  V30 8137 H 757.162 -0.44479 3.89267 0
M  V30 8138 H 758.859 -0.0712542 4.00937 0
M  V30 8139 H 755.449 1.36137 4.06405 0
M  V30 8140 H 759.633 2.27961 4.40849 0
M  V30 8141 H 754.889 3.58338 4.95382 0
M  V30 8142 H 759.063 4.50351 5.31184 0
M  V30 8143 H 756.69 5.16081 5.58179 0
M  V30 8144 N 758.265 -1.50454 0.469181 0
M  V30 8145 C 759.195 -2.31353 -0.31592 0
M  V30 8146 C 760.176 -1.38172 -0.992094 0
M  V30 8147 O 761.361 -1.67093 -0.989633 0
M  V30 8148 C 758.491 -3.1786 -1.39937 0
M  V30 8149 C 757.445 -4.19578 -0.844909 0
M  V30 8150 C 756.771 -4.9481 -2.0265 0
M  V30 8151 C 758.071 -5.22106 0.142499 0
M  V30 8152 H 759.765 -2.97237 0.359269 0
M  V30 8153 H 757.311 -1.42942 0.174224 0
M  V30 8154 H 759.264 -3.7325 -1.95607 0
M  V30 8155 H 757.988 -2.49858 -2.1033 0
M  V30 8156 H 756.647 -3.65285 -0.310189 0
M  V30 8157 H 756.295 -4.23282 -2.71737 0
M  V30 8158 H 755.995 -5.63613 -1.66174 0
M  V30 8159 H 757.519 -5.53035 -2.58815 0
M  V30 8160 H 758.933 -5.72378 -0.324966 0
M  V30 8161 H 757.33 -5.98618 0.421441 0
M  V30 8162 H 758.4 -4.7297 1.06901 0
M  V30 8163 N 759.743 -0.201713 -1.56304 0
M  V30 8164 C 760.99 0.435307 -1.97766 0
M  V30 8165 C 761.318 1.61169 -1.0888 0
M  V30 8166 O 760.573 1.95272 -0.12934 0
M  V30 8167 C 760.872 0.931432 -3.45049 0
M  V30 8168 C 760.538 -0.132287 -4.50706 0
M  V30 8169 C 759.2 -0.424552 -4.79323 0
M  V30 8170 C 761.552 -0.852703 -5.14177 0
M  V30 8171 C 758.88 -1.4421 -5.68701 0
M  V30 8172 C 761.232 -1.85944 -6.04655 0
M  V30 8173 C 759.896 -2.15884 -6.31625 0
M  V30 8174 H 759.166 0.15929 -0.723676 0
M  V30 8175 H 761.813 -0.300069 -1.89134 0
M  V30 8176 H 760.118 1.7452 -3.50785 0
M  V30 8177 H 761.815 1.43383 -3.74489 0
M  V30 8178 H 758.405 0.105671 -4.2847 0
M  V30 8179 H 762.589 -0.640139 -4.92154 0
M  V30 8180 H 757.845 -1.6799 -5.87869 0
M  V30 8181 H 762.019 -2.42286 -6.52894 0
M  V30 8182 H 759.646 -2.94875 -7.0068 0
M  V30 8183 N 761.222 1.57436 0.0718424 0
M  V30 8184 C 762.447 1.91858 0.787745 0
M  V30 8185 C 762.872 0.798119 1.70328 0
M  V30 8186 O 762.23 -0.24905 1.79581 0
M  V30 8187 C 762.278 3.25232 1.55744 0
M  V30 8188 O 761.382 3.14462 2.6681 0
M  V30 8189 H 760.723 0.628258 0.214914 0
M  V30 8190 H 763.253 2.04561 0.0401012 0
M  V30 8191 H 763.263 3.59105 1.9367 0
M  V30 8192 H 761.938 4.0636 0.885691 0
M  V30 8193 H 760.515 2.92148 2.31741 0
M  V30 8194 N 762.7 -0.34323 1.53817 0
M  V30 8195 C 763.63 -1.42709 1.84814 0
M  V30 8196 C 764.611 -1.5488 0.703297 0
M  V30 8197 O 765.796 -1.69082 0.955237 0
M  V30 8198 C 762.926 -2.79756 2.05801 0
M  V30 8199 C 761.88 -2.82392 3.21619 0
M  V30 8200 C 761.206 -4.22326 3.2794 0
M  V30 8201 C 762.506 -2.479 4.59721 0
M  V30 8202 H 764.2 -1.17018 2.75585 0
M  V30 8203 H 761.746 -0.561485 1.32602 0
M  V30 8204 H 763.699 -3.55627 2.26069 0
M  V30 8205 H 762.423 -3.06883 1.11761 0
M  V30 8206 H 761.082 -2.08974 3.01207 0
M  V30 8207 H 760.73 -4.46564 2.31494 0
M  V30 8208 H 760.43 -4.25001 4.05768 0
M  V30 8209 H 761.954 -5.00039 3.50419 0
M  V30 8210 H 763.368 -3.13484 4.80001 0
M  V30 8211 H 761.765 -2.61857 5.39954 0
M  V30 8212 H 762.835 -1.43087 4.63308 0
M  V30 8213 N 764.178 -1.45556 -0.604258 0
M  V30 8214 C 765.403 -1.53509 -1.39462 0
M  V30 8215 C 765.828 -0.169638 -1.87333 0
M  V30 8216 O 765.186 0.846346 -1.60333 0
M  V30 8217 C 765.234 -2.52654 -2.5729 0
M  V30 8218 O 764.338 -2.04666 -3.5803 0
M  V30 8219 H 763.679 -0.517355 -0.416221 0
M  V30 8220 H 766.209 -1.90939 -0.735072 0
M  V30 8221 H 766.219 -2.71568 -3.04491 0
M  V30 8222 H 764.894 -3.51823 -2.21797 0
M  V30 8223 H 763.471 -1.95643 -3.17456 0
M  V30 8224 N 765.656 0.84705 -1.32902 0
M  V30 8225 C 766.603 1.95624 -1.22473 0
M  V30 8226 C 767.573 1.65767 -0.105178 0
M  V30 8227 O 768.758 1.88704 -0.282042 0
M  V30 8228 C 765.898 3.31434 -0.961542 0
M  V30 8229 C 765.011 3.73741 -2.1666 0
M  V30 8230 C 764.146 4.98379 -1.83825 0
M  V30 8231 C 763.185 5.33199 -3.00609 0
M  V30 8232 N 762.322 6.49014 -2.67816 0
M  V30 8233 H 767.162 2.03875 -2.17345 0
M  V30 8234 H 764.699 0.997764 -1.08088 0
M  V30 8235 H 766.657 4.09663 -0.789411 0
M  V30 8236 H 765.287 3.22762 -0.0495938 0
M  V30 8237 H 764.339 2.91102 -2.44875 0
M  V30 8238 H 765.651 3.95462 -3.03993 0
M  V30 8239 H 764.805 5.84336 -1.63208 0
M  V30 8240 H 763.544 4.78611 -0.937172 0
M  V30 8241 H 762.549 4.4575 -3.21849 0
M  V30 8242 H 763.774 5.5492 -3.9146 0
M  V30 8243 H 761.72 6.30748 -1.80258 0
M  V30 8244 H 761.637 6.7079 -3.48679 0
M  V30 8245 H 762.905 7.38103 -2.50647 0
M  V30 8246 N 767.134 1.16236 1.06428 0
M  V30 8247 C 768.364 0.965782 1.82637 0
M  V30 8248 C 768.772 -0.489284 1.82764 0
M  V30 8249 O 768.115 -1.35133 1.24438 0
M  V30 8250 C 768.177 1.41458 3.30499 0
M  V30 8251 C 767.841 2.88926 3.54077 0
M  V30 8252 C 768.838 3.86939 3.47238 0
M  V30 8253 C 766.523 3.26814 3.81442 0
M  V30 8254 C 768.517 5.20841 3.67428 0
M  V30 8255 C 766.204 4.60886 4.01282 0
M  V30 8256 C 767.202 5.57708 3.94272 0
M  V30 8257 O 766.89 6.89357 4.13573 0
M  V30 8258 H 766.622 0.342569 0.582772 0
M  V30 8259 H 769.176 1.54641 1.35187 0
M  V30 8260 H 767.406 0.777426 3.78805 0
M  V30 8261 H 769.095 1.18563 3.88198 0
M  V30 8262 H 769.861 3.59014 3.26089 0
M  V30 8263 H 765.74 2.5203 3.86008 0
M  V30 8264 H 769.284 5.96401 3.61873 0
M  V30 8265 H 765.181 4.88522 4.21921 0
M  V30 8266 H 765.949 6.95913 4.30869 0
M  V30 8267 N 768.612 -1.24939 0.960631 0
M  V30 8268 C 769.84 -1.96881 0.636045 0
M  V30 8269 C 770.255 -1.71334 -0.793093 0
M  V30 8270 O 769.612 -0.992917 -1.53125 0
M  V30 8271 C 769.663 -3.50309 0.892533 0
M  V30 8272 O 769.384 -3.74977 2.26548 0
M  V30 8273 C 770.885 -4.39474 0.581159 0
M  V30 8274 H 768.105 -0.627399 0.237931 0
M  V30 8275 H 770.649 -1.58952 1.28664 0
M  V30 8276 H 768.804 -3.86326 0.288257 0
M  V30 8277 H 769.218 -4.69401 2.34014 0
M  V30 8278 H 770.692 -5.46008 0.811125 0
M  V30 8279 H 771.169 -4.3652 -0.48443 0
M  V30 8280 H 771.775 -4.09032 1.16502 0
M  V30 8281 N 770.09 -0.729906 -1.39679 0
M  V30 8282 C 771.501 -0.346241 -1.83461 0
M  V30 8283 C 771.852 1.1215 -1.60987 0
M  V30 8284 O 770.977 1.86456 -1.09832 0
M  V30 8285 C 771.572 -0.621656 -3.33048 0
M  V30 8286 C 770.131 -0.291543 -3.75269 0
M  V30 8287 C 769.278 -0.886844 -2.62736 0
M  V30 8288 H 772.229 -0.927949 -1.28743 0
M  V30 8289 H 772.25 0.108301 -3.80346 0
M  V30 8290 H 771.762 -1.68996 -3.49373 0
M  V30 8291 H 769.863 0.771133 -3.64533 0
M  V30 8292 H 769.976 -0.770544 -4.72863 0
M  V30 8293 H 768.34 -0.313839 -2.52759 0
M  V30 8294 H 769.123 -1.95971 -2.81869 0
M  V30 8295 N 771.568 1.50203 -0.477153 0
M  V30 8296 C 772.498 2.31517 0.303646 0
M  V30 8297 C 773.479 1.38696 0.984753 0
M  V30 8298 O 774.664 1.67615 0.980758 0
M  V30 8299 C 771.794 3.18598 1.38249 0
M  V30 8300 C 770.748 4.2002 0.822645 0
M  V30 8301 C 770.074 4.95878 2.00024 0
M  V30 8302 C 771.374 5.22023 -0.170185 0
M  V30 8303 H 773.068 2.97042 -0.375027 0
M  V30 8304 H 770.614 1.42848 -0.181802 0
M  V30 8305 H 772.567 3.74282 1.93625 0
M  V30 8306 H 771.291 2.5097 2.09002 0
M  V30 8307 H 769.95 3.65445 0.290813 0
M  V30 8308 H 769.598 4.24717 2.69489 0
M  V30 8309 H 769.298 5.64487 1.63183 0
M  V30 8310 H 770.822 5.54399 2.55878 0
M  V30 8311 H 772.236 5.72543 0.294606 0
M  V30 8312 H 770.633 5.98386 -0.453181 0
M  V30 8313 H 771.703 4.72396 -1.09408 0
M  V30 8314 N 773.046 0.209999 1.56195 0
M  V30 8315 C 773.993 -0.704854 2.19774 0
M  V30 8316 C 774.963 -1.19886 1.14964 0
M  V30 8317 O 776.148 -1.26005 1.43274 0
M  V30 8318 C 773.288 -1.91241 2.87265 0
M  V30 8319 C 772.401 -1.45838 4.06639 0
M  V30 8320 C 771.536 -2.6226 4.61945 0
M  V30 8321 C 770.575 -2.13537 5.73645 0
M  V30 8322 N 769.712 -3.2319 6.23292 0
M  V30 8323 H 774.552 -0.155944 2.97592 0
M  V30 8324 H 772.089 -0.0652235 1.46955 0
M  V30 8325 H 774.047 -2.62123 3.24573 0
M  V30 8326 H 772.677 -2.43439 2.11985 0
M  V30 8327 H 771.729 -0.644897 3.74894 0
M  V30 8328 H 773.041 -1.06103 4.87384 0
M  V30 8329 H 772.195 -3.41243 5.01636 0
M  V30 8330 H 770.934 -3.05278 3.80338 0
M  V30 8331 H 769.939 -1.33013 5.33468 0
M  V30 8332 H 771.164 -1.71533 6.57079 0
M  V30 8333 H 769.11 -3.65711 5.44602 0
M  V30 8334 H 769.027 -2.8767 6.99129 0
M  V30 8335 H 770.295 -4.02342 6.67639 0
M  V30 8336 N 774.524 -1.57472 -0.0634922 0
M  V30 8337 C 775.754 -1.91608 -0.772645 0
M  V30 8338 C 776.162 -0.805019 -1.71219 0
M  V30 8339 O 775.505 0.229941 -1.82255 0
M  V30 8340 C 775.567 -3.21281 -1.61304 0
M  V30 8341 C 775.231 -4.49177 -0.841973 0
M  V30 8342 C 776.228 -5.19661 -0.157494 0
M  V30 8343 C 773.913 -4.9578 -0.80669 0
M  V30 8344 C 775.907 -6.35006 0.551948 0
M  V30 8345 C 773.594 -6.11028 -0.0934812 0
M  V30 8346 C 774.592 -6.80493 0.58463 0
M  V30 8347 O 774.28 -7.93542 1.28633 0
M  V30 8348 H 774.012 -0.637685 -0.224352 0
M  V30 8349 H 776.566 -2.05369 -0.0355279 0
M  V30 8350 H 774.796 -3.03752 -2.39315 0
M  V30 8351 H 776.485 -3.41003 -2.20162 0
M  V30 8352 H 777.251 -4.84681 -0.176006 0
M  V30 8353 H 773.13 -4.41579 -1.32397 0
M  V30 8354 H 776.674 -6.89161 1.0818 0
M  V30 8355 H 772.571 -6.45459 -0.0729258 0
M  V30 8356 H 773.339 -8.09708 1.19646 0
M  V30 8357 N 776.003 0.335068 -1.53997 0
M  V30 8358 C 776.951 1.43206 -1.83289 0
M  V30 8359 C 777.945 1.54081 -0.703953 0
M  V30 8360 O 779.151 1.56603 -0.887432 0
M  V30 8361 H 775.526 0.477655 -0.580818 0
M  V30 8362 H 777.497 1.15719 -2.75049 0
M  V30 8363 C 776.246 2.79602 -2.06683 0
M  V30 8364 H 775.569 2.72004 -2.93008 0
M  V30 8365 H 777.009 3.55459 -2.31139 0
M  V30 8366 C 775.468 3.25873 -0.854883 0
M  V30 8367 O 775.998 4.01657 -0.0584648 0
M  V30 8368 N 774.204 2.82777 -0.669729 0
M  V30 8369 H 773.751 2.21269 -1.31901 0
M  V30 8370 H 773.709 3.1409 0.13969 0
M  V30 8371 N 777.481 1.45874 0.596531 0
M  V30 8372 C 778.429 1.55739 1.72766 0
M  V30 8373 C 779.423 0.426666 1.63939 0
M  V30 8374 O 780.629 0.60301 1.69599 0
M  V30 8375 H 777.004 0.489386 0.570968 0
M  V30 8376 H 778.975 2.50871 1.61575 0
M  V30 8377 C 777.724 1.55174 3.11153 0
M  V30 8378 H 777.047 2.41511 3.1861 0
M  V30 8379 H 778.487 1.66133 3.90097 0
M  V30 8380 C 776.946 0.278001 3.35751 0
M  V30 8381 O 777.476 -0.637557 3.96608 0
M  V30 8382 N 775.682 0.170227 2.90101 0
M  V30 8383 H 775.229 0.916159 2.40758 0
M  V30 8384 H 775.187 -0.68117 3.06932 0
M  V30 8385 N 778.959 -0.83999 1.33349 0
M  V30 8386 C 780.205 -1.59753 1.24927 0
M  V30 8387 C 780.538 -1.93318 -0.184855 0
M  V30 8388 O 779.813 -1.586 -1.12589 0
M  V30 8389 C 780.096 -2.90829 2.12345 0
M  V30 8390 C 779.949 -2.63953 3.6421 0
M  V30 8391 C 781.268 -3.92246 1.99577 0
M  V30 8392 H 778.387 -0.579654 0.45516 0
M  V30 8393 H 781.029 -0.968909 1.63439 0
M  V30 8394 H 779.179 -3.44478 1.79631 0
M  V30 8395 H 780.851 -2.16745 4.07209 0
M  V30 8396 H 779.094 -1.97671 3.86146 0
M  V30 8397 H 779.765 -3.57348 4.20721 0
M  V30 8398 H 782.241 -3.479 2.28265 0
M  V30 8399 H 781.117 -4.81793 2.62996 0
M  V30 8400 H 781.378 -4.3138 0.967673 0
M  V30 8401 N 780.437 -1.16799 -1.0581 0
M  V30 8402 C 781.667 -0.975454 -1.82122 0
M  V30 8403 C 782.075 0.479584 -1.83021 0
M  V30 8404 O 781.418 1.34471 -1.25153 0
M  V30 8405 C 781.48 -1.43209 -3.29744 0
M  V30 8406 C 781.144 -2.908 -3.5254 0
M  V30 8407 C 782.141 -3.88775 -3.45181 0
M  V30 8408 C 779.826 -3.28832 -3.79703 0
M  V30 8409 C 781.82 -5.22782 -3.64661 0
M  V30 8410 C 779.507 -4.63007 -3.98832 0
M  V30 8411 C 780.505 -5.59791 -3.91309 0
M  V30 8412 O 780.193 -6.9154 -4.09911 0
M  V30 8413 H 779.925 -0.345655 -0.580947 0
M  V30 8414 H 782.479 -1.55355 -1.34365 0
M  V30 8415 H 780.709 -0.797504 -3.78387 0
M  V30 8416 H 782.398 -1.2062 -3.87564 0
M  V30 8417 H 783.164 -3.60738 -3.2418 0
M  V30 8418 H 779.043 -2.54073 -3.84666 0
M  V30 8419 H 782.587 -5.98312 -3.58705 0
M  V30 8420 H 778.484 -4.90752 -4.19324 0
M  V30 8421 H 779.252 -6.98188 -4.27172 0
M  V30 8422 N 781.915 1.24427 -0.967243 0
M  V30 8423 C 783.161 1.92772 -0.629812 0
M  V30 8424 C 783.494 1.75436 0.832827 0
M  V30 8425 O 782.769 1.10716 1.59913 0
M  V30 8426 C 783.052 3.45798 -1.00477 0
M  V30 8427 C 782.905 3.72304 -2.52407 0
M  V30 8428 C 784.224 4.36787 -0.538999 0
M  V30 8429 H 781.343 0.700099 -0.230282 0
M  V30 8430 H 783.985 1.46805 -1.20616 0
M  V30 8431 H 782.135 3.8508 -0.514336 0
M  V30 8432 H 783.807 3.42584 -3.08924 0
M  V30 8433 H 782.05 3.17472 -2.95625 0
M  V30 8434 H 782.721 4.7937 -2.73693 0
M  V30 8435 H 785.197 4.04877 -0.959874 0
M  V30 8436 H 784.073 5.4259 -0.829926 0
M  V30 8437 H 784.334 4.38527 0.560923 0
M  V30 8438 N 783.393 0.737304 1.3929 0
M  V30 8439 C 784.623 0.296143 2.04467 0
M  V30 8440 C 785.031 -1.0748 1.55707 0
M  V30 8441 O 784.374 -1.69082 0.718123 0
M  V30 8442 C 784.436 0.222161 3.58813 0
M  V30 8443 C 784.1 1.53195 4.30558 0
M  V30 8444 C 785.097 2.47809 4.57041 0
M  V30 8445 C 782.782 1.79688 4.6906 0
M  V30 8446 C 784.776 3.67147 5.21039 0
M  V30 8447 C 782.463 2.99304 5.32785 0
M  V30 8448 C 783.461 3.92855 5.58708 0
M  V30 8449 O 783.149 5.1037 6.2111 0
M  V30 8450 H 782.881 0.126896 0.663983 0
M  V30 8451 H 785.435 1.00242 1.79278 0
M  V30 8452 H 783.665 -0.540239 3.82908 0
M  V30 8453 H 785.354 -0.187311 4.05468 0
M  V30 8454 H 786.12 2.28611 4.2774 0
M  V30 8455 H 781.999 1.07716 4.48239 0
M  V30 8456 H 785.543 4.40183 5.41188 0
M  V30 8457 H 781.44 3.18401 5.61508 0
M  V30 8458 H 782.208 5.10735 6.39603 0
M  V30 8459 N 784.871 -1.49948 0.485112 0
M  V30 8460 C 786.282 -1.8667 0.0334041 0
M  V30 8461 C 786.633 -1.3988 -1.37579 0
M  V30 8462 O 785.758 -0.769788 -2.02245 0
M  V30 8463 C 786.353 -3.38757 0.0538426 0
M  V30 8464 C 784.912 -3.74839 -0.342453 0
M  V30 8465 C 784.059 -2.73894 0.433281 0
M  V30 8466 H 787.01 -1.42492 0.698699 0
M  V30 8467 H 787.031 -3.73132 -0.745146 0
M  V30 8468 H 786.543 -3.72782 1.07959 0
M  V30 8469 H 784.644 -3.46419 -1.37203 0
M  V30 8470 H 784.757 -4.79088 -0.0340503 0
M  V30 8471 H 783.121 -2.54441 -0.114849 0
M  V30 8472 H 783.904 -3.10763 1.45881 0
M  V30 8473 N 786.349 -0.21828 -1.56081 0
M  V30 8474 C 787.76 0.290166 -1.84431 0
M  V30 8475 C 788.111 1.59712 -1.13958 0
M  V30 8476 O 787.236 2.12516 -0.40815 0
M  V30 8477 C 787.831 0.53325 -3.34577 0
M  V30 8478 C 786.39 0.986011 -3.63256 0
M  V30 8479 C 785.537 0.0472798 -2.7726 0
M  V30 8480 H 788.488 -0.441548 -1.52434 0
M  V30 8481 H 788.509 1.37967 -3.54606 0
M  V30 8482 H 788.021 -0.418137 -3.85841 0
M  V30 8483 H 786.122 1.95087 -3.17446 0
M  V30 8484 H 786.235 0.862684 -4.71269 0
M  V30 8485 H 784.599 0.553471 -2.48614 0
M  V30 8486 H 785.382 -0.898966 -3.31321 0
M  V30 8487 N 787.827 1.57504 0.0551401 0
M  V30 8488 C 789.073 1.89191 0.74688 0
M  V30 8489 C 789.428 0.813936 1.74335 0
M  V30 8490 O 788.721 -0.180217 1.90751 0
M  V30 8491 C 788.915 3.25311 1.48013 0
M  V30 8492 C 788.744 4.46247 0.556176 0
M  V30 8493 C 787.514 5.04954 0.186891 0
M  V30 8494 C 789.712 5.14068 -0.154295 0
M  V30 8495 N 787.694 6.09411 -0.741041 0
M  V30 8496 C 789.065 6.12851 -0.938809 0
M  V30 8497 C 791.12 4.97396 -0.224007 0
M  V30 8498 C 789.823 6.96759 -1.78658 0
M  V30 8499 C 791.849 5.81845 -1.05881 0
M  V30 8500 C 791.211 6.80178 -1.83133 0
M  V30 8501 H 787.31 0.741562 0.248213 0
M  V30 8502 H 789.894 1.94698 0.00777734 0
M  V30 8503 H 788.065 3.20781 2.18985 0
M  V30 8504 H 789.797 3.44594 2.12219 0
M  V30 8505 H 786.552 4.70472 0.543415 0
M  V30 8506 H 786.976 6.66303 -1.19874 0
M  V30 8507 H 791.618 4.21274 0.358924 0
M  V30 8508 H 789.336 7.72245 -2.38042 0
M  V30 8509 H 792.922 5.70997 -1.11595 0
M  V30 8510 H 791.802 7.44389 -2.46687 0
M  V30 8511 N 789.305 -0.326896 1.54172 0
M  V30 8512 C 790.553 -1.06313 1.71878 0
M  V30 8513 C 790.874 -1.88652 0.493498 0
M  V30 8514 O 790.144 -1.89608 -0.492522 0
M  V30 8515 H 788.724 -0.39549 0.633716 0
M  V30 8516 H 791.386 -0.364139 1.91468 0
M  V30 8517 H 790.482 -1.73105 2.59694 0
M  V30 8518 N 790.784 -1.46188 -0.588786 0
M  V30 8519 C 792.014 -1.54519 -1.3714 0
M  V30 8520 C 792.422 -0.183075 -1.88312 0
M  V30 8521 O 791.765 0.828815 -1.6394 0
M  V30 8522 C 791.827 -2.48426 -2.59856 0
M  V30 8523 C 791.491 -3.94791 -2.30193 0
M  V30 8524 C 792.488 -4.84173 -1.894 0
M  V30 8525 C 790.173 -4.39872 -2.42525 0
M  V30 8526 C 792.167 -6.16647 -1.61325 0
M  V30 8527 C 789.854 -5.72381 -2.14063 0
M  V30 8528 C 790.852 -6.60589 -1.73527 0
M  V30 8529 O 790.54 -7.9064 -1.4541 0
M  V30 8530 H 790.272 -0.525264 -0.425527 0
M  V30 8531 H 792.826 -1.92242 -0.723344 0
M  V30 8532 H 791.056 -2.05709 -3.27446 0
M  V30 8533 H 792.745 -2.4723 -3.21919 0
M  V30 8534 H 793.511 -4.50603 -1.79393 0
M  V30 8535 H 789.39 -3.71444 -2.7304 0
M  V30 8536 H 792.934 -6.85454 -1.29611 0
M  V30 8537 H 788.831 -6.05501 -2.23693 0
M  V30 8538 H 789.599 -8.02847 -1.59306 0
M  V30 8539 N 792.262 0.832906 -1.33792 0
M  V30 8540 C 793.487 1.62568 -1.28788 0
M  V30 8541 C 793.912 1.87599 0.137246 0
M  V30 8542 O 793.27 1.44436 1.0958 0
M  V30 8543 C 793.318 2.9495 -2.07453 0
M  V30 8544 O 792.422 3.86546 -1.43722 0
M  V30 8545 H 791.763 0.494809 -0.442787 0
M  V30 8546 H 794.293 1.03578 -1.76445 0
M  V30 8547 H 794.303 3.44599 -2.1844 0
M  V30 8548 H 792.978 2.76055 -3.11073 0
M  V30 8549 H 791.555 3.45044 -1.41417 0
M  V30 8550 N 793.74 1.17359 1.05189 0
M  V30 8551 C 794.989 0.956412 1.77583 0
M  V30 8552 C 795.302 -0.516018 1.88671 0
M  V30 8553 O 796.508 -0.851401 2.57805 0
M  V30 8554 C 794.964 1.66203 3.19225 0
M  V30 8555 C 794.572 3.17299 3.16267 0
M  V30 8556 C 796.316 1.52725 3.96075 0
M  V30 8557 C 794.223 3.8055 4.52698 0
M  V30 8558 H 793.153 0.354204 0.665624 0
M  V30 8559 H 795.804 1.40612 1.17901 0
M  V30 8560 H 794.186 1.14006 3.79234 0
M  V30 8561 H 795.36 3.76431 2.65776 0
M  V30 8562 H 793.675 3.3079 2.52917 0
M  V30 8563 H 796.272 1.97351 4.96947 0
M  V30 8564 H 796.615 0.477803 4.13549 0
M  V30 8565 H 797.148 2.02139 3.42614 0
M  V30 8566 H 793.887 4.85492 4.4043 0
M  V30 8567 H 793.407 3.26206 5.03339 0
M  V30 8568 H 795.086 3.82757 5.21638 0
M  V30 8569 N 795.218 -1.23913 0.973828 0
M  V30 8570 C 796.466 -1.91771 0.637817 0
M  V30 8571 C 796.787 -1.76434 -0.830435 0
M  V30 8572 O 796.057 -1.13965 -1.59339 0
M  V30 8573 H 794.637 -0.709761 0.232912 0
M  V30 8574 H 797.299 -1.50677 1.23622 0
M  V30 8575 H 796.395 -2.99327 0.883731 0
M  V30 8576 N 796.696 -0.74468 -1.38897 0
M  V30 8577 C 797.942 -0.306249 -2.01081 0
M  V30 8578 C 798.297 1.09724 -1.58046 0
M  V30 8579 O 797.59 1.73923 -0.803834 0
M  V30 8580 C 797.784 -0.357302 -3.55609 0
M  V30 8581 C 797.613 -1.76421 -4.13649 0
M  V30 8582 C 796.383 -2.3787 -4.4581 0
M  V30 8583 C 798.581 -2.71942 -4.36523 0
M  V30 8584 N 796.563 -3.70614 -4.89406 0
M  V30 8585 C 797.934 -3.89437 -4.8243 0
M  V30 8586 C 799.989 -2.69579 -4.18607 0
M  V30 8587 C 798.692 -5.04917 -5.123 0
M  V30 8588 C 800.718 -3.8421 -4.49596 0
M  V30 8589 C 800.08 -5.00442 -4.95719 0
M  V30 8590 H 796.179 -0.158531 -0.765762 0
M  V30 8591 H 798.763 -0.972726 -1.6866 0
M  V30 8592 H 796.934 0.278865 -3.87398 0
M  V30 8593 H 798.666 0.100599 -4.04575 0
M  V30 8594 H 795.421 -1.8971 -4.33943 0
M  V30 8595 H 795.845 -4.38791 -5.1555 0
M  V30 8596 H 800.487 -1.80905 -3.82143 0
M  V30 8597 H 798.205 -5.94213 -5.47665 0
M  V30 8598 H 801.791 -3.83691 -4.37347 0
M  V30 8599 H 800.671 -5.87671 -5.19242 0
M  V30 8600 N 798.174 1.49689 -0.493057 0
M  V30 8601 C 799.421 2.02427 0.0542714 0
M  V30 8602 C 799.749 1.37339 1.37725 0
M  V30 8603 O 799.004 0.495523 1.89323 0
M  V30 8604 C 799.303 3.56427 0.263536 0
M  V30 8605 C 798.969 4.40111 -0.98046 0
M  V30 8606 C 797.631 4.62699 -1.32148 0
M  V30 8607 C 799.983 4.88847 -1.80771 0
M  V30 8608 C 797.311 5.31268 -2.48941 0
M  V30 8609 C 799.663 5.587 -2.96711 0
M  V30 8610 C 798.327 5.79536 -3.31202 0
M  V30 8611 H 797.597 0.740734 0.0198593 0
M  V30 8612 H 800.244 1.80073 -0.651603 0
M  V30 8613 H 798.549 3.77416 1.05186 0
M  V30 8614 H 800.246 3.94819 0.701348 0
M  V30 8615 H 796.836 4.22765 -0.704814 0
M  V30 8616 H 801.02 4.71231 -1.55741 0
M  V30 8617 H 796.276 5.45603 -2.75911 0
M  V30 8618 H 800.45 5.9544 -3.61143 0
M  V30 8619 H 798.077 6.32443 -4.21805 0
M  V30 8620 N 799.652 0.226554 1.55963 0
M  V30 8621 C 800.582 -0.676079 2.23498 0
M  V30 8622 C 801.563 -1.19718 1.20837 0
M  V30 8623 O 802.748 -1.24027 1.49436 0
M  V30 8624 C 799.878 -1.88217 2.91876 0
M  V30 8625 C 798.832 -1.4947 4.01052 0
M  V30 8626 C 798.158 -2.77997 4.56751 0
M  V30 8627 C 799.458 -0.680951 5.17842 0
M  V30 8628 H 801.152 -0.112989 2.99187 0
M  V30 8629 H 798.698 -0.0529046 1.43903 0
M  V30 8630 H 800.651 -2.51911 3.37815 0
M  V30 8631 H 799.375 -2.47031 2.13643 0
M  V30 8632 H 798.034 -0.881199 3.55852 0
M  V30 8633 H 797.682 -3.34966 3.75243 0
M  V30 8634 H 797.382 -2.52803 5.30438 0
M  V30 8635 H 798.906 -3.42625 5.05411 0
M  V30 8636 H 800.32 -1.22171 5.60131 0
M  V30 8637 H 798.717 -0.525898 5.97791 0
M  V30 8638 H 799.787 0.311346 4.83899 0
M  V30 8639 N 801.13 -1.57531 -0.0467866 0
M  V30 8640 C 802.093 -2.04379 -1.03738 0
M  V30 8641 C 803.093 -0.944881 -1.3011 0
M  V30 8642 O 804.283 -1.20904 -1.25411 0
M  V30 8643 C 801.415 -2.44572 -2.37482 0
M  V30 8644 H 802.608 -2.93142 -0.633063 0
M  V30 8645 H 800.161 -1.53526 -0.293177 0
M  V30 8646 H 800.896 -1.58911 -2.82697 0
M  V30 8647 H 800.681 -3.24785 -2.19675 0
M  V30 8648 H 802.171 -2.81307 -3.08636 0
M  V30 8649 N 802.608 0.318715 -1.54344 0
M  V30 8650 C 803.538 1.39751 -1.87061 0
M  V30 8651 C 804.519 1.53741 -0.727848 0
M  V30 8652 O 805.704 1.67541 -0.982016 0
M  V30 8653 C 802.834 2.76446 -2.10226 0
M  V30 8654 C 801.788 2.77239 -3.26071 0
M  V30 8655 C 801.114 4.17056 -3.34617 0
M  V30 8656 C 802.414 2.40555 -4.63606 0
M  V30 8657 H 804.108 1.12619 -2.77412 0
M  V30 8658 H 801.654 0.540318 -1.33479 0
M  V30 8659 H 803.607 3.51985 -2.31699 0
M  V30 8660 H 802.331 3.05066 -1.16629 0
M  V30 8661 H 800.99 2.04155 -3.04493 0
M  V30 8662 H 800.638 4.42824 -2.3857 0
M  V30 8663 H 800.338 4.18492 -4.12478 0
M  V30 8664 H 801.862 4.94401 -3.5833 0
M  V30 8665 H 803.276 3.05808 -4.84927 0
M  V30 8666 H 801.673 2.53234 -5.44052 0
M  V30 8667 H 802.743 1.35698 -4.65526 0
M  V30 8668 N 804.086 1.46499 0.581025 0
M  V30 8669 C 805.311 1.55708 1.37002 0
M  V30 8670 C 805.736 0.19942 1.8704 0
M  V30 8671 O 805.094 -0.820731 1.61659 0
M  V30 8672 C 805.142 2.56716 2.53238 0
M  V30 8673 O 804.246 2.10336 3.54729 0
M  V30 8674 H 803.587 0.523912 0.407937 0
M  V30 8675 H 806.117 1.92085 0.704602 0
M  V30 8676 H 806.127 2.76378 3.00132 0
M  V30 8677 H 804.802 3.55307 2.16171 0
M  V30 8678 H 803.379 2.00669 3.14303 0
M  V30 8679 N 805.565 -0.825799 1.34232 0
M  V30 8680 C 806.79 -1.61883 1.29648 0
M  V30 8681 C 807.215 -1.87669 -0.127295 0
M  V30 8682 O 806.573 -1.45016 -1.08813 0
M  V30 8683 C 806.621 -2.93846 2.09014 0
M  V30 8684 O 805.725 -3.85778 1.4577 0
M  V30 8685 H 805.066 -0.492454 0.445405 0
M  V30 8686 H 807.596 -1.02641 1.76992 0
M  V30 8687 H 807.606 -3.43435 2.20264 0
M  V30 8688 H 806.281 -2.74401 3.12533 0
M  V30 8689 H 804.858 -3.4429 1.43245 0
M  V30 8690 N 807.043 -1.17915 -1.04565 0
M  V30 8691 C 807.976 -0.845021 -2.11978 0
M  V30 8692 C 808.954 0.19089 -1.61476 0
M  V30 8693 O 810.138 0.0709905 -1.88366 0
M  V30 8694 C 807.265 -0.261657 -3.37688 0
M  V30 8695 C 806.311 -1.27396 -4.07029 0
M  V30 8696 S 807.144 -2.82783 -4.54746 0
M  V30 8697 C 808.3 -2.25944 -5.83695 0
M  V30 8698 H 808.533 -1.75472 -2.39993 0
M  V30 8699 H 806.066 -1.00447 -1.17259 0
M  V30 8700 H 808.024 0.0684257 -4.10443 0
M  V30 8701 H 806.685 0.626082 -3.07797 0
M  V30 8702 H 805.878 -0.814557 -4.97374 0
M  V30 8703 H 805.48 -1.55002 -3.40368 0
M  V30 8704 H 807.772 -1.63892 -6.57378 0
M  V30 8705 H 808.715 -3.14569 -6.34391 0
M  V30 8706 H 809.123 -1.69155 -5.3856 0
M  V30 8707 N 808.521 1.23394 -0.980386 0
M  V30 8708 C 809.767 1.92094 -0.650223 0
M  V30 8709 C 810.1 1.76309 0.814173 0
M  V30 8710 O 809.375 1.12406 1.5873 0
M  V30 8711 C 809.658 3.44713 -1.04139 0
M  V30 8712 C 809.511 3.69606 -2.56342 0
M  V30 8713 C 810.83 4.36191 -0.585296 0
M  V30 8714 H 807.949 0.697618 -0.237695 0
M  V30 8715 H 810.591 1.45517 -1.22167 0
M  V30 8716 H 808.741 3.84513 -0.55515 0
M  V30 8717 H 810.413 3.39288 -3.1254 0
M  V30 8718 H 808.656 3.14318 -2.98976 0
M  V30 8719 H 809.327 4.76441 -2.78762 0
M  V30 8720 H 811.803 4.03836 -1.00276 0
M  V30 8721 H 810.679 5.41679 -0.887428 0
M  V30 8722 H 810.94 4.39097 0.51438 0
M  V30 8723 N 809.999 0.752036 1.385 0
M  V30 8724 C 811.239 0.312408 2.01998 0
M  V30 8725 C 811.603 -1.085 1.58404 0
M  V30 8726 O 812.804 -1.62365 2.14222 0
M  V30 8727 C 811.075 0.429423 3.54811 0
M  V30 8728 S 812.634 0.0721487 4.38741 0
M  V30 8729 H 809.452 0.1213 0.700576 0
M  V30 8730 H 812.054 0.982312 1.69029 0
M  V30 8731 H 810.758 1.44743 3.84028 0
M  V30 8732 H 810.289 -0.257716 3.92555 0
M  V30 8733 H 812.304 -1.13875 4.82957 0
M  V30 8734 N 811.477 -1.49425 0.500989 0
M  V30 8735 C 812.723 -2.02753 -0.0436 0
M  V30 8736 C 813.056 -1.37991 -1.36646 0
M  V30 8737 O 812.331 -0.515597 -1.87542 0
M  V30 8738 C 812.614 -3.59565 -0.19616 0
M  V30 8739 C 812.467 -4.34855 1.14982 0
M  V30 8740 C 813.786 -4.30014 -0.936795 0
M  V30 8741 H 810.905 -0.73686 -0.0143711 0
M  V30 8742 H 813.547 -1.78448 0.652397 0
M  V30 8743 H 811.697 -3.80405 -0.788959 0
M  V30 8744 H 813.369 -4.25512 1.7815 0
M  V30 8745 H 811.612 -3.97414 1.73911 0
M  V30 8746 H 812.283 -5.42933 0.996385 0
M  V30 8747 H 814.759 -4.1383 -0.434036 0
M  V30 8748 H 813.635 -5.39483 -1.01238 0
M  V30 8749 H 813.896 -3.95257 -1.9805 0
M  V30 8750 N 812.955 -0.234822 -1.55841 0
M  V30 8751 C 814.366 0.270588 -1.84729 0
M  V30 8752 C 814.717 1.58494 -1.15646 0
M  V30 8753 O 813.842 2.12071 -0.430667 0
M  V30 8754 C 814.437 0.497733 -3.35124 0
M  V30 8755 C 812.996 0.947428 -3.64281 0
M  V30 8756 C 812.143 0.01787 -2.77294 0
M  V30 8757 H 815.094 -0.457691 -1.51957 0
M  V30 8758 H 815.115 1.34199 -3.56049 0
M  V30 8759 H 814.627 -0.459037 -3.85376 0
M  V30 8760 H 812.728 1.91709 -3.19497 0
M  V30 8761 H 812.841 0.812651 -4.72158 0
M  V30 8762 H 811.205 0.527071 -2.49187 0
M  V30 8763 H 811.988 -0.934056 -3.30349 0
M  V30 8764 N 814.433 1.57553 0.0384317 0
M  V30 8765 C 815.363 2.0898 1.04161 0
M  V30 8766 C 816.344 0.99029 1.38301 0
M  V30 8767 O 817.529 1.26499 1.47349 0
M  V30 8768 C 814.659 2.56145 2.34536 0
M  V30 8769 C 813.613 3.70275 2.14663 0
M  V30 8770 C 812.939 4.03612 3.50715 0
M  V30 8771 C 814.239 4.99067 1.54045 0
M  V30 8772 H 815.933 2.93046 0.613548 0
M  V30 8773 H 813.479 1.40973 0.293684 0
M  V30 8774 H 815.432 2.90741 3.05037 0
M  V30 8775 H 814.156 1.6915 2.79385 0
M  V30 8776 H 812.815 3.36013 1.46597 0
M  V30 8777 H 812.463 3.13698 3.93195 0
M  V30 8778 H 812.163 4.80482 3.38247 0
M  V30 8779 H 813.687 4.40735 4.22593 0
M  V30 8780 H 815.101 5.3168 2.14451 0
M  V30 8781 H 813.498 5.80484 1.52178 0
M  V30 8782 H 814.568 4.8226 0.505259 0
M  V30 8783 N 815.911 -0.310526 1.54511 0
M  V30 8784 C 817.158 -1.04691 1.73338 0
M  V30 8785 C 817.486 -1.87584 0.514038 0
M  V30 8786 O 816.741 -1.89096 -0.504119 0
M  V30 8787 C 817.04 -1.98942 2.96912 0
M  V30 8788 C 816.706 -1.321 4.31115 0
M  V30 8789 C 815.368 -1.13603 4.67598 0
M  V30 8790 C 817.72 -0.842362 5.14348 0
M  V30 8791 C 815.048 -0.459102 5.84901 0
M  V30 8792 C 817.4 -0.179202 6.32346 0
M  V30 8793 C 816.064 0.0178111 6.67498 0
M  V30 8794 H 815.334 -0.38309 0.634289 0
M  V30 8795 H 817.981 -0.322723 1.88761 0
M  V30 8796 H 816.286 -2.77856 2.76231 0
M  V30 8797 H 817.983 -2.55972 3.08674 0
M  V30 8798 H 814.573 -1.47502 4.02419 0
M  V30 8799 H 818.757 -0.973013 4.86668 0
M  V30 8800 H 814.013 -0.295385 6.10686 0
M  V30 8801 H 818.187 0.199619 6.96114 0
M  V30 8802 H 815.814 0.544356 7.58249 0
M  V30 8803 N 817.389 -1.46805 -0.573248 0
M  V30 8804 C 818.635 -1.5283 -1.33307 0
M  V30 8805 C 818.968 -0.183287 -1.93333 0
M  V30 8806 O 818.243 0.806354 -1.76998 0
M  V30 8807 C 818.526 -2.63414 -2.45531 0
M  V30 8808 C 818.379 -4.07478 -1.90478 0
M  V30 8809 C 819.698 -2.70014 -3.47535 0
M  V30 8810 H 816.817 -0.556371 -0.483343 0
M  V30 8811 H 819.459 -1.78787 -0.643066 0
M  V30 8812 H 817.609 -2.41412 -3.04389 0
M  V30 8813 H 819.281 -4.40795 -1.36004 0
M  V30 8814 H 817.524 -4.16511 -1.21248 0
M  V30 8815 H 818.195 -4.80598 -2.71531 0
M  V30 8816 H 820.671 -2.89817 -2.98572 0
M  V30 8817 H 819.547 -3.49192 -4.23504 0
M  V30 8818 H 819.808 -1.76436 -4.05367 0
M  V30 8819 N 818.867 0.818669 -1.34668 0
M  V30 8820 C 820.113 1.57746 -1.27453 0
M  V30 8821 C 820.446 1.93588 0.154077 0
M  V30 8822 O 819.721 1.60371 1.10051 0
M  V30 8823 C 820.004 2.87414 -2.16945 0
M  V30 8824 C 819.857 2.58125 -3.68363 0
M  V30 8825 C 821.176 3.89021 -2.05792 0
M  V30 8826 H 818.295 0.572339 -0.464324 0
M  V30 8827 H 820.937 0.942784 -1.64959 0
M  V30 8828 H 819.087 3.41576 -1.85089 0
M  V30 8829 H 820.759 2.10239 -4.10606 0
M  V30 8830 H 819.002 1.91503 -3.89242 0
M  V30 8831 H 819.673 3.5061 -4.26353 0
M  V30 8832 H 822.149 3.44224 -2.33771 0
M  V30 8833 H 821.025 4.77548 -2.70628 0
M  V30 8834 H 821.286 4.29786 -1.03618 0
M  V30 8835 N 820.346 1.18468 1.03938 0
M  V30 8836 C 821.595 0.975193 1.76558 0
M  V30 8837 C 821.908 -0.495978 1.89207 0
M  V30 8838 O 823.114 -0.824009 2.58694 0
M  V30 8839 C 821.57 1.69579 3.17444 0
M  V30 8840 C 821.178 3.20636 3.12884 0
M  V30 8841 C 822.922 1.56917 3.94433 0
M  V30 8842 C 820.829 3.8533 4.48636 0
M  V30 8843 H 819.759 0.361244 0.66183 0
M  V30 8844 H 822.41 1.41854 1.16403 0
M  V30 8845 H 820.792 1.18022 3.78004 0
M  V30 8846 H 821.966 3.79228 2.61768 0
M  V30 8847 H 820.281 3.33454 2.49394 0
M  V30 8848 H 822.878 2.02611 4.94826 0
M  V30 8849 H 823.221 0.521638 4.13019 0
M  V30 8850 H 823.754 2.05762 3.40451 0
M  V30 8851 H 820.493 4.90136 4.35255 0
M  V30 8852 H 820.013 3.31526 4.99851 0
M  V30 8853 H 821.692 3.88269 5.17549 0
M  V30 8854 N 821.824 -1.22873 0.986916 0
M  V30 8855 C 823.052 -1.95487 0.677663 0
M  V30 8856 C 823.467 -1.72978 -0.756572 0
M  V30 8857 O 822.824 -1.02517 -1.50985 0
M  V30 8858 C 822.875 -3.48337 0.966638 0
M  V30 8859 O 822.596 -3.70087 2.34451 0
M  V30 8860 C 824.097 -4.38142 0.674248 0
M  V30 8861 H 821.317 -0.622211 0.251185 0
M  V30 8862 H 823.861 -1.56187 1.32007 0
M  V30 8863 H 822.016 -3.85628 0.370137 0
M  V30 8864 H 822.43 -4.64332 2.43918 0
M  V30 8865 H 823.904 -5.44165 0.926759 0
M  V30 8866 H 824.381 -4.3745 -0.391728 0
M  V30 8867 H 824.987 -4.06469 1.25152 0
M  V30 8868 N 823.302 -0.75937 -1.38099 0
M  V30 8869 C 824.232 -0.151077 -2.33011 0
M  V30 8870 C 825.213 0.697099 -1.5516 0
M  V30 8871 O 826.398 0.637101 -1.83452 0
M  V30 8872 C 823.528 0.738423 -3.39359 0
M  V30 8873 C 822.482 -0.0074741 -4.27999 0
M  V30 8874 C 821.808 1.00066 -5.25253 0
M  V30 8875 C 823.108 -1.17926 -5.08813 0
M  V30 8876 H 824.802 -0.943933 -2.84131 0
M  V30 8877 H 822.348 -0.455362 -1.36611 0
M  V30 8878 H 824.301 1.17369 -4.04725 0
M  V30 8879 H 823.025 1.56366 -2.86735 0
M  V30 8880 H 821.684 -0.423379 -3.64147 0
M  V30 8881 H 821.332 1.82012 -4.68914 0
M  V30 8882 H 821.032 0.506199 -5.85416 0
M  V30 8883 H 822.556 1.43512 -5.93495 0
M  V30 8884 H 823.97 -0.821262 -5.67387 0
M  V30 8885 H 822.367 -1.60497 -5.78239 0
M  V30 8886 H 823.437 -1.98938 -4.42212 0
M  V30 8887 N 824.78 1.49157 -0.508906 0
M  V30 8888 C 825.71 2.32109 0.254469 0
M  V30 8889 C 826.691 1.40754 0.955111 0
M  V30 8890 O 827.876 1.69658 0.944983 0
M  V30 8891 C 825.006 3.21458 1.3146 0
M  V30 8892 C 823.96 4.2167 0.733368 0
M  V30 8893 C 823.286 5.00009 1.8946 0
M  V30 8894 C 824.586 5.21544 -0.280875 0
M  V30 8895 H 826.28 2.9618 -0.43795 0
M  V30 8896 H 823.826 1.4243 -0.212062 0
M  V30 8897 H 825.779 3.78305 1.85643 0
M  V30 8898 H 824.503 2.55346 2.03632 0
M  V30 8899 H 823.162 3.65979 0.213231 0
M  V30 8900 H 822.81 4.30338 2.60419 0
M  V30 8901 H 822.51 5.67821 1.51173 0
M  V30 8902 H 824.034 5.59702 2.44061 0
M  V30 8903 H 825.448 5.73039 0.173095 0
M  V30 8904 H 823.845 5.97291 -0.580006 0
M  V30 8905 H 824.915 4.69969 -1.19404 0
M  V30 8906 N 826.258 0.243083 1.55714 0
M  V30 8907 C 827.205 -0.658078 2.21219 0
M  V30 8908 C 828.175 -1.1742 1.17481 0
M  V30 8909 O 829.36 -1.22937 1.45915 0
M  V30 8910 C 826.5 -1.85104 2.91257 0
M  V30 8911 C 825.613 -1.3718 4.09641 0
M  V30 8912 C 824.748 -2.52403 4.67404 0
M  V30 8913 C 823.787 -2.01321 5.78045 0
M  V30 8914 N 822.924 -3.09896 6.30007 0
M  V30 8915 H 827.764 -0.0927854 2.97856 0
M  V30 8916 H 825.301 -0.0340375 1.47061 0
M  V30 8917 H 827.259 -2.55179 3.3006 0
M  V30 8918 H 825.889 -2.38887 2.17101 0
M  V30 8919 H 824.941 -0.565232 3.76177 0
M  V30 8920 H 826.253 -0.957409 4.89525 0
M  V30 8921 H 825.407 -3.30525 5.08761 0
M  V30 8922 H 824.146 -2.97142 3.86728 0
M  V30 8923 H 823.151 -1.21667 5.36169 0
M  V30 8924 H 824.376 -1.57556 6.6057 0
M  V30 8925 H 822.322 -3.54077 5.52237 0
M  V30 8926 H 822.239 -2.72776 7.05074 0
M  V30 8927 H 823.507 -3.8809 6.76023 0
M  V30 8928 N 827.736 -1.57571 -0.0300757 0
M  V30 8929 C 828.964 -1.93485 -0.732891 0
M  V30 8930 C 829.379 -0.842758 -1.68947 0
M  V30 8931 O 828.736 0.180904 -1.81601 0
M  V30 8932 C 828.787 -3.29328 -1.49082 0
M  V30 8933 O 828.508 -4.34341 -0.572639 0
M  V30 8934 C 830.009 -3.79517 -2.29088 0
M  V30 8935 H 827.229 -0.638588 -0.206026 0
M  V30 8936 H 829.773 -2.04496 0.0120966 0
M  V30 8937 H 827.928 -3.19716 -2.1877 0
M  V30 8938 H 828.342 -5.12748 -1.10406 0
M  V30 8939 H 829.816 -4.77081 -2.77665 0
M  V30 8940 H 830.293 -3.10659 -3.10464 0
M  V30 8941 H 830.899 -3.92208 -1.64477 0
M  V30 8942 N 829.214 0.302327 -1.54673 0
M  V30 8943 C 830.63 0.647911 -1.45857 0
M  V30 8944 C 830.83 1.90773 -0.64869 0
M  V30 8945 O 829.886 2.52018 -0.155865 0
M  V30 8946 C 831.199 0.802144 -2.89804 0
M  V30 8947 C 832.747 0.898114 -2.99838 0
M  V30 8948 C 833.222 1.08436 -4.44978 0
M  V30 8949 N 834.713 1.15059 -4.48682 0
M  V30 8950 C 835.448 1.31296 -5.58166 0
M  V30 8951 N 834.944 1.4444 -6.77576 0
M  V30 8952 N 836.737 1.34174 -5.45851 0
M  V30 8953 H 828.888 -0.525428 -2.05798 0
M  V30 8954 H 831.151 -0.173423 -0.932002 0
M  V30 8955 H 830.857 -0.0526531 -3.51661 0
M  V30 8956 H 830.731 1.69155 -3.37145 0
M  V30 8957 H 833.118 1.7434 -2.38096 0
M  V30 8958 H 833.199 -0.0152752 -2.55795 0
M  V30 8959 H 832.843 0.243843 -5.07314 0
M  V30 8960 H 832.773 2.01195 -4.8665 0
M  V30 8961 H 835.264 1.0626 -3.62653 0
M  V30 8962 H 835.577 1.56582 -7.56771 0
M  V30 8963 H 833.922 1.41499 -6.80443 0
M  V30 8964 H 837.113 1.23516 -4.5151 0
M  V30 8965 H 837.286 1.46485 -6.31226 0
M  V30 8966 N 830.692 1.47107 0.565454 0
M  V30 8967 C 831.94 1.53005 1.32038 0
M  V30 8968 C 832.261 0.190453 1.94068 0
M  V30 8969 O 831.531 -0.784783 1.79494 0
M  V30 8970 H 830.111 0.563578 0.490294 0
M  V30 8971 H 832.773 1.83351 0.660928 0
M  V30 8972 H 831.869 2.29215 2.11818 0
M  V30 8973 N 832.17 -0.811516 1.35101 0
M  V30 8974 C 833.581 -1.38515 1.25182 0
M  V30 8975 C 833.932 -1.95846 -0.117883 0
M  V30 8976 O 833.057 -1.90925 -1.01866 0
M  V30 8977 C 833.652 -2.51813 2.26662 0
M  V30 8978 C 832.211 -3.05052 2.20499 0
M  V30 8979 C 831.358 -1.77987 2.12641 0
M  V30 8980 H 834.309 -0.614959 1.46301 0
M  V30 8981 H 834.33 -3.30228 1.89023 0
M  V30 8982 H 833.842 -2.10057 3.2634 0
M  V30 8983 H 831.943 -3.51285 1.24215 0
M  V30 8984 H 832.056 -3.63368 3.1225 0
M  V30 8985 H 830.42 -1.99342 1.5854 0
M  V30 8986 H 831.203 -1.38389 3.14171 0
M  V30 8987 N 833.648 -1.19017 -1.03309 0
M  V30 8988 C 834.895 -0.990214 -1.76638 0
M  V30 8989 C 835.223 0.479435 -1.88498 0
M  V30 8990 O 834.478 1.37223 -1.39529 0
M  V30 8991 C 834.777 -1.59927 -3.19622 0
M  V30 8992 C 834.443 -3.09632 -3.27779 0
M  V30 8993 C 833.105 -3.50491 -3.29712 0
M  V30 8994 C 835.457 -4.05644 -3.27264 0
M  V30 8995 C 832.785 -4.85921 -3.28782 0
M  V30 8996 C 835.137 -5.41 -3.27875 0
M  V30 8997 C 833.801 -5.81295 -3.28104 0
M  V30 8998 H 833.071 -0.362345 -0.646364 0
M  V30 8999 H 835.718 -1.48197 -1.21284 0
M  V30 9000 H 834.023 -1.0297 -3.78027 0
M  V30 9001 H 835.72 -1.41989 -3.7502 0
M  V30 9002 H 832.31 -2.77073 -3.26999 0
M  V30 9003 H 836.494 -3.75124 -3.24955 0
M  V30 9004 H 831.75 -5.16427 -3.27281 0
M  V30 9005 H 835.924 -6.15157 -3.26428 0
M  V30 9006 H 833.551 -6.86211 -3.27138 0
M  V30 9007 N 835.127 1.22348 -0.993418 0
M  V30 9008 C 836.543 1.43222 -0.704238 0
M  V30 9009 C 836.743 1.88009 0.724909 0
M  V30 9010 O 835.799 2.03429 1.49575 0
M  V30 9011 C 837.112 2.47328 -1.71025 0
M  V30 9012 C 838.66 2.61126 -1.72576 0
M  V30 9013 C 839.135 3.68453 -2.72041 0
M  V30 9014 N 840.626 3.75911 -2.70639 0
M  V30 9015 C 841.361 4.58551 -3.44266 0
M  V30 9016 N 840.857 5.45179 -4.27495 0
M  V30 9017 N 842.65 4.52866 -3.32969 0
M  V30 9018 H 834.801 0.915832 -1.91641 0
M  V30 9019 H 837.064 0.464283 -0.826526 0
M  V30 9020 H 836.77 2.21366 -2.73295 0
M  V30 9021 H 836.644 3.45939 -1.50353 0
M  V30 9022 H 839.031 2.86431 -0.710037 0
M  V30 9023 H 839.112 1.62787 -1.97317 0
M  V30 9024 H 838.756 3.43895 -3.73763 0
M  V30 9025 H 838.686 4.66362 -2.4457 0
M  V30 9026 H 841.177 3.14014 -2.10247 0
M  V30 9027 H 841.49 6.0526 -4.80499 0
M  V30 9028 H 839.835 5.44759 -4.31582 0
M  V30 9029 H 843.026 3.84215 -2.67389 0
M  V30 9030 H 843.199 5.17039 -3.90608 0
M  V30 9031 N 836.605 0.766683 1.37694 0
M  V30 9032 C 837.552 0.147725 2.30327 0
M  V30 9033 C 838.522 -0.695366 1.50844 0
M  V30 9034 O 839.707 -0.64878 1.79431 0
M  V30 9035 C 836.847 -0.72935 3.37305 0
M  V30 9036 C 835.96 0.129795 4.31805 0
M  V30 9037 C 835.095 -0.751511 5.25857 0
M  V30 9038 C 834.134 0.110475 6.12 0
M  V30 9039 N 833.271 -0.728522 6.9831 0
M  V30 9040 H 838.111 0.943204 2.82679 0
M  V30 9041 H 835.648 0.476736 1.3916 0
M  V30 9042 H 837.606 -1.25263 3.97951 0
M  V30 9043 H 836.236 -1.49048 2.86329 0
M  V30 9044 H 835.288 0.770829 3.72508 0
M  V30 9045 H 836.6 0.794923 4.92425 0
M  V30 9046 H 835.754 -1.34146 5.91684 0
M  V30 9047 H 834.493 -1.45034 4.65636 0
M  V30 9048 H 833.498 0.712999 5.45157 0
M  V30 9049 H 834.723 0.806557 6.74293 0
M  V30 9050 H 832.669 -1.41206 6.40622 0
M  V30 9051 H 832.586 -0.12058 7.55904 0
M  V30 9052 H 833.854 -1.30303 7.68532 0
M  V30 9053 N 838.083 -1.48885 0.516809 0
M  V30 9054 C 839.499 -1.58651 0.173788 0
M  V30 9055 C 839.699 -1.52033 -1.32243 0
M  V30 9056 O 838.755 -1.40251 -2.09967 0
M  V30 9057 C 840.068 -2.90816 0.764628 0
M  V30 9058 C 841.616 -3.04316 0.732164 0
M  V30 9059 C 842.091 -4.39123 1.30135 0
M  V30 9060 N 843.582 -4.45656 1.26273 0
M  V30 9061 C 844.317 -5.48446 1.67317 0
M  V30 9062 N 843.813 -6.58258 2.16028 0
M  V30 9063 N 845.606 -5.39251 1.58635 0
M  V30 9064 H 837.757 -1.5143 1.48939 0
M  V30 9065 H 840.02 -0.718243 0.618733 0
M  V30 9066 H 839.726 -3.01275 1.81456 0
M  V30 9067 H 839.6 -3.76473 0.234113 0
M  V30 9068 H 841.987 -2.93478 -0.308975 0
M  V30 9069 H 842.068 -2.20303 1.3 0
M  V30 9070 H 841.712 -4.50714 2.34135 0
M  V30 9071 H 841.642 -5.21801 0.709305 0
M  V30 9072 H 844.133 -3.66879 0.906006 0
M  V30 9073 H 844.446 -7.32811 2.45374 0
M  V30 9074 H 842.791 -6.59257 2.20013 0
M  V30 9075 H 845.982 -4.52354 1.20387 0
M  V30 9076 H 846.155 -6.19229 1.90944 0
M  V30 9077 N 839.561 -0.251338 -1.55583 0
M  V30 9078 C 840.491 0.640437 -2.24545 0
M  V30 9079 C 841.472 1.17781 -1.22726 0
M  V30 9080 O 842.657 1.21633 -1.5139 0
M  V30 9081 C 839.787 1.8355 -2.94834 0
M  V30 9082 C 838.741 1.4307 -4.03379 0
M  V30 9083 C 838.067 2.70695 -4.61116 0
M  V30 9084 C 839.367 0.59848 -5.1886 0
M  V30 9085 H 841.061 0.0653772 -2.99329 0
M  V30 9086 H 838.607 0.0300042 -1.43969 0
M  V30 9087 H 840.56 2.46505 -3.4178 0
M  V30 9088 H 839.284 2.43601 -2.17546 0
M  V30 9089 H 837.943 0.824474 -3.57209 0
M  V30 9090 H 837.591 3.28954 -3.80524 0
M  V30 9091 H 837.291 2.44332 -5.34393 0
M  V30 9092 H 838.815 3.34541 -5.10798 0
M  V30 9093 H 840.229 1.13244 -5.62004 0
M  V30 9094 H 838.626 0.430728 -5.98552 0
M  V30 9095 H 839.696 -0.38829 -4.83343 0
M  V30 9096 N 841.039 1.57585 0.0217189 0
M  V30 9097 C 842.455 1.55072 0.377484 0
M  V30 9098 C 842.655 0.978423 1.76151 0
M  V30 9099 O 841.711 0.602688 2.45202 0
M  V30 9100 C 843.024 2.99462 0.272605 0
M  V30 9101 C 844.572 3.11047 0.349148 0
M  V30 9102 C 845.047 4.57182 0.273636 0
M  V30 9103 N 846.538 4.62007 0.332206 0
M  V30 9104 C 847.273 5.72631 0.296782 0
M  V30 9105 N 846.769 6.92472 0.21322 0
M  V30 9106 N 848.562 5.61028 0.347053 0
M  V30 9107 H 840.713 1.93133 -0.883925 0
M  V30 9108 H 842.976 0.886151 -0.33681 0
M  V30 9109 H 842.682 3.45088 -0.67878 0
M  V30 9110 H 842.556 3.61901 1.06335 0
M  V30 9111 H 844.943 2.65364 1.29097 0
M  V30 9112 H 845.024 2.51425 -0.471085 0
M  V30 9113 H 844.668 5.03534 -0.664548 0
M  V30 9114 H 844.598 5.14724 1.11207 0
M  V30 9115 H 847.089 3.75788 0.399003 0
M  V30 9116 H 847.402 7.72563 0.191492 0
M  V30 9117 H 845.747 6.94769 0.179161 0
M  V30 9118 H 848.938 4.66298 0.410378 0
M  V30 9119 H 849.111 6.47229 0.315979 0
M  V30 9120 N 842.517 -0.29412 1.54831 0
M  V30 9121 C 843.449 -1.38476 1.82639 0
M  V30 9122 C 844.462 -1.46517 0.709694 0
M  V30 9123 O 845.651 -1.48712 0.987269 0
M  V30 9124 C 842.751 -2.76791 1.95551 0
M  V30 9125 C 841.924 -2.91599 3.26019 0
M  V30 9126 C 840.983 -4.10456 3.29261 0
M  V30 9127 O 840.009 -4.02214 4.02756 0
M  V30 9128 N 841.211 -5.21422 2.55145 0
M  V30 9129 H 843.976 -1.14974 2.76769 0
M  V30 9130 H 841.537 -0.484206 1.5449 0
M  V30 9131 H 843.529 -3.5456 1.95113 0
M  V30 9132 H 842.099 -2.93209 1.08384 0
M  V30 9133 H 841.319 -2.00886 3.39173 0
M  V30 9134 H 842.607 -2.98409 4.12104 0
M  V30 9135 H 842.005 -5.31 1.95078 0
M  V30 9136 H 840.562 -5.97501 2.60454 0
M  V30 9137 N 843.995 -1.47404 -0.557645 0
M  V30 9138 C 844.925 -1.62736 -1.67449 0
M  V30 9139 C 845.906 -0.476824 -1.6328 0
M  V30 9140 O 847.091 -0.706108 -1.80908 0
M  V30 9141 C 844.221 -1.641 -3.06086 0
M  V30 9142 C 843.175 -2.78377 -3.25101 0
M  V30 9143 C 842.501 -2.64812 -4.6452 0
M  V30 9144 C 843.801 -4.19971 -3.10518 0
M  V30 9145 H 845.495 -2.56232 -1.54873 0
M  V30 9146 H 843.041 -1.23312 -0.743649 0
M  V30 9147 H 844.994 -1.73417 -3.84063 0
M  V30 9148 H 843.718 -0.671652 -3.19619 0
M  V30 9149 H 842.377 -2.6857 -2.49531 0
M  V30 9150 H 842.025 -1.65906 -4.74852 0
M  V30 9151 H 841.725 -3.41477 -4.78191 0
M  V30 9152 H 843.249 -2.76057 -5.44633 0
M  V30 9153 H 844.663 -4.30757 -3.78313 0
M  V30 9154 H 843.06 -4.97419 -3.35699 0
M  V30 9155 H 844.13 -4.38369 -2.0727 0
M  V30 9156 N 845.473 0.80434 -1.35529 0
M  V30 9157 C 846.722 1.55665 -1.28263 0
M  V30 9158 C 847.035 1.95096 0.140352 0
M  V30 9159 O 848.241 2.69422 0.335303 0
M  V30 9160 C 846.697 2.80935 -2.24952 0
M  V30 9161 C 846.305 2.48733 -3.72607 0
M  V30 9162 C 848.049 3.5894 -2.26632 0
M  V30 9163 C 845.956 3.70308 -4.61114 0
M  V30 9164 H 844.886 0.584301 -0.476559 0
M  V30 9165 H 847.537 0.88395 -1.60806 0
M  V30 9166 H 845.919 3.49927 -1.85383 0
M  V30 9167 H 847.093 1.87733 -4.20824 0
M  V30 9168 H 845.408 1.83969 -3.73557 0
M  V30 9169 H 848.005 4.49244 -2.89973 0
M  V30 9170 H 848.348 3.96433 -1.27069 0
M  V30 9171 H 848.881 2.96912 -2.64742 0
M  V30 9172 H 845.62 3.37922 -5.61684 0
M  V30 9173 H 845.14 4.30526 -4.17621 0
M  V30 9174 H 846.819 4.37511 -4.76648 0
M  V30 9175 N 846.951 1.19563 1.02676 0
M  V30 9176 C 848.179 1.02488 1.79732 0
M  V30 9177 C 848.594 -0.426302 1.83924 0
M  V30 9178 O 847.951 -1.29609 1.28483 0
M  V30 9179 C 848.002 1.58944 3.24683 0
M  V30 9180 O 847.723 2.98382 3.2078 0
M  V30 9181 C 849.224 1.46681 4.1833 0
M  V30 9182 H 846.444 0.361098 0.565552 0
M  V30 9183 H 848.988 1.58426 1.29311 0
M  V30 9184 H 847.143 1.0715 3.72287 0
M  V30 9185 H 847.557 3.24983 4.11687 0
M  V30 9186 H 849.031 1.90959 5.17918 0
M  V30 9187 H 849.508 0.417663 4.3721 0
M  V30 9188 H 850.114 1.97616 3.76601 0
M  V30 9189 N 848.429 -1.21819 0.999893 0
M  V30 9190 C 849.84 -1.72517 0.713775 0
M  V30 9191 C 850.191 -1.80505 -0.768922 0
M  V30 9192 O 849.316 -1.45611 -1.60083 0
M  V30 9193 C 849.911 -3.13321 1.28901 0
M  V30 9194 C 848.47 -3.61396 1.05212 0
M  V30 9195 C 847.617 -2.39074 1.40494 0
M  V30 9196 H 850.568 -1.07068 1.17141 0
M  V30 9197 H 850.589 -3.74535 0.671084 0
M  V30 9198 H 850.101 -3.07475 2.36814 0
M  V30 9199 H 848.202 -3.72599 -0.0100732 0
M  V30 9200 H 848.315 -4.47145 1.72042 0
M  V30 9201 H 846.679 -2.41015 0.823642 0
M  V30 9202 H 847.462 -2.35884 2.49427 0
M  V30 9203 N 849.908 -0.773975 -1.37286 0
M  V30 9204 C 851.185 -0.263942 -1.93811 0
M  V30 9205 C 851.565 1.24138 -1.70743 0
M  V30 9206 O 850.913 2.02557 -1.05749 0
M  V30 9207 C 851.123 -0.639753 -3.43086 0
M  V30 9208 C 852.471 -0.610796 -4.20184 0
M  V30 9209 O 853.495 -0.579278 -3.51458 0
M  V30 9210 O 852.354 -0.639862 -5.42741 0
M  V30 9211 H 849.448 -0.0614331 -0.824715 0
M  V30 9212 H 851.994 -0.855477 -1.46559 0
M  V30 9213 H 850.766 -1.67856 -3.53469 0
M  V30 9214 H 850.389 -0.0212827 -3.97594 0
M  V30 9215 N 851.386 1.48609 -0.524698 0
M  V30 9216 C 852.611 2.07398 0.00952139 0
M  V30 9217 C 853.036 1.37939 1.27884 0
M  V30 9218 O 852.394 0.443633 1.75788 0
M  V30 9219 C 852.442 3.59916 0.221956 0
M  V30 9220 O 851.546 3.91647 1.29175 0
M  V30 9221 H 850.887 0.662981 -0.0367729 0
M  V30 9222 H 853.417 1.91092 -0.7311 0
M  V30 9223 H 853.427 4.05552 0.446236 0
M  V30 9224 H 852.102 4.09876 -0.705306 0
M  V30 9225 H 850.679 3.57796 1.05055 0
M  V30 9226 N 852.864 0.259585 1.55447 0
M  V30 9227 C 854.089 -0.368317 2.04103 0
M  V30 9228 C 854.514 -1.49827 1.13725 0
M  V30 9229 O 853.872 -1.80814 0.132705 0
M  V30 9230 C 853.92 -0.841506 3.50644 0
M  V30 9231 O 853.024 -1.95008 3.63381 0
M  V30 9232 H 852.365 -0.0785227 0.659341 0
M  V30 9233 H 854.895 0.389349 2.00861 0
M  V30 9234 H 854.905 -1.14138 3.9171 0
M  V30 9235 H 853.58 -0.0147001 4.15897 0
M  V30 9236 H 852.157 -1.65393 3.34215 0
M  V30 9237 N 854.342 -1.57594 -0.0133615 0
M  V30 9238 C 855.272 -2.10611 -1.00823 0
M  V30 9239 C 856.253 -1.01217 -1.36708 0
M  V30 9240 O 857.438 -1.28827 -1.45318 0
M  V30 9241 C 854.568 -2.59844 -2.30431 0
M  V30 9242 C 853.522 -3.73644 -2.08745 0
M  V30 9243 C 852.848 -4.09141 -3.4425 0
M  V30 9244 C 854.148 -5.01454 -1.46086 0
M  V30 9245 H 855.842 -2.93985 -0.566849 0
M  V30 9246 H 853.388 -1.41423 -0.271219 0
M  V30 9247 H 855.341 -2.95557 -3.00373 0
M  V30 9248 H 854.065 -1.73573 -2.76658 0
M  V30 9249 H 852.724 -3.38303 -1.41232 0
M  V30 9250 H 852.372 -3.19914 -3.88155 0
M  V30 9251 H 852.072 -4.85802 -3.3056 0
M  V30 9252 H 853.596 -4.47402 -4.15528 0
M  V30 9253 H 855.01 -5.35024 -2.05966 0
M  V30 9254 H 853.407 -5.82832 -1.42924 0
M  V30 9255 H 854.477 -4.83003 -0.428471 0
M  V30 9256 N 855.82 0.285905 -1.54985 0
M  V30 9257 C 857.231 0.857869 -1.65824 0
M  V30 9258 C 857.582 1.87531 -0.576763 0
M  V30 9259 O 856.707 2.14528 0.284016 0
M  V30 9260 C 857.302 1.56277 -3.00604 0
M  V30 9261 C 855.861 2.08294 -3.13513 0
M  V30 9262 C 855.008 0.920633 -2.61571 0
M  V30 9263 H 857.959 0.0625463 -1.58577 0
M  V30 9264 H 857.98 2.42912 -2.92872 0
M  V30 9265 H 857.492 0.822017 -3.79295 0
M  V30 9266 H 855.593 2.8537 -2.39572 0
M  V30 9267 H 855.706 2.3071 -4.19892 0
M  V30 9268 H 854.07 1.31043 -2.18403 0
M  V30 9269 H 854.853 0.193594 -3.42754 0
M  V30 9270 N 857.298 1.47698 0.54982 0
M  V30 9271 C 858.23 1.56806 1.67166 0
M  V30 9272 C 859.243 0.453709 1.5635 0
M  V30 9273 O 860.432 0.723663 1.63173 0
M  V30 9274 C 857.532 1.4632 3.05686 0
M  V30 9275 C 856.705 2.72452 3.42182 0
M  V30 9276 C 855.764 2.55698 4.59897 0
M  V30 9277 O 854.79 3.29534 4.64108 0
M  V30 9278 N 855.992 1.64009 5.56849 0
M  V30 9279 H 858.757 2.53545 1.59797 0
M  V30 9280 H 856.318 1.44171 0.736635 0
M  V30 9281 H 858.31 1.32835 3.82279 0
M  V30 9282 H 856.88 0.57634 3.07241 0
M  V30 9283 H 856.1 3.00644 2.54964 0
M  V30 9284 H 857.388 3.56172 3.63344 0
M  V30 9285 H 856.786 1.03186 5.5621 0
M  V30 9286 H 855.343 1.56473 6.3274 0
M  V30 9287 N 858.776 -0.797141 1.35954 0
M  V30 9288 C 860.187 -1.37179 1.26644 0
M  V30 9289 C 860.538 -1.9596 -0.0971046 0
M  V30 9290 O 859.663 -1.91994 -0.998355 0
M  V30 9291 C 860.258 -2.49395 2.2932 0
M  V30 9292 C 858.817 -3.02697 2.23722 0
M  V30 9293 C 857.964 -1.75721 2.14517 0
M  V30 9294 H 860.915 -0.599407 1.46945 0
M  V30 9295 H 860.936 -3.28204 1.92515 0
M  V30 9296 H 860.448 -2.06584 3.2855 0
M  V30 9297 H 858.549 -3.49948 1.27934 0
M  V30 9298 H 858.662 -3.60036 3.16087 0
M  V30 9299 H 857.026 -1.97649 1.60646 0
M  V30 9300 H 857.809 -1.35049 3.15621 0
M  V30 9301 N 860.254 -1.20106 -1.0204 0
M  V30 9302 C 861.201 -0.946468 -2.10501 0
M  V30 9303 C 862.171 0.121902 -1.65652 0
M  V30 9304 O 863.356 -0.0220244 -1.90787 0
M  V30 9305 C 860.496 -0.500499 -3.41451 0
M  V30 9306 C 859.609 -1.63659 -3.998 0
M  V30 9307 C 858.744 -1.14131 -5.18794 0
M  V30 9308 C 857.783 -2.25074 -5.69217 0
M  V30 9309 N 856.92 -1.76791 -6.79477 0
M  V30 9310 H 861.76 -1.87506 -2.31615 0
M  V30 9311 H 859.297 -0.934693 -1.13587 0
M  V30 9312 H 861.255 -0.223276 -4.16602 0
M  V30 9313 H 859.885 0.391099 -3.20422 0
M  V30 9314 H 858.937 -2.02882 -3.21781 0
M  V30 9315 H 860.249 -2.47213 -4.33229 0
M  V30 9316 H 859.403 -0.819826 -6.01135 0
M  V30 9317 H 858.142 -0.275615 -4.86921 0
M  V30 9318 H 857.147 -2.58043 -4.85483 0
M  V30 9319 H 858.372 -3.12114 -6.03127 0
M  V30 9320 H 856.318 -0.925428 -6.4944 0
M  V30 9321 H 856.235 -2.53928 -7.12079 0
M  V30 9322 H 857.503 -1.47631 -7.65392 0
M  V30 9323 N 861.732 1.21287 -1.00634 0
M  V30 9324 C 862.664 2.2308 -0.526094 0
M  V30 9325 C 863.677 1.58157 0.386031 0
M  V30 9326 O 864.866 1.77528 0.186016 0
M  V30 9327 C 861.966 3.37937 0.255289 0
M  V30 9328 C 861.139 4.32449 -0.656236 0
M  V30 9329 C 860.198 5.26145 0.0757714 0
M  V30 9330 O 859.224 5.66601 -0.543325 0
M  V30 9331 N 860.426 5.6449 1.35391 0
M  V30 9332 H 863.191 2.64913 -1.40147 0
M  V30 9333 H 860.752 1.35724 -0.882641 0
M  V30 9334 H 862.744 3.97614 0.753977 0
M  V30 9335 H 861.314 2.95078 1.03187 0
M  V30 9336 H 860.534 3.70892 -1.3354 0
M  V30 9337 H 861.822 4.92526 -1.27653 0
M  V30 9338 H 861.22 5.33617 1.878 0
M  V30 9339 H 859.777 6.26524 1.79753 0
M  V30 9340 N 863.21 0.781244 1.36873 0
M  V30 9341 C 864.16 0.147313 2.27524 0
M  V30 9342 C 865.144 -0.663928 1.46563 0
M  V30 9343 O 866.336 -0.525343 1.69024 0
M  V30 9344 C 863.465 -0.723511 3.35589 0
M  V30 9345 C 862.551 0.0960763 4.23991 0
M  V30 9346 N 862.942 1.14649 4.92635 0
M  V30 9347 C 861.24 -0.126397 4.45821 0
M  V30 9348 C 861.941 1.64474 5.57964 0
M  V30 9349 N 860.917 0.955316 5.3514 0
M  V30 9350 H 864.719 0.951406 2.78075 0
M  V30 9351 H 862.233 0.619913 1.50103 0
M  V30 9352 H 864.23 -1.19351 3.99451 0
M  V30 9353 H 862.89 -1.52624 2.86594 0
M  V30 9354 H 863.901 1.5288 4.94821 0
M  V30 9355 H 860.578 -0.900284 4.07678 0
M  V30 9356 H 861.968 2.52124 6.22803 0
M  V30 9357 N 864.689 -1.48329 0.532571 0
M  V30 9358 C 866.1 -1.86469 0.0927749 0
M  V30 9359 C 866.451 -1.44186 -1.3306 0
M  V30 9360 O 865.576 -0.833741 -1.99694 0
M  V30 9361 C 866.171 -3.38414 0.161588 0
M  V30 9362 C 864.73 -3.75739 -0.223028 0
M  V30 9363 C 863.877 -2.72377 0.520199 0
M  V30 9364 H 866.828 -1.40197 0.743678 0
M  V30 9365 H 866.849 -3.75314 -0.626059 0
M  V30 9366 H 866.361 -3.69159 1.19765 0
M  V30 9367 H 864.462 -3.50608 -1.26113 0
M  V30 9368 H 864.575 -4.78954 0.118385 0
M  V30 9369 H 862.939 -2.54678 -0.0338425 0
M  V30 9370 H 863.722 -3.05965 1.55694 0
M  V30 9371 N 866.167 -0.267825 -1.55308 0
M  V30 9372 C 867.407 0.352316 -2.01341 0
M  V30 9373 C 867.771 1.53593 -1.1521 0
M  V30 9374 O 868.972 2.22521 -1.50791 0
M  V30 9375 C 867.243 0.731857 -3.49827 0
M  V30 9376 S 868.802 1.33956 -4.17853 0
M  V30 9377 H 865.62 0.109927 -0.702451 0
M  V30 9378 H 868.222 -0.387955 -1.91612 0
M  V30 9379 H 866.926 -0.138561 -4.10166 0
M  V30 9380 H 866.457 1.50378 -3.63525 0
M  V30 9381 H 868.472 2.62831 -4.20874 0
M  V30 9382 N 867.645 1.57599 0.00500368 0
M  V30 9383 C 868.575 2.11143 0.99705 0
M  V30 9384 C 869.556 1.0194 1.3617 0
M  V30 9385 O 870.741 1.29596 1.44632 0
M  V30 9386 C 867.871 2.61062 2.2905 0
M  V30 9387 C 866.825 3.74745 2.0676 0
M  V30 9388 C 866.151 4.10961 3.42075 0
M  V30 9389 C 867.451 5.02222 1.43424 0
M  V30 9390 H 869.145 2.94281 0.551251 0
M  V30 9391 H 866.691 1.41565 0.263715 0
M  V30 9392 H 868.644 2.97146 2.98801 0
M  V30 9393 H 867.368 1.75038 2.75734 0
M  V30 9394 H 866.027 3.39047 1.39436 0
M  V30 9395 H 865.675 3.21968 3.86453 0
M  V30 9396 H 865.375 4.87549 3.27979 0
M  V30 9397 H 866.899 4.49599 4.1315 0
M  V30 9398 H 868.313 5.36109 2.03125 0
M  V30 9399 H 866.71 5.83581 1.39831 0
M  V30 9400 H 867.78 4.83224 0.40285 0
M  V30 9401 N 869.123 -0.277682 1.55134 0
M  V30 9402 C 870.4 -1.0309 1.66228 0
M  V30 9403 C 870.78 -2.0445 0.525701 0
M  V30 9404 O 870.128 -2.23512 -0.474816 0
M  V30 9405 C 870.338 -1.6919 3.05247 0
M  V30 9406 C 871.686 -2.20526 3.62841 0
M  V30 9407 O 872.71 -1.79185 3.07849 0
M  V30 9408 O 871.569 -2.96342 4.59177 0
M  V30 9409 H 868.663 -0.4779 0.674937 0
M  V30 9410 H 871.209 -0.273912 1.67475 0
M  V30 9411 H 869.981 -0.957163 3.79413 0
M  V30 9412 H 869.604 -2.51587 3.07879 0
M  V30 9413 N 870.601 -1.47988 -0.541979 0
M  V30 9414 C 871.849 -1.55086 -1.29587 0
M  V30 9415 C 872.17 -0.221304 -1.9374 0
M  V30 9416 O 871.44 0.756128 -1.80719 0
M  V30 9417 H 870.02 -0.571307 -0.481266 0
M  V30 9418 H 872.682 -1.8438 -0.631675 0
M  V30 9419 H 871.778 -2.32556 -2.08144 0
M  V30 9420 N 872.079 0.78992 -1.36375 0
M  V30 9421 C 873.304 1.58389 -1.33895 0
M  V30 9422 C 873.729 1.8794 0.0774934 0
M  V30 9423 O 873.087 1.4785 1.0493 0
M  V30 9424 C 873.135 2.88201 -2.16732 0
M  V30 9425 O 872.239 3.81778 -1.55946 0
M  V30 9426 H 871.58 0.480471 -0.458305 0
M  V30 9427 H 874.11 0.979119 -1.79651 0
M  V30 9428 H 874.12 3.37475 -2.29292 0
M  V30 9429 H 872.795 2.66019 -3.19698 0
M  V30 9430 H 871.372 3.40371 -1.52323 0
M  V30 9431 N 873.557 1.20646 1.01402 0
M  V30 9432 C 874.52 0.959314 2.08158 0
M  V30 9433 C 875.52 -0.0661558 1.60664 0
M  V30 9434 O 876.71 0.170177 1.73367 0
M  V30 9435 C 873.842 0.444785 3.37986 0
M  V30 9436 H 875.035 1.90631 2.31517 0
M  V30 9437 H 872.588 1.02219 1.18241 0
M  V30 9438 H 873.323 -0.507553 3.20304 0
M  V30 9439 H 873.108 1.18435 3.73785 0
M  V30 9440 H 874.598 0.291443 4.16582 0
M  V30 9441 N 875.035 -1.20752 1.01276 0
M  V30 9442 C 876.283 -1.89645 0.698505 0
M  V30 9443 C 876.604 -1.78986 -0.773883 0
M  V30 9444 O 875.874 -1.18977 -1.55632 0
M  V30 9445 H 874.454 -0.701992 0.255375 0
M  V30 9446 H 877.116 -1.46668 1.28353 0
M  V30 9447 H 876.212 -2.96364 0.978512 0
M  V30 9448 N 876.513 -0.788492 -1.36457 0
M  V30 9449 C 877.929 -0.470063 -1.52521 0
M  V30 9450 C 878.129 1.01176 -1.74258 0
M  V30 9451 O 877.185 1.79726 -1.77355 0
M  V30 9452 C 878.498 -1.2997 -2.71161 0
M  V30 9453 C 880.046 -1.2933 -2.85031 0
M  V30 9454 C 880.521 -2.10665 -4.06674 0
M  V30 9455 N 882.012 -2.08107 -4.13819 0
M  V30 9456 C 882.747 -2.6781 -5.07016 0
M  V30 9457 N 882.243 -3.36369 -6.05663 0
M  V30 9458 N 884.036 -2.57549 -4.99625 0
M  V30 9459 H 876.187 -1.7484 -1.20602 0
M  V30 9460 H 878.45 -0.743159 -0.588574 0
M  V30 9461 H 878.156 -2.35051 -2.61618 0
M  V30 9462 H 878.03 -0.940367 -3.6529 0
M  V30 9463 H 880.417 -0.250414 -2.94036 0
M  V30 9464 H 880.498 -1.69239 -1.91812 0
M  V30 9465 H 880.142 -3.14984 -3.98431 0
M  V30 9466 H 880.072 -1.68128 -4.9904 0
M  V30 9467 H 882.563 -1.58208 -3.43189 0
M  V30 9468 H 882.876 -3.79258 -6.73338 0
M  V30 9469 H 881.221 -3.40471 -6.05891 0
M  V30 9470 H 884.412 -2.0359 -4.21508 0
M  V30 9471 H 884.585 -3.0437 -5.72069 0
M  V30 9472 N 877.991 1.48044 -0.54043 0
M  V30 9473 C 878.939 2.31461 0.229862 0
M  V30 9474 C 879.933 1.41884 0.925495 0
M  V30 9475 O 881.139 1.58736 0.848689 0
M  V30 9476 H 877.514 0.746227 0.0929975 0
M  V30 9477 H 879.485 2.94297 -0.493118 0
M  V30 9478 C 878.234 3.24172 1.25729 0
M  V30 9479 H 877.557 3.93052 0.731426 0
M  V30 9480 H 878.997 3.85404 1.76747 0
M  V30 9481 C 877.456 2.4651 2.2964 0
M  V30 9482 O 877.986 2.19742 3.36268 0
M  V30 9483 N 876.192 2.07817 2.03127 0
M  V30 9484 H 875.739 2.29786 1.1643 0
M  V30 9485 H 875.697 1.56168 2.72872 0
M  V30 9486 N 879.47 0.276058 1.55163 0
M  V30 9487 C 880.717 -0.340455 1.99618 0
M  V30 9488 C 881.045 -1.5579 1.16446 0
M  V30 9489 O 880.3 -1.94433 0.222359 0
M  V30 9490 C 880.599 -0.765744 3.491 0
M  V30 9491 C 880.265 0.347174 4.49561 0
M  V30 9492 C 878.927 0.65276 4.76752 0
M  V30 9493 C 881.279 1.09705 5.09523 0
M  V30 9494 C 878.607 1.71179 5.61173 0
M  V30 9495 C 880.959 2.14581 5.95095 0
M  V30 9496 C 879.623 2.45773 6.20606 0
M  V30 9497 H 878.893 -0.124581 0.730452 0
M  V30 9498 H 881.54 0.389966 1.87487 0
M  V30 9499 H 879.845 -1.57585 3.58712 0
M  V30 9500 H 881.542 -1.25352 3.80904 0
M  V30 9501 H 878.132 0.0988779 4.28486 0
M  V30 9502 H 882.316 0.874223 4.8854 0
M  V30 9503 H 877.572 1.95846 5.79184 0
M  V30 9504 H 881.746 2.7316 6.40591 0
M  V30 9505 H 879.373 3.27969 6.85813 0
M  V30 9506 N 880.948 -1.576 0.00335426 0
M  V30 9507 C 882.196 -1.90336 -0.679446 0
M  V30 9508 C 882.517 -0.877777 -1.74127 0
M  V30 9509 O 881.787 0.0843585 -1.95718 0
M  V30 9510 H 880.367 -0.702509 -0.253948 0
M  V30 9511 H 883.029 -1.94848 0.0450731 0
M  V30 9512 H 882.125 -2.90197 -1.14857 0
M  V30 9513 N 882.426 0.269451 -1.5528 0
M  V30 9514 C 883.837 0.840233 -1.66724 0
M  V30 9515 C 884.188 1.86909 -0.596621 0
M  V30 9516 O 883.313 2.14817 0.261246 0
M  V30 9517 C 883.908 1.5308 -3.02245 0
M  V30 9518 C 882.467 2.04957 -3.15705 0
M  V30 9519 C 881.614 0.892838 -2.62533 0
M  V30 9520 H 884.565 0.0457236 -1.58634 0
M  V30 9521 H 884.586 2.39792 -2.95432 0
M  V30 9522 H 884.098 0.781741 -3.80145 0
M  V30 9523 H 882.199 2.82813 -2.42585 0
M  V30 9524 H 882.312 2.26244 -4.22316 0
M  V30 9525 H 880.676 1.28719 -2.19781 0
M  V30 9526 H 881.459 0.157229 -3.4294 0
M  V30 9527 N 883.904 1.48273 0.534124 0
M  V30 9528 C 885.129 1.59988 1.31979 0
M  V30 9529 C 885.554 0.258824 1.86311 0
M  V30 9530 O 884.912 -0.768885 1.64188 0
M  V30 9531 C 884.96 2.64642 2.44943 0
M  V30 9532 O 884.064 2.21515 3.47858 0
M  V30 9533 H 883.405 0.536625 0.391063 0
M  V30 9534 H 885.935 1.94229 0.643135 0
M  V30 9535 H 885.945 2.85786 2.91187 0
M  V30 9536 H 884.62 3.62004 2.04758 0
M  V30 9537 H 883.197 2.10567 3.0776 0
M  V30 9538 N 885.382 -0.782676 1.36792 0
M  V30 9539 C 886.793 -1.35828 1.28092 0
M  V30 9540 C 887.144 -1.96052 -0.076315 0
M  V30 9541 O 886.269 -1.93042 -0.977935 0
M  V30 9542 C 886.864 -2.46949 2.31952 0
M  V30 9543 C 885.423 -3.00307 2.2692 0
M  V30 9544 C 884.57 -1.73436 2.16368 0
M  V30 9545 H 887.521 -0.583788 1.47572 0
M  V30 9546 H 887.542 -3.26144 1.95986 0
M  V30 9547 H 887.054 -2.03087 3.30722 0
M  V30 9548 H 885.155 -3.48571 1.31639 0
M  V30 9549 H 885.268 -3.56663 3.19887 0
M  V30 9550 H 883.632 -1.95934 1.62733 0
M  V30 9551 H 884.415 -1.31693 3.17036 0
M  V30 9552 N 886.86 -1.21182 -1.00761 0
M  V30 9553 C 888.088 -1.05335 -1.78079 0
M  V30 9554 C 888.503 0.396988 -1.84579 0
M  V30 9555 O 887.86 1.27548 -1.30529 0
M  V30 9556 C 887.911 -1.64089 -3.22113 0
M  V30 9557 O 887.632 -3.03448 -3.15992 0
M  V30 9558 C 889.133 -1.53318 -4.15943 0
M  V30 9559 H 886.353 -0.37005 -0.559736 0
M  V30 9560 H 888.897 -1.60463 -1.26775 0
M  V30 9561 H 887.052 -1.13059 -3.70535 0
M  V30 9562 H 887.466 -3.31492 -4.06465 0
M  V30 9563 H 888.94 -1.99174 -5.14814 0
M  V30 9564 H 889.417 -0.487166 -4.3649 0
M  V30 9565 H 890.023 -2.03582 -3.73409 0
M  V30 9566 N 888.338 1.20213 -1.01915 0
M  V30 9567 C 889.754 1.41696 -0.734459 0
M  V30 9568 C 889.954 1.89504 0.684867 0
M  V30 9569 O 889.01 2.06556 1.45227 0
M  V30 9570 C 890.323 2.43644 -1.76233 0
M  V30 9571 C 891.871 2.57406 -1.78076 0
M  V30 9572 C 892.346 3.626 -2.79796 0
M  V30 9573 N 893.837 3.70086 -2.78551 0
M  V30 9574 C 894.572 4.51145 -3.53915 0
M  V30 9575 N 894.068 5.35988 -4.38963 0
M  V30 9576 N 895.861 4.45702 -3.425 0
M  V30 9577 H 888.012 0.874976 -1.93541 0
M  V30 9578 H 890.275 0.446647 -0.836188 0
M  V30 9579 H 889.981 2.15519 -2.77929 0
M  V30 9580 H 889.855 3.42672 -1.57657 0
M  V30 9581 H 892.242 2.8486 -0.770634 0
M  V30 9582 H 892.323 1.58565 -2.00725 0
M  V30 9583 H 891.967 3.35889 -3.80973 0
M  V30 9584 H 891.897 4.61069 -2.54407 0
M  V30 9585 H 894.388 3.09484 -2.1686 0
M  V30 9586 H 894.701 5.94932 -4.9323 0
M  V30 9587 H 893.046 5.35482 -4.4304 0
M  V30 9588 H 896.237 3.78456 -2.75478 0
M  V30 9589 H 896.41 5.08637 -4.01487 0
M  V30 9590 N 889.816 0.795718 1.36037 0
M  V30 9591 C 890.726 0.199784 2.33748 0
M  V30 9592 C 891.742 -0.651436 1.61345 0
M  V30 9593 O 892.918 -0.565743 1.93291 0
M  V30 9594 C 889.983 -0.650475 3.40543 0
M  V30 9595 C 889.044 0.219974 4.28736 0
M  V30 9596 C 888.277 -0.589798 5.30431 0
M  V30 9597 O 888.5 -1.82532 5.40406 0
M  V30 9598 O 887.434 0.0136187 6.01898 0
M  V30 9599 H 891.26 1.00782 2.8649 0
M  V30 9600 H 888.845 0.557293 1.38617 0
M  V30 9601 H 890.727 -1.13512 4.05824 0
M  V30 9602 H 889.402 -1.4363 2.9009 0
M  V30 9603 H 888.309 0.751516 3.66474 0
M  V30 9604 H 889.642 0.969468 4.82558 0
M  V30 9605 N 891.294 -1.47756 0.548274 0
M  V30 9606 C 892.542 -2.02089 0.0208542 0
M  V30 9607 C 892.863 -1.42589 -1.33017 0
M  V30 9608 O 892.133 -0.597825 -1.86555 0
M  V30 9609 H 890.713 -0.746985 0.00472023 0
M  V30 9610 H 893.375 -1.81262 0.716257 0
M  V30 9611 H 892.471 -3.12012 -0.0739016 0
M  V30 9612 N 892.772 -0.284283 -1.55015 0
M  V30 9613 C 893.702 0.592663 -2.25853 0
M  V30 9614 C 894.683 1.15151 -1.25197 0
M  V30 9615 O 895.868 1.18395 -1.53936 0
M  V30 9616 C 892.998 1.77254 -2.98661 0
M  V30 9617 C 891.952 1.34482 -4.06323 0
M  V30 9618 C 891.278 2.60853 -4.66754 0
M  V30 9619 C 892.578 0.488288 -5.20013 0
M  V30 9620 H 894.272 0.00187041 -2.994 0
M  V30 9621 H 891.818 -0.000540402 -1.44 0
M  V30 9622 H 893.771 2.39199 -3.46932 0
M  V30 9623 H 892.495 2.38931 -2.22664 0
M  V30 9624 H 891.154 0.748519 -3.58877 0
M  V30 9625 H 890.802 3.20808 -3.87416 0
M  V30 9626 H 890.502 2.32942 -5.39455 0
M  V30 9627 H 892.026 3.23631 -5.1778 0
M  V30 9628 H 893.44 1.01298 -5.6428 0
M  V30 9629 H 891.837 0.303669 -5.99331 0
M  V30 9630 H 892.907 -0.490727 -4.8241 0
M  V30 9631 N 894.251 1.57596 -0.0117121 0
M  V30 9632 C 895.5 1.9025 0.669921 0
M  V30 9633 C 895.813 0.887986 1.74282 0
M  V30 9634 O 897.019 1.10516 2.47989 0
M  V30 9635 C 895.475 3.37762 1.24277 0
M  V30 9636 C 895.083 4.47535 0.204076 0
M  V30 9637 C 896.827 3.79509 1.90192 0
M  V30 9638 C 894.734 5.86132 0.787577 0
M  V30 9639 H 893.664 0.709935 0.253984 0
M  V30 9640 H 896.315 1.8335 -0.0741718 0
M  V30 9641 H 894.697 3.39537 2.03791 0
M  V30 9642 H 895.871 4.57294 -0.56733 0
M  V30 9643 H 894.186 4.14881 -0.355305 0
M  V30 9644 H 896.783 4.80402 2.34773 0
M  V30 9645 H 897.126 3.13643 2.7374 0
M  V30 9646 H 897.659 3.80084 1.17394 0
M  V30 9647 H 894.398 6.55499 -0.00938418 0
M  V30 9648 H 893.918 5.80014 1.52787 0
M  V30 9649 H 895.597 6.34158 1.28265 0
M  V30 9650 N 895.729 -0.261212 1.5542 0
M  V30 9651 C 896.692 -1.30645 1.8832 0
M  V30 9652 C 897.692 -1.41782 0.758588 0
M  V30 9653 O 898.882 -1.40729 1.02669 0
M  V30 9654 C 896.014 -2.6862 2.09895 0
M  V30 9655 H 897.207 -1.02698 2.81768 0
M  V30 9656 H 894.76 -0.499838 1.48092 0
M  V30 9657 H 895.495 -3.0173 1.18868 0
M  V30 9658 H 895.28 -2.61921 2.91787 0
M  V30 9659 H 896.77 -3.44121 2.36581 0
M  V30 9660 N 897.207 -1.48554 -0.526253 0
M  V30 9661 C 898.455 -1.56452 -1.27935 0
M  V30 9662 C 898.776 -0.24184 -1.93495 0
M  V30 9663 O 898.046 0.736917 -1.81511 0
M  V30 9664 H 896.626 -0.576379 -0.47518 0
M  V30 9665 H 899.288 -1.85039 -0.612083 0
M  V30 9666 H 898.384 -2.34751 -2.05666 0
M  V30 9667 N 898.685 0.775411 -1.37205 0
M  V30 9668 C 899.595 1.91967 -1.34855 0
M  V30 9669 C 900.611 1.72214 -0.248656 0
M  V30 9670 O 901.787 1.95512 -0.483421 0
M  V30 9671 C 898.852 3.27038 -1.15096 0
M  V30 9672 C 897.913 3.5947 -2.34691 0
M  V30 9673 C 897.146 4.88097 -2.15865 0
M  V30 9674 O 897.369 5.58871 -1.14102 0
M  V30 9675 O 896.303 5.19507 -3.03967 0
M  V30 9676 H 900.129 1.969 -2.31223 0
M  V30 9677 H 897.714 0.917647 -1.17897 0
M  V30 9678 H 899.596 4.07837 -1.0605 0
M  V30 9679 H 898.271 3.22965 -0.217999 0
M  V30 9680 H 897.178 2.7892 -2.49308 0
M  V30 9681 H 898.511 3.68282 -3.26541 0
M  V30 9682 N 900.163 1.21714 1.00117 0
M  V30 9683 C 901.11 0.979837 2.08968 0
M  V30 9684 C 902.08 -0.0955324 1.65825 0
M  V30 9685 O 903.265 0.0523742 1.90728 0
M  V30 9686 C 900.405 0.554758 3.40612 0
M  V30 9687 C 899.518 1.69999 3.97145 0
M  V30 9688 C 898.653 1.2237 5.16913 0
M  V30 9689 C 897.692 2.34101 5.65564 0
M  V30 9690 N 896.829 1.87579 6.76579 0
M  V30 9691 H 901.669 1.91167 2.28602 0
M  V30 9692 H 899.206 0.952645 1.12085 0
M  V30 9693 H 901.164 0.289526 4.16194 0
M  V30 9694 H 899.794 -0.340073 3.21004 0
M  V30 9695 H 898.846 2.07976 3.18512 0
M  V30 9696 H 900.158 2.54074 4.29241 0
M  V30 9697 H 899.312 0.915358 5.99755 0
M  V30 9698 H 898.051 0.353045 4.8642 0
M  V30 9699 H 897.056 2.65734 4.81316 0
M  V30 9700 H 898.281 3.21669 5.98085 0
M  V30 9701 H 896.227 1.02863 6.47885 0
M  V30 9702 H 896.144 2.65225 7.07949 0
M  V30 9703 H 897.412 1.5979 7.62947 0
M  V30 9704 N 901.641 -1.19671 1.02551 0
M  V30 9705 C 902.551 -2.26441 0.613329 0
M  V30 9706 C 903.567 -1.70375 -0.353339 0
M  V30 9707 O 904.743 -2.0028 -0.212064 0
M  V30 9708 C 901.808 -3.46684 -0.0329028 0
M  V30 9709 C 900.869 -4.17945 0.980837 0
M  V30 9710 C 900.102 -5.32448 0.36535 0
M  V30 9711 O 900.325 -5.64291 -0.832596 0
M  V30 9712 O 899.259 -5.92012 1.08652 0
M  V30 9713 H 903.085 -2.63932 1.50246 0
M  V30 9714 H 900.67 -1.2646 0.795502 0
M  V30 9715 H 902.552 -4.1956 -0.393395 0
M  V30 9716 H 901.227 -3.1105 -0.896089 0
M  V30 9717 H 900.134 -3.47204 1.39286 0
M  V30 9718 H 901.467 -4.57542 1.81428 0
M  V30 9719 N 903.119 -0.802921 -1.35613 0
M  V30 9720 C 904.347 -0.39393 -2.03115 0
M  V30 9721 C 904.762 0.993961 -1.60517 0
M  V30 9722 O 904.119 1.63984 -0.800973 0
M  V30 9723 C 904.17 -0.463486 -3.58516 0
M  V30 9724 O 903.891 -1.79666 -3.99565 0
M  V30 9725 C 905.392 -0.0468377 -4.43275 0
M  V30 9726 H 902.612 -0.160519 -0.651517 0
M  V30 9727 H 905.156 -1.08552 -1.73311 0
M  V30 9728 H 903.311 0.179821 -3.86982 0
M  V30 9729 H 903.725 -1.75688 -4.942 0
M  V30 9730 H 905.199 -0.146626 -5.51805 0
M  V30 9731 H 905.676 1.00741 -4.2749 0
M  V30 9732 H 906.282 -0.663158 -4.20098 0
M  V30 9733 N 904.597 1.47463 -0.556102 0
M  V30 9734 C 905.547 2.27007 0.212592 0
M  V30 9735 C 906.531 1.34288 0.886312 0
M  V30 9736 O 907.723 1.5865 0.784801 0
M  V30 9737 C 904.852 3.20021 1.24263 0
M  V30 9738 C 903.938 4.2022 0.572385 0
M  V30 9739 N 904.329 5.04539 -0.35691 0
M  V30 9740 C 902.627 4.38276 0.826441 0
M  V30 9741 C 903.328 5.76895 -0.746134 0
M  V30 9742 N 902.304 5.43506 -0.101225 0
M  V30 9743 H 906.106 2.89582 -0.501925 0
M  V30 9744 H 903.62 1.57988 -0.375961 0
M  V30 9745 H 905.617 3.7569 1.80728 0
M  V30 9746 H 904.277 2.59003 1.95826 0
M  V30 9747 H 905.288 5.12715 -0.731012 0
M  V30 9748 H 901.965 3.88429 1.53066 0
M  V30 9749 H 903.355 6.5472 -1.50967 0
M  V30 9750 N 906.075 0.2925 1.54862 0
M  V30 9751 C 907.005 -0.580677 2.26165 0
M  V30 9752 C 907.986 -1.14485 1.25806 0
M  V30 9753 O 909.171 -1.17577 1.54562 0
M  V30 9754 C 906.301 -1.75668 2.99596 0
M  V30 9755 C 905.255 -1.32325 4.07031 0
M  V30 9756 C 904.581 -2.58374 4.68131 0
M  V30 9757 C 905.881 -0.460703 5.20264 0
M  V30 9758 H 907.575 0.0140075 2.99397 0
M  V30 9759 H 905.121 0.00817706 1.43998 0
M  V30 9760 H 907.074 -2.37356 3.48195 0
M  V30 9761 H 905.798 -2.37747 2.23928 0
M  V30 9762 H 904.457 -0.729477 3.59269 0
M  V30 9763 H 904.105 -3.18749 3.89112 0
M  V30 9764 H 903.805 -2.30078 5.40683 0
M  V30 9765 H 905.329 -3.2088 5.19489 0
M  V30 9766 H 906.743 -0.983037 5.64809 0
M  V30 9767 H 905.14 -0.271881 5.99484 0
M  V30 9768 H 906.21 0.516304 4.82143 0
M  V30 9769 O 907.592 -1.60718 0.15878 0
M  V30 9770 H 908.283 -1.88795 -0.433148 0
M  V30 END ATOM
M  V30 BEGIN BOND
M  V30 END BOND
M  V30 END CTAB
M  END
$$$$
