drugbank_target|P00929 Tryptophan synthase alpha chain (DB03171; DB04143; DB07732; DB07745; DB07748; DB07773; DB07890; DB07894; DB07925; DB07951; DB07952; DB07953)
 OpenBabel12092120463D

  0  0  0     0  0            999 V3000
M  V30 BEGIN CTAB
M  V30 COUNTS 4047 4087 0 0 0
M  V30 BEGIN ATOM
M  V30 1 H -0.908 1.98254 -0.117106 0
M  V30 2 N 0 1.576 0 0
M  V30 3 C 0.933 2.03868 1.02534 0
M  V30 4 C 1.911 0.928543 1.3348 0
M  V30 5 O 3.095 1.19667 1.45644 0
M  V30 6 C 0.222 2.43627 2.35294 0
M  V30 7 C -0.732 3.65373 2.2001 0
M  V30 8 S 0.101 5.13292 1.52614 0
M  V30 9 C 1.257 5.56322 2.86805 0
M  V30 10 H 1.49 2.90518 0.631377 0
M  V30 11 H -0.977 1.52953 0.210867 0
M  V30 12 H 0.981 2.67203 3.11629 0
M  V30 13 H -0.358 1.57376 2.7183 0
M  V30 14 H -1.165 3.90944 3.18086 0
M  V30 15 H -1.563 3.418 1.51819 0
M  V30 16 H 0.729 5.58782 3.83104 0
M  V30 17 H 1.672 6.56266 2.65933 0
M  V30 18 H 2.08 4.83886 2.90714 0
M  V30 19 N 1.4781 -0.272755 1.55222 0
M  V30 20 C 2.3881 -1.35918 1.91216 0
M  V30 21 C 3.4041 -1.54026 0.809436 0
M  V30 22 O 4.5801 -1.68148 1.10852 0
M  V30 23 C 1.6451 -2.69834 2.17693 0
M  V30 24 C 0.7061 -2.6047 3.41253 0
M  V30 25 C -0.0609 -3.88 3.66458 0
M  V30 26 O 0.1621 -4.88693 2.94169 0
M  V30 27 O -0.9039 -3.88189 4.59992 0
M  V30 28 H 2.9221 -1.0839 2.83699 0
M  V30 29 H 0.5071 -0.471301 1.41771 0
M  V30 30 H 2.3891 -3.49017 2.36147 0
M  V30 31 H 1.0641 -2.97148 1.28392 0
M  V30 32 H -0.0289 -1.79663 3.28134 0
M  V30 33 H 1.3041 -2.38106 4.30774 0
M  V30 34 N 2.9562 -1.48159 -0.537278 0
M  V30 35 C 4.3722 -1.34118 -0.865129 0
M  V30 36 C 4.5722 -0.346678 -1.98495 0
M  V30 37 O 3.6282 0.234715 -2.51407 0
M  V30 38 C 4.9412 -2.73963 -1.23954 0
M  V30 39 C 6.4892 -2.82397 -1.34984 0
M  V30 40 C 6.9642 -4.22928 -1.75772 0
M  V30 41 N 8.4552 -4.25566 -1.82887 0
M  V30 42 C 9.1902 -5.31235 -2.15817 0
M  V30 43 N 8.6862 -6.47189 -2.47222 0
M  V30 44 N 10.4792 -5.18624 -2.16761 0
M  V30 45 H 2.6302 -2.1144 0.201715 0
M  V30 46 H 4.8932 -0.947598 0.0275949 0
M  V30 47 H 4.5992 -3.48264 -0.490381 0
M  V30 48 H 4.4732 -3.0702 -2.19132 0
M  V30 49 H 6.8602 -2.08356 -2.08978 0
M  V30 50 H 6.9412 -2.5297 -0.379448 0
M  V30 51 H 6.5852 -4.97482 -1.02341 0
M  V30 52 H 6.5152 -4.49794 -2.73848 0
M  V30 53 H 9.0062 -3.41924 -1.60924 0
M  V30 54 H 9.3192 -7.23564 -2.71433 0
M  V30 55 H 7.6642 -6.50476 -2.44757 0
M  V30 56 H 10.8552 -4.27056 -1.91679 0
M  V30 57 H 11.0282 -6.01078 -2.42093 0
M  V30 58 N 4.4343 0.785586 -1.36625 0
M  V30 59 C 5.6643 1.5722 -1.34036 0
M  V30 60 C 6.0723 1.89033 0.0795062 0
M  V30 61 O 5.4153 1.50881 1.04789 0
M  V30 62 C 5.4773 2.91759 -2.10041 0
M  V30 63 C 5.1413 2.82654 -3.59104 0
M  V30 64 C 6.1383 2.54634 -4.53274 0
M  V30 65 C 3.8233 3.01111 -4.02042 0
M  V30 66 C 5.8173 2.45177 -5.88359 0
M  V30 67 C 3.5043 2.91276 -5.37216 0
M  V30 68 C 4.5023 2.63348 -6.30188 0
M  V30 69 O 4.1903 2.53514 -7.6288 0
M  V30 70 H 3.9223 0.494177 -0.461265 0
M  V30 71 H 6.4763 0.982632 -1.8037 0
M  V30 72 H 4.7063 3.52781 -1.58375 0
M  V30 73 H 6.3953 3.53059 -2.00261 0
M  V30 74 H 7.1613 2.40073 -4.21414 0
M  V30 75 H 3.0403 3.21854 -3.30047 0
M  V30 76 H 6.5843 2.23299 -6.60896 0
M  V30 77 H 2.4813 3.054 -5.68684 0
M  V30 78 H 3.2493 2.68967 -7.73045 0
M  V30 79 N 5.9124 1.20967 1.01018 0
M  V30 80 C 6.8224 0.980157 2.13143 0
M  V30 81 C 7.8384 -0.0660665 1.73875 0
M  V30 82 O 9.0144 0.122821 2.01025 0
M  V30 83 C 6.0794 0.54216 3.42435 0
M  V30 84 C 5.1404 1.65999 3.95908 0
M  V30 85 C 4.3734 1.2428 5.19028 0
M  V30 86 O 4.5964 0.114196 5.70286 0
M  V30 87 O 3.5304 2.05271 5.65816 0
M  V30 88 H 7.3564 1.91913 2.35379 0
M  V30 89 H 4.9414 0.994099 1.11526 0
M  V30 90 H 6.8234 0.30744 4.20277 0
M  V30 91 H 5.4984 -0.36815 3.216 0
M  V30 92 H 4.4054 1.94906 3.19316 0
M  V30 93 H 5.7384 2.54753 4.21143 0
M  V30 94 N 7.3905 -1.2043 1.01659 0
M  V30 95 C 8.3385 -2.25249 0.580143 0
M  V30 96 C 9.3325 -1.65057 -0.381115 0
M  V30 97 O 10.5385 -1.78241 -0.251039 0
M  V30 98 H 6.9135 -0.732695 0.169299 0
M  V30 99 H 8.8845 -2.59389 1.47512 0
M  V30 100 C 7.6335 -3.47638 -0.065788 0
M  V30 101 H 6.9565 -3.94233 0.664874 0
M  V30 102 H 8.3965 -4.2268 -0.334282 0
M  V30 103 C 6.8555 -3.10447 -1.3086 0
M  V30 104 O 7.3855 -3.21981 -2.4019 0
M  V30 105 N 5.5915 -2.64996 -1.1927 0
M  V30 106 H 5.1385 -2.55811 -0.303064 0
M  V30 107 H 5.0965 -2.40482 -2.02523 0
M  V30 108 N 8.8686 -0.792821 -1.36206 0
M  V30 109 C 9.7986 -0.207853 -2.32573 0
M  V30 110 C 10.7796 0.659055 -1.56813 0
M  V30 111 O 11.9646 0.592176 -1.84951 0
M  V30 112 C 9.0946 0.655449 -3.41059 0
M  V30 113 C 8.0486 -0.111842 -4.27854 0
M  V30 114 C 7.3746 0.872274 -5.27537 0
M  V30 115 C 8.6746 -1.30299 -5.05786 0
M  V30 116 H 10.3686 -1.01294 -2.81744 0
M  V30 117 H 7.9146 -0.48854 -1.3546 0
M  V30 118 H 9.8676 1.07464 -4.07467 0
M  V30 119 H 8.5916 1.49328 -2.90463 0
M  V30 120 H 7.2506 -0.512053 -3.63006 0
M  V30 121 H 6.8986 1.70523 -4.73214 0
M  V30 122 H 6.5986 0.363291 -5.86476 0
M  V30 123 H 8.1226 1.28996 -5.96818 0
M  V30 124 H 9.5366 -0.959379 -5.65216 0
M  V30 125 H 7.9336 -1.7455 -5.74154 0
M  V30 126 H 9.0036 -2.09663 -4.37229 0
M  V30 127 N 10.3467 1.47872 -0.545128 0
M  V30 128 C 11.5937 2.02493 -0.0165858 0
M  V30 129 C 11.9217 1.42073 1.32836 0
M  V30 130 O 11.1767 0.561459 1.87473 0
M  V30 131 C 11.4757 3.57131 0.13867 0
M  V30 132 C 11.1417 4.36411 -1.13384 0
M  V30 133 C 9.8037 4.57792 -1.48256 0
M  V30 134 C 12.1557 4.82223 -1.97764 0
M  V30 135 C 9.4837 5.22233 -2.67376 0
M  V30 136 C 11.8357 5.47977 -3.16076 0
M  V30 137 C 10.4997 5.67593 -3.51275 0
M  V30 138 H 9.7697 0.740975 -0.00606918 0
M  V30 139 H 12.4167 1.77683 -0.714207 0
M  V30 140 H 10.7217 3.80865 0.919172 0
M  V30 141 H 12.4187 3.97031 0.562782 0
M  V30 142 H 9.0087 4.2004 -0.852297 0
M  V30 143 H 13.1927 4.65493 -1.72132 0
M  V30 144 H 8.4487 5.35616 -2.94831 0
M  V30 145 H 12.6227 5.8244 -3.81755 0
M  V30 146 H 10.2497 6.17298 -4.43675 0
M  V30 147 N 11.8248 0.280983 1.55075 0
M  V30 148 C 12.7878 -0.590896 2.21452 0
M  V30 149 C 13.7878 -1.07682 1.19421 0
M  V30 150 O 14.9778 -0.97605 1.44288 0
M  V30 151 C 12.1098 -1.81587 2.88511 0
M  V30 152 H 13.3028 -0.0112554 2.99898 0
M  V30 153 H 10.8558 0.0316438 1.56268 0
M  V30 154 H 11.5908 -2.43587 2.14093 0
M  V30 155 H 11.3758 -1.4753 3.63287 0
M  V30 156 H 12.8658 -2.43575 3.39206 0
M  V30 157 N 13.3029 -1.57598 0.00835791 0
M  V30 158 C 14.2349 -2.05811 -1.00868 0
M  V30 159 C 15.2479 -0.977579 -1.30182 0
M  V30 160 O 16.4369 -1.25421 -1.27011 0
M  V30 161 C 13.5369 -2.45016 -2.34137 0
M  V30 162 C 12.7099 -3.75903 -2.23643 0
M  V30 163 C 11.7689 -4.01884 -3.3967 0
M  V30 164 O 10.7949 -4.72433 -3.17483 0
M  V30 165 N 11.9969 -3.50432 -4.62793 0
M  V30 166 H 14.7619 -2.93684 -0.597458 0
M  V30 167 H 12.3229 -1.60909 -0.178852 0
M  V30 168 H 14.3149 -2.59506 -3.10546 0
M  V30 169 H 12.8849 -1.62618 -2.66972 0
M  V30 170 H 12.1049 -3.7141 -1.32091 0
M  V30 171 H 13.3929 -4.61695 -2.13812 0
M  V30 172 H 12.7909 -2.93317 -4.83716 0
M  V30 173 H 11.3479 -3.70236 -5.3644 0
M  V30 174 N 14.781 0.264519 -1.55364 0
M  V30 175 C 15.711 1.33121 -1.91836 0
M  V30 176 C 16.692 1.51101 -0.781192 0
M  V30 177 O 17.877 1.64003 -1.04003 0
M  V30 178 C 15.007 2.68921 -2.19769 0
M  V30 179 C 13.961 2.65661 -3.35571 0
M  V30 180 C 13.287 4.05093 -3.49004 0
M  V30 181 C 14.587 2.24187 -4.71739 0
M  V30 182 H 16.281 1.02844 -2.81182 0
M  V30 183 H 13.827 0.493286 -1.35287 0
M  V30 184 H 15.78 3.43663 -2.43872 0
M  V30 185 H 14.504 3.00799 -1.27231 0
M  V30 186 H 13.163 1.93377 -3.1145 0
M  V30 187 H 12.811 4.34206 -2.53917 0
M  V30 188 H 12.511 4.03804 -4.26868 0
M  V30 189 H 14.035 4.81561 -3.75408 0
M  V30 190 H 15.449 2.88654 -4.9533 0
M  V30 191 H 13.846 2.34044 -5.52579 0
M  V30 192 H 14.916 1.19327 -4.69988 0
M  V30 193 N 16.2591 1.48442 0.529413 0
M  V30 194 C 17.2071 1.63452 1.65487 0
M  V30 195 C 18.2011 0.500955 1.61823 0
M  V30 196 O 19.4071 0.679695 1.66674 0
M  V30 197 H 15.7821 0.514905 0.548066 0
M  V30 198 H 17.7531 2.57975 1.49971 0
M  V30 199 C 16.5021 1.69196 3.03756 0
M  V30 200 H 15.8251 2.55784 3.07269 0
M  V30 201 H 17.2651 1.83743 3.82119 0
M  V30 202 C 15.7241 0.430765 3.34135 0
M  V30 203 O 16.2541 -0.4561 3.99102 0
M  V30 204 N 14.4601 0.302293 2.89023 0
M  V30 205 H 14.0071 1.02496 2.36331 0
M  V30 206 H 13.9651 -0.540546 3.09718 0
M  V30 207 N 17.7372 -0.778329 1.37039 0
M  V30 208 C 19.0142 -1.52551 1.22424 0
M  V30 209 C 19.3942 -2.10288 -0.184964 0
M  V30 210 O 18.7422 -1.94953 -1.19187 0
M  V30 211 C 18.9522 -2.61164 2.31504 0
M  V30 212 C 20.3002 -3.28746 2.68721 0
M  V30 213 O 21.3242 -2.71455 2.30631 0
M  V30 214 O 20.1832 -4.3231 3.3432 0
M  V30 215 H 17.2772 -0.675343 0.477326 0
M  V30 216 H 19.8232 -0.815859 1.48801 0
M  V30 217 H 18.5952 -2.16574 3.25901 0
M  V30 218 H 18.2182 -3.39737 2.06554 0
M  V30 219 N 19.2153 -1.21501 -1.00376 0
M  V30 220 C 20.6313 -0.972629 -1.26539 0
M  V30 221 C 20.8313 0.340257 -1.98606 0
M  V30 222 O 19.8873 1.06561 -2.28913 0
M  V30 223 C 21.2003 -2.16404 -2.08781 0
M  V30 224 C 22.7483 -2.20643 -2.22004 0
M  V30 225 C 23.2233 -3.39306 -3.07629 0
M  V30 226 N 24.7143 -3.39401 -3.15217 0
M  V30 227 C 25.4493 -4.27867 -3.81729 0
M  V30 228 N 24.9453 -5.26533 -4.5026 0
M  V30 229 N 26.7383 -4.15672 -3.78382 0
M  V30 230 H 18.8893 -2.05929 -0.520281 0
M  V30 231 H 21.1523 -0.901803 -0.292328 0
M  V30 232 H 20.8583 -3.11554 -1.63178 0
M  V30 233 H 20.7323 -2.15567 -3.09533 0
M  V30 234 H 23.1193 -1.26048 -2.66825 0
M  V30 235 H 23.2003 -2.25523 -1.20718 0
M  V30 236 H 22.8443 -4.34195 -2.63509 0
M  V30 237 H 22.7743 -3.31665 -4.09031 0
M  V30 238 H 25.2653 -2.67997 -2.66432 0
M  V30 239 H 25.5783 -5.90337 -4.98721 0
M  V30 240 H 23.9233 -5.30457 -4.49044 0
M  V30 241 H 27.1143 -3.3785 -3.23998 0
M  V30 242 H 27.2873 -4.84825 -4.2994 0
M  V30 243 N 20.6934 1.19889 -1.02296 0
M  V30 244 C 22.1094 1.41462 -0.738954 0
M  V30 245 C 22.3094 1.89721 0.678846 0
M  V30 246 O 21.3654 2.07016 1.4457 0
M  V30 247 C 22.6784 2.43083 -1.77005 0
M  V30 248 C 24.2264 2.5684 -1.78892 0
M  V30 249 C 24.7014 3.61709 -2.80945 0
M  V30 250 N 26.1924 3.69199 -2.79725 0
M  V30 251 C 26.9274 4.50019 -3.55345 0
M  V30 252 N 26.4234 5.34592 -4.40662 0
M  V30 253 N 28.2164 4.44612 -3.43914 0
M  V30 254 H 20.3674 0.868827 -1.93817 0
M  V30 255 H 22.6304 0.44399 -0.837602 0
M  V30 256 H 22.3364 2.14636 -2.78612 0
M  V30 257 H 22.2104 3.4217 -1.58744 0
M  V30 258 H 24.5974 2.84614 -0.779674 0
M  V30 259 H 24.6784 1.57927 -2.01228 0
M  V30 260 H 24.3224 3.34678 -3.82038 0
M  V30 261 H 24.2524 4.60259 -2.5587 0
M  V30 262 H 26.7434 3.08794 -2.17842 0
M  V30 263 H 27.0564 5.93363 -4.95116 0
M  V30 264 H 25.4014 5.34073 -4.44737 0
M  V30 265 H 28.5924 3.7758 -2.76679 0
M  V30 266 H 28.7654 5.0736 -4.031 0
M  V30 267 N 22.1715 0.800033 1.35784 0
M  V30 268 C 23.0815 0.207204 2.33683 0
M  V30 269 C 24.0975 -0.64631 1.61551 0
M  V30 270 O 25.2735 -0.559604 1.93469 0
M  V30 271 C 22.3385 -0.639659 3.40748 0
M  V30 272 C 21.3995 0.233585 4.28664 0
M  V30 273 C 20.6325 -0.572954 5.30616 0
M  V30 274 O 20.8555 -1.80816 5.40982 0
M  V30 275 O 19.7895 0.0327285 6.01891 0
M  V30 276 H 23.6155 1.01692 2.86169 0
M  V30 277 H 21.2005 0.561691 1.38439 0
M  V30 278 H 23.0825 -1.12223 4.06182 0
M  V30 279 H 21.7575 -1.42708 2.90544 0
M  V30 280 H 20.6645 0.763147 3.66233 0
M  V30 281 H 21.9975 0.984784 4.82248 0
M  V30 282 N 23.6496 -1.47581 0.552962 0
M  V30 283 C 24.8976 -2.02082 0.0272703 0
M  V30 284 C 25.2186 -1.4301 -1.32563 0
M  V30 285 O 24.4886 -0.603745 -1.86365 0
M  V30 286 H 23.0686 -0.746966 0.00709182 0
M  V30 287 H 25.7306 -1.81033 0.722008 0
M  V30 288 H 24.8266 -3.12034 -0.0639951 0
M  V30 289 N 25.1277 -0.289203 -1.54924 0
M  V30 290 C 26.0907 0.579144 -2.21762 0
M  V30 291 C 27.0907 1.07047 -1.1999 0
M  V30 292 O 28.2807 0.968384 -1.44803 0
M  V30 293 C 25.4127 1.80055 -2.8947 0
M  V30 294 H 26.6057 -0.00464908 -2.999 0
M  V30 295 H 24.1587 -0.0399306 -1.56249 0
M  V30 296 H 24.8937 2.42449 -2.15381 0
M  V30 297 H 24.6787 1.45602 -3.64064 0
M  V30 298 H 26.1687 2.41773 -3.40493 0
M  V30 299 N 26.6058 1.57591 -0.0167156 0
M  V30 300 C 27.8528 1.91283 0.664597 0
M  V30 301 C 28.1808 0.891949 1.72842 0
M  V30 302 O 27.4358 -0.100931 1.9544 0
M  V30 303 C 27.7348 3.3172 1.33029 0
M  V30 304 C 27.4008 4.4914 0.398047 0
M  V30 305 C 26.0628 4.80992 0.141421 0
M  V30 306 C 28.4148 5.20634 -0.242825 0
M  V30 307 C 25.7428 5.81703 -0.764092 0
M  V30 308 C 28.0948 6.22311 -1.13632 0
M  V30 309 C 26.7588 6.52611 -1.40196 0
M  V30 310 H 26.0288 0.699956 0.243193 0
M  V30 311 H 28.6758 1.9135 -0.0758267 0
M  V30 312 H 26.9808 3.27856 2.14517 0
M  V30 313 H 28.6778 3.55055 1.86379 0
M  V30 314 H 25.2678 4.24262 0.608238 0
M  V30 315 H 29.4518 4.96267 -0.0576019 0
M  V30 316 H 24.7078 6.03532 -0.977732 0
M  V30 317 H 28.8818 6.76834 -1.63917 0
M  V30 318 H 26.5088 7.30467 -2.10529 0
M  V30 319 N 28.0839 -0.256276 1.55502 0
M  V30 320 C 29.3299 -0.987079 1.77157 0
M  V30 321 C 29.6629 -1.85327 0.580315 0
M  V30 322 O 28.9379 -1.89874 -0.421686 0
M  V30 323 C 29.2209 -1.85553 3.08613 0
M  V30 324 C 29.0739 -1.01816 4.38125 0
M  V30 325 C 30.3929 -2.8397 3.36228 0
M  V30 326 H 27.5119 -0.357428 0.644526 0
M  V30 327 H 30.1539 -0.258239 1.88237 0
M  V30 328 H 28.3039 -2.47695 2.99298 0
M  V30 329 H 29.9759 -0.416159 4.59419 0
M  V30 330 H 28.2189 -0.322178 4.32602 0
M  V30 331 H 28.8899 -1.65939 5.26468 0
M  V30 332 H 31.3659 -2.31964 3.45445 0
M  V30 333 H 30.2419 -3.41864 4.29442 0
M  V30 334 H 30.5029 -3.59955 2.56681 0
M  V30 335 N 29.562 -1.4872 -0.521534 0
M  V30 336 C 30.973 -1.50607 -1.10337 0
M  V30 337 C 31.324 -0.280612 -1.94183 0
M  V30 338 O 30.449 0.611507 -2.0758 0
M  V30 339 C 31.044 -2.72903 -2.00772 0
M  V30 340 C 29.603 -2.77634 -2.54158 0
M  V30 341 C 28.75 -2.44241 -1.31307 0
M  V30 342 H 31.701 -1.55714 -0.306388 0
M  V30 343 H 31.722 -2.519 -2.85178 0
M  V30 344 H 31.234 -3.62077 -1.39721 0
M  V30 345 H 29.335 -1.92689 -3.18907 0
M  V30 346 H 29.448 -3.79283 -2.92714 0
M  V30 347 H 27.812 -1.95577 -1.63161 0
M  V30 348 H 28.595 -3.35666 -0.719943 0
M  V30 349 N 31.0401 0.771051 -1.3745 0
M  V30 350 C 32.2871 1.52963 -1.32697 0
M  V30 351 C 32.6151 1.94299 0.0883274 0
M  V30 352 O 31.8701 1.64397 1.0617 0
M  V30 353 C 32.1691 2.80676 -2.2126 0
M  V30 354 C 31.8351 2.58389 -3.69521 0
M  V30 355 C 30.4971 2.52019 -4.09927 0
M  V30 356 C 32.8491 2.38469 -4.63446 0
M  V30 357 C 30.1771 2.23721 -5.42371 0
M  V30 358 C 32.5291 2.11694 -5.96128 0
M  V30 359 C 31.1931 2.03769 -6.35637 0
M  V30 360 H 30.4631 0.559732 -0.485573 0
M  V30 361 H 33.1101 0.888083 -1.69662 0
M  V30 362 H 31.4151 3.49392 -1.77291 0
M  V30 363 H 33.1121 3.38557 -2.14895 0
M  V30 364 H 29.7021 2.6421 -3.37478 0
M  V30 365 H 33.8861 2.4238 -4.33089 0
M  V30 366 H 29.1421 2.16081 -5.71943 0
M  V30 367 H 33.3161 1.9528 -6.6846 0
M  V30 368 H 30.9431 1.81606 -7.38189 0
M  V30 369 N 32.5182 1.22032 0.997298 0
M  V30 370 C 33.7642 1.04376 1.73878 0
M  V30 371 C 34.0972 -0.420716 1.89588 0
M  V30 372 O 33.3722 -1.31202 1.43583 0
M  V30 373 C 33.6552 1.75047 3.14691 0
M  V30 374 C 33.5082 3.29062 3.06656 0
M  V30 375 C 34.8272 1.49928 4.13775 0
M  V30 376 H 31.9462 0.380578 0.631133 0
M  V30 377 H 34.5882 1.50312 1.16217 0
M  V30 378 H 32.7382 1.35996 3.63919 0
M  V30 379 H 34.4102 3.7753 2.65083 0
M  V30 380 H 32.6532 3.58967 2.43568 0
M  V30 381 H 33.3242 3.73683 4.06282 0
M  V30 382 H 35.8002 1.83842 3.73285 0
M  V30 383 H 34.6762 2.01878 5.10428 0
M  V30 384 H 34.9372 0.430929 4.39995 0
M  V30 385 N 33.9963 -1.19345 1.0293 0
M  V30 386 C 35.2243 -1.92997 0.745644 0
M  V30 387 C 35.6393 -1.75519 -0.695589 0
M  V30 388 O 34.9963 -1.07737 -1.47306 0
M  V30 389 C 35.0473 -3.44741 1.08792 0
M  V30 390 O 34.7683 -3.61658 2.47256 0
M  V30 391 C 36.2693 -4.35515 0.827129 0
M  V30 392 H 33.4893 -0.613042 0.272801 0
M  V30 393 H 36.0333 -1.51473 1.3739 0
M  V30 394 H 34.1883 -3.84097 0.504832 0
M  V30 395 H 34.6023 -4.55514 2.60015 0
M  V30 396 H 36.0763 -5.40589 1.11658 0
M  V30 397 H 36.5533 -4.38552 -0.238436 0
M  V30 398 H 37.1593 -4.01841 1.39297 0
M  V30 399 N 35.4744 -0.807222 -1.35358 0
M  V30 400 C 36.4044 -0.232509 -2.3234 0
M  V30 401 C 37.3854 0.642386 -1.57504 0
M  V30 402 O 38.5704 0.572526 -1.85569 0
M  V30 403 C 35.7004 0.619238 -3.41735 0
M  V30 404 C 34.6544 -0.157215 -4.27711 0
M  V30 405 C 33.9804 0.816273 -5.28433 0
M  V30 406 C 35.2804 -1.35656 -5.04376 0
M  V30 407 H 36.9744 -1.04276 -2.80654 0
M  V30 408 H 34.5204 -0.50288 -1.34934 0
M  V30 409 H 36.4734 1.03137 -4.08584 0
M  V30 410 H 35.1974 1.46239 -2.92031 0
M  V30 411 H 33.8564 -0.550525 -3.62443 0
M  V30 412 H 33.5044 1.65494 -4.74996 0
M  V30 413 H 33.2044 0.301067 -5.86828 0
M  V30 414 H 34.7284 1.22659 -5.98153 0
M  V30 415 H 36.1424 -1.01927 -5.64166 0
M  V30 416 H 34.5394 -1.8063 -5.7227 0
M  V30 417 H 35.6094 -2.14288 -4.34981 0
M  V30 418 N 36.9525 1.47285 -0.560781 0
M  V30 419 C 38.2005 2.02064 -0.0379868 0
M  V30 420 C 38.5215 1.43711 1.31803 0
M  V30 421 O 37.7915 0.61362 1.86042 0
M  V30 422 H 36.3715 0.746918 -0.0110531 0
M  V30 423 H 39.0335 1.80648 -0.731598 0
M  V30 424 H 38.1295 3.12064 0.0474463 0
M  V30 425 N 38.4306 0.297415 1.54768 0
M  V30 426 C 39.7076 -0.365847 1.92148 0
M  V30 427 C 40.0876 -1.71975 1.22424 0
M  V30 428 O 39.4356 -2.25666 0.358739 0
M  V30 429 C 39.6456 -0.484056 3.45627 0
M  V30 430 C 40.9936 -0.756594 4.17805 0
M  V30 431 O 42.0176 -0.568007 3.51642 0
M  V30 432 O 40.8766 -1.11863 5.34929 0
M  V30 433 H 37.9706 -0.203919 0.801465 0
M  V30 434 H 40.5166 0.34521 1.66152 0
M  V30 435 H 39.2886 0.467865 3.88493 0
M  V30 436 H 38.9116 -1.24372 3.77647 0
M  V30 437 N 39.9087 -1.5758 0.0250728 0
M  V30 438 C 41.3197 -1.79476 -0.514323 0
M  V30 439 C 41.6707 -0.934956 -1.72491 0
M  V30 440 O 40.7957 -0.144245 -2.15919 0
M  V30 441 C 41.3907 -3.25503 -0.939842 0
M  V30 442 C 39.9497 -3.48408 -1.42438 0
M  V30 443 C 39.0967 -2.74583 -0.387201 0
M  V30 444 H 42.0477 -1.567 0.25113 0
M  V30 445 H 42.0687 -3.34992 -1.80445 0
M  V30 446 H 41.5807 -3.88056 -0.0585628 0
M  V30 447 H 39.6817 -2.91103 -2.32572 0
M  V30 448 H 39.7947 -4.57119 -1.43455 0
M  V30 449 H 38.1587 -2.39942 -0.854409 0
M  V30 450 H 38.9417 -3.39849 0.485543 0
M  V30 451 N 41.3868 0.248026 -1.55636 0
M  V30 452 C 42.6348 0.974295 -1.77065 0
M  V30 453 C 42.9558 1.85897 -0.588849 0
M  V30 454 O 42.2258 1.91868 0.395407 0
M  V30 455 H 40.8058 0.362733 -0.653019 0
M  V30 456 H 43.4678 0.266244 -1.93073 0
M  V30 457 H 42.5638 1.59667 -2.68166 0
M  V30 458 N 42.8649 1.48995 0.513639 0
M  V30 459 C 44.1139 1.57093 1.2651 0
M  V30 460 C 44.4269 0.257091 1.93903 0
M  V30 461 O 45.6329 0.216478 2.70636 0
M  V30 462 C 44.0889 2.77118 2.29638 0
M  V30 463 C 43.6969 4.15209 1.68241 0
M  V30 464 C 45.4409 2.94538 3.05692 0
M  V30 465 C 43.3479 5.26474 2.69406 0
M  V30 466 H 42.2779 0.584876 0.475854 0
M  V30 467 H 44.9289 1.7536 0.540487 0
M  V30 468 H 43.3109 2.52319 3.05207 0
M  V30 469 H 44.4849 4.50094 0.987505 0
M  V30 470 H 42.7999 4.03042 1.04623 0
M  V30 471 H 45.3969 3.74832 3.8132 0
M  V30 472 H 45.7399 2.04614 3.62545 0
M  V30 473 H 46.2729 3.19316 2.37238 0
M  V30 474 H 43.0119 6.18417 2.17351 0
M  V30 475 H 42.5319 4.96058 3.37175 0
M  V30 476 H 44.2109 5.55277 3.32078 0
M  V30 477 N 44.343 -0.763751 1.37857 0
M  V30 478 C 45.253 -1.90817 1.36478 0
M  V30 479 C 46.269 -1.71997 0.263248 0
M  V30 480 O 47.445 -1.95095 0.499979 0
M  V30 481 C 44.51 -3.2605 1.17864 0
M  V30 482 C 43.571 -3.57467 2.3773 0
M  V30 483 C 42.804 -4.86249 2.19995 0
M  V30 484 O 43.027 -5.57884 1.18836 0
M  V30 485 O 41.961 -5.16911 3.08361 0
M  V30 486 H 45.787 -1.94933 2.32884 0
M  V30 487 H 43.372 -0.907619 1.1867 0
M  V30 488 H 45.254 -4.06924 1.09504 0
M  V30 489 H 43.929 -3.22769 0.245372 0
M  V30 490 H 42.836 -2.76796 2.51664 0
M  V30 491 H 44.169 -3.655 3.29652 0
M  V30 492 N 45.8211 -1.22559 -0.990812 0
M  V30 493 C 46.7531 -0.955325 -2.08342 0
M  V30 494 C 47.7661 0.0668408 -1.62663 0
M  V30 495 O 48.9551 -0.167421 -1.77713 0
M  V30 496 C 46.0551 -0.415566 -3.36342 0
M  V30 497 C 45.2281 -1.49544 -4.11042 0
M  V30 498 C 44.2871 -0.962399 -5.17324 0
M  V30 499 O 43.3131 -1.64907 -5.44788 0
M  V30 500 N 44.5151 0.215134 -5.80101 0
M  V30 501 H 47.2801 -1.89596 -2.32106 0
M  V30 502 H 44.8411 -1.13276 -1.15673 0
M  V30 503 H 46.8331 -0.0442386 -4.04676 0
M  V30 504 H 45.4031 0.430232 -3.09625 0
M  V30 505 H 44.6231 -2.04 -3.37309 0
M  V30 506 H 45.9111 -2.22195 -4.57719 0
M  V30 507 H 45.3091 0.789779 -5.6016 0
M  V30 508 H 43.8661 0.527826 -6.49659 0
M  V30 509 N 47.2992 1.18797 -1.03562 0
M  V30 510 C 48.5242 1.9314 -0.755764 0
M  V30 511 C 48.9492 1.7537 0.68022 0
M  V30 512 O 48.3072 1.06046 1.47051 0
M  V30 513 C 48.3552 3.42747 -1.12058 0
M  V30 514 O 47.4592 4.11683 -0.243124 0
M  V30 515 H 46.8002 0.602724 -0.278604 0
M  V30 516 H 49.3302 1.50678 -1.3841 0
M  V30 517 H 49.3402 3.93437 -1.08035 0
M  V30 518 H 48.0152 3.55002 -2.16672 0
M  V30 519 H 46.5922 3.71323 -0.342539 0
M  V30 520 N 48.7773 0.814389 1.34928 0
M  V30 521 C 49.7073 0.244827 2.32213 0
M  V30 522 C 50.6883 -0.634024 1.57842 0
M  V30 523 O 51.8733 -0.562676 1.8587 0
M  V30 524 C 49.0033 -0.601106 3.42058 0
M  V30 525 C 47.9573 0.179896 4.27622 0
M  V30 526 C 47.2833 -0.788237 5.28858 0
M  V30 527 C 48.5833 1.38329 5.03649 0
M  V30 528 H 50.2773 1.05763 2.80097 0
M  V30 529 H 47.8233 0.510029 1.34665 0
M  V30 530 H 49.7763 -1.00968 4.09125 0
M  V30 531 H 48.5003 -1.44688 2.92802 0
M  V30 532 H 47.1593 0.569739 3.62146 0
M  V30 533 H 46.8073 -1.62973 4.75866 0
M  V30 534 H 46.5073 -0.269942 5.8698 0
M  V30 535 H 48.0313 -1.19485 5.98795 0
M  V30 536 H 49.4453 1.04918 5.63618 0
M  V30 537 H 47.8423 1.83662 5.71304 0
M  V30 538 H 48.9123 2.16592 4.33839 0
M  V30 539 N 50.2554 -1.46986 0.568584 0
M  V30 540 C 51.2024 -2.30153 -0.172707 0
M  V30 541 C 52.1724 -1.39759 -0.897586 0
M  V30 542 O 53.3574 -1.68716 -0.891044 0
M  V30 543 C 50.4974 -3.23952 -1.1895 0
M  V30 544 C 49.6104 -4.29441 -0.469517 0
M  V30 545 C 48.7454 -5.1038 -1.47259 0
M  V30 546 C 47.7844 -6.07632 -0.738225 0
M  V30 547 N 46.9214 -6.8149 -1.68868 0
M  V30 548 H 51.7614 -2.93019 0.542596 0
M  V30 549 H 49.2984 -1.44422 0.279401 0
M  V30 550 H 51.2564 -3.76767 -1.79173 0
M  V30 551 H 49.8864 -2.62926 -1.87269 0
M  V30 552 H 48.9384 -3.79594 0.247467 0
M  V30 553 H 50.2504 -4.98689 0.105241 0
M  V30 554 H 49.4044 -5.67402 -2.14803 0
M  V30 555 H 48.1434 -4.4106 -2.08128 0
M  V30 556 H 47.1484 -5.49778 -0.0489293 0
M  V30 557 H 48.3734 -6.78966 -0.135129 0
M  V30 558 H 46.3194 -6.14891 -2.28573 0
M  V30 559 H 46.2364 -7.46948 -1.16636 0
M  V30 560 H 47.5044 -7.43078 -2.3549 0
M  V30 561 N 51.7335 -0.305618 -1.54608 0
M  V30 562 C 52.9825 0.303098 -1.9941 0
M  V30 563 C 53.2955 1.54648 -1.19764 0
M  V30 564 O 54.5015 2.23007 -1.54855 0
M  V30 565 C 52.9575 0.590588 -3.55021 0
M  V30 566 C 52.5655 -0.634719 -4.43481 0
M  V30 567 C 54.3095 1.16025 -4.08336 0
M  V30 568 C 52.2165 -0.320126 -5.90533 0
M  V30 569 H 51.1465 0.117031 -0.744862 0
M  V30 570 H 53.7975 -0.415045 -1.78745 0
M  V30 571 H 52.1795 1.36845 -3.71604 0
M  V30 572 H 53.3535 -1.41079 -4.38672 0
M  V30 573 H 51.6685 -1.12333 -4.00962 0
M  V30 574 H 54.2655 1.40994 -5.15776 0
M  V30 575 H 54.6085 2.10397 -3.5922 0
M  V30 576 H 55.1415 0.443985 -3.95315 0
M  V30 577 H 51.8805 -1.23254 -6.43808 0
M  V30 578 H 51.4005 0.418579 -5.98338 0
M  V30 579 H 53.0795 0.0766241 -6.46955 0
M  V30 580 N 53.2116 1.57565 -0.0334293 0
M  V30 581 C 54.4606 1.91155 0.643639 0
M  V30 582 C 54.7736 0.91192 1.73042 0
M  V30 583 O 55.9796 1.13923 2.46442 0
M  V30 584 C 54.4356 3.39443 1.1961 0
M  V30 585 C 54.0436 4.47774 0.142381 0
M  V30 586 C 55.7876 3.82094 1.84944 0
M  V30 587 C 53.6946 5.87162 0.706727 0
M  V30 588 H 52.6246 0.713368 0.244176 0
M  V30 589 H 55.2756 1.8323 -0.0994323 0
M  V30 590 H 53.6576 3.42313 1.99092 0
M  V30 591 H 54.8316 4.56469 -0.630296 0
M  V30 592 H 53.1466 4.14352 -0.412446 0
M  V30 593 H 55.7436 4.83591 2.2813 0
M  V30 594 H 56.0866 3.17386 2.69392 0
M  V30 595 H 56.6196 3.81665 1.12145 0
M  V30 596 H 53.3586 6.55424 -0.0997178 0
M  V30 597 H 52.8786 5.82064 1.44779 0
M  V30 598 H 54.5576 6.35866 1.19514 0
M  V30 599 N 54.6897 -0.239769 1.55765 0
M  V30 600 C 55.9667 -0.990056 1.68693 0
M  V30 601 C 56.3467 -2.03107 0.5754 0
M  V30 602 O 55.6947 -2.24604 -0.42017 0
M  V30 603 C 55.9047 -1.61696 3.09282 0
M  V30 604 C 57.2527 -2.11613 3.6811 0
M  V30 605 O 58.2767 -1.71624 3.12127 0
M  V30 606 O 57.1357 -2.85057 4.66267 0
M  V30 607 H 54.2297 -0.461299 0.686391 0
M  V30 608 H 56.7757 -0.232991 1.68093 0
M  V30 609 H 55.5477 -0.864357 3.81634 0
M  V30 610 H 55.1707 -2.44005 3.13923 0
M  V30 611 N 56.1678 -1.49265 -0.50573 0
M  V30 612 C 57.3958 -1.62215 -1.28429 0
M  V30 613 C 57.8108 -0.291697 -1.86533 0
M  V30 614 O 57.1678 0.722233 -1.67601 0
M  V30 615 C 57.2188 -2.68735 -2.41793 0
M  V30 616 O 56.9398 -3.96619 -1.86078 0
M  V30 617 C 58.4408 -2.92346 -3.3324 0
M  V30 618 H 55.6608 -0.546239 -0.389697 0
M  V30 619 H 58.2048 -1.95265 -0.607609 0
M  V30 620 H 56.3598 -2.38476 -3.053 0
M  V30 621 H 56.7738 -4.55256 -2.60465 0
M  V30 622 H 58.2478 -3.70623 -4.09075 0
M  V30 623 H 58.7248 -2.02081 -3.89948 0
M  V30 624 H 59.3308 -3.24003 -2.75503 0
M  V30 625 N 57.6459 0.756429 -1.3826 0
M  V30 626 C 58.5759 1.88374 -1.37976 0
M  V30 627 C 59.5569 1.68311 -0.246082 0
M  V30 628 O 60.7419 1.88944 -0.44874 0
M  V30 629 C 57.8719 3.25864 -1.20125 0
M  V30 630 C 56.8259 3.60523 -2.30666 0
M  V30 631 C 56.1519 4.9672 -1.97923 0
M  V30 632 C 57.4519 3.65692 -3.72916 0
M  V30 633 H 59.1459 1.88869 -2.32312 0
M  V30 634 H 56.6919 0.907272 -1.11824 0
M  V30 635 H 58.6449 4.0438 -1.18552 0
M  V30 636 H 57.3689 3.25841 -0.222498 0
M  V30 637 H 56.0279 2.84324 -2.3142 0
M  V30 638 H 55.6759 4.93253 -0.985393 0
M  V30 639 H 55.3759 5.20878 -2.71955 0
M  V30 640 H 56.8999 5.77618 -1.97964 0
M  V30 641 H 58.3139 4.34328 -3.74208 0
M  V30 642 H 56.7109 4.01358 -4.4613 0
M  V30 643 H 57.7809 2.65987 -4.05436 0
M  V30 644 N 59.124 1.23083 0.984299 0
M  V30 645 C 60.373 1.05466 1.71929 0
M  V30 646 C 60.686 -0.409211 1.91272 0
M  V30 647 O 61.892 -0.705226 2.62181 0
M  V30 648 C 60.348 1.83874 3.09384 0
M  V30 649 C 59.956 3.34566 2.97943 0
M  V30 650 C 61.7 1.74734 3.8687 0
M  V30 651 C 59.607 4.05381 4.30605 0
M  V30 652 H 58.537 0.391039 0.644674 0
M  V30 653 H 61.188 1.47013 1.09815 0
M  V30 654 H 59.57 1.35131 3.72231 0
M  V30 655 H 60.744 3.90767 2.44209 0
M  V30 656 H 59.059 3.44476 2.33934 0
M  V30 657 H 61.656 2.24957 4.85076 0
M  V30 658 H 61.999 0.709372 4.10212 0
M  V30 659 H 62.532 2.21067 3.30717 0
M  V30 660 H 59.271 5.09467 4.1246 0
M  V30 661 H 58.791 3.53967 4.84218 0
M  V30 662 H 60.47 4.11458 4.99311 0
M  V30 663 N 60.6021 -1.18246 1.0419 0
M  V30 664 C 61.8791 -1.84121 0.660208 0
M  V30 665 C 62.2591 -1.92778 -0.860221 0
M  V30 666 O 61.6071 -1.45464 -1.76217 0
M  V30 667 C 61.8171 -3.22355 1.33747 0
M  V30 668 C 63.1651 -3.98376 1.46906 0
M  V30 669 O 64.1891 -3.31799 1.29568 0
M  V30 670 O 63.0481 -5.17665 1.75171 0
M  V30 671 H 60.1421 -0.794036 0.231161 0
M  V30 672 H 62.6881 -1.25628 1.14087 0
M  V30 673 H 61.4601 -3.10964 2.37522 0
M  V30 674 H 61.0831 -3.88506 0.845515 0
M  V30 675 N 62.0802 -0.821533 -1.34494 0
M  V30 676 C 63.0432 -0.247847 -2.27856 0
M  V30 677 C 64.0432 0.573453 -1.50227 0
M  V30 678 O 65.2332 0.389759 -1.69784 0
M  V30 679 C 62.3652 0.652698 -3.34593 0
M  V30 680 H 63.5582 -1.07146 -2.80107 0
M  V30 681 H 61.1112 -0.593291 -1.44602 0
M  V30 682 H 61.8462 1.49943 -2.87555 0
M  V30 683 H 61.6312 0.065292 -3.92046 0
M  V30 684 H 63.1212 1.04793 -4.04238 0
M  V30 685 N 63.5583 1.46682 -0.576371 0
M  V30 686 C 64.8063 2.02013 -0.0594163 0
M  V30 687 C 65.1273 1.45101 1.30271 0
M  V30 688 O 64.3973 0.633317 1.8538 0
M  V30 689 H 62.9773 0.746759 -0.0189745 0
M  V30 690 H 65.6393 1.79862 -0.750717 0
M  V30 691 H 64.7353 3.12097 0.014345 0
M  V30 692 N 65.0364 0.313813 1.54444 0
M  V30 693 C 65.9994 -0.54379 2.22656 0
M  V30 694 C 66.9994 -1.05124 1.21678 0
M  V30 695 O 68.1894 -0.945225 1.46325 0
M  V30 696 C 65.3214 -1.75427 2.92298 0
M  V30 697 H 66.5144 0.0523599 2.99854 0
M  V30 698 H 64.0674 0.0647834 1.56166 0
M  V30 699 H 64.8024 -2.38991 2.19211 0
M  V30 700 H 64.5874 -1.39791 3.66334 0
M  V30 701 H 66.0774 -2.36325 3.44297 0
M  V30 702 N 66.5145 -1.57545 0.0417849 0
M  V30 703 C 67.7915 -1.83642 -0.673433 0
M  V30 704 C 68.1715 -0.928298 -1.89594 0
M  V30 705 O 67.5195 0.0129955 -2.28496 0
M  V30 706 C 67.7295 -3.33155 -1.03964 0
M  V30 707 C 69.0775 -3.99941 -1.42592 0
M  V30 708 O 70.1015 -3.37725 -1.13226 0
M  V30 709 O 68.9605 -5.09619 -1.9736 0
M  V30 710 H 66.0545 -0.757638 -0.331533 0
M  V30 711 H 68.6005 -1.69554 0.070433 0
M  V30 712 H 67.3725 -3.9093 -0.170098 0
M  V30 713 H 66.9955 -3.52396 -1.84126 0
M  V30 714 N 67.9926 0.231505 -1.5589 0
M  V30 715 C 68.9556 1.27028 -1.90779 0
M  V30 716 C 69.9556 1.40308 -0.785507 0
M  V30 717 O 71.1456 1.38744 -1.05336 0
M  V30 718 C 68.2776 2.64566 -2.14983 0
M  V30 719 H 69.4706 0.973017 -2.83677 0
M  V30 720 H 67.0236 0.471486 -1.49019 0
M  V30 721 H 67.7586 2.99406 -1.24604 0
M  V30 722 H 67.5436 2.56305 -2.96732 0
M  V30 723 H 69.0336 3.39543 -2.43105 0
M  V30 724 N 69.4707 1.49531 0.497807 0
M  V30 725 C 70.4007 1.6935 1.60757 0
M  V30 726 C 71.3817 0.542218 1.61227 0
M  V30 727 O 72.5667 0.778417 1.77917 0
M  V30 728 C 69.6967 1.76298 2.99226 0
M  V30 729 C 68.6507 2.91248 3.13622 0
M  V30 730 C 67.9767 2.83312 4.53474 0
M  V30 731 C 69.2767 4.3214 2.93346 0
M  V30 732 H 70.9707 2.62263 1.44425 0
M  V30 733 H 68.5167 1.26208 0.693367 0
M  V30 734 H 70.4697 1.88749 3.76765 0
M  V30 735 H 69.1937 0.799871 3.16654 0
M  V30 736 H 67.8527 2.78404 2.38509 0
M  V30 737 H 67.5007 1.84902 4.67782 0
M  V30 738 H 67.2007 3.60465 4.64046 0
M  V30 739 H 68.7247 2.97775 5.33069 0
M  V30 740 H 70.1387 4.45649 3.60652 0
M  V30 741 H 68.5357 5.1054 3.15387 0
M  V30 742 H 69.6057 4.46363 1.89441 0
M  V30 743 N 70.9488 -0.749086 1.3866 0
M  V30 744 C 71.8588 -1.89358 1.38494 0
M  V30 745 C 72.8748 -1.71708 0.281476 0
M  V30 746 O 74.0508 -1.94554 0.520643 0
M  V30 747 C 71.1158 -3.24782 1.21316 0
M  V30 748 C 70.1768 -3.54926 2.41508 0
M  V30 749 C 69.4098 -4.83888 2.2514 0
M  V30 750 O 69.6328 -5.56592 1.24746 0
M  V30 751 O 68.5668 -5.13612 3.13826 0
M  V30 752 H 72.3928 -1.92452 2.34938 0
M  V30 753 H 69.9778 -0.894981 1.19626 0
M  V30 754 H 71.8598 -4.05739 1.13814 0
M  V30 755 H 70.5348 -3.2249 0.279592 0
M  V30 756 H 69.4418 -2.74112 2.54585 0
M  V30 757 H 70.7748 -3.61983 3.3351 0
M  V30 758 N 72.4269 -1.23603 -0.977757 0
M  V30 759 C 73.3569 -1.04401 -2.0886 0
M  V30 760 C 74.3379 0.0399052 -1.70053 0
M  V30 761 O 75.5229 -0.125246 -1.93796 0
M  V30 762 C 72.6529 -0.637269 -3.41403 0
M  V30 763 C 71.6069 -1.66883 -3.94124 0
M  V30 764 C 70.9329 -1.11745 -5.22893 0
M  V30 765 C 72.2329 -3.06247 -4.23096 0
M  V30 766 H 73.9269 -1.97316 -2.25182 0
M  V30 767 H 71.4729 -0.950096 -1.08209 0
M  V30 768 H 73.4259 -0.48998 -4.18542 0
M  V30 769 H 72.1499 0.327557 -3.24953 0
M  V30 770 H 70.8089 -1.80416 -3.19133 0
M  V30 771 H 70.4569 -0.143527 -5.02795 0
M  V30 772 H 70.1569 -1.80672 -5.59134 0
M  V30 773 H 71.6809 -0.982067 -6.02651 0
M  V30 774 H 73.0949 -2.96001 -4.90975 0
M  V30 775 H 71.4919 -3.72436 -4.70544 0
M  V30 776 H 72.5619 -3.55041 -3.30263 0
M  V30 777 N 73.905 1.17692 -1.04816 0
M  V30 778 C 75.153 1.87488 -0.754497 0
M  V30 779 C 75.474 1.81205 0.720407 0
M  V30 780 O 74.744 1.23544 1.52032 0
M  V30 781 H 73.324 0.694101 -0.276102 0
M  V30 782 H 75.986 1.42793 -1.32651 0
M  V30 783 H 75.082 2.93328 -1.06606 0
M  V30 784 N 75.3831 0.828654 1.34056 0
M  V30 785 C 76.6291 0.42008 1.98402 0
M  V30 786 C 76.9621 -1.01564 1.65525 0
M  V30 787 O 76.2371 -1.70834 0.929831 0
M  V30 788 C 76.5201 0.62927 3.54559 0
M  V30 789 C 76.3731 2.11152 3.97159 0
M  V30 790 C 77.6921 0.0688756 4.40046 0
M  V30 791 H 74.8111 0.154104 0.720709 0
M  V30 792 H 77.4531 1.04228 1.5886 0
M  V30 793 H 75.6031 0.0996418 3.88372 0
M  V30 794 H 77.2751 2.70522 3.73651 0
M  V30 795 H 75.5181 2.59985 3.47261 0
M  V30 796 H 76.1891 2.20868 5.05887 0
M  V30 797 H 78.6651 0.521458 4.1282 0
M  V30 798 H 77.5411 0.245006 5.48353 0
M  V30 799 H 77.8021 -1.0266 4.30015 0
M  V30 800 N 76.8612 -1.46375 0.584142 0
M  V30 801 C 78.2722 -1.86031 0.157959 0
M  V30 802 C 78.6232 -1.48753 -1.27933 0
M  V30 803 O 77.7482 -0.903098 -1.96655 0
M  V30 804 C 78.3432 -3.37642 0.279892 0
M  V30 805 C 76.9022 -3.76289 -0.09143 0
M  V30 806 C 76.0492 -2.7039 0.615178 0
M  V30 807 H 79.0002 -1.37509 0.792274 0
M  V30 808 H 79.0212 -3.77275 -0.494364 0
M  V30 809 H 78.5332 -3.64742 1.32607 0
M  V30 810 H 76.6342 -3.54806 -1.13769 0
M  V30 811 H 76.7472 -4.78246 0.285886 0
M  V30 812 H 75.1112 -2.5464 0.0552833 0
M  V30 813 H 75.8942 -3.0033 1.66303 0
M  V30 814 N 78.3393 -0.321999 -1.54275 0
M  V30 815 C 79.5863 0.281044 -2.0054 0
M  V30 816 C 79.9143 1.52265 -1.21019 0
M  V30 817 O 79.1693 1.93687 -0.279982 0
M  V30 818 C 79.4683 0.661769 -3.5122 0
M  V30 819 C 79.1343 -0.480482 -4.48333 0
M  V30 820 C 77.7963 -0.794005 -4.74604 0
M  V30 821 C 80.1483 -1.24783 -5.06042 0
M  V30 822 C 77.4763 -1.87763 -5.55844 0
M  V30 823 C 79.8283 -2.32153 -5.88462 0
M  V30 824 C 78.4923 -2.64089 -6.13036 0
M  V30 825 H 77.7623 0.102841 -0.733829 0
M  V30 826 H 80.4093 -0.445453 -1.86247 0
M  V30 827 H 78.7143 1.46867 -3.63232 0
M  V30 828 H 80.4113 1.13989 -3.84457 0
M  V30 829 H 77.0013 -0.226039 -4.28004 0
M  V30 830 H 81.1853 -1.01887 -4.85729 0
M  V30 831 H 76.4413 -2.12954 -5.73115 0
M  V30 832 H 80.6153 -2.92057 -6.32199 0
M  V30 833 H 78.2423 -3.48185 -6.75775 0
M  V30 834 N 79.8174 1.5752 -0.0501392 0
M  V30 835 C 81.0424 1.97376 0.636997 0
M  V30 836 C 81.4674 0.927466 1.63645 0
M  V30 837 O 80.8254 -0.10941 1.8097 0
M  V30 838 C 80.8734 3.36304 1.30123 0
M  V30 839 O 79.9774 3.34156 2.41689 0
M  V30 840 H 79.3184 0.642998 0.165679 0
M  V30 841 H 81.8484 2.04258 -0.118233 0
M  V30 842 H 81.8584 3.73008 1.65315 0
M  V30 843 H 80.5334 4.11993 0.568746 0
M  V30 844 H 79.1104 3.09196 2.08451 0
M  V30 845 N 81.2955 -0.223234 1.56011 0
M  V30 846 C 82.5725 -0.972108 1.69733 0
M  V30 847 C 82.9525 -2.02485 0.59691 0
M  V30 848 O 82.3005 -2.25037 -0.396324 0
M  V30 849 C 82.5105 -1.58407 3.10979 0
M  V30 850 C 83.8585 -2.07696 3.70334 0
M  V30 851 O 84.8825 -1.68304 3.1393 0
M  V30 852 O 83.7415 -2.80096 4.69264 0
M  V30 853 H 80.8355 -0.453993 0.691245 0
M  V30 854 H 83.3815 -0.215149 1.68331 0
M  V30 855 H 82.1535 -0.823831 3.82529 0
M  V30 856 H 81.7765 -2.40661 3.16493 0
M  V30 857 N 82.7736 -1.49793 -0.48987 0
M  V30 858 C 84.1846 -1.52914 -1.07118 0
M  V30 859 C 84.5356 -0.321738 -1.93544 0
M  V30 860 O 83.6606 0.567338 -2.08831 0
M  V30 861 C 84.2556 -2.771 -1.94938 0
M  V30 862 C 82.8146 -2.82963 -2.48212 0
M  V30 863 C 81.9616 -2.46972 -1.26096 0
M  V30 864 H 84.9126 -1.56329 -0.273289 0
M  V30 865 H 84.9336 -2.57892 -2.79771 0
M  V30 866 H 84.4456 -3.64959 -1.32009 0
M  V30 867 H 82.5466 -1.99411 -3.14748 0
M  V30 868 H 82.6596 -3.85406 -2.84603 0
M  V30 869 H 81.0236 -1.98994 -1.58976 0
M  V30 870 H 81.8066 -3.37118 -0.648581 0
M  V30 871 N 84.2517 0.741722 -1.39055 0
M  V30 872 C 85.1817 1.869 -1.39966 0
M  V30 873 C 86.1627 1.6804 -0.26392 0
M  V30 874 O 87.3477 1.88458 -0.468755 0
M  V30 875 C 84.4777 3.24572 -1.23574 0
M  V30 876 C 83.4317 3.58056 -2.34477 0
M  V30 877 C 82.7577 4.94593 -2.0318 0
M  V30 878 C 84.0577 3.61716 -3.76774 0
M  V30 879 H 85.7517 1.86395 -2.34302 0
M  V30 880 H 83.2977 0.895361 -1.1278 0
M  V30 881 H 85.2507 4.031 -1.22834 0
M  V30 882 H 83.9747 3.25587 -0.257045 0
M  V30 883 H 82.6337 2.81854 -2.34423 0
M  V30 884 H 82.2817 4.92181 -1.03765 0
M  V30 885 H 81.9817 5.17964 -2.77465 0
M  V30 886 H 83.5057 5.75486 -2.04079 0
M  V30 887 H 84.9197 4.30335 -3.78794 0
M  V30 888 H 83.3167 3.96603 -4.50362 0
M  V30 889 H 84.3867 2.61672 -4.08235 0
M  V30 890 N 85.7298 1.2412 0.971189 0
M  V30 891 C 86.6928 1.03156 2.04674 0
M  V30 892 C 87.6928 -0.00990322 1.60797 0
M  V30 893 O 88.8828 0.230729 1.72665 0
M  V30 894 C 86.0148 0.562765 3.36223 0
M  V30 895 H 87.2078 1.98614 2.24705 0
M  V30 896 H 84.7608 1.06293 1.14593 0
M  V30 897 H 85.4958 -0.395176 3.21883 0
M  V30 898 H 85.2808 1.31441 3.69413 0
M  V30 899 H 86.7708 0.437015 4.15307 0
M  V30 900 N 87.2079 -1.17134 1.05439 0
M  V30 901 C 88.4849 -1.83411 0.679699 0
M  V30 902 C 88.8649 -1.9368 -0.839726 0
M  V30 903 O 88.2129 -1.47325 -1.74664 0
M  V30 904 C 88.4229 -3.20918 1.37159 0
M  V30 905 C 89.7709 -3.96796 1.51123 0
M  V30 906 O 90.7949 -3.30406 1.3308 0
M  V30 907 O 89.6539 -5.15778 1.80651 0
M  V30 908 H 86.7479 -0.79154 0.239569 0
M  V30 909 H 89.2939 -1.24411 1.15413 0
M  V30 910 H 88.0659 -3.08428 2.40807 0
M  V30 911 H 87.6889 -3.87587 0.886674 0
M  V30 912 N 88.686 -0.835752 -1.33615 0
M  V30 913 C 89.934 -0.429109 -1.97492 0
M  V30 914 C 90.255 1.01433 -1.66543 0
M  V30 915 O 89.525 1.70611 -0.962744 0
M  V30 916 H 88.105 -0.155686 -0.730596 0
M  V30 917 H 90.767 -1.06802 -1.63031 0
M  V30 918 H 89.863 -0.55861 -3.0706 0
M  V30 919 N 90.1641 1.46063 -0.591896 0
M  V30 920 C 91.5751 1.85944 -0.167822 0
M  V30 921 C 91.9261 1.49429 1.27143 0
M  V30 922 O 91.0511 0.913515 1.96173 0
M  V30 923 C 91.6461 3.37489 -0.297794 0
M  V30 924 C 90.2051 3.76332 0.0714732 0
M  V30 925 C 89.3521 2.7006 -0.629509 0
M  V30 926 H 92.3031 1.37087 -0.799555 0
M  V30 927 H 92.3241 3.77532 0.474349 0
M  V30 928 H 91.8361 3.64034 -1.3454 0
M  V30 929 H 89.9371 3.55405 1.11886 0
M  V30 930 H 90.0501 4.78088 -0.311245 0
M  V30 931 H 88.4141 2.54607 -0.0687867 0
M  V30 932 H 89.1971 2.99444 -1.67894 0
M  V30 933 N 91.6422 0.330177 1.54103 0
M  V30 934 C 92.8702 -0.272179 2.05102 0
M  V30 935 C 93.2852 -1.45267 1.20595 0
M  V30 936 O 92.6422 -1.8094 0.238144 0
M  V30 937 C 92.6932 -0.70023 3.54653 0
M  V30 938 O 92.4142 0.433301 4.35952 0
M  V30 939 C 93.9152 -1.3647 4.21771 0
M  V30 940 H 91.1352 -0.0549159 0.668749 0
M  V30 941 H 93.6792 0.478285 1.98828 0
M  V30 942 H 91.8342 -1.40066 3.61193 0
M  V30 943 H 92.2482 0.0947539 5.24414 0
M  V30 944 H 93.7222 -1.61509 5.27843 0
M  V30 945 H 94.1992 -2.31409 3.73292 0
M  V30 946 H 94.8052 -0.706675 4.19388 0
M  V30 947 N 93.1203 -1.57491 0.0584922 0
M  V30 948 C 94.3693 -1.92155 -0.613146 0
M  V30 949 C 94.6823 -0.939334 -1.71569 0
M  V30 950 O 95.8883 -1.17829 -2.44599 0
M  V30 951 C 94.3443 -3.41303 -1.14195 0
M  V30 952 C 93.9523 -4.47944 -0.0711265 0
M  V30 953 C 95.6963 -3.84988 -1.78841 0
M  V30 954 C 93.6033 -5.88212 -0.613225 0
M  V30 955 H 92.5333 -0.717162 -0.232796 0
M  V30 956 H 95.1843 -1.83049 0.12857 0
M  V30 957 H 93.5663 -3.45437 -1.93621 0
M  V30 958 H 94.7403 -4.55408 0.702836 0
M  V30 959 H 93.0553 -4.13644 0.478313 0
M  V30 960 H 95.6523 -4.87159 -2.20408 0
M  V30 961 H 95.9953 -3.21632 -2.64308 0
M  V30 962 H 96.5283 -3.83401 -1.06059 0
M  V30 963 H 93.2673 -6.55183 0.203978 0
M  V30 964 H 92.7873 -5.84294 -1.35501 0
M  V30 965 H 94.4663 -6.37687 -1.09383 0
M  V30 966 N 94.5984 0.214957 -1.56127 0
M  V30 967 C 95.5304 1.29004 -1.89448 0
M  V30 968 C 96.5434 1.42716 -0.783326 0
M  V30 969 O 97.7324 1.43496 -1.06166 0
M  V30 970 C 94.8324 2.66482 -2.09381 0
M  V30 971 C 94.0054 2.74633 -3.40434 0
M  V30 972 C 93.0644 3.9317 -3.49719 0
M  V30 973 O 92.0904 3.812 -4.227 0
M  V30 974 N 93.2924 5.07765 -2.81346 0
M  V30 975 H 96.0574 1.00743 -2.82261 0
M  V30 976 H 93.6184 0.40497 -1.56753 0
M  V30 977 H 95.6104 3.44173 -2.12901 0
M  V30 978 H 94.1804 2.87314 -1.23163 0
M  V30 979 H 93.4004 1.83368 -3.48955 0
M  V30 980 H 94.6884 2.77054 -4.26754 0
M  V30 981 H 94.0864 5.20386 -2.21843 0
M  V30 982 H 92.6434 5.83474 -2.90519 0
M  V30 983 N 96.0765 1.50051 0.48192 0
M  V30 984 C 97.0245 1.68635 1.60203 0
M  V30 985 C 98.0185 0.552184 1.60148 0
M  V30 986 O 99.2245 0.732377 1.64427 0
M  V30 987 H 95.5995 0.532081 0.531407 0
M  V30 988 H 97.5705 2.62616 1.41688 0
M  V30 989 C 96.3195 1.78775 2.9822 0
M  V30 990 H 95.6425 2.6543 2.98976 0
M  V30 991 H 97.0825 1.95806 3.7608 0
M  V30 992 C 95.5415 0.536849 3.32595 0
M  V30 993 O 96.0715 -0.328897 4.00351 0
M  V30 994 N 94.2775 0.394091 2.87915 0
M  V30 995 H 93.8245 1.09962 2.32951 0
M  V30 996 H 93.7825 -0.441737 3.11281 0
M  V30 997 N 97.5546 -0.734337 1.39446 0
M  V30 998 C 98.5176 -1.83004 1.37994 0
M  V30 999 C 99.5176 -1.58397 0.276938 0
M  V30 1000 O 100.708 -1.65785 0.534875 0
M  V30 1001 C 97.8396 -3.20802 1.1532 0
M  V30 1002 H 99.0326 -1.85694 2.35494 0
M  V30 1003 H 96.5856 -0.938059 1.25021 0
M  V30 1004 H 97.3206 -3.23772 0.185036 0
M  V30 1005 H 97.1056 -3.4006 1.95197 0
M  V30 1006 H 98.5956 -4.00862 1.17046 0
M  V30 1007 N 99.0327 -1.24633 -0.964593 0
M  V30 1008 C 99.9807 -1.03917 -2.08096 0
M  V30 1009 C 100.975 0.0268581 -1.69379 0
M  V30 1010 O 102.181 -0.127952 -1.79545 0
M  V30 1011 H 98.5557 -0.319044 -0.680966 0
M  V30 1012 H 100.527 -1.98581 -2.22729 0
M  V30 1013 C 99.2757 -0.663983 -3.41301 0
M  V30 1014 H 98.5987 -1.47605 -3.71555 0
M  V30 1015 H 100.039 -0.558663 -4.20303 0
M  V30 1016 C 98.4977 0.629169 -3.30973 0
M  V30 1017 O 99.0277 1.67404 -3.65156 0
M  V30 1018 N 97.2337 0.611057 -2.84103 0
M  V30 1019 H 96.7807 -0.239593 -2.56483 0
M  V30 1020 H 96.7387 1.47647 -2.77575 0
M  V30 1021 N 100.511 1.16574 -1.06058 0
M  V30 1022 C 101.441 2.23057 -0.690488 0
M  V30 1023 C 102.422 1.67141 0.315901 0
M  V30 1024 O 103.607 1.93253 0.191556 0
M  V30 1025 C 100.737 3.47222 -0.073625 0
M  V30 1026 C 99.6908 4.16016 -1.00573 0
M  V30 1027 C 99.0168 5.34104 -0.252289 0
M  V30 1028 C 100.317 4.67264 -2.33371 0
M  V30 1029 H 102.011 2.54271 -1.58072 0
M  V30 1030 H 99.5568 1.22218 -0.76149 0
M  V30 1031 H 101.51 4.20939 0.19714 0
M  V30 1032 H 100.234 3.15302 0.85161 0
M  V30 1033 H 98.8928 3.44223 -1.2612 0
M  V30 1034 H 98.5408 4.98437 0.675988 0
M  V30 1035 H 98.2408 5.81072 -0.873455 0
M  V30 1036 H 99.7648 6.10599 0.0109857 0
M  V30 1037 H 101.179 5.32573 -2.12223 0
M  V30 1038 H 99.5758 5.24843 -2.90963 0
M  V30 1039 H 100.646 3.83602 -2.96611 0
M  V30 1040 N 101.989 0.842826 1.3317 0
M  V30 1041 C 103.405 0.531128 1.50503 0
M  V30 1042 C 103.605 -0.940734 1.78192 0
M  V30 1043 O 102.661 -1.72436 1.84451 0
M  V30 1044 C 103.974 1.40789 2.65705 0
M  V30 1045 C 105.522 1.40708 2.79589 0
M  V30 1046 C 105.997 2.26878 3.97857 0
M  V30 1047 N 107.488 2.24609 4.05099 0
M  V30 1048 C 108.223 2.88019 4.95815 0
M  V30 1049 N 107.719 3.60496 5.9162 0
M  V30 1050 N 109.512 2.77469 4.88843 0
M  V30 1051 H 101.663 1.79557 1.1346 0
M  V30 1052 H 103.926 0.766267 0.558156 0
M  V30 1053 H 103.632 2.454 2.51936 0
M  V30 1054 H 103.506 1.08677 3.61205 0
M  V30 1055 H 105.893 0.368668 2.92788 0
M  V30 1056 H 105.974 1.76829 1.84838 0
M  V30 1057 H 105.618 3.3078 3.85418 0
M  V30 1058 H 105.548 1.88096 4.91861 0
M  V30 1059 H 108.039 1.71906 3.36536 0
M  V30 1060 H 108.352 4.06076 6.57512 0
M  V30 1061 H 106.697 3.64604 5.91683 0
M  V30 1062 H 109.888 2.20406 4.12963 0
M  V30 1063 H 110.061 3.2717 5.59342 0
M  V30 1064 N 103.467 -1.45747 0.599634 0
M  V30 1065 C 104.43 -2.28917 -0.113835 0
M  V30 1066 C 105.43 -1.3933 -0.802729 0
M  V30 1067 O 106.62 -1.61534 -0.652103 0
M  V30 1068 C 103.752 -3.20152 -1.17114 0
M  V30 1069 H 104.945 -2.93478 0.617289 0
M  V30 1070 H 102.498 -1.52137 0.358327 0
M  V30 1071 H 103.233 -2.60374 -1.93329 0
M  V30 1072 H 103.018 -3.86133 -0.681468 0
M  V30 1073 H 104.508 -3.82708 -1.67105 0
M  V30 1074 N 104.945 -0.338344 -1.53925 0
M  V30 1075 C 106.192 0.259758 -2.00827 0
M  V30 1076 C 106.52 1.50973 -1.22628 0
M  V30 1077 O 105.775 1.93379 -0.300509 0
M  V30 1078 C 106.074 0.62448 -3.51902 0
M  V30 1079 C 105.74 -0.528006 -4.47798 0
M  V30 1080 C 104.402 -0.844298 -4.73735 0
M  V30 1081 C 106.754 -1.30143 -5.0469 0
M  V30 1082 C 104.082 -1.93648 -5.53821 0
M  V30 1083 C 106.434 -2.38382 -5.85967 0
M  V30 1084 C 105.098 -2.70576 -6.10201 0
M  V30 1085 H 104.368 0.0950523 -0.734878 0
M  V30 1086 H 107.015 -0.465182 -1.85764 0
M  V30 1087 H 105.32 1.43006 -3.64769 0
M  V30 1088 H 107.017 1.09905 -3.85645 0
M  V30 1089 H 103.607 -0.271421 -4.2774 0
M  V30 1090 H 107.791 -1.07033 -4.84621 0
M  V30 1091 H 103.047 -2.19021 -5.70824 0
M  V30 1092 H 107.221 -2.98746 -6.29066 0
M  V30 1093 H 104.848 -3.55333 -6.72044 0
M  V30 1094 N 106.423 1.57458 -0.0668435 0
M  V30 1095 C 107.386 2.11323 0.887422 0
M  V30 1096 C 108.386 1.03618 1.22964 0
M  V30 1097 O 109.576 1.29626 1.16373 0
M  V30 1098 C 106.708 2.61048 2.19242 0
M  V30 1099 H 107.901 2.96942 0.420194 0
M  V30 1100 H 105.454 1.55239 0.181793 0
M  V30 1101 H 106.189 1.78868 2.70512 0
M  V30 1102 H 105.974 3.39769 1.95702 0
M  V30 1103 H 107.464 3.02814 2.87565 0
M  V30 1104 N 107.901 -0.206675 1.56239 0
M  V30 1105 C 108.864 -1.23976 1.92776 0
M  V30 1106 C 109.864 -1.39041 0.807729 0
M  V30 1107 O 111.054 -1.37051 1.0753 0
M  V30 1108 C 108.186 -2.61112 2.19165 0
M  V30 1109 H 109.379 -0.927764 2.85189 0
M  V30 1110 H 106.932 -0.447718 1.4975 0
M  V30 1111 H 107.667 -2.97386 1.29352 0
M  V30 1112 H 107.452 -2.51552 3.00772 0
M  V30 1113 H 108.942 -3.35633 2.48476 0
M  V30 1114 N 109.379 -1.50304 -0.473955 0
M  V30 1115 C 110.627 -1.60832 -1.22382 0
M  V30 1116 C 110.948 -0.30939 -1.9253 0
M  V30 1117 O 110.218 0.67296 -1.83978 0
M  V30 1118 H 108.798 -0.592652 -0.454723 0
M  V30 1119 H 111.46 -1.87068 -0.546968 0
M  V30 1120 H 110.556 -2.41803 -1.97327 0
M  V30 1121 N 110.857 0.726932 -1.39834 0
M  V30 1122 C 112.103 1.48884 -1.377 0
M  V30 1123 C 112.436 1.94185 0.0244852 0
M  V30 1124 O 111.711 1.67361 0.990986 0
M  V30 1125 C 111.994 2.72288 -2.3565 0
M  V30 1126 C 111.847 2.32956 -3.84775 0
M  V30 1127 C 113.166 3.74414 -2.31306 0
M  V30 1128 H 110.285 0.540062 -0.5015 0
M  V30 1129 H 112.927 0.830547 -1.70886 0
M  V30 1130 H 111.077 3.28457 -2.07481 0
M  V30 1131 H 112.749 1.82356 -4.23726 0
M  V30 1132 H 110.992 1.65088 -4.01159 0
M  V30 1133 H 111.663 3.21362 -4.4881 0
M  V30 1134 H 114.139 3.27849 -2.56231 0
M  V30 1135 H 113.015 4.58414 -3.01907 0
M  V30 1136 H 113.276 4.21909 -1.32081 0
M  V30 1137 N 112.336 1.25143 0.95797 0
M  V30 1138 C 113.564 1.12424 1.73691 0
M  V30 1139 C 113.979 -0.322304 1.86029 0
M  V30 1140 O 113.336 -1.22186 1.35561 0
M  V30 1141 C 113.387 1.76933 3.15241 0
M  V30 1142 O 113.108 3.15932 3.03511 0
M  V30 1143 C 114.609 1.6995 4.09429 0
M  V30 1144 H 111.829 0.3923 0.544373 0
M  V30 1145 H 114.373 1.6544 1.20207 0
M  V30 1146 H 112.528 1.27895 3.6568 0
M  V30 1147 H 112.942 3.47598 3.9278 0
M  V30 1148 H 114.416 2.19753 5.06372 0
M  V30 1149 H 114.893 0.662619 4.34173 0
M  V30 1150 H 115.499 2.18461 3.64904 0
M  V30 1151 N 113.814 -1.1601 1.06675 0
M  V30 1152 C 115.225 -1.68235 0.809565 0
M  V30 1153 C 115.576 -1.8454 -0.666303 0
M  V30 1154 O 114.701 -1.54374 -1.5165 0
M  V30 1155 C 115.296 -3.05585 1.46299 0
M  V30 1156 C 113.855 -3.54915 1.25349 0
M  V30 1157 C 113.002 -2.30804 1.53703 0
M  V30 1158 H 115.953 -1.00318 1.22971 0
M  V30 1159 H 115.974 -3.70174 0.880431 0
M  V30 1160 H 115.486 -2.93686 2.53713 0
M  V30 1161 H 113.587 -3.72067 0.199261 0
M  V30 1162 H 113.7 -4.36774 1.9689 0
M  V30 1163 H 112.064 -2.36007 0.957739 0
M  V30 1164 H 112.847 -2.21499 2.62284 0
M  V30 1165 N 115.292 -0.849877 -1.32721 0
M  V30 1166 C 116.255 -0.296122 -2.27279 0
M  V30 1167 C 117.255 0.541458 -1.5141 0
M  V30 1168 O 118.445 0.353658 -1.70572 0
M  V30 1169 C 115.577 0.581579 -3.35902 0
M  V30 1170 H 116.77 -1.13064 -2.77771 0
M  V30 1171 H 114.323 -0.62383 -1.43311 0
M  V30 1172 H 115.058 1.43809 -2.9067 0
M  V30 1173 H 114.843 -0.0178814 -3.92096 0
M  V30 1174 H 116.333 0.961951 -4.0637 0
M  V30 1175 N 116.77 1.45427 -0.607355 0
M  V30 1176 C 117.702 2.2871 0.149752 0
M  V30 1177 C 118.715 1.39937 0.831958 0
M  V30 1178 O 119.904 1.64313 0.697385 0
M  V30 1179 C 117.004 3.15673 1.23304 0
M  V30 1180 C 116.177 4.32722 0.637996 0
M  V30 1181 C 115.236 5.00895 1.61215 0
M  V30 1182 O 114.262 5.57697 1.13854 0
M  V30 1183 N 115.464 5.00159 2.94655 0
M  V30 1184 H 118.229 2.94328 -0.564882 0
M  V30 1185 H 115.79 1.55612 -0.446823 0
M  V30 1186 H 117.782 3.58144 1.88454 0
M  V30 1187 H 116.352 2.51965 1.8502 0
M  V30 1188 H 115.572 3.93734 -0.191572 0
M  V30 1189 H 116.86 5.08321 0.220665 0
M  V30 1190 H 116.258 4.553 3.35735 0
M  V30 1191 H 114.815 5.46495 3.55228 0
M  V30 1192 N 118.248 0.346503 1.53744 0
M  V30 1193 C 119.488 -0.249413 2.02873 0
M  V30 1194 C 119.852 -1.47532 1.22876 0
M  V30 1195 O 121.053 -2.1456 1.61918 0
M  V30 1196 C 119.324 -0.552909 3.53097 0
M  V30 1197 S 120.883 -1.12521 4.24128 0
M  V30 1198 H 117.701 -0.074042 0.707134 0
M  V30 1199 H 120.303 0.48495 1.8939 0
M  V30 1200 H 119.007 0.347083 4.0893 0
M  V30 1201 H 118.538 -1.31686 3.70705 0
M  V30 1202 H 120.553 -2.41075 4.33702 0
M  V30 1203 N 119.726 -1.57421 0.075193 0
M  V30 1204 C 120.973 -1.93618 -0.593146 0
M  V30 1205 C 121.301 -0.955484 -1.69413 0
M  V30 1206 O 120.556 0.0283251 -1.9568 0
M  V30 1207 C 120.855 -3.36428 -1.20626 0
M  V30 1208 C 120.521 -4.50307 -0.231078 0
M  V30 1209 C 119.183 -4.81186 0.0371936 0
M  V30 1210 C 121.535 -5.19374 0.435888 0
M  V30 1211 C 118.863 -5.78466 0.979461 0
M  V30 1212 C 121.215 -6.17665 1.3665 0
M  V30 1213 C 119.879 -6.46958 1.6432 0
M  V30 1214 H 119.149 -0.708499 -0.217047 0
M  V30 1215 H 121.796 -1.90937 0.146793 0
M  V30 1216 H 120.101 -3.35592 -2.02201 0
M  V30 1217 H 121.798 -3.61727 -1.73073 0
M  V30 1218 H 118.388 -4.26227 -0.450357 0
M  V30 1219 H 122.572 -4.95711 0.241748 0
M  V30 1220 H 117.828 -5.99487 1.20106 0
M  V30 1221 H 122.002 -6.70284 1.88924 0
M  V30 1222 H 119.629 -7.2215 2.37494 0
M  V30 1223 N 121.204 0.198386 -1.56346 0
M  V30 1224 C 122.114 1.2664 -1.97483 0
M  V30 1225 C 123.13 1.49989 -0.882002 0
M  V30 1226 O 124.306 1.62668 -1.18748 0
M  V30 1227 C 121.371 2.59141 -2.30319 0
M  V30 1228 C 120.432 2.43892 -3.53292 0
M  V30 1229 C 119.665 3.70074 -3.84553 0
M  V30 1230 O 119.888 4.74101 -3.1715 0
M  V30 1231 O 118.822 3.658 -4.7799 0
M  V30 1232 H 122.648 0.947304 -2.88548 0
M  V30 1233 H 120.233 0.403123 -1.43859 0
M  V30 1234 H 122.115 3.37352 -2.5253 0
M  V30 1235 H 120.79 2.90684 -1.42423 0
M  V30 1236 H 119.697 1.63803 -3.36332 0
M  V30 1237 H 121.03 2.17282 -4.41644 0
M  V30 1238 N 122.682 1.50554 0.465978 0
M  V30 1239 C 123.615 1.64436 1.58227 0
M  V30 1240 C 124.593 0.492367 1.54966 0
M  V30 1241 O 125.777 0.712536 1.74514 0
M  V30 1242 C 122.904 1.63165 2.96808 0
M  V30 1243 C 121.95 2.83987 3.18204 0
M  V30 1244 S 122.783 4.45219 2.97557 0
M  V30 1245 C 123.939 4.46649 4.3847 0
M  V30 1246 H 124.172 2.58861 1.46213 0
M  V30 1247 H 121.705 1.3988 0.653678 0
M  V30 1248 H 123.663 1.63116 3.76701 0
M  V30 1249 H 122.324 0.69967 3.06208 0
M  V30 1250 H 121.517 2.79416 4.19455 0
M  V30 1251 H 121.119 2.81629 2.46092 0
M  V30 1252 H 123.411 4.20526 5.31191 0
M  V30 1253 H 124.354 5.48295 4.48082 0
M  V30 1254 H 124.762 3.76296 4.20787 0
M  V30 1255 N 124.16 -0.719506 1.40217 0
M  V30 1256 C 125.09 -1.8465 1.42922 0
M  V30 1257 C 126.071 -1.67599 0.29062 0
M  V30 1258 O 127.256 -1.87688 0.498677 0
M  V30 1259 C 124.386 -3.22565 1.28722 0
M  V30 1260 C 123.34 -3.54281 2.40144 0
M  V30 1261 C 122.666 -4.91298 2.11023 0
M  V30 1262 C 123.966 -3.55676 3.82481 0
M  V30 1263 H 125.66 -1.82644 2.37237 0
M  V30 1264 H 123.206 -0.877305 1.1419 0
M  V30 1265 H 125.159 -4.01095 1.29232 0
M  V30 1266 H 123.883 -3.25137 0.308811 0
M  V30 1267 H 122.542 -2.78088 2.38877 0
M  V30 1268 H 122.19 -4.90468 1.11582 0
M  V30 1269 H 121.89 -5.13485 2.8567 0
M  V30 1270 H 123.414 -5.72166 2.13209 0
M  V30 1271 H 124.828 -4.24254 3.85592 0
M  V30 1272 H 123.225 -3.89388 4.56614 0
M  V30 1273 H 124.295 -2.55144 4.12346 0
M  V30 1274 N 125.638 -1.25649 -0.95132 0
M  V30 1275 C 126.601 -1.06399 -2.03007 0
M  V30 1276 C 127.601 -0.0156794 -1.60792 0
M  V30 1277 O 128.791 -0.25817 -1.72276 0
M  V30 1278 C 125.923 -0.616184 -3.35285 0
M  V30 1279 H 127.116 -2.02164 -2.21517 0
M  V30 1280 H 124.669 -1.08103 -1.12887 0
M  V30 1281 H 125.404 0.343917 -3.22471 0
M  V30 1282 H 125.189 -1.37301 -3.67275 0
M  V30 1283 H 126.679 -0.503032 -4.14559 0
M  V30 1284 N 127.117 1.15442 -1.07289 0
M  V30 1285 C 128.047 2.22312 -0.714107 0
M  V30 1286 C 129.028 1.67467 0.298155 0
M  V30 1287 O 130.213 1.93445 0.171048 0
M  V30 1288 C 127.343 3.47124 -0.110448 0
M  V30 1289 C 126.297 4.14926 -1.04979 0
M  V30 1290 C 125.623 5.33807 -0.308924 0
M  V30 1291 C 126.923 4.64762 -2.38314 0
M  V30 1292 H 128.617 2.5258 -1.6076 0
M  V30 1293 H 126.163 1.21404 -0.77441 0
M  V30 1294 H 128.116 4.21124 0.152482 0
M  V30 1295 H 126.84 3.16187 0.81812 0
M  V30 1296 H 125.499 3.42866 -1.29764 0
M  V30 1297 H 125.147 4.99126 0.623084 0
M  V30 1298 H 124.847 5.80113 -0.935036 0
M  V30 1299 H 126.371 6.10576 -0.0537771 0
M  V30 1300 H 127.785 5.30292 -2.1786 0
M  V30 1301 H 126.182 5.21728 -2.96514 0
M  V30 1302 H 127.252 3.80434 -3.00663 0
M  V30 1303 N 128.595 0.856903 1.32268 0
M  V30 1304 C 129.844 0.457599 1.96441 0
M  V30 1305 C 130.157 -0.992426 1.68553 0
M  V30 1306 O 131.363 -1.49727 2.26482 0
M  V30 1307 C 129.819 0.767358 3.51624 0
M  V30 1308 C 129.427 2.23326 3.88367 0
M  V30 1309 C 131.171 0.435887 4.22256 0
M  V30 1310 C 129.078 2.48613 5.36606 0
M  V30 1311 H 128.008 0.167387 0.735185 0
M  V30 1312 H 130.659 1.048 1.5063 0
M  V30 1313 H 129.041 0.106367 3.95857 0
M  V30 1314 H 130.215 2.93623 3.55137 0
M  V30 1315 H 128.53 2.52948 3.30766 0
M  V30 1316 H 131.127 0.602202 5.31298 0
M  V30 1317 H 131.47 -0.622672 4.11617 0
M  V30 1318 H 132.003 1.05286 3.83614 0
M  V30 1319 H 128.742 3.53101 5.52268 0
M  V30 1320 H 128.262 1.82896 5.71235 0
M  V30 1321 H 129.941 2.32676 6.03714 0
M  V30 1322 N 130.073 -1.45103 0.615059 0
M  V30 1323 C 131.489 -1.57137 0.279322 0
M  V30 1324 C 131.689 -1.60523 -1.21797 0
M  V30 1325 O 130.745 -1.53956 -2.00134 0
M  V30 1326 C 132.058 -2.85062 0.957083 0
M  V30 1327 C 133.606 -2.98749 0.933706 0
M  V30 1328 C 134.081 -4.29455 1.59162 0
M  V30 1329 N 135.572 -4.36231 1.55746 0
M  V30 1330 C 136.307 -5.36051 2.0356 0
M  V30 1331 N 135.803 -6.42367 2.59494 0
M  V30 1332 N 137.596 -5.27456 1.94284 0
M  V30 1333 H 129.747 -1.41148 1.58717 0
M  V30 1334 H 132.01 -0.675331 0.665306 0
M  V30 1335 H 131.716 -2.88488 2.01166 0
M  V30 1336 H 131.59 -3.7407 0.48494 0
M  V30 1337 H 133.977 -2.94886 -0.112347 0
M  V30 1338 H 134.058 -2.11132 1.44419 0
M  V30 1339 H 133.702 -4.34077 2.63704 0
M  V30 1340 H 133.632 -5.15901 1.0561 0
M  V30 1341 H 136.123 -3.60011 1.14893 0
M  V30 1342 H 136.436 -7.14793 2.93752 0
M  V30 1343 H 134.781 -6.43097 2.63537 0
M  V30 1344 H 137.972 -4.43308 1.5032 0
M  V30 1345 H 138.145 -6.05099 2.3186 0
M  V30 1346 N 131.551 -0.354651 -1.53558 0
M  V30 1347 C 132.461 0.50515 -2.29097 0
M  V30 1348 C 133.477 1.10223 -1.34636 0
M  V30 1349 O 134.653 1.11553 -1.67684 0
M  V30 1350 C 131.718 1.63479 -3.05738 0
M  V30 1351 C 130.779 1.06636 -4.15845 0
M  V30 1352 C 130.012 2.14217 -4.88822 0
M  V30 1353 O 130.235 3.35137 -4.61562 0
M  V30 1354 O 129.169 1.77887 -5.75013 0
M  V30 1355 H 132.995 -0.109237 -3.03503 0
M  V30 1356 H 130.58 -0.119357 -1.48922 0
M  V30 1357 H 132.462 2.2918 -3.5363 0
M  V30 1358 H 131.137 2.23478 -2.34178 0
M  V30 1359 H 130.044 0.373565 -3.7223 0
M  V30 1360 H 131.377 0.511081 -4.89539 0
M  V30 1361 N 133.029 1.57378 -0.0835403 0
M  V30 1362 C 133.976 2.13384 0.879539 0
M  V30 1363 C 134.946 1.04936 1.28754 0
M  V30 1364 O 136.131 1.32662 1.37133 0
M  V30 1365 C 133.271 2.70932 2.13752 0
M  V30 1366 C 132.384 3.93575 1.7811 0
M  V30 1367 C 131.519 4.39326 2.98607 0
M  V30 1368 C 130.558 5.54587 2.59037 0
M  V30 1369 N 129.695 5.95243 3.72331 0
M  V30 1370 H 134.535 2.9537 0.395076 0
M  V30 1371 H 132.072 1.45953 0.183349 0
M  V30 1372 H 134.03 3.02411 2.87408 0
M  V30 1373 H 132.66 1.91693 2.59718 0
M  V30 1374 H 131.712 3.68483 0.94469 0
M  V30 1375 H 133.024 4.77258 1.45005 0
M  V30 1376 H 132.178 4.72528 3.80529 0
M  V30 1377 H 130.917 3.5452 3.34913 0
M  V30 1378 H 129.922 5.21024 1.75539 0
M  V30 1379 H 131.147 6.41133 2.23887 0
M  V30 1380 H 129.093 5.13385 4.08378 0
M  V30 1381 H 129.01 6.73694 3.43034 0
M  V30 1382 H 130.278 6.33072 4.54797 0
M  V30 1383 N 134.507 -0.190092 1.56449 0
M  V30 1384 C 135.457 -1.23977 1.91347 0
M  V30 1385 C 136.441 -1.40747 0.779693 0
M  V30 1386 O 137.633 -1.43033 1.04262 0
M  V30 1387 C 134.762 -2.58347 2.26079 0
M  V30 1388 C 133.848 -2.4535 3.45925 0
M  V30 1389 N 134.239 -2.02039 4.63696 0
M  V30 1390 C 132.537 -2.76229 3.50162 0
M  V30 1391 C 133.238 -2.01053 5.4585 0
M  V30 1392 N 132.214 -2.42747 4.8639 0
M  V30 1393 H 136.016 -0.896318 2.79899 0
M  V30 1394 H 133.53 -0.398496 1.57435 0
M  V30 1395 H 135.527 -3.34173 2.49267 0
M  V30 1396 H 134.187 -2.93512 1.38856 0
M  V30 1397 H 135.198 -1.7267 4.88268 0
M  V30 1398 H 131.875 -3.15556 2.73369 0
M  V30 1399 H 133.265 -1.69426 6.50188 0
M  V30 1400 N 135.985 -1.50799 -0.457987 0
M  V30 1401 C 137.396 -1.55152 -1.0385 0
M  V30 1402 C 137.747 -0.362719 -1.92818 0
M  V30 1403 O 136.872 0.522915 -2.09987 0
M  V30 1404 C 137.467 -2.81173 -1.89017 0
M  V30 1405 C 136.026 -2.88164 -2.42154 0
M  V30 1406 C 135.173 -2.49591 -1.20829 0
M  V30 1407 H 138.124 -1.56874 -0.240068 0
M  V30 1408 H 138.145 -2.63769 -2.74238 0
M  V30 1409 H 137.657 -3.67677 -1.24238 0
M  V30 1410 H 135.758 -2.06042 -3.10447 0
M  V30 1411 H 135.871 -3.91356 -2.76364 0
M  V30 1412 H 134.235 -2.02322 -1.54719 0
M  V30 1413 H 135.018 -3.38418 -0.576927 0
M  V30 1414 N 137.463 0.71206 -1.40597 0
M  V30 1415 C 138.691 1.50111 -1.42388 0
M  V30 1416 C 139.106 1.88784 -0.0245395 0
M  V30 1417 O 138.463 1.55681 0.952351 0
M  V30 1418 C 138.514 2.7742 -2.31776 0
M  V30 1419 O 138.235 2.40382 -3.66262 0
M  V30 1420 C 139.736 3.7129 -2.42196 0
M  V30 1421 H 136.956 0.46314 -0.485533 0
M  V30 1422 H 139.5 0.878068 -1.8469 0
M  V30 1423 H 137.655 3.36001 -1.92827 0
M  V30 1424 H 138.069 3.22324 -4.13772 0
M  V30 1425 H 139.543 4.57448 -3.08943 0
M  V30 1426 H 140.02 4.14641 -1.44809 0
M  V30 1427 H 140.626 3.18619 -2.81712 0
M  V30 1428 N 138.941 1.26152 0.944643 0
M  V30 1429 C 140.19 1.10883 1.68487 0
M  V30 1430 C 140.503 -0.348153 1.92477 0
M  V30 1431 O 141.709 -0.621459 2.64292 0
M  V30 1432 C 140.165 1.93624 3.03377 0
M  V30 1433 C 139.773 3.43875 2.87148 0
M  V30 1434 C 141.517 1.86954 3.81115 0
M  V30 1435 C 139.424 4.18875 4.1749 0
M  V30 1436 H 138.354 0.41135 0.631907 0
M  V30 1437 H 141.005 1.50433 1.05082 0
M  V30 1438 H 139.387 1.46904 3.67743 0
M  V30 1439 H 140.561 3.98338 2.31653 0
M  V30 1440 H 138.876 3.51744 2.22856 0
M  V30 1441 H 141.473 2.40275 4.77673 0
M  V30 1442 H 141.816 0.839518 4.07747 0
M  V30 1443 H 142.349 2.31477 3.23517 0
M  V30 1444 H 139.088 5.22332 3.96043 0
M  V30 1445 H 138.608 3.69193 4.72712 0
M  V30 1446 H 140.287 4.27134 4.85968 0
M  V30 1447 N 140.419 -1.14872 1.07899 0
M  V30 1448 C 141.83 -1.67367 0.827363 0
M  V30 1449 C 142.181 -1.85236 -0.646693 0
M  V30 1450 O 141.306 -1.55974 -1.50004 0
M  V30 1451 C 141.901 -3.04016 1.49532 0
M  V30 1452 C 140.46 -3.53566 1.29106 0
M  V30 1453 C 139.607 -2.29161 1.56143 0
M  V30 1454 H 142.558 -0.990083 1.24028 0
M  V30 1455 H 142.579 -3.69219 0.919643 0
M  V30 1456 H 142.091 -2.90978 2.56814 0
M  V30 1457 H 140.192 -3.71835 0.238713 0
M  V30 1458 H 140.305 -4.34661 2.01511 0
M  V30 1459 H 138.669 -2.34978 0.982717 0
M  V30 1460 H 139.452 -2.18705 2.64619 0
M  V30 1461 N 141.898 -0.863906 -1.31812 0
M  V30 1462 C 143.147 -0.46801 -1.96195 0
M  V30 1463 C 143.46 0.983474 -1.69077 0
M  V30 1464 O 144.666 1.48523 -2.27273 0
M  V30 1465 C 143.122 -0.785995 -3.51212 0
M  V30 1466 C 142.73 -2.25383 -3.87178 0
M  V30 1467 C 144.474 -0.458274 -4.22019 0
M  V30 1468 C 142.381 -2.51455 -5.3528 0
M  V30 1469 H 141.311 -0.171283 -0.734287 0
M  V30 1470 H 143.962 -1.05597 -1.50072 0
M  V30 1471 H 142.344 -0.127359 -3.95795 0
M  V30 1472 H 143.518 -2.95502 -3.53575 0
M  V30 1473 H 141.833 -2.54698 -3.2942 0
M  V30 1474 H 144.43 -0.630369 -5.30971 0
M  V30 1475 H 144.773 0.600834 -4.11941 0
M  V30 1476 H 145.306 -1.07319 -3.8305 0
M  V30 1477 H 142.045 -3.56025 -5.50387 0
M  V30 1478 H 141.565 -1.85923 -5.70257 0
M  V30 1479 H 143.244 -2.35874 -6.02472 0
M  V30 1480 N 143.376 1.44774 -0.622745 0
M  V30 1481 C 144.624 2.01721 -0.123655 0
M  V30 1482 C 144.945 1.49172 1.25589 0
M  V30 1483 O 144.215 0.691974 1.83272 0
M  V30 1484 H 142.795 0.745777 -0.0427225 0
M  V30 1485 H 145.457 1.77382 -0.807559 0
M  V30 1486 H 144.553 3.11984 -0.0849534 0
M  V30 1487 N 144.854 0.36279 1.53368 0
M  V30 1488 C 145.784 -0.476976 2.28576 0
M  V30 1489 C 146.765 -1.08631 1.30894 0
M  V30 1490 O 147.95 -1.10409 1.59761 0
M  V30 1491 C 145.08 -1.61828 3.07293 0
M  V30 1492 C 144.034 -1.13633 4.1264 0
M  V30 1493 C 143.36 -2.36766 4.79423 0
M  V30 1494 C 144.66 -0.223061 5.21823 0
M  V30 1495 H 146.354 0.150474 2.99022 0
M  V30 1496 H 143.9 0.0738103 1.43811 0
M  V30 1497 H 145.853 -2.21237 3.58653 0
M  V30 1498 H 144.577 -2.27292 2.34533 0
M  V30 1499 H 143.236 -0.564945 3.62221 0
M  V30 1500 H 142.884 -3.0068 4.03238 0
M  V30 1501 H 142.584 -2.05192 5.50609 0
M  V30 1502 H 144.108 -2.96865 5.33576 0
M  V30 1503 H 145.522 -0.724545 5.68703 0
M  V30 1504 H 143.919 0.001678 6.001 0
M  V30 1505 H 144.989 0.735553 4.79289 0
M  V30 1506 N 146.332 -1.57332 0.0918853 0
M  V30 1507 C 147.262 -2.16872 -0.865371 0
M  V30 1508 C 148.243 -1.10118 -1.29646 0
M  V30 1509 O 149.428 -1.38242 -1.36392 0
M  V30 1510 C 146.558 -2.74649 -2.12569 0
M  V30 1511 C 145.512 -3.86747 -1.83333 0
M  V30 1512 C 144.838 -4.31212 -3.16166 0
M  V30 1513 C 146.138 -5.10089 -1.1228 0
M  V30 1514 H 147.832 -2.97114 -0.369307 0
M  V30 1515 H 145.378 -1.42918 -0.176194 0
M  V30 1516 H 147.331 -3.14952 -2.7997 0
M  V30 1517 H 146.055 -1.91657 -2.64452 0
M  V30 1518 H 144.714 -3.46978 -1.18331 0
M  V30 1519 H 144.362 -3.45115 -3.6593 0
M  V30 1520 H 144.062 -5.06788 -2.97388 0
M  V30 1521 H 145.586 -4.74146 -3.84731 0
M  V30 1522 H 147 -5.47582 -1.69785 0
M  V30 1523 H 145.397 -5.91073 -1.03693 0
M  V30 1524 H 146.467 -4.84786 -0.105041 0
M  V30 1525 N 147.81 0.181792 -1.56548 0
M  V30 1526 C 148.743 1.25366 -1.90679 0
M  V30 1527 C 149.721 1.43299 -0.768376 0
M  V30 1528 O 150.905 1.58475 -1.02068 0
M  V30 1529 C 148.032 2.61826 -2.1486 0
M  V30 1530 C 147.078 2.60688 -3.37556 0
M  V30 1531 S 147.911 2.10804 -4.92262 0
M  V30 1532 C 149.067 3.49062 -5.19525 0
M  V30 1533 H 149.3 0.962277 -2.81296 0
M  V30 1534 H 146.833 0.385892 -1.495 0
M  V30 1535 H 148.791 3.40371 -2.29473 0
M  V30 1536 H 147.452 2.88169 -1.24969 0
M  V30 1537 H 146.645 3.61058 -3.51643 0
M  V30 1538 H 146.247 1.90232 -3.22006 0
M  V30 1539 H 148.539 4.45003 -5.10861 0
M  V30 1540 H 149.482 3.39859 -6.2121 0
M  V30 1541 H 149.89 3.4459 -4.47122 0
M  V30 1542 N 149.288 1.51039 0.449983 0
M  V30 1543 C 150.518 1.66627 1.22143 0
M  V30 1544 C 150.926 0.357776 1.85786 0
M  V30 1545 O 150.269 -0.672424 1.70951 0
M  V30 1546 C 150.331 2.71562 2.35573 0
M  V30 1547 C 149.995 4.14526 1.92399 0
M  V30 1548 C 150.992 4.99717 1.43453 0
M  V30 1549 C 148.677 4.60559 2.00475 0
M  V30 1550 C 150.671 6.28998 1.03155 0
M  V30 1551 C 148.358 5.8984 1.59788 0
M  V30 1552 C 149.356 6.73886 1.11208 0
M  V30 1553 O 149.044 8.0075 0.710935 0
M  V30 1554 H 148.776 0.562635 0.374724 0
M  V30 1555 H 151.33 1.98146 0.541036 0
M  V30 1556 H 149.56 2.3533 3.06849 0
M  V30 1557 H 151.249 2.76156 2.97478 0
M  V30 1558 H 152.015 4.65361 1.36618 0
M  V30 1559 H 147.894 3.95273 2.37235 0
M  V30 1560 H 151.438 6.9455 0.651663 0
M  V30 1561 H 147.335 6.23713 1.66289 0
M  V30 1562 H 148.103 8.142 0.837913 0
M  V30 1563 N 150.766 -0.704594 1.40972 0
M  V30 1564 C 151.729 -1.80035 1.41845 0
M  V30 1565 C 152.729 -1.57774 0.310474 0
M  V30 1566 O 153.919 -1.64613 0.56992 0
M  V30 1567 C 151.051 -3.18284 1.22098 0
M  V30 1568 H 152.244 -1.80658 2.3938 0
M  V30 1569 H 149.797 -0.911329 1.26982 0
M  V30 1570 H 150.532 -3.23306 0.253672 0
M  V30 1571 H 150.317 -3.35843 2.02366 0
M  V30 1572 H 151.807 -3.98289 1.25522 0
M  V30 1573 N 152.244 -1.26651 -0.937939 0
M  V30 1574 C 153.192 -1.08308 -2.05845 0
M  V30 1575 C 154.186 -0.0090757 -1.69398 0
M  V30 1576 O 155.392 -0.166007 -1.79233 0
M  V30 1577 H 151.767 -0.333416 -0.674046 0
M  V30 1578 H 153.738 -2.03261 -2.18467 0
M  V30 1579 C 152.487 -0.736229 -3.39816 0
M  V30 1580 H 151.81 -1.55453 -3.6834 0
M  V30 1581 H 153.25 -0.64769 -4.19024 0
M  V30 1582 C 151.709 0.558824 -3.32233 0
M  V30 1583 O 152.239 1.59621 -3.68624 0
M  V30 1584 N 150.445 0.550657 -2.85335 0
M  V30 1585 H 149.992 -0.293943 -2.55917 0
M  V30 1586 H 149.95 1.41726 -2.80644 0
M  V30 1587 N 153.722 1.14298 -1.08507 0
M  V30 1588 C 154.652 2.21542 -0.737646 0
M  V30 1589 C 155.633 1.67773 0.280377 0
M  V30 1590 O 156.818 1.93616 0.150521 0
M  V30 1591 C 153.948 3.46988 -0.147259 0
M  V30 1592 C 152.902 4.13789 -1.09374 0
M  V30 1593 C 152.228 5.33449 -0.365524 0
M  V30 1594 C 153.528 4.62208 -2.4323 0
M  V30 1595 H 155.222 2.5086 -1.6343 0
M  V30 1596 H 152.768 1.20576 -0.787243 0
M  V30 1597 H 154.721 4.21262 0.107808 0
M  V30 1598 H 153.445 3.17037 0.784538 0
M  V30 1599 H 152.104 3.4147 -1.33393 0
M  V30 1600 H 151.752 4.99759 0.57011 0
M  V30 1601 H 151.452 5.79088 -0.996512 0
M  V30 1602 H 152.976 6.10485 -0.118534 0
M  V30 1603 H 154.39 5.27952 -2.23472 0
M  V30 1604 H 152.787 5.18553 -3.02031 0
M  V30 1605 H 153.857 3.77224 -3.04681 0
M  V30 1606 N 155.201 0.870884 1.31352 0
M  V30 1607 C 156.447 0.482987 1.96965 0
M  V30 1608 C 156.78 -0.962462 1.68672 0
M  V30 1609 O 156.055 -1.6779 0.98371 0
M  V30 1610 C 156.338 0.741752 3.52378 0
M  V30 1611 C 156.191 2.2368 3.9024 0
M  V30 1612 C 157.51 0.208838 4.39604 0
M  V30 1613 H 154.629 0.176955 0.715441 0
M  V30 1614 H 157.271 1.09229 1.55464 0
M  V30 1615 H 155.421 0.223149 3.87859 0
M  V30 1616 H 157.093 2.82273 3.64856 0
M  V30 1617 H 155.336 2.70901 3.38814 0
M  V30 1618 H 156.007 2.3685 4.98604 0
M  V30 1619 H 158.483 0.652529 4.10952 0
M  V30 1620 H 157.359 0.419336 5.47296 0
M  V30 1621 H 157.62 -0.889275 4.33064 0
M  V30 1622 N 156.679 -1.44442 0.630414 0
M  V30 1623 C 157.926 -2.02052 0.134617 0
M  V30 1624 C 158.254 -1.49576 -1.24327 0
M  V30 1625 O 157.509 -0.669806 -1.83881 0
M  V30 1626 C 157.808 -3.57332 0.0697835 0
M  V30 1627 C 157.474 -4.29058 1.38635 0
M  V30 1628 C 156.136 -4.4837 1.74694 0
M  V30 1629 C 158.488 -4.69872 2.25543 0
M  V30 1630 C 155.816 -5.05756 2.97369 0
M  V30 1631 C 158.168 -5.28616 3.47487 0
M  V30 1632 C 156.832 -5.46147 3.8377 0
M  V30 1633 H 156.102 -0.739361 0.0492598 0
M  V30 1634 H 158.749 -1.73217 0.816586 0
M  V30 1635 H 157.054 -3.85577 -0.695553 0
M  V30 1636 H 158.751 -3.99637 -0.330344 0
M  V30 1637 H 155.341 -4.14357 1.09574 0
M  V30 1638 H 159.525 -4.54666 1.98979 0
M  V30 1639 H 154.781 -5.17515 3.25558 0
M  V30 1640 H 158.955 -5.59192 4.15063 0
M  V30 1641 H 156.582 -5.9038 4.7891 0
M  V30 1642 N 158.157 -0.370918 -1.53173 0
M  V30 1643 C 159.105 0.488101 -2.27421 0
M  V30 1644 C 160.099 1.07884 -1.30604 0
M  V30 1645 O 161.305 1.02143 -1.48212 0
M  V30 1646 H 157.68 0.176134 -0.731082 0
M  V30 1647 H 159.651 -0.159815 -2.97972 0
M  V30 1648 C 158.4 1.61306 -3.08019 0
M  V30 1649 H 157.723 1.1678 -3.82364 0
M  V30 1650 H 159.163 2.18872 -3.63141 0
M  V30 1651 C 157.622 2.55848 -2.19188 0
M  V30 1652 O 158.152 3.58799 -1.80626 0
M  V30 1653 N 156.358 2.2516 -1.83715 0
M  V30 1654 H 155.905 1.41476 -2.15273 0
M  V30 1655 H 155.863 2.8867 -1.24567 0
M  V30 1656 N 159.635 1.57281 -0.100228 0
M  V30 1657 C 160.583 2.15542 0.874328 0
M  V30 1658 C 161.577 1.09962 1.28859 0
M  V30 1659 O 162.783 1.28298 1.26252 0
M  V30 1660 H 159.158 0.689567 0.300003 0
M  V30 1661 H 161.129 2.96241 0.35829 0
M  V30 1662 C 159.878 2.75454 2.1218 0
M  V30 1663 H 159.201 3.56384 1.81193 0
M  V30 1664 H 160.641 3.19781 2.78417 0
M  V30 1665 C 159.1 1.71602 2.89921 0
M  V30 1666 O 159.63 1.15804 3.84646 0
M  V30 1667 N 157.836 1.41975 2.53558 0
M  V30 1668 H 157.383 1.87539 1.76598 0
M  V30 1669 H 157.341 0.727274 3.05873 0
M  V30 1670 N 161.113 -0.173488 1.56642 0
M  V30 1671 C 162.361 -0.888706 1.81512 0
M  V30 1672 C 162.682 -1.82875 0.676872 0
M  V30 1673 O 161.952 -1.93536 -0.303414 0
M  V30 1674 H 160.532 -0.331164 0.669582 0
M  V30 1675 H 163.194 -0.173823 1.94123 0
M  V30 1676 H 162.29 -1.46691 2.75478 0
M  V30 1677 N 162.591 -1.51276 -0.441967 0
M  V30 1678 C 163.84 -1.6295 -1.18871 0
M  V30 1679 C 164.153 -0.349312 -1.92456 0
M  V30 1680 O 165.359 -0.345355 -2.69295 0
M  V30 1681 C 163.815 -2.87759 -2.16155 0
M  V30 1682 C 163.423 -4.22764 -1.48239 0
M  V30 1683 C 165.167 -3.08788 -2.91291 0
M  V30 1684 C 163.074 -5.38728 -2.4398 0
M  V30 1685 H 162.004 -0.606913 -0.447406 0
M  V30 1686 H 164.655 -1.77739 -0.456205 0
M  V30 1687 H 163.037 -2.66593 -2.92821 0
M  V30 1688 H 164.211 -4.54293 -0.771635 0
M  V30 1689 H 162.526 -4.07575 -0.852741 0
M  V30 1690 H 165.123 -3.92599 -3.63002 0
M  V30 1691 H 165.466 -2.21679 -3.5237 0
M  V30 1692 H 165.999 -3.30272 -2.21733 0
M  V30 1693 H 162.738 -6.28082 -1.87598 0
M  V30 1694 H 162.258 -5.1158 -3.13123 0
M  V30 1695 H 163.937 -5.70489 -3.05207 0
M  V30 1696 N 164.069 0.697108 -1.41344 0
M  V30 1697 C 165.346 1.45154 -1.31109 0
M  V30 1698 C 165.726 2.11009 0.0620449 0
M  V30 1699 O 165.074 2.01571 1.07618 0
M  V30 1700 C 165.284 2.47223 -2.46337 0
M  V30 1701 C 166.632 3.1252 -2.87431 0
M  V30 1702 O 167.656 2.57547 -2.46065 0
M  V30 1703 O 166.515 4.12083 -3.58957 0
M  V30 1704 H 163.609 0.646365 -0.515889 0
M  V30 1705 H 166.155 0.727716 -1.53305 0
M  V30 1706 H 164.927 1.97204 -3.37974 0
M  V30 1707 H 164.55 3.27116 -2.2601 0
M  V30 1708 N 165.547 1.27147 0.931209 0
M  V30 1709 C 166.51 1.09615 2.01289 0
M  V30 1710 C 167.51 0.0412581 1.60747 0
M  V30 1711 O 168.7 0.285545 1.71844 0
M  V30 1712 C 165.832 0.669447 3.34262 0
M  V30 1713 H 167.025 2.05662 2.18273 0
M  V30 1714 H 164.578 1.09885 1.11153 0
M  V30 1715 H 165.313 -0.292572 3.22978 0
M  V30 1716 H 165.098 1.43127 3.65044 0
M  V30 1717 H 166.588 0.568921 4.13706 0
M  V30 1718 N 167.025 -1.13721 1.09112 0
M  V30 1719 C 168.272 -1.84924 0.825192 0
M  V30 1720 C 168.6 -1.83347 -0.649151 0
M  V30 1721 O 167.855 -1.26449 -1.49362 0
M  V30 1722 C 168.154 -3.32861 1.30146 0
M  V30 1723 C 167.82 -3.54621 2.78486 0
M  V30 1724 C 166.482 -3.60268 3.18999 0
M  V30 1725 C 168.834 -3.62855 3.74146 0
M  V30 1726 C 166.162 -3.71679 4.53951 0
M  V30 1727 C 168.514 -3.75793 5.08883 0
M  V30 1728 C 167.178 -3.79692 5.4899 0
M  V30 1729 H 166.448 -0.676684 0.301959 0
M  V30 1730 H 169.095 -1.3428 1.36533 0
M  V30 1731 H 167.4 -3.85835 0.681064 0
M  V30 1732 H 169.097 -3.86395 1.07236 0
M  V30 1733 H 165.687 -3.50879 2.46134 0
M  V30 1734 H 169.871 -3.57775 3.43963 0
M  V30 1735 H 165.127 -3.72963 4.84467 0
M  V30 1736 H 169.301 -3.81107 5.82864 0
M  V30 1737 H 166.928 -3.88287 6.53558 0
M  V30 1738 N 168.503 -0.877838 -1.30888 0
M  V30 1739 C 169.733 -0.506678 -2.00291 0
M  V30 1740 C 170.141 0.907449 -1.66018 0
M  V30 1741 O 169.484 1.60719 -0.88967 0
M  V30 1742 C 169.546 -0.59323 -3.54572 0
M  V30 1743 C 169.21 -1.97038 -4.12341 0
M  V30 1744 C 170.207 -2.93889 -4.28865 0
M  V30 1745 C 167.892 -2.27383 -4.47886 0
M  V30 1746 C 169.886 -4.19224 -4.80136 0
M  V30 1747 C 167.573 -3.52965 -4.98857 0
M  V30 1748 C 168.571 -4.48701 -5.14934 0
M  V30 1749 O 168.259 -5.72056 -5.64808 0
M  V30 1750 H 167.991 -0.1951 -0.647234 0
M  V30 1751 H 170.545 -1.18301 -1.6791 0
M  V30 1752 H 168.775 0.140057 -3.86446 0
M  V30 1753 H 170.464 -0.234372 -4.05223 0
M  V30 1754 H 171.23 -2.71756 -4.01714 0
M  V30 1755 H 167.109 -1.53639 -4.34645 0
M  V30 1756 H 170.653 -4.93956 -4.92599 0
M  V30 1757 H 166.55 -3.74939 -5.25443 0
M  V30 1758 H 167.318 -5.74337 -5.83163 0
M  V30 1759 N 169.982 1.44106 -0.638065 0
M  V30 1760 C 170.945 2.29138 0.0531013 0
M  V30 1761 C 171.945 1.41409 0.765506 0
M  V30 1762 O 173.135 1.63206 0.609046 0
M  V30 1763 C 170.267 3.23144 1.08584 0
M  V30 1764 H 171.46 2.91739 -0.694883 0
M  V30 1765 H 169.013 1.51134 -0.398538 0
M  V30 1766 H 169.748 2.65408 1.86357 0
M  V30 1767 H 169.533 3.87804 0.578852 0
M  V30 1768 H 171.023 3.87004 1.56899 0
M  V30 1769 N 171.46 0.379036 1.52974 0
M  V30 1770 C 172.876 0.0285448 1.59574 0
M  V30 1771 C 173.076 -1.45542 1.39355 0
M  V30 1772 O 172.132 -2.2187 1.20541 0
M  V30 1773 C 173.445 0.496535 2.96572 0
M  V30 1774 C 174.993 0.451909 3.0972 0
M  V30 1775 C 175.468 0.895924 4.49152 0
M  V30 1776 N 176.959 0.851522 4.55306 0
M  V30 1777 C 177.694 1.16661 5.61407 0
M  V30 1778 N 177.19 1.55166 6.752 0
M  V30 1779 N 178.983 1.08853 5.51459 0
M  V30 1780 H 171.134 1.34525 1.64367 0
M  V30 1781 H 173.397 0.550733 0.771619 0
M  V30 1782 H 173.103 1.53258 3.16552 0
M  V30 1783 H 172.977 -0.109802 3.7704 0
M  V30 1784 H 175.364 -0.575029 2.89443 0
M  V30 1785 H 175.445 1.09392 2.3123 0
M  V30 1786 H 175.089 1.92104 4.70168 0
M  V30 1787 H 175.019 0.23103 5.26093 0
M  V30 1788 H 177.51 0.568038 3.73606 0
M  V30 1789 H 177.823 1.776 7.52116 0
M  V30 1790 H 176.168 1.59044 6.76557 0
M  V30 1791 H 179.359 0.786803 4.6144 0
M  V30 1792 H 179.532 1.33742 6.34048 0
M  V30 1793 N 172.938 -1.57226 0.108567 0
M  V30 1794 C 174.178 -1.96717 -0.555155 0
M  V30 1795 C 174.542 -0.990003 -1.64508 0
M  V30 1796 O 175.743 -1.2739 -2.36696 0
M  V30 1797 C 174.014 -3.40575 -1.08367 0
M  V30 1798 S 175.573 -4.02072 -1.75737 0
M  V30 1799 H 172.391 -0.687638 -0.180762 0
M  V30 1800 H 174.993 -1.94563 0.191172 0
M  V30 1801 H 173.697 -4.0945 -0.279092 0
M  V30 1802 H 173.228 -3.46356 -1.86551 0
M  V30 1803 H 175.243 -3.91977 -3.04251 0
M  V30 1804 N 174.416 0.165178 -1.56732 0
M  V30 1805 C 175.326 1.22423 -2.00125 0
M  V30 1806 C 176.342 1.48084 -0.913619 0
M  V30 1807 O 177.518 1.60112 -1.22172 0
M  V30 1808 C 174.583 2.54197 -2.35764 0
M  V30 1809 C 173.644 2.36343 -3.58386 0
M  V30 1810 C 172.877 3.61834 -3.92316 0
M  V30 1811 O 173.1 4.67267 -3.27135 0
M  V30 1812 O 172.034 3.55579 -4.85641 0
M  V30 1813 H 175.86 0.885886 -2.90492 0
M  V30 1814 H 173.445 0.372518 -1.44681 0
M  V30 1815 H 175.327 3.3192 -2.59629 0
M  V30 1816 H 174.002 2.87598 -1.48557 0
M  V30 1817 H 172.909 1.56632 -3.39731 0
M  V30 1818 H 174.242 2.07865 -4.46154 0
M  V30 1819 N 175.894 1.51508 0.433938 0
M  V30 1820 C 176.826 1.69266 1.54537 0
M  V30 1821 C 177.839 0.573276 1.52373 0
M  V30 1822 O 179.028 0.847698 1.57087 0
M  V30 1823 C 176.128 1.69524 2.93453 0
M  V30 1824 C 175.301 2.98101 3.20085 0
M  V30 1825 C 174.36 2.90502 4.38742 0
M  V30 1826 O 173.386 3.64442 4.3723 0
M  V30 1827 N 174.588 2.06586 5.42496 0
M  V30 1828 H 177.353 2.65145 1.39708 0
M  V30 1829 H 174.914 1.49437 0.622922 0
M  V30 1830 H 176.906 1.62004 3.70859 0
M  V30 1831 H 175.476 0.812245 3.01863 0
M  V30 1832 H 174.696 3.19464 2.30947 0
M  V30 1833 H 175.984 3.83207 3.34708 0
M  V30 1834 H 175.382 1.45896 5.46563 0
M  V30 1835 H 173.939 2.04943 6.18742 0
M  V30 1836 N 177.372 -0.689602 1.41712 0
M  V30 1837 C 178.618 -1.45181 1.41599 0
M  V30 1838 C 178.951 -1.94181 0.0270081 0
M  V30 1839 O 178.226 -1.6993 -0.946265 0
M  V30 1840 C 178.509 -2.65945 2.42787 0
M  V30 1841 C 178.362 -2.22672 3.90816 0
M  V30 1842 C 179.681 -3.68149 2.41151 0
M  V30 1843 H 176.8 -0.526576 0.515642 0
M  V30 1844 H 179.442 -0.784947 1.73028 0
M  V30 1845 H 177.592 -3.2284 2.16116 0
M  V30 1846 H 179.264 -1.71058 4.28412 0
M  V30 1847 H 177.507 -1.54394 4.05395 0
M  V30 1848 H 178.178 -3.0935 4.57172 0
M  V30 1849 H 180.654 -3.2094 2.64834 0
M  V30 1850 H 179.53 -4.50248 3.13955 0
M  V30 1851 H 179.791 -4.18259 1.43221 0
M  V30 1852 N 178.85 -1.27639 -0.924453 0
M  V30 1853 C 180.098 -1.13941 -1.66918 0
M  V30 1854 C 180.419 0.314589 -1.92446 0
M  V30 1855 O 179.689 1.21964 -1.53303 0
M  V30 1856 H 178.269 -0.418678 -0.618642 0
M  V30 1857 H 180.931 -1.60213 -1.10985 0
M  V30 1858 H 180.027 -1.67094 -2.63602 0
M  V30 1859 N 180.328 1.1314 -1.09713 0
M  V30 1860 C 181.574 1.84757 -0.836224 0
M  V30 1861 C 181.907 1.8347 0.636598 0
M  V30 1862 O 181.182 1.27491 1.46889 0
M  V30 1863 C 181.465 3.32782 -1.37578 0
M  V30 1864 C 181.318 3.42567 -2.91493 0
M  V30 1865 C 182.637 4.28307 -1.01198 0
M  V30 1866 H 179.756 0.67082 -0.305236 0
M  V30 1867 H 182.398 1.3278 -1.35903 0
M  V30 1868 H 180.548 3.77177 -0.931097 0
M  V30 1869 H 182.22 3.06862 -3.44432 0
M  V30 1870 H 180.463 2.83349 -3.28475 0
M  V30 1871 H 181.134 4.46674 -3.24324 0
M  V30 1872 H 183.61 3.91999 -1.39556 0
M  V30 1873 H 182.486 5.30307 -1.41653 0
M  V30 1874 H 182.747 4.42029 0.0794833 0
M  V30 1875 N 181.806 0.884767 1.30421 0
M  V30 1876 C 183.083 0.423185 1.90967 0
M  V30 1877 C 183.463 -1.09605 1.80416 0
M  V30 1878 O 182.811 -1.93126 1.22125 0
M  V30 1879 C 183.021 0.921056 3.36627 0
M  V30 1880 C 184.369 0.955903 4.137 0
M  V30 1881 O 185.393 0.867706 3.4547 0
M  V30 1882 O 184.252 1.08614 5.35598 0
M  V30 1883 H 181.346 0.129369 0.816819 0
M  V30 1884 H 183.892 0.973653 1.3899 0
M  V30 1885 H 182.664 1.96489 3.3839 0
M  V30 1886 H 182.287 0.349741 3.96059 0
M  V30 1887 N 183.284 -1.43765 0.645699 0
M  V30 1888 C 184.509 -2.06767 0.161883 0
M  V30 1889 C 184.934 -1.48034 -1.16049 0
M  V30 1890 O 184.292 -0.587369 -1.71522 0
M  V30 1891 C 184.34 -3.60519 0.0762003 0
M  V30 1892 O 183.444 -4.00982 -0.963721 0
M  V30 1893 H 182.785 -0.657675 0.091429 0
M  V30 1894 H 185.315 -1.84397 0.886499 0
M  V30 1895 H 185.325 -4.07853 -0.109604 0
M  V30 1896 H 184 -4.02646 1.04157 0
M  V30 1897 H 182.577 -3.65253 -0.751312 0
M  V30 1898 N 184.763 -0.387143 -1.52771 0
M  V30 1899 C 186.009 0.196025 -2.0185 0
M  V30 1900 C 186.342 1.46641 -1.27319 0
M  V30 1901 O 185.617 1.90889 -0.373032 0
M  V30 1902 C 185.9 0.466136 -3.5707 0
M  V30 1903 C 185.753 -0.819385 -4.42274 0
M  V30 1904 C 187.072 1.25768 -4.21747 0
M  V30 1905 H 184.191 0.0697708 -0.73369 0
M  V30 1906 H 186.833 -0.516286 -1.82851 0
M  V30 1907 H 184.983 1.07293 -3.7339 0
M  V30 1908 H 186.655 -1.4563 -4.37709 0
M  V30 1909 H 184.898 -1.43517 -4.09372 0
M  V30 1910 H 185.569 -0.585065 -5.48891 0
M  V30 1911 H 188.045 0.744167 -4.09391 0
M  V30 1912 H 186.921 1.41541 -5.30337 0
M  V30 1913 H 187.182 2.27228 -3.79236 0
M  V30 1914 N 186.241 1.57166 -0.116904 0
M  V30 1915 C 187.171 2.18222 0.830759 0
M  V30 1916 C 188.152 1.12167 1.27877 0
M  V30 1917 O 189.337 1.40394 1.34176 0
M  V30 1918 C 186.467 2.77996 2.08172 0
M  V30 1919 C 185.421 3.89614 1.77157 0
M  V30 1920 C 184.747 4.36187 3.09265 0
M  V30 1921 C 186.047 5.1181 1.04151 0
M  V30 1922 H 187.741 2.97664 0.321992 0
M  V30 1923 H 185.287 1.4318 0.153434 0
M  V30 1924 H 187.24 3.19366 2.74924 0
M  V30 1925 H 185.964 1.9584 2.6137 0
M  V30 1926 H 184.623 3.48816 1.12796 0
M  V30 1927 H 184.271 3.50893 3.60393 0
M  V30 1928 H 183.971 5.11455 2.89288 0
M  V30 1929 H 185.495 4.80207 3.77139 0
M  V30 1930 H 186.909 5.50214 1.61052 0
M  V30 1931 H 185.306 5.92648 0.942762 0
M  V30 1932 H 186.376 4.84892 0.0279022 0
M  V30 1933 N 187.719 -0.156864 1.56817 0
M  V30 1934 C 188.965 -0.872416 1.83076 0
M  V30 1935 C 189.298 -1.81261 0.697001 0
M  V30 1936 O 188.573 -1.92171 -0.30008 0
M  V30 1937 C 188.856 -1.65551 3.19789 0
M  V30 1938 C 188.709 -0.737467 4.43713 0
M  V30 1939 C 190.028 -2.62012 3.53606 0
M  V30 1940 H 187.147 -0.315715 0.665953 0
M  V30 1941 H 189.789 -0.138004 1.89498 0
M  V30 1942 H 187.939 -2.28159 3.14445 0
M  V30 1943 H 189.611 -0.123143 4.61136 0
M  V30 1944 H 187.854 -0.0464067 4.33775 0
M  V30 1945 H 188.525 -1.32122 5.35955 0
M  V30 1946 H 191.001 -2.09525 3.59497 0
M  V30 1947 H 189.877 -3.13861 4.50314 0
M  V30 1948 H 190.138 -3.42902 2.79053 0
M  V30 1949 N 189.197 -1.51736 -0.425897 0
M  V30 1950 C 190.16 -1.73271 -1.50032 0
M  V30 1951 C 191.16 -0.602639 -1.4908 0
M  V30 1952 O 192.35 -0.87033 -1.509 0
M  V30 1953 C 189.482 -1.79969 -2.89523 0
M  V30 1954 H 190.675 -2.69172 -1.32237 0
M  V30 1955 H 188.228 -1.41899 -0.65532 0
M  V30 1956 H 188.963 -0.859241 -3.1271 0
M  V30 1957 H 188.748 -2.62109 -2.91619 0
M  V30 1958 H 190.238 -1.9843 -3.67444 0
M  V30 1959 N 190.675 0.682077 -1.42076 0
M  V30 1960 C 191.952 1.43755 -1.32642 0
M  V30 1961 C 192.332 2.11063 0.0396611 0
M  V30 1962 O 191.68 2.02701 1.05474 0
M  V30 1963 C 191.89 2.44596 -2.48946 0
M  V30 1964 C 193.238 3.09454 -2.9073 0
M  V30 1965 O 194.262 2.54922 -2.48783 0
M  V30 1966 O 193.121 4.08253 -3.63307 0
M  V30 1967 H 190.215 0.640857 -0.522715 0
M  V30 1968 H 192.761 0.711415 -1.54068 0
M  V30 1969 H 191.533 1.93609 -3.40046 0
M  V30 1970 H 191.156 3.24701 -2.29467 0
M  V30 1971 N 192.153 1.28127 0.917671 0
M  V30 1972 C 193.399 1.15223 1.66888 0
M  V30 1973 C 193.732 -0.299293 1.9188 0
M  V30 1974 O 193.007 -1.21805 1.51637 0
M  V30 1975 C 193.29 1.94706 3.02922 0
M  V30 1976 C 193.143 3.47898 2.85109 0
M  V30 1977 C 194.462 1.75939 4.03402 0
M  V30 1978 H 191.581 0.419946 0.605652 0
M  V30 1979 H 194.223 1.57398 1.06423 0
M  V30 1980 H 192.373 1.58864 3.54534 0
M  V30 1981 H 194.045 3.93624 2.40537 0
M  V30 1982 H 192.288 3.7373 2.20246 0
M  V30 1983 H 192.959 3.98765 3.81694 0
M  V30 1984 H 195.435 2.07209 3.60837 0
M  V30 1985 H 194.311 2.33931 4.96556 0
M  V30 1986 H 194.572 0.709877 4.36364 0
M  V30 1987 N 193.631 -1.12557 1.10312 0
M  V30 1988 C 195.042 -1.65574 0.862678 0
M  V30 1989 C 195.393 -1.86566 -0.607256 0
M  V30 1990 O 194.518 -1.59121 -1.46662 0
M  V30 1991 C 195.113 -3.00776 1.55947 0
M  V30 1992 C 193.672 -3.50748 1.36576 0
M  V30 1993 C 192.819 -2.25797 1.60968 0
M  V30 1994 H 195.77 -0.963552 1.26101 0
M  V30 1995 H 195.791 -3.67185 0.997753 0
M  V30 1996 H 195.303 -2.85465 2.62928 0
M  V30 1997 H 193.404 -3.71245 0.317531 0
M  V30 1998 H 193.517 -4.30289 2.10686 0
M  V30 1999 H 191.881 -2.32841 1.03234 0
M  V30 2000 H 192.664 -2.13043 2.69198 0
M  V30 2001 N 195.109 -0.891671 -1.2995 0
M  V30 2002 C 196.355 -0.514261 -1.96171 0
M  V30 2003 C 196.688 0.935506 -1.70182 0
M  V30 2004 O 195.963 1.66204 -1.01028 0
M  V30 2005 C 196.246 -0.797719 -3.51153 0
M  V30 2006 C 196.099 -2.2986 -3.86632 0
M  V30 2007 C 197.418 -0.278749 -4.39216 0
M  V30 2008 H 194.537 -0.188314 -0.712535 0
M  V30 2009 H 197.179 -1.11689 -1.53706 0
M  V30 2010 H 195.329 -0.284826 -3.87455 0
M  V30 2011 H 197.001 -2.88042 -3.60319 0
M  V30 2012 H 195.244 -2.76257 -3.34462 0
M  V30 2013 H 195.915 -2.44753 -4.94773 0
M  V30 2014 H 198.391 -0.717825 -4.09862 0
M  V30 2015 H 197.267 -0.506353 -5.46559 0
M  V30 2016 H 197.528 0.820266 -4.34424 0
M  V30 2017 N 196.587 1.43421 -0.653314 0
M  V30 2018 C 197.497 2.34568 0.0388565 0
M  V30 2019 C 198.513 1.53888 0.81207 0
M  V30 2020 O 199.689 1.86539 0.759294 0
M  V30 2021 C 196.754 3.32167 0.993269 0
M  V30 2022 C 195.815 4.28751 0.216977 0
M  V30 2023 C 195.048 5.21688 1.12593 0
M  V30 2024 O 195.271 5.19052 2.36519 0
M  V30 2025 O 194.205 5.98919 0.598284 0
M  V30 2026 H 198.031 2.95251 -0.711386 0
M  V30 2027 H 195.616 1.43564 -0.413502 0
M  V30 2028 H 197.498 3.92183 1.54176 0
M  V30 2029 H 196.173 2.73987 1.72374 0
M  V30 2030 H 195.08 3.72215 -0.375101 0
M  V30 2031 H 196.413 4.89913 -0.473924 0
M  V30 2032 N 198.065 0.39524 1.52563 0
M  V30 2033 C 198.975 -0.444232 2.30356 0
M  V30 2034 C 199.991 -1.06615 1.37511 0
M  V30 2035 O 201.167 -1.07067 1.70583 0
M  V30 2036 C 198.232 -1.55315 3.09964 0
M  V30 2037 C 197.293 -0.955734 4.18526 0
M  V30 2038 C 196.526 -2.01181 4.9433 0
M  V30 2039 O 196.749 -3.22781 4.70285 0
M  V30 2040 O 195.683 -1.62579 5.79527 0
M  V30 2041 H 199.509 0.189667 3.03107 0
M  V30 2042 H 197.094 0.1588 1.48554 0
M  V30 2043 H 198.976 -2.19724 3.59582 0
M  V30 2044 H 197.651 -2.17191 2.4002 0
M  V30 2045 H 196.558 -0.274743 3.7309 0
M  V30 2046 H 197.891 -0.381109 4.90722 0
M  V30 2047 N 199.544 -1.57102 0.125237 0
M  V30 2048 C 200.769 -2.0019 -0.542101 0
M  V30 2049 C 201.194 -1.00449 -1.59034 0
M  V30 2050 O 200.552 0.0229423 -1.81285 0
M  V30 2051 C 200.6 -3.42129 -1.13929 0
M  V30 2052 O 199.704 -3.45307 -2.2547 0
M  V30 2053 H 199.045 -0.650171 -0.134812 0
M  V30 2054 H 201.575 -2.03461 0.215553 0
M  V30 2055 H 201.585 -3.80471 -1.4733 0
M  V30 2056 H 200.26 -4.14237 -0.371531 0
M  V30 2057 H 198.837 -3.1879 -1.93462 0
M  V30 2058 N 201.022 0.148545 -1.56898 0
M  V30 2059 C 201.985 1.16736 -1.97244 0
M  V30 2060 C 202.985 1.35947 -0.858777 0
M  V30 2061 O 204.175 1.32966 -1.12542 0
M  V30 2062 C 201.307 2.52798 -2.28705 0
M  V30 2063 H 202.5 0.821279 -2.88435 0
M  V30 2064 H 200.053 0.391831 -1.51309 0
M  V30 2065 H 200.788 2.92381 -1.403 0
M  V30 2066 H 200.573 2.40216 -3.09901 0
M  V30 2067 H 202.063 3.26179 -2.60762 0
M  V30 2068 N 202.5 1.5196 0.417844 0
M  V30 2069 C 203.911 1.57851 0.997 0
M  V30 2070 C 204.262 0.413714 1.91789 0
M  V30 2071 O 203.387 -0.467057 2.113 0
M  V30 2072 C 203.982 2.86085 1.81496 0
M  V30 2073 C 202.541 2.94483 2.34428 0
M  V30 2074 C 201.688 2.52707 1.14169 0
M  V30 2075 H 204.639 1.57455 0.198392 0
M  V30 2076 H 204.66 2.70947 2.67148 0
M  V30 2077 H 204.172 3.70842 1.14446 0
M  V30 2078 H 202.273 2.142 3.04875 0
M  V30 2079 H 202.386 3.98546 2.65891 0
M  V30 2080 H 200.75 2.06353 1.49301 0
M  V30 2081 H 201.533 3.39828 0.486999 0
M  V30 2082 N 203.978 -0.674533 1.42435 0
M  V30 2083 C 205.225 -1.43459 1.42919 0
M  V30 2084 C 205.553 -1.94446 0.0457312 0
M  V30 2085 O 204.808 -1.7132 -0.94593 0
M  V30 2086 C 205.107 -2.64767 2.40069 0
M  V30 2087 C 204.773 -2.3232 3.86443 0
M  V30 2088 C 203.435 -2.23182 4.26314 0
M  V30 2089 C 205.787 -2.05977 4.78773 0
M  V30 2090 C 203.115 -1.85827 5.56494 0
M  V30 2091 C 205.467 -1.70125 6.09295 0
M  V30 2092 C 204.131 -1.59498 6.48164 0
M  V30 2093 H 203.401 -0.524952 0.522978 0
M  V30 2094 H 206.048 -0.769097 1.75377 0
M  V30 2095 H 204.353 -3.36349 2.00939 0
M  V30 2096 H 206.05 -3.22949 2.37707 0
M  V30 2097 H 202.64 -2.40334 3.54877 0
M  V30 2098 H 206.824 -2.11969 4.48757 0
M  V30 2099 H 202.08 -1.76168 5.8547 0
M  V30 2100 H 206.254 -1.48767 6.80324 0
M  V30 2101 H 203.881 -1.30322 7.48946 0
M  V30 2102 N 205.456 -1.28612 -0.910864 0
M  V30 2103 C 206.872 -1.06381 -1.18976 0
M  V30 2104 C 207.072 0.191998 -2.00583 0
M  V30 2105 O 206.128 0.892869 -2.36187 0
M  V30 2106 C 207.441 -2.31295 -1.92154 0
M  V30 2107 C 208.989 -2.36503 -2.05025 0
M  V30 2108 C 209.464 -3.61191 -2.81612 0
M  V30 2109 N 210.955 -3.61847 -2.89172 0
M  V30 2110 C 211.69 -4.55004 -3.4894 0
M  V30 2111 N 211.186 -5.58482 -4.09963 0
M  V30 2112 N 212.979 -4.42594 -3.46506 0
M  V30 2113 H 205.13 -2.09221 -0.366094 0
M  V30 2114 H 207.393 -0.921003 -0.224629 0
M  V30 2115 H 207.099 -3.228 -1.39618 0
M  V30 2116 H 206.973 -2.37934 -2.9269 0
M  V30 2117 H 209.36 -1.45494 -2.5674 0
M  V30 2118 H 209.441 -2.33857 -1.03657 0
M  V30 2119 H 209.085 -4.52545 -2.30576 0
M  V30 2120 H 209.015 -3.61092 -3.83302 0
M  V30 2121 H 211.506 -2.87022 -2.45819 0
M  V30 2122 H 211.819 -6.25704 -4.53557 0
M  V30 2123 H 210.164 -5.62305 -4.08459 0
M  V30 2124 H 213.355 -3.60953 -2.98045 0
M  V30 2125 H 213.528 -5.15381 -3.92793 0
M  V30 2126 N 206.934 1.1197 -1.10907 0
M  V30 2127 C 207.866 2.17592 -0.720175 0
M  V30 2128 C 208.879 1.60938 0.245495 0
M  V30 2129 O 210.068 1.78476 0.0292245 0
M  V30 2130 C 207.168 3.38873 -0.0427917 0
M  V30 2131 C 206.341 4.25006 -1.03388 0
M  V30 2132 C 205.4 5.24774 -0.387075 0
M  V30 2133 O 204.426 5.59631 -1.03934 0
M  V30 2134 N 205.628 5.74208 0.852407 0
M  V30 2135 H 208.393 2.51567 -1.62893 0
M  V30 2136 H 205.954 1.27439 -0.998543 0
M  V30 2137 H 207.946 4.02703 0.401501 0
M  V30 2138 H 206.516 3.03007 0.768456 0
M  V30 2139 H 205.736 3.57716 -1.65629 0
M  V30 2140 H 207.024 4.79397 -1.70458 0
M  V30 2141 H 206.422 5.48062 1.40161 0
M  V30 2142 H 204.979 6.39901 1.23977 0
M  V30 2143 N 208.412 0.89855 1.29475 0
M  V30 2144 C 209.375 0.380272 2.26023 0
M  V30 2145 C 210.375 -0.484891 1.53315 0
M  V30 2146 O 211.565 -0.290108 1.71767 0
M  V30 2147 C 208.697 -0.45651 3.3783 0
M  V30 2148 H 209.89 1.23295 2.73383 0
M  V30 2149 H 207.443 0.676589 1.40897 0
M  V30 2150 H 208.178 -1.32922 2.95808 0
M  V30 2151 H 207.963 0.163393 3.91759 0
M  V30 2152 H 209.453 -0.810466 4.0966 0
M  V30 2153 N 209.89 -1.43072 0.660911 0
M  V30 2154 C 210.853 -2.29194 -0.0166406 0
M  V30 2155 C 211.853 -1.42609 -0.742912 0
M  V30 2156 O 213.043 -1.64155 -0.583004 0
M  V30 2157 C 210.175 -3.24831 -1.0343 0
M  V30 2158 H 211.368 -2.90596 0.741208 0
M  V30 2159 H 208.921 -1.5048 0.422532 0
M  V30 2160 H 209.656 -2.68339 -1.82111 0
M  V30 2161 H 209.441 -3.88676 -0.517082 0
M  V30 2162 H 210.931 -3.89451 -1.50723 0
M  V30 2163 N 211.368 -0.403325 -1.52352 0
M  V30 2164 C 212.298 0.416205 -2.29761 0
M  V30 2165 C 213.279 1.05123 -1.33728 0
M  V30 2166 O 214.464 1.06134 -1.62632 0
M  V30 2167 C 211.594 1.53624 -3.11475 0
M  V30 2168 C 210.548 1.02653 -4.15507 0
M  V30 2169 C 209.874 2.23971 -4.85532 0
M  V30 2170 C 211.174 0.08463 -5.22231 0
M  V30 2171 H 212.868 -0.229701 -2.98518 0
M  V30 2172 H 210.414 -0.111913 -1.43564 0
M  V30 2173 H 212.367 2.1165 -3.64393 0
M  V30 2174 H 211.091 2.20994 -2.40477 0
M  V30 2175 H 209.75 0.46871 -3.63591 0
M  V30 2176 H 209.398 2.89883 -4.11068 0
M  V30 2177 H 209.098 1.90521 -5.55856 0
M  V30 2178 H 210.622 2.82614 -5.41259 0
M  V30 2179 H 212.036 0.573509 -5.70424 0
M  V30 2180 H 210.433 -0.160783 -5.99885 0
M  V30 2181 H 211.503 -0.86237 -4.7717 0
M  V30 2182 N 212.846 1.57033 -0.133567 0
M  V30 2183 C 214.262 1.58035 0.222944 0
M  V30 2184 C 214.462 1.14713 1.6566 0
M  V30 2185 O 213.518 0.841218 2.38075 0
M  V30 2186 C 214.831 3.00691 -0.0236116 0
M  V30 2187 C 216.379 3.12973 0.0411512 0
M  V30 2188 C 216.854 4.57654 -0.177899 0
M  V30 2189 N 218.345 4.63033 -0.124365 0
M  V30 2190 C 219.08 5.72771 -0.268553 0
M  V30 2191 N 218.576 6.91206 -0.46972 0
M  V30 2192 N 220.369 5.61718 -0.2071 0
M  V30 2193 H 212.52 1.8349 -1.06981 0
M  V30 2194 H 214.783 0.848677 -0.422436 0
M  V30 2195 H 214.489 3.36726 -1.0153 0
M  V30 2196 H 214.363 3.70614 0.701808 0
M  V30 2197 H 216.75 2.76787 1.02338 0
M  V30 2198 H 216.831 2.45564 -0.716383 0
M  V30 2199 H 216.475 4.94542 -1.15717 0
M  V30 2200 H 216.405 5.23173 0.599797 0
M  V30 2201 H 218.896 3.7789 0.027011 0
M  V30 2202 H 219.209 7.70693 -0.570212 0
M  V30 2203 H 217.554 6.93156 -0.505876 0
M  V30 2204 H 220.745 4.68072 -0.0507986 0
M  V30 2205 H 220.918 6.47195 -0.322909 0
M  V30 2206 N 214.325 -0.140222 1.56975 0
M  V30 2207 C 215.275 -1.17827 1.95194 0
M  V30 2208 C 216.259 -1.38195 0.824075 0
M  V30 2209 O 217.451 -1.39643 1.0876 0
M  V30 2210 C 214.58 -2.51024 2.34184 0
M  V30 2211 C 213.666 -2.3422 3.53556 0
M  V30 2212 N 214.057 -1.87185 4.69889 0
M  V30 2213 C 212.355 -2.64949 3.58773 0
M  V30 2214 C 213.056 -1.83586 5.5197 0
M  V30 2215 N 212.032 -2.2715 4.93866 0
M  V30 2216 H 215.834 -0.806817 2.82609 0
M  V30 2217 H 213.348 -0.348208 1.58623 0
M  V30 2218 H 215.345 -3.26074 2.59772 0
M  V30 2219 H 214.005 -2.88945 1.48124 0
M  V30 2220 H 215.016 -1.57048 4.93514 0
M  V30 2221 H 211.693 -3.067 2.8327 0
M  V30 2222 H 213.083 -1.48655 6.55249 0
M  V30 2223 N 215.803 -1.52179 -0.40978 0
M  V30 2224 C 216.751 -1.76086 -1.51975 0
M  V30 2225 C 217.745 -0.627964 -1.57331 0
M  V30 2226 O 218.951 -0.809993 -1.60745 0
M  V30 2227 H 215.326 -0.556829 -0.505416 0
M  V30 2228 H 217.297 -2.69077 -1.28996 0
M  V30 2229 C 216.046 -1.92799 -2.8935 0
M  V30 2230 H 215.369 -2.79392 -2.85972 0
M  V30 2231 H 216.809 -2.13527 -3.66309 0
M  V30 2232 C 215.268 -0.694923 -3.29655 0
M  V30 2233 O 215.798 0.13751 -4.01465 0
M  V30 2234 N 214.004 -0.53101 -2.85707 0
M  V30 2235 H 213.551 -1.20952 -2.27439 0
M  V30 2236 H 213.509 0.292718 -3.13034 0
M  V30 2237 N 217.281 0.66697 -1.42791 0
M  V30 2238 C 218.53 1.42278 -1.42968 0
M  V30 2239 C 218.843 1.9553 -0.0524489 0
M  V30 2240 O 220.049 2.71414 0.068363 0
M  V30 2241 C 218.505 2.57418 -2.51524 0
M  V30 2242 C 218.113 2.10832 -3.9529 0
M  V30 2243 C 219.857 3.34878 -2.60877 0
M  V30 2244 C 217.764 3.23101 -4.95338 0
M  V30 2245 H 216.694 0.534533 -0.531781 0
M  V30 2246 H 219.345 0.721302 -1.68729 0
M  V30 2247 H 217.727 3.29971 -2.18941 0
M  V30 2248 H 218.901 1.4538 -4.37266 0
M  V30 2249 H 217.216 1.46289 -3.89857 0
M  V30 2250 H 219.813 4.18505 -3.32802 0
M  V30 2251 H 220.156 3.81993 -1.6549 0
M  V30 2252 H 220.689 2.69398 -2.92693 0
M  V30 2253 H 217.428 2.80969 -5.9223 0
M  V30 2254 H 216.948 3.87309 -4.57987 0
M  V30 2255 H 218.627 3.88447 -5.17415 0
M  V30 2256 N 218.759 1.29093 0.90403 0
M  V30 2257 C 219.722 1.1386 1.98919 0
M  V30 2258 C 220.722 0.0753457 1.60623 0
M  V30 2259 O 221.912 0.321931 1.71199 0
M  V30 2260 C 219.044 0.740198 3.32767 0
M  V30 2261 H 220.237 2.10246 2.13861 0
M  V30 2262 H 217.79 1.12218 1.08797 0
M  V30 2263 H 218.525 -0.223997 3.23525 0
M  V30 2264 H 218.31 1.50838 3.61926 0
M  V30 2265 H 219.8 0.656546 4.12407 0
M  V30 2266 N 220.237 -1.11381 1.11499 0
M  V30 2267 C 221.648 -1.6465 0.880191 0
M  V30 2268 C 221.999 -1.87199 -0.587434 0
M  V30 2269 O 221.124 -1.60667 -1.44966 0
M  V30 2270 C 221.719 -2.99105 1.59128 0
M  V30 2271 C 220.278 -3.49279 1.40289 0
M  V30 2272 C 219.425 -2.24077 1.63354 0
M  V30 2273 H 222.376 -0.950123 1.27116 0
M  V30 2274 H 222.397 -3.66107 1.03664 0
M  V30 2275 H 221.909 -2.82661 2.65941 0
M  V30 2276 H 220.01 -3.70887 0.356888 0
M  V30 2277 H 220.123 -4.2803 2.15238 0
M  V30 2278 H 218.487 -2.31733 1.05698 0
M  V30 2279 H 219.27 -2.10175 2.71443 0
M  V30 2280 N 221.715 -0.905404 -1.28997 0
M  V30 2281 C 222.964 -0.530191 -1.94607 0
M  V30 2282 C 223.277 0.929185 -1.72121 0
M  V30 2283 O 224.483 1.41218 -2.31883 0
M  V30 2284 C 222.939 -0.897333 -3.48534 0
M  V30 2285 C 222.547 -2.37587 -3.79811 0
M  V30 2286 C 224.291 -0.592304 -4.20347 0
M  V30 2287 C 222.198 -2.68357 -5.27009 0
M  V30 2288 H 221.128 -0.194558 -0.728466 0
M  V30 2289 H 223.779 -1.10318 -1.46636 0
M  V30 2290 H 222.161 -0.253214 -3.9519 0
M  V30 2291 H 223.335 -3.06602 -3.43994 0
M  V30 2292 H 221.65 -2.6505 -3.2115 0
M  V30 2293 H 224.247 -0.798975 -5.28697 0
M  V30 2294 H 224.59 0.469474 -4.13644 0
M  V30 2295 H 225.123 -1.19452 -3.79442 0
M  V30 2296 H 221.862 -3.73355 -5.38782 0
M  V30 2297 H 221.382 -2.03971 -5.64053 0
M  V30 2298 H 223.061 -2.54922 -5.94663 0
M  V30 2299 N 223.193 1.4272 -0.668489 0
M  V30 2300 C 224.44 2.01624 -0.18814 0
M  V30 2301 C 224.768 1.5282 1.20317 0
M  V30 2302 O 224.023 0.718323 1.8204 0
M  V30 2303 C 224.322 3.57021 -0.164499 0
M  V30 2304 C 223.988 4.25232 -1.49962 0
M  V30 2305 C 222.65 4.4358 -1.8652 0
M  V30 2306 C 225.002 4.63727 -2.37921 0
M  V30 2307 C 222.33 4.97694 -3.10674 0
M  V30 2308 C 224.682 5.19218 -3.6138 0
M  V30 2309 C 223.346 5.3578 -3.98115 0
M  V30 2310 H 222.616 0.737795 -0.0688454 0
M  V30 2311 H 225.263 1.70991 -0.862225 0
M  V30 2312 H 223.568 3.87285 0.593079 0
M  V30 2313 H 225.265 4.00372 0.224271 0
M  V30 2314 H 221.855 4.11306 -1.20522 0
M  V30 2315 H 226.039 4.4923 -2.10964 0
M  V30 2316 H 221.295 5.08702 -3.39164 0
M  V30 2317 H 225.469 5.4799 -4.29743 0
M  V30 2318 H 223.096 5.77475 -4.94395 0
M  V30 2319 N 224.671 0.411399 1.52136 0
M  V30 2320 C 225.92 -0.165009 2.01024 0
M  V30 2321 C 226.233 -1.4603 1.30133 0
M  V30 2322 O 227.439 -2.1181 1.69849 0
M  V30 2323 C 225.895 -0.344618 3.58246 0
M  V30 2324 C 225.503 0.938716 4.38055 0
M  V30 2325 C 227.247 -0.876195 4.15359 0
M  V30 2326 C 225.154 0.726172 5.86925 0
M  V30 2327 H 224.084 -0.0654407 0.751155 0
M  V30 2328 H 226.735 0.537192 1.75461 0
M  V30 2329 H 225.117 -1.10921 3.80148 0
M  V30 2330 H 226.291 1.70963 4.27912 0
M  V30 2331 H 224.606 1.39688 3.92271 0
M  V30 2332 H 227.203 -1.05128 5.24263 0
M  V30 2333 H 227.546 -1.85152 3.7286 0
M  V30 2334 H 228.079 -0.170607 3.97434 0
M  V30 2335 H 224.818 1.67312 6.33788 0
M  V30 2336 H 224.338 -0.00540283 5.998 0
M  V30 2337 H 226.017 0.369231 6.45946 0
M  V30 2338 N 226.149 -1.5696 0.141893 0
M  V30 2339 C 227.389 -1.9785 -0.513304 0
M  V30 2340 C 227.753 -1.02467 -1.62371 0
M  V30 2341 O 228.954 -1.32382 -2.33941 0
M  V30 2342 C 227.225 -3.42797 -1.01118 0
M  V30 2343 S 228.784 -4.05709 -1.67169 0
M  V30 2344 H 225.602 -0.691318 -0.166135 0
M  V30 2345 H 228.204 -1.94114 0.232398 0
M  V30 2346 H 226.908 -4.0995 -0.192179 0
M  V30 2347 H 226.439 -3.50235 -1.79162 0
M  V30 2348 H 228.454 -3.98342 -2.95868 0
M  V30 2349 N 227.627 0.131896 -1.57047 0
M  V30 2350 C 229.038 0.690407 -1.73465 0
M  V30 2351 C 229.389 1.8094 -0.758629 0
M  V30 2352 O 228.514 2.16282 0.0713813 0
M  V30 2353 C 229.109 1.25916 -3.14532 0
M  V30 2354 C 227.668 1.76409 -3.32501 0
M  V30 2355 C 226.815 0.658579 -2.69366 0
M  V30 2356 H 229.766 -0.0939144 -1.58422 0
M  V30 2357 H 229.787 2.12892 -3.15369 0
M  V30 2358 H 229.299 0.444515 -3.85546 0
M  V30 2359 H 227.4 2.60391 -2.66509 0
M  V30 2360 H 227.513 1.88241 -4.4057 0
M  V30 2361 H 225.877 1.08899 -2.30246 0
M  V30 2362 H 226.66 -0.14487 -3.42994 0
M  V30 2363 N 229.106 1.52395 0.401703 0
M  V30 2364 C 230.517 1.58899 0.980202 0
M  V30 2365 C 230.868 0.434032 1.91339 0
M  V30 2366 O 229.993 -0.444619 2.11783 0
M  V30 2367 C 230.588 2.87994 1.78451 0
M  V30 2368 C 229.147 2.96953 2.31292 0
M  V30 2369 C 228.294 2.53903 1.11483 0
M  V30 2370 H 231.245 1.57657 0.18168 0
M  V30 2371 H 231.266 2.73765 2.64259 0
M  V30 2372 H 230.778 3.72035 1.10506 0
M  V30 2373 H 228.879 2.17422 3.02586 0
M  V30 2374 H 228.992 4.01344 2.61649 0
M  V30 2375 H 227.356 2.07925 1.47104 0
M  V30 2376 H 228.139 3.40326 0.450928 0
M  V30 2377 N 230.584 -0.659388 1.43143 0
M  V30 2378 C 231.532 -1.79374 1.4808 0
M  V30 2379 C 232.526 -1.65639 0.354988 0
M  V30 2380 O 233.732 -1.7206 0.528704 0
M  V30 2381 H 230.107 -0.591705 0.4641 0
M  V30 2382 H 232.078 -1.72329 2.43609 0
M  V30 2383 C 230.827 -3.17606 1.41499 0
M  V30 2384 H 230.15 -3.28809 2.27431 0
M  V30 2385 H 231.59 -3.96951 1.49015 0
M  V30 2386 C 230.049 -3.36642 0.131765 0
M  V30 2387 O 230.579 -3.93461 -0.809386 0
M  V30 2388 N 228.785 -2.90567 0.0439396 0
M  V30 2389 H 228.332 -2.44513 0.810619 0
M  V30 2390 H 228.29 -3.03681 -0.813969 0
M  V30 2391 N 232.062 -1.29571 -0.897171 0
M  V30 2392 C 233.025 -1.14913 -1.98312 0
M  V30 2393 C 234.025 -0.0838629 -1.60581 0
M  V30 2394 O 235.215 -0.331006 -1.71026 0
M  V30 2395 C 232.347 -0.757835 -3.3237 0
M  V30 2396 H 233.54 -2.11377 -2.12743 0
M  V30 2397 H 231.093 -1.12793 -1.08201 0
M  V30 2398 H 231.828 0.206837 -3.2364 0
M  V30 2399 H 231.613 -1.52755 -3.61121 0
M  V30 2400 H 233.103 -0.678408 -4.12053 0
M  V30 2401 N 233.54 1.10788 -1.12088 0
M  V30 2402 C 234.817 1.79136 -0.785476 0
M  V30 2403 C 235.197 1.98246 0.725377 0
M  V30 2404 O 234.545 1.57258 1.65778 0
M  V30 2405 C 234.755 3.12375 -1.55636 0
M  V30 2406 C 236.103 3.8731 -1.74001 0
M  V30 2407 O 237.127 3.22085 -1.52117 0
M  V30 2408 O 235.986 5.04369 -2.10415 0
M  V30 2409 H 233.08 0.776226 -0.285311 0
M  V30 2410 H 235.626 1.1747 -1.2247 0
M  V30 2411 H 234.398 2.93863 -2.5838 0
M  V30 2412 H 234.021 3.81758 -1.11114 0
M  V30 2413 N 235.018 0.912232 1.28515 0
M  V30 2414 C 236.295 0.463597 1.90027 0
M  V30 2415 C 236.675 -1.05753 1.82701 0
M  V30 2416 O 236.023 -1.90492 1.26194 0
M  V30 2417 C 236.233 0.992253 3.34597 0
M  V30 2418 C 237.581 1.04344 4.11579 0
M  V30 2419 O 238.605 0.94079 3.43551 0
M  V30 2420 O 237.464 1.1995 5.33174 0
M  V30 2421 H 234.558 0.146666 0.813891 0
M  V30 2422 H 237.104 1.00292 1.36893 0
M  V30 2423 H 235.876 2.03623 3.34146 0
M  V30 2424 H 235.499 0.433672 3.95228 0
M  V30 2425 N 236.496 -1.42363 0.676048 0
M  V30 2426 C 237.773 -1.95183 0.127726 0
M  V30 2427 C 238.153 -1.61641 -1.35777 0
M  V30 2428 O 237.501 -0.913216 -2.09458 0
M  V30 2429 C 237.711 -3.46721 0.398199 0
M  V30 2430 C 239.059 -4.23427 0.315383 0
M  V30 2431 O 240.083 -3.54649 0.332016 0
M  V30 2432 O 238.942 -5.45888 0.25865 0
M  V30 2433 H 236.036 -0.826992 0.00359427 0
M  V30 2434 H 238.582 -1.52184 0.750864 0
M  V30 2435 H 237.354 -3.64344 1.4272 0
M  V30 2436 H 236.977 -3.96769 -0.256885 0
M  V30 2437 N 237.974 -0.419461 -1.51915 0
M  V30 2438 C 238.904 0.391813 -2.30189 0
M  V30 2439 C 239.885 1.03699 -1.34836 0
M  V30 2440 O 241.07 1.04403 -1.63748 0
M  V30 2441 C 238.2 1.50312 -3.13087 0
M  V30 2442 C 237.154 0.9824 -4.16573 0
M  V30 2443 C 236.48 2.18809 -4.8788 0
M  V30 2444 C 237.78 0.0292356 -5.22292 0
M  V30 2445 H 239.474 -0.26135 -2.98257 0
M  V30 2446 H 237.02 -0.127134 -1.43438 0
M  V30 2447 H 238.973 2.07773 -3.66617 0
M  V30 2448 H 237.697 2.18431 -2.42807 0
M  V30 2449 H 236.356 0.430119 -3.64068 0
M  V30 2450 H 236.004 2.85507 -4.14119 0
M  V30 2451 H 235.704 1.84615 -5.57845 0
M  V30 2452 H 237.228 2.76858 -5.44226 0
M  V30 2453 H 238.642 0.512976 -5.71 0
M  V30 2454 H 237.039 -0.2244 -5.9968 0
M  V30 2455 H 238.109 -0.912931 -4.76228 0
M  V30 2456 N 239.452 1.56882 -0.150215 0
M  V30 2457 C 240.382 2.19935 0.784284 0
M  V30 2458 C 241.363 1.14854 1.25469 0
M  V30 2459 O 242.548 1.43209 1.31168 0
M  V30 2460 C 239.678 2.82349 2.02229 0
M  V30 2461 C 238.632 3.93285 1.68853 0
M  V30 2462 C 237.958 4.42649 2.99944 0
M  V30 2463 C 239.258 5.13904 0.932714 0
M  V30 2464 H 240.952 2.9828 0.258781 0
M  V30 2465 H 238.498 1.43473 0.123029 0
M  V30 2466 H 240.451 3.25126 2.68088 0
M  V30 2467 H 239.175 2.0134 2.57157 0
M  V30 2468 H 237.834 3.5113 1.05371 0
M  V30 2469 H 237.482 3.58458 3.52869 0
M  V30 2470 H 237.182 5.17476 2.78374 0
M  V30 2471 H 238.706 4.88099 3.66868 0
M  V30 2472 H 240.12 5.53506 1.49345 0
M  V30 2473 H 238.517 5.94515 0.81684 0
M  V30 2474 H 239.587 4.84842 -0.0749568 0
M  V30 2475 N 240.93 -0.123565 1.57115 0
M  V30 2476 C 242.346 -0.476961 1.52306 0
M  V30 2477 C 242.546 -1.82109 0.86248 0
M  V30 2478 O 241.602 -2.48586 0.442884 0
M  V30 2479 C 242.915 -0.465661 2.97073 0
M  V30 2480 C 244.463 -0.549534 3.08138 0
M  V30 2481 C 244.938 -0.568669 4.54456 0
M  V30 2482 N 246.429 -0.630237 4.58892 0
M  V30 2483 C 247.164 -0.666415 5.69514 0
M  V30 2484 N 246.66 -0.660514 6.89644 0
M  V30 2485 N 248.453 -0.709077 5.5761 0
M  V30 2486 H 240.604 0.757198 1.98445 0
M  V30 2487 H 242.867 0.278808 0.906074 0
M  V30 2488 H 242.573 0.454232 3.48754 0
M  V30 2489 H 242.447 -1.29513 3.54269 0
M  V30 2490 H 244.834 -1.45985 2.56461 0
M  V30 2491 H 244.915 0.307532 2.53945 0
M  V30 2492 H 244.559 0.337581 5.06777 0
M  V30 2493 H 244.489 -1.44256 5.06456 0
M  V30 2494 H 246.98 -0.641146 3.72421 0
M  V30 2495 H 247.293 -0.690616 7.69708 0
M  V30 2496 H 245.638 -0.628012 6.92157 0
M  V30 2497 H 248.829 -0.711019 4.62668 0
M  V30 2498 H 249.002 -0.733804 6.43832 0
M  V30 2499 N 242.408 -1.52605 -0.393616 0
M  V30 2500 C 243.34 -1.73303 -1.49995 0
M  V30 2501 C 244.353 -0.613473 -1.50799 0
M  V30 2502 O 245.542 -0.889049 -1.54784 0
M  V30 2503 C 242.642 -1.77245 -2.88855 0
M  V30 2504 C 241.815 -3.06483 -3.12069 0
M  V30 2505 C 240.874 -3.02033 -4.30886 0
M  V30 2506 O 239.9 -3.75907 -4.27414 0
M  V30 2507 N 241.102 -2.20897 -5.36828 0
M  V30 2508 H 243.867 -2.68756 -1.32629 0
M  V30 2509 H 241.428 -1.51036 -0.583083 0
M  V30 2510 H 243.42 -1.7178 -3.66434 0
M  V30 2511 H 241.99 -0.891993 -2.99603 0
M  V30 2512 H 241.21 -3.25474 -2.22396 0
M  V30 2513 H 242.498 -3.91947 -3.2443 0
M  V30 2514 H 241.896 -1.60336 -5.42502 0
M  V30 2515 H 240.453 -2.21275 -6.13091 0
M  V30 2516 N 243.887 0.651787 -1.4349 0
M  V30 2517 C 245.133 1.41376 -1.45398 0
M  V30 2518 C 245.466 1.94041 -0.0784823 0
M  V30 2519 O 244.741 1.72379 0.900878 0
M  V30 2520 C 245.024 2.59414 -2.49752 0
M  V30 2521 C 244.877 2.12232 -3.96582 0
M  V30 2522 C 246.196 3.61626 -2.50827 0
M  V30 2523 H 243.315 0.512719 -0.529422 0
M  V30 2524 H 245.957 0.738796 -1.75048 0
M  V30 2525 H 244.107 3.16997 -2.246 0
M  V30 2526 H 245.779 1.59639 -4.32797 0
M  V30 2527 H 244.022 1.43592 -4.09346 0
M  V30 2528 H 244.693 2.9712 -4.65214 0
M  V30 2529 H 247.169 3.13805 -2.7325 0
M  V30 2530 H 246.045 4.41766 -3.25783 0
M  V30 2531 H 246.306 4.14314 -1.5426 0
M  V30 2532 N 245.365 1.30045 0.890287 0
M  V30 2533 C 246.328 1.15963 1.977 0
M  V30 2534 C 247.328 0.0923777 1.60534 0
M  V30 2535 O 248.518 0.340071 1.70848 0
M  V30 2536 C 245.65 0.775451 3.31963 0
M  V30 2537 H 246.843 2.12502 2.11619 0
M  V30 2538 H 244.396 1.13366 1.07601 0
M  V30 2539 H 245.131 -0.189671 3.23745 0
M  V30 2540 H 244.916 1.54668 3.60306 0
M  V30 2541 H 246.406 0.700251 4.11687 0
M  V30 2542 N 246.843 -1.10192 1.12674 0
M  V30 2543 C 248.068 -1.86523 0.906853 0
M  V30 2544 C 248.493 -1.80221 -0.538711 0
M  V30 2545 O 247.851 -1.17396 -1.38158 0
M  V30 2546 C 247.899 -3.32758 1.3894 0
M  V30 2547 O 247.003 -4.08449 0.5695 0
M  V30 2548 H 246.344 -0.578678 0.325619 0
M  V30 2549 H 248.874 -1.39203 1.49946 0
M  V30 2550 H 248.884 -3.83608 1.38958 0
M  V30 2551 H 247.559 -3.36661 2.44197 0
M  V30 2552 H 246.136 -3.67427 0.636528 0
M  V30 2553 N 248.321 -0.919034 -1.28029 0
M  V30 2554 C 249.551 -0.570143 -1.98577 0
M  V30 2555 C 249.959 0.854172 -1.68821 0
M  V30 2556 O 249.302 1.57807 -0.940351 0
M  V30 2557 C 249.364 -0.705734 -3.52505 0
M  V30 2558 C 249.028 -2.10057 -4.05863 0
M  V30 2559 C 250.025 -3.07385 -4.19298 0
M  V30 2560 C 247.71 -2.41517 -4.40426 0
M  V30 2561 C 249.704 -4.34287 -4.66555 0
M  V30 2562 C 247.391 -3.68657 -4.87376 0
M  V30 2563 C 248.389 -4.64856 -5.00398 0
M  V30 2564 O 248.077 -5.89735 -5.46322 0
M  V30 2565 H 247.809 -0.215592 -0.6407 0
M  V30 2566 H 250.363 -1.23583 -1.64062 0
M  V30 2567 H 248.593 0.0170414 -3.86696 0
M  V30 2568 H 250.282 -0.363172 -4.04272 0
M  V30 2569 H 251.048 -2.84398 -3.92865 0
M  V30 2570 H 246.927 -1.67389 -4.29537 0
M  V30 2571 H 250.471 -5.09377 -4.76635 0
M  V30 2572 H 246.368 -3.91466 -5.13249 0
M  V30 2573 H 247.136 -5.92599 -5.64596 0
M  V30 2574 N 249.799 1.42003 -0.683588 0
M  V30 2575 C 251.047 2.01015 -0.209101 0
M  V30 2576 C 251.368 1.54365 1.19149 0
M  V30 2577 O 250.638 0.769083 1.80172 0
M  V30 2578 H 249.218 0.743294 -0.074315 0
M  V30 2579 H 251.88 1.73798 -0.882066 0
M  V30 2580 H 250.976 3.11343 -0.2172 0
M  V30 2581 N 251.277 0.427512 1.51691 0
M  V30 2582 C 252.693 0.0792977 1.59403 0
M  V30 2583 C 252.893 -1.41035 1.43914 0
M  V30 2584 O 251.949 -2.17922 1.27539 0
M  V30 2585 C 253.262 0.590636 2.94842 0
M  V30 2586 C 254.81 0.550215 3.08126 0
M  V30 2587 C 255.285 1.03836 4.46074 0
M  V30 2588 N 256.776 0.995943 4.52366 0
M  V30 2589 C 257.511 1.34463 5.57411 0
M  V30 2590 N 257.007 1.76569 6.69922 0
M  V30 2591 N 258.8 1.26343 5.47717 0
M  V30 2592 H 250.951 1.39687 1.60004 0
M  V30 2593 H 253.214 0.575003 0.753708 0
M  V30 2594 H 252.92 1.63251 3.11516 0
M  V30 2595 H 252.794 0.0102061 3.77199 0
M  V30 2596 H 255.181 -0.482654 2.91126 0
M  V30 2597 H 255.262 1.16693 2.27632 0
M  V30 2598 H 254.906 2.06965 4.63819 0
M  V30 2599 H 254.836 0.398286 5.25092 0
M  V30 2600 H 257.327 0.68661 3.7161 0
M  V30 2601 H 257.64 2.01438 7.46085 0
M  V30 2602 H 255.985 1.80488 6.71155 0
M  V30 2603 H 259.176 0.933209 4.58703 0
M  V30 2604 H 259.349 1.53846 6.29472 0
M  V30 2605 N 252.755 -1.56801 0.158532 0
M  V30 2606 C 254.003 -1.96102 -0.488712 0
M  V30 2607 C 254.324 -1.04498 -1.64636 0
M  V30 2608 O 253.594 -0.108783 -1.95598 0
M  V30 2609 H 252.174 -0.724102 -0.183535 0
M  V30 2610 H 254.836 -1.93457 0.236728 0
M  V30 2611 H 253.932 -3.00097 -0.857219 0
M  V30 2612 N 254.233 0.115231 -1.57178 0
M  V30 2613 C 255.463 0.835224 -1.88964 0
M  V30 2614 C 255.871 1.73774 -0.74829 0
M  V30 2615 O 255.214 1.81401 0.289739 0
M  V30 2616 C 255.276 1.7178 -3.15804 0
M  V30 2617 C 254.94 0.989198 -4.46166 0
M  V30 2618 C 255.937 0.328263 -5.18863 0
M  V30 2619 C 253.622 0.969256 -4.9286 0
M  V30 2620 C 255.616 -0.342873 -6.36477 0
M  V30 2621 C 253.303 0.294324 -6.10391 0
M  V30 2622 C 254.301 -0.360582 -6.82048 0
M  V30 2623 O 253.989 -1.02474 -7.97342 0
M  V30 2624 H 253.721 0.245197 -0.629964 0
M  V30 2625 H 256.275 0.10303 -2.05141 0
M  V30 2626 H 254.505 2.49173 -2.95719 0
M  V30 2627 H 256.194 2.31255 -3.33581 0
M  V30 2628 H 256.96 0.335263 -4.8384 0
M  V30 2629 H 252.839 1.46844 -4.36987 0
M  V30 2630 H 256.383 -0.854629 -6.92345 0
M  V30 2631 H 252.28 0.285099 -6.4487 0
M  V30 2632 H 253.048 -0.929594 -8.13204 0
M  V30 2633 N 255.711 1.52812 0.385517 0
M  V30 2634 C 256.939 1.71907 1.15133 0
M  V30 2635 C 257.354 0.439004 1.83625 0
M  V30 2636 O 256.711 -0.586765 1.7281 0
M  V30 2637 C 256.762 2.87099 2.19673 0
M  V30 2638 O 256.483 4.10151 1.53973 0
M  V30 2639 C 257.984 3.17902 3.08955 0
M  V30 2640 H 255.204 0.575479 0.345057 0
M  V30 2641 H 257.748 1.99476 0.45052 0
M  V30 2642 H 255.903 2.61982 2.85384 0
M  V30 2643 H 256.317 4.74514 2.23465 0
M  V30 2644 H 257.791 4.01959 3.7833 0
M  V30 2645 H 258.268 2.3243 3.72657 0
M  V30 2646 H 258.874 3.44871 2.48885 0
M  V30 2647 N 257.189 -0.644168 1.43834 0
M  V30 2648 C 258.419 -1.42939 1.49171 0
M  V30 2649 C 258.827 -1.88874 0.111048 0
M  V30 2650 O 258.17 -1.60656 -0.8908 0
M  V30 2651 C 258.232 -2.69151 2.38324 0
M  V30 2652 C 257.896 -2.45097 3.85715 0
M  V30 2653 C 258.893 -2.07747 4.76589 0
M  V30 2654 C 256.578 -2.59141 4.30292 0
M  V30 2655 C 258.572 -1.8475 6.10038 0
M  V30 2656 C 256.259 -2.35759 5.63792 0
M  V30 2657 C 257.257 -1.9862 6.53482 0
M  V30 2658 O 256.945 -1.75489 7.84512 0
M  V30 2659 H 256.677 -0.445271 0.508635 0
M  V30 2660 H 259.231 -0.79621 1.8934 0
M  V30 2661 H 257.461 -3.3506 1.93058 0
M  V30 2662 H 259.15 -3.31123 2.3476 0
M  V30 2663 H 259.916 -1.96465 4.43426 0
M  V30 2664 H 255.795 -2.87022 3.60749 0
M  V30 2665 H 259.339 -1.55686 6.80006 0
M  V30 2666 H 255.236 -2.46646 5.9652 0
M  V30 2667 H 256.004 -1.89841 7.9618 0
M  V30 2668 N 258.668 -1.30515 -0.883378 0
M  V30 2669 C 259.598 -1.19607 -2.00541 0
M  V30 2670 C 260.579 -0.086346 -1.69881 0
M  V30 2671 O 261.764 -0.268654 -1.92333 0
M  V30 2672 C 258.894 -0.888758 -3.35736 0
M  V30 2673 C 257.848 -1.95659 -3.8066 0
M  V30 2674 C 257.174 -1.50224 -5.13164 0
M  V30 2675 C 258.474 -3.36788 -3.99213 0
M  V30 2676 H 260.168 -2.13476 -2.09925 0
M  V30 2677 H 257.714 -1.02775 -1.00863 0
M  V30 2678 H 259.667 -0.799094 -4.13754 0
M  V30 2679 H 258.391 0.0856125 -3.26488 0
M  V30 2680 H 257.05 -2.03591 -3.04871 0
M  V30 2681 H 256.698 -0.516092 -5.00345 0
M  V30 2682 H 256.398 -2.2165 -5.44192 0
M  V30 2683 H 257.922 -1.42639 -5.93706 0
M  V30 2684 H 259.336 -3.31605 -4.67665 0
M  V30 2685 H 257.733 -4.06314 -4.41621 0
M  V30 2686 H 258.803 -3.78561 -3.03017 0
M  V30 2687 N 260.146 1.09593 -1.13257 0
M  V30 2688 C 261.076 2.18214 -0.830946 0
M  V30 2689 C 262.057 1.68812 0.208966 0
M  V30 2690 O 263.242 1.9408 0.0682666 0
M  V30 2691 C 260.372 3.46051 -0.294296 0
M  V30 2692 C 259.326 4.08778 -1.26826 0
M  V30 2693 C 258.652 5.31419 -0.591449 0
M  V30 2694 C 259.952 4.51476 -2.62615 0
M  V30 2695 H 261.646 2.43703 -1.73923 0
M  V30 2696 H 259.192 1.17128 -0.837675 0
M  V30 2697 H 261.145 4.2134 -0.0709606 0
M  V30 2698 H 259.869 3.20079 0.649366 0
M  V30 2699 H 258.528 3.35505 -1.47756 0
M  V30 2700 H 258.176 5.01727 0.357633 0
M  V30 2701 H 257.876 5.74341 -1.24123 0
M  V30 2702 H 259.4 6.09433 -0.377355 0
M  V30 2703 H 260.814 5.17999 -2.45663 0
M  V30 2704 H 259.211 5.05277 -3.23752 0
M  V30 2705 H 260.281 3.63962 -3.20406 0
M  V30 2706 N 261.624 0.925811 1.2754 0
M  V30 2707 C 262.849 0.580924 1.99098 0
M  V30 2708 C 263.274 -0.833555 1.68622 0
M  V30 2709 O 262.632 -1.55903 0.925422 0
M  V30 2710 C 262.68 0.811186 3.51358 0
M  V30 2711 O 261.784 -0.124129 4.12213 0
M  V30 2712 H 261.125 0.223873 0.625122 0
M  V30 2713 H 263.655 1.24455 1.62395 0
M  V30 2714 H 263.665 0.72601 4.01489 0
M  V30 2715 H 262.34 1.84227 3.72872 0
M  V30 2716 H 260.917 0.0108006 3.72898 0
M  V30 2717 N 263.102 -1.41638 0.69111 0
M  V30 2718 C 264.518 -1.55435 0.362224 0
M  V30 2719 C 264.718 -1.66754 -1.13117 0
M  V30 2720 O 263.774 -1.64348 -1.91692 0
M  V30 2721 C 265.087 -2.79588 1.10684 0
M  V30 2722 C 266.635 -2.9338 1.09075 0
M  V30 2723 C 267.11 -4.20414 1.81703 0
M  V30 2724 N 268.601 -4.27362 1.7865 0
M  V30 2725 C 269.336 -5.24507 2.31689 0
M  V30 2726 N 268.832 -6.27708 2.93179 0
M  V30 2727 N 270.625 -5.16416 2.2197 0
M  V30 2728 H 262.776 -1.32536 1.65976 0
M  V30 2729 H 265.039 -0.639115 0.700168 0
M  V30 2730 H 264.745 -2.77419 2.16175 0
M  V30 2731 H 264.619 -3.70973 0.682545 0
M  V30 2732 H 267.006 -2.95067 0.0441238 0
M  V30 2733 H 267.087 -2.0318 1.55407 0
M  V30 2734 H 266.731 -4.19488 2.86343 0
M  V30 2735 H 266.661 -5.09578 1.32808 0
M  V30 2736 H 269.152 -3.53415 1.33815 0
M  V30 2737 H 269.465 -6.98217 3.31229 0
M  V30 2738 H 267.81 -6.28223 2.97255 0
M  V30 2739 H 271.001 -4.34716 1.73607 0
M  V30 2740 H 271.174 -5.91958 2.63609 0
M  V30 2741 N 264.58 -0.43555 -1.51462 0
M  V30 2742 C 265.805 0.132627 -2.06976 0
M  V30 2743 C 266.23 1.35848 -1.30104 0
M  V30 2744 O 265.588 1.78112 -0.338493 0
M  V30 2745 C 265.636 0.43523 -3.57964 0
M  V30 2746 O 264.74 1.52198 -3.83288 0
M  V30 2747 H 264.081 0.00265 -0.663995 0
M  V30 2748 H 266.611 -0.616369 -1.95095 0
M  V30 2749 H 266.621 0.686206 -4.02188 0
M  V30 2750 H 265.296 -0.460739 -4.1334 0
M  V30 2751 H 263.873 1.2611 -3.50928 0
M  V30 2752 N 266.058 1.56714 -0.166846 0
M  V30 2753 C 267.306 1.96358 0.478305 0
M  V30 2754 C 267.627 1.0537 1.6408 0
M  V30 2755 O 266.897 0.119154 1.95537 0
M  V30 2756 H 265.477 0.725065 0.179692 0
M  V30 2757 H 268.139 1.93329 -0.246985 0
M  V30 2758 H 267.235 3.00547 0.841292 0
M  V30 2759 N 267.536 -0.106894 1.57237 0
M  V30 2760 C 268.782 -0.81373 1.85759 0
M  V30 2761 C 269.115 -1.78952 0.754315 0
M  V30 2762 O 268.39 -1.93029 -0.23879 0
M  V30 2763 C 268.673 -1.55293 3.24894 0
M  V30 2764 C 268.526 -0.595929 4.45835 0
M  V30 2765 C 269.845 -2.5063 3.61763 0
M  V30 2766 H 266.964 -0.294369 0.67566 0
M  V30 2767 H 269.606 -0.0776472 1.89841 0
M  V30 2768 H 267.756 -2.1804 3.21544 0
M  V30 2769 H 269.428 0.0236262 4.61294 0
M  V30 2770 H 267.671 0.0916191 4.33703 0
M  V30 2771 H 268.342 -1.15004 5.39887 0
M  V30 2772 H 270.818 -1.97982 3.65981 0
M  V30 2773 H 269.694 -2.99376 4.60071 0
M  V30 2774 H 269.955 -3.3385 2.89821 0
M  V30 2775 N 269.014 -1.53014 -0.377408 0
M  V30 2776 C 270.242 -1.72515 -1.14219 0
M  V30 2777 C 270.657 -0.448735 -1.8339 0
M  V30 2778 O 270.014 0.577592 -1.73119 0
M  V30 2779 C 270.065 -2.8826 -2.18148 0
M  V30 2780 O 269.786 -4.10962 -1.51795 0
M  V30 2781 C 271.287 -3.19536 -3.07264 0
M  V30 2782 H 268.507 -0.577301 -0.342001 0
M  V30 2783 H 271.051 -1.99712 -0.439935 0
M  V30 2784 H 269.206 -2.63492 -2.83991 0
M  V30 2785 H 269.62 -4.75693 -2.20945 0
M  V30 2786 H 271.094 -4.03959 -3.76193 0
M  V30 2787 H 271.571 -2.34403 -3.71419 0
M  V30 2788 H 272.177 -3.46186 -2.47053 0
M  V30 2789 N 270.492 0.636531 -1.44174 0
M  V30 2790 C 271.74 1.39343 -1.46383 0
M  V30 2791 C 272.061 1.94766 -0.0955715 0
M  V30 2792 O 271.331 1.75452 0.871395 0
M  V30 2793 H 269.911 0.517199 -0.538994 0
M  V30 2794 H 272.573 0.74957 -1.7991 0
M  V30 2795 H 271.669 2.22746 -2.18611 0
M  V30 2796 N 271.97 1.30982 0.876444 0
M  V30 2797 C 272.933 1.18054 1.96459 0
M  V30 2798 C 273.933 0.109399 1.60427 0
M  V30 2799 O 275.123 0.358173 1.70478 0
M  V30 2800 C 272.255 0.810616 3.31122 0
M  V30 2801 H 273.448 2.14735 2.09354 0
M  V30 2802 H 271.001 1.145 1.06392 0
M  V30 2803 H 271.736 -0.155322 3.23928 0
M  V30 2804 H 271.521 1.58481 3.58645 0
M  V30 2805 H 273.011 0.743876 4.10921 0
M  V30 2806 N 273.449 -1.08991 1.13837 0
M  V30 2807 C 274.359 -2.19301 0.833333 0
M  V30 2808 C 275.375 -1.73026 -0.183847 0
M  V30 2809 O 276.551 -2.01395 -0.0138092 0
M  V30 2810 C 273.616 -3.45323 0.308651 0
M  V30 2811 C 272.677 -4.06255 1.38764 0
M  V30 2812 C 271.91 -5.26262 0.887896 0
M  V30 2813 O 272.133 -5.69747 -0.27287 0
M  V30 2814 O 271.067 -5.78435 1.66421 0
M  V30 2815 H 274.893 -2.47854 1.75506 0
M  V30 2816 H 272.478 -1.18012 0.916166 0
M  V30 2817 H 274.36 -4.21394 0.0216739 0
M  V30 2818 H 273.035 -3.18362 -0.585431 0
M  V30 2819 H 271.942 -3.318 1.72799 0
M  V30 2820 H 273.275 -4.37452 2.25602 0
M  V30 2821 N 274.927 -0.932562 -1.27047 0
M  V30 2822 C 275.875 -0.42603 -2.28665 0
M  V30 2823 C 276.869 0.49219 -1.62092 0
M  V30 2824 O 278.075 0.371355 -1.76128 0
M  V30 2825 H 274.45 -0.119213 -0.742491 0
M  V30 2826 H 276.421 -1.29579 -2.68797 0
M  V30 2827 C 275.17 0.301426 -3.46391 0
M  V30 2828 H 274.493 -0.39595 -3.97834 0
M  V30 2829 H 275.933 0.6202 -4.1944 0
M  V30 2830 C 274.392 1.51616 -3.00856 0
M  V30 2831 O 274.922 2.61476 -3.04948 0
M  V30 2832 N 273.128 1.36969 -2.56296 0
M  V30 2833 H 272.675 0.475873 -2.53166 0
M  V30 2834 H 272.633 2.18368 -2.26192 0
M  V30 2835 N 276.405 1.4127 -0.698611 0
M  V30 2836 C 277.821 1.55241 -0.370462 0
M  V30 2837 C 278.021 1.67351 1.12231 0
M  V30 2838 O 277.077 1.65363 1.90818 0
M  V30 2839 C 278.39 2.78997 -1.12165 0
M  V30 2840 C 279.938 2.92797 -1.1063 0
M  V30 2841 C 280.413 4.19445 -1.8393 0
M  V30 2842 N 281.904 4.26409 -1.80914 0
M  V30 2843 C 282.639 5.23271 -2.34467 0
M  V30 2844 N 282.135 6.26145 -2.96504 0
M  V30 2845 N 283.928 5.15232 -2.24706 0
M  V30 2846 H 276.079 1.31654 -1.66676 0
M  V30 2847 H 278.342 0.635393 -0.703548 0
M  V30 2848 H 278.048 2.76268 -2.17644 0
M  V30 2849 H 277.922 3.70606 -0.702209 0
M  V30 2850 H 280.309 2.95039 -0.0597713 0
M  V30 2851 H 280.39 2.02353 -1.56483 0
M  V30 2852 H 280.034 4.17964 -2.88563 0
M  V30 2853 H 279.964 5.08866 -1.35509 0
M  V30 2854 H 282.455 3.527 -1.35687 0
M  V30 2855 H 282.768 6.96451 -3.34927 0
M  V30 2856 H 281.113 6.26638 -3.00583 0
M  V30 2857 H 284.304 4.33789 -1.7591 0
M  V30 2858 H 284.477 5.90552 -2.66745 0
M  V30 2859 N 277.883 0.443576 1.51229 0
M  V30 2860 C 279.131 -0.120557 2.0174 0
M  V30 2861 C 279.452 -1.42665 1.32935 0
M  V30 2862 O 278.722 -1.9028 0.465866 0
M  V30 2863 H 277.302 -0.0475426 0.745486 0
M  V30 2864 H 279.964 0.587711 1.85828 0
M  V30 2865 H 279.06 -0.291972 3.10731 0
M  V30 2866 N 279.361 -1.56624 0.175154 0
M  V30 2867 C 280.324 -2.16934 -0.739738 0
M  V30 2868 C 281.324 -1.11842 -1.15533 0
M  V30 2869 O 282.514 -1.37335 -1.07167 0
M  V30 2870 C 279.646 -2.75531 -2.00738 0
M  V30 2871 H 280.839 -2.99131 -0.214639 0
M  V30 2872 H 278.392 -1.56123 -0.0744197 0
M  V30 2873 H 279.127 -1.97078 -2.57548 0
M  V30 2874 H 278.912 -3.52444 -1.71831 0
M  V30 2875 H 280.402 -3.21904 -2.66021 0
M  V30 2876 N 280.839 0.0985539 -1.57292 0
M  V30 2877 C 281.769 1.12064 -2.04851 0
M  V30 2878 C 282.75 1.41981 -0.936767 0
M  V30 2879 O 283.935 1.52071 -1.20781 0
M  V30 2880 C 281.065 2.44144 -2.47004 0
M  V30 2881 C 280.019 2.28643 -3.6181 0
M  V30 2882 C 279.345 3.65869 -3.89929 0
M  V30 2883 C 280.645 1.72986 -4.92822 0
M  V30 2884 H 282.339 0.724979 -2.9049 0
M  V30 2885 H 279.885 0.34729 -1.39749 0
M  V30 2886 H 281.838 3.15914 -2.78884 0
M  V30 2887 H 280.562 2.85639 -1.5836 0
M  V30 2888 H 279.221 1.59318 -3.30172 0
M  V30 2889 H 278.869 4.04885 -2.98458 0
M  V30 2890 H 278.569 3.56344 -4.67218 0
M  V30 2891 H 280.093 4.39112 -4.2428 0
M  V30 2892 H 281.507 2.34593 -5.23105 0
M  V30 2893 H 279.904 1.74229 -5.74251 0
M  V30 2894 H 280.974 0.689007 -4.7998 0
M  V30 2895 N 282.317 1.53212 0.369288 0
M  V30 2896 C 283.728 1.60943 0.946276 0
M  V30 2897 C 284.079 0.47452 1.90375 0
M  V30 2898 O 283.204 -0.399597 2.12679 0
M  V30 2899 C 283.799 2.91715 1.72302 0
M  V30 2900 C 282.358 3.01792 2.24941 0
M  V30 2901 C 281.505 2.56211 1.06072 0
M  V30 2902 H 284.456 1.58007 0.148198 0
M  V30 2903 H 284.477 2.79309 2.58393 0
M  V30 2904 H 283.989 3.74295 1.0259 0
M  V30 2905 H 282.09 2.23791 2.97906 0
M  V30 2906 H 282.203 4.06803 2.53077 0
M  V30 2907 H 280.567 2.10998 1.4266 0
M  V30 2908 H 281.35 3.41206 0.378639 0
M  V30 2909 N 283.795 -0.628877 1.44509 0
M  V30 2910 C 284.725 -1.75187 1.54376 0
M  V30 2911 C 285.706 -1.65411 0.396618 0
M  V30 2912 O 286.891 -1.84137 0.617031 0
M  V30 2913 C 284.021 -3.13725 1.48976 0
M  V30 2914 C 282.975 -3.38291 2.62189 0
M  V30 2915 C 282.301 -4.76883 2.41841 0
M  V30 2916 C 283.601 -3.30632 4.04326 0
M  V30 2917 H 285.295 -1.67187 2.48373 0
M  V30 2918 H 282.841 -0.802909 1.19538 0
M  V30 2919 H 284.794 -3.92064 1.54478 0
M  V30 2920 H 283.518 -3.22515 0.514961 0
M  V30 2921 H 282.177 -2.62334 2.56079 0
M  V30 2922 H 281.825 -4.82378 1.42548 0
M  V30 2923 H 281.525 -4.94278 3.17747 0
M  V30 2924 H 283.049 -5.57449 2.49165 0
M  V30 2925 H 284.463 -3.98873 4.11793 0
M  V30 2926 H 282.86 -3.59561 4.80454 0
M  V30 2927 H 283.93 -2.28404 4.27738 0
M  V30 2928 N 285.273 -1.31445 -0.869486 0
M  V30 2929 C 286.223 -1.15731 -1.96444 0
M  V30 2930 C 287.207 -0.0681855 -1.60755 0
M  V30 2931 O 288.399 -0.293154 -1.74555 0
M  V30 2932 C 285.528 -0.867255 -3.32165 0
M  V30 2933 C 284.614 -1.99738 -3.74119 0
M  V30 2934 N 285.005 -3.24447 -3.88031 0
M  V30 2935 C 283.303 -1.89723 -4.03635 0
M  V30 2936 C 284.004 -3.98374 -4.23879 0
M  V30 2937 N 282.98 -3.26547 -4.3459 0
M  V30 2938 H 286.782 -2.10296 -2.05312 0
M  V30 2939 H 284.296 -1.23009 -1.06031 0
M  V30 2940 H 286.293 -0.735668 -4.10358 0
M  V30 2941 H 284.953 0.0701614 -3.24624 0
M  V30 2942 H 285.964 -3.59557 -3.72746 0
M  V30 2943 H 282.641 -1.03449 -4.04481 0
M  V30 2944 H 284.031 -5.05844 -4.42235 0
M  V30 2945 N 286.751 1.08385 -1.14413 0
M  V30 2946 C 287.701 2.13509 -0.79987 0
M  V30 2947 C 288.685 1.5951 0.211059 0
M  V30 2948 O 289.877 1.76995 0.0133694 0
M  V30 2949 C 287.006 3.42162 -0.279297 0
M  V30 2950 C 286.092 4.03042 -1.31976 0
M  V30 2951 N 286.483 4.38327 -2.52395 0
M  V30 2952 C 284.781 4.30379 -1.17004 0
M  V30 2953 C 285.482 4.86428 -3.19003 0
M  V30 2954 N 284.458 4.84547 -2.46405 0
M  V30 2955 H 288.26 2.38609 -1.7159 0
M  V30 2956 H 285.774 1.2572 -1.02802 0
M  V30 2957 H 287.771 4.16898 -0.0143688 0
M  V30 2958 H 286.431 3.18511 0.630923 0
M  V30 2959 H 287.442 4.29349 -2.89621 0
M  V30 2960 H 284.119 4.16281 -0.318854 0
M  V30 2961 H 285.509 5.23107 -4.21674 0
M  V30 2962 N 288.23 0.939286 1.26551 0
M  V30 2963 C 289.16 0.465044 2.28822 0
M  V30 2964 C 290.141 -0.480692 1.63167 0
M  V30 2965 O 291.326 -0.382955 1.90387 0
M  V30 2966 C 288.456 -0.27234 3.46231 0
M  V30 2967 C 287.41 0.58666 4.2396 0
M  V30 2968 C 286.736 -0.280573 5.33963 0
M  V30 2969 C 288.036 1.85704 4.88171 0
M  V30 2970 H 289.73 1.31979 2.68741 0
M  V30 2971 H 287.276 0.636061 1.29191 0
M  V30 2972 H 289.229 -0.615133 4.16886 0
M  V30 2973 H 287.953 -1.16121 3.0526 0
M  V30 2974 H 286.612 0.91232 3.55067 0
M  V30 2975 H 286.26 -1.16874 4.89234 0
M  V30 2976 H 285.96 0.29076 5.8688 0
M  V30 2977 H 287.484 -0.618678 6.07458 0
M  V30 2978 H 288.898 1.58161 5.51052 0
M  V30 2979 H 287.295 2.37279 5.51197 0
M  V30 2980 H 288.365 2.56957 4.11219 0
M  V30 2981 N 289.708 -1.40897 0.706093 0
M  V30 2982 C 290.957 -2.00284 0.238574 0
M  V30 2983 C 291.27 -1.56604 -1.17194 0
M  V30 2984 O 292.476 -2.08624 -1.73748 0
M  V30 2985 C 290.932 -3.57934 0.375623 0
M  V30 2986 C 290.54 -4.10591 1.79217 0
M  V30 2987 C 292.284 -4.24488 -0.0315857 0
M  V30 2988 C 290.191 -5.60712 1.88032 0
M  V30 2989 H 289.121 -0.749144 0.0854398 0
M  V30 2990 H 291.772 -1.61251 0.875813 0
M  V30 2991 H 290.154 -3.94622 -0.330042 0
M  V30 2992 H 291.328 -3.85301 2.52745 0
M  V30 2993 H 289.643 -3.56601 2.15 0
M  V30 2994 H 292.24 -5.34698 0.0136842 0
M  V30 2995 H 292.583 -4.02261 -1.072 0
M  V30 2996 H 293.116 -3.92873 0.624181 0
M  V30 2997 H 289.855 -5.87781 2.90161 0
M  V30 2998 H 289.375 -5.87896 1.18903 0
M  V30 2999 H 291.054 -6.25658 1.64805 0
M  V30 3000 N 291.186 -0.45159 -1.50991 0
M  V30 3001 C 292.096 0.358431 -2.31846 0
M  V30 3002 C 293.112 1.01438 -1.41373 0
M  V30 3003 O 294.288 1.00663 -1.74439 0
M  V30 3004 C 291.353 1.43704 -3.15515 0
M  V30 3005 C 290.414 0.799742 -4.21785 0
M  V30 3006 C 289.647 1.82696 -5.01456 0
M  V30 3007 O 289.87 3.05105 -4.81941 0
M  V30 3008 O 288.804 1.40958 -5.85162 0
M  V30 3009 H 292.63 -0.302032 -3.02194 0
M  V30 3010 H 290.215 -0.213825 -1.47862 0
M  V30 3011 H 292.097 2.06227 -3.67489 0
M  V30 3012 H 290.772 2.08133 -2.47916 0
M  V30 3013 H 289.679 0.136084 -3.73852 0
M  V30 3014 H 291.012 0.198718 -4.91799 0
M  V30 3015 N 292.664 1.56529 -0.183458 0
M  V30 3016 C 293.611 2.18546 0.742055 0
M  V30 3017 C 294.581 1.12912 1.2182 0
M  V30 3018 O 295.766 1.41115 1.28418 0
M  V30 3019 C 292.906 2.83977 1.96089 0
M  V30 3020 C 292.019 4.04105 1.52719 0
M  V30 3021 C 291.154 4.57427 2.70063 0
M  V30 3022 C 290.193 5.69938 2.23243 0
M  V30 3023 N 289.33 6.17717 3.33722 0
M  V30 3024 H 294.17 2.97284 0.206432 0
M  V30 3025 H 291.707 1.46823 0.0901571 0
M  V30 3026 H 293.665 3.20077 2.67594 0
M  V30 3027 H 292.295 2.07822 2.47002 0
M  V30 3028 H 291.347 3.73745 0.708436 0
M  V30 3029 H 292.659 4.85513 1.1436 0
M  V30 3030 H 291.813 4.95772 3.49708 0
M  V30 3031 H 290.552 3.75101 3.11689 0
M  V30 3032 H 289.557 5.31133 1.42048 0
M  V30 3033 H 290.782 6.54073 1.82661 0
M  V30 3034 H 288.728 5.38317 3.74902 0
M  V30 3035 H 288.645 6.94146 2.99495 0
M  V30 3036 H 289.913 6.60713 4.13616 0
M  V30 3037 N 294.142 -0.090211 1.57342 0
M  V30 3038 C 295.072 -1.10976 2.05443 0
M  V30 3039 C 296.053 -1.41482 0.944284 0
M  V30 3040 O 297.238 -1.51428 1.21586 0
M  V30 3041 C 294.368 -2.42831 2.48295 0
M  V30 3042 C 293.322 -2.26721 3.63018 0
M  V30 3043 C 292.648 -3.63796 3.91863 0
M  V30 3044 C 293.948 -1.7037 4.93732 0
M  V30 3045 H 295.642 -0.709564 2.9087 0
M  V30 3046 H 293.188 -0.339874 1.39932 0
M  V30 3047 H 295.141 -3.14431 2.80555 0
M  V30 3048 H 293.865 -2.84795 1.59873 0
M  V30 3049 H 292.524 -1.57565 3.31012 0
M  V30 3050 H 292.172 -4.03297 3.00601 0
M  V30 3051 H 291.872 -3.53861 4.69101 0
M  V30 3052 H 293.396 -4.36855 4.26603 0
M  V30 3053 H 294.81 -2.31816 5.24342 0
M  V30 3054 H 293.207 -1.71181 5.75167 0
M  V30 3055 H 294.277 -0.663542 4.80339 0
M  V30 3056 N 295.62 -1.53406 -0.361157 0
M  V30 3057 C 296.567 -1.80156 -1.44265 0
M  V30 3058 C 297.537 -0.646183 -1.53015 0
M  V30 3059 O 298.722 -0.888818 -1.68833 0
M  V30 3060 C 295.862 -2.00116 -2.81154 0
M  V30 3061 C 294.975 -3.27833 -2.81335 0
M  V30 3062 C 294.11 -3.37957 -4.09828 0
M  V30 3063 C 293.149 -4.59689 -4.04168 0
M  V30 3064 N 292.286 -4.66942 -5.24318 0
M  V30 3065 H 297.126 -2.72438 -1.20754 0
M  V30 3066 H 294.663 -1.34954 -0.585296 0
M  V30 3067 H 296.621 -2.09677 -3.60682 0
M  V30 3068 H 295.251 -1.11167 -3.03054 0
M  V30 3069 H 294.303 -3.27204 -1.94014 0
M  V30 3070 H 295.615 -4.17442 -2.73027 0
M  V30 3071 H 294.769 -3.46853 -4.97773 0
M  V30 3072 H 293.508 -2.46372 -4.20894 0
M  V30 3073 H 292.513 -4.50889 -3.14609 0
M  V30 3074 H 293.738 -5.5262 -3.947 0
M  V30 3075 H 291.684 -3.7826 -5.35962 0
M  V30 3076 H 291.601 -5.50462 -5.18197 0
M  V30 3077 H 292.869 -4.80127 -6.14084 0
M  V30 3078 N 297.098 0.621204 -1.44841 0
M  V30 3079 C 298.008 1.7612 -1.5498 0
M  V30 3080 C 299.024 1.68477 -0.434927 0
M  V30 3081 O 300.2 1.89076 -0.693693 0
M  V30 3082 C 297.265 3.1254 -1.50065 0
M  V30 3083 C 296.326 3.31741 -2.72482 0
M  V30 3084 C 295.559 4.61653 -2.67792 0
M  V30 3085 O 295.782 5.431 -1.74352 0
M  V30 3086 O 294.716 4.83271 -3.58794 0
M  V30 3087 H 298.542 1.70518 -2.51311 0
M  V30 3088 H 296.127 0.783643 -1.27198 0
M  V30 3089 H 298.009 3.93844 -1.49882 0
M  V30 3090 H 296.684 3.18663 -0.568806 0
M  V30 3091 H 295.591 2.50077 -2.7823 0
M  V30 3092 H 296.924 3.30486 -3.64746 0
M  V30 3093 N 298.576 1.31904 0.862503 0
M  V30 3094 C 299.806 1.24817 1.64634 0
M  V30 3095 C 300.214 -0.187579 1.88268 0
M  V30 3096 O 299.557 -1.13253 1.44635 0
M  V30 3097 C 299.619 1.92996 3.03303 0
M  V30 3098 C 299.283 3.42336 3.02746 0
M  V30 3099 C 300.28 4.37956 2.80162 0
M  V30 3100 C 297.965 3.84147 3.2363 0
M  V30 3101 C 299.959 5.73361 2.78453 0
M  V30 3102 C 297.646 5.19663 3.21549 0
M  V30 3103 C 298.644 6.14081 2.98988 0
M  V30 3104 O 298.332 7.47118 2.96766 0
M  V30 3105 H 298.064 0.432222 0.519769 0
M  V30 3106 H 300.618 1.7445 1.08427 0
M  V30 3107 H 298.848 1.37922 3.61268 0
M  V30 3108 H 300.537 1.79723 3.63943 0
M  V30 3109 H 301.303 4.06981 2.63802 0
M  V30 3110 H 297.182 3.11083 3.40218 0
M  V30 3111 H 300.726 6.4703 2.60763 0
M  V30 3112 H 296.623 5.5027 3.37451 0
M  V30 3113 H 297.391 7.56382 3.12775 0
M  V30 3114 N 300.054 -1.07777 1.14986 0
M  V30 3115 C 301.004 -2.13082 0.811181 0
M  V30 3116 C 301.988 -1.59619 -0.202597 0
M  V30 3117 O 303.18 -1.77 -0.00398275 0
M  V30 3118 C 300.309 -3.42009 0.297439 0
M  V30 3119 C 299.395 -4.02337 1.34112 0
M  V30 3120 N 299.786 -4.36982 2.54716 0
M  V30 3121 C 298.084 -4.29752 1.19285 0
M  V30 3122 C 298.785 -4.84729 3.21578 0
M  V30 3123 N 297.761 -4.83233 2.48972 0
M  V30 3124 H 301.563 -2.37696 1.72853 0
M  V30 3125 H 299.077 -1.25173 1.03468 0
M  V30 3126 H 301.074 -4.16884 0.0364777 0
M  V30 3127 H 299.734 -3.18841 -0.614022 0
M  V30 3128 H 300.745 -4.27807 2.91894 0
M  V30 3129 H 297.422 -4.16106 0.340926 0
M  V30 3130 H 298.812 -5.20863 4.24442 0
M  V30 3131 N 301.532 -0.945985 -1.26051 0
M  V30 3132 C 302.495 -0.463897 -2.24456 0
M  V30 3133 C 303.495 0.427655 -1.55009 0
M  V30 3134 O 304.685 0.226157 -1.72726 0
M  V30 3135 C 301.817 0.330812 -3.39291 0
M  V30 3136 H 303.01 -1.33357 -2.68619 0
M  V30 3137 H 300.563 -0.728416 -1.38289 0
M  V30 3138 H 301.298 1.21852 -3.00537 0
M  V30 3139 H 301.083 -0.308679 -3.90883 0
M  V30 3140 H 302.573 0.657865 -4.12386 0
M  V30 3141 N 303.011 1.40521 -0.713556 0
M  V30 3142 C 303.974 2.29098 -0.0684347 0
M  V30 3143 C 304.974 1.45268 0.689472 0
M  V30 3144 O 306.164 1.66205 0.521677 0
M  V30 3145 C 303.296 3.28446 0.913024 0
M  V30 3146 H 304.489 2.87645 -0.84855 0
M  V30 3147 H 302.042 1.48809 -0.47809 0
M  V30 3148 H 302.777 2.74913 1.72027 0
M  V30 3149 H 302.562 3.90327 0.372472 0
M  V30 3150 H 304.052 3.94777 1.36165 0
M  V30 3151 N 304.489 0.459591 1.5075 0
M  V30 3152 C 305.9 0.00171547 1.867 0
M  V30 3153 C 306.251 -1.39934 1.37525 0
M  V30 3154 O 305.376 -2.03523 0.735349 0
M  V30 3155 C 305.971 -0.00366298 3.388 0
M  V30 3156 C 304.53 -0.406026 3.74204 0
M  V30 3157 C 303.677 0.38673 2.7459 0
M  V30 3158 H 306.628 0.674413 1.43657 0
M  V30 3159 H 306.649 -0.808371 3.71814 0
M  V30 3160 H 306.161 1.01617 3.74561 0
M  V30 3161 H 304.262 -1.43063 3.4404 0
M  V30 3162 H 304.375 -0.115362 4.78961 0
M  V30 3163 H 302.739 -0.158019 2.54209 0
M  V30 3164 H 303.522 1.40585 3.13194 0
M  V30 3165 N 305.967 -1.56429 0.191757 0
M  V30 3166 C 306.93 -2.17707 -0.716688 0
M  V30 3167 C 307.93 -1.13061 -1.14341 0
M  V30 3168 O 309.12 -1.38464 -1.05704 0
M  V30 3169 C 306.252 -2.77644 -1.97804 0
M  V30 3170 H 307.445 -2.99342 -0.1829 0
M  V30 3171 H 304.998 -1.56193 -0.0578566 0
M  V30 3172 H 305.733 -1.99799 -2.55443 0
M  V30 3173 H 305.518 -3.54246 -1.68083 0
M  V30 3174 H 307.008 -3.24708 -2.62592 0
M  V30 3175 N 307.445 0.0818655 -1.57387 0
M  V30 3176 C 308.375 1.09885 -2.06028 0
M  V30 3177 C 309.356 1.4098 -0.951774 0
M  V30 3178 O 310.541 1.50781 -1.22387 0
M  V30 3179 C 307.671 2.4151 -2.4958 0
M  V30 3180 C 306.625 2.24792 -3.64215 0
M  V30 3181 C 305.951 3.61712 -3.93787 0
M  V30 3182 C 307.251 1.67749 -4.94629 0
M  V30 3183 H 308.945 0.694128 -2.91243 0
M  V30 3184 H 306.491 0.332448 -1.4011 0
M  V30 3185 H 308.444 3.12939 -2.82219 0
M  V30 3186 H 307.168 2.83943 -1.61381 0
M  V30 3187 H 305.827 1.55807 -3.31843 0
M  V30 3188 H 305.475 4.01697 -3.02735 0
M  V30 3189 H 305.175 3.51368 -4.70971 0
M  V30 3190 H 306.699 4.34587 -4.28913 0
M  V30 3191 H 308.113 2.29032 -5.25564 0
M  V30 3192 H 306.51 1.68128 -5.76067 0
M  V30 3193 H 307.58 0.638059 -4.80684 0
M  V30 3194 N 308.923 1.53595 0.353017 0
M  V30 3195 C 309.855 1.77219 1.45348 0
M  V30 3196 C 310.868 0.65324 1.49119 0
M  V30 3197 O 312.057 0.929775 1.52373 0
M  V30 3198 C 309.157 1.84841 2.84055 0
M  V30 3199 C 308.33 3.14649 3.03833 0
M  V30 3200 C 307.389 3.13351 4.22727 0
M  V30 3201 O 306.415 3.87107 4.17297 0
M  V30 3202 N 307.617 2.35052 5.30783 0
M  V30 3203 H 310.382 2.72178 1.25457 0
M  V30 3204 H 307.943 1.52528 0.542833 0
M  V30 3205 H 309.935 1.81435 3.61751 0
M  V30 3206 H 308.505 0.971114 2.97133 0
M  V30 3207 H 307.725 3.31256 2.13689 0
M  V30 3208 H 309.013 4.00411 3.13925 0
M  V30 3209 H 308.411 1.74663 5.38061 0
M  V30 3210 H 306.968 2.37453 6.07009 0
M  V30 3211 N 310.401 -0.613514 1.45168 0
M  V30 3212 C 311.649 -1.36997 1.48581 0
M  V30 3213 C 311.97 -1.94589 0.126545 0
M  V30 3214 O 311.24 -1.76816 -0.843372 0
M  V30 3215 H 309.82 -0.508558 0.547154 0
M  V30 3216 H 312.482 -0.720853 1.81079 0
M  V30 3217 H 311.578 -2.1924 2.22127 0
M  V30 3218 N 311.879 -1.3236 -0.855495 0
M  V30 3219 C 313.126 -1.22872 -1.60962 0
M  V30 3220 C 313.454 0.209658 -1.93367 0
M  V30 3221 O 312.709 1.16243 -1.57436 0
M  V30 3222 C 313.008 -2.03275 -2.93963 0
M  V30 3223 C 312.674 -3.5264 -2.80991 0
M  V30 3224 C 311.336 -3.93364 -2.7716 0
M  V30 3225 C 313.688 -4.47626 -2.66983 0
M  V30 3226 C 311.016 -5.27319 -2.572 0
M  V30 3227 C 313.368 -5.81723 -2.48558 0
M  V30 3228 C 312.032 -6.2165 -2.4312 0
M  V30 3229 H 311.302 -0.44962 -0.589001 0
M  V30 3230 H 313.949 -1.63777 -0.992442 0
M  V30 3231 H 312.254 -1.55095 -3.59795 0
M  V30 3232 H 313.951 -1.93303 -3.51333 0
M  V30 3233 H 310.541 -3.20295 -2.84797 0
M  V30 3234 H 314.725 -4.17084 -2.68988 0
M  V30 3235 H 309.981 -5.57311 -2.51424 0
M  V30 3236 H 314.155 -6.5494 -2.36699 0
M  V30 3237 H 311.782 -7.25388 -2.27412 0
M  V30 3238 N 313.357 1.07166 -1.15556 0
M  V30 3239 C 314.605 1.79443 -0.929764 0
M  V30 3240 C 314.926 1.87246 0.544414 0
M  V30 3241 O 314.196 1.37473 1.39564 0
M  V30 3242 H 312.776 0.664625 -0.341003 0
M  V30 3243 H 315.438 1.29499 -1.45657 0
M  V30 3244 H 314.534 2.81832 -1.34079 0
M  V30 3245 N 314.835 0.952656 1.25548 0
M  V30 3246 C 316.084 0.602053 1.92505 0
M  V30 3247 C 316.397 -0.864663 1.75451 0
M  V30 3248 O 317.603 -1.32514 2.36965 0
M  V30 3249 C 316.059 1.02607 3.44963 0
M  V30 3250 C 315.667 2.51519 3.70732 0
M  V30 3251 C 317.411 0.747905 4.1786 0
M  V30 3252 C 315.318 2.87732 5.16686 0
M  V30 3253 H 314.248 0.22146 0.720744 0
M  V30 3254 H 316.899 1.15684 1.42441 0
M  V30 3255 H 315.281 0.399712 3.93978 0
M  V30 3256 H 316.455 3.19157 3.32378 0
M  V30 3257 H 314.77 2.76786 3.11092 0
M  V30 3258 H 317.367 0.994647 5.25367 0
M  V30 3259 H 317.71 -0.315629 4.15102 0
M  V30 3260 H 318.243 1.33452 3.74747 0
M  V30 3261 H 314.982 3.93095 5.24554 0
M  V30 3262 H 314.502 2.24765 5.56094 0
M  V30 3263 H 316.181 2.76817 5.84792 0
M  V30 3264 N 316.313 -1.40141 0.720998 0
M  V30 3265 C 317.538 -2.05618 0.271258 0
M  V30 3266 C 317.963 -1.53978 -1.08039 0
M  V30 3267 O 317.321 -0.677463 -1.68167 0
M  V30 3268 C 317.369 -3.59609 0.267197 0
M  V30 3269 O 316.473 -4.05526 -0.749814 0
M  V30 3270 H 315.814 -0.651904 0.126162 0
M  V30 3271 H 318.344 -1.79439 0.982997 0
M  V30 3272 H 318.354 -4.0786 0.106744 0
M  V30 3273 H 317.029 -3.96559 1.25354 0
M  V30 3274 H 315.606 -3.68722 -0.556644 0
M  V30 3275 N 317.792 -0.46758 -1.50504 0
M  V30 3276 C 319.017 0.0886943 -2.0721 0
M  V30 3277 C 319.442 1.33057 -1.32956 0
M  V30 3278 O 318.8 1.77354 -0.376197 0
M  V30 3279 C 318.848 0.359202 -3.58806 0
M  V30 3280 O 317.952 1.44034 -3.8643 0
M  V30 3281 H 317.293 -0.0114349 -0.663902 0
M  V30 3282 H 319.823 -0.657613 -1.93744 0
M  V30 3283 H 319.833 0.600742 -4.03553 0
M  V30 3284 H 318.508 -0.548311 -4.1227 0
M  V30 3285 H 317.085 1.18638 -3.53524 0
M  V30 3286 N 319.27 1.56325 -0.20005 0
M  V30 3287 C 320.681 1.8408 0.31167 0
M  V30 3288 C 321.032 1.12087 1.61031 0
M  V30 3289 O 320.157 0.38332 2.12978 0
M  V30 3290 C 320.752 3.33932 0.57226 0
M  V30 3291 C 319.311 3.6208 1.02834 0
M  V30 3292 C 318.458 2.77186 0.079634 0
M  V30 3293 H 321.409 1.52939 -0.423729 0
M  V30 3294 H 321.43 3.52971 1.42096 0
M  V30 3295 H 320.942 3.86303 -0.37308 0
M  V30 3296 H 319.043 3.15147 1.98778 0
M  V30 3297 H 319.156 4.7023 0.917624 0
M  V30 3298 H 317.52 2.47951 0.582448 0
M  V30 3299 H 318.303 3.32347 -0.860238 0
M  V30 3300 N 320.748 -0.0735177 1.57428 0
M  V30 3301 C 321.658 -1.10547 2.06922 0
M  V30 3302 C 322.674 -1.42506 0.998402 0
M  V30 3303 O 323.85 -1.52717 1.31299 0
M  V30 3304 C 320.915 -2.40019 2.50184 0
M  V30 3305 C 319.976 -2.15046 3.71556 0
M  V30 3306 C 319.209 -3.38345 4.12745 0
M  V30 3307 O 319.432 -4.47399 3.53822 0
M  V30 3308 O 318.366 -3.2666 5.05546 0
M  V30 3309 H 322.192 -0.715013 2.95163 0
M  V30 3310 H 319.777 -0.287531 1.46607 0
M  V30 3311 H 321.659 -3.16218 2.78539 0
M  V30 3312 H 320.334 -2.78447 1.65072 0
M  V30 3313 H 319.241 -1.36558 3.48285 0
M  V30 3314 H 320.574 -1.81499 4.57514 0
M  V30 3315 N 322.226 -1.5378 -0.344866 0
M  V30 3316 C 323.158 -1.77988 -1.44406 0
M  V30 3317 C 324.171 -0.661138 -1.48771 0
M  V30 3318 O 325.36 -0.937842 -1.51877 0
M  V30 3319 C 322.46 -1.86345 -2.8307 0
M  V30 3320 C 321.633 -3.16256 -3.0216 0
M  V30 3321 C 320.692 -3.15588 -4.21059 0
M  V30 3322 O 319.718 -3.89314 -4.15239 0
M  V30 3323 N 320.92 -2.37864 -5.29529 0
M  V30 3324 H 323.685 -2.72839 -1.24012 0
M  V30 3325 H 321.246 -1.52814 -0.534737 0
M  V30 3326 H 323.238 -1.83351 -3.60783 0
M  V30 3327 H 321.808 -0.986858 -2.96614 0
M  V30 3328 H 321.028 -3.32385 -2.11929 0
M  V30 3329 H 322.316 -4.0207 -3.11797 0
M  V30 3330 H 321.714 -1.77514 -5.37127 0
M  V30 3331 H 320.271 -2.40668 -6.05741 0
M  V30 3332 N 323.704 0.605807 -1.45491 0
M  V30 3333 C 324.95 1.36679 -1.49823 0
M  V30 3334 C 325.283 1.93693 -0.140175 0
M  V30 3335 O 324.558 1.75158 0.845581 0
M  V30 3336 C 324.841 2.51337 -2.57879 0
M  V30 3337 C 324.694 1.99508 -4.03134 0
M  V30 3338 C 326.013 3.53463 -2.62205 0
M  V30 3339 H 323.132 0.495617 -0.545466 0
M  V30 3340 H 325.774 0.682732 -1.7731 0
M  V30 3341 H 323.924 3.09691 -2.34571 0
M  V30 3342 H 325.596 1.45789 -4.37656 0
M  V30 3343 H 323.839 1.30496 -4.13707 0
M  V30 3344 H 324.51 2.82169 -4.74431 0
M  V30 3345 H 326.986 3.04953 -2.83095 0
M  V30 3346 H 325.862 4.31178 -3.39672 0
M  V30 3347 H 326.123 4.09197 -1.67363 0
M  V30 3348 N 325.182 1.32811 0.848464 0
M  V30 3349 C 326.407 1.26882 1.6406 0
M  V30 3350 C 326.832 -0.15913 1.87426 0
M  V30 3351 O 326.19 -1.11258 1.43148 0
M  V30 3352 C 326.238 2.03997 2.97351 0
M  V30 3353 O 325.342 1.39201 3.88197 0
M  V30 3354 H 324.683 0.436982 0.499943 0
M  V30 3355 H 327.213 1.75224 1.0563 0
M  V30 3356 H 327.223 2.14403 3.47124 0
M  V30 3357 H 325.898 3.0783 2.79666 0
M  V30 3358 H 324.475 1.37381 3.46671 0
M  V30 3359 N 326.66 -1.06551 1.16123 0
M  V30 3360 C 327.623 -2.12132 0.867906 0
M  V30 3361 C 328.623 -1.60224 -0.135944 0
M  V30 3362 O 329.813 -1.73943 0.0946422 0
M  V30 3363 C 326.945 -3.396 0.297419 0
M  V30 3364 H 328.138 -2.39586 1.80385 0
M  V30 3365 H 325.691 -1.22574 0.969812 0
M  V30 3366 H 326.426 -3.17794 -0.64633 0
M  V30 3367 H 326.211 -3.78581 1.02073 0
M  V30 3368 H 327.701 -4.17455 0.110052 0
M  V30 3369 N 328.138 -0.959301 -1.25041 0
M  V30 3370 C 329.101 -0.487677 -2.23952 0
M  V30 3371 C 330.101 0.41119 -1.55454 0
M  V30 3372 O 331.291 0.207825 -1.72956 0
M  V30 3373 C 328.423 0.294807 -3.39623 0
M  V30 3374 H 329.616 -1.36198 -2.67189 0
M  V30 3375 H 327.169 -0.743042 -1.37508 0
M  V30 3376 H 327.904 1.18658 -3.01813 0
M  V30 3377 H 327.689 -0.35012 -3.90534 0
M  V30 3378 H 329.179 0.614089 -4.1306 0
M  V30 3379 N 329.616 1.39756 -0.72842 0
M  V30 3380 C 330.862 2.00942 -0.273892 0
M  V30 3381 C 331.195 1.57656 1.13394 0
M  V30 3382 O 330.47 0.802434 1.77176 0
M  V30 3383 C 330.753 3.58211 -0.368346 0
M  V30 3384 C 330.606 4.11534 -1.81548 0
M  V30 3385 C 331.925 4.39372 0.253054 0
M  V30 3386 H 329.044 0.730047 -0.100996 0
M  V30 3387 H 331.686 1.66056 -0.923337 0
M  V30 3388 H 329.836 3.88061 0.184588 0
M  V30 3389 H 331.508 3.92431 -2.42478 0
M  V30 3390 H 329.751 3.65341 -2.33898 0
M  V30 3391 H 330.422 5.20682 -1.83288 0
M  V30 3392 H 332.898 4.15527 -0.218224 0
M  V30 3393 H 331.774 5.48677 0.156585 0
M  V30 3394 H 332.035 4.21358 1.33826 0
M  V30 3395 N 331.094 0.475555 1.50254 0
M  V30 3396 C 332.51 0.12997 1.5907 0
M  V30 3397 C 332.71 -1.36385 1.48328 0
M  V30 3398 O 331.766 -2.13754 1.34407 0
M  V30 3399 C 333.079 0.684139 2.92814 0
M  V30 3400 C 334.627 0.647965 3.0622 0
M  V30 3401 C 335.102 1.17975 4.42545 0
M  V30 3402 N 336.593 1.13936 4.48969 0
M  V30 3403 C 337.328 1.52129 5.52851 0
M  V30 3404 N 336.824 1.97793 6.63965 0
M  V30 3405 N 338.617 1.43704 5.4342 0
M  V30 3406 H 330.768 1.44706 1.55479 0
M  V30 3407 H 333.031 0.598691 0.735033 0
M  V30 3408 H 332.737 1.73079 3.06164 0
M  V30 3409 H 332.611 0.130204 3.76975 0
M  V30 3410 H 334.998 -0.38979 2.92514 0
M  V30 3411 H 335.079 1.23876 2.23805 0
M  V30 3412 H 334.723 2.21616 4.57 0
M  V30 3413 H 334.653 0.565138 5.23559 0
M  V30 3414 H 337.144 0.804488 3.69238 0
M  V30 3415 H 337.457 2.25072 7.39299 0
M  V30 3416 H 335.802 2.01749 6.65073 0
M  V30 3417 H 338.993 1.07867 4.55502 0
M  V30 3418 H 339.166 1.73794 6.24259 0
M  V30 3419 N 332.573 -1.56217 0.208337 0
M  V30 3420 C 333.536 -2.18455 -0.693557 0
M  V30 3421 C 334.536 -1.14268 -1.13135 0
M  V30 3422 O 335.726 -1.39577 -1.0423 0
M  V30 3423 C 332.858 -2.79727 -1.94848 0
M  V30 3424 H 334.051 -2.99519 -0.15114 0
M  V30 3425 H 331.604 -1.56245 -0.041287 0
M  V30 3426 H 332.339 -2.02497 -2.53309 0
M  V30 3427 H 332.124 -3.56009 -1.64316 0
M  V30 3428 H 333.614 -3.27475 -2.59133 0
M  V30 3429 N 334.051 0.0651679 -1.57465 0
M  V30 3430 C 335.299 0.761555 -1.87202 0
M  V30 3431 C 335.62 1.77778 -0.801243 0
M  V30 3432 O 334.89 1.95166 0.16937 0
M  V30 3433 H 333.47 0.284251 -0.690804 0
M  V30 3434 H 336.132 0.0396827 -1.9486 0
M  V30 3435 H 335.228 1.27365 -2.84929 0
M  V30 3436 N 335.529 1.53961 0.336706 0
M  V30 3437 C 336.492 1.81724 1.39675 0
M  V30 3438 C 337.492 0.688532 1.45313 0
M  V30 3439 O 338.682 0.956829 1.45569 0
M  V30 3440 C 335.814 1.96543 2.78538 0
M  V30 3441 H 337.007 2.76424 1.16318 0
M  V30 3442 H 334.56 1.45478 0.571474 0
M  V30 3443 H 335.295 1.0401 3.07168 0
M  V30 3444 H 335.08 2.78665 2.75841 0
M  V30 3445 H 336.57 2.19516 3.5525 0
M  V30 3446 N 337.007 -0.598083 1.45811 0
M  V30 3447 C 337.97 -1.69018 1.54808 0
M  V30 3448 C 338.97 -1.55037 0.426652 0
M  V30 3449 O 340.16 -1.59932 0.690456 0
M  V30 3450 C 337.292 -3.0835 1.45371 0
M  V30 3451 H 338.485 -1.62403 2.52121 0
M  V30 3452 H 336.038 -0.814626 1.33392 0
M  V30 3453 H 336.773 -3.20534 0.492793 0
M  V30 3454 H 336.558 -3.19907 2.26721 0
M  V30 3455 H 338.048 -3.8788 1.54721 0
M  V30 3456 N 338.485 -1.33259 -0.841409 0
M  V30 3457 C 339.733 -1.24326 -1.59334 0
M  V30 3458 C 340.054 0.191564 -1.94057 0
M  V30 3459 O 339.324 1.11967 -1.60749 0
M  V30 3460 H 337.904 -0.457174 -0.590763 0
M  V30 3461 H 340.566 -1.66947 -1.00571 0
M  V30 3462 H 339.662 -1.8352 -2.52442 0
M  V30 3463 N 339.963 1.05934 -1.16686 0
M  V30 3464 C 340.926 2.11669 -0.879144 0
M  V30 3465 C 341.926 1.60294 0.127445 0
M  V30 3466 O 343.116 1.7389 -0.103865 0
M  V30 3467 C 340.248 3.39438 -0.315425 0
M  V30 3468 H 341.441 2.38626 -1.81653 0
M  V30 3469 H 338.994 1.22058 -0.976299 0
M  V30 3470 H 339.729 3.18132 0.629468 0
M  V30 3471 H 339.514 3.78034 -1.04079 0
M  V30 3472 H 341.004 4.17391 -0.132189 0
M  V30 3473 N 341.441 0.965919 1.2453 0
M  V30 3474 C 342.69 0.622437 1.91856 0
M  V30 3475 C 343.003 -0.846006 1.76358 0
M  V30 3476 O 344.209 -1.29993 2.38357 0
M  V30 3477 C 342.665 1.0626 3.43856 0
M  V30 3478 C 342.273 2.55437 3.68043 0
M  V30 3479 C 344.017 0.792183 4.17043 0
M  V30 3480 C 341.924 2.93196 5.13605 0
M  V30 3481 H 340.854 0.229092 0.718354 0
M  V30 3482 H 343.505 1.17189 1.41206 0
M  V30 3483 H 341.887 0.441476 3.93531 0
M  V30 3484 H 343.061 3.22665 3.28974 0
M  V30 3485 H 341.376 2.8007 3.08139 0
M  V30 3486 H 343.973 1.05031 5.24283 0
M  V30 3487 H 344.316 -0.271584 4.15413 0
M  V30 3488 H 344.849 1.37419 3.73311 0
M  V30 3489 H 341.588 3.98636 5.20355 0
M  V30 3490 H 341.108 2.30651 5.53679 0
M  V30 3491 H 342.787 2.83004 5.81823 0
M  V30 3492 N 342.919 -1.39368 0.735821 0
M  V30 3493 C 344.144 -2.05319 0.293052 0
M  V30 3494 C 344.569 -1.55115 -1.064 0
M  V30 3495 O 343.927 -0.695261 -1.67439 0
M  V30 3496 C 343.975 -3.59305 0.305323 0
M  V30 3497 O 343.079 -4.06299 -0.706761 0
M  V30 3498 H 342.42 -0.650529 0.13307 0
M  V30 3499 H 344.95 -1.78386 1.00197 0
M  V30 3500 H 344.96 -4.07724 0.149997 0
M  V30 3501 H 343.635 -3.95207 1.29553 0
M  V30 3502 H 342.212 -3.69292 -0.517504 0
M  V30 3503 N 344.397 -0.483516 -1.5 0
M  V30 3504 C 345.645 0.067027 -2.01989 0
M  V30 3505 C 345.966 1.3909 -1.36671 0
M  V30 3506 O 345.236 1.88978 -0.516152 0
M  V30 3507 H 343.816 0.0277606 -0.746484 0
M  V30 3508 H 346.478 -0.636773 -1.84204 0
M  V30 3509 H 345.574 0.209484 -3.11396 0
M  V30 3510 N 345.875 1.56104 -0.216619 0
M  V30 3511 C 347.1 2.0301 0.424462 0
M  V30 3512 C 347.525 1.0955 1.52907 0
M  V30 3513 O 346.883 0.0827914 1.81111 0
M  V30 3514 C 346.931 3.4819 0.937883 0
M  V30 3515 O 346.035 3.57865 2.04955 0
M  V30 3516 H 345.376 0.656925 0.0966755 0
M  V30 3517 H 347.906 2.01859 -0.33381 0
M  V30 3518 H 347.916 3.88413 1.24897 0
M  V30 3519 H 346.591 4.15699 0.129387 0
M  V30 3520 H 345.168 3.29527 1.74546 0
M  V30 3521 N 347.353 -0.0568162 1.57498 0
M  V30 3522 C 348.316 -1.05038 2.03715 0
M  V30 3523 C 349.316 -1.30709 0.936577 0
M  V30 3524 O 350.506 -1.26178 1.20103 0
M  V30 3525 C 347.638 -2.39034 2.43055 0
M  V30 3526 H 348.831 -0.651715 2.92733 0
M  V30 3527 H 346.384 -0.302947 1.53336 0
M  V30 3528 H 347.119 -2.83703 1.57108 0
M  V30 3529 H 346.904 -2.21739 3.2338 0
M  V30 3530 H 348.394 -3.10421 2.79336 0
M  V30 3531 N 348.832 -1.54138 -0.328536 0
M  V30 3532 C 350.081 -1.71318 -1.06456 0
M  V30 3533 C 350.394 -0.491109 -1.89334 0
M  V30 3534 O 351.6 -0.54416 -2.65991 0
M  V30 3535 C 350.056 -3.03 -1.94214 0
M  V30 3536 C 349.664 -4.32595 -1.16471 0
M  V30 3537 C 351.408 -3.29544 -2.67583 0
M  V30 3538 C 349.315 -5.55341 -2.03347 0
M  V30 3539 H 348.245 -0.638429 -0.401155 0
M  V30 3540 H 350.896 -1.80633 -0.323106 0
M  V30 3541 H 349.278 -2.87579 -2.72239 0
M  V30 3542 H 350.452 -4.58766 -0.432525 0
M  V30 3543 H 348.767 -4.12777 -0.548063 0
M  V30 3544 H 351.364 -4.18444 -3.3288 0
M  V30 3545 H 351.707 -2.47206 -3.34955 0
M  V30 3546 H 352.24 -3.45809 -1.96623 0
M  V30 3547 H 348.979 -6.40268 -1.40491 0
M  V30 3548 H 348.499 -5.33397 -2.74313 0
M  V30 3549 H 350.178 -5.91557 -2.62049 0
M  V30 3550 N 350.31 0.590341 -1.46126 0
M  V30 3551 C 351.556 1.35082 -1.51264 0
M  V30 3552 C 351.889 1.93534 -0.160711 0
M  V30 3553 O 351.164 1.76045 0.826956 0
M  V30 3554 C 351.447 2.48588 -2.6053 0
M  V30 3555 C 351.3 1.95221 -4.05227 0
M  V30 3556 C 352.619 3.50662 -2.6594 0
M  V30 3557 H 349.738 0.489803 -0.550692 0
M  V30 3558 H 352.38 0.663887 -1.78024 0
M  V30 3559 H 350.53 3.07186 -2.37843 0
M  V30 3560 H 352.202 1.41139 -4.39178 0
M  V30 3561 H 350.445 1.26101 -4.15068 0
M  V30 3562 H 351.116 2.77121 -4.77397 0
M  V30 3563 H 353.592 3.01934 -2.86313 0
M  V30 3564 H 352.468 4.27551 -3.44226 0
M  V30 3565 H 352.729 4.07399 -1.71694 0
M  V30 3566 N 351.788 1.33704 0.83433 0
M  V30 3567 C 352.735 1.24335 1.94447 0
M  V30 3568 C 353.705 0.120991 1.65659 0
M  V30 3569 O 354.89 0.300035 1.88426 0
M  V30 3570 C 352.03 0.993124 3.30501 0
M  V30 3571 C 351.143 2.20217 3.71657 0
M  V30 3572 C 350.278 1.88572 4.96602 0
M  V30 3573 C 349.317 3.05683 5.30306 0
M  V30 3574 N 348.454 2.73997 6.46429 0
M  V30 3575 H 353.294 2.1928 2.01792 0
M  V30 3576 H 350.831 1.09035 0.987404 0
M  V30 3577 H 352.789 0.828467 4.08892 0
M  V30 3578 H 351.419 0.0803902 3.227 0
M  V30 3579 H 350.471 2.47642 2.88752 0
M  V30 3580 H 351.783 3.07752 3.92543 0
M  V30 3581 H 350.937 1.68776 5.82752 0
M  V30 3582 H 349.676 0.982799 4.77695 0
M  V30 3583 H 348.681 3.26088 4.42659 0
M  V30 3584 H 349.906 3.96737 5.51159 0
M  V30 3585 H 347.852 1.86268 6.28999 0
M  V30 3586 H 347.769 3.55064 6.67432 0
M  V30 3587 H 349.037 2.57679 7.35678 0
M  V30 3588 N 353.266 -1.05314 1.17247 0
M  V30 3589 C 354.515 -1.77685 0.954521 0
M  V30 3590 C 354.828 -1.88616 -0.518025 0
M  V30 3591 O 356.034 -2.57714 -0.854144 0
M  V30 3592 C 354.49 -3.19402 1.65863 0
M  V30 3593 C 354.098 -3.16605 3.16963 0
M  V30 3594 C 355.842 -3.96237 1.52303 0
M  V30 3595 C 353.749 -4.53103 3.80068 0
M  V30 3596 H 352.679 -0.666 0.353496 0
M  V30 3597 H 355.33 -1.1805 1.40486 0
M  V30 3598 H 353.712 -3.79355 1.13602 0
M  V30 3599 H 354.886 -2.66176 3.76148 0
M  V30 3600 H 353.201 -2.53268 3.30521 0
M  V30 3601 H 355.798 -4.97157 1.96822 0
M  V30 3602 H 356.141 -4.136 0.473401 0
M  V30 3603 H 356.674 -3.42829 2.01775 0
M  V30 3604 H 353.413 -4.40946 4.85023 0
M  V30 3605 H 352.933 -5.03686 3.2567 0
M  V30 3606 H 354.612 -5.22045 3.82202 0
M  V30 3607 N 354.744 -0.972509 -1.24016 0
M  V30 3608 C 355.993 -0.632603 -1.91523 0
M  V30 3609 C 356.306 0.836641 -1.76804 0
M  V30 3610 O 357.512 1.28728 -2.39043 0
M  V30 3611 C 355.968 -1.08082 -3.43287 0
M  V30 3612 C 355.576 -2.57386 -3.66683 0
M  V30 3613 C 357.32 -0.814288 -4.16617 0
M  V30 3614 C 355.227 -2.95915 -5.12043 0
M  V30 3615 H 354.157 -0.232898 -0.717129 0
M  V30 3616 H 356.808 -1.17936 -1.40582 0
M  V30 3617 H 355.19 -0.462339 -3.93292 0
M  V30 3618 H 356.364 -3.24405 -3.27258 0
M  V30 3619 H 354.679 -2.81701 -3.06649 0
M  V30 3620 H 357.276 -1.0781 -5.23718 0
M  V30 3621 H 357.619 0.24955 -4.15551 0
M  V30 3622 H 358.152 -1.39397 -3.72577 0
M  V30 3623 H 354.891 -4.0139 -5.18234 0
M  V30 3624 H 354.411 -2.33584 -5.52448 0
M  V30 3625 H 356.09 -2.86086 -5.80314 0
M  V30 3626 N 356.222 1.38976 -0.743202 0
M  V30 3627 C 357.132 2.3434 -0.110399 0
M  V30 3628 C 358.148 1.58741 0.712559 0
M  V30 3629 O 359.324 1.9099 0.639125 0
M  V30 3630 C 356.389 3.37812 0.780012 0
M  V30 3631 C 355.45 4.29263 -0.0561319 0
M  V30 3632 C 354.683 5.27793 0.791875 0
M  V30 3633 O 354.906 5.33043 2.03031 0
M  V30 3634 O 353.84 6.01512 0.216183 0
M  V30 3635 H 357.666 2.90129 -0.897714 0
M  V30 3636 H 355.251 1.40643 -0.503966 0
M  V30 3637 H 357.133 4.01194 1.28923 0
M  V30 3638 H 355.808 2.84395 1.546 0
M  V30 3639 H 354.715 3.69076 -0.611056 0
M  V30 3640 H 356.048 4.85907 -0.784531 0
M  V30 3641 N 357.7 0.491464 1.49741 0
M  V30 3642 C 358.647 -0.292027 2.28945 0
M  V30 3643 C 359.617 -0.968973 1.34908 0
M  V30 3644 O 360.802 -0.97748 1.6386 0
M  V30 3645 C 357.942 -1.35617 3.17336 0
M  V30 3646 C 357.055 -0.691957 4.26422 0
M  V30 3647 C 356.19 -1.73572 5.02042 0
M  V30 3648 C 355.229 -1.05286 6.02977 0
M  V30 3649 N 354.366 -2.0404 6.71798 0
M  V30 3650 H 359.206 0.389654 2.95442 0
M  V30 3651 H 356.743 0.204003 1.45679 0
M  V30 3652 H 358.701 -1.98502 3.66951 0
M  V30 3653 H 357.331 -2.00674 2.52844 0
M  V30 3654 H 356.383 0.0499523 3.80367 0
M  V30 3655 H 357.695 -0.153946 4.98562 0
M  V30 3656 H 356.849 -2.43987 5.55478 0
M  V30 3657 H 355.588 -2.30757 4.29654 0
M  V30 3658 H 354.593 -0.334446 5.48782 0
M  V30 3659 H 355.818 -0.487636 6.77347 0
M  V30 3660 H 353.764 -2.60205 6.02187 0
M  V30 3661 H 353.681 -1.55279 7.39881 0
M  V30 3662 H 354.949 -2.73772 7.29842 0
M  V30 3663 N 359.178 -1.55987 0.224894 0
M  V30 3664 C 360.126 -2.21808 -0.700283 0
M  V30 3665 C 361.12 -1.19854 -1.19714 0
M  V30 3666 O 362.326 -1.37925 -1.15658 0
M  V30 3667 H 358.701 -0.711226 -0.244258 0
M  V30 3668 H 360.672 -2.98152 -0.121749 0
M  V30 3669 C 359.421 -2.91444 -1.8962 0
M  V30 3670 H 358.744 -3.69655 -1.52299 0
M  V30 3671 H 360.184 -3.40894 -2.52125 0
M  V30 3672 C 358.643 -1.94098 -2.75368 0
M  V30 3673 O 359.173 -1.46004 -3.74227 0
M  V30 3674 N 357.379 -1.61675 -2.41474 0
M  V30 3675 H 356.926 -2.00979 -1.61137 0
M  V30 3676 H 356.884 -0.968036 -2.99126 0
M  V30 3677 N 360.656 0.0484629 -1.57525 0
M  V30 3678 C 361.586 1.0549 -2.08313 0
M  V30 3679 C 362.567 1.38929 -0.981463 0
M  V30 3680 O 363.752 1.48151 -1.25558 0
M  V30 3681 C 360.882 2.36162 -2.54646 0
M  V30 3682 C 359.836 2.17016 -3.68901 0
M  V30 3683 C 359.162 3.53278 -4.01371 0
M  V30 3684 C 360.462 1.57219 -4.98076 0
M  V30 3685 H 362.156 0.632195 -2.92649 0
M  V30 3686 H 359.702 0.302654 -1.40784 0
M  V30 3687 H 361.655 3.06882 -2.88793 0
M  V30 3688 H 360.379 2.80456 -1.67368 0
M  V30 3689 H 359.038 1.48733 -3.35073 0
M  V30 3690 H 358.686 3.95185 -3.11188 0
M  V30 3691 H 358.386 3.41299 -4.78318 0
M  V30 3692 H 359.91 4.25391 -4.38035 0
M  V30 3693 H 361.324 2.17832 -5.30304 0
M  V30 3694 H 359.721 1.55871 -5.79503 0
M  V30 3695 H 360.791 0.535956 -4.81929 0
M  V30 3696 N 362.134 1.5431 0.320358 0
M  V30 3697 C 363.097 1.83195 1.3774 0
M  V30 3698 C 364.097 0.703906 1.44575 0
M  V30 3699 O 365.287 0.972214 1.44546 0
M  V30 3700 C 362.419 1.99487 2.76438 0
M  V30 3701 H 363.612 2.77642 1.1338 0
M  V30 3702 H 361.165 1.46076 0.556012 0
M  V30 3703 H 361.9 1.07262 3.06048 0
M  V30 3704 H 361.685 2.81575 2.7287 0
M  V30 3705 H 363.175 2.23271 3.52902 0
M  V30 3706 N 363.613 -0.582584 1.46437 0
M  V30 3707 C 364.838 -1.37168 1.55563 0
M  V30 3708 C 365.263 -1.87061 0.19743 0
M  V30 3709 O 364.621 -1.61572 -0.822451 0
M  V30 3710 C 364.669 -2.53511 2.56446 0
M  V30 3711 O 363.773 -3.54953 2.09958 0
M  V30 3712 H 363.114 -0.408494 0.523477 0
M  V30 3713 H 365.644 -0.706646 1.9201 0
M  V30 3714 H 365.654 -3.00426 2.76058 0
M  V30 3715 H 364.329 -2.16549 3.55076 0
M  V30 3716 H 362.906 -3.14516 2.00334 0
M  V30 3717 N 365.091 -1.34144 -0.827227 0
M  V30 3718 C 366.502 -1.23557 -1.39966 0
M  V30 3719 C 366.853 0.140731 -1.95695 0
M  V30 3720 O 365.978 1.04087 -1.89723 0
M  V30 3721 C 366.573 -2.23708 -2.54441 0
M  V30 3722 C 365.132 -2.16924 -3.07605 0
M  V30 3723 C 364.279 -2.10549 -1.80456 0
M  V30 3724 H 367.23 -1.45573 -0.631991 0
M  V30 3725 H 367.251 -1.85157 -3.32411 0
M  V30 3726 H 366.763 -3.23866 -2.13851 0
M  V30 3727 H 364.864 -1.20107 -3.52711 0
M  V30 3728 H 364.977 -3.07988 -3.66988 0
M  V30 3729 H 363.341 -1.56203 -2.01178 0
M  V30 3730 H 364.124 -3.12535 -1.42046 0
M  V30 3731 N 366.569 1.04691 -1.17803 0
M  V30 3732 C 367.516 2.12557 -0.899343 0
M  V30 3733 C 368.486 1.65339 0.158771 0
M  V30 3734 O 369.671 1.90789 0.0204797 0
M  V30 3735 C 366.811 3.42481 -0.424315 0
M  V30 3736 C 365.924 4.03346 -1.54713 0
M  V30 3737 C 365.059 5.21208 -1.02546 0
M  V30 3738 C 364.098 5.74089 -2.12339 0
M  V30 3739 N 363.235 6.83247 -1.61612 0
M  V30 3740 H 368.075 2.35734 -1.823 0
M  V30 3741 H 365.612 1.1564 -0.909159 0
M  V30 3742 H 367.57 4.16996 -0.130421 0
M  V30 3743 H 366.2 3.19471 0.462377 0
M  V30 3744 H 365.252 3.2622 -1.95664 0
M  V30 3745 H 366.564 4.38628 -2.37501 0
M  V30 3746 H 365.718 6.02812 -0.685718 0
M  V30 3747 H 364.457 4.87414 -0.167084 0
M  V30 3748 H 363.462 4.91111 -2.47165 0
M  V30 3749 H 364.687 6.0993 -2.98601 0
M  V30 3750 H 362.633 6.5134 -0.780533 0
M  V30 3751 H 362.55 7.17559 -2.38003 0
M  V30 3752 H 363.818 7.68491 -1.30545 0
M  V30 3753 N 368.047 0.979072 1.23499 0
M  V30 3754 C 368.979 0.476271 2.24197 0
M  V30 3755 C 369.992 -0.421166 1.57258 0
M  V30 3756 O 371.181 -0.225515 1.7707 0
M  V30 3757 C 368.281 -0.330503 3.37285 0
M  V30 3758 C 367.454 0.559744 4.33804 0
M  V30 3759 C 366.513 -0.192954 5.25846 0
M  V30 3760 O 365.539 0.416978 5.67671 0
M  V30 3761 N 366.741 -1.47932 5.61334 0
M  V30 3762 H 369.506 1.34211 2.67969 0
M  V30 3763 H 367.067 0.852189 1.37657 0
M  V30 3764 H 369.059 -0.842361 3.95836 0
M  V30 3765 H 367.629 -1.09734 2.92707 0
M  V30 3766 H 366.849 1.25245 3.73775 0
M  V30 3767 H 368.137 1.1665 4.95248 0
M  V30 3768 H 367.535 -1.9964 5.29302 0
M  V30 3769 H 366.092 -1.93664 6.22364 0
M  V30 3770 N 369.525 -1.3858 0.750561 0
M  V30 3771 C 370.458 -2.28095 0.0693139 0
M  V30 3772 C 371.436 -1.45217 -0.731491 0
M  V30 3773 O 372.62 -1.74587 -0.71076 0
M  V30 3774 C 369.747 -3.26282 -0.90871 0
M  V30 3775 C 368.793 -4.26056 -0.194507 0
M  V30 3776 S 369.626 -5.24026 1.10257 0
M  V30 3777 C 370.782 -6.2577 0.127542 0
M  V30 3778 H 371.015 -2.85526 0.8284 0
M  V30 3779 H 368.548 -1.44536 0.543014 0
M  V30 3780 H 370.506 -3.83367 -1.46766 0
M  V30 3781 H 369.167 -2.6784 -1.64075 0
M  V30 3782 H 368.36 -4.95249 -0.93512 0
M  V30 3783 H 367.962 -3.72852 0.292837 0
M  V30 3784 H 370.254 -6.73796 -0.707516 0
M  V30 3785 H 371.197 -7.03712 0.787044 0
M  V30 3786 H 371.605 -5.63938 -0.251803 0
M  V30 3787 N 371.003 -0.499398 -1.49478 0
M  V30 3788 C 371.933 0.269244 -2.31943 0
M  V30 3789 C 372.914 0.964054 -1.40143 0
M  V30 3790 O 374.099 0.955767 -1.69052 0
M  V30 3791 C 371.229 1.33504 -3.20615 0
M  V30 3792 C 370.183 0.760202 -4.21195 0
M  V30 3793 C 369.509 1.9264 -4.98792 0
M  V30 3794 C 370.809 -0.247661 -5.21712 0
M  V30 3795 H 372.503 -0.419082 -2.96452 0
M  V30 3796 H 370.049 -0.202988 -1.42562 0
M  V30 3797 H 372.002 1.88048 -3.77115 0
M  V30 3798 H 370.726 2.05253 -2.54045 0
M  V30 3799 H 369.385 0.23653 -3.65836 0
M  V30 3800 H 369.033 2.63154 -4.28671 0
M  V30 3801 H 368.733 1.54785 -5.66847 0
M  V30 3802 H 370.257 2.4762 -5.58137 0
M  V30 3803 H 371.671 0.209579 -5.72917 0
M  V30 3804 H 370.068 -0.541962 -5.97648 0
M  V30 3805 H 371.138 -1.16409 -4.7072 0
M  V30 3806 N 372.481 1.55866 -0.233164 0
M  V30 3807 C 373.444 2.1953 0.658715 0
M  V30 3808 C 374.444 1.16053 1.11303 0
M  V30 3809 O 375.634 1.41218 1.01996 0
M  V30 3810 C 372.766 2.82791 1.90373 0
M  V30 3811 H 373.959 2.99721 0.10347 0
M  V30 3812 H 371.512 1.56291 0.0164245 0
M  V30 3813 H 372.247 2.06501 2.50056 0
M  V30 3814 H 372.032 3.58578 1.58632 0
M  V30 3815 H 373.522 3.31556 2.53891 0
M  V30 3816 N 373.959 -0.0401083 1.57549 0
M  V30 3817 C 374.869 -1.06133 2.0922 0
M  V30 3818 C 375.885 -1.40356 1.0284 0
M  V30 3819 O 377.061 -1.49897 1.34509 0
M  V30 3820 C 374.126 -2.34658 2.55218 0
M  V30 3821 C 373.187 -2.07117 3.76033 0
M  V30 3822 C 372.42 -3.29514 4.19829 0
M  V30 3823 O 372.643 -4.39794 3.63232 0
M  V30 3824 O 371.577 -3.15863 5.12362 0
M  V30 3825 H 375.403 -0.652244 2.96613 0
M  V30 3826 H 372.988 -0.256368 1.47184 0
M  V30 3827 H 374.87 -3.10239 2.85184 0
M  V30 3828 H 373.545 -2.74883 1.70941 0
M  V30 3829 H 372.452 -1.29139 3.51104 0
M  V30 3830 H 373.785 -1.71754 4.61261 0
M  V30 3831 N 375.437 -1.54477 -0.31217 0
M  V30 3832 C 376.367 -1.87652 -1.38957 0
M  V30 3833 C 377.348 -0.734358 -1.53431 0
M  V30 3834 O 378.533 -0.98911 -1.67123 0
M  V30 3835 C 375.663 -2.11396 -2.75552 0
M  V30 3836 C 374.617 -3.27243 -2.75855 0
M  V30 3837 C 373.943 -3.36382 -4.15633 0
M  V30 3838 C 375.243 -4.64622 -2.38587 0
M  V30 3839 H 376.937 -2.77887 -1.11442 0
M  V30 3840 H 374.483 -1.33707 -0.534655 0
M  V30 3841 H 376.436 -2.33189 -3.51 0
M  V30 3842 H 375.16 -1.17921 -3.04569 0
M  V30 3843 H 373.819 -3.05356 -2.02863 0
M  V30 3844 H 373.467 -2.40445 -4.41809 0
M  V30 3845 H 373.167 -4.14249 -4.1674 0
M  V30 3846 H 374.691 -3.60422 -4.92877 0
M  V30 3847 H 376.105 -4.86219 -3.03749 0
M  V30 3848 H 374.502 -5.45121 -2.50925 0
M  V30 3849 H 375.572 -4.66097 -1.33723 0
M  V30 3850 N 376.915 0.57481 -1.46744 0
M  V30 3851 C 378.331 0.898981 -1.31873 0
M  V30 3852 C 378.531 1.99313 -0.29605 0
M  V30 3853 O 377.587 2.50728 0.298621 0
M  V30 3854 C 378.9 1.30886 -2.7072 0
M  V30 3855 C 380.448 1.42127 -2.78871 0
M  V30 3856 C 380.923 1.86478 -4.18318 0
M  V30 3857 N 382.414 1.93658 -4.20774 0
M  V30 3858 C 383.149 2.29267 -5.2557 0
M  V30 3859 N 382.645 2.63612 -6.40688 0
M  V30 3860 N 384.438 2.29889 -5.1294 0
M  V30 3861 H 376.589 -0.147839 -2.11885 0
M  V30 3862 H 378.852 -0.00347013 -0.947994 0
M  V30 3863 H 378.558 0.578853 -3.46904 0
M  V30 3864 H 378.432 2.26874 -3.01343 0
M  V30 3865 H 380.819 2.14213 -2.0297 0
M  V30 3866 H 380.9 0.443705 -2.51922 0
M  V30 3867 H 380.544 1.14968 -4.94717 0
M  V30 3868 H 380.474 2.85207 -4.42679 0
M  V30 3869 H 382.965 1.69574 -3.37718 0
M  V30 3870 H 383.278 2.89759 -7.16421 0
M  V30 3871 H 381.623 2.61232 -6.44036 0
M  V30 3872 H 384.814 2.02485 -4.22039 0
M  V30 3873 H 384.987 2.57312 -5.94722 0
M  V30 3874 N 378.394 1.34581 0.820102 0
M  V30 3875 C 379.619 1.30333 1.61332 0
M  V30 3876 C 380.044 -0.119339 1.87721 0
M  V30 3877 O 379.402 -1.08197 1.45475 0
M  V30 3878 C 379.45 2.10258 2.92957 0
M  V30 3879 O 378.554 1.47404 3.85157 0
M  V30 3880 H 377.895 0.447488 0.490561 0
M  V30 3881 H 380.425 1.77425 1.01889 0
M  V30 3882 H 380.435 2.21718 3.42498 0
M  V30 3883 H 379.11 3.13693 2.73074 0
M  V30 3884 H 377.687 1.44703 3.43679 0
M  V30 3885 N 379.872 -1.04064 1.18357 0
M  V30 3886 C 381.119 -1.77265 0.978947 0
M  V30 3887 C 381.447 -1.88189 -0.491428 0
M  V30 3888 O 380.702 -1.38653 -1.38108 0
M  V30 3889 C 381.001 -3.20634 1.57888 0
M  V30 3890 C 380.667 -3.29743 3.07539 0
M  V30 3891 C 379.329 -3.31937 3.48384 0
M  V30 3892 C 381.681 -3.29841 4.03552 0
M  V30 3893 C 379.009 -3.3187 4.83818 0
M  V30 3894 C 381.361 -3.31313 5.38901 0
M  V30 3895 C 380.025 -3.31799 5.79194 0
M  V30 3896 H 379.295 -0.648659 0.358222 0
M  V30 3897 H 381.942 -1.22225 1.47422 0
M  V30 3898 H 380.247 -3.78675 1.00561 0
M  V30 3899 H 381.944 -3.75917 1.39598 0
M  V30 3900 H 378.534 -3.28757 2.74986 0
M  V30 3901 H 382.718 -3.27337 3.73047 0
M  V30 3902 H 377.974 -3.30562 5.14333 0
M  V30 3903 H 382.148 -3.30338 6.13066 0
M  V30 3904 H 379.775 -3.315 6.84114 0
M  V30 3905 N 381.35 -0.985608 -1.22978 0
M  V30 3906 C 382.596 -0.65836 -1.91816 0
M  V30 3907 C 382.929 0.806692 -1.76653 0
M  V30 3908 O 382.204 1.58252 -1.13078 0
M  V30 3909 C 382.487 -1.056 -3.44268 0
M  V30 3910 C 382.34 -2.57906 -3.68516 0
M  V30 3911 C 383.659 -0.603781 -4.35939 0
M  V30 3912 H 380.778 -0.24065 -0.696604 0
M  V30 3913 H 383.42 -1.22783 -1.44998 0
M  V30 3914 H 381.57 -0.571445 -3.84274 0
M  V30 3915 H 383.242 -3.13976 -3.3796 0
M  V30 3916 H 381.485 -3.00305 -3.13048 0
M  V30 3917 H 382.156 -2.80779 -4.75255 0
M  V30 3918 H 384.632 -1.01987 -4.03408 0
M  V30 3919 H 383.508 -0.910383 -5.41298 0
M  V30 3920 H 383.769 0.495761 -4.39312 0
M  V30 3921 N 382.828 1.3818 -0.7579 0
M  V30 3922 C 384.053 2.04827 -0.325679 0
M  V30 3923 C 384.478 1.56788 1.03919 0
M  V30 3924 O 383.836 0.721811 1.66312 0
M  V30 3925 C 383.884 3.58774 -0.362447 0
M  V30 3926 O 382.988 4.07372 0.642033 0
M  V30 3927 H 382.329 0.64833 -0.143402 0
M  V30 3928 H 384.859 1.7677 -1.03023 0
M  V30 3929 H 384.869 4.07434 -0.214844 0
M  V30 3930 H 383.544 3.93096 -1.35824 0
M  V30 3931 H 382.121 3.70068 0.458688 0
M  V30 3932 N 384.306 0.507319 1.49211 0
M  V30 3933 C 385.269 -0.256763 2.27757 0
M  V30 3934 C 386.269 -0.888287 1.34038 0
M  V30 3935 O 387.459 -0.751841 1.5714 0
M  V30 3936 C 384.591 -1.36905 3.12202 0
M  V30 3937 H 385.784 0.432557 2.96764 0
M  V30 3938 H 383.337 0.262488 1.5408 0
M  V30 3939 H 384.072 -2.09233 2.47775 0
M  V30 3940 H 383.857 -0.921599 3.81115 0
M  V30 3941 H 385.347 -1.9071 3.7151 0
M  V30 3942 N 385.784 -1.5574 0.241426 0
M  V30 3943 C 386.717 -2.17168 -0.700935 0
M  V30 3944 C 387.695 -1.12206 -1.1768 0
M  V30 3945 O 388.879 -1.40565 -1.25593 0
M  V30 3946 C 386.006 -2.76796 -1.95196 0
M  V30 3947 C 385.052 -3.94764 -1.61442 0
M  V30 3948 S 385.885 -5.30613 -0.72182 0
M  V30 3949 C 387.041 -5.93691 -1.98197 0
M  V30 3950 H 387.274 -2.96761 -0.178882 0
M  V30 3951 H 384.807 -1.54378 0.0259299 0
M  V30 3952 H 386.765 -3.11787 -2.67019 0
M  V30 3953 H 385.426 -1.9716 -2.44514 0
M  V30 3954 H 384.619 -4.35057 -2.54443 0
M  V30 3955 H 384.221 -3.61022 -0.976672 0
M  V30 3956 H 386.513 -6.10874 -2.92983 0
M  V30 3957 H 387.456 -6.89258 -1.62262 0
M  V30 3958 H 387.864 -5.22709 -2.13156 0
M  V30 3959 N 387.262 0.0317525 -1.57568 0
M  V30 3960 C 388.209 1.0332 -2.06382 0
M  V30 3961 C 389.179 1.36082 -0.952414 0
M  V30 3962 O 390.364 1.46466 -1.2228 0
M  V30 3963 C 387.504 2.32989 -2.54578 0
M  V30 3964 C 386.617 2.0641 -3.79498 0
M  V30 3965 C 385.752 3.2993 -4.16317 0
M  V30 3966 C 384.791 2.98893 -5.34162 0
M  V30 3967 N 383.928 4.14857 -5.66426 0
M  V30 3968 H 388.768 0.609982 -2.9169 0
M  V30 3969 H 386.305 0.289573 -1.44222 0
M  V30 3970 H 388.263 3.0875 -2.80587 0
M  V30 3971 H 386.893 2.73039 -1.7219 0
M  V30 3972 H 385.945 1.21158 -3.6059 0
M  V30 3973 H 387.257 1.79513 -4.65378 0
M  V30 3974 H 386.411 4.1406 -4.4344 0
M  V30 3975 H 385.15 3.59938 -3.29083 0
M  V30 3976 H 384.155 2.13164 -5.06795 0
M  V30 3977 H 385.38 2.70165 -6.23047 0
M  V30 3978 H 383.326 4.44821 -4.82151 0
M  V30 3979 H 383.243 3.91374 -6.4681 0
M  V30 3980 H 384.511 4.99868 -5.98124 0
M  V30 3981 N 388.74 1.54641 0.303973 0
M  V30 3982 C 389.703 1.84646 1.35789 0
M  V30 3983 C 390.703 0.7192 1.4382 0
M  V30 3984 O 391.893 0.987491 1.43507 0
M  V30 3985 C 389.025 2.02407 2.74307 0
M  V30 3986 H 390.218 2.78829 1.10429 0
M  V30 3987 H 387.771 1.46658 0.540487 0
M  V30 3988 H 388.506 1.10502 3.04893 0
M  V30 3989 H 388.291 2.84453 2.69868 0
M  V30 3990 H 389.781 2.27002 3.50514 0
M  V30 3991 N 390.218 -0.567019 1.47046 0
M  V30 3992 C 391.181 -1.65696 1.58359 0
M  V30 3993 C 392.181 -1.54097 0.459441 0
M  V30 3994 O 393.371 -1.58432 0.724225 0
M  V30 3995 C 390.503 -3.05197 1.51879 0
M  V30 3996 H 391.696 -1.57019 2.5551 0
M  V30 3997 H 389.249 -0.786148 1.3509 0
M  V30 3998 H 389.984 -3.19417 0.560673 0
M  V30 3999 H 389.769 -3.15025 2.33455 0
M  V30 4000 H 391.259 -3.84511 1.62913 0
M  V30 4001 N 391.696 -1.35014 -0.812953 0
M  V30 4002 C 392.921 -1.31187 -1.60639 0
M  V30 4003 C 393.346 0.109382 -1.87782 0
M  V30 4004 O 392.704 1.07424 -1.46047 0
M  V30 4005 C 392.752 -2.11809 -2.91838 0
M  V30 4006 O 391.856 -1.49444 -3.8437 0
M  V30 4007 H 391.197 -0.450084 -0.488181 0
M  V30 4008 H 393.727 -1.77963 -1.00947 0
M  V30 4009 H 393.737 -2.23531 -3.41318 0
M  V30 4010 H 392.412 -3.15137 -2.71407 0
M  V30 4011 H 390.989 -1.46524 -3.42907 0
M  V30 4012 N 393.175 1.03435 -1.18907 0
M  V30 4013 C 394.591 1.28973 -0.940111 0
M  V30 4014 C 394.791 1.97676 0.390691 0
M  V30 4015 O 393.847 2.26127 1.12352 0
M  V30 4016 C 395.16 2.14221 -2.11021 0
M  V30 4017 C 396.708 2.27547 -2.14922 0
M  V30 4018 C 397.183 3.16164 -3.31367 0
M  V30 4019 N 398.674 3.23752 -3.31269 0
M  V30 4020 C 399.409 3.92495 -4.18014 0
M  V30 4021 N 398.905 4.63515 -5.14904 0
M  V30 4022 N 400.698 3.88838 -4.05908 0
M  V30 4023 H 392.849 0.57252 -2.04538 0
M  V30 4024 H 395.112 0.315184 -0.894071 0
M  V30 4025 H 394.818 1.71054 -3.073 0
M  V30 4026 H 394.692 3.14919 -2.0762 0
M  V30 4027 H 397.079 2.69947 -1.19217 0
M  V30 4028 H 397.16 1.26418 -2.22378 0
M  V30 4029 H 396.804 2.74474 -4.27348 0
M  V30 4030 H 396.734 4.17339 -3.21148 0
M  V30 4031 H 399.225 2.73167 -2.61129 0
M  V30 4032 H 399.538 5.13583 -5.77453 0
M  V30 4033 H 397.883 4.62398 -5.18857 0
M  V30 4034 H 401.074 3.32491 -3.29495 0
M  V30 4035 H 401.247 4.4214 -4.73726 0
M  V30 4036 N 394.653 0.992116 1.22453 0
M  V30 4037 C 395.616 0.546883 2.2258 0
M  V30 4038 C 396.616 -0.369829 1.56489 0
M  V30 4039 O 397.806 -0.161896 1.73446 0
M  V30 4040 C 394.938 -0.204659 3.40285 0
M  V30 4041 H 396.131 1.43234 2.63484 0
M  V30 4042 H 393.684 0.779239 1.3549 0
M  V30 4043 H 394.419 -1.10614 3.04853 0
M  V30 4044 H 394.204 0.45354 3.89468 0
M  V30 4045 H 395.694 -0.504358 4.14543 0
M  V30 4046 O 396.17 -1.33952 0.902177 0
M  V30 4047 H 396.861 -1.86748 0.514279 0
M  V30 END ATOM
M  V30 BEGIN BOND
M  V30 END BOND
M  V30 END CTAB
M  END
$$$$
