drugbank_target|P29600 Subtilisin Savinase (DB01973)
 OpenBabel12092119513D

  0  0  0     0  0            999 V3000
M  V30 BEGIN CTAB
M  V30 COUNTS 3718 3752 0 0 0
M  V30 BEGIN ATOM
M  V30 1 H -0.908 1.98254 -0.117106 0
M  V30 2 N 0 1.576 0 0
M  V30 3 C 0.963 2.07369 0.976253 0
M  V30 4 C 1.963 0.98309 1.27248 0
M  V30 5 O 3.153 1.24574 1.21766 0
M  V30 6 C 0.285 2.51514 2.30116 0
M  V30 7 H 1.478 2.94892 0.545759 0
M  V30 8 H -0.969 1.54328 0.247471 0
M  V30 9 H -0.234 1.67234 2.77855 0
M  V30 10 H -0.449 3.31163 2.09937 0
M  V30 11 H 1.041 2.90345 3.00149 0
M  V30 12 N 1.4781 -0.272755 1.55222 0
M  V30 13 C 2.4101 -1.35946 1.8453 0
M  V30 14 C 3.4231 -1.45525 0.729818 0
M  V30 15 O 4.6121 -1.47337 1.00767 0
M  V30 16 C 1.7121 -2.74069 1.99347 0
M  V30 17 C 0.8851 -2.87079 3.30007 0
M  V30 18 C -0.0559 -4.05879 3.34886 0
M  V30 19 O -1.0299 -3.96626 4.08261 0
M  V30 20 N 0.1721 -5.17857 2.62307 0
M  V30 21 H 2.9371 -1.11149 2.78327 0
M  V30 22 H 0.4981 -0.462869 1.55142 0
M  V30 23 H 2.4901 -3.51838 1.99981 0
M  V30 24 H 1.0601 -2.91688 1.12415 0
M  V30 25 H 0.2801 -1.96193 3.41909 0
M  V30 26 H 1.5681 -2.92701 4.16177 0
M  V30 27 H 0.9661 -5.28261 2.02377 0
M  V30 28 H -0.4769 -5.93855 2.68663 0
M  V30 29 N 2.9562 -1.48159 -0.537278 0
M  V30 30 C 4.1812 -1.59707 -1.32319 0
M  V30 31 C 4.6062 -0.254859 -1.86365 0
M  V30 32 O 3.9642 0.772378 -1.64024 0
M  V30 33 C 4.0122 -2.6412 -2.45505 0
M  V30 34 O 3.1162 -2.20774 -3.48328 0
M  V30 35 H 2.4572 -0.535791 -0.392204 0
M  V30 36 H 4.9872 -1.94092 -0.647268 0
M  V30 37 H 4.9972 -2.85166 -2.91795 0
M  V30 38 H 3.6722 -3.61567 -2.05528 0
M  V30 39 H 2.2492 -2.09911 -3.08207 0
M  V30 40 N 4.4343 0.785586 -1.36625 0
M  V30 41 C 5.6803 1.54591 -1.31261 0
M  V30 42 C 6.0133 1.93906 0.106823 0
M  V30 43 O 5.2883 1.63007 1.06108 0
M  V30 44 C 5.5713 2.82038 -2.23889 0
M  V30 45 C 5.4243 2.49066 -3.74548 0
M  V30 46 C 6.7433 3.83887 -2.15217 0
M  V30 47 H 3.8623 0.560846 -0.478143 0
M  V30 48 H 6.5043 0.902278 -1.67209 0
M  V30 49 H 4.6543 3.36961 -1.93363 0
M  V30 50 H 6.3263 2.00164 -4.15611 0
M  V30 51 H 4.5693 1.81954 -3.93796 0
M  V30 52 H 5.2403 3.40109 -4.34776 0
M  V30 53 H 7.7163 3.38421 -2.42096 0
M  V30 54 H 6.5923 4.70806 -2.82193 0
M  V30 55 H 6.8533 4.27131 -1.14068 0
M  V30 56 N 5.9124 1.20967 1.01018 0
M  V30 57 C 7.3234 1.02319 1.56165 0
M  V30 58 C 7.6744 -0.418546 1.91684 0
M  V30 59 O 6.7994 -1.30096 1.72928 0
M  V30 60 C 7.3944 1.85109 2.8376 0
M  V30 61 C 5.9534 1.70809 3.35412 0
M  V30 62 C 5.1004 1.82643 2.08655 0
M  V30 63 H 8.0514 1.35065 0.833255 0
M  V30 64 H 8.0724 1.35827 3.55431 0
M  V30 65 H 7.5844 2.90035 2.57878 0
M  V30 66 H 5.6854 0.685464 3.66241 0
M  V30 67 H 5.7984 2.52467 4.07182 0
M  V30 68 H 4.1624 1.25896 2.21409 0
M  V30 69 H 4.9454 2.89066 1.85191 0
M  V30 70 N 7.3905 -1.2043 1.01659 0
M  V30 71 C 8.6365 -1.90356 0.716674 0
M  V30 72 C 8.9915 -1.77367 -0.745557 0
M  V30 73 O 8.2845 -1.1471 -1.53467 0
M  V30 74 C 8.4785 -3.40464 1.08714 0
M  V30 75 C 8.3075 -3.6806 2.58384 0
M  V30 76 C 7.0775 -3.86775 3.25167 0
M  V30 77 C 9.2755 -3.70623 3.56572 0
M  V30 78 N 7.2575 -4.01889 4.64067 0
M  V30 79 C 8.6285 -3.91161 4.81034 0
M  V30 80 C 10.6835 -3.53586 3.50544 0
M  V30 81 C 9.3865 -3.96428 6.00198 0
M  V30 82 C 11.4125 -3.60125 4.6911 0
M  V30 83 C 10.7745 -3.81135 5.92381 0
M  V30 84 H 6.8735 -0.716226 0.313918 0
M  V30 85 H 9.4575 -1.44815 1.30141 0
M  V30 86 H 7.6285 -3.84757 0.530745 0
M  V30 87 H 9.3605 -3.97863 0.740763 0
M  V30 88 H 6.1155 -3.85156 2.75594 0
M  V30 89 H 6.5395 -4.13323 5.36184 0
M  V30 90 H 11.1815 -3.36308 2.56235 0
M  V30 91 H 8.8995 -4.12502 6.94887 0
M  V30 92 H 12.4855 -3.4825 4.66062 0
M  V30 93 H 11.3655 -3.86054 6.82592 0
M  V30 94 N 8.8686 -0.792821 -1.36206 0
M  V30 95 C 10.1166 -0.366062 -1.98757 0
M  V30 96 C 10.4376 1.0668 -1.63231 0
M  V30 97 O 9.7076 1.73587 -0.907978 0
M  V30 98 H 8.2876 -0.132364 -0.735179 0
M  V30 99 H 10.9496 -1.01562 -1.66347 0
M  V30 100 H 10.0456 -0.460638 -3.08682 0
M  V30 101 N 10.3467 1.47872 -0.545128 0
M  V30 102 C 11.5957 2.01695 -0.0145033 0
M  V30 103 C 11.9087 1.42609 1.33873 0
M  V30 104 O 13.1147 1.88021 1.95858 0
M  V30 105 C 11.5707 3.59892 0.0245068 0
M  V30 106 C 11.1787 4.27966 -1.32475 0
M  V30 107 C 12.9227 4.21507 0.50316 0
M  V30 108 C 10.8297 5.78136 -1.2455 0
M  V30 109 H 9.7597 0.753998 -0.00165172 0
M  V30 110 H 12.4107 1.69985 -0.691175 0
M  V30 111 H 10.7927 3.88509 0.766575 0
M  V30 112 H 11.9667 4.11003 -2.08357 0
M  V30 113 H 10.2817 3.78286 -1.74036 0
M  V30 114 H 12.8787 5.31538 0.580656 0
M  V30 115 H 13.2217 3.87855 1.51243 0
M  V30 116 H 13.7547 3.97376 -0.183681 0
M  V30 117 H 10.4937 6.16388 -2.23039 0
M  V30 118 H 10.0137 5.97469 -0.528282 0
M  V30 119 H 11.6927 6.40099 -0.942488 0
M  V30 120 N 11.8248 0.280983 1.55075 0
M  V30 121 C 13.0498 -0.340154 2.04592 0
M  V30 122 C 13.4748 -1.48246 1.15779 0
M  V30 123 O 12.8328 -1.80614 0.15761 0
M  V30 124 C 12.8808 -0.793104 3.5177 0
M  V30 125 O 11.9848 -1.89981 3.66034 0
M  V30 126 H 11.3258 -0.0694289 0.66036 0
M  V30 127 H 13.8558 0.416993 2.00306 0
M  V30 128 H 13.8658 -1.08729 3.93245 0
M  V30 129 H 12.5408 0.0426163 4.15878 0
M  V30 130 H 11.1178 -1.60771 3.36463 0
M  V30 131 N 13.3029 -1.57598 0.00835791 0
M  V30 132 C 14.7189 -1.55764 -0.347822 0
M  V30 133 C 14.9189 -1.01186 -1.74252 0
M  V30 134 O 13.9749 -0.649371 -2.44007 0
M  V30 135 C 15.2879 -2.99927 -0.215407 0
M  V30 136 C 16.8359 -3.11656 -0.289725 0
M  V30 137 C 17.3109 -4.57621 -0.18634 0
M  V30 138 N 18.8019 -4.62557 -0.243978 0
M  V30 139 C 19.5369 -5.73094 -0.18745 0
M  V30 140 N 19.0329 -6.92753 -0.0810331 0
M  V30 141 N 20.8259 -5.61588 -0.239925 0
M  V30 142 H 12.9769 -1.91411 0.92062 0
M  V30 143 H 15.2399 -0.879562 0.353659 0
M  V30 144 H 14.9459 -3.43729 0.744512 0
M  V30 145 H 14.8199 -3.63865 -0.994097 0
M  V30 146 H 17.2069 -2.67779 -1.24009 0
M  V30 147 H 17.2879 -2.5048 0.51898 0
M  V30 148 H 16.9319 -5.02174 0.760519 0
M  V30 149 H 16.8619 -5.16752 -1.01364 0
M  V30 150 H 19.3529 -3.76481 -0.327217 0
M  V30 151 H 19.6659 -7.72787 -0.0440241 0
M  V30 152 H 18.0109 -6.94984 -0.0465419 0
M  V30 153 H 21.2019 -4.66996 -0.321317 0
M  V30 154 H 21.3749 -6.47714 -0.192407 0
M  V30 155 N 14.781 0.264519 -1.55364 0
M  V30 156 C 16.027 0.99646 -1.76631 0
M  V30 157 C 16.36 1.85632 -0.570478 0
M  V30 158 O 15.635 1.89647 0.43175 0
M  V30 159 C 15.918 1.87187 -3.07625 0
M  V30 160 C 15.771 1.04138 -4.37579 0
M  V30 161 C 17.09 2.85749 -3.34717 0
M  V30 162 H 14.209 0.360841 -0.642622 0
M  V30 163 H 16.851 0.268218 -1.88097 0
M  V30 164 H 15.001 2.49279 -2.9798 0
M  V30 165 H 16.673 0.440517 -4.59192 0
M  V30 166 H 14.916 0.345115 -4.32425 0
M  V30 167 H 15.587 1.68729 -5.2558 0
M  V30 168 H 18.063 2.33793 -3.4421 0
M  V30 169 H 16.939 3.44136 -4.27623 0
M  V30 170 H 17.2 3.61311 -2.54768 0
M  V30 171 N 16.2591 1.48442 0.529413 0
M  V30 172 C 17.1911 1.59095 1.64989 0
M  V30 173 C 18.2041 0.475212 1.5571 0
M  V30 174 O 19.3931 0.746081 1.6216 0
M  V30 175 C 16.4931 1.50518 3.0364 0
M  V30 176 C 15.6661 2.77142 3.38395 0
M  V30 177 C 14.7251 2.62012 4.56329 0
M  V30 178 O 13.7511 3.35898 4.59522 0
M  V30 179 N 14.9531 1.71667 5.54536 0
M  V30 180 H 17.7181 2.55723 1.56287 0
M  V30 181 H 15.2791 1.45173 0.716697 0
M  V30 182 H 17.2711 1.38091 3.80412 0
M  V30 183 H 15.8411 0.618627 3.06418 0
M  V30 184 H 15.0611 3.0413 2.50796 0
M  V30 185 H 16.3491 3.61146 3.58401 0
M  V30 186 H 15.7471 1.10841 5.54735 0
M  V30 187 H 14.3041 1.65178 6.30523 0
M  V30 188 N 17.7372 -0.778329 1.37039 0
M  V30 189 C 18.7002 -1.87301 1.32102 0
M  V30 190 C 19.7002 -1.59198 0.226405 0
M  V30 191 O 20.8902 -1.67403 0.481861 0
M  V30 192 C 18.0222 -3.24309 1.05055 0
M  V30 193 H 19.2152 -1.93093 2.29467 0
M  V30 194 H 16.7682 -0.977358 1.21973 0
M  V30 195 H 17.5032 -3.24196 0.0819373 0
M  V30 196 H 17.2882 -3.46098 1.84279 0
M  V30 197 H 18.7782 -4.04382 1.04234 0
M  V30 198 N 19.2153 -1.21501 -1.00376 0
M  V30 199 C 20.6263 -1.03146 -1.55621 0
M  V30 200 C 20.9773 0.408375 -1.91903 0
M  V30 201 O 20.1023 1.29177 -1.73616 0
M  V30 202 C 20.6973 -1.86612 -2.82775 0
M  V30 203 C 19.2563 -1.72586 -3.34501 0
M  V30 204 C 18.4033 -1.83747 -2.07683 0
M  V30 205 H 21.3543 -1.35505 -0.826081 0
M  V30 206 H 21.3753 -1.3771 -3.54706 0
M  V30 207 H 20.8873 -2.91399 -2.56336 0
M  V30 208 H 18.9883 -0.704877 -3.65872 0
M  V30 209 H 19.1013 -2.54623 -4.05837 0
M  V30 210 H 17.4653 -1.27069 -2.20739 0
M  V30 211 H 18.2483 -2.90044 -1.83655 0
M  V30 212 N 20.6934 1.19889 -1.02296 0
M  V30 213 C 21.6564 2.21116 -0.603351 0
M  V30 214 C 22.6564 1.5738 0.329884 0
M  V30 215 O 23.8464 1.73802 0.117702 0
M  V30 216 C 20.9784 3.40696 0.117992 0
M  V30 217 H 22.1714 2.59754 -1.49893 0
M  V30 218 H 19.7244 1.33463 -0.813468 0
M  V30 219 H 20.4594 3.07569 1.0282 0
M  V30 220 H 20.2444 3.88188 -0.552511 0
M  V30 221 H 21.7344 4.15692 0.398696 0
M  V30 222 N 22.1715 0.800033 1.35784 0
M  V30 223 C 23.1345 0.211565 2.28221 0
M  V30 224 C 24.1345 -0.59728 1.49296 0
M  V30 225 O 25.3245 -0.416721 1.69142 0
M  V30 226 C 22.4565 -0.705846 3.33513 0
M  V30 227 H 23.6495 1.02677 2.81776 0
M  V30 228 H 21.2025 0.570211 1.45528 0
M  V30 229 H 21.9375 -1.54498 2.85133 0
M  V30 230 H 21.7225 -0.127655 3.91892 0
M  V30 231 H 23.2125 -1.11211 4.02519 0
M  V30 232 N 23.6496 -1.47581 0.552962 0
M  V30 233 C 24.5996 -2.26961 -0.217423 0
M  V30 234 C 25.5836 -1.34099 -0.889168 0
M  V30 235 O 26.7756 -1.58483 -0.788176 0
M  V30 236 C 23.9046 -3.19756 -1.24944 0
M  V30 237 C 22.9906 -4.20097 -0.581327 0
M  V30 238 N 23.3816 -5.04614 0.346171 0
M  V30 239 C 21.6796 -4.38099 -0.835767 0
M  V30 240 C 22.3806 -5.77052 0.733854 0
M  V30 241 N 21.3566 -5.43526 0.0896567 0
M  V30 242 H 25.1586 -2.89688 0.495761 0
M  V30 243 H 22.6726 -1.58068 0.372597 0
M  V30 244 H 24.6696 -3.75305 -1.81527 0
M  V30 245 H 23.3296 -2.58585 -1.96376 0
M  V30 246 H 24.3406 -5.12869 0.720098 0
M  V30 247 H 21.0176 -3.88102 -1.53892 0
M  V30 248 H 22.4076 -6.5504 1.49574 0
M  V30 249 N 25.1277 -0.289203 -1.54924 0
M  V30 250 C 26.0757 0.607966 -2.24514 0
M  V30 251 C 27.0697 1.14655 -1.24702 0
M  V30 252 O 28.2757 1.09856 -1.4259 0
M  V30 253 H 24.6507 0.21464 -0.720718 0
M  V30 254 H 26.6217 -0.00164182 -2.984 0
M  V30 255 C 25.3707 1.77406 -2.99036 0
M  V30 256 H 24.6937 1.36884 -3.75637 0
M  V30 257 H 26.1337 2.37814 -3.51028 0
M  V30 258 C 24.5927 2.67107 -2.05318 0
M  V30 259 O 25.1227 3.6787 -1.61353 0
M  V30 260 N 23.3287 2.34582 -1.71521 0
M  V30 261 H 22.8757 1.52688 -2.07471 0
M  V30 262 H 22.8337 2.94867 -1.0909 0
M  V30 263 N 26.6058 1.57591 -0.0167156 0
M  V30 264 C 28.0218 1.55946 0.339557 0
M  V30 265 C 28.2218 1.02109 1.73713 0
M  V30 266 O 27.2778 0.662303 2.43659 0
M  V30 267 C 28.5908 3.00037 0.199499 0
M  V30 268 C 30.1388 3.11805 0.273193 0
M  V30 269 C 30.6138 4.57713 0.162068 0
M  V30 270 N 32.1048 4.6268 0.219444 0
M  V30 271 C 32.8398 5.73185 0.157054 0
M  V30 272 N 32.3358 6.92786 0.0442936 0
M  V30 273 N 34.1288 5.61707 0.21014 0
M  V30 274 H 26.2798 1.90921 -0.930758 0
M  V30 275 H 28.5428 0.877674 -0.358319 0
M  V30 276 H 28.2488 3.4333 -0.76273 0
M  V30 277 H 28.1228 3.64387 0.974786 0
M  V30 278 H 30.5098 2.68433 1.22587 0
M  V30 279 H 30.5908 2.50201 -0.532256 0
M  V30 280 H 30.2348 5.01763 -0.78714 0
M  V30 281 H 30.1648 5.17283 0.986222 0
M  V30 282 H 32.6558 3.76649 0.307246 0
M  V30 283 H 32.9688 7.728 0.00304069 0
M  V30 284 H 31.3138 6.94999 0.00968457 0
M  V30 285 H 34.5048 4.6716 0.296546 0
M  V30 286 H 34.6778 6.47807 0.158054 0
M  V30 287 N 28.0839 -0.256276 1.55502 0
M  V30 288 C 29.3319 -0.983672 1.76545 0
M  V30 289 C 29.6529 -1.86206 0.578982 0
M  V30 290 O 28.9229 -1.91656 -0.405577 0
M  V30 291 H 27.5029 -0.366191 0.651086 0
M  V30 292 H 30.1649 -0.276479 1.92929 0
M  V30 293 H 29.2609 -1.61087 2.67315 0
M  V30 294 N 29.562 -1.4872 -0.521534 0
M  V30 295 C 30.492 -1.66771 -1.63431 0
M  V30 296 C 31.473 -0.516499 -1.62069 0
M  V30 297 O 32.658 -0.750013 -1.79132 0
M  V30 298 C 29.788 -1.71515 -3.01993 0
M  V30 299 C 28.742 -2.86222 -3.18216 0
M  V30 300 C 28.068 -2.76061 -4.57924 0
M  V30 301 C 29.368 -4.27419 -3.00184 0
M  V30 302 H 31.062 -2.59932 -1.48579 0
M  V30 303 H 28.608 -1.25089 -0.713358 0
M  V30 304 H 30.561 -1.82731 -3.7972 0
M  V30 305 H 29.285 -0.749393 -3.17886 0
M  V30 306 H 27.944 -2.74575 -2.42908 0
M  V30 307 H 27.592 -1.77437 -4.70665 0
M  V30 308 H 27.292 -3.53037 -4.69722 0
M  V30 309 H 28.816 -2.89256 -5.37739 0
M  V30 310 H 30.23 -4.39855 -3.67697 0
M  V30 311 H 28.627 -5.05458 -3.2347 0
M  V30 312 H 29.697 -4.43293 -1.96518 0
M  V30 313 N 31.0401 0.771051 -1.3745 0
M  V30 314 C 32.2681 1.56015 -1.35893 0
M  V30 315 C 32.6831 1.88718 0.0555523 0
M  V30 316 O 32.0401 1.51502 1.01752 0
M  V30 317 C 32.0911 2.87001 -2.19801 0
M  V30 318 O 31.8121 2.557 -3.55738 0
M  V30 319 C 33.3131 3.81228 -2.26231 0
M  V30 320 H 30.5331 0.483317 -0.465453 0
M  V30 321 H 33.0771 0.955611 -1.80799 0
M  V30 322 H 31.2321 3.43877 -1.78402 0
M  V30 323 H 31.6461 3.39584 -3.99729 0
M  V30 324 H 33.1201 4.70139 -2.89263 0
M  V30 325 H 33.5971 4.20409 -1.27093 0
M  V30 326 H 34.2031 3.30281 -2.67945 0
M  V30 327 N 32.5182 1.22032 0.997298 0
M  V30 328 C 33.7662 1.04016 1.73278 0
M  V30 329 C 34.0872 -0.426255 1.90284 0
M  V30 330 O 33.3572 -1.30694 1.45931 0
M  V30 331 H 31.9372 0.381897 0.642 0
M  V30 332 H 34.5992 1.5347 1.20137 0
M  V30 333 H 33.6952 1.51441 2.72896 0
M  V30 334 N 33.9963 -1.19345 1.0293 0
M  V30 335 C 35.2213 -1.93538 0.745511 0
M  V30 336 C 35.6463 -1.75007 -0.689511 0
M  V30 337 O 35.0043 -1.05265 -1.47611 0
M  V30 338 C 35.0523 -3.43336 1.10239 0
M  V30 339 O 34.1563 -4.11806 0.221289 0
M  V30 340 H 33.4973 -0.604193 0.275404 0
M  V30 341 H 36.0273 -1.5141 1.37609 0
M  V30 342 H 36.0373 -3.94004 1.05947 0
M  V30 343 H 34.7123 -3.56146 2.14786 0
M  V30 344 H 33.2893 -3.715 0.322842 0
M  V30 345 N 35.4744 -0.807222 -1.35358 0
M  V30 346 C 36.7224 -0.387122 -1.98358 0
M  V30 347 C 37.0434 1.04942 -1.64354 0
M  V30 348 O 36.3134 1.72615 -0.926339 0
M  V30 349 H 34.8934 -0.140154 -0.733734 0
M  V30 350 H 37.5554 -1.0332 -1.6526 0
M  V30 351 H 36.6514 -0.493352 -3.08176 0
M  V30 352 N 36.9525 1.47285 -0.560781 0
M  V30 353 C 38.1985 2.02764 -0.0381184 0
M  V30 354 C 38.5315 1.43384 1.30976 0
M  V30 355 O 37.8065 0.590733 1.85312 0
M  V30 356 C 38.0895 3.60064 0.0511427 0
M  V30 357 C 37.9425 4.2987 -1.32408 0
M  V30 358 C 39.2615 4.33439 0.762795 0
M  V30 359 H 36.3805 0.736841 -0.0153264 0
M  V30 360 H 39.0225 1.75675 -0.723759 0
M  V30 361 H 37.1725 3.83274 0.635065 0
M  V30 362 H 38.8445 4.17989 -1.95148 0
M  V30 363 H 37.0875 3.90085 -1.8978 0
M  V30 364 H 37.7585 5.38478 -1.21431 0
M  V30 365 H 40.2345 4.15243 0.266965 0
M  V30 366 H 39.1105 5.43124 0.794221 0
M  V30 367 H 39.3715 4.02915 1.81966 0
M  V30 368 N 38.4306 0.297415 1.54768 0
M  V30 369 C 39.3776 -0.580276 2.23386 0
M  V30 370 C 40.3476 -1.13238 1.21517 0
M  V30 371 O 41.5326 -1.17757 1.50126 0
M  V30 372 C 38.6726 -1.74801 2.97555 0
M  V30 373 C 37.7856 -1.22764 4.1419 0
M  V30 374 C 36.9206 -2.35895 4.75949 0
M  V30 375 C 35.9596 -1.80974 5.84735 0
M  V30 376 N 35.0966 -2.87664 6.40464 0
M  V30 377 H 39.9366 0.0114833 2.97998 0
M  V30 378 H 37.4736 0.0174361 1.4709 0
M  V30 379 H 39.4316 -2.43475 3.38786 0
M  V30 380 H 38.0616 -2.31145 2.25326 0
M  V30 381 H 37.1136 -0.433271 3.77924 0
M  V30 382 H 38.4256 -0.785551 4.92575 0
M  V30 383 H 37.5796 -3.12523 5.20014 0
M  V30 384 H 36.3186 -2.83429 3.96887 0
M  V30 385 H 35.3236 -1.02834 5.40097 0
M  V30 386 H 36.5486 -1.34348 6.65678 0
M  V30 387 H 34.4946 -3.34538 5.64287 0
M  V30 388 H 34.4116 -2.4794 7.14186 0
M  V30 389 H 35.6796 -3.642 6.89187 0
M  V30 390 N 39.9087 -1.5758 0.0250728 0
M  V30 391 C 41.1547 -1.91917 -0.655413 0
M  V30 392 C 41.4877 -0.901433 -1.72011 0
M  V30 393 O 40.7627 0.0764069 -1.9435 0
M  V30 394 C 41.0457 -3.36751 -1.27558 0
M  V30 395 C 40.8987 -4.49258 -0.220719 0
M  V30 396 C 42.2177 -3.81469 -2.19475 0
M  V30 397 H 39.3367 -0.697925 -0.23679 0
M  V30 398 H 41.9787 -1.89825 0.0815036 0
M  V30 399 H 40.1287 -3.38664 -1.90365 0
M  V30 400 H 41.8007 -4.59478 0.409601 0
M  V30 401 H 40.0437 -4.31415 0.454264 0
M  V30 402 H 40.7147 -5.47618 -0.694175 0
M  V30 403 H 43.1907 -3.81266 -1.66659 0
M  V30 404 H 42.0667 -4.83512 -2.59822 0
M  V30 405 H 42.3277 -3.16744 -3.08424 0
M  V30 406 N 41.3868 0.248026 -1.55636 0
M  V30 407 C 42.3498 1.29044 -1.89421 0
M  V30 408 C 43.3498 1.41134 -0.770581 0
M  V30 409 O 44.5398 1.39854 -1.03858 0
M  V30 410 C 41.6718 2.66831 -2.12165 0
M  V30 411 H 42.8648 1.00305 -2.82629 0
M  V30 412 H 40.4178 0.487265 -1.48511 0
M  V30 413 H 41.1528 3.00711 -1.21422 0
M  V30 414 H 40.9378 2.59438 -2.93997 0
M  V30 415 H 42.4278 3.42103 -2.3949 0
M  V30 416 N 42.8649 1.48995 0.513639 0
M  V30 417 C 44.1109 1.58076 1.27042 0
M  V30 418 C 44.4439 0.261026 1.92438 0
M  V30 419 O 43.7189 -0.734393 1.80103 0
M  V30 420 C 44.0019 2.73091 2.34719 0
M  V30 421 C 43.8549 4.14821 1.73907 0
M  V30 422 C 45.1739 2.83796 3.36375 0
M  V30 423 H 42.2929 0.575391 0.460536 0
M  V30 424 H 44.9349 1.81232 0.570516 0
M  V30 425 H 43.0849 2.53479 2.94416 0
M  V30 426 H 44.7569 4.45917 1.18135 0
M  V30 427 H 42.9999 4.21058 1.0437 0
M  V30 428 H 43.6709 4.91147 2.51949 0
M  V30 429 H 46.1469 3.01611 2.86653 0
M  V30 430 H 45.0229 3.65971 4.09093 0
M  V30 431 H 45.2839 1.92624 3.9793 0
M  V30 432 N 44.343 -0.763751 1.37857 0
M  V30 433 C 45.273 -1.89103 1.36975 0
M  V30 434 C 46.254 -1.68439 0.237152 0
M  V30 435 O 47.439 -1.8918 0.438713 0
M  V30 436 C 44.569 -3.26496 1.18395 0
M  V30 437 C 43.523 -3.61741 2.28751 0
M  V30 438 C 42.849 -4.97762 1.95286 0
M  V30 439 C 44.149 -3.67665 3.70972 0
M  V30 440 H 45.843 -1.90099 2.31307 0
M  V30 441 H 43.389 -0.91319 1.11341 0
M  V30 442 H 45.342 -4.05003 1.16406 0
M  V30 443 H 44.066 -3.25955 0.205215 0
M  V30 444 H 42.725 -2.85547 2.29909 0
M  V30 445 H 42.373 -4.93769 0.959221 0
M  V30 446 H 42.073 -5.22313 2.69189 0
M  V30 447 H 43.597 -5.7866 1.94898 0
M  V30 448 H 45.011 -4.36307 3.719 0
M  V30 449 H 43.408 -4.03718 4.43995 0
M  V30 450 H 44.478 -2.68134 4.0402 0
M  V30 451 N 45.8211 -1.22559 -0.990812 0
M  V30 452 C 47.0981 -0.959875 -1.70428 0
M  V30 453 C 47.4781 0.524455 -2.04481 0
M  V30 454 O 46.8261 1.49302 -1.72977 0
M  V30 455 C 47.0361 -1.85955 -2.95333 0
M  V30 456 C 48.3841 -2.11687 -3.68068 0
M  V30 457 O 49.4081 -1.8342 -3.05345 0
M  V30 458 O 48.2671 -2.59572 -4.80921 0
M  V30 459 H 45.3611 -0.361154 -0.743974 0
M  V30 460 H 47.9071 -1.33554 -1.04697 0
M  V30 461 H 46.6791 -2.86346 -2.66687 0
M  V30 462 H 46.3021 -1.4856 -3.68803 0
M  V30 463 N 47.2992 1.18797 -1.03562 0
M  V30 464 C 48.5272 1.92599 -0.755869 0
M  V30 465 C 48.9422 1.75886 0.686271 0
M  V30 466 O 48.2992 1.08517 1.46732 0
M  V30 467 C 48.3502 3.44159 -1.10619 0
M  V30 468 O 48.0712 3.60341 -2.4917 0
M  V30 469 C 49.5722 4.3507 -0.850214 0
M  V30 470 H 46.7922 0.611587 -0.276048 0
M  V30 471 H 49.3362 1.50742 -1.38192 0
M  V30 472 H 47.4912 3.83823 -0.525194 0
M  V30 473 H 47.9052 4.54128 -2.62427 0
M  V30 474 H 49.3792 5.39989 -1.14523 0
M  V30 475 H 49.8562 4.38673 0.215176 0
M  V30 476 H 50.4622 4.01097 -1.41426 0
M  V30 477 N 48.7773 0.814389 1.34928 0
M  V30 478 C 50.0253 0.397636 1.9815 0
M  V30 479 C 50.3463 -1.04069 1.64908 0
M  V30 480 O 49.6163 -1.72121 0.93548 0
M  V30 481 H 48.1963 0.144043 0.732981 0
M  V30 482 H 50.8583 1.04195 1.6471 0
M  V30 483 H 49.9543 0.509688 3.0791 0
M  V30 484 N 50.2554 -1.46986 0.568584 0
M  V30 485 C 51.5044 -2.01646 0.0465894 0
M  V30 486 C 51.8174 -1.44721 -1.31587 0
M  V30 487 O 53.0234 -1.91113 -1.92842 0
M  V30 488 C 51.4794 -3.59885 0.032752 0
M  V30 489 C 51.0874 -4.25804 1.39266 0
M  V30 490 C 52.8314 -4.22255 -0.436038 0
M  V30 491 C 50.7384 -5.76081 1.33732 0
M  V30 492 H 49.6684 -0.753876 0.013647 0
M  V30 493 H 52.3194 -1.68864 0.718131 0
M  V30 494 H 50.7014 -3.8968 -0.704669 0
M  V30 495 H 51.8754 -4.07637 2.1487 0
M  V30 496 H 50.1904 -3.7547 1.80032 0
M  V30 497 H 52.7874 -5.32394 -0.49602 0
M  V30 498 H 53.1304 -3.90212 -1.45053 0
M  V30 499 H 53.6634 -3.97033 0.246877 0
M  V30 500 H 50.4024 -6.12761 2.32817 0
M  V30 501 H 49.9224 -5.96553 0.623267 0
M  V30 502 H 51.6014 -6.38518 1.0442 0
M  V30 503 N 51.7335 -0.305618 -1.54608 0
M  V30 504 C 52.9585 0.307562 -2.05107 0
M  V30 505 C 53.3835 1.46385 -1.18123 0
M  V30 506 O 52.7415 1.8034 -0.186324 0
M  V30 507 C 52.7895 0.73704 -3.52987 0
M  V30 508 O 51.8935 1.84134 -3.6901 0
M  V30 509 H 51.2345 0.0589143 -0.661381 0
M  V30 510 H 53.7645 -0.448807 -1.99617 0
M  V30 511 H 53.7745 1.02459 -3.94925 0
M  V30 512 H 52.4495 -0.108773 -4.15758 0
M  V30 513 H 51.0265 1.55398 -3.38978 0
M  V30 514 N 53.2116 1.57565 -0.0334293 0
M  V30 515 C 54.4396 1.9628 0.654347 0
M  V30 516 C 54.8546 0.910138 1.65414 0
M  V30 517 O 54.2116 -0.107595 1.82183 0
M  V30 518 C 54.2626 3.35067 1.35693 0
M  V30 519 O 53.9836 4.36296 0.397191 0
M  V30 520 C 55.4846 3.88439 2.13613 0
M  V30 521 H 52.7046 0.646369 0.180132 0
M  V30 522 H 55.2486 2.04282 -0.0944721 0
M  V30 523 H 53.4036 3.2827 2.05712 0
M  V30 524 H 53.8176 5.1678 0.896597 0
M  V30 525 H 55.2916 4.8788 2.58219 0
M  V30 526 H 55.7686 3.22914 2.97696 0
M  V30 527 H 56.3746 3.98516 1.48543 0
M  V30 528 N 54.6897 -0.239769 1.55765 0
M  V30 529 C 55.6397 -1.30002 1.87306 0
M  V30 530 C 56.6237 -1.43156 0.73452 0
M  V30 531 O 57.8157 -1.46277 0.99659 0
M  V30 532 C 54.9447 -2.65409 2.17745 0
M  V30 533 C 54.0307 -2.56231 3.37945 0
M  V30 534 N 54.4217 -2.16689 4.57033 0
M  V30 535 C 52.7197 -2.87229 3.41197 0
M  V30 536 C 53.4207 -2.18318 5.39177 0
M  V30 537 N 52.3967 -2.58098 4.78421 0
M  V30 538 H 56.1987 -0.984912 2.76906 0
M  V30 539 H 53.7127 -0.448381 1.56087 0
M  V30 540 H 55.7097 -3.41934 2.38509 0
M  V30 541 H 54.3697 -2.97781 1.29448 0
M  V30 542 H 55.3807 -1.88116 4.82528 0
M  V30 543 H 52.0577 -3.24094 2.63191 0
M  V30 544 H 53.4477 -1.90025 6.44469 0
M  V30 545 N 56.1678 -1.49265 -0.50573 0
M  V30 546 C 57.5788 -1.51769 -1.08734 0
M  V30 547 C 57.9298 -0.301192 -1.93874 0
M  V30 548 O 57.0548 0.589456 -2.08217 0
M  V30 549 C 57.6498 -2.75017 -1.97867 0
M  V30 550 C 56.2088 -2.80314 -2.51199 0
M  V30 551 C 55.3558 -2.4562 -1.28709 0
M  V30 552 H 58.3068 -1.56031 -0.289855 0
M  V30 553 H 58.3278 -2.5491 -2.82491 0
M  V30 554 H 57.8398 -3.63539 -1.35873 0
M  V30 555 H 55.9408 -1.96061 -3.16845 0
M  V30 556 H 56.0538 -3.82366 -2.88675 0
M  V30 557 H 54.4178 -1.97297 -1.61078 0
M  V30 558 H 55.2008 -3.36411 -0.6843 0
M  V30 559 N 57.6459 0.756429 -1.3826 0
M  V30 560 C 58.9229 1.50584 -1.24835 0
M  V30 561 C 59.3029 2.10556 0.151485 0
M  V30 562 O 58.6509 1.96825 1.1607 0
M  V30 563 C 58.8609 2.57448 -2.3563 0
M  V30 564 C 60.2089 3.24429 -2.73917 0
M  V30 565 O 61.2329 2.67751 -2.34921 0
M  V30 566 O 60.0919 4.26937 -3.41156 0
M  V30 567 H 57.1859 0.667664 -0.48801 0
M  V30 568 H 59.7319 0.792083 -1.5008 0
M  V30 569 H 58.5039 2.11362 -3.29305 0
M  V30 570 H 58.1269 3.36408 -2.11933 0
M  V30 571 N 59.124 1.23083 0.984299 0
M  V30 572 C 60.054 1.03292 2.09411 0
M  V30 573 C 61.035 -0.048923 1.7003 0
M  V30 574 O 62.22 0.114967 1.93859 0
M  V30 575 C 59.35 0.619155 3.41736 0
M  V30 576 C 58.304 1.64791 3.95004 0
M  V30 577 C 57.63 1.0897 5.23478 0
M  V30 578 C 58.93 3.03999 4.24714 0
M  V30 579 H 60.624 1.96119 2.26225 0
M  V30 580 H 58.17 0.944344 1.08711 0
M  V30 581 H 60.123 0.467777 4.18796 0
M  V30 582 H 58.847 -0.344786 3.24775 0
M  V30 583 H 57.506 1.78721 3.20085 0
M  V30 584 H 57.154 0.11686 5.02864 0
M  V30 585 H 56.854 1.77704 5.60085 0
M  V30 586 H 58.378 0.950093 6.03163 0
M  V30 587 H 59.792 2.93393 4.92538 0
M  V30 588 H 58.189 3.69936 4.72512 0
M  V30 589 H 59.259 3.53285 3.32142 0
M  V30 590 N 60.6021 -1.18246 1.0419 0
M  V30 591 C 61.5501 -2.23968 0.627792 0
M  V30 592 C 62.5441 -1.65828 -0.346019 0
M  V30 593 O 63.7501 -1.78733 -0.213175 0
M  V30 594 H 60.1251 -0.728939 0.184802 0
M  V30 595 H 62.0961 -2.56202 1.52981 0
M  V30 596 C 60.8451 -3.47699 0.00796591 0
M  V30 597 H 60.1681 -3.92734 0.748347 0
M  V30 598 H 61.6081 -4.23294 -0.24455 0
M  V30 599 C 60.0671 -3.13153 -1.24246 0
M  V30 600 O 60.5971 -3.27003 -2.33307 0
M  V30 601 N 58.8031 -2.67467 -1.13622 0
M  V30 602 H 58.3501 -2.56396 -0.248734 0
M  V30 603 H 58.3081 -2.44724 -1.97377 0
M  V30 604 N 62.0802 -0.821533 -1.34494 0
M  V30 605 C 63.3292 -0.405355 -1.97585 0
M  V30 606 C 63.6422 1.03677 -1.65863 0
M  V30 607 O 64.8482 1.55679 -2.22433 0
M  V30 608 C 63.3042 -0.673861 -3.53535 0
M  V30 609 C 62.9122 -2.12951 -3.94152 0
M  V30 610 C 64.6562 -0.32378 -4.23263 0
M  V30 611 C 62.5632 -2.34298 -5.43009 0
M  V30 612 H 61.4932 -0.147836 -0.739365 0
M  V30 613 H 64.1442 -1.00769 -1.53355 0
M  V30 614 H 62.5262 -0.00137554 -3.96 0
M  V30 615 H 63.7002 -2.84104 -3.62797 0
M  V30 616 H 62.0152 -2.44089 -3.37356 0
M  V30 617 H 64.6122 -0.461126 -5.32708 0
M  V30 618 H 64.9552 0.731586 -4.09821 0
M  V30 619 H 65.4882 -0.950786 -3.8627 0
M  V30 620 H 62.2272 -3.38335 -5.61435 0
M  V30 621 H 61.7472 -1.67687 -5.75883 0
M  V30 622 H 63.4262 -2.16588 -6.09671 0
M  V30 623 N 63.5583 1.46682 -0.576371 0
M  V30 624 C 64.9743 1.57822 -0.237562 0
M  V30 625 C 65.1743 1.57237 1.26011 0
M  V30 626 O 64.2303 1.48596 2.04146 0
M  V30 627 C 65.5433 2.87499 -0.881168 0
M  V30 628 C 67.0913 3.01119 -0.85417 0
M  V30 629 C 67.5663 4.33524 -1.4772 0
M  V30 630 N 69.0573 4.40207 -1.44125 0
M  V30 631 C 69.7923 5.4126 -1.89276 0
M  V30 632 N 69.2883 6.49021 -2.42371 0
M  V30 633 N 71.0813 5.32422 -1.80231 0
M  V30 634 H 63.2323 1.45306 -1.54919 0
M  V30 635 H 65.4953 0.692733 -0.647167 0
M  V30 636 H 65.2013 2.9372 -1.93447 0
M  V30 637 H 65.0753 3.75224 -0.385592 0
M  V30 638 H 67.4623 2.94485 0.190491 0
M  V30 639 H 67.5433 2.14887 -1.3877 0
M  V30 640 H 67.1873 4.40916 -2.52103 0
M  V30 641 H 67.1173 5.1852 -0.918947 0
M  V30 642 H 69.6083 3.62931 -1.05307 0
M  V30 643 H 69.9213 7.2233 -2.74698 0
M  V30 644 H 68.2663 6.49858 -2.46393 0
M  V30 645 H 71.4573 4.47137 -1.38514 0
M  V30 646 H 71.6303 6.11034 -2.15735 0
M  V30 647 N 65.0364 0.313813 1.54444 0
M  V30 648 C 66.2844 -0.291099 1.99993 0
M  V30 649 C 66.6054 -1.53418 1.20366 0
M  V30 650 O 65.8754 -1.93544 0.302927 0
M  V30 651 H 64.4554 -0.110552 0.738774 0
M  V30 652 H 67.1174 0.428106 1.9014 0
M  V30 653 H 66.2134 -0.554268 3.07139 0
M  V30 654 N 66.5145 -1.57545 0.0417849 0
M  V30 655 C 67.7625 -1.91937 -0.632829 0
M  V30 656 C 68.0835 -0.919978 -1.71934 0
M  V30 657 O 67.3535 0.0366064 -1.95866 0
M  V30 658 H 65.9335 -0.708493 -0.236742 0
M  V30 659 H 68.5955 -1.9468 0.0925745 0
M  V30 660 H 67.6915 -2.92912 -1.07746 0
M  V30 661 N 67.9926 0.231505 -1.5589 0
M  V30 662 C 68.9556 1.27028 -1.90779 0
M  V30 663 C 69.9556 1.40308 -0.785507 0
M  V30 664 O 71.1456 1.38744 -1.05336 0
M  V30 665 C 68.2776 2.64566 -2.14983 0
M  V30 666 H 69.4706 0.973017 -2.83677 0
M  V30 667 H 67.0236 0.471486 -1.49019 0
M  V30 668 H 67.7586 2.99406 -1.24604 0
M  V30 669 H 67.5436 2.56305 -2.96732 0
M  V30 670 H 69.0336 3.39543 -2.43105 0
M  V30 671 N 69.4707 1.49531 0.497807 0
M  V30 672 C 70.6957 1.63159 1.28039 0
M  V30 673 C 71.1207 0.30418 1.85624 0
M  V30 674 O 70.4787 -0.728618 1.66015 0
M  V30 675 C 70.5267 2.70537 2.38416 0
M  V30 676 O 69.6307 2.29931 3.42353 0
M  V30 677 H 68.9717 0.546001 0.377861 0
M  V30 678 H 71.5017 1.9574 0.59558 0
M  V30 679 H 71.5117 2.92802 2.84132 0
M  V30 680 H 70.1867 3.6689 1.95869 0
M  V30 681 H 68.7637 2.18009 3.02533 0
M  V30 682 N 70.9488 -0.749086 1.3866 0
M  V30 683 C 72.1958 -1.50833 1.35114 0
M  V30 684 C 72.5238 -1.94415 -0.0574049 0
M  V30 685 O 71.7788 -1.66065 -1.03541 0
M  V30 686 C 72.0778 -2.7712 2.25697 0
M  V30 687 C 71.7438 -2.52477 3.73585 0
M  V30 688 C 70.4058 -2.45466 4.13884 0
M  V30 689 C 72.7578 -2.31066 4.67181 0
M  V30 690 C 70.0858 -2.15064 5.45861 0
M  V30 691 C 72.4378 -2.02183 5.9942 0
M  V30 692 C 71.1018 -1.93631 6.38798 0
M  V30 693 H 70.3718 -0.551936 0.494416 0
M  V30 694 H 73.0188 -0.860979 1.71054 0
M  V30 695 H 71.3238 -3.46528 1.82827 0
M  V30 696 H 73.0208 -3.35096 2.20254 0
M  V30 697 H 69.6108 -2.58807 3.41638 0
M  V30 698 H 73.7948 -2.35459 4.3689 0
M  V30 699 H 69.0508 -2.06954 5.75308 0
M  V30 700 H 73.2248 -1.8462 6.71482 0
M  V30 701 H 70.8518 -1.69839 7.40985 0
M  V30 702 N 72.4269 -1.23603 -0.977757 0
M  V30 703 C 73.6729 -1.07129 -1.72195 0
M  V30 704 C 74.0059 0.390501 -1.90233 0
M  V30 705 O 73.2809 1.28902 -1.45653 0
M  V30 706 C 73.5639 -1.80031 -3.11867 0
M  V30 707 C 73.4169 -3.33899 -3.01383 0
M  V30 708 C 74.7359 -1.56492 -4.11337 0
M  V30 709 H 71.8549 -0.390571 -0.624999 0
M  V30 710 H 74.4969 -1.52142 -1.13811 0
M  V30 711 H 72.6469 -1.41768 -3.6171 0
M  V30 712 H 74.3189 -3.81699 -2.59043 0
M  V30 713 H 72.5619 -3.62796 -2.37827 0
M  V30 714 H 73.2329 -3.801 -4.00285 0
M  V30 715 H 75.7089 -1.89757 -3.70313 0
M  V30 716 H 74.5849 -2.09973 -5.07151 0
M  V30 717 H 74.8459 -0.500874 -4.39254 0
M  V30 718 N 73.905 1.17692 -1.04816 0
M  V30 719 C 75.316 1.69501 -0.782698 0
M  V30 720 C 75.667 1.83456 0.695577 0
M  V30 721 O 74.792 1.51942 1.54086 0
M  V30 722 C 75.387 3.07874 -1.41419 0
M  V30 723 C 73.946 3.56864 -1.19686 0
M  V30 724 C 73.093 2.3322 -1.50012 0
M  V30 725 H 76.044 1.02262 -1.2136 0
M  V30 726 H 76.065 3.71528 -0.821428 0
M  V30 727 H 75.577 2.97685 -2.49009 0
M  V30 728 H 73.678 3.72337 -0.140043 0
M  V30 729 H 73.791 4.39851 -1.89916 0
M  V30 730 H 72.155 2.37501 -0.920071 0
M  V30 731 H 72.938 2.25644 -2.58727 0
M  V30 732 N 75.3831 0.828654 1.34056 0
M  V30 733 C 76.6311 0.41863 1.97717 0
M  V30 734 C 76.9521 -1.02314 1.66002 0
M  V30 735 O 76.2221 -1.71119 0.953683 0
M  V30 736 H 74.8021 0.151809 0.731412 0
M  V30 737 H 77.4641 1.05936 1.63596 0
M  V30 738 H 76.5601 0.542318 3.07352 0
M  V30 739 N 76.8612 -1.46375 0.584142 0
M  V30 740 C 77.7712 -2.34115 -0.150728 0
M  V30 741 C 78.7872 -1.49838 -0.884567 0
M  V30 742 O 79.9632 -1.82704 -0.847429 0
M  V30 743 C 77.0282 -3.2705 -1.15062 0
M  V30 744 C 76.0892 -4.27228 -0.421293 0
M  V30 745 C 75.3222 -5.15722 -1.37355 0
M  V30 746 O 75.5452 -5.07176 -2.61014 0
M  V30 747 O 74.4792 -5.95383 -0.883355 0
M  V30 748 H 78.3052 -2.98309 0.569708 0
M  V30 749 H 75.8902 -1.45373 0.344535 0
M  V30 750 H 77.7722 -3.84381 -1.72712 0
M  V30 751 H 76.4472 -2.65451 -1.8525 0
M  V30 752 H 75.3542 -3.7358 0.197085 0
M  V30 753 H 76.6872 -4.91616 0.239641 0
M  V30 754 N 78.3393 -0.321999 -1.54275 0
M  V30 755 C 79.7503 0.166384 -1.85957 0
M  V30 756 C 80.1013 1.51747 -1.24367 0
M  V30 757 O 79.2263 2.09317 -0.549124 0
M  V30 758 C 79.8213 0.308681 -3.37391 0
M  V30 759 C 78.3803 0.741286 -3.69028 0
M  V30 760 C 77.5273 -0.137937 -2.76957 0
M  V30 761 H 80.4783 -0.542335 -1.49146 0
M  V30 762 H 80.4993 1.13984 -3.63026 0
M  V30 763 H 80.0113 -0.674809 -3.82188 0
M  V30 764 H 78.1123 1.73458 -3.29762 0
M  V30 765 H 78.2253 0.546118 -4.75977 0
M  V30 766 H 76.5893 0.386251 -2.51754 0
M  V30 767 H 77.3723 -1.11816 -3.2458 0
M  V30 768 N 79.8174 1.5752 -0.0501392 0
M  V30 769 C 81.0424 1.97376 0.636997 0
M  V30 770 C 81.4674 0.927466 1.63645 0
M  V30 771 O 80.8254 -0.10941 1.8097 0
M  V30 772 C 80.8734 3.36304 1.30123 0
M  V30 773 O 79.9774 3.34156 2.41689 0
M  V30 774 H 79.3184 0.642998 0.165679 0
M  V30 775 H 81.8484 2.04258 -0.118233 0
M  V30 776 H 81.8584 3.73008 1.65315 0
M  V30 777 H 80.5334 4.11993 0.568746 0
M  V30 778 H 79.1104 3.09196 2.08451 0
M  V30 779 N 81.2955 -0.223234 1.56011 0
M  V30 780 C 82.5235 -0.964812 1.83027 0
M  V30 781 C 82.9385 -1.78013 0.62904 0
M  V30 782 O 82.2955 -1.78008 -0.402414 0
M  V30 783 C 82.3465 -1.88373 3.08542 0
M  V30 784 O 82.0675 -1.10137 4.2403 0
M  V30 785 C 83.5685 -2.73934 3.48533 0
M  V30 786 H 80.7885 -0.282842 0.608475 0
M  V30 787 H 83.3325 -0.238971 2.03099 0
M  V30 788 H 81.4875 -2.56354 2.9045 0
M  V30 789 H 81.9015 -1.72501 4.95322 0
M  V30 790 H 83.3755 -3.34117 4.39397 0
M  V30 791 H 83.8525 -3.46244 2.70207 0
M  V30 792 H 84.4585 -2.11369 3.69057 0
M  V30 793 N 82.7736 -1.49793 -0.48987 0
M  V30 794 C 83.7056 -1.63413 -1.60713 0
M  V30 795 C 84.7186 -0.516329 -1.54395 0
M  V30 796 O 85.9076 -0.788812 -1.60125 0
M  V30 797 C 83.0076 -1.58516 -2.99543 0
M  V30 798 C 82.1806 -2.86016 -3.30928 0
M  V30 799 C 81.2396 -2.74018 -4.49222 0
M  V30 800 O 80.2656 -3.47964 -4.50455 0
M  V30 801 N 81.4676 -1.86309 -5.4979 0
M  V30 802 H 84.2326 -2.59777 -1.49452 0
M  V30 803 H 81.7936 -1.47022 -0.677955 0
M  V30 804 H 83.7856 -1.48128 -3.76617 0
M  V30 805 H 82.3556 -0.69965 -3.0467 0
M  V30 806 H 81.5756 -3.10672 -2.42645 0
M  V30 807 H 82.8636 -3.70521 -3.487 0
M  V30 808 H 82.2616 -1.2551 -5.51601 0
M  V30 809 H 80.8186 -1.81837 -6.25922 0
M  V30 810 N 84.2517 0.741722 -1.39055 0
M  V30 811 C 85.5287 1.49252 -1.26425 0
M  V30 812 C 85.9087 2.10705 0.129144 0
M  V30 813 O 85.2567 1.98045 1.13976 0
M  V30 814 C 85.4667 2.54934 -2.38347 0
M  V30 815 C 86.8147 3.21506 -2.77343 0
M  V30 816 O 87.8387 2.65245 -2.37747 0
M  V30 817 O 86.6977 4.23294 -3.45665 0
M  V30 818 H 83.7917 0.662451 -0.495064 0
M  V30 819 H 86.3377 0.776121 -1.50912 0
M  V30 820 H 85.1097 2.07857 -3.31529 0
M  V30 821 H 84.7327 3.34141 -2.15489 0
M  V30 822 N 85.7298 1.2412 0.971189 0
M  V30 823 C 86.9778 1.07668 1.71032 0
M  V30 824 C 87.2988 -0.385797 1.91146 0
M  V30 825 O 86.5688 -1.27569 1.4867 0
M  V30 826 H 85.1488 0.395429 0.633755 0
M  V30 827 H 87.8108 1.55984 1.16855 0
M  V30 828 H 86.9068 1.57195 2.69622 0
M  V30 829 N 87.2079 -1.17134 1.05439 0
M  V30 830 C 88.1559 -2.23289 0.651511 0
M  V30 831 C 89.1499 -1.66186 -0.328411 0
M  V30 832 O 90.3559 -1.78949 -0.194206 0
M  V30 833 H 86.7309 -0.726938 0.192523 0
M  V30 834 H 88.7019 -2.54565 1.55689 0
M  V30 835 C 87.4509 -3.47671 0.0448436 0
M  V30 836 H 86.7739 -3.91918 0.78996 0
M  V30 837 H 88.2139 -4.2353 -0.19964 0
M  V30 838 C 86.6729 -3.14453 -1.20918 0
M  V30 839 O 87.2029 -3.29459 -2.29825 0
M  V30 840 N 85.4089 -2.68657 -1.10779 0
M  V30 841 H 84.9559 -2.56646 -0.221526 0
M  V30 842 H 84.9139 -2.46804 -1.9477 0
M  V30 843 N 88.686 -0.835752 -1.33615 0
M  V30 844 C 89.934 -0.429109 -1.97492 0
M  V30 845 C 90.255 1.01433 -1.66543 0
M  V30 846 O 89.525 1.70611 -0.962744 0
M  V30 847 H 88.105 -0.155686 -0.730596 0
M  V30 848 H 90.767 -1.06802 -1.63031 0
M  V30 849 H 89.863 -0.55861 -3.0706 0
M  V30 850 N 90.1641 1.46063 -0.591896 0
M  V30 851 C 91.1141 2.27458 0.157172 0
M  V30 852 C 92.0981 1.3641 0.853301 0
M  V30 853 O 93.2901 1.60517 0.74588 0
M  V30 854 C 90.4191 3.22956 1.16423 0
M  V30 855 C 89.5051 4.2149 0.469742 0
M  V30 856 N 89.8961 5.03519 -0.479839 0
M  V30 857 C 88.1941 4.40161 0.719319 0
M  V30 858 C 88.8951 5.74904 -0.886591 0
M  V30 859 N 87.8711 5.43097 -0.233731 0
M  V30 860 H 91.6731 2.88272 -0.572392 0
M  V30 861 H 89.1871 1.57024 -0.414375 0
M  V30 862 H 91.1841 3.79986 1.71513 0
M  V30 863 H 89.8441 2.63701 1.89451 0
M  V30 864 H 90.8551 5.1078 -0.855823 0
M  V30 865 H 87.5321 3.92046 1.43548 0
M  V30 866 H 88.9221 6.50844 -1.66888 0
M  V30 867 N 91.6422 0.330177 1.54103 0
M  V30 868 C 92.8902 -0.269871 2.0029 0
M  V30 869 C 93.2112 -1.52133 1.21986 0
M  V30 870 O 92.4812 -1.93212 0.323438 0
M  V30 871 H 91.0612 -0.10271 0.739905 0
M  V30 872 H 93.7232 0.448249 1.89675 0
M  V30 873 H 92.8192 -0.52166 3.07709 0
M  V30 874 N 93.1203 -1.57491 0.0584922 0
M  V30 875 C 94.3483 -1.97296 -0.623037 0
M  V30 876 C 94.7633 -0.936338 -1.63946 0
M  V30 877 O 94.1203 0.0785981 -1.82331 0
M  V30 878 C 94.1713 -3.37183 -1.30345 0
M  V30 879 O 93.8923 -4.36872 -0.32773 0
M  V30 880 C 95.3933 -3.91788 -2.07406 0
M  V30 881 H 92.6133 -0.649153 -0.169826 0
M  V30 882 H 95.1573 -2.04106 0.12696 0
M  V30 883 H 93.3123 -3.31502 -2.00463 0
M  V30 884 H 93.7263 -5.18141 -0.814269 0
M  V30 885 H 95.2003 -4.91926 -2.50425 0
M  V30 886 H 95.6773 -3.27609 -2.92521 0
M  V30 887 H 96.2833 -4.00829 -1.42184 0
M  V30 888 N 94.5984 0.214957 -1.56127 0
M  V30 889 C 95.5484 1.27006 -1.8935 0
M  V30 890 C 96.5324 1.41969 -0.757202 0
M  V30 891 O 97.7244 1.44673 -1.01973 0
M  V30 892 C 94.8534 2.61911 -2.2194 0
M  V30 893 C 93.9394 2.50822 -3.41978 0
M  V30 894 N 94.3304 2.09391 -4.60423 0
M  V30 895 C 92.6284 2.81765 -3.45723 0
M  V30 896 C 93.3294 2.09712 -5.42582 0
M  V30 897 N 92.3054 2.50454 -4.82466 0
M  V30 898 H 96.1074 0.940734 -2.78437 0
M  V30 899 H 93.6214 0.423492 -1.56781 0
M  V30 900 H 95.6184 3.38096 -2.43919 0
M  V30 901 H 94.2784 2.95684 -1.34169 0
M  V30 902 H 95.2894 1.80416 -4.85459 0
M  V30 903 H 91.9664 3.19865 -2.68314 0
M  V30 904 H 93.3564 1.79748 -6.4741 0
M  V30 905 N 96.0765 1.50051 0.48192 0
M  V30 906 C 97.3225 1.60736 1.2366 0
M  V30 907 C 97.6555 0.301786 1.91841 0
M  V30 908 O 96.9305 -0.696025 1.8162 0
M  V30 909 C 97.2135 2.78009 2.28874 0
M  V30 910 C 97.0665 4.18416 1.65069 0
M  V30 911 C 98.3855 2.90867 3.30279 0
M  V30 912 H 95.5045 0.585031 0.448228 0
M  V30 913 H 98.1465 1.82402 0.531946 0
M  V30 914 H 96.2965 2.59667 2.88973 0
M  V30 915 H 97.9685 4.48322 1.0865 0
M  V30 916 H 96.2115 4.23177 0.954148 0
M  V30 917 H 96.8825 4.96381 2.41474 0
M  V30 918 H 99.3585 3.07623 2.80191 0
M  V30 919 H 98.2345 3.74566 4.01238 0
M  V30 920 H 98.4955 2.01021 3.93755 0
M  V30 921 N 97.5546 -0.734337 1.39446 0
M  V30 922 C 98.5176 -1.83004 1.37994 0
M  V30 923 C 99.5176 -1.58397 0.276938 0
M  V30 924 O 100.708 -1.65785 0.534875 0
M  V30 925 C 97.8396 -3.20802 1.1532 0
M  V30 926 H 99.0326 -1.85694 2.35494 0
M  V30 927 H 96.5856 -0.938059 1.25021 0
M  V30 928 H 97.3206 -3.23772 0.185036 0
M  V30 929 H 97.1056 -3.4006 1.95197 0
M  V30 930 H 98.5956 -4.00862 1.17046 0
M  V30 931 N 99.0327 -1.24633 -0.964593 0
M  V30 932 C 100.281 -1.08573 -1.70459 0
M  V30 933 C 100.602 0.375655 -1.91347 0
M  V30 934 O 99.8717 1.26779 -1.49345 0
M  V30 935 H 98.4517 -0.398784 -0.631649 0
M  V30 936 H 101.114 -1.56601 -1.16026 0
M  V30 937 H 100.21 -1.58623 -2.68785 0
M  V30 938 N 100.511 1.16574 -1.06058 0
M  V30 939 C 101.739 1.90952 -0.796552 0
M  V30 940 C 102.154 1.77302 0.648808 0
M  V30 941 O 101.511 1.11605 1.44397 0
M  V30 942 C 101.562 3.41736 -1.17894 0
M  V30 943 O 101.283 3.54975 -2.56758 0
M  V30 944 C 102.784 4.33169 -0.942308 0
M  V30 945 H 100.004 0.605594 -0.288959 0
M  V30 946 H 102.548 1.47777 -1.41358 0
M  V30 947 H 100.703 3.82623 -0.606491 0
M  V30 948 H 101.117 4.4846 -2.72 0
M  V30 949 H 102.591 5.37439 -1.25952 0
M  V30 950 H 103.068 4.3903 0.122078 0
M  V30 951 H 103.674 3.98007 -1.49902 0
M  V30 952 N 101.989 0.842826 1.3317 0
M  V30 953 C 103.238 0.436738 1.96915 0
M  V30 954 C 103.551 -1.01025 1.67491 0
M  V30 955 O 104.757 -1.5212 2.24881 0
M  V30 956 C 103.213 0.730021 3.52418 0
M  V30 957 C 102.821 2.19195 3.90714 0
M  V30 958 C 104.565 0.391076 4.22695 0
M  V30 959 C 102.472 2.42907 5.39212 0
M  V30 960 H 101.402 0.15958 0.736919 0
M  V30 961 H 104.053 1.03196 1.51733 0
M  V30 962 H 102.435 0.0643755 3.95948 0
M  V30 963 H 103.609 2.8984 3.58231 0
M  V30 964 H 101.924 2.49425 3.33431 0
M  V30 965 H 104.521 0.545817 5.31907 0
M  V30 966 H 104.864 -0.666294 4.10933 0
M  V30 967 H 105.397 1.01212 3.84709 0
M  V30 968 H 102.136 3.47224 5.55982 0
M  V30 969 H 101.656 1.76827 5.73142 0
M  V30 970 H 103.335 2.2626 6.06148 0
M  V30 971 N 103.467 -1.45747 0.599634 0
M  V30 972 C 104.43 -2.28917 -0.113835 0
M  V30 973 C 105.43 -1.3933 -0.802729 0
M  V30 974 O 106.62 -1.61534 -0.652103 0
M  V30 975 C 103.752 -3.20152 -1.17114 0
M  V30 976 H 104.945 -2.93478 0.617289 0
M  V30 977 H 102.498 -1.52137 0.358327 0
M  V30 978 H 103.233 -2.60374 -1.93329 0
M  V30 979 H 103.018 -3.86133 -0.681468 0
M  V30 980 H 104.508 -3.82708 -1.67105 0
M  V30 981 N 104.945 -0.338344 -1.53925 0
M  V30 982 C 105.908 0.508299 -2.23493 0
M  V30 983 C 106.908 1.03175 -1.23335 0
M  V30 984 O 108.098 0.921826 -1.47811 0
M  V30 985 C 105.23 1.70754 -2.95052 0
M  V30 986 H 106.423 -0.100058 -2.99733 0
M  V30 987 H 103.976 -0.0896198 -1.56043 0
M  V30 988 H 104.711 2.35474 -2.22986 0
M  V30 989 H 104.496 1.33946 -3.68512 0
M  V30 990 H 105.986 2.30818 -3.48013 0
M  V30 991 N 106.423 1.57458 -0.0668435 0
M  V30 992 C 107.353 2.15468 0.899764 0
M  V30 993 C 108.334 1.08042 1.31381 0
M  V30 994 O 109.519 1.36054 1.38574 0
M  V30 995 C 106.649 2.71232 2.16911 0
M  V30 996 C 105.603 3.83781 1.89463 0
M  V30 997 C 104.929 4.26127 3.22986 0
M  V30 998 C 106.229 5.08238 1.20381 0
M  V30 999 H 107.923 2.96488 0.416529 0
M  V30 1000 H 105.469 1.4262 0.198908 0
M  V30 1001 H 107.422 3.10458 2.84945 0
M  V30 1002 H 106.146 1.87426 2.67468 0
M  V30 1003 H 104.805 3.45051 1.23836 0
M  V30 1004 H 104.453 3.39249 3.71374 0
M  V30 1005 H 104.153 5.01993 3.05413 0
M  V30 1006 H 105.677 4.67966 3.92225 0
M  V30 1007 H 107.091 5.44811 1.78475 0
M  V30 1008 H 105.488 5.89349 1.13083 0
M  V30 1009 H 106.558 4.84558 0.182153 0
M  V30 1010 N 107.901 -0.206675 1.56239 0
M  V30 1011 C 108.849 -1.27571 1.94495 0
M  V30 1012 C 109.843 -1.47737 0.828862 0
M  V30 1013 O 111.049 -1.48735 1.0138 0
M  V30 1014 H 107.424 -0.428029 0.6183 0
M  V30 1015 H 109.395 -0.925961 2.8367 0
M  V30 1016 C 108.144 -2.61568 2.29079 0
M  V30 1017 H 107.467 -2.46863 3.14482 0
M  V30 1018 H 108.907 -3.35144 2.5972 0
M  V30 1019 C 107.366 -3.17695 1.12123 0
M  V30 1020 O 107.896 -3.99801 0.390153 0
M  V30 1021 N 106.102 -2.76276 0.901097 0
M  V30 1022 H 105.649 -2.09613 1.49733 0
M  V30 1023 H 105.607 -3.1417 0.120319 0
M  V30 1024 N 109.379 -1.50304 -0.473955 0
M  V30 1025 C 110.327 -1.69482 -1.59307 0
M  V30 1026 C 111.321 -0.560669 -1.59853 0
M  V30 1027 O 112.527 -0.741087 -1.64036 0
M  V30 1028 H 108.902 -0.534892 -0.528578 0
M  V30 1029 H 110.873 -2.63364 -1.40293 0
M  V30 1030 C 109.622 -1.80354 -2.97267 0
M  V30 1031 H 108.945 -2.67012 -2.97564 0
M  V30 1032 H 110.385 -1.97798 -3.75036 0
M  V30 1033 C 108.844 -0.55448 -3.32306 0
M  V30 1034 O 109.374 0.307661 -4.0052 0
M  V30 1035 N 107.58 -0.409354 -2.87702 0
M  V30 1036 H 107.127 -1.11196 -2.32364 0
M  V30 1037 H 107.085 0.425223 -3.11511 0
M  V30 1038 N 110.857 0.726932 -1.39834 0
M  V30 1039 C 112.082 1.52121 -1.40976 0
M  V30 1040 C 112.507 1.88098 -0.00826029 0
M  V30 1041 O 111.865 1.52479 0.980807 0
M  V30 1042 C 111.913 2.78021 -2.29644 0
M  V30 1043 O 111.017 3.74272 -1.73188 0
M  V30 1044 H 110.358 0.45908 -0.479731 0
M  V30 1045 H 112.888 0.896207 -1.83927 0
M  V30 1046 H 112.898 3.26671 -2.44438 0
M  V30 1047 H 111.573 2.51169 -3.31492 0
M  V30 1048 H 110.15 3.33073 -1.6768 0
M  V30 1049 N 112.336 1.25143 0.95797 0
M  V30 1050 C 113.585 1.0909 1.69654 0
M  V30 1051 C 113.898 -0.368548 1.92097 0
M  V30 1052 O 115.104 -0.649455 2.63618 0
M  V30 1053 C 113.56 1.90395 3.05414 0
M  V30 1054 C 113.168 3.4081 2.90779 0
M  V30 1055 C 114.912 1.82901 3.83076 0
M  V30 1056 C 112.819 4.14423 4.21909 0
M  V30 1057 H 111.749 0.404625 0.636235 0
M  V30 1058 H 114.4 1.4931 1.06672 0
M  V30 1059 H 112.782 1.42996 3.69281 0
M  V30 1060 H 113.956 3.95859 2.35865 0
M  V30 1061 H 112.271 3.49361 2.26575 0
M  V30 1062 H 114.868 2.35196 4.80195 0
M  V30 1063 H 115.211 0.796224 4.08615 0
M  V30 1064 H 115.744 2.28033 3.25954 0
M  V30 1065 H 112.483 5.18102 4.01561 0
M  V30 1066 H 112.003 3.64159 4.76601 0
M  V30 1067 H 113.682 4.21956 4.90471 0
M  V30 1068 N 113.814 -1.1601 1.06675 0
M  V30 1069 C 115.062 -1.86264 0.784229 0
M  V30 1070 C 115.383 -1.82328 -0.691488 0
M  V30 1071 O 114.653 -1.25947 -1.50047 0
M  V30 1072 H 113.233 -0.689621 0.28711 0
M  V30 1073 H 115.895 -1.40664 1.34906 0
M  V30 1074 H 114.991 -2.91595 1.11259 0
M  V30 1075 N 115.292 -0.849877 -1.32721 0
M  V30 1076 C 116.538 -0.451591 -1.97708 0
M  V30 1077 C 116.871 0.989175 -1.6712 0
M  V30 1078 O 116.146 1.69334 -0.956891 0
M  V30 1079 C 116.429 -0.685598 -3.53513 0
M  V30 1080 C 116.282 -2.17444 -3.93749 0
M  V30 1081 C 117.601 -0.138874 -4.39881 0
M  V30 1082 H 114.72 -0.16555 -0.718166 0
M  V30 1083 H 117.362 -1.06742 -1.57182 0
M  V30 1084 H 115.512 -0.161416 -3.88165 0
M  V30 1085 H 117.184 -2.76433 -3.693 0
M  V30 1086 H 115.427 -2.65476 -3.43081 0
M  V30 1087 H 116.098 -2.28888 -5.02309 0
M  V30 1088 H 118.574 -0.587068 -4.11938 0
M  V30 1089 H 117.45 -0.332213 -5.47894 0
M  V30 1090 H 117.711 0.95806 -4.31594 0
M  V30 1091 N 116.77 1.45427 -0.607355 0
M  V30 1092 C 117.7 2.3329 0.0989352 0
M  V30 1093 C 118.681 1.46816 0.859007 0
M  V30 1094 O 119.866 1.75588 0.829604 0
M  V30 1095 C 116.996 3.29518 1.09705 0
M  V30 1096 C 115.95 4.25626 0.450206 0
M  V30 1097 C 115.276 5.11542 1.55655 0
M  V30 1098 C 116.576 5.18505 -0.628455 0
M  V30 1099 H 118.27 2.92595 -0.634716 0
M  V30 1100 H 115.816 1.40696 -0.306681 0
M  V30 1101 H 117.769 3.89855 1.59971 0
M  V30 1102 H 116.493 2.68372 1.86129 0
M  V30 1103 H 115.152 3.66586 -0.0315886 0
M  V30 1104 H 114.8 4.46765 2.31107 0
M  V30 1105 H 114.5 5.76647 1.12925 0
M  V30 1106 H 116.024 5.74748 2.06148 0
M  V30 1107 H 117.438 5.72916 -0.209877 0
M  V30 1108 H 115.835 5.92085 -0.977489 0
M  V30 1109 H 116.905 4.60948 -1.50514 0
M  V30 1110 N 118.248 0.346503 1.53744 0
M  V30 1111 C 119.496 -0.248612 2.00565 0
M  V30 1112 C 119.817 -1.5083 1.23593 0
M  V30 1113 O 119.087 -1.92858 0.343912 0
M  V30 1114 H 117.667 -0.0948564 0.740953 0
M  V30 1115 H 120.329 0.468341 1.89189 0
M  V30 1116 H 119.425 -0.488994 3.08245 0
M  V30 1117 N 119.726 -1.57421 0.075193 0
M  V30 1118 C 120.972 -1.93905 -0.594025 0
M  V30 1119 C 121.305 -0.955701 -1.69056 0
M  V30 1120 O 120.58 0.0145373 -1.94495 0
M  V30 1121 C 120.863 -3.40638 -1.1678 0
M  V30 1122 C 120.716 -4.49733 -0.0776792 0
M  V30 1123 C 122.035 -3.88259 -2.07228 0
M  V30 1124 H 119.154 -0.705105 -0.214466 0
M  V30 1125 H 121.796 -1.8947 0.141854 0
M  V30 1126 H 119.946 -3.44549 -1.79494 0
M  V30 1127 H 121.618 -4.57942 0.555573 0
M  V30 1128 H 119.861 -4.29751 0.591286 0
M  V30 1129 H 120.532 -5.49549 -0.519603 0
M  V30 1130 H 123.008 -3.86376 -1.54445 0
M  V30 1131 H 121.884 -4.91533 -2.44308 0
M  V30 1132 H 122.145 -3.26396 -2.98191 0
M  V30 1133 N 121.204 0.198386 -1.56346 0
M  V30 1134 C 122.167 1.22952 -1.93431 0
M  V30 1135 C 123.167 1.38611 -0.815092 0
M  V30 1136 O 124.357 1.36479 -1.08255 0
M  V30 1137 C 121.489 2.59946 -2.20546 0
M  V30 1138 H 122.682 0.912626 -2.85677 0
M  V30 1139 H 120.235 0.43977 -1.49986 0
M  V30 1140 H 120.97 2.96696 -1.30927 0
M  V30 1141 H 120.755 2.49953 -3.02102 0
M  V30 1142 H 122.245 3.3431 -2.50253 0
M  V30 1143 N 122.682 1.50554 0.465978 0
M  V30 1144 C 124.093 1.54599 1.04671 0
M  V30 1145 C 124.444 0.352488 1.93008 0
M  V30 1146 O 123.569 -0.534044 2.09707 0
M  V30 1147 C 124.164 2.80166 1.90505 0
M  V30 1148 C 122.723 2.86876 2.43678 0
M  V30 1149 C 121.87 2.48947 1.22151 0
M  V30 1150 H 124.821 1.56744 0.248384 0
M  V30 1151 H 124.842 2.62311 2.75633 0
M  V30 1152 H 124.354 3.67013 1.26186 0
M  V30 1153 H 122.455 2.04393 3.11536 0
M  V30 1154 H 122.568 3.89885 2.78436 0
M  V30 1155 H 120.932 2.01498 1.5579 0
M  V30 1156 H 121.715 3.38107 0.594866 0
M  V30 1157 N 124.16 -0.719506 1.40217 0
M  V30 1158 C 125.385 -1.51371 1.4178 0
M  V30 1159 C 125.81 -1.88091 0.0182355 0
M  V30 1160 O 125.168 -1.52997 -0.972707 0
M  V30 1161 C 125.216 -2.768 2.31115 0
M  V30 1162 O 124.32 -3.73349 1.7517 0
M  V30 1163 H 123.661 -0.456529 0.482159 0
M  V30 1164 H 126.191 -0.88644 1.844 0
M  V30 1165 H 126.201 -3.25371 2.46167 0
M  V30 1166 H 124.876 -2.49407 3.3282 0
M  V30 1167 H 123.453 -3.32179 1.69444 0
M  V30 1168 N 125.638 -1.25649 -0.95132 0
M  V30 1169 C 126.601 -1.06399 -2.03007 0
M  V30 1170 C 127.601 -0.0156794 -1.60792 0
M  V30 1171 O 128.791 -0.25817 -1.72276 0
M  V30 1172 C 125.923 -0.616184 -3.35285 0
M  V30 1173 H 127.116 -2.02164 -2.21517 0
M  V30 1174 H 124.669 -1.08103 -1.12887 0
M  V30 1175 H 125.404 0.343917 -3.22471 0
M  V30 1176 H 125.189 -1.37301 -3.67275 0
M  V30 1177 H 126.679 -0.503032 -4.14559 0
M  V30 1178 N 127.117 1.15442 -1.07289 0
M  V30 1179 C 128.027 2.23786 -0.704057 0
M  V30 1180 C 129.043 1.7166 0.284413 0
M  V30 1181 O 130.219 2.00972 0.131205 0
M  V30 1182 C 127.284 3.46535 -0.106792 0
M  V30 1183 C 126.345 4.13654 -1.14842 0
M  V30 1184 C 125.578 5.30544 -0.57956 0
M  V30 1185 O 125.801 5.67187 0.604585 0
M  V30 1186 O 124.735 5.87154 -1.32414 0
M  V30 1187 H 128.561 2.57664 -1.60757 0
M  V30 1188 H 126.146 1.23152 -0.845803 0
M  V30 1189 H 128.028 4.20804 0.224048 0
M  V30 1190 H 126.703 3.14407 0.770049 0
M  V30 1191 H 125.61 3.4131 -1.5316 0
M  V30 1192 H 126.943 4.49861 -1.99714 0
M  V30 1193 N 128.595 0.856903 1.32268 0
M  V30 1194 C 129.525 0.31858 2.31316 0
M  V30 1195 C 130.506 -0.583487 1.59779 0
M  V30 1196 O 131.691 -0.503259 1.87566 0
M  V30 1197 C 128.821 -0.491979 3.43798 0
M  V30 1198 C 127.775 0.315849 4.26833 0
M  V30 1199 C 127.101 -0.619586 5.31098 0
M  V30 1200 C 128.401 1.54282 4.98993 0
M  V30 1201 H 130.095 1.14621 2.76591 0
M  V30 1202 H 127.641 0.552613 1.32974 0
M  V30 1203 H 129.594 -0.879012 4.1213 0
M  V30 1204 H 128.318 -1.35299 2.97257 0
M  V30 1205 H 126.977 0.684664 3.6015 0
M  V30 1206 H 126.625 -1.47751 4.8081 0
M  V30 1207 H 126.325 -0.0830621 5.87541 0
M  V30 1208 H 127.849 -1.00375 6.02293 0
M  V30 1209 H 129.263 1.22796 5.59995 0
M  V30 1210 H 127.66 2.01745 5.65172 0
M  V30 1211 H 128.73 2.30285 4.26728 0
M  V30 1212 N 130.073 -1.45103 0.615059 0
M  V30 1213 C 131.303 -2.06254 0.119596 0
M  V30 1214 C 131.711 -1.4591 -1.20445 0
M  V30 1215 O 131.054 -0.570384 -1.7462 0
M  V30 1216 C 131.116 -3.59396 -0.0865591 0
M  V30 1217 C 130.78 -4.42116 1.15683 0
M  V30 1218 C 131.777 -4.7662 2.07676 0
M  V30 1219 C 129.462 -4.82749 1.38775 0
M  V30 1220 C 131.456 -5.50622 3.21082 0
M  V30 1221 C 129.143 -5.56504 2.52481 0
M  V30 1222 C 130.141 -5.90358 3.43463 0
M  V30 1223 O 129.829 -6.62615 4.55189 0
M  V30 1224 H 129.561 -0.672423 0.0694512 0
M  V30 1225 H 132.115 -1.87219 0.844885 0
M  V30 1226 H 130.345 -3.76859 -0.866823 0
M  V30 1227 H 132.034 -4.02365 -0.534555 0
M  V30 1228 H 132.8 -4.4578 1.91063 0
M  V30 1229 H 128.679 -4.55829 0.688545 0
M  V30 1230 H 132.223 -5.76965 3.92119 0
M  V30 1231 H 128.12 -5.86759 2.69043 0
M  V30 1232 H 128.888 -6.81071 4.53966 0
M  V30 1233 N 131.551 -0.354651 -1.53558 0
M  V30 1234 C 132.514 0.484566 -2.24019 0
M  V30 1235 C 133.514 1.01861 -1.24422 0
M  V30 1236 O 134.704 0.906097 -1.4878 0
M  V30 1237 C 131.836 1.67615 -2.96847 0
M  V30 1238 H 133.029 -0.131843 -2.9961 0
M  V30 1239 H 130.582 -0.106165 -1.55939 0
M  V30 1240 H 131.317 2.33095 -2.25471 0
M  V30 1241 H 131.102 1.30029 -3.69912 0
M  V30 1242 H 132.592 2.27114 -3.50441 0
M  V30 1243 N 133.029 1.57378 -0.0835403 0
M  V30 1244 C 134.275 1.94217 0.583733 0
M  V30 1245 C 134.608 0.964653 1.68547 0
M  V30 1246 O 133.883 -0.00422258 1.945 0
M  V30 1247 C 134.166 3.41253 1.14972 0
M  V30 1248 C 134.019 4.49768 0.0538277 0
M  V30 1249 C 135.338 3.89352 2.05166 0
M  V30 1250 H 132.457 0.706233 0.210724 0
M  V30 1251 H 135.099 1.89392 -0.1519 0
M  V30 1252 H 133.249 3.45496 1.77665 0
M  V30 1253 H 134.921 4.57641 -0.579851 0
M  V30 1254 H 133.164 4.29432 -0.614068 0
M  V30 1255 H 133.835 5.49817 0.490452 0
M  V30 1256 H 136.311 3.87189 1.52393 0
M  V30 1257 H 135.187 4.92822 2.41698 0
M  V30 1258 H 135.448 3.27973 2.96456 0
M  V30 1259 N 134.507 -0.190092 1.56449 0
M  V30 1260 C 135.454 -1.23557 1.94942 0
M  V30 1261 C 136.424 -1.44972 0.810696 0
M  V30 1262 O 137.609 -1.58023 1.06927 0
M  V30 1263 C 134.749 -2.57416 2.2985 0
M  V30 1264 C 133.862 -2.43537 3.5681 0
M  V30 1265 C 132.997 -3.70134 3.81017 0
M  V30 1266 C 132.036 -3.51109 5.01387 0
M  V30 1267 N 131.173 -4.6973 5.21822 0
M  V30 1268 H 136.013 -0.900304 2.84075 0
M  V30 1269 H 133.55 -0.43318 1.40577 0
M  V30 1270 H 135.508 -3.35409 2.48106 0
M  V30 1271 H 134.138 -2.88975 1.43852 0
M  V30 1272 H 133.19 -1.56816 3.46573 0
M  V30 1273 H 134.502 -2.25415 4.4496 0
M  V30 1274 H 133.656 -4.56566 3.9954 0
M  V30 1275 H 132.395 -3.91215 2.91207 0
M  V30 1276 H 131.4 -2.63063 4.82782 0
M  V30 1277 H 132.625 -3.31468 5.9271 0
M  V30 1278 H 130.571 -4.91065 4.34961 0
M  V30 1279 H 130.488 -4.54452 6.0416 0
M  V30 1280 H 131.756 -5.57499 5.44808 0
M  V30 1281 N 135.985 -1.50799 -0.457987 0
M  V30 1282 C 137.231 -1.62683 -1.21088 0
M  V30 1283 C 137.564 -0.332268 -1.91336 0
M  V30 1284 O 136.839 0.667043 -1.82704 0
M  V30 1285 C 137.122 -2.81615 -2.24422 0
M  V30 1286 C 136.975 -4.20989 -1.58392 0
M  V30 1287 C 138.294 -2.96085 -3.2561 0
M  V30 1288 H 135.413 -0.592087 -0.438864 0
M  V30 1289 H 138.055 -1.83225 -0.50286 0
M  V30 1290 H 136.205 -2.64231 -2.84806 0
M  V30 1291 H 137.877 -4.49994 -1.01504 0
M  V30 1292 H 136.12 -4.24641 -0.886704 0
M  V30 1293 H 136.791 -5.0016 -2.33547 0
M  V30 1294 H 139.267 -3.12042 -2.75262 0
M  V30 1295 H 138.143 -3.80902 -3.95228 0
M  V30 1296 H 138.404 -2.0726 -3.90507 0
M  V30 1297 N 137.463 0.71206 -1.40597 0
M  V30 1298 C 138.393 1.83889 -1.43899 0
M  V30 1299 C 139.374 1.67442 -0.299504 0
M  V30 1300 O 140.559 1.87421 -0.508624 0
M  V30 1301 C 137.689 3.21877 -1.30431 0
M  V30 1302 C 136.643 3.53002 -2.42019 0
M  V30 1303 C 135.969 4.90172 -2.13626 0
M  V30 1304 C 137.269 3.53643 -3.84362 0
M  V30 1305 H 138.963 1.81383 -2.38203 0
M  V30 1306 H 136.509 0.871237 -1.14654 0
M  V30 1307 H 138.462 4.00404 -1.31357 0
M  V30 1308 H 137.186 3.24968 -0.326049 0
M  V30 1309 H 135.845 2.76818 -2.40349 0
M  V30 1310 H 135.493 4.89869 -1.14182 0
M  V30 1311 H 135.193 5.11962 -2.88389 0
M  V30 1312 H 136.717 5.71028 -2.1624 0
M  V30 1313 H 138.131 4.22203 -3.87837 0
M  V30 1314 H 136.528 3.86961 -4.58673 0
M  V30 1315 H 137.598 2.52954 -4.13693 0
M  V30 1316 N 138.941 1.26152 0.944643 0
M  V30 1317 C 140.189 1.11271 1.6871 0
M  V30 1318 C 140.51 -0.345166 1.91921 0
M  V30 1319 O 139.78 -1.24387 1.51343 0
M  V30 1320 H 138.36 0.408783 0.625224 0
M  V30 1321 H 141.022 1.58427 1.1352 0
M  V30 1322 H 140.118 1.62879 2.66227 0
M  V30 1323 N 140.419 -1.14872 1.07899 0
M  V30 1324 C 141.382 -2.17986 0.708161 0
M  V30 1325 C 142.382 -1.58775 -0.25442 0
M  V30 1326 O 143.572 -1.74166 -0.034645 0
M  V30 1327 C 140.704 -3.40871 0.0446929 0
M  V30 1328 H 141.897 -2.52306 1.62116 0
M  V30 1329 H 139.45 -1.2943 0.876218 0
M  V30 1330 H 140.185 -3.12124 -0.880281 0
M  V30 1331 H 139.97 -3.8511 0.737091 0
M  V30 1332 H 141.46 -4.17121 -0.19991 0
M  V30 1333 N 141.898 -0.863906 -1.31812 0
M  V30 1334 C 143.123 -0.48527 -2.01643 0
M  V30 1335 C 143.548 0.913058 -1.64453 0
M  V30 1336 O 142.906 1.6014 -0.849985 0
M  V30 1337 C 142.954 -0.642625 -3.54828 0
M  V30 1338 O 142.058 0.320659 -4.11151 0
M  V30 1339 H 141.399 -0.193793 -0.635091 0
M  V30 1340 H 143.929 -1.16565 -1.68148 0
M  V30 1341 H 143.939 -0.533628 -4.04495 0
M  V30 1342 H 142.614 -1.66227 -3.81237 0
M  V30 1343 H 141.191 0.167126 -3.72525 0
M  V30 1344 N 143.376 1.44774 -0.622745 0
M  V30 1345 C 144.624 2.01721 -0.123655 0
M  V30 1346 C 144.945 1.49172 1.25589 0
M  V30 1347 O 144.215 0.691974 1.83272 0
M  V30 1348 H 142.795 0.745777 -0.0427225 0
M  V30 1349 H 145.457 1.77382 -0.807559 0
M  V30 1350 H 144.553 3.11984 -0.0849534 0
M  V30 1351 N 144.854 0.36279 1.53368 0
M  V30 1352 C 146.079 -0.231226 2.06107 0
M  V30 1353 C 146.504 -1.419 1.23474 0
M  V30 1354 O 145.862 -1.79524 0.253128 0
M  V30 1355 C 145.91 -0.605523 3.5548 0
M  V30 1356 O 145.014 -1.70312 3.7559 0
M  V30 1357 H 144.355 -0.034327 0.663112 0
M  V30 1358 H 146.885 0.522584 1.97814 0
M  V30 1359 H 146.895 -0.877314 3.98456 0
M  V30 1360 H 145.57 0.263004 4.15068 0
M  V30 1361 H 144.147 -1.4271 3.44512 0
M  V30 1362 N 146.332 -1.57332 0.0918853 0
M  V30 1363 C 147.58 -1.93853 -0.571446 0
M  V30 1364 C 147.901 -0.974212 -1.6892 0
M  V30 1365 O 147.171 -0.0257254 -1.95883 0
M  V30 1366 H 145.751 -0.715666 -0.214082 0
M  V30 1367 H 148.413 -1.94287 0.154464 0
M  V30 1368 H 147.509 -2.96191 -0.983729 0
M  V30 1369 N 147.81 0.181792 -1.56548 0
M  V30 1370 C 149.035 0.920019 -1.85877 0
M  V30 1371 C 149.46 1.75494 -0.677021 0
M  V30 1372 O 148.818 1.77399 0.374056 0
M  V30 1373 C 148.866 1.78112 -3.13542 0
M  V30 1374 O 147.97 2.88152 -2.95029 0
M  V30 1375 H 147.311 0.258334 -0.611686 0
M  V30 1376 H 149.841 0.183092 -2.03779 0
M  V30 1377 H 149.851 2.18314 -3.44678 0
M  V30 1378 H 148.526 1.16777 -3.99169 0
M  V30 1379 H 147.103 2.51609 -2.75222 0
M  V30 1380 N 149.288 1.51039 0.449983 0
M  V30 1381 C 150.534 1.63322 1.20223 0
M  V30 1382 C 150.867 0.34241 1.91158 0
M  V30 1383 O 150.142 -0.657344 1.83055 0
M  V30 1384 C 150.425 2.82801 2.22925 0
M  V30 1385 C 150.278 4.21823 1.56157 0
M  V30 1386 C 151.597 2.97807 3.24035 0
M  V30 1387 H 148.716 0.594407 0.435718 0
M  V30 1388 H 151.358 1.83489 0.493136 0
M  V30 1389 H 149.508 2.65738 2.834 0
M  V30 1390 H 151.18 4.50526 0.991162 0
M  V30 1391 H 149.423 4.25105 0.864172 0
M  V30 1392 H 150.094 5.01391 2.30891 0
M  V30 1393 H 152.57 3.13497 2.73603 0
M  V30 1394 H 151.446 3.82992 3.93202 0
M  V30 1395 H 151.707 2.09328 3.89402 0
M  V30 1396 N 150.766 -0.704594 1.40972 0
M  V30 1397 C 151.991 -1.49858 1.43378 0
M  V30 1398 C 152.416 -1.88061 0.038184 0
M  V30 1399 O 151.774 -1.5402 -0.956425 0
M  V30 1400 C 151.822 -2.74333 2.34038 0
M  V30 1401 O 150.926 -3.7147 1.7912 0
M  V30 1402 H 150.267 -0.45139 0.486974 0
M  V30 1403 H 152.797 -0.866832 1.8533 0
M  V30 1404 H 152.807 -3.22741 2.49604 0
M  V30 1405 H 151.482 -2.45863 3.35446 0
M  V30 1406 H 150.059 -3.30363 1.72958 0
M  V30 1407 N 152.244 -1.26651 -0.937939 0
M  V30 1408 C 153.469 -1.15279 -1.72411 0
M  V30 1409 C 153.894 0.287866 -1.85884 0
M  V30 1410 O 153.252 1.20855 -1.35143 0
M  V30 1411 C 153.3 -1.83028 -3.10698 0
M  V30 1412 O 152.404 -1.12128 -3.96864 0
M  V30 1413 H 151.745 -0.401504 -0.528858 0
M  V30 1414 H 154.275 -1.67531 -1.1745 0
M  V30 1415 H 154.285 -1.89981 -3.6107 0
M  V30 1416 H 152.96 -2.87833 -3.00208 0
M  V30 1417 H 151.537 -1.13173 -3.55312 0
M  V30 1418 N 153.722 1.14298 -1.08507 0
M  V30 1419 C 154.971 1.84708 -0.810305 0
M  V30 1420 C 155.284 1.83903 0.666271 0
M  V30 1421 O 156.49 2.50112 1.05624 0
M  V30 1422 C 154.946 3.31572 -1.39957 0
M  V30 1423 C 154.554 3.40791 -2.90801 0
M  V30 1424 C 156.298 4.07087 -1.20334 0
M  V30 1425 C 154.205 4.81872 -3.4286 0
M  V30 1426 H 153.135 0.691985 -0.299454 0
M  V30 1427 H 155.786 1.28841 -1.30661 0
M  V30 1428 H 154.168 3.87183 -0.830976 0
M  V30 1429 H 155.342 2.95225 -3.53806 0
M  V30 1430 H 153.657 2.78732 -3.0935 0
M  V30 1431 H 156.254 5.11225 -1.56693 0
M  V30 1432 H 156.597 4.16054 -0.143237 0
M  V30 1433 H 157.13 3.57779 -1.73893 0
M  V30 1434 H 153.869 4.78094 -4.48449 0
M  V30 1435 H 153.389 5.27972 -2.84615 0
M  V30 1436 H 155.068 5.50765 -3.39509 0
M  V30 1437 N 155.201 0.870884 1.31352 0
M  V30 1438 C 156.164 0.332243 2.26779 0
M  V30 1439 C 157.164 -0.517302 1.52252 0
M  V30 1440 O 158.354 -0.326477 1.71113 0
M  V30 1441 C 155.486 -0.528066 3.36785 0
M  V30 1442 H 156.679 1.17469 2.75937 0
M  V30 1443 H 154.232 0.64655 1.423 0
M  V30 1444 H 154.967 -1.39167 2.92922 0
M  V30 1445 H 154.752 0.0802582 3.92018 0
M  V30 1446 H 156.242 -0.897179 4.07849 0
M  V30 1447 N 156.679 -1.44442 0.630414 0
M  V30 1448 C 157.611 -2.2892 -0.113347 0
M  V30 1449 C 158.624 -1.41243 -0.80959 0
M  V30 1450 O 159.813 -1.65402 -0.671156 0
M  V30 1451 C 156.913 -3.17594 -1.18266 0
M  V30 1452 C 156.086 -4.33682 -0.569073 0
M  V30 1453 C 155.145 -5.03397 -1.53226 0
M  V30 1454 O 154.171 -5.59438 -1.04967 0
M  V30 1455 N 155.373 -5.04783 -2.86661 0
M  V30 1456 H 158.138 -2.93392 0.611636 0
M  V30 1457 H 155.699 -1.54881 0.471523 0
M  V30 1458 H 157.691 -3.61097 -1.82732 0
M  V30 1459 H 156.261 -2.54876 -1.80988 0
M  V30 1460 H 155.481 -3.9338 0.254187 0
M  V30 1461 H 156.769 -5.08608 -0.139767 0
M  V30 1462 H 156.167 -4.60584 -3.28449 0
M  V30 1463 H 154.724 -5.52077 -3.46489 0
M  V30 1464 N 158.157 -0.370918 -1.53173 0
M  V30 1465 C 159.405 0.216673 -2.00935 0
M  V30 1466 C 159.726 1.48845 -1.25977 0
M  V30 1467 O 158.996 1.92286 -0.374551 0
M  V30 1468 H 157.576 0.0830565 -0.742368 0
M  V30 1469 H 160.238 -0.49838 -1.8842 0
M  V30 1470 H 159.334 0.439893 -3.08984 0
M  V30 1471 N 159.635 1.57281 -0.100228 0
M  V30 1472 C 160.565 2.17328 0.853857 0
M  V30 1473 C 161.546 1.10804 1.2906 0
M  V30 1474 O 162.731 1.38963 1.35657 0
M  V30 1475 C 159.861 2.75772 2.11109 0
M  V30 1476 C 158.815 3.87713 1.81279 0
M  V30 1477 C 158.141 4.32882 3.13874 0
M  V30 1478 C 159.441 5.10677 1.09574 0
M  V30 1479 H 161.135 2.97305 0.353545 0
M  V30 1480 H 158.681 1.43009 0.168612 0
M  V30 1481 H 160.634 3.16433 2.78296 0
M  V30 1482 H 159.358 1.93057 2.63432 0
M  V30 1483 H 158.017 3.476 1.16489 0
M  V30 1484 H 157.665 3.47051 3.64095 0
M  V30 1485 H 157.365 5.08358 2.94696 0
M  V30 1486 H 158.889 4.7618 3.82211 0
M  V30 1487 H 160.303 5.48474 1.66879 0
M  V30 1488 H 158.7 5.91615 1.00557 0
M  V30 1489 H 159.77 4.84835 0.0793299 0
M  V30 1490 N 161.113 -0.173488 1.56642 0
M  V30 1491 C 162.023 -1.23482 1.99473 0
M  V30 1492 C 163.039 -1.48567 0.905752 0
M  V30 1493 O 164.215 -1.60758 1.21321 0
M  V30 1494 C 161.28 -2.55444 2.34413 0
M  V30 1495 C 160.341 -2.38241 3.57127 0
M  V30 1496 C 159.574 -3.63909 3.90392 0
M  V30 1497 O 159.797 -4.68996 3.24653 0
M  V30 1498 O 158.731 -3.58149 4.83749 0
M  V30 1499 H 162.557 -0.901279 2.90018 0
M  V30 1500 H 160.142 -0.380185 1.44482 0
M  V30 1501 H 162.024 -3.33292 2.57865 0
M  V30 1502 H 160.699 -2.88382 1.4703 0
M  V30 1503 H 159.606 -1.58431 3.38896 0
M  V30 1504 H 160.939 -2.10228 4.45045 0
M  V30 1505 N 162.591 -1.51276 -0.441967 0
M  V30 1506 C 163.837 -1.6492 -1.1905 0
M  V30 1507 C 164.192 -0.358731 -1.89026 0
M  V30 1508 O 163.485 0.645193 -1.8041 0
M  V30 1509 C 163.679 -2.78746 -2.23686 0
M  V30 1510 C 163.508 -4.18737 -1.63979 0
M  V30 1511 C 162.278 -4.84739 -1.42674 0
M  V30 1512 C 164.476 -5.01988 -1.11858 0
M  V30 1513 N 162.458 -6.08858 -0.785159 0
M  V30 1514 C 163.829 -6.17071 -0.601989 0
M  V30 1515 C 165.884 -4.87551 -1.0099 0
M  V30 1516 C 164.587 -7.19299 0.0126012 0
M  V30 1517 C 166.613 -5.89983 -0.409206 0
M  V30 1518 C 165.975 -7.04333 0.0968651 0
M  V30 1519 H 162.074 -0.657416 -0.423471 0
M  V30 1520 H 164.658 -1.8849 -0.48782 0
M  V30 1521 H 162.829 -2.56848 -2.91348 0
M  V30 1522 H 164.561 -2.81595 -2.90666 0
M  V30 1523 H 161.316 -4.42528 -1.68719 0
M  V30 1524 H 161.74 -6.75282 -0.481942 0
M  V30 1525 H 166.382 -3.99401 -1.38703 0
M  V30 1526 H 164.1 -8.071 0.401879 0
M  V30 1527 H 167.686 -5.8088 -0.327079 0
M  V30 1528 H 166.566 -7.82238 0.554373 0
M  V30 1529 N 164.069 0.697108 -1.41344 0
M  V30 1530 C 165.032 1.79281 -1.42797 0
M  V30 1531 C 166.032 1.57607 -0.318837 0
M  V30 1532 O 167.222 1.64309 -0.578642 0
M  V30 1533 C 164.354 3.17632 -1.23785 0
M  V30 1534 H 165.547 1.79385 -2.40335 0
M  V30 1535 H 163.1 0.904582 -1.27464 0
M  V30 1536 H 163.835 3.23167 -0.270814 0
M  V30 1537 H 163.62 3.34765 -2.04144 0
M  V30 1538 H 165.11 3.97617 -1.27633 0
M  V30 1539 N 165.547 1.27147 0.931209 0
M  V30 1540 C 166.795 1.13055 1.6752 0
M  V30 1541 C 167.116 -0.324791 1.92276 0
M  V30 1542 O 166.386 -1.22775 1.52654 0
M  V30 1543 H 164.966 0.415391 0.620854 0
M  V30 1544 H 167.628 1.59623 1.11833 0
M  V30 1545 H 166.724 1.65694 2.64485 0
M  V30 1546 N 167.025 -1.13721 1.09112 0
M  V30 1547 C 167.973 -2.21103 0.722219 0
M  V30 1548 C 168.967 -1.67147 -0.275374 0
M  V30 1549 O 170.173 -1.79477 -0.137176 0
M  V30 1550 H 166.548 -0.720445 0.215553 0
M  V30 1551 H 168.519 -2.49483 1.63709 0
M  V30 1552 C 167.268 -3.47352 0.15543 0
M  V30 1553 H 166.591 -3.89206 0.914246 0
M  V30 1554 H 168.031 -4.2395 -0.0647967 0
M  V30 1555 C 166.49 -3.1814 -1.10852 0
M  V30 1556 O 167.02 -3.36604 -2.19227 0
M  V30 1557 N 165.226 -2.72045 -1.02176 0
M  V30 1558 H 164.773 -2.57221 -0.139764 0
M  V30 1559 H 164.731 -2.52875 -1.8682 0
M  V30 1560 N 168.503 -0.877838 -1.30888 0
M  V30 1561 C 169.451 -0.328662 -2.30266 0
M  V30 1562 C 170.445 0.560496 -1.59859 0
M  V30 1563 O 171.651 0.445722 -1.74394 0
M  V30 1564 H 168.026 -0.0876142 -0.746879 0
M  V30 1565 H 169.997 -1.18061 -2.74051 0
M  V30 1566 C 168.746 0.448071 -3.44801 0
M  V30 1567 H 168.069 -0.226859 -3.99156 0
M  V30 1568 H 169.509 0.797541 -4.16432 0
M  V30 1569 C 167.968 1.64239 -2.94155 0
M  V30 1570 O 168.498 2.74175 -2.93583 0
M  V30 1571 N 166.704 1.47716 -2.50256 0
M  V30 1572 H 166.251 0.582821 -2.5092 0
M  V30 1573 H 166.209 2.27765 -2.16727 0
M  V30 1574 N 169.982 1.44106 -0.638065 0
M  V30 1575 C 171.23 2.01579 -0.145043 0
M  V30 1576 C 171.551 1.50496 1.24 0
M  V30 1577 O 170.821 0.711374 1.82527 0
M  V30 1578 H 169.401 0.745282 -0.05063 0
M  V30 1579 H 172.063 1.76516 -0.826327 0
M  V30 1580 H 171.159 3.11877 -0.118039 0
M  V30 1581 N 171.46 0.379036 1.52974 0
M  V30 1582 C 172.393 -0.504932 2.22544 0
M  V30 1583 C 173.371 -1.0723 1.22231 0
M  V30 1584 O 174.555 -1.12589 1.51182 0
M  V30 1585 C 171.682 -1.69794 2.93066 0
M  V30 1586 C 170.728 -1.25678 4.07563 0
M  V30 1587 S 171.561 -0.246852 5.34931 0
M  V30 1588 C 172.717 -1.44588 6.08971 0
M  V30 1589 H 172.95 0.0858666 2.97176 0
M  V30 1590 H 170.483 0.163183 1.53535 0
M  V30 1591 H 172.441 -2.38219 3.34308 0
M  V30 1592 H 171.102 -2.26002 2.18133 0
M  V30 1593 H 170.295 -2.14725 4.5597 0
M  V30 1594 H 169.897 -0.651584 3.6828 0
M  V30 1595 H 172.189 -2.37469 6.34519 0
M  V30 1596 H 173.132 -1.00292 7.00962 0
M  V30 1597 H 173.54 -1.65804 5.39601 0
M  V30 1598 N 172.938 -1.57226 0.108567 0
M  V30 1599 C 173.888 -2.11305 -0.856396 0
M  V30 1600 C 174.872 -1.03129 -1.23504 0
M  V30 1601 O 176.064 -1.29381 -1.20787 0
M  V30 1602 C 173.193 -2.70771 -2.11041 0
M  V30 1603 C 172.279 -3.86011 -1.7566 0
M  V30 1604 N 172.67 -4.93492 -1.10902 0
M  V30 1605 C 170.968 -3.95999 -2.05185 0
M  V30 1606 C 171.669 -5.73984 -0.944308 0
M  V30 1607 N 170.645 -5.2346 -1.46596 0
M  V30 1608 H 174.447 -2.91784 -0.352002 0
M  V30 1609 H 171.961 -1.62126 -0.0942324 0
M  V30 1610 H 173.958 -3.07851 -2.81128 0
M  V30 1611 H 172.618 -1.91751 -2.62034 0
M  V30 1612 H 173.629 -5.1208 -0.774235 0
M  V30 1613 H 170.306 -3.28007 -2.58298 0
M  V30 1614 H 171.696 -6.70479 -0.436813 0
M  V30 1615 N 174.416 0.165178 -1.56732 0
M  V30 1616 C 175.662 0.882112 -1.82611 0
M  V30 1617 C 175.995 1.81628 -0.687378 0
M  V30 1618 O 175.27 1.92009 0.310267 0
M  V30 1619 C 175.553 1.67245 -3.18906 0
M  V30 1620 C 175.406 0.760987 -4.43316 0
M  V30 1621 C 176.725 2.63884 -3.52212 0
M  V30 1622 H 173.844 0.319242 -0.664269 0
M  V30 1623 H 176.486 0.148052 -1.89422 0
M  V30 1624 H 174.636 2.29824 -3.1323 0
M  V30 1625 H 176.308 0.147596 -4.61064 0
M  V30 1626 H 174.551 0.0694102 -4.33744 0
M  V30 1627 H 175.222 1.34962 -5.35247 0
M  V30 1628 H 177.698 2.11429 -3.58381 0
M  V30 1629 H 176.574 3.16245 -4.48643 0
M  V30 1630 H 176.835 3.44377 -2.77231 0
M  V30 1631 N 175.894 1.51508 0.433938 0
M  V30 1632 C 176.857 1.72473 1.50949 0
M  V30 1633 C 177.857 0.594725 1.49398 0
M  V30 1634 O 179.047 0.862315 1.5136 0
M  V30 1635 C 176.179 1.78431 2.90474 0
M  V30 1636 H 177.372 2.68467 1.33662 0
M  V30 1637 H 174.925 1.41549 0.662836 0
M  V30 1638 H 175.66 0.842645 3.13161 0
M  V30 1639 H 175.445 2.60558 2.93005 0
M  V30 1640 H 176.935 1.96479 3.68491 0
M  V30 1641 N 177.372 -0.689602 1.41712 0
M  V30 1642 C 178.32 -1.82475 1.44242 0
M  V30 1643 C 179.314 -1.66354 0.319774 0
M  V30 1644 O 180.52 -1.73143 0.492089 0
M  V30 1645 H 176.895 -0.601416 0.451445 0
M  V30 1646 H 178.866 -1.77458 2.39899 0
M  V30 1647 C 177.615 -3.20535 1.3473 0
M  V30 1648 H 176.938 -3.33559 2.20405 0
M  V30 1649 H 178.378 -4.00023 1.40562 0
M  V30 1650 C 176.837 -3.36846 0.0603281 0
M  V30 1651 O 177.367 -3.91656 -0.892663 0
M  V30 1652 N 175.573 -2.90595 -0.0177039 0
M  V30 1653 H 175.12 -2.46178 0.758572 0
M  V30 1654 H 175.078 -3.01886 -0.878201 0
M  V30 1655 N 178.85 -1.27639 -0.924453 0
M  V30 1656 C 179.78 -1.13166 -2.04244 0
M  V30 1657 C 180.761 -0.032256 -1.70069 0
M  V30 1658 O 181.946 -0.207328 -1.9309 0
M  V30 1659 C 179.076 -0.781496 -3.38393 0
M  V30 1660 C 178.03 -1.83449 -3.86692 0
M  V30 1661 C 177.356 -1.33822 -5.17683 0
M  V30 1662 C 178.656 -3.23917 -4.09726 0
M  V30 1663 H 180.35 -2.06689 -2.1661 0
M  V30 1664 H 177.896 -0.995136 -1.04082 0
M  V30 1665 H 179.849 -0.667057 -4.16087 0
M  V30 1666 H 178.573 0.189439 -3.2605 0
M  V30 1667 H 177.232 -1.93789 -3.11193 0
M  V30 1668 H 176.88 -0.35665 -5.01734 0
M  V30 1669 H 176.58 -2.04224 -5.50968 0
M  V30 1670 H 178.104 -1.23679 -5.97943 0
M  V30 1671 H 179.518 -3.16559 -4.77978 0
M  V30 1672 H 177.915 -3.92059 -4.54324 0
M  V30 1673 H 178.985 -3.68729 -3.14908 0
M  V30 1674 N 180.328 1.1314 -1.09713 0
M  V30 1675 C 181.553 1.88862 -0.857081 0
M  V30 1676 C 181.978 1.78729 0.586304 0
M  V30 1677 O 181.336 1.13692 1.41222 0
M  V30 1678 C 181.384 3.36325 -1.30069 0
M  V30 1679 O 180.488 4.09815 -0.461007 0
M  V30 1680 H 179.829 0.587108 -0.310162 0
M  V30 1681 H 182.359 1.43129 -1.46203 0
M  V30 1682 H 182.369 3.87157 -1.28738 0
M  V30 1683 H 181.044 3.43017 -2.35185 0
M  V30 1684 H 179.621 3.68986 -0.538888 0
M  V30 1685 N 181.806 0.884767 1.30421 0
M  V30 1686 C 182.736 0.367574 2.30589 0
M  V30 1687 C 183.717 -0.549464 1.60981 0
M  V30 1688 O 184.902 -0.46336 1.88591 0
M  V30 1689 C 182.032 -0.418944 3.44764 0
M  V30 1690 C 180.986 0.406316 4.26067 0
M  V30 1691 C 180.312 -0.506793 5.32293 0
M  V30 1692 C 181.612 1.64832 4.95608 0
M  V30 1693 H 183.306 1.20462 2.74097 0
M  V30 1694 H 180.852 0.580695 1.31772 0
M  V30 1695 H 182.805 -0.791395 4.13902 0
M  V30 1696 H 181.529 -1.28964 3.0006 0
M  V30 1697 H 180.188 0.760903 3.58617 0
M  V30 1698 H 179.836 -1.37519 4.83836 0
M  V30 1699 H 179.536 0.0415828 5.87585 0
M  V30 1700 H 181.06 -0.875764 6.04287 0
M  V30 1701 H 182.474 1.34646 5.57264 0
M  V30 1702 H 180.871 2.13688 5.60765 0
M  V30 1703 H 181.941 2.39284 4.21748 0
M  V30 1704 N 183.284 -1.43765 0.645699 0
M  V30 1705 C 184.532 -2.01499 0.155731 0
M  V30 1706 C 184.853 -1.51151 -1.232 0
M  V30 1707 O 184.123 -0.721044 -1.82148 0
M  V30 1708 H 182.703 -0.745003 0.0545817 0
M  V30 1709 H 185.365 -1.76075 0.835677 0
M  V30 1710 H 184.461 -3.1181 0.134577 0
M  V30 1711 N 184.763 -0.387143 -1.52771 0
M  V30 1712 C 185.988 0.198407 -2.06449 0
M  V30 1713 C 186.413 1.39918 -1.25716 0
M  V30 1714 O 185.771 1.79099 -0.281657 0
M  V30 1715 C 185.819 0.548893 -3.56398 0
M  V30 1716 O 184.923 1.64315 -3.78252 0
M  V30 1717 H 184.264 0.0237731 -0.663574 0
M  V30 1718 H 186.794 -0.553989 -1.96957 0
M  V30 1719 H 186.804 0.813812 -3.99801 0
M  V30 1720 H 185.479 -0.329005 -4.14597 0
M  V30 1721 H 184.056 1.37211 -3.46738 0
M  V30 1722 N 186.241 1.57166 -0.116904 0
M  V30 1723 C 187.652 1.82169 0.408809 0
M  V30 1724 C 188.003 1.03393 1.66746 0
M  V30 1725 O 187.128 0.269886 2.1471 0
M  V30 1726 C 187.723 3.30429 0.748466 0
M  V30 1727 C 186.282 3.5612 1.21882 0
M  V30 1728 C 185.429 2.76374 0.226452 0
M  V30 1729 H 188.38 1.5497 -0.342063 0
M  V30 1730 H 188.401 3.44943 1.60607 0
M  V30 1731 H 187.913 3.87737 -0.167784 0
M  V30 1732 H 186.014 3.04168 2.15204 0
M  V30 1733 H 186.127 4.64705 1.16559 0
M  V30 1734 H 184.491 2.44515 0.713063 0
M  V30 1735 H 185.274 3.3644 -0.682859 0
M  V30 1736 N 187.719 -0.156864 1.56817 0
M  V30 1737 C 188.944 -0.890331 1.87318 0
M  V30 1738 C 189.369 -1.74394 0.704855 0
M  V30 1739 O 188.727 -1.77972 -0.345786 0
M  V30 1740 C 188.775 -1.73102 3.16336 0
M  V30 1741 O 187.879 -2.83422 2.99576 0
M  V30 1742 H 187.22 -0.24857 0.615718 0
M  V30 1743 H 189.75 -0.150649 2.04045 0
M  V30 1744 H 189.76 -2.12803 3.48107 0
M  V30 1745 H 188.435 -1.10412 4.00976 0
M  V30 1746 H 187.012 -2.47199 2.7919 0
M  V30 1747 N 189.197 -1.51736 -0.425897 0
M  V30 1748 C 190.608 -1.5732 -1.00536 0
M  V30 1749 C 190.959 -0.403537 -1.92005 0
M  V30 1750 O 190.084 0.478256 -2.11049 0
M  V30 1751 C 190.679 -2.85119 -1.8301 0
M  V30 1752 C 189.238 -2.93236 -2.35987 0
M  V30 1753 C 188.385 -2.52098 -1.15508 0
M  V30 1754 H 191.336 -1.57348 -0.206739 0
M  V30 1755 H 191.357 -2.69526 -2.68581 0
M  V30 1756 H 190.869 -3.7023 -1.16411 0
M  V30 1757 H 188.97 -2.12581 -3.06007 0
M  V30 1758 H 189.083 -3.9713 -2.68001 0
M  V30 1759 H 187.447 -2.05558 -1.50393 0
M  V30 1760 H 188.23 -3.39565 -0.505014 0
M  V30 1761 N 190.675 0.682077 -1.42076 0
M  V30 1762 C 191.9 1.47558 -1.45744 0
M  V30 1763 C 192.325 1.87977 -0.0680981 0
M  V30 1764 O 191.683 1.55522 0.9318 0
M  V30 1765 C 191.731 2.70575 -2.38373 0
M  V30 1766 O 190.835 3.68573 -1.85007 0
M  V30 1767 H 190.176 0.443585 -0.494093 0
M  V30 1768 H 192.706 0.837238 -1.86686 0
M  V30 1769 H 192.716 3.18729 -2.54707 0
M  V30 1770 H 191.391 2.40495 -3.39315 0
M  V30 1771 H 189.968 3.2757 -1.78192 0
M  V30 1772 N 192.153 1.28127 0.917671 0
M  V30 1773 C 193.116 1.11744 2.00115 0
M  V30 1774 C 194.116 0.0583052 1.60694 0
M  V30 1775 O 195.306 0.303755 1.71531 0
M  V30 1776 C 192.438 0.704862 3.33533 0
M  V30 1777 H 193.631 2.07966 2.16079 0
M  V30 1778 H 191.184 1.11058 1.09981 0
M  V30 1779 H 191.919 -0.258299 3.2327 0
M  V30 1780 H 191.704 1.4699 3.63505 0
M  V30 1781 H 193.194 0.612768 4.1308 0
M  V30 1782 N 193.631 -1.12557 1.10312 0
M  V30 1783 C 194.859 -1.87864 0.866873 0
M  V30 1784 C 195.274 -1.79588 -0.582557 0
M  V30 1785 O 194.631 -1.16887 -1.40156 0
M  V30 1786 C 194.682 -3.37125 1.30496 0
M  V30 1787 O 194.403 -3.45201 2.69755 0
M  V30 1788 C 195.904 -4.29373 1.10243 0
M  V30 1789 H 193.124 -0.594452 0.311236 0
M  V30 1790 H 195.668 -1.42429 1.46745 0
M  V30 1791 H 193.823 -3.80109 0.748081 0
M  V30 1792 H 194.237 -4.38056 2.88457 0
M  V30 1793 H 195.711 -5.32394 1.45811 0
M  V30 1794 H 196.188 -4.39181 0.0409492 0
M  V30 1795 H 196.794 -3.92169 1.64571 0
M  V30 1796 N 195.109 -0.891671 -1.2995 0
M  V30 1797 C 196.039 -0.379797 -2.30391 0
M  V30 1798 C 197.02 0.540919 -1.6127 0
M  V30 1799 O 198.205 0.453352 -1.88834 0
M  V30 1800 C 195.335 0.400654 -3.44981 0
M  V30 1801 C 194.289 -0.428905 -4.25846 0
M  V30 1802 C 193.615 0.478557 -5.32554 0
M  V30 1803 C 194.915 -1.67458 -4.94727 0
M  V30 1804 H 196.609 -1.21914 -2.73454 0
M  V30 1805 H 194.155 -0.587675 -1.31462 0
M  V30 1806 H 196.108 0.769434 -4.14316 0
M  V30 1807 H 194.832 1.27371 -3.0074 0
M  V30 1808 H 193.491 -0.779911 -3.58208 0
M  V30 1809 H 193.139 1.34951 -4.84559 0
M  V30 1810 H 192.839 -0.0727433 -5.87555 0
M  V30 1811 H 194.363 0.843705 -6.04743 0
M  V30 1812 H 195.777 -1.376 -5.56542 0
M  V30 1813 H 194.174 -2.16659 -5.59624 0
M  V30 1814 H 195.244 -2.41518 -4.20473 0
M  V30 1815 N 196.587 1.43421 -0.653314 0
M  V30 1816 C 197.497 2.34568 0.0388565 0
M  V30 1817 C 198.513 1.53888 0.81207 0
M  V30 1818 O 199.689 1.86539 0.759294 0
M  V30 1819 C 196.754 3.32167 0.993269 0
M  V30 1820 C 195.815 4.28751 0.216977 0
M  V30 1821 C 195.048 5.21688 1.12593 0
M  V30 1822 O 195.271 5.19052 2.36519 0
M  V30 1823 O 194.205 5.98919 0.598284 0
M  V30 1824 H 198.031 2.95251 -0.711386 0
M  V30 1825 H 195.616 1.43564 -0.413502 0
M  V30 1826 H 197.498 3.92183 1.54176 0
M  V30 1827 H 196.173 2.73987 1.72374 0
M  V30 1828 H 195.08 3.72215 -0.375101 0
M  V30 1829 H 196.413 4.89913 -0.473924 0
M  V30 1830 N 198.065 0.39524 1.52563 0
M  V30 1831 C 198.997 -0.472201 2.24283 0
M  V30 1832 C 200.01 -1.02178 1.26742 0
M  V30 1833 O 201.199 -0.923097 1.52778 0
M  V30 1834 C 198.299 -1.66775 2.95024 0
M  V30 1835 C 197.472 -1.2445 4.19322 0
M  V30 1836 C 196.531 -2.30539 4.7301 0
M  V30 1837 O 195.557 -1.91702 5.35947 0
M  V30 1838 N 196.759 -3.6253 4.53379 0
M  V30 1839 H 199.524 0.142282 2.99362 0
M  V30 1840 H 197.085 0.2219 1.60372 0
M  V30 1841 H 199.077 -2.37283 3.27839 0
M  V30 1842 H 197.647 -2.18845 2.23217 0
M  V30 1843 H 196.867 -0.368069 3.92478 0
M  V30 1844 H 198.155 -0.938457 5.0007 0
M  V30 1845 H 197.553 -3.96841 4.03154 0
M  V30 1846 H 196.11 -4.29055 4.90668 0
M  V30 1847 N 199.544 -1.57102 0.125237 0
M  V30 1848 C 200.507 -2.14471 -0.80838 0
M  V30 1849 C 201.507 -1.0811 -1.19033 0
M  V30 1850 O 202.697 -1.33856 -1.11482 0
M  V30 1851 C 199.829 -2.69005 -2.09402 0
M  V30 1852 H 201.022 -2.98297 -0.309696 0
M  V30 1853 H 198.575 -1.55807 -0.124051 0
M  V30 1854 H 199.31 -1.88785 -2.63687 0
M  V30 1855 H 199.095 -3.46799 -1.82957 0
M  V30 1856 H 200.585 -3.13278 -2.76128 0
M  V30 1857 N 201.022 0.148545 -1.56898 0
M  V30 1858 C 202.268 0.862694 -1.83536 0
M  V30 1859 C 202.601 1.80889 -0.706604 0
M  V30 1860 O 201.876 1.92328 0.289885 0
M  V30 1861 C 202.159 1.63853 -3.20662 0
M  V30 1862 C 202.012 0.713925 -4.44098 0
M  V30 1863 C 203.331 2.60133 -3.54991 0
M  V30 1864 H 200.45 0.312179 -0.667618 0
M  V30 1865 H 203.092 0.127953 -1.89569 0
M  V30 1866 H 201.242 2.26489 -3.1565 0
M  V30 1867 H 202.914 0.098686 -4.61194 0
M  V30 1868 H 201.157 0.0234019 -4.33794 0
M  V30 1869 H 201.828 1.29278 -5.36648 0
M  V30 1870 H 204.304 2.07616 -3.60603 0
M  V30 1871 H 203.18 3.11468 -4.51972 0
M  V30 1872 H 203.441 3.41417 -2.80868 0
M  V30 1873 N 202.5 1.5196 0.417844 0
M  V30 1874 C 203.448 1.75278 1.52907 0
M  V30 1875 C 204.442 0.619611 1.57662 0
M  V30 1876 O 205.648 0.801457 1.61173 0
M  V30 1877 H 202.023 0.554141 0.508362 0
M  V30 1878 H 203.994 2.68389 1.30422 0
M  V30 1879 C 202.743 1.91262 2.90369 0
M  V30 1880 H 202.066 2.77872 2.8745 0
M  V30 1881 H 203.506 2.11581 3.67436 0
M  V30 1882 C 201.965 0.677431 3.30019 0
M  V30 1883 O 202.495 -0.158799 4.01386 0
M  V30 1884 N 200.701 0.515851 2.85985 0
M  V30 1885 H 200.248 1.19744 2.28077 0
M  V30 1886 H 200.206 -0.309315 3.12875 0
M  V30 1887 N 203.978 -0.674533 1.42435 0
M  V30 1888 C 205.203 -1.46784 1.46524 0
M  V30 1889 C 205.628 -1.87938 0.078066 0
M  V30 1890 O 204.986 -1.56014 -0.92354 0
M  V30 1891 C 205.034 -2.69307 2.39805 0
M  V30 1892 O 204.138 -3.67587 1.86959 0
M  V30 1893 H 203.479 -0.440959 0.496439 0
M  V30 1894 H 206.009 -0.827326 1.87127 0
M  V30 1895 H 206.019 -3.17374 2.56393 0
M  V30 1896 H 204.694 -2.38692 3.40586 0
M  V30 1897 H 203.271 -3.2662 1.79927 0
M  V30 1898 N 205.456 -1.28612 -0.910864 0
M  V30 1899 C 206.419 -1.12803 -1.9952 0
M  V30 1900 C 207.419 -0.0668264 -1.60661 0
M  V30 1901 O 208.609 -0.312847 -1.71368 0
M  V30 1902 C 205.741 -0.72254 -3.33155 0
M  V30 1903 H 206.934 -2.09109 -2.14973 0
M  V30 1904 H 204.487 -1.11639 -1.09391 0
M  V30 1905 H 205.222 0.241152 -3.23402 0
M  V30 1906 H 205.007 -1.48916 -3.62721 0
M  V30 1907 H 206.497 -0.634666 -4.12749 0
M  V30 1908 N 206.934 1.1197 -1.10907 0
M  V30 1909 C 208.162 1.87402 -0.876824 0
M  V30 1910 C 208.577 1.79894 0.573025 0
M  V30 1911 O 207.934 1.17629 1.39534 0
M  V30 1912 C 207.985 3.36428 -1.32282 0
M  V30 1913 O 207.706 3.43765 -2.71582 0
M  V30 1914 C 209.207 4.28783 -1.12518 0
M  V30 1915 H 206.427 0.592793 -0.314384 0
M  V30 1916 H 208.971 1.41649 -1.47499 0
M  V30 1917 H 207.126 3.79706 -0.768229 0
M  V30 1918 H 207.54 4.3652 -2.90776 0
M  V30 1919 H 209.014 5.31613 -1.48633 0
M  V30 1920 H 209.491 4.39153 -0.0642394 0
M  V30 1921 H 210.097 3.91291 -1.66648 0
M  V30 1922 N 208.412 0.89855 1.29475 0
M  V30 1923 C 209.637 0.538561 2.00285 0
M  V30 1924 C 210.062 -0.869135 1.66816 0
M  V30 1925 O 209.42 -1.57831 0.892145 0
M  V30 1926 C 209.468 0.736475 3.52999 0
M  V30 1927 O 208.572 -0.211537 4.11857 0
M  V30 1928 H 207.913 0.210563 0.62973 0
M  V30 1929 H 210.443 1.20982 1.64998 0
M  V30 1930 H 210.453 0.640685 4.02938 0
M  V30 1931 H 209.128 1.76276 3.76696 0
M  V30 1932 H 207.705 -0.0682991 3.72837 0
M  V30 1933 N 209.89 -1.43072 0.660911 0
M  V30 1934 C 211.306 -1.56169 0.329173 0
M  V30 1935 C 211.506 -1.64317 -1.16629 0
M  V30 1936 O 210.562 -1.60245 -1.95135 0
M  V30 1937 C 211.875 -2.81873 1.04729 0
M  V30 1938 C 213.423 -2.95627 1.02828 0
M  V30 1939 C 213.898 -4.24174 1.72744 0
M  V30 1940 N 215.389 -4.31055 1.69545 0
M  V30 1941 C 216.124 -5.29304 2.20511 0
M  V30 1942 N 215.62 -6.33786 2.79799 0
M  V30 1943 N 217.413 -5.21008 2.10966 0
M  V30 1944 H 209.564 -1.36027 1.63127 0
M  V30 1945 H 211.827 -0.653823 0.686454 0
M  V30 1946 H 211.533 -2.81942 2.10242 0
M  V30 1947 H 211.407 -3.72338 0.603702 0
M  V30 1948 H 213.794 -2.95094 -0.0184742 0
M  V30 1949 H 213.875 -2.06431 1.51063 0
M  V30 1950 H 213.519 -4.25467 2.7738 0
M  V30 1951 H 213.449 -5.1228 1.2197 0
M  V30 1952 H 215.94 -3.56174 1.26288 0
M  V30 1953 H 216.253 -7.05086 3.16344 0
M  V30 1954 H 214.598 -6.34387 2.83863 0
M  V30 1955 H 217.789 -4.38301 1.64347 0
M  V30 1956 H 217.962 -5.97416 2.50993 0
M  V30 1957 N 211.368 -0.403325 -1.52352 0
M  V30 1958 C 212.616 0.174003 -2.0135 0
M  V30 1959 C 212.937 1.46139 -1.29106 0
M  V30 1960 O 212.207 1.91448 -0.415253 0
M  V30 1961 H 210.787 0.0672911 -0.743963 0
M  V30 1962 H 213.449 -0.538235 -1.87321 0
M  V30 1963 H 212.545 0.374254 -3.09848 0
M  V30 1964 N 212.846 1.57033 -0.133567 0
M  V30 1965 C 214.092 1.95976 0.521649 0
M  V30 1966 C 214.425 1.01779 1.65393 0
M  V30 1967 O 213.7 0.0576581 1.94415 0
M  V30 1968 C 213.983 3.44738 1.04057 0
M  V30 1969 C 213.836 4.49711 -0.0892897 0
M  V30 1970 C 215.155 3.95682 1.92675 0
M  V30 1971 H 212.274 0.712579 0.188149 0
M  V30 1972 H 214.916 1.88813 -0.212076 0
M  V30 1973 H 213.066 3.50973 1.66583 0
M  V30 1974 H 214.738 4.55565 -0.725152 0
M  V30 1975 H 212.981 4.27261 -0.750378 0
M  V30 1976 H 213.652 5.51099 0.315284 0
M  V30 1977 H 216.128 3.91841 1.39998 0
M  V30 1978 H 215.004 5.00262 2.25897 0
M  V30 1979 H 215.265 3.37239 2.85872 0
M  V30 1980 N 214.325 -0.140222 1.56975 0
M  V30 1981 C 215.255 -1.17456 2.01808 0
M  V30 1982 C 216.236 -1.44415 0.898794 0
M  V30 1983 O 217.421 -1.5522 1.16707 0
M  V30 1984 C 214.551 -2.50607 2.40444 0
M  V30 1985 C 213.505 -2.38155 3.55621 0
M  V30 1986 C 212.831 -3.76078 3.80091 0
M  V30 1987 C 214.131 -1.85991 4.88062 0
M  V30 1988 H 215.825 -0.801743 2.88466 0
M  V30 1989 H 213.371 -0.38422 1.38779 0
M  V30 1990 H 215.324 -3.23197 2.7041 0
M  V30 1991 H 214.048 -2.89737 1.50732 0
M  V30 1992 H 212.707 -1.68016 3.25832 0
M  V30 1993 H 212.355 -4.12656 2.87618 0
M  V30 1994 H 212.055 -3.68606 4.57606 0
M  V30 1995 H 213.579 -4.50206 4.12488 0
M  V30 1996 H 214.993 -2.4838 5.16701 0
M  V30 1997 H 213.39 -1.89393 5.6943 0
M  V30 1998 H 214.46 -0.816023 4.77984 0
M  V30 1999 N 215.803 -1.52179 -0.40978 0
M  V30 2000 C 217.049 -1.66453 -1.15851 0
M  V30 2001 C 217.382 -0.392972 -1.90182 0
M  V30 2002 O 216.657 0.608579 -1.84734 0
M  V30 2003 C 216.94 -2.88612 -2.15349 0
M  V30 2004 C 216.793 -4.25815 -1.44918 0
M  V30 2005 C 218.112 -3.06294 -3.16026 0
M  V30 2006 H 215.231 -0.60575 -0.419805 0
M  V30 2007 H 217.873 -1.84732 -0.444314 0
M  V30 2008 H 216.023 -2.73158 -2.76255 0
M  V30 2009 H 217.695 -4.52995 -0.871365 0
M  V30 2010 H 215.938 -4.27247 -0.751159 0
M  V30 2011 H 216.609 -5.07337 -2.17516 0
M  V30 2012 H 219.085 -3.20641 -2.65195 0
M  V30 2013 H 217.961 -3.93283 -3.8291 0
M  V30 2014 H 218.222 -2.19579 -3.83715 0
M  V30 2015 N 217.281 0.66697 -1.42791 0
M  V30 2016 C 218.527 1.4291 -1.43891 0
M  V30 2017 C 218.86 1.94114 -0.0578972 0
M  V30 2018 O 218.135 1.71414 0.91911 0
M  V30 2019 C 218.418 2.62049 -2.46987 0
M  V30 2020 C 218.271 2.16426 -3.94309 0
M  V30 2021 C 219.59 3.64266 -2.46978 0
M  V30 2022 H 216.709 0.518306 -0.523954 0
M  V30 2023 H 219.351 0.757321 -1.74255 0
M  V30 2024 H 217.501 3.19361 -2.21225 0
M  V30 2025 H 219.173 1.64221 -4.31079 0
M  V30 2026 H 217.416 1.47925 -4.078 0
M  V30 2027 H 218.087 3.02038 -4.62036 0
M  V30 2028 H 220.563 3.16686 -2.69906 0
M  V30 2029 H 219.439 4.45196 -3.21079 0
M  V30 2030 H 219.7 4.15927 -1.49857 0
M  V30 2031 N 218.759 1.29093 0.90403 0
M  V30 2032 C 219.722 1.1386 1.98919 0
M  V30 2033 C 220.722 0.0753457 1.60623 0
M  V30 2034 O 221.912 0.321931 1.71199 0
M  V30 2035 C 219.044 0.740198 3.32767 0
M  V30 2036 H 220.237 2.10246 2.13861 0
M  V30 2037 H 217.79 1.12218 1.08797 0
M  V30 2038 H 218.525 -0.223997 3.23525 0
M  V30 2039 H 218.31 1.50838 3.61926 0
M  V30 2040 H 219.8 0.656546 4.12407 0
M  V30 2041 N 220.237 -1.11381 1.11499 0
M  V30 2042 C 221.2 -2.15622 0.777153 0
M  V30 2043 C 222.2 -1.59504 -0.203779 0
M  V30 2044 O 223.39 -1.74188 0.020782 0
M  V30 2045 C 220.522 -3.40556 0.153116 0
M  V30 2046 H 221.715 -2.47021 1.70061 0
M  V30 2047 H 219.268 -1.26577 0.916952 0
M  V30 2048 H 220.003 -3.14767 -0.780536 0
M  V30 2049 H 219.788 -3.8257 0.859238 0
M  V30 2050 H 221.278 -4.17546 -0.0671044 0
M  V30 2051 N 221.715 -0.905404 -1.28997 0
M  V30 2052 C 222.94 -0.549175 -1.99997 0
M  V30 2053 C 223.365 0.860276 -1.67275 0
M  V30 2054 O 222.723 1.57355 -0.900502 0
M  V30 2055 C 222.771 -0.755185 -3.52604 0
M  V30 2056 O 221.875 0.189692 -4.11964 0
M  V30 2057 H 221.216 -0.213899 -0.628604 0
M  V30 2058 H 223.746 -1.21856 -1.64354 0
M  V30 2059 H 223.756 -0.662045 -4.02593 0
M  V30 2060 H 222.431 -1.78271 -3.75755 0
M  V30 2061 H 221.008 0.0485257 -3.72868 0
M  V30 2062 N 223.193 1.4272 -0.668489 0
M  V30 2063 C 224.441 2.01226 -0.187769 0
M  V30 2064 C 224.762 1.53092 1.2078 0
M  V30 2065 O 224.032 0.74993 1.80977 0
M  V30 2066 H 222.612 0.744041 -0.0664272 0
M  V30 2067 H 225.274 1.74723 -0.863583 0
M  V30 2068 H 224.37 3.11556 -0.184166 0
M  V30 2069 N 224.671 0.411399 1.52136 0
M  V30 2070 C 225.619 -0.427633 2.28635 0
M  V30 2071 C 226.613 -1.04383 1.33419 0
M  V30 2072 O 227.819 -0.981772 1.50868 0
M  V30 2073 H 224.194 -0.156689 0.735495 0
M  V30 2074 H 226.165 0.238761 2.97443 0
M  V30 2075 C 224.914 -1.53082 3.12188 0
M  V30 2076 H 224.237 -1.06601 3.85326 0
M  V30 2077 H 225.677 -2.09167 3.68816 0
M  V30 2078 C 224.136 -2.49946 2.25895 0
M  V30 2079 O 224.666 -3.53884 1.90076 0
M  V30 2080 N 222.872 -2.2021 1.8962 0
M  V30 2081 H 222.419 -1.35719 2.18948 0
M  V30 2082 H 222.377 -2.85266 1.32176 0
M  V30 2083 N 226.149 -1.5696 0.141893 0
M  V30 2084 C 227.374 -2.00754 -0.520838 0
M  V30 2085 C 227.799 -1.0213 -1.57959 0
M  V30 2086 O 227.157 0.00371324 -1.813 0
M  V30 2087 C 227.205 -3.43318 -1.10294 0
M  V30 2088 O 226.309 -3.47679 -2.21795 0
M  V30 2089 H 225.65 -0.651564 -0.127908 0
M  V30 2090 H 228.18 -2.03221 0.23712 0
M  V30 2091 H 228.19 -3.82012 -1.43287 0
M  V30 2092 H 226.865 -4.14608 -0.327574 0
M  V30 2093 H 225.442 -3.20824 -1.9007 0
M  V30 2094 N 227.627 0.131896 -1.57047 0
M  V30 2095 C 228.875 0.840269 -1.83804 0
M  V30 2096 C 229.196 1.81017 -0.72512 0
M  V30 2097 O 228.466 1.94272 0.251995 0
M  V30 2098 H 227.046 0.313294 -0.678127 0
M  V30 2099 H 229.708 0.122294 -1.94516 0
M  V30 2100 H 228.804 1.39335 -2.79271 0
M  V30 2101 N 229.106 1.52395 0.401703 0
M  V30 2102 C 230.069 1.75636 1.47257 0
M  V30 2103 C 231.069 0.62628 1.48103 0
M  V30 2104 O 232.259 0.894227 1.49497 0
M  V30 2105 C 229.391 1.84553 2.86624 0
M  V30 2106 H 230.584 2.71241 1.27938 0
M  V30 2107 H 228.137 1.42923 0.632662 0
M  V30 2108 H 228.872 0.908882 3.11303 0
M  V30 2109 H 228.657 2.66715 2.87412 0
M  V30 2110 H 230.147 2.04251 3.64241 0
M  V30 2111 N 230.584 -0.659388 1.43143 0
M  V30 2112 C 231.832 -1.41654 1.44147 0
M  V30 2113 C 232.153 -1.94893 0.0645739 0
M  V30 2114 O 231.423 -1.74044 -0.899198 0
M  V30 2115 H 230.003 -0.525708 0.530697 0
M  V30 2116 H 232.665 -0.778097 1.78694 0
M  V30 2117 H 231.761 -2.26195 2.1504 0
M  V30 2118 N 232.062 -1.29571 -0.897171 0
M  V30 2119 C 233.287 -1.20705 -1.68656 0
M  V30 2120 C 233.712 0.228582 -1.86706 0
M  V30 2121 O 233.07 1.16494 -1.3892 0
M  V30 2122 C 233.118 -1.9282 -3.04717 0
M  V30 2123 O 232.222 -1.24697 -3.93096 0
M  V30 2124 H 231.563 -0.418126 -0.515816 0
M  V30 2125 H 234.093 -1.71183 -1.12061 0
M  V30 2126 H 234.103 -2.01372 -3.54843 0
M  V30 2127 H 232.778 -2.97239 -2.90899 0
M  V30 2128 H 231.355 -1.2442 -3.51531 0
M  V30 2129 N 233.54 1.10788 -1.12088 0
M  V30 2130 C 234.789 1.82036 -0.868659 0
M  V30 2131 C 235.102 1.85929 0.607426 0
M  V30 2132 O 236.308 2.53346 0.97613 0
M  V30 2133 C 234.764 3.26951 -1.50435 0
M  V30 2134 C 234.372 3.31367 -3.01496 0
M  V30 2135 C 236.116 4.03053 -1.33225 0
M  V30 2136 C 234.023 4.7072 -3.58017 0
M  V30 2137 H 232.953 0.682108 -0.321318 0
M  V30 2138 H 235.604 1.24618 -1.34694 0
M  V30 2139 H 233.986 3.84343 -0.953735 0
M  V30 2140 H 235.16 2.83819 -3.6302 0
M  V30 2141 H 233.475 2.6875 -3.18061 0
M  V30 2142 H 236.072 5.05981 -1.72878 0
M  V30 2143 H 236.415 4.15387 -0.275529 0
M  V30 2144 H 236.948 3.52066 -1.85188 0
M  V30 2145 H 233.687 4.63585 -4.63432 0
M  V30 2146 H 233.207 5.1865 -3.01268 0
M  V30 2147 H 234.886 5.39685 -3.56859 0
M  V30 2148 N 235.018 0.912232 1.28515 0
M  V30 2149 C 236.243 0.559774 1.99703 0
M  V30 2150 C 236.668 -0.851393 1.67729 0
M  V30 2151 O 236.026 -1.56875 0.908834 0
M  V30 2152 C 236.074 0.773874 3.52198 0
M  V30 2153 O 235.178 -0.167842 4.12058 0
M  V30 2154 H 234.519 0.21723 0.627461 0
M  V30 2155 H 237.049 1.22725 1.63706 0
M  V30 2156 H 237.059 0.683386 4.02236 0
M  V30 2157 H 235.734 1.80261 3.74805 0
M  V30 2158 H 234.311 -0.0287509 3.72889 0
M  V30 2159 N 236.496 -1.42363 0.676048 0
M  V30 2160 C 237.726 -2.05561 0.206967 0
M  V30 2161 C 238.134 -1.50887 -1.14148 0
M  V30 2162 O 237.477 -0.643933 -1.72044 0
M  V30 2163 C 237.539 -3.5944 0.0659508 0
M  V30 2164 C 237.203 -4.36812 1.34331 0
M  V30 2165 C 238.2 -4.67383 2.27704 0
M  V30 2166 C 235.885 -4.76429 1.59125 0
M  V30 2167 C 237.879 -5.36509 3.44147 0
M  V30 2168 C 235.566 -5.45294 2.75857 0
M  V30 2169 C 236.564 -5.75259 3.68193 0
M  V30 2170 O 236.252 -6.42712 4.82883 0
M  V30 2171 H 235.984 -0.668872 0.0979084 0
M  V30 2172 H 238.538 -1.83467 0.923531 0
M  V30 2173 H 236.768 -3.80197 -0.706204 0
M  V30 2174 H 238.457 -4.0427 -0.363418 0
M  V30 2175 H 239.223 -4.37275 2.09799 0
M  V30 2176 H 235.102 -4.52498 0.881258 0
M  V30 2177 H 238.646 -5.59814 4.16238 0
M  V30 2178 H 234.543 -5.7482 2.93688 0
M  V30 2179 H 235.311 -6.61204 4.82444 0
M  V30 2180 N 237.974 -0.419461 -1.51915 0
M  V30 2181 C 239.385 0.0477853 -1.86639 0
M  V30 2182 C 239.736 1.43531 -1.33766 0
M  V30 2183 O 238.861 2.05401 -0.68113 0
M  V30 2184 C 239.456 0.0934885 -3.38671 0
M  V30 2185 C 238.015 0.505097 -3.72996 0
M  V30 2186 C 237.162 -0.313792 -2.75519 0
M  V30 2187 H 240.113 -0.636088 -1.45395 0
M  V30 2188 H 240.134 0.906667 -3.6954 0
M  V30 2189 H 239.646 -0.916501 -3.77123 0
M  V30 2190 H 237.747 1.52135 -3.40126 0
M  V30 2191 H 237.86 0.242309 -4.78487 0
M  V30 2192 H 236.224 0.225363 -2.53701 0
M  V30 2193 H 237.007 -1.32232 -3.16812 0
M  V30 2194 N 239.452 1.56882 -0.150215 0
M  V30 2195 C 240.415 2.1573 0.774157 0
M  V30 2196 C 241.415 1.0999 1.17298 0
M  V30 2197 O 242.605 1.35613 1.09338 0
M  V30 2198 C 239.737 2.72302 2.05096 0
M  V30 2199 H 240.93 2.98752 0.262201 0
M  V30 2200 H 238.483 1.55985 0.099248 0
M  V30 2201 H 239.218 1.92956 2.6065 0
M  V30 2202 H 239.003 3.49665 1.77416 0
M  V30 2203 H 240.493 3.17632 2.71109 0
M  V30 2204 N 240.93 -0.123565 1.57115 0
M  V30 2205 C 242.346 -0.476961 1.52306 0
M  V30 2206 C 242.546 -1.82109 0.86248 0
M  V30 2207 O 241.602 -2.48586 0.442884 0
M  V30 2208 C 242.915 -0.465661 2.97073 0
M  V30 2209 C 244.463 -0.549534 3.08138 0
M  V30 2210 C 244.938 -0.568669 4.54456 0
M  V30 2211 N 246.429 -0.630237 4.58892 0
M  V30 2212 C 247.164 -0.666415 5.69514 0
M  V30 2213 N 246.66 -0.660514 6.89644 0
M  V30 2214 N 248.453 -0.709077 5.5761 0
M  V30 2215 H 240.604 0.757198 1.98445 0
M  V30 2216 H 242.867 0.278808 0.906074 0
M  V30 2217 H 242.573 0.454232 3.48754 0
M  V30 2218 H 242.447 -1.29513 3.54269 0
M  V30 2219 H 244.834 -1.45985 2.56461 0
M  V30 2220 H 244.915 0.307532 2.53945 0
M  V30 2221 H 244.559 0.337581 5.06777 0
M  V30 2222 H 244.489 -1.44256 5.06456 0
M  V30 2223 H 246.98 -0.641146 3.72421 0
M  V30 2224 H 247.293 -0.690616 7.69708 0
M  V30 2225 H 245.638 -0.628012 6.92157 0
M  V30 2226 H 248.829 -0.711019 4.62668 0
M  V30 2227 H 249.002 -0.733804 6.43832 0
M  V30 2228 N 242.408 -1.52605 -0.393616 0
M  V30 2229 C 243.638 -1.71046 -1.15874 0
M  V30 2230 C 244.046 -0.426483 -1.84331 0
M  V30 2231 O 243.389 0.608513 -1.73329 0
M  V30 2232 C 243.451 -2.80118 -2.25332 0
M  V30 2233 C 243.115 -4.21381 -1.76881 0
M  V30 2234 C 244.112 -5.04697 -1.24808 0
M  V30 2235 C 241.797 -4.67683 -1.83244 0
M  V30 2236 C 243.791 -6.32393 -0.797387 0
M  V30 2237 C 241.478 -5.95364 -1.37787 0
M  V30 2238 C 242.476 -6.77549 -0.861208 0
M  V30 2239 O 242.164 -8.02837 -0.413252 0
M  V30 2240 H 241.896 -0.576155 -0.353583 0
M  V30 2241 H 244.45 -2.00018 -0.467123 0
M  V30 2242 H 242.68 -2.46557 -2.97904 0
M  V30 2243 H 244.369 -2.87006 -2.87023 0
M  V30 2244 H 245.135 -4.70111 -1.19252 0
M  V30 2245 H 241.014 -4.03805 -2.22401 0
M  V30 2246 H 244.558 -6.9649 -0.393437 0
M  V30 2247 H 240.455 -6.29455 -1.43026 0
M  V30 2248 H 241.223 -8.16749 -0.53515 0
M  V30 2249 N 243.887 0.651787 -1.4349 0
M  V30 2250 C 244.85 1.74647 -1.48429 0
M  V30 2251 C 245.85 1.56513 -0.368817 0
M  V30 2252 O 247.04 1.62385 -0.630623 0
M  V30 2253 C 244.172 3.13533 -1.33827 0
M  V30 2254 H 245.365 1.71649 -2.4592 0
M  V30 2255 H 242.918 0.863573 -1.30277 0
M  V30 2256 H 243.653 3.22142 -0.37349 0
M  V30 2257 H 243.438 3.28101 -2.14691 0
M  V30 2258 H 244.928 3.93356 -1.40218 0
M  V30 2259 N 245.365 1.30045 0.890287 0
M  V30 2260 C 246.313 1.15873 2.01683 0
M  V30 2261 C 247.307 0.0719403 1.69247 0
M  V30 2262 O 248.513 0.232414 1.78493 0
M  V30 2263 H 244.888 0.358203 0.661207 0
M  V30 2264 H 246.859 2.11229 2.10772 0
M  V30 2265 C 245.608 0.861842 3.36849 0
M  V30 2266 H 244.931 1.69016 3.62317 0
M  V30 2267 H 246.371 0.802762 4.16331 0
M  V30 2268 C 244.83 -0.435132 3.34078 0
M  V30 2269 O 245.36 -1.4583 3.74295 0
M  V30 2270 N 243.566 -0.444377 2.87182 0
M  V30 2271 H 243.113 0.388723 2.5465 0
M  V30 2272 H 243.071 -1.31213 2.85711 0
M  V30 2273 N 246.843 -1.10192 1.12674 0
M  V30 2274 C 247.806 -2.14786 0.799979 0
M  V30 2275 C 248.806 -1.59711 -0.18685 0
M  V30 2276 O 249.996 -1.74156 0.0392558 0
M  V30 2277 C 247.128 -3.40374 0.189228 0
M  V30 2278 H 248.321 -2.45203 1.72671 0
M  V30 2279 H 245.874 -1.25597 0.930326 0
M  V30 2280 H 246.609 -3.15577 -0.747107 0
M  V30 2281 H 246.394 -3.81637 0.899766 0
M  V30 2282 H 247.884 -4.17594 -0.0228143 0
M  V30 2283 N 248.321 -0.919034 -1.28029 0
M  V30 2284 C 249.254 -0.355887 -2.25408 0
M  V30 2285 C 250.232 0.542874 -1.5327 0
M  V30 2286 O 251.416 0.485338 -1.82145 0
M  V30 2287 C 248.543 0.490759 -3.35126 0
M  V30 2288 C 247.589 -0.343358 -4.25116 0
M  V30 2289 S 248.422 -1.75344 -5.05979 0
M  V30 2290 C 249.578 -0.914244 -6.19187 0
M  V30 2291 H 249.811 -1.18123 -2.72826 0
M  V30 2292 H 247.344 -0.720636 -1.36551 0
M  V30 2293 H 249.302 0.973404 -3.98792 0
M  V30 2294 H 247.963 1.29054 -2.86363 0
M  V30 2295 H 247.156 0.304266 -5.03081 0
M  V30 2296 H 246.758 -0.759851 -3.662 0
M  V30 2297 H 249.05 -0.146282 -6.77342 0
M  V30 2298 H 249.993 -1.66661 -6.88208 0
M  V30 2299 H 250.401 -0.460082 -5.62622 0
M  V30 2300 N 249.799 1.42003 -0.683588 0
M  V30 2301 C 250.762 2.29191 -0.0198243 0
M  V30 2302 C 251.762 1.43773 0.72013 0
M  V30 2303 O 252.952 1.65061 0.556815 0
M  V30 2304 C 250.084 3.26435 0.982487 0
M  V30 2305 H 251.277 2.8938 -0.787345 0
M  V30 2306 H 248.83 1.49789 -0.446418 0
M  V30 2307 H 249.565 2.71203 1.77819 0
M  V30 2308 H 249.35 3.89449 0.455182 0
M  V30 2309 H 250.84 3.918 1.44508 0
M  V30 2310 N 251.277 0.427512 1.51691 0
M  V30 2311 C 252.523 -0.142439 2.02299 0
M  V30 2312 C 252.856 -1.43214 1.31162 0
M  V30 2313 O 252.131 -1.89833 0.423511 0
M  V30 2314 C 252.414 -0.371301 3.58181 0
M  V30 2315 C 252.267 0.936358 4.39946 0
M  V30 2316 C 253.586 -1.14542 4.24933 0
M  V30 2317 H 250.705 -0.0502937 0.735282 0
M  V30 2318 H 253.347 0.564584 1.81418 0
M  V30 2319 H 251.497 -0.973559 3.76104 0
M  V30 2320 H 253.169 1.57184 4.33694 0
M  V30 2321 H 251.412 1.5432 4.05423 0
M  V30 2322 H 252.083 0.730388 5.47147 0
M  V30 2323 H 254.559 -0.635362 4.11221 0
M  V30 2324 H 253.435 -1.27431 5.33903 0
M  V30 2325 H 253.696 -2.17093 3.85127 0
M  V30 2326 N 252.755 -1.56801 0.158532 0
M  V30 2327 C 254.003 -1.96102 -0.488712 0
M  V30 2328 C 254.324 -1.04498 -1.64636 0
M  V30 2329 O 253.594 -0.108783 -1.95598 0
M  V30 2330 H 252.174 -0.724102 -0.183535 0
M  V30 2331 H 254.836 -1.93457 0.236728 0
M  V30 2332 H 253.932 -3.00097 -0.857219 0
M  V30 2333 N 254.233 0.115231 -1.57178 0
M  V30 2334 C 255.196 1.12526 -1.99676 0
M  V30 2335 C 256.196 1.34095 -0.88742 0
M  V30 2336 O 257.386 1.30548 -1.15337 0
M  V30 2337 C 254.518 2.4789 -2.34015 0
M  V30 2338 H 255.711 0.759912 -2.90113 0
M  V30 2339 H 253.264 0.359648 -1.52106 0
M  V30 2340 H 253.999 2.89339 -1.4647 0
M  V30 2341 H 253.784 2.33588 -3.14927 0
M  V30 2342 H 255.274 3.20575 -2.67622 0
M  V30 2343 N 255.711 1.52812 0.385517 0
M  V30 2344 C 256.939 1.71907 1.15133 0
M  V30 2345 C 257.354 0.439004 1.83625 0
M  V30 2346 O 256.711 -0.586765 1.7281 0
M  V30 2347 C 256.762 2.87099 2.19673 0
M  V30 2348 O 256.483 4.10151 1.53973 0
M  V30 2349 C 257.984 3.17902 3.08955 0
M  V30 2350 H 255.204 0.575479 0.345057 0
M  V30 2351 H 257.748 1.99476 0.45052 0
M  V30 2352 H 255.903 2.61982 2.85384 0
M  V30 2353 H 256.317 4.74514 2.23465 0
M  V30 2354 H 257.791 4.01959 3.7833 0
M  V30 2355 H 258.268 2.3243 3.72657 0
M  V30 2356 H 258.874 3.44871 2.48885 0
M  V30 2357 N 257.189 -0.644168 1.43834 0
M  V30 2358 C 258.466 -1.40188 1.36406 0
M  V30 2359 C 258.846 -2.11094 0.0163124 0
M  V30 2360 O 258.194 -2.05426 -1.00062 0
M  V30 2361 C 258.404 -2.3791 2.55343 0
M  V30 2362 C 259.752 -3.01637 2.98832 0
M  V30 2363 O 260.776 -2.48237 2.55455 0
M  V30 2364 O 259.635 -3.98477 3.74003 0
M  V30 2365 H 256.729 -0.626773 0.539523 0
M  V30 2366 H 259.275 -0.670317 1.559 0
M  V30 2367 H 258.047 -1.84525 3.4506 0
M  V30 2368 H 257.67 -3.18503 2.37995 0
M  V30 2369 N 258.668 -1.30515 -0.883378 0
M  V30 2370 C 259.6 -1.12846 -1.99496 0
M  V30 2371 C 260.613 -0.0712571 -1.62644 0
M  V30 2372 O 261.802 -0.317432 -1.75655 0
M  V30 2373 C 258.902 -0.699123 -3.3161 0
M  V30 2374 C 258.075 -1.83842 -3.96889 0
M  V30 2375 C 257.134 -1.39737 -5.07307 0
M  V30 2376 O 256.16 -2.10485 -5.28852 0
M  V30 2377 N 257.362 -0.277279 -5.79837 0
M  V30 2378 H 260.127 -2.08585 -2.15203 0
M  V30 2379 H 257.688 -1.22672 -1.05656 0
M  V30 2380 H 259.68 -0.387044 -4.02845 0
M  V30 2381 H 258.25 0.166276 -3.12157 0
M  V30 2382 H 257.47 -2.31853 -3.18807 0
M  V30 2383 H 258.758 -2.60187 -4.37241 0
M  V30 2384 H 258.156 0.3122 -5.64838 0
M  V30 2385 H 256.713 -0.0246623 -6.51795 0
M  V30 2386 N 260.146 1.09593 -1.13257 0
M  V30 2387 C 261.094 2.18271 -0.803783 0
M  V30 2388 C 262.088 1.68054 0.213148 0
M  V30 2389 O 263.294 1.79862 0.0704699 0
M  V30 2390 H 259.669 0.711949 -0.242143 0
M  V30 2391 H 261.64 2.43235 -1.72856 0
M  V30 2392 C 260.389 3.46536 -0.28424 0
M  V30 2393 H 259.712 3.85545 -1.05807 0
M  V30 2394 H 261.152 4.23899 -0.0925945 0
M  V30 2395 C 259.611 3.22036 0.989684 0
M  V30 2396 O 260.141 3.44509 2.06584 0
M  V30 2397 N 258.347 2.7565 0.920086 0
M  V30 2398 H 257.894 2.57562 0.0442019 0
M  V30 2399 H 257.852 2.59635 1.77306 0
M  V30 2400 N 261.624 0.925811 1.2754 0
M  V30 2401 C 262.572 0.413897 2.28888 0
M  V30 2402 C 263.566 -0.500779 1.61829 0
M  V30 2403 O 264.772 -0.38069 1.75928 0
M  V30 2404 H 261.147 0.115274 0.743112 0
M  V30 2405 H 263.118 1.28151 2.69481 0
M  V30 2406 C 261.867 -0.319792 3.46226 0
M  V30 2407 H 261.19 0.374846 3.98039 0
M  V30 2408 H 262.63 -0.642435 4.19105 0
M  V30 2409 C 261.089 -1.53209 3.00048 0
M  V30 2410 O 261.619 -2.6309 3.03557 0
M  V30 2411 N 259.825 -1.38326 2.55566 0
M  V30 2412 H 259.372 -0.489292 2.5291 0
M  V30 2413 H 259.33 -2.19564 2.25031 0
M  V30 2414 N 263.102 -1.41638 0.69111 0
M  V30 2415 C 264.05 -2.32597 0.0115199 0
M  V30 2416 C 265.044 -1.5072 -0.773296 0
M  V30 2417 O 266.25 -1.66685 -0.67942 0
M  V30 2418 H 262.625 -0.751849 -0.0150746 0
M  V30 2419 H 264.596 -2.87593 0.795791 0
M  V30 2420 C 263.345 -3.35467 -0.914172 0
M  V30 2421 H 262.668 -3.9852 -0.319687 0
M  V30 2422 H 264.108 -4.01662 -1.35808 0
M  V30 2423 C 262.567 -2.69004 -2.02826 0
M  V30 2424 O 263.097 -2.53444 -3.11655 0
M  V30 2425 N 261.303 -2.2777 -1.80469 0
M  V30 2426 H 260.85 -2.40626 -0.919615 0
M  V30 2427 H 260.808 -1.83635 -2.55197 0
M  V30 2428 N 264.58 -0.43555 -1.51462 0
M  V30 2429 C 265.996 -0.0877501 -1.59359 0
M  V30 2430 C 266.196 1.4027 -1.4466 0
M  V30 2431 O 265.252 2.17243 -1.28693 0
M  V30 2432 C 266.565 -0.606264 -2.94525 0
M  V30 2433 C 268.113 -0.566548 -3.0783 0
M  V30 2434 C 268.588 -1.06201 -4.45517 0
M  V30 2435 N 270.079 -1.01992 -4.51832 0
M  V30 2436 C 270.814 -1.37417 -5.5669 0
M  V30 2437 N 270.31 -1.80119 -6.68976 0
M  V30 2438 N 272.103 -1.29245 -5.47039 0
M  V30 2439 H 264.254 -1.40533 -1.59261 0
M  V30 2440 H 266.517 -0.578992 -0.750648 0
M  V30 2441 H 266.223 -1.64901 -3.10645 0
M  V30 2442 H 266.097 -0.0302097 -3.77188 0
M  V30 2443 H 268.484 0.467208 -2.91378 0
M  V30 2444 H 268.565 -1.17898 -2.2701 0
M  V30 2445 H 268.209 -2.09422 -4.62715 0
M  V30 2446 H 268.139 -0.426127 -5.24873 0
M  V30 2447 H 270.63 -0.706308 -3.71241 0
M  V30 2448 H 270.943 -2.05392 -7.45006 0
M  V30 2449 H 269.288 -1.84044 -6.70189 0
M  V30 2450 H 272.479 -0.957522 -4.58202 0
M  V30 2451 H 272.652 -1.57182 -6.28648 0
M  V30 2452 N 266.058 1.56714 -0.166846 0
M  V30 2453 C 267.021 2.16539 0.751232 0
M  V30 2454 C 268.021 1.11228 1.16125 0
M  V30 2455 O 269.211 1.36765 1.07894 0
M  V30 2456 C 266.343 2.74462 2.02196 0
M  V30 2457 H 267.536 2.99013 0.230499 0
M  V30 2458 H 265.089 1.56081 0.0826982 0
M  V30 2459 H 265.824 1.95709 2.58589 0
M  V30 2460 H 265.609 3.51527 1.73698 0
M  V30 2461 H 267.099 3.20489 2.67725 0
M  V30 2462 N 267.536 -0.106894 1.57237 0
M  V30 2463 C 268.761 -0.830287 1.90055 0
M  V30 2464 C 269.186 -1.72064 0.75998 0
M  V30 2465 O 268.544 -1.78982 -0.288991 0
M  V30 2466 C 268.592 -1.6295 3.21683 0
M  V30 2467 O 267.696 -2.73748 3.08441 0
M  V30 2468 H 267.037 -0.228855 0.623315 0
M  V30 2469 H 269.567 -0.085658 2.04421 0
M  V30 2470 H 269.577 -2.01621 3.54701 0
M  V30 2471 H 268.252 -0.975989 4.04286 0
M  V30 2472 H 266.829 -2.38192 2.86913 0
M  V30 2473 N 269.014 -1.53014 -0.377408 0
M  V30 2474 C 270.261 -1.68623 -1.12128 0
M  V30 2475 C 270.589 -0.431997 -1.89642 0
M  V30 2476 O 269.844 0.585855 -1.86725 0
M  V30 2477 C 270.143 -2.87982 -2.11663 0
M  V30 2478 C 269.809 -4.24964 -1.50719 0
M  V30 2479 C 268.471 -4.62217 -1.33825 0
M  V30 2480 C 270.823 -5.10199 -1.06519 0
M  V30 2481 C 268.151 -5.82352 -0.712963 0
M  V30 2482 C 270.503 -6.30969 -0.453955 0
M  V30 2483 C 269.167 -6.66944 -0.272411 0
M  V30 2484 H 268.437 -0.617034 -0.410305 0
M  V30 2485 H 271.084 -1.8718 -0.404484 0
M  V30 2486 H 269.389 -2.63889 -2.89603 0
M  V30 2487 H 271.086 -2.97253 -2.6915 0
M  V30 2488 H 267.676 -3.95626 -1.64858 0
M  V30 2489 H 271.86 -4.81978 -1.18368 0
M  V30 2490 H 267.116 -6.08824 -0.560611 0
M  V30 2491 H 271.29 -6.96324 -0.103217 0
M  V30 2492 H 268.917 -7.59898 0.214181 0
M  V30 2493 N 270.492 0.636531 -1.44174 0
M  V30 2494 C 271.717 1.42847 -1.50364 0
M  V30 2495 C 272.142 1.87665 -0.127867 0
M  V30 2496 O 271.5 1.58408 0.88185 0
M  V30 2497 C 271.548 2.62854 -2.4686 0
M  V30 2498 O 270.652 3.62501 -1.9664 0
M  V30 2499 H 269.993 0.427642 -0.507955 0
M  V30 2500 H 272.523 0.777422 -1.89255 0
M  V30 2501 H 272.533 3.10465 -2.64718 0
M  V30 2502 H 271.208 2.29578 -3.46795 0
M  V30 2503 H 269.785 3.21735 -1.88523 0
M  V30 2504 N 271.97 1.30982 0.876444 0
M  V30 2505 C 272.902 1.13902 1.98894 0
M  V30 2506 C 273.915 0.0798815 1.62604 0
M  V30 2507 O 275.104 0.326743 1.75484 0
M  V30 2508 C 272.204 0.716699 3.31235 0
M  V30 2509 C 271.377 1.85945 3.95908 0
M  V30 2510 C 270.436 1.42426 5.06558 0
M  V30 2511 O 269.462 2.13287 5.27729 0
M  V30 2512 N 270.664 0.308025 5.79682 0
M  V30 2513 H 273.429 2.09724 2.14094 0
M  V30 2514 H 270.99 1.2323 1.05004 0
M  V30 2515 H 272.982 0.408403 4.02634 0
M  V30 2516 H 271.552 -0.149719 3.12241 0
M  V30 2517 H 270.772 2.33541 3.17573 0
M  V30 2518 H 272.06 2.62503 4.35855 0
M  V30 2519 H 271.458 -0.282241 5.64995 0
M  V30 2520 H 270.015 0.0592282 6.51773 0
M  V30 2521 N 273.449 -1.08991 1.13837 0
M  V30 2522 C 274.679 -1.84743 0.924859 0
M  V30 2523 C 275.087 -1.81629 -0.529874 0
M  V30 2524 O 274.43 -1.21397 -1.37872 0
M  V30 2525 C 274.492 -3.33568 1.34061 0
M  V30 2526 C 274.156 -3.60425 2.80968 0
M  V30 2527 C 275.153 -3.55771 3.79108 0
M  V30 2528 C 272.838 -3.88627 3.18236 0
M  V30 2529 C 274.832 -3.78939 5.12527 0
M  V30 2530 C 272.519 -4.11449 4.51833 0
M  V30 2531 C 273.517 -4.06598 5.48787 0
M  V30 2532 O 273.205 -4.28826 6.79973 0
M  V30 2533 H 272.937 -0.590258 0.329502 0
M  V30 2534 H 275.491 -1.38598 1.51591 0
M  V30 2535 H 273.721 -3.80442 0.692853 0
M  V30 2536 H 275.41 -3.90743 1.09886 0
M  V30 2537 H 276.176 -3.34005 3.51661 0
M  V30 2538 H 272.055 -3.91526 2.43369 0
M  V30 2539 H 275.599 -3.75068 5.88192 0
M  V30 2540 H 271.496 -4.32698 4.79002 0
M  V30 2541 H 272.264 -4.46264 6.86142 0
M  V30 2542 N 274.927 -0.932562 -1.27047 0
M  V30 2543 C 276.175 -0.574422 -1.93765 0
M  V30 2544 C 276.496 0.887993 -1.73608 0
M  V30 2545 O 275.766 1.62999 -1.08665 0
M  V30 2546 H 274.346 -0.209451 -0.717035 0
M  V30 2547 H 277.008 -1.18601 -1.5466 0
M  V30 2548 H 276.104 -0.784841 -3.02071 0
M  V30 2549 N 276.405 1.4127 -0.698611 0
M  V30 2550 C 277.368 2.29158 -0.044132 0
M  V30 2551 C 278.368 1.44529 0.704841 0
M  V30 2552 O 279.558 1.65643 0.539276 0
M  V30 2553 C 276.69 3.27459 0.947809 0
M  V30 2554 H 277.883 2.88529 -0.817994 0
M  V30 2555 H 275.436 1.49307 -0.46228 0
M  V30 2556 H 276.171 2.73073 1.74933 0
M  V30 2557 H 275.956 3.8991 0.41385 0
M  V30 2558 H 277.446 3.93311 1.40344 0
M  V30 2559 N 277.883 0.443576 1.51229 0
M  V30 2560 C 279.131 -0.120557 2.0174 0
M  V30 2561 C 279.452 -1.42665 1.32935 0
M  V30 2562 O 278.722 -1.9028 0.465866 0
M  V30 2563 H 277.302 -0.0475426 0.745486 0
M  V30 2564 H 279.964 0.587711 1.85828 0
M  V30 2565 H 279.06 -0.291972 3.10731 0
M  V30 2566 N 279.361 -1.56624 0.175154 0
M  V30 2567 C 280.291 -2.21155 -0.749195 0
M  V30 2568 C 281.272 -1.16836 -1.23626 0
M  V30 2569 O 282.457 -1.45277 -1.28873 0
M  V30 2570 C 279.587 -2.8553 -1.97711 0
M  V30 2571 C 278.541 -3.95921 -1.62575 0
M  V30 2572 C 277.867 -4.47365 -2.92864 0
M  V30 2573 C 279.167 -5.15323 -0.850838 0
M  V30 2574 H 280.861 -2.98653 -0.211295 0
M  V30 2575 H 278.407 -1.43651 -0.100188 0
M  V30 2576 H 280.36 -3.2935 -2.62881 0
M  V30 2577 H 279.084 -2.05406 -2.53921 0
M  V30 2578 H 277.743 -3.52762 -0.997719 0
M  V30 2579 H 277.391 -3.64027 -3.47122 0
M  V30 2580 H 277.091 -5.21839 -2.70106 0
M  V30 2581 H 278.615 -4.93873 -3.59056 0
M  V30 2582 H 280.029 -5.55812 -1.40521 0
M  V30 2583 H 278.426 -5.95739 -0.722154 0
M  V30 2584 H 279.496 -4.84661 0.152082 0
M  V30 2585 N 280.839 0.0985539 -1.57292 0
M  V30 2586 C 282.116 0.834155 -1.76921 0
M  V30 2587 C 282.496 1.97101 -0.755928 0
M  V30 2588 O 281.844 2.27474 0.216245 0
M  V30 2589 C 282.054 1.33194 -3.22584 0
M  V30 2590 C 283.402 1.77611 -3.85668 0
M  V30 2591 O 284.426 1.42825 -3.26312 0
M  V30 2592 O 283.285 2.4192 -4.90038 0
M  V30 2593 H 280.379 0.397628 -0.725135 0
M  V30 2594 H 282.925 0.0807044 -1.69508 0
M  V30 2595 H 281.697 0.517248 -3.87866 0
M  V30 2596 H 281.32 2.1475 -3.34616 0
M  V30 2597 N 282.317 1.53212 0.369288 0
M  V30 2598 C 283.566 1.68436 1.10961 0
M  V30 2599 C 283.879 0.440738 1.9057 0
M  V30 2600 O 285.085 0.473446 2.6734 0
M  V30 2601 C 283.541 2.97744 2.0218 0
M  V30 2602 C 283.149 4.29355 1.279 0
M  V30 2603 C 284.893 3.22334 2.76226 0
M  V30 2604 C 282.8 5.49755 2.17999 0
M  V30 2605 H 281.73 0.627568 0.41794 0
M  V30 2606 H 284.381 1.79713 0.370884 0
M  V30 2607 H 282.763 2.8026 2.79768 0
M  V30 2608 H 283.937 4.57458 0.554007 0
M  V30 2609 H 282.252 4.11179 0.657311 0
M  V30 2610 H 284.849 4.09471 3.43857 0
M  V30 2611 H 285.192 2.38238 3.41392 0
M  V30 2612 H 285.725 3.40475 2.05723 0
M  V30 2613 H 282.464 6.36318 1.57417 0
M  V30 2614 H 281.984 5.25937 2.88359 0
M  V30 2615 H 283.663 5.84401 2.77641 0
M  V30 2616 N 283.795 -0.628877 1.44509 0
M  V30 2617 C 285.041 -1.39045 1.47629 0
M  V30 2618 C 285.374 -1.93892 0.109343 0
M  V30 2619 O 284.649 -1.7379 -0.87334 0
M  V30 2620 C 284.932 -2.55408 2.53848 0
M  V30 2621 C 284.785 -2.05896 3.99909 0
M  V30 2622 C 286.104 -3.5759 2.56549 0
M  V30 2623 H 283.223 -0.504232 0.537512 0
M  V30 2624 H 285.865 -0.710854 1.76201 0
M  V30 2625 H 284.015 -3.13384 2.29615 0
M  V30 2626 H 285.687 -1.52734 4.35282 0
M  V30 2627 H 283.93 -1.37061 4.11578 0
M  V30 2628 H 284.601 -2.89681 4.69882 0
M  V30 2629 H 287.077 -3.09419 2.78207 0
M  V30 2630 H 285.953 -4.36527 3.32769 0
M  V30 2631 H 286.214 -4.11808 1.60832 0
M  V30 2632 N 285.273 -1.31445 -0.869486 0
M  V30 2633 C 286.236 -1.19094 -1.9583 0
M  V30 2634 C 287.236 -0.117906 -1.60367 0
M  V30 2635 O 288.426 -0.367208 -1.70286 0
M  V30 2636 C 285.558 -0.828165 -3.30688 0
M  V30 2637 H 286.751 -2.15842 -2.08212 0
M  V30 2638 H 284.304 -1.15063 -1.05784 0
M  V30 2639 H 285.039 0.138142 -3.24006 0
M  V30 2640 H 284.824 -1.6038 -3.578 0
M  V30 2641 H 286.314 -0.765658 -4.10521 0
M  V30 2642 N 286.751 1.08385 -1.14413 0
M  V30 2643 C 288.162 1.62258 -0.923535 0
M  V30 2644 C 288.513 1.88691 0.537595 0
M  V30 2645 O 287.638 1.64454 1.40655 0
M  V30 2646 C 288.233 2.94781 -1.67002 0
M  V30 2647 C 286.792 3.45437 -1.495 0
M  V30 2648 C 285.939 2.19668 -1.69238 0
M  V30 2649 H 288.89 0.916086 -1.2959 0
M  V30 2650 H 288.911 3.63229 -1.13334 0
M  V30 2651 H 288.423 2.7551 -2.73342 0
M  V30 2652 H 286.524 3.6981 -0.455097 0
M  V30 2653 H 286.637 4.22173 -2.2651 0
M  V30 2654 H 285.001 2.28849 -1.11804 0
M  V30 2655 H 285.784 2.02905 -2.7692 0
M  V30 2656 N 288.23 0.939286 1.26551 0
M  V30 2657 C 289.478 0.58469 1.93457 0
M  V30 2658 C 289.799 -0.878774 1.74076 0
M  V30 2659 O 289.069 -1.62421 1.09528 0
M  V30 2660 H 287.649 0.21325 0.715914 0
M  V30 2661 H 290.311 1.1942 1.54029 0
M  V30 2662 H 289.407 0.800849 3.0165 0
M  V30 2663 N 289.708 -1.40897 0.706093 0
M  V30 2664 C 290.954 -2.01352 0.241889 0
M  V30 2665 C 291.287 -1.55832 -1.15888 0
M  V30 2666 O 290.562 -0.774145 -1.7843 0
M  V30 2667 C 290.845 -3.58752 0.311311 0
M  V30 2668 C 290.698 -4.1437 1.74978 0
M  V30 2669 C 292.017 -4.38914 -0.322922 0
M  V30 2670 H 289.136 -0.731562 0.0893687 0
M  V30 2671 H 291.778 -1.67504 0.896802 0
M  V30 2672 H 289.928 -3.87718 -0.246302 0
M  V30 2673 H 291.6 -3.96239 2.36205 0
M  V30 2674 H 289.843 -3.69016 2.28057 0
M  V30 2675 H 290.514 -5.23532 1.74981 0
M  V30 2676 H 292.99 -4.15822 0.152089 0
M  V30 2677 H 291.866 -5.48358 -0.243855 0
M  V30 2678 H 292.127 -4.19176 -1.40513 0
M  V30 2679 N 291.186 -0.45159 -1.50991 0
M  V30 2680 C 292.134 0.366864 -2.29689 0
M  V30 2681 C 293.128 1.00809 -1.36139 0
M  V30 2682 O 294.334 0.941427 -1.53418 0
M  V30 2683 H 290.709 0.137133 -0.739391 0
M  V30 2684 H 292.68 -0.317538 -2.96706 0
M  V30 2685 C 291.429 1.44751 -3.16137 0
M  V30 2686 H 290.752 0.963473 -3.88017 0
M  V30 2687 H 292.192 1.99315 -3.74232 0
M  V30 2688 C 290.651 2.43869 -2.32442 0
M  V30 2689 O 291.181 3.4872 -1.99392 0
M  V30 2690 N 289.387 2.15105 -1.95392 0
M  V30 2691 H 288.934 1.29866 -2.22469 0
M  V30 2692 H 288.892 2.81661 -1.39693 0
M  V30 2693 N 292.664 1.56529 -0.183458 0
M  V30 2694 C 293.91 1.97537 0.459036 0
M  V30 2695 C 294.243 1.06989 1.62071 0
M  V30 2696 O 293.518 0.11948 1.94133 0
M  V30 2697 C 293.801 3.47874 0.930368 0
M  V30 2698 C 293.654 4.492 -0.232317 0
M  V30 2699 C 294.973 4.01612 1.79989 0
M  V30 2700 H 292.092 0.718204 0.165383 0
M  V30 2701 H 294.734 1.88042 -0.272038 0
M  V30 2702 H 292.884 3.56095 1.55333 0
M  V30 2703 H 294.556 4.53027 -0.86972 0
M  V30 2704 H 292.799 4.24657 -0.885928 0
M  V30 2705 H 293.47 5.51823 0.139796 0
M  V30 2706 H 295.946 3.96097 1.27461 0
M  V30 2707 H 294.822 5.07195 2.09867 0
M  V30 2708 H 295.083 3.46163 2.74998 0
M  V30 2709 N 294.142 -0.090211 1.57342 0
M  V30 2710 C 295.074 -1.13541 1.99101 0
M  V30 2711 C 296.087 -1.3604 0.894258 0
M  V30 2712 O 297.276 -1.34606 1.17233 0
M  V30 2713 C 294.376 -2.49001 2.29895 0
M  V30 2714 C 293.549 -2.46712 3.61182 0
M  V30 2715 C 292.608 -3.64136 3.79857 0
M  V30 2716 O 291.634 -3.46405 4.51655 0
M  V30 2717 N 292.836 -4.83802 3.20806 0
M  V30 2718 H 295.601 -0.779942 2.89373 0
M  V30 2719 H 293.162 -0.279125 1.59476 0
M  V30 2720 H 295.154 -3.26166 2.39578 0
M  V30 2721 H 293.724 -2.76619 1.45605 0
M  V30 2722 H 292.944 -1.55058 3.62423 0
M  V30 2723 H 294.232 -2.42265 4.4742 0
M  V30 2724 H 293.63 -5.01112 2.62494 0
M  V30 2725 H 292.187 -5.58543 3.35966 0
M  V30 2726 N 295.62 -1.53406 -0.361157 0
M  V30 2727 C 296.845 -1.74024 -1.12829 0
M  V30 2728 C 297.27 -0.470069 -1.82132 0
M  V30 2729 O 296.628 0.57619 -1.719 0
M  V30 2730 C 296.676 -2.90903 -2.13091 0
M  V30 2731 O 295.78 -2.59821 -3.20261 0
M  V30 2732 H 295.121 -0.577804 -0.327168 0
M  V30 2733 H 297.651 -2.00307 -0.41693 0
M  V30 2734 H 297.661 -3.17194 -2.56616 0
M  V30 2735 H 296.336 -3.83034 -1.62042 0
M  V30 2736 H 294.913 -2.44362 -2.81677 0
M  V30 2737 N 297.098 0.621204 -1.44841 0
M  V30 2738 C 298.326 1.40752 -1.51646 0
M  V30 2739 C 298.741 1.88246 -0.144549 0
M  V30 2740 O 298.098 1.61422 0.851416 0
M  V30 2741 C 298.149 2.62119 -2.4895 0
M  V30 2742 O 297.87 2.16602 -3.80808 0
M  V30 2743 C 299.371 3.55135 -2.65319 0
M  V30 2744 H 296.591 0.431325 -0.514004 0
M  V30 2745 H 299.135 0.758835 -1.899 0
M  V30 2746 H 297.29 3.23058 -2.13805 0
M  V30 2747 H 297.704 2.95358 -4.33433 0
M  V30 2748 H 299.178 4.36874 -3.37409 0
M  V30 2749 H 299.655 4.04592 -1.70886 0
M  V30 2750 H 300.261 3.00058 -3.01405 0
M  V30 2751 N 298.576 1.31904 0.862503 0
M  V30 2752 C 299.806 1.24817 1.64634 0
M  V30 2753 C 300.214 -0.187579 1.88268 0
M  V30 2754 O 299.557 -1.13253 1.44635 0
M  V30 2755 C 299.619 1.92996 3.03303 0
M  V30 2756 C 299.283 3.42336 3.02746 0
M  V30 2757 C 300.28 4.37956 2.80162 0
M  V30 2758 C 297.965 3.84147 3.2363 0
M  V30 2759 C 299.959 5.73361 2.78453 0
M  V30 2760 C 297.646 5.19663 3.21549 0
M  V30 2761 C 298.644 6.14081 2.98988 0
M  V30 2762 O 298.332 7.47118 2.96766 0
M  V30 2763 H 298.064 0.432222 0.519769 0
M  V30 2764 H 300.618 1.7445 1.08427 0
M  V30 2765 H 298.848 1.37922 3.61268 0
M  V30 2766 H 300.537 1.79723 3.63943 0
M  V30 2767 H 301.303 4.06981 2.63802 0
M  V30 2768 H 297.182 3.11083 3.40218 0
M  V30 2769 H 300.726 6.4703 2.60763 0
M  V30 2770 H 296.623 5.5027 3.37451 0
M  V30 2771 H 297.391 7.56382 3.12775 0
M  V30 2772 N 300.054 -1.07777 1.14986 0
M  V30 2773 C 301.465 -1.61766 0.932127 0
M  V30 2774 C 301.816 -1.88974 -0.527581 0
M  V30 2775 O 300.941 -1.65198 -1.39781 0
M  V30 2776 C 301.536 -2.93891 1.68563 0
M  V30 2777 C 300.095 -3.44639 1.5133 0
M  V30 2778 C 299.242 -2.18767 1.704 0
M  V30 2779 H 302.193 -0.909201 1.30074 0
M  V30 2780 H 302.214 -3.62623 1.15259 0
M  V30 2781 H 301.726 -2.74057 2.74799 0
M  V30 2782 H 299.827 -3.69564 0.474702 0
M  V30 2783 H 299.94 -4.20966 2.28746 0
M  V30 2784 H 298.304 -2.28253 1.13016 0
M  V30 2785 H 299.087 -2.01433 2.77992 0
M  V30 2786 N 301.532 -0.945985 -1.26051 0
M  V30 2787 C 302.78 -0.594941 -1.93145 0
M  V30 2788 C 303.101 0.86953 -1.7454 0
M  V30 2789 O 302.371 1.61838 -1.10387 0
M  V30 2790 H 300.951 -0.217044 -0.714773 0
M  V30 2791 H 303.613 -1.20235 -1.53393 0
M  V30 2792 H 302.709 -0.816835 -3.01221 0
M  V30 2793 N 303.011 1.40521 -0.713556 0
M  V30 2794 C 304.236 2.05759 -0.26035 0
M  V30 2795 C 304.661 1.53403 1.08854 0
M  V30 2796 O 304.019 0.668535 1.68524 0
M  V30 2797 C 304.067 3.59745 -0.248122 0
M  V30 2798 O 303.171 4.05123 0.77131 0
M  V30 2799 H 302.512 0.652564 -0.122703 0
M  V30 2800 H 305.042 1.79958 -0.973467 0
M  V30 2801 H 305.052 4.07911 -0.0851129 0
M  V30 2802 H 303.727 3.97218 -1.2325 0
M  V30 2803 H 302.304 3.68422 0.57619 0
M  V30 2804 N 304.489 0.459591 1.5075 0
M  V30 2805 C 305.717 -0.0973749 2.06671 0
M  V30 2806 C 306.132 -1.34524 1.32472 0
M  V30 2807 O 305.489 -1.7827 0.390634 0
M  V30 2808 C 305.54 -0.39714 3.59312 0
M  V30 2809 O 305.261 0.801214 4.30711 0
M  V30 2810 C 306.762 -1.00234 4.31819 0
M  V30 2811 H 303.982 0.00195854 0.670997 0
M  V30 2812 H 306.526 0.645072 1.94059 0
M  V30 2813 H 304.681 -1.08951 3.71764 0
M  V30 2814 H 305.095 0.538857 5.21725 0
M  V30 2815 H 306.569 -1.16193 5.39632 0
M  V30 2816 H 307.046 -1.98939 3.91561 0
M  V30 2817 H 307.652 -0.348699 4.23868 0
M  V30 2818 N 305.967 -1.56429 0.191757 0
M  V30 2819 C 307.197 -2.01574 -0.452928 0
M  V30 2820 C 307.605 -1.07107 -1.55964 0
M  V30 2821 O 306.948 -0.067534 -1.83576 0
M  V30 2822 C 307.01 -3.43121 -1.07278 0
M  V30 2823 C 306.674 -4.56879 -0.105214 0
M  V30 2824 C 307.671 -5.15379 0.684149 0
M  V30 2825 C 305.356 -5.023 0.00489824 0
M  V30 2826 C 307.35 -6.17746 1.57062 0
M  V30 2827 C 305.037 -6.04511 0.894935 0
M  V30 2828 C 306.035 -6.62108 1.67637 0
M  V30 2829 O 305.723 -7.62335 2.55149 0
M  V30 2830 H 305.455 -0.665554 -0.118379 0
M  V30 2831 H 308.009 -2.03245 0.296737 0
M  V30 2832 H 306.239 -3.38425 -1.87097 0
M  V30 2833 H 307.928 -3.72093 -1.62177 0
M  V30 2834 H 308.694 -4.81157 0.609365 0
M  V30 2835 H 304.573 -4.57168 -0.593156 0
M  V30 2836 H 308.117 -6.6263 2.181 0
M  V30 2837 H 304.014 -6.38157 0.970847 0
M  V30 2838 H 304.782 -7.79741 2.48892 0
M  V30 2839 N 307.445 0.0818655 -1.57387 0
M  V30 2840 C 308.408 1.08265 -2.02018 0
M  V30 2841 C 309.408 1.32183 -0.915664 0
M  V30 2842 O 310.598 1.28073 -1.18081 0
M  V30 2843 C 307.73 2.42871 -2.39221 0
M  V30 2844 H 308.923 0.698204 -2.91659 0
M  V30 2845 H 306.476 0.327303 -1.52835 0
M  V30 2846 H 307.211 2.86167 -1.52575 0
M  V30 2847 H 306.996 2.26855 -3.19811 0
M  V30 2848 H 308.486 3.14826 -2.74362 0
M  V30 2849 N 308.923 1.53595 0.353017 0
M  V30 2850 C 310.148 1.7462 1.11904 0
M  V30 2851 C 310.573 0.479721 1.8188 0
M  V30 2852 O 309.931 -0.567066 1.72204 0
M  V30 2853 C 309.979 2.92029 2.11545 0
M  V30 2854 O 309.083 2.61516 3.18878 0
M  V30 2855 H 308.424 0.579531 0.324099 0
M  V30 2856 H 310.954 2.00525 0.406301 0
M  V30 2857 H 310.964 3.18551 2.5493 0
M  V30 2858 H 309.639 3.83888 1.60008 0
M  V30 2859 H 308.216 2.45852 2.80377 0
M  V30 2860 N 310.401 -0.613514 1.45168 0
M  V30 2861 C 311.331 -1.7354 1.56225 0
M  V30 2862 C 312.312 -1.64981 0.41414 0
M  V30 2863 O 313.497 -1.83472 0.636526 0
M  V30 2864 C 310.627 -3.12128 1.52295 0
M  V30 2865 C 309.581 -3.35491 2.65762 0
M  V30 2866 C 308.907 -4.74291 2.46885 0
M  V30 2867 C 310.207 -3.26325 4.0781 0
M  V30 2868 H 311.901 -1.64543 2.50132 0
M  V30 2869 H 309.447 -0.790185 1.20383 0
M  V30 2870 H 311.4 -3.90404 1.58628 0
M  V30 2871 H 310.124 -3.2195 0.549139 0
M  V30 2872 H 308.783 -2.59603 2.58847 0
M  V30 2873 H 308.431 -4.80839 1.47657 0
M  V30 2874 H 308.131 -4.9088 3.22972 0
M  V30 2875 H 309.655 -5.54775 2.55063 0
M  V30 2876 H 311.069 -3.94483 4.16 0
M  V30 2877 H 309.466 -3.54445 4.8424 0
M  V30 2878 H 310.536 -2.23855 4.30136 0
M  V30 2879 N 311.879 -1.3236 -0.855495 0
M  V30 2880 C 312.827 -1.2118 -1.9854 0
M  V30 2881 C 313.821 -0.116788 -1.68997 0
M  V30 2882 O 315.027 -0.279657 -1.77814 0
M  V30 2883 H 311.402 -0.375608 -0.651477 0
M  V30 2884 H 313.373 -2.16743 -2.05098 0
M  V30 2885 C 312.122 -0.950849 -3.34446 0
M  V30 2886 H 311.445 -1.78563 -3.57708 0
M  V30 2887 H 312.885 -0.912863 -4.14057 0
M  V30 2888 C 311.344 0.346404 -3.35114 0
M  V30 2889 O 311.874 1.35855 -3.7803 0
M  V30 2890 N 310.08 0.36808 -2.88259 0
M  V30 2891 H 309.627 -0.456102 -2.5353 0
M  V30 2892 H 309.585 1.23591 -2.89089 0
M  V30 2893 N 313.357 1.07166 -1.15556 0
M  V30 2894 C 314.605 1.79443 -0.929764 0
M  V30 2895 C 314.926 1.87246 0.544414 0
M  V30 2896 O 314.196 1.37473 1.39564 0
M  V30 2897 H 312.776 0.664625 -0.341003 0
M  V30 2898 H 315.438 1.29499 -1.45657 0
M  V30 2899 H 314.534 2.81832 -1.34079 0
M  V30 2900 N 314.835 0.952656 1.25548 0
M  V30 2901 C 316.063 0.623496 1.97282 0
M  V30 2902 C 316.478 -0.803987 1.70826 0
M  V30 2903 O 315.835 -1.53755 0.983147 0
M  V30 2904 C 315.886 0.870209 3.5087 0
M  V30 2905 O 315.607 2.24156 3.76412 0
M  V30 2906 C 317.108 0.553164 4.39835 0
M  V30 2907 H 314.328 0.233931 0.628902 0
M  V30 2908 H 316.872 1.27649 1.59768 0
M  V30 2909 H 315.027 0.263652 3.86502 0
M  V30 2910 H 315.441 2.31021 4.70882 0
M  V30 2911 H 316.915 0.776342 5.46513 0
M  V30 2912 H 317.392 -0.512215 4.36203 0
M  V30 2913 H 317.998 1.13896 4.09766 0
M  V30 2914 N 316.313 -1.40141 0.720998 0
M  V30 2915 C 317.538 -2.05618 0.271258 0
M  V30 2916 C 317.963 -1.53978 -1.08039 0
M  V30 2917 O 317.321 -0.677463 -1.68167 0
M  V30 2918 C 317.369 -3.59609 0.267197 0
M  V30 2919 O 316.473 -4.05526 -0.749814 0
M  V30 2920 H 315.814 -0.651904 0.126162 0
M  V30 2921 H 318.344 -1.79439 0.982997 0
M  V30 2922 H 318.354 -4.0786 0.106744 0
M  V30 2923 H 317.029 -3.96559 1.25354 0
M  V30 2924 H 315.606 -3.68722 -0.556644 0
M  V30 2925 N 317.792 -0.46758 -1.50504 0
M  V30 2926 C 318.725 0.374324 -2.25109 0
M  V30 2927 C 319.703 0.99921 -1.28275 0
M  V30 2928 O 320.887 1.03583 -1.57489 0
M  V30 2929 C 318.014 1.52419 -3.02467 0
M  V30 2930 C 317.06 1.01702 -4.14197 0
M  V30 2931 S 317.893 -0.0654477 -5.3546 0
M  V30 2932 C 319.049 1.08837 -6.16365 0
M  V30 2933 H 319.282 -0.258983 -2.9617 0
M  V30 2934 H 316.815 -0.252421 -1.52323 0
M  V30 2935 H 318.773 2.18322 -3.47628 0
M  V30 2936 H 317.434 2.129 -2.30938 0
M  V30 2937 H 316.627 1.87776 -4.67714 0
M  V30 2938 H 316.229 0.435757 -3.71453 0
M  V30 2939 H 318.521 2.00071 -6.47285 0
M  V30 2940 H 319.464 0.592538 -7.05616 0
M  V30 2941 H 319.872 1.34061 -5.4835 0
M  V30 2942 N 319.27 1.56325 -0.20005 0
M  V30 2943 C 320.233 2.18084 0.705132 0
M  V30 2944 C 321.233 1.13666 1.1374 0
M  V30 2945 O 322.423 1.39023 1.04968 0
M  V30 2946 C 319.555 2.78689 1.96329 0
M  V30 2947 H 320.748 2.99435 0.167023 0
M  V30 2948 H 318.301 1.56221 0.0495725 0
M  V30 2949 H 319.036 2.0115 2.5438 0
M  V30 2950 H 318.821 3.55133 1.66202 0
M  V30 2951 H 320.311 3.26096 2.60866 0
M  V30 2952 N 320.748 -0.0735177 1.57428 0
M  V30 2953 C 321.976 -0.785969 1.9139 0
M  V30 2954 C 322.391 -1.71207 0.795847 0
M  V30 2955 O 321.748 -1.81033 -0.230915 0
M  V30 2956 C 321.799 -1.58107 3.25091 0
M  V30 2957 O 321.52 -0.6922 4.32597 0
M  V30 2958 C 323.021 -2.39467 3.73055 0
M  V30 2959 H 320.241 -0.223558 0.632663 0
M  V30 2960 H 322.785 -0.044302 2.04452 0
M  V30 2961 H 320.94 -2.27503 3.13562 0
M  V30 2962 H 321.354 -1.24504 5.09508 0
M  V30 2963 H 322.828 -2.90716 4.69242 0
M  V30 2964 H 323.305 -3.18913 3.01979 0
M  V30 2965 H 323.911 -1.7523 3.87523 0
M  V30 2966 N 322.226 -1.5378 -0.344866 0
M  V30 2967 C 323.637 -1.62428 -0.920552 0
M  V30 2968 C 323.988 -0.504747 -1.89596 0
M  V30 2969 O 323.113 0.365711 -2.13287 0
M  V30 2970 C 323.708 -2.94419 -1.67639 0
M  V30 2971 C 322.267 -3.05333 -2.20111 0
M  V30 2972 C 321.414 -2.57866 -1.01982 0
M  V30 2973 H 324.365 -1.58222 -0.123042 0
M  V30 2974 H 324.386 -2.83384 -2.53917 0
M  V30 2975 H 323.898 -3.7588 -0.966224 0
M  V30 2976 H 321.999 -2.28502 -2.94308 0
M  V30 2977 H 322.112 -4.10778 -2.46573 0
M  V30 2978 H 320.476 -2.13241 -1.39285 0
M  V30 2979 H 321.259 -3.41765 -0.324308 0
M  V30 2980 N 323.704 0.605807 -1.45491 0
M  V30 2981 C 324.654 1.71074 -1.50724 0
M  V30 2982 C 325.638 1.5658 -0.37033 0
M  V30 2983 O 326.83 1.65887 -0.617299 0
M  V30 2984 C 323.959 3.0983 -1.47852 0
M  V30 2985 C 323.045 3.29704 -2.66751 0
M  V30 2986 N 323.436 3.19831 -3.91844 0
M  V30 2987 C 321.734 3.60579 -2.62486 0
M  V30 2988 C 322.435 3.41083 -4.71208 0
M  V30 2989 N 321.411 3.65157 -4.02693 0
M  V30 2990 H 325.213 1.61937 -2.45263 0
M  V30 2991 H 322.727 0.80912 -1.40808 0
M  V30 2992 H 324.724 3.89101 -1.49686 0
M  V30 2993 H 323.384 3.20115 -0.543714 0
M  V30 2994 H 324.395 2.98194 -4.23439 0
M  V30 2995 H 321.072 3.7769 -1.77922 0
M  V30 2996 H 322.462 3.38828 -5.80211 0
M  V30 2997 N 325.182 1.32811 0.848464 0
M  V30 2998 C 326.428 1.23907 1.60546 0
M  V30 2999 C 326.761 -0.197161 1.93197 0
M  V30 3000 O 326.036 -1.13596 1.5788 0
M  V30 3001 C 326.319 2.10489 2.92175 0
M  V30 3002 C 326.172 3.62522 2.66266 0
M  V30 3003 C 327.491 1.97075 3.93509 0
M  V30 3004 H 324.61 0.451459 0.58254 0
M  V30 3005 H 327.252 1.62818 0.979296 0
M  V30 3006 H 325.402 1.77434 3.45614 0
M  V30 3007 H 327.074 4.05821 2.19334 0
M  V30 3008 H 325.317 3.84879 2.00126 0
M  V30 3009 H 325.988 4.18437 3.6002 0
M  V30 3010 H 328.464 2.26045 3.49346 0
M  V30 3011 H 327.34 2.59923 4.83457 0
M  V30 3012 H 327.601 0.940186 4.31987 0
M  V30 3013 N 326.66 -1.06551 1.16123 0
M  V30 3014 C 327.623 -2.12132 0.867906 0
M  V30 3015 C 328.623 -1.60224 -0.135944 0
M  V30 3016 O 329.813 -1.73943 0.0946422 0
M  V30 3017 C 326.945 -3.396 0.297419 0
M  V30 3018 H 328.138 -2.39586 1.80385 0
M  V30 3019 H 325.691 -1.22574 0.969812 0
M  V30 3020 H 326.426 -3.17794 -0.64633 0
M  V30 3021 H 326.211 -3.78581 1.02073 0
M  V30 3022 H 327.701 -4.17455 0.110052 0
M  V30 3023 N 328.138 -0.959301 -1.25041 0
M  V30 3024 C 329.386 -0.615393 -1.92503 0
M  V30 3025 C 329.707 0.850969 -1.75452 0
M  V30 3026 O 328.977 1.60658 -1.12098 0
M  V30 3027 H 327.557 -0.224613 -0.712431 0
M  V30 3028 H 330.219 -1.21855 -1.5211 0
M  V30 3029 H 329.315 -0.848738 -3.00338 0
M  V30 3030 N 329.616 1.39756 -0.72842 0
M  V30 3031 C 330.579 2.29012 -0.0927297 0
M  V30 3032 C 331.579 1.45992 0.674025 0
M  V30 3033 O 332.769 1.66749 0.50402 0
M  V30 3034 C 329.901 3.29396 0.878137 0
M  V30 3035 H 331.094 2.86729 -0.879011 0
M  V30 3036 H 328.647 1.48293 -0.493847 0
M  V30 3037 H 329.382 2.76722 1.69101 0
M  V30 3038 H 329.167 3.907 0.331051 0
M  V30 3039 H 330.657 3.96199 1.3197 0
M  V30 3040 N 331.094 0.475555 1.50254 0
M  V30 3041 C 332.057 -0.305016 2.27161 0
M  V30 3042 C 333.057 -0.916519 1.32123 0
M  V30 3043 O 334.247 -0.785003 1.5551 0
M  V30 3044 C 331.379 -1.43496 3.09227 0
M  V30 3045 H 332.572 0.369511 2.97615 0
M  V30 3046 H 330.125 0.229747 1.54602 0
M  V30 3047 H 330.86 -2.14441 2.43281 0
M  V30 3048 H 330.645 -1.00223 3.79075 0
M  V30 3049 H 332.135 -1.98548 3.67381 0
M  V30 3050 N 332.573 -1.56217 0.208337 0
M  V30 3051 C 333.536 -2.18455 -0.693557 0
M  V30 3052 C 334.536 -1.14268 -1.13135 0
M  V30 3053 O 335.726 -1.39577 -1.0423 0
M  V30 3054 C 332.858 -2.79727 -1.94848 0
M  V30 3055 H 334.051 -2.99519 -0.15114 0
M  V30 3056 H 331.604 -1.56245 -0.041287 0
M  V30 3057 H 332.339 -2.02497 -2.53309 0
M  V30 3058 H 332.124 -3.56009 -1.64316 0
M  V30 3059 H 333.614 -3.27475 -2.59133 0
M  V30 3060 N 334.051 0.0651679 -1.57465 0
M  V30 3061 C 334.981 1.07693 -2.07182 0
M  V30 3062 C 335.962 1.39962 -0.966673 0
M  V30 3063 O 337.147 1.49475 -1.2398 0
M  V30 3064 C 334.277 2.3885 -2.52127 0
M  V30 3065 C 333.231 2.20917 -3.66579 0
M  V30 3066 C 332.557 3.57515 -3.97601 0
M  V30 3067 C 333.857 1.62493 -4.9638 0
M  V30 3068 H 335.551 0.663199 -2.91962 0
M  V30 3069 H 333.097 0.317569 -1.40455 0
M  V30 3070 H 335.05 3.09928 -2.85522 0
M  V30 3071 H 333.774 2.82215 -1.64384 0
M  V30 3072 H 332.433 1.52279 -3.33477 0
M  V30 3073 H 332.081 3.98463 -3.06979 0
M  V30 3074 H 331.781 3.46353 -4.74672 0
M  V30 3075 H 333.305 4.30013 -4.33499 0
M  V30 3076 H 334.719 2.23445 -5.27963 0
M  V30 3077 H 333.116 1.62009 -5.77818 0
M  V30 3078 H 334.186 0.587041 -4.81333 0
M  V30 3079 N 335.529 1.53961 0.336706 0
M  V30 3080 C 336.775 1.7179 1.07777 0
M  V30 3081 C 337.108 0.483263 1.88091 0
M  V30 3082 O 336.383 -0.519747 1.87427 0
M  V30 3083 C 336.666 2.98558 2.01334 0
M  V30 3084 C 336.519 4.32245 1.24437 0
M  V30 3085 C 337.838 3.21023 3.01052 0
M  V30 3086 H 334.957 0.625089 0.390426 0
M  V30 3087 H 337.599 1.86641 0.35567 0
M  V30 3088 H 335.749 2.86028 2.62908 0
M  V30 3089 H 337.421 4.56637 0.654243 0
M  V30 3090 H 335.664 4.30344 0.546458 0
M  V30 3091 H 336.335 5.17137 1.93063 0
M  V30 3092 H 338.811 3.32929 2.49595 0
M  V30 3093 H 337.687 4.11104 3.6371 0
M  V30 3094 H 337.948 2.37637 3.72802 0
M  V30 3095 N 337.007 -0.598083 1.45811 0
M  V30 3096 C 337.954 -1.7082 1.55207 0
M  V30 3097 C 338.924 -1.61278 0.39732 0
M  V30 3098 O 340.109 -1.80717 0.612038 0
M  V30 3099 C 337.249 -3.09144 1.53376 0
M  V30 3100 C 336.362 -3.29423 2.79472 0
M  V30 3101 C 335.497 -4.57907 2.69248 0
M  V30 3102 C 334.536 -4.71476 3.90354 0
M  V30 3103 N 333.673 -5.9127 3.78608 0
M  V30 3104 H 338.513 -1.62125 2.50039 0
M  V30 3105 H 336.05 -0.790389 1.24062 0
M  V30 3106 H 338.008 -3.89186 1.50301 0
M  V30 3107 H 336.638 -3.16773 0.620876 0
M  V30 3108 H 335.69 -2.43091 2.92594 0
M  V30 3109 H 337.002 -3.3532 3.69272 0
M  V30 3110 H 336.156 -5.46157 2.64192 0
M  V30 3111 H 334.895 -4.54423 1.77063 0
M  V30 3112 H 333.9 -3.81648 3.95759 0
M  V30 3113 H 335.125 -4.76751 4.83617 0
M  V30 3114 H 333.071 -5.88813 2.89199 0
M  V30 3115 H 332.988 -5.98369 4.6205 0
M  V30 3116 H 334.256 -6.81992 3.77501 0
M  V30 3117 N 338.485 -1.33259 -0.841409 0
M  V30 3118 C 339.417 -1.19136 -1.95804 0
M  V30 3119 C 340.43 -0.122965 -1.62335 0
M  V30 3120 O 341.619 -0.373154 -1.74556 0
M  V30 3121 C 338.719 -0.804268 -3.29218 0
M  V30 3122 C 337.892 -1.96376 -3.90839 0
M  V30 3123 C 336.951 -1.55806 -5.02604 0
M  V30 3124 O 335.977 -2.27203 -5.21888 0
M  V30 3125 N 337.179 -0.461609 -5.78662 0
M  V30 3126 H 339.944 -2.15326 -2.08458 0
M  V30 3127 H 337.505 -1.25971 -1.017 0
M  V30 3128 H 339.497 -0.51501 -4.0141 0
M  V30 3129 H 338.067 0.0668809 -3.12528 0
M  V30 3130 H 337.287 -2.41879 -3.11269 0
M  V30 3131 H 338.575 -2.73966 -4.28742 0
M  V30 3132 H 337.973 0.132343 -5.65545 0
M  V30 3133 H 336.53 -0.232013 -6.51387 0
M  V30 3134 N 339.963 1.05934 -1.16686 0
M  V30 3135 C 340.91 2.13499 -0.876748 0
M  V30 3136 C 341.88 1.65162 0.176299 0
M  V30 3137 O 343.065 1.90757 0.0407143 0
M  V30 3138 C 340.205 3.42912 -0.387967 0
M  V30 3139 C 339.318 4.04964 -1.50426 0
M  V30 3140 C 338.453 5.22266 -0.970125 0
M  V30 3141 C 337.492 5.76309 -2.06238 0
M  V30 3142 N 336.629 6.84922 -1.54356 0
M  V30 3143 H 341.469 2.37654 -1.7979 0
M  V30 3144 H 339.006 1.16598 -0.896843 0
M  V30 3145 H 340.964 4.17111 -0.086186 0
M  V30 3146 H 339.594 3.18963 0.496235 0
M  V30 3147 H 338.646 3.28277 -1.92193 0
M  V30 3148 H 339.958 4.41122 -2.32836 0
M  V30 3149 H 339.112 6.03506 -0.621743 0
M  V30 3150 H 337.851 4.87564 -0.115377 0
M  V30 3151 H 336.856 4.93704 -2.41942 0
M  V30 3152 H 338.081 6.13062 -2.92115 0
M  V30 3153 H 336.027 6.52131 -0.711406 0
M  V30 3154 H 335.944 7.20043 -2.30379 0
M  V30 3155 H 337.212 7.69832 -1.22387 0
M  V30 3156 N 341.441 0.965919 1.2453 0
M  V30 3157 C 342.389 0.486506 2.27455 0
M  V30 3158 C 343.383 -0.449041 1.6334 0
M  V30 3159 O 344.589 -0.324527 1.7705 0
M  V30 3160 H 340.964 0.138857 0.739069 0
M  V30 3161 H 342.935 1.3666 2.65267 0
M  V30 3162 C 341.684 -0.209481 3.47068 0
M  V30 3163 H 341.007 0.50129 3.96645 0
M  V30 3164 H 342.447 -0.508775 4.20936 0
M  V30 3165 C 340.906 -1.43586 3.0477 0
M  V30 3166 O 341.436 -2.53299 3.11773 0
M  V30 3167 N 339.642 -1.30126 2.59838 0
M  V30 3168 H 339.189 -0.408583 2.54339 0
M  V30 3169 H 339.147 -2.12294 2.31902 0
M  V30 3170 N 342.919 -1.39368 0.735821 0
M  V30 3171 C 344.33 -1.83313 0.354015 0
M  V30 3172 C 344.681 -1.61461 -1.11466 0
M  V30 3173 O 343.806 -1.10621 -1.85989 0
M  V30 3174 C 344.401 -3.32781 0.635769 0
M  V30 3175 C 342.96 -3.75142 0.307448 0
M  V30 3176 C 342.107 -2.62358 0.897974 0
M  V30 3177 H 345.058 -1.28349 0.933398 0
M  V30 3178 H 345.079 -3.80388 -0.0921773 0
M  V30 3179 H 344.591 -3.48654 1.70476 0
M  V30 3180 H 342.692 -3.64857 -0.755674 0
M  V30 3181 H 342.805 -4.72532 0.790583 0
M  V30 3182 H 341.169 -2.52624 0.324551 0
M  V30 3183 H 341.952 -2.81036 1.97164 0
M  V30 3184 N 344.397 -0.483516 -1.5 0
M  V30 3185 C 345.622 0.0667119 -2.07293 0
M  V30 3186 C 346.047 1.3164 -1.3436 0
M  V30 3187 O 345.405 1.76945 -0.394987 0
M  V30 3188 C 345.453 0.321126 -3.59167 0
M  V30 3189 O 344.557 1.39927 -3.87936 0
M  V30 3190 H 343.898 -0.0184758 -0.663743 0
M  V30 3191 H 346.428 -0.678125 -1.93035 0
M  V30 3192 H 346.438 0.557906 -4.04168 0
M  V30 3193 H 345.113 -0.592007 -4.11665 0
M  V30 3194 H 343.69 1.14882 -3.54763 0
M  V30 3195 N 345.875 1.56104 -0.216619 0
M  V30 3196 C 347.121 1.99219 0.410301 0
M  V30 3197 C 347.476 1.10169 1.57735 0
M  V30 3198 O 346.769 0.150598 1.91007 0
M  V30 3199 C 346.963 3.45923 0.898464 0
M  V30 3200 C 346.792 4.49163 -0.219748 0
M  V30 3201 C 345.562 5.00642 -0.684516 0
M  V30 3202 C 347.76 5.03751 -1.03629 0
M  V30 3203 N 345.742 5.87579 -1.7783 0
M  V30 3204 C 347.113 5.87566 -1.97904 0
M  V30 3205 C 349.168 4.86128 -1.07629 0
M  V30 3206 C 347.871 6.5564 -2.95851 0
M  V30 3207 C 349.897 5.54958 -2.04392 0
M  V30 3208 C 349.259 6.38536 -2.97407 0
M  V30 3209 H 345.358 0.773206 0.11695 0
M  V30 3210 H 347.942 1.9193 -0.327258 0
M  V30 3211 H 346.113 3.53669 1.6054 0
M  V30 3212 H 347.845 3.75963 1.49779 0
M  V30 3213 H 344.6 4.72807 -0.27399 0
M  V30 3214 H 345.024 6.3575 -2.32705 0
M  V30 3215 H 349.666 4.21168 -0.371099 0
M  V30 3216 H 347.384 7.19785 -3.67335 0
M  V30 3217 H 350.97 5.43289 -2.08154 0
M  V30 3218 H 349.85 6.90858 -3.71059 0
M  V30 3219 N 347.353 -0.0568162 1.57498 0
M  V30 3220 C 348.578 -0.769402 1.92601 0
M  V30 3221 C 349.003 -1.69559 0.814336 0
M  V30 3222 O 348.361 -1.79811 -0.231903 0
M  V30 3223 C 348.409 -1.52634 3.26704 0
M  V30 3224 O 347.513 -2.63797 3.16994 0
M  V30 3225 H 346.854 -0.208909 0.63028 0
M  V30 3226 H 349.384 -0.0205798 2.0459 0
M  V30 3227 H 349.394 -1.90234 3.60936 0
M  V30 3228 H 348.069 -0.846875 4.07186 0
M  V30 3229 H 346.646 -2.28943 2.94346 0
M  V30 3230 N 348.832 -1.54138 -0.328536 0
M  V30 3231 C 349.78 -1.83894 -1.42428 0
M  V30 3232 C 350.774 -0.710478 -1.53781 0
M  V30 3233 O 351.98 -0.894062 -1.56226 0
M  V30 3234 H 348.355 -0.582837 -0.475189 0
M  V30 3235 H 350.326 -2.75537 -1.14552 0
M  V30 3236 C 349.075 -2.07866 -2.78724 0
M  V30 3237 H 348.398 -2.94158 -2.7076 0
M  V30 3238 H 349.838 -2.32644 -3.54476 0
M  V30 3239 C 348.297 -0.868689 -3.25508 0
M  V30 3240 O 348.827 -0.0754908 -4.01629 0
M  V30 3241 N 347.033 -0.681711 -2.82491 0
M  V30 3242 H 346.58 -1.32838 -2.20708 0
M  V30 3243 H 346.538 0.126374 -3.14146 0
M  V30 3244 N 350.31 0.590341 -1.46126 0
M  V30 3245 C 351.556 1.35082 -1.51264 0
M  V30 3246 C 351.889 1.93534 -0.160711 0
M  V30 3247 O 351.164 1.76045 0.826956 0
M  V30 3248 C 351.447 2.48588 -2.6053 0
M  V30 3249 C 351.3 1.95221 -4.05227 0
M  V30 3250 C 352.619 3.50662 -2.6594 0
M  V30 3251 H 349.738 0.489803 -0.550692 0
M  V30 3252 H 352.38 0.663887 -1.78024 0
M  V30 3253 H 350.53 3.07186 -2.37843 0
M  V30 3254 H 352.202 1.41139 -4.39178 0
M  V30 3255 H 350.445 1.26101 -4.15068 0
M  V30 3256 H 351.116 2.77121 -4.77397 0
M  V30 3257 H 353.592 3.01934 -2.86313 0
M  V30 3258 H 352.468 4.27551 -3.44226 0
M  V30 3259 H 352.729 4.07399 -1.71694 0
M  V30 3260 N 351.788 1.33704 0.83433 0
M  V30 3261 C 352.72 1.20172 1.9517 0
M  V30 3262 C 353.733 0.131572 1.62267 0
M  V30 3263 O 354.922 0.382406 1.74356 0
M  V30 3264 C 352.022 0.821716 3.28787 0
M  V30 3265 C 351.195 1.98446 3.89792 0
M  V30 3266 C 350.254 1.58469 5.01771 0
M  V30 3267 O 349.28 2.29968 5.20676 0
M  V30 3268 N 350.482 0.492291 5.78409 0
M  V30 3269 H 353.247 2.16429 2.07313 0
M  V30 3270 H 350.808 1.26509 1.0103 0
M  V30 3271 H 352.8 0.536291 4.01131 0
M  V30 3272 H 351.37 -0.0503058 3.1256 0
M  V30 3273 H 350.59 2.43526 3.09982 0
M  V30 3274 H 351.878 2.76236 4.27283 0
M  V30 3275 H 351.276 -0.102349 5.65607 0
M  V30 3276 H 349.833 0.266555 6.51255 0
M  V30 3277 N 353.266 -1.05314 1.17247 0
M  V30 3278 C 354.515 -1.77685 0.954521 0
M  V30 3279 C 354.828 -1.88616 -0.518025 0
M  V30 3280 O 356.034 -2.57714 -0.854144 0
M  V30 3281 C 354.49 -3.19402 1.65863 0
M  V30 3282 C 354.098 -3.16605 3.16963 0
M  V30 3283 C 355.842 -3.96237 1.52303 0
M  V30 3284 C 353.749 -4.53103 3.80068 0
M  V30 3285 H 352.679 -0.666 0.353496 0
M  V30 3286 H 355.33 -1.1805 1.40486 0
M  V30 3287 H 353.712 -3.79355 1.13602 0
M  V30 3288 H 354.886 -2.66176 3.76148 0
M  V30 3289 H 353.201 -2.53268 3.30521 0
M  V30 3290 H 355.798 -4.97157 1.96822 0
M  V30 3291 H 356.141 -4.136 0.473401 0
M  V30 3292 H 356.674 -3.42829 2.01775 0
M  V30 3293 H 353.413 -4.40946 4.85023 0
M  V30 3294 H 352.933 -5.03686 3.2567 0
M  V30 3295 H 354.612 -5.22045 3.82202 0
M  V30 3296 N 354.744 -0.972509 -1.24016 0
M  V30 3297 C 356.16 -0.679827 -1.44397 0
M  V30 3298 C 356.36 0.756716 -1.86751 0
M  V30 3299 O 355.416 1.53007 -2.00861 0
M  V30 3300 C 356.729 -1.66803 -2.50195 0
M  V30 3301 C 358.277 -1.68119 -2.64017 0
M  V30 3302 C 358.752 -2.65748 -3.73017 0
M  V30 3303 N 360.243 -2.64219 -3.8045 0
M  V30 3304 C 360.978 -3.36433 -4.64328 0
M  V30 3305 N 360.474 -4.1818 -5.52356 0
M  V30 3306 N 362.267 -3.25235 -4.58453 0
M  V30 3307 H 354.418 -1.90059 -0.948228 0
M  V30 3308 H 356.681 -0.818527 -0.478245 0
M  V30 3309 H 356.387 -2.69498 -2.25973 0
M  V30 3310 H 356.261 -1.4446 -3.48441 0
M  V30 3311 H 358.648 -0.661319 -2.87594 0
M  V30 3312 H 358.729 -1.94525 -1.66113 0
M  V30 3313 H 358.373 -3.67872 -3.50189 0
M  V30 3314 H 358.303 -2.36619 -4.70446 0
M  V30 3315 H 360.794 -2.04887 -3.17537 0
M  V30 3316 H 361.107 -4.70157 -6.13329 0
M  V30 3317 H 359.452 -4.22273 -5.52006 0
M  V30 3318 H 362.643 -2.60829 -3.88698 0
M  V30 3319 H 362.816 -3.81776 -5.23594 0
M  V30 3320 N 356.222 1.38976 -0.743202 0
M  V30 3321 C 357.17 2.32394 -0.0978389 0
M  V30 3322 C 358.164 1.53486 0.716824 0
M  V30 3323 O 359.37 1.69092 0.617088 0
M  V30 3324 H 355.745 0.75189 -0.0128402 0
M  V30 3325 H 357.716 2.84441 -0.901981 0
M  V30 3326 C 356.465 3.38629 0.789036 0
M  V30 3327 H 355.788 3.99432 0.171559 0
M  V30 3328 H 357.228 4.06426 1.20807 0
M  V30 3329 C 355.687 2.76347 1.92702 0
M  V30 3330 O 356.217 2.64836 3.02034 0
M  V30 3331 N 354.423 2.34311 1.71891 0
M  V30 3332 H 353.97 2.43873 0.829675 0
M  V30 3333 H 353.928 1.9298 2.48205 0
M  V30 3334 N 357.7 0.491464 1.49741 0
M  V30 3335 C 358.65 -0.311086 2.25868 0
M  V30 3336 C 359.634 -0.943857 1.30308 0
M  V30 3337 O 360.826 -0.853035 1.55088 0
M  V30 3338 C 357.955 -1.38059 3.14316 0
M  V30 3339 C 357.041 -0.754541 4.17334 0
M  V30 3340 N 357.432 0.137216 5.05614 0
M  V30 3341 C 355.73 -1.01621 4.34269 0
M  V30 3342 C 356.431 0.494614 5.79593 0
M  V30 3343 N 355.407 -0.135169 5.43432 0
M  V30 3344 H 359.209 0.37555 2.91491 0
M  V30 3345 H 356.723 0.306917 1.59473 0
M  V30 3346 H 358.72 -1.96891 3.67477 0
M  V30 3347 H 357.38 -2.06901 2.50244 0
M  V30 3348 H 358.391 0.50741 5.15408 0
M  V30 3349 H 355.068 -1.69808 3.81407 0
M  V30 3350 H 356.458 1.2236 6.60665 0
M  V30 3351 N 359.178 -1.55987 0.224894 0
M  V30 3352 C 360.108 -2.23426 -0.678457 0
M  V30 3353 C 361.089 -1.20709 -1.19847 0
M  V30 3354 O 362.274 -1.49304 -1.24186 0
M  V30 3355 C 359.404 -2.91676 -1.88527 0
M  V30 3356 C 358.358 -4.00893 -1.49896 0
M  V30 3357 C 357.684 -4.56455 -2.78483 0
M  V30 3358 C 358.984 -5.17769 -0.686461 0
M  V30 3359 H 360.678 -2.99175 -0.116173 0
M  V30 3360 H 358.224 -1.43897 -0.054436 0
M  V30 3361 H 360.177 -3.37547 -2.5227 0
M  V30 3362 H 358.901 -2.1338 -2.47258 0
M  V30 3363 H 357.56 -3.55758 -0.884985 0
M  V30 3364 H 357.208 -3.74886 -3.35365 0
M  V30 3365 H 356.908 -5.30169 -2.53368 0
M  V30 3366 H 358.432 -5.05047 -3.43162 0
M  V30 3367 H 359.846 -5.60001 -1.22767 0
M  V30 3368 H 358.243 -5.97735 -0.532259 0
M  V30 3369 H 359.313 -4.83932 0.306196 0
M  V30 3370 N 360.656 0.0484629 -1.57525 0
M  V30 3371 C 361.603 1.05504 -2.05275 0
M  V30 3372 C 362.573 1.37084 -0.937927 0
M  V30 3373 O 363.758 1.47754 -1.2072 0
M  V30 3374 C 360.898 2.35676 -2.52093 0
M  V30 3375 C 360.011 2.10423 -3.77288 0
M  V30 3376 C 359.146 3.34327 -4.12794 0
M  V30 3377 C 358.185 3.04542 -5.30962 0
M  V30 3378 N 357.322 4.20841 -5.61994 0
M  V30 3379 H 362.162 0.640885 -2.91027 0
M  V30 3380 H 359.699 0.304854 -1.43906 0
M  V30 3381 H 361.657 3.11709 -2.77297 0
M  V30 3382 H 360.287 2.7485 -1.69285 0
M  V30 3383 H 359.339 1.24976 -3.59284 0
M  V30 3384 H 360.651 1.84438 -4.63448 0
M  V30 3385 H 359.805 4.1874 -4.39024 0
M  V30 3386 H 358.544 3.63408 -3.25247 0
M  V30 3387 H 357.549 2.18528 -5.04505 0
M  V30 3388 H 358.774 2.76758 -6.20146 0
M  V30 3389 H 356.72 4.4991 -4.77406 0
M  V30 3390 H 356.637 3.98212 -6.42622 0
M  V30 3391 H 357.905 5.06184 -5.92789 0
M  V30 3392 N 362.134 1.5431 0.320358 0
M  V30 3393 C 363.082 1.84647 1.4145 0
M  V30 3394 C 364.076 0.718624 1.53402 0
M  V30 3395 O 365.282 0.902335 1.5575 0
M  V30 3396 H 361.657 0.585349 0.472091 0
M  V30 3397 H 363.628 2.7614 1.13089 0
M  V30 3398 C 362.377 2.09341 2.77617 0
M  V30 3399 H 361.7 2.9559 2.69196 0
M  V30 3400 H 363.14 2.3452 3.53237 0
M  V30 3401 C 361.599 0.885939 3.25043 0
M  V30 3402 O 362.129 0.0967891 4.01583 0
M  V30 3403 N 360.335 0.696682 2.82125 0
M  V30 3404 H 359.882 1.34006 2.2 0
M  V30 3405 H 359.84 -0.109712 3.14209 0
M  V30 3406 N 363.613 -0.582584 1.46437 0
M  V30 3407 C 364.841 -1.36682 1.55324 0
M  V30 3408 C 365.256 -1.87796 0.194409 0
M  V30 3409 O 364.613 -1.63623 -0.808318 0
M  V30 3410 C 364.664 -2.55426 2.55812 0
M  V30 3411 O 364.385 -2.0643 3.86417 0
M  V30 3412 C 365.886 -3.47976 2.74641 0
M  V30 3413 H 363.106 -0.417545 0.525259 0
M  V30 3414 H 365.65 -0.708219 1.91845 0
M  V30 3415 H 363.805 -3.17275 2.22295 0
M  V30 3416 H 364.219 -2.83762 4.41111 0
M  V30 3417 H 365.693 -4.27775 3.48874 0
M  V30 3418 H 366.17 -3.99919 1.81553 0
M  V30 3419 H 366.776 -2.91962 3.09255 0
M  V30 3420 N 365.091 -1.34144 -0.827227 0
M  V30 3421 C 366.054 -1.25264 -1.91942 0
M  V30 3422 C 367.054 -0.168866 -1.59911 0
M  V30 3423 O 368.244 -0.421198 -1.69031 0
M  V30 3424 C 365.376 -0.932952 -3.27885 0
M  V30 3425 H 366.569 -2.22357 -2.0124 0
M  V30 3426 H 364.122 -1.1837 -1.0207 0
M  V30 3427 H 364.857 0.0349917 -3.24281 0
M  V30 3428 H 364.642 -1.71682 -3.52516 0
M  V30 3429 H 366.132 -0.895874 -4.07877 0
M  V30 3430 N 366.569 1.04691 -1.17803 0
M  V30 3431 C 367.797 1.81446 -0.99423 0
M  V30 3432 C 368.212 1.83174 0.457459 0
M  V30 3433 O 367.569 1.26265 1.31771 0
M  V30 3434 C 367.62 3.27334 -1.5341 0
M  V30 3435 O 367.341 3.25798 -2.92895 0
M  V30 3436 C 368.842 4.20759 -1.39559 0
M  V30 3437 H 366.062 0.571599 -0.351447 0
M  V30 3438 H 368.606 1.31982 -1.56208 0
M  V30 3439 H 366.761 3.74052 -1.00815 0
M  V30 3440 H 367.175 4.17144 -3.17949 0
M  V30 3441 H 368.649 5.21084 -1.82141 0
M  V30 3442 H 369.126 4.37856 -0.343394 0
M  V30 3443 H 369.732 3.79901 -1.91195 0
M  V30 3444 N 368.047 0.979072 1.23499 0
M  V30 3445 C 369.272 0.664845 1.96455 0
M  V30 3446 C 369.697 -0.761287 1.72006 0
M  V30 3447 O 369.055 -1.51837 0.990713 0
M  V30 3448 C 369.103 0.959479 3.47601 0
M  V30 3449 O 368.207 0.0508168 4.12369 0
M  V30 3450 H 367.548 0.250185 0.615064 0
M  V30 3451 H 370.078 1.31231 1.5697 0
M  V30 3452 H 370.088 0.895642 3.98048 0
M  V30 3453 H 368.763 1.99876 3.64723 0
M  V30 3454 H 367.34 0.16895 3.72517 0
M  V30 3455 N 369.525 -1.3858 0.750561 0
M  V30 3456 C 370.455 -2.33102 0.136237 0
M  V30 3457 C 371.436 -1.54713 -0.706965 0
M  V30 3458 O 372.621 -1.83043 -0.648769 0
M  V30 3459 C 369.751 -3.38882 -0.760017 0
M  V30 3460 C 368.705 -4.27995 -0.0197785 0
M  V30 3461 C 368.031 -5.24605 -1.03408 0
M  V30 3462 C 369.331 -5.09554 1.14684 0
M  V30 3463 H 371.025 -2.84726 0.925822 0
M  V30 3464 H 368.571 -1.36898 0.446654 0
M  V30 3465 H 370.524 -4.0397 -1.19943 0
M  V30 3466 H 369.248 -2.85734 -1.58189 0
M  V30 3467 H 367.907 -3.64409 0.400184 0
M  V30 3468 H 367.555 -4.67746 -1.84994 0
M  V30 3469 H 367.255 -5.85081 -0.543464 0
M  V30 3470 H 368.779 -5.9257 -1.47288 0
M  V30 3471 H 370.193 -5.67899 0.785118 0
M  V30 3472 H 368.59 -5.7925 1.56812 0
M  V30 3473 H 369.66 -4.4347 1.96118 0
M  V30 3474 N 371.003 -0.499398 -1.49478 0
M  V30 3475 C 372.251 0.0455996 -2.02049 0
M  V30 3476 C 372.572 1.37633 -1.38138 0
M  V30 3477 O 371.842 1.8842 -0.536166 0
M  V30 3478 H 370.422 0.0198416 -0.746736 0
M  V30 3479 H 373.084 -0.656274 -1.83519 0
M  V30 3480 H 372.18 0.176445 -3.11601 0
M  V30 3481 N 372.481 1.55866 -0.233164 0
M  V30 3482 C 373.706 2.03449 0.402906 0
M  V30 3483 C 374.131 1.11166 1.51736 0
M  V30 3484 O 373.489 0.101996 1.81013 0
M  V30 3485 C 373.537 3.49165 0.9009 0
M  V30 3486 O 372.641 3.60019 2.01147 0
M  V30 3487 H 371.982 0.657913 0.0897025 0
M  V30 3488 H 374.512 2.01493 -0.355201 0
M  V30 3489 H 374.522 3.89716 1.2077 0
M  V30 3490 H 373.197 4.15813 0.0852889 0
M  V30 3491 H 371.774 3.3136 1.71042 0
M  V30 3492 N 373.959 -0.0401083 1.57549 0
M  V30 3493 C 375.187 -0.745196 1.93014 0
M  V30 3494 C 375.602 -1.6948 0.831984 0
M  V30 3495 O 374.959 -1.81482 -0.192463 0
M  V30 3496 C 375.01 -1.51176 3.28372 0
M  V30 3497 O 374.731 -0.600284 4.33968 0
M  V30 3498 C 376.232 -2.315 3.78051 0
M  V30 3499 H 373.452 -0.210088 0.637263 0
M  V30 3500 H 375.996 -0.000924689 2.045 0
M  V30 3501 H 374.151 -2.20801 3.18317 0
M  V30 3502 H 374.565 -1.13669 5.12035 0
M  V30 3503 H 376.039 -2.80697 4.75303 0
M  V30 3504 H 376.516 -3.12436 3.08675 0
M  V30 3505 H 377.122 -1.66971 3.91153 0
M  V30 3506 N 375.437 -1.54477 -0.31217 0
M  V30 3507 C 376.385 -1.85395 -1.40469 0
M  V30 3508 C 377.379 -0.726749 -1.53019 0
M  V30 3509 O 378.585 -0.910582 -1.55269 0
M  V30 3510 H 374.96 -0.587845 -0.46898 0
M  V30 3511 H 376.931 -2.76736 -1.11623 0
M  V30 3512 C 375.68 -2.10811 -2.76503 0
M  V30 3513 H 375.003 -2.97014 -2.67625 0
M  V30 3514 H 376.443 -2.3639 -3.51988 0
M  V30 3515 C 374.902 -0.903165 -3.24568 0
M  V30 3516 O 375.432 -0.118085 -4.01526 0
M  V30 3517 N 373.638 -0.711634 -2.81752 0
M  V30 3518 H 373.185 -1.35171 -2.19286 0
M  V30 3519 H 373.143 0.0930473 -3.14262 0
M  V30 3520 N 376.915 0.57481 -1.46744 0
M  V30 3521 C 377.845 1.69337 -1.60771 0
M  V30 3522 C 378.826 1.63825 -0.457736 0
M  V30 3523 O 380.011 1.8172 -0.684947 0
M  V30 3524 C 377.141 3.0798 -1.60517 0
M  V30 3525 C 376.095 3.28327 -2.74564 0
M  V30 3526 C 375.421 4.67578 -2.59373 0
M  V30 3527 C 376.721 3.15398 -4.16319 0
M  V30 3528 H 378.415 1.57853 -2.54407 0
M  V30 3529 H 375.961 0.75799 -1.22436 0
M  V30 3530 H 377.914 3.86061 -1.68923 0
M  V30 3531 H 376.638 3.20381 -0.634305 0
M  V30 3532 H 375.297 2.52649 -2.65639 0
M  V30 3533 H 374.945 4.76755 -1.60353 0
M  V30 3534 H 374.645 4.82144 -3.35873 0
M  V30 3535 H 376.169 5.47817 -2.69682 0
M  V30 3536 H 377.583 3.83315 -4.26313 0
M  V30 3537 H 375.98 3.41482 -4.93468 0
M  V30 3538 H 377.05 2.12372 -4.3592 0
M  V30 3539 N 378.394 1.34581 0.820102 0
M  V30 3540 C 379.624 1.29991 1.6058 0
M  V30 3541 C 380.032 -0.127588 1.88769 0
M  V30 3542 O 379.375 -1.08595 1.48165 0
M  V30 3543 C 379.437 2.02548 2.9701 0
M  V30 3544 C 379.101 3.51794 2.91701 0
M  V30 3545 C 380.098 4.46647 2.66087 0
M  V30 3546 C 377.783 3.94249 3.11245 0
M  V30 3547 C 379.777 5.81929 2.60071 0
M  V30 3548 C 377.464 5.2963 3.04853 0
M  V30 3549 C 378.462 6.23282 2.793 0
M  V30 3550 O 378.15 7.56181 2.72847 0
M  V30 3551 H 377.882 0.448539 0.505756 0
M  V30 3552 H 380.436 1.77811 1.02822 0
M  V30 3553 H 378.666 1.49345 3.56697 0
M  V30 3554 H 380.355 1.91211 3.58041 0
M  V30 3555 H 381.121 4.15168 2.5072 0
M  V30 3556 H 377 3.21749 3.30149 0
M  V30 3557 H 380.544 6.54999 2.40046 0
M  V30 3558 H 376.441 5.60727 3.19774 0
M  V30 3559 H 377.209 7.6595 2.88553 0
M  V30 3560 N 379.872 -1.04064 1.18357 0
M  V30 3561 C 381.12 -1.76915 0.977013 0
M  V30 3562 C 381.441 -1.88624 -0.494577 0
M  V30 3563 O 380.711 -1.41125 -1.3587 0
M  V30 3564 H 379.291 -0.65535 0.358504 0
M  V30 3565 H 381.953 -1.25592 1.49039 0
M  V30 3566 H 381.049 -2.78178 1.41504 0
M  V30 3567 N 381.35 -0.985608 -1.22978 0
M  V30 3568 C 382.575 -0.675254 -1.961 0
M  V30 3569 C 383 0.752154 -1.72407 0
M  V30 3570 O 382.358 1.5131 -0.998751 0
M  V30 3571 C 382.406 -0.977899 -3.47087 0
M  V30 3572 O 381.51 -0.072685 -4.12336 0
M  V30 3573 H 380.851 -0.253443 -0.613728 0
M  V30 3574 H 383.381 -1.32061 -1.56272 0
M  V30 3575 H 383.391 -0.916739 -3.97567 0
M  V30 3576 H 382.066 -2.01807 -3.63657 0
M  V30 3577 H 380.643 -0.188703 -3.72422 0
M  V30 3578 N 382.828 1.3818 -0.7579 0
M  V30 3579 C 384.076 1.99624 -0.315361 0
M  V30 3580 C 384.397 1.60464 1.10799 0
M  V30 3581 O 383.667 0.863507 1.75842 0
M  V30 3582 H 382.247 0.73831 -0.113611 0
M  V30 3583 H 384.909 1.68878 -0.972952 0
M  V30 3584 H 384.005 3.09754 -0.381931 0
M  V30 3585 N 384.306 0.507319 1.49211 0
M  V30 3586 C 385.236 -0.256939 2.32082 0
M  V30 3587 C 386.217 -0.956609 1.40652 0
M  V30 3588 O 387.402 -0.946788 1.69557 0
M  V30 3589 C 384.532 -1.31802 3.21318 0
M  V30 3590 C 383.486 -0.737855 4.21592 0
M  V30 3591 C 382.812 -1.89992 4.99807 0
M  V30 3592 C 384.112 0.275325 5.21574 0
M  V30 3593 H 385.806 0.434798 2.96226 0
M  V30 3594 H 383.352 0.210546 1.42452 0
M  V30 3595 H 385.305 -1.86045 3.78107 0
M  V30 3596 H 384.029 -2.03903 2.5513 0
M  V30 3597 H 382.688 -0.217126 3.65956 0
M  V30 3598 H 382.336 -2.60877 4.30061 0
M  V30 3599 H 382.036 -1.51777 5.6766 0
M  V30 3600 H 383.56 -2.44657 5.59442 0
M  V30 3601 H 384.974 -0.179193 5.7302 0
M  V30 3602 H 383.371 0.573649 5.97352 0
M  V30 3603 H 384.441 1.18903 4.70096 0
M  V30 3604 N 385.784 -1.5574 0.241426 0
M  V30 3605 C 387.03 -1.99104 -0.385406 0
M  V30 3606 C 387.363 -1.1293 -1.57988 0
M  V30 3607 O 386.638 -0.191449 -1.93555 0
M  V30 3608 C 386.921 -3.51087 -0.800616 0
M  V30 3609 C 386.774 -4.48028 0.398874 0
M  V30 3610 C 388.093 -4.08015 -1.64959 0
M  V30 3611 H 385.212 -0.723848 -0.138614 0
M  V30 3612 H 387.854 -1.86903 0.341642 0
M  V30 3613 H 386.004 -3.61615 -1.4201 0
M  V30 3614 H 387.676 -4.49487 1.03726 0
M  V30 3615 H 385.919 -4.21077 1.04293 0
M  V30 3616 H 386.59 -5.51962 0.0651056 0
M  V30 3617 H 389.066 -4.00555 -1.12672 0
M  V30 3618 H 387.942 -5.14635 -1.90898 0
M  V30 3619 H 388.203 -3.56131 -2.61961 0
M  V30 3620 N 387.262 0.0317525 -1.57568 0
M  V30 3621 C 388.21 1.05165 -2.07468 0
M  V30 3622 C 389.204 1.3761 -0.98792 0
M  V30 3623 O 390.41 1.36546 -1.17282 0
M  V30 3624 H 386.785 0.35666 -0.66204 0
M  V30 3625 H 388.756 0.604958 -2.92203 0
M  V30 3626 C 387.505 2.34488 -2.56731 0
M  V30 3627 H 386.828 2.10383 -3.39969 0
M  V30 3628 H 388.268 3.04203 -2.95358 0
M  V30 3629 C 386.727 3.03266 -1.46736 0
M  V30 3630 O 387.257 3.92988 -0.832069 0
M  V30 3631 N 385.463 2.6455 -1.20256 0
M  V30 3632 H 385.01 1.91674 -1.72102 0
M  V30 3633 H 384.968 3.10886 -0.468737 0
M  V30 3634 N 388.74 1.54641 0.303973 0
M  V30 3635 C 389.703 1.84646 1.35789 0
M  V30 3636 C 390.703 0.7192 1.4382 0
M  V30 3637 O 391.893 0.987491 1.43507 0
M  V30 3638 C 389.025 2.02407 2.74307 0
M  V30 3639 H 390.218 2.78829 1.10429 0
M  V30 3640 H 387.771 1.46658 0.540487 0
M  V30 3641 H 388.506 1.10502 3.04893 0
M  V30 3642 H 388.291 2.84453 2.69868 0
M  V30 3643 H 389.781 2.27002 3.50514 0
M  V30 3644 N 390.218 -0.567019 1.47046 0
M  V30 3645 C 391.128 -1.70247 1.6141 0
M  V30 3646 C 392.144 -1.66746 0.497157 0
M  V30 3647 O 393.32 -1.86371 0.763389 0
M  V30 3648 C 390.385 -3.06756 1.61561 0
M  V30 3649 C 389.446 -3.21399 2.84607 0
M  V30 3650 C 388.679 -4.51396 2.84741 0
M  V30 3651 O 388.902 -5.36255 1.94388 0
M  V30 3652 O 387.836 -4.69621 3.76483 0
M  V30 3653 H 391.662 -1.61073 2.57467 0
M  V30 3654 H 389.247 -0.735894 1.30019 0
M  V30 3655 H 391.129 -3.8801 1.64396 0
M  V30 3656 H 389.804 -3.16333 0.686684 0
M  V30 3657 H 388.711 -2.39579 2.8732 0
M  V30 3658 H 390.044 -3.16721 3.76761 0
M  V30 3659 N 391.696 -1.35014 -0.812953 0
M  V30 3660 C 392.659 -1.27292 -1.90602 0
M  V30 3661 C 393.659 -0.185817 -1.59723 0
M  V30 3662 O 394.849 -0.439102 -1.68575 0
M  V30 3663 C 391.981 -0.967676 -3.26877 0
M  V30 3664 H 393.174 -2.24479 -1.9887 0
M  V30 3665 H 390.727 -1.19446 -1.00808 0
M  V30 3666 H 391.462 0.0005954 -3.243 0
M  V30 3667 H 391.247 -1.75412 -3.50675 0
M  V30 3668 H 392.737 -0.939085 -4.06904 0
M  V30 3669 N 393.175 1.03435 -1.18907 0
M  V30 3670 C 394.138 2.09756 -0.923844 0
M  V30 3671 C 395.138 1.60528 0.093416 0
M  V30 3672 O 396.328 1.73631 -0.140727 0
M  V30 3673 C 393.46 3.38692 -0.387354 0
M  V30 3674 H 394.653 2.34719 -1.86674 0
M  V30 3675 H 392.206 1.19959 -1.00197 0
M  V30 3676 H 392.941 3.19396 0.561845 0
M  V30 3677 H 392.726 3.75742 -1.12074 0
M  V30 3678 H 394.216 4.17016 -0.220694 0
M  V30 3679 N 394.653 0.992116 1.22453 0
M  V30 3680 C 395.881 0.685944 1.95198 0
M  V30 3681 C 396.296 -0.749233 1.73297 0
M  V30 3682 O 395.653 -1.50549 1.03156 0
M  V30 3683 C 395.704 0.981395 3.47924 0
M  V30 3684 O 395.425 2.36018 3.6909 0
M  V30 3685 C 396.926 0.692815 4.37853 0
M  V30 3686 H 394.146 0.253821 0.621141 0
M  V30 3687 H 396.69 1.32668 1.55626 0
M  V30 3688 H 394.845 0.386481 3.85467 0
M  V30 3689 H 395.259 2.45884 4.63294 0
M  V30 3690 H 396.733 0.949818 5.43767 0
M  V30 3691 H 397.21 -0.373181 4.37612 0
M  V30 3692 H 397.816 1.26874 4.05935 0
M  V30 3693 N 396.131 -1.37776 0.765217 0
M  V30 3694 C 397.547 -1.53297 0.444108 0
M  V30 3695 C 397.747 -1.72515 -1.04119 0
M  V30 3696 O 396.803 -1.74278 -1.82711 0
M  V30 3697 C 398.116 -2.73328 1.25349 0
M  V30 3698 C 399.664 -2.87185 1.24473 0
M  V30 3699 C 400.139 -4.10191 2.03733 0
M  V30 3700 N 401.63 -4.17291 2.01053 0
M  V30 3701 C 402.365 -5.11488 2.59166 0
M  V30 3702 N 401.861 -6.11285 3.26041 0
M  V30 3703 N 403.654 -5.03924 2.49032 0
M  V30 3704 H 395.805 -1.23552 1.72768 0
M  V30 3705 H 398.068 -0.601103 0.733062 0
M  V30 3706 H 397.774 -2.6557 2.30577 0
M  V30 3707 H 397.648 -3.66834 0.87823 0
M  V30 3708 H 400.035 -2.94418 0.20047 0
M  V30 3709 H 400.116 -1.94657 1.65959 0
M  V30 3710 H 399.76 -4.0372 3.08176 0
M  V30 3711 H 399.69 -5.01821 1.59633 0
M  V30 3712 H 402.181 -3.45825 1.5236 0
M  V30 3713 H 402.494 -6.79678 3.67774 0
M  V30 3714 H 400.839 -6.11583 3.30138 0
M  V30 3715 H 404.03 -4.24902 1.96407 0
M  V30 3716 H 404.203 -5.77152 2.94617 0
M  V30 3717 O 397.648 -0.656736 -1.47544 0
M  V30 3718 H 398.339 -0.183317 -1.92831 0
M  V30 END ATOM
M  V30 BEGIN BOND
M  V30 END BOND
M  V30 END CTAB
M  END
$$$$
