drugbank_target|P14739 Uracil-DNA glycosylase inhibitor (DB03366)
 OpenBabel12092120273D

  0  0  0     0  0            999 V3000
M  V30 BEGIN CTAB
M  V30 COUNTS 3033 3238 0 0 0
M  V30 BEGIN ATOM
M  V30 1 H -1.547 9.37743 -1.21644 0
M  V30 2 O -1.44 8.89599 -0.40059 0
M  V30 3 P 0 8.91 0 0
M  V30 4 O 0.22 10.1746 0.733838 0
M  V30 5 O 0.79 8.73346 -1.23964 0
M  V30 6 O 0.25 7.66872 0.971405 0
M  V30 7 C -0.69 7.42405 2.04668 0
M  V30 8 C 0.04 6.86059 3.24661 0
M  V30 9 O 0.25 5.42934 3.03695 0
M  V30 10 C 1.44 7.41287 3.50796 0
M  V30 11 O 1.83 7.27073 4.86816 0
M  V30 12 C 2.32 6.5273 2.63741 0
M  V30 13 C 1.61 5.1842 2.73198 0
M  V30 14 N 1.66 4.38762 1.4784 0
M  V30 15 H -1.178 8.36899 2.3252 0
M  V30 16 H -1.45 6.70391 1.71179 0
M  V30 17 H -0.582 7.03638 4.13219 0
M  V30 18 H 2.073 4.59931 3.54016 0
M  V30 19 H 2.353 6.88995 1.59871 0
M  V30 20 H 3.344 6.4684 3.0373 0
M  V30 21 H 1.51 8.47002 3.20749 0
M  V30 22 P 3.37998 7.20834 5.23717 0
M  V30 23 O 3.59998 7.7993 6.57351 0
M  V30 24 O 4.16998 7.79328 4.13004 0
M  V30 25 O 3.62998 5.63315 5.29344 0
M  V30 26 C 2.68998 4.80193 6.01798 0
M  V30 27 C 3.41998 3.64202 6.65911 0
M  V30 28 O 3.62998 2.60694 5.64732 0
M  V30 29 C 4.81998 3.93473 7.1943 0
M  V30 30 O 5.20998 3.02071 8.21205 0
M  V30 31 C 5.69998 3.73047 5.97036 0
M  V30 32 C 4.98998 2.58828 5.25741 0
M  V30 33 N 5.03998 2.6801 3.77422 0
M  V30 34 C 5.18998 1.50443 3.07133 0
M  V30 35 O 5.27998 0.419406 3.61576 0
M  V30 36 N 5.22998 1.6403 1.69677 0
M  V30 37 C 5.13998 2.81206 0.986255 0
M  V30 38 O 5.18998 2.80892 -0.249754 0
M  V30 39 C 4.98998 3.99158 1.80325 0
M  V30 40 C 4.87998 5.29309 1.06921 0
M  V30 41 C 4.93998 3.89779 3.1476 0
M  V30 42 H 2.19998 5.40332 6.79951 0
M  V30 43 H 1.93098 4.41549 5.32301 0
M  V30 44 H 2.79798 3.26331 7.47797 0
M  V30 45 H 5.45298 1.6395 5.56554 0
M  V30 46 H 5.73198 4.63439 5.3432 0
M  V30 47 H 6.72398 3.44728 6.25838 0
M  V30 48 H 4.88998 4.96652 7.57263 0
M  V30 49 H 4.81898 4.80159 3.74441 0
M  V30 50 H 5.84898 5.81459 1.09608 0
M  V30 51 H 4.11198 5.9187 1.54487 0
M  V30 52 H 4.59998 5.10095 0.0220288 0
M  V30 53 H 5.33598 0.798962 1.16664 0
M  V30 54 P 6.75996 2.75334 8.47391 0
M  V30 55 O 6.97996 2.44571 9.90142 0
M  V30 56 O 7.54996 3.87688 7.92115 0
M  V30 57 O 7.00996 1.4459 7.59357 0
M  V30 58 C 6.06996 0.347608 7.69215 0
M  V30 59 C 6.79996 -0.96767 7.52806 0
M  V30 60 O 7.00996 -1.21036 6.1011 0
M  V30 61 C 8.19996 -1.04544 8.13308 0
M  V30 62 O 8.58996 -2.38311 8.41922 0
M  V30 63 C 9.07996 -0.491279 7.02284 0
M  V30 64 C 8.36996 -0.996264 5.77469 0
M  V30 65 N 8.41996 -0.0501916 4.62973 0
M  V30 66 H 5.58096 0.374722 8.67691 0
M  V30 67 H 5.31096 0.443485 6.90277 0
M  V30 68 H 6.17796 -1.75537 7.96793 0
M  V30 69 P 10.1399 -2.75334 8.47391 0
M  V30 70 O 10.3599 -3.84128 9.44797 0
M  V30 71 O 10.9299 -1.51947 8.68712 0
M  V30 72 O 10.3899 -3.29363 6.99321 0
M  V30 73 C 9.44994 -4.24011 6.4274 0
M  V30 74 C 10.1799 -5.20775 5.52155 0
M  V30 75 O 10.3899 -4.56534 4.22446 0
M  V30 76 C 11.5799 -5.62629 5.96531 0
M  V30 77 O 11.9699 -6.87667 5.41053 0
M  V30 78 C 12.4599 -4.52537 5.39283 0
M  V30 79 C 11.7499 -4.20027 4.08623 0
M  V30 80 N 11.7999 -2.76189 3.71603 0
M  V30 81 H 8.96094 -4.797 7.24003 0
M  V30 82 H 8.69094 -3.69856 5.84513 0
M  V30 83 H 9.55794 -6.10356 5.41441 0
M  V30 84 P 13.5199 -7.20834 5.23717 0
M  V30 85 O 13.7399 -8.66104 5.38572 0
M  V30 86 O 14.3099 -6.33544 6.1349 0
M  V30 87 O 13.7699 -6.7751 3.72168 0
M  V30 88 C 12.8299 -7.20825 2.7076 0
M  V30 89 C 13.5599 -7.45864 1.40599 0
M  V30 90 O 13.7699 -6.17651 0.734225 0
M  V30 91 C 14.9599 -8.05808 1.51899 0
M  V30 92 O 15.3499 -8.74358 0.335205 0
M  V30 93 C 15.8399 -6.83093 1.70294 0
M  V30 94 C 15.1299 -5.79992 0.836974 0
M  V30 95 N 15.1799 -4.41864 1.38293 0
M  V30 96 H 12.3409 -8.13644 3.0377 0
M  V30 97 H 12.0709 -6.42788 2.55485 0
M  V30 98 H 12.9379 -8.12039 0.792769 0
M  V30 99 P 16.8999 -8.91 1.09116e-15 0
M  V30 100 O 17.1199 -10.1726 -0.733694 0
M  V30 101 O 17.6899 -8.73148 1.23936 0
M  V30 102 O 17.1499 -7.66872 -0.971405 0
M  V30 103 C 16.2099 -7.42309 -2.04641 0
M  V30 104 C 16.9399 -6.86059 -3.24661 0
M  V30 105 O 17.1499 -5.42847 -3.03646 0
M  V30 106 C 18.3399 -7.41196 -3.50753 0
M  V30 107 O 18.7299 -7.27073 -4.86816 0
M  V30 108 C 19.2199 -6.5273 -2.63741 0
M  V30 109 C 18.5099 -5.1842 -2.73198 0
M  V30 110 N 18.5599 -4.38762 -1.4784 0
M  V30 111 H 15.7209 -8.36803 -2.32493 0
M  V30 112 H 15.4509 -6.70197 -1.71129 0
M  V30 113 H 16.3179 -7.03551 -4.13168 0
M  V30 114 P 20.2799 -7.20834 -5.23717 0
M  V30 115 O 20.4999 -7.79853 -6.57286 0
M  V30 116 O 21.0699 -7.79239 -4.12957 0
M  V30 117 O 20.5299 -5.63315 -5.29344 0
M  V30 118 C 19.5899 -4.80255 -6.01876 0
M  V30 119 C 20.3199 -3.64202 -6.65911 0
M  V30 120 O 20.5299 -2.60694 -5.64732 0
M  V30 121 C 21.7199 -3.93473 -7.1943 0
M  V30 122 O 22.1099 -3.02071 -8.21205 0
M  V30 123 C 22.5999 -3.73047 -5.97036 0
M  V30 124 C 21.8899 -2.58828 -5.25741 0
M  V30 125 N 21.9399 -2.68068 -3.77503 0
M  V30 126 H 19.1009 -5.40332 -6.79951 0
M  V30 127 H 18.8309 -4.41613 -5.32378 0
M  V30 128 H 19.6979 -3.26331 -7.47797 0
M  V30 129 P 23.6599 -2.75334 -8.47391 0
M  V30 130 O 23.8799 -2.44571 -9.90142 0
M  V30 131 O 24.4499 -3.87688 -7.92115 0
M  V30 132 O 23.9099 -1.4459 -7.59357 0
M  V30 133 C 22.9699 -0.347608 -7.69215 0
M  V30 134 C 23.6999 0.96767 -7.52806 0
M  V30 135 O 23.9099 1.21036 -6.1011 0
M  V30 136 C 25.0999 1.04544 -8.13308 0
M  V30 137 O 25.4899 2.38311 -8.41922 0
M  V30 138 C 25.9799 0.491279 -7.02284 0
M  V30 139 C 25.2699 0.996264 -5.77469 0
M  V30 140 N 25.3199 0.0501916 -4.62973 0
M  V30 141 H 22.4809 -0.374722 -8.67691 0
M  V30 142 H 22.2109 -0.443485 -6.90277 0
M  V30 143 H 23.0779 1.75537 -7.96793 0
M  V30 144 P 27.0398 2.75334 -8.47391 0
M  V30 145 O 27.2598 3.84128 -9.44797 0
M  V30 146 O 27.8298 1.51947 -8.68712 0
M  V30 147 O 27.2898 3.29363 -6.99321 0
M  V30 148 C 26.3498 4.24011 -6.4274 0
M  V30 149 C 27.0798 5.20775 -5.52155 0
M  V30 150 O 27.2898 4.56534 -4.22446 0
M  V30 151 C 28.4798 5.62629 -5.96531 0
M  V30 152 O 28.8698 6.87667 -5.41053 0
M  V30 153 C 29.3598 4.52537 -5.39283 0
M  V30 154 C 28.6498 4.20027 -4.08623 0
M  V30 155 N 28.6998 2.76189 -3.71603 0
M  V30 156 H 25.8608 4.797 -7.24003 0
M  V30 157 H 25.5908 3.69856 -5.84513 0
M  V30 158 H 26.4578 6.10356 -5.41441 0
M  V30 159 P 30.4198 7.20834 -5.23717 0
M  V30 160 O 30.6398 8.66104 -5.38572 0
M  V30 161 O 31.2098 6.33544 -6.1349 0
M  V30 162 O 30.6698 6.7751 -3.72168 0
M  V30 163 C 29.7298 7.20825 -2.7076 0
M  V30 164 C 30.4598 7.45864 -1.40599 0
M  V30 165 O 30.6698 6.17651 -0.734225 0
M  V30 166 C 31.8598 8.05808 -1.51899 0
M  V30 167 O 32.2498 8.74358 -0.335205 0
M  V30 168 C 32.7398 6.83093 -1.70294 0
M  V30 169 C 32.0298 5.79992 -0.836974 0
M  V30 170 N 32.0798 4.41864 -1.38293 0
M  V30 171 H 29.2408 8.13644 -3.0377 0
M  V30 172 H 28.9708 6.42788 -2.55485 0
M  V30 173 H 29.8378 8.12039 -0.792769 0
M  V30 174 P 33.7998 8.91 -2.18232e-15 0
M  V30 175 O 34.0198 10.1726 0.733694 0
M  V30 176 O 34.5898 8.73148 -1.23936 0
M  V30 177 O 34.0498 7.66872 0.971405 0
M  V30 178 C 33.1098 7.42309 2.04641 0
M  V30 179 C 33.8398 6.86059 3.24661 0
M  V30 180 O 34.0498 5.42847 3.03646 0
M  V30 181 C 35.2398 7.41196 3.50753 0
M  V30 182 O 35.6298 7.27073 4.86816 0
M  V30 183 C 36.1198 6.5273 2.63741 0
M  V30 184 C 35.4098 5.1842 2.73198 0
M  V30 185 N 35.4598 4.38762 1.4784 0
M  V30 186 H 32.6208 8.36803 2.32493 0
M  V30 187 H 32.3508 6.70197 1.71129 0
M  V30 188 H 33.2178 7.03551 4.13168 0
M  V30 189 P 37.1798 7.20834 5.23717 0
M  V30 190 O 37.3998 7.7993 6.57351 0
M  V30 191 O 37.9698 7.79328 4.13004 0
M  V30 192 O 37.4298 5.63315 5.29344 0
M  V30 193 C 36.4898 4.80193 6.01798 0
M  V30 194 C 37.2198 3.64202 6.65911 0
M  V30 195 O 37.4298 2.60694 5.64732 0
M  V30 196 C 38.6198 3.93473 7.1943 0
M  V30 197 O 39.0098 3.02071 8.21205 0
M  V30 198 C 39.4998 3.73047 5.97036 0
M  V30 199 C 38.7898 2.58828 5.25741 0
M  V30 200 N 38.8398 2.6801 3.77422 0
M  V30 201 C 38.9898 1.50443 3.07133 0
M  V30 202 O 39.0798 0.419406 3.61576 0
M  V30 203 N 39.0298 1.6403 1.69677 0
M  V30 204 C 38.9398 2.81206 0.986255 0
M  V30 205 O 38.9898 2.80892 -0.249754 0
M  V30 206 C 38.7898 3.99158 1.80325 0
M  V30 207 C 38.6798 5.29309 1.06921 0
M  V30 208 C 38.7398 3.89779 3.1476 0
M  V30 209 H 35.9998 5.40332 6.79951 0
M  V30 210 H 35.7308 4.41549 5.32301 0
M  V30 211 H 36.5978 3.26331 7.47797 0
M  V30 212 H 39.2528 1.6395 5.56554 0
M  V30 213 H 39.5318 4.63439 5.3432 0
M  V30 214 H 40.5238 3.44728 6.25838 0
M  V30 215 H 38.6898 4.96652 7.57263 0
M  V30 216 H 38.6188 4.80159 3.74441 0
M  V30 217 H 39.6488 5.81459 1.09608 0
M  V30 218 H 37.9118 5.9187 1.54487 0
M  V30 219 H 38.3998 5.10095 0.0220288 0
M  V30 220 H 39.1358 0.798962 1.16664 0
M  V30 221 P 40.5598 2.75334 8.47391 0
M  V30 222 O 40.7798 2.44571 9.90142 0
M  V30 223 O 41.3498 3.87688 7.92115 0
M  V30 224 O 40.8098 1.4459 7.59357 0
M  V30 225 C 39.8698 0.347608 7.69215 0
M  V30 226 C 40.5998 -0.96767 7.52806 0
M  V30 227 O 40.8098 -1.21036 6.1011 0
M  V30 228 C 41.9998 -1.04544 8.13308 0
M  V30 229 O 42.3898 -2.38311 8.41922 0
M  V30 230 C 42.8798 -0.491279 7.02284 0
M  V30 231 C 42.1698 -0.996264 5.77469 0
M  V30 232 N 42.2198 -0.0501916 4.62973 0
M  V30 233 C 42.1398 1.32786 4.63244 0
M  V30 234 N 42.2198 1.86957 3.44545 0
M  V30 235 C 42.3598 0.780241 2.58481 0
M  V30 236 C 42.4898 0.738536 1.17757 0
M  V30 237 O 42.5098 1.66794 0.372349 0
M  V30 238 N 42.6098 -0.58337 0.711393 0
M  V30 239 C 42.6098 -1.70816 1.51017 0
M  V30 240 N 42.7398 -2.87826 0.880757 0
M  V30 241 N 42.4798 -1.67126 2.8339 0
M  V30 242 C 42.3598 -0.401421 3.30572 0
M  V30 243 H 39.3808 0.374722 8.67691 0
M  V30 244 H 39.1108 0.443485 6.90277 0
M  V30 245 H 39.9778 -1.75537 7.96793 0
M  V30 246 H 42.6328 -1.95076 5.46529 0
M  V30 247 H 42.9118 0.608565 7.04577 0
M  V30 248 H 43.9038 -0.889672 7.08939 0
M  V30 249 H 42.0698 -0.43308 9.04564 0
M  V30 250 H 42.0208 1.91249 5.54442 0
M  V30 251 H 42.7028 -0.718054 -0.275244 0
M  V30 252 H 42.7398 -3.75721 1.41832 0
M  V30 253 H 42.8408 -2.90436 -0.145468 0
M  V30 254 P 43.9397 -2.75334 8.47391 0
M  V30 255 O 44.1597 -3.84128 9.44797 0
M  V30 256 O 44.7297 -1.51947 8.68712 0
M  V30 257 O 44.1897 -3.29363 6.99321 0
M  V30 258 C 43.2497 -4.24011 6.4274 0
M  V30 259 C 43.9797 -5.20775 5.52155 0
M  V30 260 O 44.1897 -4.56534 4.22446 0
M  V30 261 C 45.3797 -5.62629 5.96531 0
M  V30 262 O 45.7697 -6.87667 5.41053 0
M  V30 263 C 46.2597 -4.52537 5.39283 0
M  V30 264 C 45.5497 -4.20027 4.08623 0
M  V30 265 N 45.5997 -2.76189 3.71603 0
M  V30 266 H 42.7607 -4.797 7.24003 0
M  V30 267 H 42.4907 -3.69856 5.84513 0
M  V30 268 H 43.3577 -6.10356 5.41441 0
M  V30 269 P 47.3197 -7.20834 5.23717 0
M  V30 270 O 47.5397 -8.66104 5.38572 0
M  V30 271 O 48.1097 -6.33544 6.1349 0
M  V30 272 O 47.5697 -6.7751 3.72168 0
M  V30 273 C 46.6297 -7.20825 2.7076 0
M  V30 274 C 47.3597 -7.45864 1.40599 0
M  V30 275 O 47.5697 -6.17651 0.734225 0
M  V30 276 C 48.7597 -8.05808 1.51899 0
M  V30 277 O 49.1497 -8.74358 0.335205 0
M  V30 278 C 49.6397 -6.83093 1.70294 0
M  V30 279 C 48.9297 -5.79992 0.836974 0
M  V30 280 N 48.9797 -4.41864 1.38293 0
M  V30 281 H 46.1407 -8.13644 3.0377 0
M  V30 282 H 45.8707 -6.42788 2.55485 0
M  V30 283 H 46.7377 -8.12039 0.792769 0
M  V30 284 P 50.6997 -8.91 3.27348e-15 0
M  V30 285 O 50.9197 -10.1726 -0.733694 0
M  V30 286 O 51.4897 -8.73148 1.23936 0
M  V30 287 O 50.9497 -7.66872 -0.971405 0
M  V30 288 C 50.0097 -7.42309 -2.04641 0
M  V30 289 C 50.7397 -6.86059 -3.24661 0
M  V30 290 O 50.9497 -5.42847 -3.03646 0
M  V30 291 C 52.1397 -7.41196 -3.50753 0
M  V30 292 O 52.5297 -7.27073 -4.86816 0
M  V30 293 C 53.0197 -6.5273 -2.63741 0
M  V30 294 C 52.3097 -5.1842 -2.73198 0
M  V30 295 N 52.3597 -4.38762 -1.4784 0
M  V30 296 H 49.5207 -8.36803 -2.32493 0
M  V30 297 H 49.2507 -6.70197 -1.71129 0
M  V30 298 H 50.1177 -7.03551 -4.13168 0
M  V30 299 P 54.0797 -7.20834 -5.23717 0
M  V30 300 O 54.2997 -7.79853 -6.57286 0
M  V30 301 O 54.8697 -7.79239 -4.12957 0
M  V30 302 O 54.3297 -5.63315 -5.29344 0
M  V30 303 C 53.3897 -4.80255 -6.01876 0
M  V30 304 C 54.1197 -3.64202 -6.65911 0
M  V30 305 O 54.3297 -2.60694 -5.64732 0
M  V30 306 C 55.5197 -3.93473 -7.1943 0
M  V30 307 O 55.9097 -3.02071 -8.21205 0
M  V30 308 C 56.3997 -3.73047 -5.97036 0
M  V30 309 C 55.6897 -2.58828 -5.25741 0
M  V30 310 N 55.7397 -2.68068 -3.77503 0
M  V30 311 H 52.9007 -5.40332 -6.79951 0
M  V30 312 H 52.6307 -4.41613 -5.32378 0
M  V30 313 H 53.4977 -3.26331 -7.47797 0
M  V30 314 P 57.4597 -2.75334 -8.47391 0
M  V30 315 O 57.6797 -2.44571 -9.90142 0
M  V30 316 O 58.2497 -3.87688 -7.92115 0
M  V30 317 O 57.7097 -1.4459 -7.59357 0
M  V30 318 C 56.7697 -0.347608 -7.69215 0
M  V30 319 C 57.4997 0.96767 -7.52806 0
M  V30 320 O 57.7097 1.21036 -6.1011 0
M  V30 321 C 58.8997 1.04544 -8.13308 0
M  V30 322 O 59.2897 2.38311 -8.41922 0
M  V30 323 C 59.7797 0.491279 -7.02284 0
M  V30 324 C 59.0697 0.996264 -5.77469 0
M  V30 325 N 59.1197 0.0501916 -4.62973 0
M  V30 326 H 56.2807 -0.374722 -8.67691 0
M  V30 327 H 56.0107 -0.443485 -6.90277 0
M  V30 328 H 56.8777 1.75537 -7.96793 0
M  V30 329 P 60.8396 2.75334 -8.47391 0
M  V30 330 O 61.0596 3.84128 -9.44797 0
M  V30 331 O 61.6296 1.51947 -8.68712 0
M  V30 332 O 61.0896 3.29363 -6.99321 0
M  V30 333 C 60.1496 4.24011 -6.4274 0
M  V30 334 C 60.8796 5.20775 -5.52155 0
M  V30 335 O 61.0896 4.56534 -4.22446 0
M  V30 336 C 62.2796 5.62629 -5.96531 0
M  V30 337 O 62.6696 6.87667 -5.41053 0
M  V30 338 C 63.1596 4.52537 -5.39283 0
M  V30 339 C 62.4496 4.20027 -4.08623 0
M  V30 340 N 62.4996 2.76189 -3.71603 0
M  V30 341 H 59.6606 4.797 -7.24003 0
M  V30 342 H 59.3906 3.69856 -5.84513 0
M  V30 343 H 60.2576 6.10356 -5.41441 0
M  V30 344 P 64.2196 7.20834 -5.23717 0
M  V30 345 O 64.4396 8.66104 -5.38572 0
M  V30 346 O 65.0096 6.33544 -6.1349 0
M  V30 347 O 64.4696 6.7751 -3.72168 0
M  V30 348 C 63.5296 7.20825 -2.7076 0
M  V30 349 C 64.2596 7.45864 -1.40599 0
M  V30 350 O 64.4696 6.17651 -0.734225 0
M  V30 351 C 65.6596 8.05808 -1.51899 0
M  V30 352 O 66.0496 8.74358 -0.335205 0
M  V30 353 C 66.5396 6.83093 -1.70294 0
M  V30 354 C 65.8296 5.79992 -0.836974 0
M  V30 355 N 65.8796 4.41864 -1.38293 0
M  V30 356 H 63.0406 8.13644 -3.0377 0
M  V30 357 H 62.7706 6.42788 -2.55485 0
M  V30 358 H 63.6376 8.12039 -0.792769 0
M  V30 359 P 67.5996 8.91 -4.36464e-15 0
M  V30 360 O 67.8196 10.1726 0.733694 0
M  V30 361 O 68.3896 8.73148 -1.23936 0
M  V30 362 O 67.8496 7.66872 0.971405 0
M  V30 363 C 66.9096 7.42309 2.04641 0
M  V30 364 C 67.6396 6.86059 3.24661 0
M  V30 365 O 67.8496 5.42847 3.03646 0
M  V30 366 C 69.0396 7.41196 3.50753 0
M  V30 367 O 69.4296 7.27073 4.86816 0
M  V30 368 C 69.9196 6.5273 2.63741 0
M  V30 369 C 69.2096 5.1842 2.73198 0
M  V30 370 N 69.2596 4.38762 1.4784 0
M  V30 371 H 66.4206 8.36803 2.32493 0
M  V30 372 H 66.1506 6.70197 1.71129 0
M  V30 373 H 67.0176 7.03551 4.13168 0
M  V30 374 P 70.9796 7.20834 5.23717 0
M  V30 375 O 71.1996 7.79853 6.57286 0
M  V30 376 O 71.7696 7.79239 4.12957 0
M  V30 377 O 71.2296 5.63315 5.29344 0
M  V30 378 C 70.2896 4.80255 6.01876 0
M  V30 379 C 71.0196 3.64202 6.65911 0
M  V30 380 O 71.2296 2.60694 5.64732 0
M  V30 381 C 72.4196 3.93473 7.1943 0
M  V30 382 O 72.8096 3.02071 8.21205 0
M  V30 383 C 73.2996 3.73047 5.97036 0
M  V30 384 C 72.5896 2.58828 5.25741 0
M  V30 385 N 72.6396 2.68068 3.77503 0
M  V30 386 H 69.8006 5.40332 6.79951 0
M  V30 387 H 69.5306 4.41613 5.32378 0
M  V30 388 H 70.3976 3.26331 7.47797 0
M  V30 389 P 74.3596 2.75334 8.47391 0
M  V30 390 O 74.5796 2.44571 9.90142 0
M  V30 391 O 75.1496 3.87688 7.92115 0
M  V30 392 O 74.6096 1.4459 7.59357 0
M  V30 393 C 73.6696 0.347608 7.69215 0
M  V30 394 C 74.3996 -0.96767 7.52806 0
M  V30 395 O 74.6096 -1.21036 6.1011 0
M  V30 396 C 75.7996 -1.04544 8.13308 0
M  V30 397 O 76.1896 -2.38311 8.41922 0
M  V30 398 C 76.6796 -0.491279 7.02284 0
M  V30 399 C 75.9696 -0.996264 5.77469 0
M  V30 400 N 76.0196 -0.0501916 4.62973 0
M  V30 401 H 73.1806 0.374722 8.67691 0
M  V30 402 H 72.9106 0.443485 6.90277 0
M  V30 403 H 73.7776 -1.75537 7.96793 0
M  V30 404 P 77.7395 -2.75334 8.47391 0
M  V30 405 O 77.9595 -3.84204 9.44982 0
M  V30 406 O 78.5295 -1.51982 8.68909 0
M  V30 407 O 77.9895 -3.29363 6.99321 0
M  V30 408 C 77.0495 -4.24066 6.42823 0
M  V30 409 C 77.7795 -5.20775 5.52155 0
M  V30 410 O 77.9895 -4.56607 4.22514 0
M  V30 411 C 79.1795 -5.62697 5.96604 0
M  V30 412 O 79.5695 -6.87667 5.41053 0
M  V30 413 C 80.0595 -4.52537 5.39283 0
M  V30 414 C 79.3495 -4.20027 4.08623 0
M  V30 415 N 79.3995 -2.76189 3.71603 0
M  V30 416 H 76.5615 -4.79756 7.24086 0
M  V30 417 H 76.2895 -3.69963 5.84682 0
M  V30 418 H 77.1575 -6.10431 5.41508 0
M  V30 419 H 79.8125 -4.78816 3.28024 0
M  V30 420 H 80.0925 -3.64957 6.05871 0
M  V30 421 H 81.0835 -4.88748 5.21323 0
M  V30 422 H 79.2495 -5.66789 7.0643 0
M  V30 423 P 81.1195 -7.20834 5.23717 0
M  V30 424 O 81.3395 -8.66104 5.38572 0
M  V30 425 O 81.9095 -6.33544 6.1349 0
M  V30 426 O 81.3695 -6.7751 3.72168 0
M  V30 427 C 80.4295 -7.20825 2.7076 0
M  V30 428 C 81.1595 -7.45864 1.40599 0
M  V30 429 O 81.3695 -6.17651 0.734225 0
M  V30 430 C 82.5595 -8.05808 1.51899 0
M  V30 431 O 82.9495 -8.74358 0.335205 0
M  V30 432 C 83.4395 -6.83093 1.70294 0
M  V30 433 C 82.7295 -5.79992 0.836974 0
M  V30 434 N 82.7795 -4.41864 1.38293 0
M  V30 435 H 79.9405 -8.13644 3.0377 0
M  V30 436 H 79.6705 -6.42788 2.55485 0
M  V30 437 H 80.5375 -8.12039 0.792769 0
M  V30 438 P 84.4995 -8.91 5.4558e-15 0
M  V30 439 O 84.7195 -10.1726 -0.733694 0
M  V30 440 O 85.2895 -8.73148 1.23936 0
M  V30 441 O 84.7495 -7.66872 -0.971405 0
M  V30 442 C 83.8095 -7.42309 -2.04641 0
M  V30 443 C 84.5395 -6.86059 -3.24661 0
M  V30 444 O 84.7495 -5.42847 -3.03646 0
M  V30 445 C 85.9395 -7.41196 -3.50753 0
M  V30 446 O 86.3295 -7.27073 -4.86816 0
M  V30 447 C 86.8195 -6.5273 -2.63741 0
M  V30 448 C 86.1095 -5.1842 -2.73198 0
M  V30 449 N 86.1595 -4.38762 -1.4784 0
M  V30 450 H 83.3205 -8.36803 -2.32493 0
M  V30 451 H 83.0505 -6.70197 -1.71129 0
M  V30 452 H 83.9175 -7.03551 -4.13168 0
M  V30 453 P 87.8795 -7.20834 -5.23717 0
M  V30 454 O 88.0995 -7.79853 -6.57286 0
M  V30 455 O 88.6695 -7.79239 -4.12957 0
M  V30 456 O 88.1295 -5.63315 -5.29344 0
M  V30 457 C 87.1895 -4.80255 -6.01876 0
M  V30 458 C 87.9195 -3.64202 -6.65911 0
M  V30 459 O 88.1295 -2.60694 -5.64732 0
M  V30 460 C 89.3195 -3.93473 -7.1943 0
M  V30 461 O 89.7095 -3.02071 -8.21205 0
M  V30 462 C 90.1995 -3.73047 -5.97036 0
M  V30 463 C 89.4895 -2.58828 -5.25741 0
M  V30 464 N 89.5395 -2.68068 -3.77503 0
M  V30 465 H 86.7005 -5.40332 -6.79951 0
M  V30 466 H 86.4305 -4.41613 -5.32378 0
M  V30 467 H 87.2975 -3.26331 -7.47797 0
M  V30 468 P 91.2595 -2.75334 -8.47391 0
M  V30 469 O 91.4795 -2.44571 -9.90142 0
M  V30 470 O 92.0495 -3.87688 -7.92115 0
M  V30 471 O 91.5095 -1.4459 -7.59357 0
M  V30 472 C 90.5695 -0.347608 -7.69215 0
M  V30 473 C 91.2995 0.96767 -7.52806 0
M  V30 474 O 91.5095 1.21036 -6.1011 0
M  V30 475 C 92.6995 1.04544 -8.13308 0
M  V30 476 O 93.0895 2.38311 -8.41922 0
M  V30 477 C 93.5795 0.491279 -7.02284 0
M  V30 478 C 92.8695 0.996264 -5.77469 0
M  V30 479 N 92.9195 0.0501916 -4.62973 0
M  V30 480 H 90.0805 -0.374722 -8.67691 0
M  V30 481 H 89.8105 -0.443485 -6.90277 0
M  V30 482 H 90.6775 1.75537 -7.96793 0
M  V30 483 P 94.6394 2.75334 -8.47391 0
M  V30 484 O 94.8594 3.84128 -9.44797 0
M  V30 485 O 95.4294 1.51947 -8.68712 0
M  V30 486 O 94.8894 3.29363 -6.99321 0
M  V30 487 C 93.9494 4.24011 -6.4274 0
M  V30 488 C 94.6794 5.20775 -5.52155 0
M  V30 489 O 94.8894 4.56534 -4.22446 0
M  V30 490 C 96.0794 5.62629 -5.96531 0
M  V30 491 O 96.4694 6.87667 -5.41053 0
M  V30 492 C 96.9594 4.52537 -5.39283 0
M  V30 493 C 96.2494 4.20027 -4.08623 0
M  V30 494 N 96.2994 2.76189 -3.71603 0
M  V30 495 H 93.4604 4.797 -7.24003 0
M  V30 496 H 93.1904 3.69856 -5.84513 0
M  V30 497 H 94.0574 6.10356 -5.41441 0
M  V30 498 P 98.0194 7.20834 -5.23717 0
M  V30 499 O 98.2394 8.66104 -5.38572 0
M  V30 500 O 98.8094 6.33544 -6.1349 0
M  V30 501 O 98.2694 6.7751 -3.72168 0
M  V30 502 C 97.3294 7.20825 -2.7076 0
M  V30 503 C 98.0594 7.45864 -1.40599 0
M  V30 504 O 98.2694 6.17651 -0.734225 0
M  V30 505 C 99.4594 8.05808 -1.51899 0
M  V30 506 O 99.8494 8.74358 -0.335205 0
M  V30 507 C 100.339 6.83093 -1.70294 0
M  V30 508 C 99.6294 5.79992 -0.836974 0
M  V30 509 N 99.6794 4.41864 -1.38293 0
M  V30 510 H 96.8404 8.13644 -3.0377 0
M  V30 511 H 96.5704 6.42788 -2.55485 0
M  V30 512 H 97.4374 8.12039 -0.792769 0
M  V30 513 P 101.399 8.91 -6.54696e-15 0
M  V30 514 O 101.619 10.1726 0.733694 0
M  V30 515 O 102.189 8.73148 -1.23936 0
M  V30 516 O 101.649 7.66872 0.971405 0
M  V30 517 C 100.709 7.42309 2.04641 0
M  V30 518 C 101.439 6.86059 3.24661 0
M  V30 519 O 101.649 5.42847 3.03646 0
M  V30 520 C 102.839 7.41196 3.50753 0
M  V30 521 O 103.229 7.27073 4.86816 0
M  V30 522 C 103.719 6.5273 2.63741 0
M  V30 523 C 103.009 5.1842 2.73198 0
M  V30 524 N 103.059 4.38762 1.4784 0
M  V30 525 H 100.22 8.36803 2.32493 0
M  V30 526 H 99.9504 6.70197 1.71129 0
M  V30 527 H 100.817 7.03551 4.13168 0
M  V30 528 P 104.779 7.20834 5.23717 0
M  V30 529 O 104.999 7.79853 6.57286 0
M  V30 530 O 105.569 7.79239 4.12957 0
M  V30 531 O 105.029 5.63315 5.29344 0
M  V30 532 C 104.089 4.80255 6.01876 0
M  V30 533 C 104.819 3.64202 6.65911 0
M  V30 534 O 105.029 2.60694 5.64732 0
M  V30 535 C 106.219 3.93473 7.1943 0
M  V30 536 O 106.609 3.02071 8.21205 0
M  V30 537 C 107.099 3.73047 5.97036 0
M  V30 538 C 106.389 2.58828 5.25741 0
M  V30 539 N 106.439 2.68068 3.77503 0
M  V30 540 H 103.6 5.40332 6.79951 0
M  V30 541 H 103.33 4.41613 5.32378 0
M  V30 542 H 104.197 3.26331 7.47797 0
M  V30 543 P 108.159 2.75334 8.47391 0
M  V30 544 O 108.379 2.44571 9.90142 0
M  V30 545 O 108.949 3.87688 7.92115 0
M  V30 546 O 108.409 1.4459 7.59357 0
M  V30 547 C 107.469 0.347608 7.69215 0
M  V30 548 C 108.199 -0.96767 7.52806 0
M  V30 549 O 108.409 -1.21036 6.1011 0
M  V30 550 C 109.599 -1.04544 8.13308 0
M  V30 551 O 109.989 -2.38311 8.41922 0
M  V30 552 C 110.479 -0.491279 7.02284 0
M  V30 553 C 109.769 -0.996264 5.77469 0
M  V30 554 N 109.819 -0.0501916 4.62973 0
M  V30 555 H 106.98 0.374722 8.67691 0
M  V30 556 H 106.71 0.443485 6.90277 0
M  V30 557 H 107.577 -1.75537 7.96793 0
M  V30 558 P 111.539 -2.75334 8.47391 0
M  V30 559 O 111.759 -3.84128 9.44797 0
M  V30 560 O 112.329 -1.51947 8.68712 0
M  V30 561 O 111.789 -3.29363 6.99321 0
M  V30 562 C 110.849 -4.24011 6.4274 0
M  V30 563 C 111.579 -5.20775 5.52155 0
M  V30 564 O 111.789 -4.56534 4.22446 0
M  V30 565 C 112.979 -5.62629 5.96531 0
M  V30 566 O 113.369 -6.87667 5.41053 0
M  V30 567 C 113.859 -4.52537 5.39283 0
M  V30 568 C 113.149 -4.20027 4.08623 0
M  V30 569 N 113.199 -2.76189 3.71603 0
M  V30 570 C 113.119 -1.64862 4.52822 0
M  V30 571 N 113.199 -0.512671 3.88633 0
M  V30 572 C 113.339 -0.888083 2.54977 0
M  V30 573 C 113.469 -0.094668 1.38677 0
M  V30 574 O 113.489 1.13053 1.28163 0
M  V30 575 N 113.589 -0.890102 0.232633 0
M  V30 576 C 113.589 -2.26958 0.21772 0
M  V30 577 N 113.719 -2.84626 -0.97925 0
M  V30 578 N 113.459 -3.0178 1.31033 0
M  V30 579 C 113.339 -2.26781 2.43843 0
M  V30 580 H 110.36 -4.797 7.24003 0
M  V30 581 H 110.09 -3.69856 5.84513 0
M  V30 582 H 110.957 -6.10356 5.41441 0
M  V30 583 H 113.612 -4.79061 3.27488 0
M  V30 584 H 113.891 -3.64906 6.05785 0
M  V30 585 H 114.883 -4.8868 5.2125 0
M  V30 586 H 113.049 -5.66726 7.06352 0
M  V30 587 H 113 -1.71169 5.60966 0
M  V30 588 H 113.682 -0.419134 -0.644739 0
M  V30 589 H 113.719 -3.87332 -1.06098 0
M  V30 590 H 113.82 -2.26417 -1.82483 0
M  V30 591 P 114.919 -7.20834 5.23717 0
M  V30 592 O 115.139 -8.66104 5.38572 0
M  V30 593 O 115.709 -6.33544 6.1349 0
M  V30 594 O 115.169 -6.7751 3.72168 0
M  V30 595 C 114.229 -7.20825 2.7076 0
M  V30 596 C 114.959 -7.45864 1.40599 0
M  V30 597 O 115.169 -6.17651 0.734225 0
M  V30 598 C 116.359 -8.05808 1.51899 0
M  V30 599 O 116.749 -8.74358 0.335205 0
M  V30 600 C 117.239 -6.83093 1.70294 0
M  V30 601 C 116.529 -5.79992 0.836974 0
M  V30 602 N 116.579 -4.41864 1.38293 0
M  V30 603 H 113.74 -8.13644 3.0377 0
M  V30 604 H 113.47 -6.42788 2.55485 0
M  V30 605 H 114.337 -8.12039 0.792769 0
M  V30 606 P 118.299 -8.91 7.63812e-15 0
M  V30 607 O 118.519 -10.1726 -0.733694 0
M  V30 608 O 119.089 -8.73148 1.23936 0
M  V30 609 O 118.549 -7.66872 -0.971405 0
M  V30 610 C 117.609 -7.42309 -2.04641 0
M  V30 611 C 118.339 -6.86059 -3.24661 0
M  V30 612 O 118.549 -5.42847 -3.03646 0
M  V30 613 C 119.739 -7.41196 -3.50753 0
M  V30 614 O 120.129 -7.27073 -4.86816 0
M  V30 615 C 120.619 -6.5273 -2.63741 0
M  V30 616 C 119.909 -5.1842 -2.73198 0
M  V30 617 N 119.959 -4.38762 -1.4784 0
M  V30 618 H 117.12 -8.36803 -2.32493 0
M  V30 619 H 116.85 -6.70197 -1.71129 0
M  V30 620 H 117.717 -7.03551 -4.13168 0
M  V30 621 P 121.679 -7.20834 -5.23717 0
M  V30 622 O 121.899 -7.79853 -6.57286 0
M  V30 623 O 122.469 -7.79239 -4.12957 0
M  V30 624 O 121.929 -5.63315 -5.29344 0
M  V30 625 C 120.989 -4.80255 -6.01876 0
M  V30 626 C 121.719 -3.64202 -6.65911 0
M  V30 627 O 121.929 -2.60694 -5.64732 0
M  V30 628 C 123.119 -3.93473 -7.1943 0
M  V30 629 O 123.509 -3.02071 -8.21205 0
M  V30 630 C 123.999 -3.73047 -5.97036 0
M  V30 631 C 123.289 -2.58828 -5.25741 0
M  V30 632 N 123.339 -2.68068 -3.77503 0
M  V30 633 H 120.5 -5.40332 -6.79951 0
M  V30 634 H 120.23 -4.41613 -5.32378 0
M  V30 635 H 121.097 -3.26331 -7.47797 0
M  V30 636 P 125.059 -2.75334 -8.47391 0
M  V30 637 O 125.279 -2.44571 -9.90142 0
M  V30 638 O 125.849 -3.87688 -7.92115 0
M  V30 639 O 125.309 -1.4459 -7.59357 0
M  V30 640 C 124.369 -0.347608 -7.69215 0
M  V30 641 C 125.099 0.96767 -7.52806 0
M  V30 642 O 125.309 1.21036 -6.1011 0
M  V30 643 C 126.499 1.04544 -8.13308 0
M  V30 644 O 126.889 2.38311 -8.41922 0
M  V30 645 C 127.379 0.491279 -7.02284 0
M  V30 646 C 126.669 0.996264 -5.77469 0
M  V30 647 N 126.719 0.0501916 -4.62973 0
M  V30 648 H 123.88 -0.374722 -8.67691 0
M  V30 649 H 123.61 -0.443485 -6.90277 0
M  V30 650 H 124.477 1.75537 -7.96793 0
M  V30 651 P 128.439 2.75334 -8.47391 0
M  V30 652 O 128.659 3.84128 -9.44797 0
M  V30 653 O 129.229 1.51947 -8.68712 0
M  V30 654 O 128.689 3.29363 -6.99321 0
M  V30 655 C 127.749 4.24011 -6.4274 0
M  V30 656 C 128.479 5.20775 -5.52155 0
M  V30 657 O 128.689 4.56534 -4.22446 0
M  V30 658 C 129.879 5.62629 -5.96531 0
M  V30 659 O 130.269 6.87667 -5.41053 0
M  V30 660 C 130.759 4.52537 -5.39283 0
M  V30 661 C 130.049 4.20027 -4.08623 0
M  V30 662 N 130.099 2.76189 -3.71603 0
M  V30 663 H 127.26 4.797 -7.24003 0
M  V30 664 H 126.99 3.69856 -5.84513 0
M  V30 665 H 127.857 6.10356 -5.41441 0
M  V30 666 P 131.819 7.20834 -5.23717 0
M  V30 667 O 132.039 8.66104 -5.38572 0
M  V30 668 O 132.609 6.33544 -6.1349 0
M  V30 669 O 132.069 6.7751 -3.72168 0
M  V30 670 C 131.129 7.20825 -2.7076 0
M  V30 671 C 131.859 7.45864 -1.40599 0
M  V30 672 O 132.069 6.17651 -0.734225 0
M  V30 673 C 133.259 8.05808 -1.51899 0
M  V30 674 O 133.649 8.74358 -0.335205 0
M  V30 675 C 134.139 6.83093 -1.70294 0
M  V30 676 C 133.429 5.79992 -0.836974 0
M  V30 677 N 133.479 4.41864 -1.38293 0
M  V30 678 H 130.64 8.13644 -3.0377 0
M  V30 679 H 130.37 6.42788 -2.55485 0
M  V30 680 H 131.237 8.12039 -0.792769 0
M  V30 681 P 135.199 8.91 -8.72928e-15 0
M  V30 682 O 135.419 10.1726 0.733694 0
M  V30 683 O 135.989 8.73148 -1.23936 0
M  V30 684 O 135.449 7.66872 0.971405 0
M  V30 685 C 134.509 7.42309 2.04641 0
M  V30 686 C 135.239 6.86059 3.24661 0
M  V30 687 O 135.449 5.42847 3.03646 0
M  V30 688 C 136.639 7.41196 3.50753 0
M  V30 689 O 137.029 7.27073 4.86816 0
M  V30 690 C 137.519 6.5273 2.63741 0
M  V30 691 C 136.809 5.1842 2.73198 0
M  V30 692 N 136.859 4.38762 1.4784 0
M  V30 693 H 134.02 8.36803 2.32493 0
M  V30 694 H 133.75 6.70197 1.71129 0
M  V30 695 H 134.617 7.03551 4.13168 0
M  V30 696 P 138.579 7.20834 5.23717 0
M  V30 697 O 138.799 7.79853 6.57286 0
M  V30 698 O 139.369 7.79239 4.12957 0
M  V30 699 O 138.829 5.63315 5.29344 0
M  V30 700 C 137.889 4.80255 6.01876 0
M  V30 701 C 138.619 3.64202 6.65911 0
M  V30 702 O 138.829 2.60694 5.64732 0
M  V30 703 C 140.019 3.93473 7.1943 0
M  V30 704 O 140.409 3.02071 8.21205 0
M  V30 705 C 140.899 3.73047 5.97036 0
M  V30 706 C 140.189 2.58828 5.25741 0
M  V30 707 N 140.239 2.68068 3.77503 0
M  V30 708 H 137.4 5.40332 6.79951 0
M  V30 709 H 137.13 4.41613 5.32378 0
M  V30 710 H 137.997 3.26331 7.47797 0
M  V30 711 P 141.959 2.75334 8.47391 0
M  V30 712 O 142.179 2.44571 9.90142 0
M  V30 713 O 142.749 3.87688 7.92115 0
M  V30 714 O 142.209 1.4459 7.59357 0
M  V30 715 C 141.269 0.347608 7.69215 0
M  V30 716 C 141.999 -0.96767 7.52806 0
M  V30 717 O 142.209 -1.21036 6.1011 0
M  V30 718 C 143.399 -1.04544 8.13308 0
M  V30 719 O 143.789 -2.38311 8.41922 0
M  V30 720 C 144.279 -0.491279 7.02284 0
M  V30 721 C 143.569 -0.996264 5.77469 0
M  V30 722 N 143.619 -0.0501916 4.62973 0
M  V30 723 H 140.78 0.374722 8.67691 0
M  V30 724 H 140.51 0.443485 6.90277 0
M  V30 725 H 141.377 -1.75537 7.96793 0
M  V30 726 P 145.339 -2.75334 8.47391 0
M  V30 727 O 145.559 -3.84204 9.44982 0
M  V30 728 O 146.129 -1.51982 8.68909 0
M  V30 729 O 145.589 -3.29363 6.99321 0
M  V30 730 C 144.649 -4.24066 6.42823 0
M  V30 731 C 145.379 -5.20775 5.52155 0
M  V30 732 O 145.589 -4.56607 4.22514 0
M  V30 733 C 146.779 -5.62697 5.96604 0
M  V30 734 O 147.169 -6.87667 5.41053 0
M  V30 735 C 147.659 -4.52537 5.39283 0
M  V30 736 C 146.949 -4.20027 4.08623 0
M  V30 737 N 146.999 -2.76189 3.71603 0
M  V30 738 H 144.161 -4.79756 7.24086 0
M  V30 739 H 143.889 -3.69963 5.84682 0
M  V30 740 H 144.757 -6.10431 5.41508 0
M  V30 741 H 147.412 -4.78816 3.28024 0
M  V30 742 H 147.692 -3.64957 6.05871 0
M  V30 743 H 148.683 -4.88748 5.21323 0
M  V30 744 H 146.849 -5.66789 7.0643 0
M  V30 745 P 148.719 -7.20834 5.23717 0
M  V30 746 O 148.939 -8.66189 5.38625 0
M  V30 747 O 149.509 -6.33615 6.1356 0
M  V30 748 O 148.969 -6.7751 3.72168 0
M  V30 749 C 148.029 -7.20732 2.70725 0
M  V30 750 C 148.759 -7.45864 1.40599 0
M  V30 751 O 148.969 -6.17651 0.734225 0
M  V30 752 C 150.159 -8.05808 1.51899 0
M  V30 753 O 150.549 -8.74358 0.335205 0
M  V30 754 C 151.039 -6.83093 1.70294 0
M  V30 755 C 150.329 -5.79992 0.836974 0
M  V30 756 N 150.379 -4.41769 1.38263 0
M  V30 757 C 150.529 -3.38591 0.481702 0
M  V30 758 O 150.619 -3.56839 -0.718452 0
M  V30 759 N 150.569 -2.1206 1.03569 0
M  V30 760 C 150.479 -1.80696 2.36966 0
M  V30 761 O 150.529 -0.630473 2.74862 0
M  V30 762 C 150.329 -2.94845 3.23898 0
M  V30 763 C 150.219 -2.65253 4.70362 0
M  V30 764 C 150.279 -4.19803 2.73435 0
M  V30 765 H 147.539 -8.13644 3.0377 0
M  V30 766 H 147.27 -6.42695 2.55448 0
M  V30 767 H 148.137 -8.12039 0.792769 0
M  V30 768 H 150.792 -5.79978 -0.160587 0
M  V30 769 H 151.071 -6.51379 2.75643 0
M  V30 770 H 152.063 -7.01734 1.34462 0
M  V30 771 H 150.229 -8.73674 2.38337 0
M  V30 772 H 150.158 -5.04492 3.4095 0
M  V30 773 H 151.188 -2.83924 5.1913 0
M  V30 774 H 149.451 -3.29824 5.15163 0
M  V30 775 H 149.939 -1.59723 4.84449 0
M  V30 776 H 150.675 -1.35644 0.399345 0
M  V30 777 P 152.099 -8.91 9.82044e-15 0
M  V30 778 O 152.319 -10.1746 -0.733838 0
M  V30 779 O 152.889 -8.73346 1.23964 0
M  V30 780 O 152.349 -7.66872 -0.971405 0
M  V30 781 C 151.409 -7.42405 -2.04668 0
M  V30 782 C 152.139 -6.86059 -3.24661 0
M  V30 783 O 152.349 -5.42934 -3.03695 0
M  V30 784 C 153.539 -7.41287 -3.50796 0
M  V30 785 O 153.929 -7.27073 -4.86816 0
M  V30 786 C 154.419 -6.5273 -2.63741 0
M  V30 787 C 153.709 -5.1842 -2.73198 0
M  V30 788 N 153.759 -4.38762 -1.4784 0
M  V30 789 C 153.679 -4.83651 -0.183876 0
M  V30 790 N 153.749 -3.88759 0.699393 0
M  V30 791 C 153.899 -2.7404 -0.0575568 0
M  V30 792 C 154.029 -1.37902 0.293928 0
M  V30 793 N 154.039 -0.938021 1.54797 0
M  V30 794 N 154.149 -0.491817 -0.70549 0
M  V30 795 C 154.139 -0.931735 -1.95979 0
M  V30 796 N 154.019 -2.16017 -2.41481 0
M  V30 797 C 153.899 -3.02547 -1.39121 0
M  V30 798 H 150.921 -8.36899 -2.3252 0
M  V30 799 H 150.649 -6.70391 -1.71179 0
M  V30 800 H 151.517 -7.03638 -4.13219 0
M  V30 801 H 154.172 -4.59931 -3.54016 0
M  V30 802 H 154.452 -6.88995 -1.59871 0
M  V30 803 H 155.443 -6.4684 -3.0373 0
M  V30 804 H 153.609 -8.47002 -3.20749 0
M  V30 805 H 153.568 -5.8885 0.0765548 0
M  V30 806 H 153.949 -1.60276 2.32875 0
M  V30 807 H 154.138 0.0699355 1.73859 0
M  V30 808 H 154.246 -0.165507 -2.71897 0
M  V30 809 P 155.479 -7.20834 -5.23717 0
M  V30 810 O 155.699 -7.7993 -6.57351 0
M  V30 811 O 156.269 -7.79328 -4.13004 0
M  V30 812 O 155.729 -5.63315 -5.29344 0
M  V30 813 C 154.789 -4.80193 -6.01798 0
M  V30 814 C 155.519 -3.64202 -6.65911 0
M  V30 815 O 155.729 -2.60694 -5.64732 0
M  V30 816 C 156.919 -3.93473 -7.1943 0
M  V30 817 O 157.309 -3.02071 -8.21205 0
M  V30 818 C 157.799 -3.73047 -5.97036 0
M  V30 819 C 157.089 -2.58828 -5.25741 0
M  V30 820 N 157.139 -2.6801 -3.77422 0
M  V30 821 C 157.289 -1.50443 -3.07133 0
M  V30 822 O 157.379 -0.419406 -3.61576 0
M  V30 823 N 157.329 -1.6403 -1.69677 0
M  V30 824 C 157.239 -2.81206 -0.986255 0
M  V30 825 C 157.089 -3.99158 -1.80325 0
M  V30 826 C 157.039 -3.89779 -3.1476 0
M  V30 827 H 154.299 -5.40332 -6.79951 0
M  V30 828 H 154.03 -4.41549 -5.32301 0
M  V30 829 H 154.897 -3.26331 -7.47797 0
M  V30 830 H 157.552 -1.6395 -5.56554 0
M  V30 831 H 157.831 -4.63439 -5.3432 0
M  V30 832 H 158.823 -3.44728 -6.25838 0
M  V30 833 H 156.989 -4.96652 -7.57263 0
M  V30 834 H 156.918 -4.80159 -3.74441 0
M  V30 835 P 158.859 -2.75334 -8.47391 0
M  V30 836 O 159.079 -2.44571 -9.90142 0
M  V30 837 O 159.649 -3.87688 -7.92115 0
M  V30 838 O 159.109 -1.4459 -7.59357 0
M  V30 839 C 158.169 -0.347608 -7.69215 0
M  V30 840 C 158.899 0.96767 -7.52806 0
M  V30 841 O 159.109 1.21036 -6.1011 0
M  V30 842 C 160.299 1.04544 -8.13308 0
M  V30 843 O 160.689 2.38311 -8.41922 0
M  V30 844 C 161.179 0.491279 -7.02284 0
M  V30 845 C 160.469 0.996264 -5.77469 0
M  V30 846 N 160.519 0.0501916 -4.62973 0
M  V30 847 H 157.68 -0.374722 -8.67691 0
M  V30 848 H 157.41 -0.443485 -6.90277 0
M  V30 849 H 158.277 1.75537 -7.96793 0
M  V30 850 P 162.239 2.75334 -8.47391 0
M  V30 851 O 162.459 3.84128 -9.44797 0
M  V30 852 O 163.029 1.51947 -8.68712 0
M  V30 853 O 162.489 3.29363 -6.99321 0
M  V30 854 C 161.549 4.24011 -6.4274 0
M  V30 855 C 162.279 5.20775 -5.52155 0
M  V30 856 O 162.489 4.56534 -4.22446 0
M  V30 857 C 163.679 5.62629 -5.96531 0
M  V30 858 O 164.069 6.87667 -5.41053 0
M  V30 859 C 164.559 4.52537 -5.39283 0
M  V30 860 C 163.849 4.20027 -4.08623 0
M  V30 861 N 163.899 2.76189 -3.71603 0
M  V30 862 H 161.06 4.797 -7.24003 0
M  V30 863 H 160.79 3.69856 -5.84513 0
M  V30 864 H 161.657 6.10356 -5.41441 0
M  V30 865 P 165.619 7.20834 -5.23717 0
M  V30 866 O 165.839 8.66104 -5.38572 0
M  V30 867 O 166.409 6.33544 -6.1349 0
M  V30 868 O 165.869 6.7751 -3.72168 0
M  V30 869 C 164.929 7.20825 -2.7076 0
M  V30 870 C 165.659 7.45864 -1.40599 0
M  V30 871 O 165.869 6.17651 -0.734225 0
M  V30 872 C 167.059 8.05808 -1.51899 0
M  V30 873 O 167.449 8.74358 -0.335205 0
M  V30 874 C 167.939 6.83093 -1.70294 0
M  V30 875 C 167.229 5.79992 -0.836974 0
M  V30 876 N 167.279 4.41864 -1.38293 0
M  V30 877 H 164.44 8.13644 -3.0377 0
M  V30 878 H 164.17 6.42788 -2.55485 0
M  V30 879 H 165.037 8.12039 -0.792769 0
M  V30 880 P 168.999 8.91 -1.09116e-14 0
M  V30 881 O 169.219 10.1736 0.733766 0
M  V30 882 O 169.789 8.73247 -1.2395 0
M  V30 883 O 169.249 7.66872 0.971405 0
M  V30 884 C 168.309 7.42212 2.04614 0
M  V30 885 C 169.039 6.86059 3.24661 0
M  V30 886 O 169.249 5.42847 3.03646 0
M  V30 887 C 170.439 7.41196 3.50753 0
M  V30 888 O 170.829 7.27073 4.86816 0
M  V30 889 C 171.319 6.5273 2.63741 0
M  V30 890 C 170.609 5.1842 2.73198 0
M  V30 891 N 170.659 4.38668 1.47808 0
M  V30 892 C 170.809 3.02239 1.60048 0
M  V30 893 O 170.899 2.46459 2.67869 0
M  V30 894 N 170.849 2.32436 0.408571 0
M  V30 895 C 170.759 2.85471 -0.854993 0
M  V30 896 O 170.809 2.12566 -1.8531 0
M  V30 897 C 170.609 4.28918 -0.887335 0
M  V30 898 C 170.499 4.91066 -2.24619 0
M  V30 899 C 170.559 5.00349 0.255399 0
M  V30 900 H 167.819 8.36803 2.32493 0
M  V30 901 H 167.55 6.701 1.71105 0
M  V30 902 H 168.417 7.03551 4.13168 0
M  V30 903 H 171.072 4.59773 3.53894 0
M  V30 904 H 171.351 6.88995 1.59871 0
M  V30 905 H 172.343 6.46749 3.03687 0
M  V30 906 H 170.509 8.46908 3.20714 0
M  V30 907 H 170.438 6.08548 0.206986 0
M  V30 908 H 171.468 5.34836 -2.53099 0
M  V30 909 H 169.731 5.69638 -2.2291 0
M  V30 910 H 170.219 4.13971 -2.98044 0
M  V30 911 H 170.955 1.33211 0.474216 0
M  V30 912 P 172.379 7.20834 5.23717 0
M  V30 913 O 172.599 7.79853 6.57286 0
M  V30 914 O 173.169 7.79239 4.12957 0
M  V30 915 O 172.629 5.63315 5.29344 0
M  V30 916 C 171.689 4.80255 6.01876 0
M  V30 917 C 172.419 3.64202 6.65911 0
M  V30 918 O 172.629 2.60694 5.64732 0
M  V30 919 C 173.819 3.93473 7.1943 0
M  V30 920 O 174.209 3.02071 8.21205 0
M  V30 921 C 174.699 3.73047 5.97036 0
M  V30 922 C 173.989 2.58828 5.25741 0
M  V30 923 N 174.039 2.68068 3.77503 0
M  V30 924 H 171.2 5.40332 6.79951 0
M  V30 925 H 170.93 4.41613 5.32378 0
M  V30 926 H 171.797 3.26331 7.47797 0
M  V30 927 P 175.759 2.75334 8.47391 0
M  V30 928 O 175.979 2.44571 9.90142 0
M  V30 929 O 176.549 3.87688 7.92115 0
M  V30 930 O 176.009 1.4459 7.59357 0
M  V30 931 C 175.069 0.347608 7.69215 0
M  V30 932 C 175.799 -0.96767 7.52806 0
M  V30 933 O 176.009 -1.21036 6.1011 0
M  V30 934 C 177.199 -1.04544 8.13308 0
M  V30 935 O 177.589 -2.38311 8.41922 0
M  V30 936 C 178.079 -0.491279 7.02284 0
M  V30 937 C 177.369 -0.996264 5.77469 0
M  V30 938 N 177.419 -0.0501916 4.62973 0
M  V30 939 H 174.58 0.374722 8.67691 0
M  V30 940 H 174.31 0.443485 6.90277 0
M  V30 941 H 175.177 -1.75537 7.96793 0
M  V30 942 P 179.139 -2.75334 8.47391 0
M  V30 943 O 179.359 -3.84128 9.44797 0
M  V30 944 O 179.929 -1.51947 8.68712 0
M  V30 945 O 179.389 -3.29363 6.99321 0
M  V30 946 C 178.449 -4.24011 6.4274 0
M  V30 947 C 179.179 -5.20775 5.52155 0
M  V30 948 O 179.389 -4.56534 4.22446 0
M  V30 949 C 180.579 -5.62629 5.96531 0
M  V30 950 O 180.969 -6.87667 5.41053 0
M  V30 951 C 181.459 -4.52537 5.39283 0
M  V30 952 C 180.749 -4.20027 4.08623 0
M  V30 953 N 180.799 -2.76189 3.71603 0
M  V30 954 H 177.96 -4.797 7.24003 0
M  V30 955 H 177.69 -3.69856 5.84513 0
M  V30 956 H 178.557 -6.10356 5.41441 0
M  V30 957 P 182.519 -7.20834 5.23717 0
M  V30 958 O 182.739 -8.66104 5.38572 0
M  V30 959 O 183.309 -6.33544 6.1349 0
M  V30 960 O 182.769 -6.7751 3.72168 0
M  V30 961 C 181.829 -7.20825 2.7076 0
M  V30 962 C 182.559 -7.45864 1.40599 0
M  V30 963 O 182.769 -6.17651 0.734225 0
M  V30 964 C 183.959 -8.05808 1.51899 0
M  V30 965 O 184.349 -8.74358 0.335205 0
M  V30 966 C 184.839 -6.83093 1.70294 0
M  V30 967 C 184.129 -5.79992 0.836974 0
M  V30 968 N 184.179 -4.41864 1.38293 0
M  V30 969 H 181.34 -8.13644 3.0377 0
M  V30 970 H 181.07 -6.42788 2.55485 0
M  V30 971 H 181.937 -8.12039 0.792769 0
M  V30 972 P 185.899 -8.91 -8.29613e-14 0
M  V30 973 O 186.119 -10.1746 -0.733838 0
M  V30 974 O 186.689 -8.73346 1.23964 0
M  V30 975 O 186.149 -7.66872 -0.971405 0
M  V30 976 C 185.209 -7.42405 -2.04668 0
M  V30 977 C 185.939 -6.86059 -3.24661 0
M  V30 978 O 186.149 -5.42934 -3.03695 0
M  V30 979 C 187.339 -7.41287 -3.50796 0
M  V30 980 O 187.729 -7.27073 -4.86816 0
M  V30 981 C 188.219 -6.5273 -2.63741 0
M  V30 982 C 187.509 -5.1842 -2.73198 0
M  V30 983 N 187.559 -4.38762 -1.4784 0
M  V30 984 H 184.721 -8.36899 -2.3252 0
M  V30 985 H 184.449 -6.70391 -1.71179 0
M  V30 986 H 185.317 -7.03638 -4.13219 0
M  V30 987 H 187.972 -4.59931 -3.54016 0
M  V30 988 H 188.252 -6.88995 -1.59871 0
M  V30 989 H 189.243 -6.4684 -3.0373 0
M  V30 990 H 187.409 -8.47002 -3.20749 0
M  V30 991 P 189.279 -7.20834 -5.23717 0
M  V30 992 O 189.499 -7.79853 -6.57286 0
M  V30 993 O 190.069 -7.79239 -4.12957 0
M  V30 994 O 189.529 -5.63315 -5.29344 0
M  V30 995 C 188.589 -4.80255 -6.01876 0
M  V30 996 C 189.319 -3.64202 -6.65911 0
M  V30 997 O 189.529 -2.60694 -5.64732 0
M  V30 998 C 190.719 -3.93473 -7.1943 0
M  V30 999 O 191.109 -3.02071 -8.21205 0
M  V30 1000 C 191.599 -3.73047 -5.97036 0
M  V30 1001 C 190.889 -2.58828 -5.25741 0
M  V30 1002 N 190.939 -2.68068 -3.77503 0
M  V30 1003 H 188.1 -5.40332 -6.79951 0
M  V30 1004 H 187.83 -4.41613 -5.32378 0
M  V30 1005 H 188.697 -3.26331 -7.47797 0
M  V30 1006 P 192.659 -2.75334 -8.47391 0
M  V30 1007 O 192.879 -2.44571 -9.90142 0
M  V30 1008 O 193.449 -3.87688 -7.92115 0
M  V30 1009 O 192.909 -1.4459 -7.59357 0
M  V30 1010 C 191.969 -0.347608 -7.69215 0
M  V30 1011 C 192.699 0.96767 -7.52806 0
M  V30 1012 O 192.909 1.21036 -6.1011 0
M  V30 1013 C 194.099 1.04544 -8.13308 0
M  V30 1014 O 194.489 2.38311 -8.41922 0
M  V30 1015 C 194.979 0.491279 -7.02284 0
M  V30 1016 C 194.269 0.996264 -5.77469 0
M  V30 1017 N 194.319 0.0501916 -4.62973 0
M  V30 1018 H 191.48 -0.374722 -8.67691 0
M  V30 1019 H 191.21 -0.443485 -6.90277 0
M  V30 1020 H 192.077 1.75537 -7.96793 0
M  V30 1021 P 196.039 2.75334 -8.47391 0
M  V30 1022 O 196.259 3.84166 -9.4489 0
M  V30 1023 O 196.829 1.51964 -8.6881 0
M  V30 1024 O 196.289 3.29363 -6.99321 0
M  V30 1025 C 195.349 4.23956 -6.42656 0
M  V30 1026 C 196.079 5.20775 -5.52155 0
M  V30 1027 O 196.289 4.56534 -4.22446 0
M  V30 1028 C 197.479 5.62629 -5.96531 0
M  V30 1029 O 197.869 6.87667 -5.41053 0
M  V30 1030 C 198.359 4.52537 -5.39283 0
M  V30 1031 C 197.649 4.20027 -4.08623 0
M  V30 1032 N 197.699 2.7613 -3.71522 0
M  V30 1033 C 197.849 2.45612 -2.37989 0
M  V30 1034 O 197.939 3.30919 -1.51621 0
M  V30 1035 N 197.889 1.10684 -2.08435 0
M  V30 1036 C 197.799 0.0690084 -2.9792 0
M  V30 1037 O 197.849 -1.10553 -2.59426 0
M  V30 1038 C 197.649 0.481522 -4.35345 0
M  V30 1039 C 197.539 -0.618778 -5.36443 0
M  V30 1040 C 197.599 1.78906 -4.67968 0
M  V30 1041 H 194.859 4.797 -7.24003 0
M  V30 1042 H 194.59 3.69802 -5.84429 0
M  V30 1043 H 195.457 6.10356 -5.41441 0
M  V30 1044 H 198.112 4.78651 -3.27911 0
M  V30 1045 H 198.391 3.64957 -6.05871 0
M  V30 1046 H 199.383 4.8868 -5.2125 0
M  V30 1047 H 197.549 5.66726 -7.06352 0
M  V30 1048 H 197.478 2.07737 -5.72367 0
M  V30 1049 H 198.508 -0.754375 -5.86871 0
M  V30 1050 H 196.771 -0.359721 -6.10641 0
M  V30 1051 H 197.259 -1.55533 -4.8581 0
M  V30 1052 H 197.995 0.862651 -1.12037 0
M  V30 1053 P 199.419 7.20834 -5.23717 0
M  V30 1054 O 199.639 8.66104 -5.38572 0
M  V30 1055 O 200.209 6.33544 -6.1349 0
M  V30 1056 O 199.669 6.7751 -3.72168 0
M  V30 1057 C 198.729 7.20825 -2.7076 0
M  V30 1058 C 199.459 7.45864 -1.40599 0
M  V30 1059 O 199.669 6.17651 -0.734225 0
M  V30 1060 C 200.859 8.05808 -1.51899 0
M  V30 1061 O 201.249 8.74358 -0.335205 0
M  V30 1062 C 201.739 6.83093 -1.70294 0
M  V30 1063 C 201.029 5.79992 -0.836974 0
M  V30 1064 N 201.079 4.41864 -1.38293 0
M  V30 1065 H 198.24 8.13644 -3.0377 0
M  V30 1066 H 197.97 6.42788 -2.55485 0
M  V30 1067 H 198.837 8.12039 -0.792769 0
M  V30 1068 P 202.799 8.91 2.40144e-13 0
M  V30 1069 O 203.019 10.1726 0.733694 0
M  V30 1070 O 203.589 8.73148 -1.23936 0
M  V30 1071 O 203.049 7.66872 0.971405 0
M  V30 1072 C 202.109 7.42309 2.04641 0
M  V30 1073 C 202.839 6.86059 3.24661 0
M  V30 1074 O 203.049 5.42847 3.03646 0
M  V30 1075 C 204.239 7.41196 3.50753 0
M  V30 1076 O 204.629 7.27073 4.86816 0
M  V30 1077 C 205.119 6.5273 2.63741 0
M  V30 1078 C 204.409 5.1842 2.73198 0
M  V30 1079 N 204.459 4.38762 1.4784 0
M  V30 1080 H 201.62 8.36803 2.32493 0
M  V30 1081 H 201.35 6.70197 1.71129 0
M  V30 1082 H 202.217 7.03551 4.13168 0
M  V30 1083 P 206.179 7.20834 5.23717 0
M  V30 1084 O 206.399 7.80006 6.57415 0
M  V30 1085 O 206.969 7.79416 4.13051 0
M  V30 1086 O 206.429 5.63315 5.29344 0
M  V30 1087 C 205.489 4.80318 6.01954 0
M  V30 1088 C 206.219 3.64202 6.65911 0
M  V30 1089 O 206.429 2.60736 5.64823 0
M  V30 1090 C 207.619 3.93521 7.19518 0
M  V30 1091 O 208.009 3.02071 8.21205 0
M  V30 1092 C 208.499 3.73047 5.97036 0
M  V30 1093 C 207.789 2.58828 5.25741 0
M  V30 1094 N 207.839 2.68068 3.77503 0
M  V30 1095 C 207.759 3.80474 2.99159 0
M  V30 1096 N 207.829 3.55622 1.71925 0
M  V30 1097 C 207.979 2.1832 1.65733 0
M  V30 1098 C 208.109 1.28842 0.572777 0
M  V30 1099 N 208.119 1.66875 -0.70098 0
M  V30 1100 N 208.229 -0.016788 0.859836 0
M  V30 1101 C 208.219 -0.398145 2.13316 0
M  V30 1102 N 208.099 0.328224 3.22333 0
M  V30 1103 C 207.979 1.62992 2.90383 0
M  V30 1104 H 205.001 5.40394 6.8003 0
M  V30 1105 H 204.729 4.41741 5.32532 0
M  V30 1106 H 205.597 3.26371 7.47889 0
M  V30 1107 H 208.252 1.64007 5.56746 0
M  V30 1108 H 208.532 4.63439 5.3432 0
M  V30 1109 H 209.523 3.44776 6.25925 0
M  V30 1110 H 207.689 4.96707 7.57347 0
M  V30 1111 H 207.648 4.8089 3.39924 0
M  V30 1112 H 208.029 2.66547 -0.941919 0
M  V30 1113 H 208.218 0.965341 -1.44766 0
M  V30 1114 H 208.326 -1.46427 2.29697 0
M  V30 1115 P 209.559 2.75334 8.47391 0
M  V30 1116 O 209.779 2.44571 9.90142 0
M  V30 1117 O 210.349 3.87688 7.92115 0
M  V30 1118 O 209.809 1.4459 7.59357 0
M  V30 1119 C 208.869 0.347608 7.69215 0
M  V30 1120 C 209.599 -0.96767 7.52806 0
M  V30 1121 O 209.809 -1.21036 6.1011 0
M  V30 1122 C 210.999 -1.04544 8.13308 0
M  V30 1123 O 211.389 -2.38311 8.41922 0
M  V30 1124 C 211.879 -0.491279 7.02284 0
M  V30 1125 C 211.169 -0.996264 5.77469 0
M  V30 1126 N 211.219 -0.0501916 4.62973 0
M  V30 1127 H 208.38 0.374722 8.67691 0
M  V30 1128 H 208.11 0.443485 6.90277 0
M  V30 1129 H 208.977 -1.75537 7.96793 0
M  V30 1130 P 212.939 -2.75334 8.47391 0
M  V30 1131 O 213.159 -3.84128 9.44797 0
M  V30 1132 O 213.729 -1.51947 8.68712 0
M  V30 1133 O 213.189 -3.29363 6.99321 0
M  V30 1134 C 212.249 -4.24011 6.4274 0
M  V30 1135 C 212.979 -5.20775 5.52155 0
M  V30 1136 O 213.189 -4.56534 4.22446 0
M  V30 1137 C 214.379 -5.62629 5.96531 0
M  V30 1138 O 214.769 -6.87667 5.41053 0
M  V30 1139 C 215.259 -4.52537 5.39283 0
M  V30 1140 C 214.549 -4.20027 4.08623 0
M  V30 1141 N 214.599 -2.76189 3.71603 0
M  V30 1142 H 211.76 -4.797 7.24003 0
M  V30 1143 H 211.49 -3.69856 5.84513 0
M  V30 1144 H 212.357 -6.10356 5.41441 0
M  V30 1145 P 216.319 -7.20834 5.23717 0
M  V30 1146 O 216.539 -8.66189 5.38625 0
M  V30 1147 O 217.109 -6.33615 6.1356 0
M  V30 1148 O 216.569 -6.7751 3.72168 0
M  V30 1149 C 215.629 -7.20732 2.70725 0
M  V30 1150 C 216.359 -7.45864 1.40599 0
M  V30 1151 O 216.569 -6.17651 0.734225 0
M  V30 1152 C 217.759 -8.05808 1.51899 0
M  V30 1153 O 218.149 -8.74358 0.335205 0
M  V30 1154 C 218.639 -6.83093 1.70294 0
M  V30 1155 C 217.929 -5.79992 0.836974 0
M  V30 1156 N 217.979 -4.41769 1.38263 0
M  V30 1157 C 218.129 -3.38591 0.481702 0
M  V30 1158 O 218.219 -3.56839 -0.718452 0
M  V30 1159 N 218.169 -2.1206 1.03569 0
M  V30 1160 C 218.079 -1.80696 2.36966 0
M  V30 1161 C 217.929 -2.94845 3.23898 0
M  V30 1162 C 217.879 -4.19803 2.73435 0
M  V30 1163 H 215.139 -8.13644 3.0377 0
M  V30 1164 H 214.87 -6.42695 2.55448 0
M  V30 1165 H 215.737 -8.12039 0.792769 0
M  V30 1166 H 218.392 -5.79978 -0.160587 0
M  V30 1167 H 218.671 -6.51379 2.75643 0
M  V30 1168 H 219.663 -7.01734 1.34462 0
M  V30 1169 H 217.829 -8.73674 2.38337 0
M  V30 1170 H 217.758 -5.04492 3.4095 0
M  V30 1171 P 219.699 -8.91 -3.97326e-13 0
M  V30 1172 O 219.919 -10.1726 -0.733694 0
M  V30 1173 O 220.489 -8.73148 1.23936 0
M  V30 1174 O 219.949 -7.66872 -0.971405 0
M  V30 1175 C 219.009 -7.42309 -2.04641 0
M  V30 1176 C 219.739 -6.86059 -3.24661 0
M  V30 1177 O 219.949 -5.42847 -3.03646 0
M  V30 1178 C 221.139 -7.41196 -3.50753 0
M  V30 1179 O 221.529 -7.27073 -4.86816 0
M  V30 1180 C 222.019 -6.5273 -2.63741 0
M  V30 1181 C 221.309 -5.1842 -2.73198 0
M  V30 1182 N 221.359 -4.38762 -1.4784 0
M  V30 1183 H 218.52 -8.36803 -2.32493 0
M  V30 1184 H 218.25 -6.70197 -1.71129 0
M  V30 1185 H 219.117 -7.03551 -4.13168 0
M  V30 1186 P 223.079 -7.20834 -5.23717 0
M  V30 1187 O 223.299 -7.79853 -6.57286 0
M  V30 1188 O 223.869 -7.79239 -4.12957 0
M  V30 1189 O 223.329 -5.63315 -5.29344 0
M  V30 1190 C 222.389 -4.80255 -6.01876 0
M  V30 1191 C 223.119 -3.64202 -6.65911 0
M  V30 1192 O 223.329 -2.60694 -5.64732 0
M  V30 1193 C 224.519 -3.93473 -7.1943 0
M  V30 1194 O 224.909 -3.02071 -8.21205 0
M  V30 1195 C 225.399 -3.73047 -5.97036 0
M  V30 1196 C 224.689 -2.58828 -5.25741 0
M  V30 1197 N 224.739 -2.68068 -3.77503 0
M  V30 1198 H 221.9 -5.40332 -6.79951 0
M  V30 1199 H 221.63 -4.41613 -5.32378 0
M  V30 1200 H 222.497 -3.26331 -7.47797 0
M  V30 1201 P 226.459 -2.75334 -8.47391 0
M  V30 1202 O 226.679 -2.44619 -9.90336 0
M  V30 1203 O 227.249 -3.87776 -7.92294 0
M  V30 1204 O 226.709 -1.4459 -7.59357 0
M  V30 1205 C 225.769 -0.347653 -7.69315 0
M  V30 1206 C 226.499 0.96767 -7.52806 0
M  V30 1207 O 226.709 1.21055 -6.10208 0
M  V30 1208 C 227.899 1.04557 -8.13408 0
M  V30 1209 O 228.289 2.38311 -8.41922 0
M  V30 1210 C 228.779 0.491279 -7.02284 0
M  V30 1211 C 228.069 0.996264 -5.77469 0
M  V30 1212 N 228.119 0.0501916 -4.62973 0
M  V30 1213 H 225.281 -0.374765 -8.67791 0
M  V30 1214 H 225.009 -0.443613 -6.90476 0
M  V30 1215 H 225.877 1.75559 -7.96891 0
M  V30 1216 H 228.532 1.94563 -5.46818 0
M  V30 1217 H 228.812 -0.608651 -7.04676 0
M  V30 1218 H 229.803 0.889796 -7.09039 0
M  V30 1219 H 227.969 0.433128 -9.04664 0
M  V30 1220 P 229.839 2.75334 -8.47391 0
M  V30 1221 O 230.059 3.84204 -9.44982 0
M  V30 1222 O 230.629 1.51982 -8.68909 0
M  V30 1223 O 230.089 3.29363 -6.99321 0
M  V30 1224 C 229.149 4.24066 -6.42823 0
M  V30 1225 C 229.879 5.20775 -5.52155 0
M  V30 1226 O 230.089 4.56607 -4.22514 0
M  V30 1227 C 231.279 5.62697 -5.96604 0
M  V30 1228 O 231.669 6.87667 -5.41053 0
M  V30 1229 C 232.159 4.52537 -5.39283 0
M  V30 1230 C 231.449 4.20027 -4.08623 0
M  V30 1231 N 231.499 2.76189 -3.71603 0
M  V30 1232 C 231.419 1.66944 -4.54297 0
M  V30 1233 N 231.489 0.536169 -3.91344 0
M  V30 1234 C 231.639 0.901569 -2.58849 0
M  V30 1235 C 231.769 0.146599 -1.40236 0
M  V30 1236 N 231.779 -1.18234 -1.37046 0
M  V30 1237 N 231.889 0.822941 -0.249738 0
M  V30 1238 C 231.879 2.15179 -0.280525 0
M  V30 1239 N 231.759 2.96414 -1.30822 0
M  V30 1240 C 231.639 2.25804 -2.44748 0
M  V30 1241 H 228.661 4.79756 -7.24086 0
M  V30 1242 H 228.389 3.69963 -5.84682 0
M  V30 1243 H 229.257 6.10431 -5.41508 0
M  V30 1244 H 231.912 4.78816 -3.28024 0
M  V30 1245 H 232.192 3.64957 -6.05871 0
M  V30 1246 H 233.183 4.88748 -5.21323 0
M  V30 1247 H 231.349 5.66789 -7.0643 0
M  V30 1248 H 231.308 1.74684 -5.62396 0
M  V30 1249 H 231.689 -1.71949 -2.24394 0
M  V30 1250 H 231.878 -1.67511 -0.470742 0
M  V30 1251 H 231.986 2.63704 0.6828 0
M  V30 1252 P 233.219 7.20834 -5.23717 0
M  V30 1253 O 233.439 8.66104 -5.38572 0
M  V30 1254 O 234.009 6.33544 -6.1349 0
M  V30 1255 O 233.469 6.7751 -3.72168 0
M  V30 1256 C 232.529 7.20825 -2.7076 0
M  V30 1257 C 233.259 7.45864 -1.40599 0
M  V30 1258 O 233.469 6.17651 -0.734225 0
M  V30 1259 C 234.659 8.05808 -1.51899 0
M  V30 1260 O 235.049 8.74358 -0.335205 0
M  V30 1261 C 235.539 6.83093 -1.70294 0
M  V30 1262 C 234.829 5.79992 -0.836974 0
M  V30 1263 N 234.879 4.41864 -1.38293 0
M  V30 1264 H 232.04 8.13644 -3.0377 0
M  V30 1265 H 231.77 6.42788 -2.55485 0
M  V30 1266 H 232.637 8.12039 -0.792769 0
M  V30 1267 P 236.599 8.91 5.54508e-13 0
M  V30 1268 O 236.819 10.1726 0.733694 0
M  V30 1269 O 237.389 8.73148 -1.23936 0
M  V30 1270 O 236.849 7.66872 0.971405 0
M  V30 1271 C 235.909 7.42309 2.04641 0
M  V30 1272 C 236.639 6.86059 3.24661 0
M  V30 1273 O 236.849 5.42847 3.03646 0
M  V30 1274 C 238.039 7.41196 3.50753 0
M  V30 1275 O 238.429 7.27073 4.86816 0
M  V30 1276 C 238.919 6.5273 2.63741 0
M  V30 1277 C 238.209 5.1842 2.73198 0
M  V30 1278 N 238.259 4.38762 1.4784 0
M  V30 1279 H 235.42 8.36803 2.32493 0
M  V30 1280 H 235.15 6.70197 1.71129 0
M  V30 1281 H 236.017 7.03551 4.13168 0
M  V30 1282 P 239.979 7.20834 5.23717 0
M  V30 1283 O 240.199 7.79853 6.57286 0
M  V30 1284 O 240.769 7.79239 4.12957 0
M  V30 1285 O 240.229 5.63315 5.29344 0
M  V30 1286 C 239.289 4.80255 6.01876 0
M  V30 1287 C 240.019 3.64202 6.65911 0
M  V30 1288 O 240.229 2.60694 5.64732 0
M  V30 1289 C 241.419 3.93473 7.1943 0
M  V30 1290 O 241.809 3.02071 8.21205 0
M  V30 1291 C 242.299 3.73047 5.97036 0
M  V30 1292 C 241.589 2.58828 5.25741 0
M  V30 1293 N 241.639 2.68068 3.77503 0
M  V30 1294 H 238.8 5.40332 6.79951 0
M  V30 1295 H 238.53 4.41613 5.32378 0
M  V30 1296 H 239.397 3.26331 7.47797 0
M  V30 1297 P 243.359 2.75334 8.47391 0
M  V30 1298 O 243.579 2.44571 9.90142 0
M  V30 1299 O 244.149 3.87688 7.92115 0
M  V30 1300 O 243.609 1.4459 7.59357 0
M  V30 1301 C 242.669 0.347608 7.69215 0
M  V30 1302 C 243.399 -0.96767 7.52806 0
M  V30 1303 O 243.609 -1.21036 6.1011 0
M  V30 1304 C 244.799 -1.04544 8.13308 0
M  V30 1305 O 245.189 -2.38311 8.41922 0
M  V30 1306 C 245.679 -0.491279 7.02284 0
M  V30 1307 C 244.969 -0.996264 5.77469 0
M  V30 1308 N 245.019 -0.0501916 4.62973 0
M  V30 1309 H 242.18 0.374722 8.67691 0
M  V30 1310 H 241.91 0.443485 6.90277 0
M  V30 1311 H 242.777 -1.75537 7.96793 0
M  V30 1312 P 246.739 -2.75334 8.47391 0
M  V30 1313 O 246.959 -3.84128 9.44797 0
M  V30 1314 O 247.529 -1.51947 8.68712 0
M  V30 1315 O 246.989 -3.29363 6.99321 0
M  V30 1316 C 246.049 -4.24011 6.4274 0
M  V30 1317 C 246.779 -5.20775 5.52155 0
M  V30 1318 O 246.989 -4.56534 4.22446 0
M  V30 1319 C 248.179 -5.62629 5.96531 0
M  V30 1320 O 248.569 -6.87667 5.41053 0
M  V30 1321 C 249.059 -4.52537 5.39283 0
M  V30 1322 C 248.349 -4.20027 4.08623 0
M  V30 1323 N 248.399 -2.76189 3.71603 0
M  V30 1324 H 245.56 -4.797 7.24003 0
M  V30 1325 H 245.29 -3.69856 5.84513 0
M  V30 1326 H 246.157 -6.10356 5.41441 0
M  V30 1327 P 250.119 -7.20834 5.23717 0
M  V30 1328 O 250.339 -8.66104 5.38572 0
M  V30 1329 O 250.909 -6.33544 6.1349 0
M  V30 1330 O 250.369 -6.7751 3.72168 0
M  V30 1331 C 249.429 -7.20825 2.7076 0
M  V30 1332 C 250.159 -7.45864 1.40599 0
M  V30 1333 O 250.369 -6.17651 0.734225 0
M  V30 1334 C 251.559 -8.05808 1.51899 0
M  V30 1335 O 251.949 -8.74358 0.335205 0
M  V30 1336 C 252.439 -6.83093 1.70294 0
M  V30 1337 C 251.729 -5.79992 0.836974 0
M  V30 1338 N 251.779 -4.41864 1.38293 0
M  V30 1339 H 248.94 -8.13644 3.0377 0
M  V30 1340 H 248.67 -6.42788 2.55485 0
M  V30 1341 H 249.537 -8.12039 0.792769 0
M  V30 1342 P 253.498 -8.91 -7.1169e-13 0
M  V30 1343 O 253.718 -10.1726 -0.733694 0
M  V30 1344 O 254.288 -8.73148 1.23936 0
M  V30 1345 O 253.748 -7.66872 -0.971405 0
M  V30 1346 C 252.808 -7.42309 -2.04641 0
M  V30 1347 C 253.538 -6.86059 -3.24661 0
M  V30 1348 O 253.748 -5.42847 -3.03646 0
M  V30 1349 C 254.938 -7.41196 -3.50753 0
M  V30 1350 O 255.328 -7.27073 -4.86816 0
M  V30 1351 C 255.818 -6.5273 -2.63741 0
M  V30 1352 C 255.108 -5.1842 -2.73198 0
M  V30 1353 N 255.158 -4.38762 -1.4784 0
M  V30 1354 H 252.319 -8.36803 -2.32493 0
M  V30 1355 H 252.049 -6.70197 -1.71129 0
M  V30 1356 H 252.916 -7.03551 -4.13168 0
M  V30 1357 P 256.878 -7.20834 -5.23717 0
M  V30 1358 O 257.098 -7.79853 -6.57286 0
M  V30 1359 O 257.668 -7.79239 -4.12957 0
M  V30 1360 O 257.128 -5.63315 -5.29344 0
M  V30 1361 C 256.188 -4.80255 -6.01876 0
M  V30 1362 C 256.918 -3.64202 -6.65911 0
M  V30 1363 O 257.128 -2.60694 -5.64732 0
M  V30 1364 C 258.318 -3.93473 -7.1943 0
M  V30 1365 O 258.708 -3.02071 -8.21205 0
M  V30 1366 C 259.198 -3.73047 -5.97036 0
M  V30 1367 C 258.488 -2.58828 -5.25741 0
M  V30 1368 N 258.538 -2.68068 -3.77503 0
M  V30 1369 C 258.458 -3.79715 -2.96723 0
M  V30 1370 N 258.538 -3.5377 -1.68852 0
M  V30 1371 C 258.678 -2.15054 -1.63254 0
M  V30 1372 C 258.808 -1.28964 -0.518571 0
M  V30 1373 O 258.828 -1.56826 0.679156 0
M  V30 1374 N 258.928 0.0538097 -0.918425 0
M  V30 1375 C 258.928 0.494275 -2.22578 0
M  V30 1376 N 259.058 1.81086 -2.40434 0
M  V30 1377 N 258.798 -0.313645 -3.27502 0
M  V30 1378 C 258.678 -1.61829 -2.91033 0
M  V30 1379 H 255.699 -5.40332 -6.79951 0
M  V30 1380 H 255.429 -4.41613 -5.32378 0
M  V30 1381 H 256.296 -3.26331 -7.47797 0
M  V30 1382 H 258.951 -1.63422 -5.56814 0
M  V30 1383 H 259.23 -4.63374 -5.34244 0
M  V30 1384 H 260.222 -3.44728 -6.25838 0
M  V30 1385 H 258.388 -4.96652 -7.57263 0
M  V30 1386 H 258.339 -4.80617 -3.3614 0
M  V30 1387 H 259.021 0.742702 -0.199384 0
M  V30 1388 H 259.058 2.20598 -3.35588 0
M  V30 1389 H 259.159 2.43518 -1.58945 0
M  V30 1390 P 260.258 -2.75334 -8.47391 0
M  V30 1391 O 260.478 -2.44571 -9.90142 0
M  V30 1392 O 261.048 -3.87688 -7.92115 0
M  V30 1393 O 260.508 -1.4459 -7.59357 0
M  V30 1394 C 259.568 -0.347608 -7.69215 0
M  V30 1395 C 260.298 0.96767 -7.52806 0
M  V30 1396 O 260.508 1.21036 -6.1011 0
M  V30 1397 C 261.698 1.04544 -8.13308 0
M  V30 1398 O 262.088 2.38311 -8.41922 0
M  V30 1399 C 262.578 0.491279 -7.02284 0
M  V30 1400 C 261.868 0.996264 -5.77469 0
M  V30 1401 N 261.918 0.0501916 -4.62973 0
M  V30 1402 H 259.079 -0.374722 -8.67691 0
M  V30 1403 H 258.809 -0.443485 -6.90277 0
M  V30 1404 H 259.676 1.75537 -7.96793 0
M  V30 1405 P 263.638 2.75334 -8.47391 0
M  V30 1406 O 263.858 3.84128 -9.44797 0
M  V30 1407 O 264.428 1.51947 -8.68712 0
M  V30 1408 O 263.888 3.29363 -6.99321 0
M  V30 1409 C 262.948 4.24011 -6.4274 0
M  V30 1410 C 263.678 5.20775 -5.52155 0
M  V30 1411 O 263.888 4.56534 -4.22446 0
M  V30 1412 C 265.078 5.62629 -5.96531 0
M  V30 1413 O 265.468 6.87667 -5.41053 0
M  V30 1414 C 265.958 4.52537 -5.39283 0
M  V30 1415 C 265.248 4.20027 -4.08623 0
M  V30 1416 N 265.298 2.76189 -3.71603 0
M  V30 1417 H 262.459 4.797 -7.24003 0
M  V30 1418 H 262.189 3.69856 -5.84513 0
M  V30 1419 H 263.056 6.10356 -5.41441 0
M  V30 1420 P 267.018 7.20834 -5.23717 0
M  V30 1421 O 267.238 8.66104 -5.38572 0
M  V30 1422 O 267.808 6.33544 -6.1349 0
M  V30 1423 O 267.268 6.7751 -3.72168 0
M  V30 1424 C 266.328 7.20825 -2.7076 0
M  V30 1425 C 267.058 7.45864 -1.40599 0
M  V30 1426 O 267.268 6.17651 -0.734225 0
M  V30 1427 C 268.458 8.05808 -1.51899 0
M  V30 1428 O 268.848 8.74358 -0.335205 0
M  V30 1429 C 269.338 6.83093 -1.70294 0
M  V30 1430 C 268.628 5.79992 -0.836974 0
M  V30 1431 N 268.678 4.41864 -1.38293 0
M  V30 1432 H 265.839 8.13644 -3.0377 0
M  V30 1433 H 265.569 6.42788 -2.55485 0
M  V30 1434 H 266.436 8.12039 -0.792769 0
M  V30 1435 P 270.398 8.91 8.68872e-13 0
M  V30 1436 O 270.618 10.1726 0.733694 0
M  V30 1437 O 271.188 8.73148 -1.23936 0
M  V30 1438 O 270.648 7.66872 0.971405 0
M  V30 1439 C 269.708 7.42309 2.04641 0
M  V30 1440 C 270.438 6.86059 3.24661 0
M  V30 1441 O 270.648 5.42847 3.03646 0
M  V30 1442 C 271.838 7.41196 3.50753 0
M  V30 1443 O 272.228 7.27073 4.86816 0
M  V30 1444 C 272.718 6.5273 2.63741 0
M  V30 1445 C 272.008 5.1842 2.73198 0
M  V30 1446 N 272.058 4.38762 1.4784 0
M  V30 1447 H 269.219 8.36803 2.32493 0
M  V30 1448 H 268.949 6.70197 1.71129 0
M  V30 1449 H 269.816 7.03551 4.13168 0
M  V30 1450 P 273.778 7.20834 5.23717 0
M  V30 1451 O 273.998 7.79853 6.57286 0
M  V30 1452 O 274.568 7.79239 4.12957 0
M  V30 1453 O 274.028 5.63315 5.29344 0
M  V30 1454 C 273.088 4.80255 6.01876 0
M  V30 1455 C 273.818 3.64202 6.65911 0
M  V30 1456 O 274.028 2.60694 5.64732 0
M  V30 1457 C 275.218 3.93473 7.1943 0
M  V30 1458 O 275.608 3.02071 8.21205 0
M  V30 1459 C 276.098 3.73047 5.97036 0
M  V30 1460 C 275.388 2.58828 5.25741 0
M  V30 1461 N 275.438 2.68068 3.77503 0
M  V30 1462 H 272.599 5.40332 6.79951 0
M  V30 1463 H 272.329 4.41613 5.32378 0
M  V30 1464 H 273.196 3.26331 7.47797 0
M  V30 1465 P 277.158 2.75334 8.47391 0
M  V30 1466 O 277.378 2.44619 9.90336 0
M  V30 1467 O 277.948 3.87776 7.92294 0
M  V30 1468 O 277.408 1.4459 7.59357 0
M  V30 1469 C 276.468 0.347653 7.69315 0
M  V30 1470 C 277.198 -0.96767 7.52806 0
M  V30 1471 O 277.408 -1.21055 6.10208 0
M  V30 1472 C 278.598 -1.04557 8.13408 0
M  V30 1473 O 278.988 -2.38311 8.41922 0
M  V30 1474 C 279.478 -0.491279 7.02284 0
M  V30 1475 C 278.768 -0.996264 5.77469 0
M  V30 1476 N 278.818 -0.0501916 4.62973 0
M  V30 1477 H 275.98 0.374765 8.67791 0
M  V30 1478 H 275.708 0.443613 6.90476 0
M  V30 1479 H 276.576 -1.75559 7.96891 0
M  V30 1480 H 279.231 -1.94563 5.46818 0
M  V30 1481 H 279.511 0.608651 7.04676 0
M  V30 1482 H 280.502 -0.889796 7.09039 0
M  V30 1483 H 278.668 -0.433128 9.04664 0
M  V30 1484 P 280.538 -2.75334 8.47391 0
M  V30 1485 O 280.758 -3.84128 9.44797 0
M  V30 1486 O 281.328 -1.51947 8.68712 0
M  V30 1487 O 280.788 -3.29363 6.99321 0
M  V30 1488 C 279.848 -4.24011 6.4274 0
M  V30 1489 C 280.578 -5.20775 5.52155 0
M  V30 1490 O 280.788 -4.56534 4.22446 0
M  V30 1491 C 281.978 -5.62629 5.96531 0
M  V30 1492 O 282.368 -6.87667 5.41053 0
M  V30 1493 C 282.858 -4.52537 5.39283 0
M  V30 1494 C 282.148 -4.20027 4.08623 0
M  V30 1495 N 282.198 -2.76189 3.71603 0
M  V30 1496 H 279.359 -4.797 7.24003 0
M  V30 1497 H 279.089 -3.69856 5.84513 0
M  V30 1498 H 279.956 -6.10356 5.41441 0
M  V30 1499 H 282.237 -6.85814 4.46035 0
M  V30 1500 H 286.259 5.51656 -7.74769 0
M  V30 1501 O 286.139 4.58361 -7.63359 0
M  V30 1502 P 284.698 4.23843 -7.83734 0
M  V30 1503 O 284.478 4.19407 -9.29784 0
M  V30 1504 O 283.908 5.24426 -7.09156 0
M  V30 1505 O 284.448 2.7935 -7.20758 0
M  V30 1506 C 285.388 1.7299 -7.50419 0
M  V30 1507 C 284.658 0.406376 -7.57911 0
M  V30 1508 O 284.448 -0.0897726 -6.21935 0
M  V30 1509 C 283.258 0.447224 -8.1878 0
M  V30 1510 O 282.868 -0.825065 -8.71101 0
M  V30 1511 C 282.378 0.783801 -6.99623 0
M  V30 1512 C 283.088 0.0619192 -5.85967 0
M  V30 1513 N 283.038 0.7859 -4.56281 0
M  V30 1514 H 285.877 1.93423 -8.4679 0
M  V30 1515 H 286.149 1.68181 -6.71046 0
M  V30 1516 H 285.281 -0.289041 -8.15388 0
M  V30 1517 P 281.318 -1.17771 -8.83182 0
M  V30 1518 O 281.098 -2.07206 -9.98732 0
M  V30 1519 O 280.528 0.0743816 -8.81969 0
M  V30 1520 O 281.068 -1.97652 -7.47304 0
M  V30 1521 C 282.008 -3.01133 -7.08783 0
M  V30 1522 C 281.278 -4.12613 -6.37049 0
M  V30 1523 O 281.068 -3.72827 -4.97879 0
M  V30 1524 C 279.878 -4.45085 -6.88694 0
M  V30 1525 O 279.488 -5.7877 -6.5624 0
M  V30 1526 C 278.998 -3.47817 -6.12078 0
M  V30 1527 C 279.708 -3.39414 -4.77697 0
M  V30 1528 N 279.658 -2.04615 -4.15333 0
M  V30 1529 H 282.497 -3.41248 -7.98759 0
M  V30 1530 H 282.769 -2.5837 -6.41742 0
M  V30 1531 H 281.901 -5.02657 -6.42673 0
M  V30 1532 P 277.938 -6.144 -6.45285 0
M  V30 1533 O 277.718 -7.54673 -6.86199 0
M  V30 1534 O 277.148 -5.12391 -7.179 0
M  V30 1535 O 277.688 -5.99158 -4.88404 0
M  V30 1536 C 278.628 -6.60234 -3.96415 0
M  V30 1537 C 277.898 -7.08259 -2.72856 0
M  V30 1538 O 277.688 -5.9427 -1.83651 0
M  V30 1539 C 276.498 -7.64886 -2.9555 0
M  V30 1540 O 276.108 -8.53963 -1.90717 0
M  V30 1541 C 275.618 -6.4116 -2.90739 0
M  V30 1542 C 276.328 -5.55375 -1.86963 0
M  V30 1543 N 276.278 -4.09448 -2.16152 0
M  V30 1544 H 279.117 -7.45574 -4.45629 0
M  V30 1545 H 279.389 -5.85864 -3.679 0
M  V30 1546 H 278.521 -7.84412 -2.24479 0
M  V30 1547 H 275.866 -5.73457 -0.888562 0
M  V30 1548 H 275.586 -5.90877 -3.88583 0
M  V30 1549 H 274.595 -6.6596 -2.58858 0
M  V30 1550 H 276.429 -8.16339 -3.92049 0
M  V30 1551 P 274.558 -8.7635 -1.60911 0
M  V30 1552 O 274.338 -10.1388 -1.11561 0
M  V30 1553 O 273.768 -8.36503 -2.79617 0
M  V30 1554 O 274.308 -7.71806 -0.42951 0
M  V30 1555 C 275.248 -7.67148 0.673689 0
M  V30 1556 C 274.518 -7.33374 1.95559 0
M  V30 1557 O 274.308 -5.88721 2.00726 0
M  V30 1558 C 273.118 -7.92526 2.10483 0
M  V30 1559 O 272.728 -8.02971 3.47653 0
M  V30 1560 C 272.238 -6.89602 1.41652 0
M  V30 1561 C 272.948 -5.59201 1.75185 0
M  V30 1562 N 272.898 -4.58235 0.662552 0
M  V30 1563 H 275.737 -8.65116 0.777161 0
M  V30 1564 H 276.009 -6.90173 0.474152 0
M  V30 1565 H 275.141 -7.66548 2.79458 0
M  V30 1566 P 271.178 -8.03563 3.84925 0
M  V30 1567 O 270.958 -8.85821 5.0569 0
M  V30 1568 O 270.388 -8.41101 2.65469 0
M  V30 1569 O 270.928 -6.4965 4.18908 0
M  V30 1570 C 271.868 -5.81037 5.05421 0
M  V30 1571 C 271.138 -4.78366 5.89277 0
M  V30 1572 O 270.928 -3.58302 5.08433 0
M  V30 1573 C 269.738 -5.17448 6.36119 0
M  V30 1574 O 269.348 -4.45271 7.53232 0
M  V30 1575 C 268.858 -4.74639 5.19936 0
M  V30 1576 C 269.568 -3.49432 4.70418 0
M  V30 1577 N 269.518 -3.32099 3.22613 0
M  V30 1578 H 272.357 -6.54213 5.71376 0
M  V30 1579 H 272.629 -5.30936 4.43503 0
M  V30 1580 H 271.761 -4.55889 6.76652 0
M  V30 1581 H 269.106 -2.61715 5.17932 0
M  V30 1582 H 268.826 -5.52155 4.41878 0
M  V30 1583 H 267.835 -4.51981 5.53374 0
M  V30 1584 H 269.669 -6.25124 6.55234 0
M  V30 1585 P 267.798 -4.23843 7.83734 0
M  V30 1586 O 267.578 -4.19407 9.29784 0
M  V30 1587 O 267.008 -5.24426 7.09156 0
M  V30 1588 O 267.548 -2.7935 7.20758 0
M  V30 1589 C 268.488 -1.7299 7.50419 0
M  V30 1590 C 267.758 -0.406376 7.57911 0
M  V30 1591 O 267.548 0.0897726 6.21935 0
M  V30 1592 C 266.358 -0.447224 8.1878 0
M  V30 1593 O 265.968 0.825065 8.71101 0
M  V30 1594 C 265.478 -0.783801 6.99623 0
M  V30 1595 C 266.188 -0.0619192 5.85967 0
M  V30 1596 N 266.138 -0.7859 4.56281 0
M  V30 1597 H 268.977 -1.93423 8.4679 0
M  V30 1598 H 269.249 -1.68181 6.71046 0
M  V30 1599 H 268.381 0.289041 8.15388 0
M  V30 1600 P 264.418 1.17771 8.83182 0
M  V30 1601 O 264.198 2.07206 9.98732 0
M  V30 1602 O 263.628 -0.0743816 8.81969 0
M  V30 1603 O 264.168 1.97652 7.47304 0
M  V30 1604 C 265.108 3.01133 7.08783 0
M  V30 1605 C 264.378 4.12613 6.37049 0
M  V30 1606 O 264.168 3.72827 4.97879 0
M  V30 1607 C 262.978 4.45085 6.88694 0
M  V30 1608 O 262.588 5.7877 6.5624 0
M  V30 1609 C 262.098 3.47817 6.12078 0
M  V30 1610 C 262.808 3.39414 4.77697 0
M  V30 1611 N 262.758 2.04615 4.15333 0
M  V30 1612 H 265.597 3.41248 7.98759 0
M  V30 1613 H 265.869 2.5837 6.41742 0
M  V30 1614 H 265.001 5.02657 6.42673 0
M  V30 1615 P 261.038 6.144 6.45285 0
M  V30 1616 O 260.818 7.54673 6.86199 0
M  V30 1617 O 260.248 5.12391 7.179 0
M  V30 1618 O 260.788 5.99236 4.88467 0
M  V30 1619 C 261.728 6.60234 3.96415 0
M  V30 1620 C 260.998 7.08079 2.736 0
M  V30 1621 O 260.788 5.94365 1.8368 0
M  V30 1622 C 259.598 7.64886 2.9555 0
M  V30 1623 O 259.208 8.5406 1.90739 0
M  V30 1624 C 258.718 6.4116 2.90739 0
M  V30 1625 C 259.428 5.55375 1.86963 0
M  V30 1626 N 259.378 4.09664 2.15742 0
M  V30 1627 C 259.228 3.22231 1.08477 0
M  V30 1628 O 259.138 3.68951 -0.0600489 0
M  V30 1629 N 259.178 1.76692 1.48799 0
M  V30 1630 C 259.278 1.41695 2.57602 0
M  V30 1631 N 259.228 0.107296 2.75791 0
M  V30 1632 C 259.428 2.29178 3.69733 0
M  V30 1633 C 259.478 3.62753 3.42653 0
M  V30 1634 H 262.218 7.45488 4.45578 0
M  V30 1635 H 262.488 5.86232 3.67314 0
M  V30 1636 H 261.621 7.84508 2.24507 0
M  V30 1637 H 258.966 5.73556 0.888715 0
M  V30 1638 H 258.686 5.9096 3.88638 0
M  V30 1639 H 257.695 6.66053 2.58894 0
M  V30 1640 H 259.529 8.16339 3.92049 0
M  V30 1641 H 259.601 4.33052 4.24913 0
M  V30 1642 H 259.499 1.9103 4.71577 0
M  V30 1643 H 259.111 -0.521221 1.95056 0
M  V30 1644 H 259.307 -0.286429 3.70695 0
M  V30 1645 P 257.658 8.7635 1.60911 0
M  V30 1646 O 257.438 10.1388 1.11561 0
M  V30 1647 O 256.868 8.36503 2.79617 0
M  V30 1648 O 257.408 7.71806 0.42951 0
M  V30 1649 C 258.348 7.67148 -0.673689 0
M  V30 1650 C 257.618 7.33374 -1.95559 0
M  V30 1651 O 257.408 5.88721 -2.00726 0
M  V30 1652 C 256.218 7.92526 -2.10483 0
M  V30 1653 O 255.828 8.02971 -3.47653 0
M  V30 1654 C 255.338 6.89602 -1.41652 0
M  V30 1655 C 256.048 5.59201 -1.75185 0
M  V30 1656 N 255.998 4.58235 -0.662552 0
M  V30 1657 H 258.837 8.65116 -0.777161 0
M  V30 1658 H 259.109 6.90173 -0.474152 0
M  V30 1659 H 258.241 7.66548 -2.79458 0
M  V30 1660 P 254.279 8.03563 -3.84925 0
M  V30 1661 O 254.059 8.85821 -5.0569 0
M  V30 1662 O 253.489 8.41101 -2.65469 0
M  V30 1663 O 254.029 6.4965 -4.18908 0
M  V30 1664 C 254.969 5.81037 -5.05421 0
M  V30 1665 C 254.239 4.78366 -5.89277 0
M  V30 1666 O 254.029 3.58302 -5.08433 0
M  V30 1667 C 252.839 5.17448 -6.36119 0
M  V30 1668 O 252.449 4.45271 -7.53232 0
M  V30 1669 C 251.959 4.74639 -5.19936 0
M  V30 1670 C 252.669 3.49432 -4.70418 0
M  V30 1671 N 252.619 3.32099 -3.22613 0
M  V30 1672 H 255.458 6.54213 -5.71376 0
M  V30 1673 H 255.73 5.30936 -4.43503 0
M  V30 1674 H 254.862 4.55889 -6.76652 0
M  V30 1675 H 252.207 2.61715 -5.17932 0
M  V30 1676 H 251.927 5.52155 -4.41878 0
M  V30 1677 H 250.936 4.51981 -5.53374 0
M  V30 1678 H 252.77 6.25124 -6.55234 0
M  V30 1679 P 250.899 4.23843 -7.83734 0
M  V30 1680 O 250.679 4.19407 -9.29784 0
M  V30 1681 O 250.109 5.24426 -7.09156 0
M  V30 1682 O 250.649 2.7935 -7.20758 0
M  V30 1683 C 251.589 1.7299 -7.50419 0
M  V30 1684 C 250.859 0.406376 -7.57911 0
M  V30 1685 O 250.649 -0.0897726 -6.21935 0
M  V30 1686 C 249.459 0.447224 -8.1878 0
M  V30 1687 O 249.069 -0.825065 -8.71101 0
M  V30 1688 C 248.579 0.783801 -6.99623 0
M  V30 1689 C 249.289 0.0619192 -5.85967 0
M  V30 1690 N 249.239 0.790462 -4.56202 0
M  V30 1691 H 252.078 1.93423 -8.4679 0
M  V30 1692 H 252.35 1.68852 -6.70877 0
M  V30 1693 H 251.482 -0.289041 -8.15388 0
M  V30 1694 H 248.827 -0.927006 -5.72848 0
M  V30 1695 H 248.547 1.86973 -6.82036 0
M  V30 1696 H 247.556 0.403953 -7.13357 0
M  V30 1697 H 249.39 1.20599 -8.97534 0
M  V30 1698 P 247.519 -1.17771 -8.83182 0
M  V30 1699 O 247.299 -2.07206 -9.98732 0
M  V30 1700 O 246.729 0.0743816 -8.81969 0
M  V30 1701 O 247.269 -1.97652 -7.47304 0
M  V30 1702 C 248.209 -3.01133 -7.08783 0
M  V30 1703 C 247.479 -4.12613 -6.37049 0
M  V30 1704 O 247.269 -3.72827 -4.97879 0
M  V30 1705 C 246.079 -4.45085 -6.88694 0
M  V30 1706 O 245.689 -5.7877 -6.5624 0
M  V30 1707 C 245.199 -3.47817 -6.12078 0
M  V30 1708 C 245.909 -3.39414 -4.77697 0
M  V30 1709 N 245.859 -2.04615 -4.15333 0
M  V30 1710 H 248.698 -3.41248 -7.98759 0
M  V30 1711 H 248.97 -2.5837 -6.41742 0
M  V30 1712 H 248.102 -5.02657 -6.42673 0
M  V30 1713 P 244.139 -6.144 -6.45285 0
M  V30 1714 O 243.919 -7.54673 -6.86199 0
M  V30 1715 O 243.349 -5.12391 -7.179 0
M  V30 1716 O 243.889 -5.99158 -4.88404 0
M  V30 1717 C 244.829 -6.60234 -3.96415 0
M  V30 1718 C 244.099 -7.08259 -2.72856 0
M  V30 1719 O 243.889 -5.9427 -1.83651 0
M  V30 1720 C 242.699 -7.64886 -2.9555 0
M  V30 1721 O 242.309 -8.53963 -1.90717 0
M  V30 1722 C 241.819 -6.4116 -2.90739 0
M  V30 1723 C 242.529 -5.55375 -1.86963 0
M  V30 1724 N 242.479 -4.09664 -2.15742 0
M  V30 1725 H 245.318 -7.45574 -4.45629 0
M  V30 1726 H 245.59 -5.86232 -3.67314 0
M  V30 1727 H 244.722 -7.84412 -2.24479 0
M  V30 1728 P 240.759 -8.7635 -1.60911 0
M  V30 1729 O 240.539 -10.1388 -1.11561 0
M  V30 1730 O 239.969 -8.36503 -2.79617 0
M  V30 1731 O 240.509 -7.71806 -0.42951 0
M  V30 1732 C 241.449 -7.67148 0.673689 0
M  V30 1733 C 240.719 -7.33374 1.95559 0
M  V30 1734 O 240.509 -5.88721 2.00726 0
M  V30 1735 C 239.319 -7.92526 2.10483 0
M  V30 1736 O 238.929 -8.02971 3.47653 0
M  V30 1737 C 238.439 -6.89602 1.41652 0
M  V30 1738 C 239.149 -5.59201 1.75185 0
M  V30 1739 N 239.099 -4.58235 0.662552 0
M  V30 1740 H 241.938 -8.65116 0.777161 0
M  V30 1741 H 242.21 -6.90173 0.474152 0
M  V30 1742 H 241.342 -7.66548 2.79458 0
M  V30 1743 P 237.379 -8.03563 3.84925 0
M  V30 1744 O 237.159 -8.85821 5.0569 0
M  V30 1745 O 236.589 -8.41101 2.65469 0
M  V30 1746 O 237.129 -6.4965 4.18908 0
M  V30 1747 C 238.069 -5.81037 5.05421 0
M  V30 1748 C 237.339 -4.78366 5.89277 0
M  V30 1749 O 237.129 -3.58302 5.08433 0
M  V30 1750 C 235.939 -5.17448 6.36119 0
M  V30 1751 O 235.549 -4.45271 7.53232 0
M  V30 1752 C 235.059 -4.74639 5.19936 0
M  V30 1753 C 235.769 -3.49432 4.70418 0
M  V30 1754 N 235.719 -3.31776 3.22945 0
M  V30 1755 H 238.558 -6.54213 5.71376 0
M  V30 1756 H 238.83 -5.30492 4.44033 0
M  V30 1757 H 237.962 -4.55889 6.76652 0
M  V30 1758 P 233.999 -4.23843 7.83734 0
M  V30 1759 O 233.779 -4.19407 9.29784 0
M  V30 1760 O 233.209 -5.24426 7.09156 0
M  V30 1761 O 233.749 -2.7935 7.20758 0
M  V30 1762 C 234.689 -1.72945 7.50224 0
M  V30 1763 C 233.959 -0.406376 7.57911 0
M  V30 1764 O 233.749 0.0897726 6.21935 0
M  V30 1765 C 232.559 -0.438983 8.18724 0
M  V30 1766 O 232.169 0.825065 8.71101 0
M  V30 1767 C 231.679 -0.783689 6.99524 0
M  V30 1768 C 232.389 -0.0619086 5.85867 0
M  V30 1769 N 232.339 -0.78573 4.56183 0
M  V30 1770 C 232.189 -0.0292889 3.41887 0
M  V30 1771 O 232.099 1.18445 3.4419 0
M  V30 1772 N 232.149 -0.744061 2.23964 0
M  V30 1773 C 232.239 -2.10932 2.10362 0
M  V30 1774 O 232.189 -2.64117 0.98825 0
M  V30 1775 C 232.389 -2.8202 3.34994 0
M  V30 1776 C 232.499 -4.31095 3.25037 0
M  V30 1777 C 232.439 -2.15547 4.52261 0
M  V30 1778 H 235.18 -1.93379 8.46595 0
M  V30 1779 H 235.449 -1.68132 6.70852 0
M  V30 1780 H 234.582 0.289041 8.15388 0
M  V30 1781 H 231.927 0.926847 5.72749 0
M  V30 1782 H 231.648 -1.86973 6.82036 0
M  V30 1783 H 230.656 -0.403896 7.13257 0
M  V30 1784 H 232.49 -1.20585 8.97435 0
M  V30 1785 H 232.561 -2.71231 5.45042 0
M  V30 1786 H 231.531 -4.76966 3.49992 0
M  V30 1787 H 233.268 -4.67047 3.95024 0
M  V30 1788 H 232.78 -4.58996 2.22312 0
M  V30 1789 H 232.044 -0.214893 1.39758 0
M  V30 1790 P 230.619 1.17771 8.83182 0
M  V30 1791 O 230.399 2.07206 9.98732 0
M  V30 1792 O 229.829 -0.0743816 8.81969 0
M  V30 1793 O 230.369 1.97652 7.47304 0
M  V30 1794 C 231.309 3.01133 7.08783 0
M  V30 1795 C 230.579 4.12613 6.37049 0
M  V30 1796 O 230.369 3.72827 4.97879 0
M  V30 1797 C 229.179 4.45085 6.88694 0
M  V30 1798 O 228.789 5.7877 6.5624 0
M  V30 1799 C 228.299 3.47817 6.12078 0
M  V30 1800 C 229.009 3.39414 4.77697 0
M  V30 1801 N 228.959 2.04615 4.15333 0
M  V30 1802 H 231.798 3.41248 7.98759 0
M  V30 1803 H 232.07 2.5837 6.41742 0
M  V30 1804 H 231.202 5.02657 6.42673 0
M  V30 1805 P 227.239 6.144 6.45285 0
M  V30 1806 O 227.019 7.54673 6.86199 0
M  V30 1807 O 226.449 5.12391 7.179 0
M  V30 1808 O 226.989 5.99158 4.88404 0
M  V30 1809 C 227.929 6.60234 3.96415 0
M  V30 1810 C 227.199 7.08259 2.72856 0
M  V30 1811 O 226.989 5.9427 1.83651 0
M  V30 1812 C 225.799 7.64886 2.9555 0
M  V30 1813 O 225.409 8.53963 1.90717 0
M  V30 1814 C 224.919 6.4116 2.90739 0
M  V30 1815 C 225.629 5.55375 1.86963 0
M  V30 1816 N 225.579 4.09664 2.15742 0
M  V30 1817 H 228.418 7.45574 4.45629 0
M  V30 1818 H 228.69 5.86232 3.67314 0
M  V30 1819 H 227.822 7.84412 2.24479 0
M  V30 1820 P 223.859 8.7635 1.60911 0
M  V30 1821 O 223.639 10.1388 1.11561 0
M  V30 1822 O 223.069 8.36503 2.79617 0
M  V30 1823 O 223.609 7.71806 0.42951 0
M  V30 1824 C 224.549 7.67148 -0.673689 0
M  V30 1825 C 223.819 7.33374 -1.95559 0
M  V30 1826 O 223.609 5.88721 -2.00726 0
M  V30 1827 C 222.419 7.92526 -2.10483 0
M  V30 1828 O 222.029 8.02971 -3.47653 0
M  V30 1829 C 221.539 6.89602 -1.41652 0
M  V30 1830 C 222.249 5.59201 -1.75185 0
M  V30 1831 N 222.199 4.58301 -0.657969 0
M  V30 1832 H 225.038 8.65116 -0.777161 0
M  V30 1833 H 225.31 6.9022 -0.46725 0
M  V30 1834 H 224.442 7.66548 -2.79458 0
M  V30 1835 H 221.787 5.16165 -2.65183 0
M  V30 1836 H 221.507 7.06433 -0.329384 0
M  V30 1837 H 220.516 6.90926 -1.82021 0
M  V30 1838 H 222.35 8.90873 -1.62657 0
M  V30 1839 P 220.479 8.03563 -3.84925 0
M  V30 1840 O 220.259 8.85821 -5.0569 0
M  V30 1841 O 219.689 8.41101 -2.65469 0
M  V30 1842 O 220.229 6.4965 -4.18908 0
M  V30 1843 C 221.169 5.81037 -5.05421 0
M  V30 1844 C 220.439 4.78366 -5.89277 0
M  V30 1845 O 220.229 3.58302 -5.08433 0
M  V30 1846 C 219.039 5.17448 -6.36119 0
M  V30 1847 O 218.649 4.45271 -7.53232 0
M  V30 1848 C 218.159 4.74639 -5.19936 0
M  V30 1849 C 218.869 3.49432 -4.70418 0
M  V30 1850 N 218.819 3.31776 -3.22945 0
M  V30 1851 C 218.899 4.27147 -2.23315 0
M  V30 1852 N 218.819 3.78447 -1.02186 0
M  V30 1853 C 218.679 2.41001 -1.21732 0
M  V30 1854 C 218.549 1.36111 -0.27694 0
M  V30 1855 N 218.429 0.113683 -0.912949 0
M  V30 1856 C 218.429 -0.0846396 -2.27943 0
M  V30 1857 N 218.299 -1.34737 -2.6916 0
M  V30 1858 N 218.559 0.902521 -3.16379 0
M  V30 1859 C 218.679 2.11937 -2.56849 0
M  V30 1860 H 221.658 6.54213 -5.71376 0
M  V30 1861 H 221.93 5.30492 -4.44033 0
M  V30 1862 H 221.062 4.55889 -6.76652 0
M  V30 1863 P 217.099 4.23843 -7.83734 0
M  V30 1864 O 216.879 4.19407 -9.29784 0
M  V30 1865 O 216.309 5.24426 -7.09156 0
M  V30 1866 O 216.849 2.7935 -7.20758 0
M  V30 1867 C 217.789 1.7299 -7.50419 0
M  V30 1868 C 217.059 0.406376 -7.57911 0
M  V30 1869 O 216.849 -0.0897726 -6.21935 0
M  V30 1870 C 215.659 0.447224 -8.1878 0
M  V30 1871 O 215.269 -0.825065 -8.71101 0
M  V30 1872 C 214.779 0.783801 -6.99623 0
M  V30 1873 C 215.489 0.0619192 -5.85967 0
M  V30 1874 N 215.439 0.7859 -4.56281 0
M  V30 1875 H 218.278 1.93423 -8.4679 0
M  V30 1876 H 218.55 1.68181 -6.71046 0
M  V30 1877 H 217.682 -0.289041 -8.15388 0
M  V30 1878 P 213.719 -1.17771 -8.83182 0
M  V30 1879 O 213.499 -2.07206 -9.98732 0
M  V30 1880 O 212.929 0.0743816 -8.81969 0
M  V30 1881 O 213.469 -1.97652 -7.47304 0
M  V30 1882 C 214.409 -3.01133 -7.08783 0
M  V30 1883 C 213.679 -4.12613 -6.37049 0
M  V30 1884 O 213.469 -3.72827 -4.97879 0
M  V30 1885 C 212.279 -4.45085 -6.88694 0
M  V30 1886 O 211.889 -5.7877 -6.5624 0
M  V30 1887 C 211.399 -3.47817 -6.12078 0
M  V30 1888 C 212.109 -3.39414 -4.77697 0
M  V30 1889 N 212.059 -2.04615 -4.15333 0
M  V30 1890 H 214.898 -3.41248 -7.98759 0
M  V30 1891 H 215.17 -2.5837 -6.41742 0
M  V30 1892 H 214.302 -5.02657 -6.42673 0
M  V30 1893 P 210.339 -6.144 -6.45285 0
M  V30 1894 O 210.119 -7.54673 -6.86199 0
M  V30 1895 O 209.549 -5.12391 -7.179 0
M  V30 1896 O 210.089 -5.99158 -4.88404 0
M  V30 1897 C 211.029 -6.60062 -3.96313 0
M  V30 1898 C 210.299 -7.08259 -2.72856 0
M  V30 1899 O 210.089 -5.9427 -1.83651 0
M  V30 1900 C 208.899 -7.65087 -2.94749 0
M  V30 1901 O 208.509 -8.53963 -1.90717 0
M  V30 1902 C 208.019 -6.41069 -2.90698 0
M  V30 1903 C 208.729 -5.5528 -1.86931 0
M  V30 1904 N 208.679 -4.09575 -2.15696 0
M  V30 1905 C 208.529 -3.24249 -1.08435 0
M  V30 1906 O 208.439 -3.63946 0.0628747 0
M  V30 1907 N 208.489 -1.90009 -1.39973 0
M  V30 1908 C 208.579 -1.34884 -2.65614 0
M  V30 1909 O 208.529 -0.123716 -2.81728 0
M  V30 1910 C 208.729 -2.3145 -3.71736 0
M  V30 1911 C 208.839 -1.75913 -5.10438 0
M  V30 1912 C 208.779 -3.63518 -3.44754 0
M  V30 1913 H 211.52 -7.45402 -4.45526 0
M  V30 1914 H 211.789 -5.86062 -3.67208 0
M  V30 1915 H 210.922 -7.84412 -2.24479 0
M  V30 1916 H 208.267 -5.73358 -0.888409 0
M  V30 1917 H 207.988 -5.90877 -3.88583 0
M  V30 1918 H 206.996 -6.65867 -2.58821 0
M  V30 1919 H 208.83 -8.16248 -3.92006 0
M  V30 1920 H 208.901 -4.34551 -4.26383 0
M  V30 1921 H 207.871 -1.85471 -5.61775 0
M  V30 1922 H 209.608 -2.31364 -5.66257 0
M  V30 1923 H 209.12 -0.695936 -5.05229 0
M  V30 1924 H 208.384 -1.26277 -0.63625 0
M  V30 1925 P 206.959 -8.7635 -1.60911 0
M  V30 1926 O 206.739 -10.1388 -1.11561 0
M  V30 1927 O 206.169 -8.36503 -2.79617 0
M  V30 1928 O 206.709 -7.71806 -0.42951 0
M  V30 1929 C 207.649 -7.67148 0.673689 0
M  V30 1930 C 206.919 -7.33374 1.95559 0
M  V30 1931 O 206.709 -5.88721 2.00726 0
M  V30 1932 C 205.519 -7.92526 2.10483 0
M  V30 1933 O 205.129 -8.02971 3.47653 0
M  V30 1934 C 204.639 -6.89602 1.41652 0
M  V30 1935 C 205.349 -5.59201 1.75185 0
M  V30 1936 N 205.299 -4.58301 0.657969 0
M  V30 1937 H 208.138 -8.65116 0.777161 0
M  V30 1938 H 208.41 -6.9022 0.46725 0
M  V30 1939 H 207.542 -7.66548 2.79458 0
M  V30 1940 H 204.887 -5.16165 2.65183 0
M  V30 1941 H 204.607 -7.06433 0.329384 0
M  V30 1942 H 203.616 -6.90926 1.82021 0
M  V30 1943 H 205.45 -8.90873 1.62657 0
M  V30 1944 P 203.579 -8.03563 3.84925 0
M  V30 1945 O 203.359 -8.85821 5.0569 0
M  V30 1946 O 202.789 -8.41101 2.65469 0
M  V30 1947 O 203.329 -6.4965 4.18908 0
M  V30 1948 C 204.269 -5.81037 5.05421 0
M  V30 1949 C 203.539 -4.78366 5.89277 0
M  V30 1950 O 203.329 -3.58302 5.08433 0
M  V30 1951 C 202.139 -5.17448 6.36119 0
M  V30 1952 O 201.749 -4.45271 7.53232 0
M  V30 1953 C 201.259 -4.74639 5.19936 0
M  V30 1954 C 201.969 -3.49432 4.70418 0
M  V30 1955 N 201.919 -3.32099 3.22613 0
M  V30 1956 H 204.758 -6.54213 5.71376 0
M  V30 1957 H 205.03 -5.30936 4.43503 0
M  V30 1958 H 204.162 -4.55889 6.76652 0
M  V30 1959 H 201.507 -2.61715 5.17932 0
M  V30 1960 H 201.227 -5.52155 4.41878 0
M  V30 1961 H 200.236 -4.51981 5.53374 0
M  V30 1962 H 202.07 -6.25124 6.55234 0
M  V30 1963 P 200.199 -4.23843 7.83734 0
M  V30 1964 O 199.979 -4.19407 9.29784 0
M  V30 1965 O 199.409 -5.24426 7.09156 0
M  V30 1966 O 199.949 -2.7935 7.20758 0
M  V30 1967 C 200.889 -1.7299 7.50419 0
M  V30 1968 C 200.159 -0.406376 7.57911 0
M  V30 1969 O 199.949 0.0897726 6.21935 0
M  V30 1970 C 198.759 -0.447224 8.1878 0
M  V30 1971 O 198.369 0.825065 8.71101 0
M  V30 1972 C 197.879 -0.783801 6.99623 0
M  V30 1973 C 198.589 -0.0619192 5.85967 0
M  V30 1974 N 198.539 -0.790462 4.56202 0
M  V30 1975 C 198.619 -2.13895 4.34171 0
M  V30 1976 N 198.549 -2.46449 3.08687 0
M  V30 1977 C 198.399 -1.2525 2.43697 0
M  V30 1978 C 198.269 -0.914535 1.07318 0
M  V30 1979 N 198.259 -1.80782 0.0887348 0
M  V30 1980 N 198.149 0.386745 0.768133 0
M  V30 1981 C 198.159 1.28096 1.75159 0
M  V30 1982 N 198.279 1.09708 3.04861 0
M  V30 1983 C 198.399 -0.214857 3.32306 0
M  V30 1984 H 201.378 -1.93423 8.4679 0
M  V30 1985 H 201.65 -1.68852 6.70877 0
M  V30 1986 H 200.782 0.289041 8.15388 0
M  V30 1987 H 198.127 0.927006 5.72848 0
M  V30 1988 H 197.847 -1.86973 6.82036 0
M  V30 1989 H 196.856 -0.403953 7.13357 0
M  V30 1990 H 198.69 -1.20599 8.97534 0
M  V30 1991 H 198.731 -2.86846 5.14318 0
M  V30 1992 H 198.35 -2.81082 0.302037 0
M  V30 1993 H 198.161 -1.49688 -0.889064 0
M  V30 1994 H 198.053 2.31317 1.43855 0
M  V30 1995 P 196.819 1.17771 8.83182 0
M  V30 1996 O 196.599 2.07206 9.98732 0
M  V30 1997 O 196.029 -0.0743816 8.81969 0
M  V30 1998 O 196.569 1.97652 7.47304 0
M  V30 1999 C 197.509 3.01133 7.08783 0
M  V30 2000 C 196.779 4.12613 6.37049 0
M  V30 2001 O 196.569 3.72827 4.97879 0
M  V30 2002 C 195.379 4.45085 6.88694 0
M  V30 2003 O 194.989 5.7877 6.5624 0
M  V30 2004 C 194.499 3.47817 6.12078 0
M  V30 2005 C 195.209 3.39414 4.77697 0
M  V30 2006 N 195.159 2.04615 4.15333 0
M  V30 2007 H 197.998 3.41248 7.98759 0
M  V30 2008 H 198.27 2.5837 6.41742 0
M  V30 2009 H 197.402 5.02657 6.42673 0
M  V30 2010 P 193.439 6.144 6.45285 0
M  V30 2011 O 193.219 7.54673 6.86199 0
M  V30 2012 O 192.649 5.12391 7.179 0
M  V30 2013 O 193.189 5.99158 4.88404 0
M  V30 2014 C 194.129 6.60234 3.96415 0
M  V30 2015 C 193.399 7.08259 2.72856 0
M  V30 2016 O 193.189 5.9427 1.83651 0
M  V30 2017 C 191.999 7.64886 2.9555 0
M  V30 2018 O 191.609 8.53963 1.90717 0
M  V30 2019 C 191.119 6.4116 2.90739 0
M  V30 2020 C 191.829 5.55375 1.86963 0
M  V30 2021 N 191.779 4.09664 2.15742 0
M  V30 2022 H 194.618 7.45574 4.45629 0
M  V30 2023 H 194.89 5.86232 3.67314 0
M  V30 2024 H 194.022 7.84412 2.24479 0
M  V30 2025 P 190.059 8.7635 1.60911 0
M  V30 2026 O 189.839 10.1388 1.11561 0
M  V30 2027 O 189.269 8.36503 2.79617 0
M  V30 2028 O 189.809 7.71806 0.42951 0
M  V30 2029 C 190.749 7.67148 -0.673689 0
M  V30 2030 C 190.019 7.33374 -1.95559 0
M  V30 2031 O 189.809 5.88721 -2.00726 0
M  V30 2032 C 188.619 7.92526 -2.10483 0
M  V30 2033 O 188.229 8.02971 -3.47653 0
M  V30 2034 C 187.739 6.89602 -1.41652 0
M  V30 2035 C 188.449 5.59201 -1.75185 0
M  V30 2036 N 188.399 4.58235 -0.662552 0
M  V30 2037 H 191.238 8.65116 -0.777161 0
M  V30 2038 H 191.51 6.90173 -0.474152 0
M  V30 2039 H 190.642 7.66548 -2.79458 0
M  V30 2040 P 186.679 8.03563 -3.84925 0
M  V30 2041 O 186.459 8.85821 -5.0569 0
M  V30 2042 O 185.889 8.41101 -2.65469 0
M  V30 2043 O 186.429 6.4965 -4.18908 0
M  V30 2044 C 187.369 5.81037 -5.05421 0
M  V30 2045 C 186.639 4.78366 -5.89277 0
M  V30 2046 O 186.429 3.58302 -5.08433 0
M  V30 2047 C 185.239 5.17448 -6.36119 0
M  V30 2048 O 184.849 4.45271 -7.53232 0
M  V30 2049 C 184.359 4.74639 -5.19936 0
M  V30 2050 C 185.069 3.49432 -4.70418 0
M  V30 2051 N 185.019 3.31776 -3.22945 0
M  V30 2052 H 187.858 6.54213 -5.71376 0
M  V30 2053 H 188.13 5.30492 -4.44033 0
M  V30 2054 H 187.262 4.55889 -6.76652 0
M  V30 2055 P 183.299 4.23843 -7.83734 0
M  V30 2056 O 183.079 4.19407 -9.29784 0
M  V30 2057 O 182.509 5.24426 -7.09156 0
M  V30 2058 O 183.049 2.7935 -7.20758 0
M  V30 2059 C 183.989 1.7299 -7.50419 0
M  V30 2060 C 183.259 0.406376 -7.57911 0
M  V30 2061 O 183.049 -0.0897726 -6.21935 0
M  V30 2062 C 181.859 0.447224 -8.1878 0
M  V30 2063 O 181.469 -0.825065 -8.71101 0
M  V30 2064 C 180.979 0.783801 -6.99623 0
M  V30 2065 C 181.689 0.0619192 -5.85967 0
M  V30 2066 N 181.639 0.7859 -4.56281 0
M  V30 2067 H 184.478 1.93423 -8.4679 0
M  V30 2068 H 184.75 1.68181 -6.71046 0
M  V30 2069 H 183.882 -0.289041 -8.15388 0
M  V30 2070 P 179.919 -1.17771 -8.83182 0
M  V30 2071 O 179.699 -2.07206 -9.98732 0
M  V30 2072 O 179.129 0.0743816 -8.81969 0
M  V30 2073 O 179.669 -1.97652 -7.47304 0
M  V30 2074 C 180.609 -3.01133 -7.08783 0
M  V30 2075 C 179.879 -4.12613 -6.37049 0
M  V30 2076 O 179.669 -3.72827 -4.97879 0
M  V30 2077 C 178.479 -4.45085 -6.88694 0
M  V30 2078 O 178.089 -5.7877 -6.5624 0
M  V30 2079 C 177.599 -3.47817 -6.12078 0
M  V30 2080 C 178.309 -3.39414 -4.77697 0
M  V30 2081 N 178.259 -2.04615 -4.15333 0
M  V30 2082 H 181.098 -3.41248 -7.98759 0
M  V30 2083 H 181.37 -2.5837 -6.41742 0
M  V30 2084 H 180.502 -5.02657 -6.42673 0
M  V30 2085 P 176.539 -6.144 -6.45285 0
M  V30 2086 O 176.319 -7.54673 -6.86199 0
M  V30 2087 O 175.749 -5.12391 -7.179 0
M  V30 2088 O 176.289 -5.99158 -4.88404 0
M  V30 2089 C 177.229 -6.60234 -3.96415 0
M  V30 2090 C 176.499 -7.08259 -2.72856 0
M  V30 2091 O 176.289 -5.9427 -1.83651 0
M  V30 2092 C 175.099 -7.64886 -2.9555 0
M  V30 2093 O 174.709 -8.53963 -1.90717 0
M  V30 2094 C 174.219 -6.4116 -2.90739 0
M  V30 2095 C 174.929 -5.55375 -1.86963 0
M  V30 2096 N 174.879 -4.09448 -2.16152 0
M  V30 2097 H 177.718 -7.45574 -4.45629 0
M  V30 2098 H 177.99 -5.85864 -3.679 0
M  V30 2099 H 177.122 -7.84412 -2.24479 0
M  V30 2100 H 174.467 -5.73457 -0.888562 0
M  V30 2101 H 174.187 -5.90877 -3.88583 0
M  V30 2102 H 173.196 -6.6596 -2.58858 0
M  V30 2103 H 175.03 -8.16339 -3.92049 0
M  V30 2104 P 173.159 -8.7635 -1.60911 0
M  V30 2105 O 172.939 -10.1388 -1.11561 0
M  V30 2106 O 172.369 -8.36503 -2.79617 0
M  V30 2107 O 172.909 -7.71806 -0.42951 0
M  V30 2108 C 173.849 -7.67148 0.673689 0
M  V30 2109 C 173.119 -7.33374 1.95559 0
M  V30 2110 O 172.909 -5.88721 2.00726 0
M  V30 2111 C 171.719 -7.92526 2.10483 0
M  V30 2112 O 171.329 -8.02971 3.47653 0
M  V30 2113 C 170.839 -6.89602 1.41652 0
M  V30 2114 C 171.549 -5.59201 1.75185 0
M  V30 2115 N 171.499 -4.58301 0.657969 0
M  V30 2116 C 171.579 -4.79019 -0.692603 0
M  V30 2117 N 171.509 -3.69736 -1.38998 0
M  V30 2118 C 171.359 -2.70474 -0.438135 0
M  V30 2119 C 171.229 -1.30327 -0.538142 0
M  V30 2120 N 171.219 -0.64304 -1.69192 0
M  V30 2121 N 171.109 -0.611027 0.605183 0
M  V30 2122 C 171.119 -1.27002 1.75953 0
M  V30 2123 N 171.239 -2.56038 1.98546 0
M  V30 2124 C 171.359 -3.22681 0.822541 0
M  V30 2125 H 174.338 -8.65116 0.777161 0
M  V30 2126 H 174.61 -6.9022 0.46725 0
M  V30 2127 H 173.742 -7.66548 2.79458 0
M  V30 2128 H 171.087 -5.16165 2.65183 0
M  V30 2129 H 170.807 -7.06433 0.329384 0
M  V30 2130 H 169.816 -6.90926 1.82021 0
M  V30 2131 H 171.65 -8.90873 1.62657 0
M  V30 2132 H 171.691 -5.77785 -1.13874 0
M  V30 2133 H 171.31 -1.15585 -2.57991 0
M  V30 2134 H 171.121 0.382989 -1.69835 0
M  V30 2135 H 171.013 -0.653331 2.64449 0
M  V30 2136 P 169.779 -8.03563 3.84925 0
M  V30 2137 O 169.559 -8.85821 5.0569 0
M  V30 2138 O 168.989 -8.41101 2.65469 0
M  V30 2139 O 169.529 -6.4965 4.18908 0
M  V30 2140 C 170.469 -5.81037 5.05421 0
M  V30 2141 C 169.739 -4.78366 5.89277 0
M  V30 2142 O 169.529 -3.58302 5.08433 0
M  V30 2143 C 168.339 -5.17448 6.36119 0
M  V30 2144 O 167.949 -4.45271 7.53232 0
M  V30 2145 C 167.459 -4.74639 5.19936 0
M  V30 2146 C 168.169 -3.49432 4.70418 0
M  V30 2147 N 168.119 -3.32099 3.22613 0
M  V30 2148 H 170.958 -6.54213 5.71376 0
M  V30 2149 H 171.23 -5.30936 4.43503 0
M  V30 2150 H 170.362 -4.55889 6.76652 0
M  V30 2151 H 167.707 -2.61715 5.17932 0
M  V30 2152 H 167.427 -5.52155 4.41878 0
M  V30 2153 H 166.436 -4.51981 5.53374 0
M  V30 2154 H 168.27 -6.25124 6.55234 0
M  V30 2155 P 166.399 -4.23843 7.83734 0
M  V30 2156 O 166.179 -4.19407 9.29784 0
M  V30 2157 O 165.609 -5.24426 7.09156 0
M  V30 2158 O 166.149 -2.7935 7.20758 0
M  V30 2159 C 167.089 -1.7299 7.50419 0
M  V30 2160 C 166.359 -0.406376 7.57911 0
M  V30 2161 O 166.149 0.0897726 6.21935 0
M  V30 2162 C 164.959 -0.447224 8.1878 0
M  V30 2163 O 164.569 0.825065 8.71101 0
M  V30 2164 C 164.079 -0.783801 6.99623 0
M  V30 2165 C 164.789 -0.0619192 5.85967 0
M  V30 2166 N 164.739 -0.7859 4.56281 0
M  V30 2167 H 167.578 -1.93423 8.4679 0
M  V30 2168 H 167.85 -1.68181 6.71046 0
M  V30 2169 H 166.982 0.289041 8.15388 0
M  V30 2170 P 163.019 1.17771 8.83182 0
M  V30 2171 O 162.799 2.07206 9.98732 0
M  V30 2172 O 162.229 -0.0743816 8.81969 0
M  V30 2173 O 162.769 1.97652 7.47304 0
M  V30 2174 C 163.709 3.01133 7.08783 0
M  V30 2175 C 162.979 4.12613 6.37049 0
M  V30 2176 O 162.769 3.72827 4.97879 0
M  V30 2177 C 161.579 4.45085 6.88694 0
M  V30 2178 O 161.189 5.7877 6.5624 0
M  V30 2179 C 160.699 3.47817 6.12078 0
M  V30 2180 C 161.409 3.39414 4.77697 0
M  V30 2181 N 161.359 2.04199 4.15538 0
M  V30 2182 H 164.198 3.41248 7.98759 0
M  V30 2183 H 164.47 2.57728 6.42 0
M  V30 2184 H 163.602 5.02657 6.42673 0
M  V30 2185 H 160.947 4.11708 4.08956 0
M  V30 2186 H 160.667 2.49626 6.61679 0
M  V30 2187 H 159.676 3.8662 6.00862 0
M  V30 2188 H 161.51 4.29991 7.97006 0
M  V30 2189 P 159.639 6.144 6.45285 0
M  V30 2190 O 159.419 7.54673 6.86199 0
M  V30 2191 O 158.849 5.12391 7.179 0
M  V30 2192 O 159.389 5.99158 4.88404 0
M  V30 2193 C 160.329 6.60234 3.96415 0
M  V30 2194 C 159.599 7.08259 2.72856 0
M  V30 2195 O 159.389 5.9427 1.83651 0
M  V30 2196 C 158.199 7.64886 2.9555 0
M  V30 2197 O 157.809 8.53963 1.90717 0
M  V30 2198 C 157.319 6.4116 2.90739 0
M  V30 2199 C 158.029 5.55375 1.86963 0
M  V30 2200 N 157.979 4.09664 2.15742 0
M  V30 2201 C 158.059 3.44381 3.37233 0
M  V30 2202 N 157.979 2.14131 3.28347 0
M  V30 2203 C 157.839 1.90247 1.91588 0
M  V30 2204 C 157.709 0.683992 1.20892 0
M  V30 2205 N 157.589 0.903396 -0.173998 0
M  V30 2206 C 157.589 2.14171 -0.784879 0
M  V30 2207 N 157.459 2.1435 -2.11317 0
M  V30 2208 N 157.719 3.28784 -0.119316 0
M  V30 2209 C 157.839 3.0977 1.22194 0
M  V30 2210 H 160.818 7.45574 4.45629 0
M  V30 2211 H 161.09 5.86232 3.67314 0
M  V30 2212 H 160.222 7.84412 2.24479 0
M  V30 2213 P 156.259 8.7635 1.60911 0
M  V30 2214 O 156.039 10.1388 1.11561 0
M  V30 2215 O 155.469 8.36503 2.79617 0
M  V30 2216 O 156.009 7.71806 0.42951 0
M  V30 2217 C 156.949 7.66948 -0.673514 0
M  V30 2218 C 156.219 7.33374 -1.95559 0
M  V30 2219 O 156.009 5.88721 -2.00726 0
M  V30 2220 C 154.819 7.92218 -2.1125 0
M  V30 2221 O 154.429 8.02971 -3.47653 0
M  V30 2222 C 153.939 6.89504 -1.41631 0
M  V30 2223 C 154.649 5.59106 -1.75155 0
M  V30 2224 N 154.599 4.58136 -0.662409 0
M  V30 2225 C 154.449 3.26059 -1.02863 0
M  V30 2226 O 154.359 2.90743 -2.19009 0
M  V30 2227 N 154.409 2.35995 0.0155585 0
M  V30 2228 C 154.499 2.65248 1.35603 0
M  V30 2229 O 154.449 1.75605 2.20651 0
M  V30 2230 C 154.649 4.05747 1.64698 0
M  V30 2231 C 154.759 4.42345 3.09553 0
M  V30 2232 C 154.699 4.96734 0.652411 0
M  V30 2233 H 157.44 8.64917 -0.776982 0
M  V30 2234 H 157.709 6.89974 -0.474015 0
M  V30 2235 H 156.842 7.66548 -2.79458 0
M  V30 2236 H 154.187 5.16076 -2.65138 0
M  V30 2237 H 153.908 7.06433 -0.329384 0
M  V30 2238 H 152.916 6.90829 -1.81996 0
M  V30 2239 H 154.75 8.90774 -1.62639 0
M  V30 2240 H 154.821 6.02181 0.895285 0
M  V30 2241 H 153.791 4.80252 3.45468 0
M  V30 2242 H 155.528 5.20015 3.22119 0
M  V30 2243 H 155.04 3.53269 3.67833 0
M  V30 2244 H 154.304 1.39558 -0.227499 0
M  V30 2245 P 152.879 8.03563 -3.84925 0
M  V30 2246 O 152.659 8.85821 -5.0569 0
M  V30 2247 O 152.089 8.41101 -2.65469 0
M  V30 2248 O 152.629 6.4965 -4.18908 0
M  V30 2249 C 153.569 5.81037 -5.05421 0
M  V30 2250 C 152.839 4.78366 -5.89277 0
M  V30 2251 O 152.629 3.58302 -5.08433 0
M  V30 2252 C 151.439 5.17448 -6.36119 0
M  V30 2253 O 151.049 4.45271 -7.53232 0
M  V30 2254 C 150.559 4.74639 -5.19936 0
M  V30 2255 C 151.269 3.49432 -4.70418 0
M  V30 2256 N 151.219 3.32099 -3.22613 0
M  V30 2257 C 151.299 4.28245 -2.25527 0
M  V30 2258 N 151.229 3.80823 -1.04874 0
M  V30 2259 C 151.079 2.44571 -1.23535 0
M  V30 2260 C 150.949 1.37068 -0.330675 0
M  V30 2261 N 150.939 1.51472 0.990824 0
M  V30 2262 N 150.829 0.138614 -0.848756 0
M  V30 2263 C 150.839 -0.00675923 -2.16999 0
M  V30 2264 N 150.959 0.904372 -3.11122 0
M  V30 2265 C 151.079 2.12707 -2.56212 0
M  V30 2266 H 154.058 6.54213 -5.71376 0
M  V30 2267 H 154.33 5.30936 -4.43503 0
M  V30 2268 H 153.462 4.55889 -6.76652 0
M  V30 2269 H 150.807 2.61715 -5.17932 0
M  V30 2270 H 150.527 5.52155 -4.41878 0
M  V30 2271 H 149.536 4.51981 -5.53374 0
M  V30 2272 H 151.37 6.25124 -6.55234 0
M  V30 2273 H 151.411 5.34372 -2.47488 0
M  V30 2274 H 151.03 2.45153 1.4078 0
M  V30 2275 H 150.841 0.688422 1.59911 0
M  V30 2276 H 150.733 -1.02584 -2.52346 0
M  V30 2277 P 149.499 4.23843 -7.83734 0
M  V30 2278 O 149.279 4.19407 -9.29784 0
M  V30 2279 O 148.709 5.24426 -7.09156 0
M  V30 2280 O 149.249 2.7935 -7.20758 0
M  V30 2281 C 150.189 1.7299 -7.50419 0
M  V30 2282 C 149.459 0.406376 -7.57911 0
M  V30 2283 O 149.249 -0.0897726 -6.21935 0
M  V30 2284 C 148.059 0.447224 -8.1878 0
M  V30 2285 O 147.669 -0.825065 -8.71101 0
M  V30 2286 C 147.179 0.783801 -6.99623 0
M  V30 2287 C 147.889 0.0619192 -5.85967 0
M  V30 2288 N 147.839 0.7859 -4.56281 0
M  V30 2289 H 150.678 1.93423 -8.4679 0
M  V30 2290 H 150.95 1.68181 -6.71046 0
M  V30 2291 H 150.082 -0.289041 -8.15388 0
M  V30 2292 P 146.119 -1.17771 -8.83182 0
M  V30 2293 O 145.899 -2.07206 -9.98732 0
M  V30 2294 O 145.329 0.0743816 -8.81969 0
M  V30 2295 O 145.869 -1.97652 -7.47304 0
M  V30 2296 C 146.809 -3.01133 -7.08783 0
M  V30 2297 C 146.079 -4.12613 -6.37049 0
M  V30 2298 O 145.869 -3.72827 -4.97879 0
M  V30 2299 C 144.679 -4.45085 -6.88694 0
M  V30 2300 O 144.289 -5.7877 -6.5624 0
M  V30 2301 C 143.799 -3.47817 -6.12078 0
M  V30 2302 C 144.509 -3.39414 -4.77697 0
M  V30 2303 N 144.459 -2.04615 -4.15333 0
M  V30 2304 H 147.298 -3.41248 -7.98759 0
M  V30 2305 H 147.57 -2.5837 -6.41742 0
M  V30 2306 H 146.702 -5.02657 -6.42673 0
M  V30 2307 P 142.739 -6.144 -6.45285 0
M  V30 2308 O 142.519 -7.54673 -6.86199 0
M  V30 2309 O 141.949 -5.12391 -7.179 0
M  V30 2310 O 142.489 -5.99158 -4.88404 0
M  V30 2311 C 143.429 -6.60234 -3.96415 0
M  V30 2312 C 142.699 -7.08259 -2.72856 0
M  V30 2313 O 142.489 -5.9427 -1.83651 0
M  V30 2314 C 141.299 -7.64886 -2.9555 0
M  V30 2315 O 140.909 -8.53963 -1.90717 0
M  V30 2316 C 140.419 -6.4116 -2.90739 0
M  V30 2317 C 141.129 -5.55375 -1.86963 0
M  V30 2318 N 141.079 -4.09664 -2.15742 0
M  V30 2319 H 143.918 -7.45574 -4.45629 0
M  V30 2320 H 144.19 -5.86232 -3.67314 0
M  V30 2321 H 143.322 -7.84412 -2.24479 0
M  V30 2322 P 139.359 -8.7635 -1.60911 0
M  V30 2323 O 139.139 -10.1388 -1.11561 0
M  V30 2324 O 138.569 -8.36503 -2.79617 0
M  V30 2325 O 139.109 -7.71806 -0.42951 0
M  V30 2326 C 140.049 -7.67148 0.673689 0
M  V30 2327 C 139.319 -7.33374 1.95559 0
M  V30 2328 O 139.109 -5.88721 2.00726 0
M  V30 2329 C 137.919 -7.92526 2.10483 0
M  V30 2330 O 137.529 -8.02971 3.47653 0
M  V30 2331 C 137.039 -6.89602 1.41652 0
M  V30 2332 C 137.749 -5.59201 1.75185 0
M  V30 2333 N 137.699 -4.58235 0.662552 0
M  V30 2334 H 140.538 -8.65116 0.777161 0
M  V30 2335 H 140.81 -6.90173 0.474152 0
M  V30 2336 H 139.942 -7.66548 2.79458 0
M  V30 2337 P 135.979 -8.03563 3.84925 0
M  V30 2338 O 135.759 -8.85821 5.0569 0
M  V30 2339 O 135.189 -8.41101 2.65469 0
M  V30 2340 O 135.729 -6.4965 4.18908 0
M  V30 2341 C 136.669 -5.81037 5.05421 0
M  V30 2342 C 135.939 -4.78366 5.89277 0
M  V30 2343 O 135.729 -3.58302 5.08433 0
M  V30 2344 C 134.539 -5.17448 6.36119 0
M  V30 2345 O 134.149 -4.45271 7.53232 0
M  V30 2346 C 133.659 -4.74639 5.19936 0
M  V30 2347 C 134.369 -3.49432 4.70418 0
M  V30 2348 N 134.319 -3.32099 3.22613 0
M  V30 2349 H 137.158 -6.54213 5.71376 0
M  V30 2350 H 137.43 -5.30936 4.43503 0
M  V30 2351 H 136.562 -4.55889 6.76652 0
M  V30 2352 H 133.907 -2.61715 5.17932 0
M  V30 2353 H 133.627 -5.52155 4.41878 0
M  V30 2354 H 132.636 -4.51981 5.53374 0
M  V30 2355 H 134.47 -6.25124 6.55234 0
M  V30 2356 P 132.599 -4.23843 7.83734 0
M  V30 2357 O 132.379 -4.19407 9.29784 0
M  V30 2358 O 131.809 -5.24426 7.09156 0
M  V30 2359 O 132.349 -2.7935 7.20758 0
M  V30 2360 C 133.289 -1.7299 7.50419 0
M  V30 2361 C 132.559 -0.406376 7.57911 0
M  V30 2362 O 132.349 0.0897726 6.21935 0
M  V30 2363 C 131.159 -0.447224 8.1878 0
M  V30 2364 O 130.769 0.825065 8.71101 0
M  V30 2365 C 130.279 -0.783801 6.99623 0
M  V30 2366 C 130.989 -0.0619192 5.85967 0
M  V30 2367 N 130.939 -0.790462 4.56202 0
M  V30 2368 H 133.778 -1.93423 8.4679 0
M  V30 2369 H 134.05 -1.68852 6.70877 0
M  V30 2370 H 133.182 0.289041 8.15388 0
M  V30 2371 H 130.527 0.927006 5.72848 0
M  V30 2372 H 130.247 -1.86973 6.82036 0
M  V30 2373 H 129.256 -0.403953 7.13357 0
M  V30 2374 H 131.09 -1.20599 8.97534 0
M  V30 2375 P 129.219 1.17771 8.83182 0
M  V30 2376 O 128.999 2.07206 9.98732 0
M  V30 2377 O 128.429 -0.0743816 8.81969 0
M  V30 2378 O 128.969 1.97652 7.47304 0
M  V30 2379 C 129.909 3.01133 7.08783 0
M  V30 2380 C 129.179 4.12613 6.37049 0
M  V30 2381 O 128.969 3.72827 4.97879 0
M  V30 2382 C 127.779 4.45085 6.88694 0
M  V30 2383 O 127.389 5.7877 6.5624 0
M  V30 2384 C 126.899 3.47817 6.12078 0
M  V30 2385 C 127.609 3.39414 4.77697 0
M  V30 2386 N 127.559 2.04615 4.15333 0
M  V30 2387 H 130.398 3.41248 7.98759 0
M  V30 2388 H 130.67 2.5837 6.41742 0
M  V30 2389 H 129.802 5.02657 6.42673 0
M  V30 2390 P 125.839 6.144 6.45285 0
M  V30 2391 O 125.619 7.54673 6.86199 0
M  V30 2392 O 125.049 5.12391 7.179 0
M  V30 2393 O 125.589 5.99158 4.88404 0
M  V30 2394 C 126.529 6.60234 3.96415 0
M  V30 2395 C 125.799 7.08259 2.72856 0
M  V30 2396 O 125.589 5.9427 1.83651 0
M  V30 2397 C 124.399 7.64886 2.9555 0
M  V30 2398 O 124.009 8.53963 1.90717 0
M  V30 2399 C 123.519 6.4116 2.90739 0
M  V30 2400 C 124.229 5.55375 1.86963 0
M  V30 2401 N 124.179 4.09664 2.15742 0
M  V30 2402 H 127.018 7.45574 4.45629 0
M  V30 2403 H 127.29 5.86232 3.67314 0
M  V30 2404 H 126.422 7.84412 2.24479 0
M  V30 2405 P 122.459 8.7635 1.60911 0
M  V30 2406 O 122.239 10.1388 1.11561 0
M  V30 2407 O 121.669 8.36503 2.79617 0
M  V30 2408 O 122.209 7.71806 0.42951 0
M  V30 2409 C 123.149 7.67148 -0.673689 0
M  V30 2410 C 122.419 7.33374 -1.95559 0
M  V30 2411 O 122.209 5.88721 -2.00726 0
M  V30 2412 C 121.019 7.92526 -2.10483 0
M  V30 2413 O 120.629 8.02971 -3.47653 0
M  V30 2414 C 120.139 6.89602 -1.41652 0
M  V30 2415 C 120.849 5.59201 -1.75185 0
M  V30 2416 N 120.799 4.58301 -0.657969 0
M  V30 2417 H 123.638 8.65116 -0.777161 0
M  V30 2418 H 123.91 6.9022 -0.46725 0
M  V30 2419 H 123.042 7.66548 -2.79458 0
M  V30 2420 H 120.387 5.16165 -2.65183 0
M  V30 2421 H 120.107 7.06433 -0.329384 0
M  V30 2422 H 119.116 6.90926 -1.82021 0
M  V30 2423 H 120.95 8.90873 -1.62657 0
M  V30 2424 P 119.079 8.03563 -3.84925 0
M  V30 2425 O 118.859 8.85821 -5.0569 0
M  V30 2426 O 118.289 8.41101 -2.65469 0
M  V30 2427 O 118.829 6.4965 -4.18908 0
M  V30 2428 C 119.769 5.81037 -5.05421 0
M  V30 2429 C 119.039 4.78366 -5.89277 0
M  V30 2430 O 118.829 3.58302 -5.08433 0
M  V30 2431 C 117.639 5.17448 -6.36119 0
M  V30 2432 O 117.249 4.45271 -7.53232 0
M  V30 2433 C 116.759 4.74639 -5.19936 0
M  V30 2434 C 117.469 3.49432 -4.70418 0
M  V30 2435 N 117.419 3.31776 -3.22945 0
M  V30 2436 H 120.258 6.54213 -5.71376 0
M  V30 2437 H 120.53 5.30492 -4.44033 0
M  V30 2438 H 119.662 4.55889 -6.76652 0
M  V30 2439 P 115.699 4.23843 -7.83734 0
M  V30 2440 O 115.479 4.19407 -9.29784 0
M  V30 2441 O 114.909 5.24426 -7.09156 0
M  V30 2442 O 115.449 2.79386 -7.20852 0
M  V30 2443 C 116.389 1.7299 -7.50419 0
M  V30 2444 C 115.659 0.41401 -7.5797 0
M  V30 2445 O 115.449 -0.089787 -6.22035 0
M  V30 2446 C 114.259 0.447224 -8.1878 0
M  V30 2447 O 113.869 -0.825159 -8.71201 0
M  V30 2448 C 113.379 0.783801 -6.99623 0
M  V30 2449 C 114.089 0.0619192 -5.85967 0
M  V30 2450 N 114.039 0.7859 -4.56281 0
M  V30 2451 C 113.889 0.0359258 -3.39981 0
M  V30 2452 O 113.799 -1.19723 -3.49038 0
M  V30 2453 N 113.839 0.869151 -2.14025 0
M  V30 2454 C 113.939 2.01207 -2.14363 0
M  V30 2455 N 113.889 2.58978 -0.954287 0
M  V30 2456 C 114.089 2.80817 -3.32215 0
M  V30 2457 C 114.139 2.13785 -4.50884 0
M  V30 2458 H 116.879 1.93401 -8.46693 0
M  V30 2459 H 117.149 1.68181 -6.71046 0
M  V30 2460 H 116.282 -0.289076 -8.15488 0
M  V30 2461 H 113.627 -0.927166 -5.72947 0
M  V30 2462 H 113.347 1.87 -6.82132 0
M  V30 2463 H 112.356 0.404009 -7.13457 0
M  V30 2464 H 114.19 1.20599 -8.97534 0
M  V30 2465 H 114.262 2.70295 -5.43162 0
M  V30 2466 H 114.16 3.89465 -3.27406 0
M  V30 2467 H 113.772 2.01616 -0.107046 0
M  V30 2468 H 113.968 3.61403 -0.873101 0
M  V30 2469 P 112.319 -1.17771 -8.83182 0
M  V30 2470 O 112.099 -2.07206 -9.98732 0
M  V30 2471 O 111.529 0.0743816 -8.81969 0
M  V30 2472 O 112.069 -1.97652 -7.47304 0
M  V30 2473 C 113.009 -3.01133 -7.08783 0
M  V30 2474 C 112.279 -4.12613 -6.37049 0
M  V30 2475 O 112.069 -3.72827 -4.97879 0
M  V30 2476 C 110.879 -4.45085 -6.88694 0
M  V30 2477 O 110.489 -5.7877 -6.5624 0
M  V30 2478 C 109.999 -3.47817 -6.12078 0
M  V30 2479 C 110.709 -3.39414 -4.77697 0
M  V30 2480 N 110.659 -2.04615 -4.15333 0
M  V30 2481 H 113.498 -3.41248 -7.98759 0
M  V30 2482 H 113.77 -2.5837 -6.41742 0
M  V30 2483 H 112.902 -5.02657 -6.42673 0
M  V30 2484 P 108.939 -6.144 -6.45285 0
M  V30 2485 O 108.719 -7.54673 -6.86199 0
M  V30 2486 O 108.149 -5.12391 -7.179 0
M  V30 2487 O 108.689 -5.99158 -4.88404 0
M  V30 2488 C 109.629 -6.60234 -3.96415 0
M  V30 2489 C 108.899 -7.08259 -2.72856 0
M  V30 2490 O 108.689 -5.9427 -1.83651 0
M  V30 2491 C 107.499 -7.64886 -2.9555 0
M  V30 2492 O 107.109 -8.53963 -1.90717 0
M  V30 2493 C 106.619 -6.4116 -2.90739 0
M  V30 2494 C 107.329 -5.55375 -1.86963 0
M  V30 2495 N 107.279 -4.09664 -2.15742 0
M  V30 2496 H 110.118 -7.45574 -4.45629 0
M  V30 2497 H 110.39 -5.86232 -3.67314 0
M  V30 2498 H 109.522 -7.84412 -2.24479 0
M  V30 2499 P 105.559 -8.7635 -1.60911 0
M  V30 2500 O 105.339 -10.1388 -1.11561 0
M  V30 2501 O 104.769 -8.36503 -2.79617 0
M  V30 2502 O 105.309 -7.71806 -0.42951 0
M  V30 2503 C 106.249 -7.67148 0.673689 0
M  V30 2504 C 105.519 -7.33374 1.95559 0
M  V30 2505 O 105.309 -5.88721 2.00726 0
M  V30 2506 C 104.119 -7.92526 2.10483 0
M  V30 2507 O 103.729 -8.02971 3.47653 0
M  V30 2508 C 103.239 -6.89602 1.41652 0
M  V30 2509 C 103.949 -5.59201 1.75185 0
M  V30 2510 N 103.899 -4.58235 0.662552 0
M  V30 2511 H 106.738 -8.65116 0.777161 0
M  V30 2512 H 107.01 -6.90173 0.474152 0
M  V30 2513 H 106.142 -7.66548 2.79458 0
M  V30 2514 P 102.179 -8.03563 3.84925 0
M  V30 2515 O 101.959 -8.85821 5.0569 0
M  V30 2516 O 101.389 -8.41101 2.65469 0
M  V30 2517 O 101.929 -6.4965 4.18908 0
M  V30 2518 C 102.869 -5.81037 5.05421 0
M  V30 2519 C 102.139 -4.78366 5.89277 0
M  V30 2520 O 101.929 -3.58302 5.08433 0
M  V30 2521 C 100.739 -5.17448 6.36119 0
M  V30 2522 O 100.349 -4.45271 7.53232 0
M  V30 2523 C 99.8594 -4.74639 5.19936 0
M  V30 2524 C 100.569 -3.49432 4.70418 0
M  V30 2525 N 100.519 -3.31776 3.22945 0
M  V30 2526 H 103.358 -6.54213 5.71376 0
M  V30 2527 H 103.63 -5.30492 4.44033 0
M  V30 2528 H 102.762 -4.55889 6.76652 0
M  V30 2529 P 98.7994 -4.23843 7.83734 0
M  V30 2530 O 98.5794 -4.19407 9.29784 0
M  V30 2531 O 98.0094 -5.24426 7.09156 0
M  V30 2532 O 98.5494 -2.7935 7.20758 0
M  V30 2533 C 99.4894 -1.7299 7.50419 0
M  V30 2534 C 98.7594 -0.406376 7.57911 0
M  V30 2535 O 98.5494 0.0897726 6.21935 0
M  V30 2536 C 97.3594 -0.447224 8.1878 0
M  V30 2537 O 96.9694 0.825065 8.71101 0
M  V30 2538 C 96.4794 -0.783801 6.99623 0
M  V30 2539 C 97.1894 -0.0619192 5.85967 0
M  V30 2540 N 97.1394 -0.7859 4.56281 0
M  V30 2541 H 99.9784 -1.93423 8.4679 0
M  V30 2542 H 100.25 -1.68181 6.71046 0
M  V30 2543 H 99.3824 0.289041 8.15388 0
M  V30 2544 P 95.4195 1.17771 8.83182 0
M  V30 2545 O 95.1995 2.07206 9.98732 0
M  V30 2546 O 94.6295 -0.0743816 8.81969 0
M  V30 2547 O 95.1695 1.97652 7.47304 0
M  V30 2548 C 96.1095 3.01133 7.08783 0
M  V30 2549 C 95.3795 4.12613 6.37049 0
M  V30 2550 O 95.1695 3.72827 4.97879 0
M  V30 2551 C 93.9795 4.45085 6.88694 0
M  V30 2552 O 93.5895 5.7877 6.5624 0
M  V30 2553 C 93.0995 3.47817 6.12078 0
M  V30 2554 C 93.8095 3.39414 4.77697 0
M  V30 2555 N 93.7595 2.04615 4.15333 0
M  V30 2556 H 96.5985 3.41248 7.98759 0
M  V30 2557 H 96.8705 2.5837 6.41742 0
M  V30 2558 H 96.0025 5.02657 6.42673 0
M  V30 2559 P 92.0395 6.144 6.45285 0
M  V30 2560 O 91.8195 7.54673 6.86199 0
M  V30 2561 O 91.2495 5.12391 7.179 0
M  V30 2562 O 91.7895 5.99158 4.88404 0
M  V30 2563 C 92.7295 6.60234 3.96415 0
M  V30 2564 C 91.9995 7.08259 2.72856 0
M  V30 2565 O 91.7895 5.9427 1.83651 0
M  V30 2566 C 90.5995 7.64886 2.9555 0
M  V30 2567 O 90.2095 8.53963 1.90717 0
M  V30 2568 C 89.7195 6.4116 2.90739 0
M  V30 2569 C 90.4295 5.55375 1.86963 0
M  V30 2570 N 90.3795 4.09664 2.15742 0
M  V30 2571 H 93.2185 7.45574 4.45629 0
M  V30 2572 H 93.4905 5.86232 3.67314 0
M  V30 2573 H 92.6225 7.84412 2.24479 0
M  V30 2574 P 88.6595 8.7635 1.60911 0
M  V30 2575 O 88.4395 10.1388 1.11561 0
M  V30 2576 O 87.8695 8.36503 2.79617 0
M  V30 2577 O 88.4095 7.71806 0.42951 0
M  V30 2578 C 89.3495 7.67148 -0.673689 0
M  V30 2579 C 88.6195 7.33374 -1.95559 0
M  V30 2580 O 88.4095 5.88721 -2.00726 0
M  V30 2581 C 87.2195 7.92526 -2.10483 0
M  V30 2582 O 86.8295 8.02971 -3.47653 0
M  V30 2583 C 86.3395 6.89602 -1.41652 0
M  V30 2584 C 87.0495 5.59201 -1.75185 0
M  V30 2585 N 86.9995 4.58235 -0.662552 0
M  V30 2586 H 89.8385 8.65116 -0.777161 0
M  V30 2587 H 90.1105 6.90173 -0.474152 0
M  V30 2588 H 89.2425 7.66548 -2.79458 0
M  V30 2589 P 85.2795 8.03563 -3.84925 0
M  V30 2590 O 85.0595 8.85821 -5.0569 0
M  V30 2591 O 84.4895 8.41101 -2.65469 0
M  V30 2592 O 85.0295 6.4965 -4.18908 0
M  V30 2593 C 85.9695 5.81037 -5.05421 0
M  V30 2594 C 85.2395 4.78366 -5.89277 0
M  V30 2595 O 85.0295 3.58302 -5.08433 0
M  V30 2596 C 83.8395 5.17448 -6.36119 0
M  V30 2597 O 83.4495 4.45271 -7.53232 0
M  V30 2598 C 82.9595 4.74639 -5.19936 0
M  V30 2599 C 83.6695 3.49432 -4.70418 0
M  V30 2600 N 83.6195 3.31776 -3.22945 0
M  V30 2601 H 86.4585 6.54213 -5.71376 0
M  V30 2602 H 86.7305 5.30492 -4.44033 0
M  V30 2603 H 85.8625 4.55889 -6.76652 0
M  V30 2604 P 81.8995 4.23843 -7.83734 0
M  V30 2605 O 81.6795 4.19407 -9.29784 0
M  V30 2606 O 81.1095 5.24426 -7.09156 0
M  V30 2607 O 81.6495 2.7935 -7.20758 0
M  V30 2608 C 82.5895 1.7299 -7.50419 0
M  V30 2609 C 81.8595 0.406376 -7.57911 0
M  V30 2610 O 81.6495 -0.0897726 -6.21935 0
M  V30 2611 C 80.4595 0.447224 -8.1878 0
M  V30 2612 O 80.0695 -0.825065 -8.71101 0
M  V30 2613 C 79.5795 0.783801 -6.99623 0
M  V30 2614 C 80.2895 0.0619192 -5.85967 0
M  V30 2615 N 80.2395 0.7859 -4.56281 0
M  V30 2616 H 83.0785 1.93423 -8.4679 0
M  V30 2617 H 83.3505 1.68181 -6.71046 0
M  V30 2618 H 82.4825 -0.289041 -8.15388 0
M  V30 2619 P 78.5196 -1.17771 -8.83182 0
M  V30 2620 O 78.2996 -2.07206 -9.98732 0
M  V30 2621 O 77.7296 0.0743816 -8.81969 0
M  V30 2622 O 78.2696 -1.97652 -7.47304 0
M  V30 2623 C 79.2096 -3.01133 -7.08783 0
M  V30 2624 C 78.4796 -4.12613 -6.37049 0
M  V30 2625 O 78.2696 -3.72827 -4.97879 0
M  V30 2626 C 77.0796 -4.45085 -6.88694 0
M  V30 2627 O 76.6896 -5.7877 -6.5624 0
M  V30 2628 C 76.1996 -3.47817 -6.12078 0
M  V30 2629 C 76.9096 -3.39414 -4.77697 0
M  V30 2630 N 76.8596 -2.04615 -4.15333 0
M  V30 2631 H 79.6986 -3.41248 -7.98759 0
M  V30 2632 H 79.9706 -2.5837 -6.41742 0
M  V30 2633 H 79.1026 -5.02657 -6.42673 0
M  V30 2634 P 75.1396 -6.144 -6.45285 0
M  V30 2635 O 74.9196 -7.54673 -6.86199 0
M  V30 2636 O 74.3496 -5.12391 -7.179 0
M  V30 2637 O 74.8896 -5.99158 -4.88404 0
M  V30 2638 C 75.8296 -6.60234 -3.96415 0
M  V30 2639 C 75.0996 -7.08259 -2.72856 0
M  V30 2640 O 74.8896 -5.9427 -1.83651 0
M  V30 2641 C 73.6996 -7.64886 -2.9555 0
M  V30 2642 O 73.3096 -8.53963 -1.90717 0
M  V30 2643 C 72.8196 -6.4116 -2.90739 0
M  V30 2644 C 73.5296 -5.55375 -1.86963 0
M  V30 2645 N 73.4796 -4.09664 -2.15742 0
M  V30 2646 H 76.3186 -7.45574 -4.45629 0
M  V30 2647 H 76.5906 -5.86232 -3.67314 0
M  V30 2648 H 75.7226 -7.84412 -2.24479 0
M  V30 2649 P 71.7596 -8.7635 -1.60911 0
M  V30 2650 O 71.5396 -10.1388 -1.11561 0
M  V30 2651 O 70.9696 -8.36503 -2.79617 0
M  V30 2652 O 71.5096 -7.71806 -0.42951 0
M  V30 2653 C 72.4496 -7.67148 0.673689 0
M  V30 2654 C 71.7196 -7.33374 1.95559 0
M  V30 2655 O 71.5096 -5.88721 2.00726 0
M  V30 2656 C 70.3196 -7.92526 2.10483 0
M  V30 2657 O 69.9296 -8.02971 3.47653 0
M  V30 2658 C 69.4396 -6.89602 1.41652 0
M  V30 2659 C 70.1496 -5.59201 1.75185 0
M  V30 2660 N 70.0996 -4.58301 0.657969 0
M  V30 2661 H 72.9386 -8.65116 0.777161 0
M  V30 2662 H 73.2106 -6.9022 0.46725 0
M  V30 2663 H 72.3426 -7.66548 2.79458 0
M  V30 2664 H 69.6876 -5.16165 2.65183 0
M  V30 2665 H 69.4076 -7.06433 0.329384 0
M  V30 2666 H 68.4166 -6.90926 1.82021 0
M  V30 2667 H 70.2506 -8.90873 1.62657 0
M  V30 2668 P 68.3796 -8.03563 3.84925 0
M  V30 2669 O 68.1596 -8.85821 5.0569 0
M  V30 2670 O 67.5896 -8.41101 2.65469 0
M  V30 2671 O 68.1296 -6.4965 4.18908 0
M  V30 2672 C 69.0696 -5.81037 5.05421 0
M  V30 2673 C 68.3396 -4.78366 5.89277 0
M  V30 2674 O 68.1296 -3.58302 5.08433 0
M  V30 2675 C 66.9396 -5.17448 6.36119 0
M  V30 2676 O 66.5496 -4.45271 7.53232 0
M  V30 2677 C 66.0596 -4.74639 5.19936 0
M  V30 2678 C 66.7696 -3.49432 4.70418 0
M  V30 2679 N 66.7196 -3.31776 3.22945 0
M  V30 2680 H 69.5586 -6.54213 5.71376 0
M  V30 2681 H 69.8306 -5.30492 4.44033 0
M  V30 2682 H 68.9626 -4.55889 6.76652 0
M  V30 2683 P 64.9996 -4.23843 7.83734 0
M  V30 2684 O 64.7796 -4.19407 9.29784 0
M  V30 2685 O 64.2096 -5.24426 7.09156 0
M  V30 2686 O 64.7496 -2.7935 7.20758 0
M  V30 2687 C 65.6896 -1.7299 7.50419 0
M  V30 2688 C 64.9596 -0.406376 7.57911 0
M  V30 2689 O 64.7496 0.0897726 6.21935 0
M  V30 2690 C 63.5596 -0.447224 8.1878 0
M  V30 2691 O 63.1696 0.825065 8.71101 0
M  V30 2692 C 62.6796 -0.783801 6.99623 0
M  V30 2693 C 63.3896 -0.0619192 5.85967 0
M  V30 2694 N 63.3396 -0.7859 4.56281 0
M  V30 2695 H 66.1786 -1.93423 8.4679 0
M  V30 2696 H 66.4506 -1.68181 6.71046 0
M  V30 2697 H 65.5826 0.289041 8.15388 0
M  V30 2698 P 61.6197 1.17771 8.83182 0
M  V30 2699 O 61.3997 2.07206 9.98732 0
M  V30 2700 O 60.8297 -0.0743816 8.81969 0
M  V30 2701 O 61.3697 1.97652 7.47304 0
M  V30 2702 C 62.3097 3.01133 7.08783 0
M  V30 2703 C 61.5797 4.12613 6.37049 0
M  V30 2704 O 61.3697 3.72827 4.97879 0
M  V30 2705 C 60.1797 4.45085 6.88694 0
M  V30 2706 O 59.7897 5.7877 6.5624 0
M  V30 2707 C 59.2997 3.47817 6.12078 0
M  V30 2708 C 60.0097 3.39414 4.77697 0
M  V30 2709 N 59.9597 2.04615 4.15333 0
M  V30 2710 H 62.7987 3.41248 7.98759 0
M  V30 2711 H 63.0707 2.5837 6.41742 0
M  V30 2712 H 62.2027 5.02657 6.42673 0
M  V30 2713 P 58.2397 6.144 6.45285 0
M  V30 2714 O 58.0197 7.54673 6.86199 0
M  V30 2715 O 57.4497 5.12391 7.179 0
M  V30 2716 O 57.9897 5.99158 4.88404 0
M  V30 2717 C 58.9297 6.60234 3.96415 0
M  V30 2718 C 58.1997 7.08259 2.72856 0
M  V30 2719 O 57.9897 5.9427 1.83651 0
M  V30 2720 C 56.7997 7.64886 2.9555 0
M  V30 2721 O 56.4097 8.53963 1.90717 0
M  V30 2722 C 55.9197 6.4116 2.90739 0
M  V30 2723 C 56.6297 5.55375 1.86963 0
M  V30 2724 N 56.5797 4.09664 2.15742 0
M  V30 2725 H 59.4187 7.45574 4.45629 0
M  V30 2726 H 59.6907 5.86232 3.67314 0
M  V30 2727 H 58.8227 7.84412 2.24479 0
M  V30 2728 P 54.8597 8.7635 1.60911 0
M  V30 2729 O 54.6397 10.1388 1.11561 0
M  V30 2730 O 54.0697 8.36503 2.79617 0
M  V30 2731 O 54.6097 7.71806 0.42951 0
M  V30 2732 C 55.5497 7.67148 -0.673689 0
M  V30 2733 C 54.8197 7.33374 -1.95559 0
M  V30 2734 O 54.6097 5.88721 -2.00726 0
M  V30 2735 C 53.4197 7.92526 -2.10483 0
M  V30 2736 O 53.0297 8.02971 -3.47653 0
M  V30 2737 C 52.5397 6.89602 -1.41652 0
M  V30 2738 C 53.2497 5.59201 -1.75185 0
M  V30 2739 N 53.1997 4.58235 -0.662552 0
M  V30 2740 H 56.0387 8.65116 -0.777161 0
M  V30 2741 H 56.3107 6.90173 -0.474152 0
M  V30 2742 H 55.4427 7.66548 -2.79458 0
M  V30 2743 P 51.4797 8.03563 -3.84925 0
M  V30 2744 O 51.2597 8.85821 -5.0569 0
M  V30 2745 O 50.6897 8.41101 -2.65469 0
M  V30 2746 O 51.2297 6.4965 -4.18908 0
M  V30 2747 C 52.1697 5.81037 -5.05421 0
M  V30 2748 C 51.4397 4.78366 -5.89277 0
M  V30 2749 O 51.2297 3.58302 -5.08433 0
M  V30 2750 C 50.0397 5.17448 -6.36119 0
M  V30 2751 O 49.6497 4.45271 -7.53232 0
M  V30 2752 C 49.1597 4.74639 -5.19936 0
M  V30 2753 C 49.8697 3.49432 -4.70418 0
M  V30 2754 N 49.8197 3.31776 -3.22945 0
M  V30 2755 H 52.6587 6.54213 -5.71376 0
M  V30 2756 H 52.9307 5.30492 -4.44033 0
M  V30 2757 H 52.0627 4.55889 -6.76652 0
M  V30 2758 P 48.0997 4.23843 -7.83734 0
M  V30 2759 O 47.8797 4.19407 -9.29784 0
M  V30 2760 O 47.3097 5.24426 -7.09156 0
M  V30 2761 O 47.8497 2.7935 -7.20758 0
M  V30 2762 C 48.7897 1.7299 -7.50419 0
M  V30 2763 C 48.0597 0.406376 -7.57911 0
M  V30 2764 O 47.8497 -0.0897726 -6.21935 0
M  V30 2765 C 46.6597 0.447224 -8.1878 0
M  V30 2766 O 46.2697 -0.825065 -8.71101 0
M  V30 2767 C 45.7797 0.783801 -6.99623 0
M  V30 2768 C 46.4897 0.0619192 -5.85967 0
M  V30 2769 N 46.4397 0.790462 -4.56202 0
M  V30 2770 H 49.2787 1.93423 -8.4679 0
M  V30 2771 H 49.5507 1.68852 -6.70877 0
M  V30 2772 H 48.6827 -0.289041 -8.15388 0
M  V30 2773 H 46.0277 -0.927006 -5.72848 0
M  V30 2774 H 45.7477 1.86973 -6.82036 0
M  V30 2775 H 44.7567 0.403953 -7.13357 0
M  V30 2776 H 46.5907 1.20599 -8.97534 0
M  V30 2777 P 44.7198 -1.17771 -8.83182 0
M  V30 2778 O 44.4998 -2.07206 -9.98732 0
M  V30 2779 O 43.9298 0.0743816 -8.81969 0
M  V30 2780 O 44.4698 -1.97678 -7.474 0
M  V30 2781 C 45.4098 -3.01133 -7.08783 0
M  V30 2782 C 44.6798 -4.1203 -6.37546 0
M  V30 2783 O 44.4698 -3.72887 -4.9796 0
M  V30 2784 C 43.2798 -4.45085 -6.88694 0
M  V30 2785 O 42.8898 -5.78836 -6.56315 0
M  V30 2786 C 42.3998 -3.47817 -6.12078 0
M  V30 2787 C 43.1098 -3.39414 -4.77697 0
M  V30 2788 N 43.0598 -2.04615 -4.15333 0
M  V30 2789 C 42.9098 -1.96929 -2.77162 0
M  V30 2790 O 42.8198 -3.02017 -2.12006 0
M  V30 2791 N 42.8598 -0.55485 -2.24237 0
M  V30 2792 C 42.9598 0.367808 -2.9169 0
M  V30 2793 N 42.9098 1.53426 -2.29427 0
M  V30 2794 C 43.1098 0.319148 -4.33828 0
M  V30 2795 C 43.1598 -0.920672 -4.90433 0
M  V30 2796 H 45.8998 -3.41209 -7.98667 0
M  V30 2797 H 46.1698 -2.5837 -6.41742 0
M  V30 2798 H 45.3028 -5.02718 -6.42752 0
M  V30 2799 H 42.6478 -4.11779 -4.09026 0
M  V30 2800 H 42.3678 -2.49661 -6.61772 0
M  V30 2801 H 41.3768 -3.86674 -6.00946 0
M  V30 2802 H 43.2108 -4.29991 -7.97006 0
M  V30 2803 H 43.2828 -1.00589 -5.98303 0
M  V30 2804 H 43.1808 1.22639 -4.93799 0
M  V30 2805 H 42.7928 1.56819 -1.27167 0
M  V30 2806 H 42.9888 2.41062 -2.83063 0
M  V30 2807 P 41.3398 -6.144 -6.45285 0
M  V30 2808 O 41.1198 -7.54673 -6.86199 0
M  V30 2809 O 40.5498 -5.12391 -7.179 0
M  V30 2810 O 41.0898 -5.99158 -4.88404 0
M  V30 2811 C 42.0298 -6.60234 -3.96415 0
M  V30 2812 C 41.2998 -7.08259 -2.72856 0
M  V30 2813 O 41.0898 -5.9427 -1.83651 0
M  V30 2814 C 39.8998 -7.64886 -2.9555 0
M  V30 2815 O 39.5098 -8.53963 -1.90717 0
M  V30 2816 C 39.0198 -6.4116 -2.90739 0
M  V30 2817 C 39.7298 -5.55375 -1.86963 0
M  V30 2818 N 39.6798 -4.09448 -2.16152 0
M  V30 2819 C 39.7598 -3.46824 -3.37593 0
M  V30 2820 N 39.6898 -2.17422 -3.29777 0
M  V30 2821 C 39.5398 -1.93065 -1.94427 0
M  V30 2822 C 39.4098 -0.738053 -1.20141 0
M  V30 2823 N 39.3998 0.474256 -1.74676 0
M  V30 2824 N 39.2898 -0.850049 0.13045 0
M  V30 2825 C 39.2998 -2.06169 0.676992 0
M  V30 2826 N 39.4198 -3.23842 0.101312 0
M  V30 2827 C 39.5398 -3.09402 -1.23122 0
M  V30 2828 H 42.5188 -7.45574 -4.45629 0
M  V30 2829 H 42.7908 -5.85864 -3.679 0
M  V30 2830 H 41.9228 -7.84412 -2.24479 0
M  V30 2831 H 39.2678 -5.73457 -0.888562 0
M  V30 2832 H 38.9878 -5.90877 -3.88583 0
M  V30 2833 H 37.9968 -6.6596 -2.58858 0
M  V30 2834 H 39.8308 -8.16339 -3.92049 0
M  V30 2835 H 39.8718 -4.00505 -4.3174 0
M  V30 2836 H 39.4908 0.581337 -2.76658 0
M  V30 2837 H 39.3018 1.30811 -1.14888 0
M  V30 2838 H 39.1938 -2.08295 1.75542 0
M  V30 2839 P 37.9598 -8.7635 -1.60911 0
M  V30 2840 O 37.7398 -10.1388 -1.11561 0
M  V30 2841 O 37.1698 -8.36503 -2.79617 0
M  V30 2842 O 37.7098 -7.71806 -0.42951 0
M  V30 2843 C 38.6498 -7.67148 0.673689 0
M  V30 2844 C 37.9198 -7.33374 1.95559 0
M  V30 2845 O 37.7098 -5.88721 2.00726 0
M  V30 2846 C 36.5198 -7.92526 2.10483 0
M  V30 2847 O 36.1298 -8.02971 3.47653 0
M  V30 2848 C 35.6398 -6.89602 1.41652 0
M  V30 2849 C 36.3498 -5.59201 1.75185 0
M  V30 2850 N 36.2998 -4.58235 0.662552 0
M  V30 2851 H 39.1388 -8.65116 0.777161 0
M  V30 2852 H 39.4108 -6.90173 0.474152 0
M  V30 2853 H 38.5428 -7.66548 2.79458 0
M  V30 2854 P 34.5798 -8.03563 3.84925 0
M  V30 2855 O 34.3598 -8.85821 5.0569 0
M  V30 2856 O 33.7898 -8.41101 2.65469 0
M  V30 2857 O 34.3298 -6.4965 4.18908 0
M  V30 2858 C 35.2698 -5.81037 5.05421 0
M  V30 2859 C 34.5398 -4.78366 5.89277 0
M  V30 2860 O 34.3298 -3.58302 5.08433 0
M  V30 2861 C 33.1398 -5.17448 6.36119 0
M  V30 2862 O 32.7498 -4.45271 7.53232 0
M  V30 2863 C 32.2598 -4.74639 5.19936 0
M  V30 2864 C 32.9698 -3.49432 4.70418 0
M  V30 2865 N 32.9198 -3.32099 3.22613 0
M  V30 2866 H 35.7588 -6.54213 5.71376 0
M  V30 2867 H 36.0308 -5.30936 4.43503 0
M  V30 2868 H 35.1628 -4.55889 6.76652 0
M  V30 2869 H 32.5078 -2.61715 5.17932 0
M  V30 2870 H 32.2278 -5.52155 4.41878 0
M  V30 2871 H 31.2368 -4.51981 5.53374 0
M  V30 2872 H 33.0708 -6.25124 6.55234 0
M  V30 2873 P 31.1998 -4.23843 7.83734 0
M  V30 2874 O 30.9798 -4.19407 9.29784 0
M  V30 2875 O 30.4098 -5.24426 7.09156 0
M  V30 2876 O 30.9498 -2.7935 7.20758 0
M  V30 2877 C 31.8898 -1.7299 7.50419 0
M  V30 2878 C 31.1598 -0.406376 7.57911 0
M  V30 2879 O 30.9498 0.0897726 6.21935 0
M  V30 2880 C 29.7598 -0.447224 8.1878 0
M  V30 2881 O 29.3698 0.825065 8.71101 0
M  V30 2882 C 28.8798 -0.783801 6.99623 0
M  V30 2883 C 29.5898 -0.0619192 5.85967 0
M  V30 2884 N 29.5398 -0.7859 4.56281 0
M  V30 2885 H 32.3788 -1.93423 8.4679 0
M  V30 2886 H 32.6508 -1.68181 6.71046 0
M  V30 2887 H 31.7828 0.289041 8.15388 0
M  V30 2888 P 27.8199 1.17771 8.83182 0
M  V30 2889 O 27.5999 2.07206 9.98732 0
M  V30 2890 O 27.0299 -0.0743816 8.81969 0
M  V30 2891 O 27.5699 1.97652 7.47304 0
M  V30 2892 C 28.5099 3.01133 7.08783 0
M  V30 2893 C 27.7799 4.12613 6.37049 0
M  V30 2894 O 27.5699 3.72827 4.97879 0
M  V30 2895 C 26.3799 4.45085 6.88694 0
M  V30 2896 O 25.9899 5.7877 6.5624 0
M  V30 2897 C 25.4999 3.47817 6.12078 0
M  V30 2898 C 26.2099 3.39414 4.77697 0
M  V30 2899 N 26.1599 2.04615 4.15333 0
M  V30 2900 H 28.9989 3.41248 7.98759 0
M  V30 2901 H 29.2709 2.5837 6.41742 0
M  V30 2902 H 28.4029 5.02657 6.42673 0
M  V30 2903 P 24.4399 6.144 6.45285 0
M  V30 2904 O 24.2199 7.54673 6.86199 0
M  V30 2905 O 23.6499 5.12391 7.179 0
M  V30 2906 O 24.1899 5.99158 4.88404 0
M  V30 2907 C 25.1299 6.60234 3.96415 0
M  V30 2908 C 24.3999 7.08259 2.72856 0
M  V30 2909 O 24.1899 5.9427 1.83651 0
M  V30 2910 C 22.9999 7.64886 2.9555 0
M  V30 2911 O 22.6099 8.53963 1.90717 0
M  V30 2912 C 22.1199 6.4116 2.90739 0
M  V30 2913 C 22.8299 5.55375 1.86963 0
M  V30 2914 N 22.7799 4.09664 2.15742 0
M  V30 2915 H 25.6189 7.45574 4.45629 0
M  V30 2916 H 25.8909 5.86232 3.67314 0
M  V30 2917 H 25.0229 7.84412 2.24479 0
M  V30 2918 P 21.0599 8.7635 1.60911 0
M  V30 2919 O 20.8399 10.1388 1.11561 0
M  V30 2920 O 20.2699 8.36503 2.79617 0
M  V30 2921 O 20.8099 7.71806 0.42951 0
M  V30 2922 C 21.7499 7.67148 -0.673689 0
M  V30 2923 C 21.0199 7.33374 -1.95559 0
M  V30 2924 O 20.8099 5.88721 -2.00726 0
M  V30 2925 C 19.6199 7.92526 -2.10483 0
M  V30 2926 O 19.2299 8.02971 -3.47653 0
M  V30 2927 C 18.7399 6.89602 -1.41652 0
M  V30 2928 C 19.4499 5.59201 -1.75185 0
M  V30 2929 N 19.3999 4.58301 -0.657969 0
M  V30 2930 H 22.2389 8.65116 -0.777161 0
M  V30 2931 H 22.5109 6.9022 -0.46725 0
M  V30 2932 H 21.6429 7.66548 -2.79458 0
M  V30 2933 H 18.9879 5.16165 -2.65183 0
M  V30 2934 H 18.7079 7.06433 -0.329384 0
M  V30 2935 H 17.7169 6.90926 -1.82021 0
M  V30 2936 H 19.5509 8.90873 -1.62657 0
M  V30 2937 P 17.6799 8.03563 -3.84925 0
M  V30 2938 O 17.4599 8.85821 -5.0569 0
M  V30 2939 O 16.8899 8.41101 -2.65469 0
M  V30 2940 O 17.4299 6.4965 -4.18908 0
M  V30 2941 C 18.3699 5.81037 -5.05421 0
M  V30 2942 C 17.6399 4.78366 -5.89277 0
M  V30 2943 O 17.4299 3.58302 -5.08433 0
M  V30 2944 C 16.2399 5.17448 -6.36119 0
M  V30 2945 O 15.8499 4.45271 -7.53232 0
M  V30 2946 C 15.3599 4.74639 -5.19936 0
M  V30 2947 C 16.0699 3.49432 -4.70418 0
M  V30 2948 N 16.0199 3.32099 -3.22613 0
M  V30 2949 H 18.8589 6.54213 -5.71376 0
M  V30 2950 H 19.1309 5.30936 -4.43503 0
M  V30 2951 H 18.2629 4.55889 -6.76652 0
M  V30 2952 H 15.6079 2.61715 -5.17932 0
M  V30 2953 H 15.3279 5.52155 -4.41878 0
M  V30 2954 H 14.3369 4.51981 -5.53374 0
M  V30 2955 H 16.1709 6.25124 -6.55234 0
M  V30 2956 P 14.2999 4.23843 -7.83734 0
M  V30 2957 O 14.0799 4.19407 -9.29784 0
M  V30 2958 O 13.5099 5.24426 -7.09156 0
M  V30 2959 O 14.0499 2.7935 -7.20758 0
M  V30 2960 C 14.9899 1.7299 -7.50419 0
M  V30 2961 C 14.2599 0.406376 -7.57911 0
M  V30 2962 O 14.0499 -0.0897726 -6.21935 0
M  V30 2963 C 12.8599 0.447224 -8.1878 0
M  V30 2964 O 12.4699 -0.825065 -8.71101 0
M  V30 2965 C 11.9799 0.783801 -6.99623 0
M  V30 2966 C 12.6899 0.0619192 -5.85967 0
M  V30 2967 N 12.6399 0.7859 -4.56281 0
M  V30 2968 H 15.4789 1.93423 -8.4679 0
M  V30 2969 H 15.7509 1.68181 -6.71046 0
M  V30 2970 H 14.8829 -0.289041 -8.15388 0
M  V30 2971 P 10.92 -1.17771 -8.83182 0
M  V30 2972 O 10.7 -2.07206 -9.98732 0
M  V30 2973 O 10.13 0.0743816 -8.81969 0
M  V30 2974 O 10.67 -1.97652 -7.47304 0
M  V30 2975 C 11.61 -3.01133 -7.08783 0
M  V30 2976 C 10.88 -4.12613 -6.37049 0
M  V30 2977 O 10.67 -3.72827 -4.97879 0
M  V30 2978 C 9.47996 -4.45085 -6.88694 0
M  V30 2979 O 9.08996 -5.7877 -6.5624 0
M  V30 2980 C 8.59996 -3.47817 -6.12078 0
M  V30 2981 C 9.30996 -3.39414 -4.77697 0
M  V30 2982 N 9.25996 -2.04615 -4.15333 0
M  V30 2983 H 12.099 -3.41248 -7.98759 0
M  V30 2984 H 12.371 -2.5837 -6.41742 0
M  V30 2985 H 11.503 -5.02657 -6.42673 0
M  V30 2986 P 7.53998 -6.144 -6.45285 0
M  V30 2987 O 7.31998 -7.54673 -6.86199 0
M  V30 2988 O 6.74998 -5.12391 -7.179 0
M  V30 2989 O 7.28998 -5.99158 -4.88404 0
M  V30 2990 C 8.22998 -6.60234 -3.96415 0
M  V30 2991 C 7.49998 -7.08259 -2.72856 0
M  V30 2992 O 7.28998 -5.9427 -1.83651 0
M  V30 2993 C 6.09998 -7.64886 -2.9555 0
M  V30 2994 O 5.70998 -8.53963 -1.90717 0
M  V30 2995 C 5.21998 -6.4116 -2.90739 0
M  V30 2996 C 5.92998 -5.55375 -1.86963 0
M  V30 2997 N 5.87998 -4.09448 -2.16152 0
M  V30 2998 C 5.95998 -3.46824 -3.37593 0
M  V30 2999 N 5.88998 -2.17422 -3.29777 0
M  V30 3000 C 5.73998 -1.93065 -1.94427 0
M  V30 3001 C 5.60998 -0.738053 -1.20141 0
M  V30 3002 N 5.59998 0.474256 -1.74676 0
M  V30 3003 N 5.48998 -0.850049 0.13045 0
M  V30 3004 C 5.49998 -2.06169 0.676992 0
M  V30 3005 N 5.61998 -3.23842 0.101312 0
M  V30 3006 C 5.73998 -3.09402 -1.23122 0
M  V30 3007 H 8.71898 -7.45574 -4.45629 0
M  V30 3008 H 8.99098 -5.85864 -3.679 0
M  V30 3009 H 8.12298 -7.84412 -2.24479 0
M  V30 3010 H 5.46798 -5.73457 -0.888562 0
M  V30 3011 H 5.18798 -5.90877 -3.88583 0
M  V30 3012 H 4.19698 -6.6596 -2.58858 0
M  V30 3013 H 6.03098 -8.16339 -3.92049 0
M  V30 3014 H 6.07198 -4.00505 -4.3174 0
M  V30 3015 H 5.69098 0.581337 -2.76658 0
M  V30 3016 H 5.50198 1.30811 -1.14888 0
M  V30 3017 H 5.39398 -2.08295 1.75542 0
M  V30 3018 P 4.16 -8.7635 -1.60911 0
M  V30 3019 O 3.94 -10.1388 -1.11561 0
M  V30 3020 O 3.37 -8.36503 -2.79617 0
M  V30 3021 O 3.91 -7.71806 -0.42951 0
M  V30 3022 C 4.85 -7.67148 0.673689 0
M  V30 3023 C 4.12 -7.33374 1.95559 0
M  V30 3024 O 3.91 -5.88721 2.00726 0
M  V30 3025 C 2.72 -7.92526 2.10483 0
M  V30 3026 O 2.33 -8.02971 3.47653 0
M  V30 3027 C 1.84 -6.89602 1.41652 0
M  V30 3028 C 2.55 -5.59201 1.75185 0
M  V30 3029 N 2.5 -4.58235 0.662552 0
M  V30 3030 H 5.339 -8.65116 0.777161 0
M  V30 3031 H 5.611 -6.90173 0.474152 0
M  V30 3032 H 4.743 -7.66548 2.79458 0
M  V30 3033 H 1.613 -8.66322 3.55694 0
M  V30 END ATOM
M  V30 BEGIN BOND
M  V30 END BOND
M  V30 END CTAB
M  END
$$$$
