drugbank_target|Q5LRQ9 ABC transporter, periplasmic substrate-binding protein (DB02078)
 OpenBabel12092120503D

  0  0  0     0  0            999 V3000
M  V30 BEGIN CTAB
M  V30 COUNTS 9362 9497 0 0 0
M  V30 BEGIN ATOM
M  V30 1 H -0.908 1.98254 -0.117106 0
M  V30 2 N 0 1.576 0 0
M  V30 3 C 0.933 2.03868 1.02534 0
M  V30 4 C 1.911 0.928543 1.3348 0
M  V30 5 O 3.095 1.19667 1.45644 0
M  V30 6 C 0.222 2.43627 2.35294 0
M  V30 7 C -0.732 3.65373 2.2001 0
M  V30 8 S 0.101 5.13292 1.52614 0
M  V30 9 C 1.257 5.56322 2.86805 0
M  V30 10 H 1.49 2.90518 0.631377 0
M  V30 11 H -0.977 1.52953 0.210867 0
M  V30 12 H 0.981 2.67203 3.11629 0
M  V30 13 H -0.358 1.57376 2.7183 0
M  V30 14 H -1.165 3.90944 3.18086 0
M  V30 15 H -1.563 3.418 1.51819 0
M  V30 16 H 0.729 5.58782 3.83104 0
M  V30 17 H 1.672 6.56266 2.65933 0
M  V30 18 H 2.08 4.83886 2.90714 0
M  V30 19 N 1.4781 -0.272755 1.55222 0
M  V30 20 C 2.8941 -0.619959 1.47067 0
M  V30 21 C 3.0941 -1.895 0.684978 0
M  V30 22 O 2.1501 -2.51675 0.203931 0
M  V30 23 C 3.4631 -0.746693 2.91282 0
M  V30 24 C 5.0111 -0.840731 3.01497 0
M  V30 25 C 5.4861 -0.99924 4.46967 0
M  V30 26 N 6.9771 -1.06476 4.50796 0
M  V30 27 C 7.7121 -1.20621 5.6057 0
M  V30 28 N 7.2081 -1.31483 6.80209 0
M  V30 29 N 9.0011 -1.23733 5.48312 0
M  V30 30 H 1.1521 0.564606 2.04758 0
M  V30 31 H 3.4151 0.191177 0.928523 0
M  V30 32 H 3.1211 0.119753 3.51496 0
M  V30 33 H 2.9951 -1.6269 3.40311 0
M  V30 34 H 5.3821 -1.69764 2.41379 0
M  V30 35 H 5.4631 0.0640874 2.5572 0
M  V30 36 H 5.1071 -0.146984 5.07687 0
M  V30 37 H 5.0371 -1.91871 4.90401 0
M  V30 38 H 7.5281 -0.993196 3.64615 0
M  V30 39 H 7.8411 -1.42111 7.59621 0
M  V30 40 H 6.1861 -1.28487 6.8302 0
M  V30 41 H 9.3771 -1.14877 4.53785 0
M  V30 42 H 9.5501 -1.34412 6.33906 0
M  V30 43 N 2.9562 -1.48159 -0.537278 0
M  V30 44 C 4.3672 -1.49429 -1.11928 0
M  V30 45 C 4.7182 -0.26 -1.9447 0
M  V30 46 O 3.8432 0.633489 -2.0692 0
M  V30 47 C 4.4382 -2.70758 -2.03656 0
M  V30 48 C 2.9972 -2.74923 -2.57088 0
M  V30 49 C 2.1442 -2.42835 -1.3389 0
M  V30 50 H 5.0952 -1.55381 -0.322886 0
M  V30 51 H 5.1162 -2.48861 -2.87834 0
M  V30 52 H 4.6282 -3.60575 -1.43553 0
M  V30 53 H 2.7292 -1.89296 -3.20933 0
M  V30 54 H 2.8422 -3.76157 -2.9672 0
M  V30 55 H 1.2062 -1.93836 -1.65226 0
M  V30 56 H 1.9892 -3.34884 -0.755504 0
M  V30 57 N 4.4343 0.785586 -1.36625 0
M  V30 58 C 5.7113 1.53198 -1.21613 0
M  V30 59 C 6.0913 2.10187 0.196113 0
M  V30 60 O 5.4393 1.94318 1.20219 0
M  V30 61 C 5.6493 2.62388 -2.30116 0
M  V30 62 C 6.9973 3.30167 -2.66974 0
M  V30 63 O 8.0213 2.72674 -2.29188 0
M  V30 64 O 6.8803 4.34077 -3.32023 0
M  V30 65 H 3.9743 0.677865 -0.473738 0
M  V30 66 H 6.5203 0.823739 -1.48367 0
M  V30 67 H 5.2923 2.18299 -3.24748 0
M  V30 68 H 4.9153 3.40827 -2.0475 0
M  V30 69 N 5.9124 1.20967 1.01018 0
M  V30 70 C 7.1424 1.04803 1.78044 0
M  V30 71 C 7.5504 -0.405462 1.84804 0
M  V30 72 O 6.8934 -1.2932 1.30468 0
M  V30 73 C 6.9554 1.56377 3.23707 0
M  V30 74 C 6.6194 3.04767 3.40538 0
M  V30 75 C 7.6164 4.02366 3.29239 0
M  V30 76 C 5.3014 3.43862 3.66147 0
M  V30 77 C 7.2954 5.37049 3.43304 0
M  V30 78 C 4.9824 4.78699 3.79855 0
M  V30 79 C 5.9804 5.75101 3.68439 0
M  V30 80 O 5.6684 7.07493 3.81719 0
M  V30 81 H 5.4004 0.368778 0.56655 0
M  V30 82 H 7.9544 1.60642 1.27997 0
M  V30 83 H 6.1844 0.949297 3.74867 0
M  V30 84 H 7.8734 1.36136 3.8239 0
M  V30 85 H 8.6394 3.73506 3.09384 0
M  V30 86 H 4.5184 2.69364 3.74118 0
M  V30 87 H 8.0624 6.12277 3.34309 0
M  V30 88 H 3.9594 5.07247 3.99213 0
M  V30 89 H 4.7274 7.1483 3.98697 0
M  V30 90 N 7.3905 -1.2043 1.01659 0
M  V30 91 C 8.6375 -1.89797 0.705917 0
M  V30 92 C 8.9655 -1.78848 -0.764439 0
M  V30 93 O 8.2205 -1.16694 -1.57102 0
M  V30 94 C 8.5195 -3.40464 1.08714 0
M  V30 95 C 8.1855 -3.71614 2.5537 0
M  V30 96 C 6.8475 -3.79826 2.95441 0
M  V30 97 C 9.1995 -3.85915 3.50313 0
M  V30 98 C 6.5275 -3.99797 4.29394 0
M  V30 99 C 8.8795 -4.07396 4.83954 0
M  V30 100 C 7.5435 -4.13837 5.23732 0
M  V30 101 H 6.8135 -0.694518 0.258313 0
M  V30 102 H 9.4605 -1.42691 1.27717 0
M  V30 103 H 7.7655 -3.89385 0.434309 0
M  V30 104 H 9.4625 -3.92433 0.824461 0
M  V30 105 H 6.0525 -3.65822 2.23321 0
M  V30 106 H 10.2365 -3.78926 3.20513 0
M  V30 107 H 5.4925 -4.03018 4.59768 0
M  V30 108 H 9.6665 -4.17404 5.57447 0
M  V30 109 H 7.2935 -4.29064 6.27541 0
M  V30 110 N 8.8686 -0.792821 -1.36206 0
M  V30 111 C 10.2846 -0.474903 -1.52371 0
M  V30 112 C 10.4846 1.00622 -1.74578 0
M  V30 113 O 9.5406 1.79162 -1.77924 0
M  V30 114 C 10.8536 -1.3083 -2.70747 0
M  V30 115 C 12.4016 -1.30234 -2.84619 0
M  V30 116 C 12.8766 -2.11956 -4.06004 0
M  V30 117 N 14.3676 -2.09419 -4.13156 0
M  V30 118 C 15.1026 -2.69419 -5.06163 0
M  V30 119 N 14.5986 -3.3829 -6.04592 0
M  V30 120 N 16.3916 -2.59134 -4.98804 0
M  V30 121 H 8.5426 -1.75222 -1.20046 0
M  V30 122 H 10.8056 -0.745024 -0.586211 0
M  V30 123 H 10.5116 -2.35881 -2.6087 0
M  V30 124 H 10.3856 -0.95196 -3.6499 0
M  V30 125 H 12.7726 -0.259748 -2.93955 0
M  V30 126 H 12.8536 -1.69847 -1.91274 0
M  V30 127 H 12.4976 -3.16248 -3.97429 0
M  V30 128 H 12.4276 -1.69711 -4.98503 0
M  V30 129 H 14.9186 -1.59297 -3.42685 0
M  V30 130 H 15.2316 -3.81394 -6.7213 0
M  V30 131 H 13.5766 -3.42393 -6.04807 0
M  V30 132 H 16.7676 -2.04927 -4.20859 0
M  V30 133 H 16.9406 -3.06185 -5.711 0
M  V30 134 N 10.3467 1.47872 -0.545128 0
M  V30 135 C 11.7577 1.86384 -0.108581 0
M  V30 136 C 12.1087 1.45309 1.31832 0
M  V30 137 O 11.2337 0.850641 1.9898 0
M  V30 138 C 11.8287 3.38265 -0.190274 0
M  V30 139 C 10.3877 3.75914 0.191164 0
M  V30 140 C 9.5347 2.71926 -0.543273 0
M  V30 141 H 12.4857 1.39561 -0.755537 0
M  V30 142 H 12.5067 3.75831 0.594217 0
M  V30 143 H 12.0187 3.6813 -1.2289 0
M  V30 144 H 10.1197 3.51665 1.23136 0
M  V30 145 H 10.2327 4.78836 -0.158987 0
M  V30 146 H 8.5967 2.54697 0.0122495 0
M  V30 147 H 9.3797 3.04634 -1.58282 0
M  V30 148 N 11.8248 0.280983 1.55075 0
M  V30 149 C 13.0718 -0.334115 1.99725 0
M  V30 150 C 13.3998 -1.5542 1.1694 0
M  V30 151 O 12.6548 -1.94361 0.228531 0
M  V30 152 C 12.9538 -0.754656 3.49342 0
M  V30 153 C 12.6198 0.361445 4.49449 0
M  V30 154 C 11.2818 0.667893 4.76542 0
M  V30 155 C 13.6338 1.11322 5.09173 0
M  V30 156 C 10.9618 1.7296 5.60626 0
M  V30 157 C 13.3138 2.1647 5.9441 0
M  V30 158 C 11.9778 2.47742 6.19822 0
M  V30 159 H 11.2478 -0.122261 0.730844 0
M  V30 160 H 13.8948 0.395917 1.87363 0
M  V30 161 H 12.1998 -1.56446 3.5921 0
M  V30 162 H 13.8968 -1.24142 3.813 0
M  V30 163 H 10.4868 0.112481 4.28452 0
M  V30 164 H 14.6708 0.88973 4.8826 0
M  V30 165 H 9.9268 1.97684 5.78559 0
M  V30 166 H 14.1008 2.75193 6.3972 0
M  V30 167 H 11.7278 3.30145 6.84769 0
M  V30 168 N 13.3029 -1.57598 0.00835791 0
M  V30 169 C 14.7189 -1.55764 -0.347822 0
M  V30 170 C 14.9189 -1.01186 -1.74252 0
M  V30 171 O 13.9749 -0.649371 -2.44007 0
M  V30 172 C 15.2879 -2.99927 -0.215407 0
M  V30 173 C 16.8359 -3.11656 -0.289725 0
M  V30 174 C 17.3109 -4.57621 -0.18634 0
M  V30 175 N 18.8019 -4.62557 -0.243978 0
M  V30 176 C 19.5369 -5.73094 -0.18745 0
M  V30 177 N 19.0329 -6.92753 -0.0810331 0
M  V30 178 N 20.8259 -5.61588 -0.239925 0
M  V30 179 H 12.9769 -1.91411 0.92062 0
M  V30 180 H 15.2399 -0.879562 0.353659 0
M  V30 181 H 14.9459 -3.43729 0.744512 0
M  V30 182 H 14.8199 -3.63865 -0.994097 0
M  V30 183 H 17.2069 -2.67779 -1.24009 0
M  V30 184 H 17.2879 -2.5048 0.51898 0
M  V30 185 H 16.9319 -5.02174 0.760519 0
M  V30 186 H 16.8619 -5.16752 -1.01364 0
M  V30 187 H 19.3529 -3.76481 -0.327217 0
M  V30 188 H 19.6659 -7.72787 -0.0440241 0
M  V30 189 H 18.0109 -6.94984 -0.0465419 0
M  V30 190 H 21.2019 -4.66996 -0.321317 0
M  V30 191 H 21.3749 -6.47714 -0.192407 0
M  V30 192 N 14.781 0.264519 -1.55364 0
M  V30 193 C 16.192 0.834936 -1.6699 0
M  V30 194 C 16.543 1.86718 -0.602552 0
M  V30 195 O 15.668 2.14899 0.254425 0
M  V30 196 C 16.263 1.5212 -3.02729 0
M  V30 197 C 14.822 2.03954 -3.16354 0
M  V30 198 C 13.969 0.884498 -2.62815 0
M  V30 199 H 16.92 0.0406869 -1.58648 0
M  V30 200 H 16.941 2.38853 -2.96191 0
M  V30 201 H 16.453 0.769668 -3.80392 0
M  V30 202 H 14.554 2.82041 -2.43482 0
M  V30 203 H 14.667 2.24902 -4.23032 0
M  V30 204 H 13.031 1.2802 -2.20188 0
M  V30 205 H 13.814 0.14634 -3.42988 0
M  V30 206 N 16.2591 1.48442 0.529413 0
M  V30 207 C 17.1891 1.65902 1.64313 0
M  V30 208 C 18.1701 0.507897 1.6234 0
M  V30 209 O 19.3551 0.740503 1.79528 0
M  V30 210 C 16.4851 1.69911 3.02898 0
M  V30 211 C 15.4391 2.8453 3.19729 0
M  V30 212 C 14.7651 2.73629 4.59381 0
M  V30 213 C 16.0651 4.25821 3.02447 0
M  V30 214 H 17.7591 2.5914 1.49955 0
M  V30 215 H 15.3051 1.24709 0.719982 0
M  V30 216 H 17.2581 1.80715 3.80684 0
M  V30 217 H 15.9821 0.732524 3.18279 0
M  V30 218 H 14.6411 2.73283 2.44361 0
M  V30 219 H 14.2891 1.74938 4.71599 0
M  V30 220 H 13.9891 3.50541 4.71588 0
M  V30 221 H 15.5131 2.86401 5.39265 0
M  V30 222 H 16.9271 4.37898 3.70024 0
M  V30 223 H 15.3241 5.03735 3.26146 0
M  V30 224 H 16.3941 4.42244 1.98867 0
M  V30 225 N 17.7372 -0.778329 1.37039 0
M  V30 226 C 18.9652 -1.56734 1.35063 0
M  V30 227 C 19.3802 -1.88686 -0.0655597 0
M  V30 228 O 18.7372 -1.5096 -1.02554 0
M  V30 229 C 18.7882 -2.88163 2.18276 0
M  V30 230 O 18.5092 -2.57583 3.54376 0
M  V30 231 C 20.0102 -3.82422 2.24206 0
M  V30 232 H 17.2302 -0.485778 0.462883 0
M  V30 233 H 19.7742 -0.965185 1.8029 0
M  V30 234 H 17.9292 -3.44818 1.76576 0
M  V30 235 H 18.3432 -3.41699 3.97922 0
M  V30 236 H 19.8172 -4.71667 2.86765 0
M  V30 237 H 20.2942 -4.21078 1.24861 0
M  V30 238 H 20.9002 -3.31697 2.6619 0
M  V30 239 N 19.2153 -1.21501 -1.00376 0
M  V30 240 C 20.1783 -0.976927 -2.07337 0
M  V30 241 C 21.1783 0.0525322 -1.60714 0
M  V30 242 O 22.3683 -0.184869 -1.73216 0
M  V30 243 C 19.5003 -0.473423 -3.37597 0
M  V30 244 H 20.6933 -1.92587 -2.29892 0
M  V30 245 H 18.2463 -1.03217 -1.17371 0
M  V30 246 H 18.9813 0.480379 -3.20722 0
M  V30 247 H 18.7663 -1.216 -3.72768 0
M  V30 248 H 20.2563 -0.32675 -4.1632 0
M  V30 249 N 20.6934 1.19889 -1.02296 0
M  V30 250 C 21.9414 1.89046 -0.714558 0
M  V30 251 C 22.2624 1.79636 0.758681 0
M  V30 252 O 21.5324 1.20292 1.54618 0
M  V30 253 H 20.1124 0.699802 -0.261317 0
M  V30 254 H 22.7744 1.45574 -1.29592 0
M  V30 255 H 21.8704 2.95524 -1.0036 0
M  V30 256 N 22.1715 0.800033 1.35784 0
M  V30 257 C 23.4205 0.37387 1.98205 0
M  V30 258 C 23.7335 -1.06302 1.64193 0
M  V30 259 O 24.9395 -1.59198 2.19928 0
M  V30 260 C 23.3955 0.617532 3.54562 0
M  V30 261 C 23.0035 2.06654 3.9749 0
M  V30 262 C 24.7475 0.256401 4.23725 0
M  V30 263 C 22.6545 2.2563 5.46667 0
M  V30 264 H 21.5845 0.136055 0.741623 0
M  V30 265 H 24.2355 0.983166 1.54939 0
M  V30 266 H 22.6175 -0.0616248 3.95952 0
M  V30 267 H 23.7915 2.78296 3.67271 0
M  V30 268 H 22.1065 2.38691 3.41197 0
M  V30 269 H 24.7035 0.376318 5.33374 0
M  V30 270 H 25.0465 -0.796692 4.08606 0
M  V30 271 H 25.5795 0.889214 3.87734 0
M  V30 272 H 22.3185 3.2936 5.66747 0
M  V30 273 H 21.8385 1.58504 5.78478 0
M  V30 274 H 23.5175 2.06861 6.1304 0
M  V30 275 N 23.6496 -1.47581 0.552962 0
M  V30 276 C 24.6126 -2.28439 -0.186605 0
M  V30 277 C 25.6126 -1.36706 -0.84665 0
M  V30 278 O 26.8026 -1.59378 -0.703164 0
M  V30 279 C 23.9346 -3.16264 -1.2724 0
M  V30 280 H 25.1276 -2.95294 0.523609 0
M  V30 281 H 22.6806 -1.532 0.309745 0
M  V30 282 H 23.4156 -2.54091 -2.01514 0
M  V30 283 H 23.2006 -3.83769 -0.803968 0
M  V30 284 H 24.6906 -3.77198 -1.79196 0
M  V30 285 N 25.1277 -0.289203 -1.54924 0
M  V30 286 C 26.0577 0.58549 -2.2604 0
M  V30 287 C 27.0387 1.14753 -1.25562 0
M  V30 288 O 28.2237 1.17906 -1.54311 0
M  V30 289 C 25.3537 1.76305 -2.99222 0
M  V30 290 C 24.3077 1.33191 -4.06748 0
M  V30 291 C 23.6337 2.5937 -4.6758 0
M  V30 292 C 24.9337 0.471775 -5.20165 0
M  V30 293 H 26.6277 -0.00763532 -2.99399 0
M  V30 294 H 24.1737 -0.00511229 -1.43999 0
M  V30 295 H 26.1267 2.38097 -3.47689 0
M  V30 296 H 24.8507 2.38223 -2.23422 0
M  V30 297 H 23.5097 0.737121 -3.59113 0
M  V30 298 H 23.1577 3.19576 -3.88433 0
M  V30 299 H 22.8577 2.31228 -5.40192 0
M  V30 300 H 24.3817 3.21985 -5.18804 0
M  V30 301 H 25.7957 0.995056 -5.64599 0
M  V30 302 H 24.1927 0.284639 -5.99425 0
M  V30 303 H 25.2627 -0.506041 -4.82252 0
M  V30 304 N 26.6058 1.57591 -0.0167156 0
M  V30 305 C 27.5358 2.12496 0.967858 0
M  V30 306 C 28.5168 1.03807 1.34752 0
M  V30 307 O 29.7018 1.31577 1.42833 0
M  V30 308 C 26.8318 2.64194 2.25431 0
M  V30 309 C 25.7858 3.77559 2.01576 0
M  V30 310 C 25.1118 4.15636 3.36379 0
M  V30 311 C 26.4118 5.04151 1.36489 0
M  V30 312 H 28.1058 2.95013 0.510643 0
M  V30 313 H 25.6518 1.41915 0.244181 0
M  V30 314 H 27.6048 3.01236 2.94678 0
M  V30 315 H 26.3288 1.78821 2.73296 0
M  V30 316 H 24.9878 3.40937 1.34751 0
M  V30 317 H 24.6358 3.27263 3.81979 0
M  V30 318 H 24.3358 4.92022 3.21229 0
M  V30 319 H 25.8598 4.5525 4.06915 0
M  V30 320 H 27.2738 5.38857 1.95718 0
M  V30 321 H 25.6708 5.85453 1.31776 0
M  V30 322 H 26.7408 4.83733 0.336219 0
M  V30 323 N 28.0839 -0.256276 1.55502 0
M  V30 324 C 29.0139 -1.32102 1.92539 0
M  V30 325 C 29.9949 -1.50684 0.789194 0
M  V30 326 O 31.1799 -1.63449 1.04872 0
M  V30 327 C 28.3099 -2.67752 2.21192 0
M  V30 328 C 27.2639 -2.63878 3.36975 0
M  V30 329 C 26.5899 -4.03236 3.51147 0
M  V30 330 C 27.8899 -2.21682 4.72921 0
M  V30 331 H 29.5839 -1.01351 2.81724 0
M  V30 332 H 27.1299 -0.486105 1.35547 0
M  V30 333 H 29.0829 -3.42365 2.45691 0
M  V30 334 H 27.8069 -3.0012 1.28824 0
M  V30 335 H 26.4659 -1.91722 3.12471 0
M  V30 336 H 26.1139 -4.32854 2.56216 0
M  V30 337 H 25.8139 -4.01535 4.29003 0
M  V30 338 H 27.3379 -4.79563 3.77957 0
M  V30 339 H 28.7519 -2.86023 4.96854 0
M  V30 340 H 27.1489 -2.3111 5.53812 0
M  V30 341 H 28.2189 -1.16833 4.70615 0
M  V30 342 N 29.562 -1.4872 -0.521534 0
M  V30 343 C 30.81 -1.56857 -1.27437 0
M  V30 344 C 31.131 -0.247982 -1.93417 0
M  V30 345 O 30.401 0.731151 -1.81744 0
M  V30 346 H 28.981 -0.577885 -0.473347 0
M  V30 347 H 31.643 -1.85233 -0.606205 0
M  V30 348 H 30.739 -2.35402 -2.0492 0
M  V30 349 N 31.0401 0.771051 -1.3745 0
M  V30 350 C 32.0031 1.86598 -1.33093 0
M  V30 351 C 33.0031 1.59076 -0.234845 0
M  V30 352 O 34.1931 1.67145 -0.490732 0
M  V30 353 C 31.3251 3.23747 -1.06773 0
M  V30 354 H 32.5181 1.91873 -2.30488 0
M  V30 355 H 30.0711 0.970876 -1.2249 0
M  V30 356 H 30.8061 3.24148 -0.099129 0
M  V30 357 H 30.5911 3.45115 -1.86112 0
M  V30 358 H 32.0811 4.03824 -1.06377 0
M  V30 359 N 32.5182 1.22032 0.997298 0
M  V30 360 C 33.7432 1.06921 1.77715 0
M  V30 361 C 34.1682 -0.376226 1.84299 0
M  V30 362 O 33.5262 -1.27165 1.29223 0
M  V30 363 C 33.5742 1.67996 3.19076 0
M  V30 364 O 32.6782 0.930653 4.01762 0
M  V30 365 H 32.0192 0.375814 0.547412 0
M  V30 366 H 34.5492 1.61737 1.25309 0
M  V30 367 H 34.5592 1.72538 3.69723 0
M  V30 368 H 33.2342 2.73182 3.13599 0
M  V30 369 H 31.8112 0.960917 3.60307 0
M  V30 370 N 33.9963 -1.19345 1.0293 0
M  V30 371 C 35.2433 -1.89038 0.726008 0
M  V30 372 C 35.5713 -1.79649 -0.745427 0
M  V30 373 O 34.8263 -1.18354 -1.55855 0
M  V30 374 C 35.1253 -3.39292 1.12319 0
M  V30 375 C 34.7913 -3.68885 2.59297 0
M  V30 376 C 33.4533 -3.76671 2.99453 0
M  V30 377 C 35.8053 -3.82178 3.54386 0
M  V30 378 C 33.1333 -3.9522 4.33611 0
M  V30 379 C 35.4853 -4.0224 4.88248 0
M  V30 380 C 34.1493 -4.08259 5.28092 0
M  V30 381 H 33.4193 -0.691739 0.265665 0
M  V30 382 H 36.0663 -1.41328 1.29223 0
M  V30 383 H 34.3713 -3.88903 0.475584 0
M  V30 384 H 36.0683 -3.91536 0.866037 0
M  V30 385 H 32.6583 -3.63433 2.27189 0
M  V30 386 H 36.8423 -3.75505 3.24514 0
M  V30 387 H 32.0983 -3.98119 4.64016 0
M  V30 388 H 36.2723 -4.11468 5.61843 0
M  V30 389 H 33.8993 -4.22384 6.32057 0
M  V30 390 N 35.4744 -0.807222 -1.35358 0
M  V30 391 C 36.4374 -0.223665 -2.28106 0
M  V30 392 C 37.4374 0.589354 -1.4961 0
M  V30 393 O 38.6274 0.407745 -1.69361 0
M  V30 394 C 35.7594 0.688149 -3.33882 0
M  V30 395 H 36.9524 -1.04169 -2.81227 0
M  V30 396 H 34.5054 -0.577921 -1.45223 0
M  V30 397 H 35.2404 1.52984 -2.85948 0
M  V30 398 H 35.0254 0.10687 -3.91954 0
M  V30 399 H 36.5154 1.09075 -4.03104 0
M  V30 400 N 36.9525 1.47285 -0.560781 0
M  V30 401 C 38.2295 1.9558 0.0277798 0
M  V30 402 C 38.6095 1.5034 1.48192 0
M  V30 403 O 37.9575 0.743882 2.16052 0
M  V30 404 C 38.1675 3.48789 -0.121418 0
M  V30 405 C 39.5155 4.24594 0.0220912 0
M  V30 406 O 40.5395 3.56166 -0.0491439 0
M  V30 407 O 39.3985 5.46217 0.175958 0
M  V30 408 H 36.4925 0.824663 0.0621342 0
M  V30 409 H 39.0385 1.5767 -0.627556 0
M  V30 410 H 37.8105 3.74533 -1.13316 0
M  V30 411 H 37.4335 3.93473 0.571366 0
M  V30 412 N 38.4306 0.297415 1.54768 0
M  V30 413 C 39.3936 -0.567375 2.22066 0
M  V30 414 C 40.3936 -1.06409 1.20556 0
M  V30 415 O 41.5836 -0.960691 1.45315 0
M  V30 416 C 38.7156 -1.78517 2.90421 0
M  V30 417 H 39.9086 0.0205534 2.99893 0
M  V30 418 H 37.4616 0.0482163 1.56226 0
M  V30 419 H 38.1966 -2.41303 2.16664 0
M  V30 420 H 37.9816 -1.43669 3.64831 0
M  V30 421 H 39.4716 -2.39964 3.41771 0
M  V30 422 N 39.9087 -1.5758 0.0250728 0
M  V30 423 C 40.8187 -2.1343 -0.973905 0
M  V30 424 C 41.8347 -1.08556 -1.35984 0
M  V30 425 O 43.0107 -1.40592 -1.44207 0
M  V30 426 C 40.0757 -2.64703 -2.23904 0
M  V30 427 C 39.1367 -3.84276 -1.91391 0
M  V30 428 C 38.3697 -4.33095 -3.11873 0
M  V30 429 O 38.5927 -3.81107 -4.24398 0
M  V30 430 O 37.5267 -5.24984 -2.94406 0
M  V30 431 H 41.3527 -2.99057 -0.529036 0
M  V30 432 H 38.9377 -1.48118 -0.195288 0
M  V30 433 H 40.8197 -2.97769 -2.98181 0
M  V30 434 H 39.4947 -1.82161 -2.6758 0
M  V30 435 H 38.4017 -3.56143 -1.14511 0
M  V30 436 H 39.7347 -4.67968 -1.52534 0
M  V30 437 N 41.3868 0.248026 -1.55636 0
M  V30 438 C 42.6118 0.998028 -1.81808 0
M  V30 439 C 43.0368 1.78207 -0.601979 0
M  V30 440 O 42.3948 1.75653 0.448961 0
M  V30 441 C 42.4428 1.9125 -3.05705 0
M  V30 442 O 41.5468 3.00406 -2.82542 0
M  V30 443 H 40.8878 0.284045 -0.600179 0
M  V30 444 H 43.4178 0.269357 -2.02819 0
M  V30 445 H 43.4278 2.32737 -3.35108 0
M  V30 446 H 42.1028 1.33602 -3.93857 0
M  V30 447 H 40.6798 2.63056 -2.64303 0
M  V30 448 N 42.8649 1.48995 0.513639 0
M  V30 449 C 44.2809 1.35478 0.843682 0
M  V30 450 C 44.4809 0.378213 1.97919 0
M  V30 451 O 43.5369 -0.194689 2.51748 0
M  V30 452 C 44.8499 2.75901 1.1958 0
M  V30 453 C 46.3979 2.84509 1.30474 0
M  V30 454 C 46.8729 4.25671 1.69021 0
M  V30 455 N 48.3639 4.28422 1.76094 0
M  V30 456 C 49.0989 5.34601 2.07338 0
M  V30 457 N 48.5949 6.5104 2.36894 0
M  V30 458 N 50.3879 5.22007 2.08483 0
M  V30 459 H 42.5389 2.11092 -0.235328 0
M  V30 460 H 44.8019 0.947039 -0.0426669 0
M  V30 461 H 44.5079 3.49001 0.434913 0
M  V30 462 H 44.3819 3.10467 2.1422 0
M  V30 463 H 46.7689 2.11655 2.05637 0
M  V30 464 H 46.8499 2.53542 0.339155 0
M  V30 465 H 46.4939 4.99048 0.944135 0
M  V30 466 H 46.4239 4.54094 2.66658 0
M  V30 467 H 48.9149 3.44441 1.55464 0
M  V30 468 H 49.2279 7.2779 2.59887 0
M  V30 469 H 47.5729 6.54287 2.34378 0
M  V30 470 H 50.7639 4.30051 1.84861 0
M  V30 471 H 50.9369 6.04854 2.325 0
M  V30 472 N 44.343 -0.763751 1.37857 0
M  V30 473 C 45.293 -1.86765 1.30777 0
M  V30 474 C 46.277 -1.59726 0.194015 0
M  V30 475 O 47.469 -1.7172 0.42911 0
M  V30 476 C 44.598 -3.24343 1.12502 0
M  V30 477 C 43.684 -3.57307 2.28456 0
M  V30 478 N 44.075 -3.61398 3.53871 0
M  V30 479 C 42.373 -3.87517 2.20786 0
M  V30 480 C 43.074 -3.91339 4.30382 0
M  V30 481 N 42.05 -4.07649 3.59615 0
M  V30 482 H 45.852 -1.88191 2.25746 0
M  V30 483 H 43.366 -0.9606 1.30944 0
M  V30 484 H 45.363 -4.03327 1.05514 0
M  V30 485 H 44.023 -3.24175 0.184574 0
M  V30 486 H 45.034 -3.43407 3.87675 0
M  V30 487 H 41.711 -3.95125 1.34844 0
M  V30 488 H 43.101 -4.01213 5.3896 0
M  V30 489 N 45.8211 -1.22559 -0.990812 0
M  V30 490 C 46.7841 -0.998863 -2.0629 0
M  V30 491 C 47.7841 0.0354834 -1.60761 0
M  V30 492 O 48.9741 -0.203231 -1.7301 0
M  V30 493 C 46.1061 -0.509203 -3.37076 0
M  V30 494 H 47.2991 -1.95014 -2.27837 0
M  V30 495 H 44.8521 -1.04456 -1.16269 0
M  V30 496 H 45.5871 0.446335 -3.21214 0
M  V30 497 H 45.3721 -1.25547 -3.71457 0
M  V30 498 H 46.8621 -0.370888 -4.1595 0
M  V30 499 N 47.2992 1.18797 -1.03562 0
M  V30 500 C 48.5482 1.87978 -0.731235 0
M  V30 501 C 48.8612 1.80911 0.743671 0
M  V30 502 O 50.0672 2.45407 1.16137 0
M  V30 503 C 48.5232 3.3721 -1.25768 0
M  V30 504 C 48.1312 3.52818 -2.76085 0
M  V30 505 C 49.8752 4.11825 -1.0296 0
M  V30 506 C 47.7822 4.9598 -3.22114 0
M  V30 507 H 46.7122 0.704063 -0.269835 0
M  V30 508 H 49.3632 1.34266 -1.25079 0
M  V30 509 H 47.7452 3.90359 -0.666011 0
M  V30 510 H 48.9192 3.09965 -3.40966 0
M  V30 511 H 47.2342 2.91602 -2.97249 0
M  V30 512 H 49.8312 5.17411 -1.34869 0
M  V30 513 H 50.1742 4.16287 0.0333546 0
M  V30 514 H 50.7072 3.64833 -1.58562 0
M  V30 515 H 47.4462 4.96684 -4.27768 0
M  V30 516 H 46.9662 5.39569 -2.61965 0
M  V30 517 H 48.6452 5.6467 -3.15844 0
M  V30 518 N 48.7773 0.814389 1.34928 0
M  V30 519 C 49.7403 0.235759 2.27984 0
M  V30 520 C 50.7403 -0.581412 1.49921 0
M  V30 521 O 51.9303 -0.398758 1.69575 0
M  V30 522 C 49.0623 -0.670433 3.34242 0
M  V30 523 H 50.2553 1.05659 2.80671 0
M  V30 524 H 47.8083 0.585614 1.44915 0
M  V30 525 H 48.5433 -1.51466 2.86755 0
M  V30 526 H 48.3283 -0.0860822 3.92005 0
M  V30 527 H 49.8183 -1.06935 4.03676 0
M  V30 528 N 50.2554 -1.46986 0.568584 0
M  V30 529 C 51.1884 -2.27129 -0.220779 0
M  V30 530 C 52.1664 -1.34757 -0.909905 0
M  V30 531 O 53.3504 -1.64152 -0.926622 0
M  V30 532 C 50.4774 -3.12108 -1.31553 0
M  V30 533 C 49.5234 -4.20141 -0.733748 0
M  V30 534 S 50.3564 -5.33783 0.428479 0
M  V30 535 C 51.5124 -6.22327 -0.667811 0
M  V30 536 H 51.7454 -2.93731 0.459267 0
M  V30 537 H 49.2784 -1.5026 0.355154 0
M  V30 538 H 51.2364 -3.61636 -1.94241 0
M  V30 539 H 49.8974 -2.44847 -1.96746 0
M  V30 540 H 49.0904 -4.79373 -1.5562 0
M  V30 541 H 48.6924 -3.73553 -0.182812 0
M  V30 542 H 50.9844 -6.59364 -1.55708 0
M  V30 543 H 51.9274 -7.0801 -0.11258 0
M  V30 544 H 52.3354 -5.5618 -0.965601 0
M  V30 545 N 51.7335 -0.305618 -1.54608 0
M  V30 546 C 52.9635 0.304333 -2.04346 0
M  V30 547 C 53.3715 1.47715 -1.18224 0
M  V30 548 O 52.7145 1.82591 -0.201577 0
M  V30 549 C 52.7765 0.819031 -3.50046 0
M  V30 550 C 52.4405 -0.22912 -4.56425 0
M  V30 551 C 53.4375 -1.05914 -5.08997 0
M  V30 552 C 51.1225 -0.372148 -5.0092 0
M  V30 553 C 53.1165 -2.01809 -6.04609 0
M  V30 554 C 50.8035 -1.33454 -5.9635 0
M  V30 555 C 51.8015 -2.15599 -6.48079 0
M  V30 556 O 51.4895 -3.10205 -7.41639 0
M  V30 557 H 51.2215 0.0693996 -0.672428 0
M  V30 558 H 53.7755 -0.444548 -2.00532 0
M  V30 559 H 52.0055 1.61852 -3.51199 0
M  V30 560 H 53.6945 1.34537 -3.82955 0
M  V30 561 H 54.4605 -0.959538 -4.75413 0
M  V30 562 H 50.3395 0.257304 -4.60281 0
M  V30 563 H 53.8835 -2.65966 -6.44909 0
M  V30 564 H 49.7805 -1.43485 -6.29351 0
M  V30 565 H 50.5485 -3.05237 -7.59455 0
M  V30 566 N 53.2116 1.57565 -0.0334293 0
M  V30 567 C 54.4596 1.91598 0.642999 0
M  V30 568 C 54.7806 0.910847 1.7242 0
M  V30 569 O 54.0506 -0.0469931 1.95844 0
M  V30 570 H 52.6306 0.707228 0.240496 0
M  V30 571 H 55.2926 1.94726 -0.0822488 0
M  V30 572 H 54.3886 2.92336 1.09298 0
M  V30 573 N 54.6897 -0.239769 1.55765 0
M  V30 574 C 55.6527 -1.28038 1.90103 0
M  V30 575 C 56.6527 -1.40723 0.778055 0
M  V30 576 O 57.8427 -1.39301 1.04599 0
M  V30 577 C 54.9747 -2.65702 2.13577 0
M  V30 578 H 56.1677 -0.988048 2.83157 0
M  V30 579 H 53.7207 -0.479382 1.48767 0
M  V30 580 H 54.4557 -3.00063 1.23015 0
M  V30 581 H 54.2407 -2.57875 2.95369 0
M  V30 582 H 55.7307 -3.40828 2.41301 0
M  V30 583 N 56.1678 -1.49265 -0.50573 0
M  V30 584 C 57.5788 -1.51769 -1.08734 0
M  V30 585 C 57.9298 -0.301192 -1.93874 0
M  V30 586 O 57.0548 0.589456 -2.08217 0
M  V30 587 C 57.6498 -2.75017 -1.97867 0
M  V30 588 C 56.2088 -2.80314 -2.51199 0
M  V30 589 C 55.3558 -2.4562 -1.28709 0
M  V30 590 H 58.3068 -1.56031 -0.289855 0
M  V30 591 H 58.3278 -2.5491 -2.82491 0
M  V30 592 H 57.8398 -3.63539 -1.35873 0
M  V30 593 H 55.9408 -1.96061 -3.16845 0
M  V30 594 H 56.0538 -3.82366 -2.88675 0
M  V30 595 H 54.4178 -1.97297 -1.61078 0
M  V30 596 H 55.2008 -3.36411 -0.6843 0
M  V30 597 N 57.6459 0.756429 -1.3826 0
M  V30 598 C 58.6089 1.85176 -1.35065 0
M  V30 599 C 59.6089 1.58818 -0.251703 0
M  V30 600 O 60.7989 1.66615 -0.508433 0
M  V30 601 C 57.9309 3.22596 -1.10201 0
M  V30 602 H 59.1239 1.89417 -2.3251 0
M  V30 603 H 56.6769 0.95783 -1.23512 0
M  V30 604 H 57.4119 3.24025 -0.133504 0
M  V30 605 H 57.1969 3.43122 -1.89762 0
M  V30 606 H 58.6869 4.02673 -1.10654 0
M  V30 607 N 59.124 1.23083 0.984299 0
M  V30 608 C 60.054 1.03292 2.09411 0
M  V30 609 C 61.035 -0.048923 1.7003 0
M  V30 610 O 62.22 0.114967 1.93859 0
M  V30 611 C 59.35 0.619155 3.41736 0
M  V30 612 C 58.304 1.64791 3.95004 0
M  V30 613 C 57.63 1.0897 5.23478 0
M  V30 614 C 58.93 3.03999 4.24714 0
M  V30 615 H 60.624 1.96119 2.26225 0
M  V30 616 H 58.17 0.944344 1.08711 0
M  V30 617 H 60.123 0.467777 4.18796 0
M  V30 618 H 58.847 -0.344786 3.24775 0
M  V30 619 H 57.506 1.78721 3.20085 0
M  V30 620 H 57.154 0.11686 5.02864 0
M  V30 621 H 56.854 1.77704 5.60085 0
M  V30 622 H 58.378 0.950093 6.03163 0
M  V30 623 H 59.792 2.93393 4.92538 0
M  V30 624 H 58.189 3.69936 4.72512 0
M  V30 625 H 59.259 3.53285 3.32142 0
M  V30 626 N 60.6021 -1.18246 1.0419 0
M  V30 627 C 62.0131 -1.69914 0.773698 0
M  V30 628 C 62.3641 -1.83085 -0.705297 0
M  V30 629 O 61.4891 -1.51123 -1.5489 0
M  V30 630 C 62.0841 -3.08619 1.39784 0
M  V30 631 C 60.6431 -3.57494 1.17792 0
M  V30 632 C 59.7901 -2.34013 1.48773 0
M  V30 633 H 62.7411 -1.02904 1.20816 0
M  V30 634 H 62.7621 -3.71958 0.801714 0
M  V30 635 H 62.2741 -2.99001 2.47426 0
M  V30 636 H 60.3751 -3.72406 0.120295 0
M  V30 637 H 60.4881 -4.40852 1.87581 0
M  V30 638 H 58.8521 -2.37986 0.907463 0
M  V30 639 H 59.6351 -2.27013 2.57527 0
M  V30 640 N 62.0802 -0.821533 -1.34494 0
M  V30 641 C 63.4912 -0.467956 -1.8074 0
M  V30 642 C 63.8422 1.01151 -1.68116 0
M  V30 643 O 62.9672 1.78707 -1.22036 0
M  V30 644 C 63.5622 -0.842627 -3.28154 0
M  V30 645 C 62.1212 -0.541439 -3.72485 0
M  V30 646 C 61.2682 -1.06028 -2.56229 0
M  V30 647 H 64.2192 -1.01183 -1.22261 0
M  V30 648 H 64.2402 -0.145876 -3.8022 0
M  V30 649 H 63.7522 -1.91945 -3.37311 0
M  V30 650 H 61.8532 0.526034 -3.68868 0
M  V30 651 H 61.9662 -1.08453 -4.66663 0
M  V30 652 H 60.3302 -0.481892 -2.501 0
M  V30 653 H 61.1132 -2.14352 -2.68157 0
M  V30 654 N 63.5583 1.46682 -0.576371 0
M  V30 655 C 64.8353 1.95599 0.00703437 0
M  V30 656 C 65.2153 1.51904 1.46589 0
M  V30 657 O 64.5633 0.766755 2.15251 0
M  V30 658 C 64.7733 3.4864 -0.158404 0
M  V30 659 C 66.1213 4.24594 -0.0229439 0
M  V30 660 O 67.1453 3.56094 -0.0869173 0
M  V30 661 O 66.0043 5.46373 0.118015 0
M  V30 662 H 63.0983 0.825275 0.053384 0
M  V30 663 H 65.6443 1.56996 -0.644244 0
M  V30 664 H 64.4163 3.7331 -1.17282 0
M  V30 665 H 64.0393 3.94057 0.5296 0
M  V30 666 N 65.0364 0.313813 1.54444 0
M  V30 667 C 66.2834 -0.291675 2.00388 0
M  V30 668 C 66.6114 -1.52904 1.2021 0
M  V30 669 O 65.8664 -1.93833 0.269707 0
M  V30 670 C 66.1654 -0.680386 3.50864 0
M  V30 671 C 65.8314 0.456699 4.48581 0
M  V30 672 C 64.4934 0.768824 4.75018 0
M  V30 673 C 66.8454 1.22098 5.06697 0
M  V30 674 C 64.1734 1.84812 5.56831 0
M  V30 675 C 66.5254 2.29029 5.89685 0
M  V30 676 C 65.1894 2.60834 6.14428 0
M  V30 677 H 64.4594 -0.106732 0.733273 0
M  V30 678 H 67.1064 0.43557 1.86481 0
M  V30 679 H 65.4114 -1.48791 3.62448 0
M  V30 680 H 67.1084 -1.16026 3.83847 0
M  V30 681 H 63.6984 0.203337 4.28117 0
M  V30 682 H 67.8824 0.993096 4.86263 0
M  V30 683 H 63.1384 2.09912 5.74236 0
M  V30 684 H 67.3124 2.887 6.33739 0
M  V30 685 H 64.9394 3.44596 6.77612 0
M  V30 686 N 66.5145 -1.57545 0.0417849 0
M  V30 687 C 67.7605 -1.92601 -0.635021 0
M  V30 688 C 68.0935 -0.919627 -1.71045 0
M  V30 689 O 67.3685 0.0557892 -1.9442 0
M  V30 690 C 67.6515 -3.38085 -1.23979 0
M  V30 691 C 67.5045 -4.49467 -0.173057 0
M  V30 692 C 68.8235 -3.83776 -2.15416 0
M  V30 693 H 65.9425 -0.700397 -0.229374 0
M  V30 694 H 68.5845 -1.89728 0.101633 0
M  V30 695 H 66.7345 -3.40664 -1.86762 0
M  V30 696 H 68.4065 -4.59018 0.458312 0
M  V30 697 H 66.6495 -4.30909 0.499996 0
M  V30 698 H 67.3205 -5.48323 -0.636054 0
M  V30 699 H 69.7965 -3.83013 -1.62605 0
M  V30 700 H 68.6725 -4.8624 -2.54679 0
M  V30 701 H 68.9335 -3.19998 -3.05047 0
M  V30 702 N 67.9926 0.231505 -1.5589 0
M  V30 703 C 69.2176 0.978689 -1.82856 0
M  V30 704 C 69.6426 1.77559 -0.620846 0
M  V30 705 O 69.0006 1.76119 0.430305 0
M  V30 706 C 69.0486 1.87997 -3.07716 0
M  V30 707 O 68.1526 2.97393 -2.85712 0
M  V30 708 H 67.4936 0.277663 -0.603158 0
M  V30 709 H 70.0236 0.24783 -2.03093 0
M  V30 710 H 70.0336 2.2917 -3.37558 0
M  V30 711 H 68.7086 1.29417 -3.95252 0
M  V30 712 H 67.2856 2.60238 -2.67078 0
M  V30 713 N 69.4707 1.49531 0.497807 0
M  V30 714 C 70.4007 1.6935 1.60757 0
M  V30 715 C 71.3817 0.542218 1.61227 0
M  V30 716 O 72.5667 0.778417 1.77917 0
M  V30 717 C 69.6967 1.76298 2.99226 0
M  V30 718 C 68.6507 2.91248 3.13622 0
M  V30 719 C 67.9767 2.83312 4.53474 0
M  V30 720 C 69.2767 4.3214 2.93346 0
M  V30 721 H 70.9707 2.62263 1.44425 0
M  V30 722 H 68.5167 1.26208 0.693367 0
M  V30 723 H 70.4697 1.88749 3.76765 0
M  V30 724 H 69.1937 0.799871 3.16654 0
M  V30 725 H 67.8527 2.78404 2.38509 0
M  V30 726 H 67.5007 1.84902 4.67782 0
M  V30 727 H 67.2007 3.60465 4.64046 0
M  V30 728 H 68.7247 2.97775 5.33069 0
M  V30 729 H 70.1387 4.45649 3.60652 0
M  V30 730 H 68.5357 5.1054 3.15387 0
M  V30 731 H 69.6057 4.46363 1.89441 0
M  V30 732 N 70.9488 -0.749086 1.3866 0
M  V30 733 C 72.3598 -1.32664 1.31366 0
M  V30 734 C 72.7108 -1.96179 -0.028484 0
M  V30 735 O 71.8358 -1.9537 -0.93057 0
M  V30 736 C 72.4308 -2.41219 2.37905 0
M  V30 737 C 70.9898 -2.94684 2.34176 0
M  V30 738 C 70.1368 -1.68108 2.20533 0
M  V30 739 H 73.0878 -0.547628 1.48952 0
M  V30 740 H 73.1088 -3.21268 2.0388 0
M  V30 741 H 72.6208 -1.94962 3.35576 0
M  V30 742 H 70.7218 -3.45258 1.401 0
M  V30 743 H 70.8348 -3.48757 3.2849 0
M  V30 744 H 69.1988 -1.91907 1.67463 0
M  V30 745 H 69.9818 -1.23923 3.20153 0
M  V30 746 N 72.4269 -1.23603 -0.977757 0
M  V30 747 C 73.6569 -1.09487 -1.75203 0
M  V30 748 C 74.0649 0.356321 -1.85814 0
M  V30 749 O 73.4079 1.25816 -1.33851 0
M  V30 750 C 73.4699 -1.64905 -3.19447 0
M  V30 751 C 73.1339 -3.13688 -3.32338 0
M  V30 752 C 74.1309 -4.10953 -3.18455 0
M  V30 753 C 71.8159 -3.53449 -3.56902 0
M  V30 754 C 73.8099 -5.45962 -3.28944 0
M  V30 755 C 71.4969 -4.88602 -3.6703 0
M  V30 756 C 72.4949 -5.84668 -3.53062 0
M  V30 757 O 72.1829 -7.17365 -3.62826 0
M  V30 758 H 71.9149 -0.38367 -0.556573 0
M  V30 759 H 74.4689 -1.6398 -1.23693 0
M  V30 760 H 72.6989 -1.04835 -3.72218 0
M  V30 761 H 74.3879 -1.46226 -3.78646 0
M  V30 762 H 75.1539 -3.81577 -2.99372 0
M  V30 763 H 71.0329 -2.79188 -3.66844 0
M  V30 764 H 74.5769 -6.20925 -3.17958 0
M  V30 765 H 70.4739 -5.17653 -3.85623 0
M  V30 766 H 71.2419 -7.2515 -3.79605 0
M  V30 767 N 73.905 1.17692 -1.04816 0
M  V30 768 C 74.868 2.19787 -0.650117 0
M  V30 769 C 75.868 1.58044 0.296427 0
M  V30 770 O 77.058 1.74012 0.0808097 0
M  V30 771 C 74.19 3.40869 0.0456987 0
M  V30 772 H 75.383 2.56516 -1.5537 0
M  V30 773 H 72.936 1.31708 -0.841594 0
M  V30 774 H 73.671 3.09681 0.962726 0
M  V30 775 H 73.456 3.86928 -0.634727 0
M  V30 776 H 74.946 4.16445 0.310432 0
M  V30 777 N 75.3831 0.828654 1.34056 0
M  V30 778 C 76.3311 0.242973 2.31327 0
M  V30 779 C 77.3251 -0.61944 1.57668 0
M  V30 780 O 78.5311 -0.51014 1.7262 0
M  V30 781 H 74.9061 0.059834 0.749616 0
M  V30 782 H 76.8771 1.07809 2.78244 0
M  V30 783 C 75.6261 -0.575733 3.429 0
M  V30 784 H 74.9491 0.0785582 3.99723 0
M  V30 785 H 76.3891 -0.951547 4.13185 0
M  V30 786 C 74.8481 -1.75044 2.87856 0
M  V30 787 O 75.3781 -2.84882 2.83205 0
M  V30 788 N 73.5841 -1.56903 2.44602 0
M  V30 789 H 73.1311 -0.675547 2.48584 0
M  V30 790 H 73.0891 -2.35652 2.08124 0
M  V30 791 N 76.8612 -1.46375 0.584142 0
M  V30 792 C 78.2722 -1.86031 0.157959 0
M  V30 793 C 78.6232 -1.48753 -1.27933 0
M  V30 794 O 77.7482 -0.903098 -1.96655 0
M  V30 795 C 78.3432 -3.37642 0.279892 0
M  V30 796 C 76.9022 -3.76289 -0.09143 0
M  V30 797 C 76.0492 -2.7039 0.615178 0
M  V30 798 H 79.0002 -1.37509 0.792274 0
M  V30 799 H 79.0212 -3.77275 -0.494364 0
M  V30 800 H 78.5332 -3.64742 1.32607 0
M  V30 801 H 76.6342 -3.54806 -1.13769 0
M  V30 802 H 76.7472 -4.78246 0.285886 0
M  V30 803 H 75.1112 -2.5464 0.0552833 0
M  V30 804 H 75.8942 -3.0033 1.66303 0
M  V30 805 N 78.3393 -0.321999 -1.54275 0
M  V30 806 C 79.6163 0.335232 -1.92706 0
M  V30 807 C 79.9963 1.70006 -1.25145 0
M  V30 808 O 79.3443 2.25067 -0.394596 0
M  V30 809 C 79.5543 0.429008 -3.46353 0
M  V30 810 C 80.9023 0.690029 -4.18956 0
M  V30 811 O 81.9263 0.511992 -3.52501 0
M  V30 812 O 80.7853 1.03338 -5.36641 0
M  V30 813 H 77.8793 0.191143 -0.804608 0
M  V30 814 H 80.4253 -0.3716 -1.65581 0
M  V30 815 H 79.1973 -0.529611 -3.87699 0
M  V30 816 H 78.8203 1.18348 -3.79578 0
M  V30 817 N 79.8174 1.5752 -0.0501392 0
M  V30 818 C 80.7804 2.1037 0.909786 0
M  V30 819 C 81.7804 1.02308 1.24056 0
M  V30 820 O 82.9704 1.28385 1.17741 0
M  V30 821 C 80.1024 2.58708 2.21998 0
M  V30 822 H 81.2954 2.96479 0.451665 0
M  V30 823 H 78.8484 1.55038 0.198248 0
M  V30 824 H 79.5834 1.75989 2.72394 0
M  V30 825 H 79.3684 3.37675 1.99295 0
M  V30 826 H 80.8584 2.99747 2.9076 0
M  V30 827 N 81.2955 -0.223234 1.56011 0
M  V30 828 C 82.7065 -0.790368 1.69145 0
M  V30 829 C 83.0575 -1.85055 0.651845 0
M  V30 830 O 82.1825 -2.15498 -0.197359 0
M  V30 831 C 82.7775 -1.4404 3.06656 0
M  V30 832 C 81.3365 -1.95494 3.2165 0
M  V30 833 C 80.4835 -0.814506 2.65068 0
M  V30 834 H 83.4345 0.00139011 1.587 0
M  V30 835 H 83.4555 -2.30916 3.0242 0
M  V30 836 H 82.9675 -0.668543 3.82298 0
M  V30 837 H 81.0685 -2.75487 2.50874 0
M  V30 838 H 81.1815 -2.13607 4.28846 0
M  V30 839 H 79.5455 -1.22137 2.23505 0
M  V30 840 H 80.3285 -0.0553515 3.43255 0
M  V30 841 N 82.7736 -1.49793 -0.48987 0
M  V30 842 C 83.7206 -1.67281 -1.59014 0
M  V30 843 C 84.6906 -0.514177 -1.57941 0
M  V30 844 O 85.8756 -0.742533 -1.75759 0
M  V30 845 C 83.0156 -1.75569 -2.97102 0
M  V30 846 C 82.1286 -3.0281 -3.08107 0
M  V30 847 C 81.2636 -3.02008 -4.36995 0
M  V30 848 C 80.3026 -4.23782 -4.41673 0
M  V30 849 N 79.4396 -4.20826 -5.62005 0
M  V30 850 H 84.2796 -2.61224 -1.43409 0
M  V30 851 H 81.8166 -1.29508 -0.697565 0
M  V30 852 H 83.7746 -1.78354 -3.77155 0
M  V30 853 H 82.4046 -0.850827 -3.11385 0
M  V30 854 H 81.4566 -3.09584 -2.21047 0
M  V30 855 H 82.7686 -3.92801 -3.07423 0
M  V30 856 H 81.9226 -3.03418 -5.25378 0
M  V30 857 H 80.6616 -2.09815 -4.4026 0
M  V30 858 H 79.6666 -4.22604 -3.5169 0
M  V30 859 H 80.8916 -5.17181 -4.40115 0
M  V30 860 H 78.8376 -3.31476 -5.66091 0
M  V30 861 H 78.7546 -5.04564 -5.62984 0
M  V30 862 H 80.0226 -4.26355 -6.52565 0
M  V30 863 N 84.2517 0.741722 -1.39055 0
M  V30 864 C 85.4997 1.49818 -1.35643 0
M  V30 865 C 85.8207 1.94938 0.0491642 0
M  V30 866 O 85.0907 1.68505 0.999141 0
M  V30 867 H 83.6707 0.555755 -0.499144 0
M  V30 868 H 86.3327 0.880957 -1.73854 0
M  V30 869 H 85.4287 2.38348 -2.01486 0
M  V30 870 N 85.7298 1.2412 0.971189 0
M  V30 871 C 86.9778 1.07668 1.71032 0
M  V30 872 C 87.2988 -0.385797 1.91146 0
M  V30 873 O 86.5688 -1.27569 1.4867 0
M  V30 874 H 85.1488 0.395429 0.633755 0
M  V30 875 H 87.8108 1.55984 1.16855 0
M  V30 876 H 86.9068 1.57195 2.69622 0
M  V30 877 N 87.2079 -1.17134 1.05439 0
M  V30 878 C 88.6239 -1.39454 0.776201 0
M  V30 879 C 88.8239 -1.91454 -0.628307 0
M  V30 880 O 87.8799 -2.10777 -1.39031 0
M  V30 881 C 89.1929 -2.38305 1.83388 0
M  V30 882 C 90.7409 -2.52006 1.85639 0
M  V30 883 C 91.2159 -3.54133 2.90437 0
M  V30 884 N 92.7069 -3.61653 2.89415 0
M  V30 885 C 93.4419 -4.4044 3.67152 0
M  V30 886 N 92.9379 -5.22721 4.54681 0
M  V30 887 N 94.7309 -4.35337 3.55581 0
M  V30 888 H 86.8819 -0.817134 1.96053 0
M  V30 889 H 89.1449 -0.421626 0.849079 0
M  V30 890 H 88.8509 -2.07173 2.84204 0
M  V30 891 H 88.7249 -3.37841 1.67761 0
M  V30 892 H 91.1119 -2.82447 0.85486 0
M  V30 893 H 91.1929 -1.52537 2.05344 0
M  V30 894 H 90.8369 -3.24431 3.90777 0
M  V30 895 H 90.7669 -4.53313 2.67983 0
M  V30 896 H 93.2579 -3.02909 2.25952 0
M  V30 897 H 93.5709 -5.80027 5.10674 0
M  V30 898 H 91.9159 -5.22093 4.58741 0
M  V30 899 H 95.1069 -3.70112 2.86592 0
M  V30 900 H 95.2799 -4.96494 4.1641 0
M  V30 901 N 88.686 -0.835752 -1.33615 0
M  V30 902 C 89.932 -0.430596 -1.98176 0
M  V30 903 C 90.265 1.00684 -1.66061 0
M  V30 904 O 89.54 1.70339 -0.938877 0
M  V30 905 C 89.823 -0.648065 -3.5422 0
M  V30 906 C 89.676 -2.13255 -3.96033 0
M  V30 907 C 90.995 -0.0922113 -4.40003 0
M  V30 908 H 88.114 -0.157924 -0.719881 0
M  V30 909 H 90.756 -1.05069 -1.58305 0
M  V30 910 H 88.906 -0.120237 -3.88314 0
M  V30 911 H 90.578 -2.725 -3.72211 0
M  V30 912 H 88.821 -2.61823 -3.45878 0
M  V30 913 H 89.492 -2.23547 -5.04708 0
M  V30 914 H 91.968 -0.543343 -4.12537 0
M  V30 915 H 90.844 -0.274083 -5.48215 0
M  V30 916 H 91.105 1.00378 -4.30554 0
M  V30 917 N 90.1641 1.46063 -0.591896 0
M  V30 918 C 91.4101 2.02638 -0.0811191 0
M  V30 919 C 91.7431 1.4613 1.27905 0
M  V30 920 O 91.0181 0.629908 1.84017 0
M  V30 921 C 91.3011 3.60091 -0.0252436 0
M  V30 922 C 91.1541 4.26965 -1.41496 0
M  V30 923 C 92.4731 4.3496 0.670685 0
M  V30 924 H 89.5921 0.73635 -0.0309524 0
M  V30 925 H 92.2341 1.741 -0.760859 0
M  V30 926 H 90.3841 3.84535 0.553624 0
M  V30 927 H 92.0561 4.13756 -2.0397 0
M  V30 928 H 90.2991 3.85971 -1.98011 0
M  V30 929 H 90.9701 5.35781 -1.32825 0
M  V30 930 H 93.4461 4.15716 0.178825 0
M  V30 931 H 92.3221 5.44686 0.678837 0
M  V30 932 H 92.5831 4.06685 1.73379 0
M  V30 933 N 91.6422 0.330177 1.54103 0
M  V30 934 C 92.8892 -0.270405 2.00686 0
M  V30 935 C 93.2172 -1.51621 1.21825 0
M  V30 936 O 92.4722 -1.93536 0.29025 0
M  V30 937 C 92.7712 -0.643134 3.51566 0
M  V30 938 C 92.4372 0.504251 4.48072 0
M  V30 939 C 91.0992 0.819163 4.74176 0
M  V30 940 C 93.4512 1.27465 5.05373 0
M  V30 941 C 90.7792 1.90708 5.5484 0
M  V30 942 C 93.1312 2.35271 5.87223 0
M  V30 943 C 91.7952 2.67336 6.11627 0
M  V30 944 H 91.0652 -0.0989482 0.734364 0
M  V30 945 H 93.7122 0.455324 1.86008 0
M  V30 946 H 92.0172 -1.44938 3.64006 0
M  V30 947 H 93.7142 -1.11949 3.85056 0
M  V30 948 H 90.3042 0.248733 4.27878 0
M  V30 949 H 94.4882 1.04462 4.85182 0
M  V30 950 H 89.7442 2.15991 5.71977 0
M  V30 951 H 93.9182 2.95405 6.30641 0
M  V30 952 H 91.5452 3.51763 6.73919 0
M  V30 953 N 93.1203 -1.57491 0.0584922 0
M  V30 954 C 94.3683 -1.92597 -0.612436 0
M  V30 955 C 94.6893 -0.938162 -1.70949 0
M  V30 956 O 93.9593 0.0158301 -1.95894 0
M  V30 957 H 92.5393 -0.710964 -0.229214 0
M  V30 958 H 95.2013 -1.94571 0.113218 0
M  V30 959 H 94.2973 -2.94038 -1.04633 0
M  V30 960 N 94.5984 0.214957 -1.56127 0
M  V30 961 C 95.5464 1.28601 -1.93816 0
M  V30 962 C 96.5404 1.48175 -0.821016 0
M  V30 963 O 97.7464 1.49271 -1.0059 0
M  V30 964 H 94.1214 0.431302 -0.616022 0
M  V30 965 H 96.0924 0.940991 -2.83175 0
M  V30 966 C 94.8414 2.62779 -2.27689 0
M  V30 967 H 94.1644 2.48527 -3.13168 0
M  V30 968 H 95.6044 3.36517 -2.57939 0
M  V30 969 C 94.0634 3.18285 -1.10436 0
M  V30 970 O 94.5934 4.00002 -0.368945 0
M  V30 971 N 92.7994 2.7675 -0.886433 0
M  V30 972 H 92.3464 2.10404 -1.48619 0
M  V30 973 H 92.3044 3.14229 -0.103656 0
M  V30 974 N 96.0765 1.50051 0.48192 0
M  V30 975 C 97.3045 1.64237 1.25832 0
M  V30 976 C 97.7195 0.321336 1.86045 0
M  V30 977 O 97.0765 -0.695478 1.68729 0
M  V30 978 C 97.1275 2.72548 2.37487 0
M  V30 979 O 96.8485 3.99529 1.79745 0
M  V30 980 C 98.3495 2.9761 3.28547 0
M  V30 981 H 95.5695 0.55237 0.380957 0
M  V30 982 H 98.1135 1.96207 0.576467 0
M  V30 983 H 96.2685 2.43303 3.01467 0
M  V30 984 H 96.6825 4.59342 2.5319 0
M  V30 985 H 98.1565 3.77084 4.03127 0
M  V30 986 H 98.6335 2.0826 3.86684 0
M  V30 987 H 99.2395 3.28345 2.70314 0
M  V30 988 N 97.5546 -0.734337 1.39446 0
M  V30 989 C 98.8026 -1.49096 1.36436 0
M  V30 990 C 99.1236 -1.94961 -0.0388255 0
M  V30 991 O 98.3936 -1.69033 -0.990191 0
M  V30 992 H 96.9736 -0.5531 0.502085 0
M  V30 993 H 99.6356 -0.871725 1.74319 0
M  V30 994 H 98.7316 -2.37276 2.02747 0
M  V30 995 N 99.0327 -1.24633 -0.964593 0
M  V30 996 C 100.281 -1.08573 -1.70459 0
M  V30 997 C 100.602 0.375655 -1.91347 0
M  V30 998 O 99.8717 1.26779 -1.49345 0
M  V30 999 H 98.4517 -0.398784 -0.631649 0
M  V30 1000 H 101.114 -1.56601 -1.16026 0
M  V30 1001 H 100.21 -1.58623 -2.68785 0
M  V30 1002 N 100.511 1.16574 -1.06058 0
M  V30 1003 C 101.758 1.87047 -0.775873 0
M  V30 1004 C 102.086 1.81562 0.697534 0
M  V30 1005 O 101.341 1.22445 1.52662 0
M  V30 1006 C 101.64 3.36195 -1.21275 0
M  V30 1007 C 101.306 3.6188 -2.68986 0
M  V30 1008 C 99.9678 3.68599 -3.09335 0
M  V30 1009 C 102.32 3.72648 -3.64394 0
M  V30 1010 C 99.6478 3.83584 -4.43937 0
M  V30 1011 C 102 3.89154 -4.98741 0
M  V30 1012 C 100.664 3.94114 -5.3873 0
M  V30 1013 H 99.9338 0.684452 -0.283912 0
M  V30 1014 H 102.581 1.37853 -1.32925 0
M  V30 1015 H 100.886 3.87505 -0.578528 0
M  V30 1016 H 102.583 3.89103 -0.969542 0
M  V30 1017 H 99.1728 3.57281 -2.36744 0
M  V30 1018 H 103.357 3.66769 -3.34356 0
M  V30 1019 H 98.6128 3.85677 -4.74409 0
M  V30 1020 H 102.787 3.96427 -5.72554 0
M  V30 1021 H 100.414 4.05478 -6.43033 0
M  V30 1022 N 101.989 0.842826 1.3317 0
M  V30 1023 C 103.266 0.362216 1.92217 0
M  V30 1024 C 103.646 -1.15289 1.76838 0
M  V30 1025 O 102.994 -1.96914 1.15919 0
M  V30 1026 C 103.204 0.813495 3.39387 0
M  V30 1027 C 104.552 0.823804 4.16532 0
M  V30 1028 O 105.576 0.757358 3.48055 0
M  V30 1029 O 104.435 0.915193 5.38782 0
M  V30 1030 H 101.529 0.103317 0.820521 0
M  V30 1031 H 104.075 0.928942 1.42017 0
M  V30 1032 H 102.847 1.85624 3.4447 0
M  V30 1033 H 102.47 0.223561 3.96971 0
M  V30 1034 N 103.467 -1.45747 0.599634 0
M  V30 1035 C 104.692 -2.07178 0.0960198 0
M  V30 1036 C 105.117 -1.44268 -1.207 0
M  V30 1037 O 104.475 -0.532503 -1.73303 0
M  V30 1038 C 104.523 -3.60579 -0.0385348 0
M  V30 1039 O 103.627 -3.97713 -1.0908 0
M  V30 1040 H 102.968 -0.660251 0.0704593 0
M  V30 1041 H 105.498 -1.87124 0.827385 0
M  V30 1042 H 105.508 -4.07298 -0.239304 0
M  V30 1043 H 104.183 -4.05756 0.912947 0
M  V30 1044 H 102.76 -3.62678 -0.867135 0
M  V30 1045 N 104.945 -0.338344 -1.53925 0
M  V30 1046 C 105.875 0.51328 -2.27789 0
M  V30 1047 C 106.856 1.107 -1.29149 0
M  V30 1048 O 108.041 1.12937 -1.57984 0
M  V30 1049 C 105.171 1.66697 -3.04679 0
M  V30 1050 C 104.125 1.20183 -4.1078 0
M  V30 1051 C 103.451 2.44363 -4.75595 0
M  V30 1052 C 104.751 0.30605 -5.21403 0
M  V30 1053 H 106.445 -0.102883 -2.99223 0
M  V30 1054 H 103.991 -0.0509219 -1.4391 0
M  V30 1055 H 105.944 2.26915 -3.55088 0
M  V30 1056 H 104.668 2.30995 -2.30887 0
M  V30 1057 H 103.327 0.622499 -3.61276 0
M  V30 1058 H 102.975 3.07057 -3.98403 0
M  V30 1059 H 102.675 2.13925 -5.47275 0
M  V30 1060 H 104.199 3.05317 -5.28786 0
M  V30 1061 H 105.613 0.814929 -5.67478 0
M  V30 1062 H 104.01 0.0937929 -6.00027 0
M  V30 1063 H 105.08 -0.65921 -4.80398 0
M  V30 1064 N 106.423 1.57458 -0.0668435 0
M  V30 1065 C 107.371 2.13639 0.919851 0
M  V30 1066 C 108.365 1.07204 1.31163 0
M  V30 1067 O 109.571 1.25591 1.28945 0
M  V30 1068 H 105.946 0.683048 0.314562 0
M  V30 1069 H 107.917 2.95415 0.421047 0
M  V30 1070 C 106.666 2.70892 2.17975 0
M  V30 1071 H 105.989 3.5246 1.88711 0
M  V30 1072 H 107.429 3.13803 2.85138 0
M  V30 1073 C 105.888 1.65414 2.93496 0
M  V30 1074 O 106.418 1.07619 3.87015 0
M  V30 1075 N 104.624 1.36564 2.56512 0
M  V30 1076 H 104.171 1.83751 1.80536 0
M  V30 1077 H 104.129 0.66223 3.07347 0
M  V30 1078 N 107.901 -0.206675 1.56239 0
M  V30 1079 C 109.312 -0.772383 1.69974 0
M  V30 1080 C 109.663 -1.84353 0.671436 0
M  V30 1081 O 108.788 -2.15695 -0.174491 0
M  V30 1082 C 109.383 -1.40779 3.08167 0
M  V30 1083 C 107.942 -1.92072 3.23706 0
M  V30 1084 C 107.089 -0.786347 2.65917 0
M  V30 1085 H 110.04 0.0182223 1.5869 0
M  V30 1086 H 110.061 -2.27696 3.04852 0
M  V30 1087 H 109.573 -0.627958 3.82986 0
M  V30 1088 H 107.674 -2.7281 2.53782 0
M  V30 1089 H 107.787 -2.09046 4.31087 0
M  V30 1090 H 106.151 -1.1976 2.24788 0
M  V30 1091 H 106.934 -0.0189416 3.43295 0
M  V30 1092 N 109.379 -1.50304 -0.473955 0
M  V30 1093 C 110.626 -1.6115 -1.22625 0
M  V30 1094 C 110.954 -0.310517 -1.92005 0
M  V30 1095 O 110.209 0.703419 -1.82621 0
M  V30 1096 C 110.508 -2.73938 -2.29549 0
M  V30 1097 C 110.174 -4.14519 -1.7744 0
M  V30 1098 C 108.836 -4.5277 -1.62949 0
M  V30 1099 C 111.188 -5.02392 -1.3875 0
M  V30 1100 C 108.516 -5.76639 -1.08187 0
M  V30 1101 C 110.868 -6.26805 -0.854309 0
M  V30 1102 C 109.532 -6.63861 -0.696011 0
M  V30 1103 H 108.802 -0.589691 -0.448715 0
M  V30 1104 H 111.449 -1.84228 -0.522705 0
M  V30 1105 H 109.754 -2.44937 -3.05799 0
M  V30 1106 H 111.451 -2.79534 -2.87509 0
M  V30 1107 H 108.041 -3.8434 -1.89685 0
M  V30 1108 H 112.225 -4.73474 -1.4878 0
M  V30 1109 H 107.481 -6.04027 -0.946666 0
M  V30 1110 H 111.655 -6.94258 -0.545843 0
M  V30 1111 H 109.282 -7.59722 -0.26952 0
M  V30 1112 N 110.857 0.726932 -1.39834 0
M  V30 1113 C 111.82 1.82269 -1.38962 0
M  V30 1114 C 112.82 1.58248 -0.285334 0
M  V30 1115 O 114.01 1.65499 -0.54366 0
M  V30 1116 C 111.142 3.20186 -1.17019 0
M  V30 1117 H 112.335 1.84443 -2.36476 0
M  V30 1118 H 109.888 0.931416 -1.25516 0
M  V30 1119 H 110.623 3.23669 -0.202204 0
M  V30 1120 H 110.408 3.3902 -1.96998 0
M  V30 1121 H 111.898 4.00235 -1.1917 0
M  V30 1122 N 112.336 1.25143 0.95797 0
M  V30 1123 C 113.268 1.01023 2.05735 0
M  V30 1124 C 114.281 -0.0236902 1.62783 0
M  V30 1125 O 115.47 0.21448 1.77207 0
M  V30 1126 C 112.57 0.504595 3.35122 0
M  V30 1127 C 111.743 1.6039 4.06932 0
M  V30 1128 C 110.802 1.09922 5.14591 0
M  V30 1129 O 109.828 1.79293 5.40225 0
M  V30 1130 N 111.03 -0.0612545 5.80468 0
M  V30 1131 H 113.795 1.95683 2.26998 0
M  V30 1132 H 111.356 1.16303 1.12629 0
M  V30 1133 H 113.348 0.151516 4.04416 0
M  V30 1134 H 111.918 -0.347989 3.10657 0
M  V30 1135 H 111.138 2.12872 3.31782 0
M  V30 1136 H 112.426 2.34252 4.51667 0
M  V30 1137 H 111.824 -0.640985 5.62057 0
M  V30 1138 H 110.381 -0.355395 6.5083 0
M  V30 1139 N 113.814 -1.1601 1.06675 0
M  V30 1140 C 114.761 -2.20525 0.680967 0
M  V30 1141 C 115.731 -1.62904 -0.324283 0
M  V30 1142 O 116.916 -1.89615 -0.212294 0
M  V30 1143 C 114.056 -3.45013 0.0776551 0
M  V30 1144 C 113.169 -4.16863 1.13355 0
M  V30 1145 C 112.304 -5.2888 0.49597 0
M  V30 1146 C 111.343 -5.92537 1.53513 0
M  V30 1147 N 110.48 -6.96038 0.920631 0
M  V30 1148 H 115.32 -2.52876 1.57663 0
M  V30 1149 H 112.857 -1.24199 0.788223 0
M  V30 1150 H 114.815 -4.16193 -0.289704 0
M  V30 1151 H 113.445 -3.132 -0.781393 0
M  V30 1152 H 112.497 -3.44248 1.61857 0
M  V30 1153 H 113.809 -4.60294 1.92174 0
M  V30 1154 H 112.963 -6.06653 0.0758604 0
M  V30 1155 H 111.702 -4.86622 -0.324062 0
M  V30 1156 H 110.707 -5.13482 1.9651 0
M  V30 1157 H 111.932 -6.36873 2.35733 0
M  V30 1158 H 109.878 -6.55888 0.12138 0
M  V30 1159 H 109.795 -7.3786 1.64616 0
M  V30 1160 H 111.063 -7.77725 0.525795 0
M  V30 1161 N 115.292 -0.849877 -1.32721 0
M  V30 1162 C 116.54 -0.450032 -1.97026 0
M  V30 1163 C 116.861 0.996604 -1.67609 0
M  V30 1164 O 116.131 1.6958 -0.980786 0
M  V30 1165 H 114.711 -0.163426 -0.728904 0
M  V30 1166 H 117.373 -1.08526 -1.6189 0
M  V30 1167 H 116.469 -0.591146 -3.0645 0
M  V30 1168 N 116.77 1.45427 -0.607355 0
M  V30 1169 C 117.998 2.06614 -0.108814 0
M  V30 1170 C 118.413 1.45204 1.2067 0
M  V30 1171 O 117.77 0.566132 1.73497 0
M  V30 1172 C 117.821 3.61481 0.0375347 0
M  V30 1173 O 117.542 4.20598 -1.22593 0
M  V30 1174 C 119.043 4.39652 0.567561 0
M  V30 1175 H 116.263 0.66747 -0.0687351 0
M  V30 1176 H 118.807 1.86675 -0.835022 0
M  V30 1177 H 116.962 3.80762 0.714068 0
M  V30 1178 H 117.376 5.1377 -1.05547 0
M  V30 1179 H 118.85 5.48518 0.61905 0
M  V30 1180 H 119.327 4.09417 1.58978 0
M  V30 1181 H 119.933 4.25234 -0.0749202 0
M  V30 1182 N 118.248 0.346503 1.53744 0
M  V30 1183 C 119.495 -0.249104 2.00962 0
M  V30 1184 C 119.823 -1.5032 1.23426 0
M  V30 1185 O 119.078 -1.93217 0.310761 0
M  V30 1186 C 119.377 -0.605809 3.52228 0
M  V30 1187 C 119.043 0.551747 4.47512 0
M  V30 1188 C 117.705 0.86941 4.73281 0
M  V30 1189 C 120.057 1.32818 5.03993 0
M  V30 1190 C 117.385 1.96582 5.52786 0
M  V30 1191 C 119.737 2.41486 5.84694 0
M  V30 1192 C 118.401 2.73808 6.08757 0
M  V30 1193 H 117.671 -0.0911538 0.735372 0
M  V30 1194 H 120.318 0.475027 1.85515 0
M  V30 1195 H 118.623 -1.4107 3.65522 0
M  V30 1196 H 120.32 -1.07858 3.86222 0
M  V30 1197 H 116.91 0.294102 4.2759 0
M  V30 1198 H 121.094 1.09602 4.84047 0
M  V30 1199 H 116.35 2.22045 5.69654 0
M  V30 1200 H 120.524 3.02078 6.27473 0
M  V30 1201 H 118.151 3.58892 6.7015 0
M  V30 1202 N 119.726 -1.57421 0.075193 0
M  V30 1203 C 121.137 -1.81021 -0.456964 0
M  V30 1204 C 121.488 -0.98936 -1.69429 0
M  V30 1205 O 120.613 -0.212865 -2.15351 0
M  V30 1206 C 121.208 -3.28329 -0.83581 0
M  V30 1207 C 119.767 -3.52764 -1.31281 0
M  V30 1208 C 118.914 -2.75676 -0.299648 0
M  V30 1209 H 121.865 -1.55822 0.300856 0
M  V30 1210 H 121.886 -3.40564 -1.69696 0
M  V30 1211 H 121.398 -3.88046 0.0649238 0
M  V30 1212 H 119.499 -2.98355 -2.23193 0
M  V30 1213 H 119.612 -4.61451 -1.28839 0
M  V30 1214 H 117.976 -2.42538 -0.777641 0
M  V30 1215 H 118.759 -3.38132 0.593417 0
M  V30 1216 N 121.204 0.198386 -1.56346 0
M  V30 1217 C 122.45 0.916115 -1.81601 0
M  V30 1218 C 122.805 1.81025 -0.651744 0
M  V30 1219 O 122.098 1.88316 0.353229 0
M  V30 1220 C 122.292 1.77031 -3.10475 0
M  V30 1221 C 122.121 0.960365 -4.39326 0
M  V30 1222 C 120.891 0.646093 -5.01152 0
M  V30 1223 C 123.089 0.314628 -5.13337 0
M  V30 1224 N 121.071 -0.182828 -6.13628 0
M  V30 1225 C 122.442 -0.37664 -6.18855 0
M  V30 1226 C 124.497 0.230019 -4.97368 0
M  V30 1227 C 123.2 -1.14445 -7.10137 0
M  V30 1228 C 125.226 -0.524389 -5.89071 0
M  V30 1229 C 124.588 -1.20412 -6.94032 0
M  V30 1230 H 120.687 0.314732 -0.715868 0
M  V30 1231 H 123.271 0.185102 -1.93818 0
M  V30 1232 H 121.442 2.47295 -2.99499 0
M  V30 1233 H 123.174 2.42727 -3.2383 0
M  V30 1234 H 119.929 0.969724 -4.63566 0
M  V30 1235 H 120.353 -0.586802 -6.74452 0
M  V30 1236 H 124.995 0.741184 -4.16253 0
M  V30 1237 H 122.713 -1.66706 -7.90718 0
M  V30 1238 H 126.299 -0.591167 -5.78789 0
M  V30 1239 H 125.179 -1.77853 -7.63766 0
M  V30 1240 N 122.682 1.50554 0.465978 0
M  V30 1241 C 123.614 1.65949 1.58093 0
M  V30 1242 C 124.627 0.540827 1.53554 0
M  V30 1243 O 125.816 0.814187 1.5885 0
M  V30 1244 C 122.916 1.63261 2.96983 0
M  V30 1245 C 122.089 2.91245 3.26336 0
M  V30 1246 C 121.148 2.8113 4.44806 0
M  V30 1247 O 120.174 3.55086 4.44862 0
M  V30 1248 N 121.376 1.95032 5.46756 0
M  V30 1249 H 124.141 2.62122 1.45301 0
M  V30 1250 H 121.702 1.48082 0.65448 0
M  V30 1251 H 123.694 1.54101 3.74212 0
M  V30 1252 H 122.264 0.748032 3.03518 0
M  V30 1253 H 121.484 3.14493 2.37672 0
M  V30 1254 H 122.772 3.76022 3.42761 0
M  V30 1255 H 122.17 1.3427 5.49534 0
M  V30 1256 H 120.727 1.91772 6.2295 0
M  V30 1257 N 124.16 -0.719506 1.40217 0
M  V30 1258 C 125.093 -1.84298 1.34571 0
M  V30 1259 C 126.071 -1.61149 0.216741 0
M  V30 1260 O 127.255 -1.84212 0.399756 0
M  V30 1261 C 124.382 -3.20568 1.09335 0
M  V30 1262 C 123.428 -3.62551 2.24631 0
M  V30 1263 S 124.261 -3.7012 3.87004 0
M  V30 1264 C 125.417 -5.09154 3.64024 0
M  V30 1265 H 125.65 -1.88807 2.2965 0
M  V30 1266 H 123.183 -0.885901 1.26456 0
M  V30 1267 H 125.141 -3.99246 0.954602 0
M  V30 1268 H 123.802 -3.13696 0.159164 0
M  V30 1269 H 122.995 -4.61483 2.02606 0
M  V30 1270 H 122.597 -2.91119 2.34789 0
M  V30 1271 H 124.889 -5.95955 3.22248 0
M  V30 1272 H 125.832 -5.36213 4.62473 0
M  V30 1273 H 126.24 -4.79562 2.97793 0
M  V30 1274 N 125.638 -1.25649 -0.95132 0
M  V30 1275 C 127.049 -1.09654 -1.51106 0
M  V30 1276 C 127.4 0.326615 -1.93462 0
M  V30 1277 O 126.525 1.21697 -1.78938 0
M  V30 1278 C 127.12 -1.98437 -2.74605 0
M  V30 1279 C 125.679 -1.86618 -3.2688 0
M  V30 1280 C 124.826 -1.9239 -1.99703 0
M  V30 1281 H 127.777 -1.38887 -0.767865 0
M  V30 1282 H 127.798 -1.5263 -3.48546 0
M  V30 1283 H 127.31 -3.02009 -2.43746 0
M  V30 1284 H 125.411 -0.859421 -3.62553 0
M  V30 1285 H 125.524 -2.71607 -3.94673 0
M  V30 1286 H 123.888 -1.36317 -2.15151 0
M  V30 1287 H 124.671 -2.97573 -1.71188 0
M  V30 1288 N 127.117 1.15442 -1.07289 0
M  V30 1289 C 128.364 1.86213 -0.795668 0
M  V30 1290 C 128.692 1.82291 0.678238 0
M  V30 1291 O 127.947 1.24057 1.51355 0
M  V30 1292 C 128.246 3.3489 -1.24834 0
M  V30 1293 C 127.912 3.59007 -2.72809 0
M  V30 1294 C 126.574 3.65298 -3.13227 0
M  V30 1295 C 128.926 3.68762 -3.68326 0
M  V30 1296 C 126.254 3.78854 -4.4798 0
M  V30 1297 C 128.606 3.83842 -5.0284 0
M  V30 1298 C 127.27 3.88378 -5.4288 0
M  V30 1299 H 126.54 0.681403 -0.291155 0
M  V30 1300 H 129.187 1.36435 -1.34379 0
M  V30 1301 H 127.492 3.8687 -0.619595 0
M  V30 1302 H 129.189 3.88052 -1.01076 0
M  V30 1303 H 125.779 3.5475 -2.40521 0
M  V30 1304 H 129.963 3.63202 -3.38227 0
M  V30 1305 H 125.219 3.80623 -4.78472 0
M  V30 1306 H 129.393 3.90332 -5.76727 0
M  V30 1307 H 127.02 3.98635 -6.47298 0
M  V30 1308 N 128.595 0.856903 1.32268 0
M  V30 1309 C 129.841 0.471355 1.97863 0
M  V30 1310 C 130.196 -0.962896 1.66572 0
M  V30 1311 O 129.489 -1.66686 0.944797 0
M  V30 1312 C 129.683 0.649919 3.51441 0
M  V30 1313 C 129.512 2.09997 3.97657 0
M  V30 1314 C 128.282 2.73893 4.2463 0
M  V30 1315 C 130.48 3.07081 4.1256 0
M  V30 1316 N 128.462 4.09786 4.57109 0
M  V30 1317 C 129.833 4.27968 4.48602 0
M  V30 1318 C 131.888 3.03247 3.949 0
M  V30 1319 C 130.591 5.45521 4.68827 0
M  V30 1320 C 132.617 4.20046 4.16311 0
M  V30 1321 C 131.979 5.39692 4.52672 0
M  V30 1322 H 128.078 0.221263 0.750044 0
M  V30 1323 H 130.662 1.10876 1.60045 0
M  V30 1324 H 128.833 0.0421938 3.88377 0
M  V30 1325 H 130.565 0.234044 4.04023 0
M  V30 1326 H 127.32 2.24918 4.16784 0
M  V30 1327 H 127.744 4.7989 4.7753 0
M  V30 1328 H 132.386 2.11863 3.65888 0
M  V30 1329 H 130.104 6.37434 4.96693 0
M  V30 1330 H 133.69 4.18517 4.04147 0
M  V30 1331 H 132.57 6.28566 4.68907 0
M  V30 1332 N 130.073 -1.45103 0.615059 0
M  V30 1333 C 131.298 -2.07064 0.117988 0
M  V30 1334 C 131.723 -1.4554 -1.19163 0
M  V30 1335 O 131.081 -0.550855 -1.72729 0
M  V30 1336 C 131.129 -3.606 -0.000288387 0
M  V30 1337 O 130.233 -3.98847 -1.04856 0
M  V30 1338 H 129.574 -0.659467 0.0774581 0
M  V30 1339 H 132.104 -1.86236 0.847186 0
M  V30 1340 H 132.114 -4.07529 -0.196091 0
M  V30 1341 H 130.789 -4.04765 0.955932 0
M  V30 1342 H 129.366 -3.63577 -0.828619 0
M  V30 1343 N 131.551 -0.354651 -1.53558 0
M  V30 1344 C 132.781 0.239167 -2.05211 0
M  V30 1345 C 133.189 1.43879 -1.22863 0
M  V30 1346 O 132.532 1.81857 -0.259565 0
M  V30 1347 C 132.594 0.707251 -3.52474 0
M  V30 1348 C 132.258 -0.374212 -4.55465 0
M  V30 1349 C 133.255 -1.22054 -5.0537 0
M  V30 1350 C 130.94 -0.531323 -4.99482 0
M  V30 1351 C 132.934 -2.20942 -5.97882 0
M  V30 1352 C 130.621 -1.52358 -5.91802 0
M  V30 1353 C 131.619 -2.36108 -6.40892 0
M  V30 1354 O 131.307 -3.33643 -7.31394 0
M  V30 1355 H 131.039 0.0479716 -0.674296 0
M  V30 1356 H 133.593 -0.508121 -1.99016 0
M  V30 1357 H 131.823 1.50596 -3.56171 0
M  V30 1358 H 133.512 1.22285 -3.87042 0
M  V30 1359 H 134.278 -1.1103 -4.7212 0
M  V30 1360 H 130.157 0.110738 -4.60867 0
M  V30 1361 H 133.701 -2.86348 -6.36121 0
M  V30 1362 H 129.598 -1.63434 -6.24467 0
M  V30 1363 H 130.366 -3.29244 -7.4936 0
M  V30 1364 N 133.029 1.57378 -0.0835403 0
M  V30 1365 C 133.939 2.16897 0.894021 0
M  V30 1366 C 134.955 1.13528 1.31861 0
M  V30 1367 O 136.131 1.45848 1.3889 0
M  V30 1368 C 133.196 2.72831 2.13925 0
M  V30 1369 C 132.257 3.91115 1.76997 0
M  V30 1370 C 131.49 4.44371 2.95584 0
M  V30 1371 O 131.713 3.96596 4.09961 0
M  V30 1372 O 130.647 5.35549 2.74719 0
M  V30 1373 H 134.473 3.00814 0.417679 0
M  V30 1374 H 132.058 1.48741 0.140181 0
M  V30 1375 H 133.94 3.0863 2.86924 0
M  V30 1376 H 132.615 1.91967 2.60635 0
M  V30 1377 H 131.522 3.60148 1.01214 0
M  V30 1378 H 132.855 4.73307 1.3506 0
M  V30 1379 N 134.507 -0.190092 1.56449 0
M  V30 1380 C 135.732 -0.929864 1.85387 0
M  V30 1381 C 136.157 -1.7585 0.667704 0
M  V30 1382 O 135.515 -1.77198 -0.383459 0
M  V30 1383 C 135.563 -1.79773 3.12593 0
M  V30 1384 O 134.667 -2.89713 2.93496 0
M  V30 1385 H 134.008 -0.261574 0.610307 0
M  V30 1386 H 136.538 -0.193896 2.03679 0
M  V30 1387 H 136.548 -2.20139 3.43515 0
M  V30 1388 H 135.223 -1.18892 3.98544 0
M  V30 1389 H 133.8 -2.53065 2.73884 0
M  V30 1390 N 135.985 -1.50799 -0.457987 0
M  V30 1391 C 136.915 -1.73553 -1.5621 0
M  V30 1392 C 137.896 -0.584774 -1.59732 0
M  V30 1393 O 139.081 -0.825314 -1.7579 0
M  V30 1394 C 136.211 -1.84169 -2.94447 0
M  V30 1395 C 135.165 -2.99461 -3.0579 0
M  V30 1396 C 134.491 -2.95235 -4.45803 0
M  V30 1397 C 135.791 -4.39766 -2.81786 0
M  V30 1398 H 137.485 -2.66 -1.37421 0
M  V30 1399 H 135.031 -1.28002 -0.659662 0
M  V30 1400 H 136.984 -1.98672 -3.71628 0
M  V30 1401 H 135.708 -0.883545 -3.14422 0
M  V30 1402 H 134.367 -2.8463 -2.31044 0
M  V30 1403 H 134.015 -1.97239 -4.62715 0
M  V30 1404 H 133.715 -3.72642 -4.54326 0
M  V30 1405 H 135.239 -3.11803 -5.24987 0
M  V30 1406 H 136.653 -4.55054 -3.4871 0
M  V30 1407 H 135.05 -5.18722 -3.0174 0
M  V30 1408 H 136.12 -4.51229 -1.7754 0
M  V30 1409 N 137.463 0.71206 -1.40597 0
M  V30 1410 C 138.396 1.83582 -1.35546 0
M  V30 1411 C 139.374 1.61032 -0.225284 0
M  V30 1412 O 140.558 1.83998 -0.409519 0
M  V30 1413 C 137.685 3.19983 -1.11034 0
M  V30 1414 C 136.731 3.61355 -2.2655 0
M  V30 1415 S 137.564 3.68062 -3.88961 0
M  V30 1416 C 138.72 5.07216 -3.66719 0
M  V30 1417 H 138.953 1.87586 -2.30648 0
M  V30 1418 H 136.486 0.879182 -1.26924 0
M  V30 1419 H 138.444 3.98734 -0.975761 0
M  V30 1420 H 137.105 3.13608 -0.175798 0
M  V30 1421 H 136.298 4.60403 -2.0505 0
M  V30 1422 H 135.9 2.8987 -2.36329 0
M  V30 1423 H 138.192 5.94238 -3.25404 0
M  V30 1424 H 139.135 5.33753 -4.6531 0
M  V30 1425 H 139.543 4.77976 -3.00332 0
M  V30 1426 N 138.941 1.26152 0.944643 0
M  V30 1427 C 140.189 1.11271 1.6871 0
M  V30 1428 C 140.51 -0.345166 1.91921 0
M  V30 1429 O 139.78 -1.24387 1.51343 0
M  V30 1430 H 138.36 0.408783 0.625224 0
M  V30 1431 H 141.022 1.58427 1.1352 0
M  V30 1432 H 140.118 1.62879 2.66227 0
M  V30 1433 N 140.419 -1.14872 1.07899 0
M  V30 1434 C 141.835 -1.37776 0.805606 0
M  V30 1435 C 142.035 -1.92743 -0.587555 0
M  V30 1436 O 141.091 -2.13678 -1.34528 0
M  V30 1437 C 142.404 -2.34361 1.88402 0
M  V30 1438 C 143.952 -2.48012 1.90942 0
M  V30 1439 C 144.427 -3.47893 2.97883 0
M  V30 1440 N 145.918 -3.55433 2.97021 0
M  V30 1441 C 146.653 -4.32553 3.76412 0
M  V30 1442 N 146.149 -5.12959 4.65666 0
M  V30 1443 N 147.942 -4.27697 3.64735 0
M  V30 1444 H 140.093 -0.775365 1.97742 0
M  V30 1445 H 142.356 -0.403521 0.857831 0
M  V30 1446 H 142.062 -2.01098 2.88535 0
M  V30 1447 H 141.936 -3.34206 1.74889 0
M  V30 1448 H 144.323 -2.8057 0.914579 0
M  V30 1449 H 144.404 -1.48147 2.08534 0
M  V30 1450 H 144.048 -3.16069 3.97571 0
M  V30 1451 H 143.978 -4.47527 2.77538 0
M  V30 1452 H 146.469 -2.98048 2.32326 0
M  V30 1453 H 146.782 -5.69065 5.22862 0
M  V30 1454 H 145.127 -5.12245 4.69712 0
M  V30 1455 H 148.318 -3.63949 2.94378 0
M  V30 1456 H 148.491 -4.8755 4.26848 0
M  V30 1457 N 141.898 -0.863906 -1.31812 0
M  V30 1458 C 143.123 -0.48527 -2.01643 0
M  V30 1459 C 143.548 0.913058 -1.64453 0
M  V30 1460 O 142.906 1.6014 -0.849985 0
M  V30 1461 C 142.954 -0.642625 -3.54828 0
M  V30 1462 O 142.058 0.320659 -4.11151 0
M  V30 1463 H 141.399 -0.193793 -0.635091 0
M  V30 1464 H 143.929 -1.16565 -1.68148 0
M  V30 1465 H 143.939 -0.533628 -4.04495 0
M  V30 1466 H 142.614 -1.66227 -3.81237 0
M  V30 1467 H 141.191 0.167126 -3.72525 0
M  V30 1468 N 143.376 1.44774 -0.622745 0
M  V30 1469 C 144.622 2.02968 -0.13257 0
M  V30 1470 C 144.977 1.48047 1.22881 0
M  V30 1471 O 144.27 0.651625 1.80179 0
M  V30 1472 C 144.464 3.57364 -0.0508323 0
M  V30 1473 C 144.293 4.27262 -1.40275 0
M  V30 1474 C 143.063 4.64577 -1.98737 0
M  V30 1475 C 145.261 4.58248 -2.3348 0
M  V30 1476 N 143.243 5.19404 -3.27251 0
M  V30 1477 C 144.614 5.14069 -3.46603 0
M  V30 1478 C 146.669 4.40195 -2.32664 0
M  V30 1479 C 145.372 5.53738 -4.59093 0
M  V30 1480 C 147.398 4.80907 -3.44213 0
M  V30 1481 C 146.76 5.36834 -4.56058 0
M  V30 1482 H 142.859 0.776541 -0.0922354 0
M  V30 1483 H 145.443 1.76385 -0.82441 0
M  V30 1484 H 143.614 3.83576 0.610265 0
M  V30 1485 H 145.346 4.02219 0.447397 0
M  V30 1486 H 142.101 4.48622 -1.51774 0
M  V30 1487 H 142.525 5.51301 -3.92933 0
M  V30 1488 H 147.167 3.96257 -1.47446 0
M  V30 1489 H 144.885 5.96635 -5.45025 0
M  V30 1490 H 148.471 4.68659 -3.44747 0
M  V30 1491 H 147.351 5.67755 -5.40947 0
M  V30 1492 N 144.854 0.36279 1.53368 0
M  V30 1493 C 146.131 -0.284021 1.93527 0
M  V30 1494 C 146.511 -1.66628 1.29608 0
M  V30 1495 O 145.859 -2.23942 0.45413 0
M  V30 1496 C 146.069 -0.337028 3.47369 0
M  V30 1497 C 147.417 -0.578708 4.20638 0
M  V30 1498 O 148.441 -0.418352 3.53735 0
M  V30 1499 O 147.3 -0.89074 5.39192 0
M  V30 1500 H 144.394 -0.169743 0.809393 0
M  V30 1501 H 146.94 0.41537 1.64538 0
M  V30 1502 H 145.712 0.632217 3.86159 0
M  V30 1503 H 145.335 -1.08243 3.82582 0
M  V30 1504 N 146.332 -1.57332 0.0918853 0
M  V30 1505 C 147.242 -2.17368 -0.882505 0
M  V30 1506 C 148.258 -1.14226 -1.31257 0
M  V30 1507 O 149.434 -1.46582 -1.38115 0
M  V30 1508 C 146.499 -2.73962 -2.12476 0
M  V30 1509 C 145.56 -3.92048 -1.7492 0
M  V30 1510 C 144.793 -4.45933 -2.93223 0
M  V30 1511 O 145.016 -3.98764 -4.07852 0
M  V30 1512 O 143.95 -5.36999 -2.71875 0
M  V30 1513 H 147.776 -3.01031 -0.40172 0
M  V30 1514 H 145.361 -1.48813 -0.132291 0
M  V30 1515 H 147.243 -3.10147 -2.85283 0
M  V30 1516 H 145.918 -1.93347 -2.59613 0
M  V30 1517 H 144.825 -3.6068 -0.993025 0
M  V30 1518 H 146.158 -4.74017 -1.32548 0
M  V30 1519 N 147.81 0.181792 -1.56548 0
M  V30 1520 C 149.221 0.745244 -1.71181 0
M  V30 1521 C 149.572 1.83262 -0.70068 0
M  V30 1522 O 148.697 2.15946 0.140154 0
M  V30 1523 C 149.292 1.35859 -3.10367 0
M  V30 1524 C 147.851 1.86898 -3.2672 0
M  V30 1525 C 146.998 0.743942 -2.67134 0
M  V30 1526 H 149.949 -0.0434661 -1.5864 0
M  V30 1527 H 149.97 2.22817 -3.08436 0
M  V30 1528 H 149.482 0.566948 -3.83937 0
M  V30 1529 H 147.583 2.68738 -2.5809 0
M  V30 1530 H 147.696 2.02162 -4.34359 0
M  V30 1531 H 146.06 1.16169 -2.26665 0
M  V30 1532 H 146.843 -0.035676 -3.43281 0
M  V30 1533 N 149.288 1.51039 0.449983 0
M  V30 1534 C 150.535 1.63081 1.20045 0
M  V30 1535 C 150.863 0.341024 1.91487 0
M  V30 1536 O 150.118 -0.674276 1.83717 0
M  V30 1537 C 150.417 2.77556 2.25161 0
M  V30 1538 C 150.083 4.17289 1.70823 0
M  V30 1539 C 148.745 4.55305 1.55725 0
M  V30 1540 C 151.097 5.04536 1.3074 0
M  V30 1541 C 148.425 5.78287 0.989999 0
M  V30 1542 C 150.777 6.28085 0.754482 0
M  V30 1543 C 149.441 6.64885 0.590308 0
M  V30 1544 H 148.711 0.596755 0.439277 0
M  V30 1545 H 151.358 1.85037 0.49333 0
M  V30 1546 H 149.663 2.49771 3.01863 0
M  V30 1547 H 151.36 2.84073 2.83026 0
M  V30 1548 H 147.95 3.8731 1.83546 0
M  V30 1549 H 152.134 4.75782 1.41229 0
M  V30 1550 H 147.39 6.05456 0.850451 0
M  V30 1551 H 151.564 6.95038 0.435324 0
M  V30 1552 H 149.191 7.60055 0.14862 0
M  V30 1553 N 150.766 -0.704594 1.40972 0
M  V30 1554 C 151.994 -1.49354 1.43182 0
M  V30 1555 C 152.409 -1.88768 0.0345508 0
M  V30 1556 O 151.766 -1.56184 -0.944081 0
M  V30 1557 C 151.817 -2.76187 2.33244 0
M  V30 1558 O 151.538 -2.38436 3.67532 0
M  V30 1559 C 153.039 -3.7 2.44162 0
M  V30 1560 H 150.259 -0.460559 0.487982 0
M  V30 1561 H 152.803 -0.868261 1.85153 0
M  V30 1562 H 150.958 -3.34974 1.94606 0
M  V30 1563 H 151.372 -3.20126 4.15475 0
M  V30 1564 H 152.846 -4.55803 3.11364 0
M  V30 1565 H 153.323 -4.13867 1.47006 0
M  V30 1566 H 153.929 -3.17121 2.83398 0
M  V30 1567 N 152.244 -1.26651 -0.937939 0
M  V30 1568 C 153.174 -1.10993 -2.05433 0
M  V30 1569 C 154.155 -0.0142161 -1.70094 0
M  V30 1570 O 155.34 -0.186837 -1.93299 0
M  V30 1571 C 152.47 -0.745561 -3.39203 0
M  V30 1572 C 151.424 -1.79337 -3.88616 0
M  V30 1573 C 150.75 -1.28324 -5.19073 0
M  V30 1574 C 152.05 -3.19553 -4.13138 0
M  V30 1575 H 153.744 -2.0438 -2.1879 0
M  V30 1576 H 151.29 -0.984041 -1.05131 0
M  V30 1577 H 153.243 -0.622888 -4.16771 0
M  V30 1578 H 151.967 0.22401 -3.25831 0
M  V30 1579 H 150.626 -1.90477 -3.13231 0
M  V30 1580 H 150.274 -0.303414 -5.02084 0
M  V30 1581 H 149.974 -1.98369 -5.53103 0
M  V30 1582 H 151.498 -1.1733 -5.99221 0
M  V30 1583 H 152.912 -3.11471 -4.81309 0
M  V30 1584 H 151.309 -3.87218 -4.58457 0
M  V30 1585 H 152.379 -3.65368 -3.18801 0
M  V30 1586 N 153.722 1.14298 -1.08507 0
M  V30 1587 C 154.952 1.88945 -0.835663 0
M  V30 1588 C 155.36 1.78894 0.615928 0
M  V30 1589 O 154.703 1.1468 1.43506 0
M  V30 1590 C 154.765 3.39585 -1.17994 0
M  V30 1591 C 154.429 3.7342 -2.63451 0
M  V30 1592 C 155.426 3.73454 -3.61702 0
M  V30 1593 C 153.111 4.03368 -2.99332 0
M  V30 1594 C 155.105 4.02961 -4.93864 0
M  V30 1595 C 152.792 4.32538 -4.31687 0
M  V30 1596 C 153.79 4.32318 -5.28763 0
M  V30 1597 O 153.478 4.6078 -6.58739 0
M  V30 1598 H 153.21 0.605307 -0.300965 0
M  V30 1599 H 155.764 1.45673 -1.44806 0
M  V30 1600 H 153.994 3.83315 -0.51055 0
M  V30 1601 H 155.683 3.9554 -0.911182 0
M  V30 1602 H 156.449 3.50403 -3.35325 0
M  V30 1603 H 152.328 4.02692 -2.24411 0
M  V30 1604 H 155.872 4.02704 -5.69627 0
M  V30 1605 H 151.769 4.55059 -4.57812 0
M  V30 1606 H 152.537 4.78492 -6.64069 0
M  V30 1607 N 155.201 0.870884 1.31352 0
M  V30 1608 C 156.449 0.48132 1.96285 0
M  V30 1609 C 156.77 -0.969813 1.69173 0
M  V30 1610 O 156.04 -1.67998 1.00764 0
M  V30 1611 H 154.62 0.175002 0.726212 0
M  V30 1612 H 157.282 1.11087 1.60143 0
M  V30 1613 H 156.378 0.639825 3.05471 0
M  V30 1614 N 156.679 -1.44442 0.630414 0
M  V30 1615 C 157.609 -2.33418 -0.0618083 0
M  V30 1616 C 158.59 -1.48165 -0.835541 0
M  V30 1617 O 159.775 -1.76886 -0.801564 0
M  V30 1618 C 156.905 -3.31222 -1.04449 0
M  V30 1619 C 155.859 -4.26288 -0.382436 0
M  V30 1620 C 155.185 -5.13954 -1.47497 0
M  V30 1621 C 156.485 -5.1744 0.710865 0
M  V30 1622 H 158.179 -2.91548 0.681184 0
M  V30 1623 H 155.725 -1.40191 0.329026 0
M  V30 1624 H 157.678 -3.92351 -1.53748 0
M  V30 1625 H 156.402 -2.71299 -1.81836 0
M  V30 1626 H 155.061 -3.6649 0.0899054 0
M  V30 1627 H 154.709 -4.50385 -2.2397 0
M  V30 1628 H 154.409 -5.7837 -1.03737 0
M  V30 1629 H 155.933 -5.77955 -1.96979 0
M  V30 1630 H 157.347 -5.72509 0.300996 0
M  V30 1631 H 155.744 -5.90455 1.07156 0
M  V30 1632 H 156.814 -4.58496 1.57829 0
M  V30 1633 N 158.157 -0.370918 -1.53173 0
M  V30 1634 C 159.087 0.464847 -2.28826 0
M  V30 1635 C 160.068 1.07936 -1.31468 0
M  V30 1636 O 161.253 1.0956 -1.60344 0
M  V30 1637 C 158.383 1.60196 -3.08147 0
M  V30 1638 C 157.337 1.11443 -4.13237 0
M  V30 1639 C 156.663 2.3422 -4.80672 0
M  V30 1640 C 157.963 0.195384 -5.21934 0
M  V30 1641 H 159.657 -0.166329 -2.98938 0
M  V30 1642 H 157.203 -0.0814359 -1.4377 0
M  V30 1643 H 159.156 2.19332 -3.59822 0
M  V30 1644 H 157.88 2.26045 -2.35735 0
M  V30 1645 H 156.539 0.545727 -3.62515 0
M  V30 1646 H 156.187 2.98537 -4.04827 0
M  V30 1647 H 155.887 2.02269 -5.51689 0
M  V30 1648 H 157.411 2.94032 -5.35143 0
M  V30 1649 H 158.825 0.694375 -5.69079 0
M  V30 1650 H 157.222 -0.0335027 -6.00091 0
M  V30 1651 H 158.292 -0.760961 -4.78892 0
M  V30 1652 N 159.635 1.57281 -0.100228 0
M  V30 1653 C 160.598 2.13158 0.842398 0
M  V30 1654 C 161.598 1.06202 1.20738 0
M  V30 1655 O 162.788 1.32066 1.13597 0
M  V30 1656 C 159.92 2.65639 2.13655 0
M  V30 1657 H 161.113 2.97766 0.357114 0
M  V30 1658 H 158.666 1.5559 0.148823 0
M  V30 1659 H 159.401 1.84566 2.66657 0
M  V30 1660 H 159.186 3.43844 1.88451 0
M  V30 1661 H 160.676 3.08846 2.81077 0
M  V30 1662 N 161.113 -0.173488 1.56642 0
M  V30 1663 C 162.023 -1.23482 1.99473 0
M  V30 1664 C 163.039 -1.48567 0.905752 0
M  V30 1665 O 164.215 -1.60758 1.21321 0
M  V30 1666 C 161.28 -2.55444 2.34413 0
M  V30 1667 C 160.341 -2.38241 3.57127 0
M  V30 1668 C 159.574 -3.63909 3.90392 0
M  V30 1669 O 159.797 -4.68996 3.24653 0
M  V30 1670 O 158.731 -3.58149 4.83749 0
M  V30 1671 H 162.557 -0.901279 2.90018 0
M  V30 1672 H 160.142 -0.380185 1.44482 0
M  V30 1673 H 162.024 -3.33292 2.57865 0
M  V30 1674 H 160.699 -2.88382 1.4703 0
M  V30 1675 H 159.606 -1.58431 3.38896 0
M  V30 1676 H 160.939 -2.10228 4.45045 0
M  V30 1677 N 162.591 -1.51276 -0.441967 0
M  V30 1678 C 163.816 -1.67799 -1.21895 0
M  V30 1679 C 164.241 -0.372864 -1.84367 0
M  V30 1680 O 163.599 0.666501 -1.68604 0
M  V30 1681 C 163.647 -2.79199 -2.28211 0
M  V30 1682 O 162.751 -2.42479 -3.33583 0
M  V30 1683 H 162.092 -0.559649 -0.357336 0
M  V30 1684 H 164.622 -1.97815 -0.522522 0
M  V30 1685 H 164.632 -3.03146 -2.73069 0
M  V30 1686 H 163.307 -3.73906 -1.82118 0
M  V30 1687 H 161.884 -2.29087 -2.94234 0
M  V30 1688 N 164.069 0.697108 -1.41344 0
M  V30 1689 C 165.315 1.4593 -1.40827 0
M  V30 1690 C 165.648 1.94193 -0.0167098 0
M  V30 1691 O 164.923 1.69425 0.955263 0
M  V30 1692 C 165.206 2.67229 -2.41373 0
M  V30 1693 C 165.059 2.24741 -3.8963 0
M  V30 1694 C 166.378 3.69423 -2.39196 0
M  V30 1695 H 163.497 0.529303 -0.512842 0
M  V30 1696 H 166.139 0.794112 -1.72609 0
M  V30 1697 H 164.289 3.23982 -2.14401 0
M  V30 1698 H 165.961 1.73327 -4.27499 0
M  V30 1699 H 164.204 1.56542 -4.0457 0
M  V30 1700 H 164.875 3.1177 -4.55525 0
M  V30 1701 H 167.351 3.2234 -2.63128 0
M  V30 1702 H 166.227 4.51907 -3.11563 0
M  V30 1703 H 166.488 4.19012 -1.41001 0
M  V30 1704 N 165.547 1.27147 0.931209 0
M  V30 1705 C 166.457 1.11372 2.06478 0
M  V30 1706 C 167.473 0.044645 1.73943 0
M  V30 1707 O 168.649 0.250417 1.99837 0
M  V30 1708 C 165.714 0.758838 3.38294 0
M  V30 1709 C 164.775 1.90841 3.84549 0
M  V30 1710 C 164.008 1.57036 5.10074 0
M  V30 1711 O 164.231 0.476645 5.68405 0
M  V30 1712 O 163.165 2.40839 5.51616 0
M  V30 1713 H 166.991 2.06493 2.22698 0
M  V30 1714 H 164.576 1.06301 1.04978 0
M  V30 1715 H 166.458 0.574098 4.17471 0
M  V30 1716 H 165.133 -0.162879 3.2329 0
M  V30 1717 H 164.04 2.14819 3.06274 0
M  V30 1718 H 165.373 2.81021 4.04089 0
M  V30 1719 N 167.025 -1.13721 1.09112 0
M  V30 1720 C 168.271 -1.85198 0.826414 0
M  V30 1721 C 168.604 -1.83129 -0.646319 0
M  V30 1722 O 167.879 -1.2671 -1.47563 0
M  V30 1723 C 168.162 -3.33507 1.35812 0
M  V30 1724 C 168.015 -3.44108 2.89672 0
M  V30 1725 C 169.334 -4.28838 0.989256 0
M  V30 1726 H 166.453 -0.67243 0.301675 0
M  V30 1727 H 169.095 -1.33499 1.35197 0
M  V30 1728 H 167.245 -3.77666 0.911082 0
M  V30 1729 H 168.917 -3.08684 3.428 0
M  V30 1730 H 167.16 -2.85087 3.26967 0
M  V30 1731 H 167.831 -4.48388 3.21951 0
M  V30 1732 H 170.307 -3.92734 1.37475 0
M  V30 1733 H 169.183 -5.31051 1.38838 0
M  V30 1734 H 169.444 -4.4198 -0.102924 0
M  V30 1735 N 168.503 -0.877838 -1.30888 0
M  V30 1736 C 169.914 -0.544193 -1.78593 0
M  V30 1737 C 170.265 0.939301 -1.72254 0
M  V30 1738 O 169.39 1.7337 -1.29505 0
M  V30 1739 C 169.985 -0.98105 -3.24285 0
M  V30 1740 C 168.544 -0.698935 -3.69854 0
M  V30 1741 C 167.691 -1.168 -2.51502 0
M  V30 1742 H 170.642 -1.06278 -1.17859 0
M  V30 1743 H 170.663 -0.307009 -3.79259 0
M  V30 1744 H 170.175 -2.06079 -3.28866 0
M  V30 1745 H 168.276 0.369112 -3.70767 0
M  V30 1746 H 168.389 -1.28148 -4.61644 0
M  V30 1747 H 166.753 -0.587535 -2.47831 0
M  V30 1748 H 167.536 -2.25533 -2.58824 0
M  V30 1749 N 169.982 1.44106 -0.638065 0
M  V30 1750 C 171.393 1.85316 -0.226894 0
M  V30 1751 C 171.744 1.53399 1.22324 0
M  V30 1752 O 170.869 0.975463 1.93167 0
M  V30 1753 C 171.464 3.3637 -0.405013 0
M  V30 1754 C 170.023 3.76369 -0.0482902 0
M  V30 1755 C 169.17 2.67921 -0.715108 0
M  V30 1756 H 172.121 1.34474 -0.842764 0
M  V30 1757 H 172.142 3.7885 0.354 0
M  V30 1758 H 171.654 3.59569 -1.46053 0
M  V30 1759 H 169.755 3.58784 1.00522 0
M  V30 1760 H 169.868 4.76856 -0.463187 0
M  V30 1761 H 168.232 2.54259 -0.149753 0
M  V30 1762 H 169.015 2.93951 -1.77335 0
M  V30 1763 N 171.46 0.379036 1.52974 0
M  V30 1764 C 172.737 -0.263479 1.93817 0
M  V30 1765 C 173.117 -1.65244 1.31368 0
M  V30 1766 O 172.465 -2.23448 0.477856 0
M  V30 1767 C 172.675 -0.300166 3.47707 0
M  V30 1768 C 174.023 -0.534061 4.21228 0
M  V30 1769 O 175.047 -0.38081 3.54159 0
M  V30 1770 O 173.906 -0.833501 5.40106 0
M  V30 1771 H 171 -0.161149 0.811147 0
M  V30 1772 H 173.546 0.432798 1.64088 0
M  V30 1773 H 172.318 0.673138 3.85467 0
M  V30 1774 H 171.941 -1.04179 3.83709 0
M  V30 1775 N 172.938 -1.57226 0.108567 0
M  V30 1776 C 174.354 -1.5766 -0.248058 0
M  V30 1777 C 174.554 -1.12063 -1.67464 0
M  V30 1778 O 173.61 -0.803236 -2.39383 0
M  V30 1779 C 174.923 -3.0069 -0.0242287 0
M  V30 1780 C 176.471 -3.12868 -0.0909372 0
M  V30 1781 C 176.946 -4.57879 0.105067 0
M  V30 1782 N 178.437 -4.63172 0.0506846 0
M  V30 1783 C 179.172 -5.73126 0.177396 0
M  V30 1784 N 178.668 -6.91866 0.359696 0
M  V30 1785 N 180.461 -5.61977 0.117709 0
M  V30 1786 H 172.612 -1.85169 1.04049 0
M  V30 1787 H 174.875 -0.85529 0.40888 0
M  V30 1788 H 174.581 -3.38299 0.961604 0
M  V30 1789 H 174.455 -3.6945 -0.76068 0
M  V30 1790 H 176.842 -2.75124 -1.06729 0
M  V30 1791 H 176.923 -2.46672 0.677225 0
M  V30 1792 H 176.567 -4.96321 1.07834 0
M  V30 1793 H 176.497 -5.22153 -0.682954 0
M  V30 1794 H 178.988 -3.778 -0.0871266 0
M  V30 1795 H 179.301 -7.71503 0.447529 0
M  V30 1796 H 177.646 -6.93874 0.395536 0
M  V30 1797 H 180.837 -4.68094 -0.0236741 0
M  V30 1798 H 181.01 -6.47627 0.219905 0
M  V30 1799 N 174.416 0.165178 -1.56732 0
M  V30 1800 C 175.379 1.18822 -1.95995 0
M  V30 1801 C 176.379 1.3685 -0.84431 0
M  V30 1802 O 177.569 1.34152 -1.11126 0
M  V30 1803 C 174.701 2.5521 -2.26011 0
M  V30 1804 H 175.894 0.851825 -2.87548 0
M  V30 1805 H 173.447 0.407857 -1.50885 0
M  V30 1806 H 174.182 2.93852 -1.37191 0
M  V30 1807 H 173.967 2.43489 -3.07336 0
M  V30 1808 H 175.457 3.28927 -2.57288 0
M  V30 1809 N 175.894 1.51508 0.433938 0
M  V30 1810 C 177.14 1.65549 1.18173 0
M  V30 1811 C 177.495 0.368751 1.88833 0
M  V30 1812 O 176.788 -0.635616 1.8075 0
M  V30 1813 C 176.982 2.79928 2.22205 0
M  V30 1814 C 176.811 4.19601 1.61756 0
M  V30 1815 C 175.581 4.85489 1.40101 0
M  V30 1816 C 177.779 5.02574 1.09194 0
M  V30 1817 N 175.761 6.09266 0.752859 0
M  V30 1818 C 177.132 6.17381 0.569255 0
M  V30 1819 C 179.187 4.88079 0.984025 0
M  V30 1820 C 177.89 7.19282 -0.0507472 0
M  V30 1821 C 179.916 5.90191 0.377912 0
M  V30 1822 C 179.278 7.04272 -0.134216 0
M  V30 1823 H 175.377 0.659653 0.419979 0
M  V30 1824 H 177.961 1.88746 0.477818 0
M  V30 1825 H 176.132 2.5839 2.89982 0
M  V30 1826 H 177.864 2.83132 2.89168 0
M  V30 1827 H 174.619 4.43417 1.66369 0
M  V30 1828 H 175.043 6.75528 0.446123 0
M  V30 1829 H 179.685 4.00131 1.36583 0
M  V30 1830 H 177.403 8.06876 -0.444676 0
M  V30 1831 H 180.989 5.81045 0.296269 0
M  V30 1832 H 179.869 7.81933 -0.59585 0
M  V30 1833 N 177.372 -0.689602 1.41712 0
M  V30 1834 C 178.618 -1.45181 1.41599 0
M  V30 1835 C 178.951 -1.94181 0.0270081 0
M  V30 1836 O 178.226 -1.6993 -0.946265 0
M  V30 1837 C 178.509 -2.65945 2.42787 0
M  V30 1838 C 178.362 -2.22672 3.90816 0
M  V30 1839 C 179.681 -3.68149 2.41151 0
M  V30 1840 H 176.8 -0.526576 0.515642 0
M  V30 1841 H 179.442 -0.784947 1.73028 0
M  V30 1842 H 177.592 -3.2284 2.16116 0
M  V30 1843 H 179.264 -1.71058 4.28412 0
M  V30 1844 H 177.507 -1.54394 4.05395 0
M  V30 1845 H 178.178 -3.0935 4.57172 0
M  V30 1846 H 180.654 -3.2094 2.64834 0
M  V30 1847 H 179.53 -4.50248 3.13955 0
M  V30 1848 H 179.791 -4.18259 1.43221 0
M  V30 1849 N 178.85 -1.27639 -0.924453 0
M  V30 1850 C 179.76 -1.12466 -2.05885 0
M  V30 1851 C 180.776 -0.053869 -1.73917 0
M  V30 1852 O 181.952 -0.261012 -1.99702 0
M  V30 1853 C 179.017 -0.776768 -3.37886 0
M  V30 1854 C 178.078 -1.92878 -3.83532 0
M  V30 1855 C 177.311 -1.59739 -5.09234 0
M  V30 1856 O 177.534 -0.506782 -5.68144 0
M  V30 1857 O 176.468 -2.43761 -5.50331 0
M  V30 1858 H 180.294 -2.07671 -2.21599 0
M  V30 1859 H 177.879 -1.06857 -1.04413 0
M  V30 1860 H 179.761 -0.596229 -4.17161 0
M  V30 1861 H 178.436 0.145732 -3.23372 0
M  V30 1862 H 177.343 -2.1644 -3.0513 0
M  V30 1863 H 178.676 -2.8316 -4.02593 0
M  V30 1864 N 180.328 1.1314 -1.09713 0
M  V30 1865 C 181.575 1.84484 -0.834987 0
M  V30 1866 C 181.903 1.83689 0.639418 0
M  V30 1867 O 181.158 1.2724 1.4869 0
M  V30 1868 C 181.457 3.32167 -1.3191 0
M  V30 1869 C 181.123 3.53139 -2.80363 0
M  V30 1870 C 179.785 3.58571 -3.20905 0
M  V30 1871 C 182.137 3.60866 -3.76065 0
M  V30 1872 C 179.465 3.69267 -4.55916 0
M  V30 1873 C 181.817 3.73089 -5.10869 0
M  V30 1874 C 180.481 3.76775 -5.50996 0
M  V30 1875 H 179.751 0.675073 -0.305544 0
M  V30 1876 H 182.398 1.33554 -1.37243 0
M  V30 1877 H 180.703 3.85469 -0.701517 0
M  V30 1878 H 182.4 3.85821 -1.09284 0
M  V30 1879 H 178.99 3.49569 -2.47991 0
M  V30 1880 H 183.174 3.55946 -3.45855 0
M  V30 1881 H 178.43 3.70388 -4.86438 0
M  V30 1882 H 182.604 3.78011 -5.84877 0
M  V30 1883 H 180.231 3.84815 -6.55608 0
M  V30 1884 N 181.806 0.884767 1.30421 0
M  V30 1885 C 183.034 0.518044 2.0031 0
M  V30 1886 C 183.449 -0.893408 1.66324 0
M  V30 1887 O 182.806 -1.5875 0.900262 0
M  V30 1888 C 182.857 0.682997 3.54989 0
M  V30 1889 O 182.578 2.03888 3.87764 0
M  V30 1890 C 184.079 0.31924 4.42149 0
M  V30 1891 H 181.299 0.200265 0.640418 0
M  V30 1892 H 183.843 1.19001 1.6631 0
M  V30 1893 H 181.998 0.0584052 3.87356 0
M  V30 1894 H 182.412 2.05735 4.82466 0
M  V30 1895 H 183.886 0.485555 5.4986 0
M  V30 1896 H 184.363 -0.742717 4.32875 0
M  V30 1897 H 184.969 0.920147 4.15227 0
M  V30 1898 N 183.284 -1.43765 0.645699 0
M  V30 1899 C 184.214 -2.33471 -0.0370477 0
M  V30 1900 C 185.195 -1.49042 -0.819779 0
M  V30 1901 O 186.38 -1.77726 -0.782758 0
M  V30 1902 C 183.51 -3.32311 -1.0093 0
M  V30 1903 C 182.464 -4.2667 -0.337201 0
M  V30 1904 C 181.79 -5.1549 -1.42037 0
M  V30 1905 C 183.09 -5.16657 0.765706 0
M  V30 1906 H 184.784 -2.90809 0.712069 0
M  V30 1907 H 182.33 -1.39834 0.343876 0
M  V30 1908 H 184.283 -3.9396 -1.49578 0
M  V30 1909 H 183.007 -2.73213 -1.78948 0
M  V30 1910 H 181.666 -3.66374 0.128771 0
M  V30 1911 H 181.314 -4.52735 -2.1918 0
M  V30 1912 H 181.014 -5.79438 -0.975966 0
M  V30 1913 H 182.538 -5.80012 -1.90838 0
M  V30 1914 H 183.952 -5.72158 0.361702 0
M  V30 1915 H 182.349 -5.89286 1.13413 0
M  V30 1916 H 183.419 -4.56796 1.62683 0
M  V30 1917 N 184.763 -0.387143 -1.52771 0
M  V30 1918 C 186.179 -0.037007 -1.59557 0
M  V30 1919 C 186.379 1.44801 -1.40124 0
M  V30 1920 O 185.435 2.21227 -1.21716 0
M  V30 1921 C 186.748 -0.512256 -2.96305 0
M  V30 1922 C 188.296 -0.468328 -3.09476 0
M  V30 1923 C 188.771 -0.919731 -4.4867 0
M  V30 1924 N 190.262 -0.875656 -4.54848 0
M  V30 1925 C 190.997 -1.19637 -5.6078 0
M  V30 1926 N 190.493 -1.58745 -6.74368 0
M  V30 1927 N 192.286 -1.11776 -5.50874 0
M  V30 1928 H 184.437 -1.35395 -1.63652 0
M  V30 1929 H 186.7 -0.554818 -0.768688 0
M  V30 1930 H 186.406 -1.54935 -3.15734 0
M  V30 1931 H 186.28 0.089805 -3.77093 0
M  V30 1932 H 188.667 0.559671 -2.89744 0
M  V30 1933 H 188.748 -1.10616 -2.30646 0
M  V30 1934 H 188.392 -1.94595 -4.69143 0
M  V30 1935 H 188.322 -0.258927 -5.25963 0
M  V30 1936 H 190.813 -0.587843 -3.733 0
M  V30 1937 H 191.126 -1.81586 -7.51163 0
M  V30 1938 H 189.471 -1.6263 -6.75705 0
M  V30 1939 H 192.662 -0.811264 -4.61016 0
M  V30 1940 H 192.835 -1.37103 -6.3333 0
M  V30 1941 N 186.241 1.57166 -0.116904 0
M  V30 1942 C 187.151 2.18745 0.847812 0
M  V30 1943 C 188.167 1.163 1.29423 0
M  V30 1944 O 189.343 1.48761 1.35765 0
M  V30 1945 C 186.408 2.77307 2.0809 0
M  V30 1946 C 185.469 3.94781 1.68661 0
M  V30 1947 C 184.702 4.50541 2.86091 0
M  V30 1948 O 184.925 4.05202 4.01456 0
M  V30 1949 O 183.859 5.41256 2.63298 0
M  V30 1950 H 187.685 3.01632 0.353778 0
M  V30 1951 H 185.27 1.49005 0.108599 0
M  V30 1952 H 187.152 3.14647 2.80313 0
M  V30 1953 H 185.827 1.97452 2.56504 0
M  V30 1954 H 184.734 3.62214 0.935518 0
M  V30 1955 H 186.067 4.76065 1.24991 0
M  V30 1956 N 187.719 -0.156864 1.56817 0
M  V30 1957 C 188.629 -1.2136 2.00771 0
M  V30 1958 C 189.645 -1.47598 0.921459 0
M  V30 1959 O 190.821 -1.59462 1.2302 0
M  V30 1960 C 187.886 -2.52943 2.37109 0
M  V30 1961 C 186.947 -2.34439 3.59634 0
M  V30 1962 C 186.18 -3.59748 3.94229 0
M  V30 1963 O 186.403 -4.65526 3.29609 0
M  V30 1964 O 185.337 -3.52998 4.8752 0
M  V30 1965 H 189.163 -0.870468 2.90958 0
M  V30 1966 H 186.748 -0.36484 1.44877 0
M  V30 1967 H 188.63 -3.30538 2.61386 0
M  V30 1968 H 187.305 -2.86806 1.5008 0
M  V30 1969 H 186.212 -1.54828 3.40557 0
M  V30 1970 H 187.545 -2.05496 4.4725 0
M  V30 1971 N 189.197 -1.51736 -0.425897 0
M  V30 1972 C 190.16 -1.73271 -1.50032 0
M  V30 1973 C 191.16 -0.602639 -1.4908 0
M  V30 1974 O 192.35 -0.87033 -1.509 0
M  V30 1975 C 189.482 -1.79969 -2.89523 0
M  V30 1976 H 190.675 -2.69172 -1.32237 0
M  V30 1977 H 188.228 -1.41899 -0.65532 0
M  V30 1978 H 188.963 -0.859241 -3.1271 0
M  V30 1979 H 188.748 -2.62109 -2.91619 0
M  V30 1980 H 190.238 -1.9843 -3.67444 0
M  V30 1981 N 190.675 0.682077 -1.42076 0
M  V30 1982 C 192.091 0.994324 -1.24841 0
M  V30 1983 C 192.291 2.0096 -0.147389 0
M  V30 1984 O 191.347 2.47822 0.483782 0
M  V30 1985 C 192.66 1.50607 -2.60265 0
M  V30 1986 C 194.208 1.62421 -2.6756 0
M  V30 1987 C 194.683 2.16994 -4.03333 0
M  V30 1988 N 196.174 2.24337 -4.0525 0
M  V30 1989 C 196.909 2.67621 -5.07116 0
M  V30 1990 N 196.405 3.1041 -6.19368 0
M  V30 1991 N 198.198 2.67305 -4.94474 0
M  V30 1992 H 190.349 0.00973908 -2.12398 0
M  V30 1993 H 192.612 0.0668593 -0.945639 0
M  V30 1994 H 192.318 0.834583 -3.41654 0
M  V30 1995 H 192.192 2.48602 -2.83684 0
M  V30 1996 H 194.579 2.28678 -1.86521 0
M  V30 1997 H 194.66 0.629352 -2.47937 0
M  V30 1998 H 194.304 1.51349 -4.84826 0
M  V30 1999 H 194.234 3.17258 -4.20304 0
M  V30 2000 H 196.725 1.94158 -3.24209 0
M  V30 2001 H 197.038 3.42103 -6.92954 0
M  V30 2002 H 195.383 3.08286 -6.22884 0
M  V30 2003 H 198.574 2.33233 -4.05857 0
M  V30 2004 H 198.747 3.00718 -5.73997 0
M  V30 2005 N 192.153 1.28127 0.917671 0
M  V30 2006 C 193.4 1.15052 1.66641 0
M  V30 2007 C 193.728 -0.301677 1.92146 0
M  V30 2008 O 192.983 -1.23622 1.51711 0
M  V30 2009 C 193.282 1.89018 3.03327 0
M  V30 2010 C 192.948 3.38832 2.97496 0
M  V30 2011 C 191.61 3.79693 2.95613 0
M  V30 2012 C 193.962 4.34378 2.88036 0
M  V30 2013 C 191.29 5.14447 2.82066 0
M  V30 2014 C 193.642 5.69201 2.7603 0
M  V30 2015 C 192.306 6.09343 2.72502 0
M  V30 2016 H 191.576 0.421006 0.609783 0
M  V30 2017 H 194.223 1.58855 1.06945 0
M  V30 2018 H 192.528 1.37752 3.66785 0
M  V30 2019 H 194.225 1.76321 3.60156 0
M  V30 2020 H 190.815 3.06342 2.99754 0
M  V30 2021 H 194.999 4.03775 2.88581 0
M  V30 2022 H 190.255 5.44681 2.77728 0
M  V30 2023 H 194.429 6.42901 2.67678 0
M  V30 2024 H 192.056 7.13712 2.61762 0
M  V30 2025 N 193.631 -1.12557 1.10312 0
M  V30 2026 C 194.856 -1.88405 0.867085 0
M  V30 2027 C 195.281 -1.79038 -0.576817 0
M  V30 2028 O 194.639 -1.14439 -1.40618 0
M  V30 2029 C 194.687 -3.3563 1.31851 0
M  V30 2030 O 193.791 -4.09565 0.482734 0
M  V30 2031 H 193.132 -0.585455 0.313271 0
M  V30 2032 H 195.662 -1.42352 1.4696 0
M  V30 2033 H 195.672 -3.86469 1.3079 0
M  V30 2034 H 194.347 -3.41765 2.37001 0
M  V30 2035 H 192.924 -3.68695 0.558448 0
M  V30 2036 N 195.109 -0.891671 -1.2995 0
M  V30 2037 C 196.386 -0.433307 -1.9074 0
M  V30 2038 C 196.766 1.08646 -1.80995 0
M  V30 2039 O 196.114 1.92476 -1.23147 0
M  V30 2040 C 196.324 -0.938895 -3.36134 0
M  V30 2041 C 197.672 -0.977829 -4.13187 0
M  V30 2042 O 198.696 -0.886015 -3.45005 0
M  V30 2043 O 197.555 -1.11453 -5.35015 0
M  V30 2044 H 194.649 -0.133699 -0.816121 0
M  V30 2045 H 197.195 -0.981011 -1.38471 0
M  V30 2046 H 195.967 -1.98281 -3.37343 0
M  V30 2047 H 195.59 -0.37074 -3.95868 0
M  V30 2048 N 196.587 1.43421 -0.653314 0
M  V30 2049 C 197.835 2.01414 -0.166415 0
M  V30 2050 C 198.156 1.51803 1.22397 0
M  V30 2051 O 197.426 0.730693 1.81763 0
M  V30 2052 H 196.006 0.744703 -0.0585319 0
M  V30 2053 H 198.668 1.75629 -0.845003 0
M  V30 2054 H 197.764 3.11734 -0.151111 0
M  V30 2055 N 198.065 0.39524 1.52563 0
M  V30 2056 C 199.29 -0.187456 2.06551 0
M  V30 2057 C 199.715 -1.39249 1.26457 0
M  V30 2058 O 199.073 -1.78947 0.291151 0
M  V30 2059 C 199.121 -0.529985 3.56684 0
M  V30 2060 O 198.225 -1.62307 3.79118 0
M  V30 2061 H 197.566 -0.0202537 0.663691 0
M  V30 2062 H 200.096 0.564426 1.96661 0
M  V30 2063 H 200.106 -0.792598 4.00227 0
M  V30 2064 H 198.781 0.350987 4.14416 0
M  V30 2065 H 197.358 -1.3537 3.47461 0
M  V30 2066 N 199.544 -1.57102 0.125237 0
M  V30 2067 C 200.955 -1.82384 -0.399142 0
M  V30 2068 C 201.306 -1.04276 -1.66195 0
M  V30 2069 O 200.431 -0.281269 -2.14564 0
M  V30 2070 C 201.026 -3.30821 -0.730932 0
M  V30 2071 C 199.585 -3.56762 -1.19992 0
M  V30 2072 C 198.732 -2.7649 -0.211792 0
M  V30 2073 H 201.683 -1.54786 0.350277 0
M  V30 2074 H 201.704 -3.4579 -1.58775 0
M  V30 2075 H 201.216 -3.87643 0.188345 0
M  V30 2076 H 199.317 -3.05305 -2.13588 0
M  V30 2077 H 199.43 -4.65317 -1.14093 0
M  V30 2078 H 197.794 -2.4489 -0.700085 0
M  V30 2079 H 198.577 -3.36073 0.700691 0
M  V30 2080 N 201.022 0.148545 -1.56898 0
M  V30 2081 C 202.268 0.862694 -1.83536 0
M  V30 2082 C 202.601 1.80889 -0.706604 0
M  V30 2083 O 201.876 1.92328 0.289885 0
M  V30 2084 C 202.159 1.63853 -3.20662 0
M  V30 2085 C 202.012 0.713925 -4.44098 0
M  V30 2086 C 203.331 2.60133 -3.54991 0
M  V30 2087 H 200.45 0.312179 -0.667618 0
M  V30 2088 H 203.092 0.127953 -1.89569 0
M  V30 2089 H 201.242 2.26489 -3.1565 0
M  V30 2090 H 202.914 0.098686 -4.61194 0
M  V30 2091 H 201.157 0.0234019 -4.33794 0
M  V30 2092 H 201.828 1.29278 -5.36648 0
M  V30 2093 H 204.304 2.07616 -3.60603 0
M  V30 2094 H 203.18 3.11468 -4.51972 0
M  V30 2095 H 203.441 3.41417 -2.80868 0
M  V30 2096 N 202.5 1.5196 0.417844 0
M  V30 2097 C 203.728 1.69426 1.18753 0
M  V30 2098 C 204.143 0.399955 1.84515 0
M  V30 2099 O 203.5 -0.623288 1.71527 0
M  V30 2100 C 203.551 2.82375 2.25714 0
M  V30 2101 O 203.272 4.06793 1.62638 0
M  V30 2102 C 204.773 3.11277 3.15628 0
M  V30 2103 H 201.993 0.568031 0.357186 0
M  V30 2104 H 204.537 1.98475 0.49273 0
M  V30 2105 H 202.692 2.5587 2.90877 0
M  V30 2106 H 203.106 4.69667 2.3348 0
M  V30 2107 H 204.58 3.93843 3.86771 0
M  V30 2108 H 205.057 2.24473 3.77503 0
M  V30 2109 H 205.663 3.39515 2.56144 0
M  V30 2110 N 203.978 -0.674533 1.42435 0
M  V30 2111 C 205.224 -1.43671 1.43131 0
M  V30 2112 C 205.557 -1.94142 0.0476021 0
M  V30 2113 O 204.832 -1.70924 -0.928188 0
M  V30 2114 C 205.115 -2.63355 2.45594 0
M  V30 2115 C 204.968 -2.18514 3.93156 0
M  V30 2116 C 206.287 -3.65571 2.45043 0
M  V30 2117 H 203.406 -0.521077 0.521198 0
M  V30 2118 H 206.048 -0.766551 1.7385 0
M  V30 2119 H 204.198 -3.2053 2.19528 0
M  V30 2120 H 205.87 -1.66504 4.30202 0
M  V30 2121 H 204.113 -1.50086 4.07009 0
M  V30 2122 H 204.784 -3.04484 4.60428 0
M  V30 2123 H 207.26 -3.18113 2.68223 0
M  V30 2124 H 206.136 -4.46893 3.18713 0
M  V30 2125 H 206.397 -4.16716 1.47649 0
M  V30 2126 N 205.456 -1.28612 -0.910864 0
M  V30 2127 C 206.366 -1.14643 -2.0468 0
M  V30 2128 C 207.382 -0.0723121 -1.7385 0
M  V30 2129 O 208.558 -0.282178 -1.99413 0
M  V30 2130 C 205.623 -0.812561 -3.37044 0
M  V30 2131 C 204.684 -1.96935 -3.81465 0
M  V30 2132 C 203.917 -1.65131 -5.07511 0
M  V30 2133 O 204.14 -0.567013 -5.67575 0
M  V30 2134 O 203.074 -2.49585 -5.47714 0
M  V30 2135 H 206.9 -2.1001 -2.19384 0
M  V30 2136 H 204.485 -1.07958 -1.03274 0
M  V30 2137 H 206.367 -0.640441 -4.16505 0
M  V30 2138 H 205.042 0.111426 -3.23508 0
M  V30 2139 H 203.949 -2.19664 -3.02818 0
M  V30 2140 H 205.282 -2.87414 -3.99567 0
M  V30 2141 N 206.934 1.1197 -1.10907 0
M  V30 2142 C 208.211 1.79959 -0.766432 0
M  V30 2143 C 208.591 1.97466 0.746363 0
M  V30 2144 O 207.939 1.55491 1.67436 0
M  V30 2145 C 208.149 3.14009 -1.52314 0
M  V30 2146 C 209.497 3.89134 -1.69883 0
M  V30 2147 O 210.521 3.2368 -1.48692 0
M  V30 2148 O 209.38 5.06572 -2.05054 0
M  V30 2149 H 206.474 0.779208 -0.277062 0
M  V30 2150 H 209.02 1.18762 -1.21217 0
M  V30 2151 H 207.792 2.96587 -2.55249 0
M  V30 2152 H 207.415 3.82915 -1.07059 0
M  V30 2153 N 208.412 0.89855 1.29475 0
M  V30 2154 C 209.658 0.524658 1.95896 0
M  V30 2155 C 209.991 -0.926468 1.70676 0
M  V30 2156 O 209.266 -1.65665 1.01908 0
M  V30 2157 C 209.549 0.81633 3.50725 0
M  V30 2158 C 209.402 2.31907 3.85408 0
M  V30 2159 C 210.721 0.302038 4.39062 0
M  V30 2160 H 207.84 0.19209 0.711527 0
M  V30 2161 H 210.482 1.12502 1.53112 0
M  V30 2162 H 208.632 0.305369 3.87298 0
M  V30 2163 H 210.304 2.89949 3.58786 0
M  V30 2164 H 208.547 2.78027 3.32992 0
M  V30 2165 H 209.218 2.47373 4.93468 0
M  V30 2166 H 211.694 0.739551 4.09475 0
M  V30 2167 H 210.57 0.535331 5.46283 0
M  V30 2168 H 210.831 -0.797216 4.34853 0
M  V30 2169 N 209.89 -1.43072 0.660911 0
M  V30 2170 C 211.139 -2.00942 0.174735 0
M  V30 2171 C 211.452 -1.52797 -1.22117 0
M  V30 2172 O 212.658 -2.02991 -1.80297 0
M  V30 2173 C 211.114 -3.58948 0.261559 0
M  V30 2174 C 210.722 -4.16085 1.66064 0
M  V30 2175 C 212.466 -4.24173 -0.166617 0
M  V30 2176 C 210.373 -5.6641 1.70098 0
M  V30 2177 H 209.303 -0.751483 0.0615631 0
M  V30 2178 H 211.954 -1.63955 0.824069 0
M  V30 2179 H 210.336 -3.93372 -0.455421 0
M  V30 2180 H 211.51 -3.93147 2.40359 0
M  V30 2181 H 209.825 -3.6326 2.03546 0
M  V30 2182 H 212.422 -5.34471 -0.156433 0
M  V30 2183 H 212.765 -3.98647 -1.19943 0
M  V30 2184 H 213.298 -3.94659 0.498875 0
M  V30 2185 H 210.037 -5.96715 2.71315 0
M  V30 2186 H 209.557 -5.91382 1.00139 0
M  V30 2187 H 211.236 -6.30585 1.44816 0
M  V30 2188 N 211.368 -0.403325 -1.52352 0
M  V30 2189 C 212.614 0.167015 -2.02713 0
M  V30 2190 C 212.969 1.43296 -1.28391 0
M  V30 2191 O 212.262 1.87796 -0.379885 0
M  V30 2192 C 212.456 0.474665 -3.54234 0
M  V30 2193 C 212.285 -0.759909 -4.43233 0
M  V30 2194 C 211.055 -1.28338 -4.88731 0
M  V30 2195 C 213.253 -1.63634 -4.87574 0
M  V30 2196 N 211.235 -2.47404 -5.6184 0
M  V30 2197 C 212.606 -2.67329 -5.59406 0
M  V30 2198 C 214.661 -1.65478 -4.69597 0
M  V30 2199 C 213.364 -3.72773 -6.15169 0
M  V30 2200 C 215.39 -2.69837 -5.26253 0
M  V30 2201 C 214.752 -3.72253 -5.98002 0
M  V30 2202 H 210.851 0.0228343 -0.781667 0
M  V30 2203 H 213.435 -0.556368 -1.86581 0
M  V30 2204 H 211.606 1.16709 -3.7045 0
M  V30 2205 H 213.338 1.03338 -3.91284 0
M  V30 2206 H 210.093 -0.842273 -4.6605 0
M  V30 2207 H 210.517 -3.07688 -6.0304 0
M  V30 2208 H 215.159 -0.876389 -4.13617 0
M  V30 2209 H 212.877 -4.51471 -6.70223 0
M  V30 2210 H 216.463 -2.72164 -5.14216 0
M  V30 2211 H 215.343 -4.51679 -6.41058 0
M  V30 2212 N 212.846 1.57033 -0.133567 0
M  V30 2213 C 214.071 2.00475 0.531477 0
M  V30 2214 C 214.496 1.01291 1.58499 0
M  V30 2215 O 213.854 -0.0133279 1.81295 0
M  V30 2216 C 213.902 3.42729 1.12113 0
M  V30 2217 O 213.006 3.46498 2.23636 0
M  V30 2218 H 212.347 0.650876 0.131362 0
M  V30 2219 H 214.877 2.03344 -0.22634 0
M  V30 2220 H 214.887 3.81246 1.4531 0
M  V30 2221 H 213.562 4.14428 0.349557 0
M  V30 2222 H 212.139 3.19811 1.91769 0
M  V30 2223 N 214.325 -0.140222 1.56975 0
M  V30 2224 C 215.555 -0.865181 1.87612 0
M  V30 2225 C 215.963 -1.74942 0.72055 0
M  V30 2226 O 215.306 -1.80917 -0.318561 0
M  V30 2227 C 215.368 -1.76782 3.13031 0
M  V30 2228 C 215.032 -1.06005 4.44536 0
M  V30 2229 C 216.029 -0.410768 5.18275 0
M  V30 2230 C 213.714 -1.04754 4.91255 0
M  V30 2231 C 215.708 0.241572 6.36942 0
M  V30 2232 C 213.395 -0.391394 6.09845 0
M  V30 2233 C 214.393 0.252029 6.82535 0
M  V30 2234 O 214.081 0.897757 7.98871 0
M  V30 2235 H 213.813 -0.255188 0.625983 0
M  V30 2236 H 216.367 -0.135653 2.04952 0
M  V30 2237 H 214.597 -2.53846 2.91718 0
M  V30 2238 H 216.286 -2.36533 3.29859 0
M  V30 2239 H 217.052 -0.412195 4.83245 0
M  V30 2240 H 212.931 -1.53777 4.34596 0
M  V30 2241 H 216.475 0.744375 6.93617 0
M  V30 2242 H 212.372 -0.387656 6.44335 0
M  V30 2243 H 213.14 0.800102 8.1458 0
M  V30 2244 N 215.803 -1.52179 -0.40978 0
M  V30 2245 C 216.735 -1.71703 -1.51825 0
M  V30 2246 C 217.748 -0.597445 -1.51441 0
M  V30 2247 O 218.937 -0.872582 -1.55719 0
M  V30 2248 C 216.037 -1.74171 -2.90719 0
M  V30 2249 C 215.21 -3.03156 -3.15302 0
M  V30 2250 C 214.269 -2.97445 -4.34065 0
M  V30 2251 O 213.295 -3.71352 -4.31377 0
M  V30 2252 N 214.497 -2.15191 -5.39141 0
M  V30 2253 H 217.262 -2.67334 -1.35472 0
M  V30 2254 H 214.823 -1.50409 -0.599069 0
M  V30 2255 H 216.815 -1.67884 -3.68235 0
M  V30 2256 H 215.385 -0.860166 -3.00533 0
M  V30 2257 H 214.605 -3.23097 -2.25836 0
M  V30 2258 H 215.893 -3.88484 -3.28569 0
M  V30 2259 H 215.291 -1.54573 -5.44173 0
M  V30 2260 H 213.848 -2.1476 -6.15403 0
M  V30 2261 N 217.281 0.66697 -1.42791 0
M  V30 2262 C 218.509 1.45505 -1.47091 0
M  V30 2263 C 218.924 1.8861 -0.0845873 0
M  V30 2264 O 218.281 1.58632 0.90234 0
M  V30 2265 C 218.332 2.69906 -2.40485 0
M  V30 2266 O 218.053 2.28608 -3.73725 0
M  V30 2267 C 219.554 3.63396 -2.53886 0
M  V30 2268 H 216.774 0.447459 -0.500022 0
M  V30 2269 H 219.318 0.818866 -1.8739 0
M  V30 2270 H 217.473 3.29696 -2.03419 0
M  V30 2271 H 217.887 3.08997 -4.23817 0
M  V30 2272 H 219.361 4.47387 -3.2334 0
M  V30 2273 H 219.838 4.09824 -1.57927 0
M  V30 2274 H 220.444 3.09495 -2.91706 0
M  V30 2275 N 218.759 1.29093 0.90403 0
M  V30 2276 C 219.689 1.16401 2.02418 0
M  V30 2277 C 220.67 0.0593085 1.69997 0
M  V30 2278 O 221.855 0.238021 1.92736 0
M  V30 2279 C 218.985 0.835233 3.37107 0
M  V30 2280 C 217.939 1.89578 3.83724 0
M  V30 2281 C 217.265 1.42041 5.15489 0
M  V30 2282 C 218.565 3.30394 4.04521 0
M  V30 2283 H 220.259 2.10109 2.13295 0
M  V30 2284 H 217.805 1.01157 1.02486 0
M  V30 2285 H 219.758 0.733169 4.14973 0
M  V30 2286 H 218.482 -0.137543 3.2631 0
M  V30 2287 H 217.141 1.98715 3.08071 0
M  V30 2288 H 216.789 0.436426 5.01103 0
M  V30 2289 H 216.489 2.12964 5.4765 0
M  V30 2290 H 218.013 1.33176 5.959 0
M  V30 2291 H 219.427 3.24123 4.72882 0
M  V30 2292 H 217.824 3.99237 4.48029 0
M  V30 2293 H 218.894 3.73692 3.09002 0
M  V30 2294 N 220.237 -1.11381 1.11499 0
M  V30 2295 C 221.485 -1.8277 0.862524 0
M  V30 2296 C 221.806 -1.85097 -0.613534 0
M  V30 2297 O 221.076 -1.32198 -1.4457 0
M  V30 2298 H 219.656 -0.676823 0.316101 0
M  V30 2299 H 222.318 -1.34816 1.4075 0
M  V30 2300 H 221.414 -2.86614 1.23527 0
M  V30 2301 N 221.715 -0.905404 -1.28997 0
M  V30 2302 C 222.943 -0.549846 -1.9946 0
M  V30 2303 C 223.358 0.866834 -1.67724 0
M  V30 2304 O 222.715 1.57298 -0.925404 0
M  V30 2305 C 222.766 -0.739387 -3.53858 0
M  V30 2306 O 222.487 -2.10031 -3.84472 0
M  V30 2307 C 223.988 -0.389541 -4.41585 0
M  V30 2308 H 221.208 -0.210429 -0.637151 0
M  V30 2309 H 223.752 -1.21632 -1.64396 0
M  V30 2310 H 221.907 -0.120023 -3.87214 0
M  V30 2311 H 222.321 -2.13385 -4.79132 0
M  V30 2312 H 223.795 -0.572972 -5.49018 0
M  V30 2313 H 224.272 0.673756 -4.34001 0
M  V30 2314 H 224.878 -0.986089 -4.1371 0
M  V30 2315 N 223.193 1.4272 -0.668489 0
M  V30 2316 C 224.103 2.34596 0.0139753 0
M  V30 2317 C 225.119 1.5474 0.795703 0
M  V30 2318 O 226.295 1.87334 0.739466 0
M  V30 2319 C 223.36 3.33202 0.957982 0
M  V30 2320 C 222.421 4.28957 0.17149 0
M  V30 2321 C 221.654 5.22853 1.07053 0
M  V30 2322 O 221.877 5.21531 2.31001 0
M  V30 2323 O 220.811 5.9952 0.534727 0
M  V30 2324 H 224.637 2.9448 -0.742661 0
M  V30 2325 H 222.222 1.43117 -0.428705 0
M  V30 2326 H 224.104 3.93796 1.50008 0
M  V30 2327 H 222.779 2.758 1.69458 0
M  V30 2328 H 221.686 3.71796 -0.414558 0
M  V30 2329 H 223.019 4.89383 -0.52586 0
M  V30 2330 N 224.671 0.411399 1.52136 0
M  V30 2331 C 225.919 -0.163322 2.01439 0
M  V30 2332 C 226.24 -1.45453 1.29879 0
M  V30 2333 O 225.51 -1.91225 0.4254 0
M  V30 2334 H 224.09 -0.0633447 0.744309 0
M  V30 2335 H 226.752 0.548161 1.87033 0
M  V30 2336 H 225.848 -0.357817 3.10042 0
M  V30 2337 N 226.149 -1.5696 0.141893 0
M  V30 2338 C 227.099 -2.13074 -0.811383 0
M  V30 2339 C 228.083 -1.05726 -1.21288 0
M  V30 2340 O 229.275 -1.31914 -1.18015 0
M  V30 2341 C 226.404 -2.75186 -2.0525 0
M  V30 2342 C 225.49 -3.8965 -1.67432 0
M  V30 2343 N 225.881 -4.95733 -1.0041 0
M  V30 2344 C 224.179 -4.00262 -1.96739 0
M  V30 2345 C 224.88 -5.75858 -0.822345 0
M  V30 2346 N 223.856 -5.26452 -1.3546 0
M  V30 2347 H 227.658 -2.92465 -0.290031 0
M  V30 2348 H 225.172 -1.6229 -0.0598218 0
M  V30 2349 H 227.169 -3.13745 -2.74535 0
M  V30 2350 H 225.829 -1.97266 -2.57907 0
M  V30 2351 H 226.84 -5.13607 -0.665441 0
M  V30 2352 H 223.517 -3.33412 -2.51282 0
M  V30 2353 H 224.907 -6.71254 -0.294496 0
M  V30 2354 N 227.627 0.131896 -1.57047 0
M  V30 2355 C 228.557 1.16384 -2.02428 0
M  V30 2356 C 229.538 1.43936 -0.90644 0
M  V30 2357 O 230.723 1.54599 -1.17528 0
M  V30 2358 C 227.853 2.49328 -2.4177 0
M  V30 2359 C 226.807 2.36266 -3.56879 0
M  V30 2360 C 226.133 3.74057 -3.8208 0
M  V30 2361 C 227.433 1.834 -4.89042 0
M  V30 2362 H 229.127 0.786433 -2.88887 0
M  V30 2363 H 226.673 0.376855 -1.38981 0
M  V30 2364 H 228.626 3.21759 -2.7212 0
M  V30 2365 H 227.35 2.88934 -1.52266 0
M  V30 2366 H 226.009 1.66286 -3.26718 0
M  V30 2367 H 225.657 4.11125 -2.89803 0
M  V30 2368 H 225.357 3.66174 -4.59554 0
M  V30 2369 H 226.881 4.48012 -4.1487 0
M  V30 2370 H 228.295 2.45636 -5.18011 0
M  V30 2371 H 226.692 1.8637 -5.70426 0
M  V30 2372 H 227.762 0.790662 -4.7841 0
M  V30 2373 N 229.106 1.52395 0.401703 0
M  V30 2374 C 230.522 1.41363 0.740864 0
M  V30 2375 C 230.722 0.523982 1.94568 0
M  V30 2376 O 229.778 -0.00741204 2.52499 0
M  V30 2377 C 231.091 2.84011 0.987847 0
M  V30 2378 C 232.639 2.93404 1.09011 0
M  V30 2379 C 233.114 4.37036 1.3698 0
M  V30 2380 N 234.605 4.40304 1.43829 0
M  V30 2381 C 235.34 5.48508 1.67112 0
M  V30 2382 N 234.836 6.66819 1.87949 0
M  V30 2383 N 236.629 5.36034 1.69187 0
M  V30 2384 H 228.78 2.08765 -0.391262 0
M  V30 2385 H 231.043 0.941265 -0.112798 0
M  V30 2386 H 230.749 3.51265 0.174835 0
M  V30 2387 H 230.623 3.25502 1.906 0
M  V30 2388 H 233.01 2.26325 1.8937 0
M  V30 2389 H 233.091 2.55359 0.15015 0
M  V30 2390 H 232.735 5.04676 0.571353 0
M  V30 2391 H 232.665 4.72623 2.3224 0
M  V30 2392 H 235.156 3.55024 1.29486 0
M  V30 2393 H 235.469 7.45063 2.05185 0
M  V30 2394 H 233.814 6.6987 1.85199 0
M  V30 2395 H 237.005 4.42579 1.52451 0
M  V30 2396 H 237.178 6.20434 1.86993 0
M  V30 2397 N 230.584 -0.659388 1.43143 0
M  V30 2398 C 231.814 -1.44513 1.47646 0
M  V30 2399 C 232.222 -1.88981 0.0910095 0
M  V30 2400 O 231.565 -1.59702 -0.907789 0
M  V30 2401 C 231.627 -2.71663 2.35456 0
M  V30 2402 C 231.291 -2.49175 3.83094 0
M  V30 2403 C 232.288 -2.1279 4.74359 0
M  V30 2404 C 229.973 -2.63691 4.27519 0
M  V30 2405 C 231.967 -1.9121 6.08044 0
M  V30 2406 C 229.654 -2.41726 5.61259 0
M  V30 2407 C 230.652 -2.0554 6.51339 0
M  V30 2408 O 230.34 -1.838 7.82606 0
M  V30 2409 H 230.072 -0.45064 0.503884 0
M  V30 2410 H 232.626 -0.816248 1.88485 0
M  V30 2411 H 230.856 -3.37089 1.89493 0
M  V30 2412 H 232.545 -3.33595 2.31235 0
M  V30 2413 H 233.311 -2.01157 4.41317 0
M  V30 2414 H 229.19 -2.90832 3.57684 0
M  V30 2415 H 232.734 -1.62889 6.78316 0
M  V30 2416 H 228.631 -2.52959 5.9387 0
M  V30 2417 H 229.399 -1.98275 7.94122 0
M  V30 2418 N 232.062 -1.29571 -0.897171 0
M  V30 2419 C 233.478 -1.07637 -1.17841 0
M  V30 2420 C 233.678 0.170713 -2.00776 0
M  V30 2421 O 232.734 0.867768 -2.3712 0
M  V30 2422 C 234.047 -2.3332 -1.8969 0
M  V30 2423 C 235.595 -2.38664 -2.02505 0
M  V30 2424 C 236.07 -3.64157 -2.77765 0
M  V30 2425 N 237.561 -3.64894 -2.85318 0
M  V30 2426 C 238.296 -4.58679 -3.44094 0
M  V30 2427 N 237.792 -5.62799 -4.04017 0
M  V30 2428 N 239.585 -4.46245 -3.41793 0
M  V30 2429 H 231.736 -2.09598 -0.343883 0
M  V30 2430 H 233.999 -0.923333 -0.214848 0
M  V30 2431 H 233.705 -3.24262 -1.36187 0
M  V30 2432 H 233.579 -2.41025 -2.9015 0
M  V30 2433 H 235.966 -1.48208 -2.55183 0
M  V30 2434 H 236.047 -2.34943 -1.01171 0
M  V30 2435 H 235.691 -4.54965 -2.25763 0
M  V30 2436 H 235.621 -3.65137 -3.7945 0
M  V30 2437 H 238.112 -2.89613 -2.42761 0
M  V30 2438 H 238.425 -6.3048 -4.46895 0
M  V30 2439 H 236.77 -5.66605 -4.02472 0
M  V30 2440 H 239.961 -3.64094 -2.94199 0
M  V30 2441 H 240.134 -5.19518 -3.87304 0
M  V30 2442 N 233.54 1.10788 -1.12088 0
M  V30 2443 C 234.788 1.8231 -0.872205 0
M  V30 2444 C 235.109 1.85419 0.603709 0
M  V30 2445 O 234.379 1.32963 1.43867 0
M  V30 2446 H 232.959 0.675137 -0.319686 0
M  V30 2447 H 235.621 1.34068 -1.41463 0
M  V30 2448 H 234.717 2.85955 -1.25045 0
M  V30 2449 N 235.018 0.912232 1.28515 0
M  V30 2450 C 236.265 0.544599 1.95039 0
M  V30 2451 C 236.593 -0.911435 1.71823 0
M  V30 2452 O 235.848 -1.66317 1.03137 0
M  V30 2453 C 236.147 0.798392 3.48368 0
M  V30 2454 C 235.813 2.23374 3.91682 0
M  V30 2455 C 234.475 2.62617 4.03219 0
M  V30 2456 C 236.827 3.16786 4.13879 0
M  V30 2457 C 234.155 3.94429 4.3433 0
M  V30 2458 C 236.507 4.48161 4.46469 0
M  V30 2459 C 235.171 4.8726 4.56217 0
M  V30 2460 H 234.441 0.199283 0.7137 0
M  V30 2461 H 237.088 1.15327 1.52879 0
M  V30 2462 H 235.393 0.106908 3.91654 0
M  V30 2463 H 237.09 0.493141 3.97956 0
M  V30 2464 H 233.68 1.91922 3.83228 0
M  V30 2465 H 237.864 2.87677 4.0442 0
M  V30 2466 H 233.12 4.24426 4.40082 0
M  V30 2467 H 237.294 5.20559 4.62592 0
M  V30 2468 H 234.921 5.89431 4.80078 0
M  V30 2469 N 236.496 -1.42363 0.676048 0
M  V30 2470 C 237.742 -2.02336 0.207809 0
M  V30 2471 C 238.097 -1.52506 -1.17302 0
M  V30 2472 O 237.39 -0.718048 -1.77636 0
M  V30 2473 C 237.584 -3.56929 0.183431 0
M  V30 2474 C 237.413 -4.21762 1.56036 0
M  V30 2475 C 236.183 -4.56881 2.15842 0
M  V30 2476 C 238.381 -4.49267 2.50327 0
M  V30 2477 N 236.363 -5.069 3.46303 0
M  V30 2478 C 237.734 -5.00851 3.65443 0
M  V30 2479 C 239.789 -4.31257 2.48841 0
M  V30 2480 C 238.492 -5.36317 4.79329 0
M  V30 2481 C 240.518 -4.678 3.61824 0
M  V30 2482 C 239.88 -5.19537 4.75668 0
M  V30 2483 H 235.979 -0.772583 0.120993 0
M  V30 2484 H 238.563 -1.73203 0.889306 0
M  V30 2485 H 236.734 -3.85576 -0.467483 0
M  V30 2486 H 238.466 -4.03603 -0.297808 0
M  V30 2487 H 235.221 -4.4268 1.68319 0
M  V30 2488 H 235.645 -5.36338 4.13123 0
M  V30 2489 H 240.287 -3.90511 1.62051 0
M  V30 2490 H 238.005 -5.75995 5.66794 0
M  V30 2491 H 241.591 -4.55541 3.61903 0
M  V30 2492 H 240.471 -5.47287 5.61646 0
M  V30 2493 N 237.974 -0.419461 -1.51915 0
M  V30 2494 C 239.199 0.154572 -2.06823 0
M  V30 2495 C 239.624 1.3722 -1.28656 0
M  V30 2496 O 238.982 1.78461 -0.319583 0
M  V30 2497 C 239.03 0.473172 -3.57482 0
M  V30 2498 O 238.134 1.56255 -3.81652 0
M  V30 2499 H 237.475 0.0096924 -0.663929 0
M  V30 2500 H 240.005 -0.595642 -1.95738 0
M  V30 2501 H 240.015 0.728825 -4.01438 0
M  V30 2502 H 238.69 -0.416873 -4.13805 0
M  V30 2503 H 237.267 1.29825 -3.49571 0
M  V30 2504 N 239.452 1.56882 -0.150215 0
M  V30 2505 C 240.868 1.58263 0.20617 0
M  V30 2506 C 241.068 1.16464 1.64434 0
M  V30 2507 O 240.124 0.866422 2.3717 0
M  V30 2508 C 241.437 3.00649 -0.0555025 0
M  V30 2509 C 242.985 3.12999 0.00795388 0
M  V30 2510 C 243.46 4.5744 -0.226429 0
M  V30 2511 N 244.951 4.62875 -0.173469 0
M  V30 2512 C 245.686 5.72454 -0.329288 0
M  V30 2513 N 245.182 6.90669 -0.543005 0
M  V30 2514 N 246.975 5.61467 -0.266666 0
M  V30 2515 H 239.126 1.82345 -1.08922 0
M  V30 2516 H 241.389 0.844149 -0.431413 0
M  V30 2517 H 241.095 3.3563 -1.05096 0
M  V30 2518 H 240.969 3.71337 0.66246 0
M  V30 2519 H 243.356 2.77857 0.993966 0
M  V30 2520 H 243.437 2.4479 -0.742388 0
M  V30 2521 H 243.081 4.93287 -1.20956 0
M  V30 2522 H 243.011 5.2378 0.544274 0
M  V30 2523 H 245.502 3.77898 -0.0130709 0
M  V30 2524 H 245.815 7.70045 -0.651922 0
M  V30 2525 H 244.16 6.92581 -0.579366 0
M  V30 2526 H 247.351 4.67992 -0.100441 0
M  V30 2527 H 247.524 6.46816 -0.391535 0
M  V30 2528 N 240.93 -0.123565 1.57115 0
M  V30 2529 C 242.179 -0.830704 1.83799 0
M  V30 2530 C 242.492 -1.81259 0.735158 0
M  V30 2531 O 243.698 -2.56558 0.888278 0
M  V30 2532 C 242.154 -1.52802 3.25852 0
M  V30 2533 C 241.762 -0.587356 4.44133 0
M  V30 2534 C 243.506 -2.22056 3.61789 0
M  V30 2535 C 241.413 -1.28764 5.77212 0
M  V30 2536 H 240.343 -0.313967 0.685522 0
M  V30 2537 H 242.994 -0.0834359 1.8331 0
M  V30 2538 H 241.376 -2.32175 3.20797 0
M  V30 2539 H 242.55 0.172829 4.60476 0
M  V30 2540 H 240.865 -0.00201892 4.164 0
M  V30 2541 H 243.462 -2.75131 4.58483 0
M  V30 2542 H 243.805 -2.99644 2.88997 0
M  V30 2543 H 244.338 -1.49576 3.68608 0
M  V30 2544 H 241.077 -0.55314 6.53162 0
M  V30 2545 H 240.597 -2.01995 5.64764 0
M  V30 2546 H 242.276 -1.8221 6.20813 0
M  V30 2547 N 242.408 -1.52605 -0.393616 0
M  V30 2548 C 243.371 -1.76415 -1.46323 0
M  V30 2549 C 244.371 -0.634126 -1.47768 0
M  V30 2550 O 245.561 -0.902142 -1.4902 0
M  V30 2551 C 242.693 -1.8607 -2.85641 0
M  V30 2552 H 243.886 -2.71916 -1.26498 0
M  V30 2553 H 241.439 -1.43257 -0.625073 0
M  V30 2554 H 242.174 -0.925378 -3.10817 0
M  V30 2555 H 241.959 -2.68235 -2.85993 0
M  V30 2556 H 243.449 -2.06179 -3.63153 0
M  V30 2557 N 243.887 0.651787 -1.4349 0
M  V30 2558 C 245.112 1.44434 -1.48841 0
M  V30 2559 C 245.537 1.8779 -0.107955 0
M  V30 2560 O 244.895 1.57464 0.898602 0
M  V30 2561 C 244.943 2.65458 -2.44059 0
M  V30 2562 O 244.047 3.64566 -1.92784 0
M  V30 2563 H 243.388 0.433005 -0.503391 0
M  V30 2564 H 245.918 0.797451 -1.88419 0
M  V30 2565 H 245.928 3.13255 -2.6141 0
M  V30 2566 H 244.603 2.33244 -3.4434 0
M  V30 2567 H 243.18 3.23716 -1.851 0
M  V30 2568 N 245.365 1.30045 0.890287 0
M  V30 2569 C 246.614 1.17929 1.63633 0
M  V30 2570 C 246.927 -0.266204 1.9378 0
M  V30 2571 O 248.133 -0.508804 2.6669 0
M  V30 2572 C 246.589 2.06317 2.94892 0
M  V30 2573 C 246.197 3.55745 2.72305 0
M  V30 2574 C 247.941 2.0295 3.72843 0
M  V30 2575 C 245.848 4.36205 3.99348 0
M  V30 2576 H 244.778 0.437782 0.613892 0
M  V30 2577 H 247.429 1.54754 0.986075 0
M  V30 2578 H 245.811 1.6237 3.61182 0
M  V30 2579 H 246.985 4.07805 2.1455 0
M  V30 2580 H 245.3 3.6088 2.07737 0
M  V30 2581 H 247.897 2.60319 4.67053 0
M  V30 2582 H 248.24 1.0117 4.0382 0
M  V30 2583 H 248.773 2.4499 3.13408 0
M  V30 2584 H 245.512 5.38659 3.73533 0
M  V30 2585 H 245.032 3.8891 4.56628 0
M  V30 2586 H 246.711 4.47362 4.67415 0
M  V30 2587 N 246.843 -1.10192 1.12674 0
M  V30 2588 C 247.753 -2.20172 0.810026 0
M  V30 2589 C 248.769 -1.72821 -0.202188 0
M  V30 2590 O 249.945 -2.01369 -0.0351691 0
M  V30 2591 C 247.01 -3.45631 0.272007 0
M  V30 2592 C 246.071 -4.07704 1.34447 0
M  V30 2593 C 245.304 -5.27175 0.832029 0
M  V30 2594 O 245.527 -5.69425 -0.333284 0
M  V30 2595 O 244.461 -5.80168 1.60277 0
M  V30 2596 H 248.287 -2.49701 1.72867 0
M  V30 2597 H 245.872 -1.18977 0.903597 0
M  V30 2598 H 247.754 -4.21394 -0.0230219 0
M  V30 2599 H 246.429 -3.17723 -0.619164 0
M  V30 2600 H 245.336 -3.33614 1.6927 0
M  V30 2601 H 246.669 -4.3982 2.2095 0
M  V30 2602 N 248.321 -0.919034 -1.28029 0
M  V30 2603 C 249.284 -0.416182 -2.2539 0
M  V30 2604 C 250.284 0.460438 -1.54067 0
M  V30 2605 O 251.474 0.262744 -1.72207 0
M  V30 2606 C 248.606 0.402707 -3.38513 0
M  V30 2607 H 249.799 -1.27629 -2.71387 0
M  V30 2608 H 247.352 -0.698919 -1.39803 0
M  V30 2609 H 248.087 1.282 -2.97885 0
M  V30 2610 H 247.872 -0.225698 -3.9145 0
M  V30 2611 H 249.362 0.745191 -4.10897 0
M  V30 2612 N 249.799 1.42003 -0.683588 0
M  V30 2613 C 251.027 2.05746 -0.218182 0
M  V30 2614 C 251.442 1.51396 1.12804 0
M  V30 2615 O 250.799 0.657303 1.70252 0
M  V30 2616 C 250.85 3.61171 -0.154131 0
M  V30 2617 O 250.571 4.13508 -1.44716 0
M  V30 2618 C 252.072 4.42042 0.333713 0
M  V30 2619 H 249.292 0.662888 -0.10402 0
M  V30 2620 H 251.836 1.81987 -0.9328 0
M  V30 2621 H 249.991 3.84012 0.511231 0
M  V30 2622 H 250.405 5.07453 -1.32632 0
M  V30 2623 H 251.879 5.51028 0.327423 0
M  V30 2624 H 252.356 4.17269 1.37053 0
M  V30 2625 H 252.962 4.24239 -0.300222 0
M  V30 2626 N 251.277 0.427512 1.51691 0
M  V30 2627 C 252.525 -0.141948 2.01601 0
M  V30 2628 C 252.846 -1.44067 1.31414 0
M  V30 2629 O 252.116 -1.90763 0.445658 0
M  V30 2630 H 250.696 -0.0554468 0.744939 0
M  V30 2631 H 253.358 0.567968 1.86441 0
M  V30 2632 H 252.454 -0.324913 3.10404 0
M  V30 2633 N 252.755 -1.56801 0.158532 0
M  V30 2634 C 254.166 -1.83189 -0.360366 0
M  V30 2635 C 254.517 -1.07778 -1.63946 0
M  V30 2636 O 253.642 -0.326718 -2.13919 0
M  V30 2637 C 254.237 -3.32297 -0.660595 0
M  V30 2638 C 252.796 -3.59227 -1.12398 0
M  V30 2639 C 251.943 -2.76877 -0.153097 0
M  V30 2640 H 254.894 -1.54008 0.383031 0
M  V30 2641 H 254.915 -3.4908 -1.51405 0
M  V30 2642 H 254.427 -3.87156 0.270527 0
M  V30 2643 H 252.528 -3.09766 -2.07064 0
M  V30 2644 H 252.641 -4.67632 -1.04197 0
M  V30 2645 H 251.005 -2.46319 -0.647983 0
M  V30 2646 H 251.788 -3.34511 0.77182 0
M  V30 2647 N 254.233 0.115231 -1.57178 0
M  V30 2648 C 255.649 0.468877 -1.52557 0
M  V30 2649 C 255.849 1.81649 -0.872125 0
M  V30 2650 O 254.905 2.48347 -0.45606 0
M  V30 2651 C 256.218 0.4499 -2.97315 0
M  V30 2652 C 257.766 0.533185 -3.08425 0
M  V30 2653 C 258.241 0.54456 -4.54751 0
M  V30 2654 N 259.732 0.605892 -4.5922 0
M  V30 2655 C 260.467 0.636203 -5.6986 0
M  V30 2656 N 259.963 0.623931 -6.89985 0
M  V30 2657 N 261.756 0.679496 -5.57978 0
M  V30 2658 H 253.907 -0.767712 -1.9804 0
M  V30 2659 H 256.17 -0.283609 -0.904583 0
M  V30 2660 H 255.876 -0.472721 -3.48509 0
M  V30 2661 H 255.75 1.27632 -3.5495 0
M  V30 2662 H 258.137 1.44623 -2.57232 0
M  V30 2663 H 258.218 -0.320995 -2.53778 0
M  V30 2664 H 257.862 -0.364452 -5.06591 0
M  V30 2665 H 257.792 1.41568 -5.07214 0
M  V30 2666 H 260.283 0.621386 -3.72756 0
M  V30 2667 H 260.596 0.649787 -7.70063 0
M  V30 2668 H 258.941 0.591296 -6.9248 0
M  V30 2669 H 262.132 0.686472 -4.63039 0
M  V30 2670 H 262.305 0.69965 -6.44212 0
M  V30 2671 N 255.711 1.52812 0.385517 0
M  V30 2672 C 256.936 1.72207 1.15583 0
M  V30 2673 C 257.361 0.441034 1.82857 0
M  V30 2674 O 256.719 -0.603465 1.70962 0
M  V30 2675 C 256.767 2.87476 2.17692 0
M  V30 2676 O 255.871 2.54693 3.24354 0
M  V30 2677 H 255.212 0.572526 0.336319 0
M  V30 2678 H 257.742 1.99618 0.448744 0
M  V30 2679 H 257.752 3.13072 2.6163 0
M  V30 2680 H 256.427 3.80408 1.68115 0
M  V30 2681 H 255.004 2.3985 2.85529 0
M  V30 2682 N 257.189 -0.644168 1.43834 0
M  V30 2683 C 258.119 -1.76814 1.52509 0
M  V30 2684 C 259.1 -1.65823 0.379052 0
M  V30 2685 O 260.285 -1.84781 0.597466 0
M  V30 2686 C 257.415 -3.15288 1.4564 0
M  V30 2687 C 256.369 -3.41053 2.58586 0
M  V30 2688 C 255.695 -4.79421 2.36769 0
M  V30 2689 C 256.995 -3.34902 4.00797 0
M  V30 2690 H 258.689 -1.69812 2.46586 0
M  V30 2691 H 256.235 -0.815542 1.1868 0
M  V30 2692 H 258.188 -3.93681 1.50311 0
M  V30 2693 H 256.912 -3.23043 0.480725 0
M  V30 2694 H 255.571 -2.65035 2.53282 0
M  V30 2695 H 255.219 -4.83863 1.37424 0
M  V30 2696 H 254.919 -4.9762 3.12487 0
M  V30 2697 H 256.443 -5.6006 2.43238 0
M  V30 2698 H 257.857 -4.03218 4.07539 0
M  V30 2699 H 256.254 -3.64637 4.76613 0
M  V30 2700 H 257.324 -2.32928 4.25291 0
M  V30 2701 N 258.668 -1.30515 -0.883378 0
M  V30 2702 C 260.084 -1.08881 -1.16692 0
M  V30 2703 C 260.284 0.149409 -2.00945 0
M  V30 2704 O 259.34 0.84257 -2.38027 0
M  V30 2705 C 260.653 -2.35319 -1.87204 0
M  V30 2706 C 262.201 -2.40799 -1.99962 0
M  V30 2707 C 262.676 -3.67083 -2.73887 0
M  V30 2708 N 264.167 -3.679 -2.81432 0
M  V30 2709 C 264.902 -4.62303 -3.3921 0
M  V30 2710 N 264.398 -5.67052 -3.98025 0
M  V30 2711 N 266.191 -4.49845 -3.3704 0
M  V30 2712 H 258.342 -2.09951 -0.321633 0
M  V30 2713 H 260.605 -0.92556 -0.205043 0
M  V30 2714 H 260.311 -3.25689 -1.3274 0
M  V30 2715 H 260.185 -2.44089 -2.87577 0
M  V30 2716 H 262.572 -1.50907 -2.53597 0
M  V30 2717 H 262.653 -2.36003 -0.98673 0
M  V30 2718 H 262.297 -4.57334 -2.20925 0
M  V30 2719 H 262.227 -3.69141 -3.75556 0
M  V30 2720 H 264.718 -2.92171 -2.39676 0
M  V30 2721 H 265.031 -6.35184 -4.40183 0
M  V30 2722 H 263.376 -5.70842 -3.96439 0
M  V30 2723 H 266.567 -3.67194 -2.90321 0
M  V30 2724 H 266.74 -5.23597 -3.81772 0
M  V30 2725 N 260.146 1.09593 -1.13257 0
M  V30 2726 C 261.395 1.81105 -0.887917 0
M  V30 2727 C 261.708 1.86563 0.587672 0
M  V30 2728 O 262.914 2.54367 0.949204 0
M  V30 2729 C 261.37 3.25338 -1.53895 0
M  V30 2730 C 260.978 3.28151 -3.04994 0
M  V30 2731 C 262.722 4.01617 -1.37492 0
M  V30 2732 C 260.629 4.66897 -3.6299 0
M  V30 2733 H 259.559 0.678661 -0.328534 0
M  V30 2734 H 262.21 1.23183 -1.36008 0
M  V30 2735 H 260.592 3.8331 -0.994446 0
M  V30 2736 H 261.766 2.79953 -3.66009 0
M  V30 2737 H 260.081 2.65361 -3.20893 0
M  V30 2738 H 262.678 5.04119 -1.78235 0
M  V30 2739 H 263.021 4.15072 -0.31957 0
M  V30 2740 H 263.554 3.50082 -1.88912 0
M  V30 2741 H 260.293 4.58643 -4.68323 0
M  V30 2742 H 259.813 5.15426 -3.06752 0
M  V30 2743 H 261.492 5.3587 -3.62563 0
M  V30 2744 N 261.624 0.925811 1.2754 0
M  V30 2745 C 262.852 0.581509 1.9856 0
M  V30 2746 C 263.267 -0.840041 1.69082 0
M  V30 2747 O 262.624 -1.55805 0.950312 0
M  V30 2748 C 262.675 0.795589 3.52637 0
M  V30 2749 O 262.396 2.16121 3.81082 0
M  V30 2750 C 263.897 0.459744 4.4091 0
M  V30 2751 H 261.117 0.220538 0.633722 0
M  V30 2752 H 263.661 1.24232 1.6244 0
M  V30 2753 H 261.816 0.18161 3.86974 0
M  V30 2754 H 262.23 2.2098 4.75676 0
M  V30 2755 H 263.704 0.660244 5.48037 0
M  V30 2756 H 264.181 -0.604625 4.35018 0
M  V30 2757 H 264.787 1.05178 4.12089 0
M  V30 2758 N 263.102 -1.41638 0.69111 0
M  V30 2759 C 264.349 -2.01299 0.220193 0
M  V30 2760 C 264.677 -1.54715 -1.17871 0
M  V30 2761 O 263.932 -0.747193 -1.80874 0
M  V30 2762 C 264.231 -3.56714 0.221277 0
M  V30 2763 C 263.897 -4.22792 1.56709 0
M  V30 2764 C 262.559 -4.40557 1.93554 0
M  V30 2765 C 264.911 -4.59883 2.45268 0
M  V30 2766 C 262.239 -4.92688 3.18552 0
M  V30 2767 C 264.591 -5.13403 3.69595 0
M  V30 2768 C 263.255 -5.29379 4.06589 0
M  V30 2769 H 262.525 -0.736606 0.0805743 0
M  V30 2770 H 265.172 -1.69598 0.889319 0
M  V30 2771 H 263.477 -3.8818 -0.531391 0
M  V30 2772 H 265.174 -4.00678 -0.160547 0
M  V30 2773 H 261.764 -4.09336 1.2705 0
M  V30 2774 H 265.948 -4.45817 2.18084 0
M  V30 2775 H 261.204 -5.03242 3.47214 0
M  V30 2776 H 265.378 -5.41084 4.38407 0
M  V30 2777 H 263.005 -5.69537 5.03519 0
M  V30 2778 N 264.58 -0.43555 -1.51462 0
M  V30 2779 C 265.543 0.365137 -2.26273 0
M  V30 2780 C 266.543 0.951227 -1.29647 0
M  V30 2781 O 267.733 0.825958 -1.53374 0
M  V30 2782 C 264.865 1.51645 -3.05314 0
M  V30 2783 H 266.058 -0.290474 -2.9849 0
M  V30 2784 H 263.611 -0.188676 -1.55157 0
M  V30 2785 H 264.346 2.20816 -2.3751 0
M  V30 2786 H 264.131 1.10238 -3.76284 0
M  V30 2787 H 265.621 2.08218 -3.61987 0
M  V30 2788 N 266.058 1.56714 -0.166846 0
M  V30 2789 C 267.335 1.88412 0.525373 0
M  V30 2790 C 267.715 1.07602 1.81618 0
M  V30 2791 O 267.063 0.168621 2.27877 0
M  V30 2792 C 267.273 3.40363 0.771613 0
M  V30 2793 C 268.621 4.10007 1.1036 0
M  V30 2794 O 269.645 3.45655 0.860304 0
M  V30 2795 O 268.504 5.2369 1.56239 0
M  V30 2796 H 265.598 0.781587 0.270278 0
M  V30 2797 H 268.144 1.68458 -0.204946 0
M  V30 2798 H 266.916 3.91046 -0.141093 0
M  V30 2799 H 266.539 3.65914 1.55541 0
M  V30 2800 N 267.536 -0.106894 1.57237 0
M  V30 2801 C 268.446 -1.14911 2.0453 0
M  V30 2802 C 269.462 -1.44592 0.96795 0
M  V30 2803 O 270.638 -1.55468 1.2803 0
M  V30 2804 C 267.703 -2.45272 2.45036 0
M  V30 2805 C 266.764 -2.22879 3.66911 0
M  V30 2806 C 265.997 -3.47024 4.05475 0
M  V30 2807 O 266.22 -4.54804 3.44252 0
M  V30 2808 O 265.154 -3.3731 4.98504 0
M  V30 2809 H 268.98 -0.777461 2.9358 0
M  V30 2810 H 266.565 -0.318563 1.45964 0
M  V30 2811 H 268.447 -3.22055 2.71769 0
M  V30 2812 H 267.122 -2.81886 1.59129 0
M  V30 2813 H 266.029 -1.43915 3.45311 0
M  V30 2814 H 267.362 -1.91163 4.53561 0
M  V30 2815 N 269.014 -1.53014 -0.377408 0
M  V30 2816 C 270.291 -1.59215 -1.13622 0
M  V30 2817 C 270.671 -0.392407 -2.07421 0
M  V30 2818 O 270.019 0.618342 -2.19975 0
M  V30 2819 C 270.229 -2.93669 -1.88573 0
M  V30 2820 C 271.577 -3.47822 -2.43526 0
M  V30 2821 O 272.601 -2.9562 -1.98715 0
M  V30 2822 O 271.46 -4.39055 -3.25412 0
M  V30 2823 H 268.554 -0.642625 -0.52054 0
M  V30 2824 H 271.1 -1.65353 -0.381625 0
M  V30 2825 H 269.872 -3.7243 -1.20048 0
M  V30 2826 H 269.495 -2.90968 -2.70968 0
M  V30 2827 N 270.492 0.636531 -1.44174 0
M  V30 2828 C 271.908 0.954104 -1.27941 0
M  V30 2829 C 272.108 2.0039 -0.211248 0
M  V30 2830 O 271.164 2.49236 0.404695 0
M  V30 2831 C 272.477 1.4225 -2.64925 0
M  V30 2832 C 274.025 1.53827 -2.72592 0
M  V30 2833 C 274.5 2.04053 -4.10032 0
M  V30 2834 N 275.991 2.11331 -4.12182 0
M  V30 2835 C 276.726 2.51352 -5.15374 0
M  V30 2836 N 276.222 2.90549 -6.2893 0
M  V30 2837 N 278.015 2.51438 -5.02728 0
M  V30 2838 H 270.166 -0.0578386 -2.12321 0
M  V30 2839 H 272.429 0.0367406 -0.947288 0
M  V30 2840 H 272.135 0.725466 -3.44136 0
M  V30 2841 H 272.009 2.39451 -2.9145 0
M  V30 2842 H 274.396 2.22628 -1.93702 0
M  V30 2843 H 274.477 0.550154 -2.49814 0
M  V30 2844 H 274.121 1.35848 -4.89395 0
M  V30 2845 H 274.051 3.03726 -4.30184 0
M  V30 2846 H 276.542 1.83745 -3.30222 0
M  V30 2847 H 276.855 3.19884 -7.03487 0
M  V30 2848 H 275.2 2.88313 -6.32377 0
M  V30 2849 H 278.391 2.20203 -4.13072 0
M  V30 2850 H 278.564 2.82304 -5.83274 0
M  V30 2851 N 271.97 1.30982 0.876444 0
M  V30 2852 C 272.88 1.2003 2.01569 0
M  V30 2853 C 273.896 0.11838 1.73597 0
M  V30 2854 O 275.072 0.33495 1.98595 0
M  V30 2855 C 272.137 0.901637 3.34771 0
M  V30 2856 C 271.198 2.06979 3.76109 0
M  V30 2857 C 270.431 1.78529 5.02954 0
M  V30 2858 O 270.654 0.717296 5.65872 0
M  V30 2859 O 269.588 2.64019 5.40905 0
M  V30 2860 H 273.414 2.15753 2.13739 0
M  V30 2861 H 270.999 1.10658 1.00375 0
M  V30 2862 H 272.881 0.750645 4.1466 0
M  V30 2863 H 271.556 -0.0256141 3.2369 0
M  V30 2864 H 270.463 2.27616 2.96887 0
M  V30 2865 H 271.796 2.97907 3.91807 0
M  V30 2866 N 273.449 -1.08991 1.13837 0
M  V30 2867 C 274.379 -2.17771 0.842507 0
M  V30 2868 C 275.36 -1.6892 -0.20001 0
M  V30 2869 O 276.545 -1.94113 -0.0579731 0
M  V30 2870 C 273.675 -3.4589 0.312644 0
M  V30 2871 C 272.629 -4.08099 1.28992 0
M  V30 2872 C 271.955 -5.31098 0.619623 0
M  V30 2873 C 273.255 -4.50077 2.65005 0
M  V30 2874 H 274.949 -2.42777 1.75213 0
M  V30 2875 H 272.495 -1.16682 0.843875 0
M  V30 2876 H 274.448 -4.21297 0.0933043 0
M  V30 2877 H 273.172 -3.20419 -0.632382 0
M  V30 2878 H 271.831 -3.34717 1.49533 0
M  V30 2879 H 271.479 -5.0191 -0.33102 0
M  V30 2880 H 271.179 -5.73674 1.27167 0
M  V30 2881 H 272.703 -6.09224 0.409669 0
M  V30 2882 H 274.117 -5.16688 2.48407 0
M  V30 2883 H 272.514 -5.03553 3.26427 0
M  V30 2884 H 273.584 -3.62257 3.22332 0
M  V30 2885 N 274.927 -0.932562 -1.27047 0
M  V30 2886 C 275.89 -0.440064 -2.24936 0
M  V30 2887 C 276.89 0.444071 -1.54547 0
M  V30 2888 O 278.08 0.244465 -1.72476 0
M  V30 2889 C 275.212 0.36678 -3.38921 0
M  V30 2890 H 276.405 -1.305 -2.70018 0
M  V30 2891 H 273.958 -0.713707 -1.39054 0
M  V30 2892 H 274.693 1.25033 -2.99228 0
M  V30 2893 H 274.478 -0.267204 -3.91188 0
M  V30 2894 H 275.968 0.701567 -4.11665 0
M  V30 2895 N 276.405 1.4127 -0.698611 0
M  V30 2896 C 277.338 2.28195 0.0153898 0
M  V30 2897 C 278.316 1.42402 0.784883 0
M  V30 2898 O 279.5 1.71828 0.775067 0
M  V30 2899 C 276.627 3.22685 1.02918 0
M  V30 2900 C 275.673 4.25041 0.352501 0
M  V30 2901 S 276.506 5.27757 -0.907322 0
M  V30 2902 C 277.662 6.25812 0.104796 0
M  V30 2903 H 277.895 2.88403 -0.721858 0
M  V30 2904 H 275.428 1.46452 -0.488996 0
M  V30 2905 H 277.386 3.77655 1.60893 0
M  V30 2906 H 276.047 2.61566 1.73902 0
M  V30 2907 H 275.24 4.91437 1.11828 0
M  V30 2908 H 274.842 3.73682 -0.154254 0
M  V30 2909 H 277.134 6.70705 0.957103 0
M  V30 2910 H 278.077 7.06149 -0.525323 0
M  V30 2911 H 278.485 5.62615 0.460931 0
M  V30 2912 N 277.883 0.443576 1.51229 0
M  V30 2913 C 278.813 -0.355142 2.30783 0
M  V30 2914 C 279.794 -1.0154 1.36468 0
M  V30 2915 O 280.979 -1.01785 1.65389 0
M  V30 2916 C 278.109 -1.45312 3.15439 0
M  V30 2917 C 277.063 -0.916002 4.18083 0
M  V30 2918 C 276.389 -2.1102 4.91299 0
M  V30 2919 C 277.689 0.0538602 5.22272 0
M  V30 2920 H 279.383 0.308767 2.97804 0
M  V30 2921 H 276.929 0.149937 1.43217 0
M  V30 2922 H 278.882 -2.01914 3.69876 0
M  V30 2923 H 277.606 -2.14541 2.46252 0
M  V30 2924 H 276.265 -0.372145 3.64706 0
M  V30 2925 H 275.913 -2.78882 4.18609 0
M  V30 2926 H 275.613 -1.75717 5.60712 0
M  V30 2927 H 277.137 -2.68164 5.48562 0
M  V30 2928 H 278.551 -0.422069 5.71744 0
M  V30 2929 H 276.948 0.319776 5.99247 0
M  V30 2930 H 278.018 0.98858 4.74716 0
M  V30 2931 N 279.361 -1.56624 0.175154 0
M  V30 2932 C 280.324 -2.16934 -0.739738 0
M  V30 2933 C 281.324 -1.11842 -1.15533 0
M  V30 2934 O 282.514 -1.37335 -1.07167 0
M  V30 2935 C 279.646 -2.75531 -2.00738 0
M  V30 2936 H 280.839 -2.99131 -0.214639 0
M  V30 2937 H 278.392 -1.56123 -0.0744197 0
M  V30 2938 H 279.127 -1.97078 -2.57548 0
M  V30 2939 H 278.912 -3.52444 -1.71831 0
M  V30 2940 H 280.402 -3.21904 -2.66021 0
M  V30 2941 N 280.839 0.0985539 -1.57292 0
M  V30 2942 C 282.087 0.801092 -1.85545 0
M  V30 2943 C 282.408 1.79438 -0.763353 0
M  V30 2944 O 281.678 1.94763 0.21073 0
M  V30 2945 H 280.258 0.29884 -0.684619 0
M  V30 2946 H 282.92 0.0810064 -1.94732 0
M  V30 2947 H 282.016 1.3338 -2.82163 0
M  V30 2948 N 282.317 1.53212 0.369288 0
M  V30 2949 C 283.247 1.82365 1.45826 0
M  V30 2950 C 284.228 0.676907 1.56051 0
M  V30 2951 O 285.413 0.926401 1.70679 0
M  V30 2952 C 282.543 2.01023 2.83208 0
M  V30 2953 C 281.497 3.1678 2.8781 0
M  V30 2954 C 280.823 3.20724 4.27832 0
M  V30 2955 C 282.123 4.55447 2.55667 0
M  V30 2956 H 283.817 2.73559 1.21678 0
M  V30 2957 H 281.363 1.3163 0.583911 0
M  V30 2958 H 283.316 2.20001 3.59413 0
M  V30 2959 H 282.04 1.06536 3.08736 0
M  V30 2960 H 280.699 2.97616 2.14056 0
M  V30 2961 H 280.347 2.23882 4.50429 0
M  V30 2962 H 280.047 3.98496 4.31827 0
M  V30 2963 H 281.571 3.41881 5.05915 0
M  V30 2964 H 282.985 4.74611 3.21586 0
M  V30 2965 H 281.382 5.35432 2.70984 0
M  V30 2966 H 282.452 4.60812 1.5093 0
M  V30 2967 N 283.795 -0.628877 1.44509 0
M  V30 2968 C 285.211 -0.947305 1.28446 0
M  V30 2969 C 285.411 -2.00275 0.221872 0
M  V30 2970 O 284.467 -2.49447 -0.391471 0
M  V30 2971 C 285.78 -1.40843 2.65676 0
M  V30 2972 C 287.328 -1.52379 2.73404 0
M  V30 2973 C 287.803 -2.01875 4.11109 0
M  V30 2974 N 289.294 -2.09142 4.13296 0
M  V30 2975 C 290.029 -2.48615 5.16699 0
M  V30 2976 N 289.525 -2.87209 6.30462 0
M  V30 2977 N 291.318 -2.48768 5.04054 0
M  V30 2978 H 283.469 0.0690977 2.12288 0
M  V30 2979 H 285.732 -0.0317164 0.947469 0
M  V30 2980 H 285.438 -0.707206 3.44516 0
M  V30 2981 H 285.312 -2.37902 2.92716 0
M  V30 2982 H 287.699 -2.21598 1.9488 0
M  V30 2983 H 287.78 -0.536898 2.50102 0
M  V30 2984 H 287.424 -1.3325 4.90109 0
M  V30 2985 H 287.354 -3.0144 4.31789 0
M  V30 2986 H 289.845 -1.81991 3.31191 0
M  V30 2987 H 290.158 -3.16149 7.05174 0
M  V30 2988 H 288.503 -2.84955 6.33897 0
M  V30 2989 H 291.694 -2.18009 4.14234 0
M  V30 2990 H 291.867 -2.79207 5.84763 0
M  V30 2991 N 285.273 -1.31445 -0.869486 0
M  V30 2992 C 286.684 -1.19042 -1.43826 0
M  V30 2993 C 287.035 0.202919 -1.95148 0
M  V30 2994 O 286.16 1.10071 -1.86315 0
M  V30 2995 C 286.755 -2.15499 -2.6143 0
M  V30 2996 C 285.314 -2.07028 -3.14351 0
M  V30 2997 C 284.461 -2.04701 -1.87063 0
M  V30 2998 H 287.412 -1.43489 -0.677984 0
M  V30 2999 H 287.433 -1.74488 -3.38134 0
M  V30 3000 H 286.945 -3.16899 -2.24046 0
M  V30 3001 H 285.046 -1.08825 -3.56354 0
M  V30 3002 H 285.159 -2.96157 -3.766 0
M  V30 3003 H 283.523 -1.49724 -2.06046 0
M  V30 3004 H 284.306 -3.07857 -1.51917 0
M  V30 3005 N 286.751 1.08385 -1.14413 0
M  V30 3006 C 288 1.80153 -0.907076 0
M  V30 3007 C 288.313 1.87176 0.567851 0
M  V30 3008 O 289.519 2.55359 0.922172 0
M  V30 3009 C 287.975 3.23687 -1.57336 0
M  V30 3010 C 287.583 3.24897 -3.08457 0
M  V30 3011 C 289.327 4.00136 -1.41744 0
M  V30 3012 C 287.234 4.6302 -3.67921 0
M  V30 3013 H 286.164 0.675139 -0.335714 0
M  V30 3014 H 288.815 1.21733 -1.37307 0
M  V30 3015 H 287.197 3.82234 -1.03505 0
M  V30 3016 H 288.371 2.76055 -3.68958 0
M  V30 3017 H 286.686 2.61943 -3.2369 0
M  V30 3018 H 289.283 5.02201 -1.83572 0
M  V30 3019 H 289.626 4.14709 -0.363576 0
M  V30 3020 H 290.159 3.48058 -1.92614 0
M  V30 3021 H 286.898 4.5365 -4.73161 0
M  V30 3022 H 286.418 5.12143 -3.12201 0
M  V30 3023 H 288.097 5.31994 -3.68227 0
M  V30 3024 N 288.23 0.939286 1.26551 0
M  V30 3025 C 289.16 0.465044 2.28822 0
M  V30 3026 C 290.141 -0.480692 1.63167 0
M  V30 3027 O 291.326 -0.382955 1.90387 0
M  V30 3028 C 288.456 -0.27234 3.46231 0
M  V30 3029 C 287.41 0.58666 4.2396 0
M  V30 3030 C 286.736 -0.280573 5.33963 0
M  V30 3031 C 288.036 1.85704 4.88171 0
M  V30 3032 H 289.73 1.31979 2.68741 0
M  V30 3033 H 287.276 0.636061 1.29191 0
M  V30 3034 H 289.229 -0.615133 4.16886 0
M  V30 3035 H 287.953 -1.16121 3.0526 0
M  V30 3036 H 286.612 0.91232 3.55067 0
M  V30 3037 H 286.26 -1.16874 4.89234 0
M  V30 3038 H 285.96 0.29076 5.8688 0
M  V30 3039 H 287.484 -0.618678 6.07458 0
M  V30 3040 H 288.898 1.58161 5.51052 0
M  V30 3041 H 287.295 2.37279 5.51197 0
M  V30 3042 H 288.365 2.56957 4.11219 0
M  V30 3043 N 289.708 -1.40897 0.706093 0
M  V30 3044 C 290.64 -2.29199 0.00815776 0
M  V30 3045 C 291.653 -1.45336 -0.733582 0
M  V30 3046 O 292.842 -1.68727 -0.582537 0
M  V30 3047 C 289.942 -3.23417 -1.01265 0
M  V30 3048 C 289.115 -4.36089 -0.338387 0
M  V30 3049 C 288.174 -5.10811 -1.26326 0
M  V30 3050 O 287.2 -5.64215 -0.751651 0
M  V30 3051 N 288.402 -5.19269 -2.595 0
M  V30 3052 H 291.167 -2.89738 0.766297 0
M  V30 3053 H 288.728 -1.52164 0.55296 0
M  V30 3054 H 290.72 -3.70276 -1.63334 0
M  V30 3055 H 289.29 -2.64112 -1.67223 0
M  V30 3056 H 288.51 -3.91479 0.462352 0
M  V30 3057 H 289.798 -5.08634 0.130031 0
M  V30 3058 H 289.196 -4.77347 -3.03573 0
M  V30 3059 H 287.753 -5.69667 -3.16737 0
M  V30 3060 N 291.186 -0.45159 -1.50991 0
M  V30 3061 C 292.133 0.352625 -2.2809 0
M  V30 3062 C 293.103 1.0044 -1.32291 0
M  V30 3063 O 294.288 1.02058 -1.6121 0
M  V30 3064 C 291.428 1.43983 -3.13629 0
M  V30 3065 C 290.541 0.804772 -4.24438 0
M  V30 3066 C 289.676 1.86822 -4.97263 0
M  V30 3067 C 288.715 1.21236 -5.99973 0
M  V30 3068 N 287.852 2.2178 -6.66152 0
M  V30 3069 H 292.692 -0.311186 -2.96371 0
M  V30 3070 H 290.229 -0.165308 -1.46168 0
M  V30 3071 H 292.187 2.08161 -3.61559 0
M  V30 3072 H 290.817 2.07307 -2.47434 0
M  V30 3073 H 289.869 0.0509129 -3.80366 0
M  V30 3074 H 291.181 0.286076 -4.97979 0
M  V30 3075 H 290.335 2.58628 -5.48813 0
M  V30 3076 H 289.074 2.42068 -4.23385 0
M  V30 3077 H 288.079 0.479828 -5.47702 0
M  V30 3078 H 289.304 0.667051 -6.75816 0
M  V30 3079 H 287.25 2.76079 -5.95077 0
M  V30 3080 H 287.167 1.74841 -7.35504 0
M  V30 3081 H 288.435 2.93026 -7.22327 0
M  V30 3082 N 292.664 1.56529 -0.183458 0
M  V30 3083 C 293.627 2.17324 0.728223 0
M  V30 3084 C 294.627 1.12453 1.14939 0
M  V30 3085 O 295.817 1.37902 1.06437 0
M  V30 3086 C 292.949 2.76591 1.99274 0
M  V30 3087 H 294.142 2.99241 0.198772 0
M  V30 3088 H 291.695 1.5616 0.0661391 0
M  V30 3089 H 292.43 1.98441 2.56499 0
M  V30 3090 H 292.215 3.5335 1.69959 0
M  V30 3091 H 293.705 3.23311 2.6431 0
M  V30 3092 N 294.142 -0.090211 1.57342 0
M  V30 3093 C 295.074 -1.13541 1.99101 0
M  V30 3094 C 296.087 -1.3604 0.894258 0
M  V30 3095 O 297.276 -1.34606 1.17233 0
M  V30 3096 C 294.376 -2.49001 2.29895 0
M  V30 3097 C 293.549 -2.46712 3.61182 0
M  V30 3098 C 292.608 -3.64136 3.79857 0
M  V30 3099 O 291.634 -3.46405 4.51655 0
M  V30 3100 N 292.836 -4.83802 3.20806 0
M  V30 3101 H 295.601 -0.779942 2.89373 0
M  V30 3102 H 293.162 -0.279125 1.59476 0
M  V30 3103 H 295.154 -3.26166 2.39578 0
M  V30 3104 H 293.724 -2.76619 1.45605 0
M  V30 3105 H 292.944 -1.55058 3.62423 0
M  V30 3106 H 294.232 -2.42265 4.4742 0
M  V30 3107 H 293.63 -5.01112 2.62494 0
M  V30 3108 H 292.187 -5.58543 3.35966 0
M  V30 3109 N 295.62 -1.53406 -0.361157 0
M  V30 3110 C 296.866 -1.70999 -1.1014 0
M  V30 3111 C 297.221 -0.458425 -1.86859 0
M  V30 3112 O 296.514 0.548654 -1.83577 0
M  V30 3113 C 296.708 -2.90211 -2.08596 0
M  V30 3114 C 296.537 -4.26841 -1.41553 0
M  V30 3115 C 295.307 -4.91621 -1.16778 0
M  V30 3116 C 297.505 -5.07212 -0.850915 0
M  V30 3117 N 295.487 -6.12164 -0.461312 0
M  V30 3118 C 296.858 -6.19394 -0.274046 0
M  V30 3119 C 298.913 -4.92218 -0.750036 0
M  V30 3120 C 297.616 -7.18221 0.393868 0
M  V30 3121 C 299.642 -5.91322 -0.095894 0
M  V30 3122 C 299.004 -7.0283 0.470081 0
M  V30 3123 H 295.103 -0.678939 -0.388028 0
M  V30 3124 H 297.687 -1.90811 -0.38722 0
M  V30 3125 H 295.858 -2.71931 -2.77323 0
M  V30 3126 H 297.59 -2.96606 -2.7533 0
M  V30 3127 H 294.345 -4.50849 -1.45024 0
M  V30 3128 H 294.769 -6.76888 -0.123312 0
M  V30 3129 H 299.411 -4.06192 -1.17337 0
M  V30 3130 H 297.129 -8.03835 0.82914 0
M  V30 3131 H 300.715 -5.81797 -0.0187075 0
M  V30 3132 H 299.595 -7.782 0.968241 0
M  V30 3133 N 297.098 0.621204 -1.44841 0
M  V30 3134 C 298.008 1.7612 -1.5498 0
M  V30 3135 C 299.024 1.68477 -0.434927 0
M  V30 3136 O 300.2 1.89076 -0.693693 0
M  V30 3137 C 297.265 3.1254 -1.50065 0
M  V30 3138 C 296.326 3.31741 -2.72482 0
M  V30 3139 C 295.559 4.61653 -2.67792 0
M  V30 3140 O 295.782 5.431 -1.74352 0
M  V30 3141 O 294.716 4.83271 -3.58794 0
M  V30 3142 H 298.542 1.70518 -2.51311 0
M  V30 3143 H 296.127 0.783643 -1.27198 0
M  V30 3144 H 298.009 3.93844 -1.49882 0
M  V30 3145 H 296.684 3.18663 -0.568806 0
M  V30 3146 H 295.591 2.50077 -2.7823 0
M  V30 3147 H 296.924 3.30486 -3.64746 0
M  V30 3148 N 298.576 1.31904 0.862503 0
M  V30 3149 C 299.824 1.21776 1.61292 0
M  V30 3150 C 300.145 -0.222413 1.93727 0
M  V30 3151 O 299.415 -1.1451 1.58947 0
M  V30 3152 H 297.995 0.447717 0.597962 0
M  V30 3153 H 300.657 1.65326 1.03215 0
M  V30 3154 H 299.753 1.7948 2.5533 0
M  V30 3155 N 300.054 -1.07777 1.14986 0
M  V30 3156 C 301.47 -1.32373 0.891596 0
M  V30 3157 C 301.67 -1.9609 -0.463788 0
M  V30 3158 O 300.726 -2.21801 -1.20667 0
M  V30 3159 C 302.039 -2.21905 2.02925 0
M  V30 3160 C 303.587 -2.35367 2.06329 0
M  V30 3161 C 304.062 -3.28245 3.19405 0
M  V30 3162 N 305.553 -3.35824 3.19024 0
M  V30 3163 C 306.288 -4.07739 4.03158 0
M  V30 3164 N 305.784 -4.82306 4.97346 0
M  V30 3165 N 307.577 -4.03635 3.91197 0
M  V30 3166 H 299.728 -0.648039 2.02273 0
M  V30 3167 H 301.991 -0.348149 0.881757 0
M  V30 3168 H 301.697 -1.82342 3.0074 0
M  V30 3169 H 301.571 -3.22407 1.95789 0
M  V30 3170 H 303.958 -2.74186 1.09116 0
M  V30 3171 H 304.039 -1.34585 2.17533 0
M  V30 3172 H 303.683 -2.90146 4.16867 0
M  V30 3173 H 303.613 -4.28971 3.05437 0
M  V30 3174 H 306.104 -2.8267 2.50811 0
M  V30 3175 H 306.417 -5.34661 5.57994 0
M  V30 3176 H 304.762 -4.81337 5.01338 0
M  V30 3177 H 307.953 -3.44491 3.16928 0
M  V30 3178 H 308.126 -4.59417 4.5699 0
M  V30 3179 N 301.532 -0.945985 -1.26051 0
M  V30 3180 C 302.757 -0.612525 -1.98149 0
M  V30 3181 C 303.182 0.806623 -1.69927 0
M  V30 3182 O 302.54 1.54411 -0.950108 0
M  V30 3183 C 302.588 -0.866981 -3.50023 0
M  V30 3184 O 301.692 0.0585333 -4.12358 0
M  V30 3185 H 301.033 -0.23379 -0.621481 0
M  V30 3186 H 303.563 -1.27023 -1.60395 0
M  V30 3187 H 303.573 -0.789792 -4.00283 0
M  V30 3188 H 302.248 -1.90135 -3.69894 0
M  V30 3189 H 300.825 -0.0701241 -3.72834 0
M  V30 3190 N 303.011 1.40521 -0.713556 0
M  V30 3191 C 303.941 2.33381 -0.0743864 0
M  V30 3192 C 304.922 1.52784 0.747735 0
M  V30 3193 O 306.107 1.81258 0.697071 0
M  V30 3194 C 303.237 3.36748 0.849598 0
M  V30 3195 C 302.191 4.27793 0.133247 0
M  V30 3196 C 301.517 5.21679 1.17281 0
M  V30 3197 C 302.817 5.12415 -1.01134 0
M  V30 3198 H 304.511 2.87081 -0.850007 0
M  V30 3199 H 302.057 1.38034 -0.410201 0
M  V30 3200 H 304.01 4.00648 1.30612 0
M  V30 3201 H 302.734 2.81439 1.65709 0
M  V30 3202 H 301.393 3.65342 -0.303426 0
M  V30 3203 H 301.041 4.62677 1.9733 0
M  V30 3204 H 300.741 5.83435 0.698397 0
M  V30 3205 H 302.265 5.88456 1.62947 0
M  V30 3206 H 303.679 5.69781 -0.634274 0
M  V30 3207 H 302.076 5.83203 -1.41399 0
M  V30 3208 H 303.146 4.48514 -1.84292 0
M  V30 3209 N 304.489 0.459591 1.5075 0
M  V30 3210 C 305.714 -0.0996819 2.0716 0
M  V30 3211 C 306.139 -1.33761 1.32249 0
M  V30 3212 O 305.497 -1.77551 0.366786 0
M  V30 3213 C 305.545 -0.378226 3.58611 0
M  V30 3214 O 304.649 -1.46081 3.85661 0
M  V30 3215 H 303.99 0.00791392 0.663953 0
M  V30 3216 H 306.52 0.647329 1.9409 0
M  V30 3217 H 306.53 -0.622135 4.03229 0
M  V30 3218 H 305.205 0.526439 4.12555 0
M  V30 3219 H 303.782 -1.20511 3.5289 0
M  V30 3220 N 305.967 -1.56429 0.191757 0
M  V30 3221 C 306.877 -2.22541 -0.742481 0
M  V30 3222 C 307.893 -1.22342 -1.23727 0
M  V30 3223 O 309.069 -1.55069 -1.28513 0
M  V30 3224 C 306.134 -2.8692 -1.94623 0
M  V30 3225 C 305.195 -4.02378 -1.49633 0
M  V30 3226 C 304.428 -4.63678 -2.6427 0
M  V30 3227 O 304.651 -4.23895 -3.81666 0
M  V30 3228 O 303.585 -5.53202 -2.37174 0
M  V30 3229 H 307.411 -3.02977 -0.209462 0
M  V30 3230 H 304.996 -1.49353 -0.0373832 0
M  V30 3231 H 306.878 -3.27663 -2.64982 0
M  V30 3232 H 305.553 -2.09466 -2.46791 0
M  V30 3233 H 304.46 -3.66265 -0.761636 0
M  V30 3234 H 305.793 -4.81487 -1.02134 0
M  V30 3235 N 307.445 0.0818655 -1.57387 0
M  V30 3236 C 308.693 0.781368 -1.86384 0
M  V30 3237 C 309.014 1.78618 -0.782342 0
M  V30 3238 O 308.284 1.94976 0.190061 0
M  V30 3239 H 306.864 0.291562 -0.687751 0
M  V30 3240 H 309.526 0.060348 -1.94807 0
M  V30 3241 H 308.622 1.3038 -2.83562 0
M  V30 3242 N 308.923 1.53595 0.353017 0
M  V30 3243 C 309.871 1.81605 1.45335 0
M  V30 3244 C 310.865 0.685923 1.54892 0
M  V30 3245 O 312.071 0.869095 1.57628 0
M  V30 3246 H 308.446 0.575204 0.484401 0
M  V30 3247 H 310.417 2.73679 1.18921 0
M  V30 3248 C 309.166 2.03406 2.81995 0
M  V30 3249 H 308.489 2.89814 2.75405 0
M  V30 3250 H 309.929 2.26975 3.58132 0
M  V30 3251 C 308.388 0.816794 3.26849 0
M  V30 3252 O 308.918 0.0115856 4.01698 0
M  V30 3253 N 307.124 0.636682 2.8354 0
M  V30 3254 H 306.671 1.2931 2.22793 0
M  V30 3255 H 306.629 -0.176336 3.13905 0
M  V30 3256 N 310.401 -0.613514 1.45168 0
M  V30 3257 C 311.65 -1.36874 1.4815 0
M  V30 3258 C 311.963 -1.952 0.124982 0
M  V30 3259 O 313.169 -2.71481 0.0324176 0
M  V30 3260 C 311.625 -2.47905 2.60904 0
M  V30 3261 C 311.233 -1.96016 4.02842 0
M  V30 3262 C 312.977 -3.24965 2.73126 0
M  V30 3263 C 310.884 -3.04494 5.06988 0
M  V30 3264 H 309.814 -0.514428 0.551253 0
M  V30 3265 H 312.465 -0.658182 1.7129 0
M  V30 3266 H 310.847 -3.21618 2.31037 0
M  V30 3267 H 312.021 -1.29051 4.4236 0
M  V30 3268 H 310.336 -1.31719 3.95018 0
M  V30 3269 H 312.933 -4.05865 3.48106 0
M  V30 3270 H 313.276 -3.75588 1.79553 0
M  V30 3271 H 313.809 -2.5835 3.0249 0
M  V30 3272 H 310.548 -2.58795 6.0225 0
M  V30 3273 H 310.068 -3.70044 4.72046 0
M  V30 3274 H 311.747 -3.68976 5.31475 0
M  V30 3275 N 311.879 -1.3236 -0.855495 0
M  V30 3276 C 312.829 -1.17809 -1.95205 0
M  V30 3277 C 313.813 -0.0852319 -1.60674 0
M  V30 3278 O 315.005 -0.311651 -1.74235 0
M  V30 3279 C 312.134 -0.902437 -3.31226 0
M  V30 3280 C 311.22 -2.03695 -3.7198 0
M  V30 3281 N 311.611 -3.28544 -3.84568 0
M  V30 3282 C 309.909 -1.93993 -4.016 0
M  V30 3283 C 310.61 -4.02847 -4.19629 0
M  V30 3284 N 309.586 -3.31138 -4.31102 0
M  V30 3285 H 313.388 -2.12462 -2.0307 0
M  V30 3286 H 310.902 -1.24127 -1.0472 0
M  V30 3287 H 312.899 -0.77915 -4.09554 0
M  V30 3288 H 311.559 0.0357267 -3.2468 0
M  V30 3289 H 312.57 -3.6349 -3.68911 0
M  V30 3290 H 309.247 -1.07733 -4.03361 0
M  V30 3291 H 310.637 -5.10506 -4.36845 0
M  V30 3292 N 313.357 1.07166 -1.15556 0
M  V30 3293 C 314.634 1.76546 -0.842069 0
M  V30 3294 C 315.014 2.00453 0.661939 0
M  V30 3295 O 314.362 1.62452 1.60691 0
M  V30 3296 C 314.572 3.07266 -1.65495 0
M  V30 3297 C 315.92 3.81578 -1.86234 0
M  V30 3298 O 316.944 3.17083 -1.62287 0
M  V30 3299 O 315.803 4.97419 -2.26355 0
M  V30 3300 H 312.897 0.766756 -0.309862 0
M  V30 3301 H 315.443 1.13514 -1.26145 0
M  V30 3302 H 314.215 2.85494 -2.67598 0
M  V30 3303 H 313.838 3.7803 -1.23203 0
M  V30 3304 N 314.835 0.952656 1.25548 0
M  V30 3305 C 316.084 0.602053 1.92505 0
M  V30 3306 C 316.397 -0.864663 1.75451 0
M  V30 3307 O 317.603 -1.32514 2.36965 0
M  V30 3308 C 316.059 1.02607 3.44963 0
M  V30 3309 C 315.667 2.51519 3.70732 0
M  V30 3310 C 317.411 0.747905 4.1786 0
M  V30 3311 C 315.318 2.87732 5.16686 0
M  V30 3312 H 314.248 0.22146 0.720744 0
M  V30 3313 H 316.899 1.15684 1.42441 0
M  V30 3314 H 315.281 0.399712 3.93978 0
M  V30 3315 H 316.455 3.19157 3.32378 0
M  V30 3316 H 314.77 2.76786 3.11092 0
M  V30 3317 H 317.367 0.994647 5.25367 0
M  V30 3318 H 317.71 -0.315629 4.15102 0
M  V30 3319 H 318.243 1.33452 3.74747 0
M  V30 3320 H 314.982 3.93095 5.24554 0
M  V30 3321 H 314.502 2.24765 5.56094 0
M  V30 3322 H 316.181 2.76817 5.84792 0
M  V30 3323 N 316.313 -1.40141 0.720998 0
M  V30 3324 C 317.724 -1.83678 0.334553 0
M  V30 3325 C 318.075 -1.6027 -1.13173 0
M  V30 3326 O 317.2 -1.08643 -1.87152 0
M  V30 3327 C 317.795 -3.33437 0.600437 0
M  V30 3328 C 316.354 -3.75447 0.267642 0
M  V30 3329 C 315.501 -2.63296 0.870097 0
M  V30 3330 H 318.452 -1.29331 0.919732 0
M  V30 3331 H 318.473 -3.80269 -0.132517 0
M  V30 3332 H 317.985 -3.50442 1.66768 0
M  V30 3333 H 316.086 -3.64035 -0.794329 0
M  V30 3334 H 316.199 -4.73344 0.74042 0
M  V30 3335 H 314.563 -2.52954 0.297739 0
M  V30 3336 H 315.346 -2.83112 1.94172 0
M  V30 3337 N 317.792 -0.46758 -1.50504 0
M  V30 3338 C 319.041 0.0902868 -2.01498 0
M  V30 3339 C 319.354 1.411 -1.35463 0
M  V30 3340 O 320.56 2.0536 -1.77594 0
M  V30 3341 C 319.016 0.21142 -3.59278 0
M  V30 3342 C 318.624 -1.10065 -4.34269 0
M  V30 3343 C 320.368 0.721433 -4.18325 0
M  V30 3344 C 318.275 -0.943505 -5.83825 0
M  V30 3345 H 317.205 0.037517 -0.753066 0
M  V30 3346 H 319.856 -0.601943 -1.73346 0
M  V30 3347 H 318.238 0.967352 -3.84003 0
M  V30 3348 H 319.412 -1.86726 -4.21272 0
M  V30 3349 H 317.727 -1.5415 -3.86816 0
M  V30 3350 H 320.324 0.85598 -5.27804 0
M  V30 3351 H 320.667 1.71186 -3.79475 0
M  V30 3352 H 321.2 0.0229843 -3.97793 0
M  V30 3353 H 317.939 -1.90719 -6.27141 0
M  V30 3354 H 317.459 -0.217213 -5.99407 0
M  V30 3355 H 319.138 -0.608715 -6.4413 0
M  V30 3356 N 319.27 1.56325 -0.20005 0
M  V30 3357 C 320.518 1.97329 0.436547 0
M  V30 3358 C 320.839 1.08826 1.61808 0
M  V30 3359 O 320.109 0.160604 1.95241 0
M  V30 3360 H 318.689 0.728714 0.164272 0
M  V30 3361 H 321.351 1.92761 -0.287937 0
M  V30 3362 H 320.447 3.02264 0.777353 0
M  V30 3363 N 320.748 -0.0735177 1.57428 0
M  V30 3364 C 321.976 -0.785969 1.9139 0
M  V30 3365 C 322.391 -1.71207 0.795847 0
M  V30 3366 O 321.748 -1.81033 -0.230915 0
M  V30 3367 C 321.799 -1.58107 3.25091 0
M  V30 3368 O 321.52 -0.6922 4.32597 0
M  V30 3369 C 323.021 -2.39467 3.73055 0
M  V30 3370 H 320.241 -0.223558 0.632663 0
M  V30 3371 H 322.785 -0.044302 2.04452 0
M  V30 3372 H 320.94 -2.27503 3.13562 0
M  V30 3373 H 321.354 -1.24504 5.09508 0
M  V30 3374 H 322.828 -2.90716 4.69242 0
M  V30 3375 H 323.305 -3.18913 3.01979 0
M  V30 3376 H 323.911 -1.7523 3.87523 0
M  V30 3377 N 322.226 -1.5378 -0.344866 0
M  V30 3378 C 323.474 -1.70625 -1.08311 0
M  V30 3379 C 323.795 -0.471447 -1.89215 0
M  V30 3380 O 323.065 0.514616 -1.8902 0
M  V30 3381 H 321.645 -0.629058 -0.402859 0
M  V30 3382 H 324.307 -1.9103 -0.386459 0
M  V30 3383 H 323.403 -2.57656 -1.76124 0
M  V30 3384 N 323.704 0.605807 -1.45491 0
M  V30 3385 C 325.115 1.18777 -1.44045 0
M  V30 3386 C 325.466 1.95471 -0.169001 0
M  V30 3387 O 324.591 2.0374 0.729324 0
M  V30 3388 C 325.186 2.16064 -2.60963 0
M  V30 3389 C 323.745 2.69633 -2.62631 0
M  V30 3390 C 322.892 1.45072 -2.36325 0
M  V30 3391 H 325.843 0.395017 -1.53705 0
M  V30 3392 H 325.864 2.9913 -2.35163 0
M  V30 3393 H 325.376 1.60217 -3.53486 0
M  V30 3394 H 323.477 3.29414 -1.74119 0
M  V30 3395 H 323.59 3.13944 -3.61906 0
M  V30 3396 H 321.954 1.74089 -1.85917 0
M  V30 3397 H 322.737 0.910899 -3.30995 0
M  V30 3398 N 325.182 1.32811 0.848464 0
M  V30 3399 C 326.412 1.26556 1.63301 0
M  V30 3400 C 326.82 -0.1676 1.88456 0
M  V30 3401 O 326.163 -1.11713 1.45828 0
M  V30 3402 C 326.225 1.96202 3.01239 0
M  V30 3403 C 325.889 3.45528 2.99098 0
M  V30 3404 C 326.886 4.40903 2.75501 0
M  V30 3405 C 324.571 3.87558 3.19537 0
M  V30 3406 C 326.565 5.76282 2.72356 0
M  V30 3407 C 324.252 5.23044 3.16019 0
M  V30 3408 C 325.25 6.17217 2.92458 0
M  V30 3409 O 324.938 7.50223 2.88825 0
M  V30 3410 H 324.67 0.43771 0.515156 0
M  V30 3411 H 327.224 1.7559 1.0657 0
M  V30 3412 H 325.454 1.41746 3.59785 0
M  V30 3413 H 327.143 1.83573 3.62016 0
M  V30 3414 H 327.909 4.09756 2.5947 0
M  V30 3415 H 323.788 3.14674 3.369 0
M  V30 3416 H 327.332 6.4976 2.53886 0
M  V30 3417 H 323.229 5.53818 3.31596 0
M  V30 3418 H 323.997 7.59657 3.04735 0
M  V30 3419 N 326.66 -1.06551 1.16123 0
M  V30 3420 C 327.906 -1.79567 0.94252 0
M  V30 3421 C 328.239 -1.86869 -0.528547 0
M  V30 3422 O 327.514 -1.35838 -1.39206 0
M  V30 3423 C 327.797 -3.24195 1.56747 0
M  V30 3424 C 327.65 -3.24989 3.10969 0
M  V30 3425 C 328.969 -4.21678 1.25998 0
M  V30 3426 H 326.088 -0.651883 0.343828 0
M  V30 3427 H 328.73 -1.2463 1.43413 0
M  V30 3428 H 326.88 -3.71107 1.14942 0
M  V30 3429 H 328.552 -2.86258 3.61737 0
M  V30 3430 H 326.795 -2.63716 3.44436 0
M  V30 3431 H 327.466 -4.27005 3.49815 0
M  V30 3432 H 329.942 -3.83196 1.62174 0
M  V30 3433 H 328.818 -5.21146 1.7233 0
M  V30 3434 H 329.079 -4.4174 0.178367 0
M  V30 3435 N 328.138 -0.959301 -1.25041 0
M  V30 3436 C 329.384 -0.617525 -1.9317 0
M  V30 3437 C 329.717 0.843981 -1.74902 0
M  V30 3438 O 328.992 1.60615 -1.09696 0
M  V30 3439 C 329.275 -0.982736 -3.46431 0
M  V30 3440 C 329.128 -2.50032 -3.73904 0
M  V30 3441 C 330.447 -0.511176 -4.37121 0
M  V30 3442 H 327.566 -0.22582 -0.701552 0
M  V30 3443 H 330.208 -1.19679 -1.4757 0
M  V30 3444 H 328.358 -0.489806 -3.854 0
M  V30 3445 H 330.03 -3.06737 -3.44544 0
M  V30 3446 H 328.273 -2.93598 -3.19348 0
M  V30 3447 H 328.944 -2.70635 -4.81103 0
M  V30 3448 H 331.42 -0.934075 -4.0548 0
M  V30 3449 H 330.296 -0.795361 -5.43107 0
M  V30 3450 H 330.557 0.588834 -4.38161 0
M  V30 3451 N 329.616 1.39756 -0.72842 0
M  V30 3452 C 330.841 2.05472 -0.282159 0
M  V30 3453 C 331.266 1.54549 1.07221 0
M  V30 3454 O 330.624 0.686372 1.67805 0
M  V30 3455 C 330.672 3.59462 -0.286264 0
M  V30 3456 O 329.776 4.05918 0.728298 0
M  V30 3457 H 329.117 0.651226 -0.129618 0
M  V30 3458 H 331.647 1.78915 -0.992499 0
M  V30 3459 H 331.657 4.07798 -0.128373 0
M  V30 3460 H 330.332 3.95889 -1.27456 0
M  V30 3461 H 328.909 3.69012 0.537081 0
M  V30 3462 N 331.094 0.475555 1.50254 0
M  V30 3463 C 332.057 -0.305016 2.27161 0
M  V30 3464 C 333.057 -0.916519 1.32123 0
M  V30 3465 O 334.247 -0.785003 1.5551 0
M  V30 3466 C 331.379 -1.43496 3.09227 0
M  V30 3467 H 332.572 0.369511 2.97615 0
M  V30 3468 H 330.125 0.229747 1.54602 0
M  V30 3469 H 330.86 -2.14441 2.43281 0
M  V30 3470 H 330.645 -1.00223 3.79075 0
M  V30 3471 H 332.135 -1.98548 3.67381 0
M  V30 3472 N 332.573 -1.56217 0.208337 0
M  V30 3473 C 333.803 -2.02043 -0.431523 0
M  V30 3474 C 334.211 -1.08755 -1.54819 0
M  V30 3475 O 333.554 -0.0870009 -1.83494 0
M  V30 3476 C 333.616 -3.44239 -1.03633 0
M  V30 3477 C 333.28 -4.56965 -0.0567502 0
M  V30 3478 C 334.277 -5.14624 0.738773 0
M  V30 3479 C 331.962 -5.02266 0.0581736 0
M  V30 3480 C 333.956 -6.16045 1.63605 0
M  V30 3481 C 331.643 -6.03528 0.959001 0
M  V30 3482 C 332.641 -6.60293 1.7465 0
M  V30 3483 O 332.329 -7.59586 2.6322 0
M  V30 3484 H 332.061 -0.666772 -0.111313 0
M  V30 3485 H 334.615 -2.02919 0.318277 0
M  V30 3486 H 332.845 -3.40391 -1.83497 0
M  V30 3487 H 334.534 -3.73793 -1.58221 0
M  V30 3488 H 335.3 -4.80483 0.660364 0
M  V30 3489 H 331.179 -4.57771 -0.544633 0
M  V30 3490 H 334.723 -6.60279 2.25116 0
M  V30 3491 H 330.62 -6.37092 1.03848 0
M  V30 3492 H 331.388 -7.77057 2.57148 0
M  V30 3493 N 334.051 0.0651679 -1.57465 0
M  V30 3494 C 334.961 1.09448 -2.07505 0
M  V30 3495 C 335.977 1.41974 -1.00595 0
M  V30 3496 O 337.153 1.52018 -1.32107 0
M  V30 3497 C 334.218 2.38689 -2.51453 0
M  V30 3498 C 333.279 2.13073 -3.72691 0
M  V30 3499 C 332.512 3.36152 -4.14533 0
M  V30 3500 O 332.735 4.45517 -3.56189 0
M  V30 3501 O 331.669 3.23974 -5.07272 0
M  V30 3502 H 335.495 0.69935 -2.95538 0
M  V30 3503 H 333.08 0.279752 -1.46757 0
M  V30 3504 H 334.962 3.14736 -2.80212 0
M  V30 3505 H 333.637 2.77568 -1.66546 0
M  V30 3506 H 332.544 1.34709 -3.49005 0
M  V30 3507 H 333.877 1.79071 -4.5847 0
M  V30 3508 N 335.529 1.53961 0.336706 0
M  V30 3509 C 336.94 1.62914 0.911925 0
M  V30 3510 C 337.291 0.514795 1.89326 0
M  V30 3511 O 336.416 -0.354395 2.13478 0
M  V30 3512 C 337.011 2.95304 1.66076 0
M  V30 3513 C 335.57 3.06496 2.18489 0
M  V30 3514 C 334.717 2.58403 1.00613 0
M  V30 3515 H 337.668 1.58285 0.114649 0
M  V30 3516 H 337.689 2.84727 2.5241 0
M  V30 3517 H 337.201 3.76387 0.946276 0
M  V30 3518 H 335.302 2.3006 2.93092 0
M  V30 3519 H 335.415 4.1208 2.44391 0
M  V30 3520 H 333.779 2.13977 1.38152 0
M  V30 3521 H 334.562 3.41932 0.306179 0
M  V30 3522 N 337.007 -0.598083 1.45811 0
M  V30 3523 C 338.255 -1.35413 1.50026 0
M  V30 3524 C 338.576 -1.94444 0.147177 0
M  V30 3525 O 337.846 -1.77701 -0.824571 0
M  V30 3526 H 336.426 -0.502727 0.552517 0
M  V30 3527 H 339.088 -0.701606 1.81834 0
M  V30 3528 H 338.184 -2.16871 2.2444 0
M  V30 3529 N 338.485 -1.33259 -0.841409 0
M  V30 3530 C 339.901 -1.12538 -1.13169 0
M  V30 3531 C 340.101 0.0854037 -2.01319 0
M  V30 3532 O 339.157 0.766417 -2.40587 0
M  V30 3533 C 340.47 -2.41156 -1.79623 0
M  V30 3534 C 342.018 -2.47038 -1.922 0
M  V30 3535 C 342.493 -3.7561 -2.6207 0
M  V30 3536 N 343.984 -3.76667 -2.69585 0
M  V30 3537 C 344.719 -4.72861 -3.2433 0
M  V30 3538 N 344.215 -5.79428 -3.79783 0
M  V30 3539 N 346.008 -4.6034 -3.22558 0
M  V30 3540 H 338.159 -2.10868 -0.254676 0
M  V30 3541 H 340.422 -0.931615 -0.175493 0
M  V30 3542 H 340.128 -3.29747 -1.22311 0
M  V30 3543 H 340.002 -2.53114 -2.79666 0
M  V30 3544 H 342.389 -1.58898 -2.48667 0
M  V30 3545 H 342.47 -2.39022 -0.911148 0
M  V30 3546 H 342.114 -4.64131 -2.06263 0
M  V30 3547 H 342.044 -3.80902 -3.63622 0
M  V30 3548 H 344.535 -2.99648 -2.30259 0
M  V30 3549 H 344.848 -6.48867 -4.19752 0
M  V30 3550 H 343.193 -5.83166 -3.78078 0
M  V30 3551 H 346.384 -3.76244 -2.78492 0
M  V30 3552 H 346.557 -5.35478 -3.64921 0
M  V30 3553 N 339.963 1.05934 -1.16686 0
M  V30 3554 C 341.193 1.82226 -0.973515 0
M  V30 3555 C 341.601 1.8297 0.481532 0
M  V30 3556 O 340.944 1.25009 1.34604 0
M  V30 3557 C 341.006 3.29897 -1.42858 0
M  V30 3558 C 340.67 3.52849 -2.90425 0
M  V30 3559 C 341.667 3.45595 -3.88407 0
M  V30 3560 C 339.352 3.80053 -3.28428 0
M  V30 3561 C 341.346 3.65217 -5.22394 0
M  V30 3562 C 339.033 3.99325 -4.62583 0
M  V30 3563 C 340.031 3.91905 -5.59374 0
M  V30 3564 O 339.719 4.10647 -6.91104 0
M  V30 3565 H 339.451 0.581314 -0.345036 0
M  V30 3566 H 342.005 1.3453 -1.55212 0
M  V30 3567 H 340.235 3.78472 -0.793477 0
M  V30 3568 H 341.924 3.87692 -1.20207 0
M  V30 3569 H 342.69 3.24564 -3.60393 0
M  V30 3570 H 338.569 3.84936 -2.53664 0
M  V30 3571 H 342.113 3.59341 -5.9793 0
M  V30 3572 H 338.01 4.19846 -4.90306 0
M  V30 3573 H 338.778 4.27915 -6.97733 0
M  V30 3574 N 341.441 0.965919 1.2453 0
M  V30 3575 C 342.687 0.62776 1.92839 0
M  V30 3576 C 343.02 -0.834694 1.75347 0
M  V30 3577 O 342.295 -1.60031 1.10546 0
M  V30 3578 C 342.578 1.00109 3.45905 0
M  V30 3579 C 342.431 2.52011 3.72573 0
M  V30 3580 C 343.75 0.53435 4.36844 0
M  V30 3581 H 340.869 0.229537 0.700344 0
M  V30 3582 H 343.511 1.2046 1.46933 0
M  V30 3583 H 341.661 0.510238 3.85135 0
M  V30 3584 H 343.333 3.08559 3.42912 0
M  V30 3585 H 341.576 2.95287 3.17786 0
M  V30 3586 H 342.247 2.73183 4.79661 0
M  V30 3587 H 344.723 0.955565 4.04979 0
M  V30 3588 H 343.599 0.824152 5.42678 0
M  V30 3589 H 343.86 -0.565589 4.38467 0
M  V30 3590 N 342.919 -1.39368 0.735821 0
M  V30 3591 C 344.147 -2.04795 0.294393 0
M  V30 3592 C 344.562 -1.55478 -1.07107 0
M  V30 3593 O 343.919 -0.720038 -1.67695 0
M  V30 3594 C 343.97 -3.6035 0.288071 0
M  V30 3595 O 343.691 -4.07852 1.59963 0
M  V30 3596 C 345.192 -4.42976 -0.169422 0
M  V30 3597 H 342.412 -0.658571 0.128551 0
M  V30 3598 H 344.956 -1.78399 0.999701 0
M  V30 3599 H 343.111 -3.85645 -0.368355 0
M  V30 3600 H 343.525 -5.02181 1.51375 0
M  V30 3601 H 344.999 -5.51864 -0.122687 0
M  V30 3602 H 345.476 -4.22068 -1.21472 0
M  V30 3603 H 346.082 -4.22832 0.457469 0
M  V30 3604 N 344.397 -0.483516 -1.5 0
M  V30 3605 C 345.644 0.0671597 -2.02389 0
M  V30 3606 C 345.972 1.38597 -1.36459 0
M  V30 3607 O 345.227 1.89634 -0.483458 0
M  V30 3608 C 345.526 0.286226 -3.56252 0
M  V30 3609 C 345.192 -0.952416 -4.40726 0
M  V30 3610 C 343.854 -1.29199 -4.63531 0
M  V30 3611 C 346.206 -1.77655 -4.89988 0
M  V30 3612 C 343.534 -2.45553 -5.32842 0
M  V30 3613 C 345.886 -2.93147 -5.60578 0
M  V30 3614 C 344.55 -3.27505 -5.81633 0
M  V30 3615 H 343.82 0.0245755 -0.740592 0
M  V30 3616 H 346.467 -0.640124 -1.80485 0
M  V30 3617 H 344.772 1.07587 -3.76739 0
M  V30 3618 H 346.469 0.726473 -3.94365 0
M  V30 3619 H 343.059 -0.677881 -4.23205 0
M  V30 3620 H 347.243 -1.52737 -4.72213 0
M  V30 3621 H 342.499 -2.72431 -5.47349 0
M  V30 3622 H 346.673 -3.57344 -5.97727 0
M  V30 3623 H 344.3 -4.1777 -6.35116 0
M  V30 3624 N 345.875 1.56104 -0.216619 0
M  V30 3625 C 346.838 2.18819 0.681962 0
M  V30 3626 C 347.838 1.14866 1.12528 0
M  V30 3627 O 349.028 1.40128 1.03488 0
M  V30 3628 C 346.16 2.80756 1.93362 0
M  V30 3629 H 347.353 2.99595 0.135254 0
M  V30 3630 H 344.906 1.56265 0.0330003 0
M  V30 3631 H 345.641 2.03837 2.52232 0
M  V30 3632 H 345.426 3.56876 1.62426 0
M  V30 3633 H 346.916 3.28844 2.57393 0
M  V30 3634 N 347.353 -0.0568162 1.57498 0
M  V30 3635 C 348.769 -0.411933 1.54192 0
M  V30 3636 C 348.969 -1.78287 0.938942 0
M  V30 3637 O 348.025 -2.46483 0.547919 0
M  V30 3638 C 349.338 -0.339244 2.9878 0
M  V30 3639 C 350.886 -0.418348 3.10192 0
M  V30 3640 C 351.361 -0.375407 4.56459 0
M  V30 3641 N 352.852 -0.435038 4.61153 0
M  V30 3642 C 353.587 -0.424265 5.71828 0
M  V30 3643 N 353.083 -0.367418 6.91825 0
M  V30 3644 N 354.876 -0.471938 5.60115 0
M  V30 3645 H 347.027 0.840684 1.95055 0
M  V30 3646 H 349.29 0.316987 0.893433 0
M  V30 3647 H 348.996 0.601742 3.46514 0
M  V30 3648 H 348.87 -1.14371 3.59443 0
M  V30 3649 H 351.257 -1.34976 2.62422 0
M  V30 3650 H 351.338 0.414962 2.52412 0
M  V30 3651 H 350.982 0.552219 5.04889 0
M  V30 3652 H 350.912 -1.22645 5.12119 0
M  V30 3653 H 353.403 -0.482612 3.74806 0
M  V30 3654 H 353.716 -0.363535 7.71944 0
M  V30 3655 H 352.061 -0.333879 6.94198 0
M  V30 3656 H 355.252 -0.514145 4.65268 0
M  V30 3657 H 355.425 -0.460073 6.46365 0
M  V30 3658 N 348.832 -1.54138 -0.328536 0
M  V30 3659 C 349.78 -1.83894 -1.42428 0
M  V30 3660 C 350.774 -0.710478 -1.53781 0
M  V30 3661 O 351.98 -0.894062 -1.56226 0
M  V30 3662 H 348.355 -0.582837 -0.475189 0
M  V30 3663 H 350.326 -2.75537 -1.14552 0
M  V30 3664 C 349.075 -2.07866 -2.78724 0
M  V30 3665 H 348.398 -2.94158 -2.7076 0
M  V30 3666 H 349.838 -2.32644 -3.54476 0
M  V30 3667 C 348.297 -0.868689 -3.25508 0
M  V30 3668 O 348.827 -0.0754908 -4.01629 0
M  V30 3669 N 347.033 -0.681711 -2.82491 0
M  V30 3670 H 346.58 -1.32838 -2.20708 0
M  V30 3671 H 346.538 0.126374 -3.14146 0
M  V30 3672 N 350.31 0.590341 -1.46126 0
M  V30 3673 C 351.721 1.17243 -1.45296 0
M  V30 3674 C 352.072 1.95281 -0.189723 0
M  V30 3675 O 351.197 2.04502 0.707674 0
M  V30 3676 C 351.792 2.13284 -2.6324 0
M  V30 3677 C 350.351 2.66832 -2.65476 0
M  V30 3678 C 349.498 1.42557 -2.3785 0
M  V30 3679 H 352.449 0.378692 -1.54116 0
M  V30 3680 H 352.47 2.96619 -2.38323 0
M  V30 3681 H 351.982 1.56459 -3.55165 0
M  V30 3682 H 350.083 3.27548 -1.77603 0
M  V30 3683 H 350.196 3.10088 -3.65215 0
M  V30 3684 H 348.56 1.72107 -1.87753 0
M  V30 3685 H 349.343 0.875741 -3.31942 0
M  V30 3686 N 351.788 1.33704 0.83433 0
M  V30 3687 C 353.065 1.16011 1.57483 0
M  V30 3688 C 353.445 -0.27176 2.09343 0
M  V30 3689 O 352.793 -1.27146 1.89858 0
M  V30 3690 C 353.003 2.20507 2.70514 0
M  V30 3691 C 354.351 2.54898 3.39577 0
M  V30 3692 O 355.375 2.19209 2.80759 0
M  V30 3693 O 354.234 3.16158 4.45765 0
M  V30 3694 H 351.328 0.448992 0.694503 0
M  V30 3695 H 353.874 1.453 0.876691 0
M  V30 3696 H 352.646 3.16667 2.29865 0
M  V30 3697 H 352.269 1.92329 3.47987 0
M  V30 3698 N 353.266 -1.05314 1.17247 0
M  V30 3699 C 354.496 -1.81707 0.983166 0
M  V30 3700 C 354.904 -1.83222 -0.471822 0
M  V30 3701 O 354.247 -1.25721 -1.3394 0
M  V30 3702 C 354.309 -3.29134 1.44606 0
M  V30 3703 C 353.973 -3.51304 2.92292 0
M  V30 3704 C 354.97 -3.4353 3.90235 0
M  V30 3705 C 352.655 -3.78306 3.30439 0
M  V30 3706 C 354.649 -3.62442 5.24323 0
M  V30 3707 C 352.336 -3.96866 4.64694 0
M  V30 3708 C 353.334 -3.88933 5.61445 0
M  V30 3709 O 353.022 -4.06976 6.93272 0
M  V30 3710 H 352.754 -0.579476 0.348114 0
M  V30 3711 H 355.308 -1.33705 1.55924 0
M  V30 3712 H 353.538 -3.78046 0.813537 0
M  V30 3713 H 355.227 -3.87049 1.22262 0
M  V30 3714 H 355.993 -3.22648 3.62109 0
M  V30 3715 H 351.872 -3.83585 2.55702 0
M  V30 3716 H 355.416 -3.56165 5.99827 0
M  V30 3717 H 351.313 -4.1724 4.92525 0
M  V30 3718 H 352.081 -4.24209 6.99992 0
M  V30 3719 N 354.744 -0.972509 -1.24016 0
M  V30 3720 C 355.99 -0.647583 -1.92816 0
M  V30 3721 C 356.345 0.809015 -1.74564 0
M  V30 3722 O 355.638 1.57502 -1.09103 0
M  V30 3723 C 355.832 -0.963694 -3.44162 0
M  V30 3724 C 355.661 -2.44947 -3.77135 0
M  V30 3725 C 354.431 -3.11012 -3.98246 0
M  V30 3726 C 356.629 -3.42978 -3.83237 0
M  V30 3727 N 354.611 -4.49277 -4.18358 0
M  V30 3728 C 355.982 -4.66619 -4.08248 0
M  V30 3729 C 358.037 -3.37569 -3.65994 0
M  V30 3730 C 356.74 -5.85516 -4.17808 0
M  V30 3731 C 358.766 -4.55822 -3.76802 0
M  V30 3732 C 358.128 -5.78256 -4.02243 0
M  V30 3733 H 354.227 -0.287894 -0.727077 0
M  V30 3734 H 356.811 -1.24835 -1.49413 0
M  V30 3735 H 354.982 -0.391692 -3.8642 0
M  V30 3736 H 356.714 -0.596849 -4.00275 0
M  V30 3737 H 353.469 -2.61529 -3.94841 0
M  V30 3738 H 353.893 -5.20935 -4.32384 0
M  V30 3739 H 358.535 -2.43945 -3.45327 0
M  V30 3740 H 356.253 -6.79564 -4.37285 0
M  V30 3741 H 359.839 -4.53204 -3.64825 0
M  V30 3742 H 358.719 -6.68231 -4.10411 0
M  V30 3743 N 356.222 1.38976 -0.743202 0
M  V30 3744 C 357.47 1.99948 -0.29417 0
M  V30 3745 C 357.791 1.59279 1.12495 0
M  V30 3746 O 357.061 0.844808 1.76748 0
M  V30 3747 H 355.641 0.739473 -0.105774 0
M  V30 3748 H 358.303 1.699 -0.954986 0
M  V30 3749 H 357.399 3.10142 -0.349056 0
M  V30 3750 N 357.7 0.491464 1.49741 0
M  V30 3751 C 358.663 -0.280906 2.27472 0
M  V30 3752 C 359.663 -0.902454 1.33088 0
M  V30 3753 O 360.853 -0.768465 1.56334 0
M  V30 3754 C 357.985 -1.40209 3.10732 0
M  V30 3755 H 359.178 0.401056 2.97206 0
M  V30 3756 H 356.731 0.246131 1.5435 0
M  V30 3757 H 357.466 -2.11849 2.45541 0
M  V30 3758 H 357.251 -0.961969 3.80117 0
M  V30 3759 H 358.741 -1.9464 3.69466 0
M  V30 3760 N 359.178 -1.55987 0.224894 0
M  V30 3761 C 360.455 -1.90232 -0.455083 0
M  V30 3762 C 360.835 -1.14269 -1.77499 0
M  V30 3763 O 360.183 -0.253079 -2.27094 0
M  V30 3764 C 360.393 -3.42993 -0.644758 0
M  V30 3765 C 361.741 -4.13821 -0.950669 0
M  V30 3766 O 362.765 -3.4861 -0.731423 0
M  V30 3767 O 361.624 -5.29128 -1.36695 0
M  V30 3768 H 358.718 -0.79108 -0.241084 0
M  V30 3769 H 361.264 -1.67581 0.267327 0
M  V30 3770 H 360.036 -3.90252 0.28613 0
M  V30 3771 H 359.659 -3.71434 -1.41853 0
M  V30 3772 N 360.656 0.0484629 -1.57525 0
M  V30 3773 C 361.586 1.0549 -2.08313 0
M  V30 3774 C 362.567 1.38929 -0.981463 0
M  V30 3775 O 363.752 1.48151 -1.25558 0
M  V30 3776 C 360.882 2.36162 -2.54646 0
M  V30 3777 C 359.836 2.17016 -3.68901 0
M  V30 3778 C 359.162 3.53278 -4.01371 0
M  V30 3779 C 360.462 1.57219 -4.98076 0
M  V30 3780 H 362.156 0.632195 -2.92649 0
M  V30 3781 H 359.702 0.302654 -1.40784 0
M  V30 3782 H 361.655 3.06882 -2.88793 0
M  V30 3783 H 360.379 2.80456 -1.67368 0
M  V30 3784 H 359.038 1.48733 -3.35073 0
M  V30 3785 H 358.686 3.95185 -3.11188 0
M  V30 3786 H 358.386 3.41299 -4.78318 0
M  V30 3787 H 359.91 4.25391 -4.38035 0
M  V30 3788 H 361.324 2.17832 -5.30304 0
M  V30 3789 H 359.721 1.55871 -5.79503 0
M  V30 3790 H 360.791 0.535956 -4.81929 0
M  V30 3791 N 362.134 1.5431 0.320358 0
M  V30 3792 C 363.382 1.72327 1.05583 0
M  V30 3793 C 363.703 0.50149 1.88441 0
M  V30 3794 O 362.973 -0.48448 1.89815 0
M  V30 3795 H 361.553 0.635387 0.3928 0
M  V30 3796 H 364.215 1.91621 0.356019 0
M  V30 3797 H 363.311 2.60426 1.72003 0
M  V30 3798 N 363.613 -0.582584 1.46437 0
M  V30 3799 C 364.86 -1.34079 1.51753 0
M  V30 3800 C 365.188 -1.93762 0.169299 0
M  V30 3801 O 364.443 -1.76989 -0.835062 0
M  V30 3802 C 364.742 -2.48964 2.56421 0
M  V30 3803 C 364.408 -2.07273 4.00436 0
M  V30 3804 C 363.07 -1.95618 4.39644 0
M  V30 3805 C 365.422 -1.75111 4.90903 0
M  V30 3806 C 362.75 -1.5006 5.67185 0
M  V30 3807 C 365.102 -1.31032 6.18881 0
M  V30 3808 C 363.766 -1.17954 6.56996 0
M  V30 3809 H 363.036 -0.49063 0.555304 0
M  V30 3810 H 365.683 -0.656007 1.79913 0
M  V30 3811 H 363.988 -3.22889 2.21923 0
M  V30 3812 H 365.685 -3.07178 2.57765 0
M  V30 3813 H 362.275 -2.17279 3.69443 0
M  V30 3814 H 366.459 -1.83001 4.61329 0
M  V30 3815 H 361.715 -1.38577 5.95488 0
M  V30 3816 H 365.889 -1.052 6.88408 0
M  V30 3817 H 363.516 -0.824279 7.55718 0
M  V30 3818 N 365.091 -1.34144 -0.827227 0
M  V30 3819 C 366.507 -1.13732 -1.11969 0
M  V30 3820 C 366.707 0.0640463 -2.01398 0
M  V30 3821 O 365.763 0.740856 -2.41387 0
M  V30 3822 C 367.076 -2.43047 -1.77055 0
M  V30 3823 C 368.624 -2.49063 -1.89569 0
M  V30 3824 C 369.099 -3.78369 -2.58072 0
M  V30 3825 N 370.59 -3.79505 -2.65575 0
M  V30 3826 C 371.325 -4.76274 -3.19297 0
M  V30 3827 N 370.821 -5.83424 -3.73616 0
M  V30 3828 N 372.614 -4.63735 -3.17658 0
M  V30 3829 H 364.765 -2.11126 -0.232296 0
M  V30 3830 H 367.028 -0.933424 -0.165602 0
M  V30 3831 H 366.734 -3.31025 -1.18807 0
M  V30 3832 H 366.608 -2.56066 -2.76966 0
M  V30 3833 H 368.995 -1.61527 -2.46968 0
M  V30 3834 H 369.076 -2.39975 -0.885745 0
M  V30 3835 H 368.72 -4.66293 -2.01329 0
M  V30 3836 H 368.65 -3.84737 -3.59562 0
M  V30 3837 H 371.141 -3.02074 -2.27068 0
M  V30 3838 H 371.454 -6.53282 -4.12846 0
M  V30 3839 H 369.799 -5.87143 -3.71871 0
M  V30 3840 H 372.99 -3.79177 -2.74486 0
M  V30 3841 H 373.163 -5.39318 -3.59221 0
M  V30 3842 N 366.569 1.04691 -1.17803 0
M  V30 3843 C 367.985 1.29963 -0.926379 0
M  V30 3844 C 368.185 1.97251 0.411635 0
M  V30 3845 O 367.241 2.24922 1.14744 0
M  V30 3846 C 368.554 2.16447 -2.08737 0
M  V30 3847 C 370.102 2.29814 -2.12496 0
M  V30 3848 C 370.577 3.19661 -3.27995 0
M  V30 3849 N 372.068 3.27247 -3.27816 0
M  V30 3850 C 372.803 3.96906 -4.13827 0
M  V30 3851 N 372.299 4.6895 -5.09959 0
M  V30 3852 N 374.092 3.93122 -4.01761 0
M  V30 3853 H 366.243 0.594182 -2.0392 0
M  V30 3854 H 368.506 0.324649 -0.890678 0
M  V30 3855 H 368.212 1.74304 -3.05469 0
M  V30 3856 H 368.086 3.17103 -2.04268 0
M  V30 3857 H 370.473 2.71196 -1.16347 0
M  V30 3858 H 370.554 1.2877 -2.21025 0
M  V30 3859 H 370.198 2.78991 -4.24413 0
M  V30 3860 H 370.128 4.20722 -3.16703 0
M  V30 3861 H 372.619 2.75921 -2.58217 0
M  V30 3862 H 372.932 5.19679 -5.71974 0
M  V30 3863 H 371.277 4.67875 -5.13924 0
M  V30 3864 H 374.468 3.35967 -3.2595 0
M  V30 3865 H 374.641 4.47139 -4.6901 0
M  V30 3866 N 368.047 0.979072 1.23499 0
M  V30 3867 C 369.295 0.645941 1.91499 0
M  V30 3868 C 369.616 -0.822948 1.76784 0
M  V30 3869 O 368.886 -1.58854 1.14639 0
M  V30 3870 H 367.466 0.235919 0.708767 0
M  V30 3871 H 370.128 1.2426 1.50152 0
M  V30 3872 H 369.224 0.896411 2.9895 0
M  V30 3873 N 369.525 -1.3858 0.750561 0
M  V30 3874 C 370.753 -2.04471 0.316098 0
M  V30 3875 C 371.168 -1.56606 -1.05452 0
M  V30 3876 O 370.525 -0.737784 -1.66922 0
M  V30 3877 C 370.576 -3.60025 0.326275 0
M  V30 3878 O 370.297 -4.06133 1.6428 0
M  V30 3879 C 371.798 -4.43131 -0.122429 0
M  V30 3880 H 369.018 -0.65717 0.135528 0
M  V30 3881 H 371.562 -1.77329 1.01857 0
M  V30 3882 H 369.717 -3.86014 -0.327431 0
M  V30 3883 H 370.131 -5.00547 1.56693 0
M  V30 3884 H 371.605 -5.51963 -0.0641473 0
M  V30 3885 H 372.082 -4.23333 -1.16988 0
M  V30 3886 H 372.688 -4.22323 0.50229 0
M  V30 3887 N 371.003 -0.499398 -1.49478 0
M  V30 3888 C 371.936 0.326491 -2.25852 0
M  V30 3889 C 372.914 0.971776 -1.30366 0
M  V30 3890 O 374.098 1.00219 -1.59651 0
M  V30 3891 C 371.225 1.45969 -3.05632 0
M  V30 3892 C 370.271 0.928938 -4.16261 0
M  V30 3893 S 371.104 -0.179012 -5.35201 0
M  V30 3894 C 372.26 0.957389 -6.18534 0
M  V30 3895 H 372.493 -0.321746 -2.95554 0
M  V30 3896 H 370.026 -0.284674 -1.51753 0
M  V30 3897 H 371.984 2.109 -3.52181 0
M  V30 3898 H 370.645 2.07953 -2.35402 0
M  V30 3899 H 369.838 1.77813 -4.71592 0
M  V30 3900 H 369.44 0.356869 -3.72293 0
M  V30 3901 H 371.732 1.86296 -6.51383 0
M  V30 3902 H 372.675 0.442733 -7.06715 0
M  V30 3903 H 373.083 1.224 -5.5107 0
M  V30 3904 N 372.481 1.55866 -0.233164 0
M  V30 3905 C 373.429 2.22176 0.68851 0
M  V30 3906 C 374.423 1.20487 1.19076 0
M  V30 3907 O 375.629 1.38536 1.14925 0
M  V30 3908 H 372.004 0.712511 0.240483 0
M  V30 3909 H 373.975 2.98212 0.105935 0
M  V30 3910 C 372.724 2.92446 1.88071 0
M  V30 3911 H 372.047 3.70458 1.50337 0
M  V30 3912 H 373.487 3.42226 2.50314 0
M  V30 3913 C 371.946 1.95555 2.74335 0
M  V30 3914 O 372.476 1.47986 3.73447 0
M  V30 3915 N 370.682 1.62953 2.40613 0
M  V30 3916 H 370.229 2.01831 1.60069 0
M  V30 3917 H 370.187 0.983886 2.98609 0
M  V30 3918 N 373.959 -0.0401083 1.57549 0
M  V30 3919 C 375.206 -0.733125 1.88763 0
M  V30 3920 C 375.534 -1.75946 0.829058 0
M  V30 3921 O 374.789 -1.94949 -0.171323 0
M  V30 3922 C 375.088 -1.44902 3.26708 0
M  V30 3923 C 374.754 -0.559707 4.47413 0
M  V30 3924 C 373.416 -0.314731 4.8017 0
M  V30 3925 C 375.768 0.0549743 5.21171 0
M  V30 3926 C 373.096 0.553886 5.8408 0
M  V30 3927 C 375.448 0.911229 6.26003 0
M  V30 3928 C 374.112 1.16577 6.57241 0
M  V30 3929 H 373.382 -0.268269 0.690733 0
M  V30 3930 H 376.029 0.00679408 1.91499 0
M  V30 3931 H 374.334 -2.26197 3.1991 0
M  V30 3932 H 376.031 -1.99058 3.48105 0
M  V30 3933 H 372.621 -0.760793 4.21794 0
M  V30 3934 H 376.805 -0.121344 4.96152 0
M  V30 3935 H 372.061 0.759518 6.06664 0
M  V30 3936 H 376.235 1.3941 6.82303 0
M  V30 3937 H 373.862 1.84058 7.37582 0
M  V30 3938 N 375.437 -1.54477 -0.31217 0
M  V30 3939 C 376.714 -1.63891 -1.06767 0
M  V30 3940 C 377.094 -0.480028 -2.0557 0
M  V30 3941 O 376.442 0.524487 -2.22399 0
M  V30 3942 C 376.652 -3.01402 -1.75948 0
M  V30 3943 C 378 -3.57838 -2.28554 0
M  V30 3944 O 379.024 -3.03782 -1.85998 0
M  V30 3945 O 377.883 -4.52462 -3.06497 0
M  V30 3946 H 374.977 -0.664125 -0.492816 0
M  V30 3947 H 377.523 -1.66823 -0.311149 0
M  V30 3948 H 376.295 -3.77187 -1.04144 0
M  V30 3949 H 375.918 -3.02199 -2.58383 0
M  V30 3950 N 376.915 0.57481 -1.46744 0
M  V30 3951 C 377.825 1.711 -1.60505 0
M  V30 3952 C 378.841 1.67008 -0.488307 0
M  V30 3953 O 380.017 1.86774 -0.753495 0
M  V30 3954 C 377.082 3.07608 -1.59932 0
M  V30 3955 C 376.143 3.22904 -2.82898 0
M  V30 3956 C 375.376 4.529 -2.82343 0
M  V30 3957 O 375.599 5.37278 -1.91542 0
M  V30 3958 O 374.533 4.71611 -3.73987 0
M  V30 3959 H 378.359 1.62436 -2.56609 0
M  V30 3960 H 375.944 0.742779 -1.29627 0
M  V30 3961 H 377.826 3.88877 -1.62336 0
M  V30 3962 H 376.501 3.16692 -0.669898 0
M  V30 3963 H 375.408 2.41099 -2.86046 0
M  V30 3964 H 376.741 3.18715 -3.75076 0
M  V30 3965 N 378.394 1.34581 0.820102 0
M  V30 3966 C 379.327 1.20735 1.93644 0
M  V30 3967 C 380.305 0.0983343 1.62302 0
M  V30 3968 O 381.489 0.263997 1.86642 0
M  V30 3969 C 378.616 0.856037 3.27704 0
M  V30 3970 C 377.662 1.97521 3.78005 0
M  V30 3971 S 378.495 3.58906 3.97425 0
M  V30 3972 C 379.651 3.25822 5.34407 0
M  V30 3973 H 379.884 2.15231 2.05093 0
M  V30 3974 H 377.417 1.1964 0.97599 0
M  V30 3975 H 379.375 0.660133 4.05157 0
M  V30 3976 H 378.036 -0.0706253 3.14021 0
M  V30 3977 H 377.229 1.68321 4.75062 0
M  V30 3978 H 376.831 2.12875 3.07507 0
M  V30 3979 H 379.123 2.77812 6.17922 0
M  V30 3980 H 380.066 4.22029 5.68592 0
M  V30 3981 H 380.474 2.61932 5.00052 0
M  V30 3982 N 379.872 -1.04064 1.18357 0
M  V30 3983 C 381.288 -1.2947 0.933258 0
M  V30 3984 C 381.488 -1.97466 -0.401169 0
M  V30 3985 O 380.544 -2.25528 -1.13549 0
M  V30 3986 C 381.857 -2.15337 2.09882 0
M  V30 3987 C 383.405 -2.28683 2.13712 0
M  V30 3988 C 383.88 -3.17917 3.29686 0
M  V30 3989 N 385.371 -3.25504 3.29547 0
M  V30 3990 C 386.106 -3.94706 4.15926 0
M  V30 3991 N 385.602 -4.66239 5.12439 0
M  V30 3992 N 387.395 -3.90986 4.0384 0
M  V30 3993 H 379.546 -0.583359 2.04232 0
M  V30 3994 H 381.809 -0.319921 0.892387 0
M  V30 3995 H 381.515 -1.72682 3.06389 0
M  V30 3996 H 381.389 -3.16015 2.05947 0
M  V30 3997 H 383.776 -2.70575 1.17784 0
M  V30 3998 H 383.857 -1.27596 2.21705 0
M  V30 3999 H 383.501 -2.76736 4.25887 0
M  V30 4000 H 383.431 -4.19036 3.1893 0
M  V30 4001 H 385.922 -2.74547 2.59677 0
M  V30 4002 H 386.235 -5.16638 5.74722 0
M  V30 4003 H 384.58 -4.65143 5.16398 0
M  V30 4004 H 387.771 -3.34234 3.27727 0
M  V30 4005 H 387.944 -4.44646 4.71375 0
M  V30 4006 N 381.35 -0.985608 -1.22978 0
M  V30 4007 C 382.599 -0.652881 -1.90841 0
M  V30 4008 C 382.912 0.817842 -1.77681 0
M  V30 4009 O 384.118 1.26185 -2.40395 0
M  V30 4010 C 382.574 -1.11717 -3.42122 0
M  V30 4011 C 382.182 -2.6126 -3.63933 0
M  V30 4012 C 383.926 -0.85843 -4.1573 0
M  V30 4013 C 381.833 -3.0133 -5.08876 0
M  V30 4014 H 380.763 -0.240491 -0.714619 0
M  V30 4015 H 383.414 -1.1942 -1.39324 0
M  V30 4016 H 381.796 -0.504027 -3.92779 0
M  V30 4017 H 382.97 -3.27858 -3.23799 0
M  V30 4018 H 381.285 -2.84937 -3.03644 0
M  V30 4019 H 383.882 -1.13359 -5.22546 0
M  V30 4020 H 384.225 0.205461 -4.15793 0
M  V30 4021 H 384.758 -1.43341 -3.71077 0
M  V30 4022 H 381.497 -4.06864 -5.13947 0
M  V30 4023 H 381.017 -2.3943 -5.49939 0
M  V30 4024 H 382.696 -2.92224 -5.77247 0
M  V30 4025 N 382.828 1.3818 -0.7579 0
M  V30 4026 C 384.105 1.94106 -0.241306 0
M  V30 4027 C 384.485 1.69282 1.26122 0
M  V30 4028 O 383.833 1.03378 2.03777 0
M  V30 4029 C 384.043 3.43809 -0.59967 0
M  V30 4030 C 385.391 4.20868 -0.561717 0
M  V30 4031 O 386.415 3.5211 -0.538222 0
M  V30 4032 O 385.274 5.43451 -0.576478 0
M  V30 4033 H 382.368 0.825376 -0.0518042 0
M  V30 4034 H 384.914 1.47548 -0.838315 0
M  V30 4035 H 383.686 3.55403 -1.6372 0
M  V30 4036 H 383.309 3.97592 0.0251197 0
M  V30 4037 N 384.306 0.507319 1.49211 0
M  V30 4038 C 385.553 -0.0349529 2.0247 0
M  V30 4039 C 385.881 -1.36409 1.38647 0
M  V30 4040 O 385.136 -1.88841 0.513566 0
M  V30 4041 C 385.435 -0.229513 3.56662 0
M  V30 4042 C 385.101 1.02241 4.39156 0
M  V30 4043 C 383.763 1.36557 4.61417 0
M  V30 4044 C 386.115 1.85428 4.871 0
M  V30 4045 C 383.443 2.53999 5.28868 0
M  V30 4046 C 385.795 3.02028 5.55843 0
M  V30 4047 C 384.459 3.36717 5.76349 0
M  V30 4048 H 383.729 -0.0127902 0.74089 0
M  V30 4049 H 386.376 0.668756 1.79443 0
M  V30 4050 H 384.681 -1.0158 3.78403 0
M  V30 4051 H 386.378 -0.663641 3.9547 0
M  V30 4052 H 382.968 0.745124 4.22073 0
M  V30 4053 H 387.152 1.6023 4.69723 0
M  V30 4054 H 382.408 2.81105 5.42946 0
M  V30 4055 H 386.582 3.66808 5.91967 0
M  V30 4056 H 384.209 4.27821 6.28389 0
M  V30 4057 N 385.784 -1.5574 0.241426 0
M  V30 4058 C 387.031 -1.9881 -0.384836 0
M  V30 4059 C 387.359 -1.12947 -1.58346 0
M  V30 4060 O 386.614 -0.178993 -1.9488 0
M  V30 4061 C 386.913 -3.47308 -0.843317 0
M  V30 4062 C 386.579 -4.50223 0.246946 0
M  V30 4063 C 385.241 -4.78088 0.546399 0
M  V30 4064 C 387.593 -5.11841 0.983282 0
M  V30 4065 C 384.921 -5.64846 1.58636 0
M  V30 4066 C 387.273 -5.99727 2.01272 0
M  V30 4067 C 385.937 -6.25927 2.31888 0
M  V30 4068 H 385.207 -0.727496 -0.140821 0
M  V30 4069 H 387.854 -1.8831 0.348106 0
M  V30 4070 H 386.159 -3.55112 -1.65537 0
M  V30 4071 H 387.856 -3.78017 -1.33806 0
M  V30 4072 H 384.446 -4.286 0.00340639 0
M  V30 4073 H 388.63 -4.90366 0.765182 0
M  V30 4074 H 383.886 -5.83403 1.82896 0
M  V30 4075 H 388.06 -6.46517 2.58823 0
M  V30 4076 H 385.687 -6.92949 3.12611 0
M  V30 4077 N 387.262 0.0317525 -1.57568 0
M  V30 4078 C 388.51 0.721676 -1.88776 0
M  V30 4079 C 388.831 1.76039 -0.838772 0
M  V30 4080 O 388.101 1.95482 0.127935 0
M  V30 4081 H 386.681 0.269534 -0.696678 0
M  V30 4082 H 389.343 -0.00165879 -1.949 0
M  V30 4083 H 388.439 1.21293 -2.87566 0
M  V30 4084 N 388.74 1.54641 0.303973 0
M  V30 4085 C 390.017 1.64455 1.05896 0
M  V30 4086 C 390.397 0.490923 2.05312 0
M  V30 4087 O 389.745 -0.512685 2.22674 0
M  V30 4088 C 389.955 3.02331 1.74347 0
M  V30 4089 C 391.303 3.59045 2.26653 0
M  V30 4090 O 392.327 3.04764 1.84384 0
M  V30 4091 O 391.186 4.54081 3.04093 0
M  V30 4092 H 388.28 0.666729 0.489287 0
M  V30 4093 H 390.826 1.66986 0.302298 0
M  V30 4094 H 389.598 3.77734 1.02142 0
M  V30 4095 H 389.221 3.03565 2.56777 0
M  V30 4096 N 390.218 -0.567019 1.47046 0
M  V30 4097 C 391.466 -1.322 1.52864 0
M  V30 4098 C 391.787 -1.94088 0.188388 0
M  V30 4099 O 391.057 -1.7941 -0.786693 0
M  V30 4100 H 389.637 -0.490894 0.563056 0
M  V30 4101 H 392.299 -0.662879 1.83281 0
M  V30 4102 H 391.395 -2.12062 2.2899 0
M  V30 4103 N 391.696 -1.35014 -0.812953 0
M  V30 4104 C 392.924 -1.31031 -1.6012 0
M  V30 4105 C 393.339 0.113558 -1.88458 0
M  V30 4106 O 392.696 1.06363 -1.48301 0
M  V30 4107 C 392.747 -2.10872 -2.93624 0
M  V30 4108 O 392.468 -3.47706 -2.66518 0
M  V30 4109 C 393.969 -2.14401 -3.88004 0
M  V30 4110 H 391.189 -0.45037 -0.497401 0
M  V30 4111 H 393.733 -1.77775 -1.01076 0
M  V30 4112 H 391.888 -1.67744 -3.492 0
M  V30 4113 H 392.302 -3.89097 -3.51715 0
M  V30 4114 H 393.776 -2.74669 -4.78812 0
M  V30 4115 H 394.253 -1.14105 -4.24119 0
M  V30 4116 H 394.859 -2.57662 -3.38364 0
M  V30 4117 N 393.175 1.03435 -1.18907 0
M  V30 4118 C 394.421 1.77005 -0.989798 0
M  V30 4119 C 394.754 1.88205 0.478816 0
M  V30 4120 O 394.029 1.39481 1.35556 0
M  V30 4121 C 394.312 3.19925 -1.65287 0
M  V30 4122 C 394.165 3.1663 -3.19477 0
M  V30 4123 C 395.484 4.18189 -1.37134 0
M  V30 4124 H 392.603 0.642538 -0.360991 0
M  V30 4125 H 395.245 1.20784 -1.46667 0
M  V30 4126 H 393.395 3.67929 -1.24741 0
M  V30 4127 H 395.067 2.76567 -3.692 0
M  V30 4128 H 393.31 2.54491 -3.51307 0
M  V30 4129 H 393.981 4.1758 -3.61013 0
M  V30 4130 H 396.457 3.78761 -1.72276 0
M  V30 4131 H 395.333 5.16394 -1.86087 0
M  V30 4132 H 395.594 4.41112 -0.295424 0
M  V30 4133 N 394.653 0.992116 1.22453 0
M  V30 4134 C 395.583 0.561677 2.26644 0
M  V30 4135 C 396.564 -0.411055 1.65059 0
M  V30 4136 O 397.749 -0.301861 1.9184 0
M  V30 4137 C 394.879 -0.125247 3.47074 0
M  V30 4138 C 393.833 0.765948 4.21091 0
M  V30 4139 C 393.159 -0.0538484 5.34673 0
M  V30 4140 C 394.459 2.06242 4.79856 0
M  V30 4141 H 396.153 1.43259 2.62902 0
M  V30 4142 H 393.699 0.690283 1.26377 0
M  V30 4143 H 395.652 -0.437764 4.1912 0
M  V30 4144 H 394.376 -1.03069 3.0991 0
M  V30 4145 H 393.035 1.0621 3.50878 0
M  V30 4146 H 392.683 -0.960188 4.9375 0
M  V30 4147 H 392.383 0.539415 5.85119 0
M  V30 4148 H 393.907 -0.360477 6.09535 0
M  V30 4149 H 395.321 1.8139 5.43848 0
M  V30 4150 H 393.718 2.60444 5.40638 0
M  V30 4151 H 394.788 2.74167 3.99951 0
M  V30 4152 N 396.131 -1.37776 0.765217 0
M  V30 4153 C 397.064 -2.28008 0.0935025 0
M  V30 4154 C 398.042 -1.45985 -0.716047 0
M  V30 4155 O 399.226 -1.75331 -0.692203 0
M  V30 4156 C 396.353 -3.27228 -0.874052 0
M  V30 4157 C 395.399 -4.26239 -0.149307 0
M  V30 4158 S 396.232 -5.22827 1.15809 0
M  V30 4159 C 397.388 -6.256 0.193906 0
M  V30 4160 H 397.621 -2.84631 0.858637 0
M  V30 4161 H 395.154 -1.43952 0.558313 0
M  V30 4162 H 397.112 -3.84902 -1.42691 0
M  V30 4163 H 395.773 -2.69565 -1.61225 0
M  V30 4164 H 394.966 -4.96213 -0.88254 0
M  V30 4165 H 394.568 -3.7252 0.332366 0
M  V30 4166 H 396.86 -6.74508 -0.636011 0
M  V30 4167 H 397.803 -7.02838 0.861638 0
M  V30 4168 H 398.211 -5.64173 -0.191975 0
M  V30 4169 N 397.609 -0.515225 -1.4894 0
M  V30 4170 C 398.519 0.259774 -2.33157 0
M  V30 4171 C 399.535 0.953501 -1.45548 0
M  V30 4172 O 400.711 0.931735 -1.78552 0
M  V30 4173 C 397.776 1.30193 -3.21326 0
M  V30 4174 C 396.837 0.620129 -4.24797 0
M  V30 4175 C 396.07 1.61263 -5.08753 0
M  V30 4176 O 396.293 2.84389 -4.94448 0
M  V30 4177 O 395.227 1.16013 -5.90614 0
M  V30 4178 H 399.053 -0.429932 -3.00641 0
M  V30 4179 H 396.638 -0.276346 -1.46822 0
M  V30 4180 H 398.52 1.90455 -3.75905 0
M  V30 4181 H 397.195 1.97431 -2.56521 0
M  V30 4182 H 396.102 -0.0226019 -3.74093 0
M  V30 4183 H 397.435 -0.0100493 -4.92199 0
M  V30 4184 N 399.087 1.5561 -0.249682 0
M  V30 4185 C 400.05 2.20217 0.635394 0
M  V30 4186 C 401.05 1.17227 1.10066 0
M  V30 4187 O 402.24 1.42292 1.00492 0
M  V30 4188 C 399.372 2.84794 1.87363 0
M  V30 4189 H 400.565 2.99814 0.0716752 0
M  V30 4190 H 398.118 1.563 -0.000153234 0
M  V30 4191 H 398.853 2.09142 2.47851 0
M  V30 4192 H 398.638 3.60241 1.5482 0
M  V30 4193 H 400.128 3.3423 2.5036 0
M  V30 4194 N 400.565 -0.0233959 1.57583 0
M  V30 4195 C 401.812 -0.713063 1.8953 0
M  V30 4196 C 402.14 -1.75056 0.847673 0
M  V30 4197 O 401.395 -1.95119 -0.150636 0
M  V30 4198 C 401.694 -1.41428 3.28227 0
M  V30 4199 C 401.36 -0.512222 4.47981 0
M  V30 4200 C 400.022 -0.263785 4.80476 0
M  V30 4201 C 402.374 0.110248 5.21083 0
M  V30 4202 C 399.702 0.615804 5.83459 0
M  V30 4203 C 402.054 0.977573 6.25001 0
M  V30 4204 C 400.718 1.23542 6.55968 0
M  V30 4205 H 399.988 -0.260928 0.69354 0
M  V30 4206 H 402.635 0.0271047 1.91481 0
M  V30 4207 H 400.94 -2.22791 3.22291 0
M  V30 4208 H 402.637 -1.95355 3.50196 0
M  V30 4209 H 399.227 -0.716013 4.22577 0
M  V30 4210 H 403.411 -0.0687137 4.96252 0
M  V30 4211 H 398.667 0.82382 6.05824 0
M  V30 4212 H 402.841 1.46638 6.80786 0
M  V30 4213 H 400.468 1.91871 7.35588 0
M  V30 4214 N 402.043 -1.548 -0.295768 0
M  V30 4215 C 402.99 -1.86113 -1.36494 0
M  V30 4216 C 403.96 -0.7105 -1.50137 0
M  V30 4217 O 405.145 -0.959626 -1.64912 0
M  V30 4218 C 402.285 -2.11861 -2.72413 0
M  V30 4219 C 401.398 -3.39471 -2.67177 0
M  V30 4220 C 400.533 -3.55035 -3.95125 0
M  V30 4221 C 399.572 -4.76418 -3.84308 0
M  V30 4222 N 398.709 -4.8876 -5.04042 0
M  V30 4223 H 403.549 -2.77314 -1.09091 0
M  V30 4224 H 401.086 -1.37315 -0.52753 0
M  V30 4225 H 403.044 -2.24786 -3.51464 0
M  V30 4226 H 401.674 -1.2392 -2.98066 0
M  V30 4227 H 400.726 -3.35139 -1.79962 0
M  V30 4228 H 402.038 -4.28646 -2.55076 0
M  V30 4229 H 401.192 -3.67653 -4.82614 0
M  V30 4230 H 399.931 -2.64002 -4.10066 0
M  V30 4231 H 398.936 -4.63827 -2.95202 0
M  V30 4232 H 400.161 -5.68863 -3.70906 0
M  V30 4233 H 398.107 -4.00652 -5.19436 0
M  V30 4234 H 398.024 -5.71945 -4.94384 0
M  V30 4235 H 399.292 -5.0574 -5.93167 0
M  V30 4236 N 403.521 0.559213 -1.47345 0
M  V30 4237 C 404.484 1.64854 -1.59235 0
M  V30 4238 C 405.484 1.53851 -0.467607 0
M  V30 4239 O 406.674 1.58045 -0.732617 0
M  V30 4240 C 403.806 3.04388 -1.53496 0
M  V30 4241 H 404.999 1.55662 -2.56339 0
M  V30 4242 H 402.552 0.778973 -1.35505 0
M  V30 4243 H 403.287 3.19115 -0.577604 0
M  V30 4244 H 403.072 3.13783 -2.35123 0
M  V30 4245 H 404.562 3.83642 -1.6495 0
M  V30 4246 N 404.999 1.35443 0.805782 0
M  V30 4247 C 406.247 1.28507 1.55982 0
M  V30 4248 C 406.568 -0.140046 1.94496 0
M  V30 4249 O 405.838 -1.07666 1.63661 0
M  V30 4250 H 404.418 0.472676 0.578434 0
M  V30 4251 H 407.08 1.69555 0.961098 0
M  V30 4252 H 406.176 1.90148 2.47488 0
M  V30 4253 N 406.477 -1.02803 1.19454 0
M  V30 4254 C 407.387 -2.14575 0.948408 0
M  V30 4255 C 408.403 -1.73757 -0.091871 0
M  V30 4256 O 409.579 -2.01185 0.0929654 0
M  V30 4257 C 406.644 -3.43202 0.491265 0
M  V30 4258 C 405.705 -3.98328 1.60103 0
M  V30 4259 C 404.938 -5.20816 1.16561 0
M  V30 4260 O 405.161 -5.70392 0.0295238 0
M  V30 4261 O 404.095 -5.68801 1.96849 0
M  V30 4262 H 407.921 -2.38202 1.88397 0
M  V30 4263 H 405.506 -1.12989 0.977433 0
M  V30 4264 H 407.388 -4.20687 0.245015 0
M  V30 4265 H 406.063 -3.21018 -0.415851 0
M  V30 4266 H 404.97 -3.22174 1.90144 0
M  V30 4267 H 406.303 -4.24879 2.48473 0
M  V30 4268 N 407.956 -0.998596 -1.21925 0
M  V30 4269 C 408.886 -0.573688 -2.26343 0
M  V30 4270 C 409.867 0.402296 -1.65274 0
M  V30 4271 O 411.052 0.291683 -1.91997 0
M  V30 4272 C 408.182 0.106839 -3.47136 0
M  V30 4273 C 407.136 -0.788269 -4.20678 0
M  V30 4274 C 406.462 0.0254927 -5.34694 0
M  V30 4275 C 407.762 -2.08784 -4.78755 0
M  V30 4276 H 409.456 -1.44651 -2.62138 0
M  V30 4277 H 407.002 -0.696975 -1.26009 0
M  V30 4278 H 408.955 0.415531 -4.19346 0
M  V30 4279 H 407.679 1.01424 -3.10452 0
M  V30 4280 H 406.338 -1.08069 -3.50309 0
M  V30 4281 H 405.986 0.933989 -4.94253 0
M  V30 4282 H 405.686 -0.570437 -5.84825 0
M  V30 4283 H 407.21 0.328147 -6.09718 0
M  V30 4284 H 408.624 -1.84272 -5.42878 0
M  V30 4285 H 407.021 -2.63307 -5.39249 0
M  V30 4286 H 408.091 -2.76284 -3.98491 0
M  V30 4287 N 409.434 1.37368 -0.772513 0
M  V30 4288 C 410.659 2.0447 -0.347386 0
M  V30 4289 C 411.084 1.57882 1.0225 0
M  V30 4290 O 410.442 0.73941 1.65537 0
M  V30 4291 C 410.49 3.58369 -0.400479 0
M  V30 4292 O 409.594 4.0803 0.598789 0
M  V30 4293 H 408.935 0.646773 -0.15027 0
M  V30 4294 H 411.465 1.75667 -1.04892 0
M  V30 4295 H 411.475 4.07183 -0.258045 0
M  V30 4296 H 410.15 3.91633 -1.39986 0
M  V30 4297 H 408.727 3.70534 0.419411 0
M  V30 4298 N 410.912 0.523116 1.48665 0
M  V30 4299 C 411.875 -0.232592 2.28017 0
M  V30 4300 C 412.875 -0.874021 1.34972 0
M  V30 4301 O 414.065 -0.735132 1.57929 0
M  V30 4302 C 411.197 -1.33586 3.13636 0
M  V30 4303 H 412.39 0.464008 2.96289 0
M  V30 4304 H 409.943 0.278816 1.53793 0
M  V30 4305 H 410.678 -2.06593 2.4998 0
M  V30 4306 H 410.463 -0.881125 3.82071 0
M  V30 4307 H 411.953 -1.86759 3.73511 0
M  V30 4308 N 412.39 -1.55475 0.257931 0
M  V30 4309 C 413.639 -1.98383 -0.364275 0
M  V30 4310 C 413.952 -1.14952 -1.58258 0
M  V30 4311 O 415.158 -1.47924 -2.27664 0
M  V30 4312 C 413.614 -3.53037 -0.699479 0
M  V30 4313 C 413.222 -4.45223 0.498046 0
M  V30 4314 C 414.966 -4.04575 -1.28526 0
M  V30 4315 C 412.873 -5.91238 0.138383 0
M  V30 4316 H 411.803 -0.740911 -0.13988 0
M  V30 4317 H 414.454 -1.79936 0.359883 0
M  V30 4318 H 412.836 -3.6722 -1.48207 0
M  V30 4319 H 414.01 -4.42803 1.27522 0
M  V30 4320 H 412.325 -4.04226 0.999503 0
M  V30 4321 H 414.922 -5.11196 -1.56788 0
M  V30 4322 H 415.265 -3.5258 -2.21344 0
M  V30 4323 H 415.798 -3.93762 -0.565337 0
M  V30 4324 H 412.537 -6.47294 1.03398 0
M  V30 4325 H 412.057 -5.96768 -0.602374 0
M  V30 4326 H 413.736 -6.46413 -0.27553 0
M  V30 4327 N 413.868 0.0150385 -1.57593 0
M  V30 4328 C 415.284 0.370907 -1.5523 0
M  V30 4329 C 415.484 1.75735 -0.985882 0
M  V30 4330 O 414.54 2.44944 -0.613077 0
M  V30 4331 C 415.853 0.259908 -2.99575 0
M  V30 4332 C 417.401 0.335959 -3.11192 0
M  V30 4333 C 417.876 0.254253 -4.57294 0
M  V30 4334 N 419.367 0.312618 -4.62144 0
M  V30 4335 C 420.102 0.272505 -5.72752 0
M  V30 4336 N 419.598 0.183864 -6.92556 0
M  V30 4337 N 421.391 0.323267 -5.6117 0
M  V30 4338 H 413.542 -0.892104 -1.92757 0
M  V30 4339 H 415.805 -0.340563 -0.884715 0
M  V30 4340 H 415.511 -0.693403 -3.44797 0
M  V30 4341 H 415.385 1.048 -3.62349 0
M  V30 4342 H 417.772 1.27971 -2.65909 0
M  V30 4343 H 417.853 -0.481739 -2.51223 0
M  V30 4344 H 417.497 -0.685887 -5.03247 0
M  V30 4345 H 417.427 1.09024 -5.15191 0
M  V30 4346 H 419.918 0.38307 -3.75953 0
M  V30 4347 H 420.231 0.15874 -7.72637 0
M  V30 4348 H 418.576 0.149708 -6.94839 0
M  V30 4349 H 421.767 0.390607 -4.66467 0
M  V30 4350 H 421.94 0.288539 -6.47357 0
M  V30 4351 N 415.346 1.54954 0.287554 0
M  V30 4352 C 416.256 1.8991 1.37736 0
M  V30 4353 C 417.272 0.794701 1.54792 0
M  V30 4354 O 418.448 1.09243 1.69198 0
M  V30 4355 C 415.513 2.15108 2.71899 0
M  V30 4356 C 414.574 3.38752 2.63715 0
M  V30 4357 C 413.807 3.62739 3.91479 0
M  V30 4358 O 414.03 2.89492 4.91478 0
M  V30 4359 O 412.964 4.56267 3.92561 0
M  V30 4360 H 416.79 2.82652 1.11092 0
M  V30 4361 H 414.375 1.41315 0.484807 0
M  V30 4362 H 416.257 2.32806 3.51254 0
M  V30 4363 H 414.932 1.25551 2.9836 0
M  V30 4364 H 413.839 3.26405 1.82786 0
M  V30 4365 H 415.172 4.28483 2.42205 0
M  V30 4366 N 416.824 -0.551391 1.4764 0
M  V30 4367 C 418.071 -1.3083 1.54563 0
M  V30 4368 C 418.399 -1.93359 0.210361 0
M  V30 4369 O 417.654 -1.78721 -0.797332 0
M  V30 4370 C 417.953 -2.43469 2.61644 0
M  V30 4371 C 417.619 -1.98732 4.04742 0
M  V30 4372 C 416.281 -1.86248 4.43695 0
M  V30 4373 C 418.633 -1.64659 4.94507 0
M  V30 4374 C 415.961 -1.37995 5.70241 0
M  V30 4375 C 418.313 -1.17875 6.21521 0
M  V30 4376 C 416.977 -1.03992 6.5935 0
M  V30 4377 H 416.247 -0.478741 0.565587 0
M  V30 4378 H 418.894 -0.617697 1.81264 0
M  V30 4379 H 417.199 -3.18109 2.28722 0
M  V30 4380 H 418.896 -3.01642 2.64222 0
M  V30 4381 H 415.486 -2.09393 3.73968 0
M  V30 4382 H 419.67 -1.73174 4.65107 0
M  V30 4383 H 414.926 -1.25915 5.98294 0
M  V30 4384 H 419.1 -0.905739 6.90485 0
M  V30 4385 H 416.727 -0.663794 7.57296 0
M  V30 4386 N 418.302 -1.35869 -0.798587 0
M  V30 4387 C 419.25 -1.29491 -1.93222 0
M  V30 4388 C 420.244 -0.18836 -1.6835 0
M  V30 4389 O 421.45 -0.354822 -1.76468 0
M  V30 4390 H 417.825 -0.402901 -0.63496 0
M  V30 4391 H 419.796 -2.25247 -1.9572 0
M  V30 4392 C 418.545 -1.09184 -3.30112 0
M  V30 4393 H 417.868 -1.93574 -3.49813 0
M  V30 4394 H 419.308 -1.08766 -4.09812 0
M  V30 4395 C 417.767 0.203959 -3.36282 0
M  V30 4396 O 418.297 1.19699 -3.83451 0
M  V30 4397 N 416.503 0.245488 -2.89561 0
M  V30 4398 H 416.05 -0.563223 -2.51367 0
M  V30 4399 H 416.008 1.11219 -2.94071 0
M  V30 4400 N 419.78 1.02168 -1.19998 0
M  V30 4401 C 420.743 2.08765 -0.94604 0
M  V30 4402 C 421.743 1.60618 0.0763846 0
M  V30 4403 O 422.933 1.73472 -0.159135 0
M  V30 4404 C 420.065 3.38262 -0.423255 0
M  V30 4405 H 421.258 2.32726 -1.89153 0
M  V30 4406 H 418.811 1.1889 -1.01464 0
M  V30 4407 H 419.546 3.19974 0.527938 0
M  V30 4408 H 419.331 3.74532 -1.16053 0
M  V30 4409 H 420.821 4.16759 -0.264911 0
M  V30 4410 N 421.258 1.00505 1.21394 0
M  V30 4411 C 422.19 0.52372 2.23136 0
M  V30 4412 C 423.203 -0.387714 1.58116 0
M  V30 4413 O 424.392 -0.187905 1.77508 0
M  V30 4414 C 421.492 -0.258885 3.3791 0
M  V30 4415 C 420.665 0.651634 4.32519 0
M  V30 4416 C 419.724 -0.0813705 5.26137 0
M  V30 4417 O 418.75 0.537295 5.66658 0
M  V30 4418 N 419.952 -1.35992 5.64346 0
M  V30 4419 H 422.717 1.39865 2.65062 0
M  V30 4420 H 420.278 0.881196 1.35818 0
M  V30 4421 H 422.27 -0.758208 3.97534 0
M  V30 4422 H 420.84 -1.035 2.94968 0
M  V30 4423 H 420.06 1.33145 3.71034 0
M  V30 4424 H 421.348 1.27129 4.92662 0
M  V30 4425 H 420.746 -1.88368 5.33417 0
M  V30 4426 H 419.303 -1.8042 6.26332 0
M  V30 4427 N 422.737 -1.36956 0.779787 0
M  V30 4428 C 423.684 -2.30175 0.169697 0
M  V30 4429 C 424.654 -1.51501 -0.68094 0
M  V30 4430 O 425.839 -1.80042 -0.631629 0
M  V30 4431 C 422.979 -3.37985 -0.697131 0
M  V30 4432 C 422.092 -4.31661 0.170992 0
M  V30 4433 C 421.227 -5.2655 -0.701298 0
M  V30 4434 C 420.266 -6.11867 0.168869 0
M  V30 4435 N 419.403 -6.98973 -0.661855 0
M  V30 4436 H 424.243 -2.81767 0.970135 0
M  V30 4437 H 421.78 -1.38699 0.489994 0
M  V30 4438 H 423.738 -3.99128 -1.2146 0
M  V30 4439 H 422.368 -2.87739 -1.46309 0
M  V30 4440 H 421.42 -3.71756 0.80634 0
M  V30 4441 H 422.732 -4.91644 0.841875 0
M  V30 4442 H 421.886 -5.92937 -1.28494 0
M  V30 4443 H 420.625 -4.66998 -1.40584 0
M  V30 4444 H 419.63 -5.44452 0.764986 0
M  V30 4445 H 420.855 -6.73493 0.870863 0
M  V30 4446 H 418.801 -6.41941 -1.35086 0
M  V30 4447 H 418.718 -7.55984 -0.0484447 0
M  V30 4448 H 419.986 -7.6974 -1.22963 0
M  V30 4449 N 424.215 -0.530993 -1.48385 0
M  V30 4450 C 425.461 -0.00538653 -2.03399 0
M  V30 4451 C 425.816 1.31899 -1.40073 0
M  V30 4452 O 425.109 1.83901 -0.537676 0
M  V30 4453 C 425.303 0.172742 -3.56982 0
M  V30 4454 C 425.132 -1.13282 -4.35198 0
M  V30 4455 C 423.902 -1.69296 -4.76096 0
M  V30 4456 C 426.1 -2.04367 -4.71952 0
M  V30 4457 N 424.082 -2.9413 -5.38851 0
M  V30 4458 C 425.453 -3.13777 -5.34737 0
M  V30 4459 C 427.508 -2.04681 -4.53883 0
M  V30 4460 C 426.211 -4.23567 -5.81363 0
M  V30 4461 C 428.237 -3.13466 -5.01491 0
M  V30 4462 C 427.599 -4.21595 -5.64302 0
M  V30 4463 H 423.698 -0.0434945 -0.780789 0
M  V30 4464 H 426.282 -0.712495 -1.81195 0
M  V30 4465 H 424.453 0.848937 -3.79009 0
M  V30 4466 H 426.185 0.698046 -3.98634 0
M  V30 4467 H 422.94 -1.23422 -4.57235 0
M  V30 4468 H 423.364 -3.57689 -5.74794 0
M  V30 4469 H 428.006 -1.22378 -4.04702 0
M  V30 4470 H 425.724 -5.06648 -6.2955 0
M  V30 4471 H 429.31 -3.14765 -4.893 0
M  V30 4472 H 428.19 -5.04384 -6.00472 0
M  V30 4473 N 425.693 1.55336 -0.266172 0
M  V30 4474 C 426.97 1.91372 0.404486 0
M  V30 4475 C 427.35 1.18935 1.74407 0
M  V30 4476 O 426.698 0.3132 2.26343 0
M  V30 4477 C 426.908 3.44581 0.553593 0
M  V30 4478 C 428.256 4.16196 0.840618 0
M  V30 4479 O 429.28 3.50426 0.638739 0
M  V30 4480 O 428.139 5.32567 1.22618 0
M  V30 4481 H 425.233 0.797194 0.220025 0
M  V30 4482 H 427.779 1.66813 -0.311664 0
M  V30 4483 H 426.551 3.89357 -0.389498 0
M  V30 4484 H 426.174 3.75065 1.31955 0
M  V30 4485 N 427.171 -0.0066808 1.57599 0
M  V30 4486 C 428.396 -0.707738 1.94951 0
M  V30 4487 C 428.821 -1.66882 0.867868 0
M  V30 4488 O 428.179 -1.80457 -0.17458 0
M  V30 4489 C 428.227 -1.42162 3.31394 0
M  V30 4490 O 427.331 -2.53578 3.25226 0
M  V30 4491 H 426.672 -0.188752 0.636607 0
M  V30 4492 H 429.202 0.0445193 2.04552 0
M  V30 4493 H 429.212 -1.78655 3.66806 0
M  V30 4494 H 427.887 -0.716903 4.09675 0
M  V30 4495 H 426.464 -2.19463 3.01481 0
M  V30 4496 N 428.649 -1.55105 -0.279332 0
M  V30 4497 C 429.612 -1.86783 -1.32834 0
M  V30 4498 C 430.612 -0.74199 -1.42657 0
M  V30 4499 O 431.802 -1.0102 -1.41918 0
M  V30 4500 C 428.934 -2.06746 -2.71052 0
M  V30 4501 H 430.127 -2.8055 -1.05979 0
M  V30 4502 H 427.68 -1.47499 -0.517087 0
M  V30 4503 H 428.415 -1.15339 -3.03097 0
M  V30 4504 H 428.2 -2.88711 -2.65309 0
M  V30 4505 H 429.69 -2.32549 -3.46858 0
M  V30 4506 N 430.127 0.543554 -1.4793 0
M  V30 4507 C 431.357 1.32324 -1.58663 0
M  V30 4508 C 431.765 1.8766 -0.240896 0
M  V30 4509 O 431.108 1.66411 0.778011 0
M  V30 4510 C 431.17 2.52094 -2.56299 0
M  V30 4511 C 430.834 2.17944 -4.01683 0
M  V30 4512 C 431.831 1.74422 -4.89768 0
M  V30 4513 C 429.516 2.28884 -4.47121 0
M  V30 4514 C 431.51 1.42287 -6.21316 0
M  V30 4515 C 429.197 1.96361 -5.78693 0
M  V30 4516 C 430.195 1.53132 -6.65612 0
M  V30 4517 O 429.883 1.21029 -7.94737 0
M  V30 4518 H 429.615 0.409174 -0.538101 0
M  V30 4519 H 432.169 0.663887 -1.94375 0
M  V30 4520 H 430.399 3.20965 -2.15681 0
M  V30 4521 H 432.088 3.14165 -2.57012 0
M  V30 4522 H 432.854 1.65452 -4.55907 0
M  V30 4523 H 428.733 2.61488 -3.79664 0
M  V30 4524 H 432.277 1.08472 -6.89115 0
M  V30 4525 H 428.174 2.04967 -6.12094 0
M  V30 4526 H 428.942 1.34543 -8.07366 0
M  V30 4527 N 431.605 1.3629 0.791371 0
M  V30 4528 C 432.882 1.20962 1.53712 0
M  V30 4529 C 433.262 -0.205021 2.10102 0
M  V30 4530 O 432.61 -1.21042 1.93807 0
M  V30 4531 C 432.82 2.29002 2.63361 0
M  V30 4532 C 434.168 2.65572 3.31295 0
M  V30 4533 O 435.192 2.2803 2.73643 0
M  V30 4534 O 434.051 3.3018 4.35481 0
M  V30 4535 H 431.145 0.47086 0.679867 0
M  V30 4536 H 433.691 1.48016 0.830021 0
M  V30 4537 H 432.463 3.2382 2.19674 0
M  V30 4538 H 432.086 2.03303 3.41692 0
M  V30 4539 N 433.083 -1.0153 1.20538 0
M  V30 4540 C 434.33 -1.75149 1.01633 0
M  V30 4541 C 434.658 -1.89189 -0.451399 0
M  V30 4542 O 433.913 -1.41551 -1.35136 0
M  V30 4543 C 434.212 -3.17213 1.64654 0
M  V30 4544 C 433.878 -3.23146 3.14464 0
M  V30 4545 C 432.54 -3.24472 3.55347 0
M  V30 4546 C 434.892 -3.21207 4.10458 0
M  V30 4547 C 432.22 -3.21532 4.90748 0
M  V30 4548 C 434.572 -3.19808 5.45807 0
M  V30 4549 C 433.236 -3.19439 5.86102 0
M  V30 4550 H 432.506 -0.640914 0.3719 0
M  V30 4551 H 435.153 -1.19071 1.49981 0
M  V30 4552 H 433.458 -3.76457 1.08571 0
M  V30 4553 H 435.155 -3.72871 1.4754 0
M  V30 4554 H 431.745 -3.2285 2.81897 0
M  V30 4555 H 435.929 -3.19351 3.79906 0
M  V30 4556 H 431.185 -3.19578 5.21229 0
M  V30 4557 H 435.359 -3.1726 6.19935 0
M  V30 4558 H 432.986 -3.16915 6.90991 0
M  V30 4559 N 434.561 -1.01147 -1.20859 0
M  V30 4560 C 435.972 -0.730205 -1.71828 0
M  V30 4561 C 436.323 0.751662 -1.8123 0
M  V30 4562 O 435.448 1.58686 -1.47132 0
M  V30 4563 C 436.043 -1.31885 -3.12077 0
M  V30 4564 C 434.602 -1.08656 -3.60376 0
M  V30 4565 C 433.749 -1.42769 -2.37723 0
M  V30 4566 H 436.7 -1.18158 -1.05945 0
M  V30 4567 H 436.721 -0.706793 -3.73878 0
M  V30 4568 H 436.233 -2.39737 -3.05201 0
M  V30 4569 H 434.334 -0.0254814 -3.72591 0
M  V30 4570 H 434.447 -1.76301 -4.45483 0
M  V30 4571 H 432.811 -0.846603 -2.40218 0
M  V30 4572 H 433.594 -2.51666 -2.33493 0
M  V30 4573 N 436.039 1.36541 -0.78704 0
M  V30 4574 C 437.002 2.28413 -0.189778 0
M  V30 4575 C 438.002 1.48719 0.611499 0
M  V30 4576 O 439.192 1.68737 0.432842 0
M  V30 4577 C 436.324 3.32824 0.737638 0
M  V30 4578 H 437.517 2.82743 -0.999831 0
M  V30 4579 H 435.07 1.46065 -0.556298 0
M  V30 4580 H 435.805 2.83646 1.57212 0
M  V30 4581 H 435.59 3.91752 0.165044 0
M  V30 4582 H 437.08 4.0144 1.15047 0
M  V30 4583 N 437.518 0.538854 1.48102 0
M  V30 4584 C 438.481 -0.208395 2.28251 0
M  V30 4585 C 439.481 -0.859656 1.35892 0
M  V30 4586 O 440.671 -0.71834 1.58699 0
M  V30 4587 C 437.803 -1.30252 3.15035 0
M  V30 4588 H 438.996 0.495407 2.9578 0
M  V30 4589 H 436.549 0.295112 1.53489 0
M  V30 4590 H 437.284 -2.0393 2.52157 0
M  V30 4591 H 437.069 -0.840551 3.82985 0
M  V30 4592 H 438.559 -1.82787 3.75471 0
M  V30 4593 N 438.996 -1.55193 0.274407 0
M  V30 4594 C 439.928 -2.1989 -0.646595 0
M  V30 4595 C 440.941 -1.1834 -1.11801 0
M  V30 4596 O 442.13 -1.4507 -1.04004 0
M  V30 4597 C 439.23 -2.8104 -1.89393 0
M  V30 4598 C 438.403 -4.08274 -1.56943 0
M  V30 4599 C 437.462 -4.53478 -2.66916 0
M  V30 4600 O 436.488 -5.19267 -2.33132 0
M  V30 4601 N 437.69 -4.2356 -3.9696 0
M  V30 4602 H 440.455 -2.99556 -0.0928686 0
M  V30 4603 H 438.016 -1.61618 0.0954783 0
M  V30 4604 H 440.008 -3.08226 -2.62257 0
M  V30 4605 H 438.578 -2.05372 -2.35672 0
M  V30 4606 H 437.798 -3.88384 -0.674655 0
M  V30 4607 H 439.086 -4.91173 -1.32764 0
M  V30 4608 H 438.484 -3.70799 -4.27229 0
M  V30 4609 H 437.041 -4.55518 -4.66205 0
M  V30 4610 N 440.474 -0.00167713 -1.576 0
M  V30 4611 C 441.89 0.354422 -1.55615 0
M  V30 4612 C 442.09 1.74679 -1.00447 0
M  V30 4613 O 441.146 2.4428 -0.639022 0
M  V30 4614 C 442.459 0.22812 -2.99833 0
M  V30 4615 C 444.007 0.302934 -3.11531 0
M  V30 4616 C 444.482 0.205737 -4.57538 0
M  V30 4617 N 445.973 0.263584 -4.62449 0
M  V30 4618 C 446.708 0.211742 -5.73009 0
M  V30 4619 N 446.204 0.110399 -6.92712 0
M  V30 4620 N 447.997 0.263729 -5.61481 0
M  V30 4621 H 440.148 -0.912498 -1.918 0
M  V30 4622 H 442.411 -0.349928 -0.881053 0
M  V30 4623 H 442.117 -0.729934 -3.44042 0
M  V30 4624 H 441.991 1.00951 -3.6344 0
M  V30 4625 H 444.378 1.25143 -2.67251 0
M  V30 4626 H 444.459 -0.508357 -2.50698 0
M  V30 4627 H 444.103 -0.739225 -5.02492 0
M  V30 4628 H 444.033 1.03554 -5.16318 0
M  V30 4629 H 446.524 0.343173 -3.76339 0
M  V30 4630 H 446.837 0.0767828 -7.72762 0
M  V30 4631 H 445.182 0.0760025 -6.94958 0
M  V30 4632 H 448.373 0.34111 -4.66855 0
M  V30 4633 H 448.546 0.219862 -6.47627 0
M  V30 4634 N 441.952 1.55251 0.271103 0
M  V30 4635 C 443.2 1.75599 1.00047 0
M  V30 4636 C 443.521 0.561188 1.8675 0
M  V30 4637 O 442.791 -0.423846 1.9126 0
M  V30 4638 H 441.371 0.647562 0.372387 0
M  V30 4639 H 444.033 1.92656 0.294876 0
M  V30 4640 H 443.129 2.65766 1.6363 0
M  V30 4641 N 443.43 -0.535701 1.48216 0
M  V30 4642 C 444.707 -1.29683 1.46429 0
M  V30 4643 C 445.087 -2.10391 0.172852 0
M  V30 4644 O 444.435 -2.12282 -0.845488 0
M  V30 4645 C 444.645 -2.18313 2.72287 0
M  V30 4646 C 445.993 -2.78639 3.20383 0
M  V30 4647 O 447.017 -2.28604 2.73164 0
M  V30 4648 O 445.876 -3.69636 4.02531 0
M  V30 4649 H 442.97 -0.585026 0.584529 0
M  V30 4650 H 445.516 -0.552827 1.60443 0
M  V30 4651 H 444.288 -1.58421 3.57797 0
M  V30 4652 H 443.911 -2.99971 2.60966 0
M  V30 4653 N 444.908 -1.36708 -0.784132 0
M  V30 4654 C 446.154 -1.31426 -1.54451 0
M  V30 4655 C 446.487 0.10476 -1.93917 0
M  V30 4656 O 445.762 1.05934 -1.6312 0
M  V30 4657 C 446.045 -2.24189 -2.818 0
M  V30 4658 C 445.898 -3.74813 -2.48667 0
M  V30 4659 C 447.217 -2.15626 -3.83658 0
M  V30 4660 H 444.336 -0.478739 -0.560337 0
M  V30 4661 H 446.978 -1.67305 -0.900498 0
M  V30 4662 H 445.128 -1.93722 -3.36755 0
M  V30 4663 H 446.8 -4.15823 -1.99722 0
M  V30 4664 H 445.043 -3.93989 -1.81535 0
M  V30 4665 H 445.714 -4.35138 -3.39646 0
M  V30 4666 H 448.19 -2.42456 -3.38163 0
M  V30 4667 H 447.066 -2.82694 -4.70506 0
M  V30 4668 H 447.327 -1.14522 -4.27009 0
M  V30 4669 N 446.386 1.0089 -1.21074 0
M  V30 4670 C 447.635 1.74019 -1.01981 0
M  V30 4671 C 447.948 1.90408 0.447665 0
M  V30 4672 O 449.154 2.60707 0.757906 0
M  V30 4673 C 447.61 3.13026 -1.77603 0
M  V30 4674 C 447.218 3.04623 -3.28495 0
M  V30 4675 C 448.962 3.90312 -1.66904 0
M  V30 4676 C 446.869 4.38685 -3.96623 0
M  V30 4677 H 445.799 0.652422 -0.377971 0
M  V30 4678 H 448.45 1.12755 -1.44771 0
M  V30 4679 H 446.832 3.74878 -1.27604 0
M  V30 4680 H 448.006 2.52032 -3.85767 0
M  V30 4681 H 446.321 2.40827 -3.39693 0
M  V30 4682 H 448.918 4.8951 -2.15138 0
M  V30 4683 H 449.261 4.11558 -0.62658 0
M  V30 4684 H 449.794 3.35104 -2.14359 0
M  V30 4685 H 446.533 4.22641 -5.01054 0
M  V30 4686 H 446.053 4.91252 -3.4414 0
M  V30 4687 H 447.732 5.075 -4.01314 0
M  V30 4688 N 447.864 1.01787 1.20321 0
M  V30 4689 C 448.811 0.589197 2.23153 0
M  V30 4690 C 449.781 -0.391367 1.61423 0
M  V30 4691 O 450.966 -0.290518 1.88575 0
M  V30 4692 C 448.106 -0.0650747 3.45039 0
M  V30 4693 C 447.219 0.960207 4.21194 0
M  V30 4694 C 446.354 0.276854 5.30478 0
M  V30 4695 C 445.393 1.2888 5.98378 0
M  V30 4696 N 444.53 0.632031 6.99249 0
M  V30 4697 H 449.37 1.47071 2.59179 0
M  V30 4698 H 446.907 0.736192 1.27352 0
M  V30 4699 H 448.865 -0.461552 4.14639 0
M  V30 4700 H 447.495 -0.910233 3.09701 0
M  V30 4701 H 446.547 1.47484 3.50646 0
M  V30 4702 H 447.859 1.72977 4.67847 0
M  V30 4703 H 447.013 -0.175056 6.06447 0
M  V30 4704 H 445.752 -0.525004 4.84866 0
M  V30 4705 H 444.757 1.75109 5.21169 0
M  V30 4706 H 445.982 2.09196 6.46076 0
M  V30 4707 H 443.928 -0.149935 6.55829 0
M  V30 4708 H 443.845 1.33964 7.44036 0
M  V30 4709 H 445.113 0.203755 7.79234 0
M  V30 4710 N 449.342 -1.36122 0.79427 0
M  V30 4711 C 450.57 -2.03362 0.380989 0
M  V30 4712 C 450.985 -1.59881 -1.00416 0
M  V30 4713 O 450.342 -0.790515 -1.6449 0
M  V30 4714 C 450.393 -3.58804 0.440649 0
M  V30 4715 O 450.114 -4.007 1.77118 0
M  V30 4716 C 451.615 -4.43296 0.0186117 0
M  V30 4717 H 448.835 -0.652526 0.156367 0
M  V30 4718 H 451.379 -1.73998 1.07447 0
M  V30 4719 H 449.534 -3.8686 -0.204458 0
M  V30 4720 H 449.948 -4.95309 1.72538 0
M  V30 4721 H 451.422 -5.51887 0.111488 0
M  V30 4722 H 451.899 -4.2684 -1.03461 0
M  V30 4723 H 452.505 -4.20512 0.636395 0
M  V30 4724 N 450.82 -0.546701 -1.47814 0
M  V30 4725 C 451.73 0.21026 -2.33656 0
M  V30 4726 C 452.746 0.922413 -1.47538 0
M  V30 4727 O 453.922 0.893652 -1.80488 0
M  V30 4728 C 450.987 1.23348 -3.24016 0
M  V30 4729 C 450.048 0.529883 -4.26017 0
M  V30 4730 C 449.281 1.50435 -5.12059 0
M  V30 4731 O 449.504 2.73837 -5.00369 0
M  V30 4732 O 448.438 1.03459 -5.92942 0
M  V30 4733 H 452.264 -0.493605 -2.99662 0
M  V30 4734 H 449.849 -0.307427 -1.46203 0
M  V30 4735 H 451.731 1.82438 -3.79861 0
M  V30 4736 H 450.406 1.91945 -2.60651 0
M  V30 4737 H 449.313 -0.101948 -3.73961 0
M  V30 4738 H 450.646 -0.11445 -4.92067 0
M  V30 4739 N 452.299 1.55045 -0.282633 0
M  V30 4740 C 453.548 1.98938 0.332667 0
M  V30 4741 C 453.861 1.17455 1.56409 0
M  V30 4742 O 455.067 1.51527 2.25282 0
M  V30 4743 C 453.523 3.54105 0.643226 0
M  V30 4744 C 453.131 4.44374 -0.568814 0
M  V30 4745 C 454.875 4.06569 1.22074 0
M  V30 4746 C 452.782 5.90943 -0.232426 0
M  V30 4747 H 451.712 0.743043 0.128075 0
M  V30 4748 H 454.363 1.79341 -0.388464 0
M  V30 4749 H 452.745 3.69532 1.42346 0
M  V30 4750 H 453.919 4.40718 -1.34551 0
M  V30 4751 H 452.234 4.02585 -1.06369 0
M  V30 4752 H 454.831 5.13626 1.48635 0
M  V30 4753 H 455.174 3.56057 2.15707 0
M  V30 4754 H 455.707 3.94612 0.502621 0
M  V30 4755 H 452.446 6.45567 -1.13683 0
M  V30 4756 H 451.966 5.9765 0.507357 0
M  V30 4757 H 453.645 6.4677 0.172657 0
M  V30 4758 N 453.777 0.010035 1.57597 0
M  V30 4759 C 454.74 -0.963029 2.07986 0
M  V30 4760 C 455.74 -1.26619 0.991173 0
M  V30 4761 O 456.93 -1.2097 1.25347 0
M  V30 4762 C 454.062 -2.2851 2.52974 0
M  V30 4763 H 455.255 -0.526971 2.95234 0
M  V30 4764 H 452.808 -0.237639 1.54483 0
M  V30 4765 H 453.543 -2.76784 1.69 0
M  V30 4766 H 453.328 -2.07824 3.32493 0
M  V30 4767 H 454.818 -2.98294 2.9225 0
M  V30 4768 N 455.255 -1.55392 -0.262866 0
M  V30 4769 C 456.205 -1.85355 -1.32768 0
M  V30 4770 C 457.189 -0.713188 -1.44231 0
M  V30 4771 O 458.381 -0.974765 -1.47741 0
M  V30 4772 C 455.51 -2.13781 -2.68612 0
M  V30 4773 C 454.596 -3.34104 -2.61219 0
M  V30 4774 N 454.987 -4.53766 -2.2345 0
M  V30 4775 C 453.285 -3.36895 -2.92263 0
M  V30 4776 C 453.986 -5.35877 -2.26298 0
M  V30 4777 N 452.962 -4.74536 -2.65172 0
M  V30 4778 H 456.764 -2.75413 -1.02591 0
M  V30 4779 H 454.278 -1.55405 -0.471503 0
M  V30 4780 H 456.275 -2.33407 -3.45437 0
M  V30 4781 H 454.935 -1.25013 -2.99669 0
M  V30 4782 H 455.946 -4.79682 -1.95258 0
M  V30 4783 H 452.623 -2.58351 -3.27965 0
M  V30 4784 H 454.013 -6.41577 -1.99572 0
M  V30 4785 N 456.733 0.527833 -1.48498 0
M  V30 4786 C 457.981 1.28101 -1.56316 0
M  V30 4787 C 458.302 1.9352 -0.239781 0
M  V30 4788 O 457.572 1.81433 0.738849 0
M  V30 4789 H 456.152 0.475793 -0.575873 0
M  V30 4790 H 458.814 0.614052 -1.84974 0
M  V30 4791 H 457.91 2.05916 -2.34532 0
M  V30 4792 N 458.211 1.37122 0.776871 0
M  V30 4793 C 459.158 1.3247 1.88998 0
M  V30 4794 C 460.128 0.191143 1.64997 0
M  V30 4795 O 461.313 0.379683 1.86984 0
M  V30 4796 C 458.453 1.13241 3.25992 0
M  V30 4797 C 457.566 2.35782 3.61982 0
M  V30 4798 C 456.701 2.09465 4.88158 0
M  V30 4799 C 455.74 3.279 5.16864 0
M  V30 4800 N 454.877 3.01167 6.34226 0
M  V30 4801 H 459.717 2.27642 1.9231 0
M  V30 4802 H 457.254 1.13125 0.94027 0
M  V30 4803 H 459.212 1.00115 4.0501 0
M  V30 4804 H 457.842 0.217186 3.22069 0
M  V30 4805 H 456.894 2.59666 2.77989 0
M  V30 4806 H 458.206 3.24125 3.79137 0
M  V30 4807 H 457.36 1.93341 5.75069 0
M  V30 4808 H 456.099 1.18452 4.73097 0
M  V30 4809 H 455.104 3.44569 4.2843 0
M  V30 4810 H 456.329 4.19757 5.33836 0
M  V30 4811 H 454.275 2.12779 6.20533 0
M  V30 4812 H 454.192 3.83052 6.51772 0
M  V30 4813 H 455.46 2.88649 7.24087 0
M  V30 4814 N 459.689 -1.00246 1.21608 0
M  V30 4815 C 461.1 -1.55511 1.03312 0
M  V30 4816 C 461.451 -1.91946 -0.406332 0
M  V30 4817 O 460.576 -1.73753 -1.28992 0
M  V30 4818 C 461.171 -2.82576 1.86913 0
M  V30 4819 C 459.73 -3.34318 1.72941 0
M  V30 4820 C 458.877 -2.07487 1.83968 0
M  V30 4821 H 461.828 -0.824638 1.35593 0
M  V30 4822 H 461.849 -3.54559 1.38087 0
M  V30 4823 H 461.361 -2.56026 2.91672 0
M  V30 4824 H 459.462 -3.65797 0.70877 0
M  V30 4825 H 459.575 -4.05566 2.55055 0
M  V30 4826 H 457.939 -2.20603 1.27304 0
M  V30 4827 H 458.722 -1.83346 2.9024 0
M  V30 4828 N 461.167 -1.02423 -1.1978 0
M  V30 4829 C 462.392 -0.7373 -1.93852 0
M  V30 4830 C 462.817 0.696923 -1.74713 0
M  V30 4831 O 462.175 1.48056 -1.04638 0
M  V30 4832 C 462.223 -1.08783 -3.438 0
M  V30 4833 O 461.327 -0.20383 -4.11896 0
M  V30 4834 H 460.668 -0.27284 -0.605355 0
M  V30 4835 H 463.198 -1.36966 -1.51992 0
M  V30 4836 H 463.208 -1.04276 -3.9445 0
M  V30 4837 H 461.883 -2.13274 -3.57053 0
M  V30 4838 H 460.46 -0.307091 -3.71633 0
M  V30 4839 N 462.645 1.35699 -0.801477 0
M  V30 4840 C 463.893 1.9852 -0.37871 0
M  V30 4841 C 464.214 1.63907 1.05638 0
M  V30 4842 O 463.484 0.919013 1.73006 0
M  V30 4843 H 462.064 0.734322 -0.137042 0
M  V30 4844 H 464.726 1.65697 -1.02619 0
M  V30 4845 H 463.822 3.08382 -0.480284 0
M  V30 4846 N 464.123 0.554532 1.47522 0
M  V30 4847 C 465.056 -0.242442 2.26908 0
M  V30 4848 C 466.034 -0.922722 1.33883 0
M  V30 4849 O 467.218 -0.942244 1.63261 0
M  V30 4850 C 464.345 -1.34525 3.10839 0
M  V30 4851 C 463.391 -0.773805 4.19422 0
M  V30 4852 S 464.224 0.377525 5.34168 0
M  V30 4853 C 465.38 -0.727164 6.21662 0
M  V30 4854 H 465.613 0.431218 2.94156 0
M  V30 4855 H 463.146 0.3408 1.50592 0
M  V30 4856 H 465.104 -1.97683 3.59766 0
M  V30 4857 H 463.765 -1.99073 2.42958 0
M  V30 4858 H 462.958 -1.60187 4.77866 0
M  V30 4859 H 462.56 -0.218448 3.73361 0
M  V30 4860 H 464.852 -1.61992 6.57849 0
M  V30 4861 H 465.795 -0.180135 7.07871 0
M  V30 4862 H 466.203 -1.01863 5.55233 0
M  V30 4863 N 465.601 -1.54893 0.290851 0
M  V30 4864 C 466.829 -2.04343 -0.324288 0
M  V30 4865 C 467.244 -1.16859 -1.48289 0
M  V30 4866 O 466.601 -0.192018 -1.81487 0
M  V30 4867 C 466.652 -3.52756 -0.79026 0
M  V30 4868 O 466.373 -4.36913 0.322213 0
M  V30 4869 C 467.874 -4.18161 -1.4716 0
M  V30 4870 H 465.094 -0.667135 -0.0719173 0
M  V30 4871 H 467.638 -1.99981 0.427529 0
M  V30 4872 H 465.793 -3.57511 -1.49213 0
M  V30 4873 H 466.207 -5.24486 -0.0387372 0
M  V30 4874 H 467.681 -5.23562 -1.7489 0
M  V30 4875 H 468.158 -3.67282 -2.40834 0
M  V30 4876 H 468.764 -4.17454 -0.813178 0
M  V30 4877 N 467.08 -0.0183926 -1.57589 0
M  V30 4878 C 468.328 0.661253 -1.90976 0
M  V30 4879 C 468.649 1.73281 -0.894353 0
M  V30 4880 O 467.919 1.9579 0.0656788 0
M  V30 4881 H 466.499 0.247233 -0.704901 0
M  V30 4882 H 469.161 -0.0636639 -1.94796 0
M  V30 4883 H 468.257 1.12083 -2.9128 0
M  V30 4884 N 468.558 1.5553 0.254621 0
M  V30 4885 C 469.805 1.77 0.983736 0
M  V30 4886 C 470.133 0.58133 1.85609 0
M  V30 4887 O 469.388 -0.435621 1.9079 0
M  V30 4888 C 469.687 3.03891 1.88109 0
M  V30 4889 C 469.353 4.35597 1.16472 0
M  V30 4890 C 468.015 4.7139 0.966714 0
M  V30 4891 C 470.367 5.1705 0.656387 0
M  V30 4892 C 467.695 5.86176 0.247942 0
M  V30 4893 C 470.047 6.32581 -0.0488807 0
M  V30 4894 C 468.711 6.67 -0.258438 0
M  V30 4895 H 467.981 0.647688 0.359974 0
M  V30 4896 H 470.628 1.89802 0.254463 0
M  V30 4897 H 468.933 2.86068 2.67717 0
M  V30 4898 H 470.63 3.17701 2.44677 0
M  V30 4899 H 467.22 4.07475 1.32899 0
M  V30 4900 H 471.404 4.8986 0.796933 0
M  V30 4901 H 466.66 6.11354 0.075035 0
M  V30 4902 H 470.834 6.94942 -0.450444 0
M  V30 4903 H 468.461 7.55793 -0.817358 0
M  V30 4904 N 470.036 -0.519951 1.48776 0
M  V30 4905 C 471.282 -1.27711 1.57536 0
M  V30 4906 C 471.615 -1.92547 0.252866 0
M  V30 4907 O 470.89 -1.7979 -0.742021 0
M  V30 4908 C 471.173 -2.35875 2.72094 0
M  V30 4909 C 471.026 -1.75664 4.1408 0
M  V30 4910 C 472.345 -3.37575 2.82367 0
M  V30 4911 H 469.464 -0.462971 0.573434 0
M  V30 4912 H 472.106 -0.578194 1.80989 0
M  V30 4913 H 470.256 -2.95488 2.52228 0
M  V30 4914 H 471.928 -1.20025 4.45412 0
M  V30 4915 H 470.171 -1.06154 4.20611 0
M  V30 4916 H 470.842 -2.54029 4.90075 0
M  V30 4917 H 473.318 -2.87929 3.00393 0
M  V30 4918 H 472.194 -4.1064 3.64233 0
M  V30 4919 H 472.455 -3.98743 1.90936 0
M  V30 4920 N 471.514 -1.37532 -0.769588 0
M  V30 4921 C 472.763 -1.32183 -1.5235 0
M  V30 4922 C 473.076 0.0906555 -1.9539 0
M  V30 4923 O 474.282 0.266628 -2.70188 0
M  V30 4924 C 472.738 -2.32029 -2.75119 0
M  V30 4925 C 472.346 -3.78816 -2.3917 0
M  V30 4926 C 474.09 -2.35694 -3.53056 0
M  V30 4927 C 471.997 -4.70388 -3.58453 0
M  V30 4928 H 470.927 -0.491275 -0.571984 0
M  V30 4929 H 473.578 -1.63004 -0.842739 0
M  V30 4930 H 471.96 -1.94229 -3.45096 0
M  V30 4931 H 473.134 -4.25466 -1.76962 0
M  V30 4932 H 471.449 -3.78117 -1.74402 0
M  V30 4933 H 474.046 -3.01312 -4.41718 0
M  V30 4934 H 474.389 -1.37117 -3.93071 0
M  V30 4935 H 474.922 -2.72212 -2.90078 0
M  V30 4936 H 471.661 -5.70102 -3.23518 0
M  V30 4937 H 471.181 -4.28442 -4.19758 0
M  V30 4938 H 472.86 -4.87628 -4.25239 0
M  V30 4939 N 472.992 0.995999 -1.22138 0
M  V30 4940 C 473.94 2.10673 -0.985876 0
M  V30 4941 C 474.934 1.69255 0.0699553 0
M  V30 4942 O 476.14 1.79812 -0.0822176 0
M  V30 4943 H 472.515 0.688865 -0.30161 0
M  V30 4944 H 474.486 2.27711 -1.92848 0
M  V30 4945 C 473.235 3.42881 -0.576909 0
M  V30 4946 H 472.558 3.75191 -1.38101 0
M  V30 4947 H 473.998 4.21589 -0.451518 0
M  V30 4948 C 472.457 3.29265 0.713196 0
M  V30 4949 O 472.987 3.60777 1.76643 0
M  V30 4950 N 471.193 2.82456 0.683162 0
M  V30 4951 H 470.74 2.5701 -0.174242 0
M  V30 4952 H 470.698 2.73727 1.54663 0
M  V30 4953 N 474.47 1.03057 1.19235 0
M  V30 4954 C 475.698 0.747697 1.92917 0
M  V30 4955 C 476.113 -0.69372 1.75593 0
M  V30 4956 O 475.47 -1.47191 1.07894 0
M  V30 4957 C 475.521 1.09159 3.44625 0
M  V30 4958 O 475.242 2.47641 3.61394 0
M  V30 4959 C 476.743 0.831763 4.35427 0
M  V30 4960 H 473.963 0.273453 0.612751 0
M  V30 4961 H 476.507 1.37552 1.51327 0
M  V30 4962 H 474.662 0.508919 3.84043 0
M  V30 4963 H 475.076 2.60499 4.55237 0
M  V30 4964 H 476.55 1.12233 5.4047 0
M  V30 4965 H 477.027 -0.233769 4.38577 0
M  V30 4966 H 477.633 1.39725 4.01693 0
M  V30 4967 N 475.948 -1.35272 0.808662 0
M  V30 4968 C 477.364 -1.51806 0.492653 0
M  V30 4969 C 477.564 -1.7574 -0.985778 0
M  V30 4970 O 476.62 -1.80003 -1.77074 0
M  V30 4971 C 477.933 -2.69202 1.33981 0
M  V30 4972 C 479.481 -2.8308 1.33547 0
M  V30 4973 C 479.956 -4.03502 2.16679 0
M  V30 4974 N 481.447 -4.10684 2.14227 0
M  V30 4975 C 482.182 -5.02984 2.75308 0
M  V30 4976 N 481.678 -6.00603 3.45323 0
M  V30 4977 N 483.471 -4.95746 2.64938 0
M  V30 4978 H 475.622 -1.17993 1.76611 0
M  V30 4979 H 477.885 -0.577476 0.751814 0
M  V30 4980 H 477.591 -2.581 2.38909 0
M  V30 4981 H 477.465 -3.63854 0.994491 0
M  V30 4982 H 479.852 -2.93631 0.294036 0
M  V30 4983 H 479.933 -1.89278 1.72068 0
M  V30 4984 H 479.577 -3.93711 3.20864 0
M  V30 4985 H 479.507 -4.96489 1.75517 0
M  V30 4986 H 481.998 -3.40802 1.63285 0
M  V30 4987 H 482.311 -6.67633 3.89212 0
M  V30 4988 H 480.656 -6.0077 3.49428 0
M  V30 4989 H 483.847 -4.18439 2.09825 0
M  V30 4990 H 484.02 -5.67487 3.12829 0
M  V30 4991 N 477.426 -0.562348 -1.47226 0
M  V30 4992 C 478.842 -0.222492 -1.58042 0
M  V30 4993 C 479.042 1.27505 -1.56028 0
M  V30 4994 O 478.098 2.05555 -1.46641 0
M  V30 4995 C 479.411 -0.853694 -2.88327 0
M  V30 4996 C 480.959 -0.825397 -3.01921 0
M  V30 4997 C 481.434 -1.43576 -4.34914 0
M  V30 4998 N 482.925 -1.39918 -4.41562 0
M  V30 4999 C 483.66 -1.84103 -5.43041 0
M  V30 5000 N 483.156 -2.36167 -6.51304 0
M  V30 5001 N 484.949 -1.75142 -5.34118 0
M  V30 5002 H 477.1 -1.53525 -1.46778 0
M  V30 5003 H 479.363 -0.640527 -0.698877 0
M  V30 5004 H 479.069 -1.90635 -2.95552 0
M  V30 5005 H 478.943 -0.34977 -3.75575 0
M  V30 5006 H 481.33 0.218583 -2.94289 0
M  V30 5007 H 481.411 -1.36713 -2.16202 0
M  V30 5008 H 481.055 -2.47884 -4.43301 0
M  V30 5009 H 480.985 -0.869427 -5.19373 0
M  V30 5010 H 483.476 -1.0184 -3.63919 0
M  V30 5011 H 483.789 -2.67793 -7.24919 0
M  V30 5012 H 482.134 -2.40181 -6.52179 0
M  V30 5013 H 485.325 -1.34241 -4.48439 0
M  V30 5014 H 485.498 -2.09895 -6.13065 0
M  V30 5015 N 478.904 1.54736 -0.299062 0
M  V30 5016 C 479.867 2.22127 0.565012 0
M  V30 5017 C 480.867 1.20669 1.06281 0
M  V30 5018 O 482.057 1.45417 0.959145 0
M  V30 5019 C 479.189 2.90611 1.78208 0
M  V30 5020 H 480.382 2.99891 -0.0237448 0
M  V30 5021 H 477.935 1.5622 -0.0498788 0
M  V30 5022 H 478.67 2.16921 2.41072 0
M  V30 5023 H 478.455 3.64984 1.43281 0
M  V30 5024 H 479.945 3.42026 2.396 0
M  V30 5025 N 480.382 0.0267497 1.57577 0
M  V30 5026 C 481.793 -0.512413 1.79531 0
M  V30 5027 C 482.144 -1.72391 0.936791 0
M  V30 5028 O 481.269 -2.15903 0.146543 0
M  V30 5029 C 481.864 -0.936378 3.25603 0
M  V30 5030 C 480.423 -1.42067 3.4856 0
M  V30 5031 C 479.57 -0.384278 2.74624 0
M  V30 5032 H 482.521 0.252797 1.56674 0
M  V30 5033 H 482.542 -1.80088 3.35184 0
M  V30 5034 H 482.054 -0.0544332 3.88062 0
M  V30 5035 H 480.155 -2.32262 2.9135 0
M  V30 5036 H 480.268 -1.42968 4.57271 0
M  V30 5037 H 478.632 -0.851855 2.40032 0
M  V30 5038 H 479.415 0.489159 3.39797 0
M  V30 5039 N 481.861 -1.55662 -0.24637 0
M  V30 5040 C 483.108 -1.77519 -0.974335 0
M  V30 5041 C 483.436 -0.591165 -1.85298 0
M  V30 5042 O 482.691 0.425497 -1.91018 0
M  V30 5043 C 482.99 -3.04885 -1.86494 0
M  V30 5044 C 482.656 -4.36209 -1.14161 0
M  V30 5045 C 481.318 -4.71896 -0.941701 0
M  V30 5046 C 483.67 -5.17391 -0.628957 0
M  V30 5047 C 480.998 -5.86299 -0.216852 0
M  V30 5048 C 483.35 -6.32546 0.0824273 0
M  V30 5049 C 482.014 -6.66853 0.293807 0
M  V30 5050 H 481.284 -0.649588 -0.356535 0
M  V30 5051 H 483.931 -1.89934 -0.244394 0
M  V30 5052 H 482.236 -2.87484 -2.66196 0
M  V30 5053 H 483.933 -3.18994 -2.42989 0
M  V30 5054 H 480.523 -4.08174 -1.30736 0
M  V30 5055 H 484.707 -4.90276 -0.770943 0
M  V30 5056 H 479.963 -6.11385 -0.0426124 0
M  V30 5057 H 484.137 -6.94693 0.487292 0
M  V30 5058 H 481.764 -7.55349 0.857428 0
M  V30 5059 N 483.339 0.512053 -1.4905 0
M  V30 5060 C 484.616 1.27337 -1.48474 0
M  V30 5061 C 484.996 2.1009 -0.206301 0
M  V30 5062 O 484.344 2.136 0.811609 0
M  V30 5063 C 484.554 2.13954 -2.75726 0
M  V30 5064 C 485.902 2.73507 -3.24776 0
M  V30 5065 O 486.926 2.24229 -2.76767 0
M  V30 5066 O 485.785 3.63186 -4.08361 0
M  V30 5067 H 482.879 0.575652 -0.593762 0
M  V30 5068 H 485.425 0.527232 -1.61302 0
M  V30 5069 H 484.197 1.52709 -3.60272 0
M  V30 5070 H 483.82 2.95782 -2.65705 0
M  V30 5071 N 484.817 1.37938 0.762283 0
M  V30 5072 C 486.094 1.24196 1.51112 0
M  V30 5073 C 486.474 -0.160409 2.1049 0
M  V30 5074 O 485.822 -1.16904 1.96331 0
M  V30 5075 C 486.032 2.34537 2.58445 0
M  V30 5076 C 487.38 2.7254 3.25588 0
M  V30 5077 O 488.404 2.33783 2.68745 0
M  V30 5078 O 487.263 3.39343 4.28379 0
M  V30 5079 H 484.357 0.485175 0.669727 0
M  V30 5080 H 486.903 1.49743 0.798438 0
M  V30 5081 H 485.675 3.28406 2.12756 0
M  V30 5082 H 485.298 2.10505 3.37303 0
M  V30 5083 N 486.295 -0.989507 1.22664 0
M  V30 5084 C 487.541 -1.73298 1.06487 0
M  V30 5085 C 487.896 -1.88292 -0.395438 0
M  V30 5086 O 487.189 -1.41748 -1.28911 0
M  V30 5087 C 487.383 -3.13649 1.71345 0
M  V30 5088 C 487.212 -3.12341 3.23532 0
M  V30 5089 C 485.982 -3.18044 3.92653 0
M  V30 5090 C 488.18 -2.96226 4.20422 0
M  V30 5091 N 486.162 -3.06526 5.31898 0
M  V30 5092 C 487.533 -2.92773 5.4652 0
M  V30 5093 C 489.588 -2.80642 4.11271 0
M  V30 5094 C 488.291 -2.75332 6.64519 0
M  V30 5095 C 490.317 -2.64563 5.28924 0
M  V30 5096 C 489.679 -2.618 6.53942 0
M  V30 5097 H 485.778 -0.643643 0.444126 0
M  V30 5098 H 488.362 -1.17489 1.55256 0
M  V30 5099 H 486.533 -3.67694 1.25122 0
M  V30 5100 H 488.265 -3.76577 1.48229 0
M  V30 5101 H 485.02 -3.25861 3.43673 0
M  V30 5102 H 485.444 -3.04067 6.04874 0
M  V30 5103 H 490.086 -2.81574 3.15398 0
M  V30 5104 H 487.804 -2.73145 7.60538 0
M  V30 5105 H 491.39 -2.53482 5.23677 0
M  V30 5106 H 490.27 -2.49511 7.43447 0
M  V30 5107 N 487.773 -1.03688 -1.18687 0
M  V30 5108 C 489.189 -0.755413 -1.4059 0
M  V30 5109 C 489.389 0.656659 -1.905 0
M  V30 5110 O 488.445 1.42144 -2.08689 0
M  V30 5111 C 489.758 -1.7983 -2.41001 0
M  V30 5112 C 491.306 -1.81877 -2.54735 0
M  V30 5113 C 491.781 -2.85148 -3.58406 0
M  V30 5114 N 493.272 -2.84015 -3.6591 0
M  V30 5115 C 494.007 -3.60573 -4.45841 0
M  V30 5116 N 493.503 -4.46871 -5.29413 0
M  V30 5117 N 495.296 -3.49079 -4.40568 0
M  V30 5118 H 487.447 -1.94818 -0.846148 0
M  V30 5119 H 489.71 -0.842727 -0.434184 0
M  V30 5120 H 489.416 -2.81097 -2.1137 0
M  V30 5121 H 489.29 -1.62727 -3.40294 0
M  V30 5122 H 491.677 -0.812836 -2.83685 0
M  V30 5123 H 491.758 -2.03057 -1.55568 0
M  V30 5124 H 491.402 -3.85918 -3.30197 0
M  V30 5125 H 491.332 -2.61224 -4.57241 0
M  V30 5126 H 493.823 -2.21431 -3.0623 0
M  V30 5127 H 494.136 -5.02007 -5.87545 0
M  V30 5128 H 492.481 -4.5094 -5.28846 0
M  V30 5129 H 495.672 -2.81066 -3.74325 0
M  V30 5130 H 495.845 -4.08994 -5.02621 0
M  V30 5131 N 489.251 1.34841 -0.815825 0
M  V30 5132 C 490.181 2.32187 -0.247298 0
M  V30 5133 C 491.162 1.5791 0.632344 0
M  V30 5134 O 492.347 1.8593 0.560698 0
M  V30 5135 C 489.477 3.42122 0.597466 0
M  V30 5136 C 488.431 4.27602 -0.184446 0
M  V30 5137 C 487.757 5.28942 0.782609 0
M  V30 5138 C 489.057 5.03502 -1.38865 0
M  V30 5139 H 490.751 2.79985 -1.06061 0
M  V30 5140 H 488.297 1.34611 -0.511461 0
M  V30 5141 H 490.25 4.09232 1.00533 0
M  V30 5142 H 488.974 2.92956 1.44376 0
M  V30 5143 H 487.633 3.62085 -0.573592 0
M  V30 5144 H 487.281 4.7604 1.62466 0
M  V30 5145 H 486.981 5.87008 0.263695 0
M  V30 5146 H 488.505 5.98922 1.18848 0
M  V30 5147 H 489.919 5.63506 -1.05518 0
M  V30 5148 H 488.316 5.71108 -1.8427 0
M  V30 5149 H 489.386 4.33608 -2.17054 0
M  V30 5150 N 490.729 0.570148 1.46925 0
M  V30 5151 C 492.145 0.23087 1.57921 0
M  V30 5152 C 492.345 -1.26676 1.56702 0
M  V30 5153 O 491.401 -2.04774 1.47729 0
M  V30 5154 C 492.714 0.868973 2.8787 0
M  V30 5155 C 494.262 0.841397 3.01479 0
M  V30 5156 C 494.737 1.45881 4.34146 0
M  V30 5157 N 496.228 1.42258 4.40814 0
M  V30 5158 C 496.963 1.8698 5.42057 0
M  V30 5159 N 496.459 2.39618 6.50042 0
M  V30 5160 N 498.252 1.77972 5.33181 0
M  V30 5161 H 490.403 1.54301 1.45962 0
M  V30 5162 H 492.666 0.644224 0.69547 0
M  V30 5163 H 492.372 1.922 2.94537 0
M  V30 5164 H 492.246 0.369682 3.75384 0
M  V30 5165 H 494.633 -0.202973 2.94401 0
M  V30 5166 H 494.714 1.37858 2.15474 0
M  V30 5167 H 494.358 2.50231 4.4198 0
M  V30 5168 H 494.288 0.896958 5.18905 0
M  V30 5169 H 496.779 1.03768 3.63374 0
M  V30 5170 H 497.092 2.71633 7.23488 0
M  V30 5171 H 495.437 2.43636 6.50897 0
M  V30 5172 H 498.628 1.36617 4.4772 0
M  V30 5173 H 498.801 2.13143 6.11943 0
M  V30 5174 N 492.207 -1.54576 0.307264 0
M  V30 5175 C 493.117 -2.27435 -0.57536 0
M  V30 5176 C 494.133 -1.31183 -1.14311 0
M  V30 5177 O 495.309 -1.64175 -1.16656 0
M  V30 5178 C 492.374 -3.00566 -1.72803 0
M  V30 5179 C 491.435 -4.12369 -1.19373 0
M  V30 5180 C 490.668 -4.82003 -2.29147 0
M  V30 5181 O 490.891 -4.51038 -3.49171 0
M  V30 5182 O 489.825 -5.69271 -1.95485 0
M  V30 5183 H 493.651 -3.03696 0.0158558 0
M  V30 5184 H 491.236 -1.49219 0.0735064 0
M  V30 5185 H 493.118 -3.46416 -2.39946 0
M  V30 5186 H 491.793 -2.27195 -2.30574 0
M  V30 5187 H 490.7 -3.70905 -0.487851 0
M  V30 5188 H 492.033 -4.87736 -0.661376 0
M  V30 5189 N 493.685 -0.035106 -1.57561 0
M  V30 5190 C 494.648 0.929819 -2.09492 0
M  V30 5191 C 495.648 1.25026 -1.01119 0
M  V30 5192 O 496.838 1.18961 -1.27255 0
M  V30 5193 C 493.97 2.24457 -2.56577 0
M  V30 5194 H 495.163 0.479935 -2.96035 0
M  V30 5195 H 492.716 0.213033 -1.54841 0
M  V30 5196 H 493.451 2.74061 -1.73382 0
M  V30 5197 H 493.236 2.02508 -3.35757 0
M  V30 5198 H 494.726 2.93607 -2.96959 0
M  V30 5199 N 495.163 1.55791 0.238111 0
M  V30 5200 C 496.093 1.94068 1.29846 0
M  V30 5201 C 497.074 0.806726 1.49753 0
M  V30 5202 O 498.259 1.06772 1.62214 0
M  V30 5203 C 495.389 2.24302 2.65153 0
M  V30 5204 C 494.343 3.40032 2.59927 0
M  V30 5205 C 493.669 3.55829 3.99111 0
M  V30 5206 C 494.969 4.75476 2.16148 0
M  V30 5207 H 496.663 2.82887 0.980563 0
M  V30 5208 H 494.209 1.36105 0.470253 0
M  V30 5209 H 496.162 2.4967 3.39475 0
M  V30 5210 H 494.886 1.32318 2.98596 0
M  V30 5211 H 493.545 3.14687 1.88063 0
M  V30 5212 H 493.193 2.6125 4.29834 0
M  V30 5213 H 492.893 4.3366 3.96501 0
M  V30 5214 H 494.417 3.83528 4.7512 0
M  V30 5215 H 495.831 5.00158 2.80205 0
M  V30 5216 H 494.228 5.56472 2.24631 0
M  V30 5217 H 495.298 4.71946 1.11333 0
M  V30 5218 N 496.642 -0.504142 1.49319 0
M  V30 5219 C 497.572 -1.61473 1.68667 0
M  V30 5220 C 498.553 -1.61455 0.535378 0
M  V30 5221 O 499.738 -1.78245 0.770868 0
M  V30 5222 C 496.868 -2.99971 1.75028 0
M  V30 5223 C 495.822 -3.14854 2.89916 0
M  V30 5224 C 495.148 -4.54671 2.81387 0
M  V30 5225 C 496.448 -2.95176 4.30893 0
M  V30 5226 H 498.142 -1.45535 2.61648 0
M  V30 5227 H 495.688 -0.698711 1.25913 0
M  V30 5228 H 497.641 -3.77562 1.8715 0
M  V30 5229 H 496.365 -3.1699 0.786441 0
M  V30 5230 H 495.024 -2.39687 2.77391 0
M  V30 5231 H 494.672 -4.68562 1.82917 0
M  V30 5232 H 494.372 -4.6557 3.58494 0
M  V30 5233 H 495.896 -5.34327 2.95512 0
M  V30 5234 H 497.31 -3.62538 4.44116 0
M  V30 5235 H 495.707 -3.17549 5.09198 0
M  V30 5236 H 496.777 -1.91332 4.45556 0
M  V30 5237 N 498.12 -1.38341 -0.754957 0
M  V30 5238 C 499.05 -1.38176 -1.88227 0
M  V30 5239 C 500.031 -0.247873 -1.68284 0
M  V30 5240 O 501.216 -0.45075 -1.88896 0
M  V30 5241 C 498.346 -1.20471 -3.25736 0
M  V30 5242 C 497.3 -2.3105 -3.60278 0
M  V30 5243 C 496.626 -1.98452 -4.96509 0
M  V30 5244 C 497.926 -3.73305 -3.65295 0
M  V30 5245 H 499.62 -2.32512 -1.88622 0
M  V30 5246 H 497.166 -1.1192 -0.906082 0
M  V30 5247 H 499.119 -1.18982 -4.04254 0
M  V30 5248 H 497.843 -0.225965 -3.25817 0
M  V30 5249 H 496.502 -2.31723 -2.84078 0
M  V30 5250 H 496.15 -0.990641 -4.93148 0
M  V30 5251 H 495.85 -2.7251 -5.20588 0
M  V30 5252 H 497.374 -1.98578 -5.77407 0
M  V30 5253 H 498.788 -3.7467 -4.3393 0
M  V30 5254 H 497.185 -4.46557 -4.00883 0
M  V30 5255 H 498.255 -4.05719 -2.65556 0
M  V30 5256 N 499.598 0.982988 -1.23187 0
M  V30 5257 C 500.561 2.05649 -1.01198 0
M  V30 5258 C 501.561 1.6078 0.0252464 0
M  V30 5259 O 502.751 1.72878 -0.214243 0
M  V30 5260 C 499.883 3.36744 -0.530656 0
M  V30 5261 H 501.076 2.2659 -1.96461 0
M  V30 5262 H 498.629 1.15602 -1.05195 0
M  V30 5263 H 499.364 3.21492 0.425873 0
M  V30 5264 H 499.149 3.7065 -1.2791 0
M  V30 5265 H 500.639 4.15705 -0.397366 0
M  V30 5266 N 501.076 1.04316 1.18135 0
M  V30 5267 C 502.323 0.74802 1.88178 0
M  V30 5268 C 502.651 -0.72441 1.80506 0
M  V30 5269 O 501.906 -1.54463 1.20165 0
M  V30 5270 C 502.205 1.16271 3.37958 0
M  V30 5271 C 501.871 2.63585 3.65833 0
M  V30 5272 C 500.533 3.03829 3.73151 0
M  V30 5273 C 502.885 3.58822 3.78016 0
M  V30 5274 C 500.213 4.38194 3.90132 0
M  V30 5275 C 502.565 4.92909 3.96514 0
M  V30 5276 C 501.229 5.3282 4.02068 0
M  V30 5277 H 500.499 0.27372 0.688592 0
M  V30 5278 H 503.146 1.30863 1.39811 0
M  V30 5279 H 501.451 0.520938 3.88321 0
M  V30 5280 H 503.148 0.911672 3.90499 0
M  V30 5281 H 499.738 2.31414 3.60757 0
M  V30 5282 H 503.922 3.28875 3.71692 0
M  V30 5283 H 499.178 4.68631 3.92677 0
M  V30 5284 H 503.352 5.66606 4.04883 0
M  V30 5285 H 500.979 6.36943 4.14979 0
M  V30 5286 N 502.554 -1.34406 0.822964 0
M  V30 5287 C 503.502 -2.31428 0.233165 0
M  V30 5288 C 504.496 -1.57404 -0.626118 0
M  V30 5289 O 505.702 -1.72402 -0.517453 0
M  V30 5290 H 502.077 -0.749863 0.0566557 0
M  V30 5291 H 504.048 -2.78699 1.06628 0
M  V30 5292 C 502.797 -3.42653 -0.590264 0
M  V30 5293 H 502.12 -3.99753 0.0616129 0
M  V30 5294 H 503.56 -4.12778 -0.969054 0
M  V30 5295 C 502.019 -2.87112 -1.76262 0
M  V30 5296 O 502.549 -2.81995 -2.8608 0
M  V30 5297 N 500.755 -2.43934 -1.57938 0
M  V30 5298 H 500.302 -2.48296 -0.686078 0
M  V30 5299 H 500.26 -2.07123 -2.36532 0
M  V30 5300 N 504.032 -0.577932 -1.46621 0
M  V30 5301 C 505.279 -0.0616879 -2.02406 0
M  V30 5302 C 505.607 1.29638 -1.44997 0
M  V30 5303 O 504.862 1.86176 -0.60308 0
M  V30 5304 C 505.161 0.0590832 -3.57351 0
M  V30 5305 C 504.827 -1.23077 -4.33777 0
M  V30 5306 C 503.489 -1.58416 -4.54376 0
M  V30 5307 C 505.841 -2.08457 -4.77698 0
M  V30 5308 C 503.169 -2.78943 -5.16147 0
M  V30 5309 C 505.521 -3.28204 -5.408 0
M  V30 5310 C 504.185 -3.63832 -5.59627 0
M  V30 5311 H 503.455 -0.0225732 -0.740656 0
M  V30 5312 H 506.102 -0.753609 -1.76048 0
M  V30 5313 H 504.407 0.834104 -3.82818 0
M  V30 5314 H 506.104 0.474202 -3.98186 0
M  V30 5315 H 502.694 -0.945652 -4.18038 0
M  V30 5316 H 506.878 -1.82459 -4.61544 0
M  V30 5317 H 502.134 -3.06689 -5.28916 0
M  V30 5318 H 506.308 -3.94634 -5.73792 0
M  V30 5319 H 503.935 -4.57315 -6.07262 0
M  V30 5320 N 505.51 1.54411 -0.315457 0
M  V30 5321 C 506.42 2.27737 0.56329 0
M  V30 5322 C 507.436 1.31787 1.13614 0
M  V30 5323 O 508.612 1.64791 1.15784 0
M  V30 5324 C 505.677 3.01478 1.71207 0
M  V30 5325 C 504.738 4.12997 1.17185 0
M  V30 5326 C 503.971 4.83212 2.26588 0
M  V30 5327 O 504.194 4.52884 3.46775 0
M  V30 5328 O 503.128 5.70299 1.92463 0
M  V30 5329 H 506.954 3.03683 -0.0319614 0
M  V30 5330 H 504.539 1.49178 -0.0814188 0
M  V30 5331 H 506.421 3.47683 2.38106 0
M  V30 5332 H 505.096 2.28414 2.29366 0
M  V30 5333 H 504.003 3.71159 0.468174 0
M  V30 5334 H 505.336 4.8808 0.635501 0
M  V30 5335 N 506.988 0.0434614 1.5754 0
M  V30 5336 C 508.235 -0.632035 1.92384 0
M  V30 5337 C 508.563 -1.71304 0.921157 0
M  V30 5338 O 507.818 -1.95583 -0.067744 0
M  V30 5339 C 508.117 -1.2738 3.3393 0
M  V30 5340 C 507.783 -0.321757 4.49751 0
M  V30 5341 C 506.445 -0.0597611 4.81163 0
M  V30 5342 C 508.797 0.331158 5.20147 0
M  V30 5343 C 506.125 0.862715 5.80322 0
M  V30 5344 C 508.477 1.24178 6.20292 0
M  V30 5345 C 507.141 1.51252 6.50138 0
M  V30 5346 H 506.411 -0.231278 0.703983 0
M  V30 5347 H 509.058 0.108294 1.91194 0
M  V30 5348 H 507.363 -2.08921 3.3145 0
M  V30 5349 H 509.06 -1.80326 3.58167 0
M  V30 5350 H 505.65 -0.53614 4.25233 0
M  V30 5351 H 509.834 0.141826 4.96097 0
M  V30 5352 H 505.09 1.08003 6.01785 0
M  V30 5353 H 509.264 1.75381 6.73954 0
M  V30 5354 H 506.891 2.22897 7.26788 0
M  V30 5355 N 508.466 -1.55915 -0.229846 0
M  V30 5356 C 509.715 -1.77742 -0.953455 0
M  V30 5357 C 510.028 -0.610524 -1.85828 0
M  V30 5358 O 511.234 -0.712219 -2.61992 0
M  V30 5359 C 509.69 -3.14738 -1.74551 0
M  V30 5360 C 509.298 -4.39126 -0.887242 0
M  V30 5361 C 511.042 -3.45895 -2.46084 0
M  V30 5362 C 508.949 -5.67149 -1.67617 0
M  V30 5363 H 507.879 -0.662648 -0.359741 0
M  V30 5364 H 510.53 -1.82322 -0.207576 0
M  V30 5365 H 508.912 -3.04311 -2.53399 0
M  V30 5366 H 510.086 -4.60588 -0.139892 0
M  V30 5367 H 508.401 -4.15427 -0.284443 0
M  V30 5368 H 510.998 -4.38767 -3.05594 0
M  V30 5369 H 511.341 -2.68007 -3.18556 0
M  V30 5370 H 511.874 -3.57614 -1.74233 0
M  V30 5371 H 508.613 -6.47906 -0.994881 0
M  V30 5372 H 508.133 -5.49763 -2.39836 0
M  V30 5373 H 509.812 -6.07025 -2.23898 0
M  V30 5374 N 509.944 0.496216 -1.49584 0
M  V30 5375 C 510.892 1.61805 -1.67098 0
M  V30 5376 C 511.886 1.60667 -0.536877 0
M  V30 5377 O 513.092 1.65118 -0.716654 0
M  V30 5378 H 509.467 0.53646 -0.526986 0
M  V30 5379 H 511.438 1.44187 -2.61252 0
M  V30 5380 C 510.187 2.99912 -1.75921 0
M  V30 5381 H 509.51 3.01496 -2.62565 0
M  V30 5382 H 510.95 3.77931 -1.92209 0
M  V30 5383 C 509.409 3.33092 -0.505088 0
M  V30 5384 O 509.939 4.00019 0.367085 0
M  V30 5385 N 508.145 2.88278 -0.366599 0
M  V30 5386 H 507.692 2.33989 -1.07735 0
M  V30 5387 H 507.65 3.10846 0.47142 0
M  V30 5388 N 511.423 1.38739 0.74761 0
M  V30 5389 C 512.7 1.25791 1.49786 0
M  V30 5390 C 513.08 -0.138075 2.10648 0
M  V30 5391 O 512.428 -1.14815 1.9756 0
M  V30 5392 C 512.638 2.37265 2.55942 0
M  V30 5393 C 513.986 2.75978 3.22679 0
M  V30 5394 O 515.01 2.36621 2.6625 0
M  V30 5395 O 513.869 3.43867 4.24756 0
M  V30 5396 H 510.963 0.492251 0.664543 0
M  V30 5397 H 513.509 1.50582 0.782511 0
M  V30 5398 H 512.281 3.30644 2.0926 0
M  V30 5399 H 511.904 2.14071 3.35051 0
M  V30 5400 N 512.901 -0.976442 1.23707 0
M  V30 5401 C 514.129 -1.75341 1.09833 0
M  V30 5402 C 514.544 -1.8553 -0.349885 0
M  V30 5403 O 513.901 -1.33732 -1.24185 0
M  V30 5404 C 513.952 -3.17833 1.72233 0
M  V30 5405 O 513.673 -3.08167 3.11391 0
M  V30 5406 C 515.174 -4.11906 1.63853 0
M  V30 5407 H 512.394 -0.550137 0.384175 0
M  V30 5408 H 514.938 -1.2265 1.63638 0
M  V30 5409 H 513.093 -3.67538 1.22452 0
M  V30 5410 H 513.507 -3.97897 3.41729 0
M  V30 5411 H 514.981 -5.09579 2.12211 0
M  V30 5412 H 515.458 -4.35109 0.598092 0
M  V30 5413 H 516.064 -3.68107 2.13019 0
M  V30 5414 N 514.379 -1.04941 -1.1758 0
M  V30 5415 C 515.625 -0.759112 -1.88057 0
M  V30 5416 C 515.958 0.711918 -1.8068 0
M  V30 5417 O 515.233 1.52035 -1.21308 0
M  V30 5418 C 515.516 -1.237 -3.38187 0
M  V30 5419 C 515.369 -2.77078 -3.54327 0
M  V30 5420 C 516.688 -0.834014 -4.32125 0
M  V30 5421 H 513.807 -0.277237 -0.682868 0
M  V30 5422 H 516.449 -1.30296 -1.38286 0
M  V30 5423 H 514.599 -0.774337 -3.80705 0
M  V30 5424 H 516.271 -3.31449 -3.20842 0
M  V30 5425 H 514.514 -3.16477 -2.96689 0
M  V30 5426 H 515.185 -3.05577 -4.59703 0
M  V30 5427 H 517.661 -1.23228 -3.97434 0
M  V30 5428 H 516.537 -1.19603 -5.35711 0
M  V30 5429 H 516.798 0.262195 -4.41322 0
M  V30 5430 N 515.857 1.33968 -0.830081 0
M  V30 5431 C 517.085 2.0228 -0.434773 0
M  V30 5432 C 517.5 1.62487 0.961419 0
M  V30 5433 O 516.857 0.833849 1.62337 0
M  V30 5434 C 516.908 3.5751 -0.535625 0
M  V30 5435 O 516.629 3.95864 -1.87679 0
M  V30 5436 C 518.13 4.43091 -0.136137 0
M  V30 5437 H 515.35 0.648151 -0.173613 0
M  V30 5438 H 517.894 1.71089 -1.12022 0
M  V30 5439 H 516.049 3.87266 0.101817 0
M  V30 5440 H 516.463 4.9056 -1.85609 0
M  V30 5441 H 517.937 5.51398 -0.257772 0
M  V30 5442 H 518.414 4.29433 0.921076 0
M  V30 5443 H 519.02 4.18677 -0.747662 0
M  V30 5444 N 517.335 0.585699 1.46312 0
M  V30 5445 C 518.583 0.072278 2.01971 0
M  V30 5446 C 518.904 -1.29345 1.45928 0
M  V30 5447 O 518.174 -1.84973 0.645109 0
M  V30 5448 H 516.754 0.023729 0.746623 0
M  V30 5449 H 519.416 0.762155 1.7938 0
M  V30 5450 H 518.512 0.00552767 3.121 0
M  V30 5451 N 518.813 -1.54241 0.323641 0
M  V30 5452 C 520.061 -2.00174 -0.278359 0
M  V30 5453 C 520.382 -1.2134 -1.52648 0
M  V30 5454 O 519.652 -0.315244 -1.93347 0
M  V30 5455 H 518.232 -0.739463 -0.105845 0
M  V30 5456 H 520.894 -1.89864 0.440204 0
M  V30 5457 H 519.99 -3.07486 -0.5347 0
M  V30 5458 N 520.291 -0.0518155 -1.57515 0
M  V30 5459 C 521.537 0.622745 -1.93002 0
M  V30 5460 C 521.87 1.70456 -0.930499 0
M  V30 5461 O 521.145 1.94452 0.0434086 0
M  V30 5462 C 521.428 1.21824 -3.38867 0
M  V30 5463 C 521.281 0.144434 -4.49568 0
M  V30 5464 C 522.6 2.12968 -3.8514 0
M  V30 5465 H 519.719 0.22491 -0.701844 0
M  V30 5466 H 522.361 -0.113711 -1.89659 0
M  V30 5467 H 520.511 1.8459 -3.41846 0
M  V30 5468 H 522.183 -0.48753 -4.58717 0
M  V30 5469 H 520.426 -0.527424 -4.30582 0
M  V30 5470 H 521.097 0.601127 -5.48717 0
M  V30 5471 H 523.573 1.60163 -3.8404 0
M  V30 5472 H 522.449 2.51578 -4.87852 0
M  V30 5473 H 522.71 3.03004 -3.21934 0
M  V30 5474 N 521.769 1.56035 0.221574 0
M  V30 5475 C 522.702 1.87427 1.30178 0
M  V30 5476 C 523.68 0.731658 1.45209 0
M  V30 5477 O 524.864 0.980016 1.61022 0
M  V30 5478 C 521.991 2.08127 2.67209 0
M  V30 5479 C 521.037 3.30813 2.69194 0
M  V30 5480 S 521.87 4.86738 2.23263 0
M  V30 5481 C 523.026 5.10474 3.62171 0
M  V30 5482 H 523.259 2.78756 1.03355 0
M  V30 5483 H 520.792 1.48469 0.423813 0
M  V30 5484 H 522.75 2.20736 3.46101 0
M  V30 5485 H 521.411 1.17595 2.91256 0
M  V30 5486 H 520.604 3.42341 3.6989 0
M  V30 5487 H 520.206 3.1706 1.98366 0
M  V30 5488 H 522.498 4.9937 4.5786 0
M  V30 5489 H 523.441 6.12359 3.55558 0
M  V30 5490 H 523.849 4.38208 3.55857 0
M  V30 5491 N 523.247 -0.488276 1.49845 0
M  V30 5492 C 524.658 -1.06955 1.53028 0
M  V30 5493 C 525.009 -1.9351 0.323797 0
M  V30 5494 O 524.134 -2.08891 -0.565116 0
M  V30 5495 C 524.729 -1.94643 2.77307 0
M  V30 5496 C 523.288 -2.4791 2.83227 0
M  V30 5497 C 522.435 -1.25833 2.47106 0
M  V30 5498 H 525.386 -0.271626 1.56358 0
M  V30 5499 H 525.407 -2.79496 2.5819 0
M  V30 5500 H 524.919 -1.31621 3.65099 0
M  V30 5501 H 523.02 -3.14535 1.99745 0
M  V30 5502 H 523.133 -2.84193 3.85709 0
M  V30 5503 H 521.497 -1.58764 1.99163 0
M  V30 5504 H 522.28 -0.644993 3.37186 0
M  V30 5505 N 524.725 -1.39134 -0.740242 0
M  V30 5506 C 526.141 -1.20623 -1.0451 0
M  V30 5507 C 526.341 -0.0641651 -2.01398 0
M  V30 5508 O 525.397 0.585843 -2.4561 0
M  V30 5509 C 526.71 -2.53815 -1.6124 0
M  V30 5510 C 528.258 -2.60615 -1.73346 0
M  V30 5511 C 528.733 -3.94015 -2.33486 0
M  V30 5512 N 530.224 -3.95627 -2.40902 0
M  V30 5513 C 530.959 -4.95616 -2.88361 0
M  V30 5514 N 530.455 -6.06003 -3.35756 0
M  V30 5515 N 532.248 -4.82998 -2.87523 0
M  V30 5516 H 524.399 -2.12176 -0.0975576 0
M  V30 5517 H 526.662 -0.942066 -0.105904 0
M  V30 5518 H 526.368 -3.37911 -0.975144 0
M  V30 5519 H 526.242 -2.73162 -2.6012 0
M  V30 5520 H 528.629 -1.76906 -2.36195 0
M  V30 5521 H 528.71 -2.45123 -0.731336 0
M  V30 5522 H 528.354 -4.78153 -1.71267 0
M  V30 5523 H 528.284 -4.06825 -3.34366 0
M  V30 5524 H 530.775 -3.15903 -2.07398 0
M  V30 5525 H 531.088 -6.78215 -3.70464 0
M  V30 5526 H 529.433 -6.09604 -3.33778 0
M  V30 5527 H 532.624 -3.95866 -2.49816 0
M  V30 5528 H 532.797 -5.61072 -3.24196 0
M  V30 5529 N 526.204 0.969867 -1.24223 0
M  V30 5530 C 527.453 1.70687 -1.07466 0
M  V30 5531 C 527.766 1.91736 0.386861 0
M  V30 5532 O 528.972 2.62986 0.674581 0
M  V30 5533 C 527.428 3.07217 -1.87472 0
M  V30 5534 C 527.036 2.94018 -3.3802 0
M  V30 5535 C 528.78 3.84804 -1.79237 0
M  V30 5536 C 526.687 4.25844 -4.10379 0
M  V30 5537 H 525.617 0.640067 -0.398536 0
M  V30 5538 H 528.268 1.08092 -1.48285 0
M  V30 5539 H 526.65 3.70628 -1.39466 0
M  V30 5540 H 527.824 2.39632 -3.9359 0
M  V30 5541 H 526.139 2.29898 -3.47183 0
M  V30 5542 H 528.736 4.82417 -2.30603 0
M  V30 5543 H 529.079 4.09356 -0.757197 0
M  V30 5544 H 529.612 3.28115 -2.24912 0
M  V30 5545 H 526.351 4.06486 -5.14246 0
M  V30 5546 H 525.871 4.80054 -3.59594 0
M  V30 5547 H 527.55 4.94475 -4.17257 0
M  V30 5548 N 527.682 1.05563 1.17022 0
M  V30 5549 C 528.91 0.78845 1.91288 0
M  V30 5550 C 529.325 -0.656318 1.77025 0
M  V30 5551 O 528.682 -1.44869 1.10992 0
M  V30 5552 C 528.733 1.16444 3.42232 0
M  V30 5553 O 528.454 2.5525 3.5606 0
M  V30 5554 C 529.955 0.923937 4.33565 0
M  V30 5555 H 527.175 0.286389 0.606813 0
M  V30 5556 H 529.719 1.4073 1.48375 0
M  V30 5557 H 527.874 0.590266 3.82877 0
M  V30 5558 H 528.288 2.70097 4.49609 0
M  V30 5559 H 529.762 1.23672 5.37968 0
M  V30 5560 H 530.239 -0.140688 4.38975 0
M  V30 5561 H 530.845 1.48214 3.98639 0
M  V30 5562 N 529.16 -1.33526 0.837174 0
M  V30 5563 C 530.385 -2.0258 0.444545 0
M  V30 5564 C 530.81 -1.6258 -0.946006 0
M  V30 5565 O 530.168 -0.817548 -1.6182 0
M  V30 5566 C 530.216 -3.5605 0.571006 0
M  V30 5567 O 529.32 -4.10422 -0.403431 0
M  V30 5568 H 528.661 -0.638866 0.180958 0
M  V30 5569 H 531.191 -1.70462 1.13154 0
M  V30 5570 H 531.201 -4.05488 0.452024 0
M  V30 5571 H 529.876 -3.84509 1.58512 0
M  V30 5572 H 528.453 -3.72113 -0.242147 0
M  V30 5573 N 530.638 -0.59345 -1.46 0
M  V30 5574 C 531.868 -0.0889642 -2.06408 0
M  V30 5575 C 532.276 1.22597 -1.44106 0
M  V30 5576 O 531.619 1.75448 -0.544398 0
M  V30 5577 C 531.681 0.139902 -3.59228 0
M  V30 5578 C 531.345 -1.09107 -4.43784 0
M  V30 5579 C 532.342 -2.00577 -4.79651 0
M  V30 5580 C 530.027 -1.31593 -4.84756 0
M  V30 5581 C 532.021 -3.12873 -5.55328 0
M  V30 5582 C 529.708 -2.44192 -5.60191 0
M  V30 5583 C 530.706 -3.34661 -5.95392 0
M  V30 5584 O 530.394 -4.45302 -6.69299 0
M  V30 5585 H 530.126 -0.0594613 -0.67338 0
M  V30 5586 H 532.68 -0.817 -1.88452 0
M  V30 5587 H 530.91 0.922672 -3.75531 0
M  V30 5588 H 532.599 0.594228 -4.01527 0
M  V30 5589 H 533.365 -1.84425 -4.48567 0
M  V30 5590 H 529.244 -0.620801 -4.56801 0
M  V30 5591 H 532.788 -3.83511 -5.82722 0
M  V30 5592 H 528.685 -2.60303 -5.90688 0
M  V30 5593 H 529.453 -4.43805 -6.87735 0
M  V30 5594 N 532.116 1.54067 -0.331816 0
M  V30 5595 C 533.363 2.00715 0.268269 0
M  V30 5596 C 533.691 1.21986 1.51491 0
M  V30 5597 O 532.946 0.292309 1.93505 0
M  V30 5598 C 533.245 3.51634 0.639392 0
M  V30 5599 C 532.911 4.48018 -0.509019 0
M  V30 5600 C 531.573 4.74089 -0.824209 0
M  V30 5601 C 533.925 5.05237 -1.28003 0
M  V30 5602 C 531.253 5.54637 -1.91298 0
M  V30 5603 C 533.605 5.86972 -2.35895 0
M  V30 5604 C 532.269 6.11342 -2.67987 0
M  V30 5605 H 531.539 0.734469 0.0981667 0
M  V30 5606 H 534.186 1.8596 -0.457304 0
M  V30 5607 H 532.491 3.6416 1.44551 0
M  V30 5608 H 534.188 3.85175 1.11539 0
M  V30 5609 H 530.778 4.27851 -0.253287 0
M  V30 5610 H 534.962 4.8507 -1.04978 0
M  V30 5611 H 530.218 5.71747 -2.16599 0
M  V30 5612 H 534.392 6.30327 -2.96076 0
M  V30 5613 H 532.019 6.73544 -3.5248 0
M  V30 5614 N 533.594 0.0601682 1.57485 0
M  V30 5615 C 534.819 -0.624416 1.97777 0
M  V30 5616 C 535.244 -1.63051 0.937867 0
M  V30 5617 O 534.602 -1.81036 -0.0978845 0
M  V30 5618 C 534.65 -1.27979 3.37126 0
M  V30 5619 O 533.754 -2.39556 3.35688 0
M  V30 5620 H 533.095 -0.161581 0.64404 0
M  V30 5621 H 535.625 0.131237 2.04179 0
M  V30 5622 H 535.635 -1.62937 3.74053 0
M  V30 5623 H 534.31 -0.542501 4.12347 0
M  V30 5624 H 532.887 -2.06478 3.10517 0
M  V30 5625 N 535.072 -1.5615 -0.213296 0
M  V30 5626 C 536.32 -1.79191 -0.934612 0
M  V30 5627 C 536.641 -0.630112 -1.84539 0
M  V30 5628 O 535.911 0.35257 -1.92701 0
M  V30 5629 H 534.491 -0.660937 -0.348097 0
M  V30 5630 H 537.153 -1.93618 -0.22317 0
M  V30 5631 H 536.249 -2.71656 -1.53654 0
M  V30 5632 N 536.55 0.480323 -1.50102 0
M  V30 5633 C 537.778 1.25657 -1.64371 0
M  V30 5634 C 538.193 1.86011 -0.323316 0
M  V30 5635 O 537.55 1.68803 0.693682 0
M  V30 5636 C 537.601 2.37197 -2.728 0
M  V30 5637 O 537.322 1.7932 -3.9972 0
M  V30 5638 C 538.823 3.2823 -2.9796 0
M  V30 5639 H 536.043 0.380369 -0.552775 0
M  V30 5640 H 538.587 0.574379 -1.96268 0
M  V30 5641 H 536.742 3.01208 -2.43623 0
M  V30 5642 H 537.156 2.52701 -4.59611 0
M  V30 5643 H 538.63 4.02725 -3.77513 0
M  V30 5644 H 539.107 3.86462 -2.08671 0
M  V30 5645 H 539.713 2.69964 -3.28633 0
M  V30 5646 N 538.028 1.39524 0.732853 0
M  V30 5647 C 539.305 1.27373 1.48444 0
M  V30 5648 C 539.685 -0.115725 2.10783 0
M  V30 5649 O 539.033 -1.12713 1.98766 0
M  V30 5650 C 539.243 2.39966 2.53412 0
M  V30 5651 C 540.591 2.79384 3.19733 0
M  V30 5652 O 541.615 2.39431 2.63725 0
M  V30 5653 O 540.474 3.48353 4.21085 0
M  V30 5654 H 537.568 0.499272 0.659285 0
M  V30 5655 H 540.114 1.51403 0.766496 0
M  V30 5656 H 538.886 3.32845 2.05742 0
M  V30 5657 H 538.509 2.17612 3.32762 0
M  V30 5658 N 539.506 -0.963266 1.24736 0
M  V30 5659 C 540.436 -2.07628 1.06832 0
M  V30 5660 C 541.417 -1.70088 -0.0200566 0
M  V30 5661 O 542.602 -1.93636 0.147854 0
M  V30 5662 C 539.732 -3.40636 0.677069 0
M  V30 5663 C 538.686 -3.9215 1.71471 0
M  V30 5664 C 538.012 -5.21553 1.1784 0
M  V30 5665 C 539.312 -4.19493 3.11164 0
M  V30 5666 H 541.006 -2.22864 1.9993 0
M  V30 5667 H 538.552 -1.07093 0.96266 0
M  V30 5668 H 540.505 -4.17941 0.538792 0
M  V30 5669 H 539.229 -3.25313 -0.289612 0
M  V30 5670 H 537.888 -3.17005 1.84128 0
M  V30 5671 H 537.536 -5.02593 0.202195 0
M  V30 5672 H 537.236 -5.56988 1.87185 0
M  V30 5673 H 538.76 -6.01463 1.05233 0
M  V30 5674 H 540.174 -4.87487 3.01711 0
M  V30 5675 H 538.571 -4.66165 3.77902 0
M  V30 5676 H 539.641 -3.26097 3.58871 0
M  V30 5677 N 540.985 -1.06182 -1.16461 0
M  V30 5678 C 541.948 -0.675723 -2.19013 0
M  V30 5679 C 542.948 0.277963 -1.58379 0
M  V30 5680 O 544.138 0.0604962 -1.74095 0
M  V30 5681 C 541.27 0.00591459 -3.40899 0
M  V30 5682 H 542.463 -1.58353 -2.54685 0
M  V30 5683 H 540.016 -0.856908 -1.30716 0
M  V30 5684 H 540.751 0.92652 -3.10783 0
M  V30 5685 H 540.536 -0.67984 -3.86161 0
M  V30 5686 H 542.026 0.26181 -4.16778 0
M  V30 5687 N 542.463 1.3308 -0.844243 0
M  V30 5688 C 543.693 2.01515 -0.455541 0
M  V30 5689 C 544.101 1.63655 0.949406 0
M  V30 5690 O 543.444 0.84848 1.62931 0
M  V30 5691 C 543.506 3.55967 -0.502801 0
M  V30 5692 C 543.17 4.17222 -1.86481 0
M  V30 5693 C 544.167 4.36205 -2.8288 0
M  V30 5694 C 541.852 4.53528 -2.15911 0
M  V30 5695 C 543.846 4.90649 -4.06869 0
M  V30 5696 C 541.533 5.07679 -3.40155 0
M  V30 5697 C 542.531 5.26186 -4.35451 0
M  V30 5698 O 542.219 5.79183 -5.57496 0
M  V30 5699 H 541.951 0.65199 -0.178565 0
M  V30 5700 H 544.505 1.70867 -1.1399 0
M  V30 5701 H 542.735 3.85965 0.23836 0
M  V30 5702 H 544.424 4.05688 -0.131169 0
M  V30 5703 H 545.19 4.085 -2.61444 0
M  V30 5704 H 541.069 4.38414 -1.42528 0
M  V30 5705 H 544.613 5.0501 -4.81259 0
M  V30 5706 H 540.51 5.34815 -3.61446 0
M  V30 5707 H 541.278 5.97591 -5.5931 0
M  V30 5708 N 543.941 0.601185 1.45683 0
M  V30 5709 C 545.357 0.264315 1.57396 0
M  V30 5710 C 545.557 -1.23324 1.59353 0
M  V30 5711 O 544.613 -2.01594 1.52039 0
M  V30 5712 C 545.926 0.929839 2.85962 0
M  V30 5713 C 547.474 0.905156 2.99626 0
M  V30 5714 C 547.949 1.55057 4.30954 0
M  V30 5715 N 549.44 1.51576 4.37697 0
M  V30 5716 C 550.175 1.98436 5.37969 0
M  V30 5717 N 549.671 2.53352 6.44813 0
M  V30 5718 N 551.464 1.89242 5.29286 0
M  V30 5719 H 543.615 1.57363 1.42656 0
M  V30 5720 H 545.878 0.658831 0.681649 0
M  V30 5721 H 545.584 1.98404 2.90394 0
M  V30 5722 H 545.458 0.449224 3.74515 0
M  V30 5723 H 547.845 -0.14048 2.94765 0
M  V30 5724 H 547.926 1.42397 2.12501 0
M  V30 5725 H 547.57 2.5955 4.36573 0
M  V30 5726 H 547.5 1.00682 5.16886 0
M  V30 5727 H 549.991 1.11452 3.61091 0
M  V30 5728 H 550.304 2.86918 7.17564 0
M  V30 5729 H 548.649 2.57388 6.45582 0
M  V30 5730 H 551.84 1.46083 4.44722 0
M  V30 5731 H 552.013 2.26075 6.07284 0
M  V30 5732 N 545.419 -1.53889 0.339982 0
M  V30 5733 C 546.83 -1.86139 -0.144671 0
M  V30 5734 C 547.181 -1.2613 -1.50285 0
M  V30 5735 O 546.306 -0.573515 -2.08662 0
M  V30 5736 C 546.901 -3.37728 -0.269285 0
M  V30 5737 C 545.46 -3.69868 -0.698168 0
M  V30 5738 C 544.607 -2.76777 0.170249 0
M  V30 5739 H 547.558 -1.48503 0.559704 0
M  V30 5740 H 547.579 -3.64331 -1.0974 0
M  V30 5741 H 547.091 -3.81375 0.719366 0
M  V30 5742 H 545.192 -3.31764 -1.69597 0
M  V30 5743 H 545.305 -4.76582 -0.490533 0
M  V30 5744 H 543.669 -2.52188 -0.356844 0
M  V30 5745 H 544.452 -3.23253 1.15597 0
M  V30 5746 N 546.897 -0.0685191 -1.57451 0
M  V30 5747 C 548.145 0.60016 -1.92983 0
M  V30 5748 C 548.466 1.70348 -0.949028 0
M  V30 5749 O 547.736 1.959 0.00335647 0
M  V30 5750 H 546.316 0.224682 -0.712409 0
M  V30 5751 H 548.978 -0.125605 -1.94495 0
M  V30 5752 H 548.074 1.02759 -2.94698 0
M  V30 5753 N 548.375 1.56261 0.205012 0
M  V30 5754 C 549.603 1.84141 0.943386 0
M  V30 5755 C 550.018 0.649772 1.77266 0
M  V30 5756 O 549.375 -0.381612 1.78466 0
M  V30 5757 C 549.426 3.10719 1.84759 0
M  V30 5758 O 549.147 4.25286 1.05181 0
M  V30 5759 C 550.648 3.51706 2.69848 0
M  V30 5760 H 547.868 0.611734 0.275721 0
M  V30 5761 H 550.412 2.03364 0.215253 0
M  V30 5762 H 548.567 2.93422 2.52947 0
M  V30 5763 H 548.981 4.97301 1.66709 0
M  V30 5764 H 550.455 4.43266 3.28967 0
M  V30 5765 H 550.932 2.7423 3.43067 0
M  V30 5766 H 551.538 3.71499 2.07047 0
M  V30 5767 N 549.853 -0.472356 1.50355 0
M  V30 5768 C 550.816 -1.5529 1.68576 0
M  V30 5769 C 551.816 -1.50863 0.556511 0
M  V30 5770 O 553.006 -1.53505 0.823516 0
M  V30 5771 C 550.138 -2.94921 1.70981 0
M  V30 5772 H 551.331 -1.40451 2.64978 0
M  V30 5773 H 548.884 -0.698645 1.39816 0
M  V30 5774 H 549.619 -3.15204 0.762675 0
M  V30 5775 H 549.404 -2.99541 2.53017 0
M  V30 5776 H 550.894 -3.73372 1.87037 0
M  V30 5777 N 551.331 -1.39911 -0.725443 0
M  V30 5778 C 552.556 -1.41137 -1.5197 0
M  V30 5779 C 552.981 -0.010262 -1.88097 0
M  V30 5780 O 552.339 0.979184 -1.52583 0
M  V30 5781 C 552.387 -2.2994 -2.77777 0
M  V30 5782 O 551.491 -1.73586 -3.74088 0
M  V30 5783 H 550.832 -0.480219 -0.458569 0
M  V30 5784 H 553.362 -1.84023 -0.894249 0
M  V30 5785 H 553.372 -2.44785 -3.26411 0
M  V30 5786 H 552.047 -3.31759 -2.50816 0
M  V30 5787 H 550.624 -1.68035 -3.32894 0
M  V30 5788 N 552.809 0.956637 -1.25245 0
M  V30 5789 C 554.057 1.69764 -1.09657 0
M  V30 5790 C 554.378 1.91583 0.363464 0
M  V30 5791 O 553.648 1.50149 1.25825 0
M  V30 5792 H 552.228 0.629097 -0.402798 0
M  V30 5793 H 554.89 1.15026 -1.57337 0
M  V30 5794 H 553.986 2.67769 -1.60331 0
M  V30 5795 N 554.287 1.06798 1.15896 0
M  V30 5796 C 555.703 0.792423 1.38538 0
M  V30 5797 C 555.903 -0.60592 1.92174 0
M  V30 5798 O 554.959 -1.36561 2.12385 0
M  V30 5799 C 556.272 1.86157 2.36149 0
M  V30 5800 C 557.82 1.88567 2.49823 0
M  V30 5801 C 558.295 2.9455 3.5072 0
M  V30 5802 N 559.786 2.93616 3.58251 0
M  V30 5803 C 560.521 3.72267 4.36125 0
M  V30 5804 N 560.017 4.60751 5.17379 0
M  V30 5805 N 561.81 3.60637 4.31158 0
M  V30 5806 H 553.961 1.96993 0.794198 0
M  V30 5807 H 556.224 0.853942 0.411688 0
M  V30 5808 H 555.93 2.86603 2.03843 0
M  V30 5809 H 555.804 1.71692 3.3586 0
M  V30 5810 H 558.191 0.887765 2.8143 0
M  V30 5811 H 558.272 2.0711 1.5013 0
M  V30 5812 H 557.916 3.94537 3.19849 0
M  V30 5813 H 557.846 2.73255 4.50155 0
M  V30 5814 H 560.337 2.29472 3.00252 0
M  V30 5815 H 560.65 5.17408 5.74028 0
M  V30 5816 H 558.995 4.64803 5.16704 0
M  V30 5817 H 562.186 2.90892 3.66742 0
M  V30 5818 H 562.359 4.22176 4.91601 0
M  V30 5819 N 555.766 -1.3263 0.851289 0
M  V30 5820 C 556.676 -2.32722 0.296268 0
M  V30 5821 C 557.692 -1.63901 -0.584162 0
M  V30 5822 O 558.868 -1.95465 -0.485334 0
M  V30 5823 C 555.933 -3.42942 -0.509103 0
M  V30 5824 C 554.994 -4.2746 0.397069 0
M  V30 5825 C 554.227 -5.32416 -0.36996 0
M  V30 5826 O 554.45 -5.47491 -1.6003 0
M  V30 5827 O 553.384 -6.01327 0.262493 0
M  V30 5828 H 557.21 -2.82078 1.12543 0
M  V30 5829 H 554.795 -1.36194 0.614135 0
M  V30 5830 H 556.677 -4.1017 -0.96634 0
M  V30 5831 H 555.352 -2.95781 -1.31512 0
M  V30 5832 H 554.259 -3.63053 0.902411 0
M  V30 5833 H 555.592 -4.78136 1.16818 0
M  V30 5834 N 557.244 -0.608902 -1.45362 0
M  V30 5835 C 558.207 0.0992563 -2.28985 0
M  V30 5836 C 559.207 0.793841 -1.39838 0
M  V30 5837 O 560.397 0.641804 -1.61946 0
M  V30 5838 C 557.529 1.15073 -3.20891 0
M  V30 5839 H 558.722 -0.635964 -2.93079 0
M  V30 5840 H 556.275 -0.368007 -1.51906 0
M  V30 5841 H 557.01 1.91667 -2.616 0
M  V30 5842 H 556.795 0.656867 -3.86559 0
M  V30 5843 H 558.285 1.64665 -3.83765 0
M  V30 5844 N 558.722 1.53707 -0.348139 0
M  V30 5845 C 559.632 2.28881 0.514857 0
M  V30 5846 C 560.648 1.34168 1.10793 0
M  V30 5847 O 561.824 1.6721 1.12262 0
M  V30 5848 C 558.889 3.05042 1.64774 0
M  V30 5849 C 557.95 4.15389 1.08398 0
M  V30 5850 C 557.183 4.87909 2.16287 0
M  V30 5851 O 557.406 4.60137 3.3709 0
M  V30 5852 O 556.34 5.74254 1.80323 0
M  V30 5853 H 560.166 3.03547 -0.0963699 0
M  V30 5854 H 557.751 1.48972 -0.113043 0
M  V30 5855 H 559.633 3.52656 2.30677 0
M  V30 5856 H 558.308 2.33228 2.24469 0
M  V30 5857 H 557.215 3.72068 0.389341 0
M  V30 5858 H 558.548 4.89318 0.531829 0
M  V30 5859 N 560.2 0.0768682 1.57412 0
M  V30 5860 C 561.13 -0.886026 2.16037 0
M  V30 5861 C 562.111 -1.30691 1.08876 0
M  V30 5862 O 563.296 -1.37705 1.36934 0
M  V30 5863 C 560.426 -2.1518 2.72608 0
M  V30 5864 C 559.38 -1.87015 3.8498 0
M  V30 5865 C 558.706 -3.20266 4.28175 0
M  V30 5866 C 560.006 -1.17143 5.08994 0
M  V30 5867 H 561.7 -0.397642 2.96748 0
M  V30 5868 H 559.246 -0.189823 1.42743 0
M  V30 5869 H 561.199 -2.82962 3.12266 0
M  V30 5870 H 559.923 -2.66269 1.89125 0
M  V30 5871 H 558.582 -1.21636 3.45833 0
M  V30 5872 H 558.23 -3.69207 3.41607 0
M  V30 5873 H 557.93 -3.0221 5.03927 0
M  V30 5874 H 559.454 -3.89237 4.70454 0
M  V30 5875 H 560.868 -1.75003 5.45937 0
M  V30 5876 H 559.265 -1.09328 5.90057 0
M  V30 5877 H 560.335 -0.151295 4.84664 0
M  V30 5878 N 561.678 -1.56367 -0.196722 0
M  V30 5879 C 562.608 -1.97442 -1.24655 0
M  V30 5880 C 563.589 -0.846147 -1.47561 0
M  V30 5881 O 564.774 -1.11035 -1.59326 0
M  V30 5882 C 561.904 -2.31253 -2.59112 0
M  V30 5883 C 560.858 -3.46804 -2.50821 0
M  V30 5884 C 560.184 -3.66286 -3.89536 0
M  V30 5885 C 561.484 -4.8104 -2.03465 0
M  V30 5886 H 563.178 -2.85388 -0.905216 0
M  V30 5887 H 560.724 -1.37304 -0.434002 0
M  V30 5888 H 562.677 -2.58583 -3.32736 0
M  V30 5889 H 561.401 -1.40188 -2.94983 0
M  V30 5890 H 560.06 -3.19563 -1.79653 0
M  V30 5891 H 559.708 -2.72555 -4.22756 0
M  V30 5892 H 559.408 -4.4402 -3.84864 0
M  V30 5893 H 560.932 -3.9599 -4.64784 0
M  V30 5894 H 562.346 -5.07411 -2.66846 0
M  V30 5895 H 560.743 -5.62232 -2.09798 0
M  V30 5896 H 561.813 -4.74732 -0.98781 0
M  V30 5897 N 563.156 0.464375 -1.50603 0
M  V30 5898 C 564.119 1.54393 -1.69397 0
M  V30 5899 C 565.119 1.50566 -0.564504 0
M  V30 5900 O 566.309 1.53066 -0.831645 0
M  V30 5901 C 563.441 2.9401 -1.72543 0
M  V30 5902 H 564.634 1.39044 -2.65719 0
M  V30 5903 H 562.187 0.69122 -1.40185 0
M  V30 5904 H 562.922 3.14795 -0.77938 0
M  V30 5905 H 562.707 2.98195 -2.54602 0
M  V30 5906 H 564.197 3.72375 -1.89015 0
M  V30 5907 N 564.634 1.40294 0.718013 0
M  V30 5908 C 566.045 1.34289 1.29705 0
M  V30 5909 C 566.396 0.0152228 1.96194 0
M  V30 5910 O 565.521 -0.88682 1.97394 0
M  V30 5911 C 566.116 2.43219 2.3586 0
M  V30 5912 C 564.675 2.40682 2.89394 0
M  V30 5913 C 563.822 2.24223 1.63154 0
M  V30 5914 H 566.773 1.50135 0.514312 0
M  V30 5915 H 566.794 2.10986 3.16647 0
M  V30 5916 H 566.306 3.39836 1.87439 0
M  V30 5917 H 564.407 1.47756 3.42051 0
M  V30 5918 H 564.52 3.36177 3.41353 0
M  V30 5919 H 562.884 1.71696 1.88129 0
M  V30 5920 H 563.667 3.22834 1.16761 0
M  V30 5921 N 566.112 -0.949982 1.2575 0
M  V30 5922 C 567.359 -1.69515 1.10774 0
M  V30 5923 C 567.687 -1.91316 -0.350479 0
M  V30 5924 O 566.942 -1.48515 -1.27443 0
M  V30 5925 C 567.241 -3.08039 1.81237 0
M  V30 5926 C 566.907 -3.06023 3.31151 0
M  V30 5927 C 565.569 -3.0518 3.72047 0
M  V30 5928 C 567.921 -2.98998 4.26907 0
M  V30 5929 C 565.249 -2.95067 5.07102 0
M  V30 5930 C 567.601 -2.90426 5.61992 0
M  V30 5931 C 566.265 -2.87922 6.0221 0
M  V30 5932 H 565.535 -0.6203 0.405351 0
M  V30 5933 H 568.182 -1.10953 1.56082 0
M  V30 5934 H 566.487 -3.70172 1.28373 0
M  V30 5935 H 568.184 -3.64526 1.67098 0
M  V30 5936 H 564.774 -3.07453 2.98614 0
M  V30 5937 H 568.958 -2.98764 3.963 0
M  V30 5938 H 564.214 -2.915 5.37436 0
M  V30 5939 H 568.388 -2.83952 6.35881 0
M  V30 5940 H 566.015 -2.79841 7.06819 0
M  V30 5941 N 567.59 -1.07411 -1.15328 0
M  V30 5942 C 568.553 -0.698914 -2.18284 0
M  V30 5943 C 569.553 0.261149 -1.58665 0
M  V30 5944 O 570.743 0.0420277 -1.74149 0
M  V30 5945 C 567.875 -0.0302427 -3.40887 0
M  V30 5946 H 569.068 -1.61045 -2.52991 0
M  V30 5947 H 566.621 -0.870724 -1.298 0
M  V30 5948 H 567.356 0.893505 -3.11748 0
M  V30 5949 H 567.141 -0.720759 -3.85419 0
M  V30 5950 H 568.631 0.21759 -4.17033 0
M  V30 5951 N 569.068 1.32177 -0.85831 0
M  V30 5952 C 570.031 2.27086 -0.310588 0
M  V30 5953 C 571.031 1.51751 0.531806 0
M  V30 5954 O 572.221 1.70794 0.34279 0
M  V30 5955 C 569.353 3.36266 0.560179 0
M  V30 5956 H 570.546 2.77045 -1.1483 0
M  V30 5957 H 568.099 1.42911 -0.632942 0
M  V30 5958 H 568.834 2.9158 1.41956 0
M  V30 5959 H 568.619 3.92077 -0.0428473 0
M  V30 5960 H 570.109 4.06974 0.936056 0
M  V30 5961 N 570.547 0.616602 1.45037 0
M  V30 5962 C 571.824 0.0469086 1.95544 0
M  V30 5963 C 572.204 -1.42345 1.55888 0
M  V30 5964 O 571.552 -2.13055 0.825824 0
M  V30 5965 C 571.762 0.254489 3.48071 0
M  V30 5966 C 573.11 0.140025 4.24369 0
M  V30 5967 O 574.134 0.185084 3.55719 0
M  V30 5968 O 572.993 0.0327034 5.4649 0
M  V30 5969 H 570.087 -0.0306051 0.826433 0
M  V30 5970 H 572.633 0.687293 1.55159 0
M  V30 5971 H 571.405 1.27532 3.69934 0
M  V30 5972 H 571.028 -0.42073 3.95368 0
M  V30 5973 N 572.025 -1.5352 0.356285 0
M  V30 5974 C 572.955 -2.28372 -0.486661 0
M  V30 5975 C 573.936 -1.30432 -1.09185 0
M  V30 5976 O 575.121 -1.59291 -1.11085 0
M  V30 5977 C 572.251 -3.06604 -1.63129 0
M  V30 5978 C 571.205 -4.12154 -1.15381 0
M  V30 5979 C 570.531 -4.78415 -2.38796 0
M  V30 5980 C 571.831 -5.21724 -0.245179 0
M  V30 5981 H 573.525 -2.99083 0.137797 0
M  V30 5982 H 571.071 -1.43841 0.0677134 0
M  V30 5983 H 573.024 -3.57712 -2.22755 0
M  V30 5984 H 571.748 -2.33568 -2.28284 0
M  V30 5985 H 570.407 -3.61978 -0.580294 0
M  V30 5986 H 570.055 -4.01959 -3.02387 0
M  V30 5987 H 569.755 -5.49734 -2.07524 0
M  V30 5988 H 571.279 -5.32313 -2.99125 0
M  V30 5989 H 572.693 -5.68391 -0.748646 0
M  V30 5990 H 571.09 -6.00095 -0.0237608 0
M  V30 5991 H 572.16 -4.79596 0.715229 0
M  V30 5992 N 573.503 -0.0852151 -1.57369 0
M  V30 5993 C 574.914 0.445428 -1.81309 0
M  V30 5994 C 575.265 1.68795 -1.00013 0
M  V30 5995 O 574.39 2.15211 -0.226573 0
M  V30 5996 C 574.985 0.814887 -3.28854 0
M  V30 5997 C 573.544 1.29032 -3.53592 0
M  V30 5998 C 572.691 0.282089 -2.75861 0
M  V30 5999 H 575.642 -0.310771 -1.55627 0
M  V30 6000 H 575.663 1.67524 -3.41637 0
M  V30 6001 H 575.175 -0.0896309 -3.87996 0
M  V30 6002 H 573.276 2.21289 -2.9977 0
M  V30 6003 H 573.389 1.25898 -4.62262 0
M  V30 6004 H 571.753 0.762182 -2.43029 0
M  V30 6005 H 572.536 -0.614936 -3.37748 0
M  V30 6006 N 574.981 1.5647 0.188427 0
M  V30 6007 C 576.392 1.70864 0.752494 0
M  V30 6008 C 576.743 0.692905 1.83557 0
M  V30 6009 O 575.868 -0.149307 2.15884 0
M  V30 6010 C 576.463 3.09789 1.37173 0
M  V30 6011 C 575.022 3.25925 1.88281 0
M  V30 6012 C 574.169 2.66817 0.755259 0
M  V30 6013 H 577.12 1.58657 -0.0367408 0
M  V30 6014 H 577.141 3.07489 2.24122 0
M  V30 6015 H 576.653 3.83693 0.583219 0
M  V30 6016 H 574.754 2.56948 2.6983 0
M  V30 6017 H 574.867 4.33498 2.04001 0
M  V30 6018 H 573.231 2.2617 1.17128 0
M  V30 6019 H 574.014 3.43294 -0.0211237 0
M  V30 6020 N 576.459 -0.456382 1.50847 0
M  V30 6021 C 577.707 -1.20497 1.62249 0
M  V30 6022 C 578.028 -1.92156 0.331839 0
M  V30 6023 O 577.298 -1.84751 -0.651443 0
M  V30 6024 H 575.878 -0.447775 0.597918 0
M  V30 6025 H 578.54 -0.525099 1.87693 0
M  V30 6026 H 577.636 -1.94492 2.44089 0
M  V30 6027 N 577.937 -1.40673 -0.710563 0
M  V30 6028 C 579.165 -1.42547 -1.4996 0
M  V30 6029 C 579.58 -0.0265485 -1.88781 0
M  V30 6030 O 578.937 0.950694 -1.55782 0
M  V30 6031 C 578.988 -2.32071 -2.77173 0
M  V30 6032 O 578.709 -3.66518 -2.39992 0
M  V30 6033 C 580.21 -2.42591 -3.71032 0
M  V30 6034 H 577.43 -0.486025 -0.462623 0
M  V30 6035 H 579.974 -1.84783 -0.876102 0
M  V30 6036 H 578.129 -1.93184 -3.35795 0
M  V30 6037 H 578.543 -4.14115 -3.21884 0
M  V30 6038 H 580.017 -3.09429 -4.57119 0
M  V30 6039 H 580.494 -1.4525 -4.14486 0
M  V30 6040 H 581.1 -2.82051 -3.18319 0
M  V30 6041 N 579.415 0.9433 -1.26252 0
M  V30 6042 C 580.345 2.05902 -1.10122 0
M  V30 6043 C 581.326 1.70099 -0.00700552 0
M  V30 6044 O 582.511 1.93377 -0.178641 0
M  V30 6045 C 579.641 3.39516 -0.731175 0
M  V30 6046 C 578.595 3.89372 -1.77688 0
M  V30 6047 C 577.921 5.19613 -1.26122 0
M  V30 6048 C 579.221 4.14489 -3.17799 0
M  V30 6049 H 580.915 2.19655 -2.03451 0
M  V30 6050 H 578.461 1.05548 -0.979576 0
M  V30 6051 H 580.414 4.17031 -0.605215 0
M  V30 6052 H 579.138 3.25733 0.23782 0
M  V30 6053 H 577.797 3.14036 -1.89148 0
M  V30 6054 H 577.445 5.02208 -0.282128 0
M  V30 6055 H 577.145 5.53939 -1.96023 0
M  V30 6056 H 578.669 5.99713 -1.14789 0
M  V30 6057 H 580.083 4.82625 -3.09428 0
M  V30 6058 H 578.48 4.60094 -3.85271 0
M  V30 6059 H 579.55 3.20347 -3.64014 0
M  V30 6060 N 580.893 1.08022 1.14757 0
M  V30 6061 C 581.803 0.718292 2.23333 0
M  V30 6062 C 582.819 -0.273477 1.71837 0
M  V30 6063 O 583.995 -0.118406 2.01052 0
M  V30 6064 C 581.06 0.128855 3.4646 0
M  V30 6065 C 580.121 1.17473 4.12915 0
M  V30 6066 C 579.354 0.61333 5.30164 0
M  V30 6067 O 579.577 -0.568458 5.6756 0
M  V30 6068 O 578.511 1.3615 5.86299 0
M  V30 6069 H 582.337 1.62394 2.56636 0
M  V30 6070 H 579.922 0.853628 1.22611 0
M  V30 6071 H 581.804 -0.197249 4.20938 0
M  V30 6072 H 580.479 -0.750014 3.14891 0
M  V30 6073 H 579.386 1.5533 3.40328 0
M  V30 6074 H 580.719 2.02574 4.48581 0
M  V30 6075 N 582.371 -1.3172 0.865308 0
M  V30 6076 C 583.619 -1.96487 0.472995 0
M  V30 6077 C 583.94 -1.68761 -0.976975 0
M  V30 6078 O 583.21 -1.00051 -1.68424 0
M  V30 6079 H 581.79 -0.726947 0.171922 0
M  V30 6080 H 584.452 -1.60612 1.10407 0
M  V30 6081 H 583.548 -3.0574 0.62687 0
M  V30 6082 N 583.85 -0.624285 -1.44708 0
M  V30 6083 C 585.08 -0.132726 -2.06173 0
M  V30 6084 C 585.488 1.19513 -1.46674 0
M  V30 6085 O 584.831 1.74254 -0.581491 0
M  V30 6086 C 584.893 0.0636732 -3.59444 0
M  V30 6087 C 584.557 -1.18496 -4.4137 0
M  V30 6088 C 585.553 -2.10706 -4.75288 0
M  V30 6089 C 583.239 -1.41846 -4.81856 0
M  V30 6090 C 585.233 -3.24582 -5.48567 0
M  V30 6091 C 582.92 -2.5602 -5.54885 0
M  V30 6092 C 583.918 -3.47215 -5.88159 0
M  V30 6093 O 583.606 -4.59399 -6.59703 0
M  V30 6094 H 583.338 -0.0737313 -0.671967 0
M  V30 6095 H 585.892 -0.856789 -1.86677 0
M  V30 6096 H 584.122 0.842809 -3.77404 0
M  V30 6097 H 585.811 0.508924 -4.02697 0
M  V30 6098 H 586.577 -1.93898 -4.44554 0
M  V30 6099 H 582.456 -0.717556 -4.55381 0
M  V30 6100 H 586 -3.95785 -5.74456 0
M  V30 6101 H 581.897 -2.72774 -5.85034 0
M  V30 6102 H 582.665 -4.58293 -6.78166 0
M  V30 6103 N 585.328 1.53329 -0.364422 0
M  V30 6104 C 586.291 2.24323 0.470292 0
M  V30 6105 C 587.291 1.25068 1.01067 0
M  V30 6106 O 588.481 1.49354 0.896605 0
M  V30 6107 C 585.613 2.97908 1.65722 0
M  V30 6108 H 586.806 2.9952 -0.150917 0
M  V30 6109 H 584.359 1.55868 -0.116092 0
M  V30 6110 H 585.094 2.2695 2.31655 0
M  V30 6111 H 584.879 3.70732 1.27671 0
M  V30 6112 H 586.369 3.5188 2.24878 0
M  V30 6113 N 586.806 0.0935595 1.57322 0
M  V30 6114 C 587.736 -0.863062 2.16964 0
M  V30 6115 C 588.717 -1.29528 1.10256 0
M  V30 6116 O 589.902 -1.36245 1.38387 0
M  V30 6117 C 587.032 -2.12276 2.74875 0
M  V30 6118 C 585.986 -1.82921 3.86942 0
M  V30 6119 C 585.312 -3.15707 4.31548 0
M  V30 6120 C 586.612 -1.11737 5.10208 0
M  V30 6121 H 588.306 -0.366145 2.97153 0
M  V30 6122 H 585.852 -0.174673 1.42937 0
M  V30 6123 H 587.805 -2.79634 3.1525 0
M  V30 6124 H 586.529 -2.64248 1.91938 0
M  V30 6125 H 585.188 -1.17961 3.47103 0
M  V30 6126 H 584.836 -3.65563 3.45504 0
M  V30 6127 H 584.536 -2.96849 5.07104 0
M  V30 6128 H 586.06 -3.84226 4.74555 0
M  V30 6129 H 587.474 -1.69203 5.47762 0
M  V30 6130 H 585.871 -1.03064 5.91183 0
M  V30 6131 H 586.941 -0.0998818 4.84797 0
M  V30 6132 N 588.284 -1.56567 -0.180126 0
M  V30 6133 C 589.695 -1.7126 -0.743422 0
M  V30 6134 C 590.046 -0.70263 -1.83187 0
M  V30 6135 O 589.171 0.137856 -2.1596 0
M  V30 6136 C 589.766 -3.10512 -1.35528 0
M  V30 6137 C 588.325 -3.26919 -1.8655 0
M  V30 6138 C 587.472 -2.67213 -0.741099 0
M  V30 6139 H 590.423 -1.58636 0.0451543 0
M  V30 6140 H 590.444 -3.08673 -2.22489 0
M  V30 6141 H 589.956 -3.83997 -0.562862 0
M  V30 6142 H 588.057 -2.58376 -2.68464 0
M  V30 6143 H 588.17 -4.34574 -2.01699 0
M  V30 6144 H 586.534 -2.26788 -1.15927 0
M  V30 6145 H 587.317 -3.43277 0.0393291 0
M  V30 6146 N 589.762 0.448376 -1.51087 0
M  V30 6147 C 590.694 1.56146 -1.67783 0
M  V30 6148 C 591.707 1.52913 -0.55871 0
M  V30 6149 O 592.896 1.57889 -0.83267 0
M  V30 6150 C 589.996 2.95057 -1.66716 0
M  V30 6151 C 589.169 3.22915 -2.95033 0
M  V30 6152 C 588.228 4.41495 -2.86302 0
M  V30 6153 O 587.254 4.40688 -3.60254 0
M  V30 6154 N 588.456 5.44443 -2.014 0
M  V30 6155 H 591.221 1.42232 -2.638 0
M  V30 6156 H 588.782 0.637153 -1.48835 0
M  V30 6157 H 590.774 3.72388 -1.58458 0
M  V30 6158 H 589.344 3.02624 -0.783403 0
M  V30 6159 H 588.564 2.33985 -3.17245 0
M  V30 6160 H 589.852 3.38349 -3.79996 0
M  V30 6161 H 589.25 5.4793 -1.40674 0
M  V30 6162 H 587.807 6.2067 -1.99029 0
M  V30 6163 N 591.24 1.41047 0.703093 0
M  V30 6164 C 592.488 1.39723 1.4602 0
M  V30 6165 C 592.809 0.00461257 1.94999 0
M  V30 6166 O 592.079 -0.952292 1.71196 0
M  V30 6167 H 590.659 0.514281 0.541779 0
M  V30 6168 H 593.321 1.76217 0.832678 0
M  V30 6169 H 592.417 2.07982 2.32701 0
M  V30 6170 N 592.718 -0.936591 1.26751 0
M  V30 6171 C 593.995 -1.66094 1.03306 0
M  V30 6172 C 594.375 -2.06568 -0.435058 0
M  V30 6173 O 593.723 -1.79305 -1.41641 0
M  V30 6174 C 593.933 -2.86969 1.98619 0
M  V30 6175 C 595.281 -3.58516 2.27489 0
M  V30 6176 O 596.305 -2.97082 1.96522 0
M  V30 6177 O 595.164 -4.69181 2.80235 0
M  V30 6178 H 592.258 -0.727568 0.393158 0
M  V30 6179 H 594.804 -0.987914 1.3798 0
M  V30 6180 H 593.576 -2.53985 2.9767 0
M  V30 6181 H 593.199 -3.61996 1.64454 0
M  V30 6182 N 594.196 -1.08629 -1.14182 0
M  V30 6183 C 595.444 -0.815731 -1.84906 0
M  V30 6184 C 595.765 0.660441 -1.83475 0
M  V30 6185 O 595.035 1.47888 -1.28476 0
M  V30 6186 H 593.615 -0.298773 -0.684648 0
M  V30 6187 H 596.277 -1.37274 -1.38354 0
M  V30 6188 H 595.373 -1.16193 -2.89665 0
M  V30 6189 N 595.674 1.31259 -0.872281 0
M  V30 6190 C 596.902 2.00795 -0.498907 0
M  V30 6191 C 597.317 1.65464 0.909238 0
M  V30 6192 O 596.674 0.885073 1.59602 0
M  V30 6193 C 596.725 3.55625 -0.649092 0
M  V30 6194 O 596.446 3.89692 -2.00179 0
M  V30 6195 C 597.947 4.42434 -0.277034 0
M  V30 6196 H 595.167 0.642299 -0.194145 0
M  V30 6197 H 597.711 1.67438 -1.17408 0
M  V30 6198 H 595.866 3.87394 -0.0214402 0
M  V30 6199 H 596.28 4.84407 -2.01122 0
M  V30 6200 H 597.754 5.50299 -0.433064 0
M  V30 6201 H 598.231 4.32146 0.783989 0
M  V30 6202 H 598.837 4.16086 -0.880483 0
M  V30 6203 N 597.152 0.631951 1.44375 0
M  V30 6204 C 598.115 -0.0628142 2.29114 0
M  V30 6205 C 599.115 -0.771494 1.41084 0
M  V30 6206 O 600.305 -0.615959 1.62947 0
M  V30 6207 C 597.437 -1.09953 3.22681 0
M  V30 6208 H 598.63 0.682509 2.92031 0
M  V30 6209 H 596.183 0.392128 1.51301 0
M  V30 6210 H 596.918 -1.87481 2.64616 0
M  V30 6211 H 596.703 -0.595286 3.87555 0
M  V30 6212 H 598.193 -1.58538 3.86336 0
M  V30 6213 N 598.631 -1.53133 0.372548 0
M  V30 6214 C 600.047 -1.59585 0.02178 0
M  V30 6215 C 600.247 -1.38736 -1.46132 0
M  V30 6216 O 599.303 -1.19599 -2.22379 0
M  V30 6217 C 600.616 -2.9678 0.483959 0
M  V30 6218 C 602.164 -3.09909 0.438775 0
M  V30 6219 C 602.639 -4.49527 0.876876 0
M  V30 6220 N 604.13 -4.55663 0.832214 0
M  V30 6221 C 604.865 -5.61896 1.14281 0
M  V30 6222 N 604.361 -6.75852 1.52303 0
M  V30 6223 N 606.154 -5.51916 1.06515 0
M  V30 6224 H 598.305 -1.64936 1.33827 0
M  V30 6225 H 600.568 -0.773947 0.547458 0
M  V30 6226 H 600.274 -3.17198 1.51915 0
M  V30 6227 H 600.148 -3.7699 -0.125784 0
M  V30 6228 H 602.535 -2.89197 -0.587294 0
M  V30 6229 H 602.616 -2.31691 1.0841 0
M  V30 6230 H 602.26 -4.70979 1.90109 0
M  V30 6231 H 602.19 -5.26186 0.208727 0
M  V30 6232 H 604.681 -3.73844 0.552195 0
M  V30 6233 H 604.994 -7.52862 1.7441 0
M  V30 6234 H 603.339 -6.77226 1.56175 0
M  V30 6235 H 606.53 -4.6177 0.767235 0
M  V30 6236 H 606.703 -6.34609 1.31053 0
M  V30 6237 N 600.109 -0.101901 -1.5727 0
M  V30 6238 C 601.057 0.872034 -2.15635 0
M  V30 6239 C 602.051 1.28742 -1.10099 0
M  V30 6240 O 603.257 1.26116 -1.28432 0
M  V30 6241 H 599.632 0.299269 -0.689886 0
M  V30 6242 H 601.603 0.355137 -2.96279 0
M  V30 6243 C 600.352 2.11886 -2.7568 0
M  V30 6244 H 599.675 1.80813 -3.56576 0
M  V30 6245 H 601.115 2.78077 -3.20077 0
M  V30 6246 C 599.574 2.89739 -1.7191 0
M  V30 6247 O 600.104 3.84522 -1.16213 0
M  V30 6248 N 598.31 2.53407 -1.42245 0
M  V30 6249 H 597.857 1.76398 -1.87727 0
M  V30 6250 H 597.815 3.05795 -0.730529 0
M  V30 6251 N 601.587 1.56661 0.17182 0
M  V30 6252 C 603.003 1.50768 0.52357 0
M  V30 6253 C 603.203 0.806072 1.84675 0
M  V30 6254 O 602.259 0.366233 2.4983 0
M  V30 6255 C 603.572 2.955 0.556793 0
M  V30 6256 C 605.12 3.06303 0.644029 0
M  V30 6257 C 605.595 4.52492 0.708148 0
M  V30 6258 N 607.086 4.56737 0.771051 0
M  V30 6259 C 607.821 5.67196 0.841229 0
M  V30 6260 N 607.317 6.87287 0.872272 0
M  V30 6261 N 609.11 5.55165 0.88021 0
M  V30 6262 H 601.261 2.00679 -0.695817 0
M  V30 6263 H 603.524 0.914219 -0.250814 0
M  V30 6264 H 603.23 3.49986 -0.346774 0
M  V30 6265 H 603.104 3.50119 1.40346 0
M  V30 6266 H 605.491 2.51851 1.53802 0
M  V30 6267 H 605.572 2.5477 -0.229297 0
M  V30 6268 H 605.216 5.07575 -0.181585 0
M  V30 6269 H 605.146 5.01781 1.59761 0
M  V30 6270 H 607.637 3.70274 0.755364 0
M  V30 6271 H 607.95 7.6722 0.92698 0
M  V30 6272 H 606.295 6.89898 0.840557 0
M  V30 6273 H 609.486 4.60263 0.852956 0
M  V30 6274 H 609.659 6.41271 0.931439 0
M  V30 6275 N 603.065 -0.440357 1.51323 0
M  V30 6276 C 604.293 -1.21255 1.67645 0
M  V30 6277 C 604.708 -1.85088 0.37252 0
M  V30 6278 O 604.065 -1.70582 -0.648683 0
M  V30 6279 C 604.116 -2.29881 2.78993 0
M  V30 6280 O 603.837 -1.68659 4.04334 0
M  V30 6281 C 605.338 -3.20214 3.06558 0
M  V30 6282 H 602.558 -0.36558 0.562666 0
M  V30 6283 H 605.102 -0.52214 1.97722 0
M  V30 6284 H 603.257 -2.94643 2.51524 0
M  V30 6285 H 603.671 -2.40426 4.6615 0
M  V30 6286 H 605.145 -3.92575 3.88058 0
M  V30 6287 H 605.622 -3.80794 2.18844 0
M  V30 6288 H 606.228 -2.61156 3.35675 0
M  V30 6289 N 604.543 -1.41418 -0.695603 0
M  V30 6290 C 605.491 -1.43467 -1.83084 0
M  V30 6291 C 606.485 -0.312719 -1.66489 0
M  V30 6292 O 607.691 -0.484744 -1.7335 0
M  V30 6293 H 604.066 -0.448891 -0.603325 0
M  V30 6294 H 606.037 -2.39144 -1.78473 0
M  V30 6295 C 604.786 -1.3337 -3.21104 0
M  V30 6296 H 604.109 -2.18989 -3.3449 0
M  V30 6297 H 605.549 -1.38865 -4.00615 0
M  V30 6298 C 604.008 -0.0460484 -3.36869 0
M  V30 6299 O 604.538 0.909258 -3.91274 0
M  V30 6300 N 602.744 0.0300222 -2.90584 0
M  V30 6301 H 602.291 -0.748129 -2.46497 0
M  V30 6302 H 602.249 0.890991 -3.01511 0
M  V30 6303 N 606.021 0.929856 -1.27246 0
M  V30 6304 C 606.951 2.04722 -1.12299 0
M  V30 6305 C 607.932 1.70082 -0.0250464 0
M  V30 6306 O 609.117 1.93176 -0.199141 0
M  V30 6307 C 606.247 3.38721 -0.767145 0
M  V30 6308 C 605.201 3.87466 -1.81808 0
M  V30 6309 C 604.527 5.18246 -1.31626 0
M  V30 6310 C 605.827 4.11095 -3.22177 0
M  V30 6311 H 607.521 2.17485 -2.05769 0
M  V30 6312 H 605.067 1.04503 -0.990715 0
M  V30 6313 H 607.02 4.16366 -0.649413 0
M  V30 6314 H 605.744 3.25967 0.203259 0
M  V30 6315 H 604.403 3.12012 -1.92468 0
M  V30 6316 H 604.051 5.01881 -0.335378 0
M  V30 6317 H 603.751 5.51829 -2.01887 0
M  V30 6318 H 605.275 5.98462 -1.21143 0
M  V30 6319 H 606.689 4.79316 -3.1453 0
M  V30 6320 H 605.086 4.55982 -3.90129 0
M  V30 6321 H 606.156 3.16468 -3.67391 0
M  V30 6322 N 607.499 1.09233 1.13605 0
M  V30 6323 C 608.915 0.82163 1.36826 0
M  V30 6324 C 609.115 -0.565021 1.93416 0
M  V30 6325 O 608.171 -1.32026 2.15234 0
M  V30 6326 C 609.484 1.91124 2.32147 0
M  V30 6327 C 611.032 1.93824 2.45767 0
M  V30 6328 C 611.507 3.01923 3.44393 0
M  V30 6329 N 612.998 3.01149 3.51942 0
M  V30 6330 C 613.733 3.81434 4.2813 0
M  V30 6331 N 613.229 4.71621 5.07489 0
M  V30 6332 N 615.022 3.69702 4.23411 0
M  V30 6333 H 607.173 1.98633 0.752234 0
M  V30 6334 H 609.436 0.862482 0.393482 0
M  V30 6335 H 609.142 2.90862 1.97717 0
M  V30 6336 H 609.016 1.78777 3.32142 0
M  V30 6337 H 611.403 0.94726 2.79483 0
M  V30 6338 H 611.484 2.10248 1.45703 0
M  V30 6339 H 611.128 4.01232 3.11408 0
M  V30 6340 H 611.058 2.82742 4.44257 0
M  V30 6341 H 613.549 2.35789 2.95317 0
M  V30 6342 H 613.862 5.29468 5.62924 0
M  V30 6343 H 612.207 4.75658 5.06729 0
M  V30 6344 H 615.398 2.98606 3.60489 0
M  V30 6345 H 615.571 4.32509 4.82535 0
M  V30 6346 N 608.977 -1.30795 0.87923 0
M  V30 6347 C 610.393 -1.48981 0.57243 0
M  V30 6348 C 610.593 -1.80719 -0.891236 0
M  V30 6349 O 609.649 -1.89136 -1.67283 0
M  V30 6350 C 610.962 -2.61721 1.48063 0
M  V30 6351 C 612.51 -2.75603 1.48365 0
M  V30 6352 C 612.985 -3.91449 2.37763 0
M  V30 6353 N 614.476 -3.98751 2.35695 0
M  V30 6354 C 615.211 -4.87684 3.01583 0
M  V30 6355 N 614.707 -5.81454 3.76674 0
M  V30 6356 N 616.5 -4.81005 2.90844 0
M  V30 6357 H 608.651 -1.08465 1.82617 0
M  V30 6358 H 610.914 -0.536813 0.781368 0
M  V30 6359 H 610.62 -2.45073 2.52254 0
M  V30 6360 H 610.494 -3.58071 1.18596 0
M  V30 6361 H 612.881 -2.9166 0.44927 0
M  V30 6362 H 612.962 -1.79891 1.81859 0
M  V30 6363 H 612.606 -3.76149 3.41283 0
M  V30 6364 H 612.536 -4.86487 2.01589 0
M  V30 6365 H 615.027 -3.31668 1.81121 0
M  V30 6366 H 615.34 -6.46063 4.24054 0
M  V30 6367 H 613.685 -5.81403 3.80782 0
M  V30 6368 H 616.876 -4.06728 2.31711 0
M  V30 6369 H 617.049 -5.50107 3.42471 0
M  V30 6370 N 610.455 -0.639598 -1.44038 0
M  V30 6371 C 611.418 0.0506628 -2.29144 0
M  V30 6372 C 612.418 0.764001 -1.41491 0
M  V30 6373 O 613.608 0.607309 -1.63271 0
M  V30 6374 C 610.74 1.0824 -3.2326 0
M  V30 6375 H 611.933 -0.697987 -2.91664 0
M  V30 6376 H 609.486 -0.400146 -1.51091 0
M  V30 6377 H 610.221 1.86075 -2.65606 0
M  V30 6378 H 610.006 0.574725 -3.87865 0
M  V30 6379 H 611.496 1.56487 -3.87171 0
M  V30 6380 N 611.933 1.52934 -0.380664 0
M  V30 6381 C 612.896 2.24809 0.446473 0
M  V30 6382 C 613.896 1.26133 0.997347 0
M  V30 6383 O 615.086 1.50297 0.880714 0
M  V30 6384 C 612.218 2.99649 1.62553 0
M  V30 6385 H 613.411 2.99343 -0.182677 0
M  V30 6386 H 610.964 1.55736 -0.132618 0
M  V30 6387 H 611.699 2.29395 2.29235 0
M  V30 6388 H 611.484 3.72066 1.23732 0
M  V30 6389 H 612.974 3.54246 2.21133 0
M  V30 6390 N 613.412 0.11024 1.57214 0
M  V30 6391 C 614.344 -0.873497 2.11902 0
M  V30 6392 C 615.357 -1.23588 1.05971 0
M  V30 6393 O 616.546 -1.18636 1.33371 0
M  V30 6394 C 613.646 -2.17805 2.59643 0
M  V30 6395 C 612.819 -1.98869 3.89576 0
M  V30 6396 C 611.878 -3.12974 4.23006 0
M  V30 6397 O 610.904 -2.86272 4.91973 0
M  V30 6398 N 612.106 -4.39167 3.79622 0
M  V30 6399 H 614.871 -0.406317 2.96933 0
M  V30 6400 H 612.432 -0.074437 1.61729 0
M  V30 6401 H 614.424 -2.93117 2.79042 0
M  V30 6402 H 612.994 -2.55899 1.7954 0
M  V30 6403 H 612.214 -1.078 3.79174 0
M  V30 6404 H 613.502 -1.83512 4.74553 0
M  V30 6405 H 612.9 -4.63739 3.2398 0
M  V30 6406 H 611.457 -5.11379 4.04147 0
M  V30 6407 N 614.89 -1.56749 -0.16351 0
M  V30 6408 C 616.137 -1.82434 -0.878866 0
M  V30 6409 C 616.465 -0.688557 -1.81904 0
M  V30 6410 O 615.72 0.323644 -1.93005 0
M  V30 6411 C 616.019 -3.14342 -1.70071 0
M  V30 6412 C 615.685 -4.41647 -0.908775 0
M  V30 6413 C 614.347 -4.76224 -0.690236 0
M  V30 6414 C 616.699 -5.19998 -0.353815 0
M  V30 6415 C 614.027 -5.86624 0.0942374 0
M  V30 6416 C 616.379 -6.3122 0.41761 0
M  V30 6417 C 615.043 -6.64358 0.646879 0
M  V30 6418 H 614.313 -0.667574 -0.3216 0
M  V30 6419 H 616.96 -1.90963 -0.14337 0
M  V30 6420 H 615.265 -3.0119 -2.50583 0
M  V30 6421 H 616.962 -3.31426 -2.25738 0
M  V30 6422 H 613.552 -4.1453 -1.08916 0
M  V30 6423 H 617.736 -4.93673 -0.509975 0
M  V30 6424 H 612.992 -6.10751 0.281529 0
M  V30 6425 H 617.166 -6.91133 0.854849 0
M  V30 6426 H 614.793 -7.49742 1.25662 0
M  V30 6427 N 616.368 0.432326 -1.51554 0
M  V30 6428 C 617.298 1.53242 -1.76179 0
M  V30 6429 C 618.279 1.58717 -0.611801 0
M  V30 6430 O 619.464 1.74364 -0.855033 0
M  V30 6431 C 616.594 2.91278 -1.89141 0
M  V30 6432 C 615.548 3.00663 -3.04608 0
M  V30 6433 C 614.874 4.40728 -3.02759 0
M  V30 6434 C 616.174 2.74281 -4.44485 0
M  V30 6435 H 617.868 1.32886 -2.68294 0
M  V30 6436 H 615.414 0.637841 -1.29103 0
M  V30 6437 H 617.367 3.68203 -2.04951 0
M  V30 6438 H 616.091 3.12877 -0.936785 0
M  V30 6439 H 614.75 2.26179 -2.88511 0
M  V30 6440 H 614.398 4.59301 -2.05065 0
M  V30 6441 H 614.098 4.47936 -3.80299 0
M  V30 6442 H 615.622 5.19619 -3.20669 0
M  V30 6443 H 617.036 3.40936 -4.60907 0
M  V30 6444 H 615.433 2.92893 -5.23769 0
M  V30 6445 H 616.503 1.69856 -4.54177 0
M  V30 6446 N 617.846 1.41785 0.688094 0
M  V30 6447 C 618.756 1.46596 1.83158 0
M  V30 6448 C 619.772 0.355862 1.70322 0
M  V30 6449 O 620.948 0.604737 1.92106 0
M  V30 6450 C 618.013 1.35322 3.192 0
M  V30 6451 C 617.074 2.56711 3.4409 0
M  V30 6452 C 616.307 2.45965 4.73642 0
M  V30 6453 O 616.53 1.48827 5.50642 0
M  V30 6454 O 615.464 3.35859 4.99482 0
M  V30 6455 H 619.29 2.43083 1.82056 0
M  V30 6456 H 616.875 1.23404 0.842126 0
M  V30 6457 H 618.757 1.31347 4.00407 0
M  V30 6458 H 617.432 0.419536 3.2097 0
M  V30 6459 H 616.339 2.66262 2.62784 0
M  V30 6460 H 617.672 3.48933 3.47141 0
M  V30 6461 N 619.324 -0.923095 1.27737 0
M  V30 6462 C 620.256 -2.02871 1.06658 0
M  V30 6463 C 621.269 -1.62786 0.0212095 0
M  V30 6464 O 622.458 -1.76548 0.263267 0
M  V30 6465 C 619.558 -3.33603 0.59682 0
M  V30 6466 C 618.731 -4.02354 1.71551 0
M  V30 6467 C 617.79 -5.11364 1.24071 0
M  V30 6468 O 616.816 -5.35075 1.94123 0
M  V30 6469 N 618.018 -5.80416 0.0988444 0
M  V30 6470 H 620.783 -2.21515 2.01869 0
M  V30 6471 H 618.344 -1.09378 1.19365 0
M  V30 6472 H 620.336 -4.03845 0.262984 0
M  V30 6473 H 618.906 -3.11499 -0.262187 0
M  V30 6474 H 618.126 -3.25786 2.2194 0
M  V30 6475 H 619.414 -4.45035 2.46619 0
M  V30 6476 H 618.812 -5.63611 -0.485743 0
M  V30 6477 H 617.369 -6.51563 -0.17578 0
M  V30 6478 N 620.802 -1.09834 -1.13024 0
M  V30 6479 C 621.765 -0.745058 -2.16752 0
M  V30 6480 C 622.765 0.227435 -1.59183 0
M  V30 6481 O 623.955 0.0050786 -1.74199 0
M  V30 6482 C 621.087 -0.102543 -3.40746 0
M  V30 6483 H 622.28 -1.66375 -2.49518 0
M  V30 6484 H 619.833 -0.898061 -1.27924 0
M  V30 6485 H 620.568 0.827177 -3.13573 0
M  V30 6486 H 620.353 -0.80235 -3.83803 0
M  V30 6487 H 621.843 0.129082 -4.174 0
M  V30 6488 N 622.28 1.30327 -0.886154 0
M  V30 6489 C 623.528 1.9571 -0.504195 0
M  V30 6490 C 623.849 1.70294 0.950003 0
M  V30 6491 O 623.119 1.02718 1.66811 0
M  V30 6492 H 621.699 0.72412 -0.183465 0
M  V30 6493 H 624.361 1.58835 -1.12949 0
M  V30 6494 H 623.457 3.04704 -0.675431 0
M  V30 6495 N 623.758 0.647228 1.43697 0
M  V30 6496 C 625.005 0.158188 2.01881 0
M  V30 6497 C 625.333 -1.22573 1.51017 0
M  V30 6498 O 624.588 -1.83086 0.69122 0
M  V30 6499 C 624.887 0.111481 3.57226 0
M  V30 6500 C 624.553 1.43633 4.27411 0
M  V30 6501 C 623.215 1.79915 4.463 0
M  V30 6502 C 625.567 2.31011 4.67208 0
M  V30 6503 C 622.895 3.03251 5.02251 0
M  V30 6504 C 625.247 3.53633 5.24525 0
M  V30 6505 C 623.911 3.90118 5.41631 0
M  V30 6506 H 623.181 0.0578851 0.738736 0
M  V30 6507 H 625.828 0.836746 1.72252 0
M  V30 6508 H 624.133 -0.650507 3.86362 0
M  V30 6509 H 625.83 -0.283682 3.99995 0
M  V30 6510 H 622.42 1.14403 4.1305 0
M  V30 6511 H 626.604 2.04272 4.52313 0
M  V30 6512 H 621.86 3.31575 5.13681 0
M  V30 6513 H 626.034 4.21561 5.5431 0
M  V30 6514 H 623.661 4.85768 5.84751 0
M  V30 6515 N 625.236 -1.5273 0.388769 0
M  V30 6516 C 626.652 -1.59553 0.0387049 0
M  V30 6517 C 626.852 -1.40278 -1.44652 0
M  V30 6518 O 625.908 -1.21951 -2.21098 0
M  V30 6519 C 627.221 -2.9625 0.515409 0
M  V30 6520 C 628.769 -3.09426 0.471621 0
M  V30 6521 C 629.244 -4.48572 0.924505 0
M  V30 6522 N 630.735 -4.54754 0.880496 0
M  V30 6523 C 631.47 -5.60653 1.20234 0
M  V30 6524 N 630.966 -6.74198 1.59463 0
M  V30 6525 N 632.759 -5.50755 1.12363 0
M  V30 6526 H 624.91 -1.63508 1.35569 0
M  V30 6527 H 627.173 -0.768097 0.555636 0
M  V30 6528 H 626.879 -3.15569 1.5527 0
M  V30 6529 H 626.753 -3.77102 -0.085792 0
M  V30 6530 H 629.14 -2.89804 -0.556588 0
M  V30 6531 H 629.221 -2.30528 1.10862 0
M  V30 6532 H 628.865 -4.68936 1.95094 0
M  V30 6533 H 628.795 -5.25935 0.264524 0
M  V30 6534 H 631.286 -3.73237 0.591815 0
M  V30 6535 H 631.599 -7.5097 1.82385 0
M  V30 6536 H 629.944 -6.75531 1.63349 0
M  V30 6537 H 633.135 -4.6093 0.816169 0
M  V30 6538 H 633.308 -6.33184 1.37777 0
M  V30 6539 N 626.714 -0.118576 -1.57153 0
M  V30 6540 C 627.963 0.539339 -1.94355 0
M  V30 6541 C 628.276 1.67858 -1.00415 0
M  V30 6542 O 629.482 2.39922 -1.27081 0
M  V30 6543 C 627.938 1.01082 -3.45414 0
M  V30 6544 C 627.546 -0.0999402 -4.47889 0
M  V30 6545 C 629.29 1.64013 -3.91535 0
M  V30 6546 C 627.197 0.388212 -5.90124 0
M  V30 6547 H 626.127 0.205247 -0.725527 0
M  V30 6548 H 628.778 -0.19836 -1.82425 0
M  V30 6549 H 627.16 1.80292 -3.52577 0
M  V30 6550 H 628.334 -0.876189 -4.52393 0
M  V30 6551 H 626.649 -0.635885 -4.11516 0
M  V30 6552 H 629.246 2.01649 -4.95219 0
M  V30 6553 H 629.589 2.51836 -3.31488 0
M  V30 6554 H 630.122 0.913439 -3.87171 0
M  V30 6555 H 626.861 -0.453963 -6.53926 0
M  V30 6556 H 626.381 1.13095 -5.89041 0
M  V30 6557 H 628.06 0.849574 -6.41398 0
M  V30 6558 N 628.193 1.56834 0.155195 0
M  V30 6559 C 629.103 2.009 1.21146 0
M  V30 6560 C 630.119 0.923029 1.475 0
M  V30 6561 O 631.295 1.23189 1.59331 0
M  V30 6562 C 628.36 2.37378 2.52691 0
M  V30 6563 C 627.421 3.59883 2.34057 0
M  V30 6564 C 626.654 3.94612 3.59329 0
M  V30 6565 O 626.877 3.30104 4.65175 0
M  V30 6566 O 625.811 4.87895 3.52479 0
M  V30 6567 H 629.637 2.9105 0.867371 0
M  V30 6568 H 627.222 1.44916 0.363298 0
M  V30 6569 H 629.104 2.61737 3.3026 0
M  V30 6570 H 627.779 1.50385 2.86646 0
M  V30 6571 H 626.686 3.40722 1.54465 0
M  V30 6572 H 628.019 4.47468 2.0502 0
M  V30 6573 N 629.671 -0.424282 1.51781 0
M  V30 6574 C 630.603 -1.53457 1.70246 0
M  V30 6575 C 631.616 -1.52004 0.582967 0
M  V30 6576 O 632.805 -1.56544 0.857683 0
M  V30 6577 C 629.905 -2.92368 1.71389 0
M  V30 6578 C 629.078 -3.1818 3.00133 0
M  V30 6579 C 628.137 -4.36884 2.9329 0
M  V30 6580 O 627.163 -4.34901 3.67219 0
M  V30 6581 N 628.365 -5.4117 2.10036 0
M  V30 6582 H 631.13 -1.38017 2.66029 0
M  V30 6583 H 628.691 -0.613394 1.4983 0
M  V30 6584 H 630.683 -3.6982 1.64362 0
M  V30 6585 H 629.253 -3.0134 0.831449 0
M  V30 6586 H 628.473 -2.28908 3.20928 0
M  V30 6587 H 629.761 -3.32261 3.85331 0
M  V30 6588 H 629.159 -5.45623 1.49373 0
M  V30 6589 H 627.716 -6.17425 2.08878 0
M  V30 6590 N 631.149 -1.42148 -0.680565 0
M  V30 6591 C 632.397 -1.42029 -1.43779 0
M  V30 6592 C 632.718 -0.0356347 -1.94967 0
M  V30 6593 O 631.988 0.924936 -1.7269 0
M  V30 6594 H 630.568 -0.522835 -0.533529 0
M  V30 6595 H 633.23 -1.7752 -0.804538 0
M  V30 6596 H 632.326 -2.11658 -2.29363 0
M  V30 6597 N 632.627 0.916307 -1.28225 0
M  V30 6598 C 633.559 2.02303 -1.07732 0
M  V30 6599 C 634.572 1.62773 -0.0298421 0
M  V30 6600 O 635.761 1.76406 -0.272626 0
M  V30 6601 C 632.861 3.33282 -0.614504 0
M  V30 6602 C 632.034 4.01439 -1.73682 0
M  V30 6603 C 631.093 5.10698 -1.26781 0
M  V30 6604 O 630.119 5.34038 -1.96958 0
M  V30 6605 N 631.321 5.80355 -0.129624 0
M  V30 6606 H 634.086 2.20442 -2.03041 0
M  V30 6607 H 631.647 1.08744 -1.19943 0
M  V30 6608 H 633.639 4.03699 -0.284397 0
M  V30 6609 H 632.209 3.11633 0.245664 0
M  V30 6610 H 631.429 3.24604 -2.23665 0
M  V30 6611 H 632.717 4.43721 -2.48976 0
M  V30 6612 H 632.115 5.6386 0.455847 0
M  V30 6613 H 630.672 6.51647 0.141224 0
M  V30 6614 N 634.105 1.10431 1.1244 0
M  V30 6615 C 635.035 0.775143 2.20258 0
M  V30 6616 C 636.016 -0.25186 1.68225 0
M  V30 6617 O 637.201 -0.117637 1.93843 0
M  V30 6618 C 634.331 0.206133 3.46688 0
M  V30 6619 C 633.285 1.16382 4.11873 0
M  V30 6620 C 632.611 0.456014 5.32752 0
M  V30 6621 C 633.911 2.5104 4.58013 0
M  V30 6622 H 635.605 1.67665 2.4805 0
M  V30 6623 H 633.151 0.807595 1.19222 0
M  V30 6624 H 635.104 -0.036291 4.21384 0
M  V30 6625 H 633.828 -0.730614 3.18323 0
M  V30 6626 H 632.487 1.39169 3.39157 0
M  V30 6627 H 632.135 -0.485203 5.00654 0
M  V30 6628 H 631.835 1.09466 5.77314 0
M  V30 6629 H 633.359 0.222135 6.10196 0
M  V30 6630 H 634.773 2.32401 5.24083 0
M  V30 6631 H 633.17 3.10789 5.13352 0
M  V30 6632 H 634.24 3.11039 3.71998 0
M  V30 6633 N 635.583 -1.29855 0.893053 0
M  V30 6634 C 636.513 -2.3035 0.382249 0
M  V30 6635 C 637.494 -1.61328 -0.539203 0
M  V30 6636 O 638.679 -1.88882 -0.451342 0
M  V30 6637 C 635.809 -3.45024 -0.396983 0
M  V30 6638 C 634.763 -4.258 0.433437 0
M  V30 6639 C 634.089 -5.32605 -0.472889 0
M  V30 6640 C 635.389 -4.94549 1.67984 0
M  V30 6641 H 637.083 -2.73325 1.22205 0
M  V30 6642 H 634.629 -1.314 0.589073 0
M  V30 6643 H 636.582 -4.14398 -0.765024 0
M  V30 6644 H 635.306 -3.00875 -1.2705 0
M  V30 6645 H 633.965 -3.58125 0.783723 0
M  V30 6646 H 633.613 -4.84702 -1.34435 0
M  V30 6647 H 633.313 -5.87547 0.0789958 0
M  V30 6648 H 634.837 -6.04832 -0.837269 0
M  V30 6649 H 636.251 -5.56395 1.38192 0
M  V30 6650 H 634.648 -5.59393 2.17254 0
M  V30 6651 H 635.718 -4.20215 2.41965 0
M  V30 6652 N 637.061 -0.65484 -1.43351 0
M  V30 6653 C 638.309 -0.168559 -2.01396 0
M  V30 6654 C 638.63 1.22235 -1.51933 0
M  V30 6655 O 637.9 1.81685 -0.732627 0
M  V30 6656 H 636.48 -0.0593244 -0.744641 0
M  V30 6657 H 639.142 -0.846871 -1.75539 0
M  V30 6658 H 638.238 -0.154428 -3.11718 0
M  V30 6659 N 638.539 1.52521 -0.396863 0
M  V30 6660 C 639.95 1.86547 0.0754868 0
M  V30 6661 C 640.301 1.31621 1.45501 0
M  V30 6662 O 639.426 0.650563 2.0639 0
M  V30 6663 C 640.021 3.38495 0.143754 0
M  V30 6664 C 638.58 3.72205 0.560413 0
M  V30 6665 C 637.727 2.75954 -0.272856 0
M  V30 6666 H 640.678 1.46323 -0.614434 0
M  V30 6667 H 640.699 3.68153 0.961425 0
M  V30 6668 H 640.211 3.78442 -0.860415 0
M  V30 6669 H 638.312 3.3783 1.57167 0
M  V30 6670 H 638.425 4.78074 0.313314 0
M  V30 6671 H 636.789 2.53339 0.263 0
M  V30 6672 H 637.572 3.1874 -1.27515 0
M  V30 6673 N 640.017 0.126909 1.57088 0
M  V30 6674 C 641.294 -0.573152 1.87014 0
M  V30 6675 C 641.674 -1.84297 1.02945 0
M  V30 6676 O 641.022 -2.28232 0.110573 0
M  V30 6677 C 641.232 -0.857984 3.38289 0
M  V30 6678 C 642.58 -1.20759 4.07066 0
M  V30 6679 O 643.604 -0.947992 3.43353 0
M  V30 6680 O 642.463 -1.69516 5.19545 0
M  V30 6681 H 639.557 -0.290082 0.774456 0
M  V30 6682 H 642.103 0.162008 1.68925 0
M  V30 6683 H 640.875 0.0415286 3.91278 0
M  V30 6684 H 640.498 -1.64803 3.61837 0
M  V30 6685 N 641.495 -1.56914 -0.146875 0
M  V30 6686 C 642.743 -1.82994 -0.85777 0
M  V30 6687 C 643.064 -0.707814 -1.817 0
M  V30 6688 O 642.334 0.270521 -1.94023 0
M  V30 6689 H 640.914 -0.675106 -0.319751 0
M  V30 6690 H 643.576 -1.9439 -0.140849 0
M  V30 6691 H 642.672 -2.77928 -1.41994 0
M  V30 6692 N 642.974 0.416227 -1.52004 0
M  V30 6693 C 643.937 1.48926 -1.74223 0
M  V30 6694 C 644.937 1.48693 -0.612119 0
M  V30 6695 O 646.127 1.50343 -0.879921 0
M  V30 6696 C 643.259 2.88372 -1.81809 0
M  V30 6697 H 644.452 1.3052 -2.70008 0
M  V30 6698 H 642.005 0.646271 -1.42313 0
M  V30 6699 H 642.74 3.12157 -0.879135 0
M  V30 6700 H 642.525 2.89944 -2.6396 0
M  V30 6701 H 644.015 3.66173 -2.00766 0
M  V30 6702 N 644.452 1.42507 0.673017 0
M  V30 6703 C 645.863 1.38347 1.25367 0
M  V30 6704 C 646.214 0.0776327 1.96046 0
M  V30 6705 O 645.339 -0.823571 2.00116 0
M  V30 6706 C 645.934 2.506 2.28002 0
M  V30 6707 C 644.493 2.49767 2.81591 0
M  V30 6708 C 643.64 2.293 1.55938 0
M  V30 6709 H 646.591 1.51695 0.466288 0
M  V30 6710 H 646.612 2.20953 3.09774 0
M  V30 6711 H 646.124 3.45627 1.76532 0
M  V30 6712 H 644.225 1.58563 3.37177 0
M  V30 6713 H 644.338 3.46867 3.30485 0
M  V30 6714 H 642.702 1.77594 1.82572 0
M  V30 6715 H 643.485 3.26385 1.06431 0
M  V30 6716 N 645.93 -0.909495 1.28709 0
M  V30 6717 C 646.86 -2.0291 1.15542 0
M  V30 6718 C 647.841 -1.7002 0.0521017 0
M  V30 6719 O 649.026 -1.92835 0.229849 0
M  V30 6720 C 646.156 -3.37458 0.820935 0
M  V30 6721 C 645.11 -3.84524 1.87949 0
M  V30 6722 C 644.436 -5.16086 1.39854 0
M  V30 6723 C 645.736 -4.05918 3.28676 0
M  V30 6724 H 647.43 -2.14183 2.09203 0
M  V30 6725 H 644.976 -1.02913 1.00722 0
M  V30 6726 H 646.929 -4.1528 0.715571 0
M  V30 6727 H 645.653 -3.26249 -0.151374 0
M  V30 6728 H 644.312 -3.08911 1.97408 0
M  V30 6729 H 643.96 -5.01284 0.41518 0
M  V30 6730 H 643.66 -5.48547 2.1064 0
M  V30 6731 H 645.184 -5.96459 1.30649 0
M  V30 6732 H 646.598 -4.74252 3.22115 0
M  V30 6733 H 644.995 -4.49717 3.97334 0
M  V30 6734 H 646.065 -3.10583 3.72379 0
M  V30 6735 N 647.408 -1.11026 -1.11852 0
M  V30 6736 C 648.371 -0.768006 -2.1595 0
M  V30 6737 C 649.371 0.210538 -1.59416 0
M  V30 6738 O 650.561 -0.0133978 -1.74195 0
M  V30 6739 C 647.693 -0.138678 -3.40618 0
M  V30 6740 H 648.886 -1.69012 -2.4774 0
M  V30 6741 H 646.439 -0.911578 -1.26964 0
M  V30 6742 H 647.174 0.793872 -3.14433 0
M  V30 6743 H 646.959 -0.843012 -3.8293 0
M  V30 6744 H 648.449 0.0848039 -4.17514 0
M  V30 6745 N 648.886 1.2938 -0.899927 0
M  V30 6746 C 649.816 2.30144 -0.39446 0
M  V30 6747 C 650.797 1.61611 0.530639 0
M  V30 6748 O 651.982 1.89119 0.441319 0
M  V30 6749 C 649.112 3.45229 0.37868 0
M  V30 6750 C 648.066 4.25564 -0.456012 0
M  V30 6751 C 647.392 5.32848 0.444637 0
M  V30 6752 C 648.692 4.93651 -1.70605 0
M  V30 6753 H 650.386 2.72673 -1.23653 0
M  V30 6754 H 647.932 1.31086 -0.596034 0
M  V30 6755 H 649.885 4.14797 0.743037 0
M  V30 6756 H 648.609 3.01545 1.25453 0
M  V30 6757 H 647.268 3.57704 -0.802704 0
M  V30 6758 H 646.916 4.85408 1.31863 0
M  V30 6759 H 646.616 5.87497 -0.110154 0
M  V30 6760 H 648.14 6.05268 0.805182 0
M  V30 6761 H 649.554 5.55655 -1.41141 0
M  V30 6762 H 647.951 5.58233 -2.20217 0
M  V30 6763 H 649.021 4.18926 -2.4419 0
M  V30 6764 N 650.364 0.662433 1.43002 0
M  V30 6765 C 651.78 0.330835 1.56133 0
M  V30 6766 C 651.98 -1.16454 1.64441 0
M  V30 6767 O 651.036 -1.94964 1.60453 0
M  V30 6768 C 652.349 1.05029 2.81761 0
M  V30 6769 C 653.897 1.03142 2.95518 0
M  V30 6770 C 654.372 1.73196 4.2399 0
M  V30 6771 N 655.863 1.70004 4.30875 0
M  V30 6772 C 656.598 2.21074 5.29069 0
M  V30 6773 N 656.094 2.80473 6.33488 0
M  V30 6774 N 657.887 2.1152 5.20784 0
M  V30 6775 H 650.038 1.63272 1.35853 0
M  V30 6776 H 652.301 0.687149 0.653092 0
M  V30 6777 H 652.007 2.10542 2.81718 0
M  V30 6778 H 651.881 0.607664 3.72273 0
M  V30 6779 H 654.268 -0.0153339 2.95096 0
M  V30 6780 H 654.349 1.51282 2.0627 0
M  V30 6781 H 653.993 2.77833 4.25172 0
M  V30 6782 H 653.923 1.22515 5.1215 0
M  V30 6783 H 656.414 1.26667 3.56039 0
M  V30 6784 H 656.727 3.17094 7.04749 0
M  V30 6785 H 655.072 2.84538 6.34085 0
M  V30 6786 H 658.263 1.64814 4.38126 0
M  V30 6787 H 658.436 2.51629 5.97149 0
M  V30 6788 N 651.842 -1.52309 0.404946 0
M  V30 6789 C 653.089 -2.01767 -0.1722 0
M  V30 6790 C 653.417 -1.29075 -1.45498 0
M  V30 6791 O 652.672 -0.3843 -1.9189 0
M  V30 6792 C 652.971 -3.54284 -0.470895 0
M  V30 6793 C 652.637 -4.45079 0.722194 0
M  V30 6794 C 651.299 -4.69617 1.04946 0
M  V30 6795 C 653.651 -4.98555 1.51962 0
M  V30 6796 C 650.979 -5.44878 2.17543 0
M  V30 6797 C 653.331 -5.75049 2.63632 0
M  V30 6798 C 651.995 -5.9786 2.9685 0
M  V30 6799 H 651.265 -0.738316 -0.0630125 0
M  V30 6800 H 653.912 -1.83566 0.545506 0
M  V30 6801 H 652.217 -3.70642 -1.27012 0
M  V30 6802 H 653.914 -3.90058 -0.930346 0
M  V30 6803 H 650.504 -4.26155 0.457131 0
M  V30 6804 H 654.688 -4.79509 1.28002 0
M  V30 6805 H 649.944 -5.60762 2.43631 0
M  V30 6806 H 654.118 -6.15483 3.25813 0
M  V30 6807 H 651.745 -6.5596 3.84215 0
M  V30 6808 N 653.32 -0.135238 -1.57019 0
M  V30 6809 C 654.25 0.805235 -2.19176 0
M  V30 6810 C 655.231 1.2656 -1.13651 0
M  V30 6811 O 656.416 1.32528 -1.4195 0
M  V30 6812 C 653.546 2.04914 -2.80406 0
M  V30 6813 C 652.5 1.72598 -3.91655 0
M  V30 6814 C 651.826 3.04154 -4.39766 0
M  V30 6815 C 653.126 0.981709 -5.12991 0
M  V30 6816 H 654.82 0.287232 -2.98019 0
M  V30 6817 H 652.366 0.136714 -1.4335 0
M  V30 6818 H 654.319 2.71178 -3.22553 0
M  V30 6819 H 653.043 2.59067 -1.98877 0
M  V30 6820 H 651.702 1.08717 -3.50109 0
M  V30 6821 H 651.35 3.56274 -3.55075 0
M  V30 6822 H 651.05 2.83299 -5.14796 0
M  V30 6823 H 652.574 3.71509 -4.84576 0
M  V30 6824 H 653.988 1.5462 -5.52056 0
M  V30 6825 H 652.385 0.873533 -5.93708 0
M  V30 6826 H 653.455 -0.0286887 -4.84892 0
M  V30 6827 N 654.798 1.5699 0.138552 0
M  V30 6828 C 655.728 2.01933 1.17241 0
M  V30 6829 C 656.709 0.90033 1.44319 0
M  V30 6830 O 657.894 1.16872 1.55095 0
M  V30 6831 C 655.024 2.40711 2.50351 0
M  V30 6832 C 653.978 3.55874 2.37776 0
M  V30 6833 C 653.304 3.80491 3.75674 0
M  V30 6834 C 654.604 4.8826 1.85472 0
M  V30 6835 H 656.298 2.88551 0.798672 0
M  V30 6836 H 653.844 1.3882 0.382743 0
M  V30 6837 H 655.797 2.70754 3.22909 0
M  V30 6838 H 654.521 1.5104 2.89576 0
M  V30 6839 H 653.18 3.2601 1.67669 0
M  V30 6840 H 652.828 2.88057 4.12349 0
M  V30 6841 H 652.528 4.57998 3.68119 0
M  V30 6842 H 654.052 4.12967 4.49767 0
M  V30 6843 H 655.466 5.16965 2.4783 0
M  V30 6844 H 653.863 5.69631 1.88787 0
M  V30 6845 H 654.933 4.78071 0.810935 0
M  V30 6846 N 656.276 -0.40816 1.52223 0
M  V30 6847 C 657.692 -0.74685 1.41047 0
M  V30 6848 C 657.892 -1.94788 0.51573 0
M  V30 6849 O 656.948 -2.52494 -0.0181156 0
M  V30 6850 C 658.261 -0.999878 2.83589 0
M  V30 6851 C 659.809 -1.10253 2.92939 0
M  V30 6852 C 660.284 -1.38832 4.36451 0
M  V30 6853 N 661.775 -1.45694 4.3969 0
M  V30 6854 C 662.51 -1.69435 5.47795 0
M  V30 6855 N 662.006 -1.90774 6.66016 0
M  V30 6856 N 663.799 -1.71458 5.35312 0
M  V30 6857 H 655.95 0.382409 2.08929 0
M  V30 6858 H 658.213 0.108807 0.941735 0
M  V30 6859 H 657.919 -0.189723 3.51188 0
M  V30 6860 H 657.793 -1.91978 3.24691 0
M  V30 6861 H 660.18 -1.90328 2.2552 0
M  V30 6862 H 660.261 -0.160973 2.55293 0
M  V30 6863 H 659.905 -0.592741 5.04429 0
M  V30 6864 H 659.835 -2.34241 4.71634 0
M  V30 6865 H 662.326 -1.3099 3.54472 0
M  V30 6866 H 662.639 -2.08342 7.44186 0
M  V30 6867 H 660.984 -1.88037 6.69079 0
M  V30 6868 H 664.175 -1.54326 4.41929 0
M  V30 6869 H 664.348 -1.89621 6.19635 0
M  V30 6870 N 657.755 -1.42862 -0.66545 0
M  V30 6871 C 658.687 -1.43026 -1.79098 0
M  V30 6872 C 659.7 -0.32803 -1.59461 0
M  V30 6873 O 660.889 -0.591709 -1.68407 0
M  V30 6874 C 657.989 -1.21566 -3.16346 0
M  V30 6875 C 657.162 -2.44399 -3.62751 0
M  V30 6876 C 656.221 -2.18344 -4.78761 0
M  V30 6877 O 655.247 -2.91611 -4.88827 0
M  V30 6878 N 656.449 -1.1924 -5.68122 0
M  V30 6879 H 659.214 -2.40045 -1.79439 0
M  V30 6880 H 656.775 -1.37861 -0.848872 0
M  V30 6881 H 658.767 -1.02037 -3.91625 0
M  V30 6882 H 657.337 -0.330368 -3.10849 0
M  V30 6883 H 656.557 -2.79433 -2.78048 0
M  V30 6884 H 657.845 -3.26173 -3.90498 0
M  V30 6885 H 657.243 -0.586603 -5.6265 0
M  V30 6886 H 655.8 -1.05698 -6.43173 0
M  V30 6887 N 659.233 0.902656 -1.29189 0
M  V30 6888 C 660.481 1.6496 -1.16758 0
M  V30 6889 C 660.802 1.92952 0.28188 0
M  V30 6890 O 660.072 1.55351 1.19344 0
M  V30 6891 H 658.652 0.611447 -0.429118 0
M  V30 6892 H 661.314 1.0825 -1.62074 0
M  V30 6893 H 660.41 2.60728 -1.71544 0
M  V30 6894 N 660.711 1.11618 1.11262 0
M  V30 6895 C 661.988 0.777876 1.79467 0
M  V30 6896 C 662.368 -0.733774 1.97937 0
M  V30 6897 O 661.716 -1.66443 1.56554 0
M  V30 6898 C 661.926 1.5431 3.13032 0
M  V30 6899 C 663.274 1.72357 3.88044 0
M  V30 6900 O 664.298 1.5075 3.22727 0
M  V30 6901 O 663.157 2.08276 5.05256 0
M  V30 6902 H 660.251 0.282018 0.777428 0
M  V30 6903 H 662.797 1.21971 1.17988 0
M  V30 6904 H 661.569 2.57132 2.94956 0
M  V30 6905 H 661.192 1.09495 3.82226 0
M  V30 6906 N 662.189 -1.289 0.906776 0
M  V30 6907 C 663.414 -1.99939 0.551303 0
M  V30 6908 C 663.839 -1.67366 -0.858496 0
M  V30 6909 O 663.197 -0.902176 -1.57259 0
M  V30 6910 C 663.245 -3.52523 0.758937 0
M  V30 6911 O 662.349 -4.11983 -0.185308 0
M  V30 6912 H 661.69 -0.628376 0.214568 0
M  V30 6913 H 664.22 -1.64225 1.2203 0
M  V30 6914 H 664.23 -4.02522 0.666329 0
M  V30 6915 H 662.905 -3.75566 1.78671 0
M  V30 6916 H 661.482 -3.72873 -0.0445577 0
M  V30 6917 N 663.667 -0.670007 -1.42649 0
M  V30 6918 C 664.944 -0.119451 -1.95235 0
M  V30 6919 C 665.324 1.36461 -1.61064 0
M  V30 6920 O 664.672 2.09843 -0.904329 0
M  V30 6921 C 664.882 -0.383498 -3.46887 0
M  V30 6922 C 666.23 -0.297431 -4.23557 0
M  V30 6923 O 667.254 -0.31698 -3.54787 0
M  V30 6924 O 666.113 -0.235507 -5.45992 0
M  V30 6925 H 663.207 -8.85474e-05 -0.827 0
M  V30 6926 H 665.753 -0.744406 -1.52501 0
M  V30 6927 H 664.525 -1.41174 -3.64946 0
M  V30 6928 H 664.148 0.273702 -3.96657 0
M  V30 6929 N 665.145 1.52092 -0.413018 0
M  V30 6930 C 666.078 2.23613 0.455234 0
M  V30 6931 C 667.056 1.2459 1.04481 0
M  V30 6932 O 668.24 1.53653 1.09193 0
M  V30 6933 C 665.367 2.96775 1.63224 0
M  V30 6934 C 664.413 4.10261 1.16568 0
M  V30 6935 S 665.246 5.35348 0.127633 0
M  V30 6936 C 666.402 6.1204 1.30987 0
M  V30 6937 H 666.635 2.96911 -0.152042 0
M  V30 6938 H 664.168 1.53134 -0.197343 0
M  V30 6939 H 666.126 3.39532 2.30713 0
M  V30 6940 H 664.787 2.23113 2.21087 0
M  V30 6941 H 663.98 4.6064 2.04515 0
M  V30 6942 H 663.582 3.6964 0.569386 0
M  V30 6943 H 665.874 6.39651 2.23276 0
M  V30 6944 H 666.817 7.03022 0.846533 0
M  V30 6945 H 667.225 5.43161 1.53743 0
M  V30 6946 N 666.623 0.143563 1.56945 0
M  V30 6947 C 667.555 -0.828353 2.13708 0
M  V30 6948 C 668.568 -1.21313 1.08568 0
M  V30 6949 O 669.757 -1.1578 1.35857 0
M  V30 6950 C 666.857 -2.12248 2.64204 0
M  V30 6951 C 666.03 -1.90561 3.93707 0
M  V30 6952 C 665.089 -3.03931 4.29549 0
M  V30 6953 O 664.115 -2.75772 4.97934 0
M  V30 6954 N 665.317 -4.31016 3.88852 0
M  V30 6955 H 668.082 -0.343242 2.97728 0
M  V30 6956 H 665.643 -0.0401152 1.6185 0
M  V30 6957 H 667.635 -2.87132 2.85197 0
M  V30 6958 H 666.205 -2.52033 1.84928 0
M  V30 6959 H 665.425 -0.997327 3.81375 0
M  V30 6960 H 666.713 -1.73405 4.78339 0
M  V30 6961 H 666.111 -4.56762 3.33743 0
M  V30 6962 H 664.668 -5.02691 4.14903 0
M  V30 6963 N 668.101 -1.57061 -0.130224 0
M  V30 6964 C 669.329 -1.88432 -0.854456 0
M  V30 6965 C 669.744 -0.733608 -1.73964 0
M  V30 6966 O 669.101 0.296029 -1.80083 0
M  V30 6967 C 669.152 -3.1918 -1.69724 0
M  V30 6968 O 668.873 -4.2982 -0.847705 0
M  V30 6969 C 670.374 -3.6418 -2.5276 0
M  V30 6970 H 667.594 -0.624193 -0.246221 0
M  V30 6971 H 670.138 -2.04159 -0.11798 0
M  V30 6972 H 668.293 -3.05156 -2.3866 0
M  V30 6973 H 668.707 -5.04689 -1.42792 0
M  V30 6974 H 670.181 -4.58457 -3.07443 0
M  V30 6975 H 670.658 -2.90285 -3.29592 0
M  V30 6976 H 671.264 -3.80954 -1.89087 0
M  V30 6977 N 669.579 0.400081 -1.52437 0
M  V30 6978 C 670.825 1.14788 -1.67187 0
M  V30 6979 C 671.158 1.89928 -0.405074 0
M  V30 6980 O 670.433 1.85118 0.596804 0
M  V30 6981 C 670.716 2.13507 -2.89977 0
M  V30 6982 C 670.569 1.42204 -4.2673 0
M  V30 6983 C 671.888 3.14069 -3.083 0
M  V30 6984 H 669.007 0.415939 -0.608411 0
M  V30 6985 H 671.649 0.432542 -1.85011 0
M  V30 6986 H 669.799 2.7451 -2.74912 0
M  V30 6987 H 671.471 0.842503 -4.53541 0
M  V30 6988 H 669.714 0.723939 -4.27717 0
M  V30 6989 H 670.385 2.14281 -5.08712 0
M  V30 6990 H 672.861 2.63148 -3.22323 0
M  V30 6991 H 671.737 3.80398 -3.95713 0
M  V30 6992 H 671.998 3.82309 -2.22018 0
M  V30 6993 N 671.057 1.43213 0.657864 0
M  V30 6994 C 671.987 1.50815 1.78262 0
M  V30 6995 C 672.968 0.363211 1.66177 0
M  V30 6996 O 674.153 0.579806 1.85343 0
M  V30 6997 C 671.283 1.42625 3.16663 0
M  V30 6998 C 670.237 2.5532 3.43505 0
M  V30 6999 C 669.563 2.32184 4.81658 0
M  V30 7000 C 670.863 3.97583 3.38711 0
M  V30 7001 H 672.557 2.44954 1.72157 0
M  V30 7002 H 670.103 1.17896 0.82683 0
M  V30 7003 H 672.056 1.46548 3.95097 0
M  V30 7004 H 670.78 0.449877 3.23487 0
M  V30 7005 H 669.439 2.50742 2.6744 0
M  V30 7006 H 669.087 1.32801 4.85153 0
M  V30 7007 H 668.787 3.07724 5.00579 0
M  V30 7008 H 670.311 2.37883 5.62356 0
M  V30 7009 H 671.725 4.03673 4.07089 0
M  V30 7010 H 670.122 4.73112 3.69168 0
M  V30 7011 H 671.192 4.23049 2.36976 0
M  V30 7012 N 672.536 -0.895792 1.29666 0
M  V30 7013 C 673.446 -2.03329 1.17024 0
M  V30 7014 C 674.462 -1.73753 0.0925962 0
M  V30 7015 O 675.638 -1.99071 0.305431 0
M  V30 7016 C 672.703 -3.36072 0.851841 0
M  V30 7017 C 671.764 -3.7914 2.01373 0
M  V30 7018 C 670.997 -5.05549 1.71043 0
M  V30 7019 O 671.22 -5.66874 0.633213 0
M  V30 7020 O 670.154 -5.44764 2.5596 0
M  V30 7021 H 673.98 -2.16918 2.12556 0
M  V30 7022 H 671.565 -1.02007 1.09156 0
M  V30 7023 H 673.447 -4.15729 0.689006 0
M  V30 7024 H 672.122 -3.23616 -0.0736634 0
M  V30 7025 H 671.029 -3.00233 2.23183 0
M  V30 7026 H 672.362 -3.96186 2.92058 0
M  V30 7027 N 674.014 -1.12206 -1.10668 0
M  V30 7028 C 675.263 -0.870595 -1.81944 0
M  V30 7029 C 675.576 0.605447 -1.85994 0
M  V30 7030 O 676.782 0.973433 -2.53449 0
M  V30 7031 C 675.238 -1.50783 -3.26791 0
M  V30 7032 C 674.846 -3.01849 -3.31046 0
M  V30 7033 C 676.59 -1.33653 -4.02911 0
M  V30 7034 C 674.497 -3.58518 -4.70339 0
M  V30 7035 H 673.427 -0.322043 -0.681765 0
M  V30 7036 H 676.078 -1.34827 -1.24475 0
M  V30 7037 H 674.46 -0.957825 -3.84242 0
M  V30 7038 H 675.634 -3.63321 -2.83433 0
M  V30 7039 H 673.949 -3.18346 -2.68411 0
M  V30 7040 H 676.546 -1.73416 -5.05797 0
M  V30 7041 H 676.889 -0.279949 -4.15358 0
M  V30 7042 H 677.422 -1.85562 -3.51868 0
M  V30 7043 H 674.161 -4.63925 -4.63091 0
M  V30 7044 H 673.681 -3.01819 -5.18329 0
M  V30 7045 H 675.36 -3.57434 -5.39305 0
M  V30 7046 N 675.492 1.28418 -0.913599 0
M  V30 7047 C 676.722 1.98817 -0.56172 0
M  V30 7048 C 677.13 1.68457 0.861321 0
M  V30 7049 O 676.473 0.933653 1.58204 0
M  V30 7050 C 676.535 3.52801 -0.690785 0
M  V30 7051 C 676.199 4.0675 -2.08334 0
M  V30 7052 C 677.196 4.20597 -3.05604 0
M  V30 7053 C 674.881 4.41445 -2.39648 0
M  V30 7054 C 676.875 4.68392 -4.32305 0
M  V30 7055 C 674.562 4.88934 -3.66588 0
M  V30 7056 C 675.56 5.02364 -4.6273 0
M  V30 7057 O 675.248 5.48817 -5.87414 0
M  V30 7058 H 674.98 0.641608 -0.212874 0
M  V30 7059 H 677.534 1.64584 -1.22887 0
M  V30 7060 H 675.764 3.86686 0.0334336 0
M  V30 7061 H 677.453 4.04422 -0.346031 0
M  V30 7062 H 678.219 3.94067 -2.8273 0
M  V30 7063 H 674.098 4.30242 -1.65567 0
M  V30 7064 H 677.642 4.7879 -5.07352 0
M  V30 7065 H 673.539 5.14904 -3.89287 0
M  V30 7066 H 674.307 5.67103 -5.90201 0
M  V30 7067 N 676.97 0.677563 1.42291 0
M  V30 7068 C 678.198 0.209459 2.05837 0
M  V30 7069 C 678.613 -1.13444 1.50917 0
M  V30 7070 O 677.97 -1.70529 0.65008 0
M  V30 7071 C 678.021 0.138819 3.61233 0
M  V30 7072 O 677.742 1.42962 4.14118 0
M  V30 7073 C 679.243 -0.352449 4.41897 0
M  V30 7074 H 676.463 0.101209 0.663323 0
M  V30 7075 H 679.007 0.925077 1.8238 0
M  V30 7076 H 677.162 -0.527505 3.83792 0
M  V30 7077 H 677.576 1.3048 5.08011 0
M  V30 7078 H 679.05 -0.350778 5.50884 0
M  V30 7079 H 679.527 -1.3882 4.16684 0
M  V30 7080 H 680.133 0.282236 4.24362 0
M  V30 7081 N 678.448 -1.51871 0.421078 0
M  V30 7082 C 679.864 -1.59435 0.0725398 0
M  V30 7083 C 680.064 -1.43315 -1.41644 0
M  V30 7084 O 679.12 -1.26614 -2.18461 0
M  V30 7085 C 680.433 -2.9509 0.578132 0
M  V30 7086 C 681.981 -3.08356 0.537149 0
M  V30 7087 C 682.456 -4.4651 1.01945 0
M  V30 7088 N 683.947 -4.52784 0.976758 0
M  V30 7089 C 684.682 -5.57976 1.32099 0
M  V30 7090 N 684.178 -6.70664 1.73727 0
M  V30 7091 N 685.971 -5.48248 1.2402 0
M  V30 7092 H 678.122 -1.60595 1.39007 0
M  V30 7093 H 680.385 -0.756138 0.571803 0
M  V30 7094 H 680.091 -3.12205 1.61929 0
M  V30 7095 H 679.965 -3.772 -0.00578374 0
M  V30 7096 H 682.352 -2.90919 -0.494991 0
M  V30 7097 H 682.433 -2.28125 1.15727 0
M  V30 7098 H 682.077 -4.64692 2.04997 0
M  V30 7099 H 682.007 -5.25256 0.376023 0
M  V30 7100 H 684.498 -3.71898 0.670851 0
M  V30 7101 H 684.811 -7.46932 1.98274 0
M  V30 7102 H 683.156 -6.71914 1.77641 0
M  V30 7103 H 686.347 -4.59095 0.913756 0
M  V30 7104 H 686.52 -6.30119 1.51176 0
M  V30 7105 N 679.926 -0.151884 -1.56866 0
M  V30 7106 C 680.889 0.771861 -2.15812 0
M  V30 7107 C 681.889 1.17181 -1.10115 0
M  V30 7108 O 683.079 1.09194 -1.35729 0
M  V30 7109 C 680.211 2.04806 -2.7252 0
M  V30 7110 H 681.404 0.259021 -2.98779 0
M  V30 7111 H 678.957 0.097588 -1.55995 0
M  V30 7112 H 679.692 2.60445 -1.93233 0
M  V30 7113 H 679.477 1.77044 -3.49854 0
M  V30 7114 H 680.967 2.70771 -3.1792 0
M  V30 7115 N 681.404 1.57128 0.121893 0
M  V30 7116 C 682.334 2.03165 1.15092 0
M  V30 7117 C 683.315 0.915587 1.43356 0
M  V30 7118 O 684.5 1.1851 1.53847 0
M  V30 7119 C 681.63 2.43352 2.47784 0
M  V30 7120 C 680.584 3.58376 2.33989 0
M  V30 7121 C 679.91 3.84454 3.71617 0
M  V30 7122 C 681.21 4.90199 1.80283 0
M  V30 7123 H 682.904 2.89382 0.768023 0
M  V30 7124 H 680.45 1.39218 0.367998 0
M  V30 7125 H 682.403 2.74163 3.20019 0
M  V30 7126 H 681.127 1.54103 2.87958 0
M  V30 7127 H 679.786 3.2777 1.64202 0
M  V30 7128 H 679.434 2.92414 4.09271 0
M  V30 7129 H 679.134 4.61877 3.6324 0
M  V30 7130 H 680.658 4.17714 4.45362 0
M  V30 7131 H 682.072 5.19565 2.42333 0
M  V30 7132 H 680.469 5.71601 1.82735 0
M  V30 7133 H 681.539 4.78904 0.760184 0
M  V30 7134 N 682.882 -0.391992 1.52647 0
M  V30 7135 C 683.792 -1.503 1.80131 0
M  V30 7136 C 684.808 -1.59825 0.687882 0
M  V30 7137 O 685.984 -1.76218 0.975149 0
M  V30 7138 C 683.049 -2.85863 1.96171 0
M  V30 7139 C 682.11 -2.86084 3.20085 0
M  V30 7140 C 681.343 -4.15181 3.35351 0
M  V30 7141 O 681.566 -5.09981 2.55491 0
M  V30 7142 O 680.5 -4.22603 4.28591 0
M  V30 7143 H 684.326 -1.30007 2.74466 0
M  V30 7144 H 681.911 -0.579539 1.37701 0
M  V30 7145 H 683.793 -3.66236 2.08445 0
M  V30 7146 H 682.468 -3.06189 1.05025 0
M  V30 7147 H 681.375 -2.04504 3.13256 0
M  V30 7148 H 682.708 -2.7071 4.11068 0
M  V30 7149 N 684.36 -1.4356 -0.65026 0
M  V30 7150 C 685.776 -1.27025 -0.966269 0
M  V30 7151 C 685.976 -0.192117 -2.00582 0
M  V30 7152 O 685.032 0.428459 -2.48838 0
M  V30 7153 C 686.345 -2.63556 -1.44772 0
M  V30 7154 C 687.893 -2.71111 -1.56421 0
M  V30 7155 C 688.368 -4.08067 -2.07956 0
M  V30 7156 N 689.859 -4.10146 -2.15254 0
M  V30 7157 C 690.594 -5.12952 -2.56258 0
M  V30 7158 N 690.09 -6.26129 -2.96537 0
M  V30 7159 N 691.883 -5.00306 -2.56224 0
M  V30 7160 H 684.034 -2.12367 0.0375758 0
M  V30 7161 H 686.297 -0.946894 -0.0457782 0
M  V30 7162 H 686.003 -3.43429 -0.758271 0
M  V30 7163 H 685.877 -2.89152 -2.42221 0
M  V30 7164 H 688.264 -1.91569 -2.24467 0
M  V30 7165 H 688.345 -2.49277 -0.573967 0
M  V30 7166 H 687.989 -4.88077 -1.40511 0
M  V30 7167 H 687.919 -4.27266 -3.07817 0
M  V30 7168 H 690.41 -3.28453 -1.86887 0
M  V30 7169 H 690.723 -7.00403 -3.26582 0
M  V30 7170 H 689.068 -6.29597 -2.94334 0
M  V30 7171 H 692.259 -4.10952 -2.24135 0
M  V30 7172 H 692.432 -5.80553 -2.87857 0
M  V30 7173 N 685.838 0.888903 -1.30139 0
M  V30 7174 C 686.768 2.01046 -1.18755 0
M  V30 7175 C 687.749 1.69916 -0.0791438 0
M  V30 7176 O 688.934 1.92445 -0.260498 0
M  V30 7177 C 686.064 3.36109 -0.874518 0
M  V30 7178 C 685.018 3.81486 -1.94043 0
M  V30 7179 C 684.344 5.13796 -1.48047 0
M  V30 7180 C 685.644 4.00637 -3.35093 0
M  V30 7181 H 687.338 2.10828 -2.12584 0
M  V30 7182 H 684.884 1.01298 -1.02346 0
M  V30 7183 H 686.837 4.14089 -0.781548 0
M  V30 7184 H 685.561 3.26449 0.0994519 0
M  V30 7185 H 684.22 3.05731 -2.02297 0
M  V30 7186 H 683.868 5.0056 -0.494878 0
M  V30 7187 H 683.568 5.45127 -2.19341 0
M  V30 7188 H 685.092 5.94305 -1.40121 0
M  V30 7189 H 686.506 4.69067 -3.2962 0
M  V30 7190 H 684.903 4.43339 -4.04438 0
M  V30 7191 H 685.973 3.0462 -3.77273 0
M  V30 7192 N 687.317 1.12792 1.10072 0
M  V30 7193 C 688.565 0.883796 1.81751 0
M  V30 7194 C 688.886 -0.591891 1.858 0
M  V30 7195 O 688.156 -1.43017 1.33876 0
M  V30 7196 H 686.736 0.323978 0.673088 0
M  V30 7197 H 689.398 1.42314 1.33164 0
M  V30 7198 H 688.494 1.26863 2.85153 0
M  V30 7199 N 688.795 -1.27931 0.920396 0
M  V30 7200 C 690.044 -1.93975 0.552867 0
M  V30 7201 C 690.357 -1.73193 -0.909035 0
M  V30 7202 O 691.563 -2.33515 -1.38502 0
M  V30 7203 C 690.019 -3.47463 0.937947 0
M  V30 7204 C 689.627 -3.77013 2.42003 0
M  V30 7205 C 691.371 -4.19628 0.64132 0
M  V30 7206 C 689.278 -5.23841 2.74489 0
M  V30 7207 H 688.208 -0.726146 0.203046 0
M  V30 7208 H 690.859 -1.45339 1.12022 0
M  V30 7209 H 689.241 -3.94867 0.299317 0
M  V30 7210 H 690.415 -3.40393 3.10595 0
M  V30 7211 H 688.73 -3.18035 2.6878 0
M  V30 7212 H 691.327 -5.27729 0.860622 0
M  V30 7213 H 691.67 -4.14164 -0.421168 0
M  V30 7214 H 692.203 -3.78022 1.23872 0
M  V30 7215 H 688.942 -5.34388 3.79618 0
M  V30 7216 H 688.462 -5.61634 2.1054 0
M  V30 7217 H 690.141 -5.91647 2.61845 0
M  V30 7218 N 690.273 -0.685099 -1.4193 0
M  V30 7219 C 691.236 -0.0222632 -2.29189 0
M  V30 7220 C 692.236 0.7186 -1.4385 0
M  V30 7221 O 693.426 0.555058 -1.6512 0
M  V30 7222 C 690.558 0.979013 -3.2654 0
M  V30 7223 H 691.751 -0.790424 -2.89296 0
M  V30 7224 H 689.304 -0.448012 -1.49742 0
M  V30 7225 H 690.039 1.77531 -2.71392 0
M  V30 7226 H 689.824 0.451037 -3.89497 0
M  V30 7227 H 691.314 1.44091 -3.91954 0
M  V30 7228 N 691.751 1.51645 -0.429126 0
M  V30 7229 C 692.714 2.26116 0.374726 0
M  V30 7230 C 693.714 1.29242 0.956714 0
M  V30 7231 O 694.904 1.53022 0.832452 0
M  V30 7232 C 692.036 3.04669 1.52937 0
M  V30 7233 H 693.229 2.9861 -0.277818 0
M  V30 7234 H 690.782 1.55236 -0.182097 0
M  V30 7235 H 691.517 2.36571 2.21821 0
M  V30 7236 H 691.302 3.75814 1.11833 0
M  V30 7237 H 692.792 3.61102 2.09751 0
M  V30 7238 N 693.229 0.160201 1.56784 0
M  V30 7239 C 694.161 -0.80564 2.14574 0
M  V30 7240 C 695.174 -1.20154 1.09849 0
M  V30 7241 O 696.363 -1.14333 1.37078 0
M  V30 7242 C 693.463 -2.09434 2.6644 0
M  V30 7243 C 692.636 -1.86375 3.95706 0
M  V30 7244 C 691.695 -2.99358 4.32749 0
M  V30 7245 O 690.721 -2.70475 5.00831 0
M  V30 7246 N 691.923 -4.26867 3.93402 0
M  V30 7247 H 694.688 -0.311644 2.98075 0
M  V30 7248 H 692.249 -0.0229465 1.61884 0
M  V30 7249 H 694.241 -2.84091 2.88226 0
M  V30 7250 H 692.811 -2.50057 1.8759 0
M  V30 7251 H 692.031 -0.956821 3.82412 0
M  V30 7252 H 693.319 -1.68322 4.80151 0
M  V30 7253 H 692.717 -4.53197 3.38569 0
M  V30 7254 H 691.274 -4.98263 4.20211 0
M  V30 7255 N 694.707 -1.5719 -0.113559 0
M  V30 7256 C 695.956 -1.84325 -0.818984 0
M  V30 7257 C 696.269 -0.746685 -1.80787 0
M  V30 7258 O 697.475 -0.904596 -2.55987 0
M  V30 7259 C 695.931 -3.26818 -1.50724 0
M  V30 7260 C 695.539 -4.44498 -0.559065 0
M  V30 7261 C 697.283 -3.63196 -2.19748 0
M  V30 7262 C 695.19 -5.7802 -1.25086 0
M  V30 7263 H 694.12 -0.687507 -0.309596 0
M  V30 7264 H 696.771 -1.8336 -0.0717621 0
M  V30 7265 H 695.153 -3.22269 -2.30128 0
M  V30 7266 H 696.327 -4.60356 0.202146 0
M  V30 7267 H 694.642 -4.16393 0.024495 0
M  V30 7268 H 697.239 -4.60226 -2.72206 0
M  V30 7269 H 697.582 -2.90899 -2.97798 0
M  V30 7270 H 698.115 -3.69553 -1.47226 0
M  V30 7271 H 694.854 -6.53501 -0.511539 0
M  V30 7272 H 694.374 -5.66038 -1.98395 0
M  V30 7273 H 696.053 -6.2196 -1.78253 0
M  V30 7274 N 696.185 0.383891 -1.52853 0
M  V30 7275 C 697.095 1.49343 -1.80925 0
M  V30 7276 C 698.111 1.59458 -0.696348 0
M  V30 7277 O 699.287 1.75698 -0.984481 0
M  V30 7278 C 696.352 2.84819 -1.97684 0
M  V30 7279 C 695.413 2.84382 -3.21598 0
M  V30 7280 C 694.646 4.13397 -3.37548 0
M  V30 7281 O 694.869 5.08619 -2.58192 0
M  V30 7282 O 693.803 4.20325 -4.30826 0
M  V30 7283 H 697.629 1.2855 -2.75152 0
M  V30 7284 H 695.214 0.572229 -1.38007 0
M  V30 7285 H 697.096 3.65125 -2.10385 0
M  V30 7286 H 695.771 3.05627 -1.06647 0
M  V30 7287 H 694.678 2.0284 -3.14336 0
M  V30 7288 H 696.011 2.68526 -4.12498 0
M  V30 7289 N 697.663 1.43903 0.642637 0
M  V30 7290 C 698.61 1.49881 1.75512 0
M  V30 7291 C 699.58 0.347538 1.62423 0
M  V30 7292 O 700.765 0.556177 1.82514 0
M  V30 7293 C 697.905 1.43797 3.13714 0
M  V30 7294 C 697.018 2.6921 3.37861 0
M  V30 7295 C 696.153 2.5504 4.6597 0
M  V30 7296 C 695.192 3.75671 4.83257 0
M  V30 7297 N 694.329 3.60247 6.02633 0
M  V30 7298 H 699.169 2.44935 1.69737 0
M  V30 7299 H 696.706 1.21572 0.828165 0
M  V30 7300 H 698.664 1.38262 3.93624 0
M  V30 7301 H 697.294 0.523173 3.18532 0
M  V30 7302 H 696.346 2.8498 2.51973 0
M  V30 7303 H 697.658 3.58786 3.46517 0
M  V30 7304 H 696.812 2.47273 5.54023 0
M  V30 7305 H 695.551 1.63006 4.59653 0
M  V30 7306 H 694.556 3.83836 3.93637 0
M  V30 7307 H 695.781 4.68728 4.91397 0
M  V30 7308 H 693.727 2.70955 5.97427 0
M  V30 7309 H 693.644 4.43431 6.12295 0
M  V30 7310 H 694.912 3.56351 6.93278 0
M  V30 7311 N 699.141 -0.881989 1.30609 0
M  V30 7312 C 700.387 -1.63647 1.19781 0
M  V30 7313 C 700.72 -1.92632 -0.246265 0
M  V30 7314 O 699.995 -1.54938 -1.17577 0
M  V30 7315 C 700.278 -2.97437 2.02985 0
M  V30 7316 C 700.131 -2.75406 3.55628 0
M  V30 7317 C 701.45 -3.98397 1.86997 0
M  V30 7318 H 698.569 -0.593841 0.436488 0
M  V30 7319 H 701.211 -1.02041 1.60273 0
M  V30 7320 H 699.361 -3.50018 1.68581 0
M  V30 7321 H 701.033 -2.2959 4.00107 0
M  V30 7322 H 699.276 -2.09856 3.79662 0
M  V30 7323 H 699.947 -3.70552 4.09139 0
M  V30 7324 H 702.423 -3.54986 2.17081 0
M  V30 7325 H 701.299 -4.89916 2.47536 0
M  V30 7326 H 701.56 -4.3424 0.829943 0
M  V30 7327 N 700.619 -1.13374 -1.09472 0
M  V30 7328 C 701.896 -0.806329 -1.78207 0
M  V30 7329 C 702.276 0.702191 -1.99079 0
M  V30 7330 O 701.624 1.63931 -1.59182 0
M  V30 7331 C 701.834 -1.59271 -3.10538 0
M  V30 7332 C 703.182 -1.78509 -3.85253 0
M  V30 7333 O 704.206 -1.55866 -3.20288 0
M  V30 7334 O 703.065 -2.16287 -5.01879 0
M  V30 7335 H 700.159 -0.29435 -0.772843 0
M  V30 7336 H 702.705 -1.23833 -1.16033 0
M  V30 7337 H 701.477 -2.61792 -2.90828 0
M  V30 7338 H 701.1 -1.15562 -3.80436 0
M  V30 7339 N 702.098 1.27442 -0.927168 0
M  V30 7340 C 703.046 2.28844 -0.416333 0
M  V30 7341 C 704.04 1.61882 0.499057 0
M  V30 7342 O 705.246 1.75969 0.378817 0
M  V30 7343 H 701.621 0.742989 -0.116065 0
M  V30 7344 H 703.592 2.69344 -1.28438 0
M  V30 7345 C 702.341 3.4626 0.316107 0
M  V30 7346 H 701.664 3.97999 -0.379082 0
M  V30 7347 H 703.104 4.19173 0.637975 0
M  V30 7348 C 701.563 3.00211 1.5289 0
M  V30 7349 O 702.093 3.03837 2.62766 0
M  V30 7350 N 700.299 2.55713 1.38054 0
M  V30 7351 H 699.846 2.52962 0.4866 0
M  V30 7352 H 699.804 2.25264 2.19325 0
M  V30 7353 N 703.576 0.692616 1.41565 0
M  V30 7354 C 704.539 0.0344174 2.29174 0
M  V30 7355 C 705.539 -0.710961 1.44229 0
M  V30 7356 O 706.729 -0.546293 1.65412 0
M  V30 7357 C 703.861 -0.961682 3.27054 0
M  V30 7358 H 705.054 0.805755 2.88873 0
M  V30 7359 H 702.607 0.455947 1.49502 0
M  V30 7360 H 703.342 -1.76089 2.72329 0
M  V30 7361 H 703.127 -0.430375 3.89731 0
M  V30 7362 H 704.617 -1.4201 3.92712 0
M  V30 7363 N 705.054 -1.51416 0.437162 0
M  V30 7364 C 705.986 -2.255 -0.410171 0
M  V30 7365 C 706.999 -1.29511 -0.986444 0
M  V30 7366 O 708.188 -1.55266 -0.880614 0
M  V30 7367 C 705.288 -2.99511 -1.58575 0
M  V30 7368 C 704.461 -4.22595 -1.12839 0
M  V30 7369 C 703.52 -4.79187 -2.17407 0
M  V30 7370 O 702.546 -5.4103 -1.76849 0
M  V30 7371 N 703.748 -4.63204 -3.49889 0
M  V30 7372 H 706.513 -2.98856 0.224783 0
M  V30 7373 H 704.074 -1.59699 0.266041 0
M  V30 7374 H 706.066 -3.34258 -2.28152 0
M  V30 7375 H 704.636 -2.29167 -2.12606 0
M  V30 7376 H 703.856 -3.93344 -0.259695 0
M  V30 7377 H 705.144 -5.02468 -0.800196 0
M  V30 7378 H 704.542 -4.13945 -3.85573 0
M  V30 7379 H 703.099 -5.02313 -4.15361 0
M  V30 7380 N 706.532 -0.168513 -1.56696 0
M  V30 7381 C 707.762 0.482802 -2.0088 0
M  V30 7382 C 708.17 1.57537 -1.0478 0
M  V30 7383 O 707.513 1.83656 -0.0402746 0
M  V30 7384 C 707.575 1.1236 -3.4149 0
M  V30 7385 C 707.239 0.173027 -4.56672 0
M  V30 7386 C 708.236 -0.607565 -5.16338 0
M  V30 7387 C 705.921 0.0696691 -5.02252 0
M  V30 7388 C 707.915 -1.47874 -6.2001 0
M  V30 7389 C 705.602 -0.805096 -6.05773 0
M  V30 7390 C 706.6 -1.57789 -6.64524 0
M  V30 7391 O 706.288 -2.43804 -7.66038 0
M  V30 7392 H 706.02 0.128246 -0.663723 0
M  V30 7393 H 708.574 -0.266532 -2.03663 0
M  V30 7394 H 706.804 1.921 -3.35611 0
M  V30 7395 H 708.493 1.67683 -3.69645 0
M  V30 7396 H 709.259 -0.53787 -4.82008 0
M  V30 7397 H 705.138 0.660957 -4.56237 0
M  V30 7398 H 708.682 -2.0824 -6.65794 0
M  V30 7399 H 704.579 -0.876005 -6.39528 0
M  V30 7400 H 705.347 -2.37289 -7.83349 0
M  V30 7401 N 708.01 1.57248 0.105221 0
M  V30 7402 C 709.238 1.89768 0.82437 0
M  V30 7403 C 709.653 0.761192 1.72775 0
M  V30 7404 O 709.01 -0.267342 1.80531 0
M  V30 7405 C 709.061 3.2184 1.64625 0
M  V30 7406 O 708.782 4.31115 0.779217 0
M  V30 7407 C 710.283 3.68155 2.46935 0
M  V30 7408 H 707.503 0.628031 0.236259 0
M  V30 7409 H 710.047 2.04321 0.085485 0
M  V30 7410 H 708.202 3.08915 2.33775 0
M  V30 7411 H 708.616 5.06897 1.34745 0
M  V30 7412 H 710.09 4.6329 3.00111 0
M  V30 7413 H 710.567 2.95492 3.24932 0
M  V30 7414 H 711.173 3.83914 1.83002 0
M  V30 7415 N 709.488 -0.375779 1.53054 0
M  V30 7416 C 710.451 -1.44254 1.7811 0
M  V30 7417 C 711.451 -1.47018 0.651328 0
M  V30 7418 O 712.641 -1.47957 0.919472 0
M  V30 7419 C 709.773 -2.8345 1.89391 0
M  V30 7420 H 710.966 -1.23316 2.73374 0
M  V30 7421 H 708.519 -0.608312 1.43977 0
M  V30 7422 H 709.254 -3.09716 0.961589 0
M  V30 7423 H 709.039 -2.82844 2.71555 0
M  V30 7424 H 710.529 -3.60722 2.10404 0
M  V30 7425 N 710.966 -1.44241 -0.634997 0
M  V30 7426 C 712.382 -1.28043 -0.952742 0
M  V30 7427 C 712.582 -0.21338 -2.00367 0
M  V30 7428 O 711.638 0.402042 -2.49279 0
M  V30 7429 C 712.951 -2.65076 -1.41968 0
M  V30 7430 C 714.499 -2.72755 -1.53537 0
M  V30 7431 C 714.974 -4.10249 -2.03616 0
M  V30 7432 N 716.465 -4.12406 -2.10892 0
M  V30 7433 C 717.2 -5.15641 -2.50803 0
M  V30 7434 N 716.696 -6.29239 -2.89879 0
M  V30 7435 N 718.489 -5.02995 -2.50903 0
M  V30 7436 H 710.64 -2.12315 0.060098 0
M  V30 7437 H 712.903 -0.947326 -0.0357325 0
M  V30 7438 H 712.609 -3.44213 -0.721804 0
M  V30 7439 H 712.483 -2.91704 -2.39141 0
M  V30 7440 H 714.87 -1.93939 -2.22422 0
M  V30 7441 H 714.951 -2.49872 -0.547496 0
M  V30 7442 H 714.595 -4.8954 -1.35327 0
M  V30 7443 H 714.525 -4.30507 -3.03268 0
M  V30 7444 H 717.016 -3.30417 -1.83393 0
M  V30 7445 H 717.329 -7.03827 -3.19135 0
M  V30 7446 H 715.674 -6.32683 -2.8764 0
M  V30 7447 H 718.865 -4.13306 -2.19763 0
M  V30 7448 H 719.038 -5.83574 -2.81683 0
M  V30 7449 N 712.444 0.87505 -1.31075 0
M  V30 7450 C 713.69 1.63009 -1.20647 0
M  V30 7451 C 714.023 1.9276 0.236045 0
M  V30 7452 O 713.298 1.55559 1.16754 0
M  V30 7453 C 713.581 2.96357 -2.0456 0
M  V30 7454 C 713.434 2.73516 -3.57084 0
M  V30 7455 C 714.753 3.974 -1.89107 0
M  V30 7456 H 711.872 0.591518 -0.439631 0
M  V30 7457 H 714.514 1.0119 -1.60812 0
M  V30 7458 H 712.664 3.49119 -1.70435 0
M  V30 7459 H 714.336 2.27465 -4.01319 0
M  V30 7460 H 712.579 2.0784 -3.80769 0
M  V30 7461 H 713.25 3.68377 -4.11099 0
M  V30 7462 H 715.726 3.5383 -2.18961 0
M  V30 7463 H 714.602 4.88596 -2.5013 0
M  V30 7464 H 714.863 4.33794 -0.85296 0
M  V30 7465 N 713.922 1.13953 1.08869 0
M  V30 7466 C 714.885 0.824991 2.13838 0
M  V30 7467 C 715.885 -0.168198 1.59918 0
M  V30 7468 O 717.075 0.0595778 1.74098 0
M  V30 7469 C 714.207 0.228938 3.4013 0
M  V30 7470 H 715.4 1.75521 2.43171 0
M  V30 7471 H 712.953 0.94492 1.24503 0
M  V30 7472 H 713.688 -0.710227 3.16427 0
M  V30 7473 H 713.473 0.944243 3.80561 0
M  V30 7474 H 714.963 0.0259223 4.17592 0
M  V30 7475 N 715.4 -1.26948 0.933913 0
M  V30 7476 C 716.31 -2.30366 0.443671 0
M  V30 7477 C 717.326 -1.67284 -0.478745 0
M  V30 7478 O 718.502 -1.98156 -0.360043 0
M  V30 7479 C 715.567 -3.45485 -0.289974 0
M  V30 7480 C 714.628 -4.24069 0.668114 0
M  V30 7481 C 713.861 -5.33691 -0.0306138 0
M  V30 7482 O 714.084 -5.5656 -1.24888 0
M  V30 7483 O 713.018 -5.98441 0.644384 0
M  V30 7484 H 716.844 -2.74349 1.30254 0
M  V30 7485 H 714.429 -1.32012 0.699506 0
M  V30 7486 H 716.311 -4.15486 -0.70353 0
M  V30 7487 H 714.986 -3.03546 -1.12435 0
M  V30 7488 H 713.893 -3.56579 1.13147 0
M  V30 7489 H 715.226 -4.69739 1.46989 0
M  V30 7490 N 716.879 -0.700114 -1.41195 0
M  V30 7491 C 717.809 -0.0521132 -2.33442 0
M  V30 7492 C 718.79 0.76228 -1.52063 0
M  V30 7493 O 719.975 0.714336 -1.80585 0
M  V30 7494 C 717.105 0.881693 -3.35922 0
M  V30 7495 C 716.059 0.174062 -4.27646 0
M  V30 7496 C 715.385 1.22254 -5.20536 0
M  V30 7497 C 716.685 -0.962396 -5.13357 0
M  V30 7498 H 718.379 -0.822574 -2.87879 0
M  V30 7499 H 715.925 -0.397011 -1.38419 0
M  V30 7500 H 717.878 1.34429 -3.99383 0
M  V30 7501 H 716.602 1.68387 -2.79845 0
M  V30 7502 H 715.261 -0.268551 -3.65615 0
M  V30 7503 H 714.909 2.01736 -4.60773 0
M  V30 7504 H 714.609 0.754038 -5.82742 0
M  V30 7505 H 716.133 1.68555 -5.86874 0
M  V30 7506 H 717.547 -0.579875 -5.7036 0
M  V30 7507 H 715.944 -1.35828 -5.84526 0
M  V30 7508 H 717.014 -1.80003 -4.50252 0
M  V30 7509 N 718.357 1.51182 -0.445186 0
M  V30 7510 C 719.634 1.9478 0.178965 0
M  V30 7511 C 720.014 1.38428 1.59376 0
M  V30 7512 O 719.362 0.574552 2.21159 0
M  V30 7513 C 719.572 3.48683 0.148711 0
M  V30 7514 C 720.92 4.23152 0.35042 0
M  V30 7515 O 721.944 3.55479 0.226474 0
M  V30 7516 O 720.803 5.4322 0.597893 0
M  V30 7517 H 717.897 0.817387 0.12573 0
M  V30 7518 H 720.443 1.62051 -0.503729 0
M  V30 7519 H 719.215 3.82176 -0.84009 0
M  V30 7520 H 718.838 3.87875 0.873979 0
M  V30 7521 N 719.835 0.176821 1.56605 0
M  V30 7522 C 721.082 -0.466715 1.97048 0
M  V30 7523 C 721.41 -1.6288 1.06302 0
M  V30 7524 O 720.665 -1.95453 0.0982571 0
M  V30 7525 C 720.964 -0.986208 3.43524 0
M  V30 7526 C 720.63 0.0605667 4.50859 0
M  V30 7527 C 719.292 0.348242 4.79938 0
M  V30 7528 C 721.644 0.770794 5.15469 0
M  V30 7529 C 718.972 1.35144 5.70923 0
M  V30 7530 C 721.324 1.76301 6.07537 0
M  V30 7531 C 719.988 2.05808 6.3498 0
M  V30 7532 H 719.258 -0.170783 0.721051 0
M  V30 7533 H 721.905 0.269942 1.89588 0
M  V30 7534 H 720.21 -1.80079 3.47964 0
M  V30 7535 H 721.907 -1.49323 3.72161 0
M  V30 7536 H 718.497 -0.173823 4.28247 0
M  V30 7537 H 722.681 0.56176 4.9311 0
M  V30 7538 H 717.937 1.58616 5.90467 0
M  V30 7539 H 722.111 2.31868 6.56666 0
M  V30 7540 H 719.738 2.8369 7.05283 0
M  V30 7541 N 721.313 -1.57302 -0.09688 0
M  V30 7542 C 722.59 -1.7701 -0.832272 0
M  V30 7543 C 722.97 -0.758025 -1.97021 0
M  V30 7544 O 722.318 0.213824 -2.27497 0
M  V30 7545 C 722.528 -3.22725 -1.32851 0
M  V30 7546 C 723.876 -3.85856 -1.772 0
M  V30 7547 O 724.9 -3.26464 -1.42478 0
M  V30 7548 O 723.759 -4.90295 -2.41398 0
M  V30 7549 H 720.853 -0.725558 -0.396856 0
M  V30 7550 H 723.399 -1.69516 -0.0789005 0
M  V30 7551 H 722.171 -3.87921 -0.51312 0
M  V30 7552 H 721.794 -3.34845 -2.14394 0
M  V30 7553 N 722.791 0.367657 -1.53252 0
M  V30 7554 C 723.721 1.45632 -1.8252 0
M  V30 7555 C 724.702 1.55979 -0.678568 0
M  V30 7556 O 725.887 1.70581 -0.928217 0
M  V30 7557 C 723.017 2.82994 -2.01325 0
M  V30 7558 C 721.971 2.87473 -3.17086 0
M  V30 7559 C 721.297 4.2749 -3.21179 0
M  V30 7560 C 722.597 2.55182 -4.55719 0
M  V30 7561 H 724.291 1.21387 -2.73689 0
M  V30 7562 H 721.837 0.58251 -1.31692 0
M  V30 7563 H 723.79 3.59179 -2.20383 0
M  V30 7564 H 722.514 3.08622 -1.06864 0
M  V30 7565 H 721.173 2.13739 -2.97844 0
M  V30 7566 H 720.821 4.5019 -2.24361 0
M  V30 7567 H 720.521 4.31403 -3.98955 0
M  V30 7568 H 722.045 5.0555 -3.42419 0
M  V30 7569 H 723.459 3.21081 -4.74953 0
M  V30 7570 H 721.856 2.70414 -5.3572 0
M  V30 7571 H 722.926 1.5044 -4.60973 0
M  V30 7572 N 724.269 1.44576 0.627338 0
M  V30 7573 C 725.497 1.51048 1.41394 0
M  V30 7574 C 725.912 0.136568 1.88305 0
M  V30 7575 O 725.269 -0.858251 1.6106 0
M  V30 7576 C 725.32 2.47837 2.63172 0
M  V30 7577 O 725.041 3.79887 2.18215 0
M  V30 7578 C 726.542 2.63811 3.56257 0
M  V30 7579 H 723.762 0.512171 0.4335 0
M  V30 7580 H 726.306 1.89576 0.766878 0
M  V30 7581 H 724.461 2.12433 3.23961 0
M  V30 7582 H 724.875 4.32177 2.97192 0
M  V30 7583 H 726.349 3.35554 4.38301 0
M  V30 7584 H 726.826 1.69169 4.05313 0
M  V30 7585 H 727.432 3.0013 3.01333 0
M  V30 7586 N 725.747 -0.868086 1.31537 0
M  V30 7587 C 727.158 -1.437 1.19195 0
M  V30 7588 C 727.509 -1.95169 -0.200842 0
M  V30 7589 O 726.634 -1.86432 -1.09872 0
M  V30 7590 C 727.229 -2.612 2.15778 0
M  V30 7591 C 725.788 -3.1413 2.07363 0
M  V30 7592 C 724.935 -1.86845 2.049 0
M  V30 7593 H 727.886 -0.676457 1.43561 0
M  V30 7594 H 727.907 -3.37948 1.74847 0
M  V30 7595 H 727.419 -2.23709 3.17137 0
M  V30 7596 H 725.52 -3.56238 1.09204 0
M  V30 7597 H 725.633 -3.76285 2.96557 0
M  V30 7598 H 723.997 -2.05886 1.49943 0
M  V30 7599 H 724.78 -1.51589 3.08019 0
M  V30 7600 N 727.225 -1.14528 -1.08264 0
M  V30 7601 C 728.472 -0.914405 -1.80679 0
M  V30 7602 C 728.8 0.558952 -1.86295 0
M  V30 7603 O 728.055 1.43017 -1.33584 0
M  V30 7604 C 728.354 -1.46226 -3.26117 0
M  V30 7605 C 728.02 -2.95451 -3.40616 0
M  V30 7606 C 726.682 -3.36191 -3.4428 0
M  V30 7607 C 729.034 -3.91399 -3.44175 0
M  V30 7608 C 726.362 -4.71539 -3.49096 0
M  V30 7609 C 728.714 -5.26606 -3.50526 0
M  V30 7610 C 727.378 -5.66856 -3.52464 0
M  V30 7611 H 726.648 -0.334604 -0.661151 0
M  V30 7612 H 729.295 -1.4292 -1.27461 0
M  V30 7613 H 727.6 -0.868442 -3.82054 0
M  V30 7614 H 729.297 -1.25955 -3.80705 0
M  V30 7615 H 725.887 -2.62955 -3.38456 0
M  V30 7616 H 730.071 -3.61004 -3.40573 0
M  V30 7617 H 725.327 -5.02082 -3.4889 0
M  V30 7618 H 729.501 -6.00758 -3.52225 0
M  V30 7619 H 727.128 -6.71718 -3.55948 0
M  V30 7620 N 728.703 1.26451 -0.940633 0
M  V30 7621 C 730.119 1.4608 -0.642859 0
M  V30 7622 C 730.319 1.84765 0.803998 0
M  V30 7623 O 729.375 1.96902 1.58069 0
M  V30 7624 C 730.688 2.54359 -1.60381 0
M  V30 7625 C 732.236 2.6821 -1.61345 0
M  V30 7626 C 732.711 3.79659 -2.56169 0
M  V30 7627 N 734.202 3.87051 -2.54452 0
M  V30 7628 C 734.937 4.72739 -3.24507 0
M  V30 7629 N 734.433 5.6282 -4.03987 0
M  V30 7630 N 736.226 4.66581 -3.13462 0
M  V30 7631 H 728.377 0.996289 -1.87584 0
M  V30 7632 H 730.64 0.498921 -0.80609 0
M  V30 7633 H 730.346 2.32758 -2.6366 0
M  V30 7634 H 730.22 3.52005 -1.35545 0
M  V30 7635 H 732.607 2.89184 -0.587913 0
M  V30 7636 H 732.688 1.7101 -1.90235 0
M  V30 7637 H 732.332 3.59438 -3.58841 0
M  V30 7638 H 732.262 4.76315 -2.2457 0
M  V30 7639 H 734.753 3.22649 -1.96739 0
M  V30 7640 H 735.066 6.25095 -4.54396 0
M  V30 7641 H 733.411 5.62574 -4.08088 0
M  V30 7642 H 736.602 3.9521 -2.50852 0
M  V30 7643 H 736.775 5.33141 -3.68327 0
M  V30 7644 N 730.181 0.707592 1.40822 0
M  V30 7645 C 731.597 0.38034 1.55002 0
M  V30 7646 C 731.797 -1.11163 1.68062 0
M  V30 7647 O 730.853 -1.89761 1.66574 0
M  V30 7648 C 732.166 1.1394 2.78277 0
M  V30 7649 C 733.714 1.12492 2.92087 0
M  V30 7650 C 734.189 1.86597 4.18265 0
M  V30 7651 N 735.68 1.83626 4.25248 0
M  V30 7652 C 736.415 2.37794 5.21768 0
M  V30 7653 N 735.911 3.00485 6.24244 0
M  V30 7654 N 737.704 2.27982 5.13791 0
M  V30 7655 H 729.855 1.67511 1.3059 0
M  V30 7656 H 732.118 0.707579 0.630901 0
M  V30 7657 H 731.824 2.19398 2.74877 0
M  V30 7658 H 731.698 0.725793 3.70151 0
M  V30 7659 H 734.085 0.0785564 2.94995 0
M  V30 7660 H 734.166 1.57768 2.01353 0
M  V30 7661 H 733.81 2.91219 4.16118 0
M  V30 7662 H 733.74 1.38746 5.07993 0
M  V30 7663 H 736.231 1.3793 3.51829 0
M  V30 7664 H 736.544 3.39355 6.94304 0
M  V30 7665 H 734.889 3.04567 6.24711 0
M  V30 7666 H 738.08 1.78669 4.3266 0
M  V30 7667 H 738.253 2.70499 5.88841 0
M  V30 7668 N 731.66 -1.50943 0.453197 0
M  V30 7669 C 732.937 -1.94872 -0.168633 0
M  V30 7670 C 733.317 -1.39272 -1.5864 0
M  V30 7671 O 732.665 -0.586272 -2.20851 0
M  V30 7672 C 732.875 -3.48757 -0.130217 0
M  V30 7673 C 734.223 -4.23331 -0.327975 0
M  V30 7674 O 735.247 -3.55594 -0.207619 0
M  V30 7675 O 734.106 -5.43529 -0.569077 0
M  V30 7676 H 731.2 -0.818042 -0.121394 0
M  V30 7677 H 733.746 -1.61782 0.512316 0
M  V30 7678 H 732.518 -3.81725 0.860346 0
M  V30 7679 H 732.141 -3.88333 -0.853397 0
M  V30 7680 N 733.138 -0.185124 -1.56509 0
M  V30 7681 C 734.068 0.735098 -2.21627 0
M  V30 7682 C 735.049 1.2288 -1.1762 0
M  V30 7683 O 736.234 1.27945 -1.46095 0
M  V30 7684 C 733.364 1.95889 -2.86783 0
M  V30 7685 C 732.318 1.6005 -3.96948 0
M  V30 7686 C 731.644 2.90009 -4.4922 0
M  V30 7687 C 732.944 0.818008 -5.15855 0
M  V30 7688 H 734.638 0.192274 -2.98782 0
M  V30 7689 H 732.184 0.0910393 -1.43712 0
M  V30 7690 H 734.137 2.60779 -3.31017 0
M  V30 7691 H 732.861 2.52608 -2.07018 0
M  V30 7692 H 731.52 0.975237 -3.5339 0
M  V30 7693 H 731.168 3.44797 -3.6623 0
M  V30 7694 H 730.868 2.66778 -5.23549 0
M  V30 7695 H 732.392 3.55904 -4.9615 0
M  V30 7696 H 733.806 1.36979 -5.56695 0
M  V30 7697 H 732.203 0.684207 -5.96187 0
M  V30 7698 H 733.273 -0.182939 -4.84555 0
M  V30 7699 N 734.616 1.57351 0.0885366 0
M  V30 7700 C 735.841 1.91011 0.80805 0
M  V30 7701 C 736.266 0.780009 1.71165 0
M  V30 7702 O 735.624 -0.268083 1.79307 0
M  V30 7703 C 735.672 3.23562 1.59185 0
M  V30 7704 O 734.776 3.11615 2.7013 0
M  V30 7705 H 734.117 0.625943 0.221565 0
M  V30 7706 H 736.647 2.04507 0.0617954 0
M  V30 7707 H 736.657 3.5703 1.97468 0
M  V30 7708 H 735.332 4.05398 0.928741 0
M  V30 7709 H 733.909 2.89673 2.34827 0
M  V30 7710 N 736.094 -0.359525 1.53444 0
M  V30 7711 C 737.024 -1.44662 1.8329 0
M  V30 7712 C 738.005 -1.55617 0.68683 0
M  V30 7713 O 739.19 -1.70086 0.93725 0
M  V30 7714 C 736.32 -2.81923 2.02822 0
M  V30 7715 C 735.274 -2.85787 3.18606 0
M  V30 7716 C 734.6 -4.25781 3.23442 0
M  V30 7717 C 735.9 -2.52762 4.57065 0
M  V30 7718 H 737.594 -1.19934 2.74329 0
M  V30 7719 H 735.14 -0.575517 1.31999 0
M  V30 7720 H 737.093 -3.58005 2.22285 0
M  V30 7721 H 735.817 -3.08051 1.085 0
M  V30 7722 H 734.476 -2.12157 2.98973 0
M  V30 7723 H 734.124 -4.48994 2.26745 0
M  V30 7724 H 733.824 -4.29281 4.01238 0
M  V30 7725 H 735.348 -5.03727 3.45096 0
M  V30 7726 H 736.762 -3.18557 4.76649 0
M  V30 7727 H 735.159 -2.67569 5.37147 0
M  V30 7728 H 736.229 -1.47993 4.61764 0
M  V30 7729 N 737.572 -1.44907 -0.619662 0
M  V30 7730 C 738.797 -1.52021 -1.41083 0
M  V30 7731 C 739.222 -0.14976 -1.87503 0
M  V30 7732 O 738.58 0.863303 -1.59426 0
M  V30 7733 C 738.628 -2.49911 -2.59955 0
M  V30 7734 O 737.732 -2.00857 -3.60181 0
M  V30 7735 H 737.073 -0.512912 -0.421684 0
M  V30 7736 H 739.603 -1.90149 -0.755282 0
M  V30 7737 H 739.613 -2.68323 -3.07354 0
M  V30 7738 H 738.288 -3.4945 -2.25516 0
M  V30 7739 H 736.865 -1.92265 -3.19513 0
M  V30 7740 N 739.05 0.861098 -1.31996 0
M  V30 7741 C 740.461 1.43065 -1.19955 0
M  V30 7742 C 740.812 1.95273 0.190489 0
M  V30 7743 O 739.937 1.87012 1.08882 0
M  V30 7744 C 740.532 2.60052 -2.1716 0
M  V30 7745 C 739.091 3.13026 -2.09026 0
M  V30 7746 C 738.238 1.85756 -2.05888 0
M  V30 7747 H 741.189 0.668834 -1.43918 0
M  V30 7748 H 741.21 3.37016 -1.76637 0
M  V30 7749 H 740.722 2.22024 -3.18319 0
M  V30 7750 H 738.823 3.55653 -1.11092 0
M  V30 7751 H 738.936 3.74707 -2.98549 0
M  V30 7752 H 737.3 2.05088 -1.51033 0
M  V30 7753 H 738.083 1.49954 -3.08818 0
M  V30 7754 N 740.528 1.15101 1.07655 0
M  V30 7755 C 741.776 0.922149 1.79836 0
M  V30 7756 C 742.097 -0.552346 1.87014 0
M  V30 7757 O 741.367 -1.40145 1.3688 0
M  V30 7758 H 739.947 0.338182 0.666064 0
M  V30 7759 H 742.609 1.45107 1.30115 0
M  V30 7760 H 741.705 1.32883 2.82398 0
M  V30 7761 N 742.006 -1.2595 0.947325 0
M  V30 7762 C 742.954 -2.28152 0.452687 0
M  V30 7763 C 743.948 -1.62655 -0.473239 0
M  V30 7764 O 745.154 -1.76549 -0.350774 0
M  V30 7765 H 741.529 -0.741049 0.12787 0
M  V30 7766 H 743.5 -2.67267 1.32707 0
M  V30 7767 C 742.249 -3.46719 -0.26098 0
M  V30 7768 H 741.572 -3.97345 0.442352 0
M  V30 7769 H 743.012 -4.20135 -0.571208 0
M  V30 7770 C 741.471 -3.02605 -1.48094 0
M  V30 7771 O 742.001 -3.07979 -2.57899 0
M  V30 7772 N 740.207 -2.57877 -1.33969 0
M  V30 7773 H 739.754 -2.53704 -0.446295 0
M  V30 7774 H 739.712 -2.28725 -2.15713 0
M  V30 7775 N 743.484 -0.715051 -1.40445 0
M  V30 7776 C 744.394 -0.0631624 -2.34515 0
M  V30 7777 C 745.41 0.744397 -1.57273 0
M  V30 7778 O 746.586 0.677475 -1.89663 0
M  V30 7779 C 743.651 0.847915 -3.36172 0
M  V30 7780 C 742.712 0.0303655 -4.29289 0
M  V30 7781 C 741.945 0.898051 -5.2609 0
M  V30 7782 O 742.168 2.13729 -5.28844 0
M  V30 7783 O 741.102 0.337328 -6.00954 0
M  V30 7784 H 744.928 -0.839078 -2.91879 0
M  V30 7785 H 742.513 -0.475527 -1.4163 0
M  V30 7786 H 744.395 1.3698 -3.98515 0
M  V30 7787 H 743.07 1.60299 -2.81222 0
M  V30 7788 H 741.977 -0.536573 -3.70232 0
M  V30 7789 H 743.31 -0.686474 -4.87389 0
M  V30 7790 N 744.962 1.50701 -0.461195 0
M  V30 7791 C 745.894 2.26124 0.374244 0
M  V30 7792 C 746.907 1.31064 0.965715 0
M  V30 7793 O 748.096 1.56647 0.855801 0
M  V30 7794 C 745.196 3.01996 1.5379 0
M  V30 7795 C 744.369 4.24336 1.06101 0
M  V30 7796 C 743.428 4.82585 2.09756 0
M  V30 7797 O 742.454 5.43775 1.68219 0
M  V30 7798 N 743.656 4.68712 3.42475 0
M  V30 7799 H 746.421 2.9846 -0.2723 0
M  V30 7800 H 743.982 1.59256 -0.291415 0
M  V30 7801 H 745.974 3.37846 2.22806 0
M  V30 7802 H 744.544 2.32521 2.08933 0
M  V30 7803 H 743.764 3.93707 0.197085 0
M  V30 7804 H 745.052 5.03678 0.720156 0
M  V30 7805 H 744.45 4.20026 3.78938 0
M  V30 7806 H 743.007 5.08858 4.07317 0
M  V30 7807 N 746.441 0.193421 1.56409 0
M  V30 7808 C 747.857 -0.162447 1.58771 0
M  V30 7809 C 748.057 -1.6116 1.20954 0
M  V30 7810 O 747.113 -2.3469 0.931497 0
M  V30 7811 C 748.426 0.138391 3.00381 0
M  V30 7812 C 749.974 0.0783649 3.12902 0
M  V30 7813 C 750.449 0.352491 4.56642 0
M  V30 7814 N 751.94 0.30105 4.62221 0
M  V30 7815 C 752.675 0.487028 5.71328 0
M  V30 7816 N 752.171 0.733265 6.88909 0
M  V30 7817 N 753.964 0.4214 5.60518 0
M  V30 7818 H 746.115 1.13909 1.79272 0
M  V30 7819 H 748.378 0.454528 0.83193 0
M  V30 7820 H 748.084 1.14312 3.32604 0
M  V30 7821 H 747.958 -0.559804 3.73023 0
M  V30 7822 H 750.345 -0.916963 2.80492 0
M  V30 7823 H 750.426 0.809611 2.4265 0
M  V30 7824 H 750.07 1.34513 4.89764 0
M  V30 7825 H 750 -0.399624 5.25081 0
M  V30 7826 H 752.491 0.117279 3.77718 0
M  V30 7827 H 752.804 0.86403 7.67955 0
M  V30 7828 H 751.149 0.770138 6.9072 0
M  V30 7829 H 754.34 0.229461 4.67537 0
M  V30 7830 H 754.513 0.569758 6.4549 0
M  V30 7831 N 747.919 -1.57396 -0.0801906 0
M  V30 7832 C 748.849 -2.06145 -1.09665 0
M  V30 7833 C 749.83 -0.953273 -1.40878 0
M  V30 7834 O 751.015 -1.22548 -1.50651 0
M  V30 7835 C 748.145 -2.49836 -2.41245 0
M  V30 7836 C 747.099 -3.64454 -2.24405 0
M  V30 7837 C 746.425 -3.94172 -3.61293 0
M  V30 7838 C 747.725 -4.94807 -1.67223 0
M  V30 7839 H 749.419 -2.91316 -0.691028 0
M  V30 7840 H 746.965 -1.40145 -0.330957 0
M  V30 7841 H 748.918 -2.82552 -3.12638 0
M  V30 7842 H 747.642 -1.61683 -2.83771 0
M  V30 7843 H 746.301 -3.32008 -1.55454 0
M  V30 7844 H 745.949 -3.03163 -4.01374 0
M  V30 7845 H 745.649 -4.71345 -3.50867 0
M  V30 7846 H 747.173 -4.29376 -4.3413 0
M  V30 7847 H 748.587 -5.25807 -2.28472 0
M  V30 7848 H 746.984 -5.76245 -1.67515 0
M  V30 7849 H 748.054 -4.80751 -0.632944 0
M  V30 7850 N 749.397 0.351382 -1.53633 0
M  V30 7851 C 750.627 1.11113 -1.74176 0
M  V30 7852 C 751.035 1.83084 -0.477154 0
M  V30 7853 O 750.378 1.74941 0.560483 0
M  V30 7854 C 750.44 2.17521 -2.86225 0
M  V30 7855 C 750.104 1.65193 -4.26099 0
M  V30 7856 C 751.101 1.10842 -5.07947 0
M  V30 7857 C 748.786 1.70277 -4.72558 0
M  V30 7858 C 750.78 0.622689 -6.34351 0
M  V30 7859 C 748.467 1.21316 -5.98937 0
M  V30 7860 C 749.465 0.674033 -6.79666 0
M  V30 7861 O 749.153 0.191696 -8.03671 0
M  V30 7862 H 748.885 0.33756 -0.585687 0
M  V30 7863 H 751.439 0.411786 -2.0123 0
M  V30 7864 H 749.669 2.90991 -2.54678 0
M  V30 7865 H 751.358 2.78999 -2.94812 0
M  V30 7866 H 752.124 1.06243 -4.7322 0
M  V30 7867 H 748.003 2.11181 -4.09785 0
M  V30 7868 H 751.547 0.201216 -6.9731 0
M  V30 7869 H 747.444 1.25613 -6.3316 0
M  V30 7870 H 748.212 0.309712 -8.17914 0
M  V30 7871 N 750.875 1.45233 0.611969 0
M  V30 7872 C 752.121 1.50233 1.37119 0
M  V30 7873 C 752.476 0.140336 1.91888 0
M  V30 7874 O 751.769 -0.847161 1.71854 0
M  V30 7875 C 751.963 2.51353 2.54079 0
M  V30 7876 C 751.792 3.97251 2.10764 0
M  V30 7877 C 750.562 4.65256 1.97141 0
M  V30 7878 C 752.76 4.85914 1.68499 0
M  V30 7879 N 750.742 5.95895 1.4759 0
M  V30 7880 C 752.113 6.06147 1.30331 0
M  V30 7881 C 754.168 4.72813 1.56051 0
M  V30 7882 C 752.871 7.14729 0.809591 0
M  V30 7883 C 754.897 5.8144 1.08083 0
M  V30 7884 C 754.259 7.00825 0.708775 0
M  V30 7885 H 750.358 0.604708 0.495835 0
M  V30 7886 H 752.942 1.81679 0.700055 0
M  V30 7887 H 751.113 2.21866 3.18795 0
M  V30 7888 H 752.845 2.46528 3.20945 0
M  V30 7889 H 749.6 4.20345 2.18191 0
M  V30 7890 H 750.024 6.65349 1.25059 0
M  V30 7891 H 754.666 3.80931 1.83443 0
M  V30 7892 H 752.384 8.06404 0.523215 0
M  V30 7893 H 755.97 5.73335 0.988842 0
M  V30 7894 H 754.85 7.83448 0.343305 0
M  V30 7895 N 752.353 -0.854086 1.3245 0
M  V30 7896 C 753.601 -1.60513 1.228 0
M  V30 7897 C 753.922 -1.93865 -0.210073 0
M  V30 7898 O 753.192 -1.59673 -1.13496 0
M  V30 7899 H 751.772 -0.595099 0.451516 0
M  V30 7900 H 754.434 -1.0216 1.6598 0
M  V30 7901 H 753.53 -2.54182 1.81102 0
M  V30 7902 N 753.831 -1.1567 -1.07043 0
M  V30 7903 C 755.056 -0.957946 -1.83952 0
M  V30 7904 C 755.481 0.488807 -1.81638 0
M  V30 7905 O 754.839 1.34869 -1.21162 0
M  V30 7906 C 754.887 -1.48064 -3.288 0
M  V30 7907 O 753.991 -0.681921 -4.06723 0
M  V30 7908 H 753.332 -0.341453 -0.569479 0
M  V30 7909 H 755.862 -1.53728 -1.35015 0
M  V30 7910 H 755.872 -1.49484 -3.7963 0
M  V30 7911 H 754.547 -2.53388 -3.29799 0
M  V30 7912 H 753.124 -0.737612 -3.65532 0
M  V30 7913 N 755.309 1.25446 -0.953992 0
M  V30 7914 C 756.259 2.23627 -0.444413 0
M  V30 7915 C 757.243 1.54004 0.465993 0
M  V30 7916 O 758.435 1.74454 0.29915 0
M  V30 7917 C 755.564 3.42179 0.277175 0
M  V30 7918 C 754.65 4.1907 -0.651263 0
M  V30 7919 N 755.041 4.73346 -1.78262 0
M  V30 7920 C 753.339 4.43628 -0.459338 0
M  V30 7921 C 754.04 5.31576 -2.36224 0
M  V30 7922 N 753.016 5.17991 -1.64884 0
M  V30 7923 H 756.818 2.63197 -1.30785 0
M  V30 7924 H 754.332 1.40677 -0.811402 0
M  V30 7925 H 756.329 4.11653 0.659367 0
M  V30 7926 H 754.989 3.04134 1.13723 0
M  V30 7927 H 756 4.705 -2.1645 0
M  V30 7928 H 752.677 4.15963 0.357885 0
M  V30 7929 H 754.067 5.84361 -3.3162 0
M  V30 7930 N 756.787 0.722489 1.40064 0
M  V30 7931 C 758.012 0.273446 2.05589 0
M  V30 7932 C 758.437 -1.07875 1.54093 0
M  V30 7933 O 757.795 -1.68095 0.679252 0
M  V30 7934 C 757.843 0.271023 3.5958 0
M  V30 7935 O 756.947 -0.745499 4.05606 0
M  V30 7936 H 756.288 0.126856 0.65177 0
M  V30 7937 H 758.818 0.984906 1.79334 0
M  V30 7938 H 758.828 0.111084 4.07849 0
M  V30 7939 H 757.503 1.25776 3.96425 0
M  V30 7940 H 756.08 -0.552719 3.68781 0
M  V30 7941 N 758.265 -1.50454 0.469181 0
M  V30 7942 C 759.228 -2.2703 -0.314643 0
M  V30 7943 C 760.228 -1.31734 -0.922111 0
M  V30 7944 O 761.418 -1.55176 -0.791588 0
M  V30 7945 C 758.55 -3.08616 -1.44806 0
M  V30 7946 H 759.743 -2.97769 0.356892 0
M  V30 7947 H 757.296 -1.54698 0.223191 0
M  V30 7948 H 758.031 -2.42369 -2.1547 0
M  V30 7949 H 757.816 -3.78647 -1.01829 0
M  V30 7950 H 759.306 -3.66536 -2.00103 0
M  V30 7951 N 759.743 -0.201713 -1.56304 0
M  V30 7952 C 760.991 0.434447 -1.97375 0
M  V30 7953 C 761.312 1.61692 -1.08998 0
M  V30 7954 O 760.582 1.95223 -0.162682 0
M  V30 7955 H 759.162 0.163497 -0.728888 0
M  V30 7956 H 761.824 -0.289988 -1.92731 0
M  V30 7957 H 760.92 0.774136 -3.02347 0
M  V30 7958 N 761.222 1.57436 0.0718424 0
M  V30 7959 C 762.154 2.00412 1.1121 0
M  V30 7960 C 763.167 0.910074 1.34987 0
M  V30 7961 O 764.356 1.18796 1.33228 0
M  V30 7962 C 761.456 2.32786 2.46301 0
M  V30 7963 C 760.629 3.64036 2.4248 0
M  V30 7964 C 759.688 3.8408 3.59679 0
M  V30 7965 O 758.714 4.55667 3.4111 0
M  V30 7966 N 759.916 3.2643 4.80025 0
M  V30 7967 H 762.681 2.90264 0.746118 0
M  V30 7968 H 760.242 1.59791 0.260495 0
M  V30 7969 H 762.234 2.43368 3.23348 0
M  V30 7970 H 760.804 1.48824 2.74901 0
M  V30 7971 H 760.024 3.64208 1.50818 0
M  V30 7972 H 761.312 4.50217 2.37027 0
M  V30 7973 H 760.71 2.68325 4.98014 0
M  V30 7974 H 759.267 3.42461 5.54584 0
M  V30 7975 N 762.7 -0.34323 1.53817 0
M  V30 7976 C 764.111 -0.918823 1.62525 0
M  V30 7977 C 764.462 -1.89542 0.506765 0
M  V30 7978 O 763.587 -2.13326 -0.363441 0
M  V30 7979 C 764.182 -1.67326 2.94597 0
M  V30 7980 C 762.741 -2.19786 3.05567 0
M  V30 7981 C 761.888 -1.01708 2.57974 0
M  V30 7982 H 764.839 -0.121358 1.58235 0
M  V30 7983 H 764.86 -2.53615 2.83654 0
M  V30 7984 H 764.372 -0.962223 3.75983 0
M  V30 7985 H 762.473 -2.94065 2.28816 0
M  V30 7986 H 762.586 -2.46135 4.1104 0
M  V30 7987 H 760.95 -1.39058 2.13389 0
M  V30 7988 H 761.733 -0.320671 3.41799 0
M  V30 7989 N 764.178 -1.45556 -0.604258 0
M  V30 7990 C 765.426 -1.4945 -1.36048 0
M  V30 7991 C 765.747 -0.138933 -1.94504 0
M  V30 7992 O 765.017 0.832097 -1.7735 0
M  V30 7993 H 763.597 -0.550381 -0.505064 0
M  V30 7994 H 766.259 -1.81535 -0.709308 0
M  V30 7995 H 765.355 -2.23519 -2.17821 0
M  V30 7996 N 765.656 0.84705 -1.32902 0
M  V30 7997 C 766.884 1.63403 -1.26913 0
M  V30 7998 C 767.299 1.88108 0.161483 0
M  V30 7999 O 766.656 1.45546 1.10103 0
M  V30 8000 C 766.707 2.98896 -2.03331 0
M  V30 8001 O 766.428 2.75281 -3.40811 0
M  V30 8002 C 767.929 3.93335 -2.04457 0
M  V30 8003 H 765.149 0.508701 -0.437566 0
M  V30 8004 H 767.693 1.05567 -1.75145 0
M  V30 8005 H 765.848 3.53356 -1.58802 0
M  V30 8006 H 766.262 3.61504 -3.8002 0
M  V30 8007 H 767.736 4.85647 -2.62394 0
M  V30 8008 H 768.213 4.26885 -1.03274 0
M  V30 8009 H 768.819 3.44812 -2.48967 0
M  V30 8010 N 767.134 1.16236 1.06428 0
M  V30 8011 C 768.55 0.906983 1.31324 0
M  V30 8012 C 768.75 -0.440872 1.96618 0
M  V30 8013 O 767.806 -1.1807 2.23194 0
M  V30 8014 C 769.119 2.05501 2.19522 0
M  V30 8015 C 770.667 2.09061 2.32943 0
M  V30 8016 C 771.142 3.23214 3.24495 0
M  V30 8017 N 772.633 3.22922 3.32078 0
M  V30 8018 C 773.368 4.07889 4.03006 0
M  V30 8019 N 772.864 5.02941 4.76469 0
M  V30 8020 N 774.657 3.95881 3.99043 0
M  V30 8021 H 766.808 2.03015 0.624388 0
M  V30 8022 H 769.071 0.88576 0.337835 0
M  V30 8023 H 768.777 3.02847 1.78819 0
M  V30 8024 H 768.651 1.99538 3.201 0
M  V30 8025 H 771.038 1.12308 2.72893 0
M  V30 8026 H 771.119 2.19089 1.32037 0
M  V30 8027 H 770.763 4.20225 2.85261 0
M  V30 8028 H 770.693 3.10423 4.25377 0
M  V30 8029 H 773.184 2.54093 2.79724 0
M  V30 8030 H 773.497 5.64196 5.28112 0
M  V30 8031 H 771.842 5.06922 4.75453 0
M  V30 8032 H 775.033 3.20927 3.40769 0
M  V30 8033 H 775.206 4.62321 4.54052 0
M  V30 8034 N 768.612 -1.24939 0.960631 0
M  V30 8035 C 769.56 -2.27659 0.47686 0
M  V30 8036 C 770.554 -1.63148 -0.455961 0
M  V30 8037 O 771.76 -1.76911 -0.332029 0
M  V30 8038 H 768.135 -0.739651 0.135723 0
M  V30 8039 H 770.106 -2.65844 1.35534 0
M  V30 8040 C 768.855 -3.46976 -0.224191 0
M  V30 8041 H 768.178 -3.96854 0.484471 0
M  V30 8042 H 769.618 -4.20717 -0.526615 0
M  V30 8043 C 768.077 -3.04159 -1.44876 0
M  V30 8044 O 768.607 -3.10697 -2.54618 0
M  V30 8045 N 766.813 -2.59284 -1.31226 0
M  V30 8046 H 766.36 -2.54164 -0.419361 0
M  V30 8047 H 766.318 -2.31 -2.13275 0
M  V30 8048 N 770.09 -0.729906 -1.39679 0
M  V30 8049 C 771.02 -0.101618 -2.33279 0
M  V30 8050 C 772.001 0.729854 -1.53646 0
M  V30 8051 O 773.186 0.67587 -1.82059 0
M  V30 8052 C 770.316 0.81024 -3.37716 0
M  V30 8053 C 769.27 0.0833126 -4.27919 0
M  V30 8054 C 768.596 1.11185 -5.23012 0
M  V30 8055 C 769.896 -1.07107 -5.112 0
M  V30 8056 H 771.59 -0.883452 -2.86069 0
M  V30 8057 H 769.136 -0.426283 -1.37546 0
M  V30 8058 H 771.089 1.25927 -4.02145 0
M  V30 8059 H 769.813 1.62413 -2.83354 0
M  V30 8060 H 768.472 -0.346043 -3.64963 0
M  V30 8061 H 768.12 1.91917 -4.64948 0
M  V30 8062 H 767.82 0.63026 -5.8421 0
M  V30 8063 H 769.344 1.56068 -5.90318 0
M  V30 8064 H 770.758 -0.700726 -5.69002 0
M  V30 8065 H 769.155 -1.48196 -5.81514 0
M  V30 8066 H 770.225 -1.89513 -4.46332 0
M  V30 8067 N 771.568 1.50203 -0.477153 0
M  V30 8068 C 772.501 2.25343 0.359983 0
M  V30 8069 C 773.479 1.28909 0.991022 0
M  V30 8070 O 774.663 1.58146 1.02578 0
M  V30 8071 C 771.79 3.03431 1.5049 0
M  V30 8072 C 770.836 4.14836 0.99063 0
M  V30 8073 S 771.669 5.35407 -0.0995413 0
M  V30 8074 C 772.825 6.17045 1.04911 0
M  V30 8075 H 773.058 2.95999 -0.277836 0
M  V30 8076 H 770.591 1.52159 -0.262115 0
M  V30 8077 H 772.549 3.49012 2.16105 0
M  V30 8078 H 771.21 2.32289 2.11425 0
M  V30 8079 H 770.403 4.689 1.84794 0
M  V30 8080 H 770.005 3.71723 0.412097 0
M  V30 8081 H 772.297 6.48546 1.95946 0
M  V30 8082 H 773.24 7.05979 0.547596 0
M  V30 8083 H 773.648 5.49193 1.30567 0
M  V30 8084 N 773.046 0.209999 1.56195 0
M  V30 8085 C 774.294 -0.423974 1.97603 0
M  V30 8086 C 774.615 -1.61112 1.09854 0
M  V30 8087 O 773.885 -1.95134 0.173032 0
M  V30 8088 H 772.465 -0.159629 0.729745 0
M  V30 8089 H 775.127 0.300205 1.92574 0
M  V30 8090 H 774.223 -0.75809 3.02753 0
M  V30 8091 N 774.524 -1.57472 -0.0634922 0
M  V30 8092 C 775.487 -2.03268 -1.059 0
M  V30 8093 C 776.487 -0.931028 -1.31105 0
M  V30 8094 O 777.677 -1.19567 -1.26686 0
M  V30 8095 C 774.809 -2.42039 -2.40062 0
M  V30 8096 H 776.002 -2.92454 -0.664119 0
M  V30 8097 H 773.555 -1.53206 -0.309444 0
M  V30 8098 H 774.29 -1.55904 -2.84367 0
M  V30 8099 H 774.075 -3.22437 -2.23108 0
M  V30 8100 H 775.565 -2.78017 -3.11603 0
M  V30 8101 N 776.003 0.335068 -1.53997 0
M  V30 8102 C 776.966 1.39481 -1.81872 0
M  V30 8103 C 777.966 1.4524 -0.690078 0
M  V30 8104 O 779.156 1.45467 -0.958377 0
M  V30 8105 C 776.288 2.78329 -1.9684 0
M  V30 8106 H 777.481 1.16024 -2.76547 0
M  V30 8107 H 775.034 0.569926 -1.45539 0
M  V30 8108 H 775.769 3.07058 -1.04337 0
M  V30 8109 H 775.554 2.75544 -2.78958 0
M  V30 8110 H 777.044 3.55016 -2.19894 0
M  V30 8111 N 777.481 1.45874 0.596531 0
M  V30 8112 C 778.706 1.54247 1.38646 0
M  V30 8113 C 779.131 0.179571 1.87241 0
M  V30 8114 O 778.489 -0.837831 1.6078 0
M  V30 8115 C 778.537 2.54015 2.55946 0
M  V30 8116 O 777.641 2.06561 3.5694 0
M  V30 8117 H 776.982 0.519555 0.413471 0
M  V30 8118 H 779.512 1.91327 0.724936 0
M  V30 8119 H 779.522 2.73179 3.03047 0
M  V30 8120 H 778.197 3.52994 2.19928 0
M  V30 8121 H 776.774 1.97324 3.16414 0
M  V30 8122 N 778.959 -0.83999 1.33349 0
M  V30 8123 C 780.37 -1.41139 1.22216 0
M  V30 8124 C 780.721 -1.95551 -0.159398 0
M  V30 8125 O 779.846 -1.88721 -1.05893 0
M  V30 8126 C 780.441 -2.56564 2.21269 0
M  V30 8127 C 779 -3.09661 2.13979 0
M  V30 8128 C 778.147 -1.82457 2.08818 0
M  V30 8129 H 781.098 -0.645853 1.44964 0
M  V30 8130 H 781.119 -3.34163 1.81976 0
M  V30 8131 H 780.631 -2.16932 3.21811 0
M  V30 8132 H 778.732 -3.53841 1.16736 0
M  V30 8133 H 778.845 -3.6991 3.04472 0
M  V30 8134 H 777.209 -2.0266 1.54276 0
M  V30 8135 H 777.992 -1.45022 3.11165 0
M  V30 8136 N 780.437 -1.16799 -1.0581 0
M  V30 8137 C 781.4 -0.881396 -2.11575 0
M  V30 8138 C 782.4 0.12574 -1.60308 0
M  V30 8139 O 783.59 -0.105716 -1.73879 0
M  V30 8140 C 780.722 -0.319037 -3.39404 0
M  V30 8141 H 781.915 -1.81907 -2.38432 0
M  V30 8142 H 779.468 -0.977597 -1.21954 0
M  V30 8143 H 780.203 0.626082 -3.18199 0
M  V30 8144 H 779.988 -1.04481 -3.77923 0
M  V30 8145 H 781.478 -0.13663 -4.17376 0
M  V30 8146 N 781.915 1.24427 -0.967243 0
M  V30 8147 C 783.164 1.91789 -0.624478 0
M  V30 8148 C 783.477 1.76448 0.844129 0
M  V30 8149 O 784.683 2.38495 1.2974 0
M  V30 8150 C 783.139 3.43743 -1.06626 0
M  V30 8151 C 782.747 3.67771 -2.55829 0
M  V30 8152 C 784.491 4.16958 -0.79662 0
M  V30 8153 C 782.398 5.13293 -2.93742 0
M  V30 8154 H 781.328 0.71811 -0.229856 0
M  V30 8155 H 783.979 1.41081 -1.17339 0
M  V30 8156 H 782.361 3.93484 -0.445663 0
M  V30 8157 H 783.535 3.28631 -3.23015 0
M  V30 8158 H 781.85 3.07841 -2.80398 0
M  V30 8159 H 784.447 5.24171 -1.05589 0
M  V30 8160 H 784.79 4.15442 0.267163 0
M  V30 8161 H 785.323 3.73164 -1.37816 0
M  V30 8162 H 782.062 5.19931 -3.9919 0
M  V30 8163 H 781.582 5.53433 -2.3124 0
M  V30 8164 H 783.261 5.81521 -2.83623 0
M  V30 8165 N 783.393 0.737304 1.3929 0
M  V30 8166 C 784.67 0.212464 1.94443 0
M  V30 8167 C 785.05 -1.28621 1.67391 0
M  V30 8168 O 784.398 -2.0529 1.00342 0
M  V30 8169 C 784.608 0.548565 3.44662 0
M  V30 8170 C 785.956 0.499177 4.21656 0
M  V30 8171 O 786.98 0.485892 3.5287 0
M  V30 8172 O 785.839 0.495739 5.44247 0
M  V30 8173 H 782.933 0.0395457 0.826054 0
M  V30 8174 H 785.479 0.816319 1.48776 0
M  V30 8175 H 784.251 1.58426 3.57795 0
M  V30 8176 H 783.874 -0.0841399 3.97511 0
M  V30 8177 N 784.871 -1.49948 0.485112 0
M  V30 8178 C 785.834 -2.27351 -0.290546 0
M  V30 8179 C 786.834 -1.32704 -0.908087 0
M  V30 8180 O 788.024 -1.56007 -0.775085 0
M  V30 8181 C 785.156 -3.10135 -1.41524 0
M  V30 8182 H 786.349 -2.97374 0.388454 0
M  V30 8183 H 783.902 -1.54453 0.239586 0
M  V30 8184 H 784.637 -2.44641 -2.12888 0
M  V30 8185 H 784.422 -3.79705 -0.978074 0
M  V30 8186 H 785.912 -3.68638 -1.96204 0
M  V30 8187 N 786.349 -0.21828 -1.56081 0
M  V30 8188 C 787.282 0.733096 -2.16104 0
M  V30 8189 C 788.26 1.19333 -1.10447 0
M  V30 8190 O 789.444 1.27666 -1.38685 0
M  V30 8191 C 786.571 1.99283 -2.73868 0
M  V30 8192 C 785.617 1.67285 -3.92324 0
M  V30 8193 S 786.45 0.800511 -5.29483 0
M  V30 8194 C 787.606 2.06988 -5.90683 0
M  V30 8195 H 787.839 0.222917 -2.96463 0
M  V30 8196 H 785.372 -0.00300946 -1.544 0
M  V30 8197 H 787.33 2.71618 -3.07789 0
M  V30 8198 H 785.991 2.47414 -1.93508 0
M  V30 8199 H 785.184 2.60874 -4.31232 0
M  V30 8200 H 784.786 1.03016 -3.59533 0
M  V30 8201 H 787.078 3.02019 -6.06457 0
M  V30 8202 H 788.021 1.72476 -6.86773 0
M  V30 8203 H 788.429 2.20893 -5.19487 0
M  V30 8204 N 787.827 1.57504 0.0551401 0
M  V30 8205 C 789.076 1.87237 0.750009 0
M  V30 8206 C 789.389 0.813268 1.77891 0
M  V30 8207 O 790.595 0.99898 2.52453 0
M  V30 8208 C 789.051 3.32187 1.38491 0
M  V30 8209 C 788.659 4.46267 0.393707 0
M  V30 8210 C 790.403 3.71101 2.06117 0
M  V30 8211 C 788.31 5.82265 1.03547 0
M  V30 8212 H 787.24 0.698524 0.283866 0
M  V30 8213 H 789.891 1.835 0.00365997 0
M  V30 8214 H 788.273 3.30588 2.18008 0
M  V30 8215 H 789.447 4.59289 -0.372865 0
M  V30 8216 H 787.762 4.16015 -0.17902 0
M  V30 8217 H 790.359 4.70012 2.54937 0
M  V30 8218 H 790.702 3.01751 2.86796 0
M  V30 8219 H 791.235 3.74762 1.33409 0
M  V30 8220 H 787.974 6.54949 0.268644 0
M  V30 8221 H 787.494 5.73012 1.7725 0
M  V30 8222 H 789.173 6.28148 1.55047 0
M  V30 8223 N 789.305 -0.326896 1.54172 0
M  V30 8224 C 790.582 -1.08326 1.62864 0
M  V30 8225 C 790.962 -2.06018 0.46039 0
M  V30 8226 O 790.31 -2.21889 -0.545685 0
M  V30 8227 C 790.52 -1.78816 2.9971 0
M  V30 8228 C 791.868 -2.31958 3.55641 0
M  V30 8229 O 792.892 -1.88888 3.01993 0
M  V30 8230 O 791.751 -3.10801 4.49517 0
M  V30 8231 H 788.845 -0.499131 0.659392 0
M  V30 8232 H 791.391 -0.327054 1.66519 0
M  V30 8233 H 790.163 -1.07739 3.76176 0
M  V30 8234 H 789.786 -2.61255 2.99719 0
M  V30 8235 N 790.784 -1.46188 -0.588786 0
M  V30 8236 C 792.2 -1.31009 -0.911524 0
M  V30 8237 C 792.4 -0.277017 -1.99587 0
M  V30 8238 O 791.456 0.322532 -2.50432 0
M  V30 8239 C 792.769 -2.69459 -1.33463 0
M  V30 8240 C 794.317 -2.77502 -1.44782 0
M  V30 8241 C 794.792 -4.1652 -1.90461 0
M  V30 8242 N 796.283 -4.18907 -1.97665 0
M  V30 8243 C 797.018 -5.23359 -2.34271 0
M  V30 8244 N 796.514 -6.38143 -2.69714 0
M  V30 8245 N 798.307 -5.10723 -2.34774 0
M  V30 8246 H 790.458 -2.12016 0.127614 0
M  V30 8247 H 792.721 -0.947984 -0.00557599 0
M  V30 8248 H 792.427 -3.46336 -0.611929 0
M  V30 8249 H 792.301 -2.99165 -2.2974 0
M  V30 8250 H 794.688 -2.00917 -2.1614 0
M  V30 8251 H 794.769 -2.51488 -0.467724 0
M  V30 8252 H 794.413 -4.93597 -1.19684 0
M  V30 8253 H 794.343 -4.39937 -2.89418 0
M  V30 8254 H 796.834 -3.36084 -1.72789 0
M  V30 8255 H 797.147 -7.13624 -2.96582 0
M  V30 8256 H 795.492 -6.41514 -2.67366 0
M  V30 8257 H 798.683 -4.20088 -2.06503 0
M  V30 8258 H 798.856 -5.9224 -2.62975 0
M  V30 8259 N 792.262 0.832906 -1.33792 0
M  V30 8260 C 793.195 1.94788 -1.18882 0
M  V30 8261 C 794.173 1.62389 -0.0828426 0
M  V30 8262 O 795.357 1.86886 -0.246175 0
M  V30 8263 C 792.484 3.28506 -0.824728 0
M  V30 8264 C 791.53 3.79872 -1.93905 0
M  V30 8265 S 792.363 4.00832 -3.55097 0
M  V30 8266 C 793.519 5.37492 -3.20708 0
M  V30 8267 H 793.752 2.07137 -2.13264 0
M  V30 8268 H 791.285 0.987362 -1.18704 0
M  V30 8269 H 793.243 4.05769 -0.621442 0
M  V30 8270 H 791.904 3.13939 0.100587 0
M  V30 8271 H 791.097 4.76647 -1.6378 0
M  V30 8272 H 790.699 3.09524 -2.09931 0
M  V30 8273 H 792.991 6.20544 -2.71903 0
M  V30 8274 H 793.934 5.72593 -4.16584 0
M  V30 8275 H 794.342 5.02529 -2.57148 0
M  V30 8276 N 793.74 1.17359 1.05189 0
M  V30 8277 C 794.67 0.91365 2.14883 0
M  V30 8278 C 795.651 -0.144365 1.69486 0
M  V30 8279 O 796.836 0.00587861 1.94199 0
M  V30 8280 C 793.966 0.426196 3.44675 0
M  V30 8281 C 792.92 1.4234 4.03638 0
M  V30 8282 C 792.246 0.793902 5.28773 0
M  V30 8283 C 793.546 2.7966 4.41121 0
M  V30 8284 H 795.24 1.831 2.36885 0
M  V30 8285 H 792.786 0.881781 1.13845 0
M  V30 8286 H 794.739 0.231767 4.20762 0
M  V30 8287 H 793.463 -0.526693 3.22325 0
M  V30 8288 H 792.122 1.60457 3.2962 0
M  V30 8289 H 791.77 -0.165824 5.02727 0
M  V30 8290 H 791.47 1.45959 5.69183 0
M  V30 8291 H 792.994 0.609747 6.07548 0
M  V30 8292 H 794.408 2.6526 5.08242 0
M  V30 8293 H 792.805 3.42807 4.92548 0
M  V30 8294 H 793.875 3.34068 3.51464 0
M  V30 8295 N 795.218 -1.23913 0.973828 0
M  V30 8296 C 796.181 -2.23367 0.51378 0
M  V30 8297 C 797.181 -1.55923 -0.39302 0
M  V30 8298 O 798.371 -1.73187 -0.187626 0
M  V30 8299 C 795.503 -3.39944 -0.255152 0
M  V30 8300 H 796.696 -2.65581 1.39307 0
M  V30 8301 H 794.249 -1.36632 0.759039 0
M  V30 8302 H 794.984 -3.03177 -1.15127 0
M  V30 8303 H 794.769 -3.90098 0.395673 0
M  V30 8304 H 796.259 -4.13749 -0.565842 0
M  V30 8305 N 796.696 -0.74468 -1.38897 0
M  V30 8306 C 797.659 -0.11945 -2.28889 0
M  V30 8307 C 798.659 0.656942 -1.46768 0
M  V30 8308 O 799.849 0.484525 -1.67326 0
M  V30 8309 C 796.981 0.839635 -3.30398 0
M  V30 8310 H 798.174 -0.912414 -2.85683 0
M  V30 8311 H 795.727 -0.511119 -1.47707 0
M  V30 8312 H 796.462 1.6586 -2.78677 0
M  V30 8313 H 796.247 0.285432 -3.9106 0
M  V30 8314 H 797.737 1.27337 -3.97712 0
M  V30 8315 N 798.174 1.49689 -0.493057 0
M  V30 8316 C 799.402 2.06836 0.0513141 0
M  V30 8317 C 799.817 1.35436 1.31539 0
M  V30 8318 O 799.174 0.430248 1.77356 0
M  V30 8319 C 799.225 3.60107 0.317003 0
M  V30 8320 O 798.946 4.2882 -0.896957 0
M  V30 8321 C 800.447 4.33945 0.905902 0
M  V30 8322 H 797.667 0.670787 -0.0169048 0
M  V30 8323 H 800.211 1.92574 -0.688139 0
M  V30 8324 H 798.366 3.74099 1.00642 0
M  V30 8325 H 798.78 5.20395 -0.654939 0
M  V30 8326 H 800.254 5.42087 1.04144 0
M  V30 8327 H 800.731 3.95895 1.90168 0
M  V30 8328 H 801.337 4.2454 0.254195 0
M  V30 8329 N 799.652 0.226554 1.55963 0
M  V30 8330 C 800.88 -0.408507 2.02827 0
M  V30 8331 C 801.295 -1.52994 1.10627 0
M  V30 8332 O 800.652 -1.82126 0.116809 0
M  V30 8333 C 800.703 -0.93545 3.49187 0
M  V30 8334 O 800.424 0.141273 4.37872 0
M  V30 8335 C 801.925 -1.64325 4.11719 0
M  V30 8336 H 799.145 -0.099442 0.66359 0
M  V30 8337 H 801.689 0.344471 2.01578 0
M  V30 8338 H 799.844 -1.63868 3.51036 0
M  V30 8339 H 800.258 -0.25558 5.23877 0
M  V30 8340 H 801.732 -1.9639 5.15883 0
M  V30 8341 H 802.209 -2.55815 3.57009 0
M  V30 8342 H 802.815 -0.9851 4.13734 0
M  V30 8343 N 801.13 -1.57531 -0.0467866 0
M  V30 8344 C 802.04 -2.08768 -1.07018 0
M  V30 8345 C 803.056 -1.02245 -1.40791 0
M  V30 8346 O 804.232 -1.33873 -1.50466 0
M  V30 8347 C 801.297 -2.54221 -2.35738 0
M  V30 8348 C 800.358 -3.75152 -2.08709 0
M  V30 8349 C 799.591 -4.18428 -3.31291 0
M  V30 8350 O 799.814 -3.61365 -4.4133 0
M  V30 8351 O 798.748 -5.11018 -3.18032 0
M  V30 8352 H 802.574 -2.96334 -0.664812 0
M  V30 8353 H 800.159 -1.47074 -0.262605 0
M  V30 8354 H 802.041 -2.83866 -3.11445 0
M  V30 8355 H 800.716 -1.69774 -2.75605 0
M  V30 8356 H 799.623 -3.50553 -1.30627 0
M  V30 8357 H 800.956 -4.60528 -1.73708 0
M  V30 8358 N 802.608 0.318715 -1.54344 0
M  V30 8359 C 803.885 1.07461 -1.63437 0
M  V30 8360 C 804.265 2.05771 -0.47131 0
M  V30 8361 O 803.613 2.22175 0.53391 0
M  V30 8362 C 803.823 1.77224 -3.00654 0
M  V30 8363 C 805.171 2.30069 -3.56866 0
M  V30 8364 O 806.195 1.87284 -3.0299 0
M  V30 8365 O 805.054 3.08412 -4.51159 0
M  V30 8366 H 802.148 0.495627 -0.66203 0
M  V30 8367 H 804.694 0.318218 -1.6669 0
M  V30 8368 H 803.466 1.05742 -3.76742 0
M  V30 8369 H 803.089 2.59662 -3.01101 0
M  V30 8370 N 804.086 1.46499 0.581025 0
M  V30 8371 C 804.996 1.59778 1.71779 0
M  V30 8372 C 806.012 0.481223 1.67213 0
M  V30 8373 O 807.188 0.74557 1.87091 0
M  V30 8374 C 804.253 1.58626 3.08283 0
M  V30 8375 C 803.314 2.81527 3.241 0
M  V30 8376 C 802.547 2.80421 4.54092 0
M  V30 8377 O 802.77 1.89262 5.38085 0
M  V30 8378 O 801.704 3.71984 4.73193 0
M  V30 8379 H 805.53 2.55918 1.63523 0
M  V30 8380 H 803.115 1.29311 0.748267 0
M  V30 8381 H 804.997 1.60686 3.89561 0
M  V30 8382 H 803.672 0.656467 3.16973 0
M  V30 8383 H 802.579 2.85021 2.42309 0
M  V30 8384 H 803.912 3.73721 3.20302 0
M  V30 8385 N 805.565 -0.825799 1.34232 0
M  V30 8386 C 806.495 -1.95151 1.28212 0
M  V30 8387 C 807.476 -1.69345 0.160123 0
M  V30 8388 O 808.661 -1.90983 0.352019 0
M  V30 8389 C 805.791 -3.31554 1.03388 0
M  V30 8390 C 804.745 -3.71793 2.12023 0
M  V30 8391 C 804.071 -5.06147 1.72392 0
M  V30 8392 C 805.371 -3.84193 3.53826 0
M  V30 8393 H 807.065 -2.00445 2.22401 0
M  V30 8394 H 804.611 -0.962996 1.07063 0
M  V30 8395 H 806.564 -4.09889 0.978225 0
M  V30 8396 H 805.288 -3.26551 0.0564142 0
M  V30 8397 H 803.947 -2.95731 2.16654 0
M  V30 8398 H 803.595 -4.97628 0.733137 0
M  V30 8399 H 803.295 -5.34041 2.451 0
M  V30 8400 H 804.819 -5.86943 1.68317 0
M  V30 8401 H 806.233 -4.52806 3.51624 0
M  V30 8402 H 804.63 -4.23538 4.2513 0
M  V30 8403 H 805.7 -2.86272 3.91377 0
M  V30 8404 N 807.043 -1.17915 -1.04565 0
M  V30 8405 C 808.271 -0.99616 -1.8134 0
M  V30 8406 C 808.686 0.455509 -1.83223 0
M  V30 8407 O 808.043 1.31636 -1.26405 0
M  V30 8408 C 808.094 -1.53758 -3.27171 0
M  V30 8409 O 807.815 -2.93241 -3.25486 0
M  V30 8410 C 809.316 -1.40007 -4.2061 0
M  V30 8411 H 806.536 -0.352055 -0.571225 0
M  V30 8412 H 809.08 -1.56349 -1.31815 0
M  V30 8413 H 807.235 -1.01213 -3.73945 0
M  V30 8414 H 807.649 -3.18392 -4.16805 0
M  V30 8415 H 809.123 -1.82695 -5.2089 0
M  V30 8416 H 809.6 -0.348054 -4.37819 0
M  V30 8417 H 810.206 -1.916 -3.79697 0
M  V30 8418 N 808.521 1.23394 -0.980386 0
M  V30 8419 C 809.484 2.23092 -0.525619 0
M  V30 8420 C 810.484 1.56129 0.384745 0
M  V30 8421 O 811.674 1.73284 0.178439 0
M  V30 8422 C 808.806 3.40074 0.23712 0
M  V30 8423 H 809.999 2.64839 -1.40714 0
M  V30 8424 H 807.552 1.36227 -0.766275 0
M  V30 8425 H 808.287 3.03783 1.13518 0
M  V30 8426 H 808.072 3.89883 -0.416356 0
M  V30 8427 H 809.562 4.14043 0.543892 0
M  V30 8428 N 809.999 0.752036 1.385 0
M  V30 8429 C 810.962 0.131587 2.28822 0
M  V30 8430 C 811.962 -0.649149 1.47115 0
M  V30 8431 O 813.152 -0.475645 1.67581 0
M  V30 8432 C 810.284 -0.822101 3.30839 0
M  V30 8433 H 811.477 0.927551 2.85196 0
M  V30 8434 H 809.03 0.518945 1.47434 0
M  V30 8435 H 809.765 -1.6438 2.79553 0
M  V30 8436 H 809.55 -0.264689 3.91206 0
M  V30 8437 H 811.04 -1.25226 3.98382 0
M  V30 8438 N 811.477 -1.49425 0.500989 0
M  V30 8439 C 812.705 -2.06861 -0.0403443 0
M  V30 8440 C 813.12 -1.36132 -1.30819 0
M  V30 8441 O 812.477 -0.439647 -1.77125 0
M  V30 8442 C 812.528 -3.6027 -0.297902 0
M  V30 8443 O 812.249 -4.28338 0.919686 0
M  V30 8444 C 813.75 -4.34419 -0.882876 0
M  V30 8445 H 810.97 -0.670688 0.0204619 0
M  V30 8446 H 813.514 -1.92207 0.698342 0
M  V30 8447 H 811.669 -3.74627 -0.98657 0
M  V30 8448 H 812.083 -5.2004 0.682528 0
M  V30 8449 H 813.557 -5.42631 -1.01268 0
M  V30 8450 H 814.034 -3.96898 -1.88066 0
M  V30 8451 H 814.64 -4.24669 -0.231677 0
M  V30 8452 N 812.955 -0.234822 -1.55841 0
M  V30 8453 C 814.371 0.120295 -1.59146 0
M  V30 8454 C 814.571 1.57896 -1.25184 0
M  V30 8455 O 813.627 2.32138 -0.993393 0
M  V30 8456 C 814.94 -0.217984 -2.99909 0
M  V30 8457 C 816.488 -0.161298 -3.12584 0
M  V30 8458 C 816.963 -0.473438 -4.55546 0
M  V30 8459 N 818.454 -0.423494 -4.6126 0
M  V30 8460 C 819.189 -0.638334 -5.69836 0
M  V30 8461 N 818.685 -0.915659 -6.86722 0
M  V30 8462 N 820.478 -0.569864 -5.59204 0
M  V30 8463 H 812.629 -1.18622 -1.76189 0
M  V30 8464 H 814.892 -0.476426 -0.819587 0
M  V30 8465 H 814.598 -1.2309 -3.29457 0
M  V30 8466 H 814.472 0.460707 -3.74376 0
M  V30 8467 H 816.859 0.842274 -2.82825 0
M  V30 8468 H 816.94 -0.873661 -2.40418 0
M  V30 8469 H 816.584 -1.47451 -4.86025 0
M  V30 8470 H 816.514 0.260268 -5.25956 0
M  V30 8471 H 819.005 -0.217383 -3.77274 0
M  V30 8472 H 819.318 -1.06734 -7.65394 0
M  V30 8473 H 817.663 -0.953 -6.88435 0
M  V30 8474 H 820.854 -0.35334 -4.66765 0
M  V30 8475 H 821.027 -0.740698 -6.43753 0
M  V30 8476 N 814.433 1.57553 0.0384317 0
M  V30 8477 C 815.396 2.04927 1.02653 0
M  V30 8478 C 816.396 0.951768 1.29607 0
M  V30 8479 O 817.586 1.21568 1.24768 0
M  V30 8480 C 814.718 2.45828 2.36181 0
M  V30 8481 H 815.911 2.93474 0.617508 0
M  V30 8482 H 813.464 1.53679 0.285031 0
M  V30 8483 H 814.199 1.60408 2.8185 0
M  V30 8484 H 813.984 3.25945 2.1795 0
M  V30 8485 H 815.474 2.82939 3.0714 0
M  V30 8486 N 815.911 -0.310526 1.54511 0
M  V30 8487 C 816.841 -1.38757 1.878 0
M  V30 8488 C 817.822 -1.53353 0.735991 0
M  V30 8489 O 819.007 -1.67018 0.990887 0
M  V30 8490 C 816.137 -2.75327 2.11689 0
M  V30 8491 C 815.091 -2.75506 3.27537 0
M  V30 8492 C 814.417 -4.15275 3.36824 0
M  V30 8493 C 815.717 -2.38093 4.64875 0
M  V30 8494 H 817.411 -1.11146 2.78005 0
M  V30 8495 H 814.957 -0.533232 1.33763 0
M  V30 8496 H 816.91 -3.50752 2.33562 0
M  V30 8497 H 815.634 -3.04443 1.18245 0
M  V30 8498 H 814.293 -2.02538 3.05572 0
M  V30 8499 H 813.941 -4.41553 2.40915 0
M  V30 8500 H 813.641 -4.16299 4.14692 0
M  V30 8501 H 815.165 -4.92493 3.60947 0
M  V30 8502 H 816.579 -3.03232 4.86542 0
M  V30 8503 H 814.976 -2.50345 5.45387 0
M  V30 8504 H 816.046 -1.33227 4.66239 0
M  V30 8505 N 817.389 -1.46805 -0.573248 0
M  V30 8506 C 818.666 -1.43082 -1.33368 0
M  V30 8507 C 819.046 -0.119252 -2.10763 0
M  V30 8508 O 818.394 0.899239 -2.10062 0
M  V30 8509 C 818.604 -2.66643 -2.25172 0
M  V30 8510 C 819.952 -3.13188 -2.86702 0
M  V30 8511 O 820.976 -2.67258 -2.35482 0
M  V30 8512 O 819.835 -3.92994 -3.79761 0
M  V30 8513 H 816.929 -0.569451 -0.599712 0
M  V30 8514 H 819.475 -1.58984 -0.59348 0
M  V30 8515 H 818.247 -3.53649 -1.67475 0
M  V30 8516 H 817.87 -2.53247 -3.06516 0
M  V30 8517 N 818.867 0.818669 -1.34668 0
M  V30 8518 C 820.283 1.11243 -1.14443 0
M  V30 8519 C 820.483 2.01435 0.0512212 0
M  V30 8520 O 819.539 2.41854 0.725471 0
M  V30 8521 C 820.852 1.75504 -2.4417 0
M  V30 8522 C 822.4 1.8798 -2.50265 0
M  V30 8523 C 822.875 2.55657 -3.80004 0
M  V30 8524 N 824.366 2.63153 -3.81189 0
M  V30 8525 C 825.101 3.16258 -4.78298 0
M  V30 8526 N 824.597 3.69893 -5.85791 0
M  V30 8527 N 826.39 3.14698 -4.65748 0
M  V30 8528 H 818.541 0.218848 -2.1127 0
M  V30 8529 H 820.804 0.159655 -0.934459 0
M  V30 8530 H 820.51 1.16697 -3.31775 0
M  V30 8531 H 820.384 2.75329 -2.57825 0
M  V30 8532 H 822.771 2.45934 -1.63096 0
M  V30 8533 H 822.852 0.870447 -2.40535 0
M  V30 8534 H 822.496 1.98356 -4.67565 0
M  V30 8535 H 822.426 3.57105 -3.87019 0
M  V30 8536 H 824.917 2.2514 -3.03513 0
M  V30 8537 H 825.23 4.08678 -6.55898 0
M  V30 8538 H 823.575 3.68125 -5.89499 0
M  V30 8539 H 826.766 2.72066 -3.80917 0
M  V30 8540 H 826.939 3.5578 -5.41594 0
M  V30 8541 N 820.346 1.18468 1.03938 0
M  V30 8542 C 821.592 0.982286 1.77423 0
M  V30 8543 C 821.925 -0.48679 1.88 0
M  V30 8544 O 821.2 -1.36146 1.38905 0
M  V30 8545 C 821.483 1.63929 3.20623 0
M  V30 8546 C 821.336 3.18132 3.17982 0
M  V30 8547 C 822.655 1.3536 4.18767 0
M  V30 8548 H 819.774 0.358264 0.644062 0
M  V30 8549 H 822.416 1.46154 1.21405 0
M  V30 8550 H 820.566 1.2318 3.68455 0
M  V30 8551 H 822.238 3.68024 2.78129 0
M  V30 8552 H 820.481 3.50225 2.55978 0
M  V30 8553 H 821.152 3.5924 4.19107 0
M  V30 8554 H 823.628 1.70669 3.79488 0
M  V30 8555 H 822.504 1.83896 5.17178 0
M  V30 8556 H 822.765 0.276722 4.41233 0
M  V30 8557 N 821.824 -1.22873 0.986916 0
M  V30 8558 C 822.754 -2.2688 0.552064 0
M  V30 8559 C 823.735 -1.64883 -0.418048 0
M  V30 8560 O 824.92 -1.9171 -0.30999 0
M  V30 8561 C 822.05 -3.47018 -0.139959 0
M  V30 8562 C 821.004 -4.21411 0.748091 0
M  V30 8563 C 820.33 -5.34645 -0.0765132 0
M  V30 8564 C 821.63 -4.80726 2.04206 0
M  V30 8565 H 823.324 -2.63507 1.42143 0
M  V30 8566 H 820.87 -1.26668 0.68492 0
M  V30 8567 H 822.823 -4.18931 -0.455527 0
M  V30 8568 H 821.547 -3.0947 -1.04382 0
M  V30 8569 H 820.206 -3.51325 1.04721 0
M  V30 8570 H 819.854 -4.93339 -0.981109 0
M  V30 8571 H 819.554 -5.85342 0.514606 0
M  V30 8572 H 821.078 -6.09377 -0.386313 0
M  V30 8573 H 822.492 -5.44612 1.79083 0
M  V30 8574 H 820.889 -5.41737 2.5815 0
M  V30 8575 H 821.959 -4.01109 2.72469 0
M  V30 8576 N 823.302 -0.75937 -1.38099 0
M  V30 8577 C 824.53 -0.329111 -2.04266 0
M  V30 8578 C 824.945 1.04453 -1.57274 0
M  V30 8579 O 824.302 1.66449 -0.748397 0
M  V30 8580 C 824.353 -0.349192 -3.5981 0
M  V30 8581 O 824.074 -1.66863 -4.05078 0
M  V30 8582 C 825.575 0.0942106 -4.432 0
M  V30 8583 H 822.795 -0.13971 -0.656294 0
M  V30 8584 H 825.339 -1.02984 -1.76677 0
M  V30 8585 H 823.494 0.302846 -3.86214 0
M  V30 8586 H 823.908 -1.59877 -4.9954 0
M  V30 8587 H 825.382 0.0290004 -5.51992 0
M  V30 8588 H 825.859 1.1429 -4.24069 0
M  V30 8589 H 826.465 -0.529171 -4.21995 0
M  V30 8590 N 824.78 1.49157 -0.508906 0
M  V30 8591 C 825.743 2.27784 0.25434 0
M  V30 8592 C 826.743 1.34132 0.88686 0
M  V30 8593 O 827.933 1.5722 0.750168 0
M  V30 8594 C 825.065 3.12347 1.36573 0
M  V30 8595 H 826.258 2.96718 -0.435714 0
M  V30 8596 H 823.811 1.54052 -0.264128 0
M  V30 8597 H 824.546 2.47997 2.08969 0
M  V30 8598 H 824.331 3.81213 0.917543 0
M  V30 8599 H 825.821 3.71712 1.90315 0
M  V30 8600 N 826.258 0.243083 1.55714 0
M  V30 8601 C 827.506 -0.381964 1.98458 0
M  V30 8602 C 827.827 -1.58745 1.13247 0
M  V30 8603 O 827.097 -1.94723 0.214384 0
M  V30 8604 H 825.677 -0.144114 0.732967 0
M  V30 8605 H 828.339 0.340985 1.91894 0
M  V30 8606 H 827.435 -0.693702 3.04293 0
M  V30 8607 N 827.736 -1.57571 -0.0300757 0
M  V30 8608 C 829.152 -1.54869 -0.385703 0
M  V30 8609 C 829.352 -0.969068 -1.76667 0
M  V30 8610 O 828.408 -0.589676 -2.45518 0
M  V30 8611 C 829.721 -2.99313 -0.288482 0
M  V30 8612 C 831.269 -3.10857 -0.365638 0
M  V30 8613 C 831.744 -4.5703 -0.297878 0
M  V30 8614 N 833.235 -4.61825 -0.356703 0
M  V30 8615 C 833.97 -5.72466 -0.327146 0
M  V30 8616 N 833.466 -6.92349 -0.249941 0
M  V30 8617 N 835.259 -5.60836 -0.376801 0
M  V30 8618 H 827.41 -1.936 0.87367 0
M  V30 8619 H 829.673 -0.887924 0.332106 0
M  V30 8620 H 829.379 -3.45443 0.66047 0
M  V30 8621 H 829.253 -3.61332 -1.08253 0
M  V30 8622 H 831.64 -2.64676 -1.30502 0
M  V30 8623 H 831.721 -2.51671 0.457744 0
M  V30 8624 H 831.365 -5.03879 0.637835 0
M  V30 8625 H 831.295 -5.14127 -1.13935 0
M  V30 8626 H 833.786 -3.75571 -0.418926 0
M  V30 8627 H 834.099 -7.7245 -0.23246 0
M  V30 8628 H 832.444 -6.94664 -0.216004 0
M  V30 8629 H 835.635 -4.66073 -0.435101 0
M  V30 8630 H 835.808 -6.47052 -0.350298 0
M  V30 8631 N 829.214 0.302327 -1.54673 0
M  V30 8632 C 830.444 1.05516 -1.77623 0
M  V30 8633 C 830.852 1.81474 -0.535159 0
M  V30 8634 O 830.195 1.76635 0.504543 0
M  V30 8635 C 830.257 2.08305 -2.93001 0
M  V30 8636 C 829.921 1.51554 -4.31139 0
M  V30 8637 C 830.918 0.946261 -5.11216 0
M  V30 8638 C 828.603 1.55157 -4.77736 0
M  V30 8639 C 830.597 0.420559 -6.36011 0
M  V30 8640 C 828.284 1.022 -6.02494 0
M  V30 8641 C 829.282 0.457461 -6.81466 0
M  V30 8642 O 828.97 -0.064083 -8.03874 0
M  V30 8643 H 828.702 0.318756 -0.59613 0
M  V30 8644 H 831.256 0.347558 -2.02438 0
M  V30 8645 H 829.486 2.82742 -2.63807 0
M  V30 8646 H 831.175 2.69479 -3.03539 0
M  V30 8647 H 831.941 0.911338 -4.76361 0
M  V30 8648 H 827.82 1.98037 -4.16296 0
M  V30 8649 H 831.364 -0.0207298 -6.97597 0
M  V30 8650 H 827.261 1.05406 -6.36836 0
M  V30 8651 H 828.029 0.0493422 -8.18485 0
M  V30 8652 N 830.692 1.47107 0.565454 0
M  V30 8653 C 831.938 1.53535 1.32495 0
M  V30 8654 C 832.271 0.193537 1.93233 0
M  V30 8655 O 831.546 -0.796956 1.77423 0
M  V30 8656 C 831.829 2.64712 2.4413 0
M  V30 8657 C 831.682 4.08482 1.88314 0
M  V30 8658 C 833.001 2.71853 3.46098 0
M  V30 8659 H 830.12 0.558926 0.480386 0
M  V30 8660 H 832.762 1.79125 0.633575 0
M  V30 8661 H 830.912 2.43023 3.03104 0
M  V30 8662 H 832.584 4.4151 1.33665 0
M  V30 8663 H 830.827 4.17148 1.19037 0
M  V30 8664 H 831.498 4.82032 2.68978 0
M  V30 8665 H 833.974 2.91397 2.97031 0
M  V30 8666 H 832.85 3.51433 4.21646 0
M  V30 8667 H 833.111 1.78584 4.04426 0
M  V30 8668 N 832.17 -0.811516 1.35101 0
M  V30 8669 C 833.419 -1.56343 1.27435 0
M  V30 8670 C 833.732 -1.95019 -0.150696 0
M  V30 8671 O 834.938 -2.6924 -0.349586 0
M  V30 8672 C 833.394 -2.82124 2.23459 0
M  V30 8673 C 833.002 -2.50706 3.71283 0
M  V30 8674 C 834.746 -3.60137 2.24726 0
M  V30 8675 C 832.653 -3.72748 4.59143 0
M  V30 8676 H 831.583 -0.58682 0.473453 0
M  V30 8677 H 834.234 -0.892465 1.60335 0
M  V30 8678 H 832.616 -3.50905 1.83525 0
M  V30 8679 H 833.79 -1.89962 4.19823 0
M  V30 8680 H 832.105 -1.85947 3.72576 0
M  V30 8681 H 834.702 -4.50775 2.87587 0
M  V30 8682 H 835.045 -3.97101 1.24965 0
M  V30 8683 H 835.578 -2.98311 2.63164 0
M  V30 8684 H 832.317 -3.40896 5.59884 0
M  V30 8685 H 831.837 -4.32735 4.15332 0
M  V30 8686 H 833.516 -4.40033 4.74321 0
M  V30 8687 N 833.648 -1.19017 -1.03309 0
M  V30 8688 C 835.059 -0.993206 -1.5809 0
M  V30 8689 C 835.41 0.45505 -1.9085 0
M  V30 8690 O 834.535 1.33372 -1.70414 0
M  V30 8691 C 835.13 -1.79661 -2.87241 0
M  V30 8692 C 833.689 -1.64377 -3.38611 0
M  V30 8693 C 832.836 -1.78628 -2.12102 0
M  V30 8694 H 835.787 -1.3345 -0.858879 0
M  V30 8695 H 835.808 -1.29019 -3.57958 0
M  V30 8696 H 835.32 -2.85061 -2.63366 0
M  V30 8697 H 833.421 -0.615447 -3.67482 0
M  V30 8698 H 833.534 -2.44651 -4.11926 0
M  V30 8699 H 831.898 -1.21648 -2.23772 0
M  V30 8700 H 832.681 -2.8548 -1.90673 0
M  V30 8701 N 835.127 1.22348 -0.993418 0
M  V30 8702 C 836.376 1.90422 -0.665019 0
M  V30 8703 C 836.689 1.78199 0.806512 0
M  V30 8704 O 837.895 2.41193 1.24652 0
M  V30 8705 C 836.351 3.41403 -1.13893 0
M  V30 8706 C 835.959 3.62262 -2.63572 0
M  V30 8707 C 837.703 4.15175 -0.884884 0
M  V30 8708 C 835.61 5.06947 -3.04564 0
M  V30 8709 H 834.54 0.713073 -0.245037 0
M  V30 8710 H 837.191 1.3856 -1.20305 0
M  V30 8711 H 835.573 3.9245 -0.529027 0
M  V30 8712 H 836.747 3.21705 -3.29913 0
M  V30 8713 H 835.062 3.01824 -2.86865 0
M  V30 8714 H 837.659 5.21813 -1.16684 0
M  V30 8715 H 838.002 4.15915 0.178982 0
M  V30 8716 H 838.535 3.70157 -1.45701 0
M  V30 8717 H 835.274 5.11346 -4.10128 0
M  V30 8718 H 834.794 5.48404 -2.42927 0
M  V30 8719 H 836.473 5.75374 -2.95894 0
M  V30 8720 N 836.605 0.766683 1.37694 0
M  V30 8721 C 837.851 0.338201 2.00569 0
M  V30 8722 C 838.206 -1.07196 1.59771 0
M  V30 8723 O 837.499 -1.72622 0.831402 0
M  V30 8724 C 837.693 0.413831 3.54996 0
M  V30 8725 C 837.522 1.8298 4.1079 0
M  V30 8726 C 836.292 2.44932 4.41969 0
M  V30 8727 C 838.49 2.78852 4.32141 0
M  V30 8728 N 836.472 3.78353 4.83448 0
M  V30 8729 C 837.843 3.97063 4.76174 0
M  V30 8730 C 839.898 2.76205 4.14265 0
M  V30 8731 C 838.601 5.13003 5.04203 0
M  V30 8732 C 840.627 3.91314 4.43427 0
M  V30 8733 C 839.989 5.08265 4.87694 0
M  V30 8734 H 836.088 0.170693 0.763143 0
M  V30 8735 H 838.672 0.999435 1.67091 0
M  V30 8736 H 836.843 -0.217198 3.87792 0
M  V30 8737 H 838.575 -0.036222 4.04684 0
M  V30 8738 H 835.33 1.9659 4.3087 0
M  V30 8739 H 835.754 4.46937 5.08504 0
M  V30 8740 H 840.396 1.86962 3.79216 0
M  V30 8741 H 838.114 6.0285 5.38142 0
M  V30 8742 H 841.7 3.906 4.31187 0
M  V30 8743 H 840.58 5.95858 5.09827 0
M  V30 8744 N 838.083 -1.48885 0.516809 0
M  V30 8745 C 839.499 -1.58651 0.173788 0
M  V30 8746 C 839.699 -1.52033 -1.32243 0
M  V30 8747 O 838.755 -1.40251 -2.09967 0
M  V30 8748 C 840.068 -2.90816 0.764628 0
M  V30 8749 C 841.616 -3.04316 0.732164 0
M  V30 8750 C 842.091 -4.39123 1.30135 0
M  V30 8751 N 843.582 -4.45656 1.26273 0
M  V30 8752 C 844.317 -5.48446 1.67317 0
M  V30 8753 N 843.813 -6.58258 2.16028 0
M  V30 8754 N 845.606 -5.39251 1.58635 0
M  V30 8755 H 837.757 -1.5143 1.48939 0
M  V30 8756 H 840.02 -0.718243 0.618733 0
M  V30 8757 H 839.726 -3.01275 1.81456 0
M  V30 8758 H 839.6 -3.76473 0.234113 0
M  V30 8759 H 841.987 -2.93478 -0.308975 0
M  V30 8760 H 842.068 -2.20303 1.3 0
M  V30 8761 H 841.712 -4.50714 2.34135 0
M  V30 8762 H 841.642 -5.21801 0.709305 0
M  V30 8763 H 844.133 -3.66879 0.906006 0
M  V30 8764 H 844.446 -7.32811 2.45374 0
M  V30 8765 H 842.791 -6.59257 2.20013 0
M  V30 8766 H 845.982 -4.52354 1.20387 0
M  V30 8767 H 846.155 -6.19229 1.90944 0
M  V30 8768 N 839.561 -0.251338 -1.55583 0
M  V30 8769 C 840.808 0.372169 -1.99051 0
M  V30 8770 C 841.136 1.57623 -1.13953 0
M  V30 8771 O 840.391 1.94762 -0.191398 0
M  V30 8772 C 840.69 0.821186 -3.47838 0
M  V30 8773 C 840.356 -0.275608 -4.50057 0
M  V30 8774 C 839.018 -0.57683 -4.7773 0
M  V30 8775 C 841.37 -1.01585 -5.11204 0
M  V30 8776 C 838.698 -1.62229 -5.63825 0
M  V30 8777 C 841.05 -2.05087 -5.98433 0
M  V30 8778 C 839.714 -2.35869 -6.24437 0
M  V30 8779 H 838.984 0.136186 -0.728378 0
M  V30 8780 H 841.631 -0.360089 -1.88084 0
M  V30 8781 H 839.936 1.63272 -3.56159 0
M  V30 8782 H 841.633 1.31396 -3.78861 0
M  V30 8783 H 838.223 -0.030697 -4.28589 0
M  V30 8784 H 842.407 -0.79639 -4.89869 0
M  V30 8785 H 837.663 -1.86607 -5.82226 0
M  V30 8786 H 841.837 -2.62934 -6.44855 0
M  V30 8787 H 839.464 -3.17017 -6.90944 0
M  V30 8788 N 841.039 1.57585 0.0217189 0
M  V30 8789 C 842.316 1.80779 0.74687 0
M  V30 8790 C 842.696 0.851163 1.9318 0
M  V30 8791 O 842.044 -0.105039 2.28258 0
M  V30 8792 C 842.254 3.28696 1.17302 0
M  V30 8793 C 843.602 3.93871 1.58589 0
M  V30 8794 O 844.626 3.3289 1.2674 0
M  V30 8795 O 843.485 5.01254 2.1773 0
M  V30 8796 H 840.579 0.743666 0.361786 0
M  V30 8797 H 843.125 1.697 -0.00206785 0
M  V30 8798 H 841.897 3.89927 0.327453 0
M  V30 8799 H 841.52 3.44692 1.98174 0
M  V30 8800 N 842.517 -0.29412 1.54831 0
M  V30 8801 C 843.763 -1.02999 1.74697 0
M  V30 8802 C 844.096 -1.86687 0.534949 0
M  V30 8803 O 843.371 -1.88789 -0.467863 0
M  V30 8804 C 843.654 -1.93024 3.03996 0
M  V30 8805 C 843.507 -1.1247 4.35512 0
M  V30 8806 C 844.826 -2.92085 3.29203 0
M  V30 8807 H 841.945 -0.373039 0.635618 0
M  V30 8808 H 844.587 -0.304065 1.87551 0
M  V30 8809 H 842.737 -2.5492 2.93169 0
M  V30 8810 H 844.409 -0.528067 4.58268 0
M  V30 8811 H 842.652 -0.427574 4.31688 0
M  V30 8812 H 843.323 -1.78728 5.22265 0
M  V30 8813 H 845.799 -2.40319 3.39685 0
M  V30 8814 H 844.675 -3.52234 4.20978 0
M  V30 8815 H 844.936 -3.66107 2.47827 0
M  V30 8816 N 843.995 -1.47404 -0.557645 0
M  V30 8817 C 845.243 -1.53703 -1.31224 0
M  V30 8818 C 845.564 -0.200742 -1.93964 0
M  V30 8819 O 844.834 0.775253 -1.79907 0
M  V30 8820 H 843.414 -0.566171 -0.487299 0
M  V30 8821 H 846.076 -1.83699 -0.651195 0
M  V30 8822 H 845.172 -2.30335 -2.10599 0
M  V30 8823 N 845.473 0.80434 -1.35529 0
M  V30 8824 C 846.889 1.10023 -1.15616 0
M  V30 8825 C 847.089 2.01478 0.0298535 0
M  V30 8826 O 846.145 2.42609 0.699778 0
M  V30 8827 C 847.458 1.72905 -2.46017 0
M  V30 8828 C 849.006 1.85315 -2.52245 0
M  V30 8829 C 849.481 2.51612 -3.82695 0
M  V30 8830 N 850.972 2.59095 -3.83958 0
M  V30 8831 C 851.707 3.11167 -4.81625 0
M  V30 8832 N 851.203 3.63659 -5.89681 0
M  V30 8833 N 852.996 3.09741 -4.6906 0
M  V30 8834 H 845.147 0.196428 -2.1149 0
M  V30 8835 H 847.41 0.149735 -0.9361 0
M  V30 8836 H 847.116 1.13171 -3.32994 0
M  V30 8837 H 846.99 2.72579 -2.6073 0
M  V30 8838 H 849.377 2.44191 -1.65695 0
M  V30 8839 H 849.458 0.844886 -2.41444 0
M  V30 8840 H 849.102 1.93385 -4.69643 0
M  V30 8841 H 849.032 3.5298 -3.90785 0
M  V30 8842 H 851.523 2.21908 -3.05884 0
M  V30 8843 H 851.836 4.01699 -6.60195 0
M  V30 8844 H 850.181 3.61852 -5.9337 0
M  V30 8845 H 853.372 2.68011 -3.83781 0
M  V30 8846 H 853.545 3.50016 -5.45338 0
M  V30 8847 N 846.951 1.19563 1.02676 0
M  V30 8848 C 848.2 0.993864 1.75514 0
M  V30 8849 C 848.513 -0.475882 1.89723 0
M  V30 8850 O 849.719 -0.796525 2.59553 0
M  V30 8851 C 848.175 1.72937 3.15628 0
M  V30 8852 C 847.783 3.23937 3.09466 0
M  V30 8853 C 849.527 1.61092 3.92746 0
M  V30 8854 C 847.434 3.90067 4.44524 0
M  V30 8855 H 846.364 0.368244 0.657961 0
M  V30 8856 H 849.015 1.43081 1.14891 0
M  V30 8857 H 847.397 1.22025 3.76731 0
M  V30 8858 H 848.571 3.81983 2.57731 0
M  V30 8859 H 846.886 3.3608 2.45843 0
M  V30 8860 H 849.483 2.07848 4.92649 0
M  V30 8861 H 849.826 0.565415 4.12442 0
M  V30 8862 H 850.359 2.09361 3.3825 0
M  V30 8863 H 847.098 4.94725 4.30032 0
M  V30 8864 H 846.618 3.36809 4.96306 0
M  V30 8865 H 848.297 3.93736 5.13401 0
M  V30 8866 N 848.429 -1.21819 0.999893 0
M  V30 8867 C 849.392 -2.22227 0.561044 0
M  V30 8868 C 850.392 -1.56722 -0.359858 0
M  V30 8869 O 851.582 -1.73546 -0.150848 0
M  V30 8870 C 848.714 -3.40409 -0.182987 0
M  V30 8871 H 849.907 -2.62567 1.44909 0
M  V30 8872 H 847.46 -1.34991 0.78785 0
M  V30 8873 H 848.195 -3.05551 -1.08671 0
M  V30 8874 H 847.98 -3.89171 0.47833 0
M  V30 8875 H 849.47 -4.14856 -0.477952 0
M  V30 8876 N 849.908 -0.773975 -1.37286 0
M  V30 8877 C 850.858 -0.135245 -2.27599 0
M  V30 8878 C 851.842 0.671691 -1.46209 0
M  V30 8879 O 853.034 0.534299 -1.68743 0
M  V30 8880 C 850.163 0.741298 -3.35201 0
M  V30 8881 C 849.249 -0.0735896 -4.24036 0
M  V30 8882 N 849.64 -1.12035 -4.93236 0
M  V30 8883 C 847.938 0.150038 -4.45748 0
M  V30 8884 C 848.639 -1.61512 -5.58828 0
M  V30 8885 N 847.615 -0.926922 -5.35639 0
M  V30 8886 H 851.417 -0.936646 -2.78575 0
M  V30 8887 H 848.931 -0.611944 -1.50429 0
M  V30 8888 H 850.928 1.21468 -3.98812 0
M  V30 8889 H 849.588 1.54142 -2.8578 0
M  V30 8890 H 850.599 -1.50253 -4.95625 0
M  V30 8891 H 847.276 0.921891 -4.07195 0
M  V30 8892 H 848.666 -2.48818 -6.24131 0
M  V30 8893 N 851.386 1.48609 -0.524698 0
M  V30 8894 C 852.635 2.01696 0.0132937 0
M  V30 8895 C 852.948 1.40751 1.35825 0
M  V30 8896 O 854.154 1.85304 1.9843 0
M  V30 8897 C 852.61 3.59824 0.0741012 0
M  V30 8898 C 852.218 4.2975 -1.26564 0
M  V30 8899 C 853.962 4.20774 0.5612 0
M  V30 8900 C 851.869 5.79798 -1.16571 0
M  V30 8901 H 850.799 0.753949 0.00873931 0
M  V30 8902 H 853.45 1.70922 -0.667684 0
M  V30 8903 H 851.832 3.87416 0.820043 0
M  V30 8904 H 853.006 4.13836 -2.02674 0
M  V30 8905 H 851.321 3.80649 -1.68806 0
M  V30 8906 H 853.918 5.30687 0.653853 0
M  V30 8907 H 854.261 3.85734 1.56573 0
M  V30 8908 H 854.794 3.97591 -0.128901 0
M  V30 8909 H 851.533 6.19403 -2.14523 0
M  V30 8910 H 851.053 5.9814 -0.445894 0
M  V30 8911 H 852.732 6.41337 -0.854186 0
M  V30 8912 N 852.864 0.259585 1.55447 0
M  V30 8913 C 854.28 -0.094961 1.59317 0
M  V30 8914 C 854.48 -1.55884 1.2768 0
M  V30 8915 O 853.536 -2.30528 1.0302 0
M  V30 8916 C 854.849 0.265669 2.99524 0
M  V30 8917 C 856.397 0.211007 3.12288 0
M  V30 8918 C 856.872 0.545851 4.54736 0
M  V30 8919 N 858.363 0.496823 4.60528 0
M  V30 8920 C 859.098 0.728909 5.68748 0
M  V30 8921 N 858.594 1.02479 6.85179 0
M  V30 8922 N 860.387 0.658756 5.58226 0
M  V30 8923 H 852.538 1.2141 1.7428 0
M  V30 8924 H 854.801 0.489404 0.811904 0
M  V30 8925 H 854.507 1.28316 3.27457 0
M  V30 8926 H 854.381 -0.401089 3.75061 0
M  V30 8927 H 856.768 -0.797172 2.84129 0
M  V30 8928 H 856.849 0.911799 2.38998 0
M  V30 8929 H 856.493 1.55164 4.83618 0
M  V30 8930 H 856.423 -0.17656 5.26304 0
M  V30 8931 H 858.914 0.277376 3.76881 0
M  V30 8932 H 859.227 1.18897 7.63599 0
M  V30 8933 H 857.572 1.0624 6.86832 0
M  V30 8934 H 860.763 0.427553 4.66143 0
M  V30 8935 H 860.936 0.84302 6.42493 0
M  V30 8936 N 854.342 -1.57594 -0.0133615 0
M  V30 8937 C 855.274 -2.04402 -1.03695 0
M  V30 8938 C 856.287 -0.959546 -1.31516 0
M  V30 8939 O 857.476 -1.23659 -1.28727 0
M  V30 8940 C 854.576 -2.41766 -2.37491 0
M  V30 8941 C 853.749 -3.72785 -2.28802 0
M  V30 8942 C 852.808 -3.97165 -3.45176 0
M  V30 8943 O 851.834 -4.68013 -3.23963 0
M  V30 8944 N 853.036 -3.44021 -4.67579 0
M  V30 8945 H 855.801 -2.92833 -0.637874 0
M  V30 8946 H 853.362 -1.60647 -0.20101 0
M  V30 8947 H 855.354 -2.55201 -3.14093 0
M  V30 8948 H 853.924 -1.58924 -2.69188 0
M  V30 8949 H 853.144 -3.69555 -1.37197 0
M  V30 8950 H 854.432 -4.58704 -2.20154 0
M  V30 8951 H 853.83 -2.86623 -4.87713 0
M  V30 8952 H 852.387 -3.62808 -5.41492 0
M  V30 8953 N 855.82 0.285905 -1.54985 0
M  V30 8954 C 856.75 1.35752 -1.89983 0
M  V30 8955 C 857.731 1.52163 -0.760295 0
M  V30 8956 O 858.916 1.65421 -1.01733 0
M  V30 8957 C 856.046 2.71925 -2.16042 0
M  V30 8958 C 855 2.70261 -3.31878 0
M  V30 8959 C 854.326 4.09864 -3.43388 0
M  V30 8960 C 855.626 2.30667 -4.68604 0
M  V30 8961 H 857.32 1.06709 -2.79738 0
M  V30 8962 H 854.866 0.511884 -1.34595 0
M  V30 8963 H 856.819 3.46992 -2.39113 0
M  V30 8964 H 855.543 3.02523 -1.23074 0
M  V30 8965 H 854.202 1.97651 -3.08755 0
M  V30 8966 H 853.85 4.37664 -2.47909 0
M  V30 8967 H 853.55 4.09648 -4.21262 0
M  V30 8968 H 855.074 4.86689 -3.68736 0
M  V30 8969 H 856.488 2.95453 -4.91305 0
M  V30 8970 H 854.885 2.41637 -5.49301 0
M  V30 8971 H 855.955 1.25793 -4.68299 0
M  V30 8972 N 857.298 1.47698 0.54982 0
M  V30 8973 C 858.714 1.3338 0.876468 0
M  V30 8974 C 858.914 0.329837 1.98782 0
M  V30 8975 O 857.97 -0.256022 2.51199 0
M  V30 8976 C 859.283 2.72903 1.26272 0
M  V30 8977 C 860.831 2.81243 1.37373 0
M  V30 8978 C 861.306 4.21423 1.79351 0
M  V30 8979 N 862.797 4.24 1.86489 0
M  V30 8980 C 863.532 5.29386 2.20313 0
M  V30 8981 N 863.028 6.4507 2.527 0
M  V30 8982 N 864.821 5.16768 2.2115 0
M  V30 8983 H 856.972 2.11603 -0.183781 0
M  V30 8984 H 859.235 0.947798 -0.0195601 0
M  V30 8985 H 858.941 3.47836 0.519889 0
M  V30 8986 H 858.815 3.05151 2.21727 0
M  V30 8987 H 861.202 2.06577 2.10737 0
M  V30 8988 H 861.283 2.52639 0.400882 0
M  V30 8989 H 860.927 4.96597 1.06555 0
M  V30 8990 H 860.857 4.47456 2.77652 0
M  V30 8991 H 863.348 3.40547 1.63817 0
M  V30 8992 H 863.661 7.21236 2.77557 0
M  V30 8993 H 862.006 6.48377 2.50263 0
M  V30 8994 H 865.197 4.25416 1.95293 0
M  V30 8995 H 865.37 5.99004 2.4718 0
M  V30 8996 N 858.776 -0.797141 1.35954 0
M  V30 8997 C 860.023 -1.55468 1.29754 0
M  V30 8998 C 860.351 -1.94095 -0.125391 0
M  V30 8999 O 859.606 -1.62341 -1.09288 0
M  V30 9000 C 859.905 -2.84847 2.15863 0
M  V30 9001 C 859.571 -2.65394 3.64523 0
M  V30 9002 C 858.233 -2.59796 4.05042 0
M  V30 9003 C 860.585 -2.4727 4.58811 0
M  V30 9004 C 857.913 -2.3403 5.38002 0
M  V30 9005 C 860.265 -2.23032 5.91979 0
M  V30 9006 C 858.929 -2.15862 6.31633 0
M  V30 9007 H 858.199 -0.568897 0.474803 0
M  V30 9008 H 860.846 -0.920299 1.67937 0
M  V30 9009 H 859.151 -3.52712 1.70591 0
M  V30 9010 H 860.848 -3.42597 2.08395 0
M  V30 9011 H 857.438 -2.70602 3.32374 0
M  V30 9012 H 861.622 -2.506 4.28384 0
M  V30 9013 H 856.878 -2.26956 5.67715 0
M  V30 9014 H 861.052 -2.08001 6.64612 0
M  V30 9015 H 858.679 -1.9566 7.34589 0
M  V30 9016 N 860.254 -1.20106 -1.0204 0
M  V30 9017 C 861.665 -1.00992 -1.57027 0
M  V30 9018 C 862.016 0.434782 -1.91322 0
M  V30 9019 O 861.141 1.31557 -1.71819 0
M  V30 9020 C 861.736 -1.82697 -2.85319 0
M  V30 9021 C 860.295 -1.67959 -3.36848 0
M  V30 9022 C 859.442 -1.80868 -2.10195 0
M  V30 9023 H 862.393 -1.34354 -0.844676 0
M  V30 9024 H 862.414 -1.32809 -3.5657 0
M  V30 9025 H 861.926 -2.87839 -2.60328 0
M  V30 9026 H 860.027 -0.654389 -3.66809 0
M  V30 9027 H 860.14 -2.49006 -4.09308 0
M  V30 9028 H 858.504 -1.24015 -2.22469 0
M  V30 9029 H 859.287 -2.87486 -1.87635 0
M  V30 9030 N 861.732 1.21287 -1.00634 0
M  V30 9031 C 863.143 1.72136 -0.722914 0
M  V30 9032 C 863.494 1.8091 0.759338 0
M  V30 9033 O 862.619 1.46458 1.59308 0
M  V30 9034 C 863.214 3.12633 -1.30561 0
M  V30 9035 C 861.773 3.60833 -1.07127 0
M  V30 9036 C 860.92 2.38326 -1.4176 0
M  V30 9037 H 863.871 1.06445 -1.17708 0
M  V30 9038 H 863.892 3.74174 -0.690937 0
M  V30 9039 H 863.404 3.06215 -2.38441 0
M  V30 9040 H 861.505 3.72599 -0.00968671 0
M  V30 9041 H 861.618 4.46226 -1.74411 0
M  V30 9042 H 859.982 2.40575 -0.836412 0
M  V30 9043 H 860.765 2.34558 -2.50674 0
M  V30 9044 N 863.21 0.781244 1.36873 0
M  V30 9045 C 864.158 0.161889 2.32036 0
M  V30 9046 C 865.152 -0.674225 1.55405 0
M  V30 9047 O 866.358 -0.570223 1.70729 0
M  V30 9048 H 862.733 0.0335702 0.75125 0
M  V30 9049 H 864.704 0.980078 2.81846 0
M  V30 9050 C 863.453 -0.695352 3.40676 0
M  V30 9051 H 862.776 -0.0613425 3.99753 0
M  V30 9052 H 864.216 -1.09553 4.09602 0
M  V30 9053 C 862.675 -1.85008 2.81556 0
M  V30 9054 O 863.205 -2.94616 2.73065 0
M  V30 9055 N 861.411 -1.65364 2.38962 0
M  V30 9056 H 860.958 -0.762106 2.46068 0
M  V30 9057 H 860.916 -2.42789 1.99752 0
M  V30 9058 N 864.689 -1.48329 0.532571 0
M  V30 9059 C 866.1 -1.86469 0.0927749 0
M  V30 9060 C 866.451 -1.44186 -1.3306 0
M  V30 9061 O 865.576 -0.833741 -1.99694 0
M  V30 9062 C 866.171 -3.38414 0.161588 0
M  V30 9063 C 864.73 -3.75739 -0.223028 0
M  V30 9064 C 863.877 -2.72377 0.520199 0
M  V30 9065 H 866.828 -1.40197 0.743678 0
M  V30 9066 H 866.849 -3.75314 -0.626059 0
M  V30 9067 H 866.361 -3.69159 1.19765 0
M  V30 9068 H 864.462 -3.50608 -1.26113 0
M  V30 9069 H 864.575 -4.78954 0.118385 0
M  V30 9070 H 862.939 -2.54678 -0.0338425 0
M  V30 9071 H 863.722 -3.05965 1.55694 0
M  V30 9072 N 866.167 -0.267825 -1.55308 0
M  V30 9073 C 867.578 0.231344 -1.85261 0
M  V30 9074 C 867.929 1.56006 -1.18982 0
M  V30 9075 O 867.054 2.1111 -0.475554 0
M  V30 9076 C 867.649 0.426537 -3.36104 0
M  V30 9077 C 866.208 0.869945 -3.66209 0
M  V30 9078 C 865.355 -0.0409522 -2.7727 0
M  V30 9079 H 868.306 -0.489821 -1.50952 0
M  V30 9080 H 868.327 1.26616 -3.58816 0
M  V30 9081 H 867.839 -0.540678 -3.84315 0
M  V30 9082 H 865.94 1.84889 -3.23492 0
M  V30 9083 H 866.053 0.712316 -4.73775 0
M  V30 9084 H 864.417 0.474097 -2.50249 0
M  V30 9085 H 865.2 -1.00392 -3.28293 0
M  V30 9086 N 867.645 1.57599 0.00500368 0
M  V30 9087 C 868.894 1.89528 0.690061 0
M  V30 9088 C 869.207 0.869451 1.75214 0
M  V30 9089 O 870.413 1.07879 2.49147 0
M  V30 9090 C 868.869 3.36425 1.27852 0
M  V30 9091 C 868.477 4.47293 0.251531 0
M  V30 9092 C 870.221 3.77471 1.94206 0
M  V30 9093 C 868.128 5.85264 0.8497 0
M  V30 9094 H 867.058 0.707201 0.2615 0
M  V30 9095 H 869.709 1.83418 -0.0547209 0
M  V30 9096 H 868.091 3.37356 2.07381 0
M  V30 9097 H 869.265 4.5787 -0.518796 0
M  V30 9098 H 867.58 4.15235 -0.311281 0
M  V30 9099 H 870.177 4.77884 2.39855 0
M  V30 9100 H 870.52 3.10722 2.77051 0
M  V30 9101 H 871.053 3.78817 1.21419 0
M  V30 9102 H 867.792 6.55472 0.0601408 0
M  V30 9103 H 867.312 5.78361 1.5893 0
M  V30 9104 H 868.991 6.32762 1.34984 0
M  V30 9105 N 869.123 -0.277682 1.55134 0
M  V30 9106 C 870.353 -1.02677 1.79279 0
M  V30 9107 C 870.761 -1.80599 0.563962 0
M  V30 9108 O 870.104 -1.77416 -0.476378 0
M  V30 9109 C 870.166 -2.03617 2.96277 0
M  V30 9110 C 869.83 -1.44676 4.33495 0
M  V30 9111 C 870.827 -0.864811 5.12657 0
M  V30 9112 C 868.512 -1.47537 4.80144 0
M  V30 9113 C 870.506 -0.319322 6.366 0
M  V30 9114 C 868.193 -0.926016 6.04043 0
M  V30 9115 C 869.191 -0.348988 6.82108 0
M  V30 9116 O 868.879 0.191964 8.03671 0
M  V30 9117 H 868.611 -0.309232 0.601125 0
M  V30 9118 H 871.165 -0.315308 2.02965 0
M  V30 9119 H 869.395 -2.78509 2.68272 0
M  V30 9120 H 871.084 -2.64616 3.07788 0
M  V30 9121 H 871.85 -0.835438 4.7775 0
M  V30 9122 H 867.729 -1.91389 4.19394 0
M  V30 9123 H 871.273 0.131709 6.97476 0
M  V30 9124 H 867.17 -0.952613 6.38432 0
M  V30 9125 H 867.938 0.0808779 8.1846 0
M  V30 9126 N 870.601 -1.47988 -0.541979 0
M  V30 9127 C 871.849 -1.55086 -1.29587 0
M  V30 9128 C 872.17 -0.221304 -1.9374 0
M  V30 9129 O 871.44 0.756128 -1.80719 0
M  V30 9130 H 870.02 -0.571307 -0.481266 0
M  V30 9131 H 872.682 -1.8438 -0.631675 0
M  V30 9132 H 871.778 -2.32556 -2.08144 0
M  V30 9133 N 872.079 0.78992 -1.36375 0
M  V30 9134 C 873.356 1.53584 -1.21126 0
M  V30 9135 C 873.736 2.10124 0.202785 0
M  V30 9136 O 873.084 1.93936 1.20835 0
M  V30 9137 C 873.294 2.63117 -2.29282 0
M  V30 9138 C 874.642 3.31013 -2.65924 0
M  V30 9139 O 875.666 2.734 -2.28321 0
M  V30 9140 O 874.525 4.35129 -3.30643 0
M  V30 9141 H 871.619 0.679366 -0.471583 0
M  V30 9142 H 874.165 0.828446 -1.48104 0
M  V30 9143 H 872.937 2.19329 -3.24053 0
M  V30 9144 H 872.56 3.41476 -2.03666 0
M  V30 9145 N 873.557 1.20646 1.01402 0
M  V30 9146 C 874.805 1.01618 1.74695 0
M  V30 9147 C 875.126 -0.452438 1.89679 0
M  V30 9148 O 874.396 -1.32693 1.44116 0
M  V30 9149 H 872.976 0.373013 0.647202 0
M  V30 9150 H 875.638 1.518 1.22241 0
M  V30 9151 H 874.734 1.47666 2.74957 0
M  V30 9152 N 875.035 -1.20752 1.01276 0
M  V30 9153 C 876.446 -1.7175 0.732033 0
M  V30 9154 C 876.797 -1.8131 -0.749733 0
M  V30 9155 O 875.922 -1.47301 -1.58529 0
M  V30 9156 C 876.517 -3.11936 1.32217 0
M  V30 9157 C 875.076 -3.6026 1.09039 0
M  V30 9158 C 874.223 -2.37571 1.43022 0
M  V30 9159 H 877.174 -1.0582 1.1827 0
M  V30 9160 H 877.195 -3.73802 0.710771 0
M  V30 9161 H 876.707 -3.04946 2.40061 0
M  V30 9162 H 874.808 -3.72588 0.0294464 0
M  V30 9163 H 874.921 -4.45295 1.76775 0
M  V30 9164 H 873.285 -2.40128 0.849159 0
M  V30 9165 H 874.068 -2.33225 2.51915 0
M  V30 9166 N 876.513 -0.788492 -1.36457 0
M  V30 9167 C 877.445 -0.144208 -2.28746 0
M  V30 9168 C 878.458 0.646009 -1.49434 0
M  V30 9169 O 879.647 0.481344 -1.71888 0
M  V30 9170 C 876.747 0.818869 -3.28858 0
M  V30 9171 C 875.92 0.0789055 -4.37329 0
M  V30 9172 C 874.979 0.957791 -5.1741 0
M  V30 9173 O 874.005 0.415378 -5.67682 0
M  V30 9174 N 875.207 2.28216 -5.33758 0
M  V30 9175 H 877.972 -0.936949 -2.84678 0
M  V30 9176 H 875.533 -0.642317 -1.48613 0
M  V30 9177 H 877.525 1.41065 -3.79319 0
M  V30 9178 H 876.095 1.51249 -2.73573 0
M  V30 9179 H 875.315 -0.693939 -3.88044 0
M  V30 9180 H 876.603 -0.431753 -5.06965 0
M  V30 9181 H 876.001 2.747 -4.94527 0
M  V30 9182 H 874.558 2.8236 -5.87466 0
M  V30 9183 N 877.991 1.48044 -0.54043 0
M  V30 9184 C 879.221 2.06595 -0.0144943 0
M  V30 9185 C 879.629 1.39593 1.27713 0
M  V30 9186 O 878.972 0.480794 1.77297 0
M  V30 9187 C 879.034 3.5849 0.269316 0
M  V30 9188 C 878.698 4.47429 -0.930372 0
M  V30 9189 C 879.695 4.8657 -1.83155 0
M  V30 9190 C 877.38 4.89185 -1.14032 0
M  V30 9191 C 879.374 5.66246 -2.92649 0
M  V30 9192 C 877.061 5.6863 -2.23838 0
M  V30 9193 C 878.059 6.07069 -3.12979 0
M  V30 9194 O 877.747 6.84917 -4.20884 0
M  V30 9195 H 877.479 0.675086 -0.0351467 0
M  V30 9196 H 880.033 1.91275 -0.74853 0
M  V30 9197 H 878.263 3.71961 1.05745 0
M  V30 9198 H 879.952 3.99124 0.738595 0
M  V30 9199 H 880.718 4.54924 -1.68134 0
M  V30 9200 H 876.597 4.58742 -0.455717 0
M  V30 9201 H 880.141 5.96169 -3.62254 0
M  V30 9202 H 876.038 5.99688 -2.38839 0
M  V30 9203 H 876.806 7.03287 -4.18723 0
M  V30 9204 N 879.47 0.276058 1.55163 0
M  V30 9205 C 880.403 -0.652386 2.18676 0
M  V30 9206 C 881.381 -1.15151 1.148 0
M  V30 9207 O 882.565 -1.22431 1.43328 0
M  V30 9208 C 879.692 -1.88982 2.81076 0
M  V30 9209 C 878.738 -1.52609 3.98262 0
M  V30 9210 S 879.571 -0.603445 5.32089 0
M  V30 9211 C 880.727 -1.84923 5.97958 0
M  V30 9212 H 880.96 -0.112733 2.97086 0
M  V30 9213 H 878.493 0.0603118 1.54282 0
M  V30 9214 H 880.451 -2.60007 3.17658 0
M  V30 9215 H 879.112 -2.40061 2.02557 0
M  V30 9216 H 878.305 -2.44689 4.40617 0
M  V30 9217 H 877.907 -0.89601 3.63108 0
M  V30 9218 H 880.199 -2.79303 6.17249 0
M  V30 9219 H 881.142 -1.46868 6.92702 0
M  V30 9220 H 881.55 -2.0146 5.27327 0
M  V30 9221 N 880.948 -1.576 0.00335426 0
M  V30 9222 C 882.359 -1.7875 -0.539008 0
M  V30 9223 C 882.71 -0.911097 -1.73763 0
M  V30 9224 O 881.835 -0.114476 -2.16097 0
M  V30 9225 C 882.43 -3.24177 -0.984611 0
M  V30 9226 C 880.989 -3.46412 -1.47226 0
M  V30 9227 C 880.136 -2.74024 -0.425004 0
M  V30 9228 H 883.087 -1.57032 0.229511 0
M  V30 9229 H 883.108 -3.32474 -1.85044 0
M  V30 9230 H 882.62 -3.87938 -0.112035 0
M  V30 9231 H 880.721 -2.8787 -2.36562 0
M  V30 9232 H 880.834 -4.55098 -1.49741 0
M  V30 9233 H 879.198 -2.38741 -0.887394 0
M  V30 9234 H 879.981 -3.40486 0.438662 0
M  V30 9235 N 882.426 0.269451 -1.5528 0
M  V30 9236 C 883.703 1.02207 -1.66773 0
M  V30 9237 C 884.083 2.04168 -0.536536 0
M  V30 9238 O 883.431 2.23761 0.462956 0
M  V30 9239 C 883.641 1.67569 -3.0614 0
M  V30 9240 C 884.989 2.18599 -3.64005 0
M  V30 9241 O 886.013 1.7755 -3.08795 0
M  V30 9242 O 884.872 2.93903 -4.60742 0
M  V30 9243 H 881.966 0.474314 -0.677462 0
M  V30 9244 H 884.512 0.265026 -1.67618 0
M  V30 9245 H 883.284 0.937029 -3.79915 0
M  V30 9246 H 882.907 2.49951 -3.09209 0
M  V30 9247 N 883.904 1.48273 0.534124 0
M  V30 9248 C 885.15 1.56311 1.29208 0
M  V30 9249 C 885.483 0.234481 1.92779 0
M  V30 9250 O 884.758 -0.759143 1.79073 0
M  V30 9251 C 885.041 2.69831 2.3846 0
M  V30 9252 C 884.894 4.12385 1.79608 0
M  V30 9253 C 886.213 2.79133 3.40254 0
M  V30 9254 H 883.332 0.56899 0.468422 0
M  V30 9255 H 885.974 1.80429 0.595438 0
M  V30 9256 H 884.124 2.49397 2.97881 0
M  V30 9257 H 885.796 4.44246 1.24269 0
M  V30 9258 H 884.039 4.19579 1.10162 0
M  V30 9259 H 884.71 4.87629 2.58693 0
M  V30 9260 H 887.186 2.97632 2.90783 0
M  V30 9261 H 886.062 3.60298 4.14097 0
M  V30 9262 H 886.323 1.87122 4.00547 0
M  V30 9263 N 885.382 -0.782676 1.36792 0
M  V30 9264 C 886.628 -1.54238 1.32597 0
M  V30 9265 C 886.983 -1.92179 -0.0921366 0
M  V30 9266 O 886.276 -1.60381 -1.04826 0
M  V30 9267 C 886.47 -2.82542 2.18872 0
M  V30 9268 C 886.299 -2.5714 3.6893 0
M  V30 9269 C 885.069 -2.5182 4.38081 0
M  V30 9270 C 887.267 -2.25878 4.62043 0
M  V30 9271 N 885.249 -2.18387 5.73742 0
M  V30 9272 C 886.62 -2.02491 5.86001 0
M  V30 9273 C 888.675 -2.11941 4.50539 0
M  V30 9274 C 887.378 -1.66576 6.99746 0
M  V30 9275 C 889.404 -1.77426 5.64158 0
M  V30 9276 C 888.766 -1.54891 6.87159 0
M  V30 9277 H 884.865 -0.565152 0.540488 0
M  V30 9278 H 887.449 -0.914079 1.71909 0
M  V30 9279 H 885.62 -3.43228 1.81794 0
M  V30 9280 H 887.352 -3.48338 2.06017 0
M  V30 9281 H 884.107 -2.67298 3.90958 0
M  V30 9282 H 884.531 -2.04398 6.45407 0
M  V30 9283 H 889.173 -2.28051 3.56024 0
M  V30 9284 H 886.891 -1.49205 7.94206 0
M  V30 9285 H 890.477 -1.67316 5.57222 0
M  V30 9286 H 889.357 -1.28577 7.73588 0
M  V30 9287 N 886.86 -1.21182 -1.00761 0
M  V30 9288 C 888.106 -1.03903 -1.74859 0
M  V30 9289 C 888.461 0.423347 -1.87685 0
M  V30 9290 O 887.754 1.31001 -1.39819 0
M  V30 9291 C 887.948 -1.6667 -3.16158 0
M  V30 9292 C 887.777 -3.1886 -3.1711 0
M  V30 9293 C 886.547 -3.87888 -3.23838 0
M  V30 9294 C 888.745 -4.15978 -3.02434 0
M  V30 9295 N 886.727 -5.27289 -3.14388 0
M  V30 9296 C 888.098 -5.42114 -3.00854 0
M  V30 9297 C 890.153 -4.0706 -2.86717 0
M  V30 9298 C 888.856 -6.60358 -2.85166 0
M  V30 9299 C 890.882 -5.24938 -2.72386 0
M  V30 9300 C 890.244 -6.49983 -2.71479 0
M  V30 9301 H 886.343 -0.434522 -0.650165 0
M  V30 9302 H 888.927 -1.53495 -1.1978 0
M  V30 9303 H 887.098 -1.19649 -3.69511 0
M  V30 9304 H 888.83 -1.42622 -3.78736 0
M  V30 9305 H 885.585 -3.38798 -3.30927 0
M  V30 9306 H 886.009 -6.00293 -3.13013 0
M  V30 9307 H 890.651 -3.11183 -2.86226 0
M  V30 9308 H 888.369 -7.56399 -2.84405 0
M  V30 9309 H 891.955 -5.19857 -2.61228 0
M  V30 9310 H 890.835 -7.39662 -2.6052 0
M  V30 9311 N 888.338 1.20213 -1.01915 0
M  V30 9312 C 889.568 1.93341 -0.728197 0
M  V30 9313 C 889.976 1.75151 0.715454 0
M  V30 9314 O 889.319 1.06437 1.49722 0
M  V30 9315 C 889.381 3.45677 -0.9873 0
M  V30 9316 C 889.045 3.8763 -2.42057 0
M  V30 9317 C 890.042 3.93184 -3.40151 0
M  V30 9318 C 887.727 4.19547 -2.76199 0
M  V30 9319 C 889.721 4.30069 -4.70446 0
M  V30 9320 C 887.408 4.56106 -4.06707 0
M  V30 9321 C 888.406 4.6134 -5.03641 0
M  V30 9322 O 888.094 4.97059 -6.31813 0
M  V30 9323 H 887.826 0.621258 -0.266485 0
M  V30 9324 H 890.38 1.53577 -1.36393 0
M  V30 9325 H 888.61 3.85578 -0.294405 0
M  V30 9326 H 890.299 4.00035 -0.687536 0
M  V30 9327 H 891.065 3.68687 -3.15111 0
M  V30 9328 H 886.944 4.14663 -2.01434 0
M  V30 9329 H 890.488 4.34069 -5.46105 0
M  V30 9330 H 886.385 4.80059 -4.31525 0
M  V30 9331 H 887.153 5.15043 -6.36139 0
M  V30 9332 N 889.816 0.795718 1.36037 0
M  V30 9333 C 890.748 0.156336 2.28666 0
M  V30 9334 C 891.761 -0.638075 1.49775 0
M  V30 9335 O 892.95 -0.472222 1.7214 0
M  V30 9336 C 890.05 -0.801417 3.29288 0
M  V30 9337 C 889.223 -0.0557118 4.37365 0
M  V30 9338 C 888.282 -0.930338 5.1791 0
M  V30 9339 O 887.308 -0.385266 5.67895 0
M  V30 9340 N 888.51 -2.25382 5.34961 0
M  V30 9341 H 891.275 0.952033 2.84177 0
M  V30 9342 H 888.836 0.650189 1.48271 0
M  V30 9343 H 890.828 -1.39051 3.80062 0
M  V30 9344 H 889.398 -1.49796 2.74372 0
M  V30 9345 H 888.618 0.714508 3.87671 0
M  V30 9346 H 889.906 0.458633 5.06729 0
M  V30 9347 H 889.304 -2.72073 4.95977 0
M  V30 9348 H 887.861 -2.79241 5.88955 0
M  V30 9349 N 891.294 -1.47756 0.548274 0
M  V30 9350 C 892.571 -1.9555 -0.0443603 0
M  V30 9351 C 892.951 -1.49079 -1.49462 0
M  V30 9352 O 892.299 -0.725538 -2.16675 0
M  V30 9353 C 892.509 -3.48879 0.0918425 0
M  V30 9354 C 893.857 -4.2456 -0.0580879 0
M  V30 9355 O 894.881 -3.56195 0.018946 0
M  V30 9356 O 893.74 -5.46048 -0.222261 0
M  V30 9357 H 890.834 -0.824106 -0.0691235 0
M  V30 9358 H 893.38 -1.58196 0.614166 0
M  V30 9359 H 892.152 -3.7548 1.10137 0
M  V30 9360 H 891.775 -3.92975 -0.604704 0
M  V30 9361 O 892.811 -0.426279 -1.55773 0
M  V30 9362 H 893.502 0.110126 -1.93387 0
M  V30 END ATOM
M  V30 BEGIN BOND
M  V30 END BOND
M  V30 END CTAB
M  END
$$$$
