drugbank_target|P00966 Argininosuccinate synthase (DB00125; DB00128; DB00155; DB00171)
 OpenBabel12092119363D

  0  0  0     0  0            999 V3000
M  V30 BEGIN CTAB
M  V30 COUNTS 6568 6641 0 0 0
M  V30 BEGIN ATOM
M  V30 1 H -0.908 1.98254 -0.117106 0
M  V30 2 N 0 1.576 0 0
M  V30 3 C 0.933 2.03868 1.02534 0
M  V30 4 C 1.911 0.928543 1.3348 0
M  V30 5 O 3.095 1.19667 1.45644 0
M  V30 6 C 0.222 2.43627 2.35294 0
M  V30 7 C -0.732 3.65373 2.2001 0
M  V30 8 S 0.101 5.13292 1.52614 0
M  V30 9 C 1.257 5.56322 2.86805 0
M  V30 10 H 1.49 2.90518 0.631377 0
M  V30 11 H -0.977 1.52953 0.210867 0
M  V30 12 H 0.981 2.67203 3.11629 0
M  V30 13 H -0.358 1.57376 2.7183 0
M  V30 14 H -1.165 3.90944 3.18086 0
M  V30 15 H -1.563 3.418 1.51819 0
M  V30 16 H 0.729 5.58782 3.83104 0
M  V30 17 H 1.672 6.56266 2.65933 0
M  V30 18 H 2.08 4.83886 2.90714 0
M  V30 19 N 1.4781 -0.272755 1.55222 0
M  V30 20 C 2.7031 -1.02683 1.80197 0
M  V30 21 C 3.1281 -1.79142 0.573551 0
M  V30 22 O 2.4861 -1.74917 -0.476849 0
M  V30 23 C 2.5341 -1.9609 3.02624 0
M  V30 24 O 1.6381 -3.04863 2.77727 0
M  V30 25 H 0.9791 -0.293557 0.595584 0
M  V30 26 H 3.5091 -0.30159 2.02365 0
M  V30 27 H 3.5191 -2.38039 3.31363 0
M  V30 28 H 2.1941 -1.39851 3.91682 0
M  V30 29 H 0.7711 -2.67228 2.60084 0
M  V30 30 N 2.9562 -1.48159 -0.537278 0
M  V30 31 C 4.1812 -1.59707 -1.32319 0
M  V30 32 C 4.6062 -0.254859 -1.86365 0
M  V30 33 O 3.9642 0.772378 -1.64024 0
M  V30 34 C 4.0122 -2.6412 -2.45505 0
M  V30 35 O 3.1162 -2.20774 -3.48328 0
M  V30 36 H 2.4572 -0.535791 -0.392204 0
M  V30 37 H 4.9872 -1.94092 -0.647268 0
M  V30 38 H 4.9972 -2.85166 -2.91795 0
M  V30 39 H 3.6722 -3.61567 -2.05528 0
M  V30 40 H 2.2492 -2.09911 -3.08207 0
M  V30 41 N 4.4343 0.785586 -1.36625 0
M  V30 42 C 5.3813 1.89838 -1.31264 0
M  V30 43 C 6.3513 1.65115 -0.180633 0
M  V30 44 O 7.5363 1.87222 -0.36777 0
M  V30 45 C 4.6763 3.26706 -1.11163 0
M  V30 46 C 3.7893 3.63476 -2.33472 0
M  V30 47 C 2.9243 4.89481 -2.06353 0
M  V30 48 C 1.9633 5.18941 -3.24602 0
M  V30 49 N 1.1003 6.36131 -2.97123 0
M  V30 50 H 5.9403 1.93756 -2.26413 0
M  V30 51 H 3.4773 0.947454 -1.12524 0
M  V30 52 H 5.4353 4.05639 -0.975337 0
M  V30 53 H 4.0653 3.222 -0.196674 0
M  V30 54 H 3.1173 2.79636 -2.57891 0
M  V30 55 H 4.4293 3.81193 -3.21704 0
M  V30 56 H 3.5833 5.76288 -1.89675 0
M  V30 57 H 2.3223 4.73841 -1.15437 0
M  V30 58 H 1.3273 4.30615 -3.41834 0
M  V30 59 H 2.5523 5.36498 -4.16349 0
M  V30 60 H 0.4983 6.21875 -2.08823 0
M  V30 61 H 0.4153 6.54198 -3.78894 0
M  V30 62 H 1.6833 7.2591 -2.84033 0
M  V30 63 N 5.9124 1.20967 1.01018 0
M  V30 64 C 7.1604 1.02172 1.74371 0
M  V30 65 C 7.4814 -0.446414 1.89821 0
M  V30 66 O 6.7514 -1.32234 1.44537 0
M  V30 67 H 5.3314 0.375066 0.646014 0
M  V30 68 H 7.9934 1.52187 1.21758 0
M  V30 69 H 7.0894 1.48538 2.74487 0
M  V30 70 N 7.3905 -1.2043 1.01659 0
M  V30 71 C 8.6155 -1.94318 0.724942 0
M  V30 72 C 9.0405 -1.74266 -0.708034 0
M  V30 73 O 8.3985 -1.03694 -1.48719 0
M  V30 74 C 8.4465 -3.44486 1.06591 0
M  V30 75 O 7.5505 -4.12017 0.177599 0
M  V30 76 H 6.8915 -0.60708 0.26898 0
M  V30 77 H 9.4215 -1.52861 1.35995 0
M  V30 78 H 9.4315 -3.95106 1.01762 0
M  V30 79 H 8.1065 -3.58404 2.10997 0
M  V30 80 H 6.6835 -3.71821 0.283421 0
M  V30 81 N 8.8686 -0.792821 -1.36206 0
M  V30 82 C 10.1146 -0.36733 -1.99446 0
M  V30 83 C 10.4476 1.05917 -1.62774 0
M  V30 84 O 9.7226 1.7324 -0.88421 0
M  V30 85 C 10.0056 -0.535044 -3.56103 0
M  V30 86 C 9.8586 -2.00548 -4.02617 0
M  V30 87 C 11.1776 0.0478191 -4.40074 0
M  V30 88 H 8.2966 -0.134941 -0.724541 0
M  V30 89 H 10.9386 -0.999794 -1.61568 0
M  V30 90 H 9.0886 0.00336329 -3.885 0
M  V30 91 H 10.7606 -2.60521 -3.80692 0
M  V30 92 H 9.0036 -2.50686 -3.54032 0
M  V30 93 H 9.6746 -2.07377 -5.11565 0
M  V30 94 H 12.1506 -0.411822 -4.14057 0
M  V30 95 H 11.0266 -0.0995336 -5.4881 0
M  V30 96 H 11.2876 1.14025 -4.27142 0
M  V30 97 N 10.3467 1.47872 -0.545128 0
M  V30 98 C 11.5927 2.02793 -0.0166104 0
M  V30 99 C 11.9257 1.41987 1.32489 0
M  V30 100 O 11.2007 0.571045 1.85928 0
M  V30 101 C 11.4837 3.59989 0.0893294 0
M  V30 102 C 11.3367 4.3125 -1.27841 0
M  V30 103 C 12.6557 4.32606 0.808724 0
M  V30 104 H 9.7747 0.736962 -0.00751035 0
M  V30 105 H 12.4167 1.76433 -0.705085 0
M  V30 106 H 10.5667 3.82579 0.675681 0
M  V30 107 H 12.2387 4.20035 -1.90704 0
M  V30 108 H 10.4817 3.92076 -1.85632 0
M  V30 109 H 11.1527 5.39736 -1.15713 0
M  V30 110 H 13.6287 4.14936 0.310992 0
M  V30 111 H 12.5047 5.42251 0.851782 0
M  V30 112 H 12.7657 4.00963 1.86229 0
M  V30 113 N 11.8248 0.280983 1.55075 0
M  V30 114 C 12.7548 -0.597469 2.25727 0
M  V30 115 C 13.7358 -1.15417 1.24952 0
M  V30 116 O 14.9208 -1.18722 1.53684 0
M  V30 117 C 12.0508 -1.7789 2.98283 0
M  V30 118 C 11.0048 -1.35347 4.06036 0
M  V30 119 C 10.3308 -2.61846 4.66198 0
M  V30 120 C 11.6308 -0.499354 5.19907 0
M  V30 121 H 13.3248 -0.00824265 2.99399 0
M  V30 122 H 10.8708 -0.0025244 1.44 0
M  V30 123 H 12.8238 -2.39937 3.46422 0
M  V30 124 H 11.5478 -2.39405 2.22155 0
M  V30 125 H 10.2068 -0.756156 3.58717 0
M  V30 126 H 9.8548 -3.21632 3.86732 0
M  V30 127 H 9.5548 -2.3409 5.38958 0
M  V30 128 H 11.0788 -3.24732 5.1709 0
M  V30 129 H 12.4928 -1.02498 5.64063 0
M  V30 130 H 10.8898 -0.316424 5.99265 0
M  V30 131 H 11.9598 0.480459 4.82514 0
M  V30 132 N 13.3029 -1.57598 0.00835791 0
M  V30 133 C 14.2659 -2.07884 -0.965242 0
M  V30 134 C 15.2659 -0.989825 -1.26725 0
M  V30 135 O 16.4559 -1.25218 -1.21104 0
M  V30 136 C 13.5879 -2.52731 -2.28779 0
M  V30 137 H 14.7809 -2.95178 -0.530112 0
M  V30 138 H 12.3339 -1.54458 -0.239283 0
M  V30 139 H 13.0689 -1.68705 -2.76964 0
M  V30 140 H 12.8539 -3.32272 -2.08177 0
M  V30 141 H 14.3439 -2.91933 -2.98605 0
M  V30 142 N 14.781 0.264519 -1.55364 0
M  V30 143 C 16.011 1.01153 -1.80143 0
M  V30 144 C 16.419 1.80115 -0.579253 0
M  V30 145 O 15.762 1.77813 0.46132 0
M  V30 146 C 15.824 2.01098 -2.97993 0
M  V30 147 C 15.488 1.40995 -4.34706 0
M  V30 148 C 16.485 0.821316 -5.13372 0
M  V30 149 C 14.17 1.43461 -4.81378 0
M  V30 150 C 16.164 0.265339 -6.36847 0
M  V30 151 C 13.851 0.874771 -6.04807 0
M  V30 152 C 14.849 0.291146 -6.82379 0
M  V30 153 O 14.537 -0.260093 -8.03479 0
M  V30 154 H 14.269 0.304125 -0.603725 0
M  V30 155 H 16.823 0.298089 -2.03225 0
M  V30 156 H 15.053 2.76224 -2.70623 0
M  V30 157 H 16.742 2.61997 -3.1002 0
M  V30 158 H 17.508 0.794903 -4.78442 0
M  V30 159 H 13.387 1.87826 -4.21002 0
M  V30 160 H 16.931 -0.190837 -6.97339 0
M  V30 161 H 12.828 0.898452 -6.39217 0
M  V30 162 H 13.596 -0.150265 -8.18362 0
M  V30 163 N 16.2591 1.48442 0.529413 0
M  V30 164 C 17.4841 1.60406 1.31471 0
M  V30 165 C 17.9091 0.264738 1.86228 0
M  V30 166 O 17.2671 -0.763668 1.64432 0
M  V30 167 C 17.3151 2.65419 2.44101 0
M  V30 168 O 16.4191 2.22618 3.47153 0
M  V30 169 H 15.7601 0.537863 0.389357 0
M  V30 170 H 18.2901 1.94432 0.636965 0
M  V30 171 H 18.3001 2.86709 2.90279 0
M  V30 172 H 16.9751 3.62652 2.03608 0
M  V30 173 H 15.5521 2.11543 3.0709 0
M  V30 174 N 17.7372 -0.778329 1.37039 0
M  V30 175 C 18.9852 -1.53361 1.31623 0
M  V30 176 C 19.3062 -1.94739 -0.100831 0
M  V30 177 O 18.5762 -1.65797 -1.04347 0
M  V30 178 H 17.1562 -0.568794 0.484234 0
M  V30 179 H 19.8182 -0.926742 1.71457 0
M  V30 180 H 18.9142 -2.43606 1.95096 0
M  V30 181 N 19.2153 -1.21501 -1.00376 0
M  V30 182 C 20.4633 -1.03095 -1.73827 0
M  V30 183 C 20.7843 0.436341 -1.90055 0
M  V30 184 O 20.0543 1.31466 -1.45236 0
M  V30 185 H 18.6343 -0.378487 -0.644016 0
M  V30 186 H 21.2963 -1.52831 -1.20949 0
M  V30 187 H 20.3923 -1.49991 -2.73695 0
M  V30 188 N 20.6934 1.19889 -1.02296 0
M  V30 189 C 21.6234 2.25141 -0.619174 0
M  V30 190 C 22.6044 1.66051 0.368915 0
M  V30 191 O 23.7894 1.92546 0.252941 0
M  V30 192 C 20.9194 3.4728 0.0368783 0
M  V30 193 C 19.8734 4.19005 -0.872865 0
M  V30 194 C 19.1994 5.34637 -0.0822402 0
M  V30 195 C 20.4994 4.74452 -2.18387 0
M  V30 196 H 22.1934 2.59171 -1.49903 0
M  V30 197 H 19.7394 1.24579 -0.722222 0
M  V30 198 H 21.6924 4.20098 0.330958 0
M  V30 199 H 20.4164 3.12433 0.95149 0
M  V30 200 H 19.0754 3.48061 -1.15105 0
M  V30 201 H 18.7234 4.96034 0.83422 0
M  V30 202 H 18.4234 5.83557 -0.688149 0
M  V30 203 H 19.9474 6.10255 0.205238 0
M  V30 204 H 21.3614 5.39055 -1.95172 0
M  V30 205 H 19.7584 5.33834 -2.74119 0
M  V30 206 H 20.8284 3.92844 -2.84257 0
M  V30 207 N 22.1715 0.800033 1.35784 0
M  V30 208 C 23.4485 0.30088 1.93272 0
M  V30 209 C 23.8285 -1.20857 1.73081 0
M  V30 210 O 23.1765 -2.00502 1.09596 0
M  V30 211 C 23.3865 0.70511 3.41803 0
M  V30 212 C 24.7345 0.690871 4.18942 0
M  V30 213 O 25.7585 0.646244 3.50289 0
M  V30 214 O 24.6175 0.74332 5.41421 0
M  V30 215 H 21.7115 0.0771605 0.823393 0
M  V30 216 H 24.2575 0.88329 1.449 0
M  V30 217 H 23.0295 1.74571 3.50201 0
M  V30 218 H 22.6525 0.0971541 3.97481 0
M  V30 219 N 23.6496 -1.47581 0.552962 0
M  V30 220 C 24.8776 -2.06875 0.0320556 0
M  V30 221 C 25.2926 -1.40625 -1.25976 0
M  V30 222 O 24.6496 -0.501349 -1.75479 0
M  V30 223 C 24.7006 -3.61092 -0.17167 0
M  V30 224 O 24.4216 -4.24858 1.06899 0
M  V30 225 C 25.9226 -4.37242 -0.730344 0
M  V30 226 H 23.1426 -0.669561 0.043915 0
M  V30 227 H 25.6866 -1.89646 0.765163 0
M  V30 228 H 23.8416 -3.7785 -0.854894 0
M  V30 229 H 24.2556 -5.17334 0.864059 0
M  V30 230 H 25.7296 -5.45842 -0.822203 0
M  V30 231 H 26.2066 -4.03235 -1.74064 0
M  V30 232 H 26.8126 -4.25219 -0.0829543 0
M  V30 233 N 25.1277 -0.289203 -1.54924 0
M  V30 234 C 26.3527 0.329299 -2.04769 0
M  V30 235 C 26.7777 1.4763 -1.16564 0
M  V30 236 O 26.1357 1.80527 -0.167186 0
M  V30 237 C 26.1837 0.774438 -3.52186 0
M  V30 238 O 25.2877 1.88038 -3.67036 0
M  V30 239 H 24.6287 0.0659259 -0.660719 0
M  V30 240 H 27.1587 -0.42761 -2.00082 0
M  V30 241 H 27.1687 1.06642 -3.93816 0
M  V30 242 H 25.8437 -0.0646707 -4.1585 0
M  V30 243 H 24.4207 1.58985 -3.3731 0
M  V30 244 N 26.6058 1.57591 -0.0167156 0
M  V30 245 C 27.8458 1.93145 0.668902 0
M  V30 246 C 28.2098 0.892406 1.7 0
M  V30 247 O 29.4108 1.13373 2.43721 0
M  V30 248 C 27.6818 3.33678 1.28039 0
M  V30 249 S 29.2408 3.91142 1.9888 0
M  V30 250 H 26.0588 0.67593 0.220545 0
M  V30 251 H 28.6608 1.95347 -0.0774105 0
M  V30 252 H 27.3648 4.07126 0.517339 0
M  V30 253 H 26.8958 3.3489 2.06427 0
M  V30 254 H 28.9108 3.73571 3.26587 0
M  V30 255 N 28.0839 -0.256276 1.55502 0
M  V30 256 C 29.3329 -0.983486 1.76098 0
M  V30 257 C 29.6459 -1.86837 0.578896 0
M  V30 258 O 30.8519 -2.63163 0.667648 0
M  V30 259 C 29.3079 -1.79868 3.1173 0
M  V30 260 C 28.9159 -0.961648 4.37557 0
M  V30 261 C 30.6599 -2.51919 3.41668 0
M  V30 262 C 28.5669 -1.77219 5.64223 0
M  V30 263 H 27.4969 -0.370936 0.656447 0
M  V30 264 H 30.1479 -0.238492 1.81944 0
M  V30 265 H 28.5299 -2.58527 2.99966 0
M  V30 266 H 29.7039 -0.218048 4.60284 0
M  V30 267 H 28.0189 -0.354913 4.14885 0
M  V30 268 H 30.6159 -3.12998 4.33516 0
M  V30 269 H 30.9589 -3.23059 2.62562 0
M  V30 270 H 31.4919 -1.80278 3.54605 0
M  V30 271 H 28.2309 -1.10471 6.46124 0
M  V30 272 H 27.7509 -2.49132 5.45613 0
M  V30 273 H 29.4299 -2.34169 6.03137 0
M  V30 274 N 29.562 -1.4872 -0.521534 0
M  V30 275 C 30.492 -1.66771 -1.63431 0
M  V30 276 C 31.473 -0.516499 -1.62069 0
M  V30 277 O 32.658 -0.750013 -1.79132 0
M  V30 278 C 29.788 -1.71515 -3.01993 0
M  V30 279 C 28.742 -2.86222 -3.18216 0
M  V30 280 C 28.068 -2.76061 -4.57924 0
M  V30 281 C 29.368 -4.27419 -3.00184 0
M  V30 282 H 31.062 -2.59932 -1.48579 0
M  V30 283 H 28.608 -1.25089 -0.713358 0
M  V30 284 H 30.561 -1.82731 -3.7972 0
M  V30 285 H 29.285 -0.749393 -3.17886 0
M  V30 286 H 27.944 -2.74575 -2.42908 0
M  V30 287 H 27.592 -1.77437 -4.70665 0
M  V30 288 H 27.292 -3.53037 -4.69722 0
M  V30 289 H 28.816 -2.89256 -5.37739 0
M  V30 290 H 30.23 -4.39855 -3.67697 0
M  V30 291 H 28.627 -5.05458 -3.2347 0
M  V30 292 H 29.697 -4.43293 -1.96518 0
M  V30 293 N 31.0401 0.771051 -1.3745 0
M  V30 294 C 32.2861 1.5319 -1.32894 0
M  V30 295 C 32.6191 1.94008 0.0862511 0
M  V30 296 O 31.8941 1.64124 1.04373 0
M  V30 297 C 32.1771 2.79648 -2.26868 0
M  V30 298 C 32.0301 2.45079 -3.77169 0
M  V30 299 C 33.3491 3.81583 -2.19277 0
M  V30 300 H 30.4681 0.555744 -0.484064 0
M  V30 301 H 33.1101 0.884492 -1.68157 0
M  V30 302 H 31.2601 3.34891 -1.96926 0
M  V30 303 H 32.9321 1.95745 -4.1771 0
M  V30 304 H 31.1751 1.77767 -3.95704 0
M  V30 305 H 31.8461 3.35478 -4.38359 0
M  V30 306 H 34.3221 3.35835 -2.45671 0
M  V30 307 H 33.1981 4.67787 -2.87171 0
M  V30 308 H 33.4591 4.25897 -1.18592 0
M  V30 309 N 32.5182 1.22032 0.997298 0
M  V30 310 C 33.7642 1.05382 1.73972 0
M  V30 311 C 34.1192 -0.407419 1.88037 0
M  V30 312 O 33.4122 -1.29811 1.40924 0
M  V30 313 C 33.6062 1.69345 3.14733 0
M  V30 314 C 33.4352 3.21537 3.14395 0
M  V30 315 C 32.2052 3.9062 3.20537 0
M  V30 316 C 34.4032 4.18527 2.98897 0
M  V30 317 N 32.3852 5.29935 3.09906 0
M  V30 318 C 33.7562 5.44645 2.96247 0
M  V30 319 C 35.8112 4.09476 2.83255 0
M  V30 320 C 34.5142 6.62752 2.79557 0
M  V30 321 C 36.5402 5.27228 2.67926 0
M  V30 322 C 35.9022 6.52262 2.65959 0
M  V30 323 H 32.0012 0.440018 0.646458 0
M  V30 324 H 34.5852 1.54505 1.18475 0
M  V30 325 H 32.7562 1.22778 3.68484 0
M  V30 326 H 34.4882 1.45828 3.77513 0
M  V30 327 H 31.2432 3.41592 3.28043 0
M  V30 328 H 31.6672 6.02926 3.07912 0
M  V30 329 H 36.3092 3.13598 2.83577 0
M  V30 330 H 34.0272 7.58783 2.77982 0
M  V30 331 H 37.6132 5.22053 2.56812 0
M  V30 332 H 36.4932 7.41844 2.54239 0
M  V30 333 N 33.9963 -1.19345 1.0293 0
M  V30 334 C 34.9263 -2.2481 0.631105 0
M  V30 335 C 35.9073 -1.66245 -0.360104 0
M  V30 336 O 37.0923 -1.92677 -0.242726 0
M  V30 337 C 34.2223 -3.47295 -0.0184607 0
M  V30 338 C 33.1763 -4.18536 0.895073 0
M  V30 339 C 32.5023 -5.34586 0.110592 0
M  V30 340 C 33.8023 -4.73287 2.209 0
M  V30 341 H 35.4963 -2.58372 1.51275 0
M  V30 342 H 33.0423 -1.24194 0.728818 0
M  V30 343 H 34.9953 -4.20268 -0.308675 0
M  V30 344 H 33.7193 -3.12933 -0.934907 0
M  V30 345 H 32.3783 -3.47446 1.16949 0
M  V30 346 H 32.0263 -4.96469 -0.807902 0
M  V30 347 H 31.7263 -5.83183 0.719087 0
M  V30 348 H 33.2503 -6.10355 -0.172871 0
M  V30 349 H 34.6643 -5.38013 1.98028 0
M  V30 350 H 33.0613 -5.32373 2.76946 0
M  V30 351 H 34.1313 -3.91331 2.86336 0
M  V30 352 N 35.4744 -0.807222 -1.35358 0
M  V30 353 C 36.4214 -0.216037 -2.29787 0
M  V30 354 C 37.3914 0.650278 -1.52842 0
M  V30 355 O 38.5764 0.595227 -1.81278 0
M  V30 356 C 35.7164 0.628893 -3.39321 0
M  V30 357 C 34.8294 -0.257927 -4.31229 0
M  V30 358 C 33.9644 0.595069 -5.27856 0
M  V30 359 C 33.0034 -0.292111 -6.11403 0
M  V30 360 N 32.1404 0.520895 -7.00165 0
M  V30 361 H 36.9804 -1.02671 -2.79755 0
M  V30 362 H 34.5174 -0.517839 -1.37684 0
M  V30 363 H 36.4754 1.13393 -4.01494 0
M  V30 364 H 35.1054 1.40482 -2.90628 0
M  V30 365 H 34.1574 -0.881076 -3.70056 0
M  V30 366 H 35.4694 -0.940759 -4.89848 0
M  V30 367 H 34.6234 1.16522 -5.95405 0
M  V30 368 H 33.3624 1.31146 -4.69736 0
M  V30 369 H 32.3674 -0.874525 -5.428 0
M  V30 370 H 33.5924 -1.00638 -6.71602 0
M  V30 371 H 31.5384 1.22125 -6.44532 0
M  V30 372 H 31.4554 -0.103877 -7.55929 0
M  V30 373 H 32.7234 1.0743 -7.72062 0
M  V30 374 N 36.9525 1.47285 -0.560781 0
M  V30 375 C 37.8625 2.33846 0.187954 0
M  V30 376 C 38.8785 1.48412 0.908293 0
M  V30 377 O 40.0545 1.81332 0.876388 0
M  V30 378 C 37.1195 3.25178 1.2025 0
M  V30 379 C 36.1805 4.26504 0.489208 0
M  V30 380 C 35.4135 5.13472 1.45542 0
M  V30 381 O 35.6365 5.02959 2.6905 0
M  V30 382 O 34.5705 5.93902 0.977963 0
M  V30 383 H 38.3965 2.99177 -0.522177 0
M  V30 384 H 35.9815 1.45903 -0.321364 0
M  V30 385 H 37.8635 3.81584 1.78805 0
M  V30 386 H 36.5385 2.6247 1.89449 0
M  V30 387 H 35.4455 3.73847 -0.137627 0
M  V30 388 H 36.7785 4.91935 -0.161399 0
M  V30 389 N 38.4306 0.297415 1.54768 0
M  V30 390 C 39.3626 -0.613881 2.20826 0
M  V30 391 C 40.3756 -1.10032 1.19987 0
M  V30 392 O 41.5646 -1.01839 1.46598 0
M  V30 393 C 38.6646 -1.852 2.83821 0
M  V30 394 C 37.8376 -1.50865 4.10559 0
M  V30 395 C 36.8966 -2.60154 4.57391 0
M  V30 396 O 35.9226 -2.25398 5.2267 0
M  V30 397 N 37.1246 -3.90629 4.29406 0
M  V30 398 H 39.8896 -0.048389 2.99661 0
M  V30 399 H 37.4506 0.11946 1.61459 0
M  V30 400 H 39.4426 -2.57652 3.12086 0
M  V30 401 H 38.0126 -2.32597 2.08847 0
M  V30 402 H 37.2326 -0.616925 3.89343 0
M  V30 403 H 38.5206 -1.25458 4.9309 0
M  V30 404 H 37.9186 -4.21677 3.77101 0
M  V30 405 H 36.4756 -4.59391 4.62388 0
M  V30 406 N 39.9087 -1.5758 0.0250728 0
M  V30 407 C 41.1567 -1.91255 -0.653151 0
M  V30 408 C 41.4777 -0.901691 -1.729 0
M  V30 409 O 40.7477 0.0573785 -1.95816 0
M  V30 410 H 39.3277 -0.705942 -0.244243 0
M  V30 411 H 41.9897 -1.94767 0.0719209 0
M  V30 412 H 41.0857 -2.91752 -1.10847 0
M  V30 413 N 41.3868 0.248026 -1.55636 0
M  V30 414 C 42.6168 0.992367 -1.81206 0
M  V30 415 C 43.0248 1.7949 -0.598324 0
M  V30 416 O 42.3678 1.78292 0.442434 0
M  V30 417 C 42.4298 1.97926 -3.00109 0
M  V30 418 C 42.0938 1.36377 -4.36177 0
M  V30 419 C 43.0908 0.76682 -5.14214 0
M  V30 420 C 40.7758 1.38347 -4.82872 0
M  V30 421 C 42.7698 0.197778 -6.37093 0
M  V30 422 C 40.4568 0.810574 -6.057 0
M  V30 423 C 41.4548 0.218754 -6.8265 0
M  V30 424 O 41.1428 -0.345298 -8.03158 0
M  V30 425 H 40.8748 0.297704 -0.606917 0
M  V30 426 H 43.4288 0.276517 -2.0353 0
M  V30 427 H 41.6588 2.73339 -2.73538 0
M  V30 428 H 43.3478 2.58694 -3.12781 0
M  V30 429 H 44.1138 0.744114 -4.79258 0
M  V30 430 H 39.9928 1.8335 -4.2297 0
M  V30 431 H 43.5368 -0.264788 -6.97097 0
M  V30 432 H 39.4338 0.830604 -6.40134 0
M  V30 433 H 40.2018 -0.237055 -8.18157 0
M  V30 434 N 42.8649 1.48995 0.513639 0
M  V30 435 C 44.1419 1.48338 1.27495 0
M  V30 436 C 44.5219 0.204065 2.10111 0
M  V30 437 O 43.8699 -0.813881 2.13514 0
M  V30 438 C 44.0799 2.75498 2.14247 0
M  V30 439 C 45.4279 3.24484 2.73852 0
M  V30 440 O 46.4519 2.76528 2.24523 0
M  V30 441 O 45.3109 4.07974 3.6362 0
M  V30 442 H 42.4049 0.593149 0.576284 0
M  V30 443 H 44.9509 1.61246 0.528948 0
M  V30 444 H 43.7229 3.60109 1.53092 0
M  V30 445 H 43.3459 2.6539 2.96064 0
M  V30 446 N 44.343 -0.763751 1.37857 0
M  V30 447 C 45.589 -1.52483 1.33704 0
M  V30 448 C 45.922 -1.94051 -0.0759612 0
M  V30 449 O 45.197 -1.64675 -1.03501 0
M  V30 450 C 45.48 -2.78441 2.28348 0
M  V30 451 C 45.333 -2.43075 3.78463 0
M  V30 452 C 46.652 -3.80415 2.21298 0
M  V30 453 H 43.771 -0.553169 0.487005 0
M  V30 454 H 46.413 -0.875562 1.68624 0
M  V30 455 H 44.563 -3.33842 1.987 0
M  V30 456 H 46.235 -1.93527 4.18742 0
M  V30 457 H 44.478 -1.75666 3.96641 0
M  V30 458 H 45.149 -3.33149 4.40132 0
M  V30 459 H 47.625 -3.34527 2.47449 0
M  V30 460 H 46.501 -4.66257 2.89647 0
M  V30 461 H 46.762 -4.25262 1.20849 0
M  V30 462 N 45.8211 -1.22559 -0.990812 0
M  V30 463 C 47.0701 -1.04553 -1.72486 0
M  V30 464 C 47.3831 0.419349 -1.91052 0
M  V30 465 O 48.5891 0.719121 -2.61803 0
M  V30 466 C 47.0451 -1.82231 -3.10355 0
M  V30 467 C 46.6531 -3.32981 -2.99713 0
M  V30 468 C 48.3971 -1.7268 -3.87791 0
M  V30 469 C 46.3041 -4.03091 -4.32748 0
M  V30 470 H 45.2341 -0.387614 -0.646739 0
M  V30 471 H 47.8851 -1.46429 -1.10593 0
M  V30 472 H 46.2671 -1.33155 -3.72942 0
M  V30 473 H 47.4411 -3.89466 -2.46278 0
M  V30 474 H 45.7561 -3.43231 -2.35758 0
M  V30 475 H 48.3531 -2.22381 -4.86262 0
M  V30 476 H 48.6961 -0.687607 -4.10582 0
M  V30 477 H 49.2291 -2.1931 -3.31885 0
M  V30 478 H 45.9681 -5.07273 -4.15156 0
M  V30 479 H 45.4881 -3.51394 -4.86089 0
M  V30 480 H 47.1671 -4.08804 -5.01486 0
M  V30 481 N 47.2992 1.18797 -1.03562 0
M  V30 482 C 48.2622 2.20464 -0.626769 0
M  V30 483 C 49.2622 1.57721 0.313173 0
M  V30 484 O 50.4522 1.73917 0.0992615 0
M  V30 485 C 47.5842 3.40802 0.0818498 0
M  V30 486 H 48.7772 2.58149 -1.5264 0
M  V30 487 H 46.3302 1.32593 -0.827578 0
M  V30 488 H 47.0652 3.08642 0.995518 0
M  V30 489 H 46.8502 3.8758 -0.593652 0
M  V30 490 H 48.3402 4.16092 0.354584 0
M  V30 491 N 48.7773 0.814389 1.34928 0
M  V30 492 C 50.0073 0.41054 2.0248 0
M  V30 493 C 50.4153 -0.985625 1.61499 0
M  V30 494 O 49.7583 -1.64781 0.811976 0
M  V30 495 C 49.8203 0.423384 3.56998 0
M  V30 496 C 49.4843 1.77141 4.21272 0
M  V30 497 C 50.4813 2.73093 4.42398 0
M  V30 498 C 48.1663 2.05755 4.58225 0
M  V30 499 C 50.1603 3.95838 4.9959 0
M  V30 500 C 47.8473 3.28762 5.1513 0
M  V30 501 C 48.8453 4.23621 5.35755 0
M  V30 502 O 48.5333 5.44456 5.91458 0
M  V30 503 H 48.2653 0.163997 0.655806 0
M  V30 504 H 50.8193 1.10155 1.73364 0
M  V30 505 H 49.0493 -0.324276 3.85338 0
M  V30 506 H 50.7383 0.0407683 4.0588 0
M  V30 507 H 51.5043 2.5228 4.14222 0
M  V30 508 H 47.3833 1.32727 4.4148 0
M  V30 509 H 50.9273 4.69891 5.15605 0
M  V30 510 H 46.8243 3.49443 5.42734 0
M  V30 511 H 47.5923 5.4586 6.09901 0
M  V30 512 N 50.2554 -1.46986 0.568584 0
M  V30 513 C 51.1854 -2.32946 -0.160753 0
M  V30 514 C 52.1664 -1.44487 -0.897631 0
M  V30 515 O 53.3514 -1.73327 -0.875867 0
M  V30 516 C 50.4814 -3.26494 -1.18403 0
M  V30 517 C 49.4354 -4.24282 -0.562895 0
M  V30 518 C 48.7614 -5.07236 -1.69163 0
M  V30 519 C 50.0614 -5.19989 0.490761 0
M  V30 520 H 51.7554 -2.94175 0.556916 0
M  V30 521 H 49.3014 -1.4146 0.26927 0
M  V30 522 H 51.2544 -3.85477 -1.70251 0
M  V30 523 H 49.9784 -2.63343 -1.93179 0
M  V30 524 H 48.6374 -3.66541 -0.0656164 0
M  V30 525 H 48.2854 -4.4048 -2.42871 0
M  V30 526 H 47.9854 -5.7345 -1.28174 0
M  V30 527 H 49.5094 -5.6908 -2.21314 0
M  V30 528 H 50.9234 -5.73271 0.0579047 0
M  V30 529 H 49.3204 -5.94469 0.820165 0
M  V30 530 H 50.3904 -4.64777 1.3824 0
M  V30 531 N 51.7335 -0.305618 -1.54608 0
M  V30 532 C 52.6965 0.555591 -2.22364 0
M  V30 533 C 53.6965 1.05768 -1.21119 0
M  V30 534 O 54.8865 0.952972 -1.45822 0
M  V30 535 C 52.0185 1.76974 -2.91364 0
M  V30 536 H 53.2115 -0.0364572 -2.99878 0
M  V30 537 H 50.7645 -0.0565007 -1.56198 0
M  V30 538 H 51.4995 2.40151 -2.17941 0
M  V30 539 H 51.2845 1.41732 -3.65588 0
M  V30 540 H 52.7745 2.38148 -3.43038 0
M  V30 541 N 53.2116 1.57565 -0.0334293 0
M  V30 542 C 54.1596 2.1164 0.96496 0
M  V30 543 C 55.1536 1.04398 1.33407 0
M  V30 544 O 56.3596 1.22828 1.3158 0
M  V30 545 H 52.7346 0.676222 0.32898 0
M  V30 546 H 54.7056 2.94455 0.483614 0
M  V30 547 C 53.4546 2.66207 2.23672 0
M  V30 548 H 52.7776 3.48378 1.96145 0
M  V30 549 H 54.2176 3.07685 2.9173 0
M  V30 550 C 52.6766 1.59151 2.96939 0
M  V30 551 O 53.2066 0.993858 3.89211 0
M  V30 552 N 51.4126 1.31093 2.59351 0
M  V30 553 H 50.9596 1.7988 1.84393 0
M  V30 554 H 50.9176 0.596889 3.08682 0
M  V30 555 N 54.6897 -0.239769 1.55765 0
M  V30 556 C 55.9387 -0.964754 1.77131 0
M  V30 557 C 56.2517 -1.86213 0.59868 0
M  V30 558 O 57.4577 -2.6244 0.695522 0
M  V30 559 C 55.9137 -1.76552 3.1362 0
M  V30 560 C 55.5217 -0.915185 4.38553 0
M  V30 561 C 57.2657 -2.48281 3.44321 0
M  V30 562 C 55.1727 -1.71225 5.66071 0
M  V30 563 H 54.1027 -0.363953 0.660344 0
M  V30 564 H 56.7537 -0.219181 1.82186 0
M  V30 565 H 55.1357 -2.55331 3.02691 0
M  V30 566 H 56.3097 -0.169217 4.60489 0
M  V30 567 H 54.6247 -0.310889 4.15238 0
M  V30 568 H 57.2217 -3.08382 4.36812 0
M  V30 569 H 57.5647 -3.20256 2.65973 0
M  V30 570 H 58.0977 -1.76507 3.56497 0
M  V30 571 H 54.8367 -1.03612 6.4726 0
M  V30 572 H 54.3567 -2.43331 5.48224 0
M  V30 573 H 56.0357 -2.27758 6.05587 0
M  V30 574 N 56.1678 -1.49265 -0.50573 0
M  V30 575 C 57.4158 -1.582 -1.25766 0
M  V30 576 C 57.7368 -0.268482 -1.93143 0
M  V30 577 O 57.0068 0.711833 -1.8251 0
M  V30 578 H 55.5868 -0.582873 -0.467191 0
M  V30 579 H 58.2488 -1.85865 -0.586525 0
M  V30 580 H 57.3448 -2.37563 -2.02412 0
M  V30 581 N 57.6459 0.756429 -1.3826 0
M  V30 582 C 58.5779 1.87971 -1.31147 0
M  V30 583 C 59.5909 1.61248 -0.224239 0
M  V30 584 O 60.7799 1.71881 -0.481581 0
M  V30 585 C 57.8799 3.23545 -1.00857 0
M  V30 586 C 57.0529 3.77794 -2.20432 0
M  V30 587 C 56.1119 4.91877 -1.86931 0
M  V30 588 O 55.1379 5.06659 -2.59395 0
M  V30 589 N 56.3399 5.74643 -0.822568 0
M  V30 590 H 59.1049 1.94585 -2.2794 0
M  V30 591 H 56.6659 0.936234 -1.32084 0
M  V30 592 H 58.6579 3.97403 -0.765021 0
M  V30 593 H 57.2279 3.12335 -0.128687 0
M  V30 594 H 56.4479 2.95534 -2.6087 0
M  V30 595 H 57.7359 4.10771 -3.00241 0
M  V30 596 H 57.1339 5.65266 -0.221575 0
M  V30 597 H 55.6909 6.48661 -0.638899 0
M  V30 598 N 59.124 1.23083 0.984299 0
M  V30 599 C 60.071 1.00854 2.07598 0
M  V30 600 C 61.041 -0.0726709 1.65941 0
M  V30 601 O 62.226 0.0786535 1.90638 0
M  V30 602 C 59.366 0.601645 3.39815 0
M  V30 603 C 58.479 1.75456 3.94765 0
M  V30 604 C 57.614 1.29482 5.15177 0
M  V30 605 C 56.653 2.41873 5.62284 0
M  V30 606 N 55.79 1.96885 6.73929 0
M  V30 607 H 60.63 1.943 2.25946 0
M  V30 608 H 58.167 0.968001 1.10762 0
M  V30 609 H 60.125 0.346854 4.15756 0
M  V30 610 H 58.755 -0.295803 3.21442 0
M  V30 611 H 57.807 2.12346 3.15616 0
M  V30 612 H 59.119 2.59965 4.25699 0
M  V30 613 H 58.273 0.997923 5.98437 0
M  V30 614 H 57.012 0.420046 4.85888 0
M  V30 615 H 56.017 2.72342 4.77608 0
M  V30 616 H 57.242 3.29881 5.93595 0
M  V30 617 H 55.188 1.11782 6.46406 0
M  V30 618 H 55.105 2.74956 7.04227 0
M  V30 619 H 56.373 1.70289 7.60672 0
M  V30 620 N 60.6021 -1.18246 1.0419 0
M  V30 621 C 61.5121 -2.25574 0.644476 0
M  V30 622 C 62.5281 -1.70845 -0.329826 0
M  V30 623 O 63.7041 -2.00554 -0.184443 0
M  V30 624 C 60.7691 -3.46697 0.014877 0
M  V30 625 C 59.8301 -4.16554 1.03834 0
M  V30 626 C 59.0631 -5.31894 0.438692 0
M  V30 627 O 59.2861 -5.65385 -0.754752 0
M  V30 628 O 58.2201 -5.90459 1.168 0
M  V30 629 H 62.0461 -2.61836 1.53869 0
M  V30 630 H 59.6311 -1.25352 0.812854 0
M  V30 631 H 61.5131 -4.20062 -0.335538 0
M  V30 632 H 60.1881 -3.12255 -0.853138 0
M  V30 633 H 59.0951 -3.45251 1.44057 0
M  V30 634 H 60.4281 -4.54998 1.87716 0
M  V30 635 N 62.0802 -0.821533 -1.34494 0
M  V30 636 C 63.3572 -0.33159 -1.92769 0
M  V30 637 C 63.7372 1.18088 -1.74981 0
M  V30 638 O 63.0852 1.98733 -1.12772 0
M  V30 639 C 63.2952 -0.759398 -3.40638 0
M  V30 640 C 64.6432 -0.757433 -4.1779 0
M  V30 641 O 65.6672 -0.70189 -3.49216 0
M  V30 642 O 64.5262 -0.829361 -5.4017 0
M  V30 643 H 61.6202 -0.0902502 -0.822061 0
M  V30 644 H 64.1662 -0.906231 -1.43477 0
M  V30 645 H 62.9382 -1.8012 -3.47379 0
M  V30 646 H 62.5612 -0.160378 -3.97276 0
M  V30 647 N 63.5583 1.46682 -0.576371 0
M  V30 648 C 64.8053 2.02412 -0.0595339 0
M  V30 649 C 65.1333 1.44859 1.29793 0
M  V30 650 O 64.3883 0.601099 1.8624 0
M  V30 651 C 64.6873 3.57345 0.062886 0
M  V30 652 C 64.3533 4.33908 -1.22616 0
M  V30 653 C 63.0153 4.54544 -1.57933 0
M  V30 654 C 65.3673 4.77919 -2.07948 0
M  V30 655 C 62.6953 5.16444 -2.78393 0
M  V30 656 C 65.0473 5.41149 -3.27629 0
M  V30 657 C 63.7113 5.60014 -3.63236 0
M  V30 658 H 62.9813 0.74068 -0.021785 0
M  V30 659 H 65.6283 1.76128 -0.751735 0
M  V30 660 H 63.9333 3.82729 0.838178 0
M  V30 661 H 65.6303 3.98136 0.478439 0
M  V30 662 H 62.2203 4.18138 -0.941202 0
M  V30 663 H 66.4043 4.61738 -1.81967 0
M  V30 664 H 61.6603 5.29242 -3.06126 0
M  V30 665 H 65.8343 5.74211 -3.94023 0
M  V30 666 H 63.4613 6.07748 -4.56669 0
M  V30 667 N 65.0364 0.313813 1.54444 0
M  V30 668 C 65.9464 -0.565714 2.27677 0
M  V30 669 C 66.9624 -1.13754 1.31666 0
M  V30 670 O 68.1384 -1.15959 1.64668 0
M  V30 671 C 65.2034 -1.71528 3.01296 0
M  V30 672 C 64.2644 -1.17624 4.12872 0
M  V30 673 C 63.4974 -2.27102 4.8297 0
M  V30 674 O 63.7204 -3.47256 4.52514 0
M  V30 675 O 62.6544 -1.9307 5.70094 0
M  V30 676 H 66.4804 0.0287296 3.03686 0
M  V30 677 H 64.0654 0.0798312 1.49187 0
M  V30 678 H 65.9474 -2.38476 3.4743 0
M  V30 679 H 64.6224 -2.29608 2.2817 0
M  V30 680 H 63.5294 -0.472124 3.71109 0
M  V30 681 H 64.8624 -0.640695 4.88012 0
M  V30 682 N 66.5145 -1.57545 0.0417849 0
M  V30 683 C 67.4245 -2.14451 -0.951213 0
M  V30 684 C 68.4405 -1.09992 -1.34825 0
M  V30 685 O 69.6165 -1.42114 -1.42708 0
M  V30 686 C 66.6815 -2.67063 -2.21084 0
M  V30 687 C 65.7425 -3.86284 -1.87304 0
M  V30 688 C 64.9755 -4.36378 -3.07261 0
M  V30 689 O 65.1985 -3.85587 -4.20332 0
M  V30 690 O 64.1325 -5.28077 -2.88822 0
M  V30 691 H 67.9585 -2.99601 -0.497287 0
M  V30 692 H 65.5435 -1.48317 -0.179567 0
M  V30 693 H 67.4255 -3.00914 -2.95006 0
M  V30 694 H 66.1005 -1.84989 -2.65633 0
M  V30 695 H 65.0075 -3.57338 -1.10727 0
M  V30 696 H 66.3405 -4.6956 -1.47562 0
M  V30 697 N 67.9926 0.231505 -1.5589 0
M  V30 698 C 68.9556 1.27028 -1.90779 0
M  V30 699 C 69.9556 1.40308 -0.785507 0
M  V30 700 O 71.1456 1.38744 -1.05336 0
M  V30 701 C 68.2776 2.64566 -2.14983 0
M  V30 702 H 69.4706 0.973017 -2.83677 0
M  V30 703 H 67.0236 0.471486 -1.49019 0
M  V30 704 H 67.7586 2.99406 -1.24604 0
M  V30 705 H 67.5436 2.56305 -2.96732 0
M  V30 706 H 69.0336 3.39543 -2.43105 0
M  V30 707 N 69.4707 1.49531 0.497807 0
M  V30 708 C 70.8867 1.36365 0.829266 0
M  V30 709 C 71.0867 0.399184 1.97506 0
M  V30 710 O 70.1427 -0.167977 2.51941 0
M  V30 711 C 71.4557 2.77153 1.16647 0
M  V30 712 C 73.0037 2.85877 1.27449 0
M  V30 713 C 73.4787 4.2744 1.64497 0
M  V30 714 N 74.9697 4.30265 1.7154 0
M  V30 715 C 75.7047 5.3677 2.01656 0
M  V30 716 N 75.2007 6.53516 2.29976 0
M  V30 717 N 76.9937 5.24189 2.02934 0
M  V30 718 H 69.1447 2.10831 -0.257703 0
M  V30 719 H 71.4077 0.946534 -0.0527091 0
M  V30 720 H 71.1137 3.49442 0.397872 0
M  V30 721 H 70.9877 3.12722 2.10915 0
M  V30 722 H 73.3747 2.13824 2.0338 0
M  V30 723 H 73.4557 2.53887 0.312244 0
M  V30 724 H 73.0997 5.00021 0.891151 0
M  V30 725 H 73.0297 4.56896 2.61827 0
M  V30 726 H 75.5207 3.4607 1.51802 0
M  V30 727 H 75.8337 7.30506 2.52153 0
M  V30 728 H 74.1787 6.56737 2.27425 0
M  V30 729 H 77.3697 4.31988 1.80289 0
M  V30 730 H 77.5427 6.07286 2.26071 0
M  V30 731 N 70.9488 -0.749086 1.3866 0
M  V30 732 C 71.8958 -1.86291 1.36251 0
M  V30 733 C 72.8658 -1.64578 0.224347 0
M  V30 734 O 74.0508 -1.86181 0.417279 0
M  V30 735 C 71.1908 -3.23644 1.19786 0
M  V30 736 C 70.3038 -3.57158 2.43027 0
M  V30 737 C 69.4388 -4.83838 2.19258 0
M  V30 738 C 68.4778 -5.10152 3.38247 0
M  V30 739 N 67.6148 -6.28029 3.13884 0
M  V30 740 H 72.4548 -1.87685 2.3147 0
M  V30 741 H 69.9918 -0.917287 1.14997 0
M  V30 742 H 71.9498 -4.0291 1.08254 0
M  V30 743 H 70.5798 -3.21566 0.282031 0
M  V30 744 H 69.6318 -2.72701 2.65214 0
M  V30 745 H 70.9438 -3.7253 3.31697 0
M  V30 746 H 70.0978 -5.71057 2.04888 0
M  V30 747 H 68.8368 -4.70614 1.2796 0
M  V30 748 H 67.8418 -4.21401 3.53131 0
M  V30 749 H 69.0668 -5.25271 4.30427 0
M  V30 750 H 67.0128 -6.1612 2.25238 0
M  V30 751 H 66.9298 -6.43922 3.96106 0
M  V30 752 H 68.1978 -7.18124 3.03179 0
M  V30 753 N 72.4269 -1.23603 -0.977757 0
M  V30 754 C 73.3739 -1.01954 -2.07061 0
M  V30 755 C 74.3439 0.0638697 -1.65977 0
M  V30 756 O 75.5289 -0.0887624 -1.90593 0
M  V30 757 C 72.6689 -0.619658 -3.39491 0
M  V30 758 C 71.7819 -1.77547 -3.93829 0
M  V30 759 C 70.9169 -1.32212 -5.14484 0
M  V30 760 C 69.9559 -2.44852 -5.60994 0
M  V30 761 N 69.0929 -2.00456 -6.72876 0
M  V30 762 H 73.9329 -1.95495 -2.24913 0
M  V30 763 H 71.4699 -0.973861 -1.10247 0
M  V30 764 H 73.4279 -0.368898 -4.15566 0
M  V30 765 H 72.0579 0.278752 -3.21594 0
M  V30 766 H 71.1099 -2.14016 -3.14486 0
M  V30 767 H 72.4219 -2.62219 -4.24314 0
M  V30 768 H 71.5759 -1.02965 -5.97899 0
M  V30 769 H 70.3149 -0.445808 -4.85658 0
M  V30 770 H 69.3199 -2.74871 -4.76157 0
M  V30 771 H 70.5449 -3.33024 -5.91837 0
M  V30 772 H 68.4909 -1.15208 -6.45804 0
M  V30 773 H 68.4079 -2.78687 -7.02759 0
M  V30 774 H 69.6759 -1.7432 -7.59758 0
M  V30 775 N 73.905 1.17692 -1.04816 0
M  V30 776 C 74.868 2.19787 -0.650117 0
M  V30 777 C 75.868 1.58044 0.296427 0
M  V30 778 O 77.058 1.74012 0.0808097 0
M  V30 779 C 74.19 3.40869 0.0456987 0
M  V30 780 H 75.383 2.56516 -1.5537 0
M  V30 781 H 72.936 1.31708 -0.841594 0
M  V30 782 H 73.671 3.09681 0.962726 0
M  V30 783 H 73.456 3.86928 -0.634727 0
M  V30 784 H 74.946 4.16445 0.310432 0
M  V30 785 N 75.3831 0.828654 1.34056 0
M  V30 786 C 76.3131 0.269443 2.3194 0
M  V30 787 C 77.2941 -0.617247 1.58506 0
M  V30 788 O 78.4791 -0.542931 1.86456 0
M  V30 789 C 75.6091 -0.564793 3.42677 0
M  V30 790 C 74.5631 0.225241 4.27407 0
M  V30 791 C 73.8891 -0.7321 5.29664 0
M  V30 792 C 75.1891 1.43663 5.02154 0
M  V30 793 H 76.8831 1.08728 2.7896 0
M  V30 794 H 74.4291 0.524283 1.34117 0
M  V30 795 H 76.3821 -0.966233 4.10173 0
M  V30 796 H 75.1061 -1.41574 2.9432 0
M  V30 797 H 73.7651 0.608117 3.61521 0
M  V30 798 H 73.4131 -1.57916 4.77568 0
M  V30 799 H 73.1131 -0.20767 5.87233 0
M  V30 800 H 74.6371 -1.13128 6.00029 0
M  V30 801 H 76.0511 1.1089 5.62473 0
M  V30 802 H 74.4481 1.89711 5.69324 0
M  V30 803 H 75.5181 2.21181 4.31517 0
M  V30 804 N 76.8612 -1.46375 0.584142 0
M  V30 805 C 77.8082 -2.30323 -0.148286 0
M  V30 806 C 78.7782 -1.40703 -0.882713 0
M  V30 807 O 79.9632 -1.69651 -0.873099 0
M  V30 808 C 77.1032 -3.25196 -1.15507 0
M  V30 809 C 76.2162 -4.29915 -0.423943 0
M  V30 810 C 75.3512 -5.11914 -1.41838 0
M  V30 811 C 74.3902 -6.08381 -0.673736 0
M  V30 812 N 73.5272 -6.83242 -1.6163 0
M  V30 813 H 78.3672 -2.92427 0.573644 0
M  V30 814 H 75.9042 -1.44118 0.294703 0
M  V30 815 H 77.8622 -3.78646 -1.75166 0
M  V30 816 H 76.4922 -2.64898 -1.8447 0
M  V30 817 H 75.5442 -3.7931 0.287714 0
M  V30 818 H 76.8562 -4.98549 0.158128 0
M  V30 819 H 76.0102 -5.69648 -2.08773 0
M  V30 820 H 74.7492 -4.43243 -2.03438 0
M  V30 821 H 73.7542 -5.49799 0.00938483 0
M  V30 822 H 74.9792 -6.79071 -0.0631082 0
M  V30 823 H 72.9252 -6.1728 -2.22038 0
M  V30 824 H 72.8422 -7.48144 -1.08707 0
M  V30 825 H 74.1102 -7.45534 -2.27596 0
M  V30 826 N 78.3393 -0.321999 -1.54275 0
M  V30 827 C 79.2693 0.537411 -2.27231 0
M  V30 828 C 80.2503 1.12064 -1.27968 0
M  V30 829 O 81.4353 1.14606 -1.56777 0
M  V30 830 C 78.5653 1.69919 -3.02894 0
M  V30 831 C 77.5193 1.24534 -4.09482 0
M  V30 832 C 76.8453 2.49394 -4.72977 0
M  V30 833 C 78.1453 0.361335 -5.21049 0
M  V30 834 H 79.8393 -0.0711406 -2.99315 0
M  V30 835 H 77.3853 -0.0356555 -1.43956 0
M  V30 836 H 79.3383 2.30668 -3.52662 0
M  V30 837 H 78.0623 2.33431 -2.28424 0
M  V30 838 H 76.7213 0.660782 -3.60596 0
M  V30 839 H 76.3693 3.11265 -3.95124 0
M  V30 840 H 76.0693 2.19718 -5.44975 0
M  V30 841 H 77.5933 3.10908 -5.25517 0
M  V30 842 H 79.0073 0.875072 -5.66582 0
M  V30 843 H 77.4043 0.157428 -5.99893 0
M  V30 844 H 78.4743 -0.60822 -4.8107 0
M  V30 845 N 79.8174 1.5752 -0.0501392 0
M  V30 846 C 81.0654 1.9227 0.622642 0
M  V30 847 C 81.3864 0.929083 1.71444 0
M  V30 848 O 80.6564 -0.0262186 1.95882 0
M  V30 849 H 79.2364 0.709739 0.232981 0
M  V30 850 H 81.8984 1.94628 -0.102898 0
M  V30 851 H 80.9944 2.93479 1.06191 0
M  V30 852 N 81.2955 -0.223234 1.56011 0
M  V30 853 C 82.2585 -1.26014 1.9145 0
M  V30 854 C 83.2585 -1.3989 0.792937 0
M  V30 855 O 84.4485 -1.38184 1.0607 0
M  V30 856 C 81.5805 -2.63422 2.16383 0
M  V30 857 H 82.7735 -0.95796 2.84189 0
M  V30 858 H 80.3265 -0.463576 1.49267 0
M  V30 859 H 81.0615 -2.98741 1.2619 0
M  V30 860 H 80.8465 -2.54728 2.98088 0
M  V30 861 H 82.3365 -3.38249 2.44903 0
M  V30 862 N 82.7736 -1.49793 -0.48987 0
M  V30 863 C 83.7206 -1.67281 -1.59014 0
M  V30 864 C 84.6906 -0.514177 -1.57941 0
M  V30 865 O 85.8756 -0.742533 -1.75759 0
M  V30 866 C 83.0156 -1.75569 -2.97102 0
M  V30 867 C 82.1286 -3.0281 -3.08107 0
M  V30 868 C 81.2636 -3.02008 -4.36995 0
M  V30 869 C 80.3026 -4.23782 -4.41673 0
M  V30 870 N 79.4396 -4.20826 -5.62005 0
M  V30 871 H 84.2796 -2.61224 -1.43409 0
M  V30 872 H 81.8166 -1.29508 -0.697565 0
M  V30 873 H 83.7746 -1.78354 -3.77155 0
M  V30 874 H 82.4046 -0.850827 -3.11385 0
M  V30 875 H 81.4566 -3.09584 -2.21047 0
M  V30 876 H 82.7686 -3.92801 -3.07423 0
M  V30 877 H 81.9226 -3.03418 -5.25378 0
M  V30 878 H 80.6616 -2.09815 -4.4026 0
M  V30 879 H 79.6666 -4.22604 -3.5169 0
M  V30 880 H 80.8916 -5.17181 -4.40115 0
M  V30 881 H 78.8376 -3.31476 -5.66091 0
M  V30 882 H 78.7546 -5.04564 -5.62984 0
M  V30 883 H 80.0226 -4.26355 -6.52565 0
M  V30 884 N 84.2517 0.741722 -1.39055 0
M  V30 885 C 85.1987 1.85566 -1.37237 0
M  V30 886 C 86.1687 1.64457 -0.233072 0
M  V30 887 O 87.3537 1.85957 -0.427147 0
M  V30 888 C 84.4937 3.23004 -1.215 0
M  V30 889 C 83.6067 3.55864 -2.44918 0
M  V30 890 C 82.7417 4.82669 -2.21821 0
M  V30 891 C 81.7807 5.08351 -3.40948 0
M  V30 892 N 80.9177 6.26356 -3.17211 0
M  V30 893 H 85.7577 1.86455 -2.32462 0
M  V30 894 H 83.2947 0.911176 -1.15482 0
M  V30 895 H 85.2527 4.02331 -1.10389 0
M  V30 896 H 83.8827 3.21411 -0.29908 0
M  V30 897 H 82.9347 2.7129 -2.66657 0
M  V30 898 H 84.2467 3.70765 -3.33668 0
M  V30 899 H 83.4007 5.69962 -2.07914 0
M  V30 900 H 82.1397 4.69929 -1.30454 0
M  V30 901 H 81.1447 4.19522 -3.55361 0
M  V30 902 H 82.3697 5.22981 -4.33207 0
M  V30 903 H 80.3157 6.14917 -2.28502 0
M  V30 904 H 80.2327 6.41813 -3.99515 0
M  V30 905 H 81.5007 7.16506 -3.06984 0
M  V30 906 N 85.7298 1.2412 0.971189 0
M  V30 907 C 86.9758 1.08041 1.71625 0
M  V30 908 C 87.3088 -0.380407 1.90438 0
M  V30 909 O 86.5838 -1.28127 1.46334 0
M  V30 910 C 86.8668 1.81682 3.10908 0
M  V30 911 C 86.7198 3.35493 2.99608 0
M  V30 912 C 88.0388 1.58671 4.10501 0
M  V30 913 H 85.1578 0.39388 0.622919 0
M  V30 914 H 87.7998 1.52743 1.13003 0
M  V30 915 H 85.9498 1.43684 3.60953 0
M  V30 916 H 87.6218 3.83068 2.57015 0
M  V30 917 H 85.8648 3.64052 2.35899 0
M  V30 918 H 86.5358 3.82217 3.98264 0
M  V30 919 H 89.0118 1.91719 3.69301 0
M  V30 920 H 87.8878 2.1266 5.06031 0
M  V30 921 H 88.1488 0.524161 4.38982 0
M  V30 922 N 87.2079 -1.17134 1.05439 0
M  V30 923 C 88.4549 -1.87456 0.765942 0
M  V30 924 C 88.7829 -1.81189 -0.707153 0
M  V30 925 O 88.0379 -1.21633 -1.5331 0
M  V30 926 C 88.3369 -3.36833 1.19491 0
M  V30 927 C 88.0029 -3.63301 2.67063 0
M  V30 928 C 86.6649 -3.70234 3.07376 0
M  V30 929 C 89.0169 -3.74575 3.62413 0
M  V30 930 C 86.3449 -3.85933 4.41896 0
M  V30 931 C 88.6969 -3.91793 4.9667 0
M  V30 932 C 87.3609 -3.96966 5.36633 0
M  V30 933 H 86.6309 -0.685948 0.280278 0
M  V30 934 H 89.2779 -1.38556 1.32192 0
M  V30 935 H 87.5829 -3.87807 0.557969 0
M  V30 936 H 89.2799 -3.89611 0.948893 0
M  V30 937 H 85.8699 -3.58532 2.34846 0
M  V30 938 H 90.0539 -3.68537 3.32406 0
M  V30 939 H 85.3099 -3.88187 4.72357 0
M  V30 940 H 89.4839 -3.99458 5.70444 0
M  V30 941 H 87.1109 -4.08883 6.40874 0
M  V30 942 N 88.686 -0.835752 -1.33615 0
M  V30 943 C 89.935 -0.426289 -1.97144 0
M  V30 944 C 90.248 1.01912 -1.66953 0
M  V30 945 O 91.454 1.53311 -2.24072 0
M  V30 946 C 89.91 -0.711321 -3.52801 0
M  V30 947 C 89.518 -2.1712 -3.91871 0
M  V30 948 C 91.262 -0.368654 -4.22896 0
M  V30 949 C 89.169 -2.40044 -5.40493 0
M  V30 950 H 88.099 -0.15567 -0.737755 0
M  V30 951 H 90.75 -1.0239 -1.52278 0
M  V30 952 H 89.132 -0.0433766 -3.95976 0
M  V30 953 H 90.306 -2.87936 -3.59763 0
M  V30 954 H 88.621 -2.47654 -3.34749 0
M  V30 955 H 91.218 -0.517601 -5.32189 0
M  V30 956 H 91.561 0.688078 -4.10574 0
M  V30 957 H 92.094 -0.991702 -3.8524 0
M  V30 958 H 88.833 -3.44271 -5.57815 0
M  V30 959 H 88.353 -1.73785 -5.74072 0
M  V30 960 H 90.032 -2.23042 -6.0734 0
M  V30 961 N 90.1641 1.46063 -0.591896 0
M  V30 962 C 91.0741 2.34192 0.13831 0
M  V30 963 C 92.0901 1.50305 0.876608 0
M  V30 964 O 93.2661 1.8315 0.837728 0
M  V30 965 C 90.3311 3.27656 1.13326 0
M  V30 966 C 89.3921 4.27445 0.39863 0
M  V30 967 C 88.6251 5.16443 1.34618 0
M  V30 968 O 88.8481 5.08553 2.58321 0
M  V30 969 O 87.7821 5.95843 0.851768 0
M  V30 970 H 91.6081 2.98002 -0.58552 0
M  V30 971 H 89.1931 1.45188 -0.352239 0
M  V30 972 H 91.0751 3.85291 1.70671 0
M  V30 973 H 89.7501 2.6643 1.83839 0
M  V30 974 H 88.6571 3.73471 -0.216895 0
M  V30 975 H 89.9901 4.91482 -0.265709 0
M  V30 976 N 91.6422 0.330177 1.54103 0
M  V30 977 C 92.9192 -0.325007 1.92881 0
M  V30 978 C 93.2992 -1.6934 1.26045 0
M  V30 979 O 92.6472 -2.24855 0.406526 0
M  V30 980 C 92.8572 -0.410634 3.46576 0
M  V30 981 C 94.2052 -0.667801 4.19316 0
M  V30 982 O 95.2292 -0.49329 3.52768 0
M  V30 983 O 94.0882 -1.00491 5.37181 0
M  V30 984 H 91.1822 -0.186873 0.80561 0
M  V30 985 H 93.7282 0.380376 1.65382 0
M  V30 986 H 92.5002 0.550164 3.87413 0
M  V30 987 H 92.1232 -1.16333 3.802 0
M  V30 988 N 93.1203 -1.57491 0.0584922 0
M  V30 989 C 94.3663 -1.93264 -0.614558 0
M  V30 990 C 94.6993 -0.937717 -1.7006 0
M  V30 991 O 93.9743 0.0351652 -1.94468 0
M  V30 992 C 94.2573 -3.3938 -1.20386 0
M  V30 993 C 94.1103 -4.49625 -0.125375 0
M  V30 994 C 95.4293 -3.86039 -2.11334 0
M  V30 995 H 92.5483 -0.702791 -0.221933 0
M  V30 996 H 95.1903 -1.8961 0.12175 0
M  V30 997 H 93.3403 -3.42626 -1.83139 0
M  V30 998 H 95.0123 -4.58506 0.506971 0
M  V30 999 H 93.2553 -4.30354 0.545672 0
M  V30 1000 H 93.9263 -5.48967 -0.577861 0
M  V30 1001 H 96.4023 -3.84716 -1.58534 0
M  V30 1002 H 95.2783 -4.88914 -2.49507 0
M  V30 1003 H 95.5393 -3.23215 -3.01636 0
M  V30 1004 N 94.5984 0.214957 -1.56127 0
M  V30 1005 C 95.8234 0.95924 -1.83884 0
M  V30 1006 C 96.2484 1.7689 -0.639644 0
M  V30 1007 O 95.6064 1.76566 0.411601 0
M  V30 1008 C 95.6544 1.84723 -3.09693 0
M  V30 1009 O 94.7584 2.94346 -2.8885 0
M  V30 1010 H 94.0994 0.27125 -0.606069 0
M  V30 1011 H 96.6294 0.226276 -2.03345 0
M  V30 1012 H 96.6394 2.25576 -3.39969 0
M  V30 1013 H 95.3144 1.25218 -3.96602 0
M  V30 1014 H 93.8914 2.57391 -2.69823 0
M  V30 1015 N 96.0765 1.50051 0.48192 0
M  V30 1016 C 97.4925 1.37237 0.814756 0
M  V30 1017 C 97.6925 0.420109 1.97072 0
M  V30 1018 O 96.7485 -0.141246 2.52105 0
M  V30 1019 C 98.0615 2.78375 1.13701 0
M  V30 1020 C 99.6095 2.87213 1.2441 0
M  V30 1021 C 100.084 4.29161 1.59954 0
M  V30 1022 N 101.575 4.32061 1.66967 0
M  V30 1023 C 102.31 5.38879 1.95952 0
M  V30 1024 N 101.806 6.55918 2.23031 0
M  V30 1025 N 103.599 5.26312 1.97363 0
M  V30 1026 H 95.7505 2.10546 -0.28005 0
M  V30 1027 H 98.0135 0.945921 -0.0627454 0
M  V30 1028 H 97.7195 3.49845 0.360787 0
M  V30 1029 H 97.5935 3.14941 2.07586 0
M  V30 1030 H 99.9805 2.15969 2.01101 0
M  V30 1031 H 100.061 2.54204 0.285299 0
M  V30 1032 H 99.7055 5.00938 0.838067 0
M  V30 1033 H 99.6355 4.59648 2.56966 0
M  V30 1034 H 102.126 3.47661 1.48123 0
M  V30 1035 H 102.439 7.33139 2.44391 0
M  V30 1036 H 100.784 6.59112 2.20447 0
M  V30 1037 H 103.975 4.33876 1.75697 0
M  V30 1038 H 104.148 6.09649 2.19618 0
M  V30 1039 N 97.5546 -0.734337 1.39446 0
M  V30 1040 C 98.4646 -1.87879 1.40495 0
M  V30 1041 C 99.4806 -1.714 0.299672 0
M  V30 1042 O 100.657 -1.93991 0.541249 0
M  V30 1043 C 97.7216 -3.23477 1.24754 0
M  V30 1044 C 96.7826 -3.52344 2.45259 0
M  V30 1045 C 96.0156 -4.81473 2.30259 0
M  V30 1046 O 96.2386 -5.55237 1.30643 0
M  V30 1047 O 95.1726 -5.10254 3.19256 0
M  V30 1048 H 98.9986 -1.89949 2.36966 0
M  V30 1049 H 96.5836 -0.882243 1.20569 0
M  V30 1050 H 98.4656 -4.04509 1.18111 0
M  V30 1051 H 97.1406 -3.22176 0.313781 0
M  V30 1052 H 96.0476 -2.71396 2.57478 0
M  V30 1053 H 97.3806 -3.58426 3.37331 0
M  V30 1054 N 99.0327 -1.24633 -0.964593 0
M  V30 1055 C 100.28 -1.08788 -1.70796 0
M  V30 1056 C 100.608 0.372783 -1.90894 0
M  V30 1057 O 99.8627 1.29167 -1.47018 0
M  V30 1058 C 100.162 -1.7763 -3.10133 0
M  V30 1059 C 99.8277 -3.27557 -3.09866 0
M  V30 1060 C 98.4897 -3.6846 -3.09501 0
M  V30 1061 C 100.842 -4.23389 -3.03959 0
M  V30 1062 C 98.1697 -5.03624 -3.00965 0
M  V30 1063 C 100.522 -5.58565 -2.96965 0
M  V30 1064 C 99.1857 -5.98809 -2.9493 0
M  V30 1065 H 98.4557 -0.398084 -0.624988 0
M  V30 1066 H 101.103 -1.54777 -1.12767 0
M  V30 1067 H 99.4077 -1.24044 -3.71645 0
M  V30 1068 H 101.105 -1.62832 -3.66451 0
M  V30 1069 H 97.6947 -2.95006 -3.10917 0
M  V30 1070 H 101.879 -3.92787 -3.03368 0
M  V30 1071 H 97.1347 -5.33998 -2.97752 0
M  V30 1072 H 101.309 -6.32523 -2.91354 0
M  V30 1073 H 98.9357 -7.03505 -2.88071 0
M  V30 1074 N 100.511 1.16574 -1.06058 0
M  V30 1075 C 101.757 1.87324 -0.777022 0
M  V30 1076 C 102.09 1.81351 0.694645 0
M  V30 1077 O 101.365 1.22753 1.50871 0
M  V30 1078 C 101.648 3.36991 -1.26922 0
M  V30 1079 C 101.501 3.51667 -2.80447 0
M  V30 1080 C 102.82 4.3131 -0.87521 0
M  V30 1081 H 99.9388 0.680191 -0.28374 0
M  V30 1082 H 102.581 1.37036 -1.3161 0
M  V30 1083 H 100.731 3.79949 -0.81063 0
M  V30 1084 H 102.403 3.17664 -3.34495 0
M  V30 1085 H 100.646 2.93656 -3.19294 0
M  V30 1086 H 101.317 4.56766 -3.0995 0
M  V30 1087 H 103.793 3.9624 -1.27014 0
M  V30 1088 H 102.669 5.34545 -1.2471 0
M  V30 1089 H 102.93 4.41552 0.220071 0
M  V30 1090 N 101.989 0.842826 1.3317 0
M  V30 1091 C 102.899 0.281444 2.32906 0
M  V30 1092 C 103.915 -0.594587 1.63526 0
M  V30 1093 O 105.091 -0.49777 1.95152 0
M  V30 1094 C 102.156 -0.530929 3.42611 0
M  V30 1095 C 101.217 0.369843 4.27704 0
M  V30 1096 C 100.45 -0.403853 5.3217 0
M  V30 1097 O 100.673 -1.63513 5.46461 0
M  V30 1098 O 99.6069 0.224199 6.01482 0
M  V30 1099 H 103.433 1.10744 2.82789 0
M  V30 1100 H 101.018 0.60545 1.36582 0
M  V30 1101 H 102.9 -0.992437 4.09547 0
M  V30 1102 H 101.575 -1.33392 2.94938 0
M  V30 1103 H 100.482 0.879275 3.6362 0
M  V30 1104 H 101.815 1.13771 4.78871 0
M  V30 1105 N 103.467 -1.45747 0.599634 0
M  V30 1106 C 104.377 -2.34262 -0.125888 0
M  V30 1107 C 105.393 -1.50768 -0.868625 0
M  V30 1108 O 106.569 -1.83592 -0.828003 0
M  V30 1109 C 103.634 -3.28252 -1.11587 0
M  V30 1110 C 102.695 -4.27651 -0.375956 0
M  V30 1111 C 101.928 -5.1715 -1.31877 0
M  V30 1112 O 102.151 -5.09916 -2.55621 0
M  V30 1113 O 101.085 -5.96286 -0.820157 0
M  V30 1114 H 104.911 -2.97688 0.601315 0
M  V30 1115 H 102.496 -1.44999 0.359934 0
M  V30 1116 H 104.378 -3.86191 -1.68626 0
M  V30 1117 H 103.053 -2.67401 -1.82424 0
M  V30 1118 H 101.96 -3.7335 0.236698 0
M  V30 1119 H 103.293 -4.91334 0.29177 0
M  V30 1120 N 104.945 -0.338344 -1.53925 0
M  V30 1121 C 106.192 0.259758 -2.00827 0
M  V30 1122 C 106.52 1.50973 -1.22628 0
M  V30 1123 O 105.775 1.93379 -0.300509 0
M  V30 1124 C 106.074 0.62448 -3.51902 0
M  V30 1125 C 105.74 -0.528006 -4.47798 0
M  V30 1126 C 104.402 -0.844298 -4.73735 0
M  V30 1127 C 106.754 -1.30143 -5.0469 0
M  V30 1128 C 104.082 -1.93648 -5.53821 0
M  V30 1129 C 106.434 -2.38382 -5.85967 0
M  V30 1130 C 105.098 -2.70576 -6.10201 0
M  V30 1131 H 104.368 0.0950523 -0.734878 0
M  V30 1132 H 107.015 -0.465182 -1.85764 0
M  V30 1133 H 105.32 1.43006 -3.64769 0
M  V30 1134 H 107.017 1.09905 -3.85645 0
M  V30 1135 H 103.607 -0.271421 -4.2774 0
M  V30 1136 H 107.791 -1.07033 -4.84621 0
M  V30 1137 H 103.047 -2.19021 -5.70824 0
M  V30 1138 H 107.221 -2.98746 -6.29066 0
M  V30 1139 H 104.848 -3.55333 -6.72044 0
M  V30 1140 N 106.423 1.57458 -0.0668435 0
M  V30 1141 C 107.672 1.92477 0.602947 0
M  V30 1142 C 107.985 0.948419 1.71068 0
M  V30 1143 O 109.191 1.19124 2.43971 0
M  V30 1144 C 107.647 3.41903 1.12383 0
M  V30 1145 C 107.255 4.47975 0.04737 0
M  V30 1146 C 108.999 3.85931 1.76797 0
M  V30 1147 C 106.906 5.88529 0.582022 0
M  V30 1148 H 105.836 0.718387 0.22899 0
M  V30 1149 H 108.487 1.82978 -0.138276 0
M  V30 1150 H 106.869 3.46459 1.91787 0
M  V30 1151 H 108.043 4.55029 -0.726978 0
M  V30 1152 H 106.358 4.13384 -0.500243 0
M  V30 1153 H 108.955 4.88322 2.17821 0
M  V30 1154 H 109.298 3.23029 2.62599 0
M  V30 1155 H 109.831 3.83958 1.04024 0
M  V30 1156 H 106.57 6.55065 -0.238721 0
M  V30 1157 H 106.09 5.85004 1.324 0
M  V30 1158 H 107.769 6.38258 1.05999 0
M  V30 1159 N 107.901 -0.206675 1.56239 0
M  V30 1160 C 109.147 -0.925733 1.81113 0
M  V30 1161 C 109.502 -1.81368 0.642135 0
M  V30 1162 O 108.795 -1.88126 -0.363211 0
M  V30 1163 C 108.989 -1.78675 3.09532 0
M  V30 1164 C 108.818 -0.98365 4.3881 0
M  V30 1165 C 107.588 -0.672661 5.00803 0
M  V30 1166 C 109.786 -0.341847 5.13163 0
M  V30 1167 N 107.768 0.150283 6.13716 0
M  V30 1168 C 109.139 0.343815 6.19046 0
M  V30 1169 C 111.194 -0.256392 4.97239 0
M  V30 1170 C 109.897 1.10678 7.10734 0
M  V30 1171 C 111.923 0.493142 5.8934 0
M  V30 1172 C 111.285 1.16729 6.94661 0
M  V30 1173 H 107.384 -0.318524 0.714189 0
M  V30 1174 H 109.968 -0.195378 1.93717 0
M  V30 1175 H 108.139 -2.4888 2.98183 0
M  V30 1176 H 109.871 -2.44441 3.22538 0
M  V30 1177 H 106.626 -0.994294 4.63045 0
M  V30 1178 H 107.05 0.551026 6.74754 0
M  V30 1179 H 111.692 -0.763249 4.15854 0
M  V30 1180 H 109.41 1.6251 7.91591 0
M  V30 1181 H 112.996 0.560465 5.79094 0
M  V30 1182 H 111.876 1.738 7.64698 0
M  V30 1183 N 109.379 -1.50304 -0.473955 0
M  V30 1184 C 110.79 -1.54042 -1.0549 0
M  V30 1185 C 111.141 -0.342248 -1.93192 0
M  V30 1186 O 110.266 0.545157 -2.09421 0
M  V30 1187 C 110.861 -2.79152 -1.91989 0
M  V30 1188 C 109.42 -2.8558 -2.45196 0
M  V30 1189 C 108.567 -2.48295 -1.2347 0
M  V30 1190 H 111.518 -1.5661 -0.256693 0
M  V30 1191 H 111.539 -2.60845 -2.7702 0
M  V30 1192 H 111.051 -3.66339 -1.28131 0
M  V30 1193 H 109.152 -2.02738 -3.12615 0
M  V30 1194 H 109.265 -3.88403 -2.80499 0
M  V30 1195 H 107.629 -2.00669 -1.56856 0
M  V30 1196 H 108.412 -3.37787 -0.612789 0
M  V30 1197 N 110.857 0.726932 -1.39834 0
M  V30 1198 C 111.82 1.82269 -1.38962 0
M  V30 1199 C 112.82 1.58248 -0.285334 0
M  V30 1200 O 114.01 1.65499 -0.54366 0
M  V30 1201 C 111.142 3.20186 -1.17019 0
M  V30 1202 H 112.335 1.84443 -2.36476 0
M  V30 1203 H 109.888 0.931416 -1.25516 0
M  V30 1204 H 110.623 3.23669 -0.202204 0
M  V30 1205 H 110.408 3.3902 -1.96998 0
M  V30 1206 H 111.898 4.00235 -1.1917 0
M  V30 1207 N 112.336 1.25143 0.95797 0
M  V30 1208 C 113.585 1.0909 1.69654 0
M  V30 1209 C 113.898 -0.368548 1.92097 0
M  V30 1210 O 115.104 -0.649455 2.63618 0
M  V30 1211 C 113.56 1.90395 3.05414 0
M  V30 1212 C 113.168 3.4081 2.90779 0
M  V30 1213 C 114.912 1.82901 3.83076 0
M  V30 1214 C 112.819 4.14423 4.21909 0
M  V30 1215 H 111.749 0.404625 0.636235 0
M  V30 1216 H 114.4 1.4931 1.06672 0
M  V30 1217 H 112.782 1.42996 3.69281 0
M  V30 1218 H 113.956 3.95859 2.35865 0
M  V30 1219 H 112.271 3.49361 2.26575 0
M  V30 1220 H 114.868 2.35196 4.80195 0
M  V30 1221 H 115.211 0.796224 4.08615 0
M  V30 1222 H 115.744 2.28033 3.25954 0
M  V30 1223 H 112.483 5.18102 4.01561 0
M  V30 1224 H 112.003 3.64159 4.76601 0
M  V30 1225 H 113.682 4.21956 4.90471 0
M  V30 1226 N 113.814 -1.1601 1.06675 0
M  V30 1227 C 114.746 -2.20115 0.638921 0
M  V30 1228 C 115.759 -1.59916 -0.305057 0
M  V30 1229 O 116.948 -1.78245 -0.0954446 0
M  V30 1230 C 114.048 -3.38798 -0.0830083 0
M  V30 1231 C 113.221 -4.2855 0.875426 0
M  V30 1232 C 112.28 -5.25849 0.192042 0
M  V30 1233 O 111.306 -5.63102 0.830921 0
M  V30 1234 N 112.508 -5.70648 -1.06493 0
M  V30 1235 H 115.273 -2.57439 1.53444 0
M  V30 1236 H 112.834 -1.31057 0.950557 0
M  V30 1237 H 114.826 -4.00936 -0.550685 0
M  V30 1238 H 113.396 -2.99947 -0.880386 0
M  V30 1239 H 112.616 -3.63617 1.52238 0
M  V30 1240 H 113.904 -4.85393 1.52548 0
M  V30 1241 H 113.302 -5.42482 -1.60405 0
M  V30 1242 H 111.859 -6.34859 -1.47641 0
M  V30 1243 N 115.292 -0.849877 -1.32721 0
M  V30 1244 C 116.517 -0.463856 -2.02146 0
M  V30 1245 C 116.942 0.930449 -1.63476 0
M  V30 1246 O 116.3 1.61033 -0.832952 0
M  V30 1247 C 116.348 -0.604955 -3.55489 0
M  V30 1248 O 115.452 0.36425 -4.10788 0
M  V30 1249 H 114.793 -0.187046 -0.637111 0
M  V30 1250 H 117.323 -1.14775 -1.69375 0
M  V30 1251 H 117.333 -0.490696 -4.05038 0
M  V30 1252 H 116.008 -1.62174 -3.82978 0
M  V30 1253 H 114.585 0.206628 -3.72327 0
M  V30 1254 N 116.77 1.45427 -0.607355 0
M  V30 1255 C 117.995 2.07124 -0.107006 0
M  V30 1256 C 118.42 1.44906 1.19933 0
M  V30 1257 O 117.778 0.541687 1.73019 0
M  V30 1258 C 117.826 3.60595 0.0194119 0
M  V30 1259 O 116.93 3.98285 1.0697 0
M  V30 1260 H 116.271 0.659868 -0.0739597 0
M  V30 1261 H 118.801 1.86683 -0.837297 0
M  V30 1262 H 118.811 4.07419 0.2177 0
M  V30 1263 H 117.486 4.05266 -0.934453 0
M  V30 1264 H 116.063 3.63133 0.847889 0
M  V30 1265 N 118.248 0.346503 1.53744 0
M  V30 1266 C 119.211 -0.496439 2.23759 0
M  V30 1267 C 120.211 -1.0252 1.2388 0
M  V30 1268 O 121.401 -0.913974 1.48297 0
M  V30 1269 C 118.533 -1.69187 2.95954 0
M  V30 1270 H 119.726 0.115952 2.99676 0
M  V30 1271 H 117.279 0.0978939 1.55993 0
M  V30 1272 H 118.014 -2.34288 2.24231 0
M  V30 1273 H 117.799 -1.31989 3.69217 0
M  V30 1274 H 119.289 -2.28969 3.49232 0
M  V30 1275 N 119.726 -1.57421 0.075193 0
M  V30 1276 C 120.656 -2.15942 -0.888324 0
M  V30 1277 C 121.637 -1.08737 -1.30806 0
M  V30 1278 O 122.822 -1.36787 -1.37851 0
M  V30 1279 C 119.952 -2.72379 -2.1547 0
M  V30 1280 C 118.906 -3.8478 -1.87425 0
M  V30 1281 C 118.232 -4.27834 -3.20721 0
M  V30 1282 C 119.532 -5.08869 -1.17684 0
M  V30 1283 H 121.226 -2.96705 -0.400799 0
M  V30 1284 H 118.772 -1.42723 -0.191342 0
M  V30 1285 H 120.725 -3.11965 -2.83295 0
M  V30 1286 H 119.449 -1.88841 -2.6647 0
M  V30 1287 H 118.108 -3.45703 -1.22004 0
M  V30 1288 H 117.756 -3.41214 -3.6957 0
M  V30 1289 H 117.456 -5.03605 -3.02746 0
M  V30 1290 H 118.98 -4.70039 -3.89738 0
M  V30 1291 H 120.394 -5.4575 -1.75584 0
M  V30 1292 H 118.791 -5.8994 -1.09956 0
M  V30 1293 H 119.861 -4.84648 -0.156453 0
M  V30 1294 N 121.204 0.198386 -1.56346 0
M  V30 1295 C 122.434 0.934215 -1.84271 0
M  V30 1296 C 122.842 1.77496 -0.655125 0
M  V30 1297 O 122.185 1.7961 0.385488 0
M  V30 1298 C 122.247 1.88278 -3.06254 0
M  V30 1299 C 121.911 1.22431 -4.40295 0
M  V30 1300 C 122.908 0.602839 -5.16393 0
M  V30 1301 C 120.593 1.22915 -4.87029 0
M  V30 1302 C 122.587 -0.0050083 -6.374 0
M  V30 1303 C 120.274 0.617465 -6.07973 0
M  V30 1304 C 121.272 0.00146341 -6.83 0
M  V30 1305 O 120.96 -0.600642 -8.01653 0
M  V30 1306 H 120.692 0.278245 -0.616081 0
M  V30 1307 H 123.246 0.211626 -2.04307 0
M  V30 1308 H 121.476 2.64498 -2.82095 0
M  V30 1309 H 123.165 2.48612 -3.20853 0
M  V30 1310 H 123.931 0.591265 -4.81382 0
M  V30 1311 H 119.81 1.69801 -4.28589 0
M  V30 1312 H 123.354 -0.48643 -6.95902 0
M  V30 1313 H 119.251 0.62653 -6.42452 0
M  V30 1314 H 120.019 -0.497225 -8.16988 0
M  V30 1315 N 122.682 1.50554 0.465978 0
M  V30 1316 C 123.592 1.72585 1.58907 0
M  V30 1317 C 124.608 0.60911 1.6299 0
M  V30 1318 O 125.784 0.88804 1.80765 0
M  V30 1319 C 122.849 1.81995 2.95091 0
M  V30 1320 C 121.91 3.05751 3.01355 0
M  V30 1321 C 121.143 3.14702 4.31043 0
M  V30 1322 O 121.366 2.30313 5.21835 0
M  V30 1323 O 120.3 4.07468 4.43005 0
M  V30 1324 H 124.126 2.67799 1.43239 0
M  V30 1325 H 121.711 1.34711 0.646013 0
M  V30 1326 H 123.593 1.90335 3.75966 0
M  V30 1327 H 122.268 0.899659 3.10947 0
M  V30 1328 H 121.175 3.02908 2.19539 0
M  V30 1329 H 122.508 3.97375 2.90437 0
M  V30 1330 N 124.16 -0.719506 1.40217 0
M  V30 1331 C 125.437 -1.47221 1.28784 0
M  V30 1332 C 125.817 -2.10883 -0.0956067 0
M  V30 1333 O 125.165 -1.99833 -1.10811 0
M  V30 1334 C 125.375 -2.5111 2.42373 0
M  V30 1335 C 126.723 -3.17053 2.82423 0
M  V30 1336 O 127.747 -2.61429 2.41937 0
M  V30 1337 O 126.606 -4.17742 3.52355 0
M  V30 1338 H 123.7 -0.654491 0.50554 0
M  V30 1339 H 126.246 -0.752014 1.52128 0
M  V30 1340 H 125.018 -2.02556 3.34793 0
M  V30 1341 H 124.641 -3.3067 2.20778 0
M  V30 1342 N 125.638 -1.25649 -0.95132 0
M  V30 1343 C 127.054 -1.02542 -1.223 0
M  V30 1344 C 127.254 0.255715 -1.99871 0
M  V30 1345 O 126.31 0.967558 -2.33226 0
M  V30 1346 C 127.623 -2.25065 -1.99415 0
M  V30 1347 C 129.171 -2.29861 -2.12446 0
M  V30 1348 C 129.646 -3.52048 -2.92961 0
M  V30 1349 N 131.137 -3.52465 -3.00538 0
M  V30 1350 C 131.872 -4.43672 -3.63239 0
M  V30 1351 N 131.368 -5.45157 -4.27523 0
M  V30 1352 N 133.161 -4.31346 -3.60412 0
M  V30 1353 H 125.312 -2.07951 -0.432471 0
M  V30 1354 H 127.575 -0.91339 -0.253816 0
M  V30 1355 H 127.281 -3.18194 -1.49817 0
M  V30 1356 H 127.155 -2.28502 -3.00111 0
M  V30 1357 H 129.542 -1.37252 -2.61239 0
M  V30 1358 H 129.623 -2.3044 -1.11044 0
M  V30 1359 H 129.267 -4.44981 -2.44856 0
M  V30 1360 H 129.197 -3.48715 -3.94596 0
M  V30 1361 H 131.688 -2.79056 -2.54826 0
M  V30 1362 H 132.001 -6.10958 -4.73234 0
M  V30 1363 H 130.346 -5.49025 -4.26141 0
M  V30 1364 H 133.537 -3.51288 -3.09377 0
M  V30 1365 H 133.71 -5.02624 -4.0899 0
M  V30 1366 N 127.117 1.15442 -1.07289 0
M  V30 1367 C 128.347 1.89821 -0.815576 0
M  V30 1368 C 128.755 1.7823 0.634867 0
M  V30 1369 O 128.098 1.13152 1.44715 0
M  V30 1370 C 128.16 3.40817 -1.14385 0
M  V30 1371 C 127.824 3.76193 -2.59476 0
M  V30 1372 C 128.821 3.77269 -3.57721 0
M  V30 1373 C 126.506 4.0652 -2.95037 0
M  V30 1374 C 128.5 4.08176 -4.89562 0
M  V30 1375 C 126.187 4.37092 -4.27076 0
M  V30 1376 C 127.185 4.37902 -5.24148 0
M  V30 1377 O 126.873 4.67741 -6.53815 0
M  V30 1378 H 126.605 0.608465 -0.294528 0
M  V30 1379 H 129.159 1.472 -1.43252 0
M  V30 1380 H 127.389 3.83835 -0.469865 0
M  V30 1381 H 129.078 3.96485 -0.869179 0
M  V30 1382 H 129.844 3.5394 -3.3159 0
M  V30 1383 H 125.723 4.05049 -2.20128 0
M  V30 1384 H 129.267 4.08723 -5.65324 0
M  V30 1385 H 125.164 4.59889 -4.5296 0
M  V30 1386 H 125.932 4.85509 -6.58957 0
M  V30 1387 N 128.595 0.856903 1.32268 0
M  V30 1388 C 129.525 0.31858 2.31316 0
M  V30 1389 C 130.506 -0.583487 1.59779 0
M  V30 1390 O 131.691 -0.503259 1.87566 0
M  V30 1391 C 128.821 -0.491979 3.43798 0
M  V30 1392 C 127.775 0.315849 4.26833 0
M  V30 1393 C 127.101 -0.619586 5.31098 0
M  V30 1394 C 128.401 1.54282 4.98993 0
M  V30 1395 H 130.095 1.14621 2.76591 0
M  V30 1396 H 127.641 0.552613 1.32974 0
M  V30 1397 H 129.594 -0.879012 4.1213 0
M  V30 1398 H 128.318 -1.35299 2.97257 0
M  V30 1399 H 126.977 0.684664 3.6015 0
M  V30 1400 H 126.625 -1.47751 4.8081 0
M  V30 1401 H 126.325 -0.0830621 5.87541 0
M  V30 1402 H 127.849 -1.00375 6.02293 0
M  V30 1403 H 129.263 1.22796 5.59995 0
M  V30 1404 H 127.66 2.01745 5.65172 0
M  V30 1405 H 128.73 2.30285 4.26728 0
M  V30 1406 N 130.073 -1.45103 0.615059 0
M  V30 1407 C 131.003 -2.33339 -0.0865619 0
M  V30 1408 C 131.984 -1.4727 -0.851209 0
M  V30 1409 O 133.169 -1.76026 -0.820281 0
M  V30 1410 C 130.299 -3.30095 -1.07956 0
M  V30 1411 C 129.253 -4.25858 -0.427628 0
M  V30 1412 C 128.579 -5.12361 -1.5294 0
M  V30 1413 C 129.879 -5.18165 0.655944 0
M  V30 1414 H 131.573 -2.92254 0.650224 0
M  V30 1415 H 129.119 -1.40532 0.314138 0
M  V30 1416 H 131.072 -3.90698 -1.57901 0
M  V30 1417 H 129.796 -2.69355 -1.84703 0
M  V30 1418 H 128.455 -3.66564 0.0510292 0
M  V30 1419 H 128.103 -4.47984 -2.28734 0
M  V30 1420 H 127.803 -5.77238 -1.09865 0
M  V30 1421 H 129.327 -5.75833 -2.03098 0
M  V30 1422 H 130.741 -5.72796 0.240257 0
M  V30 1423 H 129.138 -5.91559 1.00888 0
M  V30 1424 H 130.208 -4.60144 1.52957 0
M  V30 1425 N 131.551 -0.354651 -1.53558 0
M  V30 1426 C 132.799 0.237972 -2.00694 0
M  V30 1427 C 133.12 1.50173 -1.24391 0
M  V30 1428 O 132.39 1.92673 -0.354135 0
M  V30 1429 H 130.97 0.0909256 -0.741446 0
M  V30 1430 H 133.632 -0.478368 -1.88938 0
M  V30 1431 H 132.728 0.47264 -3.085 0
M  V30 1432 N 133.029 1.57378 -0.0835403 0
M  V30 1433 C 134.257 1.98263 0.59157 0
M  V30 1434 C 134.672 0.962302 1.62435 0
M  V30 1435 O 134.029 -0.049581 1.82433 0
M  V30 1436 C 134.08 3.39214 1.24965 0
M  V30 1437 O 133.801 4.37339 0.258186 0
M  V30 1438 C 135.302 3.95038 2.01147 0
M  V30 1439 H 132.522 0.651773 0.159477 0
M  V30 1440 H 135.066 2.03878 -0.159415 0
M  V30 1441 H 133.221 3.34649 1.95164 0
M  V30 1442 H 133.635 5.19371 0.731734 0
M  V30 1443 H 135.109 4.95848 2.42567 0
M  V30 1444 H 135.586 3.32222 2.87272 0
M  V30 1445 H 136.192 4.0304 1.35789 0
M  V30 1446 N 134.507 -0.190092 1.56449 0
M  V30 1447 C 135.732 -0.929864 1.85387 0
M  V30 1448 C 136.157 -1.7585 0.667704 0
M  V30 1449 O 135.515 -1.77198 -0.383459 0
M  V30 1450 C 135.563 -1.79773 3.12593 0
M  V30 1451 O 134.667 -2.89713 2.93496 0
M  V30 1452 H 134.008 -0.261574 0.610307 0
M  V30 1453 H 136.538 -0.193896 2.03679 0
M  V30 1454 H 136.548 -2.20139 3.43515 0
M  V30 1455 H 135.223 -1.18892 3.98544 0
M  V30 1456 H 133.8 -2.53065 2.73884 0
M  V30 1457 N 135.985 -1.50799 -0.457987 0
M  V30 1458 C 136.915 -1.73553 -1.5621 0
M  V30 1459 C 137.896 -0.584774 -1.59732 0
M  V30 1460 O 139.081 -0.825314 -1.7579 0
M  V30 1461 C 136.211 -1.84169 -2.94447 0
M  V30 1462 C 135.165 -2.99461 -3.0579 0
M  V30 1463 C 134.491 -2.95235 -4.45803 0
M  V30 1464 C 135.791 -4.39766 -2.81786 0
M  V30 1465 H 137.485 -2.66 -1.37421 0
M  V30 1466 H 135.031 -1.28002 -0.659662 0
M  V30 1467 H 136.984 -1.98672 -3.71628 0
M  V30 1468 H 135.708 -0.883545 -3.14422 0
M  V30 1469 H 134.367 -2.8463 -2.31044 0
M  V30 1470 H 134.015 -1.97239 -4.62715 0
M  V30 1471 H 133.715 -3.72642 -4.54326 0
M  V30 1472 H 135.239 -3.11803 -5.24987 0
M  V30 1473 H 136.653 -4.55054 -3.4871 0
M  V30 1474 H 135.05 -5.18722 -3.0174 0
M  V30 1475 H 136.12 -4.51229 -1.7754 0
M  V30 1476 N 137.463 0.71206 -1.40597 0
M  V30 1477 C 138.426 1.80785 -1.40888 0
M  V30 1478 C 139.426 1.57937 -0.302103 0
M  V30 1479 O 140.616 1.64913 -0.561182 0
M  V30 1480 C 137.748 3.18927 -1.20409 0
M  V30 1481 H 138.941 1.81924 -2.38419 0
M  V30 1482 H 136.494 0.91805 -1.26497 0
M  V30 1483 H 137.229 3.23436 -0.236522 0
M  V30 1484 H 137.014 3.36911 -2.00582 0
M  V30 1485 H 138.504 3.98949 -1.23408 0
M  V30 1486 N 138.941 1.26152 0.944643 0
M  V30 1487 C 140.357 1.03189 1.21754 0
M  V30 1488 C 140.557 -0.245112 2.00004 0
M  V30 1489 O 139.613 -0.955176 2.33736 0
M  V30 1490 C 140.926 2.26119 1.98219 0
M  V30 1491 C 142.474 2.30984 2.11224 0
M  V30 1492 C 142.949 3.53597 2.91089 0
M  V30 1493 N 144.44 3.54053 2.98664 0
M  V30 1494 C 145.175 4.45593 3.60881 0
M  V30 1495 N 144.671 5.47416 4.24626 0
M  V30 1496 N 146.464 4.33252 3.58119 0
M  V30 1497 H 138.615 2.08177 0.421437 0
M  V30 1498 H 140.878 0.914723 0.248969 0
M  V30 1499 H 140.584 3.18984 1.48128 0
M  V30 1500 H 140.458 2.3009 2.98895 0
M  V30 1501 H 142.845 1.38635 2.60508 0
M  V30 1502 H 142.926 2.31026 1.09821 0
M  V30 1503 H 142.57 4.46273 2.42493 0
M  V30 1504 H 142.5 3.50802 3.92741 0
M  V30 1505 H 144.991 2.80403 2.53343 0
M  V30 1506 H 145.304 6.13459 4.69987 0
M  V30 1507 H 143.649 5.51278 4.23223 0
M  V30 1508 H 146.84 3.52924 3.0751 0
M  V30 1509 H 147.013 5.04786 4.06319 0
M  V30 1510 N 140.419 -1.14872 1.07899 0
M  V30 1511 C 141.83 -1.67367 0.827363 0
M  V30 1512 C 142.181 -1.85236 -0.646693 0
M  V30 1513 O 141.306 -1.55974 -1.50004 0
M  V30 1514 C 141.901 -3.04016 1.49532 0
M  V30 1515 C 140.46 -3.53566 1.29106 0
M  V30 1516 C 139.607 -2.29161 1.56143 0
M  V30 1517 H 142.558 -0.990083 1.24028 0
M  V30 1518 H 142.579 -3.69219 0.919643 0
M  V30 1519 H 142.091 -2.90978 2.56814 0
M  V30 1520 H 140.192 -3.71835 0.238713 0
M  V30 1521 H 140.305 -4.34661 2.01511 0
M  V30 1522 H 138.669 -2.34978 0.982717 0
M  V30 1523 H 139.452 -2.18705 2.64619 0
M  V30 1524 N 141.898 -0.863906 -1.31812 0
M  V30 1525 C 143.138 -0.47825 -1.98726 0
M  V30 1526 C 143.502 0.950397 -1.66828 0
M  V30 1527 O 144.703 1.44109 -2.26905 0
M  V30 1528 C 142.974 -0.721134 -3.50049 0
M  V30 1529 S 144.533 -0.434432 -4.36644 0
M  V30 1530 H 141.351 -0.178773 -0.688158 0
M  V30 1531 H 143.953 -1.11862 -1.60334 0
M  V30 1532 H 142.657 -1.75981 -3.70755 0
M  V30 1533 H 142.188 -0.0675315 -3.93342 0
M  V30 1534 H 144.203 0.735786 -4.90714 0
M  V30 1535 N 143.376 1.44774 -0.622745 0
M  V30 1536 C 144.625 2.01334 -0.121397 0
M  V30 1537 C 144.938 1.49505 1.26125 0
M  V30 1538 O 146.144 1.98139 1.85616 0
M  V30 1539 C 144.6 3.59516 -0.166298 0
M  V30 1540 C 144.208 4.20342 -1.54974 0
M  V30 1541 C 145.952 4.23582 0.279021 0
M  V30 1542 C 143.859 5.70721 -1.55021 0
M  V30 1543 H 142.789 0.752851 -0.0416172 0
M  V30 1544 H 145.44 1.66083 -0.780309 0
M  V30 1545 H 143.822 3.92027 0.559557 0
M  V30 1546 H 144.996 3.99381 -2.29851 0
M  V30 1547 H 143.311 3.68529 -1.93843 0
M  V30 1548 H 145.908 5.33868 0.298083 0
M  V30 1549 H 146.251 3.95327 1.30471 0
M  V30 1550 H 146.784 3.95843 -0.394063 0
M  V30 1551 H 143.523 6.03698 -2.55399 0
M  V30 1552 H 143.043 5.93829 -0.844245 0
M  V30 1553 H 144.722 6.34203 -1.28047 0
M  V30 1554 N 144.854 0.36279 1.53368 0
M  V30 1555 C 145.817 -0.472679 2.24273 0
M  V30 1556 C 146.817 -1.012 1.24961 0
M  V30 1557 O 148.007 -0.898194 1.49259 0
M  V30 1558 C 145.139 -1.66039 2.97731 0
M  V30 1559 H 146.332 0.14773 2.99536 0
M  V30 1560 H 143.885 0.114434 1.55881 0
M  V30 1561 H 144.62 -2.31896 2.26704 0
M  V30 1562 H 144.405 -1.28066 3.70596 0
M  V30 1563 H 145.895 -2.25252 3.51641 0
M  V30 1564 N 146.332 -1.57332 0.0918853 0
M  V30 1565 C 147.748 -1.57389 -0.264766 0
M  V30 1566 C 147.948 -1.10281 -1.68643 0
M  V30 1567 O 147.004 -0.777801 -2.40222 0
M  V30 1568 C 148.317 -3.00648 -0.0561195 0
M  V30 1569 C 149.865 -3.12754 -0.124116 0
M  V30 1570 C 150.34 -4.57965 0.0564972 0
M  V30 1571 N 151.831 -4.632 0.00155611 0
M  V30 1572 C 152.566 -5.73281 0.116598 0
M  V30 1573 N 152.062 -6.92208 0.286294 0
M  V30 1574 N 153.855 -5.6207 0.0580973 0
M  V30 1575 H 146.006 -1.86262 1.02079 0
M  V30 1576 H 148.269 -0.859579 0.399786 0
M  V30 1577 H 147.975 -3.393 0.925669 0
M  V30 1578 H 147.849 -3.68623 -0.799823 0
M  V30 1579 H 150.236 -2.73976 -1.09641 0
M  V30 1580 H 150.317 -2.47377 0.651024 0
M  V30 1581 H 149.961 -4.97436 1.02564 0
M  V30 1582 H 149.891 -5.21399 -0.738297 0
M  V30 1583 H 152.382 -3.77686 -0.127192 0
M  V30 1584 H 152.695 -7.71934 0.365676 0
M  V30 1585 H 151.04 -6.94254 0.32192 0
M  V30 1586 H 154.231 -4.68043 -0.0733204 0
M  V30 1587 H 154.404 -6.47824 0.151203 0
M  V30 1588 N 147.81 0.181792 -1.56548 0
M  V30 1589 C 148.757 1.22521 -1.95595 0
M  V30 1590 C 149.727 1.4454 -0.818373 0
M  V30 1591 O 150.912 1.57454 -1.07763 0
M  V30 1592 C 148.052 2.56193 -2.31212 0
M  V30 1593 C 147.165 2.41641 -3.58097 0
M  V30 1594 C 146.3 3.68108 -3.82975 0
M  V30 1595 C 145.339 3.48445 -5.03242 0
M  V30 1596 N 144.476 4.66956 -5.24306 0
M  V30 1597 H 149.316 0.885226 -2.84548 0
M  V30 1598 H 146.853 0.425718 -1.40805 0
M  V30 1599 H 148.811 3.34088 -2.49882 0
M  V30 1600 H 147.441 2.88208 -1.45382 0
M  V30 1601 H 146.493 1.54976 -3.474 0
M  V30 1602 H 147.805 2.23052 -4.46149 0
M  V30 1603 H 146.959 4.54441 -4.01956 0
M  V30 1604 H 145.698 3.89666 -2.93278 0
M  V30 1605 H 144.703 2.60499 -4.8417 0
M  V30 1606 H 145.928 3.2832 -5.9446 0
M  V30 1607 H 143.874 4.88752 -4.37559 0
M  V30 1608 H 143.791 4.51242 -6.06561 0
M  V30 1609 H 145.059 5.54602 -5.47756 0
M  V30 1610 N 149.288 1.51039 0.449983 0
M  V30 1611 C 150.22 1.67617 1.56324 0
M  V30 1612 C 151.233 0.557083 1.52972 0
M  V30 1613 O 152.422 0.830989 1.57977 0
M  V30 1614 C 149.522 1.66402 2.95235 0
M  V30 1615 C 148.695 2.9469 3.23229 0
M  V30 1616 C 147.754 2.85832 4.41799 0
M  V30 1617 O 146.78 3.59785 4.41071 0
M  V30 1618 N 147.982 2.00821 5.44657 0
M  V30 1619 H 150.747 2.63648 1.42512 0
M  V30 1620 H 148.308 1.48767 0.638737 0
M  V30 1621 H 150.3 1.58062 3.72557 0
M  V30 1622 H 148.87 0.780182 3.02708 0
M  V30 1623 H 148.09 3.16996 2.34323 0
M  V30 1624 H 149.378 3.79636 3.38754 0
M  V30 1625 H 148.776 1.40091 5.48079 0
M  V30 1626 H 147.333 1.98368 6.20881 0
M  V30 1627 N 150.766 -0.704594 1.40972 0
M  V30 1628 C 152.012 -1.46675 1.40051 0
M  V30 1629 C 152.345 -1.94199 0.00641102 0
M  V30 1630 O 151.62 -1.68916 -0.964235 0
M  V30 1631 C 151.903 -2.68505 2.39952 0
M  V30 1632 C 151.756 -2.26805 3.88432 0
M  V30 1633 C 153.075 -3.70686 2.37233 0
M  V30 1634 H 150.194 -0.532015 0.510028 0
M  V30 1635 H 152.836 -0.803255 1.72185 0
M  V30 1636 H 150.986 -3.25114 2.1268 0
M  V30 1637 H 152.658 -1.75592 4.26574 0
M  V30 1638 H 150.901 -1.58685 4.03734 0
M  V30 1639 H 151.572 -3.14181 4.53866 0
M  V30 1640 H 154.048 -3.23731 2.61415 0
M  V30 1641 H 152.924 -4.53553 3.09162 0
M  V30 1642 H 153.185 -4.19754 1.38777 0
M  V30 1643 N 152.244 -1.26651 -0.937939 0
M  V30 1644 C 153.154 -1.10276 -2.07066 0
M  V30 1645 C 154.17 -0.0354197 -1.73964 0
M  V30 1646 O 155.346 -0.239816 -1.99967 0
M  V30 1647 C 152.411 -0.740887 -3.38691 0
M  V30 1648 C 151.472 -1.88799 -3.85556 0
M  V30 1649 C 150.705 -1.54329 -5.10899 0
M  V30 1650 O 150.928 -0.446494 -5.6865 0
M  V30 1651 O 149.862 -2.37911 -5.52885 0
M  V30 1652 H 153.688 -2.05309 -2.23789 0
M  V30 1653 H 151.273 -1.05743 -1.0554 0
M  V30 1654 H 153.155 -0.55195 -4.1777 0
M  V30 1655 H 151.83 0.180022 -3.23199 0
M  V30 1656 H 150.737 -2.13191 -3.07409 0
M  V30 1657 H 152.07 -2.78874 -4.05574 0
M  V30 1658 N 153.722 1.14298 -1.08507 0
M  V30 1659 C 154.971 1.84708 -0.810305 0
M  V30 1660 C 155.284 1.83903 0.666271 0
M  V30 1661 O 156.49 2.50112 1.05624 0
M  V30 1662 C 154.946 3.31572 -1.39957 0
M  V30 1663 C 154.554 3.40791 -2.90801 0
M  V30 1664 C 156.298 4.07087 -1.20334 0
M  V30 1665 C 154.205 4.81872 -3.4286 0
M  V30 1666 H 153.135 0.691985 -0.299454 0
M  V30 1667 H 155.786 1.28841 -1.30661 0
M  V30 1668 H 154.168 3.87183 -0.830976 0
M  V30 1669 H 155.342 2.95225 -3.53806 0
M  V30 1670 H 153.657 2.78732 -3.0935 0
M  V30 1671 H 156.254 5.11225 -1.56693 0
M  V30 1672 H 156.597 4.16054 -0.143237 0
M  V30 1673 H 157.13 3.57779 -1.73893 0
M  V30 1674 H 153.869 4.78094 -4.48449 0
M  V30 1675 H 153.389 5.27972 -2.84615 0
M  V30 1676 H 155.068 5.50765 -3.39509 0
M  V30 1677 N 155.201 0.870884 1.31352 0
M  V30 1678 C 156.164 0.332243 2.26779 0
M  V30 1679 C 157.164 -0.517302 1.52252 0
M  V30 1680 O 158.354 -0.326477 1.71113 0
M  V30 1681 C 155.486 -0.528066 3.36785 0
M  V30 1682 H 156.679 1.17469 2.75937 0
M  V30 1683 H 154.232 0.64655 1.423 0
M  V30 1684 H 154.967 -1.39167 2.92922 0
M  V30 1685 H 154.752 0.0802582 3.92018 0
M  V30 1686 H 156.242 -0.897179 4.07849 0
M  V30 1687 N 156.679 -1.44442 0.630414 0
M  V30 1688 C 157.611 -2.2892 -0.113347 0
M  V30 1689 C 158.624 -1.41243 -0.80959 0
M  V30 1690 O 159.813 -1.65402 -0.671156 0
M  V30 1691 C 156.913 -3.17594 -1.18266 0
M  V30 1692 C 156.086 -4.33682 -0.569073 0
M  V30 1693 C 155.145 -5.03397 -1.53226 0
M  V30 1694 O 154.171 -5.59438 -1.04967 0
M  V30 1695 N 155.373 -5.04783 -2.86661 0
M  V30 1696 H 158.138 -2.93392 0.611636 0
M  V30 1697 H 155.699 -1.54881 0.471523 0
M  V30 1698 H 157.691 -3.61097 -1.82732 0
M  V30 1699 H 156.261 -2.54876 -1.80988 0
M  V30 1700 H 155.481 -3.9338 0.254187 0
M  V30 1701 H 156.769 -5.08608 -0.139767 0
M  V30 1702 H 156.167 -4.60584 -3.28449 0
M  V30 1703 H 154.724 -5.52077 -3.46489 0
M  V30 1704 N 158.157 -0.370918 -1.53173 0
M  V30 1705 C 159.573 -0.0200818 -1.59587 0
M  V30 1706 C 159.773 1.46279 -1.38581 0
M  V30 1707 O 158.829 2.22506 -1.19363 0
M  V30 1708 C 160.142 -0.4808 -2.96831 0
M  V30 1709 C 161.69 -0.435477 -3.09956 0
M  V30 1710 C 162.165 -0.872092 -4.4962 0
M  V30 1711 N 163.656 -0.827364 -4.55751 0
M  V30 1712 C 164.391 -1.13683 -5.62018 0
M  V30 1713 N 163.887 -1.51584 -6.76014 0
M  V30 1714 N 165.68 -1.05927 -5.52029 0
M  V30 1715 H 157.831 -1.33652 -1.65079 0
M  V30 1716 H 160.094 -0.546634 -0.774529 0
M  V30 1717 H 159.8 -1.51577 -3.1736 0
M  V30 1718 H 159.674 0.129796 -3.76977 0
M  V30 1719 H 162.061 0.590371 -2.89134 0
M  V30 1720 H 162.142 -1.08164 -2.31806 0
M  V30 1721 H 161.786 -1.89608 -4.71181 0
M  V30 1722 H 161.716 -0.203127 -5.26208 0
M  V30 1723 H 164.207 -0.548216 -3.73902 0
M  V30 1724 H 164.52 -1.73609 -7.53047 0
M  V30 1725 H 162.865 -1.55454 -6.77391 0
M  V30 1726 H 166.056 -0.762321 -4.61851 0
M  V30 1727 H 166.229 -1.30378 -6.34749 0
M  V30 1728 N 159.635 1.57281 -0.100228 0
M  V30 1729 C 160.545 2.17833 0.870965 0
M  V30 1730 C 161.561 1.14921 1.30649 0
M  V30 1731 O 162.737 1.47313 1.37335 0
M  V30 1732 C 159.802 2.75085 2.1102 0
M  V30 1733 C 158.863 3.9297 1.72838 0
M  V30 1734 C 158.096 4.47482 2.90854 0
M  V30 1735 O 158.319 4.00922 4.05731 0
M  V30 1736 O 157.253 5.38433 2.69023 0
M  V30 1737 H 161.079 3.0124 0.38575 0
M  V30 1738 H 158.664 1.48881 0.124397 0
M  V30 1739 H 160.546 3.11656 2.83634 0
M  V30 1740 H 159.221 1.94721 2.58584 0
M  V30 1741 H 158.128 3.61201 0.973883 0
M  V30 1742 H 159.461 4.74713 1.30033 0
M  V30 1743 N 161.113 -0.173488 1.56642 0
M  V30 1744 C 162.361 -0.888706 1.81512 0
M  V30 1745 C 162.682 -1.82875 0.676872 0
M  V30 1746 O 161.952 -1.93536 -0.303414 0
M  V30 1747 H 160.532 -0.331164 0.669582 0
M  V30 1748 H 163.194 -0.173823 1.94123 0
M  V30 1749 H 162.29 -1.46691 2.75478 0
M  V30 1750 N 162.591 -1.51276 -0.441967 0
M  V30 1751 C 163.554 -1.7167 -1.51862 0
M  V30 1752 C 164.554 -0.586793 -1.49711 0
M  V30 1753 O 165.744 -0.854276 -1.51815 0
M  V30 1754 C 162.876 -1.76889 -2.91416 0
M  V30 1755 H 164.069 -2.67754 -1.35084 0
M  V30 1756 H 161.622 -1.41196 -0.670333 0
M  V30 1757 H 162.357 -0.826026 -3.13604 0
M  V30 1758 H 162.142 -2.59001 -2.94382 0
M  V30 1759 H 163.632 -1.94522 -3.69528 0
M  V30 1760 N 164.069 0.697108 -1.41344 0
M  V30 1761 C 165.016 1.81106 -1.43071 0
M  V30 1762 C 165.986 1.63632 -0.285275 0
M  V30 1763 O 167.171 1.84504 -0.486091 0
M  V30 1764 C 164.311 3.18975 -1.31715 0
M  V30 1765 C 163.424 3.47892 -2.56115 0
M  V30 1766 C 162.559 4.75367 -2.37064 0
M  V30 1767 C 161.598 4.97247 -3.56948 0
M  V30 1768 N 160.735 6.15947 -3.36977 0
M  V30 1769 H 165.575 1.78965 -2.38276 0
M  V30 1770 H 163.112 0.873975 -1.18322 0
M  V30 1771 H 165.07 3.98615 -1.23133 0
M  V30 1772 H 163.7 3.20297 -0.401183 0
M  V30 1773 H 162.752 2.62669 -2.75153 0
M  V30 1774 H 164.064 3.59962 -3.45295 0
M  V30 1775 H 163.218 5.63059 -2.25941 0
M  V30 1776 H 161.957 4.65541 -1.45338 0
M  V30 1777 H 160.962 4.08004 -3.68527 0
M  V30 1778 H 162.187 5.08934 -4.49626 0
M  V30 1779 H 160.133 6.07336 -2.47949 0
M  V30 1780 H 160.05 6.28777 -4.19732 0
M  V30 1781 H 161.318 7.06377 -3.29623 0
M  V30 1782 N 165.547 1.27147 0.931209 0
M  V30 1783 C 166.777 1.15914 1.71019 0
M  V30 1784 C 167.185 -0.287112 1.87009 0
M  V30 1785 O 166.528 -1.20761 1.38429 0
M  V30 1786 C 166.59 1.76647 3.13107 0
M  V30 1787 C 166.254 3.25807 3.20467 0
M  V30 1788 C 167.251 4.22489 3.02983 0
M  V30 1789 C 164.936 3.66452 3.43538 0
M  V30 1790 C 166.93 5.57794 3.08454 0
M  V30 1791 C 164.617 5.01888 3.48643 0
M  V30 1792 C 165.615 5.97369 3.31119 0
M  V30 1793 O 165.303 7.30337 3.35952 0
M  V30 1794 H 165.035 0.404062 0.54195 0
M  V30 1795 H 167.589 1.68457 1.17521 0
M  V30 1796 H 165.819 1.18578 3.68071 0
M  V30 1797 H 167.508 1.60179 3.72958 0
M  V30 1798 H 168.274 3.92425 2.85004 0
M  V30 1799 H 164.153 2.92611 3.5623 0
M  V30 1800 H 167.697 6.32298 2.94694 0
M  V30 1801 H 163.594 5.31609 3.66145 0
M  V30 1802 H 164.362 7.38739 3.5243 0
M  V30 1803 N 167.025 -1.13721 1.09112 0
M  V30 1804 C 168.271 -1.85198 0.826414 0
M  V30 1805 C 168.604 -1.83129 -0.646319 0
M  V30 1806 O 167.879 -1.2671 -1.47563 0
M  V30 1807 C 168.162 -3.33507 1.35812 0
M  V30 1808 C 168.015 -3.44108 2.89672 0
M  V30 1809 C 169.334 -4.28838 0.989256 0
M  V30 1810 H 166.453 -0.67243 0.301675 0
M  V30 1811 H 169.095 -1.33499 1.35197 0
M  V30 1812 H 167.245 -3.77666 0.911082 0
M  V30 1813 H 168.917 -3.08684 3.428 0
M  V30 1814 H 167.16 -2.85087 3.26967 0
M  V30 1815 H 167.831 -4.48388 3.21951 0
M  V30 1816 H 170.307 -3.92734 1.37475 0
M  V30 1817 H 169.183 -5.31051 1.38838 0
M  V30 1818 H 169.444 -4.4198 -0.102924 0
M  V30 1819 N 168.503 -0.877838 -1.30888 0
M  V30 1820 C 169.728 -0.506629 -2.01117 0
M  V30 1821 C 170.153 0.895564 -1.65412 0
M  V30 1822 O 169.511 1.5923 -0.866922 0
M  V30 1823 C 169.559 -0.680223 -3.54126 0
M  V30 1824 O 168.663 0.277033 -4.11468 0
M  V30 1825 H 168.004 -0.200518 -0.633 0
M  V30 1826 H 170.534 -1.18342 -1.66902 0
M  V30 1827 H 170.544 -0.5765 -4.03907 0
M  V30 1828 H 169.219 -1.70261 -3.79452 0
M  V30 1829 H 167.796 0.127606 -3.72682 0
M  V30 1830 N 169.982 1.44106 -0.638065 0
M  V30 1831 C 170.932 2.27843 0.0847285 0
M  V30 1832 C 171.916 1.39055 0.809471 0
M  V30 1833 O 173.108 1.62808 0.694435 0
M  V30 1834 C 170.237 3.26497 1.06089 0
M  V30 1835 C 169.323 4.22772 0.33541 0
M  V30 1836 N 169.714 5.01737 -0.639787 0
M  V30 1837 C 168.012 4.42227 0.578921 0
M  V30 1838 C 168.713 5.71792 -1.06904 0
M  V30 1839 N 167.689 5.42079 -0.406395 0
M  V30 1840 H 171.491 2.86305 -0.663814 0
M  V30 1841 H 169.005 1.55627 -0.464122 0
M  V30 1842 H 171.002 3.8525 1.59337 0
M  V30 1843 H 169.662 2.69595 1.80966 0
M  V30 1844 H 170.673 5.07799 -1.01789 0
M  V30 1845 H 167.35 3.96415 1.31003 0
M  V30 1846 H 168.74 6.45205 -1.8751 0
M  V30 1847 N 171.46 0.379036 1.52974 0
M  V30 1848 C 172.708 -0.206014 2.01047 0
M  V30 1849 C 173.029 -1.48175 1.26765 0
M  V30 1850 O 172.299 -1.92085 0.384743 0
M  V30 1851 H 170.879 -0.0791184 0.742798 0
M  V30 1852 H 173.541 0.508366 1.88153 0
M  V30 1853 H 172.637 -0.423501 3.09213 0
M  V30 1854 N 172.938 -1.57226 0.108567 0
M  V30 1855 C 173.901 -2.13602 -0.831082 0
M  V30 1856 C 174.901 -1.06841 -1.20173 0
M  V30 1857 O 176.091 -1.32666 -1.12895 0
M  V30 1858 C 173.223 -2.66769 -2.12243 0
M  V30 1859 H 174.416 -2.97951 -0.341317 0
M  V30 1860 H 171.969 -1.55667 -0.14057 0
M  V30 1861 H 172.704 -1.85977 -2.65675 0
M  V30 1862 H 172.489 -3.44839 -1.86625 0
M  V30 1863 H 173.979 -3.10332 -2.79435 0
M  V30 1864 N 174.416 0.165178 -1.56732 0
M  V30 1865 C 175.644 0.896218 -1.86482 0
M  V30 1866 C 176.059 1.75555 -0.694675 0
M  V30 1867 O 175.416 1.79379 0.33607 0
M  V30 1868 C 175.467 1.76792 -3.1532 0
M  V30 1869 O 175.188 0.943239 -4.27825 0
M  V30 1870 C 176.689 2.6081 -3.58459 0
M  V30 1871 H 173.909 0.260064 -0.618553 0
M  V30 1872 H 176.453 0.163428 -2.03846 0
M  V30 1873 H 174.608 2.45398 -2.99764 0
M  V30 1874 H 175.022 1.53998 -5.01383 0
M  V30 1875 H 176.496 3.17579 -4.51495 0
M  V30 1876 H 176.973 3.35977 -2.82872 0
M  V30 1877 H 177.579 1.97526 -3.76648 0
M  V30 1878 N 175.894 1.51508 0.433938 0
M  V30 1879 C 177.142 1.6402 1.18075 0
M  V30 1880 C 177.463 0.360328 1.91642 0
M  V30 1881 O 176.733 -0.623945 1.85698 0
M  V30 1882 H 175.313 0.6045 0.43885 0
M  V30 1883 H 177.975 1.88452 0.497178 0
M  V30 1884 H 177.071 2.46949 1.90847 0
M  V30 1885 N 177.372 -0.689602 1.41712 0
M  V30 1886 C 178.319 -1.80345 1.44029 0
M  V30 1887 C 179.289 -1.63478 0.293948 0
M  V30 1888 O 180.474 -1.84244 0.495869 0
M  V30 1889 C 177.614 -3.18272 1.33405 0
M  V30 1890 C 176.727 -3.46529 2.57956 0
M  V30 1891 C 175.862 -4.74103 2.39582 0
M  V30 1892 C 174.901 -4.95347 3.5958 0
M  V30 1893 N 174.038 -6.14151 3.40239 0
M  V30 1894 H 178.878 -1.77698 2.39222 0
M  V30 1895 H 176.415 -0.867688 1.18784 0
M  V30 1896 H 178.373 -3.97956 1.25246 0
M  V30 1897 H 177.003 -3.2008 0.418164 0
M  V30 1898 H 176.055 -2.61207 2.76542 0
M  V30 1899 H 177.367 -3.58126 3.47199 0
M  V30 1900 H 176.521 -5.61853 2.28924 0
M  V30 1901 H 175.26 -4.64763 1.47805 0
M  V30 1902 H 174.265 -4.06044 3.70686 0
M  V30 1903 H 175.49 -5.06542 4.52318 0
M  V30 1904 H 173.436 -6.06013 2.51167 0
M  V30 1905 H 173.353 -6.26543 4.23061 0
M  V30 1906 H 174.621 -7.04619 3.33365 0
M  V30 1907 N 178.85 -1.27639 -0.924453 0
M  V30 1908 C 180.098 -1.13941 -1.66918 0
M  V30 1909 C 180.419 0.314589 -1.92446 0
M  V30 1910 O 179.689 1.21964 -1.53303 0
M  V30 1911 H 178.269 -0.418678 -0.618642 0
M  V30 1912 H 180.931 -1.60213 -1.10985 0
M  V30 1913 H 180.027 -1.67094 -2.63602 0
M  V30 1914 N 180.328 1.1314 -1.09713 0
M  V30 1915 C 181.276 2.20717 -0.733934 0
M  V30 1916 C 182.27 1.6729 0.266506 0
M  V30 1917 O 183.476 1.79547 0.127656 0
M  V30 1918 H 179.851 0.719292 -0.21937 0
M  V30 1919 H 181.822 2.48611 -1.6503 0
M  V30 1920 C 180.571 3.47265 -0.173849 0
M  V30 1921 H 179.894 3.88716 -0.934873 0
M  V30 1922 H 181.334 4.23979 0.0423126 0
M  V30 1923 C 179.793 3.18724 1.09164 0
M  V30 1924 O 180.323 3.37762 2.17439 0
M  V30 1925 N 178.529 2.72583 1.00732 0
M  V30 1926 H 178.076 2.57291 0.126121 0
M  V30 1927 H 178.034 2.53862 1.85476 0
M  V30 1928 N 181.806 0.884767 1.30421 0
M  V30 1929 C 183.083 0.423185 1.90967 0
M  V30 1930 C 183.463 -1.09605 1.80416 0
M  V30 1931 O 182.811 -1.93126 1.22125 0
M  V30 1932 C 183.021 0.921056 3.36627 0
M  V30 1933 C 184.369 0.955903 4.137 0
M  V30 1934 O 185.393 0.867706 3.4547 0
M  V30 1935 O 184.252 1.08614 5.35598 0
M  V30 1936 H 181.346 0.129369 0.816819 0
M  V30 1937 H 183.892 0.973653 1.3899 0
M  V30 1938 H 182.664 1.96489 3.3839 0
M  V30 1939 H 182.287 0.349741 3.96059 0
M  V30 1940 N 183.284 -1.43765 0.645699 0
M  V30 1941 C 184.216 -2.29027 -0.0890605 0
M  V30 1942 C 185.229 -1.42093 -0.794563 0
M  V30 1943 O 186.418 -1.66104 -0.653575 0
M  V30 1944 C 183.518 -3.18831 -1.14891 0
M  V30 1945 C 182.691 -4.34261 -0.523043 0
M  V30 1946 C 181.75 -5.04994 -1.47878 0
M  V30 1947 O 180.776 -5.6052 -0.990277 0
M  V30 1948 N 181.978 -5.07795 -2.81291 0
M  V30 1949 H 184.743 -2.92727 0.64272 0
M  V30 1950 H 182.304 -1.54373 0.487924 0
M  V30 1951 H 184.296 -3.63015 -1.78892 0
M  V30 1952 H 182.866 -2.56782 -1.78275 0
M  V30 1953 H 182.086 -3.93088 0.295896 0
M  V30 1954 H 183.374 -5.08728 -0.0858147 0
M  V30 1955 H 182.772 -4.64042 -3.23546 0
M  V30 1956 H 181.329 -5.55721 -3.40614 0
M  V30 1957 N 184.763 -0.387143 -1.52771 0
M  V30 1958 C 186.009 0.196025 -2.0185 0
M  V30 1959 C 186.342 1.46641 -1.27319 0
M  V30 1960 O 185.617 1.90889 -0.373032 0
M  V30 1961 C 185.9 0.466136 -3.5707 0
M  V30 1962 C 185.753 -0.819385 -4.42274 0
M  V30 1963 C 187.072 1.25768 -4.21747 0
M  V30 1964 H 184.191 0.0697708 -0.73369 0
M  V30 1965 H 186.833 -0.516286 -1.82851 0
M  V30 1966 H 184.983 1.07293 -3.7339 0
M  V30 1967 H 186.655 -1.4563 -4.37709 0
M  V30 1968 H 184.898 -1.43517 -4.09372 0
M  V30 1969 H 185.569 -0.585065 -5.48891 0
M  V30 1970 H 188.045 0.744167 -4.09391 0
M  V30 1971 H 186.921 1.41541 -5.30337 0
M  V30 1972 H 187.182 2.27228 -3.79236 0
M  V30 1973 N 186.241 1.57166 -0.116904 0
M  V30 1974 C 187.657 1.5779 0.239693 0
M  V30 1975 C 187.857 1.1295 1.66867 0
M  V30 1976 O 186.913 0.81592 2.38954 0
M  V30 1977 C 188.226 3.00699 0.00828202 0
M  V30 1978 C 189.774 3.12912 0.0743438 0
M  V30 1979 C 190.249 4.57817 -0.129348 0
M  V30 1980 N 191.74 4.63139 -0.075247 0
M  V30 1981 C 192.475 5.73023 -0.207788 0
M  V30 1982 N 191.971 6.91665 -0.396382 0
M  V30 1983 N 193.764 5.61906 -0.14751 0
M  V30 1984 H 185.915 1.84615 -1.05029 0
M  V30 1985 H 188.178 0.85311 -0.41341 0
M  V30 1986 H 187.884 3.37784 -0.979531 0
M  V30 1987 H 187.758 3.69848 0.741077 0
M  V30 1988 H 190.145 2.75686 1.05268 0
M  V30 1989 H 190.226 2.4631 -0.690297 0
M  V30 1990 H 189.87 4.95742 -1.10465 0
M  V30 1991 H 189.8 5.22507 0.655253 0
M  V30 1992 H 192.291 3.7784 0.0670898 0
M  V30 1993 H 192.604 7.71255 -0.488437 0
M  V30 1994 H 190.949 6.93654 -0.432329 0
M  V30 1995 H 194.14 4.681 -0.00115036 0
M  V30 1996 H 194.313 6.47501 -0.254247 0
M  V30 1997 N 187.719 -0.156864 1.56817 0
M  V30 1998 C 188.966 -0.871125 1.82805 0
M  V30 1999 C 189.294 -1.81611 0.696262 0
M  V30 2000 O 188.549 -1.93141 -0.315459 0
M  V30 2001 C 188.848 -1.68737 3.1506 0
M  V30 2002 C 188.514 -0.890045 4.42028 0
M  V30 2003 C 187.176 -0.670042 4.76512 0
M  V30 2004 C 189.528 -0.331769 5.20143 0
M  V30 2005 C 186.856 0.119104 5.86579 0
M  V30 2006 C 189.208 0.444365 6.31037 0
M  V30 2007 C 187.872 0.675035 6.64078 0
M  V30 2008 H 187.142 -0.318767 0.668931 0
M  V30 2009 H 189.789 -0.135274 1.91022 0
M  V30 2010 H 188.094 -2.49304 3.0225 0
M  V30 2011 H 189.791 -2.24331 3.3238 0
M  V30 2012 H 186.381 -1.07157 4.14988 0
M  V30 2013 H 190.565 -0.489043 4.93885 0
M  V30 2014 H 185.821 0.307417 6.10627 0
M  V30 2015 H 189.995 0.884139 6.90765 0
M  V30 2016 H 187.622 1.28839 7.49203 0
M  V30 2017 N 189.197 -1.51736 -0.425897 0
M  V30 2018 C 190.107 -1.76738 -1.54275 0
M  V30 2019 C 191.123 -0.65211 -1.61318 0
M  V30 2020 O 192.299 -0.935654 -1.78346 0
M  V30 2021 C 189.364 -1.89755 -2.90162 0
M  V30 2022 C 188.425 -3.13633 -2.93143 0
M  V30 2023 C 187.658 -3.2602 -4.22548 0
M  V30 2024 O 187.881 -2.44067 -5.15546 0
M  V30 2025 O 186.815 -4.19071 -4.32046 0
M  V30 2026 H 190.641 -2.71502 -1.36089 0
M  V30 2027 H 188.226 -1.36376 -0.610069 0
M  V30 2028 H 190.108 -2.00236 -3.70788 0
M  V30 2029 H 188.783 -0.981785 -3.08452 0
M  V30 2030 H 187.69 -3.08622 -2.11431 0
M  V30 2031 H 189.023 -4.04936 -2.798 0
M  V30 2032 N 190.675 0.682077 -1.42076 0
M  V30 2033 C 191.605 1.80796 -1.47767 0
M  V30 2034 C 192.586 1.6677 -0.334954 0
M  V30 2035 O 193.771 1.863 -0.548264 0
M  V30 2036 C 190.901 3.19038 -1.37229 0
M  V30 2037 C 189.855 3.47789 -2.49453 0
M  V30 2038 C 189.181 4.8553 -2.23975 0
M  V30 2039 C 190.481 3.45411 -3.91776 0
M  V30 2040 H 192.175 1.7629 -2.41997 0
M  V30 2041 H 189.721 0.846721 -1.16476 0
M  V30 2042 H 191.674 3.97528 -1.39821 0
M  V30 2043 H 190.398 3.24204 -0.394907 0
M  V30 2044 H 189.057 2.71657 -2.46166 0
M  V30 2045 H 188.705 4.87337 -1.24547 0
M  V30 2046 H 188.405 5.0573 -2.99184 0
M  V30 2047 H 189.929 5.66312 -2.28304 0
M  V30 2048 H 191.343 4.13882 -3.96705 0
M  V30 2049 H 189.74 3.77145 -4.66778 0
M  V30 2050 H 190.81 2.44122 -4.18966 0
M  V30 2051 N 192.153 1.28127 0.917671 0
M  V30 2052 C 193.378 1.18007 1.70555 0
M  V30 2053 C 193.803 -0.258257 1.86319 0
M  V30 2054 O 193.161 -1.1869 1.37049 0
M  V30 2055 C 193.209 1.87948 3.07746 0
M  V30 2056 O 192.313 1.18427 3.9503 0
M  V30 2057 H 191.654 0.409867 0.522403 0
M  V30 2058 H 194.184 1.69379 1.1477 0
M  V30 2059 H 194.194 1.95701 3.58001 0
M  V30 2060 H 192.869 2.92573 2.95591 0
M  V30 2061 H 191.446 1.18811 3.53466 0
M  V30 2062 N 193.631 -1.12557 1.10312 0
M  V30 2063 C 194.871 -1.8568 0.854543 0
M  V30 2064 C 195.235 -1.82091 -0.608843 0
M  V30 2065 O 196.436 -2.50544 -0.973717 0
M  V30 2066 C 194.707 -3.2942 1.38626 0
M  V30 2067 S 196.266 -4.19931 1.27293 0
M  V30 2068 H 193.084 -0.640427 0.308827 0
M  V30 2069 H 195.686 -1.35599 1.40831 0
M  V30 2070 H 194.39 -3.2959 2.44537 0
M  V30 2071 H 193.921 -3.84566 0.82902 0
M  V30 2072 H 195.936 -4.95668 0.229776 0
M  V30 2073 N 195.109 -0.891671 -1.2995 0
M  V30 2074 C 196.339 -0.527893 -1.99742 0
M  V30 2075 C 196.747 0.88979 -1.66971 0
M  V30 2076 O 196.09 1.59766 -0.906667 0
M  V30 2077 C 196.152 -0.630804 -3.53922 0
M  V30 2078 C 195.816 -2.01401 -4.10228 0
M  V30 2079 C 196.813 -2.98422 -4.25724 0
M  V30 2080 C 194.498 -2.32121 -4.45449 0
M  V30 2081 C 196.492 -4.24293 -4.75662 0
M  V30 2082 C 194.179 -3.58237 -4.95086 0
M  V30 2083 C 195.177 -4.54137 -5.10146 0
M  V30 2084 O 194.865 -5.78014 -5.58708 0
M  V30 2085 H 194.597 -0.201953 -0.645129 0
M  V30 2086 H 197.151 -1.20076 -1.66646 0
M  V30 2087 H 195.381 0.0990616 -3.86573 0
M  V30 2088 H 197.07 -0.277338 -4.04951 0
M  V30 2089 H 197.836 -2.76001 -3.98809 0
M  V30 2090 H 193.715 -1.5824 -4.32991 0
M  V30 2091 H 197.259 -4.99153 -4.87332 0
M  V30 2092 H 193.156 -3.80491 -5.21437 0
M  V30 2093 H 193.924 -5.8049 -5.77039 0
M  V30 2094 N 196.587 1.43421 -0.653314 0
M  V30 2095 C 197.812 2.06678 -0.172846 0
M  V30 2096 C 198.237 1.48648 1.15262 0
M  V30 2097 O 197.595 0.596457 1.71208 0
M  V30 2098 C 197.643 3.60474 -0.0953184 0
M  V30 2099 O 196.747 4.01487 0.942442 0
M  V30 2100 H 196.088 0.657181 -0.0949155 0
M  V30 2101 H 198.618 1.83925 -0.896265 0
M  V30 2102 H 198.628 4.07905 0.0879728 0
M  V30 2103 H 197.303 4.02088 -1.06291 0
M  V30 2104 H 195.88 3.65646 0.731932 0
M  V30 2105 N 198.065 0.39524 1.52563 0
M  V30 2106 C 198.995 -0.428384 2.29537 0
M  V30 2107 C 199.976 -1.05831 1.33169 0
M  V30 2108 O 201.161 -1.06995 1.62067 0
M  V30 2109 C 198.291 -1.55274 3.10656 0
M  V30 2110 C 197.245 -1.04855 4.14957 0
M  V30 2111 C 196.571 -2.26543 4.84337 0
M  V30 2112 C 197.871 -0.112324 5.22179 0
M  V30 2113 H 199.565 0.213867 2.98635 0
M  V30 2114 H 197.111 0.104298 1.43622 0
M  V30 2115 H 199.064 -2.1358 3.63265 0
M  V30 2116 H 197.788 -2.22266 2.39302 0
M  V30 2117 H 196.447 -0.487985 3.63338 0
M  V30 2118 H 196.095 -2.92059 4.09525 0
M  V30 2119 H 195.795 -1.93466 5.54837 0
M  V30 2120 H 197.319 -2.85481 5.39753 0
M  V30 2121 H 198.733 -0.603752 5.70112 0
M  V30 2122 H 197.13 0.128968 5.99961 0
M  V30 2123 H 198.2 0.837052 4.77621 0
M  V30 2124 N 199.544 -1.57102 0.125237 0
M  V30 2125 C 200.507 -2.14471 -0.80838 0
M  V30 2126 C 201.507 -1.0811 -1.19033 0
M  V30 2127 O 202.697 -1.33856 -1.11482 0
M  V30 2128 C 199.829 -2.69005 -2.09402 0
M  V30 2129 H 201.022 -2.98297 -0.309696 0
M  V30 2130 H 198.575 -1.55807 -0.124051 0
M  V30 2131 H 199.31 -1.88785 -2.63687 0
M  V30 2132 H 199.095 -3.46799 -1.82957 0
M  V30 2133 H 200.585 -3.13278 -2.76128 0
M  V30 2134 N 201.022 0.148545 -1.56898 0
M  V30 2135 C 202.433 0.708766 -1.72723 0
M  V30 2136 C 202.784 1.81734 -0.739395 0
M  V30 2137 O 201.909 2.16194 0.0943169 0
M  V30 2138 C 202.504 1.29245 -3.13179 0
M  V30 2139 C 201.063 1.79925 -3.30611 0
M  V30 2140 C 200.21 0.687111 -2.68652 0
M  V30 2141 H 203.161 -0.0771063 -1.58513 0
M  V30 2142 H 203.182 2.16224 -3.13093 0
M  V30 2143 H 202.694 0.485382 -3.85053 0
M  V30 2144 H 200.795 2.63203 -2.63732 0
M  V30 2145 H 200.908 1.92903 -4.38549 0
M  V30 2146 H 199.272 1.11335 -2.29078 0
M  V30 2147 H 200.055 -0.108483 -3.43129 0
M  V30 2148 N 202.5 1.5196 0.417844 0
M  V30 2149 C 203.432 1.70895 1.52733 0
M  V30 2150 C 204.445 0.589405 1.51756 0
M  V30 2151 O 205.634 0.864312 1.56179 0
M  V30 2152 C 202.734 1.72627 2.91639 0
M  V30 2153 C 201.907 3.01479 3.16905 0
M  V30 2154 C 200.966 2.95139 4.35637 0
M  V30 2155 O 199.992 3.69059 4.3334 0
M  V30 2156 N 201.194 2.12328 5.40275 0
M  V30 2157 H 203.959 2.66612 1.36888 0
M  V30 2158 H 201.52 1.50089 0.607037 0
M  V30 2159 H 203.512 1.65928 3.6912 0
M  V30 2160 H 202.082 0.844216 3.00985 0
M  V30 2161 H 201.302 3.21895 2.27546 0
M  V30 2162 H 202.59 3.86736 3.30625 0
M  V30 2163 H 201.988 1.51685 5.44985 0
M  V30 2164 H 200.545 2.11494 6.16534 0
M  V30 2165 N 203.978 -0.674533 1.42435 0
M  V30 2166 C 205.227 -1.43034 1.42212 0
M  V30 2167 C 205.54 -1.95555 0.0420788 0
M  V30 2168 O 206.746 -2.71374 -0.0827558 0
M  V30 2169 C 205.202 -2.58748 2.50155 0
M  V30 2170 C 204.81 -2.12925 3.94166 0
M  V30 2171 C 206.554 -3.36257 2.59098 0
M  V30 2172 C 204.461 -3.25723 4.93618 0
M  V30 2173 H 203.391 -0.537345 0.528939 0
M  V30 2174 H 206.042 -0.73024 1.68344 0
M  V30 2175 H 204.424 -3.31128 2.17188 0
M  V30 2176 H 205.598 -1.47697 4.36488 0
M  V30 2177 H 203.913 -1.48354 3.89076 0
M  V30 2178 H 206.51 -4.20264 3.30578 0
M  V30 2179 H 206.853 -3.82866 1.63461 0
M  V30 2180 H 207.386 -2.70947 2.9126 0
M  V30 2181 H 204.125 -2.84105 5.90732 0
M  V30 2182 H 203.645 -3.89732 4.55926 0
M  V30 2183 H 205.324 -3.91186 5.15347 0
M  V30 2184 N 205.456 -1.28612 -0.910864 0
M  V30 2185 C 206.403 -1.12786 -2.01365 0
M  V30 2186 C 207.373 -0.024201 -1.66082 0
M  V30 2187 O 208.558 -0.189667 -1.89855 0
M  V30 2188 C 205.698 -0.798743 -3.35729 0
M  V30 2189 C 204.811 -1.98173 -3.83864 0
M  V30 2190 C 203.946 -1.59298 -5.06752 0
M  V30 2191 C 202.985 -2.74245 -5.47226 0
M  V30 2192 N 202.122 -2.35842 -6.61304 0
M  V30 2193 H 206.962 -2.07142 -2.14234 0
M  V30 2194 H 204.499 -1.03093 -1.0493 0
M  V30 2195 H 206.457 -0.588662 -4.13026 0
M  V30 2196 H 205.087 0.10789 -3.2262 0
M  V30 2197 H 204.139 -2.30386 -3.02699 0
M  V30 2198 H 205.451 -2.84343 -4.09818 0
M  V30 2199 H 204.605 -1.34513 -5.916 0
M  V30 2200 H 203.344 -0.702618 -4.82612 0
M  V30 2201 H 202.349 -2.99725 -4.60918 0
M  V30 2202 H 203.574 -3.63928 -5.73353 0
M  V30 2203 H 201.52 -1.49279 -6.38789 0
M  V30 2204 H 201.437 -3.15546 -6.86998 0
M  V30 2205 H 202.705 -2.14348 -7.4945 0
M  V30 2206 N 206.934 1.1197 -1.10907 0
M  V30 2207 C 208.18 1.8386 -0.855773 0
M  V30 2208 C 208.513 1.84134 0.617103 0
M  V30 2209 O 207.788 1.29041 1.45529 0
M  V30 2210 C 208.071 3.31305 -1.411 0
M  V30 2211 C 207.924 3.39456 -2.9511 0
M  V30 2212 C 209.243 4.2721 -1.05736 0
M  V30 2213 H 206.362 0.667545 -0.312334 0
M  V30 2214 H 209.004 1.31331 -1.37303 0
M  V30 2215 H 207.154 3.76169 -0.97105 0
M  V30 2216 H 208.826 3.03191 -3.47668 0
M  V30 2217 H 207.069 2.79849 -3.31462 0
M  V30 2218 H 207.74 4.43209 -3.29044 0
M  V30 2219 H 210.216 3.90497 -1.43706 0
M  V30 2220 H 209.092 5.28775 -1.47269 0
M  V30 2221 H 209.353 4.42088 0.0325958 0
M  V30 2222 N 208.412 0.89855 1.29475 0
M  V30 2223 C 209.661 0.519863 1.94885 0
M  V30 2224 C 209.974 -0.9383 1.71625 0
M  V30 2225 O 211.18 -1.42445 2.31131 0
M  V30 2226 C 209.636 0.878836 3.49005 0
M  V30 2227 C 209.244 2.35569 3.81066 0
M  V30 2228 C 210.988 0.570004 4.20656 0
M  V30 2229 C 208.895 2.65558 5.28425 0
M  V30 2230 H 207.825 0.190692 0.729488 0
M  V30 2231 H 210.476 1.09539 1.47219 0
M  V30 2232 H 208.858 0.232253 3.95318 0
M  V30 2233 H 210.032 3.04773 3.45616 0
M  V30 2234 H 208.347 2.63343 3.22552 0
M  V30 2235 H 210.944 0.770925 5.29113 0
M  V30 2236 H 211.287 -0.491404 4.1339 0
M  V30 2237 H 211.82 1.17438 3.8007 0
M  V30 2238 H 208.559 3.70493 5.40754 0
M  V30 2239 H 208.079 2.00977 5.65127 0
M  V30 2240 H 209.758 2.51765 5.96006 0
M  V30 2241 N 209.89 -1.43072 0.660911 0
M  V30 2242 C 210.853 -2.29194 -0.0166406 0
M  V30 2243 C 211.853 -1.42609 -0.742912 0
M  V30 2244 O 213.043 -1.64155 -0.583004 0
M  V30 2245 C 210.175 -3.24831 -1.0343 0
M  V30 2246 H 211.368 -2.90596 0.741208 0
M  V30 2247 H 208.921 -1.5048 0.422532 0
M  V30 2248 H 209.656 -2.68339 -1.82111 0
M  V30 2249 H 209.441 -3.88676 -0.517082 0
M  V30 2250 H 210.931 -3.89451 -1.50723 0
M  V30 2251 N 211.368 -0.403325 -1.52352 0
M  V30 2252 C 212.779 0.0675782 -1.86578 0
M  V30 2253 C 213.13 1.44941 -1.32236 0
M  V30 2254 O 212.255 2.06112 -0.659307 0
M  V30 2255 C 212.85 0.129404 -3.38553 0
M  V30 2256 C 211.409 0.544629 -3.72439 0
M  V30 2257 C 210.556 -0.284551 -2.75836 0
M  V30 2258 H 213.507 -0.620631 -1.46061 0
M  V30 2259 H 213.528 0.94581 -3.68558 0
M  V30 2260 H 213.04 -0.87645 -3.78074 0
M  V30 2261 H 211.141 1.55734 -3.38493 0
M  V30 2262 H 211.254 0.293046 -4.78203 0
M  V30 2263 H 209.618 0.252258 -2.53448 0
M  V30 2264 H 210.401 -1.28865 -3.18196 0
M  V30 2265 N 212.846 1.57033 -0.133567 0
M  V30 2266 C 214.092 1.96764 0.515326 0
M  V30 2267 C 214.447 1.01653 1.63353 0
M  V30 2268 O 213.74 0.0491374 1.91537 0
M  V30 2269 C 213.934 3.40674 1.08057 0
M  V30 2270 C 213.763 4.49696 0.0186522 0
M  V30 2271 C 212.533 5.03567 -0.418174 0
M  V30 2272 C 214.731 5.08536 -0.767809 0
M  V30 2273 N 212.713 5.9618 -1.46434 0
M  V30 2274 C 214.084 5.97231 -1.6648 0
M  V30 2275 C 216.139 4.9115 -0.817087 0
M  V30 2276 C 214.842 6.70401 -2.60681 0
M  V30 2277 C 216.868 5.65012 -1.74687 0
M  V30 2278 C 216.23 6.53403 -2.63141 0
M  V30 2279 H 212.329 0.765919 0.157771 0
M  V30 2280 H 214.913 1.93395 -0.22506 0
M  V30 2281 H 213.084 3.44662 1.79061 0
M  V30 2282 H 214.816 3.67495 1.69497 0
M  V30 2283 H 211.571 4.73594 -0.0229803 0
M  V30 2284 H 211.995 6.47191 -1.98678 0
M  V30 2285 H 216.637 4.22543 -0.147326 0
M  V30 2286 H 214.355 7.38245 -3.28664 0
M  V30 2287 H 217.941 5.53559 -1.79063 0
M  V30 2288 H 216.821 7.09556 -3.33917 0
M  V30 2289 N 214.325 -0.140222 1.56975 0
M  V30 2290 C 215.741 -0.493088 1.51792 0
M  V30 2291 C 215.941 -1.83013 0.843116 0
M  V30 2292 O 214.997 -2.49041 0.416493 0
M  V30 2293 C 216.31 -0.497144 2.96562 0
M  V30 2294 C 217.858 -0.582186 3.07538 0
M  V30 2295 C 218.333 -0.616838 4.53827 0
M  V30 2296 N 219.824 -0.678873 4.58198 0
M  V30 2297 C 220.559 -0.726782 5.68775 0
M  V30 2298 N 220.055 -0.733623 6.88905 0
M  V30 2299 N 221.848 -0.768179 5.56826 0
M  V30 2300 H 213.999 0.736108 1.99237 0
M  V30 2301 H 216.262 0.269182 0.90898 0
M  V30 2302 H 215.968 0.417217 3.49217 0
M  V30 2303 H 215.842 -1.33263 3.52875 0
M  V30 2304 H 218.229 -1.48697 2.54899 0
M  V30 2305 H 218.31 0.280581 2.54257 0
M  V30 2306 H 217.954 0.283812 5.07106 0
M  V30 2307 H 217.884 -1.49619 5.04898 0
M  V30 2308 H 220.375 -0.68061 3.7172 0
M  V30 2309 H 220.688 -0.772215 7.68932 0
M  V30 2310 H 219.033 -0.701389 6.91452 0
M  V30 2311 H 222.224 -0.760051 4.61888 0
M  V30 2312 H 222.397 -0.80205 6.43017 0
M  V30 2313 N 215.803 -1.52179 -0.40978 0
M  V30 2314 C 216.736 -1.70196 -1.52015 0
M  V30 2315 C 217.714 -0.549542 -1.53032 0
M  V30 2316 O 218.898 -0.776815 -1.71749 0
M  V30 2317 C 216.025 -1.74069 -2.90547 0
M  V30 2318 C 215.071 -2.95601 -3.07445 0
M  V30 2319 S 215.904 -4.55956 -2.80827 0
M  V30 2320 C 217.06 -4.62614 -4.21591 0
M  V30 2321 H 217.293 -2.64109 -1.36504 0
M  V30 2322 H 214.826 -1.4221 -0.601312 0
M  V30 2323 H 216.784 -1.76985 -3.70387 0
M  V30 2324 H 215.445 -0.812835 -3.034 0
M  V30 2325 H 214.638 -2.94791 -4.08796 0
M  V30 2326 H 214.24 -2.90569 -2.35469 0
M  V30 2327 H 216.532 -4.39951 -5.15218 0
M  V30 2328 H 217.475 -5.64548 -4.27424 0
M  V30 2329 H 217.883 -3.91654 -4.06531 0
M  V30 2330 N 217.281 0.66697 -1.42791 0
M  V30 2331 C 218.692 1.2478 -1.38877 0
M  V30 2332 C 219.043 1.96012 -0.0859426 0
M  V30 2333 O 218.168 2.00463 0.815081 0
M  V30 2334 C 218.763 2.26938 -2.51564 0
M  V30 2335 C 217.322 2.80529 -2.50959 0
M  V30 2336 C 216.469 1.54965 -2.29959 0
M  V30 2337 H 219.42 0.459853 -1.51892 0
M  V30 2338 H 219.441 3.08834 -2.22265 0
M  V30 2339 H 218.953 1.75065 -3.46372 0
M  V30 2340 H 217.054 3.36502 -1.59991 0
M  V30 2341 H 217.167 3.29012 -3.48265 0
M  V30 2342 H 215.531 1.81817 -1.78366 0
M  V30 2343 H 216.314 1.05047 -3.26833 0
M  V30 2344 N 218.759 1.29093 0.90403 0
M  V30 2345 C 219.669 1.15727 2.0407 0
M  V30 2346 C 220.685 0.0815308 1.73809 0
M  V30 2347 O 221.861 0.292749 1.99261 0
M  V30 2348 C 218.926 0.830424 3.36608 0
M  V30 2349 C 217.987 1.98955 3.80415 0
M  V30 2350 C 217.22 1.6782 5.06628 0
M  V30 2351 O 217.443 0.597105 5.67266 0
M  V30 2352 O 216.377 2.52486 5.46383 0
M  V30 2353 H 220.203 2.11171 2.18267 0
M  V30 2354 H 217.788 1.08504 1.027 0
M  V30 2355 H 219.67 0.662521 4.16159 0
M  V30 2356 H 218.345 -0.0942678 3.23563 0
M  V30 2357 H 217.252 2.21267 3.01648 0
M  V30 2358 H 218.585 2.89529 3.98037 0
M  V30 2359 N 220.237 -1.11381 1.11499 0
M  V30 2360 C 221.484 -1.83132 0.864231 0
M  V30 2361 C 221.812 -1.84683 -0.610114 0
M  V30 2362 O 221.067 -1.29589 -1.46646 0
M  V30 2363 C 221.366 -3.30026 1.37177 0
M  V30 2364 C 221.032 -3.48634 2.85946 0
M  V30 2365 C 219.694 -3.53421 3.26569 0
M  V30 2366 C 222.046 -3.54837 3.81759 0
M  V30 2367 C 219.374 -3.61967 4.61733 0
M  V30 2368 C 221.726 -3.64915 5.1674 0
M  V30 2369 C 220.39 -3.67962 5.5692 0
M  V30 2370 H 219.66 -0.670127 0.316245 0
M  V30 2371 H 222.307 -1.31354 1.3935 0
M  V30 2372 H 220.612 -3.84304 0.762753 0
M  V30 2373 H 222.309 -3.84034 1.15408 0
M  V30 2374 H 218.899 -3.45579 2.53521 0
M  V30 2375 H 223.083 -3.50399 3.51474 0
M  V30 2376 H 218.339 -3.62603 4.92269 0
M  V30 2377 H 222.513 -3.68658 5.90816 0
M  V30 2378 H 220.14 -3.74336 6.61647 0
M  V30 2379 N 221.715 -0.905404 -1.28997 0
M  V30 2380 C 222.945 -0.549049 -1.99171 0
M  V30 2381 C 223.353 0.87203 -1.67906 0
M  V30 2382 O 222.696 1.58796 -0.923561 0
M  V30 2383 C 222.758 -0.668306 -3.53234 0
M  V30 2384 C 222.422 -2.0574 -4.08069 0
M  V30 2385 C 223.419 -3.0292 -4.22534 0
M  V30 2386 C 221.104 -2.36833 -4.42962 0
M  V30 2387 C 223.098 -4.29314 -4.71135 0
M  V30 2388 C 220.785 -3.63467 -4.91258 0
M  V30 2389 C 221.783 -4.59522 -5.053 0
M  V30 2390 O 221.471 -5.83907 -5.52546 0
M  V30 2391 H 221.203 -0.208784 -0.64295 0
M  V30 2392 H 223.757 -1.21836 -1.65363 0
M  V30 2393 H 221.987 0.0580547 -3.86656 0
M  V30 2394 H 223.676 -0.320273 -4.04634 0
M  V30 2395 H 224.442 -2.80216 -3.95859 0
M  V30 2396 H 220.321 -1.62824 -4.31288 0
M  V30 2397 H 223.865 -5.04293 -4.8201 0
M  V30 2398 H 219.762 -3.86 -5.17372 0
M  V30 2399 H 220.53 -5.86578 -5.70849 0
M  V30 2400 N 223.193 1.4272 -0.668489 0
M  V30 2401 C 224.141 2.32586 0.0254857 0
M  V30 2402 C 225.135 1.49471 0.797176 0
M  V30 2403 O 226.341 1.65583 0.705853 0
M  V30 2404 H 222.716 0.751514 0.0270339 0
M  V30 2405 H 224.687 2.88823 -0.749936 0
M  V30 2406 C 223.436 3.3397 0.967427 0
M  V30 2407 H 222.759 3.97961 0.383048 0
M  V30 2408 H 224.199 3.9945 1.42181 0
M  V30 2409 C 222.658 2.65744 2.0708 0
M  V30 2410 O 223.188 2.48454 3.15648 0
M  V30 2411 N 221.394 2.2487 1.8407 0
M  V30 2412 H 220.941 2.39132 0.95778 0
M  V30 2413 H 220.899 1.79552 2.58086 0
M  V30 2414 N 224.671 0.411399 1.52136 0
M  V30 2415 C 226.087 0.0623865 1.59478 0
M  V30 2416 C 226.287 -1.42554 1.4241 0
M  V30 2417 O 225.343 -2.19263 1.2522 0
M  V30 2418 C 226.656 0.559331 2.95452 0
M  V30 2419 C 228.204 0.517503 3.08692 0
M  V30 2420 C 228.679 0.990994 4.4715 0
M  V30 2421 N 230.17 0.947908 4.53397 0
M  V30 2422 C 230.905 1.28544 5.58806 0
M  V30 2423 N 230.401 1.69454 6.71757 0
M  V30 2424 N 232.194 1.20526 5.49026 0
M  V30 2425 H 224.345 1.37982 1.61477 0
M  V30 2426 H 226.608 0.566977 0.759764 0
M  V30 2427 H 226.314 1.59938 3.1323 0
M  V30 2428 H 226.188 -0.0298014 3.77188 0
M  V30 2429 H 228.575 -0.513505 2.90598 0
M  V30 2430 H 228.656 1.14272 2.28857 0
M  V30 2431 H 228.3 2.02034 4.65988 0
M  V30 2432 H 228.23 0.34257 5.25485 0
M  V30 2433 H 230.721 0.647157 3.72317 0
M  V30 2434 H 231.034 1.93513 7.48179 0
M  V30 2435 H 229.379 1.73359 6.73032 0
M  V30 2436 H 232.57 0.884505 4.59667 0
M  V30 2437 H 232.743 1.47161 6.31069 0
M  V30 2438 N 226.149 -1.5696 0.141893 0
M  V30 2439 C 227.396 -1.9596 -0.510492 0
M  V30 2440 C 227.724 -1.02648 -1.65208 0
M  V30 2441 O 226.979 -0.0546947 -1.95624 0
M  V30 2442 C 227.278 -3.41242 -1.06249 0
M  V30 2443 C 226.944 -4.50882 -0.0398791 0
M  V30 2444 C 225.606 -4.80595 0.241247 0
M  V30 2445 C 227.958 -5.17058 0.65578 0
M  V30 2446 C 225.286 -5.73792 1.22393 0
M  V30 2447 C 227.638 -6.11313 1.62724 0
M  V30 2448 C 226.302 -6.39407 1.91612 0
M  V30 2449 H 225.572 -0.717068 -0.186802 0
M  V30 2450 H 228.219 -1.90142 0.227643 0
M  V30 2451 H 226.524 -3.43866 -1.87785 0
M  V30 2452 H 228.221 -3.68742 -1.57576 0
M  V30 2453 H 224.811 -4.27754 -0.269174 0
M  V30 2454 H 228.995 -4.94239 0.451779 0
M  V30 2455 H 224.251 -5.93853 1.45424 0
M  V30 2456 H 228.425 -6.61668 2.17183 0
M  V30 2457 H 226.052 -7.11427 2.6791 0
M  V30 2458 N 227.627 0.131896 -1.57047 0
M  V30 2459 C 228.574 1.16236 -1.99393 0
M  V30 2460 C 229.544 1.41863 -0.863943 0
M  V30 2461 O 230.729 1.53946 -1.12718 0
M  V30 2462 C 227.869 2.48708 -2.39245 0
M  V30 2463 C 226.982 2.30127 -3.65603 0
M  V30 2464 C 226.117 3.55738 -3.94492 0
M  V30 2465 C 225.156 3.32259 -5.14073 0
M  V30 2466 N 224.293 4.50039 -5.38896 0
M  V30 2467 H 229.133 0.794251 -2.87221 0
M  V30 2468 H 226.67 0.380707 -1.42088 0
M  V30 2469 H 228.628 3.25969 -2.60384 0
M  V30 2470 H 227.258 2.83437 -1.54478 0
M  V30 2471 H 226.31 1.43845 -3.52154 0
M  V30 2472 H 227.622 2.08746 -4.5302 0
M  V30 2473 H 226.776 4.41423 -4.1621 0
M  V30 2474 H 225.515 3.80138 -3.05526 0
M  V30 2475 H 224.52 2.44963 -4.92212 0
M  V30 2476 H 225.745 3.09242 -6.04604 0
M  V30 2477 H 223.691 4.74584 -4.52886 0
M  V30 2478 H 223.608 4.31716 -6.2061 0
M  V30 2479 H 224.876 5.36895 -5.65123 0
M  V30 2480 N 229.106 1.52395 0.401703 0
M  V30 2481 C 230.354 1.66488 1.14569 0
M  V30 2482 C 230.675 0.400897 1.90835 0
M  V30 2483 O 229.945 -0.584415 1.8698 0
M  V30 2484 H 228.525 0.613672 0.425929 0
M  V30 2485 H 231.187 1.89464 0.457093 0
M  V30 2486 H 230.283 2.50942 1.85566 0
M  V30 2487 N 230.584 -0.659388 1.43143 0
M  V30 2488 C 232 -0.974337 1.26407 0
M  V30 2489 C 232.2 -2.007 0.179341 0
M  V30 2490 O 231.256 -2.4856 -0.444295 0
M  V30 2491 C 232.569 -1.46447 2.62628 0
M  V30 2492 C 234.117 -1.58144 2.7011 0
M  V30 2493 C 234.592 -2.1055 4.06734 0
M  V30 2494 N 236.083 -2.17861 4.08767 0
M  V30 2495 C 236.818 -2.59519 5.1131 0
M  V30 2496 N 236.314 -3.00518 6.24228 0
M  V30 2497 N 238.107 -2.59404 4.98664 0
M  V30 2498 H 230.258 0.0240528 2.12386 0
M  V30 2499 H 232.521 -0.0518065 0.946583 0
M  V30 2500 H 232.227 -0.780123 3.42939 0
M  V30 2501 H 232.101 -2.44058 2.87603 0
M  V30 2502 H 234.488 -2.25682 1.90136 0
M  V30 2503 H 234.569 -0.589828 2.48907 0
M  V30 2504 H 234.213 -1.43616 4.87172 0
M  V30 2505 H 234.143 -3.10531 4.25298 0
M  V30 2506 H 236.634 -1.88975 3.27257 0
M  V30 2507 H 236.947 -3.31036 6.98309 0
M  V30 2508 H 235.292 -2.98337 6.2771 0
M  V30 2509 H 238.483 -2.26747 4.09516 0
M  V30 2510 H 238.656 -2.91548 5.78709 0
M  V30 2511 N 232.062 -1.29571 -0.897171 0
M  V30 2512 C 233.01 -1.14802 -2.02295 0
M  V30 2513 C 234.004 -0.0629637 -1.69283 0
M  V30 2514 O 235.21 -0.222945 -1.78614 0
M  V30 2515 H 231.585 -0.354692 -0.663097 0
M  V30 2516 H 233.556 -2.10108 -2.11889 0
M  V30 2517 C 232.305 -0.843966 -3.37302 0
M  V30 2518 H 231.628 -1.67093 -3.63208 0
M  V30 2519 H 233.068 -0.780672 -4.16751 0
M  V30 2520 C 231.527 0.452843 -3.33843 0
M  V30 2521 O 232.057 1.47813 -3.73516 0
M  V30 2522 N 230.263 0.459601 -2.86943 0
M  V30 2523 H 229.81 -0.375213 -2.54853 0
M  V30 2524 H 229.768 1.32726 -2.85011 0
M  V30 2525 N 233.54 1.10788 -1.12088 0
M  V30 2526 C 234.817 1.79136 -0.785476 0
M  V30 2527 C 235.197 1.98246 0.725377 0
M  V30 2528 O 234.545 1.57258 1.65778 0
M  V30 2529 C 234.755 3.12375 -1.55636 0
M  V30 2530 C 236.103 3.8731 -1.74001 0
M  V30 2531 O 237.127 3.22085 -1.52117 0
M  V30 2532 O 235.986 5.04369 -2.10415 0
M  V30 2533 H 233.08 0.776226 -0.285311 0
M  V30 2534 H 235.626 1.1747 -1.2247 0
M  V30 2535 H 234.398 2.93863 -2.5838 0
M  V30 2536 H 234.021 3.81758 -1.11114 0
M  V30 2537 N 235.018 0.912232 1.28515 0
M  V30 2538 C 235.948 0.416403 2.29757 0
M  V30 2539 C 236.929 -0.515194 1.6211 0
M  V30 2540 O 238.114 -0.423253 1.89532 0
M  V30 2541 C 235.244 -0.34572 3.45575 0
M  V30 2542 C 234.198 0.496599 4.25109 0
M  V30 2543 C 233.524 -0.393771 5.33248 0
M  V30 2544 C 234.824 1.75307 4.92001 0
M  V30 2545 H 236.518 1.26249 2.7148 0
M  V30 2546 H 234.064 0.608515 1.30511 0
M  V30 2547 H 236.017 -0.703422 4.15488 0
M  V30 2548 H 234.741 -1.2257 3.02728 0
M  V30 2549 H 233.4 0.8368 3.56922 0
M  V30 2550 H 233.048 -1.27225 4.86644 0
M  V30 2551 H 232.748 0.166209 5.87365 0
M  V30 2552 H 234.272 -0.747389 6.06009 0
M  V30 2553 H 235.686 1.46437 5.54283 0
M  V30 2554 H 234.083 2.25534 5.56106 0
M  V30 2555 H 235.153 2.48176 4.16577 0
M  V30 2556 N 236.496 -1.42363 0.676048 0
M  V30 2557 C 237.429 -2.28141 -0.0516916 0
M  V30 2558 C 238.407 -1.41135 -0.807439 0
M  V30 2559 O 239.591 -1.70573 -0.802305 0
M  V30 2560 C 236.718 -3.21007 -1.08039 0
M  V30 2561 C 235.764 -4.24426 -0.420076 0
M  V30 2562 S 236.597 -5.29134 0.823246 0
M  V30 2563 C 237.753 -6.25566 -0.204344 0
M  V30 2564 H 237.986 -2.89515 0.675884 0
M  V30 2565 H 235.519 -1.47211 0.465635 0
M  V30 2566 H 237.477 -3.75048 -1.66881 0
M  V30 2567 H 236.138 -2.58766 -1.78042 0
M  V30 2568 H 235.331 -4.89596 -1.19633 0
M  V30 2569 H 234.933 -3.7388 0.0947845 0
M  V30 2570 H 237.225 -6.69098 -1.06369 0
M  V30 2571 H 238.168 -7.06895 0.412915 0
M  V30 2572 H 238.576 -5.61811 -0.55038 0
M  V30 2573 N 237.974 -0.419461 -1.51915 0
M  V30 2574 C 238.884 0.407528 -2.31033 0
M  V30 2575 C 239.9 1.04413 -1.3919 0
M  V30 2576 O 241.076 1.0434 -1.72265 0
M  V30 2577 C 238.141 1.50365 -3.12396 0
M  V30 2578 C 237.202 0.889029 -4.19994 0
M  V30 2579 C 236.435 1.93291 -4.97468 0
M  V30 2580 O 236.658 3.15259 -4.75361 0
M  V30 2581 O 235.592 1.53339 -5.8204 0
M  V30 2582 H 239.418 -0.237865 -3.02767 0
M  V30 2583 H 237.003 -0.182413 -1.48282 0
M  V30 2584 H 238.885 2.13975 -3.63032 0
M  V30 2585 H 237.56 2.13345 -2.43445 0
M  V30 2586 H 236.467 0.215353 -3.7348 0
M  V30 2587 H 237.8 0.302991 -4.91267 0
M  V30 2588 N 239.452 1.56882 -0.150215 0
M  V30 2589 C 240.682 2.00302 0.506213 0
M  V30 2590 C 241.09 1.02934 1.58749 0
M  V30 2591 O 240.433 0.0188384 1.8369 0
M  V30 2592 C 240.495 3.40156 1.16337 0
M  V30 2593 C 240.159 4.56439 0.226311 0
M  V30 2594 C 241.156 5.17012 -0.547265 0
M  V30 2595 C 238.841 5.02136 0.128279 0
M  V30 2596 C 240.835 6.21693 -1.40629 0
M  V30 2597 C 238.522 6.06672 -0.734345 0
M  V30 2598 C 239.52 6.6632 -1.50023 0
M  V30 2599 O 239.208 7.68831 -2.34848 0
M  V30 2600 H 238.94 0.662182 0.135984 0
M  V30 2601 H 241.494 2.03961 -0.242746 0
M  V30 2602 H 239.724 3.33346 1.96004 0
M  V30 2603 H 241.413 3.67663 1.71985 0
M  V30 2604 H 242.179 4.82603 -0.48158 0
M  V30 2605 H 238.058 4.55435 0.714157 0
M  V30 2606 H 241.602 6.68179 -2.00455 0
M  V30 2607 H 237.499 6.40507 -0.801309 0
M  V30 2608 H 238.267 7.86065 -2.28131 0
M  V30 2609 N 240.93 -0.123565 1.57115 0
M  V30 2610 C 241.893 -1.13583 1.99076 0
M  V30 2611 C 242.893 -1.34564 0.880296 0
M  V30 2612 O 244.083 -1.31158 1.14644 0
M  V30 2613 C 241.215 -2.49128 2.32698 0
M  V30 2614 H 242.408 -0.775287 2.89706 0
M  V30 2615 H 239.961 -0.36771 1.51913 0
M  V30 2616 H 240.696 -2.90111 1.44934 0
M  V30 2617 H 240.481 -2.35255 3.13684 0
M  V30 2618 H 241.971 -3.2199 2.65918 0
M  V30 2619 N 242.408 -1.52605 -0.393616 0
M  V30 2620 C 243.355 -1.77055 -1.48054 0
M  V30 2621 C 244.325 -0.61358 -1.54352 0
M  V30 2622 O 245.51 -0.852806 -1.70681 0
M  V30 2623 C 242.65 -1.94108 -2.85335 0
M  V30 2624 C 241.763 -3.21792 -2.88226 0
M  V30 2625 C 240.898 -3.29188 -4.16904 0
M  V30 2626 C 239.937 -4.51013 -4.13828 0
M  V30 2627 N 239.074 -4.55716 -5.34105 0
M  V30 2628 H 243.914 -2.69815 -1.26506 0
M  V30 2629 H 241.451 -1.33683 -0.61379 0
M  V30 2630 H 243.409 -2.01979 -3.65049 0
M  V30 2631 H 242.039 -1.04713 -3.05344 0
M  V30 2632 H 241.091 -3.23015 -2.00911 0
M  V30 2633 H 242.403 -4.11557 -2.8182 0
M  V30 2634 H 241.557 -3.36216 -5.05018 0
M  V30 2635 H 240.296 -2.37389 -4.26026 0
M  V30 2636 H 239.301 -4.44115 -3.24102 0
M  V30 2637 H 240.526 -5.44123 -4.06333 0
M  V30 2638 H 238.472 -3.66807 -5.43865 0
M  V30 2639 H 238.389 -5.39346 -5.29756 0
M  V30 2640 H 239.657 -4.66993 -6.2413 0
M  V30 2641 N 243.887 0.651787 -1.4349 0
M  V30 2642 C 244.819 1.77725 -1.44729 0
M  V30 2643 C 245.832 1.59141 -0.343231 0
M  V30 2644 O 247.021 1.67835 -0.607751 0
M  V30 2645 C 244.121 3.15172 -1.24579 0
M  V30 2646 C 243.294 3.60402 -2.47849 0
M  V30 2647 C 242.353 4.76656 -2.22902 0
M  V30 2648 O 241.379 4.86022 -2.96263 0
M  V30 2649 N 242.581 5.66958 -1.24656 0
M  V30 2650 H 245.346 1.77141 -2.41746 0
M  V30 2651 H 242.907 0.835678 -1.38665 0
M  V30 2652 H 244.899 3.90634 -1.0577 0
M  V30 2653 H 243.469 3.1052 -0.360015 0
M  V30 2654 H 242.689 2.75369 -2.82073 0
M  V30 2655 H 243.977 3.87368 -3.29884 0
M  V30 2656 H 243.375 5.62065 -0.640265 0
M  V30 2657 H 241.932 6.42135 -1.1183 0
M  V30 2658 N 245.365 1.30045 0.890287 0
M  V30 2659 C 246.315 1.12592 1.9826 0
M  V30 2660 C 247.299 0.0426021 1.60844 0
M  V30 2661 O 248.491 0.265346 1.75 0
M  V30 2662 C 245.62 0.814301 3.33503 0
M  V30 2663 C 244.706 1.93761 3.7725 0
M  V30 2664 N 245.097 3.18232 3.93143 0
M  V30 2665 C 243.395 1.83277 4.06602 0
M  V30 2666 C 244.096 3.9158 4.30163 0
M  V30 2667 N 243.072 3.19591 4.3973 0
M  V30 2668 H 246.874 2.07003 2.08631 0
M  V30 2669 H 244.388 1.21307 1.07974 0
M  V30 2670 H 246.385 0.67029 4.11476 0
M  V30 2671 H 245.045 -0.121797 3.24471 0
M  V30 2672 H 246.056 3.53581 3.78419 0
M  V30 2673 H 242.733 0.97001 4.06075 0
M  V30 2674 H 244.123 4.98744 4.50226 0
M  V30 2675 N 246.843 -1.10192 1.12674 0
M  V30 2676 C 248.091 -1.81845 0.881861 0
M  V30 2677 C 248.412 -1.85737 -0.593867 0
M  V30 2678 O 247.682 -1.33724 -1.4316 0
M  V30 2679 H 246.262 -0.673432 0.323261 0
M  V30 2680 H 248.924 -1.33316 1.42172 0
M  V30 2681 H 248.02 -2.85288 1.2656 0
M  V30 2682 N 248.321 -0.919034 -1.28029 0
M  V30 2683 C 249.57 -0.550802 -1.94034 0
M  V30 2684 C 249.883 0.910877 -1.73096 0
M  V30 2685 O 251.089 1.3875 -2.33368 0
M  V30 2686 C 249.545 -0.934249 -3.47563 0
M  V30 2687 C 249.153 -2.41602 -3.7727 0
M  V30 2688 C 250.897 -0.636854 -4.19696 0
M  V30 2689 C 248.804 -2.73932 -5.24133 0
M  V30 2690 H 247.734 -0.202273 -0.726362 0
M  V30 2691 H 250.385 -1.11867 -1.45458 0
M  V30 2692 H 248.767 -0.295115 -3.94899 0
M  V30 2693 H 249.941 -3.10233 -3.40723 0
M  V30 2694 H 248.256 -2.68441 -3.18321 0
M  V30 2695 H 250.853 -0.855005 -5.2782 0
M  V30 2696 H 251.196 0.425575 -4.14119 0
M  V30 2697 H 251.729 -1.23469 -3.78154 0
M  V30 2698 H 248.468 -3.79049 -5.34792 0
M  V30 2699 H 247.988 -2.09942 -5.61858 0
M  V30 2700 H 249.667 -2.61215 -5.91925 0
M  V30 2701 N 249.799 1.42003 -0.683588 0
M  V30 2702 C 251.21 1.84501 -0.285736 0
M  V30 2703 C 251.561 1.57213 1.17382 0
M  V30 2704 O 250.686 1.03642 1.89966 0
M  V30 2705 C 251.281 3.34912 -0.511821 0
M  V30 2706 C 249.84 3.76025 -0.168005 0
M  V30 2707 C 248.987 2.6551 -0.799983 0
M  V30 2708 H 251.938 1.31724 -0.885119 0
M  V30 2709 H 251.959 3.79784 0.233292 0
M  V30 2710 H 251.471 3.54741 -1.57418 0
M  V30 2711 H 249.572 3.61801 0.890567 0
M  V30 2712 H 249.685 4.75141 -0.614661 0
M  V30 2713 H 248.049 2.53654 -0.230568 0
M  V30 2714 H 248.832 2.8816 -1.86597 0
M  V30 2715 N 251.277 0.427512 1.51691 0
M  V30 2716 C 252.526 -0.143679 2.01188 0
M  V30 2717 C 252.839 -1.44642 1.31674 0
M  V30 2718 O 254.045 -2.09997 1.72086 0
M  V30 2719 C 252.501 -0.306602 3.58592 0
M  V30 2720 C 252.109 0.985125 4.37035 0
M  V30 2721 C 253.853 -0.832091 4.16265 0
M  V30 2722 C 251.76 0.788382 5.86122 0
M  V30 2723 H 250.69 -0.0574701 0.751807 0
M  V30 2724 H 253.341 0.555772 1.74881 0
M  V30 2725 H 251.723 -1.06882 3.81303 0
M  V30 2726 H 252.897 1.75492 4.26074 0
M  V30 2727 H 251.212 1.4384 3.90767 0
M  V30 2728 H 253.809 -0.995617 5.25349 0
M  V30 2729 H 254.152 -1.81186 3.74803 0
M  V30 2730 H 254.685 -0.128444 3.97593 0
M  V30 2731 H 251.424 1.74025 6.31978 0
M  V30 2732 H 250.944 0.0582143 5.99772 0
M  V30 2733 H 252.623 0.437722 6.45518 0
M  V30 2734 N 252.755 -1.56801 0.158532 0
M  V30 2735 C 254.166 -1.83189 -0.360366 0
M  V30 2736 C 254.517 -1.07778 -1.63946 0
M  V30 2737 O 253.642 -0.326718 -2.13919 0
M  V30 2738 C 254.237 -3.32297 -0.660595 0
M  V30 2739 C 252.796 -3.59227 -1.12398 0
M  V30 2740 C 251.943 -2.76877 -0.153097 0
M  V30 2741 H 254.894 -1.54008 0.383031 0
M  V30 2742 H 254.915 -3.4908 -1.51405 0
M  V30 2743 H 254.427 -3.87156 0.270527 0
M  V30 2744 H 252.528 -3.09766 -2.07064 0
M  V30 2745 H 252.641 -4.67632 -1.04197 0
M  V30 2746 H 251.005 -2.46319 -0.647983 0
M  V30 2747 H 251.788 -3.34511 0.77182 0
M  V30 2748 N 254.233 0.115231 -1.57178 0
M  V30 2749 C 255.479 0.82357 -1.85325 0
M  V30 2750 C 255.812 1.79349 -0.744814 0
M  V30 2751 O 255.087 1.92899 0.249024 0
M  V30 2752 C 255.37 1.57014 -3.24066 0
M  V30 2753 C 255.223 0.619565 -4.45513 0
M  V30 2754 C 256.542 2.52545 -3.60429 0
M  V30 2755 H 253.661 0.297948 -0.674089 0
M  V30 2756 H 256.303 0.0877138 -1.89797 0
M  V30 2757 H 254.453 2.19742 -3.20383 0
M  V30 2758 H 256.125 0.000837639 -4.613 0
M  V30 2759 H 254.368 -0.0686174 -4.33746 0
M  V30 2760 H 255.039 1.17866 -5.3927 0
M  V30 2761 H 257.515 1.9992 -3.64926 0
M  V30 2762 H 256.391 3.01811 -4.58477 0
M  V30 2763 H 256.652 3.35383 -2.88047 0
M  V30 2764 N 255.711 1.52812 0.385517 0
M  V30 2765 C 256.939 1.71907 1.15133 0
M  V30 2766 C 257.354 0.439004 1.83625 0
M  V30 2767 O 256.711 -0.586765 1.7281 0
M  V30 2768 C 256.762 2.87099 2.19673 0
M  V30 2769 O 256.483 4.10151 1.53973 0
M  V30 2770 C 257.984 3.17902 3.08955 0
M  V30 2771 H 255.204 0.575479 0.345057 0
M  V30 2772 H 257.748 1.99476 0.45052 0
M  V30 2773 H 255.903 2.61982 2.85384 0
M  V30 2774 H 256.317 4.74514 2.23465 0
M  V30 2775 H 257.791 4.01959 3.7833 0
M  V30 2776 H 258.268 2.3243 3.72657 0
M  V30 2777 H 258.874 3.44871 2.48885 0
M  V30 2778 N 257.189 -0.644168 1.43834 0
M  V30 2779 C 258.6 -1.22554 1.40845 0
M  V30 2780 C 258.951 -1.9585 0.117115 0
M  V30 2781 O 258.076 -2.01734 -0.783086 0
M  V30 2782 C 258.671 -2.22907 2.55143 0
M  V30 2783 C 257.23 -2.76501 2.5539 0
M  V30 2784 C 256.377 -1.51287 2.32396 0
M  V30 2785 H 259.328 -0.43563 1.52604 0
M  V30 2786 H 259.349 -3.05259 2.2715 0
M  V30 2787 H 258.861 -1.69533 3.49114 0
M  V30 2788 H 256.962 -3.33914 1.65324 0
M  V30 2789 H 257.075 -3.23429 3.53455 0
M  V30 2790 H 255.439 -1.78957 1.81236 0
M  V30 2791 H 256.222 -0.998336 3.28463 0
M  V30 2792 N 258.668 -1.30515 -0.883378 0
M  V30 2793 C 259.615 -1.17032 -1.98927 0
M  V30 2794 C 260.585 -0.0594241 -1.65994 0
M  V30 2795 O 261.77 -0.229895 -1.8941 0
M  V30 2796 C 258.91 -0.869777 -3.33959 0
M  V30 2797 C 258.023 -2.06271 -3.79574 0
M  V30 2798 C 257.158 -1.70011 -5.03259 0
M  V30 2799 C 256.197 -2.8579 -5.41286 0
M  V30 2800 N 255.334 -2.49816 -6.56153 0
M  V30 2801 H 260.174 -2.1164 -2.09792 0
M  V30 2802 H 257.711 -1.05296 -1.02719 0
M  V30 2803 H 259.669 -0.676138 -4.11685 0
M  V30 2804 H 258.299 0.0394332 -3.22776 0
M  V30 2805 H 257.351 -2.36755 -2.97744 0
M  V30 2806 H 258.663 -2.92971 -4.03694 0
M  V30 2807 H 257.817 -1.47032 -5.88614 0
M  V30 2808 H 256.556 -0.804829 -4.81013 0
M  V30 2809 H 255.561 -3.09434 -4.54456 0
M  V30 2810 H 256.786 -3.76008 -5.65504 0
M  V30 2811 H 254.732 -1.62795 -6.35479 0
M  V30 2812 H 254.649 -3.30048 -6.8015 0
M  V30 2813 H 255.917 -2.30197 -7.44735 0
M  V30 2814 N 260.146 1.09593 -1.13257 0
M  V30 2815 C 261.094 2.18271 -0.803783 0
M  V30 2816 C 262.088 1.68054 0.213148 0
M  V30 2817 O 263.294 1.79862 0.0704699 0
M  V30 2818 H 259.669 0.711949 -0.242143 0
M  V30 2819 H 261.64 2.43235 -1.72856 0
M  V30 2820 C 260.389 3.46536 -0.28424 0
M  V30 2821 H 259.712 3.85545 -1.05807 0
M  V30 2822 H 261.152 4.23899 -0.0925945 0
M  V30 2823 C 259.611 3.22036 0.989684 0
M  V30 2824 O 260.141 3.44509 2.06584 0
M  V30 2825 N 258.347 2.7565 0.920086 0
M  V30 2826 H 257.894 2.57562 0.0442019 0
M  V30 2827 H 257.852 2.59635 1.77306 0
M  V30 2828 N 261.624 0.925811 1.2754 0
M  V30 2829 C 263.035 0.610102 1.7645 0
M  V30 2830 C 263.386 -0.874723 1.75622 0
M  V30 2831 O 262.511 -1.68444 1.35851 0
M  V30 2832 C 263.106 1.10073 3.20421 0
M  V30 2833 C 261.665 0.835723 3.67005 0
M  V30 2834 C 260.812 1.26054 2.46993 0
M  V30 2835 H 263.763 1.10579 1.13833 0
M  V30 2836 H 263.784 0.447557 3.77859 0
M  V30 2837 H 263.296 2.18143 3.20991 0
M  V30 2838 H 261.397 -0.231249 3.71882 0
M  V30 2839 H 261.51 1.45193 4.56569 0
M  V30 2840 H 259.874 0.679111 2.45479 0
M  V30 2841 H 260.657 2.34984 2.50275 0
M  V30 2842 N 263.102 -1.41638 0.69111 0
M  V30 2843 C 264.348 -2.02104 0.229258 0
M  V30 2844 C 264.703 -1.53741 -1.15678 0
M  V30 2845 O 263.996 -0.736849 -1.76865 0
M  V30 2846 C 264.19 -3.56714 0.221277 0
M  V30 2847 C 264.019 -4.20083 1.605 0
M  V30 2848 C 262.789 -4.54566 2.20676 0
M  V30 2849 C 264.987 -4.46587 2.55078 0
M  V30 2850 N 262.969 -5.03199 3.5166 0
M  V30 2851 C 264.34 -4.96946 3.70735 0
M  V30 2852 C 266.395 -4.28593 2.53401 0
M  V30 2853 C 265.098 -5.31203 4.8499 0
M  V30 2854 C 267.124 -4.63936 3.66765 0
M  V30 2855 C 266.486 -5.14463 4.81152 0
M  V30 2856 H 262.585 -0.771256 0.12918 0
M  V30 2857 H 265.169 -1.72251 0.907626 0
M  V30 2858 H 263.34 -3.86051 -0.426562 0
M  V30 2859 H 265.072 -4.03896 -0.254983 0
M  V30 2860 H 261.827 -4.4087 1.73005 0
M  V30 2861 H 262.251 -5.31926 4.18789 0
M  V30 2862 H 266.893 -3.88771 1.66184 0
M  V30 2863 H 264.611 -5.69951 5.72871 0
M  V30 2864 H 268.197 -4.51677 3.66714 0
M  V30 2865 H 267.077 -5.41299 5.67419 0
M  V30 2866 N 264.58 -0.43555 -1.51462 0
M  V30 2867 C 265.805 0.132627 -2.06976 0
M  V30 2868 C 266.23 1.35848 -1.30104 0
M  V30 2869 O 265.588 1.78112 -0.338493 0
M  V30 2870 C 265.636 0.43523 -3.57964 0
M  V30 2871 O 264.74 1.52198 -3.83288 0
M  V30 2872 H 264.081 0.00265 -0.663995 0
M  V30 2873 H 266.611 -0.616369 -1.95095 0
M  V30 2874 H 266.621 0.686206 -4.02188 0
M  V30 2875 H 265.296 -0.460739 -4.1334 0
M  V30 2876 H 263.873 1.2611 -3.50928 0
M  V30 2877 N 266.058 1.56714 -0.166846 0
M  V30 2878 C 266.991 2.13577 0.80375 0
M  V30 2879 C 267.969 1.06464 1.22899 0
M  V30 2880 O 269.153 1.34413 1.32157 0
M  V30 2881 C 266.28 2.67168 2.0818 0
M  V30 2882 C 265.326 3.86612 1.80093 0
M  V30 2883 S 266.159 5.26565 0.97416 0
M  V30 2884 C 267.315 5.83558 2.26297 0
M  V30 2885 H 267.548 2.9557 0.320267 0
M  V30 2886 H 265.081 1.54326 0.0477555 0
M  V30 2887 H 267.039 2.98692 2.8159 0
M  V30 2888 H 265.7 1.85269 2.53642 0
M  V30 2889 H 264.893 4.22422 2.7491 0
M  V30 2890 H 264.495 3.55951 1.14781 0
M  V30 2891 H 266.787 5.962 3.21795 0
M  V30 2892 H 267.73 6.80731 1.94962 0
M  V30 2893 H 268.138 5.11944 2.37853 0
M  V30 2894 N 267.536 -0.106894 1.57237 0
M  V30 2895 C 268.813 -0.843526 1.76477 0
M  V30 2896 C 269.193 -1.97499 0.745464 0
M  V30 2897 O 268.541 -2.27357 -0.228306 0
M  V30 2898 C 268.751 -1.34903 3.21873 0
M  V30 2899 C 270.099 -1.79654 3.8472 0
M  V30 2900 O 271.123 -1.44554 3.2555 0
M  V30 2901 O 269.982 -2.44515 4.88748 0
M  V30 2902 H 267.076 -0.401468 0.723016 0
M  V30 2903 H 269.622 -0.0896927 1.69463 0
M  V30 2904 H 268.394 -0.53781 3.87586 0
M  V30 2905 H 268.017 -2.16522 3.33473 0
M  V30 2906 N 269.014 -1.53014 -0.377408 0
M  V30 2907 C 269.924 -1.81557 -1.48574 0
M  V30 2908 C 270.94 -0.703102 -1.59162 0
M  V30 2909 O 272.116 -0.99192 -1.75279 0
M  V30 2910 C 269.181 -1.9889 -2.83978 0
M  V30 2911 C 268.242 -3.22801 -2.83016 0
M  V30 2912 C 267.475 -3.39298 -4.11962 0
M  V30 2913 O 267.698 -2.60345 -5.0752 0
M  V30 2914 O 266.632 -4.32604 -4.18494 0
M  V30 2915 H 270.458 -2.75695 -1.27382 0
M  V30 2916 H 268.043 -1.38248 -0.566373 0
M  V30 2917 H 269.925 -2.11931 -3.6423 0
M  V30 2918 H 268.6 -1.07942 -3.05172 0
M  V30 2919 H 267.507 -3.15193 -2.01505 0
M  V30 2920 H 268.84 -4.13632 -2.66775 0
M  V30 2921 N 270.492 0.636531 -1.44174 0
M  V30 2922 C 271.44 1.76995 -1.50915 0
M  V30 2923 C 272.434 1.65053 -0.381295 0
M  V30 2924 O 273.64 1.71197 -0.55601 0
M  V30 2925 H 270.015 0.584247 -0.473455 0
M  V30 2926 H 271.986 1.68432 -2.4632 0
M  V30 2927 C 270.735 3.15314 -1.46534 0
M  V30 2928 H 270.058 3.25149 -2.32633 0
M  V30 2929 H 271.498 3.9453 -1.55312 0
M  V30 2930 C 269.957 3.3639 -0.185305 0
M  V30 2931 O 270.487 3.94699 0.746688 0
M  V30 2932 N 268.693 2.9046 -0.0901606 0
M  V30 2933 H 268.24 2.43193 -0.849416 0
M  V30 2934 H 268.198 3.04937 0.765553 0
M  V30 2935 N 271.97 1.30982 0.876444 0
M  V30 2936 C 272.9 1.20668 1.99903 0
M  V30 2937 C 273.881 0.095354 1.69833 0
M  V30 2938 O 275.066 0.27885 1.92188 0
M  V30 2939 C 272.196 0.90655 3.3526 0
M  V30 2940 C 271.15 1.97675 3.79617 0
M  V30 2941 C 270.476 1.52943 5.1236 0
M  V30 2942 C 271.776 3.389 3.97422 0
M  V30 2943 H 273.47 2.14586 2.0879 0
M  V30 2944 H 271.016 1.03308 1.00317 0
M  V30 2945 H 272.969 0.821025 4.13324 0
M  V30 2946 H 271.693 -0.0682969 3.26529 0
M  V30 2947 H 270.352 2.05205 3.03787 0
M  V30 2948 H 270 0.54262 5.00065 0
M  V30 2949 H 269.7 2.24532 5.43009 0
M  V30 2950 H 271.224 1.45786 5.92941 0
M  V30 2951 H 272.638 3.34081 4.659 0
M  V30 2952 H 271.035 4.0865 4.3946 0
M  V30 2953 H 272.105 3.80163 3.01006 0
M  V30 2954 N 273.449 -1.08991 1.13837 0
M  V30 2955 C 274.382 -2.15049 0.763477 0
M  V30 2956 C 275.36 -1.60629 -0.252398 0
M  V30 2957 O 276.544 -1.87958 -0.142853 0
M  V30 2958 C 273.671 -3.38441 0.132545 0
M  V30 2959 C 272.717 -4.11596 1.11763 0
M  V30 2960 S 273.55 -4.6521 2.65216 0
M  V30 2961 C 274.706 -5.91896 2.03495 0
M  V30 2962 H 274.939 -2.46518 1.66182 0
M  V30 2963 H 272.472 -1.21008 0.958976 0
M  V30 2964 H 274.43 -4.09883 -0.225074 0
M  V30 2965 H 273.091 -3.05182 -0.743135 0
M  V30 2966 H 272.284 -5.00121 0.624076 0
M  V30 2967 H 271.886 -3.46038 1.41894 0
M  V30 2968 H 274.178 -6.63156 1.38675 0
M  V30 2969 H 275.121 -6.45938 2.9012 0
M  V30 2970 H 275.529 -5.44625 1.48471 0
M  V30 2971 N 274.927 -0.932562 -1.27047 0
M  V30 2972 C 275.877 -0.406392 -2.24349 0
M  V30 2973 C 276.861 0.492066 -1.53191 0
M  V30 2974 O 278.053 0.328717 -1.73921 0
M  V30 2975 C 275.182 0.335214 -3.41659 0
M  V30 2976 C 274.268 -0.58004 -4.20115 0
M  V30 2977 N 274.659 -1.70203 -4.76303 0
M  V30 2978 C 272.957 -0.383974 -4.44344 0
M  V30 2979 C 273.658 -2.27167 -5.35509 0
M  V30 2980 N 272.634 -1.56068 -5.20715 0
M  V30 2981 H 276.436 -1.26299 -2.65378 0
M  V30 2982 H 273.95 -0.787408 -1.42034 0
M  V30 2983 H 275.947 0.729142 -4.10474 0
M  V30 2984 H 274.607 1.18868 -3.0216 0
M  V30 2985 H 275.618 -2.08433 -4.74106 0
M  V30 2986 H 272.295 0.428436 -4.15296 0
M  V30 2987 H 273.685 -3.21654 -5.89905 0
M  V30 2988 N 276.405 1.4127 -0.698611 0
M  V30 2989 C 277.654 2.00408 -0.227949 0
M  V30 2990 C 277.967 1.55981 1.18023 0
M  V30 2991 O 279.173 2.07699 1.74852 0
M  V30 2992 C 277.629 3.58129 -0.356636 0
M  V30 2993 C 277.237 4.11536 -1.77037 0
M  V30 2994 C 278.981 4.24466 0.0540969 0
M  V30 2995 C 276.888 5.61701 -1.85055 0
M  V30 2996 H 275.818 0.749586 -0.0814657 0
M  V30 2997 H 278.469 1.61713 -0.867249 0
M  V30 2998 H 276.851 3.94442 0.350965 0
M  V30 2999 H 278.025 3.86636 -2.50698 0
M  V30 3000 H 276.34 3.57736 -2.13105 0
M  V30 3001 H 278.937 5.34698 0.0146723 0
M  V30 3002 H 279.28 4.01687 1.09332 0
M  V30 3003 H 279.813 3.93198 -0.603337 0
M  V30 3004 H 276.552 5.89312 -2.8704 0
M  V30 3005 H 276.072 5.88519 -1.15783 0
M  V30 3006 H 277.751 6.26524 -1.61484 0
M  V30 3007 N 277.883 0.443576 1.51229 0
M  V30 3008 C 279.108 -0.121648 2.07043 0
M  V30 3009 C 279.533 -1.35156 1.30823 0
M  V30 3010 O 278.891 -1.7793 0.347934 0
M  V30 3011 C 278.939 -0.41624 3.5819 0
M  V30 3012 O 278.043 -1.50163 3.8409 0
M  V30 3013 H 277.384 0.000871367 0.663999 0
M  V30 3014 H 279.914 0.626706 1.94765 0
M  V30 3015 H 279.924 -0.664867 4.02546 0
M  V30 3016 H 278.599 0.482653 4.1309 0
M  V30 3017 H 277.176 -1.24248 3.51592 0
M  V30 3018 N 279.361 -1.56624 0.175154 0
M  V30 3019 C 280.591 -2.01082 -0.474283 0
M  V30 3020 C 280.999 -1.05447 -1.57091 0
M  V30 3021 O 280.342 -0.0480595 -1.83637 0
M  V30 3022 C 280.404 -3.41963 -1.10911 0
M  V30 3023 C 280.068 -4.56742 -0.153666 0
M  V30 3024 C 281.065 -5.16076 0.629448 0
M  V30 3025 C 278.75 -5.02277 -0.0483776 0
M  V30 3026 C 280.744 -6.19377 1.50501 0
M  V30 3027 C 278.431 -6.05427 0.830768 0
M  V30 3028 C 279.429 -6.63849 1.60605 0
M  V30 3029 O 279.117 -7.64998 2.47049 0
M  V30 3030 H 278.849 -0.664261 -0.125432 0
M  V30 3031 H 281.403 -2.03549 0.275163 0
M  V30 3032 H 279.633 -3.36422 -1.90676 0
M  V30 3033 H 281.322 -3.70352 -1.66114 0
M  V30 3034 H 282.088 -4.81776 0.558297 0
M  V30 3035 H 277.967 -4.56513 -0.641611 0
M  V30 3036 H 281.511 -6.64906 2.1106 0
M  V30 3037 H 277.408 -6.39151 0.903107 0
M  V30 3038 H 278.176 -7.82336 2.40607 0
M  V30 3039 N 280.839 0.0985539 -1.57292 0
M  V30 3040 C 281.749 1.13824 -2.05137 0
M  V30 3041 C 282.765 1.44076 -0.975604 0
M  V30 3042 O 283.941 1.54786 -1.28853 0
M  V30 3043 C 281.006 2.43969 -2.46333 0
M  V30 3044 C 280.067 2.2093 -3.68087 0
M  V30 3045 C 279.3 3.44869 -4.0731 0
M  V30 3046 O 279.523 4.52972 -3.46659 0
M  V30 3047 O 278.457 3.34661 -5.00285 0
M  V30 3048 H 282.283 0.761881 -2.93988 0
M  V30 3049 H 279.868 0.310818 -1.46131 0
M  V30 3050 H 281.75 3.20609 -2.73473 0
M  V30 3051 H 280.425 2.81038 -1.60621 0
M  V30 3052 H 279.332 1.42081 -3.46069 0
M  V30 3053 H 280.665 1.88755 -4.54568 0
M  V30 3054 N 282.317 1.53212 0.369288 0
M  V30 3055 C 283.28 1.7872 1.43498 0
M  V30 3056 C 284.28 0.657554 1.46741 0
M  V30 3057 O 285.47 0.925736 1.47566 0
M  V30 3058 C 282.602 1.90591 2.82645 0
M  V30 3059 H 283.795 2.73894 1.22156 0
M  V30 3060 H 281.348 1.44233 0.602203 0
M  V30 3061 H 282.083 0.974709 3.09306 0
M  V30 3062 H 281.868 2.72751 2.8169 0
M  V30 3063 H 283.358 2.11931 3.59826 0
M  V30 3064 N 283.795 -0.628877 1.44509 0
M  V30 3065 C 285.043 -1.38565 1.4712 0
M  V30 3066 C 285.364 -1.94712 0.105899 0
M  V30 3067 O 284.634 -1.75912 -0.862079 0
M  V30 3068 H 283.214 -0.514333 0.541729 0
M  V30 3069 H 285.876 -0.740018 1.80305 0
M  V30 3070 H 284.972 -2.21583 2.19789 0
M  V30 3071 N 285.273 -1.31445 -0.869486 0
M  V30 3072 C 286.522 -1.20517 -1.61736 0
M  V30 3073 C 286.835 0.235341 -1.94179 0
M  V30 3074 O 288.041 0.466312 -2.67465 0
M  V30 3075 C 286.497 -2.10982 -2.91573 0
M  V30 3076 C 286.105 -3.60032 -2.66611 0
M  V30 3077 C 287.849 -2.08856 -3.69567 0
M  V30 3078 C 285.756 -4.42503 -3.92358 0
M  V30 3079 H 284.686 -0.447493 -0.606849 0
M  V30 3080 H 287.337 -1.56303 -0.96133 0
M  V30 3081 H 285.719 -1.68095 -3.58553 0
M  V30 3082 H 286.893 -4.11167 -2.08035 0
M  V30 3083 H 285.208 -3.64139 -2.0197 0
M  V30 3084 H 287.805 -2.67716 -4.62852 0
M  V30 3085 H 288.148 -1.07582 -4.02159 0
M  V30 3086 H 288.681 -2.49945 -3.09471 0
M  V30 3087 H 285.42 -5.44533 -3.64916 0
M  V30 3088 H 284.94 -3.96125 -4.50383 0
M  V30 3089 H 286.619 -4.54741 -4.60238 0
M  V30 3090 N 286.751 1.08385 -1.14413 0
M  V30 3091 C 287.681 2.17321 -0.854044 0
M  V30 3092 C 288.662 1.69024 0.191049 0
M  V30 3093 O 289.847 1.94141 0.0476779 0
M  V30 3094 C 286.977 3.45719 -0.330983 0
M  V30 3095 C 285.931 4.07409 -1.31155 0
M  V30 3096 C 285.257 5.30762 -0.64778 0
M  V30 3097 C 286.557 4.48665 -2.67388 0
M  V30 3098 H 288.251 2.41845 -1.76498 0
M  V30 3099 H 285.797 1.16233 -0.850051 0
M  V30 3100 H 287.75 4.21241 -0.115645 0
M  V30 3101 H 286.474 3.2075 0.615381 0
M  V30 3102 H 285.133 3.33919 -1.51306 0
M  V30 3103 H 284.781 5.02078 0.304398 0
M  V30 3104 H 284.481 5.72992 -1.30207 0
M  V30 3105 H 286.005 6.08998 -0.441972 0
M  V30 3106 H 287.419 5.15364 -2.51143 0
M  V30 3107 H 285.816 5.01814 -3.29093 0
M  V30 3108 H 286.886 3.60543 -3.24248 0
M  V30 3109 N 288.23 0.939286 1.26551 0
M  V30 3110 C 289.14 0.453432 2.30176 0
M  V30 3111 C 290.156 -0.471649 1.67486 0
M  V30 3112 O 291.332 -0.35164 1.98306 0
M  V30 3113 C 288.397 -0.275326 3.45605 0
M  V30 3114 C 287.458 0.686084 4.23782 0
M  V30 3115 C 286.691 -0.00798994 5.33699 0
M  V30 3116 O 286.914 -1.22528 5.57085 0
M  V30 3117 O 285.848 0.669746 5.98162 0
M  V30 3118 H 289.674 1.31416 2.73795 0
M  V30 3119 H 287.259 0.705095 1.31715 0
M  V30 3120 H 289.141 -0.685911 4.1578 0
M  V30 3121 H 287.816 -1.11147 3.0402 0
M  V30 3122 H 286.723 1.14658 3.56096 0
M  V30 3123 H 288.056 1.48979 4.69112 0
M  V30 3124 N 289.708 -1.40897 0.706093 0
M  V30 3125 C 290.656 -2.32572 0.0361893 0
M  V30 3126 C 291.65 -1.51532 -0.757266 0
M  V30 3127 O 292.856 -1.67396 -0.661703 0
M  V30 3128 H 289.231 -0.751966 -0.00709935 0
M  V30 3129 H 291.202 -2.86733 0.826249 0
M  V30 3130 C 289.951 -3.36418 -0.87854 0
M  V30 3131 H 289.274 -3.98836 -0.277401 0
M  V30 3132 H 290.714 -4.0308 -1.3154 0
M  V30 3133 C 289.173 -2.71141 -1.99961 0
M  V30 3134 O 289.703 -2.56735 -3.0895 0
M  V30 3135 N 287.909 -2.29671 -1.78043 0
M  V30 3136 H 287.456 -2.41588 -0.894042 0
M  V30 3137 H 287.414 -1.86332 -2.53235 0
M  V30 3138 N 291.186 -0.45159 -1.50991 0
M  V30 3139 C 292.597 0.00818571 -1.86698 0
M  V30 3140 C 292.948 1.40661 -1.3678 0
M  V30 3141 O 292.073 2.0391 -0.724546 0
M  V30 3142 C 292.668 0.0216303 -3.38793 0
M  V30 3143 C 291.227 0.425865 -3.73983 0
M  V30 3144 C 290.374 -0.372163 -2.74791 0
M  V30 3145 H 293.325 -0.666785 -1.44013 0
M  V30 3146 H 293.346 0.828078 -3.7138 0
M  V30 3147 H 292.858 -0.996288 -3.75094 0
M  V30 3148 H 290.959 1.44886 -3.43277 0
M  V30 3149 H 291.072 0.140761 -4.78893 0
M  V30 3150 H 289.436 0.171498 -2.54122 0
M  V30 3151 H 290.219 -1.38922 -3.13935 0
M  V30 3152 N 292.664 1.56529 -0.183458 0
M  V30 3153 C 293.611 2.18546 0.742055 0
M  V30 3154 C 294.581 1.12912 1.2182 0
M  V30 3155 O 295.766 1.41115 1.28418 0
M  V30 3156 C 292.906 2.83977 1.96089 0
M  V30 3157 C 292.019 4.04105 1.52719 0
M  V30 3158 C 291.154 4.57427 2.70063 0
M  V30 3159 C 290.193 5.69938 2.23243 0
M  V30 3160 N 289.33 6.17717 3.33722 0
M  V30 3161 H 294.17 2.97284 0.206432 0
M  V30 3162 H 291.707 1.46823 0.0901571 0
M  V30 3163 H 293.665 3.20077 2.67594 0
M  V30 3164 H 292.295 2.07822 2.47002 0
M  V30 3165 H 291.347 3.73745 0.708436 0
M  V30 3166 H 292.659 4.85513 1.1436 0
M  V30 3167 H 291.813 4.95772 3.49708 0
M  V30 3168 H 290.552 3.75101 3.11689 0
M  V30 3169 H 289.557 5.31133 1.42048 0
M  V30 3170 H 290.782 6.54073 1.82661 0
M  V30 3171 H 288.728 5.38317 3.74902 0
M  V30 3172 H 288.645 6.94146 2.99495 0
M  V30 3173 H 289.913 6.60713 4.13616 0
M  V30 3174 N 294.142 -0.090211 1.57342 0
M  V30 3175 C 295.09 -1.12792 2.03422 0
M  V30 3176 C 296.084 -1.41182 0.936166 0
M  V30 3177 O 297.29 -1.40805 1.12133 0
M  V30 3178 H 293.665 -0.380986 0.648347 0
M  V30 3179 H 295.636 -0.71299 2.89757 0
M  V30 3180 C 294.385 -2.43855 2.47851 0
M  V30 3181 H 293.708 -2.22855 3.31927 0
M  V30 3182 H 295.148 -3.14955 2.83865 0
M  V30 3183 C 293.607 -3.08503 1.3538 0
M  V30 3184 O 294.137 -3.95805 0.685641 0
M  V30 3185 N 292.343 -2.68831 1.10355 0
M  V30 3186 H 291.89 -1.97929 1.64869 0
M  V30 3187 H 291.848 -3.12412 0.353031 0
M  V30 3188 N 295.62 -1.53406 -0.361157 0
M  V30 3189 C 296.552 -1.76446 -1.46286 0
M  V30 3190 C 297.565 -0.645322 -1.49464 0
M  V30 3191 O 298.754 -0.921681 -1.52864 0
M  V30 3192 C 295.854 -1.83332 -2.85031 0
M  V30 3193 C 295.027 -3.13033 -3.05498 0
M  V30 3194 C 294.086 -3.11104 -4.24383 0
M  V30 3195 O 293.112 -3.84888 -4.19344 0
M  V30 3196 N 294.314 -2.32234 -5.32022 0
M  V30 3197 H 297.079 -2.71508 -1.26899 0
M  V30 3198 H 294.64 -1.52238 -0.550915 0
M  V30 3199 H 296.632 -1.79514 -3.62708 0
M  V30 3200 H 295.202 -0.955342 -2.97644 0
M  V30 3201 H 294.422 -3.30119 -2.15442 0
M  V30 3202 H 295.71 -3.9874 -3.16044 0
M  V30 3203 H 295.108 -1.71807 -5.38979 0
M  V30 3204 H 293.665 -2.3423 -6.08259 0
M  V30 3205 N 297.098 0.621204 -1.44841 0
M  V30 3206 C 298.061 1.71459 -1.521 0
M  V30 3207 C 299.061 1.55696 -0.401933 0
M  V30 3208 O 300.251 1.61011 -0.664925 0
M  V30 3209 C 297.383 3.10624 -1.40447 0
M  V30 3210 H 298.576 1.66394 -2.49506 0
M  V30 3211 H 296.129 0.835745 -1.3208 0
M  V30 3212 H 296.864 3.21277 -0.441737 0
M  V30 3213 H 296.649 3.23473 -2.21602 0
M  V30 3214 H 298.139 3.90293 -1.4853 0
M  V30 3215 N 298.576 1.31904 0.862503 0
M  V30 3216 C 299.987 1.19803 1.43193 0
M  V30 3217 C 300.338 -0.192567 1.95253 0
M  V30 3218 O 299.463 -1.09081 1.86896 0
M  V30 3219 C 300.058 2.16883 2.60283 0
M  V30 3220 C 298.617 2.08692 3.13248 0
M  V30 3221 C 297.764 2.05691 1.85975 0
M  V30 3222 H 300.715 1.43846 0.670365 0
M  V30 3223 H 300.736 1.76278 3.37204 0
M  V30 3224 H 300.248 3.18083 2.22363 0
M  V30 3225 H 298.349 1.10713 3.55771 0
M  V30 3226 H 298.462 2.9815 3.75025 0
M  V30 3227 H 296.826 1.50814 2.05249 0
M  V30 3228 H 297.609 3.08659 1.50282 0
M  V30 3229 N 300.054 -1.07777 1.14986 0
M  V30 3230 C 301.465 -1.61766 0.932127 0
M  V30 3231 C 301.816 -1.88974 -0.527581 0
M  V30 3232 O 300.941 -1.65198 -1.39781 0
M  V30 3233 C 301.536 -2.93891 1.68563 0
M  V30 3234 C 300.095 -3.44639 1.5133 0
M  V30 3235 C 299.242 -2.18767 1.704 0
M  V30 3236 H 302.193 -0.909201 1.30074 0
M  V30 3237 H 302.214 -3.62623 1.15259 0
M  V30 3238 H 301.726 -2.74057 2.74799 0
M  V30 3239 H 299.827 -3.69564 0.474702 0
M  V30 3240 H 299.94 -4.20966 2.28746 0
M  V30 3241 H 298.304 -2.28253 1.13016 0
M  V30 3242 H 299.087 -2.01433 2.77992 0
M  V30 3243 N 301.532 -0.945985 -1.26051 0
M  V30 3244 C 302.78 -0.594941 -1.93145 0
M  V30 3245 C 303.101 0.86953 -1.7454 0
M  V30 3246 O 302.371 1.61838 -1.10387 0
M  V30 3247 H 300.951 -0.217044 -0.714773 0
M  V30 3248 H 303.613 -1.20235 -1.53393 0
M  V30 3249 H 302.709 -0.816835 -3.01221 0
M  V30 3250 N 303.011 1.40521 -0.713556 0
M  V30 3251 C 303.941 2.33381 -0.0743864 0
M  V30 3252 C 304.922 1.52784 0.747735 0
M  V30 3253 O 306.107 1.81258 0.697071 0
M  V30 3254 C 303.237 3.36748 0.849598 0
M  V30 3255 C 302.191 4.27793 0.133247 0
M  V30 3256 C 301.517 5.21679 1.17281 0
M  V30 3257 C 302.817 5.12415 -1.01134 0
M  V30 3258 H 304.511 2.87081 -0.850007 0
M  V30 3259 H 302.057 1.38034 -0.410201 0
M  V30 3260 H 304.01 4.00648 1.30612 0
M  V30 3261 H 302.734 2.81439 1.65709 0
M  V30 3262 H 301.393 3.65342 -0.303426 0
M  V30 3263 H 301.041 4.62677 1.9733 0
M  V30 3264 H 300.741 5.83435 0.698397 0
M  V30 3265 H 302.265 5.88456 1.62947 0
M  V30 3266 H 303.679 5.69781 -0.634274 0
M  V30 3267 H 302.076 5.83203 -1.41399 0
M  V30 3268 H 303.146 4.48514 -1.84292 0
M  V30 3269 N 304.489 0.459591 1.5075 0
M  V30 3270 C 305.719 -0.0972338 2.06371 0
M  V30 3271 C 306.127 -1.35074 1.32483 0
M  V30 3272 O 305.47 -1.79637 0.384226 0
M  V30 3273 C 305.532 -0.462759 3.56509 0
M  V30 3274 C 305.196 0.687084 4.51805 0
M  V30 3275 C 306.193 1.56578 4.95761 0
M  V30 3276 C 303.878 0.874144 4.94635 0
M  V30 3277 C 305.872 2.61604 5.81242 0
M  V30 3278 C 303.559 1.92765 5.79901 0
M  V30 3279 C 304.557 2.79697 6.23104 0
M  V30 3280 O 304.245 3.83235 7.06673 0
M  V30 3281 H 303.977 -0.00140687 0.675999 0
M  V30 3282 H 306.531 0.644011 1.95043 0
M  V30 3283 H 304.761 -1.25703 3.65699 0
M  V30 3284 H 306.45 -0.953323 3.94546 0
M  V30 3285 H 307.216 1.4329 4.6335 0
M  V30 3286 H 303.095 0.207006 4.60535 0
M  V30 3287 H 306.639 3.29489 6.14884 0
M  V30 3288 H 302.536 2.06064 6.11725 0
M  V30 3289 H 303.304 3.80084 7.24899 0
M  V30 3290 N 305.967 -1.56429 0.191757 0
M  V30 3291 C 307.195 -2.01867 -0.453586 0
M  V30 3292 C 307.61 -1.07191 -1.5542 0
M  V30 3293 O 306.967 -0.0762108 -1.82341 0
M  V30 3294 C 307.018 -3.47017 -1.013 0
M  V30 3295 O 306.739 -4.38078 0.0437005 0
M  V30 3296 C 308.24 -4.07956 -1.73456 0
M  V30 3297 H 305.46 -0.661211 -0.114199 0
M  V30 3298 H 308.004 -2.02295 0.299483 0
M  V30 3299 H 306.159 -3.47298 -1.71647 0
M  V30 3300 H 306.573 -5.23178 -0.372212 0
M  V30 3301 H 308.047 -5.1138 -2.07833 0
M  V30 3302 H 308.524 -3.51222 -2.63704 0
M  V30 3303 H 309.13 -4.11437 -1.07702 0
M  V30 3304 N 307.445 0.0818655 -1.57387 0
M  V30 3305 C 308.392 1.09834 -2.0299 0
M  V30 3306 C 309.362 1.39043 -0.908639 0
M  V30 3307 O 310.547 1.50282 -1.17559 0
M  V30 3308 C 307.687 2.40971 -2.47037 0
M  V30 3309 C 306.8 2.18379 -3.7274 0
M  V30 3310 C 305.935 3.43008 -4.0561 0
M  V30 3311 C 304.974 3.15736 -5.24383 0
M  V30 3312 N 304.111 4.32667 -5.52941 0
M  V30 3313 H 308.951 0.702472 -2.89602 0
M  V30 3314 H 306.488 0.33531 -1.43227 0
M  V30 3315 H 308.446 3.1752 -2.70623 0
M  V30 3316 H 307.076 2.78379 -1.63417 0
M  V30 3317 H 306.128 1.32569 -3.56552 0
M  V30 3318 H 307.44 1.94227 -4.59431 0
M  V30 3319 H 306.594 4.27958 -4.30043 0
M  V30 3320 H 305.333 3.70225 -3.17466 0
M  V30 3321 H 304.338 2.2918 -4.99757 0
M  V30 3322 H 305.563 2.8985 -6.14136 0
M  V30 3323 H 303.509 4.59935 -4.67756 0
M  V30 3324 H 303.426 4.11753 -6.34031 0
M  V30 3325 H 304.694 5.18644 -5.81918 0
M  V30 3326 N 308.923 1.53595 0.353017 0
M  V30 3327 C 310.151 1.74311 1.1146 0
M  V30 3328 C 310.566 0.477854 1.82653 0
M  V30 3329 O 309.923 -0.549977 1.74016 0
M  V30 3330 C 309.974 2.91694 2.13534 0
M  V30 3331 O 309.695 4.13325 1.45238 0
M  V30 3332 C 311.196 3.24384 3.02142 0
M  V30 3333 H 308.416 0.582669 0.332773 0
M  V30 3334 H 310.96 2.00386 0.408107 0
M  V30 3335 H 309.115 2.67977 2.79763 0
M  V30 3336 H 309.529 4.79148 2.13349 0
M  V30 3337 H 311.003 4.09893 3.69718 0
M  V30 3338 H 311.48 2.40282 3.67643 0
M  V30 3339 H 312.086 3.50073 2.41514 0
M  V30 3340 N 310.401 -0.613514 1.45168 0
M  V30 3341 C 311.333 -1.73825 1.4939 0
M  V30 3342 C 312.346 -1.58175 0.385304 0
M  V30 3343 O 313.535 -1.66165 0.652036 0
M  V30 3344 C 310.635 -3.11758 1.32891 0
M  V30 3345 C 309.808 -3.53704 2.57317 0
M  V30 3346 C 308.867 -4.70579 2.35462 0
M  V30 3347 O 307.893 -4.77996 3.09044 0
M  V30 3348 N 309.095 -5.63454 1.39644 0
M  V30 3349 H 311.86 -1.70669 2.46358 0
M  V30 3350 H 309.421 -0.79862 1.40832 0
M  V30 3351 H 311.413 -3.87692 1.1609 0
M  V30 3352 H 309.983 -3.09456 0.442218 0
M  V30 3353 H 309.203 -2.67794 2.89275 0
M  V30 3354 H 310.491 -3.78486 3.40038 0
M  V30 3355 H 309.889 -5.6017 0.789062 0
M  V30 3356 H 308.446 -6.38944 1.28816 0
M  V30 3357 N 311.879 -1.3236 -0.855495 0
M  V30 3358 C 313.156 -1.13491 -1.59309 0
M  V30 3359 C 313.536 0.30503 -2.08885 0
M  V30 3360 O 312.884 1.30151 -1.87811 0
M  V30 3361 C 313.094 -2.16176 -2.73987 0
M  V30 3362 C 314.442 -2.49463 -3.43589 0
M  V30 3363 O 315.466 -2.14715 -2.84211 0
M  V30 3364 O 314.325 -3.09027 -4.50738 0
M  V30 3365 H 311.419 -0.437887 -0.701559 0
M  V30 3366 H 313.965 -1.43887 -0.899696 0
M  V30 3367 H 312.737 -3.1297 -2.34873 0
M  V30 3368 H 312.36 -1.86769 -3.51003 0
M  V30 3369 N 313.357 1.07166 -1.15556 0
M  V30 3370 C 314.768 1.6127 -0.940693 0
M  V30 3371 C 315.119 1.89251 0.517551 0
M  V30 3372 O 314.244 1.65937 1.38903 0
M  V30 3373 C 314.839 2.92993 -1.7012 0
M  V30 3374 C 313.398 3.43832 -1.53156 0
M  V30 3375 C 312.545 2.1786 -1.71558 0
M  V30 3376 H 315.496 0.90229 -1.30554 0
M  V30 3377 H 315.517 3.62007 -1.17181 0
M  V30 3378 H 315.029 2.72596 -2.76248 0
M  V30 3379 H 313.13 3.69307 -0.494294 0
M  V30 3380 H 313.243 4.19747 -2.30975 0
M  V30 3381 H 311.607 2.2765 -1.14225 0
M  V30 3382 H 312.39 1.99956 -2.79056 0
M  V30 3383 N 314.835 0.952656 1.25548 0
M  V30 3384 C 315.798 0.475794 2.24207 0
M  V30 3385 C 316.798 -0.419428 1.55234 0
M  V30 3386 O 317.988 -0.216994 1.72843 0
M  V30 3387 C 315.12 -0.312814 3.39462 0
M  V30 3388 H 316.313 1.34779 2.67908 0
M  V30 3389 H 313.866 0.735739 1.37901 0
M  V30 3390 H 314.601 -1.20257 3.01179 0
M  V30 3391 H 314.386 0.329404 3.90714 0
M  V30 3392 H 315.876 -0.635986 4.12729 0
M  V30 3393 N 316.313 -1.40141 0.720998 0
M  V30 3394 C 317.26 -2.30688 0.071919 0
M  V30 3395 C 318.23 -1.48476 -0.744584 0
M  V30 3396 O 319.415 -1.77201 -0.707423 0
M  V30 3397 C 316.555 -3.34724 -0.839855 0
M  V30 3398 C 315.668 -4.31998 -0.0122438 0
M  V30 3399 C 314.803 -5.23102 -0.923995 0
M  V30 3400 C 313.842 -6.12033 -0.0907969 0
M  V30 3401 N 312.979 -6.95537 -0.957718 0
M  V30 3402 H 317.819 -2.85628 0.849755 0
M  V30 3403 H 315.356 -1.40653 0.430726 0
M  V30 3404 H 317.314 -3.93618 -1.38279 0
M  V30 3405 H 315.944 -2.81274 -1.58381 0
M  V30 3406 H 314.996 -3.74841 0.64794 0
M  V30 3407 H 316.308 -4.94772 0.632595 0
M  V30 3408 H 315.462 -5.86953 -1.53527 0
M  V30 3409 H 314.201 -4.60615 -1.60264 0
M  V30 3410 H 313.206 -5.47207 0.533377 0
M  V30 3411 H 314.431 -6.76581 0.584428 0
M  V30 3412 H 312.377 -6.35633 -1.62192 0
M  V30 3413 H 312.294 -7.55099 -0.36904 0
M  V30 3414 H 313.562 -7.63832 -1.555 0
M  V30 3415 N 317.792 -0.46758 -1.50504 0
M  V30 3416 C 318.755 0.317059 -2.26996 0
M  V30 3417 C 319.755 0.923513 -1.31635 0
M  V30 3418 O 320.945 0.793239 -1.55091 0
M  V30 3419 C 318.077 1.45134 -3.08462 0
M  V30 3420 H 319.27 -0.353723 -2.97807 0
M  V30 3421 H 316.823 -0.221545 -1.54722 0
M  V30 3422 H 317.558 2.15728 -2.4214 0
M  V30 3423 H 317.343 1.02232 -3.78538 0
M  V30 3424 H 318.833 2.00493 -3.66323 0
M  V30 3425 N 319.27 1.56325 -0.20005 0
M  V30 3426 C 320.681 1.8408 0.31167 0
M  V30 3427 C 321.032 1.12087 1.61031 0
M  V30 3428 O 320.157 0.38332 2.12978 0
M  V30 3429 C 320.752 3.33932 0.57226 0
M  V30 3430 C 319.311 3.6208 1.02834 0
M  V30 3431 C 318.458 2.77186 0.079634 0
M  V30 3432 H 321.409 1.52939 -0.423729 0
M  V30 3433 H 321.43 3.52971 1.42096 0
M  V30 3434 H 320.942 3.86303 -0.37308 0
M  V30 3435 H 319.043 3.15147 1.98778 0
M  V30 3436 H 319.156 4.7023 0.917624 0
M  V30 3437 H 317.52 2.47951 0.582448 0
M  V30 3438 H 318.303 3.32347 -0.860238 0
M  V30 3439 N 320.748 -0.0735177 1.57428 0
M  V30 3440 C 321.696 -1.10628 2.04607 0
M  V30 3441 C 322.69 -1.40181 0.951088 0
M  V30 3442 O 323.896 -1.39608 1.1362 0
M  V30 3443 H 320.271 -0.374088 0.652351 0
M  V30 3444 H 322.242 -0.682218 2.90497 0
M  V30 3445 C 320.991 -2.41212 2.50423 0
M  V30 3446 H 320.314 -2.19322 3.34272 0
M  V30 3447 H 321.754 -3.11927 2.87189 0
M  V30 3448 C 320.213 -3.0705 1.38644 0
M  V30 3449 O 320.743 -3.95056 0.727582 0
M  V30 3450 N 318.949 -2.67645 1.132 0
M  V30 3451 H 318.496 -1.96169 1.66959 0
M  V30 3452 H 318.454 -3.1202 0.386147 0
M  V30 3453 N 322.226 -1.5378 -0.344866 0
M  V30 3454 C 323.454 -1.74899 -1.10534 0
M  V30 3455 C 323.869 -0.487534 -1.82397 0
M  V30 3456 O 323.226 0.540741 -1.74305 0
M  V30 3457 C 323.277 -2.92822 -2.11984 0
M  V30 3458 O 322.998 -4.14089 -1.43044 0
M  V30 3459 C 324.499 -3.25982 -3.00417 0
M  V30 3460 H 321.719 -0.584426 -0.329678 0
M  V30 3461 H 324.263 -2.006 -0.397474 0
M  V30 3462 H 322.418 -2.69457 -2.78338 0
M  V30 3463 H 322.832 -4.80272 -2.10805 0
M  V30 3464 H 324.306 -4.11848 -3.67539 0
M  V30 3465 H 324.783 -2.42228 -3.66363 0
M  V30 3466 H 325.389 -3.51349 -2.39654 0
M  V30 3467 N 323.704 0.605807 -1.45491 0
M  V30 3468 C 325.115 1.18777 -1.44045 0
M  V30 3469 C 325.466 1.95471 -0.169001 0
M  V30 3470 O 324.591 2.0374 0.729324 0
M  V30 3471 C 325.186 2.16064 -2.60963 0
M  V30 3472 C 323.745 2.69633 -2.62631 0
M  V30 3473 C 322.892 1.45072 -2.36325 0
M  V30 3474 H 325.843 0.395017 -1.53705 0
M  V30 3475 H 325.864 2.9913 -2.35163 0
M  V30 3476 H 325.376 1.60217 -3.53486 0
M  V30 3477 H 323.477 3.29414 -1.74119 0
M  V30 3478 H 323.59 3.13944 -3.61906 0
M  V30 3479 H 321.954 1.74089 -1.85917 0
M  V30 3480 H 322.737 0.910899 -3.30995 0
M  V30 3481 N 325.182 1.32811 0.848464 0
M  V30 3482 C 326.459 1.14334 1.58704 0
M  V30 3483 C 326.839 -0.293948 2.09043 0
M  V30 3484 O 326.187 -1.29153 1.88499 0
M  V30 3485 C 326.397 2.17626 2.72837 0
M  V30 3486 C 327.745 2.51282 3.42261 0
M  V30 3487 O 328.769 2.16219 2.83068 0
M  V30 3488 O 327.628 3.11413 4.49093 0
M  V30 3489 H 324.722 0.441601 0.699226 0
M  V30 3490 H 327.268 1.44362 0.892053 0
M  V30 3491 H 326.04 3.14211 2.3321 0
M  V30 3492 H 325.663 1.88628 3.50008 0
M  V30 3493 N 326.66 -1.06551 1.16123 0
M  V30 3494 C 327.909 -1.78687 0.935622 0
M  V30 3495 C 328.222 -1.88056 -0.538001 0
M  V30 3496 O 329.428 -2.56794 -0.88143 0
M  V30 3497 C 327.884 -3.21143 1.62466 0
M  V30 3498 C 327.492 -3.19949 3.13587 0
M  V30 3499 C 329.236 -3.9783 1.48092 0
M  V30 3500 C 327.143 -4.57108 3.75241 0
M  V30 3501 H 326.073 -0.669712 0.346412 0
M  V30 3502 H 328.724 -1.19534 1.39226 0
M  V30 3503 H 327.106 -3.80539 1.09572 0
M  V30 3504 H 328.28 -2.70151 3.73303 0
M  V30 3505 H 326.595 -2.5676 3.27816 0
M  V30 3506 H 329.192 -4.99217 1.91538 0
M  V30 3507 H 329.535 -4.14078 0.429507 0
M  V30 3508 H 330.068 -3.4495 1.98127 0
M  V30 3509 H 326.807 -4.46065 4.80319 0
M  V30 3510 H 326.327 -5.07111 3.20309 0
M  V30 3511 H 328.006 -5.26069 3.76644 0
M  V30 3512 N 328.138 -0.959301 -1.25041 0
M  V30 3513 C 329.068 -0.501388 -2.28053 0
M  V30 3514 C 330.049 0.454673 -1.63911 0
M  V30 3515 O 331.234 0.352618 -1.90972 0
M  V30 3516 C 328.364 0.217224 -3.4662 0
M  V30 3517 C 327.318 -0.654034 -4.22973 0
M  V30 3518 C 326.644 0.195589 -5.34342 0
M  V30 3519 C 327.944 -1.93447 -4.85155 0
M  V30 3520 H 329.638 -1.36238 -2.66608 0
M  V30 3521 H 327.184 -0.656534 -1.28163 0
M  V30 3522 H 329.137 0.548732 -4.17812 0
M  V30 3523 H 327.861 1.1125 -3.07068 0
M  V30 3524 H 326.52 -0.968693 -3.5357 0
M  V30 3525 H 326.168 1.09076 -4.91031 0
M  V30 3526 H 325.868 -0.384091 -5.86343 0
M  V30 3527 H 327.392 0.521958 -6.08365 0
M  V30 3528 H 328.806 -1.66908 -5.48466 0
M  V30 3529 H 327.203 -2.46018 -5.47353 0
M  V30 3530 H 328.273 -2.63466 -4.07079 0
M  V30 3531 N 329.616 1.39756 -0.72842 0
M  V30 3532 C 330.526 2.34444 -0.0855374 0
M  V30 3533 C 331.542 1.57976 0.729356 0
M  V30 3534 O 332.718 1.90301 0.659346 0
M  V30 3535 C 329.783 3.36965 0.815798 0
M  V30 3536 C 328.844 4.29299 -0.0105996 0
M  V30 3537 C 328.077 5.26923 0.84781 0
M  V30 3538 O 328.3 5.30859 2.08673 0
M  V30 3539 O 327.234 6.01249 0.279969 0
M  V30 3540 H 331.06 2.91065 -0.866892 0
M  V30 3541 H 328.645 1.4117 -0.48902 0
M  V30 3542 H 330.527 3.99804 1.33171 0
M  V30 3543 H 329.202 2.82739 1.57608 0
M  V30 3544 H 328.109 3.69703 -0.571877 0
M  V30 3545 H 329.442 4.86712 -0.73295 0
M  V30 3546 N 331.094 0.475555 1.50254 0
M  V30 3547 C 332.343 -0.0795996 2.01543 0
M  V30 3548 C 332.656 -1.4038 1.36209 0
M  V30 3549 O 333.862 -2.04415 1.7868 0
M  V30 3550 C 332.318 -0.192363 3.59386 0
M  V30 3551 C 331.926 1.12367 4.33679 0
M  V30 3552 C 333.67 -0.699238 4.18701 0
M  V30 3553 C 331.577 0.974453 5.83317 0
M  V30 3554 H 330.507 -0.0335228 0.753254 0
M  V30 3555 H 333.158 0.611128 1.73025 0
M  V30 3556 H 331.54 -0.946974 3.84511 0
M  V30 3557 H 332.714 1.88958 4.20276 0
M  V30 3558 H 331.029 1.562 3.85993 0
M  V30 3559 H 333.626 -0.827978 5.28251 0
M  V30 3560 H 333.969 -1.69171 3.80377 0
M  V30 3561 H 334.502 -0.00188807 3.978 0
M  V30 3562 H 331.241 1.94042 6.26121 0
M  V30 3563 H 330.761 0.248998 5.99283 0
M  V30 3564 H 332.44 0.642867 6.43798 0
M  V30 3565 N 332.573 -1.56217 0.208337 0
M  V30 3566 C 333.483 -2.23316 -0.718836 0
M  V30 3567 C 334.499 -1.23648 -1.22422 0
M  V30 3568 O 335.675 -1.56423 -1.26861 0
M  V30 3569 C 332.74 -2.88968 -1.91568 0
M  V30 3570 C 331.801 -4.03943 -1.45357 0
M  V30 3571 C 331.034 -4.66455 -2.59337 0
M  V30 3572 O 331.257 -4.27919 -3.77149 0
M  V30 3573 O 330.191 -5.55686 -2.31293 0
M  V30 3574 H 334.017 -3.03182 -0.177315 0
M  V30 3575 H 331.602 -1.49384 -0.0215402 0
M  V30 3576 H 333.484 -3.30455 -2.61491 0
M  V30 3577 H 332.159 -2.12071 -2.44556 0
M  V30 3578 H 331.066 -3.67052 -0.722746 0
M  V30 3579 H 332.399 -4.82543 -0.970219 0
M  V30 3580 N 334.051 0.0651679 -1.57465 0
M  V30 3581 C 335.298 0.763063 -1.87573 0
M  V30 3582 C 335.626 1.77242 -0.800961 0
M  V30 3583 O 334.881 1.94651 0.202316 0
M  V30 3584 C 335.18 1.50081 -3.24362 0
M  V30 3585 C 334.846 0.630816 -4.46466 0
M  V30 3586 C 333.508 0.391082 -4.79608 0
M  V30 3587 C 335.86 0.0279465 -5.21193 0
M  V30 3588 C 333.188 -0.460894 -5.84887 0
M  V30 3589 C 335.54 -0.811522 -6.27373 0
M  V30 3590 C 334.204 -1.06106 -6.59013 0
M  V30 3591 H 333.474 0.279224 -0.686378 0
M  V30 3592 H 336.121 0.0236726 -1.91485 0
M  V30 3593 H 334.426 2.31258 -3.16271 0
M  V30 3594 H 336.123 2.04571 -3.44894 0
M  V30 3595 H 332.713 0.8278 -4.2053 0
M  V30 3596 H 336.897 0.200262 -4.95896 0
M  V30 3597 H 332.153 -0.662907 -6.07796 0
M  V30 3598 H 336.327 -1.28537 -6.84435 0
M  V30 3599 H 333.954 -1.723 -7.40417 0
M  V30 3600 N 335.529 1.53961 0.336706 0
M  V30 3601 C 336.476 1.82428 1.41381 0
M  V30 3602 C 337.446 0.670444 1.51968 0
M  V30 3603 O 338.631 0.915565 1.67398 0
M  V30 3604 C 335.771 2.04564 2.77934 0
M  V30 3605 C 334.884 3.32267 2.76084 0
M  V30 3606 C 334.019 3.44434 4.04399 0
M  V30 3607 C 333.058 4.66061 3.96804 0
M  V30 3608 N 332.195 4.75224 5.16823 0
M  V30 3609 H 337.035 2.74324 1.16405 0
M  V30 3610 H 334.572 1.35869 0.563752 0
M  V30 3611 H 336.53 2.15388 3.57301 0
M  V30 3612 H 335.16 1.15974 3.01247 0
M  V30 3613 H 334.212 3.3025 1.88784 0
M  V30 3614 H 335.524 4.21733 2.66351 0
M  V30 3615 H 334.678 3.54728 4.92192 0
M  V30 3616 H 333.417 2.53037 4.16921 0
M  V30 3617 H 332.422 4.55838 3.07396 0
M  V30 3618 H 333.647 5.58829 3.85858 0
M  V30 3619 H 331.593 3.86739 5.29876 0
M  V30 3620 H 331.51 5.58636 5.09374 0
M  V30 3621 H 332.778 4.89835 6.06367 0
M  V30 3622 N 337.007 -0.598083 1.45811 0
M  V30 3623 C 337.954 -1.7082 1.55207 0
M  V30 3624 C 338.924 -1.61278 0.39732 0
M  V30 3625 O 340.109 -1.80717 0.612038 0
M  V30 3626 C 337.249 -3.09144 1.53376 0
M  V30 3627 C 336.362 -3.29423 2.79472 0
M  V30 3628 C 335.497 -4.57907 2.69248 0
M  V30 3629 C 334.536 -4.71476 3.90354 0
M  V30 3630 N 333.673 -5.9127 3.78608 0
M  V30 3631 H 338.513 -1.62125 2.50039 0
M  V30 3632 H 336.05 -0.790389 1.24062 0
M  V30 3633 H 338.008 -3.89186 1.50301 0
M  V30 3634 H 336.638 -3.16773 0.620876 0
M  V30 3635 H 335.69 -2.43091 2.92594 0
M  V30 3636 H 337.002 -3.3532 3.69272 0
M  V30 3637 H 336.156 -5.46157 2.64192 0
M  V30 3638 H 334.895 -4.54423 1.77063 0
M  V30 3639 H 333.9 -3.81648 3.95759 0
M  V30 3640 H 335.125 -4.76751 4.83617 0
M  V30 3641 H 333.071 -5.88813 2.89199 0
M  V30 3642 H 332.988 -5.98369 4.6205 0
M  V30 3643 H 334.256 -6.81992 3.77501 0
M  V30 3644 N 338.485 -1.33259 -0.841409 0
M  V30 3645 C 339.733 -1.24326 -1.59334 0
M  V30 3646 C 340.054 0.191564 -1.94057 0
M  V30 3647 O 339.324 1.11967 -1.60749 0
M  V30 3648 H 337.904 -0.457174 -0.590763 0
M  V30 3649 H 340.566 -1.66947 -1.00571 0
M  V30 3650 H 339.662 -1.8352 -2.52442 0
M  V30 3651 N 339.963 1.05934 -1.16686 0
M  V30 3652 C 341.209 1.79065 -0.95203 0
M  V30 3653 C 341.542 1.87147 0.518629 0
M  V30 3654 O 340.817 1.36574 1.38484 0
M  V30 3655 C 341.1 3.23359 -1.58464 0
M  V30 3656 C 340.953 3.23336 -3.12689 0
M  V30 3657 C 342.272 4.21004 -1.28232 0
M  V30 3658 H 339.391 0.65005 -0.34728 0
M  V30 3659 H 342.033 1.23868 -1.44072 0
M  V30 3660 H 340.183 3.70493 -1.16908 0
M  V30 3661 H 341.855 2.84336 -3.6325 0
M  V30 3662 H 340.098 2.61886 -3.4583 0
M  V30 3663 H 340.769 4.25144 -3.52075 0
M  V30 3664 H 343.245 3.8233 -1.64203 0
M  V30 3665 H 342.121 5.20225 -1.75092 0
M  V30 3666 H 342.382 4.41639 -0.201791 0
M  V30 3667 N 341.441 0.965919 1.2453 0
M  V30 3668 C 342.852 0.665929 1.7442 0
M  V30 3669 C 343.203 -0.818407 1.78316 0
M  V30 3670 O 342.328 -1.64037 1.41141 0
M  V30 3671 C 342.923 1.20211 3.16757 0
M  V30 3672 C 341.482 0.952059 3.6416 0
M  V30 3673 C 340.629 1.33848 2.42858 0
M  V30 3674 H 343.58 1.14144 1.10258 0
M  V30 3675 H 343.601 0.567544 3.76244 0
M  V30 3676 H 343.113 2.28244 3.13889 0
M  V30 3677 H 341.214 -0.112821 3.72429 0
M  V30 3678 H 341.327 1.59645 4.51719 0
M  V30 3679 H 339.691 0.756864 2.43195 0
M  V30 3680 H 340.474 2.42827 2.42673 0
M  V30 3681 N 342.919 -1.39368 0.735821 0
M  V30 3682 C 344.165 -2.00794 0.284544 0
M  V30 3683 C 344.498 -1.58255 -1.12557 0
M  V30 3684 O 343.773 -0.811819 -1.76748 0
M  V30 3685 C 344.056 -3.58011 0.387337 0
M  V30 3686 C 343.909 -4.10566 1.83728 0
M  V30 3687 C 345.228 -4.395 -0.22975 0
M  V30 3688 H 342.347 -0.729501 0.104866 0
M  V30 3689 H 344.989 -1.65564 0.93213 0
M  V30 3690 H 343.139 -3.88154 -0.164006 0
M  V30 3691 H 344.811 -3.91139 2.44556 0
M  V30 3692 H 343.054 -3.64095 2.35833 0
M  V30 3693 H 343.725 -5.19702 1.86047 0
M  V30 3694 H 346.201 -4.15406 0.240257 0
M  V30 3695 H 345.077 -5.48752 -0.127485 0
M  V30 3696 H 345.338 -4.22062 -1.3159 0
M  V30 3697 N 344.397 -0.483516 -1.5 0
M  V30 3698 C 345.344 0.304164 -2.28787 0
M  V30 3699 C 346.314 0.976114 -1.34392 0
M  V30 3700 O 347.499 0.986156 -1.63339 0
M  V30 3701 C 344.639 1.37298 -3.16612 0
M  V30 3702 C 343.752 0.714561 -4.26049 0
M  V30 3703 C 342.887 1.76232 -5.01114 0
M  V30 3704 C 341.926 1.08483 -6.0241 0
M  V30 3705 N 341.063 2.076 -6.70706 0
M  V30 3706 H 345.903 -0.373981 -2.95644 0
M  V30 3707 H 343.44 -0.196275 -1.45785 0
M  V30 3708 H 345.398 2.00445 -3.65893 0
M  V30 3709 H 344.028 2.02012 -2.51776 0
M  V30 3710 H 343.08 -0.0297798 -3.80388 0
M  V30 3711 H 344.392 0.180383 -4.98474 0
M  V30 3712 H 343.546 2.46929 -5.54176 0
M  V30 3713 H 342.285 2.33033 -4.28424 0
M  V30 3714 H 341.29 0.363545 -5.48597 0
M  V30 3715 H 342.515 0.523551 -6.77079 0
M  V30 3716 H 340.461 2.63394 -6.00799 0
M  V30 3717 H 340.378 1.59201 -7.39047 0
M  V30 3718 H 341.646 2.77639 -7.2838 0
M  V30 3719 N 345.875 1.56104 -0.216619 0
M  V30 3720 C 347.121 1.98466 0.417033 0
M  V30 3721 C 347.454 1.10403 1.59765 0
M  V30 3722 O 346.729 0.160632 1.93836 0
M  V30 3723 C 347.012 3.49769 0.85637 0
M  V30 3724 C 346.865 4.48606 -0.327546 0
M  V30 3725 C 348.184 4.05339 1.7143 0
M  V30 3726 H 345.303 0.721551 0.150112 0
M  V30 3727 H 347.945 1.87423 -0.311864 0
M  V30 3728 H 346.095 3.5931 1.47745 0
M  V30 3729 H 347.767 4.5108 -0.965618 0
M  V30 3730 H 346.01 4.22682 -0.975805 0
M  V30 3731 H 346.681 5.51995 0.0227149 0
M  V30 3732 H 349.157 3.98712 1.19031 0
M  V30 3733 H 348.033 5.11533 1.99061 0
M  V30 3734 H 348.294 3.51918 2.67593 0
M  V30 3735 N 347.353 -0.0568162 1.57498 0
M  V30 3736 C 348.581 -0.765626 1.92213 0
M  V30 3737 C 348.996 -1.70353 0.813961 0
M  V30 3738 O 348.353 -1.81268 -0.211701 0
M  V30 3739 C 348.404 -1.5465 3.2675 0
M  V30 3740 O 348.125 -0.646278 4.33307 0
M  V30 3741 C 349.626 -2.35497 3.75574 0
M  V30 3742 H 346.846 -0.216835 0.634999 0
M  V30 3743 H 349.39 -0.0226146 2.04487 0
M  V30 3744 H 347.545 -2.24165 3.15957 0
M  V30 3745 H 347.959 -1.19093 5.108 0
M  V30 3746 H 349.433 -2.85722 4.72299 0
M  V30 3747 H 349.91 -3.15692 3.05344 0
M  V30 3748 H 350.516 -1.7111 3.8936 0
M  V30 3749 N 348.832 -1.54138 -0.328536 0
M  V30 3750 C 349.78 -1.83894 -1.42428 0
M  V30 3751 C 350.774 -0.710478 -1.53781 0
M  V30 3752 O 351.98 -0.894062 -1.56226 0
M  V30 3753 H 348.355 -0.582837 -0.475189 0
M  V30 3754 H 350.326 -2.75537 -1.14552 0
M  V30 3755 C 349.075 -2.07866 -2.78724 0
M  V30 3756 H 348.398 -2.94158 -2.7076 0
M  V30 3757 H 349.838 -2.32644 -3.54476 0
M  V30 3758 C 348.297 -0.868689 -3.25508 0
M  V30 3759 O 348.827 -0.0754908 -4.01629 0
M  V30 3760 N 347.033 -0.681711 -2.82491 0
M  V30 3761 H 346.58 -1.32838 -2.20708 0
M  V30 3762 H 346.538 0.126374 -3.14146 0
M  V30 3763 N 350.31 0.590341 -1.46126 0
M  V30 3764 C 351.556 1.35082 -1.51264 0
M  V30 3765 C 351.889 1.93534 -0.160711 0
M  V30 3766 O 351.164 1.76045 0.826956 0
M  V30 3767 C 351.447 2.48588 -2.6053 0
M  V30 3768 C 351.3 1.95221 -4.05227 0
M  V30 3769 C 352.619 3.50662 -2.6594 0
M  V30 3770 H 349.738 0.489803 -0.550692 0
M  V30 3771 H 352.38 0.663887 -1.78024 0
M  V30 3772 H 350.53 3.07186 -2.37843 0
M  V30 3773 H 352.202 1.41139 -4.39178 0
M  V30 3774 H 350.445 1.26101 -4.15068 0
M  V30 3775 H 351.116 2.77121 -4.77397 0
M  V30 3776 H 353.592 3.01934 -2.86313 0
M  V30 3777 H 352.468 4.27551 -3.44226 0
M  V30 3778 H 352.729 4.07399 -1.71694 0
M  V30 3779 N 351.788 1.33704 0.83433 0
M  V30 3780 C 352.735 1.24335 1.94447 0
M  V30 3781 C 353.705 0.120991 1.65659 0
M  V30 3782 O 354.89 0.300035 1.88426 0
M  V30 3783 C 352.03 0.993124 3.30501 0
M  V30 3784 C 351.143 2.20217 3.71657 0
M  V30 3785 C 350.278 1.88572 4.96602 0
M  V30 3786 C 349.317 3.05683 5.30306 0
M  V30 3787 N 348.454 2.73997 6.46429 0
M  V30 3788 H 353.294 2.1928 2.01792 0
M  V30 3789 H 350.831 1.09035 0.987404 0
M  V30 3790 H 352.789 0.828467 4.08892 0
M  V30 3791 H 351.419 0.0803902 3.227 0
M  V30 3792 H 350.471 2.47642 2.88752 0
M  V30 3793 H 351.783 3.07752 3.92543 0
M  V30 3794 H 350.937 1.68776 5.82752 0
M  V30 3795 H 349.676 0.982799 4.77695 0
M  V30 3796 H 348.681 3.26088 4.42659 0
M  V30 3797 H 349.906 3.96737 5.51159 0
M  V30 3798 H 347.852 1.86268 6.28999 0
M  V30 3799 H 347.769 3.55064 6.67432 0
M  V30 3800 H 349.037 2.57679 7.35678 0
M  V30 3801 N 353.266 -1.05314 1.17247 0
M  V30 3802 C 354.543 -1.75184 0.87005 0
M  V30 3803 C 354.923 -2.01481 -0.629965 0
M  V30 3804 O 354.271 -1.64988 -1.58086 0
M  V30 3805 C 354.481 -3.04594 1.70363 0
M  V30 3806 C 355.829 -3.78567 1.92281 0
M  V30 3807 O 356.853 -3.14461 1.67311 0
M  V30 3808 O 355.712 -4.93755 2.3424 0
M  V30 3809 H 352.806 -0.761729 0.322021 0
M  V30 3810 H 355.352 -1.11493 1.27935 0
M  V30 3811 H 354.124 -2.81201 2.72106 0
M  V30 3812 H 353.747 -3.76022 1.29202 0
M  V30 3813 N 354.744 -0.972509 -1.24016 0
M  V30 3814 C 355.992 -0.635776 -1.91839 0
M  V30 3815 C 356.313 0.832312 -1.76345 0
M  V30 3816 O 355.583 1.5946 -1.13795 0
M  V30 3817 H 354.163 -0.232157 -0.710009 0
M  V30 3818 H 356.825 -1.23462 -1.50809 0
M  V30 3819 H 355.921 -0.880545 -2.99421 0
M  V30 3820 N 356.222 1.38976 -0.743202 0
M  V30 3821 C 357.45 2.04636 -0.30525 0
M  V30 3822 C 357.865 1.56044 1.06281 0
M  V30 3823 O 357.222 0.728921 1.67311 0
M  V30 3824 C 357.273 3.60193 -0.307177 0
M  V30 3825 O 356.994 4.06998 -1.62124 0
M  V30 3826 C 358.495 4.4306 0.145928 0
M  V30 3827 H 355.715 0.65788 -0.132041 0
M  V30 3828 H 358.259 1.77866 -1.00915 0
M  V30 3829 H 356.414 3.85835 0.347898 0
M  V30 3830 H 356.828 5.01371 -1.54036 0
M  V30 3831 H 358.302 5.51921 0.0934183 0
M  V30 3832 H 358.779 4.22706 1.19231 0
M  V30 3833 H 359.385 4.22584 -0.479886 0
M  V30 3834 N 357.7 0.491464 1.49741 0
M  V30 3835 C 358.928 -0.0535151 2.06831 0
M  V30 3836 C 359.343 -1.31683 1.35296 0
M  V30 3837 O 358.7 -1.77402 0.42836 0
M  V30 3838 C 358.751 -0.320835 3.60073 0
M  V30 3839 O 358.472 0.892394 4.28915 0
M  V30 3840 C 359.973 -0.910519 4.33848 0
M  V30 3841 H 357.193 0.0161909 0.670805 0
M  V30 3842 H 359.737 0.68609 1.92647 0
M  V30 3843 H 357.892 -1.0104 3.73991 0
M  V30 3844 H 358.306 0.649401 5.20464 0
M  V30 3845 H 359.78 -1.04721 5.41976 0
M  V30 3846 H 360.257 -1.90589 3.95692 0
M  V30 3847 H 360.863 -0.258712 4.24512 0
M  V30 3848 N 359.178 -1.55987 0.224894 0
M  V30 3849 C 360.128 -2.17076 -0.697296 0
M  V30 3850 C 361.112 -1.12006 -1.15514 0
M  V30 3851 O 362.304 -1.37985 -1.10857 0
M  V30 3852 C 359.433 -2.85679 -1.90374 0
M  V30 3853 C 358.519 -3.97977 -1.46543 0
M  V30 3854 N 358.91 -5.00359 -0.739909 0
M  V30 3855 C 357.208 -4.10128 -1.75245 0
M  V30 3856 C 357.909 -5.79407 -0.515939 0
M  V30 3857 N 356.885 -5.32892 -1.07364 0
M  V30 3858 H 360.687 -2.93592 -0.134594 0
M  V30 3859 H 358.201 -1.62379 0.0262885 0
M  V30 3860 H 360.198 -3.27857 -2.57518 0
M  V30 3861 H 358.858 -2.1066 -2.47088 0
M  V30 3862 H 359.869 -5.16412 -0.392253 0
M  V30 3863 H 356.546 -3.46263 -2.33255 0
M  V30 3864 H 357.936 -6.71872 0.0617349 0
M  V30 3865 N 360.656 0.0484629 -1.57525 0
M  V30 3866 C 361.588 1.08222 -2.02041 0
M  V30 3867 C 362.601 1.33621 -0.930012 0
M  V30 3868 O 363.79 1.3145 -1.20761 0
M  V30 3869 C 360.89 2.42818 -2.36416 0
M  V30 3870 C 360.063 2.37049 -3.67596 0
M  V30 3871 C 359.122 3.53937 -3.89378 0
M  V30 3872 O 358.148 3.34308 -4.60681 0
M  V30 3873 N 359.35 4.75126 -3.3352 0
M  V30 3874 H 362.115 0.702946 -2.9134 0
M  V30 3875 H 359.676 0.236745 -1.6016 0
M  V30 3876 H 361.668 3.197 -2.48141 0
M  V30 3877 H 360.238 2.72661 -1.52888 0
M  V30 3878 H 359.458 1.45395 -3.66407 0
M  V30 3879 H 360.746 2.30318 -4.53686 0
M  V30 3880 H 360.144 4.93976 -2.75688 0
M  V30 3881 H 358.701 5.49439 -3.50656 0
M  V30 3882 N 362.134 1.5431 0.320358 0
M  V30 3883 C 363.362 1.76636 1.07738 0
M  V30 3884 C 363.777 0.51649 1.81598 0
M  V30 3885 O 363.134 -0.512942 1.75143 0
M  V30 3886 C 363.185 2.96158 2.07299 0
M  V30 3887 O 362.906 4.16313 1.36438 0
M  V30 3888 C 364.407 3.3072 2.95193 0
M  V30 3889 H 361.627 0.589597 0.320339 0
M  V30 3890 H 364.171 2.01207 0.36551 0
M  V30 3891 H 362.326 2.73851 2.74016 0
M  V30 3892 H 362.74 4.83565 2.03138 0
M  V30 3893 H 364.214 4.17643 3.60941 0
M  V30 3894 H 364.691 2.48026 3.62463 0
M  V30 3895 H 365.297 3.55117 2.34034 0
M  V30 3896 N 363.613 -0.582584 1.46437 0
M  V30 3897 C 364.838 -1.37168 1.55563 0
M  V30 3898 C 365.263 -1.87061 0.19743 0
M  V30 3899 O 364.621 -1.61572 -0.822451 0
M  V30 3900 C 364.669 -2.53511 2.56446 0
M  V30 3901 O 363.773 -3.54953 2.09958 0
M  V30 3902 H 363.114 -0.408494 0.523477 0
M  V30 3903 H 365.644 -0.706646 1.9201 0
M  V30 3904 H 365.654 -3.00426 2.76058 0
M  V30 3905 H 364.329 -2.16549 3.55076 0
M  V30 3906 H 362.906 -3.14516 2.00334 0
M  V30 3907 N 365.091 -1.34144 -0.827227 0
M  V30 3908 C 366.021 -1.28005 -1.95287 0
M  V30 3909 C 367.002 -0.158321 -1.69362 0
M  V30 3910 O 368.187 -0.349987 -1.9102 0
M  V30 3911 C 365.317 -1.03036 -3.31664 0
M  V30 3912 C 364.271 -2.11628 -3.72019 0
M  V30 3913 C 363.597 -1.71854 -5.0633 0
M  V30 3914 C 364.897 -3.53417 -3.8457 0
M  V30 3915 H 366.591 -2.22187 -2.00682 0
M  V30 3916 H 364.137 -1.0696 -0.964135 0
M  V30 3917 H 366.09 -0.973863 -4.09993 0
M  V30 3918 H 364.814 -0.0529391 -3.26557 0
M  V30 3919 H 363.473 -2.16339 -2.95961 0
M  V30 3920 H 363.121 -0.727841 -4.97706 0
M  V30 3921 H 362.821 -2.44531 -5.34302 0
M  V30 3922 H 364.345 -1.67692 -5.87122 0
M  V30 3923 H 365.759 -3.51142 -4.5318 0
M  V30 3924 H 364.156 -4.24679 -4.2399 0
M  V30 3925 H 365.226 -3.91072 -2.86689 0
M  V30 3926 N 366.569 1.04691 -1.17803 0
M  V30 3927 C 367.479 2.16057 -0.914151 0
M  V30 3928 C 368.495 1.73589 0.119503 0
M  V30 3929 O 369.671 2.01308 -0.0609468 0
M  V30 3930 C 366.736 3.4394 -0.436603 0
M  V30 3931 C 365.797 4.00825 -1.53746 0
M  V30 3932 C 365.03 5.22604 -1.0826 0
M  V30 3933 O 365.253 5.70367 0.0612244 0
M  V30 3934 O 364.187 5.7186 -1.87775 0
M  V30 3935 H 368.013 2.41169 -1.84584 0
M  V30 3936 H 365.598 1.1453 -0.959334 0
M  V30 3937 H 367.48 4.21024 -0.178057 0
M  V30 3938 H 366.155 3.20316 0.466869 0
M  V30 3939 H 365.062 3.25158 -1.84995 0
M  V30 3940 H 366.395 4.28778 -2.41683 0
M  V30 3941 N 368.047 0.979072 1.23499 0
M  V30 3942 C 368.977 0.537606 2.27227 0
M  V30 3943 C 369.958 -0.428539 1.64613 0
M  V30 3944 O 371.143 -0.322191 1.91509 0
M  V30 3945 C 368.273 -0.162052 3.46922 0
M  V30 3946 C 367.227 0.721242 4.21879 0
M  V30 3947 C 366.553 -0.110555 5.34586 0
M  V30 3948 C 367.853 2.01141 4.82016 0
M  V30 3949 H 369.547 1.40462 2.64406 0
M  V30 3950 H 367.093 0.67684 1.27102 0
M  V30 3951 H 369.046 -0.482192 4.18632 0
M  V30 3952 H 367.77 -1.06351 3.08799 0
M  V30 3953 H 366.429 1.02482 3.51984 0
M  V30 3954 H 366.077 -1.0125 4.92704 0
M  V30 3955 H 365.777 0.477325 5.85658 0
M  V30 3956 H 367.301 -0.425107 6.09118 0
M  V30 3957 H 368.715 1.75612 5.45741 0
M  V30 3958 H 367.112 2.54695 5.43369 0
M  V30 3959 H 368.182 2.69909 4.02836 0
M  V30 3960 N 369.525 -1.3858 0.750561 0
M  V30 3961 C 370.772 -2.00184 0.305373 0
M  V30 3962 C 371.1 -1.59575 -1.11203 0
M  V30 3963 O 370.355 -0.823236 -1.77542 0
M  V30 3964 C 370.654 -3.55455 0.372373 0
M  V30 3965 C 370.32 -4.15765 1.745 0
M  V30 3966 C 368.982 -4.31951 2.12065 0
M  V30 3967 C 371.334 -4.49067 2.64553 0
M  V30 3968 C 368.662 -4.78734 3.39162 0
M  V30 3969 C 371.014 -4.97265 3.91038 0
M  V30 3970 C 369.678 -5.11658 4.28676 0
M  V30 3971 H 368.948 -0.732526 0.111744 0
M  V30 3972 H 371.595 -1.65673 0.960451 0
M  V30 3973 H 369.9 -3.90084 -0.366272 0
M  V30 3974 H 371.597 -4.00999 0.00953918 0
M  V30 3975 H 368.187 -4.03579 1.44297 0
M  V30 3976 H 372.371 -4.36166 2.36796 0
M  V30 3977 H 367.627 -4.88062 3.68246 0
M  V30 3978 H 371.801 -5.22003 4.60962 0
M  V30 3979 H 369.428 -5.47668 5.27222 0
M  V30 3980 N 371.003 -0.499398 -1.49478 0
M  V30 3981 C 371.936 0.326491 -2.25852 0
M  V30 3982 C 372.914 0.971776 -1.30366 0
M  V30 3983 O 374.098 1.00219 -1.59651 0
M  V30 3984 C 371.225 1.45969 -3.05632 0
M  V30 3985 C 370.271 0.928938 -4.16261 0
M  V30 3986 S 371.104 -0.179012 -5.35201 0
M  V30 3987 C 372.26 0.957389 -6.18534 0
M  V30 3988 H 372.493 -0.321746 -2.95554 0
M  V30 3989 H 370.026 -0.284674 -1.51753 0
M  V30 3990 H 371.984 2.109 -3.52181 0
M  V30 3991 H 370.645 2.07953 -2.35402 0
M  V30 3992 H 369.838 1.77813 -4.71592 0
M  V30 3993 H 369.44 0.356869 -3.72293 0
M  V30 3994 H 371.732 1.86296 -6.51383 0
M  V30 3995 H 372.675 0.442733 -7.06715 0
M  V30 3996 H 373.083 1.224 -5.5107 0
M  V30 3997 N 372.481 1.55866 -0.233164 0
M  V30 3998 C 373.711 2.02704 0.399325 0
M  V30 3999 C 374.119 1.11204 1.53069 0
M  V30 4000 O 373.462 0.116182 1.83332 0
M  V30 4001 C 373.524 3.45844 0.981429 0
M  V30 4002 C 373.188 4.56997 -0.0159561 0
M  V30 4003 C 374.185 5.13384 -0.820552 0
M  V30 4004 C 371.87 5.0211 -0.138072 0
M  V30 4005 C 373.864 6.13365 -1.73386 0
M  V30 4006 C 371.551 6.01926 -1.0549 0
M  V30 4007 C 372.549 6.57431 -1.85132 0
M  V30 4008 O 372.237 7.55302 -2.75272 0
M  V30 4009 H 371.969 0.668459 0.100692 0
M  V30 4010 H 374.523 2.02387 -0.35052 0
M  V30 4011 H 372.753 3.43267 1.78058 0
M  V30 4012 H 374.442 3.76262 1.52255 0
M  V30 4013 H 375.208 4.79372 -0.736721 0
M  V30 4014 H 371.087 4.5858 0.471737 0
M  V30 4015 H 374.631 6.56614 -2.35592 0
M  V30 4016 H 370.528 6.35359 -1.1397 0
M  V30 4017 H 371.296 7.72867 -2.69477 0
M  V30 4018 N 373.959 -0.0401083 1.57549 0
M  V30 4019 C 374.889 -1.04384 2.08869 0
M  V30 4020 C 375.87 -1.38407 0.988817 0
M  V30 4021 O 377.055 -1.47483 1.26342 0
M  V30 4022 C 374.185 -2.34808 2.55895 0
M  V30 4023 C 373.139 -2.15057 3.70047 0
M  V30 4024 C 372.465 -3.51145 4.03239 0
M  V30 4025 C 373.765 -1.54576 4.98902 0
M  V30 4026 H 375.459 -0.616666 2.92981 0
M  V30 4027 H 373.005 -0.295184 1.40942 0
M  V30 4028 H 374.958 -3.05346 2.90417 0
M  V30 4029 H 373.682 -2.79565 1.68853 0
M  V30 4030 H 372.341 -1.46954 3.35857 0
M  V30 4031 H 371.989 -3.93529 3.13279 0
M  V30 4032 H 371.689 -3.38758 4.80122 0
M  V30 4033 H 373.213 -4.23062 4.40285 0
M  V30 4034 H 374.627 -2.15017 5.31451 0
M  V30 4035 H 373.024 -1.52796 5.80322 0
M  V30 4036 H 374.094 -0.51039 4.82206 0
M  V30 4037 N 375.437 -1.54477 -0.31217 0
M  V30 4038 C 376.385 -1.85395 -1.40469 0
M  V30 4039 C 377.379 -0.726749 -1.53019 0
M  V30 4040 O 378.585 -0.910582 -1.55269 0
M  V30 4041 H 374.96 -0.587845 -0.46898 0
M  V30 4042 H 376.931 -2.76736 -1.11623 0
M  V30 4043 C 375.68 -2.10811 -2.76503 0
M  V30 4044 H 375.003 -2.97014 -2.67625 0
M  V30 4045 H 376.443 -2.3639 -3.51988 0
M  V30 4046 C 374.902 -0.903165 -3.24568 0
M  V30 4047 O 375.432 -0.118085 -4.01526 0
M  V30 4048 N 373.638 -0.711634 -2.81752 0
M  V30 4049 H 373.185 -1.35171 -2.19286 0
M  V30 4050 H 373.143 0.0930473 -3.14262 0
M  V30 4051 N 376.915 0.57481 -1.46744 0
M  V30 4052 C 377.825 1.711 -1.60505 0
M  V30 4053 C 378.841 1.67008 -0.488307 0
M  V30 4054 O 380.017 1.86774 -0.753495 0
M  V30 4055 C 377.082 3.07608 -1.59932 0
M  V30 4056 C 376.143 3.22904 -2.82898 0
M  V30 4057 C 375.376 4.529 -2.82343 0
M  V30 4058 O 375.599 5.37278 -1.91542 0
M  V30 4059 O 374.533 4.71611 -3.73987 0
M  V30 4060 H 378.359 1.62436 -2.56609 0
M  V30 4061 H 375.944 0.742779 -1.29627 0
M  V30 4062 H 377.826 3.88877 -1.62336 0
M  V30 4063 H 376.501 3.16692 -0.669898 0
M  V30 4064 H 375.408 2.41099 -2.86046 0
M  V30 4065 H 376.741 3.18715 -3.75076 0
M  V30 4066 N 378.394 1.34581 0.820102 0
M  V30 4067 C 379.64 1.27285 1.57881 0
M  V30 4068 C 379.973 -0.156137 1.93571 0
M  V30 4069 O 379.248 -1.10222 1.60254 0
M  V30 4070 C 379.531 2.16639 2.87645 0
M  V30 4071 C 379.384 3.68088 2.58517 0
M  V30 4072 C 380.703 2.05378 3.8924 0
M  V30 4073 H 377.822 0.463714 0.572833 0
M  V30 4074 H 380.464 1.64859 0.944539 0
M  V30 4075 H 378.614 1.84725 3.41773 0
M  V30 4076 H 380.286 4.10382 2.10676 0
M  V30 4077 H 378.529 3.89038 1.91917 0
M  V30 4078 H 379.2 4.2598 3.51063 0
M  V30 4079 H 381.676 2.33404 3.44473 0
M  V30 4080 H 380.552 2.7012 4.77835 0
M  V30 4081 H 380.813 1.0316 4.29896 0
M  V30 4082 N 379.872 -1.04064 1.18357 0
M  V30 4083 C 380.835 -2.10243 0.912707 0
M  V30 4084 C 381.835 -1.60477 -0.101928 0
M  V30 4085 O 383.025 -1.73703 0.131517 0
M  V30 4086 C 380.157 -3.38893 0.369387 0
M  V30 4087 H 381.35 -2.35706 1.85426 0
M  V30 4088 H 378.903 -1.20489 0.995594 0
M  V30 4089 H 379.638 -3.19094 -0.578776 0
M  V30 4090 H 379.423 -3.76331 1.1008 0
M  V30 4091 H 380.913 -4.17128 0.198575 0
M  V30 4092 N 381.35 -0.985608 -1.22978 0
M  V30 4093 C 382.598 -0.656087 -1.91154 0
M  V30 4094 C 382.919 0.813561 -1.77218 0
M  V30 4095 O 382.189 1.58244 -1.1548 0
M  V30 4096 H 380.769 -0.239674 -0.707506 0
M  V30 4097 H 383.431 -1.25054 -1.49491 0
M  V30 4098 H 382.527 -0.912253 -2.9847 0
M  V30 4099 N 382.828 1.3818 -0.7579 0
M  V30 4100 C 383.775 2.30416 -0.133057 0
M  V30 4101 C 384.745 1.50398 0.704957 0
M  V30 4102 O 385.93 1.79014 0.660192 0
M  V30 4103 C 383.07 3.36834 0.750813 0
M  V30 4104 C 382.183 4.31879 -0.102297 0
M  V30 4105 C 381.318 5.25368 0.784979 0
M  V30 4106 C 380.357 6.12058 -0.0715046 0
M  V30 4107 N 379.494 6.97832 0.772972 0
M  V30 4108 H 384.334 2.83274 -0.925186 0
M  V30 4109 H 381.871 1.39461 -0.467866 0
M  V30 4110 H 383.829 3.97145 1.27794 0
M  V30 4111 H 382.459 2.85374 1.50868 0
M  V30 4112 H 381.511 3.72991 -0.747095 0
M  V30 4113 H 382.823 4.92921 -0.763552 0
M  V30 4114 H 381.977 5.90818 1.37911 0
M  V30 4115 H 380.716 4.64703 1.47996 0
M  V30 4116 H 379.721 5.456 -0.678272 0
M  V30 4117 H 380.946 6.74793 -0.763606 0
M  V30 4118 H 378.892 6.3971 1.45282 0
M  V30 4119 H 378.809 7.55812 0.168709 0
M  V30 4120 H 380.077 7.67687 1.35194 0
M  V30 4121 N 384.306 0.507319 1.49211 0
M  V30 4122 C 385.256 -0.287112 2.26185 0
M  V30 4123 C 386.24 -0.929983 1.31302 0
M  V30 4124 O 387.432 -0.836538 1.55984 0
M  V30 4125 C 384.561 -1.34718 3.15763 0
M  V30 4126 C 383.647 -0.710235 4.18111 0
M  V30 4127 N 384.038 0.190836 5.0544 0
M  V30 4128 C 382.336 -0.97009 4.35322 0
M  V30 4129 C 383.037 0.55606 5.79036 0
M  V30 4130 N 382.013 -0.0775232 5.43545 0
M  V30 4131 H 385.815 0.406445 2.91076 0
M  V30 4132 H 383.329 0.323814 1.59139 0
M  V30 4133 H 385.326 -1.92982 3.69545 0
M  V30 4134 H 383.986 -2.04235 2.52424 0
M  V30 4135 H 384.997 0.562047 5.14841 0
M  V30 4136 H 381.674 -1.65753 3.83187 0
M  V30 4137 H 383.064 1.2936 6.5933 0
M  V30 4138 N 385.784 -1.5574 0.241426 0
M  V30 4139 C 387.032 -1.98417 -0.384075 0
M  V30 4140 C 387.353 -1.13078 -1.58866 0
M  V30 4141 O 386.623 -0.212312 -1.94746 0
M  V30 4142 H 385.203 -0.732813 -0.144894 0
M  V30 4143 H 387.865 -1.9193 0.338943 0
M  V30 4144 H 386.961 -3.04219 -0.696939 0
M  V30 4145 N 387.262 0.0317525 -1.57568 0
M  V30 4146 C 388.508 0.724175 -1.8943 0
M  V30 4147 C 388.841 1.75149 -0.838836 0
M  V30 4148 O 388.116 1.93948 0.146422 0
M  V30 4149 C 388.399 1.39615 -3.31933 0
M  V30 4150 C 388.252 0.382537 -4.4817 0
M  V30 4151 C 389.571 2.33084 -3.73309 0
M  V30 4152 H 386.69 0.261797 -0.688935 0
M  V30 4153 H 389.332 -0.013017 -1.89996 0
M  V30 4154 H 387.482 2.02451 -3.31581 0
M  V30 4155 H 389.154 -0.243689 -4.60656 0
M  V30 4156 H 387.397 -0.29844 -4.32772 0
M  V30 4157 H 388.068 0.891145 -5.44759 0
M  V30 4158 H 390.544 1.80295 -3.7501 0
M  V30 4159 H 389.42 2.77084 -4.73831 0
M  V30 4160 H 389.681 3.19643 -3.05419 0
M  V30 4161 N 388.74 1.54641 0.303973 0
M  V30 4162 C 389.988 1.73437 1.0375 0
M  V30 4163 C 390.309 0.521449 1.87899 0
M  V30 4164 O 389.579 -0.46432 1.90318 0
M  V30 4165 H 388.159 0.639518 0.386039 0
M  V30 4166 H 390.821 1.91988 0.335675 0
M  V30 4167 H 389.917 2.62235 1.69231 0
M  V30 4168 N 390.218 -0.567019 1.47046 0
M  V30 4169 C 391.634 -0.891975 1.32348 0
M  V30 4170 C 391.834 -1.99154 0.306616 0
M  V30 4171 O 390.89 -2.50883 -0.28532 0
M  V30 4172 C 392.203 -1.29449 2.7141 0
M  V30 4173 C 393.751 -1.40646 2.79621 0
M  V30 4174 C 394.226 -1.84257 4.19301 0
M  V30 4175 N 395.717 -1.91424 4.21795 0
M  V30 4176 C 396.452 -2.26476 5.26779 0
M  V30 4177 N 395.948 -2.60211 6.42077 0
M  V30 4178 N 397.741 -2.27166 5.14152 0
M  V30 4179 H 389.892 0.159074 2.11803 0
M  V30 4180 H 392.155 0.00849752 0.947962 0
M  V30 4181 H 391.861 -0.560448 3.47206 0
M  V30 4182 H 391.735 -2.25273 3.02542 0
M  V30 4183 H 394.122 -2.13133 2.04104 0
M  V30 4184 H 394.203 -0.430339 2.52154 0
M  V30 4185 H 393.847 -1.12343 4.95319 0
M  V30 4186 H 393.777 -2.82855 4.44185 0
M  V30 4187 H 396.268 -1.6778 3.38612 0
M  V30 4188 H 396.581 -2.85956 7.17948 0
M  V30 4189 H 394.926 -2.57813 6.45413 0
M  V30 4190 H 398.117 -2.00244 4.23107 0
M  V30 4191 H 398.29 -2.54154 5.96079 0
M  V30 4192 N 391.696 -1.35014 -0.812953 0
M  V30 4193 C 392.945 -1.27269 -1.56479 0
M  V30 4194 C 393.258 0.152771 -1.95002 0
M  V30 4195 O 394.464 0.352451 -2.69203 0
M  V30 4196 C 392.92 -2.23159 -2.82362 0
M  V30 4197 C 392.528 -3.71016 -2.511 0
M  V30 4198 C 394.272 -2.24342 -3.60376 0
M  V30 4199 C 392.179 -4.58746 -3.73237 0
M  V30 4200 H 391.109 -0.472829 -0.587324 0
M  V30 4201 H 393.76 -1.6024 -0.894171 0
M  V30 4202 H 392.142 -1.83151 -3.51101 0
M  V30 4203 H 393.316 -4.1962 -1.90409 0
M  V30 4204 H 391.631 -3.72378 -1.86343 0
M  V30 4205 H 394.228 -2.87107 -4.51081 0
M  V30 4206 H 394.571 -1.24542 -3.97234 0
M  V30 4207 H 395.104 -2.62846 -2.98591 0
M  V30 4208 H 391.843 -5.59521 -3.41492 0
M  V30 4209 H 391.363 -4.14871 -4.33176 0
M  V30 4210 H 393.042 -4.73852 -4.40537 0
M  V30 4211 N 393.175 1.03435 -1.18907 0
M  V30 4212 C 394.452 1.73778 -0.89781 0
M  V30 4213 C 394.832 2.02458 0.597832 0
M  V30 4214 O 394.18 1.67482 1.55441 0
M  V30 4215 C 394.39 3.01845 -1.75187 0
M  V30 4216 C 395.738 3.7546 -1.9828 0
M  V30 4217 O 396.762 3.11759 -1.72293 0
M  V30 4218 O 395.621 4.89966 -2.42065 0
M  V30 4219 H 392.715 0.75651 -0.334098 0
M  V30 4220 H 395.261 1.09444 -1.29693 0
M  V30 4221 H 394.033 2.76836 -2.76545 0
M  V30 4222 H 393.656 3.73919 -1.35167 0
M  V30 4223 N 394.653 0.992116 1.22453 0
M  V30 4224 C 395.902 0.662992 1.90492 0
M  V30 4225 C 396.215 -0.808407 1.78113 0
M  V30 4226 O 397.421 -1.24908 2.41061 0
M  V30 4227 C 395.877 1.1353 3.41524 0
M  V30 4228 C 395.485 2.63187 3.62542 0
M  V30 4229 C 397.229 0.880465 4.15269 0
M  V30 4230 C 395.136 3.04024 5.0727 0
M  V30 4231 H 394.066 0.244278 0.713333 0
M  V30 4232 H 396.717 1.20157 1.38688 0
M  V30 4233 H 395.099 0.52485 3.92506 0
M  V30 4234 H 396.273 3.2957 3.22056 0
M  V30 4235 H 394.588 2.86543 3.02129 0
M  V30 4236 H 397.185 1.16128 5.21937 0
M  V30 4237 H 397.528 -0.183408 4.15896 0
M  V30 4238 H 398.061 1.45307 3.70312 0
M  V30 4239 H 394.8 4.09584 5.11782 0
M  V30 4240 H 394.32 2.42343 5.48662 0
M  V30 4241 H 395.999 2.95282 5.75689 0
M  V30 4242 N 396.131 -1.37776 0.765217 0
M  V30 4243 C 397.377 -2.00145 0.327072 0
M  V30 4244 C 397.71 -1.60607 -1.09175 0
M  V30 4245 O 396.985 -0.849127 -1.74986 0
M  V30 4246 C 397.268 -3.57109 0.46319 0
M  V30 4247 C 397.121 -4.06576 1.92395 0
M  V30 4248 C 398.44 -4.39888 -0.136473 0
M  V30 4249 H 395.559 -0.727113 0.120316 0
M  V30 4250 H 398.201 -1.63549 0.967039 0
M  V30 4251 H 396.351 -3.88414 -0.0816358 0
M  V30 4252 H 398.023 -3.85864 2.52798 0
M  V30 4253 H 396.266 -3.59011 2.43503 0
M  V30 4254 H 396.937 -5.15639 1.97028 0
M  V30 4255 H 399.413 -4.14803 0.328317 0
M  V30 4256 H 398.289 -5.48899 -0.0110582 0
M  V30 4257 H 398.55 -4.24758 -1.22608 0
M  V30 4258 N 397.609 -0.515225 -1.4894 0
M  V30 4259 C 398.519 0.259774 -2.33157 0
M  V30 4260 C 399.535 0.953501 -1.45548 0
M  V30 4261 O 400.711 0.931735 -1.78552 0
M  V30 4262 C 397.776 1.30193 -3.21326 0
M  V30 4263 C 396.837 0.620129 -4.24797 0
M  V30 4264 C 396.07 1.61263 -5.08753 0
M  V30 4265 O 396.293 2.84389 -4.94448 0
M  V30 4266 O 395.227 1.16013 -5.90614 0
M  V30 4267 H 399.053 -0.429932 -3.00641 0
M  V30 4268 H 396.638 -0.276346 -1.46822 0
M  V30 4269 H 398.52 1.90455 -3.75905 0
M  V30 4270 H 397.195 1.97431 -2.56521 0
M  V30 4271 H 396.102 -0.0226019 -3.74093 0
M  V30 4272 H 397.435 -0.0100493 -4.92199 0
M  V30 4273 N 399.087 1.5561 -0.249682 0
M  V30 4274 C 400.035 2.22894 0.664906 0
M  V30 4275 C 401.029 1.21743 1.17792 0
M  V30 4276 O 402.235 1.39748 1.13449 0
M  V30 4277 H 398.61 0.715022 0.232912 0
M  V30 4278 H 400.581 2.98307 0.0742998 0
M  V30 4279 C 399.33 2.94424 1.84959 0
M  V30 4280 H 398.653 3.72031 1.46399 0
M  V30 4281 H 400.093 3.44862 2.4667 0
M  V30 4282 C 398.552 1.98454 2.72245 0
M  V30 4283 O 399.082 1.51939 3.71857 0
M  V30 4284 N 397.288 1.65496 2.38871 0
M  V30 4285 H 396.835 2.03517 1.57919 0
M  V30 4286 H 396.793 1.0155 2.97548 0
M  V30 4287 N 400.565 -0.0233959 1.57583 0
M  V30 4288 C 401.981 -0.379134 1.55031 0
M  V30 4289 C 402.181 -1.76255 0.976548 0
M  V30 4290 O 401.237 -2.45266 0.600078 0
M  V30 4291 C 402.55 -0.275792 2.99433 0
M  V30 4292 C 404.098 -0.352458 3.11009 0
M  V30 4293 C 404.573 -0.278501 4.57152 0
M  V30 4294 N 406.064 -0.337123 4.61972 0
M  V30 4295 C 406.799 -0.302876 5.726 0
M  V30 4296 N 406.295 -0.220589 6.92449 0
M  V30 4297 N 408.088 -0.353023 5.6099 0
M  V30 4298 H 400.239 0.881869 1.93227 0
M  V30 4299 H 402.502 0.335867 0.886509 0
M  V30 4300 H 402.208 0.675108 3.4516 0
M  V30 4301 H 402.082 -1.06721 3.61788 0
M  V30 4302 H 404.469 -1.29379 2.65226 0
M  V30 4303 H 404.55 0.468409 2.51475 0
M  V30 4304 H 404.194 0.659189 5.03604 0
M  V30 4305 H 404.124 -1.11755 5.14605 0
M  V30 4306 H 406.615 -0.403002 3.75745 0
M  V30 4307 H 406.928 -0.199713 7.72542 0
M  V30 4308 H 405.273 -0.186555 6.9475 0
M  V30 4309 H 408.464 -0.415339 4.66254 0
M  V30 4310 H 408.637 -0.322866 6.47195 0
M  V30 4311 N 402.043 -1.548 -0.295768 0
M  V30 4312 C 403.29 -1.74329 -1.03032 0
M  V30 4313 C 403.618 -0.531915 -1.87085 0
M  V30 4314 O 402.873 0.486052 -1.89568 0
M  V30 4315 C 403.172 -2.98797 -1.961 0
M  V30 4316 C 402.838 -4.32356 -1.2798 0
M  V30 4317 C 401.5 -4.68661 -1.09135 0
M  V30 4318 C 403.852 -5.15128 -0.793243 0
M  V30 4319 C 401.18 -5.85312 -0.403269 0
M  V30 4320 C 403.532 -6.32488 -0.118854 0
M  V30 4321 C 402.196 -6.6745 0.0815043 0
M  V30 4322 H 401.466 -0.637916 -0.37702 0
M  V30 4323 H 404.113 -1.8906 -0.304696 0
M  V30 4324 H 402.418 -2.78869 -2.75207 0
M  V30 4325 H 404.115 -3.11102 -2.53015 0
M  V30 4326 H 400.705 -4.03808 -1.43655 0
M  V30 4327 H 404.889 -4.87575 -0.92653 0
M  V30 4328 H 400.145 -6.1094 -0.237098 0
M  V30 4329 H 404.319 -6.95892 0.266035 0
M  V30 4330 H 401.946 -7.57695 0.616685 0
M  V30 4331 N 403.521 0.559213 -1.47345 0
M  V30 4332 C 404.77 1.31281 -1.53128 0
M  V30 4333 C 405.083 1.94602 -0.197344 0
M  V30 4334 O 406.289 2.71173 -0.133154 0
M  V30 4335 C 404.745 2.38051 -2.69925 0
M  V30 4336 C 404.353 1.8093 -4.0984 0
M  V30 4337 C 406.097 3.14604 -2.84999 0
M  V30 4338 C 404.004 2.85468 -5.1794 0
M  V30 4339 H 402.934 0.493614 -0.569966 0
M  V30 4340 H 405.585 0.594155 -1.73615 0
M  V30 4341 H 403.967 3.12822 -2.42814 0
M  V30 4342 H 405.141 1.12544 -4.46845 0
M  V30 4343 H 403.456 1.16967 -3.99634 0
M  V30 4344 H 406.053 3.92666 -3.62929 0
M  V30 4345 H 406.396 3.68665 -1.93369 0
M  V30 4346 H 406.929 2.46945 -3.1187 0
M  V30 4347 H 403.668 2.36264 -6.1144 0
M  V30 4348 H 403.188 3.52269 -4.85455 0
M  V30 4349 H 404.867 3.48996 -5.44803 0
M  V30 4350 N 404.999 1.35443 0.805782 0
M  V30 4351 C 406.247 1.28507 1.55982 0
M  V30 4352 C 406.568 -0.140046 1.94496 0
M  V30 4353 O 405.838 -1.07666 1.63661 0
M  V30 4354 H 404.418 0.472676 0.578434 0
M  V30 4355 H 407.08 1.69555 0.961098 0
M  V30 4356 H 406.176 1.90148 2.47488 0
M  V30 4357 N 406.477 -1.02803 1.19454 0
M  V30 4358 C 407.41 -2.107 0.876396 0
M  V30 4359 C 408.388 -1.61741 -0.166897 0
M  V30 4360 O 409.572 -1.88451 -0.0430195 0
M  V30 4361 C 406.699 -3.37262 0.311758 0
M  V30 4362 C 405.745 -4.05093 1.33424 0
M  V30 4363 S 406.578 -4.50498 2.89503 0
M  V30 4364 C 407.734 -5.80277 2.34584 0
M  V30 4365 H 407.967 -2.37362 1.79016 0
M  V30 4366 H 405.5 -1.15755 1.02177 0
M  V30 4367 H 407.458 -4.10499 -0.00748752 0
M  V30 4368 H 406.119 -3.08693 -0.58032 0
M  V30 4369 H 405.312 -4.9611 0.888302 0
M  V30 4370 H 404.914 -3.3803 1.60037 0
M  V30 4371 H 407.206 -6.54873 1.73633 0
M  V30 4372 H 408.149 -6.29651 3.23952 0
M  V30 4373 H 408.557 -5.3599 1.77131 0
M  V30 4374 N 407.956 -0.998596 -1.21925 0
M  V30 4375 C 408.903 -0.553621 -2.24062 0
M  V30 4376 C 409.873 0.416999 -1.6078 0
M  V30 4377 O 411.058 0.320482 -1.88089 0
M  V30 4378 C 408.198 0.119959 -3.44891 0
M  V30 4379 C 407.311 -0.893077 -4.22668 0
M  V30 4380 C 406.446 -0.192424 -5.30851 0
M  V30 4381 C 405.485 -1.19344 -6.00353 0
M  V30 4382 N 404.622 -0.520707 -7.00166 0
M  V30 4383 H 409.462 -1.4293 -2.61486 0
M  V30 4384 H 406.999 -0.715838 -1.28507 0
M  V30 4385 H 408.957 0.527459 -4.13852 0
M  V30 4386 H 407.587 0.959389 -3.08214 0
M  V30 4387 H 406.639 -1.41886 -3.52948 0
M  V30 4388 H 407.951 -1.65512 -4.70539 0
M  V30 4389 H 407.105 0.271515 -6.06092 0
M  V30 4390 H 405.844 0.602075 -4.83969 0
M  V30 4391 H 404.849 -1.66795 -5.23889 0
M  V30 4392 H 406.074 -1.98891 -6.49322 0
M  V30 4393 H 404.02 0.254252 -6.55507 0
M  V30 4394 H 403.937 -1.2211 -7.46073 0
M  V30 4395 H 405.205 -0.0797596 -7.79459 0
M  V30 4396 N 409.434 1.37368 -0.772513 0
M  V30 4397 C 410.659 2.0447 -0.347386 0
M  V30 4398 C 411.084 1.57882 1.0225 0
M  V30 4399 O 410.442 0.73941 1.65537 0
M  V30 4400 C 410.49 3.58369 -0.400479 0
M  V30 4401 O 409.594 4.0803 0.598789 0
M  V30 4402 H 408.935 0.646773 -0.15027 0
M  V30 4403 H 411.465 1.75667 -1.04892 0
M  V30 4404 H 411.475 4.07183 -0.258045 0
M  V30 4405 H 410.15 3.91633 -1.39986 0
M  V30 4406 H 408.727 3.70534 0.419411 0
M  V30 4407 N 410.912 0.523116 1.48665 0
M  V30 4408 C 412.328 0.180511 1.58576 0
M  V30 4409 C 412.528 -1.31597 1.52592 0
M  V30 4410 O 411.584 -2.0937 1.4114 0
M  V30 4411 C 412.897 0.776949 2.90489 0
M  V30 4412 C 414.445 0.745058 3.04003 0
M  V30 4413 C 414.92 1.31995 4.38567 0
M  V30 4414 N 416.411 1.28162 4.45117 0
M  V30 4415 C 417.146 1.6964 5.47731 0
M  V30 4416 N 416.642 2.18816 6.57337 0
M  V30 4417 N 418.435 1.6092 5.38573 0
M  V30 4418 H 410.586 1.4958 1.50797 0
M  V30 4419 H 412.849 0.621772 0.715614 0
M  V30 4420 H 412.555 1.82732 3.00503 0
M  V30 4421 H 412.429 0.25007 3.7637 0
M  V30 4422 H 414.816 -0.296532 2.93606 0
M  V30 4423 H 414.897 1.30933 2.1975 0
M  V30 4424 H 414.541 2.36043 4.49718 0
M  V30 4425 H 414.471 0.731418 5.21496 0
M  V30 4426 H 416.962 0.92155 3.66491 0
M  V30 4427 H 417.275 2.48478 7.31764 0
M  V30 4428 H 415.62 2.22805 6.58318 0
M  V30 4429 H 418.811 1.22304 4.5184 0
M  V30 4430 H 418.984 1.93567 6.18414 0
M  V30 4431 N 412.39 -1.55475 0.257931 0
M  V30 4432 C 413.638 -1.98813 -0.363009 0
M  V30 4433 C 413.959 -1.14757 -1.57657 0
M  V30 4434 O 413.229 -0.232956 -1.9451 0
M  V30 4435 H 411.809 -0.734308 -0.137113 0
M  V30 4436 H 414.471 -1.9156 0.359281 0
M  V30 4437 H 413.567 -3.04941 -0.664634 0
M  V30 4438 N 413.868 0.0150385 -1.57593 0
M  V30 4439 C 415.117 0.702115 -1.89085 0
M  V30 4440 C 415.43 1.75764 -0.858277 0
M  V30 4441 O 416.636 2.49829 -1.0629 0
M  V30 4442 C 415.092 1.29992 -3.35604 0
M  V30 4443 C 414.7 0.280007 -4.47124 0
M  V30 4444 C 416.444 1.96606 -3.76227 0
M  V30 4445 C 414.351 0.886949 -5.84711 0
M  V30 4446 H 413.281 0.265997 -0.705522 0
M  V30 4447 H 415.932 -0.0430408 -1.8345 0
M  V30 4448 H 414.314 2.09525 -3.36029 0
M  V30 4449 H 415.488 -0.489631 -4.58191 0
M  V30 4450 H 413.803 -0.284835 -4.15425 0
M  V30 4451 H 416.4 2.42893 -4.76347 0
M  V30 4452 H 416.743 2.79024 -3.08952 0
M  V30 4453 H 417.276 1.23828 -3.78036 0
M  V30 4454 H 414.015 0.101876 -6.55421 0
M  V30 4455 H 413.535 1.6261 -5.77337 0
M  V30 4456 H 415.214 1.39011 -6.3189 0
M  V30 4457 N 415.346 1.54954 0.287554 0
M  V30 4458 C 416.576 1.78622 1.03816 0
M  V30 4459 C 416.984 0.552451 1.80955 0
M  V30 4460 O 416.327 -0.487665 1.77109 0
M  V30 4461 C 416.389 2.94975 2.055 0
M  V30 4462 C 416.053 4.32565 1.47433 0
M  V30 4463 C 417.05 5.12096 0.897436 0
M  V30 4464 C 414.735 4.79195 1.50591 0
M  V30 4465 C 416.729 6.36383 0.359851 0
M  V30 4466 C 414.416 6.03441 0.964459 0
M  V30 4467 C 415.414 6.81872 0.392413 0
M  V30 4468 O 415.102 8.03777 -0.140788 0
M  V30 4469 H 414.834 0.599144 0.313053 0
M  V30 4470 H 417.388 2.02761 0.328225 0
M  V30 4471 H 415.618 2.66493 2.80211 0
M  V30 4472 H 417.307 3.06097 2.6657 0
M  V30 4473 H 418.073 4.77209 0.865841 0
M  V30 4474 H 413.952 4.18167 1.94055 0
M  V30 4475 H 417.496 6.97545 -0.0872951 0
M  V30 4476 H 413.393 6.37813 0.993246 0
M  V30 4477 H 414.161 8.18495 -0.0287617 0
M  V30 4478 N 416.824 -0.551391 1.4764 0
M  V30 4479 C 417.734 -1.68525 1.63207 0
M  V30 4480 C 418.75 -1.6621 0.514815 0
M  V30 4481 O 419.926 -1.85551 0.783113 0
M  V30 4482 C 416.991 -3.05025 1.64805 0
M  V30 4483 C 416.052 -3.18362 2.88 0
M  V30 4484 C 415.285 -4.4835 2.89513 0
M  V30 4485 O 415.508 -5.34163 2.00065 0
M  V30 4486 O 414.442 -4.65602 3.81443 0
M  V30 4487 H 418.268 -1.58333 2.59161 0
M  V30 4488 H 415.853 -0.722063 1.30792 0
M  V30 4489 H 417.735 -3.86245 1.68502 0
M  V30 4490 H 416.41 -3.15587 0.720197 0
M  V30 4491 H 415.317 -2.36518 2.89845 0
M  V30 4492 H 416.65 -3.12707 3.80099 0
M  V30 4493 N 418.302 -1.35869 -0.798587 0
M  V30 4494 C 419.53 -1.32722 -1.58722 0
M  V30 4495 C 419.945 0.0935631 -1.88568 0
M  V30 4496 O 419.302 1.04784 -1.49421 0
M  V30 4497 C 419.353 -2.13974 -2.91371 0
M  V30 4498 O 419.074 -3.50514 -2.62815 0
M  V30 4499 C 420.575 -2.18504 -3.85708 0
M  V30 4500 H 417.795 -0.45562 -0.492596 0
M  V30 4501 H 420.339 -1.78837 -0.991843 0
M  V30 4502 H 418.494 -1.71438 -3.47402 0
M  V30 4503 H 418.908 -3.92806 -3.47568 0
M  V30 4504 H 420.382 -2.79732 -4.75872 0
M  V30 4505 H 420.859 -1.18597 -4.22885 0
M  V30 4506 H 421.465 -2.61236 -3.35612 0
M  V30 4507 N 419.78 1.02168 -1.19998 0
M  V30 4508 C 421.191 1.57135 -1.00825 0
M  V30 4509 C 421.542 1.91276 0.436818 0
M  V30 4510 O 420.667 1.71679 1.3174 0
M  V30 4511 C 421.262 2.85514 -1.82393 0
M  V30 4512 C 419.821 3.37027 -1.67601 0
M  V30 4513 C 418.968 2.10388 -1.80644 0
M  V30 4514 H 421.919 0.846106 -1.34264 0
M  V30 4515 H 421.94 3.56711 -1.32429 0
M  V30 4516 H 421.452 2.60634 -2.87561 0
M  V30 4517 H 419.553 3.66878 -0.650485 0
M  V30 4518 H 419.666 4.09572 -2.4857 0
M  V30 4519 H 418.03 2.22601 -1.23778 0
M  V30 4520 H 418.813 1.8794 -2.87286 0
M  V30 4521 N 421.258 1.00505 1.21394 0
M  V30 4522 C 422.221 0.570459 2.21987 0
M  V30 4523 C 423.221 -0.353211 1.56873 0
M  V30 4524 O 424.411 -0.14349 1.73608 0
M  V30 4525 C 421.543 -0.168555 3.40483 0
M  V30 4526 H 422.736 1.46021 2.6195 0
M  V30 4527 H 420.289 0.793565 1.34656 0
M  V30 4528 H 421.024 -1.07374 3.06009 0
M  V30 4529 H 420.809 0.494823 3.88965 0
M  V30 4530 H 422.299 -0.460362 4.15055 0
M  V30 4531 N 422.737 -1.36956 0.779787 0
M  V30 4532 C 423.985 -1.99097 0.347079 0
M  V30 4533 C 424.306 -1.62206 -1.08232 0
M  V30 4534 O 423.576 -0.891373 -1.74446 0
M  V30 4535 H 422.156 -0.736409 0.125342 0
M  V30 4536 H 424.818 -1.67308 0.999696 0
M  V30 4537 H 423.914 -3.09107 0.431162 0
M  V30 4538 N 424.215 -0.530993 -1.48385 0
M  V30 4539 C 425.443 -0.00134122 -2.069 0
M  V30 4540 C 425.858 1.2805 -1.3874 0
M  V30 4541 O 425.215 1.76204 -0.475244 0
M  V30 4542 C 425.266 0.225256 -3.60798 0
M  V30 4543 O 424.987 -1.0058 -4.26398 0
M  V30 4544 C 426.488 0.795172 -4.3611 0
M  V30 4545 H 423.708 -0.0339704 -0.67014 0
M  V30 4546 H 426.252 -0.736926 -1.90761 0
M  V30 4547 H 424.407 0.910891 -3.76539 0
M  V30 4548 H 424.821 -0.787165 -5.1856 0
M  V30 4549 H 426.295 0.903143 -5.44562 0
M  V30 4550 H 426.772 1.80031 -4.00606 0
M  V30 4551 H 427.378 0.146069 -4.25049 0
M  V30 4552 N 425.693 1.55336 -0.266172 0
M  V30 4553 C 426.942 1.98574 0.353749 0
M  V30 4554 C 427.255 1.15789 1.57646 0
M  V30 4555 O 428.461 1.49129 2.26876 0
M  V30 4556 C 426.917 3.53403 0.680747 0
M  V30 4557 C 426.525 4.44953 -0.52165 0
M  V30 4558 C 428.269 4.05251 1.26379 0
M  V30 4559 C 426.176 5.91156 -0.169736 0
M  V30 4560 H 425.106 0.741643 0.135949 0
M  V30 4561 H 427.757 1.79743 -0.369421 0
M  V30 4562 H 426.139 3.68001 1.46257 0
M  V30 4563 H 427.313 4.42121 -1.29869 0
M  V30 4564 H 425.628 4.03691 -1.02093 0
M  V30 4565 H 428.225 5.12021 1.54074 0
M  V30 4566 H 428.568 3.53749 2.19471 0
M  V30 4567 H 429.101 3.94057 0.544447 0
M  V30 4568 H 425.84 6.46736 -1.0683 0
M  V30 4569 H 425.36 5.97079 0.570717 0
M  V30 4570 H 427.039 6.4655 0.241245 0
M  V30 4571 N 427.171 -0.0066808 1.57599 0
M  V30 4572 C 428.101 -0.999296 2.11036 0
M  V30 4573 C 429.082 -1.36278 1.01795 0
M  V30 4574 O 430.267 -1.4477 1.29442 0
M  V30 4575 C 427.397 -2.29328 2.60818 0
M  V30 4576 C 426.351 -2.07159 3.74525 0
M  V30 4577 C 425.677 -3.42512 4.10596 0
M  V30 4578 C 426.977 -1.43959 5.02069 0
M  V30 4579 H 428.671 -0.554382 2.94223 0
M  V30 4580 H 426.217 -0.265221 1.41536 0
M  V30 4581 H 428.17 -2.99117 2.96828 0
M  V30 4582 H 426.894 -2.7592 1.74745 0
M  V30 4583 H 425.553 -1.39797 3.38899 0
M  V30 4584 H 425.201 -3.86795 3.21556 0
M  V30 4585 H 424.901 -3.28498 4.87199 0
M  V30 4586 H 426.425 -4.13628 4.4916 0
M  V30 4587 H 427.839 -2.03696 5.35893 0
M  V30 4588 H 426.236 -1.40452 5.83432 0
M  V30 4589 H 427.306 -0.407992 4.83181 0
M  V30 4590 N 428.649 -1.55105 -0.279332 0
M  V30 4591 C 429.879 -1.7917 -1.02867 0
M  V30 4592 C 430.287 -0.56204 -1.80659 0
M  V30 4593 O 429.63 0.478266 -1.77365 0
M  V30 4594 C 429.692 -2.96061 -2.03932 0
M  V30 4595 C 429.356 -4.33341 -1.45137 0
M  V30 4596 C 430.353 -5.12565 -0.870266 0
M  V30 4597 C 428.038 -4.79987 -1.48048 0
M  V30 4598 C 430.032 -6.36565 -0.326097 0
M  V30 4599 C 427.719 -6.03944 -0.932443 0
M  V30 4600 C 428.717 -6.8207 -0.356247 0
M  V30 4601 O 428.405 -8.03691 0.183412 0
M  V30 4602 H 428.137 -0.600796 -0.309872 0
M  V30 4603 H 430.691 -2.02932 -0.317468 0
M  V30 4604 H 428.921 -2.67975 -2.78794 0
M  V30 4605 H 430.61 -3.07506 -2.64943 0
M  V30 4606 H 431.376 -4.77661 -0.840521 0
M  V30 4607 H 427.255 -4.1919 -1.91835 0
M  V30 4608 H 430.799 -6.97489 0.124286 0
M  V30 4609 H 426.696 -6.3833 -0.959407 0
M  V30 4610 H 427.464 -8.18468 0.0721681 0
M  V30 4611 N 430.127 0.543554 -1.4793 0
M  V30 4612 C 431.077 1.64527 -1.57844 0
M  V30 4613 C 432.061 1.54869 -0.436408 0
M  V30 4614 O 433.253 1.63119 -0.687101 0
M  V30 4615 C 430.382 3.03281 -1.6086 0
M  V30 4616 C 429.468 3.18093 -2.80495 0
M  V30 4617 N 429.859 3.02923 -4.05057 0
M  V30 4618 C 428.157 3.49121 -2.77543 0
M  V30 4619 C 428.858 3.20791 -4.85251 0
M  V30 4620 N 427.834 3.47749 -4.17818 0
M  V30 4621 H 431.636 1.51388 -2.5191 0
M  V30 4622 H 429.15 0.748671 -1.44113 0
M  V30 4623 H 431.147 3.82403 -1.66054 0
M  V30 4624 H 429.807 3.17521 -0.678996 0
M  V30 4625 H 430.818 2.79966 -4.35705 0
M  V30 4626 H 427.495 3.69804 -1.93781 0
M  V30 4627 H 428.885 3.13915 -5.9406 0
M  V30 4628 N 431.605 1.3629 0.791371 0
M  V30 4629 C 432.568 1.30309 1.88553 0
M  V30 4630 C 433.568 0.211204 1.59407 0
M  V30 4631 O 434.758 0.465865 1.67855 0
M  V30 4632 C 431.89 1.01956 3.25297 0
M  V30 4633 H 433.083 2.27614 1.95273 0
M  V30 4634 H 430.636 1.21035 0.988953 0
M  V30 4635 H 431.371 0.050998 3.2426 0
M  V30 4636 H 431.156 1.80968 3.4784 0
M  V30 4637 H 432.646 1.0037 4.05359 0
M  V30 4638 N 433.083 -1.0153 1.20538 0
M  V30 4639 C 434.033 -2.08482 0.922991 0
M  V30 4640 C 435.017 -1.60469 -0.117702 0
M  V30 4641 O 436.209 -1.76772 0.0898465 0
M  V30 4642 C 433.338 -3.39952 0.478312 0
M  V30 4643 C 432.424 -3.94662 1.5525 0
M  V30 4644 N 432.815 -4.22866 2.77521 0
M  V30 4645 C 431.113 -4.22825 1.41897 0
M  V30 4646 C 431.814 -4.67002 3.4682 0
M  V30 4647 N 430.79 -4.69356 2.74237 0
M  V30 4648 H 434.592 -2.28199 1.85209 0
M  V30 4649 H 432.106 -1.19512 1.09957 0
M  V30 4650 H 434.103 -4.16105 0.257408 0
M  V30 4651 H 432.763 -3.21648 -0.444148 0
M  V30 4652 H 433.774 -4.11732 3.1416 0
M  V30 4653 H 430.451 -4.13714 0.561015 0
M  V30 4654 H 431.841 -4.97632 4.51455 0
M  V30 4655 N 434.561 -1.01147 -1.20859 0
M  V30 4656 C 435.491 -0.597663 -2.25722 0
M  V30 4657 C 436.472 0.384744 -1.65692 0
M  V30 4658 O 437.657 0.271303 -1.92296 0
M  V30 4659 C 434.787 0.0700149 -3.47229 0
M  V30 4660 C 433.741 -0.832843 -4.19819 0
M  V30 4661 C 433.067 -0.0312202 -5.34691 0
M  V30 4662 C 434.367 -2.1385 -4.76514 0
M  V30 4663 H 436.061 -1.47423 -2.60589 0
M  V30 4664 H 433.607 -0.710301 -1.25263 0
M  V30 4665 H 435.56 0.37103 -4.19763 0
M  V30 4666 H 434.284 0.981259 -3.11511 0
M  V30 4667 H 432.943 -1.11778 -3.49144 0
M  V30 4668 H 432.591 0.881515 -4.95215 0
M  V30 4669 H 432.291 -0.632434 -5.84187 0
M  V30 4670 H 433.815 0.26346 -6.10031 0
M  V30 4671 H 435.229 -1.9002 -5.40893 0
M  V30 4672 H 433.626 -2.69012 -5.36426 0
M  V30 4673 H 434.696 -2.80495 -3.95538 0
M  V30 4674 N 436.039 1.36541 -0.78704 0
M  V30 4675 C 437.316 1.9355 -0.282424 0
M  V30 4676 C 437.696 1.71919 1.22503 0
M  V30 4677 O 437.044 1.07677 2.01539 0
M  V30 4678 C 437.254 3.4246 -0.672462 0
M  V30 4679 C 438.602 4.19582 -0.650863 0
M  V30 4680 O 439.626 3.50889 -0.612789 0
M  V30 4681 O 438.485 5.42106 -0.691623 0
M  V30 4682 H 435.579 0.824091 -0.0693 0
M  V30 4683 H 438.125 1.45736 -0.869423 0
M  V30 4684 H 436.897 3.51851 -1.71221 0
M  V30 4685 H 436.52 3.97556 -0.0592211 0
M  V30 4686 N 437.518 0.538854 1.48102 0
M  V30 4687 C 438.767 0.0059532 2.01699 0
M  V30 4688 C 439.08 -1.34476 1.42041 0
M  V30 4689 O 440.286 -1.96653 1.87189 0
M  V30 4690 C 438.742 -0.0397627 3.59878 0
M  V30 4691 C 438.35 1.30659 4.28523 0
M  V30 4692 C 440.094 -0.521024 4.2129 0
M  V30 4693 C 438.001 1.22098 5.78659 0
M  V30 4694 H 436.931 -0.00154456 0.753998 0
M  V30 4695 H 439.582 0.683963 1.70277 0
M  V30 4696 H 437.964 -0.783037 3.88181 0
M  V30 4697 H 439.138 2.06613 4.11883 0
M  V30 4698 H 437.453 1.7243 3.79021 0
M  V30 4699 H 440.05 -0.603184 5.31287 0
M  V30 4700 H 440.393 -1.52885 3.8721 0
M  V30 4701 H 440.926 0.166834 3.9745 0
M  V30 4702 H 437.665 2.20424 6.17328 0
M  V30 4703 H 437.185 0.50295 5.97688 0
M  V30 4704 H 438.864 0.915345 6.40492 0
M  V30 4705 N 438.996 -1.55193 0.274407 0
M  V30 4706 C 439.906 -2.26164 -0.623473 0
M  V30 4707 C 440.922 -1.28729 -1.17068 0
M  V30 4708 O 442.098 -1.61663 -1.20112 0
M  V30 4709 C 439.163 -2.96833 -1.7914 0
M  V30 4710 C 438.224 -4.09745 -1.28093 0
M  V30 4711 C 437.457 -4.77034 -2.3932 0
M  V30 4712 O 437.68 -4.4353 -3.5866 0
M  V30 4713 O 436.614 -5.64996 -2.07516 0
M  V30 4714 H 440.44 -3.03661 -0.0485661 0
M  V30 4715 H 438.025 -1.49341 0.0418382 0
M  V30 4716 H 439.907 -3.41248 -2.4724 0
M  V30 4717 H 438.582 -2.22253 -2.35341 0
M  V30 4718 H 437.489 -3.69787 -0.566416 0
M  V30 4719 H 438.822 -4.86224 -0.764683 0
M  V30 4720 N 440.474 -0.00167713 -1.576 0
M  V30 4721 C 441.437 0.974046 -2.07473 0
M  V30 4722 C 442.437 1.27143 -0.984444 0
M  V30 4723 O 443.627 1.21633 -1.24703 0
M  V30 4724 C 440.759 2.29849 -2.51759 0
M  V30 4725 H 441.952 0.54262 -2.9495 0
M  V30 4726 H 439.505 0.245829 -1.54355 0
M  V30 4727 H 440.24 2.77677 -1.67529 0
M  V30 4728 H 440.025 2.09584 -3.31386 0
M  V30 4729 H 441.515 2.9984 -2.90664 0
M  V30 4730 N 441.952 1.55251 0.271103 0
M  V30 4731 C 443.199 1.75946 1.00245 0
M  V30 4732 C 443.527 0.561611 1.86215 0
M  V30 4733 O 442.782 -0.455832 1.90317 0
M  V30 4734 C 443.081 3.01879 1.91321 0
M  V30 4735 C 442.747 4.34337 1.21086 0
M  V30 4736 C 441.409 4.70338 1.01666 0
M  V30 4737 C 443.761 5.16325 0.71119 0
M  V30 4738 C 441.089 5.8588 0.310099 0
M  V30 4739 C 443.441 6.32597 0.0182157 0
M  V30 4740 C 442.105 6.67236 -0.18768 0
M  V30 4741 H 441.375 0.643833 0.366824 0
M  V30 4742 H 444.022 1.89521 0.27458 0
M  V30 4743 H 442.327 2.83212 2.70736 0
M  V30 4744 H 444.024 3.15088 2.48033 0
M  V30 4745 H 440.614 4.06043 1.37213 0
M  V30 4746 H 444.798 4.88987 0.848844 0
M  V30 4747 H 440.054 6.1124 0.139873 0
M  V30 4748 H 444.228 6.9538 -0.376711 0
M  V30 4749 H 441.855 7.56618 -0.73715 0
M  V30 4750 N 443.43 -0.535701 1.48216 0
M  V30 4751 C 444.658 -1.31671 1.59594 0
M  V30 4752 C 445.073 -1.87083 0.254056 0
M  V30 4753 O 444.43 -1.66112 -0.755854 0
M  V30 4754 C 444.481 -2.47158 2.63809 0
M  V30 4755 O 444.202 -1.94032 3.92789 0
M  V30 4756 C 445.703 -3.39062 2.85573 0
M  V30 4757 H 442.923 -0.400623 0.538277 0
M  V30 4758 H 445.467 -0.646827 1.94001 0
M  V30 4759 H 443.622 -3.10043 2.32276 0
M  V30 4760 H 444.036 -2.69585 4.49916 0
M  V30 4761 H 445.51 -4.16459 3.62306 0
M  V30 4762 H 445.987 -3.93941 1.94184 0
M  V30 4763 H 446.593 -2.81975 3.18387 0
M  V30 4764 N 444.908 -1.36708 -0.784132 0
M  V30 4765 C 445.841 -1.25827 -1.90375 0
M  V30 4766 C 446.819 -0.141331 -1.61985 0
M  V30 4767 O 448.003 -0.313389 -1.85877 0
M  V30 4768 C 445.13 -0.942621 -3.25319 0
M  V30 4769 C 444.176 -2.07474 -3.72635 0
M  V30 4770 S 445.009 -3.69317 -3.8777 0
M  V30 4771 C 446.165 -3.39876 -5.25581 0
M  V30 4772 H 446.398 -2.20593 -1.99314 0
M  V30 4773 H 443.931 -1.22186 -0.943926 0
M  V30 4774 H 445.889 -0.767321 -4.03265 0
M  V30 4775 H 444.55 -0.0126566 -3.14097 0
M  V30 4776 H 443.743 -1.80858 -4.70432 0
M  V30 4777 H 443.345 -2.20953 -3.01754 0
M  V30 4778 H 445.637 -2.94097 -6.10339 0
M  V30 4779 H 446.58 -4.36956 -5.57203 0
M  V30 4780 H 446.988 -2.75098 -4.92931 0
M  V30 4781 N 446.386 1.0089 -1.21074 0
M  V30 4782 C 447.663 1.71834 -0.934469 0
M  V30 4783 C 448.043 2.0368 0.554753 0
M  V30 4784 O 447.391 1.70742 1.51854 0
M  V30 4785 C 447.601 2.98061 -1.8155 0
M  V30 4786 C 448.949 3.7117 -2.06199 0
M  V30 4787 O 449.973 3.08034 -1.78867 0
M  V30 4788 O 448.832 4.84721 -2.52404 0
M  V30 4789 H 445.926 0.749253 -0.35007 0
M  V30 4790 H 448.472 1.06668 -1.31985 0
M  V30 4791 H 447.244 2.70908 -2.82355 0
M  V30 4792 H 446.867 3.70968 -1.43068 0
M  V30 4793 N 447.864 1.01787 1.20321 0
M  V30 4794 C 449.28 0.732951 1.41774 0
M  V30 4795 C 449.48 -0.686883 1.89431 0
M  V30 4796 O 448.536 -1.45446 2.06402 0
M  V30 4797 C 449.849 1.75973 2.43832 0
M  V30 4798 C 451.397 1.77802 2.57596 0
M  V30 4799 C 451.872 2.7941 3.62897 0
M  V30 4800 N 453.363 2.78157 3.70382 0
M  V30 4801 C 454.098 3.53434 4.51521 0
M  V30 4802 N 453.594 4.38392 5.36455 0
M  V30 4803 N 455.387 3.42026 4.46066 0
M  V30 4804 H 447.538 1.93447 0.877035 0
M  V30 4805 H 449.801 0.835712 0.447536 0
M  V30 4806 H 449.507 2.77699 2.15815 0
M  V30 4807 H 449.381 1.57292 3.4284 0
M  V30 4808 H 451.768 0.767602 2.84942 0
M  V30 4809 H 451.849 2.00557 1.58779 0
M  V30 4810 H 451.493 3.80616 3.36295 0
M  V30 4811 H 451.423 2.53916 4.61339 0
M  V30 4812 H 453.914 2.16531 3.09714 0
M  V30 4813 H 454.227 4.92596 5.95457 0
M  V30 4814 H 452.572 4.4247 5.35953 0
M  V30 4815 H 455.763 2.75075 3.78749 0
M  V30 4816 H 455.936 4.00946 5.09064 0
M  V30 4817 N 449.342 -1.36122 0.79427 0
M  V30 4818 C 450.252 -2.33769 0.197296 0
M  V30 4819 C 451.268 -1.61276 -0.653153 0
M  V30 4820 O 452.444 -1.9323 -0.5678 0
M  V30 4821 C 449.509 -3.40474 -0.654098 0
M  V30 4822 C 448.57 -4.28759 0.215411 0
M  V30 4823 C 447.803 -5.30368 -0.595443 0
M  V30 4824 O 448.026 -5.40211 -1.83107 0
M  V30 4825 O 446.96 -6.019 0.00721351 0
M  V30 4826 H 450.786 -2.86597 1.00478 0
M  V30 4827 H 448.371 -1.38676 0.555818 0
M  V30 4828 H 450.253 -4.05703 -1.13944 0
M  V30 4829 H 448.928 -2.89937 -1.43938 0
M  V30 4830 H 447.835 -3.66554 0.747615 0
M  V30 4831 H 449.168 -4.82661 0.964332 0
M  V30 4832 N 450.82 -0.546701 -1.47814 0
M  V30 4833 C 452.066 -0.0187684 -2.02791 0
M  V30 4834 C 452.399 1.32338 -1.42128 0
M  V30 4835 O 451.674 1.85867 -0.573023 0
M  V30 4836 C 451.957 0.0854985 -3.59998 0
M  V30 4837 C 451.81 -1.283 -4.31114 0
M  V30 4838 C 453.129 0.80412 -4.32691 0
M  V30 4839 H 450.248 -0.0082946 -0.736953 0
M  V30 4840 H 452.89 -0.706962 -1.76358 0
M  V30 4841 H 451.04 0.671609 -3.82651 0
M  V30 4842 H 452.712 -1.91151 -4.19832 0
M  V30 4843 H 450.955 -1.86049 -3.91878 0
M  V30 4844 H 451.626 -1.16287 -5.39612 0
M  V30 4845 H 454.102 0.306576 -4.14969 0
M  V30 4846 H 452.978 0.846011 -5.42341 0
M  V30 4847 H 453.239 1.85802 -4.01161 0
M  V30 4848 N 452.299 1.55045 -0.282633 0
M  V30 4849 C 453.715 1.59441 0.0712997 0
M  V30 4850 C 453.915 1.2998 1.53972 0
M  V30 4851 O 452.971 1.06431 2.28973 0
M  V30 4852 C 454.284 2.99097 -0.310104 0
M  V30 4853 C 455.832 3.1194 -0.257343 0
M  V30 4854 C 456.307 4.53875 -0.613297 0
M  V30 4855 N 457.798 4.5974 -0.565134 0
M  V30 4856 C 458.533 5.67603 -0.81326 0
M  V30 4857 N 458.029 6.83582 -1.1264 0
M  V30 4858 N 459.822 5.57187 -0.741553 0
M  V30 4859 H 451.973 1.72458 -1.23984 0
M  V30 4860 H 454.236 0.804549 -0.501403 0
M  V30 4861 H 453.942 3.25516 -1.33163 0
M  V30 4862 H 453.816 3.75616 0.345366 0
M  V30 4863 H 456.203 2.85281 0.754905 0
M  V30 4864 H 456.284 2.37618 -0.947178 0
M  V30 4865 H 455.928 4.81261 -1.62327 0
M  V30 4866 H 455.858 5.26508 0.09841 0
M  V30 4867 H 458.349 3.76427 -0.333294 0
M  V30 4868 H 458.662 7.6175 -1.30219 0
M  V30 4869 H 457.007 6.85179 -1.16425 0
M  V30 4870 H 460.198 4.65457 -0.496705 0
M  V30 4871 H 460.371 6.41171 -0.938306 0
M  V30 4872 N 453.777 0.010035 1.57597 0
M  V30 4873 C 454.724 -0.978122 2.09049 0
M  V30 4874 C 455.694 -1.33509 0.988159 0
M  V30 4875 O 456.879 -1.43172 1.26121 0
M  V30 4876 C 454.019 -2.26158 2.60666 0
M  V30 4877 C 453.132 -1.96275 3.84838 0
M  V30 4878 C 452.267 -3.18776 4.24918 0
M  V30 4879 C 451.306 -2.84625 5.41899 0
M  V30 4880 N 450.443 -3.99693 5.77226 0
M  V30 4881 H 455.283 -0.532431 2.93205 0
M  V30 4882 H 452.82 -0.251234 1.44939 0
M  V30 4883 H 454.778 -3.01202 2.88675 0
M  V30 4884 H 453.408 -2.68378 1.79369 0
M  V30 4885 H 452.46 -1.11555 3.63675 0
M  V30 4886 H 453.772 -1.67111 4.69974 0
M  V30 4887 H 452.926 -4.02157 4.54262 0
M  V30 4888 H 451.665 -3.51087 3.38511 0
M  V30 4889 H 450.67 -1.99653 5.12268 0
M  V30 4890 H 451.895 -2.53551 6.29991 0
M  V30 4891 H 449.841 -4.31882 4.93776 0
M  V30 4892 H 449.758 -3.74087 6.56959 0
M  V30 4893 H 451.026 -4.83834 6.11167 0
M  V30 4894 N 455.255 -1.55392 -0.262866 0
M  V30 4895 C 456.504 -1.75679 -0.990943 0
M  V30 4896 C 456.817 -0.57097 -1.87081 0
M  V30 4897 O 458.023 -0.656486 -2.63444 0
M  V30 4898 C 456.479 -3.10964 -1.81188 0
M  V30 4899 C 456.087 -4.37146 -0.980188 0
M  V30 4900 C 457.831 -3.40597 -2.53365 0
M  V30 4901 C 455.738 -5.63466 -1.7961 0
M  V30 4902 H 454.668 -0.654868 -0.373716 0
M  V30 4903 H 457.319 -1.81841 -0.246203 0
M  V30 4904 H 455.701 -2.98867 -2.59797 0
M  V30 4905 H 456.875 -4.60187 -0.237558 0
M  V30 4906 H 455.19 -4.14731 -0.372497 0
M  V30 4907 H 457.787 -4.32186 -3.14833 0
M  V30 4908 H 458.13 -2.6119 -3.24169 0
M  V30 4909 H 458.663 -3.53838 -1.81779 0
M  V30 4910 H 455.402 -6.4565 -1.13209 0
M  V30 4911 H 454.922 -5.44552 -2.51443 0
M  V30 4912 H 456.601 -6.02139 -2.36723 0
M  V30 4913 N 456.733 0.527833 -1.48498 0
M  V30 4914 C 457.68 1.6322 -1.6318 0
M  V30 4915 C 458.65 1.59199 -0.473815 0
M  V30 4916 O 459.835 1.77591 -0.697563 0
M  V30 4917 C 456.975 3.01474 -1.67951 0
M  V30 4918 C 456.088 3.15713 -2.94871 0
M  V30 4919 C 455.223 4.44539 -2.90789 0
M  V30 4920 C 454.262 4.52315 -4.12404 0
M  V30 4921 N 453.399 5.72533 -4.06387 0
M  V30 4922 H 458.239 1.50011 -2.57489 0
M  V30 4923 H 455.776 0.730298 -1.27691 0
M  V30 4924 H 457.734 3.81572 -1.68698 0
M  V30 4925 H 456.364 3.1345 -0.771306 0
M  V30 4926 H 455.416 2.28854 -3.03859 0
M  V30 4927 H 456.728 3.1732 -3.8485 0
M  V30 4928 H 455.882 5.3293 -2.89949 0
M  V30 4929 H 454.621 4.45457 -1.98542 0
M  V30 4930 H 453.626 3.62331 -4.13517 0
M  V30 4931 H 454.851 4.53134 -5.05812 0
M  V30 4932 H 452.797 5.74344 -3.16962 0
M  V30 4933 H 452.714 5.75643 -4.90073 0
M  V30 4934 H 453.982 6.63204 -4.0961 0
M  V30 4935 N 458.211 1.37122 0.776871 0
M  V30 4936 C 459.143 1.28342 1.89897 0
M  V30 4937 C 460.156 0.200277 1.61563 0
M  V30 4938 O 461.345 0.456012 1.72577 0
M  V30 4939 C 458.445 0.960427 3.25006 0
M  V30 4940 C 457.618 2.148 3.81025 0
M  V30 4941 C 456.677 1.79608 4.94598 0
M  V30 4942 O 455.703 2.51845 5.10454 0
M  V30 4943 N 456.905 0.737171 5.758 0
M  V30 4944 H 459.67 2.25027 1.97947 0
M  V30 4945 H 457.231 1.3068 0.955739 0
M  V30 4946 H 459.223 0.705942 3.98495 0
M  V30 4947 H 457.793 0.0823066 3.12492 0
M  V30 4948 H 457.013 2.56454 2.99374 0
M  V30 4949 H 458.301 2.9411 4.15183 0
M  V30 4950 H 457.699 0.137637 5.65533 0
M  V30 4951 H 456.256 0.542534 6.49538 0
M  V30 4952 N 459.689 -1.00246 1.21608 0
M  V30 4953 C 460.937 -1.73717 1.0328 0
M  V30 4954 C 461.258 -1.90102 -0.434318 0
M  V30 4955 O 460.528 -1.45376 -1.31311 0
M  V30 4956 H 459.108 -0.643613 0.379172 0
M  V30 4957 H 461.77 -1.20787 1.52959 0
M  V30 4958 H 460.866 -2.73535 1.50283 0
M  V30 4959 N 461.167 -1.02423 -1.1978 0
M  V30 4960 C 462.097 -0.62157 -2.25075 0
M  V30 4961 C 463.078 0.367148 -1.6609 0
M  V30 4962 O 464.263 0.250892 -1.92573 0
M  V30 4963 C 461.393 0.0331826 -3.47284 0
M  V30 4964 C 460.347 -0.877323 -4.18912 0
M  V30 4965 C 459.673 -0.0879296 -5.34628 0
M  V30 4966 C 460.973 -2.18892 -4.74219 0
M  V30 4967 H 462.667 -1.50179 -2.59011 0
M  V30 4968 H 460.213 -0.723547 -1.24502 0
M  V30 4969 H 462.166 0.326488 -4.20133 0
M  V30 4970 H 460.89 0.948164 -3.12534 0
M  V30 4971 H 459.549 -1.15475 -3.47938 0
M  V30 4972 H 459.197 0.828941 -4.96123 0
M  V30 4973 H 458.897 -0.694359 -5.83483 0
M  V30 4974 H 460.421 0.198743 -6.10276 0
M  V30 4975 H 461.835 -1.95746 -5.38847 0
M  V30 4976 H 460.232 -2.74686 -5.33542 0
M  V30 4977 H 461.302 -2.84674 -3.92541 0
M  V30 4978 N 462.645 1.35699 -0.801477 0
M  V30 4979 C 463.893 1.9852 -0.37871 0
M  V30 4980 C 464.214 1.63907 1.05638 0
M  V30 4981 O 463.484 0.919013 1.73006 0
M  V30 4982 H 462.064 0.734322 -0.137042 0
M  V30 4983 H 464.726 1.65697 -1.02619 0
M  V30 4984 H 463.822 3.08382 -0.480284 0
M  V30 4985 N 464.123 0.554532 1.47522 0
M  V30 4986 C 465.053 -0.182974 2.32782 0
M  V30 4987 C 466.034 -0.911377 1.43624 0
M  V30 4988 O 467.219 -0.892366 1.72483 0
M  V30 4989 C 464.349 -1.21513 3.25349 0
M  V30 4990 C 463.303 -0.603355 4.23726 0
M  V30 4991 C 462.629 -1.73995 5.05598 0
M  V30 4992 C 463.929 0.441121 5.20434 0
M  V30 4993 H 465.623 0.52882 2.94693 0
M  V30 4994 H 463.169 0.255759 1.41711 0
M  V30 4995 H 465.122 -1.73922 3.83835 0
M  V30 4996 H 463.846 -1.95683 2.61487 0
M  V30 4997 H 462.505 -0.10059 3.66462 0
M  V30 4998 H 462.153 -2.47063 4.38143 0
M  V30 4999 H 461.853 -1.3364 5.72201 0
M  V30 5000 H 463.377 -2.26735 5.66942 0
M  V30 5001 H 464.791 0.00319931 5.733 0
M  V30 5002 H 463.188 0.763402 5.95224 0
M  V30 5003 H 464.258 1.33799 4.66075 0
M  V30 5004 N 465.601 -1.54893 0.290851 0
M  V30 5005 C 466.548 -2.23138 -0.58974 0
M  V30 5006 C 467.518 -1.21036 -1.13752 0
M  V30 5007 O 468.703 -1.49626 -1.18392 0
M  V30 5008 C 465.843 -2.96811 -1.76061 0
M  V30 5009 C 464.956 -4.13665 -1.24519 0
M  V30 5010 C 464.091 -4.74944 -2.3791 0
M  V30 5011 C 463.13 -5.83963 -1.83451 0
M  V30 5012 N 462.267 -6.39239 -2.90376 0
M  V30 5013 H 467.107 -2.98 -0.00114915 0
M  V30 5014 H 464.644 -1.47096 0.0112006 0
M  V30 5015 H 466.602 -3.37751 -2.44909 0
M  V30 5016 H 465.232 -2.24344 -2.32098 0
M  V30 5017 H 464.284 -3.77737 -0.449288 0
M  V30 5018 H 465.596 -4.92238 -0.806424 0
M  V30 5019 H 464.75 -5.18684 -3.14724 0
M  V30 5020 H 463.489 -3.95682 -2.85109 0
M  V30 5021 H 462.494 -5.39657 -1.05122 0
M  V30 5022 H 463.719 -6.65103 -1.37169 0
M  V30 5023 H 461.665 -5.62864 -3.36927 0
M  V30 5024 H 461.582 -7.13129 -2.50965 0
M  V30 5025 H 462.85 -6.87637 -3.67118 0
M  V30 5026 N 467.08 -0.0183926 -1.57589 0
M  V30 5027 C 468.327 0.662562 -1.91354 0
M  V30 5028 C 468.655 1.72747 -0.893788 0
M  V30 5029 O 467.91 1.9545 0.0988509 0
M  V30 5030 C 468.209 1.32676 -3.31861 0
M  V30 5031 C 467.875 0.393267 -4.49182 0
M  V30 5032 C 466.537 0.136302 -4.81007 0
M  V30 5033 C 468.889 -0.248366 -5.20608 0
M  V30 5034 C 466.217 -0.770282 -5.81621 0
M  V30 5035 C 468.569 -1.14294 -6.22189 0
M  V30 5036 C 467.233 -1.4089 -6.52462 0
M  V30 5037 H 466.503 0.242448 -0.700214 0
M  V30 5038 H 469.15 -0.0778629 -1.91342 0
M  V30 5039 H 467.455 2.14168 -3.28084 0
M  V30 5040 H 469.152 1.86001 -3.55253 0
M  V30 5041 H 465.742 0.603723 -4.24327 0
M  V30 5042 H 469.926 -0.062883 -4.9626 0
M  V30 5043 H 465.182 -0.984154 -6.03427 0
M  V30 5044 H 469.356 -1.64637 -6.76659 0
M  V30 5045 H 466.983 -2.11306 -7.30242 0
M  V30 5046 N 468.558 1.5553 0.254621 0
M  V30 5047 C 469.521 1.88872 1.29846 0
M  V30 5048 C 470.521 0.764591 1.41459 0
M  V30 5049 O 471.711 1.03265 1.40293 0
M  V30 5050 C 468.843 2.11032 2.67728 0
M  V30 5051 H 470.036 2.82201 1.01502 0
M  V30 5052 H 467.589 1.48303 0.493556 0
M  V30 5053 H 468.324 1.20146 3.01223 0
M  V30 5054 H 468.109 2.92895 2.60682 0
M  V30 5055 H 469.599 2.38038 3.43115 0
M  V30 5056 N 470.036 -0.519951 1.48776 0
M  V30 5057 C 470.946 -1.65025 1.66745 0
M  V30 5058 C 471.962 -1.6508 0.549954 0
M  V30 5059 O 473.138 -1.83848 0.822295 0
M  V30 5060 C 470.203 -3.0146 1.71238 0
M  V30 5061 C 469.264 -3.12182 2.94688 0
M  V30 5062 C 468.497 -4.42109 2.98958 0
M  V30 5063 O 468.72 -5.29799 2.1135 0
M  V30 5064 O 467.654 -4.57406 3.91233 0
M  V30 5065 H 471.48 -1.52801 2.62461 0
M  V30 5066 H 469.065 -0.694157 1.32294 0
M  V30 5067 H 470.947 -3.82584 1.76657 0
M  V30 5068 H 469.622 -3.13988 0.786975 0
M  V30 5069 H 468.529 -2.30316 2.94797 0
M  V30 5070 H 469.862 -3.04574 3.86646 0
M  V30 5071 N 471.514 -1.37532 -0.769588 0
M  V30 5072 C 472.444 -1.36172 -1.89682 0
M  V30 5073 C 473.425 -0.23001 -1.68538 0
M  V30 5074 O 474.61 -0.43069 -1.89364 0
M  V30 5075 C 471.74 -1.1701 -3.26995 0
M  V30 5076 C 470.694 -2.27216 -3.62708 0
M  V30 5077 C 470.02 -1.93174 -4.98586 0
M  V30 5078 C 471.32 -3.6941 -3.69234 0
M  V30 5079 H 473.014 -2.30499 -1.91078 0
M  V30 5080 H 470.56 -1.10953 -0.917902 0
M  V30 5081 H 472.513 -1.14688 -4.05493 0
M  V30 5082 H 471.237 -0.191395 -3.26039 0
M  V30 5083 H 469.896 -2.28697 -2.86519 0
M  V30 5084 H 469.544 -0.938281 -4.94171 0
M  V30 5085 H 469.244 -2.66973 -5.23449 0
M  V30 5086 H 470.768 -1.92443 -5.79481 0
M  V30 5087 H 472.182 -3.70047 -4.37879 0
M  V30 5088 H 470.579 -4.4228 -4.05597 0
M  V30 5089 H 471.649 -4.0288 -2.69844 0
M  V30 5090 N 472.992 0.995999 -1.22138 0
M  V30 5091 C 474.238 1.73767 -1.04561 0
M  V30 5092 C 474.571 1.89633 0.418698 0
M  V30 5093 O 473.846 1.43723 1.3105 0
M  V30 5094 C 474.129 3.14505 -1.75382 0
M  V30 5095 C 473.982 3.06306 -3.29388 0
M  V30 5096 C 475.301 4.13615 -1.50369 0
M  V30 5097 H 472.42 0.630728 -0.38125 0
M  V30 5098 H 475.062 1.16057 -1.50435 0
M  V30 5099 H 473.212 3.63775 -1.36383 0
M  V30 5100 H 474.884 2.64681 -3.77812 0
M  V30 5101 H 473.127 2.43186 -3.59226 0
M  V30 5102 H 473.798 4.05884 -3.74116 0
M  V30 5103 H 476.274 3.73089 -1.84239 0
M  V30 5104 H 475.15 5.10212 -2.02421 0
M  V30 5105 H 475.411 4.39949 -0.435611 0
M  V30 5106 N 474.47 1.03057 1.19235 0
M  V30 5107 C 475.7 0.746613 1.92638 0
M  V30 5108 C 476.108 -0.698708 1.75826 0
M  V30 5109 O 475.451 -1.487 1.07861 0
M  V30 5110 C 475.513 1.02024 3.44719 0
M  V30 5111 C 475.177 2.45745 3.85303 0
M  V30 5112 C 476.174 3.43887 3.8992 0
M  V30 5113 C 473.859 2.8019 4.16892 0
M  V30 5114 C 475.853 4.74529 4.2556 0
M  V30 5115 C 473.54 4.1104 4.52205 0
M  V30 5116 C 474.538 5.0802 4.56513 0
M  V30 5117 O 474.226 6.36527 4.91008 0
M  V30 5118 H 473.958 0.272401 0.618687 0
M  V30 5119 H 476.512 1.37853 1.52269 0
M  V30 5120 H 474.742 0.331184 3.85279 0
M  V30 5121 H 476.431 0.725677 3.9936 0
M  V30 5122 H 477.197 3.18614 3.65664 0
M  V30 5123 H 473.076 2.05382 4.12722 0
M  V30 5124 H 476.62 5.50222 4.28838 0
M  V30 5125 H 472.517 4.36086 4.7592 0
M  V30 5126 H 473.285 6.41025 5.08949 0
M  V30 5127 N 475.948 -1.35272 0.808662 0
M  V30 5128 C 477.176 -2.02946 0.402537 0
M  V30 5129 C 477.591 -1.60937 -0.987147 0
M  V30 5130 O 476.948 -0.807917 -1.63643 0
M  V30 5131 C 476.999 -3.58317 0.47868 0
M  V30 5132 O 476.72 -3.98799 1.81358 0
M  V30 5133 C 478.221 -4.43251 0.0656281 0
M  V30 5134 H 475.441 -0.650831 0.163279 0
M  V30 5135 H 477.985 -1.72849 1.09286 0
M  V30 5136 H 476.14 -3.87055 -0.163415 0
M  V30 5137 H 476.554 -4.93451 1.77781 0
M  V30 5138 H 478.028 -5.51738 0.170017 0
M  V30 5139 H 478.505 -4.27913 -0.989278 0
M  V30 5140 H 479.111 -4.19813 0.68096 0
M  V30 5141 N 477.426 -0.562348 -1.47226 0
M  V30 5142 C 478.674 -0.0401371 -2.0206 0
M  V30 5143 C 478.995 1.3165 -1.43852 0
M  V30 5144 O 478.265 1.85976 -0.615599 0
M  V30 5145 H 476.845 -0.0118479 -0.746906 0
M  V30 5146 H 479.507 -0.73352 -1.8057 0
M  V30 5147 H 478.603 0.0441254 -3.12069 0
M  V30 5148 N 478.904 1.54736 -0.299062 0
M  V30 5149 C 480.151 2.00101 0.310784 0
M  V30 5150 C 480.479 1.18746 1.54045 0
M  V30 5151 O 479.734 0.251198 1.94081 0
M  V30 5152 C 480.033 3.50199 0.713835 0
M  V30 5153 C 479.699 4.48997 -0.413873 0
M  V30 5154 C 478.361 4.7573 -0.723462 0
M  V30 5155 C 480.713 5.07839 -1.17257 0
M  V30 5156 C 478.041 5.5857 -1.79491 0
M  V30 5157 C 480.393 5.91844 -2.23392 0
M  V30 5158 C 479.057 6.16889 -2.54959 0
M  V30 5159 H 478.327 0.732221 0.113724 0
M  V30 5160 H 480.974 1.86888 -0.417756 0
M  V30 5161 H 479.279 3.61012 1.52243 0
M  V30 5162 H 480.976 3.82723 1.19684 0
M  V30 5163 H 477.566 4.28292 -0.162476 0
M  V30 5164 H 481.75 4.87188 -0.946651 0
M  V30 5165 H 477.006 5.76213 -2.04423 0
M  V30 5166 H 481.18 6.36465 -2.8264 0
M  V30 5167 H 478.807 6.80869 -3.38114 0
M  V30 5168 N 480.382 0.0267497 1.57577 0
M  V30 5169 C 481.628 -0.647596 1.92815 0
M  V30 5170 C 481.983 -1.69872 0.903396 0
M  V30 5171 O 481.276 -1.91429 -0.0808881 0
M  V30 5172 C 481.47 -1.30914 3.3256 0
M  V30 5173 C 481.299 -0.323621 4.48534 0
M  V30 5174 C 480.069 0.0756607 5.05243 0
M  V30 5175 C 482.267 0.42112 5.12573 0
M  V30 5176 N 480.249 1.0566 6.04739 0
M  V30 5177 C 481.62 1.25589 6.07147 0
M  V30 5178 C 483.675 0.482077 4.95561 0
M  V30 5179 C 482.378 2.1461 6.86538 0
M  V30 5180 C 484.404 1.35962 5.75559 0
M  V30 5181 C 483.766 2.18217 6.69747 0
M  V30 5182 H 479.865 -0.209357 0.753454 0
M  V30 5183 H 482.449 0.0933695 1.94476 0
M  V30 5184 H 480.62 -2.02026 3.31723 0
M  V30 5185 H 482.352 -1.94033 3.55153 0
M  V30 5186 H 479.107 -0.298294 4.7266 0
M  V30 5187 H 479.531 1.54324 6.59176 0
M  V30 5188 H 484.173 -0.139609 4.22569 0
M  V30 5189 H 481.891 2.77835 7.58837 0
M  V30 5190 H 485.477 1.41105 5.6443 0
M  V30 5191 H 484.357 2.85022 7.3057 0
M  V30 5192 N 481.861 -1.55662 -0.24637 0
M  V30 5193 C 482.811 -1.86753 -1.30795 0
M  V30 5194 C 483.795 -0.728445 -1.43466 0
M  V30 5195 O 484.987 -0.99038 -1.46699 0
M  V30 5196 C 482.116 -2.16618 -2.66329 0
M  V30 5197 C 481.202 -3.36855 -2.57661 0
M  V30 5198 N 481.593 -4.56111 -2.18624 0
M  V30 5199 C 479.891 -3.39976 -2.88673 0
M  V30 5200 C 480.592 -5.38247 -2.20601 0
M  V30 5201 N 479.568 -4.77322 -2.60124 0
M  V30 5202 H 483.37 -2.76486 -0.996642 0
M  V30 5203 H 480.884 -1.55896 -0.454994 0
M  V30 5204 H 482.881 -2.37057 -3.42942 0
M  V30 5205 H 481.541 -1.28185 -2.98327 0
M  V30 5206 H 482.552 -4.81726 -1.9016 0
M  V30 5207 H 479.229 -2.61815 -3.25206 0
M  V30 5208 H 480.619 -6.43657 -1.92756 0
M  V30 5209 N 483.339 0.512053 -1.4905 0
M  V30 5210 C 484.564 1.2959 -1.6193 0
M  V30 5211 C 484.989 1.85906 -0.286454 0
M  V30 5212 O 484.347 1.65312 0.744426 0
M  V30 5213 C 484.395 2.40987 -2.68249 0
M  V30 5214 O 483.499 3.44531 -2.26654 0
M  V30 5215 H 482.84 0.383053 -0.542371 0
M  V30 5216 H 485.37 0.614231 -1.95162 0
M  V30 5217 H 485.38 2.86913 -2.90078 0
M  V30 5218 H 484.055 1.99361 -3.65004 0
M  V30 5219 H 482.632 3.046 -2.15112 0
M  V30 5220 N 484.817 1.37938 0.762283 0
M  V30 5221 C 486.228 1.30094 1.33912 0
M  V30 5222 C 486.579 -0.0472026 1.96143 0
M  V30 5223 O 485.704 -0.94917 1.94473 0
M  V30 5224 C 486.299 2.35592 2.43478 0
M  V30 5225 C 484.858 2.31353 2.96905 0
M  V30 5226 C 484.005 2.18919 1.70205 0
M  V30 5227 H 486.956 1.48423 0.561816 0
M  V30 5228 H 486.977 2.00806 3.23199 0
M  V30 5229 H 486.489 3.33701 1.98155 0
M  V30 5230 H 484.59 1.36799 3.46579 0
M  V30 5231 H 484.703 3.25147 3.51875 0
M  V30 5232 H 483.067 1.65624 1.93496 0
M  V30 5233 H 483.85 3.18956 1.26973 0
M  V30 5234 N 486.295 -0.989507 1.22664 0
M  V30 5235 C 487.205 -2.11449 1.01619 0
M  V30 5236 C 488.221 -1.73962 -0.036545 0
M  V30 5237 O 489.397 -2.00788 0.156924 0
M  V30 5238 C 486.462 -3.41465 0.600204 0
M  V30 5239 C 485.523 -3.93033 1.72695 0
M  V30 5240 C 484.756 -5.16844 1.33071 0
M  V30 5241 O 484.979 -5.7001 0.210975 0
M  V30 5242 O 483.913 -5.6225 2.14845 0
M  V30 5243 H 487.739 -2.32088 1.9588 0
M  V30 5244 H 485.324 -1.09823 1.01289 0
M  V30 5245 H 487.206 -4.19695 0.37873 0
M  V30 5246 H 485.881 -3.22178 -0.313511 0
M  V30 5247 H 484.788 -3.15961 2.00298 0
M  V30 5248 H 486.121 -4.16758 2.61865 0
M  V30 5249 N 487.773 -1.03688 -1.18687 0
M  V30 5250 C 489.013 -0.746858 -1.90267 0
M  V30 5251 C 489.377 0.712075 -1.78307 0
M  V30 5252 O 490.578 1.11553 -2.44559 0
M  V30 5253 C 488.849 -1.19543 -3.36815 0
M  V30 5254 S 490.408 -1.03047 -4.26529 0
M  V30 5255 H 487.226 -0.271663 -0.657054 0
M  V30 5256 H 489.828 -1.32838 -1.43437 0
M  V30 5257 H 488.532 -2.2527 -3.43047 0
M  V30 5258 H 488.063 -0.607533 -3.88681 0
M  V30 5259 H 490.078 0.0543232 -4.9617 0
M  V30 5260 N 489.251 1.34841 -0.815825 0
M  V30 5261 C 490.161 2.33425 -0.234462 0
M  V30 5262 C 491.177 1.62295 0.627413 0
M  V30 5263 O 492.353 1.94109 0.536987 0
M  V30 5264 C 489.418 3.41471 0.599849 0
M  V30 5265 C 488.479 4.28362 -0.283596 0
M  V30 5266 C 487.712 5.31248 0.51099 0
M  V30 5267 O 487.935 5.43056 1.7449 0
M  V30 5268 O 486.869 6.01812 -0.10297 0
M  V30 5269 H 490.695 2.84962 -1.05024 0
M  V30 5270 H 488.28 1.37774 -0.577809 0
M  V30 5271 H 490.162 4.07464 1.07475 0
M  V30 5272 H 488.837 2.9219 1.39308 0
M  V30 5273 H 487.744 3.65318 -0.805836 0
M  V30 5274 H 489.077 4.81066 -1.041 0
M  V30 5275 N 490.729 0.570148 1.46925 0
M  V30 5276 C 491.976 0.0509529 2.02436 0
M  V30 5277 C 492.304 -1.30405 1.44308 0
M  V30 5278 O 491.559 -1.86493 0.593198 0
M  V30 5279 C 491.858 -0.0780336 3.57315 0
M  V30 5280 C 491.524 1.20775 4.34424 0
M  V30 5281 C 490.186 1.56004 4.5521 0
M  V30 5282 C 492.538 2.0592 4.78797 0
M  V30 5283 C 489.866 2.76201 5.17619 0
M  V30 5284 C 492.218 3.25332 5.42533 0
M  V30 5285 C 490.882 3.60859 5.61549 0
M  V30 5286 H 490.152 0.018645 0.740765 0
M  V30 5287 H 492.799 0.744262 1.76445 0
M  V30 5288 H 491.104 -0.854394 3.82371 0
M  V30 5289 H 492.801 -0.495312 3.97929 0
M  V30 5290 H 489.391 0.923469 4.18533 0
M  V30 5291 H 493.575 1.80008 4.62505 0
M  V30 5292 H 488.831 3.0388 5.30535 0
M  V30 5293 H 493.005 3.91586 5.75876 0
M  V30 5294 H 490.632 4.54088 6.09678 0
M  V30 5295 N 492.207 -1.54576 0.307264 0
M  V30 5296 C 493.453 -2.0056 -0.300612 0
M  V30 5297 C 493.786 -1.1953 -1.53057 0
M  V30 5298 O 493.061 -0.27337 -1.92569 0
M  V30 5299 C 493.344 -3.54167 -0.650987 0
M  V30 5300 C 493.197 -4.45933 0.588539 0
M  V30 5301 C 494.516 -4.14645 -1.47506 0
M  V30 5302 H 491.635 -0.729075 -0.107788 0
M  V30 5303 H 494.277 -1.85286 0.420606 0
M  V30 5304 H 492.427 -3.67313 -1.26544 0
M  V30 5305 H 494.099 -4.44683 1.22697 0
M  V30 5306 H 492.342 -4.16274 1.22058 0
M  V30 5307 H 493.013 -5.51189 0.299153 0
M  V30 5308 H 495.489 -4.04973 -0.955821 0
M  V30 5309 H 494.365 -5.22269 -1.68899 0
M  V30 5310 H 494.626 -3.66921 -2.4662 0
M  V30 5311 N 493.685 -0.035106 -1.57561 0
M  V30 5312 C 495.101 0.321334 -1.56332 0
M  V30 5313 C 495.301 1.72509 -1.04129 0
M  V30 5314 O 494.357 2.4287 -0.690694 0
M  V30 5315 C 495.67 0.164469 -3.0025 0
M  V30 5316 C 497.218 0.236786 -3.12103 0
M  V30 5317 C 497.693 0.10864 -4.57871 0
M  V30 5318 N 499.184 0.165433 -4.62904 0
M  V30 5319 C 499.919 0.0901506 -5.73329 0
M  V30 5320 N 499.415 -0.0365606 -6.9279 0
M  V30 5321 N 501.208 0.144572 -5.61914 0
M  V30 5322 H 493.359 -0.952976 -1.89821 0
M  V30 5323 H 495.622 -0.368537 -0.873432 0
M  V30 5324 H 495.328 -0.802746 -3.42416 0
M  V30 5325 H 495.202 0.932194 -3.655 0
M  V30 5326 H 497.589 1.19446 -2.69845 0
M  V30 5327 H 497.67 -0.561419 -2.49563 0
M  V30 5328 H 497.314 -0.845644 -5.00811 0
M  V30 5329 H 497.244 0.925786 -5.18398 0
M  V30 5330 H 499.735 0.263269 -3.76982 0
M  V30 5331 H 500.048 -0.0871487 -7.72751 0
M  V30 5332 H 498.393 -0.0714256 -6.94963 0
M  V30 5333 H 501.584 0.242006 -4.67474 0
M  V30 5334 H 501.757 0.0824413 -6.47948 0
M  V30 5335 N 495.163 1.55791 0.238111 0
M  V30 5336 C 496.113 1.87444 1.29803 0
M  V30 5337 C 497.097 0.736043 1.43078 0
M  V30 5338 O 498.289 0.998146 1.46171 0
M  V30 5339 C 495.418 2.18028 2.65177 0
M  V30 5340 C 494.504 3.38217 2.55871 0
M  V30 5341 N 494.895 4.57264 2.16202 0
M  V30 5342 C 493.193 3.41502 2.86866 0
M  V30 5343 C 493.894 5.3941 2.17744 0
M  V30 5344 N 492.87 4.78695 2.57589 0
M  V30 5345 H 496.672 2.7701 0.981965 0
M  V30 5346 H 494.186 1.56135 0.44672 0
M  V30 5347 H 496.183 2.38873 3.4168 0
M  V30 5348 H 494.843 1.29765 2.97643 0
M  V30 5349 H 495.854 4.82727 1.87602 0
M  V30 5350 H 492.531 2.63536 3.23813 0
M  V30 5351 H 493.921 6.44671 1.89339 0
M  V30 5352 N 496.642 -0.504142 1.49319 0
M  V30 5353 C 497.882 -1.26867 1.60263 0
M  V30 5354 C 498.246 -1.89924 0.281578 0
M  V30 5355 O 499.447 -2.67479 0.266176 0
M  V30 5356 C 497.718 -2.30956 2.72753 0
M  V30 5357 S 499.277 -3.1679 3.03628 0
M  V30 5358 H 496.095 -0.431198 0.565322 0
M  V30 5359 H 498.697 -0.571407 1.86963 0
M  V30 5360 H 497.401 -1.83156 3.67263 0
M  V30 5361 H 496.932 -3.05356 2.48035 0
M  V30 5362 H 498.947 -4.31549 2.44908 0
M  V30 5363 N 498.12 -1.38341 -0.754957 0
M  V30 5364 C 499.369 -1.33791 -1.5094 0
M  V30 5365 C 499.682 0.0699267 -1.95475 0
M  V30 5366 O 500.888 0.237956 -2.70455 0
M  V30 5367 C 499.344 -2.34934 -2.72643 0
M  V30 5368 C 498.952 -3.81332 -2.35138 0
M  V30 5369 C 500.696 -2.39425 -3.50536 0
M  V30 5370 C 498.603 -4.74164 -3.53444 0
M  V30 5371 H 497.533 -0.497314 -0.566741 0
M  V30 5372 H 500.184 -1.63888 -0.825403 0
M  V30 5373 H 498.566 -1.97878 -3.43017 0
M  V30 5374 H 499.74 -4.27319 -1.7244 0
M  V30 5375 H 498.055 -3.79946 -1.70382 0
M  V30 5376 H 500.652 -3.0598 -4.38498 0
M  V30 5377 H 500.995 -1.41278 -3.91594 0
M  V30 5378 H 501.528 -2.75274 -2.87174 0
M  V30 5379 H 498.267 -5.73501 -3.17453 0
M  V30 5380 H 497.787 -4.3287 -4.15191 0
M  V30 5381 H 499.466 -4.92111 -4.20043 0
M  V30 5382 N 499.598 0.982988 -1.23187 0
M  V30 5383 C 500.561 2.05649 -1.01198 0
M  V30 5384 C 501.561 1.6078 0.0252464 0
M  V30 5385 O 502.751 1.72878 -0.214243 0
M  V30 5386 C 499.883 3.36744 -0.530656 0
M  V30 5387 H 501.076 2.2659 -1.96461 0
M  V30 5388 H 498.629 1.15602 -1.05195 0
M  V30 5389 H 499.364 3.21492 0.425873 0
M  V30 5390 H 499.149 3.7065 -1.2791 0
M  V30 5391 H 500.639 4.15705 -0.397366 0
M  V30 5392 N 501.076 1.04316 1.18135 0
M  V30 5393 C 502.023 0.636398 2.21853 0
M  V30 5394 C 502.993 -0.357039 1.62217 0
M  V30 5395 O 504.178 -0.250453 1.89149 0
M  V30 5396 C 501.318 0.00812779 3.45099 0
M  V30 5397 C 500.431 1.04933 4.19062 0
M  V30 5398 C 499.566 0.389313 5.29771 0
M  V30 5399 C 498.605 1.41544 5.9551 0
M  V30 5400 N 497.742 0.78021 6.97751 0
M  V30 5401 H 502.582 1.52536 2.56002 0
M  V30 5402 H 500.119 0.76304 1.25762 0
M  V30 5403 H 502.077 -0.373497 4.15525 0
M  V30 5404 H 500.707 -0.844336 3.11562 0
M  V30 5405 H 499.759 1.54888 3.47439 0
M  V30 5406 H 501.071 1.82862 4.64072 0
M  V30 5407 H 500.225 -0.0463805 6.06682 0
M  V30 5408 H 498.964 -0.422038 4.8587 0
M  V30 5409 H 497.969 1.86124 5.17337 0
M  V30 5410 H 499.194 2.22854 6.41493 0
M  V30 5411 H 497.14 -0.0107899 6.55999 0
M  V30 5412 H 497.057 1.49716 7.41027 0
M  V30 5413 H 498.325 0.368996 7.78626 0
M  V30 5414 N 502.554 -1.34406 0.822964 0
M  V30 5415 C 503.779 -2.0304 0.423034 0
M  V30 5416 C 504.204 -1.61568 -0.963196 0
M  V30 5417 O 503.562 -0.800339 -1.62678 0
M  V30 5418 C 503.61 -3.56636 0.53321 0
M  V30 5419 O 502.714 -4.09971 -0.446939 0
M  V30 5420 H 502.055 -0.64075 0.174171 0
M  V30 5421 H 504.585 -1.71653 1.11339 0
M  V30 5422 H 504.595 -4.05945 0.408991 0
M  V30 5423 H 503.27 -3.86168 1.54425 0
M  V30 5424 H 501.847 -3.71835 -0.281601 0
M  V30 5425 N 504.032 -0.577932 -1.46621 0
M  V30 5426 C 504.964 0.195801 -2.28362 0
M  V30 5427 C 505.977 0.859983 -1.38232 0
M  V30 5428 O 507.166 0.730349 -1.62875 0
M  V30 5429 C 504.266 1.29639 -3.13124 0
M  V30 5430 C 503.439 0.725049 -4.31349 0
M  V30 5431 C 502.498 1.71274 -4.97546 0
M  V30 5432 O 501.524 1.25067 -5.5529 0
M  V30 5433 N 502.726 3.04672 -4.94121 0
M  V30 5434 H 505.491 -0.505468 -2.95407 0
M  V30 5435 H 503.052 -0.415381 -1.56481 0
M  V30 5436 H 505.044 1.95631 -3.54275 0
M  V30 5437 H 503.614 1.90059 -2.48186 0
M  V30 5438 H 502.834 -0.112205 -3.9404 0
M  V30 5439 H 504.122 0.323034 -5.07774 0
M  V30 5440 H 503.52 3.4484 -4.48444 0
M  V30 5441 H 502.077 3.66166 -5.39227 0
M  V30 5442 N 505.51 1.54411 -0.315457 0
M  V30 5443 C 506.42 2.27737 0.56329 0
M  V30 5444 C 507.436 1.31787 1.13614 0
M  V30 5445 O 508.612 1.64791 1.15784 0
M  V30 5446 C 505.677 3.01478 1.71207 0
M  V30 5447 C 504.738 4.12997 1.17185 0
M  V30 5448 C 503.971 4.83212 2.26588 0
M  V30 5449 O 504.194 4.52884 3.46775 0
M  V30 5450 O 503.128 5.70299 1.92463 0
M  V30 5451 H 506.954 3.03683 -0.0319614 0
M  V30 5452 H 504.539 1.49178 -0.0814188 0
M  V30 5453 H 506.421 3.47683 2.38106 0
M  V30 5454 H 505.096 2.28414 2.29366 0
M  V30 5455 H 504.003 3.71159 0.468174 0
M  V30 5456 H 505.336 4.8808 0.635501 0
M  V30 5457 N 506.988 0.0434614 1.5754 0
M  V30 5458 C 508.404 -0.313039 1.565 0
M  V30 5459 C 508.604 -1.71954 1.05043 0
M  V30 5460 O 507.66 -2.425 0.703564 0
M  V30 5461 C 508.973 -0.148544 3.00333 0
M  V30 5462 C 510.521 -0.220231 3.12224 0
M  V30 5463 C 510.996 -0.0843565 4.57922 0
M  V30 5464 N 512.487 -0.140881 4.62986 0
M  V30 5465 C 513.222 -0.0597443 5.73369 0
M  V30 5466 N 512.718 0.0733004 6.92761 0
M  V30 5467 N 514.511 -0.11477 5.61983 0
M  V30 5468 H 506.662 0.96303 1.89313 0
M  V30 5469 H 508.925 0.373164 0.871466 0
M  V30 5470 H 508.631 0.820894 3.41986 0
M  V30 5471 H 508.505 -0.912798 3.65989 0
M  V30 5472 H 510.892 -1.18014 2.70475 0
M  V30 5473 H 510.973 0.574646 2.49262 0
M  V30 5474 H 510.617 0.872192 5.00355 0
M  V30 5475 H 510.547 -0.898281 5.18882 0
M  V30 5476 H 513.038 -0.243273 3.77116 0
M  V30 5477 H 513.351 0.128128 7.72694 0
M  V30 5478 H 511.696 0.10828 6.94916 0
M  V30 5479 H 514.887 -0.217212 4.67596 0
M  V30 5480 H 515.06 -0.0480779 6.47982 0
M  V30 5481 N 508.466 -1.55915 -0.229846 0
M  V30 5482 C 509.712 -1.78807 -0.956868 0
M  V30 5483 C 510.045 -0.611687 -1.84315 0
M  V30 5484 O 509.32 0.389398 -1.90562 0
M  V30 5485 C 509.603 -3.11718 -1.80288 0
M  V30 5486 C 509.456 -4.3979 -0.943649 0
M  V30 5487 C 510.775 -3.40999 -2.78222 0
M  V30 5488 H 507.894 -0.6505 -0.346437 0
M  V30 5489 H 510.536 -1.88648 -0.226252 0
M  V30 5490 H 508.686 -3.03459 -2.42579 0
M  V30 5491 H 510.358 -4.60059 -0.338121 0
M  V30 5492 H 508.601 -4.33086 -0.248705 0
M  V30 5493 H 509.272 -5.29208 -1.5698 0
M  V30 5494 H 511.748 -3.49332 -2.26067 0
M  V30 5495 H 510.624 -4.35183 -3.34526 0
M  V30 5496 H 510.885 -2.62754 -3.55546 0
M  V30 5497 N 509.944 0.496216 -1.49584 0
M  V30 5498 C 510.854 1.62352 -1.69349 0
M  V30 5499 C 511.87 1.64184 -0.576147 0
M  V30 5500 O 513.046 1.82517 -0.85144 0
M  V30 5501 C 510.111 2.98698 -1.76013 0
M  V30 5502 C 509.172 3.07454 -2.99617 0
M  V30 5503 C 508.405 4.37296 -3.05953 0
M  V30 5504 O 508.628 5.2637 -2.19752 0
M  V30 5505 O 507.562 4.51124 -3.9846 0
M  V30 5506 H 511.388 1.48606 -2.64859 0
M  V30 5507 H 508.973 0.673022 -1.33382 0
M  V30 5508 H 510.855 3.79725 -1.82721 0
M  V30 5509 H 509.53 3.12696 -0.836828 0
M  V30 5510 H 508.437 2.25597 -2.98424 0
M  V30 5511 H 509.77 2.98385 -3.91443 0
M  V30 5512 N 511.423 1.38739 0.74761 0
M  V30 5513 C 512.671 1.35007 1.50391 0
M  V30 5514 C 512.992 -0.0574274 1.94915 0
M  V30 5515 O 512.262 -1.00628 1.6808 0
M  V30 5516 H 510.842 0.496784 0.557866 0
M  V30 5517 H 513.504 1.73479 0.888319 0
M  V30 5518 H 512.6 2.00474 2.392 0
M  V30 5519 N 512.901 -0.976442 1.23707 0
M  V30 5520 C 513.848 -2.06952 1.02174 0
M  V30 5521 C 514.818 -1.65984 -0.0621034 0
M  V30 5522 O 516.003 -1.90584 0.0907906 0
M  V30 5523 C 513.143 -3.39425 0.62327 0
M  V30 5524 C 512.256 -3.9364 1.77966 0
M  V30 5525 C 511.391 -5.14343 1.3276 0
M  V30 5526 C 510.43 -5.60733 2.45449 0
M  V30 5527 N 509.567 -6.72662 2.01172 0
M  V30 5528 H 514.407 -2.24704 1.95734 0
M  V30 5529 H 511.944 -1.10143 0.975034 0
M  V30 5530 H 513.902 -4.15526 0.37332 0
M  V30 5531 H 512.532 -3.21624 -0.275329 0
M  V30 5532 H 511.584 -3.14258 2.14351 0
M  V30 5533 H 512.896 -4.24035 2.62671 0
M  V30 5534 H 512.05 -5.97789 1.03601 0
M  V30 5535 H 510.789 -4.8561 0.450975 0
M  V30 5536 H 509.794 -4.75865 2.75378 0
M  V30 5537 H 511.019 -5.91483 3.33654 0
M  V30 5538 H 508.965 -6.45681 1.15895 0
M  V30 5539 H 508.882 -7.02462 2.79434 0
M  V30 5540 H 510.15 -7.59572 1.75129 0
M  V30 5541 N 514.379 -1.04941 -1.1758 0
M  V30 5542 C 515.625 -0.759112 -1.88057 0
M  V30 5543 C 515.958 0.711918 -1.8068 0
M  V30 5544 O 515.233 1.52035 -1.21308 0
M  V30 5545 C 515.516 -1.237 -3.38187 0
M  V30 5546 C 515.369 -2.77078 -3.54327 0
M  V30 5547 C 516.688 -0.834014 -4.32125 0
M  V30 5548 H 513.807 -0.277237 -0.682868 0
M  V30 5549 H 516.449 -1.30296 -1.38286 0
M  V30 5550 H 514.599 -0.774337 -3.80705 0
M  V30 5551 H 516.271 -3.31449 -3.20842 0
M  V30 5552 H 514.514 -3.16477 -2.96689 0
M  V30 5553 H 515.185 -3.05577 -4.59703 0
M  V30 5554 H 517.661 -1.23228 -3.97434 0
M  V30 5555 H 516.537 -1.19603 -5.35711 0
M  V30 5556 H 516.798 0.262195 -4.41322 0
M  V30 5557 N 515.857 1.33968 -0.830081 0
M  V30 5558 C 516.789 2.28194 -0.21448 0
M  V30 5559 C 517.802 1.5135 0.599752 0
M  V30 5560 O 518.991 1.73286 0.42826 0
M  V30 5561 C 516.091 3.31221 0.717356 0
M  V30 5562 C 515.264 4.37365 -0.055613 0
M  V30 5563 C 514.323 5.2011 0.798231 0
M  V30 5564 O 513.349 5.68691 0.240616 0
M  V30 5565 N 514.551 5.40523 2.11695 0
M  V30 5566 H 517.316 2.81662 -1.02405 0
M  V30 5567 H 514.877 1.46568 -0.687713 0
M  V30 5568 H 516.869 3.83477 1.29334 0
M  V30 5569 H 515.439 2.78095 1.42765 0
M  V30 5570 H 514.659 3.85727 -0.812936 0
M  V30 5571 H 515.947 5.05397 -0.587444 0
M  V30 5572 H 515.345 5.0274 2.59363 0
M  V30 5573 H 513.902 5.95871 2.64162 0
M  V30 5574 N 517.335 0.585699 1.46312 0
M  V30 5575 C 518.581 0.0725284 2.0267 0
M  V30 5576 C 518.914 -1.28523 1.45586 0
M  V30 5577 O 518.189 -1.84283 0.622101 0
M  V30 5578 C 518.472 0.0099788 3.60099 0
M  V30 5579 C 518.325 1.39685 4.27561 0
M  V30 5580 C 519.644 -0.689117 4.34671 0
M  V30 5581 H 516.763 0.0278307 0.736474 0
M  V30 5582 H 519.405 0.753472 1.74421 0
M  V30 5583 H 517.555 -0.56992 3.84297 0
M  V30 5584 H 519.227 2.02215 4.14617 0
M  V30 5585 H 517.47 1.96374 3.86807 0
M  V30 5586 H 518.141 1.30553 5.36339 0
M  V30 5587 H 520.617 -0.196446 4.15636 0
M  V30 5588 H 519.493 -0.701921 5.44393 0
M  V30 5589 H 519.754 -1.75101 4.05946 0
M  V30 5590 N 518.813 -1.54241 0.323641 0
M  V30 5591 C 520.038 -2.05452 -0.283605 0
M  V30 5592 C 520.463 -1.19823 -1.44997 0
M  V30 5593 O 519.821 -0.207358 -1.8011 0
M  V30 5594 C 519.869 -3.53823 -0.695795 0
M  V30 5595 O 518.973 -3.71134 -1.79815 0
M  V30 5596 H 518.314 -0.662024 -0.0511917 0
M  V30 5597 H 520.844 -1.99079 0.472073 0
M  V30 5598 H 520.854 -3.96094 -0.978434 0
M  V30 5599 H 519.529 -4.15602 0.157287 0
M  V30 5600 H 518.106 -3.40768 -1.51431 0
M  V30 5601 N 520.291 -0.0518155 -1.57515 0
M  V30 5602 C 521.537 0.622745 -1.93002 0
M  V30 5603 C 521.87 1.70456 -0.930499 0
M  V30 5604 O 521.145 1.94452 0.0434086 0
M  V30 5605 C 521.428 1.21824 -3.38867 0
M  V30 5606 C 521.281 0.144434 -4.49568 0
M  V30 5607 C 522.6 2.12968 -3.8514 0
M  V30 5608 H 519.719 0.22491 -0.701844 0
M  V30 5609 H 522.361 -0.113711 -1.89659 0
M  V30 5610 H 520.511 1.8459 -3.41846 0
M  V30 5611 H 522.183 -0.48753 -4.58717 0
M  V30 5612 H 520.426 -0.527424 -4.30582 0
M  V30 5613 H 521.097 0.601127 -5.48717 0
M  V30 5614 H 523.573 1.60163 -3.8404 0
M  V30 5615 H 522.449 2.51578 -4.87852 0
M  V30 5616 H 522.71 3.03004 -3.21934 0
M  V30 5617 N 521.769 1.56035 0.221574 0
M  V30 5618 C 522.699 1.95434 1.2778 0
M  V30 5619 C 523.68 0.822564 1.48889 0
M  V30 5620 O 524.865 1.08486 1.61072 0
M  V30 5621 C 521.995 2.27102 2.62759 0
M  V30 5622 C 520.949 3.4277 2.56306 0
M  V30 5623 C 520.275 3.60043 3.95314 0
M  V30 5624 C 521.575 4.77742 2.11093 0
M  V30 5625 H 523.269 2.83912 0.950504 0
M  V30 5626 H 520.815 1.36596 0.455791 0
M  V30 5627 H 522.768 2.53256 3.36807 0
M  V30 5628 H 521.492 1.35478 2.97176 0
M  V30 5629 H 520.151 3.16664 1.84715 0
M  V30 5630 H 519.799 2.65794 4.27039 0
M  V30 5631 H 519.499 4.37841 3.91879 0
M  V30 5632 H 521.023 3.88545 4.71025 0
M  V30 5633 H 522.437 5.03102 2.74885 0
M  V30 5634 H 520.834 5.58823 2.18716 0
M  V30 5635 H 521.904 4.731 1.06321 0
M  V30 5636 N 523.247 -0.488276 1.49845 0
M  V30 5637 C 524.194 -1.58836 1.67451 0
M  V30 5638 C 525.164 -1.57886 0.515857 0
M  V30 5639 O 526.349 -1.75679 0.744403 0
M  V30 5640 C 523.489 -2.96915 1.75885 0
M  V30 5641 C 522.602 -3.07784 3.03138 0
M  V30 5642 C 521.737 -4.36673 3.02473 0
M  V30 5643 C 520.776 -4.41222 4.24252 0
M  V30 5644 N 519.913 -5.61557 4.21424 0
M  V30 5645 H 524.753 -1.43131 2.61376 0
M  V30 5646 H 522.29 -0.696186 1.29583 0
M  V30 5647 H 524.248 -3.76965 1.78755 0
M  V30 5648 H 522.878 -3.11295 0.85414 0
M  V30 5649 H 521.93 -2.20717 3.09819 0
M  V30 5650 H 523.242 -3.07005 3.93128 0
M  V30 5651 H 522.396 -5.25055 3.03977 0
M  V30 5652 H 521.135 -4.40037 2.10283 0
M  V30 5653 H 520.14 -3.5124 4.22978 0
M  V30 5654 H 521.365 -4.39564 5.17649 0
M  V30 5655 H 519.311 -5.65738 3.32078 0
M  V30 5656 H 519.228 -5.62447 5.05163 0
M  V30 5657 H 520.496 -6.52111 4.2705 0
M  V30 5658 N 524.725 -1.39134 -0.740242 0
M  V30 5659 C 525.973 -1.35803 -1.49673 0
M  V30 5660 C 526.294 0.0470897 -1.94943 0
M  V30 5661 O 525.564 0.997347 -1.68611 0
M  V30 5662 H 524.144 -0.499736 -0.555224 0
M  V30 5663 H 526.806 -1.73947 -0.879107 0
M  V30 5664 H 525.902 -2.0174 -2.38133 0
M  V30 5665 N 526.204 0.969867 -1.24223 0
M  V30 5666 C 527.136 2.0669 -0.99055 0
M  V30 5667 C 528.149 1.62753 0.0392222 0
M  V30 5668 O 529.338 1.77403 -0.197561 0
M  V30 5669 C 526.438 3.35589 -0.472594 0
M  V30 5670 C 525.611 4.08444 -1.56499 0
M  V30 5671 C 524.67 5.15616 -1.05007 0
M  V30 5672 O 523.696 5.41911 -1.7413 0
M  V30 5673 N 524.898 5.80383 0.116641 0
M  V30 5674 H 527.663 2.28855 -1.93508 0
M  V30 5675 H 525.224 1.13733 -1.15223 0
M  V30 5676 H 527.216 4.04542 -0.112919 0
M  V30 5677 H 525.786 3.10311 0.377617 0
M  V30 5678 H 525.006 3.33798 -2.09696 0
M  V30 5679 H 526.294 4.53882 -2.29932 0
M  V30 5680 H 525.692 5.6142 0.694589 0
M  V30 5681 H 524.249 6.50462 0.417483 0
M  V30 5682 N 527.682 1.05563 1.17022 0
M  V30 5683 C 528.928 0.769074 1.87652 0
M  V30 5684 C 529.261 -0.702326 1.81055 0
M  V30 5685 O 528.536 -1.5139 1.22112 0
M  V30 5686 C 528.819 1.25492 3.37526 0
M  V30 5687 C 528.672 2.78953 3.52853 0
M  V30 5688 C 529.991 0.856919 4.31677 0
M  V30 5689 H 527.11 0.280854 0.681388 0
M  V30 5690 H 529.752 1.31027 1.37593 0
M  V30 5691 H 527.902 0.794516 3.80289 0
M  V30 5692 H 529.574 3.33146 3.19079 0
M  V30 5693 H 527.817 3.18046 2.95007 0
M  V30 5694 H 528.488 3.08011 4.58076 0
M  V30 5695 H 530.964 1.25334 3.96775 0
M  V30 5696 H 529.84 1.22443 5.35069 0
M  V30 5697 H 530.101 -0.238787 4.41455 0
M  V30 5698 N 529.16 -1.33526 0.837174 0
M  V30 5699 C 530.39 -2.01754 0.444848 0
M  V30 5700 C 530.798 -1.63149 -0.958072 0
M  V30 5701 O 530.141 -0.839827 -1.63379 0
M  V30 5702 C 530.203 -3.56228 0.483917 0
M  V30 5703 C 529.867 -4.18205 1.84265 0
M  V30 5704 C 530.864 -4.37699 2.80563 0
M  V30 5705 C 528.549 -4.54667 2.13503 0
M  V30 5706 C 530.543 -4.928 4.04261 0
M  V30 5707 C 528.23 -5.09475 3.37458 0
M  V30 5708 C 529.228 -5.28488 4.32654 0
M  V30 5709 O 528.916 -5.82132 5.54417 0
M  V30 5710 H 528.648 -0.652928 0.175104 0
M  V30 5711 H 531.202 -1.71469 1.13082 0
M  V30 5712 H 529.432 -3.85833 -0.258826 0
M  V30 5713 H 531.121 -4.05752 0.109653 0
M  V30 5714 H 531.887 -4.0988 2.59274 0
M  V30 5715 H 527.766 -4.39164 1.40201 0
M  V30 5716 H 531.31 -5.07555 4.78574 0
M  V30 5717 H 527.207 -5.36725 3.58604 0
M  V30 5718 H 527.975 -6.00548 5.56133 0
M  V30 5719 N 530.638 -0.59345 -1.46 0
M  V30 5720 C 531.887 -0.0808084 -2.01538 0
M  V30 5721 C 532.2 1.29112 -1.46934 0
M  V30 5722 O 533.406 1.8957 -1.94359 0
M  V30 5723 C 531.862 -0.0938311 -3.59778 0
M  V30 5724 C 531.47 -1.46474 -4.23379 0
M  V30 5725 C 533.214 0.364306 -4.22934 0
M  V30 5726 C 531.121 -1.4349 -5.73729 0
M  V30 5727 H 530.051 -0.0264407 -0.753536 0
M  V30 5728 H 532.702 -0.746689 -1.67621 0
M  V30 5729 H 531.084 0.638427 -3.9082 0
M  V30 5730 H 532.258 -2.21758 -4.03931 0
M  V30 5731 H 530.573 -1.86379 -3.7236 0
M  V30 5732 H 533.17 0.405584 -5.3316 0
M  V30 5733 H 533.513 1.38409 -3.92618 0
M  V30 5734 H 534.046 -0.31423 -3.96557 0
M  V30 5735 H 530.785 -2.43184 -6.08722 0
M  V30 5736 H 530.305 -0.724431 -5.95409 0
M  V30 5737 H 531.984 -1.15243 -6.36654 0
M  V30 5738 N 532.116 1.54067 -0.331816 0
M  V30 5739 C 533.046 2.27569 0.522932 0
M  V30 5740 C 534.027 1.28679 1.11247 0
M  V30 5741 O 535.212 1.57504 1.13605 0
M  V30 5742 C 532.342 3.0397 1.67987 0
M  V30 5743 C 531.296 4.10267 1.21924 0
M  V30 5744 C 530.622 4.74555 2.46377 0
M  V30 5745 C 531.922 5.21268 0.32815 0
M  V30 5746 H 533.616 2.99264 -0.0901977 0
M  V30 5747 H 531.162 1.4393 -0.044821 0
M  V30 5748 H 533.115 3.54123 2.28418 0
M  V30 5749 H 531.839 2.29906 2.31971 0
M  V30 5750 H 530.498 3.61009 0.637809 0
M  V30 5751 H 530.146 3.97098 3.08743 0
M  V30 5752 H 529.846 5.46363 2.16243 0
M  V30 5753 H 531.37 5.27487 3.07555 0
M  V30 5754 H 532.784 5.67128 0.838978 0
M  V30 5755 H 531.181 5.99982 0.119228 0
M  V30 5756 H 532.251 4.80673 -0.638839 0
M  V30 5757 N 533.594 0.0601682 1.57485 0
M  V30 5758 C 534.842 -0.610386 1.92662 0
M  V30 5759 C 535.163 -1.70849 0.939981 0
M  V30 5760 O 534.433 -1.95895 -0.0137455 0
M  V30 5761 H 533.013 -0.228457 0.711208 0
M  V30 5762 H 535.675 0.115288 1.94559 0
M  V30 5763 H 534.771 -1.0432 2.94149 0
M  V30 5764 N 535.072 -1.5615 -0.213296 0
M  V30 5765 C 536.488 -1.49327 -0.56336 0
M  V30 5766 C 536.688 -0.756826 -1.86747 0
M  V30 5767 O 535.744 -0.299866 -2.50713 0
M  V30 5768 C 537.057 -2.9392 -0.634944 0
M  V30 5769 C 538.605 -3.04487 -0.725013 0
M  V30 5770 C 539.08 -4.50456 -0.82787 0
M  V30 5771 N 540.571 -4.54533 -0.891876 0
M  V30 5772 C 541.306 -5.64766 -0.991315 0
M  V30 5773 N 540.802 -6.84733 -1.05419 0
M  V30 5774 N 542.595 -5.52637 -1.02709 0
M  V30 5775 H 534.746 -2.02453 0.642366 0
M  V30 5776 H 537.009 -0.920548 0.226487 0
M  V30 5777 H 536.715 -3.50783 0.253859 0
M  V30 5778 H 536.589 -3.46274 -1.49579 0
M  V30 5779 H 538.976 -2.47685 -1.60425 0
M  V30 5780 H 539.057 -2.55289 0.161669 0
M  V30 5781 H 538.701 -5.07878 0.0469464 0
M  V30 5782 H 538.631 -4.97369 -1.73009 0
M  V30 5783 H 541.122 -3.68141 -0.85327 0
M  V30 5784 H 541.435 -7.64493 -1.13007 0
M  V30 5785 H 539.78 -6.87427 -1.02318 0
M  V30 5786 H 542.971 -4.5784 -0.974687 0
M  V30 5787 H 543.144 -6.38576 -1.10113 0
M  V30 5788 N 536.55 0.480323 -1.50102 0
M  V30 5789 C 537.46 1.60547 -1.71061 0
M  V30 5790 C 538.476 1.63564 -0.593529 0
M  V30 5791 O 539.652 1.81604 -0.870751 0
M  V30 5792 C 536.717 2.96814 -1.79171 0
M  V30 5793 C 535.778 3.04259 -3.02861 0
M  V30 5794 C 535.011 4.34027 -3.10574 0
M  V30 5795 O 535.234 5.24009 -2.25323 0
M  V30 5796 O 534.168 4.46873 -4.03223 0
M  V30 5797 H 537.994 1.45788 -2.6642 0
M  V30 5798 H 535.579 0.658838 -1.34088 0
M  V30 5799 H 537.461 3.77765 -1.86738 0
M  V30 5800 H 536.136 3.11791 -0.869947 0
M  V30 5801 H 535.043 2.22419 -3.008 0
M  V30 5802 H 536.376 2.94216 -3.94586 0
M  V30 5803 N 538.028 1.39524 0.732853 0
M  V30 5804 C 539.253 1.40329 1.52717 0
M  V30 5805 C 539.678 0.000286574 1.881 0
M  V30 5806 O 539.036 -0.987262 1.52062 0
M  V30 5807 C 539.084 2.28464 2.78992 0
M  V30 5808 O 538.188 1.716 3.75003 0
M  V30 5809 H 537.529 0.47778 0.461109 0
M  V30 5810 H 540.059 1.83546 0.903996 0
M  V30 5811 H 540.069 2.43051 3.27705 0
M  V30 5812 H 538.744 3.30425 2.52572 0
M  V30 5813 H 537.321 1.66267 3.33781 0
M  V30 5814 N 539.506 -0.963266 1.24736 0
M  V30 5815 C 540.917 -1.52145 1.08207 0
M  V30 5816 C 541.268 -1.93142 -0.345061 0
M  V30 5817 O 540.393 -1.77769 -1.23399 0
M  V30 5818 C 540.988 -2.76486 1.95808 0
M  V30 5819 C 539.547 -3.28646 1.8349 0
M  V30 5820 C 538.694 -2.01529 1.90476 0
M  V30 5821 H 541.645 -0.781083 1.38148 0
M  V30 5822 H 541.666 -3.49986 1.49297 0
M  V30 5823 H 541.178 -2.46617 2.99669 0
M  V30 5824 H 539.279 -3.63357 0.824787 0
M  V30 5825 H 539.392 -3.97246 2.67829 0
M  V30 5826 H 537.756 -2.16442 1.34258 0
M  V30 5827 H 538.539 -1.7402 2.95926 0
M  V30 5828 N 540.985 -1.06182 -1.16461 0
M  V30 5829 C 541.915 -0.692861 -2.22984 0
M  V30 5830 C 542.896 0.314122 -1.67174 0
M  V30 5831 O 544.081 0.189499 -1.93273 0
M  V30 5832 C 541.211 -0.07732 -3.47214 0
M  V30 5833 C 540.165 -1.01015 -4.15909 0
M  V30 5834 C 539.491 -0.257973 -5.34077 0
M  V30 5835 C 540.791 -2.33868 -4.67015 0
M  V30 5836 H 542.485 -1.58343 -2.54102 0
M  V30 5837 H 540.031 -0.76279 -1.22137 0
M  V30 5838 H 541.984 0.19266 -4.20959 0
M  V30 5839 H 540.708 0.848254 -3.15392 0
M  V30 5840 H 539.367 -1.26486 -3.44088 0
M  V30 5841 H 539.015 0.670684 -4.98509 0
M  V30 5842 H 538.715 -0.879638 -5.80979 0
M  V30 5843 H 540.239 0.00448788 -6.106 0
M  V30 5844 H 541.653 -2.1279 -5.32347 0
M  V30 5845 H 540.05 -2.91522 -5.24533 0
M  V30 5846 H 541.12 -2.97019 -3.83286 0
M  V30 5847 N 542.463 1.3308 -0.844243 0
M  V30 5848 C 543.688 2.02341 -0.455282 0
M  V30 5849 C 544.113 1.6308 0.93737 0
M  V30 5850 O 543.471 0.826118 1.61385 0
M  V30 5851 C 543.519 3.55743 -0.58988 0
M  V30 5852 O 542.623 4.1063 0.38166 0
M  V30 5853 H 541.964 0.637898 -0.184343 0
M  V30 5854 H 544.494 1.6986 -1.14056 0
M  V30 5855 H 544.504 4.05243 -0.473522 0
M  V30 5856 H 543.179 3.83662 -1.60549 0
M  V30 5857 H 541.756 3.72236 0.22241 0
M  V30 5858 N 543.941 0.601185 1.45683 0
M  V30 5859 C 544.871 -0.108824 2.33246 0
M  V30 5860 C 545.852 -0.865223 1.46451 0
M  V30 5861 O 547.037 -0.83704 1.75235 0
M  V30 5862 C 544.167 -1.11101 3.2905 0
M  V30 5863 C 543.121 -0.468244 4.25431 0
M  V30 5864 C 542.447 -1.57822 5.10878 0
M  V30 5865 C 543.747 0.606469 5.18767 0
M  V30 5866 H 545.441 0.622306 2.92861 0
M  V30 5867 H 542.987 0.300714 1.40825 0
M  V30 5868 H 544.94 -1.61622 3.89174 0
M  V30 5869 H 543.664 -1.87265 2.67581 0
M  V30 5870 H 542.323 0.0160484 3.66596 0
M  V30 5871 H 541.971 -2.32998 4.45781 0
M  V30 5872 H 541.671 -1.15369 5.76163 0
M  V30 5873 H 543.195 -2.08583 5.73869 0
M  V30 5874 H 544.609 0.185589 5.73 0
M  V30 5875 H 543.006 0.952381 5.92494 0
M  V30 5876 H 544.076 1.48559 4.61582 0
M  V30 5877 N 545.419 -1.53889 0.339982 0
M  V30 5878 C 546.649 -2.04973 -0.258738 0
M  V30 5879 C 547.057 -1.21485 -1.45045 0
M  V30 5880 O 546.4 -0.2422 -1.82096 0
M  V30 5881 C 546.462 -3.51783 -0.740853 0
M  V30 5882 C 546.126 -4.55802 0.330734 0
M  V30 5883 C 547.123 -5.06512 1.17226 0
M  V30 5884 C 544.808 -4.99966 0.483637 0
M  V30 5885 C 546.802 -5.99963 2.15227 0
M  V30 5886 C 544.489 -5.93229 1.46704 0
M  V30 5887 C 545.487 -6.43115 2.29981 0
M  V30 5888 O 545.175 -7.34545 3.26649 0
M  V30 5889 H 544.907 -0.673807 -0.0544037 0
M  V30 5890 H 547.461 -1.99492 0.489107 0
M  V30 5891 H 545.691 -3.54717 -1.53988 0
M  V30 5892 H 547.38 -3.85857 -1.25973 0
M  V30 5893 H 548.146 -4.73158 1.0652 0
M  V30 5894 H 544.025 -4.6074 -0.15471 0
M  V30 5895 H 547.569 -6.38825 2.80265 0
M  V30 5896 H 543.466 -6.25998 1.57468 0
M  V30 5897 H 544.234 -7.52468 3.22078 0
M  V30 5898 N 546.897 -0.0685191 -1.57451 0
M  V30 5899 C 547.845 0.917577 -2.13736 0
M  V30 5900 C 548.839 1.31049 -1.07344 0
M  V30 5901 O 550.045 1.28811 -1.25728 0
M  V30 5902 H 546.42 0.313835 -0.683382 0
M  V30 5903 H 548.391 0.417903 -2.95459 0
M  V30 5904 C 547.14 2.17686 -2.71123 0
M  V30 5905 H 546.463 1.88336 -3.52661 0
M  V30 5906 H 547.903 2.84803 -3.14107 0
M  V30 5907 C 546.362 2.9332 -1.65726 0
M  V30 5908 O 546.892 3.86901 -1.08031 0
M  V30 5909 N 545.098 2.56367 -1.36837 0
M  V30 5910 H 544.645 1.80341 -1.83943 0
M  V30 5911 H 544.603 3.07276 -0.665501 0
M  V30 5912 N 548.375 1.56261 0.205012 0
M  V30 5913 C 549.285 1.96944 1.27476 0
M  V30 5914 C 550.301 0.875636 1.50362 0
M  V30 5915 O 551.477 1.18058 1.6317 0
M  V30 5916 C 548.542 2.29219 2.60115 0
M  V30 5917 C 547.603 3.52255 2.45387 0
M  V30 5918 C 546.836 3.8298 3.71701 0
M  V30 5919 O 547.059 3.15138 4.75441 0
M  V30 5920 O 545.993 4.76435 3.67823 0
M  V30 5921 H 549.819 2.88144 0.959527 0
M  V30 5922 H 547.404 1.43686 0.409217 0
M  V30 5923 H 549.286 2.51098 3.3842 0
M  V30 5924 H 547.961 1.4119 2.91285 0
M  V30 5925 H 546.868 3.35635 1.65227 0
M  V30 5926 H 548.201 4.40719 2.19152 0
M  V30 5927 N 549.853 -0.472356 1.50355 0
M  V30 5928 C 550.763 -1.59637 1.7191 0
M  V30 5929 C 551.779 -1.63247 0.602195 0
M  V30 5930 O 552.955 -1.81139 0.880369 0
M  V30 5931 C 550.02 -2.9586 1.80742 0
M  V30 5932 C 549.081 -3.02649 3.04471 0
M  V30 5933 C 548.314 -4.32374 3.12872 0
M  V30 5934 O 548.537 -5.22807 2.28099 0
M  V30 5935 O 547.471 -4.44728 4.05587 0
M  V30 5936 H 551.297 -1.44373 2.67189 0
M  V30 5937 H 548.882 -0.651717 1.34436 0
M  V30 5938 H 550.764 -3.7677 1.88739 0
M  V30 5939 H 549.439 -3.11325 0.88647 0
M  V30 5940 H 548.346 -2.20821 3.01975 0
M  V30 5941 H 549.679 -2.92119 3.9614 0
M  V30 5942 N 551.331 -1.39911 -0.725443 0
M  V30 5943 C 552.261 -1.42138 -1.85254 0
M  V30 5944 C 553.242 -0.283513 -1.67721 0
M  V30 5945 O 554.427 -0.490717 -1.87898 0
M  V30 5946 C 551.557 -1.27354 -3.23107 0
M  V30 5947 C 550.511 -2.3864 -3.55296 0
M  V30 5948 C 549.837 -2.08939 -4.92188 0
M  V30 5949 C 551.137 -3.8097 -3.57295 0
M  V30 5950 H 552.831 -2.36461 -1.83648 0
M  V30 5951 H 550.377 -1.13817 -0.882138 0
M  V30 5952 H 552.33 -1.2753 -4.01639 0
M  V30 5953 H 551.054 -0.295025 -3.25265 0
M  V30 5954 H 549.713 -2.37696 -2.79099 0
M  V30 5955 H 549.361 -1.09502 -4.90936 0
M  V30 5956 H 549.061 -2.83491 -5.14691 0
M  V30 5957 H 550.585 -2.10781 -5.73065 0
M  V30 5958 H 551.999 -3.8379 -4.25885 0
M  V30 5959 H 550.396 -4.5496 -3.9132 0
M  V30 5960 H 551.466 -4.11261 -2.5689 0
M  V30 5961 N 552.809 0.956637 -1.25245 0
M  V30 5962 C 554.055 1.70352 -1.10036 0
M  V30 5963 C 554.388 1.90869 0.358156 0
M  V30 5964 O 553.663 1.47819 1.26411 0
M  V30 5965 C 553.946 3.08766 -1.85298 0
M  V30 5966 C 553.799 2.95672 -3.38966 0
M  V30 5967 C 555.118 4.08622 -1.63451 0
M  V30 5968 H 552.237 0.618279 -0.401123 0
M  V30 5969 H 554.879 1.11212 -1.54051 0
M  V30 5970 H 553.029 3.59252 -1.47887 0
M  V30 5971 H 554.701 2.52527 -3.86041 0
M  V30 5972 H 552.944 2.31634 -3.6678 0
M  V30 5973 H 553.615 3.93776 -3.86839 0
M  V30 5974 H 556.091 3.67038 -1.96015 0
M  V30 5975 H 554.967 5.03514 -2.18551 0
M  V30 5976 H 555.228 4.3834 -0.575357 0
M  V30 5977 N 554.287 1.06798 1.15896 0
M  V30 5978 C 555.512 0.808739 1.90982 0
M  V30 5979 C 555.937 -0.6316 1.77179 0
M  V30 5980 O 555.295 -1.4407 1.10061 0
M  V30 5981 C 555.343 1.21468 3.39526 0
M  V30 5982 O 554.447 0.356562 4.10856 0
M  V30 5983 H 553.788 0.29512 0.594811 0
M  V30 5984 H 556.318 1.42513 1.46804 0
M  V30 5985 H 556.328 1.18844 3.90308 0
M  V30 5986 H 555.003 2.26379 3.48891 0
M  V30 5987 H 553.58 0.444808 3.70238 0
M  V30 5988 N 555.766 -1.3263 0.851289 0
M  V30 5989 C 556.699 -2.26952 0.238318 0
M  V30 5990 C 557.677 -1.50243 -0.621757 0
M  V30 5991 O 558.861 -1.79378 -0.579298 0
M  V30 5992 C 555.988 -3.32124 -0.664178 0
M  V30 5993 C 555.034 -4.26325 0.122067 0
M  V30 5994 S 555.867 -5.14404 1.48824 0
M  V30 5995 C 557.023 -6.231 0.591372 0
M  V30 5996 H 557.256 -2.78594 1.03791 0
M  V30 5997 H 554.789 -1.4011 0.648731 0
M  V30 5998 H 556.747 -3.93197 -1.17924 0
M  V30 5999 H 555.408 -2.79273 -1.43755 0
M  V30 6000 H 554.601 -5.00821 -0.565181 0
M  V30 6001 H 554.203 -3.69652 0.568602 0
M  V30 6002 H 556.495 -6.77187 -0.205762 0
M  V30 6003 H 557.438 -6.95936 1.30687 0
M  V30 6004 H 557.846 -5.64252 0.167206 0
M  V30 6005 N 557.244 -0.608902 -1.45362 0
M  V30 6006 C 558.192 0.121639 -2.32282 0
M  V30 6007 C 559.186 0.858301 -1.46046 0
M  V30 6008 O 560.392 0.773718 -1.62523 0
M  V30 6009 H 556.767 0.058086 -0.749753 0
M  V30 6010 H 558.738 -0.629866 -2.91677 0
M  V30 6011 C 557.487 1.1047 -3.29684 0
M  V30 6012 H 556.81 0.547278 -3.96036 0
M  V30 6013 H 558.25 1.58576 -3.9323 0
M  V30 6014 C 556.709 2.17891 -2.56954 0
M  V30 6015 O 557.239 3.25652 -2.35189 0
M  V30 6016 N 555.445 1.93211 -2.17066 0
M  V30 6017 H 554.992 1.05584 -2.34967 0
M  V30 6018 H 554.95 2.6529 -1.68727 0
M  V30 6019 N 558.722 1.53707 -0.348139 0
M  V30 6020 C 559.968 2.01286 0.247332 0
M  V30 6021 C 560.301 1.23546 1.49834 0
M  V30 6022 O 559.576 0.324331 1.91777 0
M  V30 6023 C 559.859 3.55768 0.556858 0
M  V30 6024 C 559.712 4.44216 -0.706564 0
M  V30 6025 C 561.031 4.1841 1.3646 0
M  V30 6026 H 558.15 0.731677 0.0884201 0
M  V30 6027 H 560.792 1.84106 -0.469584 0
M  V30 6028 H 558.942 3.70539 1.16761 0
M  V30 6029 H 560.614 4.41274 -1.34444 0
M  V30 6030 H 558.857 4.12892 -1.33052 0
M  V30 6031 H 559.528 5.50202 -0.445186 0
M  V30 6032 H 562.004 4.07365 0.848113 0
M  V30 6033 H 560.88 5.26563 1.54992 0
M  V30 6034 H 561.141 3.7333 2.36805 0
M  V30 6035 N 560.2 0.0768682 1.57412 0
M  V30 6036 C 561.132 -0.918248 2.10002 0
M  V30 6037 C 562.145 -1.25808 1.03325 0
M  V30 6038 O 563.334 -1.21438 1.30824 0
M  V30 6039 C 560.434 -2.23263 2.54964 0
M  V30 6040 C 559.607 -2.07088 3.8527 0
M  V30 6041 C 558.666 -3.21876 4.16272 0
M  V30 6042 O 557.692 -2.96643 4.8579 0
M  V30 6043 N 558.894 -4.4712 3.70221 0
M  V30 6044 H 561.659 -0.469209 2.96004 0
M  V30 6045 H 559.22 -0.108725 1.61535 0
M  V30 6046 H 561.212 -2.9897 2.72762 0
M  V30 6047 H 559.782 -2.59649 1.74072 0
M  V30 6048 H 559.002 -1.15818 3.76802 0
M  V30 6049 H 560.29 -1.93537 4.70554 0
M  V30 6050 H 559.688 -4.70506 3.1407 0
M  V30 6051 H 558.245 -5.19837 3.93209 0
M  V30 6052 N 561.678 -1.56367 -0.196722 0
M  V30 6053 C 562.926 -1.80172 -0.915554 0
M  V30 6054 C 563.247 -0.649649 -1.8386 0
M  V30 6055 O 562.517 0.332111 -1.93064 0
M  V30 6056 H 561.097 -0.664592 -0.341067 0
M  V30 6057 H 563.759 -1.93844 -0.202622 0
M  V30 6058 H 562.855 -2.7327 -1.50764 0
M  V30 6059 N 563.156 0.464375 -1.50603 0
M  V30 6060 C 564.433 1.22549 -1.5245 0
M  V30 6061 C 564.813 2.09327 -0.273035 0
M  V30 6062 O 564.161 2.16074 0.743242 0
M  V30 6063 C 564.371 2.05074 -2.82393 0
M  V30 6064 C 565.719 2.63036 -3.33313 0
M  V30 6065 O 566.743 2.1531 -2.8376 0
M  V30 6066 O 565.602 3.5001 -4.19709 0
M  V30 6067 H 562.696 0.556471 -0.611775 0
M  V30 6068 H 565.242 0.475648 -1.62898 0
M  V30 6069 H 564.014 1.41169 -3.64948 0
M  V30 6070 H 563.637 2.87179 -2.7498 0
M  V30 6071 N 564.634 1.40294 0.718013 0
M  V30 6072 C 565.864 1.41544 1.50495 0
M  V30 6073 C 566.272 0.0127877 1.89196 0
M  V30 6074 O 565.615 -0.97305 1.55812 0
M  V30 6075 C 565.677 2.24021 2.81167 0
M  V30 6076 C 565.341 3.72463 2.64803 0
M  V30 6077 C 566.338 4.65154 2.32223 0
M  V30 6078 C 564.023 4.1625 2.81143 0
M  V30 6079 C 566.017 5.99618 2.16189 0
M  V30 6080 C 563.704 5.50784 2.64727 0
M  V30 6081 C 564.702 6.42283 2.32297 0
M  V30 6082 O 564.39 7.74337 2.16004 0
M  V30 6083 H 564.122 0.484819 0.471091 0
M  V30 6084 H 566.676 1.84948 0.893488 0
M  V30 6085 H 564.906 1.75393 3.44636 0
M  V30 6086 H 566.595 2.17243 3.42871 0
M  V30 6087 H 567.361 4.32622 2.19234 0
M  V30 6088 H 563.24 3.45352 3.05373 0
M  V30 6089 H 566.784 6.71 1.90799 0
M  V30 6090 H 562.681 5.82902 2.773 0
M  V30 6091 H 563.449 7.85244 2.30942 0
M  V30 6092 N 566.112 -0.949982 1.2575 0
M  V30 6093 C 567.022 -2.08109 1.08295 0
M  V30 6094 C 568.038 -1.7399 0.0188181 0
M  V30 6095 O 569.214 -2.00187 0.220724 0
M  V30 6096 C 566.279 -3.39383 0.708534 0
M  V30 6097 C 565.34 -3.8734 1.85111 0
M  V30 6098 C 564.573 -5.12349 1.49447 0
M  V30 6099 O 564.796 -5.6905 0.392212 0
M  V30 6100 O 563.73 -5.5513 2.32624 0
M  V30 6101 H 567.556 -2.25738 2.03165 0
M  V30 6102 H 565.141 -1.06545 1.04731 0
M  V30 6103 H 567.023 -4.18277 0.512061 0
M  V30 6104 H 565.698 -3.23013 -0.210854 0
M  V30 6105 H 564.605 -3.09429 2.10248 0
M  V30 6106 H 565.938 -4.08216 2.74991 0
M  V30 6107 N 567.59 -1.07411 -1.15328 0
M  V30 6108 C 569.001 -0.820261 -1.67716 0
M  V30 6109 C 569.352 0.654539 -1.8496 0
M  V30 6110 O 568.477 1.50664 -1.55337 0
M  V30 6111 C 569.072 -1.48242 -3.04647 0
M  V30 6112 C 567.631 -1.27606 -3.5411 0
M  V30 6113 C 566.778 -1.5517 -2.29821 0
M  V30 6114 H 569.729 -1.23608 -0.995332 0
M  V30 6115 H 569.75 -0.903984 -3.69606 0
M  V30 6116 H 569.262 -2.55578 -2.92064 0
M  V30 6117 H 567.363 -0.222948 -3.71932 0
M  V30 6118 H 567.476 -1.99667 -4.35511 0
M  V30 6119 H 565.84 -0.972747 -2.35393 0
M  V30 6120 H 566.623 -2.63689 -2.19824 0
M  V30 6121 N 569.068 1.32177 -0.85831 0
M  V30 6122 C 570.296 2.01313 -0.477582 0
M  V30 6123 C 570.711 1.6449 0.926736 0
M  V30 6124 O 570.068 0.868096 1.60531 0
M  V30 6125 C 570.119 3.56293 -0.611337 0
M  V30 6126 O 569.84 3.91794 -1.96034 0
M  V30 6127 C 571.341 4.42702 -0.230093 0
M  V30 6128 H 568.561 0.644323 -0.187322 0
M  V30 6129 H 571.105 1.68674 -1.15626 0
M  V30 6130 H 569.26 3.87395 0.0196494 0
M  V30 6131 H 569.674 4.86513 -1.95973 0
M  V30 6132 H 571.148 5.50727 -0.374674 0
M  V30 6133 H 571.625 4.3129 0.829779 0
M  V30 6134 H 572.231 4.16997 -0.836302 0
M  V30 6135 N 570.547 0.616602 1.45037 0
M  V30 6136 C 571.824 0.0469086 1.95544 0
M  V30 6137 C 572.204 -1.42345 1.55888 0
M  V30 6138 O 571.552 -2.13055 0.825824 0
M  V30 6139 C 571.762 0.254489 3.48071 0
M  V30 6140 C 573.11 0.140025 4.24369 0
M  V30 6141 O 574.134 0.185084 3.55719 0
M  V30 6142 O 572.993 0.0327034 5.4649 0
M  V30 6143 H 570.087 -0.0306051 0.826433 0
M  V30 6144 H 572.633 0.687293 1.55159 0
M  V30 6145 H 571.405 1.27532 3.69934 0
M  V30 6146 H 571.028 -0.42073 3.95368 0
M  V30 6147 N 572.025 -1.5352 0.356285 0
M  V30 6148 C 572.988 -2.24071 -0.482182 0
M  V30 6149 C 573.988 -1.24531 -1.01729 0
M  V30 6150 O 575.178 -1.48876 -0.904513 0
M  V30 6151 C 572.31 -2.97025 -1.67299 0
M  V30 6152 H 573.503 -2.99596 0.135031 0
M  V30 6153 H 571.056 -1.55928 0.107825 0
M  V30 6154 H 571.791 -2.25719 -2.32855 0
M  V30 6155 H 571.576 -3.7005 -1.29636 0
M  V30 6156 H 573.066 -3.50683 -2.26741 0
M  V30 6157 N 573.503 -0.0852151 -1.57369 0
M  V30 6158 C 574.731 0.58946 -1.98325 0
M  V30 6159 C 575.146 1.62333 -0.96403 0
M  V30 6160 O 574.503 1.82438 0.0476395 0
M  V30 6161 C 574.554 1.24604 -3.39347 0
M  V30 6162 O 574.275 0.253532 -4.37366 0
M  V30 6163 C 575.776 2.00726 -3.95252 0
M  V30 6164 H 572.996 0.158783 -0.651942 0
M  V30 6165 H 575.54 -0.161584 -2.03861 0
M  V30 6166 H 573.695 1.94808 -3.34856 0
M  V30 6167 H 574.109 0.726207 -5.19448 0
M  V30 6168 H 575.583 2.42039 -4.96106 0
M  V30 6169 H 576.06 2.86919 -3.32527 0
M  V30 6170 H 576.666 1.3536 -4.03185 0
M  V30 6171 N 574.981 1.5647 0.188427 0
M  V30 6172 C 576.229 1.80655 0.905986 0
M  V30 6173 C 576.55 0.659391 1.83513 0
M  V30 6174 O 575.82 -0.321868 1.93238 0
M  V30 6175 H 574.4 0.666391 0.337538 0
M  V30 6176 H 577.062 1.93949 0.192339 0
M  V30 6177 H 576.158 2.74066 1.49313 0
M  V30 6178 N 576.459 -0.456382 1.50847 0
M  V30 6179 C 577.706 -1.20736 1.62571 0
M  V30 6180 C 578.034 -1.9163 0.332904 0
M  V30 6181 O 577.289 -1.8343 -0.682058 0
M  V30 6182 C 577.588 -2.26336 2.76599 0
M  V30 6183 C 577.254 -1.7259 4.16562 0
M  V30 6184 C 575.916 -1.57654 4.54641 0
M  V30 6185 C 578.268 -1.32877 5.03977 0
M  V30 6186 C 575.596 -1.0145 5.77862 0
M  V30 6187 C 577.948 -0.7811 6.27759 0
M  V30 6188 C 576.612 -0.618488 6.64628 0
M  V30 6189 H 575.882 -0.441803 0.594888 0
M  V30 6190 H 578.529 -0.501169 1.84826 0
M  V30 6191 H 576.834 -3.0292 2.48489 0
M  V30 6192 H 578.531 -2.84227 2.82871 0
M  V30 6193 H 575.121 -1.85187 3.86528 0
M  V30 6194 H 579.305 -1.43245 4.75179 0
M  V30 6195 H 574.561 -0.876109 6.0509 0
M  V30 6196 H 578.735 -0.464783 6.94847 0
M  V30 6197 H 576.362 -0.180838 7.59985 0
M  V30 6198 N 577.937 -1.40673 -0.710563 0
M  V30 6199 C 579.186 -1.38525 -1.46607 0
M  V30 6200 C 579.499 0.0077024 -1.95598 0
M  V30 6201 O 580.705 0.151792 -2.71075 0
M  V30 6202 C 579.161 -2.43489 -2.6503 0
M  V30 6203 C 578.769 -3.88619 -2.22888 0
M  V30 6204 C 580.513 -2.50456 -3.42742 0
M  V30 6205 C 578.42 -4.85168 -3.3818 0
M  V30 6206 H 577.35 -0.515092 -0.550632 0
M  V30 6207 H 580.001 -1.66431 -0.772846 0
M  V30 6208 H 578.383 -2.0869 -3.36548 0
M  V30 6209 H 579.557 -4.32588 -1.58758 0
M  V30 6210 H 577.872 -3.85174 -1.58208 0
M  V30 6211 H 580.469 -3.19776 -4.28541 0
M  V30 6212 H 580.812 -1.53665 -3.86902 0
M  V30 6213 H 581.345 -2.84271 -2.78271 0
M  V30 6214 H 578.084 -5.8331 -2.99047 0
M  V30 6215 H 577.604 -4.4586 -4.01209 0
M  V30 6216 H 579.283 -5.05225 -4.04174 0
M  V30 6217 N 579.415 0.9433 -1.26252 0
M  V30 6218 C 580.363 2.06302 -1.07434 0
M  V30 6219 C 581.357 1.694 -0.00189471 0
M  V30 6220 O 582.563 1.79302 -0.158408 0
M  V30 6221 H 578.938 0.675453 -0.330556 0
M  V30 6222 H 580.909 2.19326 -2.02333 0
M  V30 6223 C 579.658 3.40125 -0.721817 0
M  V30 6224 H 578.981 3.68996 -1.5389 0
M  V30 6225 H 580.421 4.19295 -0.629922 0
M  V30 6226 C 578.88 3.31993 0.572902 0
M  V30 6227 O 579.41 3.67945 1.61182 0
M  V30 6228 N 577.616 2.85099 0.562748 0
M  V30 6229 H 577.163 2.5604 -0.283092 0
M  V30 6230 H 577.121 2.80041 1.42915 0
M  V30 6231 N 580.893 1.08022 1.14757 0
M  V30 6232 C 582.142 0.802468 1.8505 0
M  V30 6233 C 582.455 -0.674061 1.83619 0
M  V30 6234 O 583.661 -1.06683 2.49662 0
M  V30 6235 C 582.117 1.38551 3.32162 0
M  V30 6236 C 581.725 2.89354 3.42021 0
M  V30 6237 C 583.469 1.18608 4.07594 0
M  V30 6238 C 581.376 3.40815 4.83321 0
M  V30 6239 H 580.306 0.296518 0.693248 0
M  V30 6240 H 582.957 1.30114 1.29393 0
M  V30 6241 H 581.339 0.814556 3.87532 0
M  V30 6242 H 582.513 3.52552 2.96722 0
M  V30 6243 H 580.828 3.08165 2.80041 0
M  V30 6244 H 583.425 1.54525 5.11885 0
M  V30 6245 H 583.768 0.125599 4.1611 0
M  V30 6246 H 584.301 1.72375 3.58513 0
M  V30 6247 H 581.04 4.46418 4.79991 0
M  V30 6248 H 580.56 2.82374 5.29174 0
M  V30 6249 H 582.239 3.37171 5.522 0
M  V30 6250 N 582.371 -1.3172 0.865308 0
M  V30 6251 C 583.319 -2.30569 0.306674 0
M  V30 6252 C 584.313 -1.59317 -0.575724 0
M  V30 6253 O 585.519 -1.73961 -0.462343 0
M  V30 6254 H 581.894 -0.747681 0.0804834 0
M  V30 6255 H 583.865 -2.75165 1.15441 0
M  V30 6256 C 582.614 -3.44358 -0.480952 0
M  V30 6257 H 581.937 -3.99354 0.18876 0
M  V30 6258 H 583.377 -4.15652 -0.837241 0
M  V30 6259 C 581.836 -2.92574 -1.67039 0
M  V30 6260 O 582.366 -2.90954 -2.76964 0
M  V30 6261 N 580.572 -2.48835 -1.50097 0
M  V30 6262 H 580.119 -2.50353 -0.606738 0
M  V30 6263 H 580.077 -2.14543 -2.29823 0
M  V30 6264 N 583.85 -0.624285 -1.44708 0
M  V30 6265 C 585.075 -0.131171 -2.06985 0
M  V30 6266 C 585.5 1.18234 -1.46295 0
M  V30 6267 O 584.858 1.72375 -0.561842 0
M  V30 6268 C 584.906 -0.0226724 -3.60593 0
M  V30 6269 O 584.01 1.02314 -3.99507 0
M  V30 6270 H 583.351 -0.0816556 -0.65896 0
M  V30 6271 H 585.88 -0.859027 -1.85693 0
M  V30 6272 H 585.891 0.170138 -4.07645 0
M  V30 6273 H 584.566 -0.981685 -4.04148 0
M  V30 6274 H 583.143 0.805452 -3.64097 0
M  V30 6275 N 585.328 1.53329 -0.364422 0
M  V30 6276 C 586.258 2.28627 0.474543 0
M  V30 6277 C 587.239 1.31009 1.08492 0
M  V30 6278 O 588.424 1.59878 1.10239 0
M  V30 6279 C 585.554 3.07465 1.61501 0
M  V30 6280 C 584.508 4.1276 1.13194 0
M  V30 6281 C 583.834 4.79674 2.36255 0
M  V30 6282 C 585.134 5.21847 0.217507 0
M  V30 6283 H 586.828 2.99005 -0.153656 0
M  V30 6284 H 584.374 1.43803 -0.0753406 0
M  V30 6285 H 586.327 3.58889 2.20855 0
M  V30 6286 H 585.051 2.34775 2.27042 0
M  V30 6287 H 583.71 3.62281 0.56109 0
M  V30 6288 H 583.358 4.03557 3.00251 0
M  V30 6289 H 583.058 5.50827 2.04606 0
M  V30 6290 H 584.582 5.33892 2.96297 0
M  V30 6291 H 585.996 5.6878 0.718493 0
M  V30 6292 H 584.393 6.00099 -0.00806408 0
M  V30 6293 H 585.463 4.7921 -0.740653 0
M  V30 6294 N 586.806 0.0935595 1.57322 0
M  V30 6295 C 588.222 -0.263091 1.57417 0
M  V30 6296 C 588.422 -1.68526 1.1046 0
M  V30 6297 O 587.478 -2.40139 0.780357 0
M  V30 6298 C 588.791 -0.0529201 3.00653 0
M  V30 6299 C 590.339 -0.120788 3.12767 0
M  V30 6300 C 590.814 0.0613707 4.57959 0
M  V30 6301 N 592.305 0.00648534 4.632 0
M  V30 6302 C 593.04 0.122699 5.73269 0
M  V30 6303 N 592.536 0.29366 6.92177 0
M  V30 6304 N 594.329 0.0640787 5.62063 0
M  V30 6305 H 586.48 1.02277 1.86154 0
M  V30 6306 H 588.743 0.4007 0.859153 0
M  V30 6307 H 588.449 0.929279 3.39201 0
M  V30 6308 H 588.323 -0.795899 3.68708 0
M  V30 6309 H 590.71 -1.09349 2.74093 0
M  V30 6310 H 590.791 0.653656 2.47307 0
M  V30 6311 H 590.435 1.03093 4.97327 0
M  V30 6312 H 590.365 -0.732748 5.21477 0
M  V30 6313 H 592.856 -0.123173 3.77699 0
M  V30 6314 H 593.169 0.37389 7.71895 0
M  V30 6315 H 591.514 0.329307 6.94219 0
M  V30 6316 H 594.705 -0.0683396 4.6805 0
M  V30 6317 H 594.878 0.158097 6.47807 0
M  V30 6318 N 588.284 -1.56567 -0.180126 0
M  V30 6319 C 589.214 -1.98753 -1.22553 0
M  V30 6320 C 590.195 -0.86175 -1.46656 0
M  V30 6321 O 591.38 -1.12719 -1.58139 0
M  V30 6322 C 588.51 -2.33988 -2.56645 0
M  V30 6323 C 587.464 -3.49445 -2.47128 0
M  V30 6324 C 586.79 -3.70397 -3.8563 0
M  V30 6325 C 588.09 -4.83171 -1.98352 0
M  V30 6326 H 589.784 -2.86332 -0.874896 0
M  V30 6327 H 587.33 -1.37757 -0.419414 0
M  V30 6328 H 589.283 -2.62097 -3.29974 0
M  V30 6329 H 588.007 -1.43309 -2.93479 0
M  V30 6330 H 586.666 -3.2145 -1.76254 0
M  V30 6331 H 586.314 -2.77023 -4.19842 0
M  V30 6332 H 586.014 -4.48077 -3.80132 0
M  V30 6333 H 587.538 -4.00897 -4.60558 0
M  V30 6334 H 588.952 -5.10213 -2.61449 0
M  V30 6335 H 587.349 -5.64425 -2.03823 0
M  V30 6336 H 588.419 -4.75753 -0.937402 0
M  V30 6337 N 589.762 0.448376 -1.51087 0
M  V30 6338 C 590.709 1.54341 -1.71603 0
M  V30 6339 C 591.679 1.56463 -0.557536 0
M  V30 6340 O 592.864 1.73644 -0.79072 0
M  V30 6341 C 590.004 2.92148 -1.83695 0
M  V30 6342 C 589.117 2.99639 -3.11192 0
M  V30 6343 C 588.252 4.285 -3.13944 0
M  V30 6344 C 587.291 4.29819 -4.35801 0
M  V30 6345 N 586.428 5.50186 -4.36164 0
M  V30 6346 H 591.268 1.36151 -2.65079 0
M  V30 6347 H 588.805 0.661585 -1.31383 0
M  V30 6348 H 590.763 3.72093 -1.88687 0
M  V30 6349 H 589.393 3.0892 -0.936374 0
M  V30 6350 H 588.445 2.12425 -3.15562 0
M  V30 6351 H 589.757 2.96474 -4.01129 0
M  V30 6352 H 588.911 5.16811 -3.17791 0
M  V30 6353 H 587.65 4.34307 -2.21876 0
M  V30 6354 H 586.655 3.39902 -4.32142 0
M  V30 6355 H 587.88 4.25685 -5.29121 0
M  V30 6356 H 585.826 5.56735 -3.46961 0
M  V30 6357 H 585.743 5.48856 -5.19897 0
M  V30 6358 H 587.011 6.40559 -4.44189 0
M  V30 6359 N 591.24 1.41047 0.703093 0
M  V30 6360 C 592.15 1.44645 1.84703 0
M  V30 6361 C 593.166 0.337778 1.7069 0
M  V30 6362 O 594.342 0.584327 1.92737 0
M  V30 6363 C 591.407 1.31928 3.20618 0
M  V30 6364 C 590.468 2.53047 3.46794 0
M  V30 6365 C 589.701 2.40927 4.76224 0
M  V30 6366 O 589.924 1.42978 5.5219 0
M  V30 6367 O 588.858 3.30543 5.03016 0
M  V30 6368 H 592.684 2.41139 1.84624 0
M  V30 6369 H 590.269 1.22504 0.855167 0
M  V30 6370 H 592.151 1.27092 4.01778 0
M  V30 6371 H 590.826 0.385469 3.21397 0
M  V30 6372 H 589.733 2.6346 2.65593 0
M  V30 6373 H 591.066 3.45231 3.50822 0
M  V30 6374 N 592.718 -0.936591 1.26751 0
M  V30 6375 C 593.948 -1.71509 1.15188 0
M  V30 6376 C 594.356 -1.86885 -0.295037 0
M  V30 6377 O 593.699 -1.37915 -1.21347 0
M  V30 6378 C 593.761 -3.13853 1.75318 0
M  V30 6379 C 593.425 -3.21845 3.24445 0
M  V30 6380 C 594.422 -3.04771 4.21201 0
M  V30 6381 C 592.107 -3.45088 3.64992 0
M  V30 6382 C 594.101 -3.10816 5.56482 0
M  V30 6383 C 591.788 -3.50767 5.00405 0
M  V30 6384 C 592.786 -3.33648 5.9596 0
M  V30 6385 O 592.474 -3.39045 7.28906 0
M  V30 6386 H 592.206 -0.543658 0.401761 0
M  V30 6387 H 594.76 -1.18234 1.67958 0
M  V30 6388 H 592.99 -3.6857 1.17016 0
M  V30 6389 H 594.679 -3.73634 1.58596 0
M  V30 6390 H 595.445 -2.86665 3.91214 0
M  V30 6391 H 591.324 -3.57467 2.91098 0
M  V30 6392 H 594.868 -2.97372 6.31043 0
M  V30 6393 H 590.765 -3.68396 5.30052 0
M  V30 6394 H 591.533 -3.55558 7.37238 0
M  V30 6395 N 594.196 -1.08629 -1.14182 0
M  V30 6396 C 595.146 -0.687882 -2.17376 0
M  V30 6397 C 596.13 0.293632 -1.58198 0
M  V30 6398 O 597.322 0.105292 -1.76687 0
M  V30 6399 C 594.451 -0.101184 -3.43151 0
M  V30 6400 C 593.537 -1.10862 -4.09354 0
M  V30 6401 N 593.928 -2.29285 -4.50846 0
M  V30 6402 C 592.226 -0.944897 -4.35876 0
M  V30 6403 C 592.927 -2.93305 -5.02342 0
M  V30 6404 N 591.903 -2.20903 -4.96692 0
M  V30 6405 H 595.705 -1.58963 -2.472 0
M  V30 6406 H 593.219 -0.961329 -1.3089 0
M  V30 6407 H 595.216 0.202209 -4.16409 0
M  V30 6408 H 593.876 0.795522 -3.14804 0
M  V30 6409 H 594.887 -2.66927 -4.43813 0
M  V30 6410 H 591.564 -0.102186 -4.17375 0
M  V30 6411 H 592.954 -3.93932 -5.44304 0
M  V30 6412 N 595.674 1.31259 -0.872281 0
M  V30 6413 C 597.09 1.49283 -0.564521 0
M  V30 6414 C 597.29 1.80243 0.900807 0
M  V30 6415 O 596.346 1.88246 1.68284 0
M  V30 6416 C 597.659 2.62503 -1.46673 0
M  V30 6417 C 599.207 2.76386 -1.46901 0
M  V30 6418 C 599.682 3.92705 -2.35684 0
M  V30 6419 N 601.173 3.99995 -2.33577 0
M  V30 6420 C 601.908 4.89276 -2.98992 0
M  V30 6421 N 601.404 5.83443 -3.73585 0
M  V30 6422 N 603.197 4.82541 -2.88289 0
M  V30 6423 H 595.348 1.09432 -1.82039 0
M  V30 6424 H 597.611 0.540949 -0.77851 0
M  V30 6425 H 597.317 2.46407 -2.50951 0
M  V30 6426 H 597.191 3.58695 -1.16696 0
M  V30 6427 H 599.578 2.91894 -0.433796 0
M  V30 6428 H 599.659 1.80853 -1.80903 0
M  V30 6429 H 599.303 3.77954 -3.39283 0
M  V30 6430 H 599.233 4.87549 -1.99006 0
M  V30 6431 H 601.724 3.32624 -1.7936 0
M  V30 6432 H 602.037 6.48303 -4.20622 0
M  V30 6433 H 600.382 5.83415 -3.77694 0
M  V30 6434 H 603.573 4.07951 -2.2955 0
M  V30 6435 H 603.746 5.51916 -3.39549 0
M  V30 6436 N 597.152 0.631951 1.44375 0
M  V30 6437 C 598.082 -0.0593243 2.33425 0
M  V30 6438 C 599.063 -0.833964 1.48253 0
M  V30 6439 O 600.248 -0.799682 1.76971 0
M  V30 6440 C 597.378 -1.04096 3.31333 0
M  V30 6441 C 596.332 -0.377899 4.26328 0
M  V30 6442 C 595.658 -1.4695 5.14111 0
M  V30 6443 C 596.958 0.716371 5.17364 0
M  V30 6444 H 598.652 0.684287 2.91475 0
M  V30 6445 H 596.198 0.330518 1.40156 0
M  V30 6446 H 598.151 -1.53331 3.92514 0
M  V30 6447 H 596.875 -1.81547 2.71493 0
M  V30 6448 H 595.534 0.0938054 3.6648 0
M  V30 6449 H 595.182 -2.2349 4.50623 0
M  V30 6450 H 594.882 -1.03121 5.78481 0
M  V30 6451 H 596.406 -1.96363 5.78164 0
M  V30 6452 H 597.82 0.307089 5.72477 0
M  V30 6453 H 596.217 1.07784 5.90341 0
M  V30 6454 H 597.287 1.58316 4.58327 0
M  V30 6455 N 598.631 -1.53133 0.372548 0
M  V30 6456 C 599.563 -2.23557 -0.505444 0
M  V30 6457 C 600.576 -1.25211 -1.04049 0
M  V30 6458 O 601.765 -1.51391 -0.945675 0
M  V30 6459 C 598.865 -2.92516 -1.71136 0
M  V30 6460 C 598.038 -4.17428 -1.30661 0
M  V30 6461 C 597.097 -4.69535 -2.37536 0
M  V30 6462 O 596.123 -5.33042 -1.99637 0
M  V30 6463 N 597.325 -4.47947 -3.6922 0
M  V30 6464 H 600.09 -2.9954 0.0978259 0
M  V30 6465 H 597.651 -1.60684 0.198068 0
M  V30 6466 H 599.643 -3.24281 -2.42124 0
M  V30 6467 H 598.213 -2.19944 -2.22134 0
M  V30 6468 H 597.433 -3.91888 -0.426292 0
M  V30 6469 H 598.721 -4.98622 -1.01259 0
M  V30 6470 H 598.119 -3.97219 -4.02783 0
M  V30 6471 H 596.676 -4.84245 -4.36292 0
M  V30 6472 N 600.109 -0.101901 -1.5727 0
M  V30 6473 C 601.334 0.571759 -1.99363 0
M  V30 6474 C 601.759 1.60507 -0.980768 0
M  V30 6475 O 601.117 1.81231 0.0498517 0
M  V30 6476 C 601.165 1.18996 -3.404 0
M  V30 6477 O 600.269 2.30572 -3.41922 0
M  V30 6478 H 599.61 0.144449 -0.648098 0
M  V30 6479 H 602.14 -0.185325 -2.03759 0
M  V30 6480 H 602.15 1.52962 -3.78241 0
M  V30 6481 H 600.825 0.432984 -4.1364 0
M  V30 6482 H 599.402 1.98173 -3.15883 0
M  V30 6483 N 601.587 1.56661 0.17182 0
M  V30 6484 C 602.534 1.96371 1.21273 0
M  V30 6485 C 603.504 0.82756 1.44016 0
M  V30 6486 O 604.689 1.08764 1.56764 0
M  V30 6487 C 601.829 2.32838 2.54716 0
M  V30 6488 C 600.942 3.59628 2.39356 0
M  V30 6489 C 600.077 3.85311 3.65662 0
M  V30 6490 C 599.116 5.0545 3.45234 0
M  V30 6491 N 598.253 5.27268 4.63608 0
M  V30 6492 H 603.093 2.85106 0.86709 0
M  V30 6493 H 600.63 1.41073 0.416744 0
M  V30 6494 H 602.588 2.52004 3.3249 0
M  V30 6495 H 601.218 1.47214 2.87277 0
M  V30 6496 H 600.27 3.4838 1.52761 0
M  V30 6497 H 601.582 4.4756 2.20207 0
M  V30 6498 H 600.736 4.04841 4.51872 0
M  V30 6499 H 599.475 2.95753 3.8779 0
M  V30 6500 H 598.48 4.85819 2.5741 0
M  V30 6501 H 599.705 5.96538 3.24529 0
M  V30 6502 H 597.651 4.40662 4.85956 0
M  V30 6503 H 597.568 6.09422 4.4737 0
M  V30 6504 H 598.836 5.51277 5.51103 0
M  V30 6505 N 603.065 -0.440357 1.51323 0
M  V30 6506 C 604.311 -1.19181 1.64085 0
M  V30 6507 C 604.644 -1.90936 0.354575 0
M  V30 6508 O 603.919 -1.8347 -0.645675 0
M  V30 6509 C 604.202 -2.2112 2.84215 0
M  V30 6510 C 604.055 -1.53468 4.22809 0
M  V30 6511 C 605.374 -3.22133 2.99864 0
M  V30 6512 H 602.493 -0.431924 0.597169 0
M  V30 6513 H 605.135 -0.481443 1.83799 0
M  V30 6514 H 603.285 -2.81703 2.67537 0
M  V30 6515 H 604.957 -0.962455 4.51148 0
M  V30 6516 H 603.2 -0.837086 4.25647 0
M  V30 6517 H 603.871 -2.27694 5.02852 0
M  V30 6518 H 606.347 -2.71601 3.15233 0
M  V30 6519 H 605.223 -3.90756 3.85488 0
M  V30 6520 H 605.484 -3.88061 2.11804 0
M  V30 6521 N 604.543 -1.41418 -0.695603 0
M  V30 6522 C 605.771 -1.4413 -1.48439 0
M  V30 6523 C 606.186 -0.0465698 -1.88743 0
M  V30 6524 O 605.543 0.934117 -1.56782 0
M  V30 6525 C 605.594 -2.34998 -2.74696 0
M  V30 6526 O 605.315 -3.69043 -2.36091 0
M  V30 6527 C 606.816 -2.46513 -3.68438 0
M  V30 6528 H 604.036 -0.490905 -0.457442 0
M  V30 6529 H 606.58 -1.85702 -0.856454 0
M  V30 6530 H 604.735 -1.96735 -3.33728 0
M  V30 6531 H 605.149 -4.17505 -3.17474 0
M  V30 6532 H 606.623 -3.1426 -4.53811 0
M  V30 6533 H 607.1 -1.49638 -4.12922 0
M  V30 6534 H 607.706 -2.85412 -3.1531 0
M  V30 6535 N 606.021 0.929856 -1.27246 0
M  V30 6536 C 606.984 2.01172 -1.09829 0
M  V30 6537 C 607.984 1.60743 -0.0429687 0
M  V30 6538 O 609.174 1.71813 -0.287373 0
M  V30 6539 C 606.306 3.34191 -0.673003 0
M  V30 6540 H 607.499 2.18054 -2.05895 0
M  V30 6541 H 605.052 1.11036 -1.10003 0
M  V30 6542 H 605.787 3.23009 0.289134 0
M  V30 6543 H 605.572 3.64892 -1.43515 0
M  V30 6544 H 607.062 4.13646 -0.573323 0
M  V30 6545 N 607.499 1.09233 1.13605 0
M  V30 6546 C 608.446 0.729921 2.18954 0
M  V30 6547 C 609.416 -0.287916 1.63586 0
M  V30 6548 O 610.601 -0.170003 1.90041 0
M  V30 6549 C 607.741 0.154489 3.44754 0
M  V30 6550 C 606.854 1.22613 4.14234 0
M  V30 6551 C 605.989 0.613657 5.27644 0
M  V30 6552 C 605.028 1.66674 5.8897 0
M  V30 6553 N 604.165 1.07545 6.93814 0
M  V30 6554 H 609.005 1.63257 2.49302 0
M  V30 6555 H 606.542 0.815693 1.22413 0
M  V30 6556 H 608.5 -0.196923 4.16735 0
M  V30 6557 H 607.13 -0.711433 3.14863 0
M  V30 6558 H 606.182 1.69485 3.40557 0
M  V30 6559 H 607.494 2.0238 4.55899 0
M  V30 6560 H 606.648 0.210976 6.06333 0
M  V30 6561 H 605.387 -0.215584 4.87223 0
M  V30 6562 H 604.392 2.07899 5.08978 0
M  V30 6563 H 605.617 2.49861 6.31464 0
M  V30 6564 H 603.563 0.267451 6.55455 0
M  V30 6565 H 603.48 1.81011 7.3401 0
M  V30 6566 H 604.748 0.698906 7.7636 0
M  V30 6567 O 609.016 -1.25824 1.01246 0
M  V30 6568 H 609.707 -1.81718 0.670699 0
M  V30 END ATOM
M  V30 BEGIN BOND
M  V30 END BOND
M  V30 END CTAB
M  END
$$$$
