drugbank_target|Q13936 Voltage-dependent L-type calcium channel subunit alpha-1C (DB00270; DB00308; DB00343; DB00381; DB00393; DB00401; DB00568; DB00622; DB00661; DB00898; DB01023; DB01054; DB01115; DB01373; DB01388; DB04855; DB04920; DB06712; DB06751; DB09227; DB09229; DB09235; DB09237; DB11633; DB12278)
 OpenBabel12092119313D

  0  0  0     0  0            999 V3000
M  V30 BEGIN CTAB
M  V30 COUNTS 35056 35453 0 0 0
M  V30 BEGIN ATOM
M  V30 1 H -0.908 1.98254 -0.117106 0
M  V30 2 N 0 1.576 0 0
M  V30 3 C 0.933 2.03868 1.02534 0
M  V30 4 C 1.911 0.928543 1.3348 0
M  V30 5 O 3.095 1.19667 1.45644 0
M  V30 6 C 0.222 2.43627 2.35294 0
M  V30 7 C -0.732 3.65373 2.2001 0
M  V30 8 S 0.101 5.13292 1.52614 0
M  V30 9 C 1.257 5.56322 2.86805 0
M  V30 10 H 1.49 2.90518 0.631377 0
M  V30 11 H -0.977 1.52953 0.210867 0
M  V30 12 H 0.981 2.67203 3.11629 0
M  V30 13 H -0.358 1.57376 2.7183 0
M  V30 14 H -1.165 3.90944 3.18086 0
M  V30 15 H -1.563 3.418 1.51819 0
M  V30 16 H 0.729 5.58782 3.83104 0
M  V30 17 H 1.672 6.56266 2.65933 0
M  V30 18 H 2.08 4.83886 2.90714 0
M  V30 19 N 1.4781 -0.272755 1.55222 0
M  V30 20 C 2.7241 -1.00581 1.761 0
M  V30 21 C 3.0571 -1.85932 0.560625 0
M  V30 22 O 2.3321 -1.89416 -0.441801 0
M  V30 23 C 2.6151 -1.88816 3.06628 0
M  V30 24 C 2.4681 -1.06457 4.37021 0
M  V30 25 C 3.7871 -2.8752 3.33197 0
M  V30 26 H 0.9061 -0.364244 0.640699 0
M  V30 27 H 3.5481 -0.278189 1.87952 0
M  V30 28 H 1.6981 -2.50856 2.96654 0
M  V30 29 H 3.3701 -0.464863 4.58952 0
M  V30 30 H 1.6131 -0.368043 4.32236 0
M  V30 31 H 2.2841 -1.71514 5.24678 0
M  V30 32 H 4.7601 -2.35615 3.42965 0
M  V30 33 H 3.6361 -3.46399 4.25792 0
M  V30 34 H 3.8971 -3.62657 2.52849 0
M  V30 35 N 2.9562 -1.48159 -0.537278 0
M  V30 36 C 3.9042 -1.62573 -1.66352 0
M  V30 37 C 4.8982 -0.492366 -1.62087 0
M  V30 38 O 6.1042 -0.670847 -1.67032 0
M  V30 39 H 2.4792 -0.511992 -0.550789 0
M  V30 40 H 4.4502 -2.57176 -1.51337 0
M  V30 41 C 3.1992 -1.67583 -3.04649 0
M  V30 42 H 2.5222 -2.54151 -3.08622 0
M  V30 43 H 3.9622 -1.81713 -3.83088 0
M  V30 44 C 2.4212 -0.413039 -3.34358 0
M  V30 45 O 2.9512 0.477259 -3.98855 0
M  V30 46 N 1.1572 -0.286961 -2.8918 0
M  V30 47 H 0.7042 -1.01241 -2.36871 0
M  V30 48 H 0.6622 0.556963 -3.09427 0
M  V30 49 N 4.4343 0.785586 -1.36625 0
M  V30 50 C 5.3443 1.92964 -1.33425 0
M  V30 51 C 6.3603 1.72394 -0.235851 0
M  V30 52 O 7.5363 1.95866 -0.468878 0
M  V30 53 C 4.6013 3.27884 -1.12662 0
M  V30 54 C 3.6623 3.61204 -2.32013 0
M  V30 55 C 2.8953 4.89687 -2.12231 0
M  V30 56 O 3.1183 5.59704 -1.09945 0
M  V30 57 O 2.0523 5.21752 -3.00098 0
M  V30 58 H 5.8783 1.98613 -2.29753 0
M  V30 59 H 3.4633 0.926384 -1.17211 0
M  V30 60 H 5.3453 4.08614 -1.03016 0
M  V30 61 H 4.0203 3.23118 -0.193991 0
M  V30 62 H 2.9273 2.80765 -2.47228 0
M  V30 63 H 4.2603 3.70698 -3.23796 0
M  V30 64 N 5.9124 1.20967 1.01018 0
M  V30 65 C 6.8604 0.961223 2.1181 0
M  V30 66 C 7.8544 -0.0897034 1.69162 0
M  V30 67 O 9.0604 0.0612271 1.79896 0
M  V30 68 H 5.4354 0.29355 0.692338 0
M  V30 69 H 7.4064 1.90178 2.29946 0
M  V30 70 C 6.1554 0.536854 3.4353 0
M  V30 71 H 5.4784 1.33713 3.76777 0
M  V30 72 H 6.9184 0.402286 4.22087 0
M  V30 73 C 5.3774 -0.751574 3.2841 0
M  V30 74 O 5.9074 -1.80841 3.58691 0
M  V30 75 N 4.1134 -0.716079 2.81639 0
M  V30 76 H 3.6604 0.144236 2.57196 0
M  V30 77 H 3.6184 -1.57847 2.71904 0
M  V30 78 N 7.3905 -1.2043 1.01659 0
M  V30 79 C 8.6185 -1.93777 0.725132 0
M  V30 80 C 9.0335 -1.74772 -0.714166 0
M  V30 81 O 8.3905 -1.06169 -1.4844 0
M  V30 82 C 8.4415 -3.45876 1.05129 0
M  V30 83 O 8.1625 -3.6426 2.43406 0
M  V30 84 C 9.6635 -4.36368 0.780891 0
M  V30 85 H 6.8835 -0.615901 0.266284 0
M  V30 86 H 9.4275 -1.52922 1.35776 0
M  V30 87 H 7.5825 -3.8461 0.464065 0
M  V30 88 H 7.9965 -4.58246 2.55169 0
M  V30 89 H 9.4705 -5.41743 1.05918 0
M  V30 90 H 9.9475 -4.38275 -0.284937 0
M  V30 91 H 10.5535 -4.03296 1.35027 0
M  V30 92 N 8.8686 -0.792821 -1.36206 0
M  V30 93 C 10.2846 -0.474903 -1.52371 0
M  V30 94 C 10.4846 1.00622 -1.74578 0
M  V30 95 O 9.5406 1.79162 -1.77924 0
M  V30 96 C 10.8536 -1.3083 -2.70747 0
M  V30 97 C 12.4016 -1.30234 -2.84619 0
M  V30 98 C 12.8766 -2.11956 -4.06004 0
M  V30 99 N 14.3676 -2.09419 -4.13156 0
M  V30 100 C 15.1026 -2.69419 -5.06163 0
M  V30 101 N 14.5986 -3.3829 -6.04592 0
M  V30 102 N 16.3916 -2.59134 -4.98804 0
M  V30 103 H 8.5426 -1.75222 -1.20046 0
M  V30 104 H 10.8056 -0.745024 -0.586211 0
M  V30 105 H 10.5116 -2.35881 -2.6087 0
M  V30 106 H 10.3856 -0.95196 -3.6499 0
M  V30 107 H 12.7726 -0.259748 -2.93955 0
M  V30 108 H 12.8536 -1.69847 -1.91274 0
M  V30 109 H 12.4976 -3.16248 -3.97429 0
M  V30 110 H 12.4276 -1.69711 -4.98503 0
M  V30 111 H 14.9186 -1.59297 -3.42685 0
M  V30 112 H 15.2316 -3.81394 -6.7213 0
M  V30 113 H 13.5766 -3.42393 -6.04807 0
M  V30 114 H 16.7676 -2.04927 -4.20859 0
M  V30 115 H 16.9406 -3.06185 -5.711 0
M  V30 116 N 10.3467 1.47872 -0.545128 0
M  V30 117 C 11.2797 2.2675 0.256885 0
M  V30 118 C 12.2577 1.33293 0.931228 0
M  V30 119 O 13.4417 1.62657 0.95262 0
M  V30 120 C 10.5687 3.09976 1.36501 0
M  V30 121 C 9.6147 4.1892 0.800496 0
M  V30 122 S 10.4477 5.34397 -0.343505 0
M  V30 123 C 11.6037 6.21186 0.766733 0
M  V30 124 H 11.8367 2.94425 -0.412479 0
M  V30 125 H 9.3697 1.50806 -0.331204 0
M  V30 126 H 11.3277 3.585 1.9997 0
M  V30 127 H 9.9887 2.41686 2.00616 0
M  V30 128 H 9.1817 4.76836 1.63227 0
M  V30 129 H 8.7837 3.73215 0.242217 0
M  V30 130 H 11.0757 6.56804 1.66178 0
M  V30 131 H 12.0187 7.07742 0.225204 0
M  V30 132 H 12.4267 5.54574 1.05396 0
M  V30 133 N 11.8248 0.280983 1.55075 0
M  V30 134 C 13.0548 -0.336804 2.03836 0
M  V30 135 C 13.4628 -1.49577 1.15859 0
M  V30 136 O 12.8058 -1.82888 0.172503 0
M  V30 137 C 12.8678 -0.874616 3.48699 0
M  V30 138 C 12.5318 0.156478 4.56732 0
M  V30 139 C 13.5288 0.978032 5.10618 0
M  V30 140 C 11.2138 0.292409 5.01448 0
M  V30 141 C 13.2078 1.92165 6.07743 0
M  V30 142 C 10.8948 1.23949 5.98398 0
M  V30 143 C 11.8928 2.05261 6.51427 0
M  V30 144 O 11.5808 2.98367 7.4648 0
M  V30 145 H 11.3128 -0.0800885 0.671239 0
M  V30 146 H 13.8668 0.412589 2.01213 0
M  V30 147 H 12.0968 -1.67418 3.4858 0
M  V30 148 H 13.7858 -1.40612 3.80766 0
M  V30 149 H 14.5518 0.883782 4.7688 0
M  V30 150 H 10.4308 -0.330498 4.59814 0
M  V30 151 H 13.9748 2.55672 6.49059 0
M  V30 152 H 9.8718 1.33454 6.31554 0
M  V30 153 H 10.6398 2.93116 7.64215 0
M  V30 154 N 13.3029 -1.57598 0.00835791 0
M  V30 155 C 14.5519 -1.90107 -0.673968 0
M  V30 156 C 14.8649 -0.884275 -1.7447 0
M  V30 157 O 16.0709 -1.09987 -2.48224 0
M  V30 158 C 14.5269 -3.37497 -1.24995 0
M  V30 159 C 14.1349 -4.47491 -0.2136 0
M  V30 160 C 15.8789 -3.79104 -1.90999 0
M  V30 161 C 13.7859 -5.85963 -0.80005 0
M  V30 162 H 12.7159 -0.709393 -0.255495 0
M  V30 163 H 15.3669 -1.83365 0.0702693 0
M  V30 164 H 13.7489 -3.39102 -2.04513 0
M  V30 165 H 14.9229 -4.57414 0.557596 0
M  V30 166 H 13.2379 -4.14956 0.346474 0
M  V30 167 H 15.8349 -4.79901 -2.35795 0
M  V30 168 H 16.1779 -3.1306 -2.74407 0
M  V30 169 H 16.7109 -3.79833 -1.18203 0
M  V30 170 H 13.4499 -6.555 -0.00456708 0
M  V30 171 H 12.9699 -5.79687 -1.54021 0
M  V30 172 H 14.6489 -6.33884 -1.29615 0
M  V30 173 N 14.781 0.264519 -1.55364 0
M  V30 174 C 16.192 0.834936 -1.6699 0
M  V30 175 C 16.543 1.86718 -0.602552 0
M  V30 176 O 15.668 2.14899 0.254425 0
M  V30 177 C 16.263 1.5212 -3.02729 0
M  V30 178 C 14.822 2.03954 -3.16354 0
M  V30 179 C 13.969 0.884498 -2.62815 0
M  V30 180 H 16.92 0.0406869 -1.58648 0
M  V30 181 H 16.941 2.38853 -2.96191 0
M  V30 182 H 16.453 0.769668 -3.80392 0
M  V30 183 H 14.554 2.82041 -2.43482 0
M  V30 184 H 14.667 2.24902 -4.23032 0
M  V30 185 H 13.031 1.2802 -2.20188 0
M  V30 186 H 13.814 0.14634 -3.42988 0
M  V30 187 N 16.2591 1.48442 0.529413 0
M  V30 188 C 17.1691 1.6569 1.66084 0
M  V30 189 C 18.1851 0.539432 1.65427 0
M  V30 190 O 19.3611 0.810572 1.84368 0
M  V30 191 C 16.4261 1.69315 3.02545 0
M  V30 192 C 15.4871 2.92694 3.14052 0
M  V30 193 C 14.7201 2.96137 4.44003 0
M  V30 194 O 14.9431 2.07973 5.31134 0
M  V30 195 O 13.8771 3.88312 4.59888 0
M  V30 196 H 17.7031 2.61483 1.54469 0
M  V30 197 H 15.2881 1.3185 0.702567 0
M  V30 198 H 17.1701 1.74217 3.83701 0
M  V30 199 H 15.8451 0.766966 3.14483 0
M  V30 200 H 14.7521 2.93324 2.32189 0
M  V30 201 H 16.0851 3.84699 3.0703 0
M  V30 202 N 17.7372 -0.778329 1.37039 0
M  V30 203 C 18.6472 -1.92253 1.34446 0
M  V30 204 C 19.6632 -1.72267 0.244991 0
M  V30 205 O 20.8392 -1.95615 0.479258 0
M  V30 206 C 17.9042 -3.27282 1.144 0
M  V30 207 C 16.9652 -3.59969 2.33925 0
M  V30 208 C 16.1982 -4.88555 2.14825 0
M  V30 209 O 16.4212 -5.59113 1.12912 0
M  V30 210 O 15.3552 -5.20153 3.02861 0
M  V30 211 H 19.1812 -1.97392 2.30803 0
M  V30 212 H 16.7662 -0.920154 1.17701 0
M  V30 213 H 18.6482 -4.08062 1.05182 0
M  V30 214 H 17.3232 -3.23011 0.211124 0
M  V30 215 H 16.2302 -2.7945 2.48714 0
M  V30 216 H 17.5632 -3.68976 3.25757 0
M  V30 217 N 19.2153 -1.21501 -1.00376 0
M  V30 218 C 20.1633 -0.972442 -2.11297 0
M  V30 219 C 21.1573 0.080731 -1.69208 0
M  V30 220 O 22.3633 -0.0707666 -1.79861 0
M  V30 221 H 18.7383 -0.297218 -0.690772 0
M  V30 222 H 20.7093 -1.91394 -2.28934 0
M  V30 223 C 19.4583 -0.555065 -3.43241 0
M  V30 224 H 18.7813 -1.35709 -3.76062 0
M  V30 225 H 20.2213 -0.424664 -4.21868 0
M  V30 226 C 18.6803 0.734147 -3.28804 0
M  V30 227 O 19.2103 1.78937 -3.59645 0
M  V30 228 N 17.4163 0.701133 -2.82015 0
M  V30 229 H 16.9633 -0.157874 -2.57116 0
M  V30 230 H 16.9213 1.56403 -2.72737 0
M  V30 231 N 20.6934 1.19889 -1.02296 0
M  V30 232 C 21.6434 2.20777 -0.56934 0
M  V30 233 C 22.6274 1.56379 0.378741 0
M  V30 234 O 23.8194 1.75859 0.200673 0
M  V30 235 C 20.9484 3.43196 0.0845077 0
M  V30 236 C 20.0344 4.14749 -0.88566 0
M  V30 237 N 20.4254 4.62584 -2.04573 0
M  V30 238 C 18.7234 4.40347 -0.707835 0
M  V30 239 C 19.4244 5.17466 -2.65714 0
M  V30 240 N 18.4004 5.0791 -1.93723 0
M  V30 241 H 22.2024 2.55434 -1.45365 0
M  V30 242 H 19.7164 1.35897 -0.88915 0
M  V30 243 H 21.7134 4.14707 0.427067 0
M  V30 244 H 20.3734 3.10042 0.964574 0
M  V30 245 H 21.3844 4.57597 -2.4254 0
M  V30 246 H 18.0614 4.17317 0.12364 0
M  V30 247 H 19.4514 5.64808 -3.63925 0
M  V30 248 N 22.1715 0.800033 1.35784 0
M  V30 249 C 23.1035 0.163596 2.28615 0
M  V30 250 C 24.1165 -0.633317 1.49976 0
M  V30 251 O 25.3055 -0.466754 1.72289 0
M  V30 252 C 22.4055 -0.790958 3.29541 0
M  V30 253 C 21.5785 -0.0418255 4.3738 0
M  V30 254 C 20.6375 -0.91389 5.18203 0
M  V30 255 O 19.6635 -0.367234 5.68014 0
M  V30 256 N 20.8655 -2.23682 5.35674 0
M  V30 257 H 23.6305 0.96105 2.83873 0
M  V30 258 H 21.1915 0.654894 1.48063 0
M  V30 259 H 23.1835 -1.37844 3.80501 0
M  V30 260 H 21.7535 -1.48925 2.74846 0
M  V30 261 H 20.9735 0.726813 3.87442 0
M  V30 262 H 22.2615 0.474719 5.06581 0
M  V30 263 H 21.6595 -2.70497 4.96838 0
M  V30 264 H 20.2165 -2.77369 5.89839 0
M  V30 265 N 23.6496 -1.47581 0.552962 0
M  V30 266 C 24.8976 -2.02082 0.0272703 0
M  V30 267 C 25.2186 -1.4301 -1.32563 0
M  V30 268 O 24.4886 -0.603745 -1.86365 0
M  V30 269 H 23.0686 -0.746966 0.00709182 0
M  V30 270 H 25.7306 -1.81033 0.722008 0
M  V30 271 H 24.8266 -3.12034 -0.0639951 0
M  V30 272 N 25.1277 -0.289203 -1.54924 0
M  V30 273 C 26.3527 0.329299 -2.04769 0
M  V30 274 C 26.7777 1.4763 -1.16564 0
M  V30 275 O 26.1357 1.80527 -0.167186 0
M  V30 276 C 26.1837 0.774438 -3.52186 0
M  V30 277 O 25.2877 1.88038 -3.67036 0
M  V30 278 H 24.6287 0.0659259 -0.660719 0
M  V30 279 H 27.1587 -0.42761 -2.00082 0
M  V30 280 H 27.1687 1.06642 -3.93816 0
M  V30 281 H 25.8437 -0.0646707 -4.1585 0
M  V30 282 H 24.4207 1.58985 -3.3731 0
M  V30 283 N 26.6058 1.57591 -0.0167156 0
M  V30 284 C 27.5538 2.10604 0.987353 0
M  V30 285 C 28.5478 1.02977 1.34507 0
M  V30 286 O 29.7538 1.21425 1.32875 0
M  V30 287 H 26.1288 0.672695 0.336134 0
M  V30 288 H 28.0998 2.93925 0.514817 0
M  V30 289 C 26.8488 2.6382 2.26483 0
M  V30 290 H 26.1718 3.46278 1.99829 0
M  V30 291 H 27.6118 3.04573 2.94977 0
M  V30 292 C 26.0708 1.55992 2.9861 0
M  V30 293 O 26.6008 0.952521 3.90243 0
M  V30 294 N 24.8068 1.28335 2.60727 0
M  V30 295 H 24.3538 1.77914 1.86291 0
M  V30 296 H 24.3118 0.564115 3.09298 0
M  V30 297 N 28.0839 -0.256276 1.55502 0
M  V30 298 C 29.3139 -1.00196 1.80677 0
M  V30 299 C 29.7219 -1.79805 0.588797 0
M  V30 300 O 29.0649 -1.78055 -0.451883 0
M  V30 301 C 29.1269 -1.99515 2.99055 0
M  V30 302 C 28.7909 -1.38688 4.35448 0
M  V30 303 C 29.7879 -0.794079 5.138 0
M  V30 304 C 27.4729 -1.40906 4.82132 0
M  V30 305 C 29.4669 -0.231562 6.36979 0
M  V30 306 C 27.1539 -0.842684 6.05262 0
M  V30 307 C 28.1519 -0.254953 6.82524 0
M  V30 308 O 27.8399 0.3027 8.0333 0
M  V30 309 H 27.5719 -0.300919 0.60533 0
M  V30 310 H 30.1259 -0.287307 2.03381 0
M  V30 311 H 28.3559 -2.74785 2.72084 0
M  V30 312 H 30.0449 -2.60349 3.11405 0
M  V30 313 H 30.8109 -0.769519 4.78856 0
M  V30 314 H 26.6899 -1.85591 4.21992 0
M  V30 315 H 30.2339 0.227816 6.97228 0
M  V30 316 H 26.1309 -0.86454 6.39684 0
M  V30 317 H 26.8989 0.193662 8.18271 0
M  V30 318 N 29.562 -1.4872 -0.521534 0
M  V30 319 C 30.81 -1.56857 -1.27437 0
M  V30 320 C 31.131 -0.247982 -1.93417 0
M  V30 321 O 30.401 0.731151 -1.81744 0
M  V30 322 H 28.981 -0.577885 -0.473347 0
M  V30 323 H 31.643 -1.85233 -0.606205 0
M  V30 324 H 30.739 -2.35402 -2.0492 0
M  V30 325 N 31.0401 0.771051 -1.3745 0
M  V30 326 C 32.2651 1.56529 -1.36065 0
M  V30 327 C 32.6901 1.88029 0.0515859 0
M  V30 328 O 32.0481 1.49282 1.02882 0
M  V30 329 C 32.0961 2.85187 -2.20683 0
M  V30 330 O 31.2001 3.79593 -1.61193 0
M  V30 331 H 30.5411 0.47411 -0.464883 0
M  V30 332 H 33.0711 0.954269 -1.80983 0
M  V30 333 H 33.0811 3.34283 -2.33921 0
M  V30 334 H 31.7561 2.61588 -3.23334 0
M  V30 335 H 30.3331 3.38239 -1.56999 0
M  V30 336 N 32.5182 1.22032 0.997298 0
M  V30 337 C 33.9292 1.0397 1.55071 0
M  V30 338 C 34.2802 -0.398192 1.92117 0
M  V30 339 O 33.4052 -1.28254 1.74298 0
M  V30 340 C 34.0002 1.88109 2.81781 0
M  V30 341 C 32.5592 1.74357 3.33581 0
M  V30 342 C 31.7062 1.84846 2.06706 0
M  V30 343 H 34.6572 1.35941 0.818883 0
M  V30 344 H 34.6782 1.39589 3.53971 0
M  V30 345 H 34.1902 2.92754 2.54787 0
M  V30 346 H 32.2912 0.72427 3.65493 0
M  V30 347 H 32.4042 2.56772 4.04481 0
M  V30 348 H 30.7682 1.28238 2.20062 0
M  V30 349 H 31.5512 2.91014 1.82114 0
M  V30 350 N 33.9963 -1.19345 1.0293 0
M  V30 351 C 35.4123 -1.41069 0.746446 0
M  V30 352 C 35.6123 -1.90078 -0.668776 0
M  V30 353 O 34.6683 -2.0778 -1.4347 0
M  V30 354 C 35.9813 -2.42141 1.78292 0
M  V30 355 C 37.5293 -2.55887 1.80252 0
M  V30 356 C 38.0043 -3.60214 2.8286 0
M  V30 357 N 39.4953 -3.67711 2.81679 0
M  V30 358 C 40.2303 -4.48128 3.57727 0
M  V30 359 N 39.7263 -5.32248 4.43491 0
M  V30 360 N 41.5193 -4.42782 3.46267 0
M  V30 361 H 33.6703 -0.858536 1.94275 0
M  V30 362 H 35.9333 -0.439541 0.839945 0
M  V30 363 H 35.6393 -2.13155 2.79746 0
M  V30 364 H 35.5133 -3.41323 1.60557 0
M  V30 365 H 37.9003 -2.84196 0.794757 0
M  V30 366 H 37.9813 -1.56858 2.02062 0
M  V30 367 H 37.6253 -3.32647 3.83807 0
M  V30 368 H 37.5553 -4.58895 2.58307 0
M  V30 369 H 40.0463 -3.07634 2.19476 0
M  V30 370 H 40.3593 -5.90729 4.98256 0
M  V30 371 H 38.7043 -5.31707 4.47564 0
M  V30 372 H 41.8953 -3.76107 2.78677 0
M  V30 373 H 42.0683 -5.05215 4.05785 0
M  V30 374 N 35.4744 -0.807222 -1.35358 0
M  V30 375 C 36.8854 -0.44876 -1.81226 0
M  V30 376 C 37.2364 1.02929 -1.67033 0
M  V30 377 O 36.3614 1.79991 -1.20133 0
M  V30 378 C 36.9564 -0.807774 -3.2903 0
M  V30 379 C 35.5154 -0.501901 -3.73039 0
M  V30 380 C 34.6624 -1.03304 -2.57339 0
M  V30 381 H 37.6134 -0.998808 -1.23327 0
M  V30 382 H 37.6344 -0.10554 -3.80354 0
M  V30 383 H 37.1464 -1.88357 -3.39328 0
M  V30 384 H 35.2474 0.565128 -3.68289 0
M  V30 385 H 35.3604 -1.03497 -4.67787 0
M  V30 386 H 33.7244 -0.455339 -2.50597 0
M  V30 387 H 34.5074 -2.11496 -2.70415 0
M  V30 388 N 36.9525 1.47285 -0.560781 0
M  V30 389 C 37.9155 2.28535 0.174488 0
M  V30 390 C 38.9155 1.37153 0.839388 0
M  V30 391 O 40.1055 1.59748 0.694702 0
M  V30 392 C 37.2375 3.16934 1.25561 0
M  V30 393 H 38.4305 2.95012 -0.539262 0
M  V30 394 H 35.9835 1.53034 -0.317865 0
M  V30 395 H 36.7185 2.55157 2.00164 0
M  V30 396 H 36.5035 3.8419 0.783604 0
M  V30 397 H 37.9935 3.78143 1.77193 0
M  V30 398 N 38.4306 0.297415 1.54768 0
M  V30 399 C 39.3806 -0.595275 2.20092 0
M  V30 400 C 40.3646 -1.10163 1.17273 0
M  V30 401 O 41.5566 -1.043 1.43006 0
M  V30 402 C 38.6856 -1.7684 2.94249 0
M  V30 403 C 37.7716 -1.27818 4.0438 0
M  V30 404 N 38.1626 -0.505695 5.03266 0
M  V30 405 C 36.4606 -1.55923 4.17857 0
M  V30 406 C 37.1616 -0.245094 5.81183 0
M  V30 407 N 36.1376 -0.823881 5.3732 0
M  V30 408 H 39.9396 0.00250837 2.939 0
M  V30 409 H 37.4536 0.102007 1.62079 0
M  V30 410 H 39.4506 -2.41944 3.39513 0
M  V30 411 H 38.1106 -2.36992 2.21957 0
M  V30 412 H 39.1216 -0.150928 5.1768 0
M  V30 413 H 35.7986 -2.16849 3.56767 0
M  V30 414 H 37.1886 0.375084 6.70852 0
M  V30 415 N 39.9087 -1.5758 0.0250728 0
M  V30 416 C 40.8717 -2.08896 -0.943139 0
M  V30 417 C 41.8717 -1.00321 -1.25668 0
M  V30 418 O 43.0617 -1.26495 -1.19769 0
M  V30 419 C 40.1937 -2.55143 -2.26086 0
M  V30 420 H 41.3867 -2.95723 -0.498775 0
M  V30 421 H 38.9397 -1.54703 -0.222888 0
M  V30 422 H 39.6747 -1.71633 -2.75159 0
M  V30 423 H 39.4597 -3.34461 -2.04641 0
M  V30 424 H 40.9497 -2.95083 -2.95492 0
M  V30 425 N 41.3868 0.248026 -1.55636 0
M  V30 426 C 42.3348 1.32683 -1.91045 0
M  V30 427 C 43.3288 1.49883 -0.789401 0
M  V30 428 O 44.5348 1.51371 -0.974007 0
M  V30 429 H 40.9098 0.444272 -0.606734 0
M  V30 430 H 42.8808 1.00085 -2.81115 0
M  V30 431 C 41.6298 2.6755 -2.22064 0
M  V30 432 H 40.9528 2.55114 -3.07826 0
M  V30 433 H 42.3928 3.41912 -2.50743 0
M  V30 434 C 40.8518 3.20556 -1.0366 0
M  V30 435 O 41.3818 4.00695 -0.284016 0
M  V30 436 N 39.5878 2.78568 -0.82753 0
M  V30 437 H 39.1348 2.1351 -1.44123 0
M  V30 438 H 39.0928 3.14378 -0.0369803 0
M  V30 439 N 42.8649 1.48995 0.513639 0
M  V30 440 C 43.7979 1.59319 1.63379 0
M  V30 441 C 44.7759 0.442816 1.56454 0
M  V30 442 O 45.9599 0.656655 1.76693 0
M  V30 443 C 43.0869 1.5364 3.01848 0
M  V30 444 C 42.1329 2.7372 3.27078 0
M  V30 445 S 42.9659 4.35528 3.1157 0
M  V30 446 C 44.1219 4.32473 4.52458 0
M  V30 447 H 44.3549 2.54079 1.54374 0
M  V30 448 H 41.8879 1.3773 0.697849 0
M  V30 449 H 43.8459 1.51049 3.81699 0
M  V30 450 H 42.5069 0.601898 3.08279 0
M  V30 451 H 41.6999 2.6593 4.28132 0
M  V30 452 H 41.3019 2.73657 2.54927 0
M  V30 453 H 43.5939 4.03414 5.44301 0
M  V30 454 H 44.5369 5.33762 4.65299 0
M  V30 455 H 44.9449 3.62718 4.32546 0
M  V30 456 N 44.343 -0.763751 1.37857 0
M  V30 457 C 45.291 -1.89864 1.34367 0
M  V30 458 C 46.285 -1.67816 0.231143 0
M  V30 459 O 47.491 -1.75508 0.399617 0
M  V30 460 H 43.866 -0.624501 0.41893 0
M  V30 461 H 45.837 -1.89925 2.30155 0
M  V30 462 C 44.586 -3.27227 1.1755 0
M  V30 463 H 43.909 -3.44773 2.02414 0
M  V30 464 H 45.349 -4.06911 1.1916 0
M  V30 465 C 43.808 -3.36692 -0.118311 0
M  V30 466 O 44.338 -3.86374 -1.09902 0
M  V30 467 N 42.544 -2.90092 -0.171717 0
M  V30 468 H 42.091 -2.49853 0.627012 0
M  V30 469 H 42.049 -2.96806 -1.03699 0
M  V30 470 N 45.8211 -1.22559 -0.990812 0
M  V30 471 C 46.7841 -0.998863 -2.0629 0
M  V30 472 C 47.7841 0.0354834 -1.60761 0
M  V30 473 O 48.9741 -0.203231 -1.7301 0
M  V30 474 C 46.1061 -0.509203 -3.37076 0
M  V30 475 H 47.2991 -1.95014 -2.27837 0
M  V30 476 H 44.8521 -1.04456 -1.16269 0
M  V30 477 H 45.5871 0.446335 -3.21214 0
M  V30 478 H 45.3721 -1.25547 -3.71457 0
M  V30 479 H 46.8621 -0.370888 -4.1595 0
M  V30 480 N 47.2992 1.18797 -1.03562 0
M  V30 481 C 48.2472 2.24297 -0.615905 0
M  V30 482 C 49.2412 1.65643 0.354808 0
M  V30 483 O 50.4472 1.78618 0.22265 0
M  V30 484 H 46.8222 0.729909 -0.180934 0
M  V30 485 H 48.7932 2.5701 -1.5162 0
M  V30 486 C 47.5422 3.47698 0.0104735 0
M  V30 487 H 46.8652 3.93125 -0.727509 0
M  V30 488 H 48.3052 4.23159 0.266995 0
M  V30 489 C 46.7642 3.12489 1.25905 0
M  V30 490 O 47.2942 3.25761 2.35038 0
M  V30 491 N 45.5002 2.6686 1.15039 0
M  V30 492 H 45.0472 2.56261 0.262328 0
M  V30 493 H 45.0052 2.43674 1.98672 0
M  V30 494 N 48.7773 0.814389 1.34928 0
M  V30 495 C 49.7403 0.235759 2.27984 0
M  V30 496 C 50.7403 -0.581412 1.49921 0
M  V30 497 O 51.9303 -0.398758 1.69575 0
M  V30 498 C 49.0623 -0.670433 3.34242 0
M  V30 499 H 50.2553 1.05659 2.80671 0
M  V30 500 H 47.8083 0.585614 1.44915 0
M  V30 501 H 48.5433 -1.51466 2.86755 0
M  V30 502 H 48.3283 -0.0860822 3.92005 0
M  V30 503 H 49.8183 -1.06935 4.03676 0
M  V30 504 N 50.2554 -1.46986 0.568584 0
M  V30 505 C 51.2184 -2.28624 -0.162366 0
M  V30 506 C 52.2184 -1.37596 -0.832103 0
M  V30 507 O 53.4084 -1.60115 -0.68622 0
M  V30 508 C 50.5404 -3.17596 -1.23878 0
M  V30 509 H 51.7334 -2.94722 0.554899 0
M  V30 510 H 49.2864 -1.52863 0.325976 0
M  V30 511 H 50.0214 -2.56214 -1.98808 0
M  V30 512 H 49.8064 -3.846 -0.763219 0
M  V30 513 H 51.2964 -3.79078 -1.75185 0
M  V30 514 N 51.7335 -0.305618 -1.54608 0
M  V30 515 C 52.6965 0.555591 -2.22364 0
M  V30 516 C 53.6965 1.05768 -1.21119 0
M  V30 517 O 54.8865 0.952972 -1.45822 0
M  V30 518 C 52.0185 1.76974 -2.91364 0
M  V30 519 H 53.2115 -0.0364572 -2.99878 0
M  V30 520 H 50.7645 -0.0565007 -1.56198 0
M  V30 521 H 51.4995 2.40151 -2.17941 0
M  V30 522 H 51.2845 1.41732 -3.65588 0
M  V30 523 H 52.7745 2.38148 -3.43038 0
M  V30 524 N 53.2116 1.57565 -0.0334293 0
M  V30 525 C 54.4596 1.91598 0.642999 0
M  V30 526 C 54.7806 0.910847 1.7242 0
M  V30 527 O 54.0506 -0.0469931 1.95844 0
M  V30 528 H 52.6306 0.707228 0.240496 0
M  V30 529 H 55.2926 1.94726 -0.0822488 0
M  V30 530 H 54.3886 2.92336 1.09298 0
M  V30 531 N 54.6897 -0.239769 1.55765 0
M  V30 532 C 55.6197 -1.30052 1.9393 0
M  V30 533 C 56.6007 -1.49839 0.805132 0
M  V30 534 O 57.7857 -1.62328 1.06599 0
M  V30 535 C 54.9157 -2.65391 2.2402 0
M  V30 536 C 53.8697 -2.60289 3.39755 0
M  V30 537 C 53.1957 -3.99489 3.55405 0
M  V30 538 C 54.4957 -2.16654 4.75246 0
M  V30 539 H 56.1897 -0.983573 2.82783 0
M  V30 540 H 53.7357 -0.471701 1.36055 0
M  V30 541 H 55.6887 -3.3974 2.49308 0
M  V30 542 H 54.4127 -2.98736 1.32 0
M  V30 543 H 53.0717 -1.88398 3.14487 0
M  V30 544 H 52.7197 -4.30112 2.60793 0
M  V30 545 H 52.4197 -3.96962 4.33238 0
M  V30 546 H 53.9437 -4.75528 3.83022 0
M  V30 547 H 55.3577 -2.80737 4.99859 0
M  V30 548 H 53.7547 -2.25223 5.56232 0
M  V30 549 H 54.8247 -1.11835 4.71827 0
M  V30 550 N 56.1678 -1.49265 -0.50573 0
M  V30 551 C 57.1308 -1.65075 -1.59006 0
M  V30 552 C 58.1308 -0.522768 -1.52065 0
M  V30 553 O 59.3208 -0.789117 -1.55302 0
M  V30 554 C 56.4528 -1.64369 -2.98656 0
M  V30 555 H 57.6458 -2.61784 -1.46319 0
M  V30 556 H 55.1988 -1.38226 -0.729616 0
M  V30 557 H 55.9338 -0.692272 -3.16825 0
M  V30 558 H 55.7188 -2.46282 -3.05103 0
M  V30 559 H 57.2088 -1.78674 -3.77446 0
M  V30 560 N 57.6459 0.756429 -1.3826 0
M  V30 561 C 59.0569 1.33359 -1.30661 0
M  V30 562 C 59.4079 1.96161 0.0388875 0
M  V30 563 O 58.5329 1.94874 0.940918 0
M  V30 564 C 59.1279 2.42477 -2.36622 0
M  V30 565 C 57.6869 2.95922 -2.3261 0
M  V30 566 C 56.8339 1.69275 -2.19639 0
M  V30 567 H 59.7849 0.55552 -1.4866 0
M  V30 568 H 59.8059 3.22345 -2.02174 0
M  V30 569 H 59.3179 1.96739 -3.34538 0
M  V30 570 H 57.4189 3.45996 -1.38267 0
M  V30 571 H 57.5319 3.50494 -3.26636 0
M  V30 572 H 55.8959 1.92793 -1.66442 0
M  V30 573 H 56.6789 1.25619 -3.19491 0
M  V30 574 N 59.124 1.23083 0.984299 0
M  V30 575 C 60.034 1.02515 2.11016 0
M  V30 576 C 61.05 -0.0291702 1.73976 0
M  V30 577 O 62.226 0.165434 2.00719 0
M  V30 578 C 59.291 0.614673 3.41208 0
M  V30 579 C 58.352 1.74359 3.92297 0
M  V30 580 C 57.585 1.35261 5.16275 0
M  V30 581 O 57.808 0.235136 5.69915 0
M  V30 582 O 56.742 2.17227 5.61334 0
M  V30 583 H 60.568 1.96862 2.31255 0
M  V30 584 H 58.153 1.01753 1.09392 0
M  V30 585 H 60.035 0.396518 4.1953 0
M  V30 586 H 58.71 -0.299851 3.22308 0
M  V30 587 H 57.617 2.01635 3.1511 0
M  V30 588 H 58.95 2.63629 4.15645 0
M  V30 589 N 60.6021 -1.18246 1.0419 0
M  V30 590 C 61.5521 -2.19843 0.604392 0
M  V30 591 C 62.5361 -1.56962 -0.353814 0
M  V30 592 O 63.7281 -1.76156 -0.17267 0
M  V30 593 C 60.8571 -3.43287 -0.0298975 0
M  V30 594 C 59.9431 -4.13288 0.951531 0
M  V30 595 N 60.3341 -4.59271 2.11906 0
M  V30 596 C 58.6321 -4.39165 0.7778 0
M  V30 597 C 59.3331 -5.13173 2.73912 0
M  V30 598 N 58.3091 -5.04763 2.01779 0
M  V30 599 H 62.1111 -2.53089 1.4941 0
M  V30 600 H 59.6251 -1.34465 0.910658 0
M  V30 601 H 61.6221 -4.15334 -0.361037 0
M  V30 602 H 60.2821 -3.11537 -0.915127 0
M  V30 603 H 61.2931 -4.5368 2.49789 0
M  V30 604 H 57.9701 -4.17461 -0.0572331 0
M  V30 605 H 59.3601 -5.58947 3.72864 0
M  V30 606 N 62.0802 -0.821533 -1.34494 0
M  V30 607 C 63.3292 -0.405355 -1.97585 0
M  V30 608 C 63.6422 1.03677 -1.65863 0
M  V30 609 O 64.8482 1.55679 -2.22433 0
M  V30 610 C 63.3042 -0.673861 -3.53535 0
M  V30 611 C 62.9122 -2.12951 -3.94152 0
M  V30 612 C 64.6562 -0.32378 -4.23263 0
M  V30 613 C 62.5632 -2.34298 -5.43009 0
M  V30 614 H 61.4932 -0.147836 -0.739365 0
M  V30 615 H 64.1442 -1.00769 -1.53355 0
M  V30 616 H 62.5262 -0.00137554 -3.96 0
M  V30 617 H 63.7002 -2.84104 -3.62797 0
M  V30 618 H 62.0152 -2.44089 -3.37356 0
M  V30 619 H 64.6122 -0.461126 -5.32708 0
M  V30 620 H 64.9552 0.731586 -4.09821 0
M  V30 621 H 65.4882 -0.950786 -3.8627 0
M  V30 622 H 62.2272 -3.38335 -5.61435 0
M  V30 623 H 61.7472 -1.67687 -5.75883 0
M  V30 624 H 63.4262 -2.16588 -6.09671 0
M  V30 625 N 63.5583 1.46682 -0.576371 0
M  V30 626 C 64.9693 1.86112 -0.148091 0
M  V30 627 C 65.3203 1.48073 1.2872 0
M  V30 628 O 64.4453 0.892656 1.97131 0
M  V30 629 C 65.0403 3.37786 -0.261982 0
M  V30 630 C 63.5993 3.76235 0.111384 0
M  V30 631 C 62.7463 2.70713 -0.60083 0
M  V30 632 H 65.6973 1.37927 -0.78497 0
M  V30 633 H 65.7183 3.77007 0.514364 0
M  V30 634 H 65.2303 3.6544 -1.30671 0
M  V30 635 H 63.3313 3.54198 1.15649 0
M  V30 636 H 63.4443 4.78391 -0.26052 0
M  V30 637 H 61.8083 2.54666 -0.0417783 0
M  V30 638 H 62.5913 3.01208 -1.64708 0
M  V30 639 N 65.0364 0.313813 1.54444 0
M  V30 640 C 66.2644 -0.293918 2.04802 0
M  V30 641 C 66.6794 -1.46537 1.19047 0
M  V30 642 O 66.0364 -1.81182 0.218939 0
M  V30 643 C 66.0874 -0.737806 3.53891 0
M  V30 644 O 65.8084 0.387038 4.36387 0
M  V30 645 C 67.3094 -1.40936 4.203 0
M  V30 646 H 64.5294 -0.0620057 0.668129 0
M  V30 647 H 67.0734 0.457169 1.99324 0
M  V30 648 H 65.2284 -1.43889 3.59687 0
M  V30 649 H 65.6424 0.0391274 5.24485 0
M  V30 650 H 67.1164 -1.67099 5.26101 0
M  V30 651 H 67.5934 -2.35355 3.70816 0
M  V30 652 H 68.1994 -0.751117 4.18615 0
M  V30 653 N 66.5145 -1.57545 0.0417849 0
M  V30 654 C 67.9255 -1.80011 -0.495259 0
M  V30 655 C 68.2765 -0.953199 -1.71489 0
M  V30 656 O 67.4015 -0.167138 -2.15754 0
M  V30 657 C 67.9965 -3.26482 -0.905265 0
M  V30 658 C 66.5555 -3.499 -1.38734 0
M  V30 659 C 65.7025 -2.74979 -0.358056 0
M  V30 660 H 68.6535 -1.56425 0.267736 0
M  V30 661 H 68.6745 -3.36887 -1.76882 0
M  V30 662 H 68.1865 -3.88096 -0.017401 0
M  V30 663 H 66.2875 -2.93553 -2.29471 0
M  V30 664 H 66.4005 -4.58615 -1.38598 0
M  V30 665 H 64.7645 -2.40834 -0.828912 0
M  V30 666 H 65.5475 -3.39315 0.521561 0
M  V30 667 N 67.9926 0.231505 -1.5589 0
M  V30 668 C 69.2406 0.955461 -1.78088 0
M  V30 669 C 69.5616 1.85262 -0.608533 0
M  V30 670 O 68.8316 1.92277 0.375035 0
M  V30 671 H 67.4116 0.355787 -0.656829 0
M  V30 672 H 70.0736 0.245751 -1.93344 0
M  V30 673 H 69.1696 1.56814 -2.69844 0
M  V30 674 N 69.4707 1.49531 0.497807 0
M  V30 675 C 70.4337 1.65916 1.58128 0
M  V30 676 C 71.4337 0.530825 1.51786 0
M  V30 677 O 72.6237 0.797342 1.54881 0
M  V30 678 C 69.7557 1.65951 2.9778 0
M  V30 679 H 70.9487 2.62556 1.44929 0
M  V30 680 H 68.5017 1.38611 0.722275 0
M  V30 681 H 69.2367 0.709065 3.16453 0
M  V30 682 H 69.0217 2.47897 3.03792 0
M  V30 683 H 70.5117 1.80673 3.76493 0
M  V30 684 N 70.9488 -0.749086 1.3866 0
M  V30 685 C 71.9118 -1.84457 1.36045 0
M  V30 686 C 72.9118 -1.58682 0.260122 0
M  V30 687 O 74.1018 -1.66343 0.517261 0
M  V30 688 C 71.2338 -3.22008 1.11911 0
M  V30 689 H 72.4268 -1.88182 2.33512 0
M  V30 690 H 69.9798 -0.951266 1.24019 0
M  V30 691 H 70.7148 -3.2395 0.150686 0
M  V30 692 H 70.4998 -3.42111 1.91579 0
M  V30 693 H 71.9898 -4.0208 1.12788 0
M  V30 694 N 72.4269 -1.23603 -0.977757 0
M  V30 695 C 73.3569 -1.04401 -2.0886 0
M  V30 696 C 74.3379 0.0399052 -1.70053 0
M  V30 697 O 75.5229 -0.125246 -1.93796 0
M  V30 698 C 72.6529 -0.637269 -3.41403 0
M  V30 699 C 71.6069 -1.66883 -3.94124 0
M  V30 700 C 70.9329 -1.11745 -5.22893 0
M  V30 701 C 72.2329 -3.06247 -4.23096 0
M  V30 702 H 73.9269 -1.97316 -2.25182 0
M  V30 703 H 71.4729 -0.950096 -1.08209 0
M  V30 704 H 73.4259 -0.48998 -4.18542 0
M  V30 705 H 72.1499 0.327557 -3.24953 0
M  V30 706 H 70.8089 -1.80416 -3.19133 0
M  V30 707 H 70.4569 -0.143527 -5.02795 0
M  V30 708 H 70.1569 -1.80672 -5.59134 0
M  V30 709 H 71.6809 -0.982067 -6.02651 0
M  V30 710 H 73.0949 -2.96001 -4.90975 0
M  V30 711 H 71.4919 -3.72436 -4.70544 0
M  V30 712 H 72.5619 -3.55041 -3.30263 0
M  V30 713 N 73.905 1.17692 -1.04816 0
M  V30 714 C 75.13 1.92327 -0.776207 0
M  V30 715 C 75.555 1.76082 0.661581 0
M  V30 716 O 74.913 1.076 1.45917 0
M  V30 717 C 74.961 3.41539 -1.15687 0
M  V30 718 O 74.065 4.11402 -0.286775 0
M  V30 719 H 73.406 0.599735 -0.284981 0
M  V30 720 H 75.936 1.49201 -1.4 0
M  V30 721 H 75.946 3.92269 -1.12202 0
M  V30 722 H 74.621 3.52684 -2.20425 0
M  V30 723 H 73.198 3.70939 -0.381903 0
M  V30 724 N 75.3831 0.828654 1.34056 0
M  V30 725 C 76.6291 0.429279 1.98818 0
M  V30 726 C 76.9841 -0.998011 1.64492 0
M  V30 727 O 76.2771 -1.68652 0.909228 0
M  V30 728 C 76.4711 0.575226 3.52741 0
M  V30 729 C 76.3001 2.01515 4.02022 0
M  V30 730 C 75.0701 2.64825 4.30344 0
M  V30 731 C 77.2681 2.98261 4.18981 0
M  V30 732 N 75.2501 3.99998 4.65698 0
M  V30 733 C 76.6211 4.18356 4.57578 0
M  V30 734 C 78.6761 2.94802 4.01243 0
M  V30 735 C 77.3791 5.35454 4.80293 0
M  V30 736 C 79.4051 4.11121 4.25128 0
M  V30 737 C 78.7671 5.29969 4.64018 0
M  V30 738 H 74.8661 0.205304 0.754569 0
M  V30 739 H 77.4501 1.07457 1.62361 0
M  V30 740 H 75.6211 -0.0401962 3.88379 0
M  V30 741 H 77.3531 0.148292 4.04428 0
M  V30 742 H 74.1081 2.16027 4.21461 0
M  V30 743 H 74.5321 4.69653 4.87601 0
M  V30 744 H 79.1741 2.04054 3.70299 0
M  V30 745 H 76.8921 6.26755 5.10102 0
M  V30 746 H 80.4781 4.0985 4.12934 0
M  V30 747 H 79.3581 6.18479 4.82134 0
M  V30 748 N 76.8612 -1.46375 0.584142 0
M  V30 749 C 77.7932 -2.28443 -0.186119 0
M  V30 750 C 78.8062 -1.38596 -0.854115 0
M  V30 751 O 79.9952 -1.63183 -0.723438 0
M  V30 752 C 77.0952 -3.13671 -1.28311 0
M  V30 753 C 76.2682 -4.31652 -0.706758 0
M  V30 754 C 75.3272 -4.98267 -1.69163 0
M  V30 755 O 74.3532 -5.55815 -1.22712 0
M  V30 756 N 75.5552 -4.95408 -3.02575 0
M  V30 757 H 78.3202 -2.9519 0.517986 0
M  V30 758 H 75.8812 -1.56303 0.42201 0
M  V30 759 H 77.8732 -3.55101 -1.94128 0
M  V30 760 H 76.4432 -2.48989 -1.89005 0
M  V30 761 H 75.6632 -3.93989 0.128908 0
M  V30 762 H 76.9512 -5.07906 -0.301506 0
M  V30 763 H 76.3492 -4.49902 -3.42936 0
M  V30 764 H 74.9062 -5.40774 -3.63877 0
M  V30 765 N 78.3393 -0.321999 -1.54275 0
M  V30 766 C 79.3023 0.531975 -2.22941 0
M  V30 767 C 80.3023 1.04478 -1.22234 0
M  V30 768 O 81.4923 0.937452 -1.46825 0
M  V30 769 C 78.6243 1.73874 -2.93224 0
M  V30 770 H 79.8173 -0.0682612 -2.99822 0
M  V30 771 H 77.3703 -0.0730644 -1.56129 0
M  V30 772 H 78.1053 2.37825 -2.20476 0
M  V30 773 H 77.8903 1.37847 -3.6707 0
M  V30 774 H 79.3803 2.34496 -3.45545 0
M  V30 775 N 79.8174 1.5752 -0.0501392 0
M  V30 776 C 80.7804 2.1037 0.909786 0
M  V30 777 C 81.7804 1.02308 1.24056 0
M  V30 778 O 82.9704 1.28385 1.17741 0
M  V30 779 C 80.1024 2.58708 2.21998 0
M  V30 780 H 81.2954 2.96479 0.451665 0
M  V30 781 H 78.8484 1.55038 0.198248 0
M  V30 782 H 79.5834 1.75989 2.72394 0
M  V30 783 H 79.3684 3.37675 1.99295 0
M  V30 784 H 80.8584 2.99747 2.9076 0
M  V30 785 N 81.2955 -0.223234 1.56011 0
M  V30 786 C 82.5445 -0.945912 1.78144 0
M  V30 787 C 82.8575 -1.85567 0.618396 0
M  V30 788 O 84.0635 -2.61688 0.723318 0
M  V30 789 C 82.5195 -1.73216 3.15475 0
M  V30 790 C 82.1275 -0.868619 4.39499 0
M  V30 791 C 83.8715 -2.44615 3.46935 0
M  V30 792 C 81.7785 -1.65212 5.67855 0
M  V30 793 H 80.7085 -0.356929 0.664167 0
M  V30 794 H 83.3595 -0.199845 1.82409 0
M  V30 795 H 81.7415 -2.52107 3.05382 0
M  V30 796 H 82.9155 -0.120366 4.60643 0
M  V30 797 H 81.2305 -0.26683 4.15544 0
M  V30 798 H 83.8275 -3.03732 4.40058 0
M  V30 799 H 84.1705 -3.17417 2.69355 0
M  V30 800 H 84.7035 -1.72715 3.58349 0
M  V30 801 H 81.4425 -0.967407 6.48322 0
M  V30 802 H 80.9625 -2.37503 5.50774 0
M  V30 803 H 82.6415 -2.21322 6.07968 0
M  V30 804 N 82.7736 -1.49793 -0.48987 0
M  V30 805 C 84.0506 -1.50348 -1.25119 0
M  V30 806 C 84.4306 -0.237466 -2.0976 0
M  V30 807 O 83.7786 0.77981 -2.14782 0
M  V30 808 C 83.9886 -2.78872 -2.09837 0
M  V30 809 C 85.3366 -3.288 -2.68655 0
M  V30 810 O 86.3606 -2.80065 -2.20096 0
M  V30 811 O 85.2196 -4.13707 -3.57083 0
M  V30 812 H 82.3136 -0.602242 -0.566775 0
M  V30 813 H 84.8596 -1.62067 -0.503229 0
M  V30 814 H 83.6316 -3.62499 -1.47343 0
M  V30 815 H 83.2546 -2.70066 -2.91805 0
M  V30 816 N 84.2517 0.741722 -1.39055 0
M  V30 817 C 85.2147 1.83733 -1.37021 0
M  V30 818 C 86.2147 1.58542 -0.268534 0
M  V30 819 O 87.4047 1.66067 -0.526076 0
M  V30 820 C 84.5367 3.2141 -1.13617 0
M  V30 821 H 85.7297 1.86941 -2.34506 0
M  V30 822 H 83.2827 0.944676 -1.24521 0
M  V30 823 H 84.0177 3.23865 -0.167863 0
M  V30 824 H 83.8027 3.4109 -1.93391 0
M  V30 825 H 85.2927 4.01477 -1.14918 0
M  V30 826 N 85.7298 1.2412 0.971189 0
M  V30 827 C 86.6928 1.03156 2.04674 0
M  V30 828 C 87.6928 -0.00990322 1.60797 0
M  V30 829 O 88.8828 0.230729 1.72665 0
M  V30 830 C 86.0148 0.562765 3.36223 0
M  V30 831 H 87.2078 1.98614 2.24705 0
M  V30 832 H 84.7608 1.06293 1.14593 0
M  V30 833 H 85.4958 -0.395176 3.21883 0
M  V30 834 H 85.2808 1.31441 3.69413 0
M  V30 835 H 86.7708 0.437015 4.15307 0
M  V30 836 N 87.2079 -1.17134 1.05439 0
M  V30 837 C 88.6239 -1.39454 0.776201 0
M  V30 838 C 88.8239 -1.91454 -0.628307 0
M  V30 839 O 87.8799 -2.10777 -1.39031 0
M  V30 840 C 89.1929 -2.38305 1.83388 0
M  V30 841 C 90.7409 -2.52006 1.85639 0
M  V30 842 C 91.2159 -3.54133 2.90437 0
M  V30 843 N 92.7069 -3.61653 2.89415 0
M  V30 844 C 93.4419 -4.4044 3.67152 0
M  V30 845 N 92.9379 -5.22721 4.54681 0
M  V30 846 N 94.7309 -4.35337 3.55581 0
M  V30 847 H 86.8819 -0.817134 1.96053 0
M  V30 848 H 89.1449 -0.421626 0.849079 0
M  V30 849 H 88.8509 -2.07173 2.84204 0
M  V30 850 H 88.7249 -3.37841 1.67761 0
M  V30 851 H 91.1119 -2.82447 0.85486 0
M  V30 852 H 91.1929 -1.52537 2.05344 0
M  V30 853 H 90.8369 -3.24431 3.90777 0
M  V30 854 H 90.7669 -4.53313 2.67983 0
M  V30 855 H 93.2579 -3.02909 2.25952 0
M  V30 856 H 93.5709 -5.80027 5.10674 0
M  V30 857 H 91.9159 -5.22093 4.58741 0
M  V30 858 H 95.1069 -3.70112 2.86592 0
M  V30 859 H 95.2799 -4.96494 4.1641 0
M  V30 860 N 88.686 -0.835752 -1.33615 0
M  V30 861 C 89.618 -0.224151 -2.28101 0
M  V30 862 C 90.631 0.593331 -1.51603 0
M  V30 863 O 91.82 0.420911 -1.73466 0
M  V30 864 C 88.92 0.703309 -3.31522 0
M  V30 865 C 88.093 -0.0741528 -4.37337 0
M  V30 866 C 87.152 0.776176 -5.20444 0
M  V30 867 O 86.178 0.216506 -5.68788 0
M  V30 868 N 87.38 2.09401 -5.41416 0
M  V30 869 H 90.145 -1.03598 -2.81225 0
M  V30 870 H 87.706 -0.69392 -1.46275 0
M  V30 871 H 89.698 1.27707 -3.84022 0
M  V30 872 H 88.268 1.41585 -2.78698 0
M  V30 873 H 87.488 -0.82928 -3.85378 0
M  V30 874 H 88.776 -0.608863 -5.05144 0
M  V30 875 H 88.174 2.57229 -5.03835 0
M  V30 876 H 86.731 2.61633 -5.96985 0
M  V30 877 N 90.1641 1.46063 -0.591896 0
M  V30 878 C 91.1271 2.28854 0.125973 0
M  V30 879 C 92.1271 1.38903 0.810107 0
M  V30 880 O 93.3171 1.61186 0.66066 0
M  V30 881 C 90.4491 3.19526 1.1881 0
M  V30 882 H 91.6421 2.93802 -0.601717 0
M  V30 883 H 89.1951 1.52325 -0.350254 0
M  V30 884 H 89.9301 2.59345 1.94707 0
M  V30 885 H 89.7151 3.85766 0.701936 0
M  V30 886 H 91.2051 3.81817 1.69132 0
M  V30 887 N 91.6422 0.330177 1.54103 0
M  V30 888 C 92.5892 -0.532762 2.24567 0
M  V30 889 C 93.5592 -1.10635 1.23892 0
M  V30 890 O 94.7442 -1.14546 1.5259 0
M  V30 891 C 91.8842 -1.6845 3.01195 0
M  V30 892 C 90.9972 -1.13951 4.167 0
M  V30 893 C 90.1322 -2.25746 4.80845 0
M  V30 894 C 89.1712 -1.6853 5.88442 0
M  V30 895 N 88.3082 -2.74014 6.46421 0
M  V30 896 H 93.1482 0.0746905 2.97906 0
M  V30 897 H 90.6852 0.048632 1.4702 0
M  V30 898 H 92.6432 -2.36234 3.43874 0
M  V30 899 H 91.2732 -2.26314 2.30178 0
M  V30 900 H 90.3252 -0.35301 3.78758 0
M  V30 901 H 91.6372 -0.680892 4.94131 0
M  V30 902 H 90.7912 -3.01422 5.26526 0
M  V30 903 H 89.5302 -2.74947 4.0281 0
M  V30 904 H 88.5352 -0.913543 5.42157 0
M  V30 905 H 89.7602 -1.20198 6.68378 0
M  V30 906 H 87.7062 -3.22494 5.71256 0
M  V30 907 H 87.6232 -2.32735 7.19285 0
M  V30 908 H 88.8912 -3.49499 6.96757 0
M  V30 909 N 93.1203 -1.57491 0.0584922 0
M  V30 910 C 94.0503 -2.14988 -0.911178 0
M  V30 911 C 95.0313 -1.07343 -1.31952 0
M  V30 912 O 96.2163 -1.35318 -1.39294 0
M  V30 913 C 93.3463 -2.70078 -2.18347 0
M  V30 914 C 92.3003 -3.82771 -1.91495 0
M  V30 915 C 91.6263 -4.24408 -3.25241 0
M  V30 916 C 92.9263 -5.07592 -1.23075 0
M  V30 917 H 94.6203 -2.96263 -0.432246 0
M  V30 918 H 92.1663 -1.42512 -0.206469 0
M  V30 919 H 94.1193 -3.08943 -2.86587 0
M  V30 920 H 92.8433 -1.86005 -2.68458 0
M  V30 921 H 91.5023 -3.44389 -1.25664 0
M  V30 922 H 91.1503 -3.37275 -3.73168 0
M  V30 923 H 90.8503 -5.00366 -3.08071 0
M  V30 924 H 92.3743 -4.65879 -3.94701 0
M  V30 925 H 93.7883 -5.43857 -1.81362 0
M  V30 926 H 92.1853 -5.88741 -1.16207 0
M  V30 927 H 93.2553 -4.84454 -0.207847 0
M  V30 928 N 94.5984 0.214957 -1.56127 0
M  V30 929 C 95.5314 1.29382 -1.87977 0
M  V30 930 C 96.5094 1.44897 -0.737807 0
M  V30 931 O 97.6934 1.60605 -0.986833 0
M  V30 932 C 94.8204 2.66325 -2.09258 0
M  V30 933 C 93.8664 2.67789 -3.31951 0
M  V30 934 S 94.6994 2.21198 -4.8768 0
M  V30 935 C 95.8554 3.60003 -5.12004 0
M  V30 936 H 96.0884 1.02173 -2.79192 0
M  V30 937 H 93.6214 0.417516 -1.48648 0
M  V30 938 H 95.5794 3.45162 -2.22201 0
M  V30 939 H 94.2404 2.90755 -1.18829 0
M  V30 940 H 93.4334 3.68436 -3.43906 0
M  V30 941 H 93.0354 1.9702 -3.17898 0
M  V30 942 H 95.3274 4.55739 -5.01307 0
M  V30 943 H 96.2704 3.52959 -6.13861 0
M  V30 944 H 96.6784 3.53996 -4.39712 0
M  V30 945 N 96.0765 1.50051 0.48192 0
M  V30 946 C 97.3245 1.60181 1.23234 0
M  V30 947 C 97.6455 0.299176 1.92691 0
M  V30 948 O 96.9155 -0.682708 1.83619 0
M  V30 949 H 95.4955 0.590232 0.457859 0
M  V30 950 H 98.1575 1.86775 0.556881 0
M  V30 951 H 97.2535 2.40753 1.98607 0
M  V30 952 N 97.5546 -0.734337 1.39446 0
M  V30 953 C 98.7796 -1.52866 1.40167 0
M  V30 954 C 99.2046 -1.881 -0.00171513 0
M  V30 955 O 98.5626 -1.51957 -0.988879 0
M  V30 956 C 98.6106 -2.79235 2.28167 0
M  V30 957 O 97.7146 -3.75185 1.71201 0
M  V30 958 H 97.0556 -0.461618 0.477289 0
M  V30 959 H 99.5856 -0.905949 1.8345 0
M  V30 960 H 99.5956 -3.27963 2.42702 0
M  V30 961 H 98.2706 -2.52923 3.30156 0
M  V30 962 H 96.8476 -3.33958 1.65912 0
M  V30 963 N 99.0327 -1.24633 -0.964593 0
M  V30 964 C 99.9957 -1.0424 -2.04124 0
M  V30 965 C 100.996 0.00137563 -1.608 0
M  V30 966 O 102.186 -0.239883 -1.7254 0
M  V30 967 C 99.3177 -0.580588 -3.3592 0
M  V30 968 H 100.511 -1.99803 -2.23649 0
M  V30 969 H 98.0637 -1.06899 -1.14027 0
M  V30 970 H 98.7987 0.3781 -3.22088 0
M  V30 971 H 98.5837 -1.33398 -3.6871 0
M  V30 972 H 100.074 -0.459034 -4.15069 0
M  V30 973 N 100.511 1.16574 -1.06058 0
M  V30 974 C 101.759 1.86677 -0.77434 0
M  V30 975 C 102.08 1.81959 0.701147 0
M  V30 976 O 101.35 1.2515 1.50713 0
M  V30 977 H 99.9298 0.691134 -0.283449 0
M  V30 978 H 102.592 1.41378 -1.34158 0
M  V30 979 H 101.688 2.92181 -1.09711 0
M  V30 980 N 101.989 0.842826 1.3317 0
M  V30 981 C 102.937 0.267495 2.31057 0
M  V30 982 C 103.931 -0.602682 1.58316 0
M  V30 983 O 105.137 -0.491803 1.73151 0
M  V30 984 H 101.512 0.0677813 0.748939 0
M  V30 985 H 103.483 1.10754 2.77085 0
M  V30 986 C 102.232 -0.539331 3.43492 0
M  V30 987 H 101.555 0.12095 3.99617 0
M  V30 988 H 102.995 -0.90767 4.14171 0
M  V30 989 C 101.454 -1.71981 2.89697 0
M  V30 990 O 101.984 -2.81862 2.86211 0
M  V30 991 N 100.19 -1.54299 2.46252 0
M  V30 992 H 99.7369 -0.649143 2.49287 0
M  V30 993 H 99.6949 -2.33431 2.10612 0
M  V30 994 N 103.467 -1.45747 0.599634 0
M  V30 995 C 104.43 -2.28917 -0.113835 0
M  V30 996 C 105.43 -1.3933 -0.802729 0
M  V30 997 O 106.62 -1.61534 -0.652103 0
M  V30 998 C 103.752 -3.20152 -1.17114 0
M  V30 999 H 104.945 -2.93478 0.617289 0
M  V30 1000 H 102.498 -1.52137 0.358327 0
M  V30 1001 H 103.233 -2.60374 -1.93329 0
M  V30 1002 H 103.018 -3.86133 -0.681468 0
M  V30 1003 H 104.508 -3.82708 -1.67105 0
M  V30 1004 N 104.945 -0.338344 -1.53925 0
M  V30 1005 C 106.173 0.261298 -2.05243 0
M  V30 1006 C 106.588 1.44625 -1.21363 0
M  V30 1007 O 105.945 1.80811 -0.247736 0
M  V30 1008 C 105.996 0.681412 -3.5502 0
M  V30 1009 O 105.717 -0.456414 -4.35716 0
M  V30 1010 C 107.218 1.34232 -4.22489 0
M  V30 1011 H 104.438 0.0513685 -0.669031 0
M  V30 1012 H 106.982 -0.488822 -1.98572 0
M  V30 1013 H 105.137 1.38148 -3.61931 0
M  V30 1014 H 105.551 -0.122564 -5.24357 0
M  V30 1015 H 107.025 1.58708 -5.28693 0
M  V30 1016 H 107.502 2.29426 -3.74514 0
M  V30 1017 H 108.108 0.684424 -4.19757 0
M  V30 1018 N 106.423 1.57458 -0.0668435 0
M  V30 1019 C 107.672 1.92477 0.602947 0
M  V30 1020 C 107.985 0.948419 1.71068 0
M  V30 1021 O 109.191 1.19124 2.43971 0
M  V30 1022 C 107.647 3.41903 1.12383 0
M  V30 1023 C 107.255 4.47975 0.04737 0
M  V30 1024 C 108.999 3.85931 1.76797 0
M  V30 1025 C 106.906 5.88529 0.582022 0
M  V30 1026 H 105.836 0.718387 0.22899 0
M  V30 1027 H 108.487 1.82978 -0.138276 0
M  V30 1028 H 106.869 3.46459 1.91787 0
M  V30 1029 H 108.043 4.55029 -0.726978 0
M  V30 1030 H 106.358 4.13384 -0.500243 0
M  V30 1031 H 108.955 4.88322 2.17821 0
M  V30 1032 H 109.298 3.23029 2.62599 0
M  V30 1033 H 109.831 3.83958 1.04024 0
M  V30 1034 H 106.57 6.55065 -0.238721 0
M  V30 1035 H 106.09 5.85004 1.324 0
M  V30 1036 H 107.769 6.38258 1.05999 0
M  V30 1037 N 107.901 -0.206675 1.56239 0
M  V30 1038 C 109.126 -0.949474 1.8439 0
M  V30 1039 C 109.551 -1.76549 0.649016 0
M  V30 1040 O 108.909 -1.76782 -0.402231 0
M  V30 1041 C 108.957 -1.83078 3.10668 0
M  V30 1042 O 108.061 -2.9281 2.90407 0
M  V30 1043 H 107.402 -0.268033 0.607499 0
M  V30 1044 H 109.932 -0.215488 2.03462 0
M  V30 1045 H 109.942 -2.2377 3.41161 0
M  V30 1046 H 108.617 -1.23112 3.97261 0
M  V30 1047 H 107.194 -2.55956 2.71184 0
M  V30 1048 N 109.379 -1.50304 -0.473955 0
M  V30 1049 C 110.607 -1.64902 -1.24959 0
M  V30 1050 C 111.022 -0.331198 -1.85872 0
M  V30 1051 O 110.379 0.68652 -1.69095 0
M  V30 1052 C 110.43 -2.73803 -2.36038 0
M  V30 1053 O 110.151 -4.00477 -1.77624 0
M  V30 1054 C 111.652 -2.99349 -3.26964 0
M  V30 1055 H 108.872 -0.554383 -0.378022 0
M  V30 1056 H 111.416 -1.9651 -0.566054 0
M  V30 1057 H 109.571 -2.44898 -3.00173 0
M  V30 1058 H 109.985 -4.60678 -2.5075 0
M  V30 1059 H 111.459 -3.79217 -4.01121 0
M  V30 1060 H 111.936 -2.10307 -3.85574 0
M  V30 1061 H 112.542 -3.29774 -2.68569 0
M  V30 1062 N 110.857 0.726932 -1.39834 0
M  V30 1063 C 112.103 1.48884 -1.377 0
M  V30 1064 C 112.436 1.94185 0.0244852 0
M  V30 1065 O 111.711 1.67361 0.990986 0
M  V30 1066 C 111.994 2.72288 -2.3565 0
M  V30 1067 C 111.847 2.32956 -3.84775 0
M  V30 1068 C 113.166 3.74414 -2.31306 0
M  V30 1069 H 110.285 0.540062 -0.5015 0
M  V30 1070 H 112.927 0.830547 -1.70886 0
M  V30 1071 H 111.077 3.28457 -2.07481 0
M  V30 1072 H 112.749 1.82356 -4.23726 0
M  V30 1073 H 110.992 1.65088 -4.01159 0
M  V30 1074 H 111.663 3.21362 -4.4881 0
M  V30 1075 H 114.139 3.27849 -2.56231 0
M  V30 1076 H 113.015 4.58414 -3.01907 0
M  V30 1077 H 113.276 4.21909 -1.32081 0
M  V30 1078 N 112.336 1.25143 0.95797 0
M  V30 1079 C 113.561 1.12521 1.74223 0
M  V30 1080 C 113.986 -0.317402 1.85403 0
M  V30 1081 O 113.344 -1.2299 1.33204 0
M  V30 1082 C 113.392 1.78062 3.1357 0
M  V30 1083 O 112.496 1.058 3.98598 0
M  V30 1084 H 111.837 0.39304 0.535178 0
M  V30 1085 H 114.367 1.65641 1.201 0
M  V30 1086 H 114.377 1.84213 3.64046 0
M  V30 1087 H 113.052 2.83021 3.04749 0
M  V30 1088 H 111.629 1.07506 3.57067 0
M  V30 1089 N 113.814 -1.1601 1.06675 0
M  V30 1090 C 115.039 -1.91068 0.806706 0
M  V30 1091 C 115.464 -1.77112 -0.633485 0
M  V30 1092 O 114.822 -1.09908 -1.44187 0
M  V30 1093 C 114.87 -3.39655 1.21106 0
M  V30 1094 O 113.974 -4.10893 0.352189 0
M  V30 1095 H 113.315 -0.595125 0.294486 0
M  V30 1096 H 115.845 -1.46955 1.42356 0
M  V30 1097 H 115.855 -3.90434 1.18428 0
M  V30 1098 H 114.53 -3.49132 2.26008 0
M  V30 1099 H 113.107 -3.70285 0.440868 0
M  V30 1100 N 115.292 -0.849877 -1.32721 0
M  V30 1101 C 116.52 -0.464754 -2.01613 0
M  V30 1102 C 116.935 0.937191 -1.63897 0
M  V30 1103 O 116.292 1.61081 -0.857856 0
M  V30 1104 C 116.343 -0.588638 -3.56675 0
M  V30 1105 O 116.064 -1.93535 -3.93034 0
M  V30 1106 C 117.565 -0.2019 -4.4284 0
M  V30 1107 H 114.785 -0.183215 -0.645502 0
M  V30 1108 H 117.329 -1.1455 -1.69407 0
M  V30 1109 H 115.484 0.0443159 -3.87375 0
M  V30 1110 H 115.898 -1.92871 -4.87751 0
M  V30 1111 H 117.372 -0.339599 -5.50954 0
M  V30 1112 H 117.849 0.857224 -4.30753 0
M  V30 1113 H 118.455 -0.809733 -4.17521 0
M  V30 1114 N 116.77 1.45427 -0.607355 0
M  V30 1115 C 117.702 2.2871 0.149752 0
M  V30 1116 C 118.715 1.39937 0.831958 0
M  V30 1117 O 119.904 1.64313 0.697385 0
M  V30 1118 C 117.004 3.15673 1.23304 0
M  V30 1119 C 116.177 4.32722 0.637996 0
M  V30 1120 C 115.236 5.00895 1.61215 0
M  V30 1121 O 114.262 5.57697 1.13854 0
M  V30 1122 N 115.464 5.00159 2.94655 0
M  V30 1123 H 118.229 2.94328 -0.564882 0
M  V30 1124 H 115.79 1.55612 -0.446823 0
M  V30 1125 H 117.782 3.58144 1.88454 0
M  V30 1126 H 116.352 2.51965 1.8502 0
M  V30 1127 H 115.572 3.93734 -0.191572 0
M  V30 1128 H 116.86 5.08321 0.220665 0
M  V30 1129 H 116.258 4.553 3.35735 0
M  V30 1130 H 114.815 5.46495 3.55228 0
M  V30 1131 N 118.248 0.346503 1.53744 0
M  V30 1132 C 119.664 -0.00530975 1.59599 0
M  V30 1133 C 119.864 -1.48465 1.36236 0
M  V30 1134 O 118.92 -2.24376 1.15808 0
M  V30 1135 C 120.233 0.433516 2.97559 0
M  V30 1136 C 121.781 0.386111 3.10609 0
M  V30 1137 C 122.256 0.800451 4.50951 0
M  V30 1138 N 123.747 0.754753 4.5701 0
M  V30 1139 C 124.482 1.04727 5.63755 0
M  V30 1140 N 123.978 1.4081 6.7834 0
M  V30 1141 N 125.771 0.971316 5.53644 0
M  V30 1142 H 117.922 1.31009 1.67184 0
M  V30 1143 H 120.185 0.534242 0.783128 0
M  V30 1144 H 119.891 1.46509 3.19731 0
M  V30 1145 H 119.765 -0.189753 3.76722 0
M  V30 1146 H 122.152 -0.636295 2.88158 0
M  V30 1147 H 122.233 1.04462 2.33498 0
M  V30 1148 H 121.877 1.82088 4.74137 0
M  V30 1149 H 121.807 0.119386 5.26465 0
M  V30 1150 H 124.298 0.488662 3.74727 0
M  V30 1151 H 124.611 1.61607 7.55714 0
M  V30 1152 H 122.956 1.44657 6.79779 0
M  V30 1153 H 126.147 0.688748 4.63005 0
M  V30 1154 H 126.32 1.20263 6.36742 0
M  V30 1155 N 119.726 -1.57421 0.075193 0
M  V30 1156 C 120.673 -2.12915 -0.890843 0
M  V30 1157 C 121.643 -1.04252 -1.29309 0
M  V30 1158 O 122.828 -1.31933 -1.37834 0
M  V30 1159 C 119.968 -2.69795 -2.15186 0
M  V30 1160 C 119.081 -3.92624 -1.80194 0
M  V30 1161 C 118.216 -4.37736 -3.00933 0
M  V30 1162 C 117.255 -5.53205 -2.61974 0
M  V30 1163 N 116.392 -5.9326 -3.75483 0
M  V30 1164 H 121.232 -2.95156 -0.410735 0
M  V30 1165 H 118.769 -1.45854 -0.191086 0
M  V30 1166 H 120.727 -3.00883 -2.89008 0
M  V30 1167 H 119.357 -1.90313 -2.60731 0
M  V30 1168 H 118.409 -3.67977 -0.964218 0
M  V30 1169 H 119.721 -4.76482 -1.47534 0
M  V30 1170 H 118.875 -4.70503 -3.8303 0
M  V30 1171 H 117.614 -3.52739 -3.36789 0
M  V30 1172 H 116.619 -5.20086 -1.783 0
M  V30 1173 H 117.844 -6.39936 -2.27284 0
M  V30 1174 H 115.79 -5.11212 -4.11094 0
M  V30 1175 H 115.707 -6.71865 -3.46602 0
M  V30 1176 H 116.975 -6.30651 -4.58148 0
M  V30 1177 N 121.204 0.198386 -1.56346 0
M  V30 1178 C 122.62 0.549085 -1.49857 0
M  V30 1179 C 122.82 1.86016 -0.774611 0
M  V30 1180 O 121.876 2.50416 -0.323776 0
M  V30 1181 C 123.189 0.606868 -2.94512 0
M  V30 1182 C 124.737 0.695925 -3.05165 0
M  V30 1183 C 125.212 0.784848 -4.51225 0
M  V30 1184 N 126.703 0.848463 -4.55363 0
M  V30 1185 C 127.438 0.937378 -5.65686 0
M  V30 1186 N 126.934 0.9888 -6.85707 0
M  V30 1187 N 128.727 0.974312 -5.53592 0
M  V30 1188 H 120.878 -0.661655 -2.01831 0
M  V30 1189 H 123.141 -0.235261 -0.918344 0
M  V30 1190 H 122.847 -0.28732 -3.50524 0
M  V30 1191 H 122.721 1.46268 -3.47686 0
M  V30 1192 H 125.108 1.58055 -2.49204 0
M  V30 1193 H 125.189 -0.186022 -2.55123 0
M  V30 1194 H 124.833 -0.0954072 -5.0781 0
M  V30 1195 H 124.763 1.68255 -4.98997 0
M  V30 1196 H 127.254 0.818103 -3.68938 0
M  V30 1197 H 127.567 1.05707 -7.65536 0
M  V30 1198 H 125.912 0.957534 -6.88372 0
M  V30 1199 H 129.103 0.930954 -4.58749 0
M  V30 1200 H 129.276 1.04015 -6.39597 0
M  V30 1201 N 122.682 1.50554 0.465978 0
M  V30 1202 C 123.614 1.65949 1.58093 0
M  V30 1203 C 124.627 0.540827 1.53554 0
M  V30 1204 O 125.816 0.814187 1.5885 0
M  V30 1205 C 122.916 1.63261 2.96983 0
M  V30 1206 C 122.089 2.91245 3.26336 0
M  V30 1207 C 121.148 2.8113 4.44806 0
M  V30 1208 O 120.174 3.55086 4.44862 0
M  V30 1209 N 121.376 1.95032 5.46756 0
M  V30 1210 H 124.141 2.62122 1.45301 0
M  V30 1211 H 121.702 1.48082 0.65448 0
M  V30 1212 H 123.694 1.54101 3.74212 0
M  V30 1213 H 122.264 0.748032 3.03518 0
M  V30 1214 H 121.484 3.14493 2.37672 0
M  V30 1215 H 122.772 3.76022 3.42761 0
M  V30 1216 H 122.17 1.3427 5.49534 0
M  V30 1217 H 120.727 1.91772 6.2295 0
M  V30 1218 N 124.16 -0.719506 1.40217 0
M  V30 1219 C 125.092 -1.84428 1.36084 0
M  V30 1220 C 126.105 -1.60597 0.266913 0
M  V30 1221 O 127.294 -1.70544 0.526983 0
M  V30 1222 C 124.394 -3.20757 1.094 0
M  V30 1223 C 123.567 -3.71817 2.30372 0
M  V30 1224 C 122.626 -4.86748 1.99907 0
M  V30 1225 O 121.652 -4.99603 2.72737 0
M  V30 1226 N 122.854 -5.7226 0.974635 0
M  V30 1227 H 125.619 -1.88473 2.33019 0
M  V30 1228 H 123.18 -0.900885 1.3452 0
M  V30 1229 H 125.172 -3.95235 0.870116 0
M  V30 1230 H 123.742 -3.11884 0.211452 0
M  V30 1231 H 122.962 -2.88514 2.68614 0
M  V30 1232 H 124.25 -4.02666 3.11026 0
M  V30 1233 H 123.648 -5.6448 0.371368 0
M  V30 1234 H 122.205 -6.46739 0.810656 0
M  V30 1235 N 125.638 -1.25649 -0.95132 0
M  V30 1236 C 126.868 -1.13179 -1.72841 0
M  V30 1237 C 127.276 0.316827 -1.86528 0
M  V30 1238 O 126.619 1.22948 -1.3649 0
M  V30 1239 C 126.681 -1.71644 -3.15878 0
M  V30 1240 C 126.345 -3.20667 -3.25609 0
M  V30 1241 C 127.342 -4.17616 -3.09666 0
M  V30 1242 C 125.027 -3.6094 -3.49324 0
M  V30 1243 C 127.021 -5.52817 -3.17289 0
M  V30 1244 C 124.708 -4.96278 -3.56584 0
M  V30 1245 C 125.706 -5.92025 -3.40581 0
M  V30 1246 O 125.394 -7.24899 -3.47528 0
M  V30 1247 H 125.126 -0.395389 -0.54831 0
M  V30 1248 H 127.68 -1.66566 -1.20187 0
M  V30 1249 H 125.91 -1.12707 -3.69911 0
M  V30 1250 H 127.599 -1.54225 -3.75459 0
M  V30 1251 H 128.365 -3.87842 -2.91211 0
M  V30 1252 H 124.244 -2.86907 -3.6084 0
M  V30 1253 H 127.788 -6.2753 -3.04716 0
M  V30 1254 H 123.685 -5.25716 -3.74556 0
M  V30 1255 H 124.453 -7.33039 -3.64138 0
M  V30 1256 N 127.117 1.15442 -1.07289 0
M  V30 1257 C 128.365 1.85845 -0.794096 0
M  V30 1258 C 128.686 1.82692 0.681809 0
M  V30 1259 O 127.956 1.26741 1.49377 0
M  V30 1260 H 126.536 0.688089 -0.290763 0
M  V30 1261 H 129.198 1.39947 -1.3565 0
M  V30 1262 H 128.294 2.91001 -1.12804 0
M  V30 1263 N 128.595 0.856903 1.32268 0
M  V30 1264 C 129.542 0.301172 2.28827 0
M  V30 1265 C 130.512 -0.593104 1.5515 0
M  V30 1266 O 131.697 -0.527537 1.83362 0
M  V30 1267 C 128.837 -0.502523 3.41422 0
M  V30 1268 C 127.95 0.417797 4.29975 0
M  V30 1269 C 127.085 -0.398749 5.29701 0
M  V30 1270 C 126.124 0.518827 6.09897 0
M  V30 1271 N 125.261 -0.260674 7.01616 0
M  V30 1272 H 130.101 1.12983 2.75751 0
M  V30 1273 H 127.638 0.568582 1.35667 0
M  V30 1274 H 129.596 -0.984141 4.05426 0
M  V30 1275 H 128.226 -1.29599 2.95642 0
M  V30 1276 H 127.278 1.01781 3.66531 0
M  V30 1277 H 128.59 1.12191 4.86019 0
M  V30 1278 H 127.744 -0.943435 5.9932 0
M  V30 1279 H 126.483 -1.13622 4.7428 0
M  V30 1280 H 125.488 1.07538 5.39181 0
M  V30 1281 H 126.713 1.25495 6.67404 0
M  V30 1282 H 124.659 -0.981198 6.4862 0
M  V30 1283 H 124.576 0.384364 7.55022 0
M  V30 1284 H 125.844 -0.787014 7.75517 0
M  V30 1285 N 130.073 -1.45103 0.615059 0
M  V30 1286 C 131.484 -1.85654 0.197383 0
M  V30 1287 C 131.835 -1.51433 -1.24749 0
M  V30 1288 O 130.96 -0.944608 -1.94695 0
M  V30 1289 C 131.555 -3.36972 0.351448 0
M  V30 1290 C 130.114 -3.76398 -0.011593 0
M  V30 1291 C 129.261 -2.69024 0.672394 0
M  V30 1292 H 132.212 -1.35797 0.821263 0
M  V30 1293 H 132.233 -3.78239 -0.414227 0
M  V30 1294 H 131.745 -3.61847 1.40314 0
M  V30 1295 H 129.846 -3.5714 -1.06217 0
M  V30 1296 H 129.959 -4.77532 0.387265 0
M  V30 1297 H 128.323 -2.54465 0.109284 0
M  V30 1298 H 129.106 -2.96735 1.72636 0
M  V30 1299 N 131.551 -0.354651 -1.53558 0
M  V30 1300 C 132.498 0.496968 -2.25386 0
M  V30 1301 C 133.468 1.0865 -1.25636 0
M  V30 1302 O 134.653 1.12104 -1.54394 0
M  V30 1303 C 131.793 1.63637 -3.03837 0
M  V30 1304 C 130.906 1.07307 -4.18461 0
M  V30 1305 C 130.041 2.18068 -4.84376 0
M  V30 1306 C 129.08 1.59147 -5.91049 0
M  V30 1307 N 128.217 2.63695 -6.50699 0
M  V30 1308 H 133.057 -0.122075 -2.9775 0
M  V30 1309 H 130.594 -0.0720154 -1.46924 0
M  V30 1310 H 132.552 2.30734 -3.47589 0
M  V30 1311 H 131.182 2.22623 -2.33749 0
M  V30 1312 H 130.234 0.292708 -3.79272 0
M  V30 1313 H 131.546 0.602193 -4.95152 0
M  V30 1314 H 130.7 2.93007 -5.31255 0
M  V30 1315 H 129.439 2.68504 -4.07133 0
M  V30 1316 H 128.444 0.827175 -5.43542 0
M  V30 1317 H 129.669 1.09549 -6.70206 0
M  V30 1318 H 127.615 3.13365 -5.76315 0
M  V30 1319 H 127.532 2.21263 -7.22896 0
M  V30 1320 H 128.8 3.3837 -7.02229 0
M  V30 1321 N 133.029 1.57378 -0.0835403 0
M  V30 1322 C 133.976 2.13384 0.879539 0
M  V30 1323 C 134.946 1.04936 1.28754 0
M  V30 1324 O 136.131 1.32662 1.37133 0
M  V30 1325 C 133.271 2.70932 2.13752 0
M  V30 1326 C 132.384 3.93575 1.7811 0
M  V30 1327 C 131.519 4.39326 2.98607 0
M  V30 1328 C 130.558 5.54587 2.59037 0
M  V30 1329 N 129.695 5.95243 3.72331 0
M  V30 1330 H 134.535 2.9537 0.395076 0
M  V30 1331 H 132.072 1.45953 0.183349 0
M  V30 1332 H 134.03 3.02411 2.87408 0
M  V30 1333 H 132.66 1.91693 2.59718 0
M  V30 1334 H 131.712 3.68483 0.94469 0
M  V30 1335 H 133.024 4.77258 1.45005 0
M  V30 1336 H 132.178 4.72528 3.80529 0
M  V30 1337 H 130.917 3.5452 3.34913 0
M  V30 1338 H 129.922 5.21024 1.75539 0
M  V30 1339 H 131.147 6.41133 2.23887 0
M  V30 1340 H 129.093 5.13385 4.08378 0
M  V30 1341 H 129.01 6.73694 3.43034 0
M  V30 1342 H 130.278 6.33072 4.54797 0
M  V30 1343 N 134.507 -0.190092 1.56449 0
M  V30 1344 C 135.439 -1.25973 1.91477 0
M  V30 1345 C 136.452 -1.41452 0.805931 0
M  V30 1346 O 137.641 -1.41789 1.08435 0
M  V30 1347 C 134.741 -2.63117 2.13594 0
M  V30 1348 C 133.914 -2.69182 3.4476 0
M  V30 1349 C 132.973 -3.87557 3.5593 0
M  V30 1350 O 131.999 -3.74427 4.28711 0
M  V30 1351 N 133.201 -5.03224 2.89388 0
M  V30 1352 H 135.966 -0.962394 2.83828 0
M  V30 1353 H 133.527 -0.379981 1.57378 0
M  V30 1354 H 135.519 -3.40742 2.1835 0
M  V30 1355 H 134.089 -2.85319 1.27719 0
M  V30 1356 H 133.309 -1.77793 3.51828 0
M  V30 1357 H 134.597 -2.70229 4.31107 0
M  V30 1358 H 133.995 -5.16791 2.30094 0
M  V30 1359 H 132.552 -5.78778 2.99764 0
M  V30 1360 N 135.985 -1.50799 -0.457987 0
M  V30 1361 C 137.233 -1.62121 -1.2067 0
M  V30 1362 C 137.554 -0.329793 -1.92191 0
M  V30 1363 O 136.824 0.653409 -1.84682 0
M  V30 1364 H 135.404 -0.597441 -0.448411 0
M  V30 1365 H 138.066 -1.87637 -0.527096 0
M  V30 1366 H 137.162 -2.43882 -1.94751 0
M  V30 1367 N 137.463 0.71206 -1.40597 0
M  V30 1368 C 138.688 1.50617 -1.42581 0
M  V30 1369 C 139.113 1.88079 -0.0282102 0
M  V30 1370 O 138.471 1.53511 0.964579 0
M  V30 1371 C 138.519 2.7557 -2.3258 0
M  V30 1372 O 137.623 3.72414 -1.77148 0
M  V30 1373 H 136.964 0.453966 -0.484573 0
M  V30 1374 H 139.494 0.876649 -1.84868 0
M  V30 1375 H 139.504 3.2406 -2.47889 0
M  V30 1376 H 138.179 2.47639 -3.34138 0
M  V30 1377 H 136.756 3.31276 -1.71204 0
M  V30 1378 N 138.941 1.26152 0.944643 0
M  V30 1379 C 140.169 1.14259 1.72489 0
M  V30 1380 C 140.584 -0.302555 1.8636 0
M  V30 1381 O 139.941 -1.20741 1.36849 0
M  V30 1382 C 139.992 1.80266 3.13347 0
M  V30 1383 O 139.713 3.19133 3.00143 0
M  V30 1384 C 141.214 1.74283 4.07603 0
M  V30 1385 H 138.434 0.398051 0.540181 0
M  V30 1386 H 140.978 1.66706 1.18446 0
M  V30 1387 H 139.133 1.31766 3.64303 0
M  V30 1388 H 139.547 3.51744 3.89071 0
M  V30 1389 H 141.021 2.25111 5.04013 0
M  V30 1390 H 141.498 0.708631 4.33446 0
M  V30 1391 H 142.104 2.22319 3.62567 0
M  V30 1392 N 140.419 -1.14872 1.07899 0
M  V30 1393 C 141.647 -1.89661 0.82683 0
M  V30 1394 C 142.062 -1.78312 -0.620519 0
M  V30 1395 O 141.419 -1.13888 -1.42604 0
M  V30 1396 C 141.47 -3.39817 1.23316 0
M  V30 1397 O 141.191 -3.50845 2.62372 0
M  V30 1398 C 142.692 -4.31615 1.0111 0
M  V30 1399 H 139.912 -0.60092 0.298557 0
M  V30 1400 H 142.456 -1.4551 1.43691 0
M  V30 1401 H 140.611 -3.8161 0.667286 0
M  V30 1402 H 141.025 -4.44076 2.79101 0
M  V30 1403 H 142.499 -5.35367 1.34486 0
M  V30 1404 H 142.976 -4.39169 -0.0522168 0
M  V30 1405 H 143.582 -3.95572 1.56215 0
M  V30 1406 N 141.898 -0.863906 -1.31812 0
M  V30 1407 C 142.861 -0.320212 -2.26952 0
M  V30 1408 C 143.861 0.525369 -1.51975 0
M  V30 1409 O 145.051 0.335547 -1.70938 0
M  V30 1410 C 142.183 0.545919 -3.365 0
M  V30 1411 H 143.376 -1.16004 -2.76556 0
M  V30 1412 H 140.929 -0.638995 -1.42641 0
M  V30 1413 H 141.664 1.40718 -2.92179 0
M  V30 1414 H 141.449 -0.0594674 -3.92055 0
M  V30 1415 H 142.939 0.918796 -4.07367 0
M  V30 1416 N 143.376 1.44774 -0.622745 0
M  V30 1417 C 144.604 2.06487 -0.130722 0
M  V30 1418 C 145.019 1.46476 1.19123 0
M  V30 1419 O 144.376 0.584502 1.72887 0
M  V30 1420 C 144.427 3.615 -0.000807207 0
M  V30 1421 O 144.148 4.19274 -1.27048 0
M  V30 1422 C 145.649 4.40229 0.520898 0
M  V30 1423 H 142.869 0.666704 -0.0758106 0
M  V30 1424 H 145.413 1.85779 -0.854774 0
M  V30 1425 H 143.568 3.81498 0.673643 0
M  V30 1426 H 143.982 5.12622 -1.1099 0
M  V30 1427 H 145.456 5.49144 0.560838 0
M  V30 1428 H 145.933 4.1108 1.54627 0
M  V30 1429 H 146.539 4.25131 -0.120018 0
M  V30 1430 N 144.854 0.36279 1.53368 0
M  V30 1431 C 146.27 0.0116182 1.59596 0
M  V30 1432 C 146.47 -1.47012 1.37803 0
M  V30 1433 O 145.526 -2.23136 1.18181 0
M  V30 1434 C 146.839 0.465052 2.97082 0
M  V30 1435 C 148.387 0.419033 3.10182 0
M  V30 1436 C 148.862 0.848235 4.50077 0
M  V30 1437 N 150.353 0.803183 4.56183 0
M  V30 1438 C 151.088 1.107 5.62613 0
M  V30 1439 N 150.584 1.47996 6.76808 0
M  V30 1440 N 152.377 1.02998 5.52583 0
M  V30 1441 H 144.528 1.32775 1.65785 0
M  V30 1442 H 146.791 0.542518 0.777417 0
M  V30 1443 H 146.497 1.49892 3.18159 0
M  V30 1444 H 146.371 -0.149786 3.76902 0
M  V30 1445 H 148.758 -0.605696 2.88817 0
M  V30 1446 H 148.839 1.06933 2.32377 0
M  V30 1447 H 148.483 1.87107 4.7218 0
M  V30 1448 H 148.413 0.175218 5.26308 0
M  V30 1449 H 150.904 0.52838 3.74188 0
M  V30 1450 H 151.217 1.69613 7.53957 0
M  V30 1451 H 149.562 1.51859 6.78206 0
M  V30 1452 H 152.753 0.737817 4.62249 0
M  V30 1453 H 152.926 1.2701 6.35431 0
M  V30 1454 N 146.332 -1.57332 0.0918853 0
M  V30 1455 C 147.743 -1.81496 -0.437739 0
M  V30 1456 C 148.094 -1.00727 -1.6837 0
M  V30 1457 O 147.219 -0.235694 -2.15113 0
M  V30 1458 C 147.814 -3.29197 -0.800939 0
M  V30 1459 C 146.373 -3.54136 -1.27532 0
M  V30 1460 C 145.52 -2.75979 -0.270392 0
M  V30 1461 H 148.471 -1.55494 0.317366 0
M  V30 1462 H 148.492 -3.42344 -1.66074 0
M  V30 1463 H 148.004 -3.87955 0.106078 0
M  V30 1464 H 146.105 -3.00705 -2.20016 0
M  V30 1465 H 146.218 -4.62792 -1.23938 0
M  V30 1466 H 144.582 -2.43349 -0.751872 0
M  V30 1467 H 145.365 -3.37484 0.629248 0
M  V30 1468 N 147.81 0.181792 -1.56548 0
M  V30 1469 C 149.221 0.745244 -1.71181 0
M  V30 1470 C 149.572 1.83262 -0.70068 0
M  V30 1471 O 148.697 2.15946 0.140154 0
M  V30 1472 C 149.292 1.35859 -3.10367 0
M  V30 1473 C 147.851 1.86898 -3.2672 0
M  V30 1474 C 146.998 0.743942 -2.67134 0
M  V30 1475 H 149.949 -0.0434661 -1.5864 0
M  V30 1476 H 149.97 2.22817 -3.08436 0
M  V30 1477 H 149.482 0.566948 -3.83937 0
M  V30 1478 H 147.583 2.68738 -2.5809 0
M  V30 1479 H 147.696 2.02162 -4.34359 0
M  V30 1480 H 146.06 1.16169 -2.26665 0
M  V30 1481 H 146.843 -0.035676 -3.43281 0
M  V30 1482 N 149.288 1.51039 0.449983 0
M  V30 1483 C 150.704 1.38934 0.785462 0
M  V30 1484 C 150.904 0.461817 1.96136 0
M  V30 1485 O 149.96 -0.0877389 2.52348 0
M  V30 1486 C 151.273 2.80724 1.0777 0
M  V30 1487 C 152.821 2.89787 1.1829 0
M  V30 1488 C 153.296 4.32457 1.50815 0
M  V30 1489 N 154.787 4.35505 1.57764 0
M  V30 1490 C 155.522 5.42914 1.84477 0
M  V30 1491 N 155.018 6.60502 2.09068 0
M  V30 1492 N 156.811 5.3038 1.86155 0
M  V30 1493 H 148.962 2.09904 -0.324647 0
M  V30 1494 H 151.225 0.944378 -0.0827957 0
M  V30 1495 H 150.931 3.50531 0.286498 0
M  V30 1496 H 150.805 3.19273 2.00859 0
M  V30 1497 H 153.192 2.20186 1.96474 0
M  V30 1498 H 153.273 2.54752 0.231314 0
M  V30 1499 H 152.917 5.02603 0.731622 0
M  V30 1500 H 152.847 4.64995 2.47158 0
M  V30 1501 H 155.338 3.50724 1.40715 0
M  V30 1502 H 155.651 7.38158 2.28785 0
M  V30 1503 H 153.996 6.63639 2.06416 0
M  V30 1504 H 157.187 4.37505 1.66454 0
M  V30 1505 H 157.36 6.1417 2.06637 0
M  V30 1506 N 150.766 -0.704594 1.40972 0
M  V30 1507 C 151.729 -1.80035 1.41845 0
M  V30 1508 C 152.729 -1.57774 0.310474 0
M  V30 1509 O 153.919 -1.64613 0.56992 0
M  V30 1510 C 151.051 -3.18284 1.22098 0
M  V30 1511 H 152.244 -1.80658 2.3938 0
M  V30 1512 H 149.797 -0.911329 1.26982 0
M  V30 1513 H 150.532 -3.23306 0.253672 0
M  V30 1514 H 150.317 -3.35843 2.02366 0
M  V30 1515 H 151.807 -3.98289 1.25522 0
M  V30 1516 N 152.244 -1.26651 -0.937939 0
M  V30 1517 C 153.174 -1.10993 -2.05433 0
M  V30 1518 C 154.155 -0.0142161 -1.70094 0
M  V30 1519 O 155.34 -0.186837 -1.93299 0
M  V30 1520 C 152.47 -0.745561 -3.39203 0
M  V30 1521 C 151.424 -1.79337 -3.88616 0
M  V30 1522 C 150.75 -1.28324 -5.19073 0
M  V30 1523 C 152.05 -3.19553 -4.13138 0
M  V30 1524 H 153.744 -2.0438 -2.1879 0
M  V30 1525 H 151.29 -0.984041 -1.05131 0
M  V30 1526 H 153.243 -0.622888 -4.16771 0
M  V30 1527 H 151.967 0.22401 -3.25831 0
M  V30 1528 H 150.626 -1.90477 -3.13231 0
M  V30 1529 H 150.274 -0.303414 -5.02084 0
M  V30 1530 H 149.974 -1.98369 -5.53103 0
M  V30 1531 H 151.498 -1.1733 -5.99221 0
M  V30 1532 H 152.912 -3.11471 -4.81309 0
M  V30 1533 H 151.309 -3.87218 -4.58457 0
M  V30 1534 H 152.379 -3.65368 -3.18801 0
M  V30 1535 N 153.722 1.14298 -1.08507 0
M  V30 1536 C 154.652 2.21542 -0.737646 0
M  V30 1537 C 155.633 1.67773 0.280377 0
M  V30 1538 O 156.818 1.93616 0.150521 0
M  V30 1539 C 153.948 3.46988 -0.147259 0
M  V30 1540 C 152.902 4.13789 -1.09374 0
M  V30 1541 C 152.228 5.33449 -0.365524 0
M  V30 1542 C 153.528 4.62208 -2.4323 0
M  V30 1543 H 155.222 2.5086 -1.6343 0
M  V30 1544 H 152.768 1.20576 -0.787243 0
M  V30 1545 H 154.721 4.21262 0.107808 0
M  V30 1546 H 153.445 3.17037 0.784538 0
M  V30 1547 H 152.104 3.4147 -1.33393 0
M  V30 1548 H 151.752 4.99759 0.57011 0
M  V30 1549 H 151.452 5.79088 -0.996512 0
M  V30 1550 H 152.976 6.10485 -0.118534 0
M  V30 1551 H 154.39 5.27952 -2.23472 0
M  V30 1552 H 152.787 5.18553 -3.02031 0
M  V30 1553 H 153.857 3.77224 -3.04681 0
M  V30 1554 N 155.201 0.870884 1.31352 0
M  V30 1555 C 156.441 0.488783 1.9847 0
M  V30 1556 C 156.805 -0.941536 1.67329 0
M  V30 1557 O 158.006 -1.42903 2.27667 0
M  V30 1558 C 156.277 0.739688 3.49662 0
M  V30 1559 S 157.836 0.457582 4.36408 0
M  V30 1560 H 154.654 0.18242 0.6872 0
M  V30 1561 H 157.256 1.12711 1.59739 0
M  V30 1562 H 155.96 1.77944 3.69816 0
M  V30 1563 H 155.491 0.0883905 3.93301 0
M  V30 1564 H 157.506 -0.709752 4.91098 0
M  V30 1565 N 156.679 -1.44442 0.630414 0
M  V30 1566 C 157.609 -2.33418 -0.0618083 0
M  V30 1567 C 158.59 -1.48165 -0.835541 0
M  V30 1568 O 159.775 -1.76886 -0.801564 0
M  V30 1569 C 156.905 -3.31222 -1.04449 0
M  V30 1570 C 155.859 -4.26288 -0.382436 0
M  V30 1571 C 155.185 -5.13954 -1.47497 0
M  V30 1572 C 156.485 -5.1744 0.710865 0
M  V30 1573 H 158.179 -2.91548 0.681184 0
M  V30 1574 H 155.725 -1.40191 0.329026 0
M  V30 1575 H 157.678 -3.92351 -1.53748 0
M  V30 1576 H 156.402 -2.71299 -1.81836 0
M  V30 1577 H 155.061 -3.6649 0.0899054 0
M  V30 1578 H 154.709 -4.50385 -2.2397 0
M  V30 1579 H 154.409 -5.7837 -1.03737 0
M  V30 1580 H 155.933 -5.77955 -1.96979 0
M  V30 1581 H 157.347 -5.72509 0.300996 0
M  V30 1582 H 155.744 -5.90455 1.07156 0
M  V30 1583 H 156.814 -4.58496 1.57829 0
M  V30 1584 N 158.157 -0.370918 -1.53173 0
M  V30 1585 C 159.385 0.217704 -2.05751 0
M  V30 1586 C 159.8 1.42018 -1.24404 0
M  V30 1587 O 159.157 1.80245 -0.286033 0
M  V30 1588 C 159.208 0.605954 -3.56385 0
M  V30 1589 O 158.929 -0.548734 -4.3465 0
M  V30 1590 C 160.43 1.2524 -4.25241 0
M  V30 1591 H 157.65 0.0371659 -0.66997 0
M  V30 1592 H 160.194 -0.530832 -1.9749 0
M  V30 1593 H 158.349 1.3044 -3.6478 0
M  V30 1594 H 158.763 -0.23376 -5.23979 0
M  V30 1595 H 160.237 1.47458 -5.3194 0
M  V30 1596 H 160.714 2.2143 -3.79296 0
M  V30 1597 H 161.32 0.595233 -4.21114 0
M  V30 1598 N 159.635 1.57281 -0.100228 0
M  V30 1599 C 160.565 2.17328 0.853857 0
M  V30 1600 C 161.546 1.10804 1.2906 0
M  V30 1601 O 162.731 1.38963 1.35657 0
M  V30 1602 C 159.861 2.75772 2.11109 0
M  V30 1603 C 158.815 3.87713 1.81279 0
M  V30 1604 C 158.141 4.32882 3.13874 0
M  V30 1605 C 159.441 5.10677 1.09574 0
M  V30 1606 H 161.135 2.97305 0.353545 0
M  V30 1607 H 158.681 1.43009 0.168612 0
M  V30 1608 H 160.634 3.16433 2.78296 0
M  V30 1609 H 159.358 1.93057 2.63432 0
M  V30 1610 H 158.017 3.476 1.16489 0
M  V30 1611 H 157.665 3.47051 3.64095 0
M  V30 1612 H 157.365 5.08358 2.94696 0
M  V30 1613 H 158.889 4.7618 3.82211 0
M  V30 1614 H 160.303 5.48474 1.66879 0
M  V30 1615 H 158.7 5.91615 1.00557 0
M  V30 1616 H 159.77 4.84835 0.0793299 0
M  V30 1617 N 161.113 -0.173488 1.56642 0
M  V30 1618 C 162.06 -1.21482 1.96242 0
M  V30 1619 C 163.03 -1.44104 0.826027 0
M  V30 1620 O 164.215 -1.5688 1.08597 0
M  V30 1621 C 161.355 -2.54964 2.32567 0
M  V30 1622 C 160.468 -2.39739 3.59373 0
M  V30 1623 C 159.603 -3.66072 3.84921 0
M  V30 1624 C 158.642 -3.45771 5.05083 0
M  V30 1625 N 157.779 -4.64169 5.26775 0
M  V30 1626 H 162.619 -0.870123 2.85014 0
M  V30 1627 H 160.156 -0.418245 1.41029 0
M  V30 1628 H 162.114 -3.32758 2.5165 0
M  V30 1629 H 160.744 -2.87433 1.46908 0
M  V30 1630 H 159.796 -1.53131 3.48217 0
M  V30 1631 H 161.108 -2.20683 4.47326 0
M  V30 1632 H 160.262 -4.52303 4.0436 0
M  V30 1633 H 159.001 -3.88105 2.9534 0
M  V30 1634 H 158.006 -2.57927 4.85545 0
M  V30 1635 H 159.231 -3.25163 5.96193 0
M  V30 1636 H 157.177 -4.86425 4.40144 0
M  V30 1637 H 157.094 -4.48019 6.08946 0
M  V30 1638 H 158.362 -5.51689 5.5069 0
M  V30 1639 N 162.591 -1.51276 -0.441967 0
M  V30 1640 C 163.539 -1.72823 -1.55676 0
M  V30 1641 C 164.533 -0.59445 -1.58627 0
M  V30 1642 O 165.739 -0.775715 -1.62427 0
M  V30 1643 H 162.114 -0.545983 -0.517113 0
M  V30 1644 H 164.085 -2.6628 -1.34675 0
M  V30 1645 C 162.834 -1.86619 -2.93375 0
M  V30 1646 H 162.157 -2.73264 -2.91834 0
M  V30 1647 H 163.597 -2.05709 -3.70756 0
M  V30 1648 C 162.056 -0.624842 -3.31055 0
M  V30 1649 O 162.586 0.222636 -4.01083 0
M  V30 1650 N 160.792 -0.470288 -2.86769 0
M  V30 1651 H 160.339 -1.161 -2.29953 0
M  V30 1652 H 160.297 0.359051 -3.12343 0
M  V30 1653 N 164.069 0.697108 -1.41344 0
M  V30 1654 C 165.48 1.27697 -1.36199 0
M  V30 1655 C 165.831 1.9615 -0.0443463 0
M  V30 1656 O 164.956 1.98689 0.857419 0
M  V30 1657 C 165.551 2.32223 -2.46694 0
M  V30 1658 C 164.11 2.8579 -2.44952 0
M  V30 1659 C 163.257 1.59807 -2.26621 0
M  V30 1660 H 166.208 0.491968 -1.50882 0
M  V30 1661 H 166.229 3.1348 -2.15664 0
M  V30 1662 H 165.741 1.82373 -3.42581 0
M  V30 1663 H 163.842 3.3982 -1.52817 0
M  V30 1664 H 163.955 3.36325 -3.41207 0
M  V30 1665 H 162.319 1.8556 -1.7447 0
M  V30 1666 H 163.102 1.11956 -3.24532 0
M  V30 1667 N 165.547 1.27147 0.931209 0
M  V30 1668 C 166.796 1.12664 1.67302 0
M  V30 1669 C 167.109 -0.327718 1.92835 0
M  V30 1670 O 168.315 -0.593392 2.64936 0
M  V30 1671 C 166.771 1.9683 3.01307 0
M  V30 1672 C 166.379 3.46901 2.83485 0
M  V30 1673 C 168.123 1.90985 3.79111 0
M  V30 1674 C 166.03 4.23279 4.13024 0
M  V30 1675 H 164.96 0.41803 0.627509 0
M  V30 1676 H 167.611 1.51539 1.03481 0
M  V30 1677 H 165.993 1.50797 3.66164 0
M  V30 1678 H 167.167 4.00773 2.27415 0
M  V30 1679 H 165.482 3.54088 2.19113 0
M  V30 1680 H 168.079 2.45328 4.75098 0
M  V30 1681 H 168.422 0.882718 4.06834 0
M  V30 1682 H 168.955 2.34895 3.21044 0
M  V30 1683 H 165.694 5.26503 3.90481 0
M  V30 1684 H 165.214 3.74186 4.6877 0
M  V30 1685 H 166.893 4.32265 4.81411 0
M  V30 1686 N 167.025 -1.13721 1.09112 0
M  V30 1687 C 168.441 -1.36914 0.820174 0
M  V30 1688 C 168.641 -1.93356 -0.567079 0
M  V30 1689 O 167.697 -2.15093 -1.32255 0
M  V30 1690 C 169.01 -2.3235 1.90877 0
M  V30 1691 C 170.558 -2.45973 1.93562 0
M  V30 1692 C 171.033 -3.44714 3.01556 0
M  V30 1693 N 172.524 -3.52263 3.00775 0
M  V30 1694 C 173.259 -4.28536 3.80978 0
M  V30 1695 N 172.755 -5.07991 4.71081 0
M  V30 1696 N 174.548 -4.23804 3.69251 0
M  V30 1697 H 166.699 -0.754348 1.98553 0
M  V30 1698 H 168.962 -0.3944 0.862063 0
M  V30 1699 H 168.668 -1.98027 2.90651 0
M  V30 1700 H 168.542 -3.32332 1.78424 0
M  V30 1701 H 170.929 -2.79584 0.944286 0
M  V30 1702 H 171.01 -1.45926 2.10093 0
M  V30 1703 H 170.654 -3.11835 4.00901 0
M  V30 1704 H 170.584 -4.44558 2.82269 0
M  V30 1705 H 173.075 -2.95567 2.35475 0
M  V30 1706 H 173.388 -5.63487 5.28869 0
M  V30 1707 H 171.733 -5.07235 4.75119 0
M  V30 1708 H 174.924 -3.60806 2.98222 0
M  V30 1709 H 175.097 -4.82995 4.31995 0
M  V30 1710 N 168.503 -0.877838 -1.30888 0
M  V30 1711 C 169.919 -0.570844 -1.49042 0
M  V30 1712 C 170.119 0.893159 -1.80624 0
M  V30 1713 O 169.175 1.67485 -1.88958 0
M  V30 1714 C 170.488 -1.47784 -2.61878 0
M  V30 1715 C 172.036 -1.48071 -2.75761 0
M  V30 1716 C 172.511 -2.37347 -3.91702 0
M  V30 1717 N 174.002 -2.35271 -3.99001 0
M  V30 1718 C 174.737 -3.01063 -4.88004 0
M  V30 1719 N 174.233 -3.76055 -5.81854 0
M  V30 1720 N 176.026 -2.90332 -4.81315 0
M  V30 1721 H 168.177 -1.82502 -1.0866 0
M  V30 1722 H 170.44 -0.780797 -0.537644 0
M  V30 1723 H 170.146 -2.51993 -2.45341 0
M  V30 1724 H 170.02 -1.18215 -3.58197 0
M  V30 1725 H 172.407 -0.446166 -2.91708 0
M  V30 1726 H 172.488 -1.81668 -1.80085 0
M  V30 1727 H 172.132 -3.40883 -3.76512 0
M  V30 1728 H 172.062 -2.01071 -4.86701 0
M  V30 1729 H 174.553 -1.80768 -3.3186 0
M  V30 1730 H 174.866 -4.23366 -6.46514 0
M  V30 1731 H 173.211 -3.80163 -5.81808 0
M  V30 1732 H 176.402 -2.31278 -4.06974 0
M  V30 1733 H 176.575 -3.41885 -5.50471 0
M  V30 1734 N 169.982 1.44106 -0.638065 0
M  V30 1735 C 170.945 2.29138 0.0531013 0
M  V30 1736 C 171.945 1.41409 0.765506 0
M  V30 1737 O 173.135 1.63206 0.609046 0
M  V30 1738 C 170.267 3.23144 1.08584 0
M  V30 1739 H 171.46 2.91739 -0.694883 0
M  V30 1740 H 169.013 1.51134 -0.398538 0
M  V30 1741 H 169.748 2.65408 1.86357 0
M  V30 1742 H 169.533 3.87804 0.578852 0
M  V30 1743 H 171.023 3.87004 1.56899 0
M  V30 1744 N 171.46 0.379036 1.52974 0
M  V30 1745 C 172.7 -0.206325 2.03356 0
M  V30 1746 C 173.064 -1.44892 1.25977 0
M  V30 1747 O 174.265 -2.11078 1.66432 0
M  V30 1748 C 172.536 -0.477887 3.54191 0
M  V30 1749 S 174.095 -1.035 4.26419 0
M  V30 1750 H 170.913 -0.0590259 0.708546 0
M  V30 1751 H 173.515 0.525013 1.88319 0
M  V30 1752 H 172.219 0.433745 4.08101 0
M  V30 1753 H 171.75 -1.23793 3.73415 0
M  V30 1754 H 173.765 -2.31821 4.38718 0
M  V30 1755 N 172.938 -1.57226 0.108567 0
M  V30 1756 C 174.187 -1.94008 -0.551703 0
M  V30 1757 C 174.5 -0.993442 -1.68494 0
M  V30 1758 O 175.706 -1.25551 -2.40726 0
M  V30 1759 C 174.162 -3.44763 -1.03279 0
M  V30 1760 C 173.77 -4.47943 0.0714193 0
M  V30 1761 C 175.514 -3.90483 -1.66503 0
M  V30 1762 C 173.421 -5.89865 -0.425779 0
M  V30 1763 H 172.351 -0.724206 -0.209863 0
M  V30 1764 H 175.002 -1.82547 0.186741 0
M  V30 1765 H 173.384 -3.51422 -1.82533 0
M  V30 1766 H 174.558 -4.52942 0.847365 0
M  V30 1767 H 172.873 -4.11913 0.609669 0
M  V30 1768 H 175.47 -4.93925 -2.04798 0
M  V30 1769 H 175.813 -3.29877 -2.53942 0
M  V30 1770 H 176.346 -3.86581 -0.938074 0
M  V30 1771 H 173.085 -6.54202 0.412316 0
M  V30 1772 H 172.605 -5.88309 -1.16843 0
M  V30 1773 H 174.284 -6.40844 -0.890397 0
M  V30 1774 N 174.416 0.165178 -1.56732 0
M  V30 1775 C 175.641 0.900253 -1.86843 0
M  V30 1776 C 176.066 1.74766 -0.695596 0
M  V30 1777 O 175.424 1.77786 0.35522 0
M  V30 1778 C 175.472 1.74777 -3.15413 0
M  V30 1779 O 174.576 2.85007 -2.98068 0
M  V30 1780 H 173.917 0.251832 -0.614391 0
M  V30 1781 H 176.447 0.161468 -2.03962 0
M  V30 1782 H 176.457 2.14646 -3.46974 0
M  V30 1783 H 175.132 1.12537 -4.00385 0
M  V30 1784 H 173.709 2.48676 -2.77875 0
M  V30 1785 N 175.894 1.51508 0.433938 0
M  V30 1786 C 177.143 1.63578 1.18005 0
M  V30 1787 C 177.456 0.359514 1.92268 0
M  V30 1788 O 178.662 0.359632 2.69108 0
M  V30 1789 C 177.118 2.88901 2.14626 0
M  V30 1790 C 176.726 4.23544 1.45995 0
M  V30 1791 C 178.47 3.10328 2.89649 0
M  V30 1792 C 176.377 5.40014 2.4112 0
M  V30 1793 H 175.307 0.609277 0.444182 0
M  V30 1794 H 177.958 1.77978 0.446773 0
M  V30 1795 H 176.34 2.68142 2.91403 0
M  V30 1796 H 177.514 4.54696 0.747532 0
M  V30 1797 H 175.829 4.08021 0.831115 0
M  V30 1798 H 178.426 3.94518 3.60915 0
M  V30 1799 H 178.769 2.23544 3.51189 0
M  V30 1800 H 179.302 3.31443 2.19978 0
M  V30 1801 H 176.041 6.29068 1.84264 0
M  V30 1802 H 175.561 5.13233 3.10406 0
M  V30 1803 H 177.24 5.72099 3.02177 0
M  V30 1804 N 177.372 -0.689602 1.41712 0
M  V30 1805 C 178.618 -1.45181 1.41599 0
M  V30 1806 C 178.951 -1.94181 0.0270081 0
M  V30 1807 O 178.226 -1.6993 -0.946265 0
M  V30 1808 C 178.509 -2.65945 2.42787 0
M  V30 1809 C 178.362 -2.22672 3.90816 0
M  V30 1810 C 179.681 -3.68149 2.41151 0
M  V30 1811 H 176.8 -0.526576 0.515642 0
M  V30 1812 H 179.442 -0.784947 1.73028 0
M  V30 1813 H 177.592 -3.2284 2.16116 0
M  V30 1814 H 179.264 -1.71058 4.28412 0
M  V30 1815 H 177.507 -1.54394 4.05395 0
M  V30 1816 H 178.178 -3.0935 4.57172 0
M  V30 1817 H 180.654 -3.2094 2.64834 0
M  V30 1818 H 179.53 -4.50248 3.13955 0
M  V30 1819 H 179.791 -4.18259 1.43221 0
M  V30 1820 N 178.85 -1.27639 -0.924453 0
M  V30 1821 C 179.76 -1.12466 -2.05885 0
M  V30 1822 C 180.776 -0.053869 -1.73917 0
M  V30 1823 O 181.952 -0.261012 -1.99702 0
M  V30 1824 C 179.017 -0.776768 -3.37886 0
M  V30 1825 C 178.078 -1.92878 -3.83532 0
M  V30 1826 C 177.311 -1.59739 -5.09234 0
M  V30 1827 O 177.534 -0.506782 -5.68144 0
M  V30 1828 O 176.468 -2.43761 -5.50331 0
M  V30 1829 H 180.294 -2.07671 -2.21599 0
M  V30 1830 H 177.879 -1.06857 -1.04413 0
M  V30 1831 H 179.761 -0.596229 -4.17161 0
M  V30 1832 H 178.436 0.145732 -3.23372 0
M  V30 1833 H 177.343 -2.1644 -3.0513 0
M  V30 1834 H 178.676 -2.8316 -4.02593 0
M  V30 1835 N 180.328 1.1314 -1.09713 0
M  V30 1836 C 181.574 1.84967 -0.846104 0
M  V30 1837 C 181.929 1.82082 0.621601 0
M  V30 1838 O 181.222 1.2501 1.452 0
M  V30 1839 C 181.416 3.32167 -1.3191 0
M  V30 1840 C 181.245 3.49386 -2.83125 0
M  V30 1841 C 180.015 3.63456 -3.51038 0
M  V30 1842 C 182.213 3.45179 -3.81256 0
M  V30 1843 N 180.195 3.68966 -4.9065 0
M  V30 1844 C 181.566 3.57094 -5.06837 0
M  V30 1845 C 183.621 3.28598 -3.74069 0
M  V30 1846 C 182.324 3.5414 -6.26081 0
M  V30 1847 C 184.35 3.26953 -4.92804 0
M  V30 1848 C 183.712 3.39422 -6.17229 0
M  V30 1849 H 179.811 0.692899 -0.362512 0
M  V30 1850 H 182.395 1.35506 -1.39808 0
M  V30 1851 H 180.566 3.80186 -0.794535 0
M  V30 1852 H 182.298 3.91815 -1.01308 0
M  V30 1853 H 179.053 3.65256 -3.01471 0
M  V30 1854 H 179.477 3.75404 -5.63383 0
M  V30 1855 H 184.119 3.17858 -2.78794 0
M  V30 1856 H 181.837 3.63653 -7.21653 0
M  V30 1857 H 185.423 3.15316 -4.88945 0
M  V30 1858 H 184.303 3.38114 -7.07565 0
M  V30 1859 N 181.806 0.884767 1.30421 0
M  V30 1860 C 182.753 0.349642 2.28136 0
M  V30 1861 C 183.723 -0.560061 1.56373 0
M  V30 1862 O 184.908 -0.488524 1.8444 0
M  V30 1863 C 182.048 -0.42999 3.42411 0
M  V30 1864 C 181.161 0.508907 4.28992 0
M  V30 1865 C 180.296 -0.286301 5.30428 0
M  V30 1866 C 179.335 0.648079 6.08659 0
M  V30 1867 N 178.472 -0.111792 7.02011 0
M  V30 1868 H 183.312 1.18807 2.73293 0
M  V30 1869 H 180.849 0.597231 1.3443 0
M  V30 1870 H 182.807 -0.897923 4.07423 0
M  V30 1871 H 181.437 -1.23299 2.98324 0
M  V30 1872 H 180.489 1.09533 3.64289 0
M  V30 1873 H 181.801 1.22475 4.8353 0
M  V30 1874 H 180.955 -0.816098 6.01186 0
M  V30 1875 H 179.694 -1.03536 4.76583 0
M  V30 1876 H 178.699 1.18951 5.36778 0
M  V30 1877 H 179.924 1.39623 6.64592 0
M  V30 1878 H 177.87 -0.843395 6.50556 0
M  V30 1879 H 177.787 0.544429 7.54037 0
M  V30 1880 H 179.055 -0.622339 7.77012 0
M  V30 1881 N 183.284 -1.43765 0.645699 0
M  V30 1882 C 184.695 -1.85193 0.236719 0
M  V30 1883 C 185.046 -1.54045 -1.21509 0
M  V30 1884 O 184.171 -0.985694 -1.92647 0
M  V30 1885 C 184.766 -3.36151 0.422845 0
M  V30 1886 C 183.325 -3.76338 0.0682492 0
M  V30 1887 C 182.472 -2.67538 0.729306 0
M  V30 1888 H 185.423 -1.34025 0.849883 0
M  V30 1889 H 185.444 -3.79032 -0.333904 0
M  V30 1890 H 184.956 -3.5879 1.47958 0
M  V30 1891 H 183.057 -3.59312 -0.986179 0
M  V30 1892 H 183.17 -4.76603 0.488469 0
M  V30 1893 H 181.534 -2.54176 0.163235 0
M  V30 1894 H 182.317 -2.93006 1.78892 0
M  V30 1895 N 184.763 -0.387143 -1.52771 0
M  V30 1896 C 186.01 0.195735 -2.01552 0
M  V30 1897 C 186.338 1.46995 -1.27369 0
M  V30 1898 O 185.593 1.92325 -0.361879 0
M  V30 1899 C 185.892 0.512209 -3.53711 0
M  V30 1900 C 185.558 -0.670202 -4.45891 0
M  V30 1901 C 184.22 -0.994586 -4.70809 0
M  V30 1902 C 186.572 -1.46134 -5.00294 0
M  V30 1903 C 183.9 -2.11169 -5.4738 0
M  V30 1904 C 186.252 -2.56903 -5.78086 0
M  V30 1905 C 184.916 -2.89852 -6.01284 0
M  V30 1906 H 184.186 0.0716246 -0.73753 0
M  V30 1907 H 186.833 -0.524046 -1.8419 0
M  V30 1908 H 185.138 1.31329 -3.69134 0
M  V30 1909 H 186.835 0.975804 -3.88946 0
M  V30 1910 H 183.425 -0.407366 -4.2666 0
M  V30 1911 H 187.609 -1.22397 -4.80971 0
M  V30 1912 H 182.865 -2.3707 -5.63567 0
M  V30 1913 H 187.039 -3.18608 -6.19243 0
M  V30 1914 H 184.666 -3.76533 -6.60399 0
M  V30 1915 N 186.241 1.57166 -0.116904 0
M  V30 1916 C 187.151 2.18745 0.847812 0
M  V30 1917 C 188.167 1.163 1.29423 0
M  V30 1918 O 189.343 1.48761 1.35765 0
M  V30 1919 C 186.408 2.77307 2.0809 0
M  V30 1920 C 185.469 3.94781 1.68661 0
M  V30 1921 C 184.702 4.50541 2.86091 0
M  V30 1922 O 184.925 4.05202 4.01456 0
M  V30 1923 O 183.859 5.41256 2.63298 0
M  V30 1924 H 187.685 3.01632 0.353778 0
M  V30 1925 H 185.27 1.49005 0.108599 0
M  V30 1926 H 187.152 3.14647 2.80313 0
M  V30 1927 H 185.827 1.97452 2.56504 0
M  V30 1928 H 184.734 3.62214 0.935518 0
M  V30 1929 H 186.067 4.76065 1.24991 0
M  V30 1930 N 187.719 -0.156864 1.56817 0
M  V30 1931 C 188.968 -0.869504 1.81996 0
M  V30 1932 C 189.281 -1.82777 0.696545 0
M  V30 1933 O 190.487 -2.58384 0.833658 0
M  V30 1934 C 188.943 -1.59679 3.22538 0
M  V30 1935 C 188.551 -0.681431 4.42787 0
M  V30 1936 C 190.295 -2.2968 3.56997 0
M  V30 1937 C 188.202 -1.40978 5.74351 0
M  V30 1938 H 187.132 -0.328438 0.678708 0
M  V30 1939 H 189.783 -0.1223 1.83092 0
M  V30 1940 H 188.165 -2.38927 3.158 0
M  V30 1941 H 189.339 0.0751166 4.60739 0
M  V30 1942 H 187.654 -0.0903431 4.16302 0
M  V30 1943 H 190.251 -2.84794 4.52544 0
M  V30 1944 H 190.594 -3.05707 2.82576 0
M  V30 1945 H 191.127 -1.57361 3.65352 0
M  V30 1946 H 187.866 -0.691561 6.51842 0
M  V30 1947 H 187.386 -2.13929 5.60352 0
M  V30 1948 H 189.065 -1.95337 6.16808 0
M  V30 1949 N 189.197 -1.51736 -0.425897 0
M  V30 1950 C 190.446 -1.64201 -1.17136 0
M  V30 1951 C 190.759 -0.369705 -1.92074 0
M  V30 1952 O 191.965 -0.373898 -2.68913 0
M  V30 1953 C 190.421 -2.90035 -2.13091 0
M  V30 1954 C 190.029 -4.24312 -1.43747 0
M  V30 1955 C 191.773 -3.1186 -2.87999 0
M  V30 1956 C 189.68 -5.41285 -2.38253 0
M  V30 1957 H 188.61 -0.611624 -0.440944 0
M  V30 1958 H 191.261 -1.78212 -0.437328 0
M  V30 1959 H 189.643 -2.69684 -2.89977 0
M  V30 1960 H 190.817 -4.55086 -0.723408 0
M  V30 1961 H 189.132 -4.08456 -0.809465 0
M  V30 1962 H 191.729 -3.96427 -3.58817 0
M  V30 1963 H 192.072 -2.25403 -3.49999 0
M  V30 1964 H 192.605 -3.32605 -2.18217 0
M  V30 1965 H 189.344 -6.30037 -1.80925 0
M  V30 1966 H 188.864 -5.14872 -3.0768 0
M  V30 1967 H 190.543 -5.73694 -2.99139 0
M  V30 1968 N 190.675 0.682077 -1.42076 0
M  V30 1969 C 191.924 1.43786 -1.41451 0
M  V30 1970 C 192.237 1.95574 -0.0317074 0
M  V30 1971 O 193.443 2.71326 0.0971462 0
M  V30 1972 C 191.899 2.60071 -2.48779 0
M  V30 1973 C 191.507 2.15013 -3.93031 0
M  V30 1974 C 193.251 3.37626 -2.57311 0
M  V30 1975 C 191.158 3.28336 -4.91883 0
M  V30 1976 H 190.088 0.540143 -0.526082 0
M  V30 1977 H 192.739 0.739157 -1.67955 0
M  V30 1978 H 191.121 3.32275 -2.15429 0
M  V30 1979 H 192.295 1.5001 -4.35699 0
M  V30 1980 H 190.61 1.50416 -3.88284 0
M  V30 1981 H 193.207 4.22012 -3.28345 0
M  V30 1982 H 193.55 3.83727 -1.61429 0
M  V30 1983 H 194.083 2.72488 -2.89819 0
M  V30 1984 H 190.822 2.87234 -5.89217 0
M  V30 1985 H 190.342 3.92145 -4.53853 0
M  V30 1986 H 192.021 3.93913 -5.13265 0
M  V30 1987 N 192.153 1.28127 0.917671 0
M  V30 1988 C 193.083 1.14248 2.03641 0
M  V30 1989 C 194.064 0.0412748 1.7005 0
M  V30 1990 O 195.249 0.217566 1.92977 0
M  V30 1991 C 192.379 0.799431 3.37974 0
M  V30 1992 C 191.333 1.85497 3.85713 0
M  V30 1993 C 190.659 1.36565 5.16966 0
M  V30 1994 C 191.959 3.26085 4.08002 0
M  V30 1995 H 193.653 2.07835 2.15511 0
M  V30 1996 H 191.199 1.00064 1.03553 0
M  V30 1997 H 193.152 0.689114 4.15727 0
M  V30 1998 H 191.876 -0.172145 3.26146 0
M  V30 1999 H 190.535 1.95437 3.10161 0
M  V30 2000 H 190.183 0.383253 5.01538 0
M  V30 2001 H 189.883 2.07143 5.49878 0
M  V30 2002 H 191.407 1.26848 5.97279 0
M  V30 2003 H 192.821 3.19089 4.76293 0
M  V30 2004 H 191.218 3.94462 4.52238 0
M  V30 2005 H 192.288 3.70394 3.12948 0
M  V30 2006 N 193.631 -1.12557 1.10312 0
M  V30 2007 C 194.561 -2.20341 0.772798 0
M  V30 2008 C 195.542 -1.68198 -0.25365 0
M  V30 2009 O 196.727 -1.93831 -0.119699 0
M  V30 2010 C 193.857 -3.46709 0.202443 0
M  V30 2011 C 192.811 -4.11996 1.15943 0
M  V30 2012 C 192.137 -5.328 0.450345 0
M  V30 2013 C 193.437 -4.5828 2.50552 0
M  V30 2014 H 195.131 -2.48229 1.674 0
M  V30 2015 H 192.677 -1.19308 0.806326 0
M  V30 2016 H 194.63 -4.2138 -0.0407752 0
M  V30 2017 H 193.354 -3.18245 -0.734001 0
M  V30 2018 H 192.013 -3.39305 1.38808 0
M  V30 2019 H 191.661 -5.00602 -0.490531 0
M  V30 2020 H 191.361 -5.7743 1.08851 0
M  V30 2021 H 192.885 -6.10219 0.215642 0
M  V30 2022 H 194.299 -5.2433 2.31843 0
M  V30 2023 H 192.696 -5.13683 3.10242 0
M  V30 2024 H 193.766 -3.72329 3.10643 0
M  V30 2025 N 195.109 -0.891671 -1.2995 0
M  V30 2026 C 196.337 -0.52866 -2.00032 0
M  V30 2027 C 196.752 0.884574 -1.66795 0
M  V30 2028 O 196.109 1.5827 -0.908669 0
M  V30 2029 C 196.16 -0.701814 -3.54622 0
M  V30 2030 O 195.881 -2.05942 -3.86678 0
M  V30 2031 C 197.382 -0.342683 -4.41973 0
M  V30 2032 H 194.602 -0.203659 -0.639347 0
M  V30 2033 H 197.146 -1.19881 -1.65677 0
M  V30 2034 H 195.301 -0.0789468 -3.8732 0
M  V30 2035 H 195.715 -2.08291 -4.81368 0
M  V30 2036 H 197.189 -0.514709 -5.49595 0
M  V30 2037 H 197.666 0.71975 -4.33262 0
M  V30 2038 H 198.272 -0.942154 -4.14733 0
M  V30 2039 N 196.587 1.43421 -0.653314 0
M  V30 2040 C 197.836 2.01032 -0.164076 0
M  V30 2041 C 198.149 1.52147 1.22926 0
M  V30 2042 O 199.355 2.02031 1.81371 0
M  V30 2043 C 197.811 3.59082 -0.24252 0
M  V30 2044 C 197.419 4.1696 -1.63855 0
M  V30 2045 C 199.163 4.24079 0.18911 0
M  V30 2046 C 197.07 5.67304 -1.67092 0
M  V30 2047 H 196 0.751798 -0.0575769 0
M  V30 2048 H 198.651 1.6439 -0.815362 0
M  V30 2049 H 197.033 3.93125 0.476276 0
M  V30 2050 H 198.207 3.94416 -2.38271 0
M  V30 2051 H 196.522 3.64335 -2.01616 0
M  V30 2052 H 199.119 5.34381 0.184775 0
M  V30 2053 H 199.462 3.98005 1.22056 0
M  V30 2054 H 199.995 3.94918 -0.477938 0
M  V30 2055 H 196.734 5.98145 -2.68146 0
M  V30 2056 H 196.254 5.91904 -0.970014 0
M  V30 2057 H 197.933 6.31344 -1.4147 0
M  V30 2058 N 198.065 0.39524 1.52563 0
M  V30 2059 C 199.312 -0.185044 2.01653 0
M  V30 2060 C 199.64 -1.46317 1.28146 0
M  V30 2061 O 198.895 -1.9213 0.372074 0
M  V30 2062 C 199.194 -0.493444 3.53977 0
M  V30 2063 C 198.86 0.69384 4.4553 0
M  V30 2064 C 197.522 1.01954 4.70275 0
M  V30 2065 C 199.874 1.48785 4.99512 0
M  V30 2066 C 197.202 2.14069 5.46252 0
M  V30 2067 C 199.554 2.59965 5.76716 0
M  V30 2068 C 198.218 2.93037 5.99738 0
M  V30 2069 H 197.488 -0.0677123 0.7379 0
M  V30 2070 H 200.135 0.533807 1.8391 0
M  V30 2071 H 198.44 -1.29369 3.69825 0
M  V30 2072 H 200.137 -0.955163 3.89458 0
M  V30 2073 H 196.727 0.429987 4.26438 0
M  V30 2074 H 200.911 1.24946 4.80315 0
M  V30 2075 H 196.167 2.40056 5.62302 0
M  V30 2076 H 200.341 3.21887 6.17545 0
M  V30 2077 H 197.968 3.8003 6.58393 0
M  V30 2078 N 199.544 -1.57102 0.125237 0
M  V30 2079 C 200.507 -2.14471 -0.80838 0
M  V30 2080 C 201.507 -1.0811 -1.19033 0
M  V30 2081 O 202.697 -1.33856 -1.11482 0
M  V30 2082 C 199.829 -2.69005 -2.09402 0
M  V30 2083 H 201.022 -2.98297 -0.309696 0
M  V30 2084 H 198.575 -1.55807 -0.124051 0
M  V30 2085 H 199.31 -1.88785 -2.63687 0
M  V30 2086 H 199.095 -3.46799 -1.82957 0
M  V30 2087 H 200.585 -3.13278 -2.76128 0
M  V30 2088 N 201.022 0.148545 -1.56898 0
M  V30 2089 C 201.97 1.20265 -1.99096 0
M  V30 2090 C 202.964 1.44559 -0.883123 0
M  V30 2091 O 204.17 1.4487 -1.0683 0
M  V30 2092 H 200.545 0.404786 -0.63376 0
M  V30 2093 H 202.516 0.82004 -2.86911 0
M  V30 2094 C 201.265 2.52886 -2.3863 0
M  V30 2095 H 200.588 2.35021 -3.23427 0
M  V30 2096 H 202.028 3.25274 -2.7198 0
M  V30 2097 C 200.487 3.13315 -1.23837 0
M  V30 2098 O 201.017 3.98077 -0.538268 0
M  V30 2099 N 199.223 2.72742 -1.00301 0
M  V30 2100 H 198.77 2.03912 -1.5741 0
M  V30 2101 H 198.728 3.13507 -0.236838 0
M  V30 2102 N 202.5 1.5196 0.417844 0
M  V30 2103 C 203.74 1.67262 1.17486 0
M  V30 2104 C 204.104 0.38983 1.88001 0
M  V30 2105 O 205.305 0.418845 2.65517 0
M  V30 2106 C 203.576 2.85526 2.14965 0
M  V30 2107 S 205.135 3.21263 2.98891 0
M  V30 2108 H 201.953 0.589077 0.398132 0
M  V30 2109 H 204.555 1.89927 0.463452 0
M  V30 2110 H 203.259 3.77145 1.61833 0
M  V30 2111 H 202.79 2.65107 2.90657 0
M  V30 2112 H 204.805 2.69208 4.16823 0
M  V30 2113 N 203.978 -0.674533 1.42435 0
M  V30 2114 C 205.224 -1.43671 1.43131 0
M  V30 2115 C 205.557 -1.94142 0.0476021 0
M  V30 2116 O 204.832 -1.70924 -0.928188 0
M  V30 2117 C 205.115 -2.63355 2.45594 0
M  V30 2118 C 204.968 -2.18514 3.93156 0
M  V30 2119 C 206.287 -3.65571 2.45043 0
M  V30 2120 H 203.406 -0.521077 0.521198 0
M  V30 2121 H 206.048 -0.766551 1.7385 0
M  V30 2122 H 204.198 -3.2053 2.19528 0
M  V30 2123 H 205.87 -1.66504 4.30202 0
M  V30 2124 H 204.113 -1.50086 4.07009 0
M  V30 2125 H 204.784 -3.04484 4.60428 0
M  V30 2126 H 207.26 -3.18113 2.68223 0
M  V30 2127 H 206.136 -4.46893 3.18713 0
M  V30 2128 H 206.397 -4.16716 1.47649 0
M  V30 2129 N 205.456 -1.28612 -0.910864 0
M  V30 2130 C 206.419 -1.12803 -1.9952 0
M  V30 2131 C 207.419 -0.0668264 -1.60661 0
M  V30 2132 O 208.609 -0.312847 -1.71368 0
M  V30 2133 C 205.741 -0.72254 -3.33155 0
M  V30 2134 H 206.934 -2.09109 -2.14973 0
M  V30 2135 H 204.487 -1.11639 -1.09391 0
M  V30 2136 H 205.222 0.241152 -3.23402 0
M  V30 2137 H 205.007 -1.48916 -3.62721 0
M  V30 2138 H 206.497 -0.634666 -4.12749 0
M  V30 2139 N 206.934 1.1197 -1.10907 0
M  V30 2140 C 207.864 2.19928 -0.784473 0
M  V30 2141 C 208.845 1.6833 0.244726 0
M  V30 2142 O 210.03 1.93892 0.109418 0
M  V30 2143 C 207.16 3.46597 -0.220827 0
M  V30 2144 C 206.114 4.11376 -1.18127 0
M  V30 2145 C 205.44 5.32554 -0.478594 0
M  V30 2146 C 206.74 4.56945 -2.52979 0
M  V30 2147 H 208.434 2.47337 -1.68715 0
M  V30 2148 H 205.98 1.18879 -0.812642 0
M  V30 2149 H 207.933 4.21396 0.0184278 0
M  V30 2150 H 206.657 3.1863 0.717113 0
M  V30 2151 H 205.316 3.38564 -1.40606 0
M  V30 2152 H 204.964 5.00856 0.463976 0
M  V30 2153 H 204.664 5.76844 -1.11912 0
M  V30 2154 H 206.188 6.10096 -0.248 0
M  V30 2155 H 207.602 5.23093 -2.3462 0
M  V30 2156 H 205.999 5.1203 -3.12962 0
M  V30 2157 H 207.069 3.70676 -3.12614 0
M  V30 2158 N 208.412 0.89855 1.29475 0
M  V30 2159 C 209.375 0.380272 2.26023 0
M  V30 2160 C 210.375 -0.484891 1.53315 0
M  V30 2161 O 211.565 -0.290108 1.71767 0
M  V30 2162 C 208.697 -0.45651 3.3783 0
M  V30 2163 H 209.89 1.23295 2.73383 0
M  V30 2164 H 207.443 0.676589 1.40897 0
M  V30 2165 H 208.178 -1.32922 2.95808 0
M  V30 2166 H 207.963 0.163393 3.91759 0
M  V30 2167 H 209.453 -0.810466 4.0966 0
M  V30 2168 N 209.89 -1.43072 0.660911 0
M  V30 2169 C 211.139 -2.00942 0.174735 0
M  V30 2170 C 211.452 -1.52797 -1.22117 0
M  V30 2171 O 212.658 -2.02991 -1.80297 0
M  V30 2172 C 211.114 -3.58948 0.261559 0
M  V30 2173 C 210.722 -4.16085 1.66064 0
M  V30 2174 C 212.466 -4.24173 -0.166617 0
M  V30 2175 C 210.373 -5.6641 1.70098 0
M  V30 2176 H 209.303 -0.751483 0.0615631 0
M  V30 2177 H 211.954 -1.63955 0.824069 0
M  V30 2178 H 210.336 -3.93372 -0.455421 0
M  V30 2179 H 211.51 -3.93147 2.40359 0
M  V30 2180 H 209.825 -3.6326 2.03546 0
M  V30 2181 H 212.422 -5.34471 -0.156433 0
M  V30 2182 H 212.765 -3.98647 -1.19943 0
M  V30 2183 H 213.298 -3.94659 0.498875 0
M  V30 2184 H 210.037 -5.96715 2.71315 0
M  V30 2185 H 209.557 -5.91382 1.00139 0
M  V30 2186 H 211.236 -6.30585 1.44816 0
M  V30 2187 N 211.368 -0.403325 -1.52352 0
M  V30 2188 C 212.598 0.17376 -2.05868 0
M  V30 2189 C 213.006 1.39898 -1.27378 0
M  V30 2190 O 212.349 1.80939 -0.31729 0
M  V30 2191 C 212.411 0.594756 -3.54546 0
M  V30 2192 C 212.075 -0.518926 -4.54044 0
M  V30 2193 C 213.072 -1.3807 -5.01231 0
M  V30 2194 C 210.757 -0.689961 -4.97539 0
M  V30 2195 C 212.751 -2.39852 -5.90551 0
M  V30 2196 C 210.438 -1.71109 -5.86656 0
M  V30 2197 C 211.436 -2.56378 -6.33056 0
M  V30 2198 O 211.124 -3.56743 -7.20409 0
M  V30 2199 H 210.856 0.0264951 -0.675481 0
M  V30 2200 H 213.41 -0.571179 -1.97299 0
M  V30 2201 H 211.64 1.39189 -3.60782 0
M  V30 2202 H 213.329 1.0991 -3.90736 0
M  V30 2203 H 214.095 -1.25994 -4.68349 0
M  V30 2204 H 209.974 -0.035939 -4.60986 0
M  V30 2205 H 213.518 -3.06441 -6.26689 0
M  V30 2206 H 209.415 -1.83218 -6.18952 0
M  V30 2207 H 210.183 -3.52918 -7.38506 0
M  V30 2208 N 212.846 1.57033 -0.133567 0
M  V30 2209 C 214.095 1.94861 0.520768 0
M  V30 2210 C 214.408 1.02012 1.66892 0
M  V30 2211 O 215.614 1.29365 2.38699 0
M  V30 2212 C 214.07 3.46362 0.977809 0
M  V30 2213 C 213.678 4.47773 -0.142674 0
M  V30 2214 C 215.422 3.93083 1.60269 0
M  V30 2215 C 213.329 5.90468 0.331883 0
M  V30 2216 H 212.259 0.727453 0.198315 0
M  V30 2217 H 214.91 1.82227 -0.215759 0
M  V30 2218 H 213.292 3.54282 1.7692 0
M  V30 2219 H 214.466 4.51536 -0.919317 0
M  V30 2220 H 212.781 4.10891 -0.675124 0
M  V30 2221 H 215.378 4.97121 1.96914 0
M  V30 2222 H 215.721 3.33876 2.48662 0
M  V30 2223 H 216.254 3.88025 0.876453 0
M  V30 2224 H 212.993 6.53463 -0.516341 0
M  V30 2225 H 212.513 5.90094 1.07469 0
M  V30 2226 H 214.192 6.42179 0.788332 0
M  V30 2227 N 214.325 -0.140222 1.56975 0
M  V30 2228 C 215.736 -0.699596 1.73097 0
M  V30 2229 C 216.087 -1.8134 0.749022 0
M  V30 2230 O 215.212 -2.16241 -0.0828503 0
M  V30 2231 C 215.807 -1.27582 3.1386 0
M  V30 2232 C 214.366 -1.78169 3.31561 0
M  V30 2233 C 213.513 -0.672855 2.69013 0
M  V30 2234 H 216.464 0.0855115 1.58469 0
M  V30 2235 H 216.485 -2.14561 3.14235 0
M  V30 2236 H 215.997 -0.464955 3.85305 0
M  V30 2237 H 214.098 -2.61801 2.65124 0
M  V30 2238 H 214.211 -1.90574 4.39566 0
M  V30 2239 H 212.575 -1.10118 2.29665 0
M  V30 2240 H 213.358 0.126679 3.43066 0
M  V30 2241 N 215.803 -1.52179 -0.40978 0
M  V30 2242 C 217.05 -1.66206 -1.15679 0
M  V30 2243 C 217.378 -0.391674 -1.90516 0
M  V30 2244 O 216.633 0.62533 -1.8544 0
M  V30 2245 C 216.932 -2.83428 -2.17723 0
M  V30 2246 C 216.598 -4.21672 -1.59699 0
M  V30 2247 C 215.26 -4.59274 -1.43599 0
M  V30 2248 C 217.612 -5.07825 -1.17317 0
M  V30 2249 C 214.94 -5.80709 -0.836328 0
M  V30 2250 C 217.292 -6.29864 -0.587691 0
M  V30 2251 C 215.956 -6.66216 -0.413818 0
M  V30 2252 H 215.226 -0.608192 -0.423301 0
M  V30 2253 H 217.873 -1.86279 -0.444097 0
M  V30 2254 H 216.178 -2.57687 -2.95135 0
M  V30 2255 H 217.875 -2.91477 -2.75394 0
M  V30 2256 H 214.465 -3.9204 -1.73213 0
M  V30 2257 H 218.649 -4.79359 -1.28565 0
M  V30 2258 H 213.905 -6.07498 -0.689626 0
M  V30 2259 H 218.079 -6.95948 -0.250894 0
M  V30 2260 H 215.706 -7.60182 0.0529471 0
M  V30 2261 N 217.281 0.66697 -1.42791 0
M  V30 2262 C 218.692 1.2478 -1.38877 0
M  V30 2263 C 219.043 1.96012 -0.0859426 0
M  V30 2264 O 218.168 2.00463 0.815081 0
M  V30 2265 C 218.763 2.26938 -2.51564 0
M  V30 2266 C 217.322 2.80529 -2.50959 0
M  V30 2267 C 216.469 1.54965 -2.29959 0
M  V30 2268 H 219.42 0.459853 -1.51892 0
M  V30 2269 H 219.441 3.08834 -2.22265 0
M  V30 2270 H 218.953 1.75065 -3.46372 0
M  V30 2271 H 217.054 3.36502 -1.59991 0
M  V30 2272 H 217.167 3.29012 -3.48265 0
M  V30 2273 H 215.531 1.81817 -1.78366 0
M  V30 2274 H 216.314 1.05047 -3.26833 0
M  V30 2275 N 218.759 1.29093 0.90403 0
M  V30 2276 C 219.669 1.15727 2.0407 0
M  V30 2277 C 220.685 0.0815308 1.73809 0
M  V30 2278 O 221.861 0.292749 1.99261 0
M  V30 2279 C 218.926 0.830424 3.36608 0
M  V30 2280 C 217.987 1.98955 3.80415 0
M  V30 2281 C 217.22 1.6782 5.06628 0
M  V30 2282 O 217.443 0.597105 5.67266 0
M  V30 2283 O 216.377 2.52486 5.46383 0
M  V30 2284 H 220.203 2.11171 2.18267 0
M  V30 2285 H 217.788 1.08504 1.027 0
M  V30 2286 H 219.67 0.662521 4.16159 0
M  V30 2287 H 218.345 -0.0942678 3.23563 0
M  V30 2288 H 217.252 2.21267 3.01648 0
M  V30 2289 H 218.585 2.89529 3.98037 0
M  V30 2290 N 220.237 -1.11381 1.11499 0
M  V30 2291 C 221.514 -1.7955 0.775965 0
M  V30 2292 C 221.894 -1.97859 -0.73588 0
M  V30 2293 O 221.242 -1.56376 -1.66609 0
M  V30 2294 C 221.452 -3.13196 1.53977 0
M  V30 2295 C 222.8 -3.88227 1.71944 0
M  V30 2296 O 223.824 -3.22887 1.50407 0
M  V30 2297 O 222.683 -5.05477 2.07738 0
M  V30 2298 H 219.777 -0.777728 0.28119 0
M  V30 2299 H 222.323 -1.18118 1.21845 0
M  V30 2300 H 221.095 -2.95229 2.56818 0
M  V30 2301 H 220.718 -3.82342 1.09088 0
M  V30 2302 N 221.715 -0.905404 -1.28997 0
M  V30 2303 C 222.992 -0.453513 -1.9027 0
M  V30 2304 C 223.372 1.06721 -1.82137 0
M  V30 2305 O 222.72 1.91159 -1.25182 0
M  V30 2306 C 222.93 -0.974494 -3.35119 0
M  V30 2307 C 224.278 -1.0216 -4.12127 0
M  V30 2308 O 225.302 -0.922557 -3.44046 0
M  V30 2309 O 224.161 -1.17121 -5.33802 0
M  V30 2310 H 221.255 -0.142347 -0.814657 0
M  V30 2311 H 223.801 -0.995642 -1.37423 0
M  V30 2312 H 222.573 -2.01848 -3.35221 0
M  V30 2313 H 222.196 -0.412706 -3.95452 0
M  V30 2314 N 223.193 1.4272 -0.668489 0
M  V30 2315 C 224.418 2.06484 -0.194758 0
M  V30 2316 C 224.843 1.49862 1.13679 0
M  V30 2317 O 224.201 0.614582 1.70565 0
M  V30 2318 C 224.249 3.60353 -0.133546 0
M  V30 2319 O 223.353 4.02464 0.899806 0
M  V30 2320 H 222.694 0.656137 -0.10188 0
M  V30 2321 H 225.224 1.82964 -0.915722 0
M  V30 2322 H 225.234 4.07976 0.0447041 0
M  V30 2323 H 223.909 4.00938 -1.1055 0
M  V30 2324 H 222.486 3.66402 0.693109 0
M  V30 2325 N 224.671 0.411399 1.52136 0
M  V30 2326 C 225.619 -0.427633 2.28635 0
M  V30 2327 C 226.613 -1.04383 1.33419 0
M  V30 2328 O 227.819 -0.981772 1.50868 0
M  V30 2329 H 224.194 -0.156689 0.735495 0
M  V30 2330 H 226.165 0.238761 2.97443 0
M  V30 2331 C 224.914 -1.53082 3.12188 0
M  V30 2332 H 224.237 -1.06601 3.85326 0
M  V30 2333 H 225.677 -2.09167 3.68816 0
M  V30 2334 C 224.136 -2.49946 2.25895 0
M  V30 2335 O 224.666 -3.53884 1.90076 0
M  V30 2336 N 222.872 -2.2021 1.8962 0
M  V30 2337 H 222.419 -1.35719 2.18948 0
M  V30 2338 H 222.377 -2.85266 1.32176 0
M  V30 2339 N 226.149 -1.5696 0.141893 0
M  V30 2340 C 227.112 -2.15316 -0.785587 0
M  V30 2341 C 228.112 -1.09366 -1.1788 0
M  V30 2342 O 229.302 -1.35031 -1.10056 0
M  V30 2343 C 226.434 -2.71211 -2.06537 0
M  V30 2344 H 227.627 -2.98608 -0.278041 0
M  V30 2345 H 225.18 -1.5593 -0.107519 0
M  V30 2346 H 225.915 -1.91571 -2.6167 0
M  V30 2347 H 225.7 -3.4872 -1.79268 0
M  V30 2348 H 227.19 -3.16189 -2.72789 0
M  V30 2349 N 227.627 0.131896 -1.57047 0
M  V30 2350 C 228.855 0.856461 -1.88341 0
M  V30 2351 C 229.27 1.74042 -0.731757 0
M  V30 2352 O 228.627 1.80051 0.297945 0
M  V30 2353 C 228.678 1.70064 -3.18999 0
M  V30 2354 O 228.399 0.852278 -4.2973 0
M  V30 2355 C 229.9 2.53148 -3.63911 0
M  V30 2356 H 227.12 0.246885 -0.62393 0
M  V30 2357 H 229.664 0.120152 -2.04147 0
M  V30 2358 H 227.819 2.38984 -3.04902 0
M  V30 2359 H 228.233 1.43329 -5.04537 0
M  V30 2360 H 229.707 3.07931 -4.58129 0
M  V30 2361 H 230.184 3.29901 -2.89935 0
M  V30 2362 H 230.79 1.89492 -3.80753 0
M  V30 2363 N 229.106 1.52395 0.401703 0
M  V30 2364 C 230.054 1.7689 1.51039 0
M  V30 2365 C 231.048 0.636298 1.56996 0
M  V30 2366 O 232.254 0.818507 1.60314 0
M  V30 2367 H 228.629 0.559502 0.502456 0
M  V30 2368 H 230.6 2.69757 1.27568 0
M  V30 2369 C 229.349 1.94331 2.88324 0
M  V30 2370 H 228.672 2.80905 2.84486 0
M  V30 2371 H 230.112 2.15466 3.65172 0
M  V30 2372 C 228.571 0.712396 3.29282 0
M  V30 2373 O 229.101 -0.116218 4.01532 0
M  V30 2374 N 227.307 0.546154 2.85422 0
M  V30 2375 H 226.854 1.22156 2.26794 0
M  V30 2376 H 226.812 -0.276113 3.13185 0
M  V30 2377 N 230.584 -0.659388 1.43143 0
M  V30 2378 C 231.809 -1.45221 1.48073 0
M  V30 2379 C 232.234 -1.87845 0.097995 0
M  V30 2380 O 231.592 -1.56985 -0.90694 0
M  V30 2381 C 231.64 -2.66748 2.42647 0
M  V30 2382 O 230.744 -3.65583 1.90848 0
M  V30 2383 H 230.085 -0.435669 0.501088 0
M  V30 2384 H 232.615 -0.807432 1.87994 0
M  V30 2385 H 232.625 -3.14637 2.59745 0
M  V30 2386 H 231.3 -2.35067 3.43098 0
M  V30 2387 H 229.877 -3.24693 1.83381 0
M  V30 2388 N 232.062 -1.29571 -0.897171 0
M  V30 2389 C 233.01 -1.14802 -2.02295 0
M  V30 2390 C 234.004 -0.0629637 -1.69283 0
M  V30 2391 O 235.21 -0.222945 -1.78614 0
M  V30 2392 H 231.585 -0.354692 -0.663097 0
M  V30 2393 H 233.556 -2.10108 -2.11889 0
M  V30 2394 C 232.305 -0.843966 -3.37302 0
M  V30 2395 H 231.628 -1.67093 -3.63208 0
M  V30 2396 H 233.068 -0.780672 -4.16751 0
M  V30 2397 C 231.527 0.452843 -3.33843 0
M  V30 2398 O 232.057 1.47813 -3.73516 0
M  V30 2399 N 230.263 0.459601 -2.86943 0
M  V30 2400 H 229.81 -0.375213 -2.54853 0
M  V30 2401 H 229.768 1.32726 -2.85011 0
M  V30 2402 N 233.54 1.10788 -1.12088 0
M  V30 2403 C 234.47 2.19083 -0.807755 0
M  V30 2404 C 235.451 1.6858 0.226859 0
M  V30 2405 O 236.636 1.93997 0.0888475 0
M  V30 2406 C 233.766 3.46344 -0.257576 0
M  V30 2407 C 232.72 4.101 -1.22483 0
M  V30 2408 C 232.046 5.32016 -0.535052 0
M  V30 2409 C 233.346 4.54236 -2.57811 0
M  V30 2410 H 235.04 2.45534 -1.71328 0
M  V30 2411 H 232.586 1.1801 -0.825205 0
M  V30 2412 H 234.539 4.21392 -0.0262679 0
M  V30 2413 H 233.263 3.19373 0.683278 0
M  V30 2414 H 231.922 3.37054 -1.44189 0
M  V30 2415 H 231.57 5.01319 0.410827 0
M  V30 2416 H 231.27 5.75625 -1.18024 0
M  V30 2417 H 232.794 6.09799 -0.312695 0
M  V30 2418 H 234.208 5.20575 -2.40155 0
M  V30 2419 H 232.605 5.08682 -3.18375 0
M  V30 2420 H 233.675 3.6734 -3.16528 0
M  V30 2421 N 235.018 0.912232 1.28515 0
M  V30 2422 C 235.928 0.404506 2.31086 0
M  V30 2423 C 236.944 -0.50707 1.66448 0
M  V30 2424 O 238.12 -0.393624 1.97516 0
M  V30 2425 C 235.185 -0.348572 3.44943 0
M  V30 2426 C 234.246 0.59604 4.25142 0
M  V30 2427 C 233.479 -0.121194 5.33562 0
M  V30 2428 O 233.702 -1.34317 5.5436 0
M  V30 2429 O 232.636 0.542716 5.99448 0
M  V30 2430 H 236.462 1.25579 2.76521 0
M  V30 2431 H 234.047 0.676998 1.33181 0
M  V30 2432 H 235.929 -0.77395 4.14232 0
M  V30 2433 H 234.604 -1.17571 3.01594 0
M  V30 2434 H 233.511 1.07079 3.58448 0
M  V30 2435 H 234.844 1.38995 4.72167 0
M  V30 2436 N 236.496 -1.42363 0.676048 0
M  V30 2437 C 237.912 -1.55811 0.345718 0
M  V30 2438 C 238.112 -1.65544 -1.14879 0
M  V30 2439 O 237.168 -1.62306 -1.93424 0
M  V30 2440 C 238.481 -2.80746 1.07713 0
M  V30 2441 C 240.029 -2.9452 1.05958 0
M  V30 2442 C 240.504 -4.22318 1.77233 0
M  V30 2443 N 241.995 -4.29233 1.74108 0
M  V30 2444 C 242.73 -5.26935 2.26113 0
M  V30 2445 N 242.226 -6.30783 2.86505 0
M  V30 2446 N 244.019 -5.18741 2.1648 0
M  V30 2447 H 236.17 -1.34289 1.6456 0
M  V30 2448 H 238.433 -0.646506 0.69335 0
M  V30 2449 H 238.139 -2.79696 2.13221 0
M  V30 2450 H 238.013 -3.71676 0.64316 0
M  V30 2451 H 240.4 -2.95097 0.0128255 0
M  V30 2452 H 240.481 -2.04817 1.53244 0
M  V30 2453 H 240.125 -4.22502 2.81877 0
M  V30 2454 H 240.055 -5.10958 1.27396 0
M  V30 2455 H 242.546 -3.54814 1.30059 0
M  V30 2456 H 242.859 -7.01691 3.23805 0
M  V30 2457 H 241.204 -6.31341 2.90575 0
M  V30 2458 H 244.395 -4.36533 1.68987 0
M  V30 2459 H 244.568 -5.94721 2.57316 0
M  V30 2460 N 237.974 -0.419461 -1.51915 0
M  V30 2461 C 239.22 0.153166 -2.02221 0
M  V30 2462 C 239.553 1.43907 -1.30401 0
M  V30 2463 O 238.828 1.90055 -0.413438 0
M  V30 2464 C 239.111 0.390291 -3.57979 0
M  V30 2465 C 238.964 -0.913014 -4.40436 0
M  V30 2466 C 240.283 1.16794 -4.2432 0
M  V30 2467 H 237.402 0.0541924 -0.735005 0
M  V30 2468 H 240.044 -0.554955 -1.81715 0
M  V30 2469 H 238.194 0.993491 -3.75582 0
M  V30 2470 H 239.866 -1.54882 -4.34522 0
M  V30 2471 H 238.109 -1.52168 -4.06236 0
M  V30 2472 H 238.78 -0.701361 -5.47526 0
M  V30 2473 H 241.256 0.657161 -4.10878 0
M  V30 2474 H 240.132 1.3026 -5.3322 0
M  V30 2475 H 240.393 2.19132 -3.83971 0
M  V30 2476 N 239.452 1.56882 -0.150215 0
M  V30 2477 C 240.362 2.20494 0.801222 0
M  V30 2478 C 241.378 1.19019 1.26927 0
M  V30 2479 O 242.554 1.51607 1.32579 0
M  V30 2480 C 239.619 2.81659 2.02161 0
M  V30 2481 C 238.68 3.9827 1.60249 0
M  V30 2482 C 237.913 4.56508 2.7647 0
M  V30 2483 O 238.136 4.13627 3.92771 0
M  V30 2484 O 237.07 5.46719 2.51757 0
M  V30 2485 H 240.896 3.02315 0.289717 0
M  V30 2486 H 238.481 1.49202 0.0769684 0
M  V30 2487 H 240.363 3.20522 2.73576 0
M  V30 2488 H 239.038 2.02849 2.52258 0
M  V30 2489 H 237.945 3.64117 0.858477 0
M  V30 2490 H 239.278 4.78609 1.14864 0
M  V30 2491 N 240.93 -0.123565 1.57115 0
M  V30 2492 C 242.16 -0.845233 1.88519 0
M  V30 2493 C 242.568 -1.74168 0.739064 0
M  V30 2494 O 241.911 -1.81244 -0.299355 0
M  V30 2495 C 241.973 -1.73452 3.14888 0
M  V30 2496 C 241.637 -1.01285 4.45635 0
M  V30 2497 C 242.634 -0.355774 5.18681 0
M  V30 2498 C 240.319 -0.99538 4.92339 0
M  V30 2499 C 242.313 0.309114 6.3665 0
M  V30 2500 C 240 -0.32669 6.10226 0
M  V30 2501 C 240.998 0.324406 6.82229 0
M  V30 2502 O 240.686 0.982437 7.97874 0
M  V30 2503 H 240.418 -0.248534 0.628655 0
M  V30 2504 H 242.972 -0.113907 2.05084 0
M  V30 2505 H 241.202 -2.50737 2.94394 0
M  V30 2506 H 242.891 -2.33021 3.32349 0
M  V30 2507 H 243.657 -0.360918 4.83655 0
M  V30 2508 H 239.536 -1.49159 4.36202 0
M  V30 2509 H 243.08 0.8179 6.92789 0
M  V30 2510 H 238.977 -0.319294 6.4471 0
M  V30 2511 H 239.745 0.886454 8.13686 0
M  V30 2512 N 242.408 -1.52605 -0.393616 0
M  V30 2513 C 243.338 -1.80022 -1.48709 0
M  V30 2514 C 244.319 -0.651995 -1.57108 0
M  V30 2515 O 245.504 -0.89913 -1.72132 0
M  V30 2516 C 242.634 -1.96492 -2.86371 0
M  V30 2517 C 241.588 -3.12161 -2.92813 0
M  V30 2518 C 240.914 -3.13877 -4.3288 0
M  V30 2519 C 242.214 -4.51322 -2.6288 0
M  V30 2520 H 243.908 -2.71589 -1.26015 0
M  V30 2521 H 241.454 -1.30684 -0.604778 0
M  V30 2522 H 243.407 -2.14255 -3.62867 0
M  V30 2523 H 242.131 -1.01611 -3.10391 0
M  V30 2524 H 240.79 -2.94173 -2.18764 0
M  V30 2525 H 240.438 -2.16687 -4.53933 0
M  V30 2526 H 240.138 -3.91576 -4.38112 0
M  V30 2527 H 241.662 -3.33789 -5.1129 0
M  V30 2528 H 243.076 -4.69435 -3.29096 0
M  V30 2529 H 241.473 -5.31053 -2.79468 0
M  V30 2530 H 242.543 -4.58353 -1.58242 0
M  V30 2531 N 243.887 0.651787 -1.4349 0
M  V30 2532 C 245.134 1.41167 -1.45183 0
M  V30 2533 C 245.462 1.94349 -0.0766601 0
M  V30 2534 O 244.717 1.72804 0.918555 0
M  V30 2535 C 245.016 2.60914 -2.44251 0
M  V30 2536 C 244.682 2.26142 -3.9009 0
M  V30 2537 C 243.344 2.16371 -4.2981 0
M  V30 2538 C 245.696 1.98334 -4.81989 0
M  V30 2539 C 243.024 1.7695 -5.5938 0
M  V30 2540 C 245.376 1.6041 -6.11924 0
M  V30 2541 C 244.04 1.49166 -6.5062 0
M  V30 2542 H 243.31 0.516566 -0.531263 0
M  V30 2543 H 245.957 0.741099 -1.76579 0
M  V30 2544 H 244.262 3.3311 -2.06265 0
M  V30 2545 H 245.959 3.19127 -2.42815 0
M  V30 2546 H 242.549 2.34658 -3.58655 0
M  V30 2547 H 246.733 2.04803 -4.52072 0
M  V30 2548 H 241.989 1.66831 -5.88198 0
M  V30 2549 H 246.163 1.37925 -6.82605 0
M  V30 2550 H 243.79 1.1839 -7.50925 0
M  V30 2551 N 245.365 1.30045 0.890287 0
M  V30 2552 C 246.295 1.18541 2.01172 0
M  V30 2553 C 247.276 0.0773356 1.69924 0
M  V30 2554 O 248.461 0.25845 1.92473 0
M  V30 2555 C 245.591 0.870941 3.36202 0
M  V30 2556 C 244.545 1.93637 3.81692 0
M  V30 2557 C 243.871 1.475 5.13953 0
M  V30 2558 C 245.171 3.34666 4.00994 0
M  V30 2559 H 246.865 2.12359 2.11054 0
M  V30 2560 H 244.411 1.02238 1.01407 0
M  V30 2561 H 246.364 0.777141 4.14172 0
M  V30 2562 H 245.088 -0.102926 3.26438 0
M  V30 2563 H 243.747 2.01972 3.05946 0
M  V30 2564 H 243.395 0.489551 5.00612 0
M  V30 2565 H 243.095 2.1876 5.4536 0
M  V30 2566 H 244.619 1.39489 5.94454 0
M  V30 2567 H 246.033 3.2912 4.69417 0
M  V30 2568 H 244.43 4.03966 4.43769 0
M  V30 2569 H 245.5 3.76949 3.05021 0
M  V30 2570 N 246.843 -1.10192 1.12674 0
M  V30 2571 C 248.092 -1.81573 0.8783 0
M  V30 2572 C 248.405 -1.86249 -0.597557 0
M  V30 2573 O 249.611 -2.5386 -0.962681 0
M  V30 2574 C 248.067 -3.26149 1.52167 0
M  V30 2575 C 247.675 -3.29763 3.03249 0
M  V30 2576 C 249.419 -4.0234 1.3536 0
M  V30 2577 C 247.326 -4.68815 3.60508 0
M  V30 2578 H 246.256 -0.680394 0.324931 0
M  V30 2579 H 248.907 -1.23902 1.35353 0
M  V30 2580 H 247.289 -3.83832 0.974104 0
M  V30 2581 H 248.463 -2.8189 3.6452 0
M  V30 2582 H 246.778 -2.67059 3.19481 0
M  V30 2583 H 249.375 -5.05058 1.75559 0
M  V30 2584 H 249.718 -4.15235 0.297554 0
M  V30 2585 H 250.251 -3.51079 1.87052 0
M  V30 2586 H 246.99 -4.61121 4.65884 0
M  V30 2587 H 246.51 -5.17045 3.04014 0
M  V30 2588 H 248.189 -5.37785 3.59717 0
M  V30 2589 N 248.321 -0.919034 -1.28029 0
M  V30 2590 C 249.57 -0.550802 -1.94034 0
M  V30 2591 C 249.883 0.910877 -1.73096 0
M  V30 2592 O 251.089 1.3875 -2.33368 0
M  V30 2593 C 249.545 -0.934249 -3.47563 0
M  V30 2594 C 249.153 -2.41602 -3.7727 0
M  V30 2595 C 250.897 -0.636854 -4.19696 0
M  V30 2596 C 248.804 -2.73932 -5.24133 0
M  V30 2597 H 247.734 -0.202273 -0.726362 0
M  V30 2598 H 250.385 -1.11867 -1.45458 0
M  V30 2599 H 248.767 -0.295115 -3.94899 0
M  V30 2600 H 249.941 -3.10233 -3.40723 0
M  V30 2601 H 248.256 -2.68441 -3.18321 0
M  V30 2602 H 250.853 -0.855005 -5.2782 0
M  V30 2603 H 251.196 0.425575 -4.14119 0
M  V30 2604 H 251.729 -1.23469 -3.78154 0
M  V30 2605 H 248.468 -3.79049 -5.34792 0
M  V30 2606 H 247.988 -2.09942 -5.61858 0
M  V30 2607 H 249.667 -2.61215 -5.91925 0
M  V30 2608 N 249.799 1.42003 -0.683588 0
M  V30 2609 C 251.046 2.01413 -0.209514 0
M  V30 2610 C 251.374 1.54088 1.1869 0
M  V30 2611 O 250.629 0.737591 1.81268 0
M  V30 2612 C 250.928 3.56827 -0.202357 0
M  V30 2613 C 250.594 4.23617 -1.54464 0
M  V30 2614 C 249.256 4.41577 -1.91215 0
M  V30 2615 C 251.608 4.61178 -2.42826 0
M  V30 2616 C 248.936 4.9437 -3.15935 0
M  V30 2617 C 251.288 5.15355 -3.66867 0
M  V30 2618 C 249.952 5.31528 -4.03776 0
M  V30 2619 H 249.222 0.737023 -0.0766668 0
M  V30 2620 H 251.869 1.70067 -0.880312 0
M  V30 2621 H 250.174 3.87892 0.551969 0
M  V30 2622 H 251.871 4.00588 0.181793 0
M  V30 2623 H 248.461 4.10004 -1.24877 0
M  V30 2624 H 252.645 4.46968 -2.15717 0
M  V30 2625 H 247.901 5.05076 -3.44541 0
M  V30 2626 H 252.075 5.43402 -4.35531 0
M  V30 2627 H 249.702 5.72199 -5.00492 0
M  V30 2628 N 251.277 0.427512 1.51691 0
M  V30 2629 C 252.505 -0.141191 2.06418 0
M  V30 2630 C 252.92 -1.37303 1.29589 0
M  V30 2631 O 252.277 -1.79059 0.352732 0
M  V30 2632 C 252.328 -0.473266 3.58389 0
M  V30 2633 O 252.049 0.709673 4.32314 0
M  V30 2634 C 253.55 -1.09371 4.29596 0
M  V30 2635 H 250.77 -0.0122747 0.670888 0
M  V30 2636 H 253.314 0.603764 1.95384 0
M  V30 2637 H 251.469 -1.16812 3.69369 0
M  V30 2638 H 251.883 0.42807 5.2275 0
M  V30 2639 H 253.357 -1.27613 5.37046 0
M  V30 2640 H 253.834 -2.072 3.87253 0
M  V30 2641 H 254.44 -0.43853 4.23033 0
M  V30 2642 N 252.755 -1.56801 0.158532 0
M  V30 2643 C 254.001 -1.96781 -0.490405 0
M  V30 2644 C 254.334 -1.04397 -1.63753 0
M  V30 2645 O 253.609 -0.0885805 -1.94298 0
M  V30 2646 C 253.892 -3.4635 -0.985594 0
M  V30 2647 C 253.745 -4.49512 0.160824 0
M  V30 2648 C 255.064 -3.98697 -1.86355 0
M  V30 2649 H 252.183 -0.715482 -0.176788 0
M  V30 2650 H 254.825 -1.88451 0.242088 0
M  V30 2651 H 252.975 -3.53579 -1.60978 0
M  V30 2652 H 254.647 -4.54353 0.797537 0
M  V30 2653 H 252.89 -4.26013 0.818256 0
M  V30 2654 H 253.561 -5.51531 -0.227569 0
M  V30 2655 H 256.037 -3.94019 -1.33746 0
M  V30 2656 H 254.913 -5.03792 -2.17909 0
M  V30 2657 H 255.174 -3.41744 -2.8047 0
M  V30 2658 N 254.233 0.115231 -1.57178 0
M  V30 2659 C 255.143 1.15994 -2.03918 0
M  V30 2660 C 256.159 1.45103 -0.960268 0
M  V30 2661 O 257.335 1.56144 -1.27204 0
M  V30 2662 C 254.4 2.46568 -2.43732 0
M  V30 2663 C 253.461 2.24822 -3.65723 0
M  V30 2664 C 252.694 3.4917 -4.03629 0
M  V30 2665 O 252.917 4.56623 -3.41835 0
M  V30 2666 O 251.851 3.39949 -4.96708 0
M  V30 2667 H 255.677 0.793019 -2.93164 0
M  V30 2668 H 253.262 0.3263 -1.45793 0
M  V30 2669 H 255.144 3.23492 -2.70057 0
M  V30 2670 H 253.819 2.82726 -1.57631 0
M  V30 2671 H 252.726 1.45744 -3.44542 0
M  V30 2672 H 254.059 1.93566 -4.52541 0
M  V30 2673 N 255.711 1.52812 0.385517 0
M  V30 2674 C 256.674 1.77188 1.45386 0
M  V30 2675 C 257.674 0.641953 1.4743 0
M  V30 2676 O 258.864 0.910033 1.4854 0
M  V30 2677 C 255.996 1.87582 2.8465 0
M  V30 2678 H 257.189 2.72583 1.25054 0
M  V30 2679 H 254.742 1.43586 0.617467 0
M  V30 2680 H 255.477 0.941849 3.10322 0
M  V30 2681 H 255.262 2.69748 2.84567 0
M  V30 2682 H 256.752 2.08102 3.62054 0
M  V30 2683 N 257.189 -0.644168 1.43834 0
M  V30 2684 C 258.436 -1.40395 1.4593 0
M  V30 2685 C 258.764 -1.94305 0.0869658 0
M  V30 2686 O 258.019 -1.73288 -0.909378 0
M  V30 2687 C 258.318 -2.59615 2.45631 0
M  V30 2688 C 257.984 -2.2407 3.91284 0
M  V30 2689 C 256.646 -2.14089 4.30952 0
M  V30 2690 C 258.998 -1.95775 4.83034 0
M  V30 2691 C 256.326 -1.73981 5.6031 0
M  V30 2692 C 258.678 -1.57163 6.12766 0
M  V30 2693 C 257.342 -1.45713 6.51402 0
M  V30 2694 H 256.612 -0.513741 0.533995 0
M  V30 2695 H 259.259 -0.731724 1.76969 0
M  V30 2696 H 257.564 -3.32011 2.08028 0
M  V30 2697 H 259.261 -3.17834 2.44504 0
M  V30 2698 H 255.851 -2.32753 3.59895 0
M  V30 2699 H 260.035 -2.02403 4.53152 0
M  V30 2700 H 255.291 -1.63709 5.89075 0
M  V30 2701 H 259.465 -1.34303 6.83327 0
M  V30 2702 H 257.092 -1.14406 7.51542 0
M  V30 2703 N 258.668 -1.30515 -0.883378 0
M  V30 2704 C 259.598 -1.19607 -2.00541 0
M  V30 2705 C 260.579 -0.086346 -1.69881 0
M  V30 2706 O 261.764 -0.268654 -1.92333 0
M  V30 2707 C 258.894 -0.888758 -3.35736 0
M  V30 2708 C 257.848 -1.95659 -3.8066 0
M  V30 2709 C 257.174 -1.50224 -5.13164 0
M  V30 2710 C 258.474 -3.36788 -3.99213 0
M  V30 2711 H 260.168 -2.13476 -2.09925 0
M  V30 2712 H 257.714 -1.02775 -1.00863 0
M  V30 2713 H 259.667 -0.799094 -4.13754 0
M  V30 2714 H 258.391 0.0856125 -3.26488 0
M  V30 2715 H 257.05 -2.03591 -3.04871 0
M  V30 2716 H 256.698 -0.516092 -5.00345 0
M  V30 2717 H 256.398 -2.2165 -5.44192 0
M  V30 2718 H 257.922 -1.42639 -5.93706 0
M  V30 2719 H 259.336 -3.31605 -4.67665 0
M  V30 2720 H 257.733 -4.06314 -4.41621 0
M  V30 2721 H 258.803 -3.78561 -3.03017 0
M  V30 2722 N 260.146 1.09593 -1.13257 0
M  V30 2723 C 261.093 2.1618 -0.808381 0
M  V30 2724 C 262.063 1.64517 0.228754 0
M  V30 2725 O 263.248 1.9053 0.101381 0
M  V30 2726 C 260.388 3.43973 -0.278675 0
M  V30 2727 C 259.501 4.09545 -1.37466 0
M  V30 2728 C 258.636 5.25088 -0.803479 0
M  V30 2729 C 257.675 5.82579 -1.87799 0
M  V30 2730 N 256.812 6.89486 -1.32488 0
M  V30 2731 H 261.652 2.43254 -1.72138 0
M  V30 2732 H 259.189 1.19392 -0.859294 0
M  V30 2733 H 261.147 4.17174 0.0465583 0
M  V30 2734 H 259.777 3.17223 0.597459 0
M  V30 2735 H 258.829 3.34226 -1.81652 0
M  V30 2736 H 260.141 4.48307 -2.18684 0
M  V30 2737 H 259.295 6.05178 -0.429427 0
M  V30 2738 H 258.034 4.87684 0.0397956 0
M  V30 2739 H 257.039 5.01152 -2.26113 0
M  V30 2740 H 258.264 6.22045 -2.72463 0
M  V30 2741 H 256.21 6.54064 -0.503575 0
M  V30 2742 H 256.127 7.27007 -2.07355 0
M  V30 2743 H 257.395 7.73336 -0.978336 0
M  V30 2744 N 261.624 0.925811 1.2754 0
M  V30 2745 C 262.87 0.566092 1.94739 0
M  V30 2746 C 263.203 -0.890057 1.72603 0
M  V30 2747 O 262.478 -1.63467 1.05399 0
M  V30 2748 C 262.761 0.89054 3.48915 0
M  V30 2749 C 262.614 2.4003 3.80402 0
M  V30 2750 C 263.933 0.395101 4.38323 0
M  V30 2751 H 261.052 0.20714 0.707292 0
M  V30 2752 H 263.694 1.15725 1.50691 0
M  V30 2753 H 261.844 0.387452 3.86563 0
M  V30 2754 H 263.516 2.97494 3.52555 0
M  V30 2755 H 261.759 2.85028 3.2702 0
M  V30 2756 H 262.43 2.57785 4.8811 0
M  V30 2757 H 264.906 0.826241 4.07814 0
M  V30 2758 H 263.782 0.651086 5.45025 0
M  V30 2759 H 264.043 -0.704798 4.36446 0
M  V30 2760 N 263.102 -1.41638 0.69111 0
M  V30 2761 C 264.351 -2.00526 0.217318 0
M  V30 2762 C 264.664 -1.55353 -1.18848 0
M  V30 2763 O 265.87 -2.06769 -1.75951 0
M  V30 2764 C 264.326 -3.58313 0.337639 0
M  V30 2765 C 263.934 -4.12469 1.74852 0
M  V30 2766 C 265.678 -4.24431 -0.0766066 0
M  V30 2767 C 263.585 -5.62675 1.82074 0
M  V30 2768 H 262.515 -0.750008 0.0774893 0
M  V30 2769 H 265.166 -1.6217 0.858661 0
M  V30 2770 H 263.548 -3.9425 -0.371879 0
M  V30 2771 H 264.722 -3.8796 2.48644 0
M  V30 2772 H 263.037 -3.58861 2.11205 0
M  V30 2773 H 265.634 -5.34683 -0.0430284 0
M  V30 2774 H 265.977 -4.01101 -1.1146 0
M  V30 2775 H 266.51 -3.93512 0.582476 0
M  V30 2776 H 263.249 -5.90826 2.83911 0
M  V30 2777 H 262.769 -5.89124 1.12661 0
M  V30 2778 H 264.448 -6.27371 1.58159 0
M  V30 2779 N 264.58 -0.43555 -1.51462 0
M  V30 2780 C 265.543 0.365137 -2.26273 0
M  V30 2781 C 266.543 0.951227 -1.29647 0
M  V30 2782 O 267.733 0.825958 -1.53374 0
M  V30 2783 C 264.865 1.51645 -3.05314 0
M  V30 2784 H 266.058 -0.290474 -2.9849 0
M  V30 2785 H 263.611 -0.188676 -1.55157 0
M  V30 2786 H 264.346 2.20816 -2.3751 0
M  V30 2787 H 264.131 1.10238 -3.76284 0
M  V30 2788 H 265.621 2.08218 -3.61987 0
M  V30 2789 N 266.058 1.56714 -0.166846 0
M  V30 2790 C 267.288 2.00828 0.48494 0
M  V30 2791 C 267.696 1.04612 1.57648 0
M  V30 2792 O 267.039 0.0383201 1.8366 0
M  V30 2793 C 267.101 3.4137 1.12723 0
M  V30 2794 C 266.765 4.56654 0.177886 0
M  V30 2795 C 267.762 5.16402 -0.60207 0
M  V30 2796 C 265.447 5.02244 0.0750139 0
M  V30 2797 C 267.441 6.20167 -1.47215 0
M  V30 2798 C 265.128 6.05859 -0.798649 0
M  V30 2799 C 266.126 6.64691 -1.57082 0
M  V30 2800 O 265.814 7.66297 -2.42989 0
M  V30 2801 H 265.546 0.663587 0.128953 0
M  V30 2802 H 268.1 2.03692 -0.264365 0
M  V30 2803 H 266.33 3.35406 1.92457 0
M  V30 2804 H 268.019 3.69466 1.68076 0
M  V30 2805 H 268.785 4.82065 -0.53274 0
M  V30 2806 H 264.664 4.56167 0.665812 0
M  V30 2807 H 268.208 6.66016 -2.07531 0
M  V30 2808 H 264.105 6.39621 -0.869199 0
M  V30 2809 H 264.873 7.83601 -2.36455 0
M  V30 2810 N 267.536 -0.106894 1.57237 0
M  V30 2811 C 268.784 -0.810921 1.85117 0
M  V30 2812 C 269.105 -1.7984 0.753827 0
M  V30 2813 O 268.375 -1.94649 -0.221056 0
M  V30 2814 H 266.955 -0.302466 0.683025 0
M  V30 2815 H 269.617 -0.0913324 1.94686 0
M  V30 2816 H 268.713 -1.34875 2.81452 0
M  V30 2817 N 269.014 -1.53014 -0.377408 0
M  V30 2818 C 269.944 -1.81589 -1.46791 0
M  V30 2819 C 270.925 -0.668622 -1.56408 0
M  V30 2820 O 272.11 -0.917337 -1.71168 0
M  V30 2821 C 269.24 -1.99519 -2.8427 0
M  V30 2822 C 268.194 -3.15249 -2.89486 0
M  V30 2823 C 267.52 -3.18451 -4.29527 0
M  V30 2824 C 268.82 -4.54084 -2.58079 0
M  V30 2825 H 270.514 -2.7291 -1.23127 0
M  V30 2826 H 268.06 -1.31319 -0.590883 0
M  V30 2827 H 270.013 -2.18092 -3.60575 0
M  V30 2828 H 268.737 -1.04897 -3.09296 0
M  V30 2829 H 267.396 -2.96477 -2.15631 0
M  V30 2830 H 267.044 -2.2149 -4.5161 0
M  V30 2831 H 266.744 -3.962 -4.33934 0
M  V30 2832 H 268.268 -3.39193 -5.07721 0
M  V30 2833 H 269.682 -4.72899 -3.24098 0
M  V30 2834 H 268.079 -5.33987 -2.7382 0
M  V30 2835 H 269.149 -4.60006 -1.53372 0
M  V30 2836 N 270.492 0.636531 -1.44174 0
M  V30 2837 C 271.422 1.76003 -1.53444 0
M  V30 2838 C 272.403 1.65619 -0.387841 0
M  V30 2839 O 273.588 1.84461 -0.607257 0
M  V30 2840 C 270.718 3.14511 -1.4731 0
M  V30 2841 C 269.672 3.39677 -2.60391 0
M  V30 2842 C 268.998 4.78159 -2.39308 0
M  V30 2843 C 270.298 3.32772 -4.02567 0
M  V30 2844 H 271.992 1.68501 -2.47483 0
M  V30 2845 H 269.538 0.809237 -1.19111 0
M  V30 2846 H 271.491 3.92878 -1.52397 0
M  V30 2847 H 270.215 3.22783 -0.49785 0
M  V30 2848 H 268.874 2.63688 -2.54684 0
M  V30 2849 H 268.522 4.83128 -1.39988 0
M  V30 2850 H 268.222 4.95956 -3.15122 0
M  V30 2851 H 269.746 5.58762 -2.46205 0
M  V30 2852 H 271.16 4.01051 -4.09672 0
M  V30 2853 H 269.557 3.62104 -4.7854 0
M  V30 2854 H 270.627 2.30669 -4.2652 0
M  V30 2855 N 271.97 1.30982 0.876444 0
M  V30 2856 C 273.217 1.20296 1.62896 0
M  V30 2857 C 273.545 -0.240395 1.93009 0
M  V30 2858 O 272.8 -1.18733 1.55567 0
M  V30 2859 C 273.099 1.98572 2.9716 0
M  V30 2860 C 272.765 3.48125 2.86566 0
M  V30 2861 C 271.427 3.88905 2.83383 0
M  V30 2862 C 273.779 4.43322 2.74071 0
M  V30 2863 C 271.107 5.2316 2.65556 0
M  V30 2864 C 273.459 5.77695 2.57781 0
M  V30 2865 C 272.123 6.17704 2.52979 0
M  V30 2866 H 271.393 0.440193 0.59608 0
M  V30 2867 H 274.04 1.62177 1.01837 0
M  V30 2868 H 272.345 1.49352 3.62217 0
M  V30 2869 H 274.042 1.8769 3.54364 0
M  V30 2870 H 270.632 3.15723 2.89856 0
M  V30 2871 H 274.816 4.12752 2.75589 0
M  V30 2872 H 270.072 5.53241 2.60259 0
M  V30 2873 H 274.246 6.51091 2.47089 0
M  V30 2874 H 271.873 7.21678 2.38924 0
M  V30 2875 N 273.449 -1.08991 1.13837 0
M  V30 2876 C 274.399 -2.1393 0.788535 0
M  V30 2877 C 275.383 -1.59396 -0.219516 0
M  V30 2878 O 276.575 -1.76985 -0.0227557 0
M  V30 2879 C 273.704 -3.42305 0.261147 0
M  V30 2880 C 272.79 -4.03736 1.29837 0
M  V30 2881 N 273.181 -4.39659 2.50067 0
M  V30 2882 C 271.479 -4.30993 1.1472 0
M  V30 2883 C 272.18 -4.88113 3.16419 0
M  V30 2884 N 271.156 -4.85846 2.43832 0
M  V30 2885 H 274.958 -2.39516 1.70322 0
M  V30 2886 H 272.472 -1.26263 1.02134 0
M  V30 2887 H 274.469 -4.16899 -0.0077405 0
M  V30 2888 H 273.129 -3.18172 -0.647805 0
M  V30 2889 H 274.14 -4.30878 2.8734 0
M  V30 2890 H 270.817 -4.16444 0.296773 0
M  V30 2891 H 272.207 -5.25336 4.18894 0
M  V30 2892 N 274.927 -0.932562 -1.27047 0
M  V30 2893 C 276.338 -0.619451 -1.76124 0
M  V30 2894 C 276.689 0.865397 -1.76083 0
M  V30 2895 O 275.814 1.67722 -1.36742 0
M  V30 2896 C 276.409 -1.11771 -3.19832 0
M  V30 2897 C 274.968 -0.855174 -3.66557 0
M  V30 2898 C 274.115 -1.27362 -2.46321 0
M  V30 2899 H 277.066 -1.11181 -1.13245 0
M  V30 2900 H 277.087 -0.46759 -3.77616 0
M  V30 2901 H 276.599 -2.19842 -3.1983 0
M  V30 2902 H 274.7 0.211524 -3.71999 0
M  V30 2903 H 274.813 -1.47613 -4.55793 0
M  V30 2904 H 273.177 -0.692119 -2.45116 0
M  V30 2905 H 273.96 -2.36307 -2.49025 0
M  V30 2906 N 276.405 1.4127 -0.698611 0
M  V30 2907 C 277.353 2.32588 -0.023855 0
M  V30 2908 C 278.347 1.51128 0.765292 0
M  V30 2909 O 279.553 1.67043 0.670571 0
M  V30 2910 H 275.928 0.751918 0.0110871 0
M  V30 2911 H 277.899 2.87167 -0.811031 0
M  V30 2912 C 276.648 3.35947 0.896369 0
M  V30 2913 H 275.971 3.98684 0.298548 0
M  V30 2914 H 277.411 4.02376 1.33676 0
M  V30 2915 C 275.87 2.70076 2.01396 0
M  V30 2916 O 276.4 2.55093 3.10307 0
M  V30 2917 N 274.606 2.28724 1.79259 0
M  V30 2918 H 274.153 2.4111 0.906841 0
M  V30 2919 H 274.111 1.84986 2.54219 0
M  V30 2920 N 277.883 0.443576 1.51229 0
M  V30 2921 C 278.846 -0.353132 2.26463 0
M  V30 2922 C 279.846 -0.944338 1.3015 0
M  V30 2923 O 281.036 -0.817813 1.5381 0
M  V30 2924 C 278.168 -1.50023 3.06114 0
M  V30 2925 H 279.361 0.3063 2.98332 0
M  V30 2926 H 276.914 0.196902 1.55055 0
M  V30 2927 H 277.649 -2.19553 2.38677 0
M  V30 2928 H 277.434 -1.08241 3.76864 0
M  V30 2929 H 278.924 -2.06296 3.63087 0
M  V30 2930 N 279.361 -1.56624 0.175154 0
M  V30 2931 C 280.591 -2.01082 -0.474283 0
M  V30 2932 C 280.999 -1.05447 -1.57091 0
M  V30 2933 O 280.342 -0.0480595 -1.83637 0
M  V30 2934 C 280.404 -3.41963 -1.10911 0
M  V30 2935 C 280.068 -4.56742 -0.153666 0
M  V30 2936 C 281.065 -5.16076 0.629448 0
M  V30 2937 C 278.75 -5.02277 -0.0483776 0
M  V30 2938 C 280.744 -6.19377 1.50501 0
M  V30 2939 C 278.431 -6.05427 0.830768 0
M  V30 2940 C 279.429 -6.63849 1.60605 0
M  V30 2941 O 279.117 -7.64998 2.47049 0
M  V30 2942 H 278.849 -0.664261 -0.125432 0
M  V30 2943 H 281.403 -2.03549 0.275163 0
M  V30 2944 H 279.633 -3.36422 -1.90676 0
M  V30 2945 H 281.322 -3.70352 -1.66114 0
M  V30 2946 H 282.088 -4.81776 0.558297 0
M  V30 2947 H 277.967 -4.56513 -0.641611 0
M  V30 2948 H 281.511 -6.64906 2.1106 0
M  V30 2949 H 277.408 -6.39151 0.903107 0
M  V30 2950 H 278.176 -7.82336 2.40607 0
M  V30 2951 N 280.839 0.0985539 -1.57292 0
M  V30 2952 C 281.769 1.12064 -2.04851 0
M  V30 2953 C 282.75 1.41981 -0.936767 0
M  V30 2954 O 283.935 1.52071 -1.20781 0
M  V30 2955 C 281.065 2.44144 -2.47004 0
M  V30 2956 C 280.019 2.28643 -3.6181 0
M  V30 2957 C 279.345 3.65869 -3.89929 0
M  V30 2958 C 280.645 1.72986 -4.92822 0
M  V30 2959 H 282.339 0.724979 -2.9049 0
M  V30 2960 H 279.885 0.34729 -1.39749 0
M  V30 2961 H 281.838 3.15914 -2.78884 0
M  V30 2962 H 280.562 2.85639 -1.5836 0
M  V30 2963 H 279.221 1.59318 -3.30172 0
M  V30 2964 H 278.869 4.04885 -2.98458 0
M  V30 2965 H 278.569 3.56344 -4.67218 0
M  V30 2966 H 280.093 4.39112 -4.2428 0
M  V30 2967 H 281.507 2.34593 -5.23105 0
M  V30 2968 H 279.904 1.74229 -5.74251 0
M  V30 2969 H 280.974 0.689007 -4.7998 0
M  V30 2970 N 282.317 1.53212 0.369288 0
M  V30 2971 C 283.733 1.42902 0.710712 0
M  V30 2972 C 283.933 0.565135 1.93413 0
M  V30 2973 O 282.989 0.0461484 2.52458 0
M  V30 2974 C 284.302 2.86042 0.927382 0
M  V30 2975 C 285.85 2.9565 1.02762 0
M  V30 2976 C 286.325 4.39843 1.27679 0
M  V30 2977 N 287.816 4.43256 1.34457 0
M  V30 2978 C 288.551 5.51929 1.55439 0
M  V30 2979 N 288.047 6.70655 1.73762 0
M  V30 2980 N 289.84 5.39502 1.57779 0
M  V30 2981 H 281.991 2.07888 -0.435457 0
M  V30 2982 H 284.254 0.938661 -0.132739 0
M  V30 2983 H 283.96 3.51557 0.100287 0
M  V30 2984 H 283.834 3.29472 1.83653 0
M  V30 2985 H 286.221 2.30291 1.84527 0
M  V30 2986 H 286.302 2.5562 0.0959504 0
M  V30 2987 H 285.946 5.05774 0.464175 0
M  V30 2988 H 285.876 4.77443 2.22162 0
M  V30 2989 H 288.367 3.5769 1.21926 0
M  V30 2990 H 288.68 7.49248 1.89335 0
M  V30 2991 H 287.025 6.73648 1.70948 0
M  V30 2992 H 290.216 4.45713 1.43029 0
M  V30 2993 H 290.389 6.2426 1.7379 0
M  V30 2994 N 283.795 -0.628877 1.44509 0
M  V30 2995 C 284.743 -1.76193 1.51852 0
M  V30 2996 C 285.737 -1.64849 0.390042 0
M  V30 2997 O 286.943 -1.709 0.565082 0
M  V30 2998 H 283.318 -0.581728 0.476547 0
M  V30 2999 H 285.289 -1.67123 2.47209 0
M  V30 3000 C 284.038 -3.14533 1.48204 0
M  V30 3001 H 283.361 -3.23911 2.34354 0
M  V30 3002 H 284.801 -3.93701 1.57402 0
M  V30 3003 C 283.26 -3.36287 0.203142 0
M  V30 3004 O 283.79 -3.9509 -0.725745 0
M  V30 3005 N 281.996 -2.90408 0.105563 0
M  V30 3006 H 281.543 -2.42739 0.862301 0
M  V30 3007 H 281.501 -3.05339 -0.749371 0
M  V30 3008 N 285.273 -1.31445 -0.869486 0
M  V30 3009 C 286.521 -1.20918 -1.61936 0
M  V30 3010 C 286.842 0.232683 -1.93607 0
M  V30 3011 O 286.112 1.15352 -1.58338 0
M  V30 3012 H 284.692 -0.44454 -0.600328 0
M  V30 3013 H 287.354 -1.64776 -1.0409 0
M  V30 3014 H 286.45 -1.78124 -2.56278 0
M  V30 3015 N 286.751 1.08385 -1.14413 0
M  V30 3016 C 287.997 1.81212 -0.923793 0
M  V30 3017 C 288.352 1.84555 0.543814 0
M  V30 3018 O 287.645 1.31056 1.39767 0
M  V30 3019 C 287.839 3.26273 -1.45879 0
M  V30 3020 C 287.668 3.37063 -2.97689 0
M  V30 3021 C 286.438 3.4824 -3.66138 0
M  V30 3022 C 288.636 3.28698 -3.95553 0
M  V30 3023 N 286.618 3.47824 -5.05858 0
M  V30 3024 C 287.989 3.35276 -5.21527 0
M  V30 3025 C 290.044 3.12437 -3.8767 0
M  V30 3026 C 288.747 3.27267 -6.40538 0
M  V30 3027 C 290.773 3.05757 -5.06228 0
M  V30 3028 C 290.135 3.12938 -6.3107 0
M  V30 3029 H 286.234 0.6769 -0.391574 0
M  V30 3030 H 288.818 1.29455 -1.45429 0
M  V30 3031 H 286.989 3.76474 -0.95507 0
M  V30 3032 H 288.721 3.87165 -1.17835 0
M  V30 3033 H 285.476 3.52141 -3.16692 0
M  V30 3034 H 285.9 3.51171 -5.78798 0
M  V30 3035 H 290.542 3.05747 -2.92025 0
M  V30 3036 H 288.26 3.32718 -7.36427 0
M  V30 3037 H 291.846 2.94295 -5.01878 0
M  V30 3038 H 290.726 3.078 -7.21269 0
M  V30 3039 N 288.23 0.939286 1.26551 0
M  V30 3040 C 289.178 0.43815 2.28436 0
M  V30 3041 C 290.172 -0.483587 1.62351 0
M  V30 3042 O 291.378 -0.362009 1.76322 0
M  V30 3043 H 287.753 0.123149 0.741848 0
M  V30 3044 H 289.724 1.31002 2.68106 0
M  V30 3045 C 288.473 -0.283052 3.46546 0
M  V30 3046 H 287.796 0.417043 3.97619 0
M  V30 3047 H 289.236 -0.597948 4.19763 0
M  V30 3048 C 287.695 -1.50018 3.01656 0
M  V30 3049 O 288.225 -2.59855 3.0633 0
M  V30 3050 N 286.431 -1.35608 2.57019 0
M  V30 3051 H 285.978 -0.46244 2.53415 0
M  V30 3052 H 285.936 -2.17165 2.27347 0
M  V30 3053 N 289.708 -1.40897 0.706093 0
M  V30 3054 C 290.638 -2.33418 0.0620085 0
M  V30 3055 C 291.619 -1.52385 -0.755827 0
M  V30 3056 O 292.804 -1.80886 -0.706674 0
M  V30 3057 C 289.934 -3.36293 -0.867445 0
M  V30 3058 C 288.888 -4.27716 -0.155932 0
M  V30 3059 C 288.214 -5.2105 -1.20046 0
M  V30 3060 C 289.514 -5.12944 0.984149 0
M  V30 3061 H 291.208 -2.87527 0.83477 0
M  V30 3062 H 288.754 -1.38249 0.402875 0
M  V30 3063 H 290.707 -3.99949 -1.32735 0
M  V30 3064 H 289.431 -2.80556 -1.67199 0
M  V30 3065 H 288.09 -3.65498 0.284047 0
M  V30 3066 H 287.738 -4.61624 -1.99781 0
M  V30 3067 H 287.438 -5.83056 -0.729328 0
M  V30 3068 H 288.962 -5.87584 -1.66066 0
M  V30 3069 H 290.376 -5.70109 0.604048 0
M  V30 3070 H 288.773 -5.83945 1.38304 0
M  V30 3071 H 289.843 -4.49485 1.81911 0
M  V30 3072 N 291.186 -0.45159 -1.50991 0
M  V30 3073 C 292.116 0.342898 -2.30969 0
M  V30 3074 C 293.097 1.00815 -1.37005 0
M  V30 3075 O 294.282 1.00907 -1.65926 0
M  V30 3076 C 291.412 1.43637 -3.16205 0
M  V30 3077 C 290.366 0.893818 -4.18563 0
M  V30 3078 C 289.692 2.08411 -4.92411 0
M  V30 3079 C 290.992 -0.0815568 -5.22236 0
M  V30 3080 H 292.686 -0.324556 -2.97636 0
M  V30 3081 H 290.232 -0.157531 -1.43136 0
M  V30 3082 H 292.185 1.9995 -3.70942 0
M  V30 3083 H 290.909 2.13232 -2.47386 0
M  V30 3084 H 289.568 0.352798 -3.64898 0
M  V30 3085 H 289.216 2.76658 -4.20082 0
M  V30 3086 H 288.916 1.72741 -5.61636 0
M  V30 3087 H 290.44 2.65251 -5.49976 0
M  V30 3088 H 291.854 0.391742 -5.7196 0
M  V30 3089 H 290.251 -0.351551 -5.99069 0
M  V30 3090 H 291.321 -1.01374 -4.74185 0
M  V30 3091 N 292.664 1.56529 -0.183458 0
M  V30 3092 C 293.941 1.88959 0.50536 0
M  V30 3093 C 294.321 1.09523 1.80466 0
M  V30 3094 O 293.669 0.19278 2.27685 0
M  V30 3095 C 293.879 3.41162 0.73547 0
M  V30 3096 C 295.227 4.11155 1.06005 0
M  V30 3097 O 296.251 3.46548 0.823594 0
M  V30 3098 O 295.11 5.25318 1.50675 0
M  V30 3099 H 292.204 0.78441 0.261973 0
M  V30 3100 H 294.75 1.68231 -0.222802 0
M  V30 3101 H 293.522 3.90874 -0.182561 0
M  V30 3102 H 293.145 3.67543 1.51651 0
M  V30 3103 N 294.142 -0.090211 1.57342 0
M  V30 3104 C 295.389 -0.792807 1.86335 0
M  V30 3105 C 295.717 -1.78494 0.772662 0
M  V30 3106 O 294.972 -1.94305 -0.233258 0
M  V30 3107 C 295.271 -1.55222 3.21933 0
M  V30 3108 C 294.937 -0.701765 4.45406 0
M  V30 3109 C 293.599 -0.467334 4.78925 0
M  V30 3110 C 295.951 -0.11086 5.21082 0
M  V30 3111 C 293.279 0.367785 5.85546 0
M  V30 3112 C 295.631 0.711609 6.28585 0
M  V30 3113 C 294.295 0.956086 6.60617 0
M  V30 3114 H 293.565 -0.290109 0.681849 0
M  V30 3115 H 296.212 -0.0541332 1.91423 0
M  V30 3116 H 294.517 -2.3626 3.12551 0
M  V30 3117 H 296.214 -2.10032 3.41595 0
M  V30 3118 H 292.804 -0.894598 4.1916 0
M  V30 3119 H 296.988 -0.279129 4.95514 0
M  V30 3120 H 292.244 0.566128 6.08773 0
M  V30 3121 H 296.418 1.17632 6.86393 0
M  V30 3122 H 294.045 1.60499 7.43064 0
M  V30 3123 N 295.62 -1.53406 -0.361157 0
M  V30 3124 C 296.869 -1.69022 -1.10066 0
M  V30 3125 C 297.182 -0.450838 -1.90333 0
M  V30 3126 O 298.388 -0.487617 -2.67085 0
M  V30 3127 C 296.844 -2.98812 -2.00598 0
M  V30 3128 C 296.452 -4.30027 -1.25621 0
M  V30 3129 C 298.196 -3.23795 -2.74513 0
M  V30 3130 C 296.103 -5.50903 -2.1508 0
M  V30 3131 H 295.033 -0.629776 -0.414606 0
M  V30 3132 H 297.684 -1.79907 -0.361348 0
M  V30 3133 H 296.066 -2.8174 -2.78278 0
M  V30 3134 H 297.24 -4.57745 -0.529739 0
M  V30 3135 H 295.555 -4.11522 -0.635496 0
M  V30 3136 H 298.152 -4.11289 -3.41681 0
M  V30 3137 H 298.495 -2.40045 -3.40123 0
M  V30 3138 H 299.028 -3.41561 -2.03914 0
M  V30 3139 H 295.767 -6.37143 -1.54041 0
M  V30 3140 H 295.287 -5.27459 -2.85565 0
M  V30 3141 H 296.966 -5.85865 -2.74538 0
M  V30 3142 N 297.098 0.621204 -1.44841 0
M  V30 3143 C 298.347 1.37658 -1.47422 0
M  V30 3144 C 298.66 1.95264 -0.114629 0
M  V30 3145 O 299.866 2.71494 -0.0180199 0
M  V30 3146 C 298.322 2.49285 -2.59586 0
M  V30 3147 C 297.93 1.98149 -4.01797 0
M  V30 3148 C 299.674 3.26409 -2.71399 0
M  V30 3149 C 297.581 3.07178 -5.05367 0
M  V30 3150 H 296.511 0.517344 -0.548517 0
M  V30 3151 H 299.162 0.667257 -1.70938 0
M  V30 3152 H 297.544 3.22839 -2.29328 0
M  V30 3153 H 298.718 1.31395 -4.41669 0
M  V30 3154 H 297.033 1.33812 -3.94314 0
M  V30 3155 H 299.63 4.07706 -3.45948 0
M  V30 3156 H 299.973 3.76535 -1.77559 0
M  V30 3157 H 300.506 2.5995 -3.01116 0
M  V30 3158 H 297.245 2.61985 -6.00869 0
M  V30 3159 H 296.765 3.72542 -4.70077 0
M  V30 3160 H 298.444 3.71789 -5.29511 0
M  V30 3161 N 298.576 1.31904 0.862503 0
M  V30 3162 C 299.822 1.22197 1.61851 0
M  V30 3163 C 300.155 -0.217641 1.92977 0
M  V30 3164 O 299.43 -1.15264 1.56666 0
M  V30 3165 C 299.713 2.07378 2.94391 0
M  V30 3166 C 299.566 3.59678 2.70096 0
M  V30 3167 C 300.885 1.92891 3.95577 0
M  V30 3168 H 298.004 0.445255 0.587296 0
M  V30 3169 H 300.646 1.6177 0.99651 0
M  V30 3170 H 298.796 1.73758 3.47477 0
M  V30 3171 H 300.468 4.03472 2.23625 0
M  V30 3172 H 298.711 3.82735 2.04197 0
M  V30 3173 H 299.382 4.14595 3.64438 0
M  V30 3174 H 301.858 2.22327 3.51724 0
M  V30 3175 H 300.734 2.54781 4.86187 0
M  V30 3176 H 300.995 0.894315 4.3296 0
M  V30 3177 N 300.054 -1.07777 1.14986 0
M  V30 3178 C 301.3 -1.80557 0.923422 0
M  V30 3179 C 301.633 -1.86298 -0.548337 0
M  V30 3180 O 300.908 -1.34354 -1.40639 0
M  V30 3181 C 301.191 -3.25839 1.53299 0
M  V30 3182 C 301.044 -3.28269 3.07505 0
M  V30 3183 C 302.363 -4.22991 1.21518 0
M  V30 3184 H 299.482 -0.655493 0.336894 0
M  V30 3185 H 302.124 -1.26144 1.42083 0
M  V30 3186 H 300.274 -3.72306 1.10999 0
M  V30 3187 H 301.946 -2.90079 3.58681 0
M  V30 3188 H 300.189 -2.67355 3.4162 0
M  V30 3189 H 300.86 -4.30691 3.45266 0
M  V30 3190 H 303.336 -3.84894 1.581 0
M  V30 3191 H 302.212 -5.22945 1.66793 0
M  V30 3192 H 302.473 -4.41904 0.131505 0
M  V30 3193 N 301.532 -0.945985 -1.26051 0
M  V30 3194 C 302.778 -0.597002 -1.93814 0
M  V30 3195 C 303.111 0.862484 -1.73997 0
M  V30 3196 O 302.386 1.61769 -1.07986 0
M  V30 3197 C 302.669 -0.945937 -3.47454 0
M  V30 3198 C 302.522 -2.46052 -3.76535 0
M  V30 3199 C 303.841 -0.464785 -4.37639 0
M  V30 3200 H 300.96 -0.218366 -0.703907 0
M  V30 3201 H 303.602 -1.18107 -1.48831 0
M  V30 3202 H 301.752 -0.448902 -3.85898 0
M  V30 3203 H 303.424 -3.03065 -3.47778 0
M  V30 3204 H 301.667 -2.90194 -3.22444 0
M  V30 3205 H 302.338 -2.65517 -4.83947 0
M  V30 3206 H 304.814 -0.891016 -4.06448 0
M  V30 3207 H 303.69 -0.737712 -5.4392 0
M  V30 3208 H 303.951 0.635274 -4.37512 0
M  V30 3209 N 303.011 1.40521 -0.713556 0
M  V30 3210 C 304.259 2.00527 -0.251692 0
M  V30 3211 C 304.58 1.56857 1.15848 0
M  V30 3212 O 303.85 0.807127 1.785 0
M  V30 3213 H 302.43 0.741551 -0.0900646 0
M  V30 3214 H 305.092 1.71887 -0.918733 0
M  V30 3215 H 304.188 3.10813 -0.283192 0
M  V30 3216 N 304.489 0.459591 1.5075 0
M  V30 3217 C 305.419 -0.330644 2.31147 0
M  V30 3218 C 306.4 -1.00087 1.37538 0
M  V30 3219 O 307.585 -1.00025 1.66459 0
M  V30 3220 C 304.715 -1.41958 3.16962 0
M  V30 3221 C 303.669 -0.871608 4.19031 0
M  V30 3222 C 302.995 -2.05797 4.9351 0
M  V30 3223 C 304.295 0.109251 5.22186 0
M  V30 3224 H 305.989 0.340336 2.97459 0
M  V30 3225 H 303.535 0.165119 1.4305 0
M  V30 3226 H 305.488 -1.9798 3.71997 0
M  V30 3227 H 304.212 -2.11917 2.48513 0
M  V30 3228 H 302.871 -0.333442 3.6508 0
M  V30 3229 H 302.519 -2.74427 4.21544 0
M  V30 3230 H 302.219 -1.6976 5.62544 0
M  V30 3231 H 303.743 -2.62331 5.51375 0
M  V30 3232 H 305.157 -0.361405 5.7216 0
M  V30 3233 H 303.554 0.383316 5.98875 0
M  V30 3234 H 304.624 1.03887 4.73641 0
M  V30 3235 N 305.967 -1.56429 0.191757 0
M  V30 3236 C 307.214 -1.97485 -0.447891 0
M  V30 3237 C 307.542 -1.07852 -1.61859 0
M  V30 3238 O 306.797 -0.116903 -1.95351 0
M  V30 3239 C 307.096 -3.44449 -0.953384 0
M  V30 3240 C 306.762 -4.50781 0.103586 0
M  V30 3241 C 305.424 -4.79584 0.394023 0
M  V30 3242 C 307.776 -5.1471 0.819946 0
M  V30 3243 C 305.104 -5.69607 1.40585 0
M  V30 3244 C 307.456 -6.05827 1.8209 0
M  V30 3245 C 306.12 -6.32987 2.11857 0
M  V30 3246 H 305.39 -0.722648 -0.163895 0
M  V30 3247 H 308.037 -1.89322 0.28802 0
M  V30 3248 H 306.342 -3.49666 -1.76751 0
M  V30 3249 H 308.039 -3.73569 -1.45765 0
M  V30 3250 H 304.629 -4.28394 -0.132951 0
M  V30 3251 H 308.813 -4.92552 0.608789 0
M  V30 3252 H 304.069 -5.88926 1.64243 0
M  V30 3253 H 308.243 -6.54424 2.38123 0
M  V30 3254 H 305.87 -7.02544 2.90407 0
M  V30 3255 N 307.445 0.0818655 -1.57387 0
M  V30 3256 C 308.67 0.799946 -1.91352 0
M  V30 3257 C 309.095 1.70833 -0.787258 0
M  V30 3258 O 308.453 1.79419 0.26048 0
M  V30 3259 C 308.501 1.57812 -3.24234 0
M  V30 3260 O 307.605 2.68806 -3.12757 0
M  V30 3261 H 306.946 0.21891 -0.626877 0
M  V30 3262 H 309.476 0.0531256 -2.04531 0
M  V30 3263 H 309.486 1.95952 -3.57864 0
M  V30 3264 H 308.161 0.911548 -4.05788 0
M  V30 3265 H 306.738 2.33597 -2.90666 0
M  V30 3266 N 308.923 1.53595 0.353017 0
M  V30 3267 C 309.886 1.80232 1.41594 0
M  V30 3268 C 310.886 0.673081 1.46035 0
M  V30 3269 O 312.076 0.941335 1.46576 0
M  V30 3270 C 309.208 1.93578 2.80607 0
M  V30 3271 H 310.401 2.75174 1.19244 0
M  V30 3272 H 307.954 1.44864 0.586872 0
M  V30 3273 H 308.689 1.00746 3.08254 0
M  V30 3274 H 308.474 2.75724 2.78781 0
M  V30 3275 H 309.964 2.15735 3.57558 0
M  V30 3276 N 310.401 -0.613514 1.45168 0
M  V30 3277 C 311.65 -1.36874 1.4815 0
M  V30 3278 C 311.963 -1.952 0.124982 0
M  V30 3279 O 313.169 -2.71481 0.0324176 0
M  V30 3280 C 311.625 -2.47905 2.60904 0
M  V30 3281 C 311.233 -1.96016 4.02842 0
M  V30 3282 C 312.977 -3.24965 2.73126 0
M  V30 3283 C 310.884 -3.04494 5.06988 0
M  V30 3284 H 309.814 -0.514428 0.551253 0
M  V30 3285 H 312.465 -0.658182 1.7129 0
M  V30 3286 H 310.847 -3.21618 2.31037 0
M  V30 3287 H 312.021 -1.29051 4.4236 0
M  V30 3288 H 310.336 -1.31719 3.95018 0
M  V30 3289 H 312.933 -4.05865 3.48106 0
M  V30 3290 H 313.276 -3.75588 1.79553 0
M  V30 3291 H 313.809 -2.5835 3.0249 0
M  V30 3292 H 310.548 -2.58795 6.0225 0
M  V30 3293 H 310.068 -3.70044 4.72046 0
M  V30 3294 H 311.747 -3.68976 5.31475 0
M  V30 3295 N 311.879 -1.3236 -0.855495 0
M  V30 3296 C 312.809 -1.23833 -1.97958 0
M  V30 3297 C 313.79 -0.122361 -1.69659 0
M  V30 3298 O 314.975 -0.30939 -1.9172 0
M  V30 3299 C 312.105 -0.959772 -3.33775 0
M  V30 3300 C 311.059 -2.03689 -3.76424 0
M  V30 3301 C 310.385 -1.61075 -5.09862 0
M  V30 3302 C 311.685 -3.4518 -3.9198 0
M  V30 3303 H 313.379 -2.1788 -2.0535 0
M  V30 3304 H 310.925 -1.04891 -0.986605 0
M  V30 3305 H 312.878 -0.886678 -4.11966 0
M  V30 3306 H 311.602 0.0163404 -3.26596 0
M  V30 3307 H 310.261 -2.10012 -3.00484 0
M  V30 3308 H 309.909 -0.622107 -4.99138 0
M  V30 3309 H 309.609 -2.33143 -5.39368 0
M  V30 3310 H 311.133 -1.55201 -5.90546 0
M  V30 3311 H 312.547 -3.4145 -4.60526 0
M  V30 3312 H 310.944 -4.1559 -4.32903 0
M  V30 3313 H 312.014 -3.84903 -2.94919 0
M  V30 3314 N 313.357 1.07166 -1.15556 0
M  V30 3315 C 314.267 2.17947 -0.868116 0
M  V30 3316 C 315.283 1.73297 0.156297 0
M  V30 3317 O 316.459 2.01392 -0.0182327 0
M  V30 3318 C 313.524 3.44789 -0.36355 0
M  V30 3319 C 312.585 4.03996 -1.45209 0
M  V30 3320 C 311.818 5.24783 -0.971508 0
M  V30 3321 O 312.041 5.70109 0.182194 0
M  V30 3322 O 310.975 5.75715 -1.75603 0
M  V30 3323 H 314.801 2.4503 -1.79427 0
M  V30 3324 H 312.386 1.16539 -0.934824 0
M  V30 3325 H 314.268 4.21307 -0.0887113 0
M  V30 3326 H 312.943 3.19253 0.534708 0
M  V30 3327 H 311.85 3.29009 -1.78056 0
M  V30 3328 H 313.183 4.33808 -2.32533 0
M  V30 3329 N 314.835 0.952656 1.25548 0
M  V30 3330 C 315.767 0.428609 2.25157 0
M  V30 3331 C 316.78 -0.454428 1.56329 0
M  V30 3332 O 317.969 -0.263023 1.76552 0
M  V30 3333 C 315.069 -0.401972 3.36508 0
M  V30 3334 C 314.242 0.467601 4.34893 0
M  V30 3335 C 313.301 -0.30445 5.25319 0
M  V30 3336 O 312.327 0.296473 5.68427 0
M  V30 3337 N 313.529 -1.59805 5.5807 0
M  V30 3338 H 316.294 1.28497 2.70756 0
M  V30 3339 H 313.855 0.822798 1.39433 0
M  V30 3340 H 315.847 -0.926134 3.9396 0
M  V30 3341 H 314.417 -1.15918 2.90313 0
M  V30 3342 H 313.637 1.17288 3.76347 0
M  V30 3343 H 314.925 1.06119 4.97611 0
M  V30 3344 H 314.323 -2.10823 5.24948 0
M  V30 3345 H 312.88 -2.06822 6.18116 0
M  V30 3346 N 316.313 -1.40141 0.720998 0
M  V30 3347 C 317.276 -2.29058 0.0805834 0
M  V30 3348 C 318.276 -1.45632 -0.681758 0
M  V30 3349 O 319.466 -1.6648 -0.512856 0
M  V30 3350 C 316.598 -3.28925 -0.895593 0
M  V30 3351 H 317.791 -2.87191 0.863793 0
M  V30 3352 H 315.344 -1.48553 0.485975 0
M  V30 3353 H 316.079 -2.75822 -1.70566 0
M  V30 3354 H 315.864 -3.90519 -0.351766 0
M  V30 3355 H 317.354 -3.95494 -1.34069 0
M  V30 3356 N 317.792 -0.46758 -1.50504 0
M  V30 3357 C 319.02 0.0864133 -2.06719 0
M  V30 3358 C 319.435 1.33819 -1.33184 0
M  V30 3359 O 318.792 1.78061 -0.400083 0
M  V30 3360 C 318.843 0.378079 -3.59517 0
M  V30 3361 O 318.564 -0.824044 -4.3028 0
M  V30 3362 C 320.065 0.979426 -4.32345 0
M  V30 3363 H 317.285 -0.00551697 -0.670977 0
M  V30 3364 H 319.829 -0.655354 -1.93715 0
M  V30 3365 H 317.984 1.06977 -3.72337 0
M  V30 3366 H 318.398 -0.566518 -5.21432 0
M  V30 3367 H 319.872 1.1333 -5.40241 0
M  V30 3368 H 320.349 1.9686 -3.9261 0
M  V30 3369 H 320.955 0.326216 -4.24047 0
M  V30 3370 N 319.27 1.56325 -0.20005 0
M  V30 3371 C 320.217 2.1932 0.718833 0
M  V30 3372 C 321.187 1.14198 1.20615 0
M  V30 3373 O 322.372 1.42469 1.26914 0
M  V30 3374 C 319.512 2.86041 1.93066 0
M  V30 3375 C 318.625 4.05702 1.48425 0
M  V30 3376 C 317.76 4.60266 2.65196 0
M  V30 3377 C 316.799 5.72273 2.17185 0
M  V30 3378 N 315.936 6.21221 3.27152 0
M  V30 3379 H 320.776 2.97486 0.17489 0
M  V30 3380 H 318.313 1.46911 0.0745794 0
M  V30 3381 H 320.271 3.22897 2.64184 0
M  V30 3382 H 318.901 2.1043 2.44783 0
M  V30 3383 H 317.953 3.74475 0.668755 0
M  V30 3384 H 319.265 4.86699 1.09204 0
M  V30 3385 H 318.419 4.99453 3.4443 0
M  V30 3386 H 317.158 3.78386 3.07693 0
M  V30 3387 H 316.163 5.3261 1.36407 0
M  V30 3388 H 317.388 6.55974 1.75713 0
M  V30 3389 H 315.334 5.42263 3.69171 0
M  V30 3390 H 315.251 6.97284 2.92116 0
M  V30 3391 H 316.519 6.65063 4.06585 0
M  V30 3392 N 320.748 -0.0735177 1.57428 0
M  V30 3393 C 321.711 -1.07192 2.02589 0
M  V30 3394 C 322.711 -1.31695 0.922661 0
M  V30 3395 O 323.901 -1.27445 1.18758 0
M  V30 3396 C 321.033 -2.41599 2.40506 0
M  V30 3397 H 322.226 -0.682727 2.92025 0
M  V30 3398 H 319.779 -0.319193 1.53006 0
M  V30 3399 H 320.514 -2.85354 1.5409 0
M  V30 3400 H 320.299 -2.25156 3.21009 0
M  V30 3401 H 321.789 -3.13367 2.76027 0
M  V30 3402 N 322.226 -1.5378 -0.344866 0
M  V30 3403 C 323.503 -1.61589 -1.10219 0
M  V30 3404 C 323.883 -0.436316 -2.06542 0
M  V30 3405 O 323.231 0.571543 -2.21237 0
M  V30 3406 C 323.441 -2.97602 -1.82301 0
M  V30 3407 C 324.789 -3.5291 -2.36093 0
M  V30 3408 O 325.813 -2.99768 -1.924 0
M  V30 3409 O 324.672 -4.45859 -3.16026 0
M  V30 3410 H 321.766 -0.653522 -0.506792 0
M  V30 3411 H 324.312 -1.66126 -0.346465 0
M  V30 3412 H 323.084 -3.74893 -1.12121 0
M  V30 3413 H 322.707 -2.9665 -2.64735 0
M  V30 3414 N 323.704 0.605807 -1.45491 0
M  V30 3415 C 324.952 1.36207 -1.49305 0
M  V30 3416 C 325.273 1.94519 -0.136863 0
M  V30 3417 O 324.543 1.77261 0.833983 0
M  V30 3418 H 323.123 0.50565 -0.549843 0
M  V30 3419 H 325.785 0.711239 -1.81459 0
M  V30 3420 H 324.881 2.18058 -2.23287 0
M  V30 3421 N 325.182 1.32811 0.848464 0
M  V30 3422 C 326.145 1.22194 1.9391 0
M  V30 3423 C 327.145 0.143404 1.60159 0
M  V30 3424 O 328.335 0.394253 1.6968 0
M  V30 3425 C 325.467 0.88067 3.29328 0
M  V30 3426 H 326.66 2.19127 2.04752 0
M  V30 3427 H 324.213 1.16731 1.0394 0
M  V30 3428 H 324.948 -0.0865776 3.24184 0
M  V30 3429 H 324.733 1.66052 3.55203 0
M  V30 3430 H 326.223 0.830871 4.09251 0
M  V30 3431 N 326.66 -1.06551 1.16123 0
M  V30 3432 C 327.608 -2.16063 0.861371 0
M  V30 3433 C 328.602 -1.6856 -0.168517 0
M  V30 3434 O 329.808 -1.79986 -0.0227579 0
M  V30 3435 H 326.183 -0.705278 0.260934 0
M  V30 3436 H 328.154 -2.38567 1.79244 0
M  V30 3437 C 326.903 -3.45661 0.376018 0
M  V30 3438 H 326.226 -3.82604 1.15992 0
M  V30 3439 H 327.666 -4.23504 0.204951 0
M  V30 3440 C 326.125 -3.24546 -0.903954 0
M  V30 3441 O 326.655 -3.49865 -1.97377 0
M  V30 3442 N 324.861 -2.77992 -0.846679 0
M  V30 3443 H 324.408 -2.57589 0.0241017 0
M  V30 3444 H 324.366 -2.64244 -1.70359 0
M  V30 3445 N 328.138 -0.959301 -1.25041 0
M  V30 3446 C 329.101 -0.487677 -2.23952 0
M  V30 3447 C 330.101 0.41119 -1.55454 0
M  V30 3448 O 331.291 0.207825 -1.72956 0
M  V30 3449 C 328.423 0.294807 -3.39623 0
M  V30 3450 H 329.616 -1.36198 -2.67189 0
M  V30 3451 H 327.169 -0.743042 -1.37508 0
M  V30 3452 H 327.904 1.18658 -3.01813 0
M  V30 3453 H 327.689 -0.35012 -3.90534 0
M  V30 3454 H 329.179 0.614089 -4.1306 0
M  V30 3455 N 329.616 1.39756 -0.72842 0
M  V30 3456 C 330.546 2.33289 -0.0991354 0
M  V30 3457 C 331.527 1.53568 0.731489 0
M  V30 3458 O 332.712 1.81987 0.677807 0
M  V30 3459 C 329.842 3.3763 0.813834 0
M  V30 3460 C 328.796 4.2791 0.0878663 0
M  V30 3461 C 328.122 5.22894 1.11741 0
M  V30 3462 C 329.422 5.11314 -1.06563 0
M  V30 3463 H 331.116 2.86163 -0.880408 0
M  V30 3464 H 328.662 1.37591 -0.424819 0
M  V30 3465 H 330.615 4.0201 1.26355 0
M  V30 3466 H 329.339 2.83181 1.62715 0
M  V30 3467 H 327.998 3.65 -0.342159 0
M  V30 3468 H 327.646 4.64744 1.92412 0
M  V30 3469 H 327.346 5.84143 0.636477 0
M  V30 3470 H 328.87 5.90151 1.56697 0
M  V30 3471 H 330.284 5.69076 -0.694671 0
M  V30 3472 H 328.681 5.81671 -1.47577 0
M  V30 3473 H 329.751 4.46534 -1.89038 0
M  V30 3474 N 331.094 0.475555 1.50254 0
M  V30 3475 C 332.342 -0.077738 2.0195 0
M  V30 3476 C 332.663 -1.39813 1.35931 0
M  V30 3477 O 331.933 -1.89249 0.506123 0
M  V30 3478 H 330.513 -0.031719 0.746326 0
M  V30 3479 H 333.175 0.626995 1.84539 0
M  V30 3480 H 332.271 -0.225995 3.11281 0
M  V30 3481 N 332.573 -1.56217 0.208337 0
M  V30 3482 C 333.821 -1.97558 -0.426076 0
M  V30 3483 C 334.142 -1.09683 -1.61229 0
M  V30 3484 O 333.412 -0.170956 -1.95153 0
M  V30 3485 H 331.992 -0.729575 -0.160405 0
M  V30 3486 H 334.654 -1.92606 0.298155 0
M  V30 3487 H 333.75 -3.02672 -0.761312 0
M  V30 3488 N 334.051 0.0651679 -1.57465 0
M  V30 3489 C 334.998 1.07675 -2.04144 0
M  V30 3490 C 335.968 1.38071 -0.923335 0
M  V30 3491 O 337.153 1.49026 -1.19146 0
M  V30 3492 C 334.293 2.38337 -2.49579 0
M  V30 3493 C 333.406 2.14413 -3.75035 0
M  V30 3494 C 332.541 3.38686 -4.09225 0
M  V30 3495 C 331.58 3.10156 -5.27702 0
M  V30 3496 N 330.717 4.26778 -5.57499 0
M  V30 3497 H 335.557 0.671716 -2.90331 0
M  V30 3498 H 333.094 0.3201 -1.43575 0
M  V30 3499 H 335.052 3.14632 -2.73975 0
M  V30 3500 H 333.682 2.7663 -1.6636 0
M  V30 3501 H 332.734 1.2878 -3.57939 0
M  V30 3502 H 334.046 1.89344 -4.61466 0
M  V30 3503 H 333.2 4.23373 -4.34558 0
M  V30 3504 H 331.939 3.66837 -3.21374 0
M  V30 3505 H 330.944 2.23866 -5.02159 0
M  V30 3506 H 332.169 2.8332 -6.17176 0
M  V30 3507 H 330.115 4.54948 -4.72608 0
M  V30 3508 H 330.032 4.05005 -6.38362 0
M  V30 3509 H 331.3 5.12443 -5.87386 0
M  V30 3510 N 335.529 1.53961 0.336706 0
M  V30 3511 C 336.777 1.71197 1.07405 0
M  V30 3512 C 337.098 0.481475 1.88962 0
M  V30 3513 O 336.368 -0.504585 1.8929 0
M  V30 3514 H 334.948 0.631185 0.399517 0
M  V30 3515 H 337.61 1.91232 0.376323 0
M  V30 3516 H 336.706 2.58587 1.74755 0
M  V30 3517 N 337.007 -0.598083 1.45811 0
M  V30 3518 C 337.97 -1.69018 1.54808 0
M  V30 3519 C 338.97 -1.55037 0.426652 0
M  V30 3520 O 340.16 -1.59932 0.690456 0
M  V30 3521 C 337.292 -3.0835 1.45371 0
M  V30 3522 H 338.485 -1.62403 2.52121 0
M  V30 3523 H 336.038 -0.814626 1.33392 0
M  V30 3524 H 336.773 -3.20534 0.492793 0
M  V30 3525 H 336.558 -3.19907 2.26721 0
M  V30 3526 H 338.048 -3.8788 1.54721 0
M  V30 3527 N 338.485 -1.33259 -0.841409 0
M  V30 3528 C 339.733 -1.24326 -1.59334 0
M  V30 3529 C 340.054 0.191564 -1.94057 0
M  V30 3530 O 339.324 1.11967 -1.60749 0
M  V30 3531 H 337.904 -0.457174 -0.590763 0
M  V30 3532 H 340.566 -1.66947 -1.00571 0
M  V30 3533 H 339.662 -1.8352 -2.52442 0
M  V30 3534 N 339.963 1.05934 -1.16686 0
M  V30 3535 C 341.21 1.788 -0.950622 0
M  V30 3536 C 341.538 1.87384 0.521305 0
M  V30 3537 O 340.793 1.36438 1.40297 0
M  V30 3538 C 341.092 3.23105 -1.52767 0
M  V30 3539 C 340.758 3.34594 -3.02254 0
M  V30 3540 C 339.42 3.37437 -3.43059 0
M  V30 3541 C 341.772 3.36219 -3.98254 0
M  V30 3542 C 339.1 3.39525 -4.78477 0
M  V30 3543 C 341.452 3.39845 -5.33562 0
M  V30 3544 C 340.116 3.40971 -5.73842 0
M  V30 3545 H 339.386 0.654275 -0.347857 0
M  V30 3546 H 342.033 1.24555 -1.45459 0
M  V30 3547 H 340.338 3.80227 -0.94524 0
M  V30 3548 H 342.035 3.7809 -1.336 0
M  V30 3549 H 338.625 3.3309 -2.6972 0
M  V30 3550 H 342.809 3.33231 -3.67792 0
M  V30 3551 H 338.065 3.38703 -5.09009 0
M  V30 3552 H 342.239 3.4005 -6.07733 0
M  V30 3553 H 339.866 3.42342 -6.78753 0
M  V30 3554 N 341.441 0.965919 1.2453 0
M  V30 3555 C 342.718 0.543777 1.87889 0
M  V30 3556 C 343.098 -0.97909 1.87021 0
M  V30 3557 O 342.446 -1.84969 1.3416 0
M  V30 3558 C 342.656 1.13327 3.30088 0
M  V30 3559 C 344.004 1.21707 4.06783 0
M  V30 3560 O 345.028 1.08566 3.39252 0
M  V30 3561 O 343.887 1.42456 5.27606 0
M  V30 3562 H 340.981 0.181054 0.806938 0
M  V30 3563 H 343.527 1.06007 1.32516 0
M  V30 3564 H 342.299 2.17612 3.25209 0
M  V30 3565 H 341.922 0.600911 3.93033 0
M  V30 3566 N 342.919 -1.39368 0.735821 0
M  V30 3567 C 344.165 -2.00794 0.284544 0
M  V30 3568 C 344.498 -1.58255 -1.12557 0
M  V30 3569 O 343.773 -0.811819 -1.76748 0
M  V30 3570 C 344.056 -3.58011 0.387337 0
M  V30 3571 C 343.909 -4.10566 1.83728 0
M  V30 3572 C 345.228 -4.395 -0.22975 0
M  V30 3573 H 342.347 -0.729501 0.104866 0
M  V30 3574 H 344.989 -1.65564 0.93213 0
M  V30 3575 H 343.139 -3.88154 -0.164006 0
M  V30 3576 H 344.811 -3.91139 2.44556 0
M  V30 3577 H 343.054 -3.64095 2.35833 0
M  V30 3578 H 343.725 -5.19702 1.86047 0
M  V30 3579 H 346.201 -4.15406 0.240257 0
M  V30 3580 H 345.077 -5.48752 -0.127485 0
M  V30 3581 H 345.338 -4.22062 -1.3159 0
M  V30 3582 N 344.397 -0.483516 -1.5 0
M  V30 3583 C 345.344 0.304164 -2.28787 0
M  V30 3584 C 346.314 0.976114 -1.34392 0
M  V30 3585 O 347.499 0.986156 -1.63339 0
M  V30 3586 C 344.639 1.37298 -3.16612 0
M  V30 3587 C 343.752 0.714561 -4.26049 0
M  V30 3588 C 342.887 1.76232 -5.01114 0
M  V30 3589 C 341.926 1.08483 -6.0241 0
M  V30 3590 N 341.063 2.076 -6.70706 0
M  V30 3591 H 345.903 -0.373981 -2.95644 0
M  V30 3592 H 343.44 -0.196275 -1.45785 0
M  V30 3593 H 345.398 2.00445 -3.65893 0
M  V30 3594 H 344.028 2.02012 -2.51776 0
M  V30 3595 H 343.08 -0.0297798 -3.80388 0
M  V30 3596 H 344.392 0.180383 -4.98474 0
M  V30 3597 H 343.546 2.46929 -5.54176 0
M  V30 3598 H 342.285 2.33033 -4.28424 0
M  V30 3599 H 341.29 0.363545 -5.48597 0
M  V30 3600 H 342.515 0.523551 -6.77079 0
M  V30 3601 H 340.461 2.63394 -6.00799 0
M  V30 3602 H 340.378 1.59201 -7.39047 0
M  V30 3603 H 341.646 2.77639 -7.2838 0
M  V30 3604 N 345.875 1.56104 -0.216619 0
M  V30 3605 C 346.838 2.18819 0.681962 0
M  V30 3606 C 347.838 1.14866 1.12528 0
M  V30 3607 O 349.028 1.40128 1.03488 0
M  V30 3608 C 346.16 2.80756 1.93362 0
M  V30 3609 H 347.353 2.99595 0.135254 0
M  V30 3610 H 344.906 1.56265 0.0330003 0
M  V30 3611 H 345.641 2.03837 2.52232 0
M  V30 3612 H 345.426 3.56876 1.62426 0
M  V30 3613 H 346.916 3.28844 2.57393 0
M  V30 3614 N 347.353 -0.0568162 1.57498 0
M  V30 3615 C 348.283 -1.06593 2.0775 0
M  V30 3616 C 349.264 -1.39448 0.974082 0
M  V30 3617 O 350.449 -1.48815 1.24771 0
M  V30 3618 C 347.579 -2.37509 2.5339 0
M  V30 3619 C 346.533 -2.1897 3.67745 0
M  V30 3620 C 345.859 -3.55402 3.99492 0
M  V30 3621 C 347.159 -1.59859 4.97235 0
M  V30 3622 H 348.853 -0.647706 2.9231 0
M  V30 3623 H 346.399 -0.310116 1.40621 0
M  V30 3624 H 348.352 -3.08409 2.87162 0
M  V30 3625 H 347.076 -2.8134 1.65878 0
M  V30 3626 H 345.735 -1.50508 3.3428 0
M  V30 3627 H 345.383 -3.9683 3.09088 0
M  V30 3628 H 345.083 -3.43831 4.76502 0
M  V30 3629 H 346.607 -4.27708 4.35773 0
M  V30 3630 H 348.021 -2.20642 5.29141 0
M  V30 3631 H 346.418 -1.58942 5.78669 0
M  V30 3632 H 347.488 -0.561506 4.81638 0
M  V30 3633 N 348.832 -1.54138 -0.328536 0
M  V30 3634 C 350.248 -1.44736 -0.672574 0
M  V30 3635 C 350.448 -0.616217 -1.91846 0
M  V30 3636 O 349.504 -0.113067 -2.52247 0
M  V30 3637 C 350.817 -2.884 -0.851217 0
M  V30 3638 C 352.365 -2.98271 -0.948877 0
M  V30 3639 C 352.84 -4.43074 -1.15973 0
M  V30 3640 N 354.331 -4.46665 -1.22658 0
M  V30 3641 C 355.066 -5.55857 -1.40751 0
M  V30 3642 N 354.562 -6.75026 -1.5592 0
M  V30 3643 N 356.355 -5.43495 -1.4342 0
M  V30 3644 H 348.506 -2.06661 0.490421 0
M  V30 3645 H 350.769 -0.934812 0.157579 0
M  V30 3646 H 350.475 -3.51699 -0.00704236 0
M  V30 3647 H 350.349 -3.34225 -1.74853 0
M  V30 3648 H 352.736 -2.35102 -1.78356 0
M  V30 3649 H 352.817 -2.55785 -0.0281435 0
M  V30 3650 H 352.461 -5.06827 -0.329915 0
M  V30 3651 H 352.391 -4.83165 -2.09426 0
M  V30 3652 H 354.882 -3.60797 -1.124 0
M  V30 3653 H 355.195 -7.54004 -1.69404 0
M  V30 3654 H 353.54 -6.77944 -1.53027 0
M  V30 3655 H 356.731 -4.49349 -1.31162 0
M  V30 3656 H 356.904 -6.28649 -1.57178 0
M  V30 3657 N 350.31 0.590341 -1.46126 0
M  V30 3658 C 351.273 1.68194 -1.55703 0
M  V30 3659 C 352.273 1.54808 -0.434868 0
M  V30 3660 O 353.463 1.59564 -0.698928 0
M  V30 3661 C 350.595 3.07575 -1.47005 0
M  V30 3662 H 351.788 1.61064 -2.52979 0
M  V30 3663 H 349.341 0.807541 -1.33823 0
M  V30 3664 H 350.076 3.20268 -0.509785 0
M  V30 3665 H 349.861 3.187 -2.28414 0
M  V30 3666 H 351.351 3.87055 -1.56776 0
M  V30 3667 N 351.788 1.33704 0.83433 0
M  V30 3668 C 353.035 1.25417 1.58987 0
M  V30 3669 C 353.363 -0.178869 1.93676 0
M  V30 3670 O 352.618 -1.13723 1.59265 0
M  V30 3671 C 352.917 2.07926 2.90692 0
M  V30 3672 C 352.583 3.57066 2.75345 0
M  V30 3673 C 351.245 3.97724 2.70867 0
M  V30 3674 C 353.597 4.51817 2.59828 0
M  V30 3675 C 350.925 5.31344 2.48778 0
M  V30 3676 C 353.277 5.85604 2.39272 0
M  V30 3677 C 351.941 6.25439 2.33199 0
M  V30 3678 H 351.211 0.458934 0.581774 0
M  V30 3679 H 353.858 1.65335 0.966261 0
M  V30 3680 H 352.163 1.608 3.57282 0
M  V30 3681 H 353.86 1.98868 3.48213 0
M  V30 3682 H 350.45 3.24785 2.79665 0
M  V30 3683 H 354.634 4.21311 2.62319 0
M  V30 3684 H 349.89 5.61241 2.42526 0
M  V30 3685 H 354.064 6.58623 2.2625 0
M  V30 3686 H 351.691 7.28914 2.15843 0
M  V30 3687 N 353.266 -1.05314 1.17247 0
M  V30 3688 C 354.682 -1.30452 0.919473 0
M  V30 3689 C 354.882 -1.9703 -0.42209 0
M  V30 3690 O 353.938 -2.24311 -1.15935 0
M  V30 3691 C 355.251 -2.17551 2.07586 0
M  V30 3692 C 356.799 -2.30937 2.11275 0
M  V30 3693 C 357.274 -3.21396 3.26296 0
M  V30 3694 N 358.765 -3.28981 3.26076 0
M  V30 3695 C 359.5 -3.99095 4.11716 0
M  V30 3696 N 358.996 -4.71648 5.07465 0
M  V30 3697 N 360.789 -3.95247 3.9967 0
M  V30 3698 H 352.94 -0.604988 2.03602 0
M  V30 3699 H 355.203 -0.329368 0.888944 0
M  V30 3700 H 354.909 -1.75921 3.0454 0
M  V30 3701 H 354.783 -3.18182 2.02584 0
M  V30 3702 H 357.17 -2.71809 1.14907 0
M  V30 3703 H 357.251 -1.2994 2.20339 0
M  V30 3704 H 356.895 -2.81238 4.22927 0
M  V30 3705 H 356.825 -4.22395 3.14467 0
M  V30 3706 H 359.316 -2.77286 2.5675 0
M  V30 3707 H 359.629 -5.22705 5.6921 0
M  V30 3708 H 357.974 -4.70594 5.11435 0
M  V30 3709 H 361.165 -3.37691 3.24164 0
M  V30 3710 H 361.338 -4.4962 4.66632 0
M  V30 3711 N 354.744 -0.972509 -1.24016 0
M  V30 3712 C 355.99 -0.637978 -1.92504 0
M  V30 3713 C 356.323 0.825383 -1.75787 0
M  V30 3714 O 355.598 1.59442 -1.11393 0
M  V30 3715 C 355.881 -1.01942 -3.45369 0
M  V30 3716 C 355.734 -2.53983 -3.71231 0
M  V30 3717 C 357.053 -0.55751 -4.36555 0
M  V30 3718 H 354.172 -0.233248 -0.699117 0
M  V30 3719 H 356.814 -1.21238 -1.46292 0
M  V30 3720 H 354.964 -0.530656 -3.84859 0
M  V30 3721 H 356.636 -3.10374 -3.41271 0
M  V30 3722 H 354.879 -2.96968 -3.16216 0
M  V30 3723 H 355.55 -2.75723 -4.78206 0
M  V30 3724 H 358.026 -0.977029 -4.04467 0
M  V30 3725 H 356.902 -0.85292 -5.42233 0
M  V30 3726 H 357.163 0.542328 -4.38761 0
M  V30 3727 N 356.222 1.38976 -0.743202 0
M  V30 3728 C 357.152 2.33171 -0.123873 0
M  V30 3729 C 358.133 1.54336 0.71516 0
M  V30 3730 O 359.318 1.82696 0.658467 0
M  V30 3731 C 356.448 3.38474 0.777978 0
M  V30 3732 C 355.402 4.27979 0.0424758 0
M  V30 3733 C 354.728 5.2405 1.06189 0
M  V30 3734 C 356.028 5.10155 -1.1198 0
M  V30 3735 H 357.722 2.85213 -0.910709 0
M  V30 3736 H 355.268 1.37133 -0.439388 0
M  V30 3737 H 357.221 4.03328 1.22084 0
M  V30 3738 H 355.945 2.84891 1.59702 0
M  V30 3739 H 354.604 3.64616 -0.380853 0
M  V30 3740 H 354.252 4.66758 1.87472 0
M  V30 3741 H 353.952 5.84785 0.574485 0
M  V30 3742 H 355.476 5.9178 1.50428 0
M  V30 3743 H 356.89 5.68307 -0.75499 0
M  V30 3744 H 355.287 5.80073 -1.53738 0
M  V30 3745 H 356.357 4.44504 -1.93764 0
M  V30 3746 N 357.7 0.491464 1.49741 0
M  V30 3747 C 359.116 0.146835 1.58923 0
M  V30 3748 C 359.316 -1.34804 1.49767 0
M  V30 3749 O 358.372 -2.12317 1.36667 0
M  V30 3750 C 359.685 0.715157 2.92072 0
M  V30 3751 C 361.233 0.680407 3.05515 0
M  V30 3752 C 361.708 1.22663 4.41269 0
M  V30 3753 N 363.199 1.18691 4.47735 0
M  V30 3754 C 363.934 1.57984 5.51207 0
M  V30 3755 N 363.43 2.04824 6.6183 0
M  V30 3756 N 365.223 1.49459 5.41866 0
M  V30 3757 H 357.374 1.46347 1.53936 0
M  V30 3758 H 359.637 0.606453 0.728642 0
M  V30 3759 H 359.343 1.76317 3.04311 0
M  V30 3760 H 359.217 0.17018 3.76816 0
M  V30 3761 H 361.604 -0.358743 2.92911 0
M  V30 3762 H 361.685 1.26242 2.22478 0
M  V30 3763 H 361.329 2.26451 4.54623 0
M  V30 3764 H 361.259 0.620637 5.2293 0
M  V30 3765 H 363.75 0.843605 3.68364 0
M  V30 3766 H 364.063 2.32901 7.3687 0
M  V30 3767 H 362.408 2.08791 6.62896 0
M  V30 3768 H 365.599 1.12692 4.54333 0
M  V30 3769 H 365.772 1.80406 6.22381 0
M  V30 3770 N 359.178 -1.55987 0.224894 0
M  V30 3771 C 360.589 -1.84553 -0.282345 0
M  V30 3772 C 360.94 -1.14634 -1.59227 0
M  V30 3773 O 360.065 -0.417155 -2.12341 0
M  V30 3774 C 360.66 -3.348 -0.519062 0
M  V30 3775 C 359.219 -3.63671 -0.970604 0
M  V30 3776 C 358.366 -2.77277 -0.0355261 0
M  V30 3777 H 361.317 -1.52245 0.448006 0
M  V30 3778 H 361.338 -3.55187 -1.36463 0
M  V30 3779 H 360.85 -3.8566 0.43449 0
M  V30 3780 H 358.951 -3.1827 -1.9374 0
M  V30 3781 H 359.064 -4.71631 -0.842698 0
M  V30 3782 H 357.428 -2.48846 -0.542927 0
M  V30 3783 H 358.211 -3.30937 0.913003 0
M  V30 3784 N 360.656 0.0484629 -1.57525 0
M  V30 3785 C 361.586 1.0549 -2.08313 0
M  V30 3786 C 362.567 1.38929 -0.981463 0
M  V30 3787 O 363.752 1.48151 -1.25558 0
M  V30 3788 C 360.882 2.36162 -2.54646 0
M  V30 3789 C 359.836 2.17016 -3.68901 0
M  V30 3790 C 359.162 3.53278 -4.01371 0
M  V30 3791 C 360.462 1.57219 -4.98076 0
M  V30 3792 H 362.156 0.632195 -2.92649 0
M  V30 3793 H 359.702 0.302654 -1.40784 0
M  V30 3794 H 361.655 3.06882 -2.88793 0
M  V30 3795 H 360.379 2.80456 -1.67368 0
M  V30 3796 H 359.038 1.48733 -3.35073 0
M  V30 3797 H 358.686 3.95185 -3.11188 0
M  V30 3798 H 358.386 3.41299 -4.78318 0
M  V30 3799 H 359.91 4.25391 -4.38035 0
M  V30 3800 H 361.324 2.17832 -5.30304 0
M  V30 3801 H 359.721 1.55871 -5.79503 0
M  V30 3802 H 360.791 0.535956 -4.81929 0
M  V30 3803 N 362.134 1.5431 0.320358 0
M  V30 3804 C 363.55 1.45091 0.664889 0
M  V30 3805 C 363.75 0.626382 1.91517 0
M  V30 3806 O 362.806 0.126443 2.52183 0
M  V30 3807 C 364.119 2.88848 0.83591 0
M  V30 3808 C 365.667 2.9877 0.933046 0
M  V30 3809 C 366.142 4.43683 1.13621 0
M  V30 3810 N 367.633 4.47309 1.20287 0
M  V30 3811 C 368.368 5.56595 1.37801 0
M  V30 3812 N 367.864 6.75844 1.52338 0
M  V30 3813 N 369.657 5.44248 1.40535 0
M  V30 3814 H 361.808 2.06398 -0.501374 0
M  V30 3815 H 364.071 0.933963 -0.162534 0
M  V30 3816 H 363.777 3.51698 -0.0116092 0
M  V30 3817 H 363.651 3.35148 1.73078 0
M  V30 3818 H 366.038 2.36045 1.77107 0
M  V30 3819 H 366.119 2.55796 0.0145782 0
M  V30 3820 H 365.763 5.06995 0.303032 0
M  V30 3821 H 365.693 4.84269 2.0686 0
M  V30 3822 H 368.184 3.61388 1.10485 0
M  V30 3823 H 368.497 7.54892 1.65403 0
M  V30 3824 H 366.842 6.78746 1.4943 0
M  V30 3825 H 370.033 4.50038 1.28777 0
M  V30 3826 H 370.206 6.29473 1.53842 0
M  V30 3827 N 363.613 -0.582584 1.46437 0
M  V30 3828 C 364.543 -1.70187 1.59871 0
M  V30 3829 C 365.524 -1.64066 0.449042 0
M  V30 3830 O 366.709 -1.82081 0.6753 0
M  V30 3831 C 363.839 -3.08827 1.58881 0
M  V30 3832 C 362.793 -3.29779 2.72819 0
M  V30 3833 C 362.119 -4.68947 2.5689 0
M  V30 3834 C 363.419 -3.17601 4.1464 0
M  V30 3835 H 365.113 -1.592 2.53566 0
M  V30 3836 H 362.659 -0.764472 1.22032 0
M  V30 3837 H 364.612 -3.86951 1.66873 0
M  V30 3838 H 363.336 -3.20713 0.617306 0
M  V30 3839 H 361.995 -2.54054 2.64296 0
M  V30 3840 H 361.643 -4.77599 1.57823 0
M  V30 3841 H 361.343 -4.83919 3.33312 0
M  V30 3842 H 362.867 -5.4924 2.66773 0
M  V30 3843 H 364.281 -3.8557 4.24274 0
M  V30 3844 H 362.678 -3.44094 4.9165 0
M  V30 3845 H 363.748 -2.14681 4.34788 0
M  V30 3846 N 365.091 -1.34144 -0.827227 0
M  V30 3847 C 366.337 -1.26446 -1.58554 0
M  V30 3848 C 366.67 0.1664 -1.93486 0
M  V30 3849 O 365.945 1.1107 -1.59667 0
M  V30 3850 C 366.228 -2.15111 -2.8879 0
M  V30 3851 C 366.081 -3.66712 -2.60465 0
M  V30 3852 C 367.4 -2.03311 -3.90324 0
M  V30 3853 H 364.519 -0.46067 -0.575284 0
M  V30 3854 H 367.161 -1.64356 -0.953269 0
M  V30 3855 H 365.311 -1.8291 -3.42748 0
M  V30 3856 H 366.983 -4.09259 -2.1285 0
M  V30 3857 H 365.226 -3.88014 -1.93978 0
M  V30 3858 H 365.897 -4.24112 -3.53317 0
M  V30 3859 H 368.373 -2.31574 -3.45706 0
M  V30 3860 H 367.249 -2.67582 -4.79261 0
M  V30 3861 H 367.51 -1.00879 -4.30437 0
M  V30 3862 N 366.569 1.04691 -1.17803 0
M  V30 3863 C 367.794 1.81984 -0.994813 0
M  V30 3864 C 368.219 1.82586 0.452112 0
M  V30 3865 O 367.577 1.23854 1.324 0
M  V30 3866 C 367.625 3.2575 -1.54659 0
M  V30 3867 O 366.729 4.05267 -0.763728 0
M  V30 3868 H 366.07 0.562483 -0.352857 0
M  V30 3869 H 368.6 1.3189 -1.56417 0
M  V30 3870 H 368.61 3.76541 -1.57102 0
M  V30 3871 H 367.285 3.24627 -2.59981 0
M  V30 3872 H 365.862 3.63972 -0.811108 0
M  V30 3873 N 368.047 0.979072 1.23499 0
M  V30 3874 C 369.295 0.645941 1.91499 0
M  V30 3875 C 369.616 -0.822948 1.76784 0
M  V30 3876 O 368.886 -1.58854 1.14639 0
M  V30 3877 H 367.466 0.235919 0.708767 0
M  V30 3878 H 370.128 1.2426 1.50152 0
M  V30 3879 H 369.224 0.896411 2.9895 0
M  V30 3880 N 369.525 -1.3858 0.750561 0
M  V30 3881 C 370.771 -2.00481 0.305825 0
M  V30 3882 C 371.104 -1.5944 -1.10872 0
M  V30 3883 O 370.379 -0.83052 -1.75877 0
M  V30 3884 C 370.662 -3.5758 0.425287 0
M  V30 3885 C 370.515 -4.08594 1.88072 0
M  V30 3886 C 371.834 -4.39719 -0.183122 0
M  V30 3887 H 368.953 -0.728348 0.112598 0
M  V30 3888 H 371.595 -1.64566 0.949638 0
M  V30 3889 H 369.745 -3.88306 -0.122828 0
M  V30 3890 H 371.417 -3.88523 2.48691 0
M  V30 3891 H 369.66 -3.61574 2.39681 0
M  V30 3892 H 370.331 -5.177 1.91548 0
M  V30 3893 H 372.807 -4.15128 0.284303 0
M  V30 3894 H 371.683 -5.48856 -0.0692757 0
M  V30 3895 H 371.944 -4.23434 -1.27106 0
M  V30 3896 N 371.003 -0.499398 -1.49478 0
M  V30 3897 C 372.414 -0.051215 -1.8663 0
M  V30 3898 C 372.765 1.36238 -1.41186 0
M  V30 3899 O 371.89 2.01502 -0.789051 0
M  V30 3900 C 372.485 -0.0861651 -3.3869 0
M  V30 3901 C 371.044 0.30667 -3.75149 0
M  V30 3902 C 370.191 -0.459397 -2.73468 0
M  V30 3903 H 373.142 -0.712264 -1.41818 0
M  V30 3904 H 373.163 0.709507 -3.73826 0
M  V30 3905 H 372.675 -1.11512 -3.71735 0
M  V30 3906 H 370.776 1.33892 -3.47712 0
M  V30 3907 H 370.889 -0.0116669 -4.79099 0
M  V30 3908 H 369.253 0.0905645 -2.54539 0
M  V30 3909 H 370.036 -1.4884 -3.09357 0
M  V30 3910 N 372.481 1.55866 -0.233164 0
M  V30 3911 C 373.706 2.03449 0.402906 0
M  V30 3912 C 374.131 1.11166 1.51736 0
M  V30 3913 O 373.489 0.101996 1.81013 0
M  V30 3914 C 373.537 3.49165 0.9009 0
M  V30 3915 O 372.641 3.60019 2.01147 0
M  V30 3916 H 371.982 0.657913 0.0897025 0
M  V30 3917 H 374.512 2.01493 -0.355201 0
M  V30 3918 H 374.522 3.89716 1.2077 0
M  V30 3919 H 373.197 4.15813 0.0852889 0
M  V30 3920 H 371.774 3.3136 1.71042 0
M  V30 3921 N 373.959 -0.0401083 1.57549 0
M  V30 3922 C 374.889 -1.04384 2.08869 0
M  V30 3923 C 375.87 -1.38407 0.988817 0
M  V30 3924 O 377.055 -1.47483 1.26342 0
M  V30 3925 C 374.185 -2.34808 2.55895 0
M  V30 3926 C 373.139 -2.15057 3.70047 0
M  V30 3927 C 372.465 -3.51145 4.03239 0
M  V30 3928 C 373.765 -1.54576 4.98902 0
M  V30 3929 H 375.459 -0.616666 2.92981 0
M  V30 3930 H 373.005 -0.295184 1.40942 0
M  V30 3931 H 374.958 -3.05346 2.90417 0
M  V30 3932 H 373.682 -2.79565 1.68853 0
M  V30 3933 H 372.341 -1.46954 3.35857 0
M  V30 3934 H 371.989 -3.93529 3.13279 0
M  V30 3935 H 371.689 -3.38758 4.80122 0
M  V30 3936 H 373.213 -4.23062 4.40285 0
M  V30 3937 H 374.627 -2.15017 5.31451 0
M  V30 3938 H 373.024 -1.52796 5.80322 0
M  V30 3939 H 374.094 -0.51039 4.82206 0
M  V30 3940 N 375.437 -1.54477 -0.31217 0
M  V30 3941 C 376.369 -1.81011 -1.40598 0
M  V30 3942 C 377.382 -0.692546 -1.47335 0
M  V30 3943 O 378.571 -0.969847 -1.49854 0
M  V30 3944 C 375.671 -1.92307 -2.79054 0
M  V30 3945 C 374.844 -3.22594 -2.95384 0
M  V30 3946 C 373.903 -3.24448 -4.1427 0
M  V30 3947 O 372.929 -3.98035 -4.06887 0
M  V30 3948 N 374.131 -2.49042 -5.24365 0
M  V30 3949 H 376.896 -2.75408 -1.18196 0
M  V30 3950 H 374.457 -1.53914 -0.502202 0
M  V30 3951 H 376.449 -1.90962 -3.56813 0
M  V30 3952 H 375.019 -1.04955 -2.94454 0
M  V30 3953 H 374.239 -3.36806 -2.04831 0
M  V30 3954 H 375.527 -4.08593 -3.03198 0
M  V30 3955 H 374.925 -1.88867 -5.33241 0
M  V30 3956 H 373.482 -2.53463 -6.005 0
M  V30 3957 N 376.915 0.57481 -1.46744 0
M  V30 3958 C 378.161 1.3347 -1.52688 0
M  V30 3959 C 378.494 1.93353 -0.181229 0
M  V30 3960 O 377.769 1.76912 0.808237 0
M  V30 3961 C 378.052 2.45811 -2.63152 0
M  V30 3962 C 377.905 1.90912 -4.07275 0
M  V30 3963 C 379.224 3.47822 -2.69644 0
M  V30 3964 H 376.343 0.483935 -0.555856 0
M  V30 3965 H 378.985 0.644968 -1.78718 0
M  V30 3966 H 377.135 3.04646 -2.41088 0
M  V30 3967 H 378.807 1.36473 -4.4065 0
M  V30 3968 H 377.05 1.21691 -4.16382 0
M  V30 3969 H 377.721 2.72042 -4.80309 0
M  V30 3970 H 380.197 2.9888 -2.895 0
M  V30 3971 H 379.073 4.23876 -3.48742 0
M  V30 3972 H 379.334 4.05555 -1.76005 0
M  V30 3973 N 378.394 1.34581 0.820102 0
M  V30 3974 C 379.64 1.27285 1.57881 0
M  V30 3975 C 379.973 -0.156137 1.93571 0
M  V30 3976 O 379.248 -1.10222 1.60254 0
M  V30 3977 C 379.531 2.16639 2.87645 0
M  V30 3978 C 379.384 3.68088 2.58517 0
M  V30 3979 C 380.703 2.05378 3.8924 0
M  V30 3980 H 377.822 0.463714 0.572833 0
M  V30 3981 H 380.464 1.64859 0.944539 0
M  V30 3982 H 378.614 1.84725 3.41773 0
M  V30 3983 H 380.286 4.10382 2.10676 0
M  V30 3984 H 378.529 3.89038 1.91917 0
M  V30 3985 H 379.2 4.2598 3.51063 0
M  V30 3986 H 381.676 2.33404 3.44473 0
M  V30 3987 H 380.552 2.7012 4.77835 0
M  V30 3988 H 380.813 1.0316 4.29896 0
M  V30 3989 N 379.872 -1.04064 1.18357 0
M  V30 3990 C 380.802 -2.14001 0.934113 0
M  V30 3991 C 381.783 -1.69616 -0.128186 0
M  V30 3992 O 382.968 -1.94185 0.0244093 0
M  V30 3993 C 380.098 -3.44253 0.459066 0
M  V30 3994 C 379.052 -4.02261 1.46185 0
M  V30 3995 C 378.378 -5.27992 0.844322 0
M  V30 3996 C 379.678 -4.38432 2.83856 0
M  V30 3997 H 381.372 -2.35127 1.85352 0
M  V30 3998 H 378.918 -1.12998 0.892604 0
M  V30 3999 H 380.871 -4.20522 0.271907 0
M  V30 4000 H 379.595 -3.22813 -0.495912 0
M  V30 4001 H 378.254 -3.28074 1.63595 0
M  V30 4002 H 377.902 -5.02862 -0.117845 0
M  V30 4003 H 377.602 -5.67765 1.51384 0
M  V30 4004 H 379.126 -6.06938 0.667693 0
M  V30 4005 H 380.54 -5.05688 2.70098 0
M  V30 4006 H 378.937 -4.89254 3.47491 0
M  V30 4007 H 380.007 -3.4826 3.37406 0
M  V30 4008 N 381.35 -0.985608 -1.22978 0
M  V30 4009 C 382.298 -0.522631 -2.26652 0
M  V30 4010 C 383.292 0.422998 -1.64034 0
M  V30 4011 O 384.498 0.296319 -1.77544 0
M  V30 4012 H 380.873 -0.150597 -0.736766 0
M  V30 4013 H 382.844 -1.40863 -2.63059 0
M  V30 4014 C 381.593 0.154238 -3.47358 0
M  V30 4015 H 380.916 -0.564329 -3.95797 0
M  V30 4016 H 382.356 0.441744 -4.21693 0
M  V30 4017 C 380.815 1.38719 -3.07016 0
M  V30 4018 O 381.345 2.48307 -3.15764 0
M  V30 4019 N 379.551 1.25975 -2.61875 0
M  V30 4020 H 379.098 0.368068 -2.54957 0
M  V30 4021 H 379.056 2.08578 -2.3525 0
M  V30 4022 N 382.828 1.3818 -0.7579 0
M  V30 4023 C 384.053 2.04827 -0.325679 0
M  V30 4024 C 384.478 1.56788 1.03919 0
M  V30 4025 O 383.836 0.721811 1.66312 0
M  V30 4026 C 383.884 3.58774 -0.362447 0
M  V30 4027 O 382.988 4.07372 0.642033 0
M  V30 4028 H 382.329 0.64833 -0.143402 0
M  V30 4029 H 384.859 1.7677 -1.03023 0
M  V30 4030 H 384.869 4.07434 -0.214844 0
M  V30 4031 H 383.544 3.93096 -1.35824 0
M  V30 4032 H 382.121 3.70068 0.458688 0
M  V30 4033 N 384.306 0.507319 1.49211 0
M  V30 4034 C 385.555 -0.0368315 2.01666 0
M  V30 4035 C 385.868 -1.37459 1.39156 0
M  V30 4036 O 387.074 -2.00579 1.82976 0
M  V30 4037 C 385.53 -0.116089 3.59713 0
M  V30 4038 C 385.138 1.2154 4.31198 0
M  V30 4039 C 386.882 -0.610268 4.2009 0
M  V30 4040 C 384.789 1.09796 5.81119 0
M  V30 4041 H 383.719 -0.0175376 0.753796 0
M  V30 4042 H 386.37 0.647691 1.71689 0
M  V30 4043 H 384.752 -0.8652 3.86433 0
M  V30 4044 H 385.926 1.9783 4.16173 0
M  V30 4045 H 384.241 1.64352 3.82593 0
M  V30 4046 H 386.838 -0.715742 5.29888 0
M  V30 4047 H 387.181 -1.61064 3.8388 0
M  V30 4048 H 387.714 0.0824916 3.97714 0
M  V30 4049 H 384.453 2.0728 6.21864 0
M  V30 4050 H 383.973 0.376058 5.9862 0
M  V30 4051 H 385.652 0.779281 6.4229 0
M  V30 4052 N 385.784 -1.5574 0.241426 0
M  V30 4053 C 387.033 -1.97986 -0.385295 0
M  V30 4054 C 387.346 -1.13267 -1.59468 0
M  V30 4055 O 388.552 -1.45501 -2.2922 0
M  V30 4056 C 387.008 -3.52275 -0.736884 0
M  V30 4057 C 386.616 -4.45726 0.450796 0
M  V30 4058 C 388.36 -4.03189 -1.3281 0
M  V30 4059 C 386.267 -5.91352 0.0756662 0
M  V30 4060 H 385.197 -0.739386 -0.147731 0
M  V30 4061 H 387.848 -1.80308 0.340779 0
M  V30 4062 H 386.23 -3.65628 -1.52094 0
M  V30 4063 H 387.404 -4.44131 1.22819 0
M  V30 4064 H 385.719 -4.05264 0.956573 0
M  V30 4065 H 388.316 -5.09505 -1.62201 0
M  V30 4066 H 388.659 -3.50212 -2.25071 0
M  V30 4067 H 389.192 -3.93141 -0.607069 0
M  V30 4068 H 385.931 -6.48354 0.965272 0
M  V30 4069 H 385.451 -5.96095 -0.665635 0
M  V30 4070 H 387.13 -6.46084 -0.344075 0
M  V30 4071 N 387.262 0.0317525 -1.57568 0
M  V30 4072 C 388.209 1.0332 -2.06382 0
M  V30 4073 C 389.179 1.36082 -0.952414 0
M  V30 4074 O 390.364 1.46466 -1.2228 0
M  V30 4075 C 387.504 2.32989 -2.54578 0
M  V30 4076 C 386.617 2.0641 -3.79498 0
M  V30 4077 C 385.752 3.2993 -4.16317 0
M  V30 4078 C 384.791 2.98893 -5.34162 0
M  V30 4079 N 383.928 4.14857 -5.66426 0
M  V30 4080 H 388.768 0.609982 -2.9169 0
M  V30 4081 H 386.305 0.289573 -1.44222 0
M  V30 4082 H 388.263 3.0875 -2.80587 0
M  V30 4083 H 386.893 2.73039 -1.7219 0
M  V30 4084 H 385.945 1.21158 -3.6059 0
M  V30 4085 H 387.257 1.79513 -4.65378 0
M  V30 4086 H 386.411 4.1406 -4.4344 0
M  V30 4087 H 385.15 3.59938 -3.29083 0
M  V30 4088 H 384.155 2.13164 -5.06795 0
M  V30 4089 H 385.38 2.70165 -6.23047 0
M  V30 4090 H 383.326 4.44821 -4.82151 0
M  V30 4091 H 383.243 3.91374 -6.4681 0
M  V30 4092 H 384.511 4.99868 -5.98124 0
M  V30 4093 N 388.74 1.54641 0.303973 0
M  V30 4094 C 389.703 1.84646 1.35789 0
M  V30 4095 C 390.703 0.7192 1.4382 0
M  V30 4096 O 391.893 0.987491 1.43507 0
M  V30 4097 C 389.025 2.02407 2.74307 0
M  V30 4098 H 390.218 2.78829 1.10429 0
M  V30 4099 H 387.771 1.46658 0.540487 0
M  V30 4100 H 388.506 1.10502 3.04893 0
M  V30 4101 H 388.291 2.84453 2.69868 0
M  V30 4102 H 389.781 2.27002 3.50514 0
M  V30 4103 N 390.218 -0.567019 1.47046 0
M  V30 4104 C 391.151 -1.69016 1.53326 0
M  V30 4105 C 392.129 -1.57949 0.386126 0
M  V30 4106 O 393.313 -1.78945 0.592529 0
M  V30 4107 C 390.44 -3.07191 1.42658 0
M  V30 4108 C 389.486 -3.36733 2.6175 0
M  V30 4109 S 390.319 -3.27069 4.24012 0
M  V30 4110 C 391.475 -4.67755 4.1588 0
M  V30 4111 H 391.708 -1.63434 2.48348 0
M  V30 4112 H 389.241 -0.747048 1.35124 0
M  V30 4113 H 391.199 -3.86897 1.37191 0
M  V30 4114 H 389.86 -3.10249 0.490369 0
M  V30 4115 H 389.053 -4.37441 2.50323 0
M  V30 4116 H 388.655 -2.64627 2.64289 0
M  V30 4117 H 390.947 -5.58491 3.83529 0
M  V30 4118 H 391.89 -4.84239 5.16641 0
M  V30 4119 H 392.298 -4.45341 3.46889 0
M  V30 4120 N 391.696 -1.35014 -0.812953 0
M  V30 4121 C 392.942 -1.2812 -1.57204 0
M  V30 4122 C 393.275 0.145869 -1.93651 0
M  V30 4123 O 392.55 1.0937 -1.60836 0
M  V30 4124 C 392.833 -2.18162 -2.86492 0
M  V30 4125 C 392.686 -3.69454 -2.56561 0
M  V30 4126 C 394.005 -2.07439 -3.88145 0
M  V30 4127 H 391.124 -0.466746 -0.570366 0
M  V30 4128 H 393.766 -1.65357 -0.935783 0
M  V30 4129 H 391.916 -1.86535 -3.40789 0
M  V30 4130 H 393.588 -4.11493 -2.08497 0
M  V30 4131 H 391.831 -3.9005 -1.89851 0
M  V30 4132 H 392.502 -4.27835 -3.48799 0
M  V30 4133 H 394.978 -2.35228 -3.4323 0
M  V30 4134 H 393.854 -2.7265 -4.76396 0
M  V30 4135 H 394.115 -1.05439 -4.29343 0
M  V30 4136 N 393.175 1.03435 -1.18907 0
M  V30 4137 C 394.586 1.58195 -0.991523 0
M  V30 4138 C 394.937 1.90801 0.457081 0
M  V30 4139 O 394.062 1.70272 1.33553 0
M  V30 4140 C 394.657 2.87432 -1.79355 0
M  V30 4141 C 393.216 3.38785 -1.64017 0
M  V30 4142 C 392.363 2.12292 -1.78402 0
M  V30 4143 H 395.314 0.860299 -1.33359 0
M  V30 4144 H 395.335 3.58096 -1.28638 0
M  V30 4145 H 394.847 2.63669 -2.84781 0
M  V30 4146 H 392.948 3.67547 -0.611536 0
M  V30 4147 H 393.061 4.12186 -2.44212 0
M  V30 4148 H 391.425 2.23901 -1.2141 0
M  V30 4149 H 392.208 1.90977 -2.85277 0
M  V30 4150 N 394.653 0.992116 1.22453 0
M  V30 4151 C 395.583 0.561677 2.26644 0
M  V30 4152 C 396.564 -0.411055 1.65059 0
M  V30 4153 O 397.749 -0.301861 1.9184 0
M  V30 4154 C 394.879 -0.125247 3.47074 0
M  V30 4155 C 393.833 0.765948 4.21091 0
M  V30 4156 C 393.159 -0.0538484 5.34673 0
M  V30 4157 C 394.459 2.06242 4.79856 0
M  V30 4158 H 396.153 1.43259 2.62902 0
M  V30 4159 H 393.699 0.690283 1.26377 0
M  V30 4160 H 395.652 -0.437764 4.1912 0
M  V30 4161 H 394.376 -1.03069 3.0991 0
M  V30 4162 H 393.035 1.0621 3.50878 0
M  V30 4163 H 392.683 -0.960188 4.9375 0
M  V30 4164 H 392.383 0.539415 5.85119 0
M  V30 4165 H 393.907 -0.360477 6.09535 0
M  V30 4166 H 395.321 1.8139 5.43848 0
M  V30 4167 H 393.718 2.60444 5.40638 0
M  V30 4168 H 394.788 2.74167 3.99951 0
M  V30 4169 N 396.131 -1.37776 0.765217 0
M  V30 4170 C 397.061 -2.32945 0.160953 0
M  V30 4171 C 398.042 -1.55454 -0.690516 0
M  V30 4172 O 399.227 -1.83721 -0.629318 0
M  V30 4173 C 396.357 -3.39669 -0.724031 0
M  V30 4174 C 395.311 -4.27992 0.0256173 0
M  V30 4175 C 394.637 -5.25673 -0.978383 0
M  V30 4176 C 395.937 -5.08309 1.20082 0
M  V30 4177 H 397.631 -2.83728 0.955969 0
M  V30 4178 H 395.177 -1.36416 0.461149 0
M  V30 4179 H 397.13 -4.05219 -1.15652 0
M  V30 4180 H 395.854 -2.87396 -1.5515 0
M  V30 4181 H 394.513 -3.63964 0.438812 0
M  V30 4182 H 394.161 -4.69682 -1.80022 0
M  V30 4183 H 393.861 -5.85625 -0.481378 0
M  V30 4184 H 395.385 -5.94098 -1.40995 0
M  V30 4185 H 396.799 -5.67034 0.845307 0
M  V30 4186 H 395.196 -5.77554 1.62947 0
M  V30 4187 H 396.266 -4.41365 2.00811 0
M  V30 4188 N 397.609 -0.515225 -1.4894 0
M  V30 4189 C 398.559 0.275113 -2.26334 0
M  V30 4190 C 399.543 0.923007 -1.31793 0
M  V30 4191 O 400.735 0.828254 -1.56426 0
M  V30 4192 C 397.864 1.33041 -3.16473 0
M  V30 4193 C 396.95 0.688051 -4.18481 0
M  V30 4194 N 397.341 -0.217638 -5.05332 0
M  V30 4195 C 395.639 0.94699 -4.3583 0
M  V30 4196 C 396.34 -0.58676 -5.78733 0
M  V30 4197 N 395.316 0.0486966 -5.43578 0
M  V30 4198 H 399.118 -0.421876 -2.90856 0
M  V30 4199 H 396.632 -0.332249 -1.58965 0
M  V30 4200 H 398.629 1.9102 -3.70563 0
M  V30 4201 H 397.289 2.02894 -2.53504 0
M  V30 4202 H 398.3 -0.589343 -5.14536 0
M  V30 4203 H 394.977 1.63719 -3.8406 0
M  V30 4204 H 396.367 -1.32855 -6.58634 0
M  V30 4205 N 399.087 1.5561 -0.249682 0
M  V30 4206 C 400.336 1.98187 0.37479 0
M  V30 4207 C 400.649 1.14111 1.58865 0
M  V30 4208 O 401.855 1.46714 2.28445 0
M  V30 4209 C 400.311 3.52661 0.718192 0
M  V30 4210 C 399.919 4.45481 -0.474428 0
M  V30 4211 C 401.663 4.03888 1.3067 0
M  V30 4212 C 399.57 5.91303 -0.107026 0
M  V30 4213 H 398.5 0.740159 0.143808 0
M  V30 4214 H 401.151 1.80125 -0.350336 0
M  V30 4215 H 399.533 3.66429 1.50152 0
M  V30 4216 H 400.707 4.43473 -1.25172 0
M  V30 4217 H 399.022 4.04751 -0.978052 0
M  V30 4218 H 401.619 5.10358 1.59496 0
M  V30 4219 H 401.962 3.51401 2.23211 0
M  V30 4220 H 402.495 3.93457 0.586211 0
M  V30 4221 H 399.234 6.47833 -0.999642 0
M  V30 4222 H 398.754 5.9644 0.634013 0
M  V30 4223 H 400.433 6.46258 0.309807 0
M  V30 4224 N 400.565 -0.0233959 1.57583 0
M  V30 4225 C 401.528 -1.00693 2.05897 0
M  V30 4226 C 402.528 -1.28693 0.964092 0
M  V30 4227 O 403.718 -1.23602 1.22753 0
M  V30 4228 C 400.85 -2.33825 2.4807 0
M  V30 4229 H 402.043 -0.589476 2.9405 0
M  V30 4230 H 399.596 -0.270354 1.53944 0
M  V30 4231 H 400.331 -2.80307 1.6309 0
M  V30 4232 H 400.116 -2.1483 3.2801 0
M  V30 4233 H 401.606 -3.04426 2.85857 0
M  V30 4234 N 402.043 -1.548 -0.295768 0
M  V30 4235 C 402.973 -1.89115 -1.36959 0
M  V30 4236 C 403.954 -0.75059 -1.52644 0
M  V30 4237 O 405.139 -1.00678 -1.66065 0
M  V30 4238 C 402.269 -2.14307 -2.73295 0
M  V30 4239 C 401.223 -3.30151 -2.72368 0
M  V30 4240 C 400.549 -3.40772 -4.12042 0
M  V30 4241 C 401.849 -4.67126 -2.33646 0
M  V30 4242 H 403.543 -2.79053 -1.08488 0
M  V30 4243 H 401.089 -1.34266 -0.520443 0
M  V30 4244 H 403.042 -2.36898 -3.48507 0
M  V30 4245 H 401.766 -1.21145 -3.03301 0
M  V30 4246 H 400.425 -3.0749 -1.99613 0
M  V30 4247 H 400.073 -2.45117 -4.39234 0
M  V30 4248 H 399.773 -4.18645 -4.12322 0
M  V30 4249 H 401.297 -3.6563 -4.89027 0
M  V30 4250 H 402.711 -4.89414 -2.98575 0
M  V30 4251 H 401.108 -5.47751 -2.45129 0
M  V30 4252 H 402.178 -4.67489 -1.28772 0
M  V30 4253 N 403.521 0.559213 -1.47345 0
M  V30 4254 C 404.451 1.67622 -1.62558 0
M  V30 4255 C 405.432 1.63331 -0.475087 0
M  V30 4256 O 406.617 1.80983 -0.704182 0
M  V30 4257 C 403.747 3.0626 -1.63774 0
M  V30 4258 C 402.701 3.25397 -2.7803 0
M  V30 4259 C 402.027 4.64801 -2.64318 0
M  V30 4260 C 403.327 3.10965 -4.19641 0
M  V30 4261 H 405.021 1.55146 -2.56067 0
M  V30 4262 H 402.567 0.744961 -1.23233 0
M  V30 4263 H 404.52 3.84247 -1.73008 0
M  V30 4264 H 403.244 3.1969 -0.66825 0
M  V30 4265 H 401.903 2.49817 -2.68304 0
M  V30 4266 H 401.551 4.75028 -1.65401 0
M  V30 4267 H 401.251 4.78555 -3.40968 0
M  V30 4268 H 402.775 5.44926 -2.75478 0
M  V30 4269 H 404.189 3.78772 -4.30354 0
M  V30 4270 H 402.586 3.36229 -4.97062 0
M  V30 4271 H 403.656 2.07736 -4.38148 0
M  V30 4272 N 404.999 1.35443 0.805782 0
M  V30 4273 C 406.245 1.28952 1.56522 0
M  V30 4274 C 406.578 -0.135597 1.93726 0
M  V30 4275 O 405.853 -1.08516 1.61414 0
M  V30 4276 C 406.136 2.19678 2.85331 0
M  V30 4277 C 405.989 3.7081 2.54598 0
M  V30 4278 C 407.308 2.09495 3.8704 0
M  V30 4279 H 404.427 0.469764 0.567883 0
M  V30 4280 H 407.069 1.65851 0.927001 0
M  V30 4281 H 405.219 1.8834 3.39795 0
M  V30 4282 H 406.891 4.12593 2.06312 0
M  V30 4283 H 405.134 3.91051 1.8778 0
M  V30 4284 H 405.805 4.29679 3.46525 0
M  V30 4285 H 408.281 2.37045 3.41978 0
M  V30 4286 H 407.157 2.75173 4.74943 0
M  V30 4287 H 407.418 1.07714 4.28777 0
M  V30 4288 N 406.477 -1.02803 1.19454 0
M  V30 4289 C 407.407 -2.12999 0.956758 0
M  V30 4290 C 408.388 -1.69743 -0.110188 0
M  V30 4291 O 409.573 -1.94148 0.0450038 0
M  V30 4292 C 406.703 -3.43746 0.495553 0
M  V30 4293 C 405.657 -4.00688 1.50443 0
M  V30 4294 C 404.983 -5.27067 0.900275 0
M  V30 4295 C 406.283 -4.35397 2.8849 0
M  V30 4296 H 407.977 -2.33148 1.87836 0
M  V30 4297 H 405.523 -1.12045 0.904539 0
M  V30 4298 H 407.476 -4.2021 0.316493 0
M  V30 4299 H 406.2 -3.23321 -0.461646 0
M  V30 4300 H 404.859 -3.2632 1.67065 0
M  V30 4301 H 404.507 -5.02959 -0.064503 0
M  V30 4302 H 404.207 -5.66127 1.57397 0
M  V30 4303 H 405.731 -6.06196 0.73203 0
M  V30 4304 H 407.145 -5.02795 2.75446 0
M  V30 4305 H 405.542 -4.85541 3.52661 0
M  V30 4306 H 406.612 -3.44662 3.41081 0
M  V30 4307 N 407.956 -0.998596 -1.21925 0
M  V30 4308 C 409.203 -0.677663 -1.90824 0
M  V30 4309 C 409.531 0.790905 -1.77693 0
M  V30 4310 O 408.786 1.58817 -1.14349 0
M  V30 4311 C 409.085 -1.03648 -3.42041 0
M  V30 4312 C 408.751 -2.49825 -3.75364 0
M  V30 4313 C 407.413 -2.8977 -3.8417 0
M  V30 4314 C 409.765 -3.44545 -3.91073 0
M  V30 4315 C 407.093 -4.23412 -4.06127 0
M  V30 4316 C 409.445 -4.77853 -4.14535 0
M  V30 4317 C 408.109 -5.17531 -4.21566 0
M  V30 4318 H 407.379 -0.247975 -0.698276 0
M  V30 4319 H 410.026 -1.25584 -1.44571 0
M  V30 4320 H 408.331 -0.376457 -3.89987 0
M  V30 4321 H 410.028 -0.766113 -3.93614 0
M  V30 4322 H 406.618 -2.17866 -3.69097 0
M  V30 4323 H 410.802 -3.14853 -3.83642 0
M  V30 4324 H 406.058 -4.53734 -4.09799 0
M  V30 4325 H 410.232 -5.51189 -4.25633 0
M  V30 4326 H 407.859 -6.21102 -4.38333 0
M  V30 4327 N 409.434 1.37368 -0.772513 0
M  V30 4328 C 410.68 1.99969 -0.337681 0
M  V30 4329 C 411.013 1.61184 1.08321 0
M  V30 4330 O 410.288 0.858395 1.74533 0
M  V30 4331 C 410.571 3.56858 -0.482121 0
M  V30 4332 C 410.424 4.0555 -1.94549 0
M  V30 4333 C 411.743 4.39955 0.113143 0
M  V30 4334 H 408.862 0.726464 -0.124171 0
M  V30 4335 H 411.504 1.63034 -0.975699 0
M  V30 4336 H 409.654 3.88452 0.0610361 0
M  V30 4337 H 411.326 3.84518 -2.54841 0
M  V30 4338 H 409.569 3.57715 -2.45403 0
M  V30 4339 H 410.24 5.14587 -1.9976 0
M  V30 4340 H 412.716 4.14623 -0.35031 0
M  V30 4341 H 411.592 5.48897 -0.0180514 0
M  V30 4342 H 411.853 4.25403 1.20354 0
M  V30 4343 N 410.912 0.523116 1.48665 0
M  V30 4344 C 412.161 -0.01544 2.01694 0
M  V30 4345 C 412.474 -1.35975 1.40606 0
M  V30 4346 O 413.68 -1.98627 1.85093 0
M  V30 4347 C 412.136 -0.0779303 3.59816 0
M  V30 4348 C 411.744 1.26107 4.29885 0
M  V30 4349 C 413.488 -0.565678 4.20714 0
M  V30 4350 C 411.395 1.15954 5.79921 0
M  V30 4351 H 410.325 -0.00954163 0.75394 0
M  V30 4352 H 412.976 0.665865 1.70993 0
M  V30 4353 H 411.358 -0.824165 3.87329 0
M  V30 4354 H 412.532 2.02233 4.14051 0
M  V30 4355 H 410.847 1.68401 3.80828 0
M  V30 4356 H 413.444 -0.6595 5.30617 0
M  V30 4357 H 413.787 -1.56984 3.85567 0
M  V30 4358 H 414.32 0.12467 3.97605 0
M  V30 4359 H 411.059 2.13864 6.19631 0
M  V30 4360 H 410.579 0.439529 5.98187 0
M  V30 4361 H 412.258 0.847361 6.41427 0
M  V30 4362 N 412.39 -1.55475 0.257931 0
M  V30 4363 C 413.639 -1.98383 -0.364275 0
M  V30 4364 C 413.952 -1.14952 -1.58258 0
M  V30 4365 O 415.158 -1.47924 -2.27664 0
M  V30 4366 C 413.614 -3.53037 -0.699479 0
M  V30 4367 C 413.222 -4.45223 0.498046 0
M  V30 4368 C 414.966 -4.04575 -1.28526 0
M  V30 4369 C 412.873 -5.91238 0.138383 0
M  V30 4370 H 411.803 -0.740911 -0.13988 0
M  V30 4371 H 414.454 -1.79936 0.359883 0
M  V30 4372 H 412.836 -3.6722 -1.48207 0
M  V30 4373 H 414.01 -4.42803 1.27522 0
M  V30 4374 H 412.325 -4.04226 0.999503 0
M  V30 4375 H 414.922 -5.11196 -1.56788 0
M  V30 4376 H 415.265 -3.5258 -2.21344 0
M  V30 4377 H 415.798 -3.93762 -0.565337 0
M  V30 4378 H 412.537 -6.47294 1.03398 0
M  V30 4379 H 412.057 -5.96768 -0.602374 0
M  V30 4380 H 413.736 -6.46413 -0.27553 0
M  V30 4381 N 413.868 0.0150385 -1.57593 0
M  V30 4382 C 415.117 0.702115 -1.89085 0
M  V30 4383 C 415.43 1.75764 -0.858277 0
M  V30 4384 O 416.636 2.49829 -1.0629 0
M  V30 4385 C 415.092 1.29992 -3.35604 0
M  V30 4386 C 414.7 0.280007 -4.47124 0
M  V30 4387 C 416.444 1.96606 -3.76227 0
M  V30 4388 C 414.351 0.886949 -5.84711 0
M  V30 4389 H 413.281 0.265997 -0.705522 0
M  V30 4390 H 415.932 -0.0430408 -1.8345 0
M  V30 4391 H 414.314 2.09525 -3.36029 0
M  V30 4392 H 415.488 -0.489631 -4.58191 0
M  V30 4393 H 413.803 -0.284835 -4.15425 0
M  V30 4394 H 416.4 2.42893 -4.76347 0
M  V30 4395 H 416.743 2.79024 -3.08952 0
M  V30 4396 H 417.276 1.23828 -3.78036 0
M  V30 4397 H 414.015 0.101876 -6.55421 0
M  V30 4398 H 413.535 1.6261 -5.77337 0
M  V30 4399 H 415.214 1.39011 -6.3189 0
M  V30 4400 N 415.346 1.54954 0.287554 0
M  V30 4401 C 416.576 1.78622 1.03816 0
M  V30 4402 C 416.984 0.552451 1.80955 0
M  V30 4403 O 416.327 -0.487665 1.77109 0
M  V30 4404 C 416.389 2.94975 2.055 0
M  V30 4405 C 416.053 4.32565 1.47433 0
M  V30 4406 C 417.05 5.12096 0.897436 0
M  V30 4407 C 414.735 4.79195 1.50591 0
M  V30 4408 C 416.729 6.36383 0.359851 0
M  V30 4409 C 414.416 6.03441 0.964459 0
M  V30 4410 C 415.414 6.81872 0.392413 0
M  V30 4411 O 415.102 8.03777 -0.140788 0
M  V30 4412 H 414.834 0.599144 0.313053 0
M  V30 4413 H 417.388 2.02761 0.328225 0
M  V30 4414 H 415.618 2.66493 2.80211 0
M  V30 4415 H 417.307 3.06097 2.6657 0
M  V30 4416 H 418.073 4.77209 0.865841 0
M  V30 4417 H 413.952 4.18167 1.94055 0
M  V30 4418 H 417.496 6.97545 -0.0872951 0
M  V30 4419 H 413.393 6.37813 0.993246 0
M  V30 4420 H 414.161 8.18495 -0.0287617 0
M  V30 4421 N 416.824 -0.551391 1.4764 0
M  V30 4422 C 417.787 -1.64007 1.60107 0
M  V30 4423 C 418.787 -1.53601 0.47576 0
M  V30 4424 O 419.977 -1.57655 0.740988 0
M  V30 4425 C 417.109 -3.03569 1.55108 0
M  V30 4426 H 418.302 -1.543 2.57161 0
M  V30 4427 H 415.855 -0.771776 1.35917 0
M  V30 4428 H 416.59 -3.18804 0.594519 0
M  V30 4429 H 416.375 -3.12532 2.36783 0
M  V30 4430 H 417.865 -3.82762 1.66982 0
M  V30 4431 N 418.302 -1.35869 -0.798587 0
M  V30 4432 C 419.551 -1.28921 -1.5512 0
M  V30 4433 C 419.864 0.13208 -1.95154 0
M  V30 4434 O 421.07 0.323879 -2.69561 0
M  V30 4435 C 419.526 -2.26141 -2.79979 0
M  V30 4436 C 419.134 -3.73658 -2.47151 0
M  V30 4437 C 420.878 -2.28152 -3.57976 0
M  V30 4438 C 418.785 -4.62679 -3.6835 0
M  V30 4439 H 417.715 -0.479031 -0.582276 0
M  V30 4440 H 420.366 -1.61179 -0.877125 0
M  V30 4441 H 418.748 -1.86865 -3.49138 0
M  V30 4442 H 419.922 -4.21616 -1.85947 0
M  V30 4443 H 418.237 -3.74333 -1.82383 0
M  V30 4444 H 420.834 -2.91875 -4.4801 0
M  V30 4445 H 421.177 -1.28748 -3.95891 0
M  V30 4446 H 421.71 -2.65998 -2.95787 0
M  V30 4447 H 418.449 -5.63111 -3.35538 0
M  V30 4448 H 417.969 -4.19442 -4.28752 0
M  V30 4449 H 419.648 -4.78498 -4.35487 0
M  V30 4450 N 419.78 1.02168 -1.19998 0
M  V30 4451 C 421.029 1.75091 -1.0013 0
M  V30 4452 C 421.342 1.89923 0.467835 0
M  V30 4453 O 422.548 2.59888 0.785515 0
M  V30 4454 C 421.004 3.14892 -1.74273 0
M  V30 4455 C 420.612 3.0809 -3.25245 0
M  V30 4456 C 422.356 3.9206 -1.62755 0
M  V30 4457 C 420.263 4.42867 -3.91948 0
M  V30 4458 H 419.193 0.656394 -0.37103 0
M  V30 4459 H 421.844 1.14284 -1.43567 0
M  V30 4460 H 420.226 3.7621 -1.2362 0
M  V30 4461 H 421.4 2.5611 -3.83072 0
M  V30 4462 H 419.715 2.44416 -3.3712 0
M  V30 4463 H 422.312 4.91764 -2.09934 0
M  V30 4464 H 422.655 4.12199 -0.582894 0
M  V30 4465 H 423.188 3.37359 -2.10793 0
M  V30 4466 H 419.927 4.27931 -4.96543 0
M  V30 4467 H 419.447 4.94874 -3.3891 0
M  V30 4468 H 421.126 5.11728 -3.95909 0
M  V30 4469 N 421.258 1.00505 1.21394 0
M  V30 4470 C 422.506 0.686415 1.90086 0
M  V30 4471 C 422.827 -0.785264 1.7849 0
M  V30 4472 O 422.097 -1.56387 1.17983 0
M  V30 4473 H 420.677 0.2509 0.703604 0
M  V30 4474 H 423.339 1.27417 1.47482 0
M  V30 4475 H 422.435 0.959621 2.96981 0
M  V30 4476 N 422.737 -1.36956 0.779787 0
M  V30 4477 C 423.667 -2.32761 0.185651 0
M  V30 4478 C 424.648 -1.56177 -0.673989 0
M  V30 4479 O 425.833 -1.84378 -0.609797 0
M  V30 4480 C 422.963 -3.40418 -0.687964 0
M  V30 4481 C 421.917 -4.27941 0.0710102 0
M  V30 4482 C 421.243 -5.26681 -0.922573 0
M  V30 4483 C 422.543 -5.07006 1.25467 0
M  V30 4484 H 424.237 -2.82698 0.986008 0
M  V30 4485 H 421.783 -1.3592 0.475592 0
M  V30 4486 H 423.736 -4.06423 -1.11348 0
M  V30 4487 H 422.46 -2.89025 -1.52093 0
M  V30 4488 H 421.119 -3.63478 0.47739 0
M  V30 4489 H 420.767 -4.71565 -1.7503 0
M  V30 4490 H 420.467 -5.86103 -0.419237 0
M  V30 4491 H 421.991 -5.9556 -1.34686 0
M  V30 4492 H 423.405 -5.66105 0.905401 0
M  V30 4493 H 421.802 -5.75793 1.69063 0
M  V30 4494 H 422.872 -4.3921 2.05481 0
M  V30 4495 N 424.215 -0.530993 -1.48385 0
M  V30 4496 C 425.125 0.23503 -2.3342 0
M  V30 4497 C 426.141 0.93801 -1.46552 0
M  V30 4498 O 427.317 0.912745 -1.7953 0
M  V30 4499 C 424.382 1.26778 -3.22689 0
M  V30 4500 C 423.443 0.575038 -4.25431 0
M  V30 4501 C 422.676 1.55858 -5.10435 0
M  V30 4502 O 422.899 2.79129 -4.97437 0
M  V30 4503 O 421.833 1.09742 -5.91811 0
M  V30 4504 H 425.659 -0.461794 -3.00169 0
M  V30 4505 H 423.244 -0.291903 -1.46521 0
M  V30 4506 H 425.126 1.86457 -3.77904 0
M  V30 4507 H 423.801 1.94699 -2.586 0
M  V30 4508 H 422.708 -0.0622782 -3.74048 0
M  V30 4509 H 424.041 -0.062253 -4.92161 0
M  V30 4510 N 425.693 1.55336 -0.266172 0
M  V30 4511 C 426.623 2.25146 0.618981 0
M  V30 4512 C 427.604 1.23845 1.16604 0
M  V30 4513 O 428.789 1.52544 1.20183 0
M  V30 4514 C 425.919 2.96572 1.80728 0
M  V30 4515 C 424.873 4.04726 1.39215 0
M  V30 4516 C 424.199 4.63678 2.66283 0
M  V30 4517 C 425.499 5.19407 0.548942 0
M  V30 4518 H 427.193 2.99377 0.0368116 0
M  V30 4519 H 424.739 1.43991 0.0162651 0
M  V30 4520 H 426.692 3.44116 2.43232 0
M  V30 4521 H 425.416 2.19861 2.41514 0
M  V30 4522 H 424.075 3.57979 0.790351 0
M  V30 4523 H 423.723 3.83646 3.25308 0
M  V30 4524 H 423.423 5.367 2.39222 0
M  V30 4525 H 424.947 5.13967 3.29651 0
M  V30 4526 H 426.361 5.63059 1.07876 0
M  V30 4527 H 424.758 5.98936 0.373593 0
M  V30 4528 H 425.828 4.8295 -0.434394 0
M  V30 4529 N 427.171 -0.0066808 1.57599 0
M  V30 4530 C 428.418 -0.69292 1.90276 0
M  V30 4531 C 428.746 -1.74148 0.866192 0
M  V30 4532 O 428.001 -1.95268 -0.129933 0
M  V30 4533 C 428.3 -1.37939 3.29708 0
M  V30 4534 C 427.966 -0.464679 4.48499 0
M  V30 4535 C 426.628 -0.212809 4.80729 0
M  V30 4536 C 428.98 0.16551 5.20937 0
M  V30 4537 C 426.308 0.677653 5.82773 0
M  V30 4538 C 428.66 1.04381 6.23929 0
M  V30 4539 C 427.324 1.30492 6.54621 0
M  V30 4540 H 426.594 -0.253558 0.696268 0
M  V30 4541 H 429.241 0.0474123 1.91441 0
M  V30 4542 H 427.546 -2.1936 3.24636 0
M  V30 4543 H 429.243 -1.9163 3.52249 0
M  V30 4544 H 425.833 -0.671153 4.23313 0
M  V30 4545 H 430.017 -0.0160756 4.96297 0
M  V30 4546 H 425.273 0.88803 6.04917 0
M  V30 4547 H 429.447 1.53851 6.79193 0
M  V30 4548 H 427.074 1.99662 7.33512 0
M  V30 4549 N 428.649 -1.55105 -0.279332 0
M  V30 4550 C 429.582 -1.82467 -1.37044 0
M  V30 4551 C 430.56 -0.677261 -1.47824 0
M  V30 4552 O 431.744 -0.919578 -1.64548 0
M  V30 4553 C 428.871 -1.98066 -2.7475 0
M  V30 4554 C 427.917 -3.20594 -2.81286 0
M  V30 4555 S 428.75 -4.78116 -2.41175 0
M  V30 4556 C 429.906 -4.9668 -3.80867 0
M  V30 4557 H 430.139 -2.74728 -1.1363 0
M  V30 4558 H 427.672 -1.46794 -0.478625 0
M  V30 4559 H 429.63 -2.07739 -3.54055 0
M  V30 4560 H 428.291 -1.06704 -2.9542 0
M  V30 4561 H 427.484 -3.28376 -3.82341 0
M  V30 4562 H 427.086 -3.09479 -2.09996 0
M  V30 4563 H 429.378 -4.82033 -4.76078 0
M  V30 4564 H 430.321 -5.98741 -3.78041 0
M  V30 4565 H 430.729 -4.24698 -3.71876 0
M  V30 4566 N 430.127 0.543554 -1.4793 0
M  V30 4567 C 431.375 1.29752 -1.54948 0
M  V30 4568 C 431.696 1.93764 -0.219242 0
M  V30 4569 O 430.966 1.80639 0.75805 0
M  V30 4570 H 429.546 0.481874 -0.570795 0
M  V30 4571 H 432.208 0.633636 -1.84312 0
M  V30 4572 H 431.304 2.08392 -2.32334 0
M  V30 4573 N 431.605 1.3629 0.791371 0
M  V30 4574 C 432.552 1.30458 1.90393 0
M  V30 4575 C 433.522 0.173632 1.6519 0
M  V30 4576 O 434.707 0.35983 1.87376 0
M  V30 4577 C 431.847 1.09777 3.27174 0
M  V30 4578 C 430.96 2.31929 3.64462 0
M  V30 4579 C 430.095 2.04276 4.90352 0
M  V30 4580 C 429.134 3.224 5.20312 0
M  V30 4581 N 428.271 2.94424 6.37385 0
M  V30 4582 H 433.111 2.25589 1.94714 0
M  V30 4583 H 430.648 1.12122 0.952216 0
M  V30 4584 H 432.606 0.958133 4.06049 0
M  V30 4585 H 431.236 0.183014 3.22281 0
M  V30 4586 H 430.288 2.56703 2.80727 0
M  V30 4587 H 431.6 3.20085 3.82553 0
M  V30 4588 H 430.754 1.87231 5.77087 0
M  V30 4589 H 429.493 1.13428 4.74326 0
M  V30 4590 H 428.498 3.40005 4.32061 0
M  V30 4591 H 429.723 4.14071 5.38258 0
M  V30 4592 H 427.669 2.06185 6.22755 0
M  V30 4593 H 427.586 3.76118 6.55798 0
M  V30 4594 H 428.854 2.80953 7.27108 0
M  V30 4595 N 433.083 -1.0153 1.20538 0
M  V30 4596 C 434.016 -2.09759 0.898695 0
M  V30 4597 C 434.994 -1.61909 -0.149733 0
M  V30 4598 O 436.178 -1.88486 -0.0230293 0
M  V30 4599 C 433.305 -3.36913 0.347512 0
M  V30 4600 C 432.351 -4.03655 1.37713 0
M  V30 4601 S 433.184 -4.47402 2.94265 0
M  V30 4602 C 434.34 -5.77756 2.40726 0
M  V30 4603 H 434.573 -2.3545 1.81523 0
M  V30 4604 H 432.106 -1.14665 1.03399 0
M  V30 4605 H 434.064 -4.10484 0.0360518 0
M  V30 4606 H 432.725 -3.09291 -0.547546 0
M  V30 4607 H 431.918 -4.9514 0.940872 0
M  V30 4608 H 431.52 -3.36313 1.63614 0
M  V30 4609 H 433.812 -6.52994 1.80569 0
M  V30 4610 H 434.755 -6.2618 3.30612 0
M  V30 4611 H 435.163 -5.34081 1.82806 0
M  V30 4612 N 434.561 -1.01147 -1.20859 0
M  V30 4613 C 435.511 -0.548247 -2.2131 0
M  V30 4614 C 436.495 0.393646 -1.5601 0
M  V30 4615 O 437.687 0.217445 -1.75659 0
M  V30 4616 C 434.816 0.117252 -3.431 0
M  V30 4617 C 433.902 -0.846043 -4.15575 0
M  V30 4618 N 434.293 -2.00149 -4.64515 0
M  V30 4619 C 432.591 -0.665783 -4.41003 0
M  V30 4620 C 433.292 -2.60764 -5.19978 0
M  V30 4621 N 432.268 -1.88868 -5.09735 0
M  V30 4622 H 436.07 -1.42921 -2.56809 0
M  V30 4623 H 433.584 -0.876142 -1.36739 0
M  V30 4624 H 435.581 0.46662 -4.1428 0
M  V30 4625 H 434.241 0.994115 -3.09107 0
M  V30 4626 H 435.252 -2.38162 -4.5989 0
M  V30 4627 H 431.929 0.163456 -4.1718 0
M  V30 4628 H 433.319 -3.58519 -5.68255 0
M  V30 4629 N 436.039 1.36541 -0.78704 0
M  V30 4630 C 436.986 2.30082 -0.181901 0
M  V30 4631 C 437.956 1.5186 0.672896 0
M  V30 4632 O 439.141 1.80374 0.622072 0
M  V30 4633 C 436.281 3.3835 0.679197 0
M  V30 4634 C 435.394 4.31565 -0.193882 0
M  V30 4635 C 434.529 5.26915 0.673364 0
M  V30 4636 C 433.568 6.11769 -0.201315 0
M  V30 4637 N 432.705 6.99315 0.624777 0
M  V30 4638 H 437.545 2.81248 -0.985064 0
M  V30 4639 H 435.082 1.38437 -0.497342 0
M  V30 4640 H 437.04 3.99767 1.19341 0
M  V30 4641 H 435.67 2.8851 1.44781 0
M  V30 4642 H 434.722 3.71323 -0.826044 0
M  V30 4643 H 436.034 4.91191 -0.867937 0
M  V30 4644 H 435.188 5.9361 1.25348 0
M  V30 4645 H 433.927 4.67737 1.38105 0
M  V30 4646 H 432.932 5.44039 -0.793849 0
M  V30 4647 H 434.157 6.73022 -0.906568 0
M  V30 4648 H 432.103 6.42648 1.3168 0
M  V30 4649 H 432.02 7.56 0.00835237 0
M  V30 4650 H 433.288 7.70382 1.18879 0
M  V30 4651 N 437.518 0.538854 1.48102 0
M  V30 4652 C 438.746 0.0123136 2.06896 0
M  V30 4653 C 439.161 -1.27312 1.39417 0
M  V30 4654 O 438.518 -1.75949 0.484582 0
M  V30 4655 C 438.569 -0.206118 3.60912 0
M  V30 4656 O 438.29 1.0284 4.25859 0
M  V30 4657 C 439.791 -0.772033 4.36526 0
M  V30 4658 H 437.011 0.0375239 0.66995 0
M  V30 4659 H 439.555 0.747032 1.90367 0
M  V30 4660 H 437.71 -0.89091 3.77017 0
M  V30 4661 H 438.124 0.814654 5.18135 0
M  V30 4662 H 439.598 -0.874251 5.45033 0
M  V30 4663 H 440.075 -1.77904 4.01555 0
M  V30 4664 H 440.681 -0.123526 4.25121 0
M  V30 4665 N 438.996 -1.55193 0.274407 0
M  V30 4666 C 440.236 -2.01488 -0.343778 0
M  V30 4667 C 440.6 -1.1586 -1.53103 0
M  V30 4668 O 441.801 -1.51732 -2.2188 0
M  V30 4669 C 440.072 -3.50134 -0.717021 0
M  V30 4670 S 441.631 -4.18417 -1.32184 0
M  V30 4671 H 438.449 -0.70291 -0.106948 0
M  V30 4672 H 441.051 -1.91446 0.396075 0
M  V30 4673 H 439.755 -4.10104 0.155947 0
M  V30 4674 H 439.286 -3.64159 -1.48835 0
M  V30 4675 H 441.301 -4.21984 -2.61044 0
M  V30 4676 N 440.474 -0.00167713 -1.576 0
M  V30 4677 C 441.704 0.692754 -1.94639 0
M  V30 4678 C 442.112 1.67744 -0.87513 0
M  V30 4679 O 441.455 1.8305 0.154382 0
M  V30 4680 C 441.517 1.47881 -3.27676 0
M  V30 4681 C 441.181 0.655518 -4.52274 0
M  V30 4682 C 442.178 -0.0575214 -5.19868 0
M  V30 4683 C 439.863 0.600994 -4.98692 0
M  V30 4684 C 441.857 -0.814052 -6.3218 0
M  V30 4685 C 439.544 -0.15926 -6.10892 0
M  V30 4686 C 440.542 -0.865515 -6.77494 0
M  V30 4687 O 440.23 -1.61336 -7.87544 0
M  V30 4688 H 439.962 0.197792 -0.646417 0
M  V30 4689 H 442.516 -0.049423 -2.05341 0
M  V30 4690 H 440.746 2.2655 -3.13388 0
M  V30 4691 H 442.435 2.05874 -3.49816 0
M  V30 4692 H 443.201 -0.0245611 -4.84994 0
M  V30 4693 H 439.08 1.14025 -4.46676 0
M  V30 4694 H 442.624 -1.36584 -6.84098 0
M  V30 4695 H 438.521 -0.194035 -6.45208 0
M  V30 4696 H 439.289 -1.53025 -8.04068 0
M  V30 4697 N 441.952 1.55251 0.271103 0
M  V30 4698 C 442.9 1.89054 1.35504 0
M  V30 4699 C 443.894 0.767064 1.51038 0
M  V30 4700 O 445.1 0.951429 1.528 0
M  V30 4701 H 441.475 0.600072 0.45323 0
M  V30 4702 H 443.446 2.79598 1.04247 0
M  V30 4703 C 442.195 2.18068 2.70817 0
M  V30 4704 H 441.518 3.04005 2.59656 0
M  V30 4705 H 442.958 2.4564 3.45597 0
M  V30 4706 C 441.417 0.988901 3.2206 0
M  V30 4707 O 441.947 0.224501 4.01072 0
M  V30 4708 N 440.153 0.786085 2.79766 0
M  V30 4709 H 439.7 1.40937 2.15626 0
M  V30 4710 H 439.658 -0.00969349 3.14399 0
M  V30 4711 N 443.43 -0.535701 1.48216 0
M  V30 4712 C 444.362 -1.65662 1.58394 0
M  V30 4713 C 445.375 -1.5591 0.468607 0
M  V30 4714 O 446.564 -1.62475 0.7392 0
M  V30 4715 C 443.664 -3.04276 1.4923 0
M  V30 4716 C 442.837 -3.39567 2.75705 0
M  V30 4717 C 441.896 -4.57436 2.60075 0
M  V30 4718 O 440.922 -4.60942 3.33948 0
M  V30 4719 N 442.124 -5.55259 1.69315 0
M  V30 4720 H 444.889 -1.5737 2.55058 0
M  V30 4721 H 442.45 -0.722845 1.44867 0
M  V30 4722 H 444.442 -3.80994 1.36477 0
M  V30 4723 H 443.012 -3.06677 0.605632 0
M  V30 4724 H 442.232 -2.52083 3.03064 0
M  V30 4725 H 443.52 -3.59929 3.59623 0
M  V30 4726 H 442.918 -5.552 1.08489 0
M  V30 4727 H 441.475 -6.31218 1.62504 0
M  V30 4728 N 444.908 -1.36708 -0.784132 0
M  V30 4729 C 445.818 -1.3363 -1.92822 0
M  V30 4730 C 446.834 -0.237686 -1.72369 0
M  V30 4731 O 448.01 -0.470962 -1.95816 0
M  V30 4732 C 445.075 -1.13011 -3.27764 0
M  V30 4733 C 444.136 -2.32397 -3.60957 0
M  V30 4734 C 443.369 -2.12752 -4.89461 0
M  V30 4735 O 443.592 -1.10541 -5.59586 0
M  V30 4736 O 442.526 -3.00653 -5.21432 0
M  V30 4737 H 446.352 -2.29964 -1.98369 0
M  V30 4738 H 443.937 -1.1731 -0.925136 0
M  V30 4739 H 445.819 -1.03451 -4.08504 0
M  V30 4740 H 444.494 -0.19743 -3.23097 0
M  V30 4741 H 443.401 -2.47527 -2.80502 0
M  V30 4742 H 444.734 -3.2419 -3.70354 0
M  V30 4743 N 446.386 1.0089 -1.21074 0
M  V30 4744 C 447.634 1.74262 -1.02358 0
M  V30 4745 C 447.955 1.89869 0.444393 0
M  V30 4746 O 447.225 1.44677 1.32081 0
M  V30 4747 H 445.805 0.645615 -0.375754 0
M  V30 4748 H 448.467 1.21596 -1.52317 0
M  V30 4749 H 447.563 2.74328 -1.4883 0
M  V30 4750 N 447.864 1.01787 1.20321 0
M  V30 4751 C 449.113 0.703249 1.89043 0
M  V30 4752 C 449.426 -0.770445 1.79787 0
M  V30 4753 O 450.632 -1.19767 2.43656 0
M  V30 4754 C 449.088 1.20749 3.3904 0
M  V30 4755 C 448.696 2.70817 3.56878 0
M  V30 4756 C 450.44 0.968352 4.13308 0
M  V30 4757 C 448.347 3.14716 5.00708 0
M  V30 4758 H 447.277 0.259354 0.707991 0
M  V30 4759 H 449.928 1.23072 1.36108 0
M  V30 4760 H 448.31 0.607989 3.91305 0
M  V30 4761 H 449.484 3.36327 3.14993 0
M  V30 4762 H 447.799 2.92888 2.95983 0
M  V30 4763 H 450.396 1.27173 5.19356 0
M  V30 4764 H 450.739 -0.095149 4.16191 0
M  V30 4765 H 451.272 1.53129 3.67146 0
M  V30 4766 H 448.011 4.20347 5.02979 0
M  V30 4767 H 447.531 2.53927 5.43398 0
M  V30 4768 H 449.21 3.07426 5.69296 0
M  V30 4769 N 449.342 -1.36122 0.79427 0
M  V30 4770 C 450.305 -2.28309 0.201889 0
M  V30 4771 C 451.305 -1.49041 -0.603603 0
M  V30 4772 O 452.495 -1.68964 -0.423888 0
M  V30 4773 C 449.627 -3.3321 -0.719978 0
M  V30 4774 H 450.82 -2.82208 1.01481 0
M  V30 4775 H 448.373 -1.45768 0.564037 0
M  V30 4776 H 449.108 -2.84475 -1.55706 0
M  V30 4777 H 448.893 -3.91835 -0.144266 0
M  V30 4778 H 450.383 -4.02044 -1.12916 0
M  V30 4779 N 450.82 -0.546701 -1.47814 0
M  V30 4780 C 452.097 0.0464413 -1.95545 0
M  V30 4781 C 452.477 1.4962 -1.48919 0
M  V30 4782 O 451.825 2.16752 -0.723232 0
M  V30 4783 C 452.035 -0.0881298 -3.48889 0
M  V30 4784 C 453.383 0.0626059 -4.24554 0
M  V30 4785 O 454.407 -0.0151555 -3.56197 0
M  V30 4786 O 453.266 0.228071 -5.46024 0
M  V30 4787 H 450.36 0.0700004 -0.824032 0
M  V30 4788 H 452.906 -0.612482 -1.58262 0
M  V30 4789 H 451.678 -1.09737 -3.75597 0
M  V30 4790 H 451.301 0.608886 -3.9291 0
M  V30 4791 N 452.299 1.55045 -0.282633 0
M  V30 4792 C 453.545 2.00056 0.332481 0
M  V30 4793 C 453.878 1.1708 1.54939 0
M  V30 4794 O 453.153 0.2427 1.9298 0
M  V30 4795 C 453.436 3.53086 0.70725 0
M  V30 4796 C 453.289 4.46813 -0.517521 0
M  V30 4797 C 454.608 4.12245 1.54084 0
M  V30 4798 H 451.727 0.727268 0.119373 0
M  V30 4799 H 454.369 1.85932 -0.391076 0
M  V30 4800 H 452.519 3.65253 1.32372 0
M  V30 4801 H 454.191 4.46579 -1.15607 0
M  V30 4802 H 452.434 4.18163 -1.1542 0
M  V30 4803 H 453.105 5.51595 -0.211426 0
M  V30 4804 H 455.581 4.03401 1.02013 0
M  V30 4805 H 454.457 5.19515 1.77186 0
M  V30 4806 H 454.718 3.62951 2.52427 0
M  V30 4807 N 453.777 0.010035 1.57597 0
M  V30 4808 C 455.188 -0.531426 1.78977 0
M  V30 4809 C 455.539 -1.73375 0.918454 0
M  V30 4810 O 454.664 -2.16047 0.123635 0
M  V30 4811 C 455.259 -0.97086 3.24592 0
M  V30 4812 C 453.818 -1.45756 3.47033 0
M  V30 4813 C 452.965 -0.413384 2.74201 0
M  V30 4814 H 455.916 0.236166 1.56933 0
M  V30 4815 H 455.937 -1.83633 3.33255 0
M  V30 4816 H 455.449 -0.0955893 3.87982 0
M  V30 4817 H 453.55 -2.35339 2.88871 0
M  V30 4818 H 453.663 -1.4781 4.55729 0
M  V30 4819 H 452.027 -0.877266 2.39115 0
M  V30 4820 H 452.81 0.453092 3.40297 0
M  V30 4821 N 455.255 -1.55392 -0.262866 0
M  V30 4822 C 456.218 -1.88181 -1.30846 0
M  V30 4823 C 457.218 -0.757079 -1.41862 0
M  V30 4824 O 458.408 -1.02519 -1.40838 0
M  V30 4825 C 455.54 -2.09609 -2.68844 0
M  V30 4826 H 456.733 -2.81659 -1.02997 0
M  V30 4827 H 454.286 -1.48039 -0.501414 0
M  V30 4828 H 455.021 -1.18547 -3.01856 0
M  V30 4829 H 454.806 -2.91508 -2.62231 0
M  V30 4830 H 456.296 -2.36215 -3.44372 0
M  V30 4831 N 456.733 0.527833 -1.48498 0
M  V30 4832 C 457.643 1.65907 -1.65867 0
M  V30 4833 C 458.659 1.6537 -0.541192 0
M  V30 4834 O 459.835 1.84282 -0.812534 0
M  V30 4835 C 456.9 3.02364 -1.69637 0
M  V30 4836 C 455.961 3.1374 -2.93028 0
M  V30 4837 C 455.194 4.43688 -2.96609 0
M  V30 4838 O 455.417 5.30913 -2.08538 0
M  V30 4839 O 454.351 4.59475 -3.88802 0
M  V30 4840 H 458.177 1.5419 -2.61647 0
M  V30 4841 H 455.762 0.701163 -1.31924 0
M  V30 4842 H 457.644 3.83515 -1.74625 0
M  V30 4843 H 456.319 3.14401 -0.770312 0
M  V30 4844 H 455.226 2.31877 -2.93571 0
M  V30 4845 H 456.559 3.06621 -3.85026 0
M  V30 4846 N 458.211 1.37122 0.776871 0
M  V30 4847 C 459.488 1.22586 1.52421 0
M  V30 4848 C 459.868 -0.182726 2.10308 0
M  V30 4849 O 459.216 -1.18979 1.9508 0
M  V30 4850 C 459.426 2.31782 2.60918 0
M  V30 4851 C 460.774 2.69071 3.2846 0
M  V30 4852 O 461.798 2.3092 2.71209 0
M  V30 4853 O 460.657 3.3478 4.31954 0
M  V30 4854 H 457.751 0.478045 0.674835 0
M  V30 4855 H 460.297 1.48888 0.814275 0
M  V30 4856 H 459.069 3.26131 2.16227 0
M  V30 4857 H 458.692 2.06916 3.39517 0
M  V30 4858 N 459.689 -1.00246 1.21608 0
M  V30 4859 C 460.966 -1.71336 0.943568 0
M  V30 4860 C 461.346 -2.03972 -0.543943 0
M  V30 4861 O 460.694 -1.71545 -1.50946 0
M  V30 4862 C 460.904 -2.97094 1.83128 0
M  V30 4863 C 462.252 -3.70071 2.08165 0
M  V30 4864 O 463.276 -3.07081 1.80498 0
M  V30 4865 O 462.135 -4.83376 2.54971 0
M  V30 4866 H 459.229 -0.747386 0.354039 0
M  V30 4867 H 461.775 -1.05967 1.32549 0
M  V30 4868 H 460.547 -2.69407 2.83788 0
M  V30 4869 H 460.17 -3.70204 1.45034 0
M  V30 4870 N 461.167 -1.02423 -1.1978 0
M  V30 4871 C 462.578 -0.748389 -1.71044 0
M  V30 4872 C 462.929 0.732398 -1.82017 0
M  V30 4873 O 462.054 1.57116 -1.48807 0
M  V30 4874 C 462.649 -1.35187 -3.1066 0
M  V30 4875 C 461.208 -1.12472 -3.59203 0
M  V30 4876 C 460.355 -1.45283 -2.36195 0
M  V30 4877 H 463.306 -1.19275 -1.04686 0
M  V30 4878 H 463.327 -0.746408 -3.73107 0
M  V30 4879 H 462.839 -2.4296 -3.02642 0
M  V30 4880 H 460.94 -0.0649983 -3.72543 0
M  V30 4881 H 461.053 -1.81016 -4.43588 0
M  V30 4882 H 459.417 -0.872034 -2.39307 0
M  V30 4883 H 460.2 -2.54129 -2.30811 0
M  V30 4884 N 462.645 1.35699 -0.801477 0
M  V30 4885 C 463.87 2.03687 -0.390678 0
M  V30 4886 C 464.295 1.60015 0.988778 0
M  V30 4887 O 463.653 0.774357 1.63931 0
M  V30 4888 C 463.701 3.57439 -0.476404 0
M  V30 4889 O 462.805 4.09208 0.512106 0
M  V30 4890 H 462.146 0.64344 -0.163956 0
M  V30 4891 H 464.676 1.73403 -1.08594 0
M  V30 4892 H 464.686 4.06544 -0.344357 0
M  V30 4893 H 463.361 3.88576 -1.48262 0
M  V30 4894 H 461.938 3.7134 0.340721 0
M  V30 4895 N 464.123 0.554532 1.47522 0
M  V30 4896 C 465.534 0.120446 1.86311 0
M  V30 4897 C 465.885 -1.30904 1.46145 0
M  V30 4898 O 465.01 -1.98434 0.863294 0
M  V30 4899 C 465.605 0.211808 3.38137 0
M  V30 4900 C 464.164 -0.167224 3.76028 0
M  V30 4901 C 463.311 0.560576 2.71575 0
M  V30 4902 H 466.262 0.764408 1.39077 0
M  V30 4903 H 466.283 -0.570275 3.76202 0
M  V30 4904 H 465.795 1.25232 3.6734 0
M  V30 4905 H 463.896 -1.20894 3.52442 0
M  V30 4906 H 464.009 0.189473 4.78725 0
M  V30 4907 H 462.373 0.00396836 2.547 0
M  V30 4908 H 463.156 1.60219 3.0362 0
M  V30 4909 N 465.601 -1.54893 0.290851 0
M  V30 4910 C 466.841 -2.01842 -0.322388 0
M  V30 4911 C 467.205 -1.17477 -1.51865 0
M  V30 4912 O 468.406 -1.54077 -2.20258 0
M  V30 4913 C 466.677 -3.50874 -0.679844 0
M  V30 4914 S 468.236 -4.19796 -1.27739 0
M  V30 4915 H 465.054 -0.704005 -0.0994866 0
M  V30 4916 H 467.656 -1.91015 0.416358 0
M  V30 4917 H 466.36 -4.09915 0.199435 0
M  V30 4918 H 465.891 -3.65717 -1.44964 0
M  V30 4919 H 467.906 -4.24729 -2.56554 0
M  V30 4920 N 467.08 -0.0183926 -1.57589 0
M  V30 4921 C 468.043 0.951986 -2.08494 0
M  V30 4922 C 469.043 1.26092 -0.997874 0
M  V30 4923 O 470.233 1.20304 -1.25987 0
M  V30 4924 C 467.365 2.27165 -2.54182 0
M  V30 4925 H 468.558 0.511307 -2.95509 0
M  V30 4926 H 466.111 0.229444 -1.54607 0
M  V30 4927 H 466.846 2.75884 -1.70465 0
M  V30 4928 H 466.631 2.06057 -3.33591 0
M  V30 4929 H 468.121 2.9674 -2.93828 0
M  V30 4930 N 468.558 1.5553 0.254621 0
M  V30 4931 C 469.488 1.9268 1.31897 0
M  V30 4932 C 470.469 0.790797 1.506 0
M  V30 4933 O 471.654 1.05045 1.63337 0
M  V30 4934 C 468.784 2.21477 2.67517 0
M  V30 4935 C 467.738 3.37256 2.63519 0
M  V30 4936 C 467.064 3.51576 4.02862 0
M  V30 4937 C 468.364 4.73157 2.21179 0
M  V30 4938 H 470.058 2.81832 1.01051 0
M  V30 4939 H 467.604 1.35599 0.484662 0
M  V30 4940 H 469.557 2.46055 3.42104 0
M  V30 4941 H 468.281 1.29144 2.99982 0
M  V30 4942 H 466.94 3.12675 1.9139 0
M  V30 4943 H 466.588 2.56676 4.32581 0
M  V30 4944 H 466.288 4.2943 4.01078 0
M  V30 4945 H 467.812 3.78467 4.79161 0
M  V30 4946 H 469.226 4.97158 2.85494 0
M  V30 4947 H 467.623 5.54058 2.30521 0
M  V30 4948 H 468.693 4.70739 1.16332 0
M  V30 4949 N 470.036 -0.519951 1.48776 0
M  V30 4950 C 470.946 -1.65025 1.66745 0
M  V30 4951 C 471.962 -1.6508 0.549954 0
M  V30 4952 O 473.138 -1.83848 0.822295 0
M  V30 4953 C 470.203 -3.0146 1.71238 0
M  V30 4954 C 469.264 -3.12182 2.94688 0
M  V30 4955 C 468.497 -4.42109 2.98958 0
M  V30 4956 O 468.72 -5.29799 2.1135 0
M  V30 4957 O 467.654 -4.57406 3.91233 0
M  V30 4958 H 471.48 -1.52801 2.62461 0
M  V30 4959 H 469.065 -0.694157 1.32294 0
M  V30 4960 H 470.947 -3.82584 1.76657 0
M  V30 4961 H 469.622 -3.13988 0.786975 0
M  V30 4962 H 468.529 -2.30316 2.94797 0
M  V30 4963 H 469.862 -3.04574 3.86646 0
M  V30 4964 N 471.514 -1.37532 -0.769588 0
M  V30 4965 C 472.742 -1.36059 -1.55871 0
M  V30 4966 C 473.157 0.053544 -1.88724 0
M  V30 4967 O 472.514 1.01591 -1.5161 0
M  V30 4968 C 472.565 -2.20107 -2.86767 0
M  V30 4969 O 472.286 -3.56009 -2.55321 0
M  V30 4970 C 473.787 -2.26636 -3.80987 0
M  V30 4971 H 471.007 -0.465967 -0.482821 0
M  V30 4972 H 473.551 -1.80901 -0.953686 0
M  V30 4973 H 471.706 -1.78768 -3.43687 0
M  V30 4974 H 472.12 -4.0009 -3.39158 0
M  V30 4975 H 473.594 -2.89763 -4.69831 0
M  V30 4976 H 474.071 -1.2754 -4.20274 0
M  V30 4977 H 474.677 -2.68296 -3.29996 0
M  V30 4978 N 472.992 0.995999 -1.22138 0
M  V30 4979 C 474.24 1.73167 -1.042 0
M  V30 4980 C 474.561 1.90329 0.42423 0
M  V30 4981 O 473.831 1.4607 1.30539 0
M  V30 4982 H 472.411 0.641593 -0.38258 0
M  V30 4983 H 475.073 1.19974 -1.53598 0
M  V30 4984 H 474.169 2.72734 -1.51731 0
M  V30 4985 N 474.47 1.03057 1.19235 0
M  V30 4986 C 475.42 0.583386 2.2041 0
M  V30 4987 C 476.404 -0.368776 1.56617 0
M  V30 4988 O 477.596 -0.189471 1.75983 0
M  V30 4989 C 474.725 -0.0626534 3.43243 0
M  V30 4990 C 473.811 0.91205 4.14177 0
M  V30 4991 N 474.202 2.07514 4.61272 0
M  V30 4992 C 472.5 0.735859 4.39888 0
M  V30 4993 C 473.201 2.69003 5.15764 0
M  V30 4994 N 472.177 1.96954 5.06666 0
M  V30 4995 H 475.979 1.46988 2.54503 0
M  V30 4996 H 473.493 0.897785 1.35328 0
M  V30 4997 H 475.49 -0.400653 4.1497 0
M  V30 4998 H 474.15 -0.944813 3.1065 0
M  V30 4999 H 475.161 2.45448 4.56043 0
M  V30 5000 H 471.838 -0.0970656 4.17387 0
M  V30 5001 H 473.228 3.67514 5.6248 0
M  V30 5002 N 475.948 -1.35272 0.808662 0
M  V30 5003 C 477.196 -1.98316 0.389233 0
M  V30 5004 C 477.517 -1.64465 -1.04767 0
M  V30 5005 O 476.787 -0.928175 -1.72516 0
M  V30 5006 H 475.367 -0.733585 0.140935 0
M  V30 5007 H 478.029 -1.6515 1.03496 0
M  V30 5008 H 477.125 -3.08123 0.496631 0
M  V30 5009 N 477.426 -0.562348 -1.47226 0
M  V30 5010 C 478.842 -0.222492 -1.58042 0
M  V30 5011 C 479.042 1.27505 -1.56028 0
M  V30 5012 O 478.098 2.05555 -1.46641 0
M  V30 5013 C 479.411 -0.853694 -2.88327 0
M  V30 5014 C 480.959 -0.825397 -3.01921 0
M  V30 5015 C 481.434 -1.43576 -4.34914 0
M  V30 5016 N 482.925 -1.39918 -4.41562 0
M  V30 5017 C 483.66 -1.84103 -5.43041 0
M  V30 5018 N 483.156 -2.36167 -6.51304 0
M  V30 5019 N 484.949 -1.75142 -5.34118 0
M  V30 5020 H 477.1 -1.53525 -1.46778 0
M  V30 5021 H 479.363 -0.640527 -0.698877 0
M  V30 5022 H 479.069 -1.90635 -2.95552 0
M  V30 5023 H 478.943 -0.34977 -3.75575 0
M  V30 5024 H 481.33 0.218583 -2.94289 0
M  V30 5025 H 481.411 -1.36713 -2.16202 0
M  V30 5026 H 481.055 -2.47884 -4.43301 0
M  V30 5027 H 480.985 -0.869427 -5.19373 0
M  V30 5028 H 483.476 -1.0184 -3.63919 0
M  V30 5029 H 483.789 -2.67793 -7.24919 0
M  V30 5030 H 482.134 -2.40181 -6.52179 0
M  V30 5031 H 485.325 -1.34241 -4.48439 0
M  V30 5032 H 485.498 -2.09895 -6.13065 0
M  V30 5033 N 478.904 1.54736 -0.299062 0
M  V30 5034 C 479.836 2.20891 0.61153 0
M  V30 5035 C 480.849 1.20104 1.09904 0
M  V30 5036 O 482.038 1.46707 1.01683 0
M  V30 5037 C 479.138 2.84018 1.84897 0
M  V30 5038 C 478.311 4.10719 1.50428 0
M  V30 5039 C 477.37 4.57667 2.59667 0
M  V30 5040 O 476.396 5.2291 2.24842 0
M  V30 5041 N 477.598 4.29821 3.90172 0
M  V30 5042 H 480.363 2.99666 0.0452001 0
M  V30 5043 H 477.924 1.61446 -0.121178 0
M  V30 5044 H 479.916 3.1236 2.5732 0
M  V30 5045 H 478.486 2.09095 2.32375 0
M  V30 5046 H 477.706 3.89408 0.612781 0
M  V30 5047 H 478.994 4.93223 1.24934 0
M  V30 5048 H 478.392 3.77549 4.21276 0
M  V30 5049 H 476.949 4.62877 4.58899 0
M  V30 5050 N 480.382 0.0267497 1.57577 0
M  V30 5051 C 481.622 -0.65659 1.93567 0
M  V30 5052 C 481.986 -1.69429 0.903213 0
M  V30 5053 O 483.187 -2.42994 1.14923 0
M  V30 5054 C 481.458 -1.25912 3.34486 0
M  V30 5055 S 483.017 -1.96386 3.924 0
M  V30 5056 H 479.835 -0.216237 0.67732 0
M  V30 5057 H 482.437 0.0898475 1.95293 0
M  V30 5058 H 481.141 -0.491405 4.07447 0
M  V30 5059 H 480.672 -2.04291 3.36198 0
M  V30 5060 H 482.687 -3.24202 3.75643 0
M  V30 5061 N 481.861 -1.55662 -0.24637 0
M  V30 5062 C 482.793 -1.86811 -1.32794 0
M  V30 5063 C 483.806 -0.754413 -1.44265 0
M  V30 5064 O 484.995 -1.03253 -1.45606 0
M  V30 5065 C 482.095 -2.0397 -2.70646 0
M  V30 5066 C 481.268 -3.34832 -2.81436 0
M  V30 5067 C 480.327 -3.41727 -4.00136 0
M  V30 5068 O 479.353 -4.14934 -3.89639 0
M  V30 5069 N 480.555 -2.71058 -5.1333 0
M  V30 5070 H 483.32 -2.80174 -1.06409 0
M  V30 5071 H 480.881 -1.55906 -0.43647 0
M  V30 5072 H 482.873 -2.05924 -3.48393 0
M  V30 5073 H 481.443 -1.1735 -2.89738 0
M  V30 5074 H 480.663 -3.4519 -1.90361 0
M  V30 5075 H 481.951 -4.21085 -2.85595 0
M  V30 5076 H 481.349 -2.11314 -5.2475 0
M  V30 5077 H 479.906 -2.78704 -5.89209 0
M  V30 5078 N 483.339 0.512053 -1.4905 0
M  V30 5079 C 484.287 1.63568 -1.65373 0
M  V30 5080 C 485.281 1.61228 -0.519806 0
M  V30 5081 O 486.487 1.65869 -0.699101 0
M  V30 5082 H 482.862 0.542019 -0.521267 0
M  V30 5083 H 484.833 1.4695 -2.59708 0
M  V30 5084 C 483.582 3.01761 -1.7273 0
M  V30 5085 H 482.905 3.04263 -2.59353 0
M  V30 5086 H 484.345 3.79948 -1.8819 0
M  V30 5087 C 482.804 3.33609 -0.46973 0
M  V30 5088 O 483.334 3.99607 0.409492 0
M  V30 5089 N 481.54 2.88651 -0.336003 0
M  V30 5090 H 481.087 2.35119 -1.05247 0
M  V30 5091 H 481.045 3.10328 0.504363 0
M  V30 5092 N 484.817 1.37938 0.762283 0
M  V30 5093 C 486.065 1.33404 1.51815 0
M  V30 5094 C 486.386 -0.0780975 1.94844 0
M  V30 5095 O 485.656 -1.02405 1.67003 0
M  V30 5096 H 484.236 0.490839 0.563104 0
M  V30 5097 H 486.898 1.72527 0.906669 0
M  V30 5098 H 485.994 1.97926 2.41313 0
M  V30 5099 N 486.295 -0.989507 1.22664 0
M  V30 5100 C 487.523 -1.76496 1.07967 0
M  V30 5101 C 487.938 -1.85148 -0.369543 0
M  V30 5102 O 487.295 -1.32408 -1.25596 0
M  V30 5103 C 487.346 -3.19642 1.68853 0
M  V30 5104 O 487.067 -3.11453 3.08105 0
M  V30 5105 C 488.568 -4.13621 1.59475 0
M  V30 5106 H 485.788 -0.55418 0.378319 0
M  V30 5107 H 488.332 -1.24378 1.62328 0
M  V30 5108 H 486.487 -3.68816 1.18547 0
M  V30 5109 H 486.901 -4.01499 3.37489 0
M  V30 5110 H 488.375 -5.11801 2.06795 0
M  V30 5111 H 488.852 -4.35718 0.55191 0
M  V30 5112 H 489.458 -3.70346 2.09103 0
M  V30 5113 N 487.773 -1.03688 -1.18687 0
M  V30 5114 C 489.019 -0.739123 -1.88851 0
M  V30 5115 C 489.352 0.731042 -1.79915 0
M  V30 5116 O 488.627 1.53313 -1.19688 0
M  V30 5117 C 488.91 -1.20106 -3.3948 0
M  V30 5118 C 488.763 -2.73304 -3.57246 0
M  V30 5119 C 490.082 -0.788134 -4.32986 0
M  V30 5120 H 487.201 -0.269978 -0.68577 0
M  V30 5121 H 489.843 -1.28822 -1.3966 0
M  V30 5122 H 487.993 -0.733915 -3.81505 0
M  V30 5123 H 489.665 -3.28027 -3.24339 0
M  V30 5124 H 487.908 -3.13313 -3.00029 0
M  V30 5125 H 488.579 -3.00684 -4.62918 0
M  V30 5126 H 491.055 -1.19005 -3.98719 0
M  V30 5127 H 489.931 -1.13915 -5.36949 0
M  V30 5128 H 490.192 0.308988 -4.41019 0
M  V30 5129 N 489.251 1.34841 -0.815825 0
M  V30 5130 C 490.491 2.00321 -0.406297 0
M  V30 5131 C 490.855 1.63293 1.00992 0
M  V30 5132 O 492.056 2.21563 1.52195 0
M  V30 5133 C 490.327 3.52421 -0.594469 0
M  V30 5134 S 491.886 4.37926 -0.276735 0
M  V30 5135 H 488.704 0.694155 -0.153848 0
M  V30 5136 H 491.306 1.64263 -1.06009 0
M  V30 5137 H 490.01 3.76858 -1.625 0
M  V30 5138 H 489.541 3.9333 0.0743157 0
M  V30 5139 H 491.556 4.87743 0.912215 0
M  V30 5140 N 490.729 0.570148 1.46925 0
M  V30 5141 C 491.676 -0.170257 2.30171 0
M  V30 5142 C 492.646 -0.896099 1.39855 0
M  V30 5143 O 493.831 -0.889248 1.68811 0
M  V30 5144 C 490.971 -1.18605 3.24079 0
M  V30 5145 C 490.084 -0.464947 4.29491 0
M  V30 5146 C 489.219 -1.46716 5.10537 0
M  V30 5147 C 488.258 -0.731758 6.0771 0
M  V30 5148 N 487.395 -1.68142 6.81669 0
M  V30 5149 H 492.235 0.545713 2.92961 0
M  V30 5150 H 489.772 0.280938 1.44392 0
M  V30 5151 H 491.73 -1.78771 3.76957 0
M  V30 5152 H 490.36 -1.86989 2.63125 0
M  V30 5153 H 489.412 0.251506 3.79568 0
M  V30 5154 H 490.724 0.110548 4.98677 0
M  V30 5155 H 489.878 -2.14199 5.6763 0
M  V30 5156 H 488.617 -2.07658 4.41282 0
M  V30 5157 H 487.622 -0.0430787 5.49783 0
M  V30 5158 H 488.847 -0.127904 6.7898 0
M  V30 5159 H 486.793 -2.27918 6.15134 0
M  V30 5160 H 486.71 -1.15841 7.47072 0
M  V30 5161 H 487.978 -2.347 7.43328 0
M  V30 5162 N 492.207 -1.54576 0.307264 0
M  V30 5163 C 493.618 -1.8579 -0.184121 0
M  V30 5164 C 493.969 -1.22914 -1.52927 0
M  V30 5165 O 493.094 -0.529126 -2.09831 0
M  V30 5166 C 493.689 -3.37081 -0.340862 0
M  V30 5167 C 492.248 -3.68304 -0.776465 0
M  V30 5168 C 491.395 -2.77076 0.111503 0
M  V30 5169 H 494.346 -1.49656 0.528078 0
M  V30 5170 H 494.367 -3.61922 -1.17443 0
M  V30 5171 H 493.879 -3.82815 0.638309 0
M  V30 5172 H 491.98 -3.28092 -1.76596 0
M  V30 5173 H 492.093 -4.75434 -0.591512 0
M  V30 5174 H 490.457 -2.51374 -0.410256 0
M  V30 5175 H 491.24 -3.25632 1.08714 0
M  V30 5176 N 493.685 -0.035106 -1.57561 0
M  V30 5177 C 494.933 0.64096 -1.91667 0
M  V30 5178 C 495.254 1.72323 -0.912681 0
M  V30 5179 O 494.524 1.95849 0.0449089 0
M  V30 5180 H 493.104 0.239743 -0.707483 0
M  V30 5181 H 495.766 -0.084321 -1.94718 0
M  V30 5182 H 494.862 1.08987 -2.92452 0
M  V30 5183 N 495.163 1.55791 0.238111 0
M  V30 5184 C 496.409 1.79211 0.962035 0
M  V30 5185 C 496.764 0.605463 1.82625 0
M  V30 5186 O 496.057 -0.40104 1.87356 0
M  V30 5187 C 496.251 3.05869 1.84875 0
M  V30 5188 C 496.08 4.36739 1.07186 0
M  V30 5189 C 494.85 4.99346 0.773424 0
M  V30 5190 C 497.048 5.1237 0.445168 0
M  V30 5191 N 495.03 6.13894 -0.0266037 0
M  V30 5192 C 496.401 6.19613 -0.219023 0
M  V30 5193 C 498.456 4.96622 0.356522 0
M  V30 5194 C 497.159 7.1282 -0.963358 0
M  V30 5195 C 499.185 5.90214 -0.374304 0
M  V30 5196 C 498.547 6.96872 -1.0271 0
M  V30 5197 H 494.646 0.707627 0.332849 0
M  V30 5198 H 497.23 1.93284 0.234368 0
M  V30 5199 H 495.401 2.93108 2.54837 0
M  V30 5200 H 497.133 3.17547 2.5089 0
M  V30 5201 H 493.888 4.60948 1.08738 0
M  V30 5202 H 494.312 6.75727 -0.414968 0
M  V30 5203 H 498.954 4.14232 0.846878 0
M  V30 5204 H 496.672 7.94704 -1.46529 0
M  V30 5205 H 500.258 5.80106 -0.443678 0
M  V30 5206 H 499.138 7.68045 -1.58358 0
M  V30 5207 N 496.642 -0.504142 1.49319 0
M  V30 5208 C 497.919 -1.26548 1.49147 0
M  V30 5209 C 498.299 -2.09977 0.21744 0
M  V30 5210 O 497.647 -2.14028 -0.800269 0
M  V30 5211 C 497.857 -2.12489 2.76857 0
M  V30 5212 C 499.205 -2.7178 3.26222 0
M  V30 5213 O 500.229 -2.22758 2.77952 0
M  V30 5214 O 499.088 -3.61015 4.10281 0
M  V30 5215 H 496.182 -0.572495 0.596806 0
M  V30 5216 H 498.728 -0.51867 1.61579 0
M  V30 5217 H 497.5 -1.50796 3.61077 0
M  V30 5218 H 497.123 -2.94368 2.6727 0
M  V30 5219 N 498.12 -1.38341 -0.754957 0
M  V30 5220 C 499.368 -1.34208 -1.51105 0
M  V30 5221 C 499.689 0.0677634 -1.94882 0
M  V30 5222 O 498.959 1.01517 -1.67544 0
M  V30 5223 H 497.539 -0.493819 -0.560493 0
M  V30 5224 H 500.201 -1.73005 -0.897507 0
M  V30 5225 H 499.297 -1.99203 -2.4026 0
M  V30 5226 N 499.598 0.982988 -1.23187 0
M  V30 5227 C 501.009 1.53847 -1.05773 0
M  V30 5228 C 501.36 1.92568 0.375744 0
M  V30 5229 O 500.485 1.75783 1.26211 0
M  V30 5230 C 501.08 2.79567 -1.91384 0
M  V30 5231 C 499.639 3.31524 -1.78238 0
M  V30 5232 C 498.786 2.04534 -1.87246 0
M  V30 5233 H 501.737 0.802962 -1.36888 0
M  V30 5234 H 501.758 3.52317 -1.43711 0
M  V30 5235 H 501.27 2.51353 -2.95708 0
M  V30 5236 H 499.371 3.64623 -0.766875 0
M  V30 5237 H 499.484 4.01457 -2.61475 0
M  V30 5238 H 497.848 2.1855 -1.30797 0
M  V30 5239 H 498.631 1.78706 -2.9312 0
M  V30 5240 N 501.076 1.04316 1.18135 0
M  V30 5241 C 502.023 0.636398 2.21853 0
M  V30 5242 C 502.993 -0.357039 1.62217 0
M  V30 5243 O 504.178 -0.250453 1.89149 0
M  V30 5244 C 501.318 0.00812779 3.45099 0
M  V30 5245 C 500.431 1.04933 4.19062 0
M  V30 5246 C 499.566 0.389313 5.29771 0
M  V30 5247 C 498.605 1.41544 5.9551 0
M  V30 5248 N 497.742 0.78021 6.97751 0
M  V30 5249 H 502.582 1.52536 2.56002 0
M  V30 5250 H 500.119 0.76304 1.25762 0
M  V30 5251 H 502.077 -0.373497 4.15525 0
M  V30 5252 H 500.707 -0.844336 3.11562 0
M  V30 5253 H 499.759 1.54888 3.47439 0
M  V30 5254 H 501.071 1.82862 4.64072 0
M  V30 5255 H 500.225 -0.0463805 6.06682 0
M  V30 5256 H 498.964 -0.422038 4.8587 0
M  V30 5257 H 497.969 1.86124 5.17337 0
M  V30 5258 H 499.194 2.22854 6.41493 0
M  V30 5259 H 497.14 -0.0107899 6.55999 0
M  V30 5260 H 497.057 1.49716 7.41027 0
M  V30 5261 H 498.325 0.368996 7.78626 0
M  V30 5262 N 502.554 -1.34406 0.822964 0
M  V30 5263 C 503.504 -2.26963 0.217208 0
M  V30 5264 C 504.488 -1.48536 -0.618545 0
M  V30 5265 O 505.68 -1.7056 -0.473118 0
M  V30 5266 C 502.809 -3.37655 -0.619973 0
M  V30 5267 C 501.895 -4.23495 0.226411 0
M  V30 5268 N 502.286 -4.88876 1.29744 0
M  V30 5269 C 500.584 -4.45999 0.0107554 0
M  V30 5270 C 501.285 -5.52642 1.81553 0
M  V30 5271 N 500.261 -5.31949 1.11942 0
M  V30 5272 H 504.063 -2.75017 1.03647 0
M  V30 5273 H 501.577 -1.48126 0.665777 0
M  V30 5274 H 503.574 -4.02932 -1.07011 0
M  V30 5275 H 502.234 -2.91151 -1.43739 0
M  V30 5276 H 503.245 -4.89886 1.68024 0
M  V30 5277 H 499.922 -4.10253 -0.774495 0
M  V30 5278 H 501.312 -6.14755 2.71156 0
M  V30 5279 N 504.032 -0.577932 -1.46621 0
M  V30 5280 C 505.28 -0.061566 -2.02006 0
M  V30 5281 C 505.601 1.30117 -1.4524 0
M  V30 5282 O 504.871 1.85313 -0.63529 0
M  V30 5283 H 503.451 -0.0197692 -0.746738 0
M  V30 5284 H 506.113 -0.752631 -1.79782 0
M  V30 5285 H 505.209 0.0110238 -3.12098 0
M  V30 5286 N 505.51 1.54411 -0.315457 0
M  V30 5287 C 506.759 1.99599 0.290395 0
M  V30 5288 C 507.072 1.20746 1.53882 0
M  V30 5289 O 508.278 1.56272 2.22017 0
M  V30 5290 C 506.734 3.5539 0.56797 0
M  V30 5291 C 506.342 4.43068 -0.662945 0
M  V30 5292 C 508.086 4.09067 1.13422 0
M  V30 5293 C 505.993 5.90317 -0.357722 0
M  V30 5294 H 504.923 0.745592 0.112286 0
M  V30 5295 H 507.574 1.78477 -0.426418 0
M  V30 5296 H 505.956 3.72468 1.34476 0
M  V30 5297 H 507.13 4.37765 -1.43869 0
M  V30 5298 H 505.445 4.00238 -1.14884 0
M  V30 5299 H 508.042 5.16663 1.37707 0
M  V30 5300 H 508.385 3.60552 2.08106 0
M  V30 5301 H 508.918 3.95589 0.418805 0
M  V30 5302 H 505.657 6.4301 -1.27351 0
M  V30 5303 H 505.177 5.98592 0.380472 0
M  V30 5304 H 506.856 6.4699 0.0354284 0
M  V30 5305 N 506.988 0.0434614 1.5754 0
M  V30 5306 C 508.216 -0.641835 1.96693 0
M  V30 5307 C 508.631 -1.64832 0.920652 0
M  V30 5308 O 507.988 -1.82247 -0.095993 0
M  V30 5309 C 508.039 -1.33557 3.35924 0
M  V30 5310 O 507.76 -0.369403 4.3654 0
M  V30 5311 C 509.261 -2.11135 3.89791 0
M  V30 5312 H 506.481 -0.176013 0.647503 0
M  V30 5313 H 509.025 0.107478 2.04217 0
M  V30 5314 H 507.18 -2.03617 3.29574 0
M  V30 5315 H 507.594 -0.863674 5.1734 0
M  V30 5316 H 509.068 -2.55107 4.89514 0
M  V30 5317 H 509.545 -2.95634 3.24803 0
M  V30 5318 H 510.151 -1.46002 3.99454 0
M  V30 5319 N 508.466 -1.55915 -0.229846 0
M  V30 5320 C 509.414 -1.9258 -1.30444 0
M  V30 5321 C 510.408 -0.806839 -1.48951 0
M  V30 5322 O 511.614 -0.991606 -1.50224 0
M  V30 5323 H 507.989 -0.611878 -0.437161 0
M  V30 5324 H 509.96 -2.82264 -0.96797 0
M  V30 5325 C 508.709 -2.25171 -2.6494 0
M  V30 5326 H 508.032 -3.10782 -2.51504 0
M  V30 5327 H 509.472 -2.54716 -3.38963 0
M  V30 5328 C 507.931 -1.07394 -3.19324 0
M  V30 5329 O 508.461 -0.330759 -4.00336 0
M  V30 5330 N 506.667 -0.859984 -2.77584 0
M  V30 5331 H 506.214 -1.46605 -2.11813 0
M  V30 5332 H 506.172 -0.0736671 -3.14314 0
M  V30 5333 N 509.944 0.496216 -1.49584 0
M  V30 5334 C 511.191 1.25003 -1.59312 0
M  V30 5335 C 511.519 1.92445 -0.28198 0
M  V30 5336 O 510.774 1.81557 0.730452 0
M  V30 5337 C 511.073 2.3359 -2.705 0
M  V30 5338 C 510.739 1.83574 -4.11839 0
M  V30 5339 C 509.401 1.69653 -4.50302 0
M  V30 5340 C 511.753 1.46193 -5.00277 0
M  V30 5341 C 509.081 1.16736 -5.74969 0
M  V30 5342 C 511.433 0.947265 -6.25468 0
M  V30 5343 C 510.097 0.794485 -6.62755 0
M  V30 5344 H 509.367 0.45742 -0.582965 0
M  V30 5345 H 512.014 0.549996 -1.83432 0
M  V30 5346 H 510.319 3.09401 -2.40371 0
M  V30 5347 H 512.016 2.91627 -2.75235 0
M  V30 5348 H 508.606 1.9537 -3.81482 0
M  V30 5349 H 512.79 1.55793 -4.71214 0
M  V30 5350 H 508.046 1.03623 -6.02555 0
M  V30 5351 H 512.22 0.648846 -6.93371 0
M  V30 5352 H 509.847 0.382271 -7.59238 0
M  V30 5353 N 511.423 1.38739 0.74761 0
M  V30 5354 C 512.7 1.25791 1.49786 0
M  V30 5355 C 513.08 -0.138075 2.10648 0
M  V30 5356 O 512.428 -1.14815 1.9756 0
M  V30 5357 C 512.638 2.37265 2.55942 0
M  V30 5358 C 513.986 2.75978 3.22679 0
M  V30 5359 O 515.01 2.36621 2.6625 0
M  V30 5360 O 513.869 3.43867 4.24756 0
M  V30 5361 H 510.963 0.492251 0.664543 0
M  V30 5362 H 513.509 1.50582 0.782511 0
M  V30 5363 H 512.281 3.30644 2.0926 0
M  V30 5364 H 511.904 2.14071 3.35051 0
M  V30 5365 N 512.901 -0.976442 1.23707 0
M  V30 5366 C 513.849 -2.09078 1.01927 0
M  V30 5367 C 514.843 -1.69345 -0.0430193 0
M  V30 5368 O 516.049 -1.79659 0.110814 0
M  V30 5369 H 512.424 -0.68398 0.312531 0
M  V30 5370 H 514.395 -2.24614 1.96447 0
M  V30 5371 C 513.144 -3.41919 0.631385 0
M  V30 5372 H 512.467 -3.72946 1.44053 0
M  V30 5373 H 513.907 -4.20817 0.518532 0
M  V30 5374 C 512.366 -3.30357 -0.660723 0
M  V30 5375 O 512.896 -3.63542 -1.70881 0
M  V30 5376 N 511.102 -2.83507 -0.638139 0
M  V30 5377 H 510.649 -2.567 0.215108 0
M  V30 5378 H 510.607 -2.76153 -1.50289 0
M  V30 5379 N 514.379 -1.04941 -1.1758 0
M  V30 5380 C 515.626 -0.757989 -1.87779 0
M  V30 5381 C 515.954 0.714827 -1.80888 0
M  V30 5382 O 515.209 1.53824 -1.20982 0
M  V30 5383 C 515.508 -1.18062 -3.37337 0
M  V30 5384 C 515.174 -2.65521 -3.6443 0
M  V30 5385 C 513.836 -3.05804 -3.71534 0
M  V30 5386 C 516.188 -3.60822 -3.76108 0
M  V30 5387 C 513.516 -4.40256 -3.87803 0
M  V30 5388 C 515.868 -4.95005 -3.93895 0
M  V30 5389 C 514.532 -5.34945 -3.99237 0
M  V30 5390 H 513.802 -0.277368 -0.68713 0
M  V30 5391 H 516.449 -1.31603 -1.39115 0
M  V30 5392 H 514.754 -0.541525 -3.8804 0
M  V30 5393 H 516.451 -0.932368 -3.9001 0
M  V30 5394 H 513.041 -2.33324 -3.59524 0
M  V30 5395 H 517.225 -3.30841 -3.69943 0
M  V30 5396 H 512.481 -4.70707 -3.90186 0
M  V30 5397 H 516.655 -5.68746 -4.01872 0
M  V30 5398 H 514.282 -6.39135 -4.11596 0
M  V30 5399 N 515.857 1.33968 -0.830081 0
M  V30 5400 C 516.82 2.27694 -0.26235 0
M  V30 5401 C 517.82 1.50589 0.563876 0
M  V30 5402 O 519.01 1.70028 0.378941 0
M  V30 5403 C 516.142 3.35002 0.63138 0
M  V30 5404 H 517.335 2.79419 -1.08928 0
M  V30 5405 H 514.888 1.44221 -0.602486 0
M  V30 5406 H 515.623 2.88504 1.48109 0
M  V30 5407 H 515.408 3.92079 0.0403276 0
M  V30 5408 H 516.898 4.04897 1.02217 0
M  V30 5409 N 517.335 0.585699 1.46312 0
M  V30 5410 C 518.582 0.0724211 2.0237 0
M  V30 5411 C 518.91 -1.28868 1.45683 0
M  V30 5412 O 518.165 -1.85853 0.612945 0
M  V30 5413 C 518.464 -0.0401312 3.57377 0
M  V30 5414 C 518.13 1.25376 4.33119 0
M  V30 5415 C 516.792 1.60824 4.5353 0
M  V30 5416 C 519.144 2.10987 4.76586 0
M  V30 5417 C 516.472 2.81676 5.14661 0
M  V30 5418 C 518.824 3.31068 5.39052 0
M  V30 5419 C 517.488 3.66794 5.5769 0
M  V30 5420 H 516.758 0.0265007 0.740526 0
M  V30 5421 H 519.405 0.762935 1.75646 0
M  V30 5422 H 517.71 -0.813791 3.83255 0
M  V30 5423 H 519.407 -0.453078 3.98432 0
M  V30 5424 H 515.997 0.967808 4.1753 0
M  V30 5425 H 520.181 1.84904 4.60569 0
M  V30 5426 H 515.437 3.0949 5.27282 0
M  V30 5427 H 519.611 3.97672 5.71691 0
M  V30 5428 H 517.238 4.60529 6.04828 0
M  V30 5429 N 518.813 -1.54241 0.323641 0
M  V30 5430 C 519.776 -2.22997 -0.529602 0
M  V30 5431 C 520.776 -1.22345 -1.04347 0
M  V30 5432 O 521.966 -1.46924 -0.935889 0
M  V30 5433 C 519.098 -2.93409 -1.73562 0
M  V30 5434 H 520.291 -2.99815 0.0714518 0
M  V30 5435 H 517.844 -1.56121 0.0747258 0
M  V30 5436 H 518.579 -2.20729 -2.37591 0
M  V30 5437 H 518.364 -3.67217 -1.37456 0
M  V30 5438 H 519.854 -3.45794 -2.34128 0
M  V30 5439 N 520.291 -0.0518155 -1.57515 0
M  V30 5440 C 521.224 0.957758 -2.07129 0
M  V30 5441 C 522.202 1.30355 -0.971927 0
M  V30 5442 O 523.386 1.41631 -1.2439 0
M  V30 5443 C 520.513 2.27157 -2.51232 0
M  V30 5444 C 519.559 2.07879 -3.72409 0
M  V30 5445 S 520.392 1.35656 -5.18033 0
M  V30 5446 C 521.548 2.68359 -5.65451 0
M  V30 5447 H 521.781 0.53552 -2.92437 0
M  V30 5448 H 519.314 0.160465 -1.53564 0
M  V30 5449 H 521.272 3.02676 -2.77304 0
M  V30 5450 H 519.933 2.66509 -1.66228 0
M  V30 5451 H 519.126 3.05061 -4.01191 0
M  V30 5452 H 518.728 1.40499 -3.46606 0
M  V30 5453 H 521.02 3.64526 -5.71076 0
M  V30 5454 H 521.963 2.44213 -6.64654 0
M  V30 5455 H 522.371 2.74647 -4.93183 0
M  V30 5456 N 521.769 1.56035 0.221574 0
M  V30 5457 C 522.699 1.95434 1.2778 0
M  V30 5458 C 523.68 0.822564 1.48889 0
M  V30 5459 O 524.865 1.08486 1.61072 0
M  V30 5460 C 521.995 2.27102 2.62759 0
M  V30 5461 C 520.949 3.4277 2.56306 0
M  V30 5462 C 520.275 3.60043 3.95314 0
M  V30 5463 C 521.575 4.77742 2.11093 0
M  V30 5464 H 523.269 2.83912 0.950504 0
M  V30 5465 H 520.815 1.36596 0.455791 0
M  V30 5466 H 522.768 2.53256 3.36807 0
M  V30 5467 H 521.492 1.35478 2.97176 0
M  V30 5468 H 520.151 3.16664 1.84715 0
M  V30 5469 H 519.799 2.65794 4.27039 0
M  V30 5470 H 519.499 4.37841 3.91879 0
M  V30 5471 H 521.023 3.88545 4.71025 0
M  V30 5472 H 522.437 5.03102 2.74885 0
M  V30 5473 H 520.834 5.58823 2.18716 0
M  V30 5474 H 521.904 4.731 1.06321 0
M  V30 5475 N 523.247 -0.488276 1.49845 0
M  V30 5476 C 524.475 -1.26527 1.63702 0
M  V30 5477 C 524.89 -1.8618 0.313447 0
M  V30 5478 O 524.247 -1.68432 -0.702624 0
M  V30 5479 C 524.298 -2.3864 2.71538 0
M  V30 5480 O 524.019 -1.81437 3.98763 0
M  V30 5481 C 525.52 -3.29805 2.96215 0
M  V30 5482 H 522.74 -0.383295 0.55075 0
M  V30 5483 H 525.284 -0.584779 1.95961 0
M  V30 5484 H 523.439 -3.02496 2.42023 0
M  V30 5485 H 523.853 -2.55135 4.58265 0
M  V30 5486 H 525.327 -4.04722 3.75372 0
M  V30 5487 H 525.804 -3.87563 2.06619 0
M  V30 5488 H 526.41 -2.71703 3.27196 0
M  V30 5489 N 524.725 -1.39134 -0.740242 0
M  V30 5490 C 525.971 -1.36273 -1.50192 0
M  V30 5491 C 526.304 0.0430136 -1.94152 0
M  V30 5492 O 525.579 1.00691 -1.66408 0
M  V30 5493 C 525.862 -2.33041 -2.74525 0
M  V30 5494 C 525.715 -3.82535 -2.36617 0
M  V30 5495 C 527.034 -2.27723 -3.76604 0
M  V30 5496 H 524.153 -0.496323 -0.544823 0
M  V30 5497 H 526.795 -1.70085 -0.846815 0
M  V30 5498 H 524.945 -2.04337 -3.30422 0
M  V30 5499 H 526.617 -4.21967 -1.86391 0
M  V30 5500 H 524.86 -3.99565 -1.68909 0
M  V30 5501 H 525.531 -4.45723 -3.2563 0
M  V30 5502 H 528.007 -2.53091 -3.30279 0
M  V30 5503 H 526.883 -2.97519 -4.61274 0
M  V30 5504 H 527.144 -1.28049 -4.2315 0
M  V30 5505 N 526.204 0.969867 -1.24223 0
M  V30 5506 C 527.451 1.71256 -1.08063 0
M  V30 5507 C 527.779 1.90734 0.380872 0
M  V30 5508 O 527.034 1.46469 1.29789 0
M  V30 5509 C 527.333 3.10883 -1.76314 0
M  V30 5510 C 526.999 3.11252 -3.26241 0
M  V30 5511 C 525.661 3.1106 -3.67144 0
M  V30 5512 C 528.013 3.05751 -4.22097 0
M  V30 5513 C 525.341 3.03097 -5.02344 0
M  V30 5514 C 527.693 2.9933 -5.57301 0
M  V30 5515 C 526.357 2.97466 -5.97554 0
M  V30 5516 H 525.627 0.62667 -0.395431 0
M  V30 5517 H 528.274 1.13422 -1.54297 0
M  V30 5518 H 526.579 3.72168 -1.22468 0
M  V30 5519 H 528.276 3.67138 -1.61277 0
M  V30 5520 H 524.866 3.12165 -2.93685 0
M  V30 5521 H 529.05 3.05031 -3.91497 0
M  V30 5522 H 524.306 3.00013 -5.32731 0
M  V30 5523 H 528.48 2.94033 -6.31283 0
M  V30 5524 H 526.107 2.91051 -7.02277 0
M  V30 5525 N 527.682 1.05563 1.17022 0
M  V30 5526 C 528.614 0.617888 2.20714 0
M  V30 5527 C 529.627 -0.320303 1.59618 0
M  V30 5528 O 530.816 -0.112449 1.78145 0
M  V30 5529 C 527.916 -0.115333 3.38704 0
M  V30 5530 C 527.089 0.834493 4.29366 0
M  V30 5531 C 526.148 0.141855 5.26009 0
M  V30 5532 O 525.174 0.777151 5.6387 0
M  V30 5533 N 526.376 -1.11934 5.69606 0
M  V30 5534 H 529.141 1.50981 2.58892 0
M  V30 5535 H 526.702 0.938008 1.31958 0
M  V30 5536 H 528.694 -0.588918 4.00392 0
M  V30 5537 H 527.264 -0.908967 2.99093 0
M  V30 5538 H 526.484 1.48762 3.65053 0
M  V30 5539 H 527.772 1.4791 4.86827 0
M  V30 5540 H 527.17 -1.65574 5.40927 0
M  V30 5541 H 525.727 -1.53692 6.33421 0
M  V30 5542 N 529.16 -1.33526 0.837174 0
M  V30 5543 C 530.4 -1.99649 0.438115 0
M  V30 5544 C 530.764 -1.64879 -0.983816 0
M  V30 5545 O 531.965 -2.23956 -1.48651 0
M  V30 5546 C 530.236 -3.51431 0.650461 0
M  V30 5547 S 531.795 -4.37431 0.346371 0
M  V30 5548 H 528.613 -0.69162 0.164872 0
M  V30 5549 H 531.215 -1.62556 1.08609 0
M  V30 5550 H 529.919 -3.74225 1.68475 0
M  V30 5551 H 529.45 -3.93398 -0.0117309 0
M  V30 5552 H 531.465 -4.89132 -0.834504 0
M  V30 5553 N 530.638 -0.59345 -1.46 0
M  V30 5554 C 531.887 -0.0808084 -2.01538 0
M  V30 5555 C 532.2 1.29112 -1.46934 0
M  V30 5556 O 533.406 1.8957 -1.94359 0
M  V30 5557 C 531.862 -0.0938311 -3.59778 0
M  V30 5558 C 531.47 -1.46474 -4.23379 0
M  V30 5559 C 533.214 0.364306 -4.22934 0
M  V30 5560 C 531.121 -1.4349 -5.73729 0
M  V30 5561 H 530.051 -0.0264407 -0.753536 0
M  V30 5562 H 532.702 -0.746689 -1.67621 0
M  V30 5563 H 531.084 0.638427 -3.9082 0
M  V30 5564 H 532.258 -2.21758 -4.03931 0
M  V30 5565 H 530.573 -1.86379 -3.7236 0
M  V30 5566 H 533.17 0.405584 -5.3316 0
M  V30 5567 H 533.513 1.38409 -3.92618 0
M  V30 5568 H 534.046 -0.31423 -3.96557 0
M  V30 5569 H 530.785 -2.43184 -6.08722 0
M  V30 5570 H 530.305 -0.724431 -5.95409 0
M  V30 5571 H 531.984 -1.15243 -6.36654 0
M  V30 5572 N 532.116 1.54067 -0.331816 0
M  V30 5573 C 533.344 2.05131 0.269996 0
M  V30 5574 C 533.759 1.20749 1.45138 0
M  V30 5575 O 533.116 0.240069 1.80914 0
M  V30 5576 C 533.167 3.54728 0.696456 0
M  V30 5577 O 532.888 4.35906 -0.43794 0
M  V30 5578 C 534.389 4.21916 1.36021 0
M  V30 5579 H 531.609 0.668807 0.0542042 0
M  V30 5580 H 534.153 1.98777 -0.4804 0
M  V30 5581 H 532.308 3.61342 1.39681 0
M  V30 5582 H 532.722 5.24404 -0.100334 0
M  V30 5583 H 534.196 5.28015 1.60947 0
M  V30 5584 H 534.673 3.73538 2.31011 0
M  V30 5585 H 535.279 4.19463 0.702212 0
M  V30 5586 N 533.594 0.0601682 1.57485 0
M  V30 5587 C 534.527 -0.94676 2.07634 0
M  V30 5588 C 535.505 -1.29837 0.978826 0
M  V30 5589 O 536.689 -1.40969 1.2514 0
M  V30 5590 C 533.816 -2.25822 2.52433 0
M  V30 5591 C 532.862 -2.05901 3.73507 0
M  V30 5592 S 533.695 -1.32907 5.18745 0
M  V30 5593 C 534.851 -2.65356 5.66866 0
M  V30 5594 H 535.084 -0.520003 2.92717 0
M  V30 5595 H 532.617 -0.152319 1.53647 0
M  V30 5596 H 534.575 -3.01201 2.78905 0
M  V30 5597 H 533.236 -2.65624 1.67639 0
M  V30 5598 H 532.429 -3.02929 4.02803 0
M  V30 5599 H 532.031 -1.38659 3.47347 0
M  V30 5600 H 534.323 -3.61492 5.73001 0
M  V30 5601 H 535.266 -2.40685 6.6594 0
M  V30 5602 H 535.674 -2.72028 4.94632 0
M  V30 5603 N 535.072 -1.5615 -0.213296 0
M  V30 5604 C 535.982 -1.96265 -1.28519 0
M  V30 5605 C 536.998 -0.86765 -1.50824 0
M  V30 5606 O 538.174 -1.17191 -1.63793 0
M  V30 5607 C 535.239 -2.27836 -2.61327 0
M  V30 5608 C 534.3 -3.50949 -2.47252 0
M  V30 5609 C 533.533 -3.81004 -3.73727 0
M  V30 5610 O 533.756 -3.12612 -4.77106 0
M  V30 5611 O 532.69 -4.74477 -3.70344 0
M  V30 5612 H 536.516 -2.87631 -0.974795 0
M  V30 5613 H 534.101 -1.43467 -0.416832 0
M  V30 5614 H 535.983 -2.49299 -3.39747 0
M  V30 5615 H 534.658 -1.39643 -2.9203 0
M  V30 5616 H 533.565 -3.34754 -1.67004 0
M  V30 5617 H 534.898 -4.39551 -2.21486 0
M  V30 5618 N 536.55 0.480323 -1.50102 0
M  V30 5619 C 537.798 1.23063 -1.60312 0
M  V30 5620 C 538.119 1.92659 -0.301226 0
M  V30 5621 O 537.389 1.83691 0.680753 0
M  V30 5622 H 535.969 0.457231 -0.590719 0
M  V30 5623 H 538.631 0.554893 -1.86834 0
M  V30 5624 H 537.727 1.9835 -2.40964 0
M  V30 5625 N 538.028 1.39524 0.732853 0
M  V30 5626 C 539.274 1.38072 1.49358 0
M  V30 5627 C 539.629 -0.0227943 1.92386 0
M  V30 5628 O 538.922 -0.98976 1.64056 0
M  V30 5629 C 539.116 2.28916 2.74468 0
M  V30 5630 C 538.945 3.7796 2.43673 0
M  V30 5631 C 537.715 4.46874 2.35863 0
M  V30 5632 C 539.913 4.69886 2.09074 0
M  V30 5633 N 537.895 5.81242 1.97561 0
M  V30 5634 C 539.266 5.9292 1.81234 0
M  V30 5635 C 541.321 4.57887 1.95561 0
M  V30 5636 C 540.024 7.05297 1.41242 0
M  V30 5637 C 542.05 5.70187 1.56972 0
M  V30 5638 C 541.412 6.92297 1.30018 0
M  V30 5639 H 537.511 0.56051 0.5453 0
M  V30 5640 H 540.095 1.75093 0.85151 0
M  V30 5641 H 538.266 1.9405 3.36451 0
M  V30 5642 H 539.998 2.18441 3.40684 0
M  V30 5643 H 536.753 4.00341 2.5303 0
M  V30 5644 H 537.177 6.52356 1.80997 0
M  V30 5645 H 541.819 3.64014 2.15067 0
M  V30 5646 H 539.537 7.99069 1.20476 0
M  V30 5647 H 543.123 5.62892 1.47119 0
M  V30 5648 H 542.003 7.7772 1.00605 0
M  V30 5649 N 539.506 -0.963266 1.24736 0
M  V30 5650 C 540.734 -1.74166 1.11686 0
M  V30 5651 C 541.149 -1.8589 -0.330187 0
M  V30 5652 O 540.506 -1.35042 -1.2276 0
M  V30 5653 C 540.557 -3.15989 1.75595 0
M  V30 5654 O 540.278 -3.04847 3.14642 0
M  V30 5655 C 541.779 -4.10145 1.68213 0
M  V30 5656 H 538.999 -0.546031 0.389989 0
M  V30 5657 H 541.543 -1.20907 1.64929 0
M  V30 5658 H 539.698 -3.66219 1.26343 0
M  V30 5659 H 540.112 -3.9425 3.4593 0
M  V30 5660 H 541.586 -5.07299 2.17604 0
M  V30 5661 H 542.063 -4.3445 0.644208 0
M  V30 5662 H 542.669 -3.65827 2.16912 0
M  V30 5663 N 540.985 -1.06182 -1.16461 0
M  V30 5664 C 542.262 -0.691364 -1.82974 0
M  V30 5665 C 542.642 0.827377 -1.9421 0
M  V30 5666 O 541.99 1.73723 -1.48434 0
M  V30 5667 C 542.2 -1.39199 -3.20038 0
M  V30 5668 C 543.548 -1.53647 -3.95825 0
M  V30 5669 O 544.572 -1.35181 -3.29552 0
M  V30 5670 O 543.431 -1.83932 -5.14618 0
M  V30 5671 H 540.525 -0.244605 -0.789998 0
M  V30 5672 H 543.071 -1.16203 -1.23673 0
M  V30 5673 H 541.843 -2.42766 -3.06888 0
M  V30 5674 H 541.466 -0.911335 -3.87015 0
M  V30 5675 N 542.463 1.3308 -0.844243 0
M  V30 5676 C 543.709 1.97898 -0.443206 0
M  V30 5677 C 544.042 1.66699 0.99625 0
M  V30 5678 O 543.317 0.949704 1.69738 0
M  V30 5679 C 543.6 3.53801 -0.670606 0
M  V30 5680 C 543.453 3.94667 -2.15772 0
M  V30 5681 C 544.772 4.39936 -0.120226 0
M  V30 5682 H 541.891 0.718861 -0.162504 0
M  V30 5683 H 544.533 1.57633 -1.06075 0
M  V30 5684 H 542.683 3.88229 -0.14496 0
M  V30 5685 H 544.355 3.70469 -2.74865 0
M  V30 5686 H 542.598 3.44203 -2.6402 0
M  V30 5687 H 543.269 5.03275 -2.26757 0
M  V30 5688 H 545.745 4.12183 -0.5696 0
M  V30 5689 H 544.621 5.4803 -0.308984 0
M  V30 5690 H 544.882 4.31184 0.976347 0
M  V30 5691 N 543.941 0.601185 1.45683 0
M  V30 5692 C 544.871 -0.108824 2.33246 0
M  V30 5693 C 545.852 -0.865223 1.46451 0
M  V30 5694 O 547.037 -0.83704 1.75235 0
M  V30 5695 C 544.167 -1.11101 3.2905 0
M  V30 5696 C 543.121 -0.468244 4.25431 0
M  V30 5697 C 542.447 -1.57822 5.10878 0
M  V30 5698 C 543.747 0.606469 5.18767 0
M  V30 5699 H 545.441 0.622306 2.92861 0
M  V30 5700 H 542.987 0.300714 1.40825 0
M  V30 5701 H 544.94 -1.61622 3.89174 0
M  V30 5702 H 543.664 -1.87265 2.67581 0
M  V30 5703 H 542.323 0.0160484 3.66596 0
M  V30 5704 H 541.971 -2.32998 4.45781 0
M  V30 5705 H 541.671 -1.15369 5.76163 0
M  V30 5706 H 543.195 -2.08583 5.73869 0
M  V30 5707 H 544.609 0.185589 5.73 0
M  V30 5708 H 543.006 0.952381 5.92494 0
M  V30 5709 H 544.076 1.48559 4.61582 0
M  V30 5710 N 545.419 -1.53889 0.339982 0
M  V30 5711 C 546.649 -2.04973 -0.258738 0
M  V30 5712 C 547.057 -1.21485 -1.45045 0
M  V30 5713 O 546.4 -0.2422 -1.82096 0
M  V30 5714 C 546.462 -3.51783 -0.740853 0
M  V30 5715 C 546.126 -4.55802 0.330734 0
M  V30 5716 C 547.123 -5.06512 1.17226 0
M  V30 5717 C 544.808 -4.99966 0.483637 0
M  V30 5718 C 546.802 -5.99963 2.15227 0
M  V30 5719 C 544.489 -5.93229 1.46704 0
M  V30 5720 C 545.487 -6.43115 2.29981 0
M  V30 5721 O 545.175 -7.34545 3.26649 0
M  V30 5722 H 544.907 -0.673807 -0.0544037 0
M  V30 5723 H 547.461 -1.99492 0.489107 0
M  V30 5724 H 545.691 -3.54717 -1.53988 0
M  V30 5725 H 547.38 -3.85857 -1.25973 0
M  V30 5726 H 548.146 -4.73158 1.0652 0
M  V30 5727 H 544.025 -4.6074 -0.15471 0
M  V30 5728 H 547.569 -6.38825 2.80265 0
M  V30 5729 H 543.466 -6.25998 1.57468 0
M  V30 5730 H 544.234 -7.52468 3.22078 0
M  V30 5731 N 546.897 -0.0685191 -1.57451 0
M  V30 5732 C 548.143 0.596247 -1.94465 0
M  V30 5733 C 548.498 1.67417 -0.948117 0
M  V30 5734 O 547.791 1.91576 0.0301056 0
M  V30 5735 C 547.985 1.22051 -3.35914 0
M  V30 5736 C 547.814 0.204586 -4.49234 0
M  V30 5737 C 546.584 -0.20959 -5.04865 0
M  V30 5738 C 548.782 -0.556872 -5.11276 0
M  V30 5739 N 546.764 -1.21656 -6.01725 0
M  V30 5740 C 548.135 -1.41642 -6.03604 0
M  V30 5741 C 550.19 -0.613297 -4.94108 0
M  V30 5742 C 548.893 -2.32737 -6.80607 0
M  V30 5743 C 550.919 -1.51174 -5.71752 0
M  V30 5744 C 550.281 -2.35898 -6.63726 0
M  V30 5745 H 546.38 0.189307 -0.75874 0
M  V30 5746 H 548.964 -0.144899 -1.9416 0
M  V30 5747 H 547.135 1.9316 -3.36963 0
M  V30 5748 H 548.867 1.84548 -3.60172 0
M  V30 5749 H 545.622 0.172871 -4.73284 0
M  V30 5750 H 546.046 -1.71746 -6.54853 0
M  V30 5751 H 550.688 0.0275228 -4.22791 0
M  V30 5752 H 548.406 -2.97856 -7.51204 0
M  V30 5753 H 551.992 -1.5602 -5.6049 0
M  V30 5754 H 550.872 -3.04291 -7.22756 0
M  V30 5755 N 548.375 1.56261 0.205012 0
M  V30 5756 C 549.621 1.80306 0.9283 0
M  V30 5757 C 549.954 0.640932 1.83319 0
M  V30 5758 O 549.229 -0.359032 1.91158 0
M  V30 5759 C 549.512 3.14547 1.75306 0
M  V30 5760 C 549.365 4.41236 0.873562 0
M  V30 5761 C 550.684 3.45382 2.72762 0
M  V30 5762 H 547.803 0.655929 0.336044 0
M  V30 5763 H 550.445 1.88984 0.196211 0
M  V30 5764 H 548.595 3.0728 2.37721 0
M  V30 5765 H 550.267 4.60539 0.264887 0
M  V30 5766 H 548.51 4.33427 0.179773 0
M  V30 5767 H 549.181 5.31639 1.48541 0
M  V30 5768 H 551.657 3.52884 2.20481 0
M  V30 5769 H 550.533 4.40449 3.2756 0
M  V30 5770 H 550.794 2.68377 3.51321 0
M  V30 5771 N 549.853 -0.472356 1.50355 0
M  V30 5772 C 550.801 -1.59126 1.69651 0
M  V30 5773 C 551.795 -1.59793 0.56237 0
M  V30 5774 O 553.001 -1.63957 0.742832 0
M  V30 5775 H 549.376 -0.528008 0.535454 0
M  V30 5776 H 551.347 -1.40013 2.63513 0
M  V30 5777 C 550.096 -2.97075 1.8067 0
M  V30 5778 H 549.419 -2.9728 2.67329 0
M  V30 5779 H 550.859 -3.74825 1.98197 0
M  V30 5780 C 549.318 -3.32247 0.558016 0
M  V30 5781 O 549.848 -4.00553 -0.303399 0
M  V30 5782 N 548.054 -2.87659 0.412415 0
M  V30 5783 H 547.601 -2.32246 1.11443 0
M  V30 5784 H 547.559 -3.11556 -0.421908 0
M  V30 5785 N 551.331 -1.39911 -0.725443 0
M  V30 5786 C 552.608 -1.28158 -1.47766 0
M  V30 5787 C 552.988 0.104545 -2.10841 0
M  V30 5788 O 552.336 1.11657 -1.99361 0
M  V30 5789 C 552.546 -2.41306 -2.52135 0
M  V30 5790 C 553.894 -2.81076 -3.18247 0
M  V30 5791 O 554.918 -2.40827 -2.62452 0
M  V30 5792 O 553.777 -3.50581 -4.19231 0
M  V30 5793 H 550.871 -0.502761 -0.656628 0
M  V30 5794 H 553.417 -1.51808 -0.758456 0
M  V30 5795 H 552.189 -3.33932 -2.03974 0
M  V30 5796 H 551.812 -2.19374 -3.31603 0
M  V30 5797 N 552.809 0.956637 -1.25245 0
M  V30 5798 C 553.772 2.03457 -1.05537 0
M  V30 5799 C 554.772 1.60798 -0.00886317 0
M  V30 5800 O 555.962 1.72384 -0.250865 0
M  V30 5801 C 553.094 3.35543 -0.601965 0
M  V30 5802 H 554.287 2.22372 -2.01223 0
M  V30 5803 H 551.84 1.13344 -1.07623 0
M  V30 5804 H 552.575 3.22323 0.357584 0
M  V30 5805 H 552.36 3.67854 -1.35743 0
M  V30 5806 H 553.85 4.14769 -0.485454 0
M  V30 5807 N 554.287 1.06798 1.15896 0
M  V30 5808 C 555.533 0.788934 1.86825 0
M  V30 5809 C 555.866 -0.683084 1.8179 0
M  V30 5810 O 555.141 -1.50086 1.23711 0
M  V30 5811 C 555.424 1.29065 3.36176 0
M  V30 5812 C 555.277 2.8268 3.49874 0
M  V30 5813 C 556.596 0.902655 4.30744 0
M  V30 5814 H 553.715 0.288066 0.678371 0
M  V30 5815 H 556.357 1.32479 1.36195 0
M  V30 5816 H 554.507 0.834806 3.79425 0
M  V30 5817 H 556.179 3.36511 3.15528 0
M  V30 5818 H 554.422 3.21157 2.91617 0
M  V30 5819 H 555.093 3.12852 4.54783 0
M  V30 5820 H 557.569 1.29535 3.95424 0
M  V30 5821 H 556.445 1.28111 5.3374 0
M  V30 5822 H 556.706 -0.191951 4.41683 0
M  V30 5823 N 555.766 -1.3263 0.851289 0
M  V30 5824 C 557.014 -1.96978 0.452128 0
M  V30 5825 C 557.335 -1.67715 -0.99482 0
M  V30 5826 O 556.605 -0.98259 -1.69476 0
M  V30 5827 H 555.185 -0.72873 0.164202 0
M  V30 5828 H 557.847 -1.61774 1.08698 0
M  V30 5829 H 556.943 -3.06387 0.594407 0
M  V30 5830 N 557.244 -0.608902 -1.45362 0
M  V30 5831 C 558.66 -0.272659 -1.57254 0
M  V30 5832 C 558.86 1.22477 -1.60005 0
M  V30 5833 O 557.916 2.00785 -1.53106 0
M  V30 5834 C 559.229 -0.944991 -2.85465 0
M  V30 5835 C 560.777 -0.921033 -2.99142 0
M  V30 5836 C 561.252 -1.5734 -4.30126 0
M  V30 5837 N 562.743 -1.53895 -4.36887 0
M  V30 5838 C 563.478 -2.01286 -5.36909 0
M  V30 5839 N 562.974 -2.56768 -6.43461 0
M  V30 5840 N 564.767 -1.92046 -5.28275 0
M  V30 5841 H 556.918 -1.58117 -1.4182 0
M  V30 5842 H 559.181 -0.662437 -0.678146 0
M  V30 5843 H 558.887 -1.99941 -2.89338 0
M  V30 5844 H 558.761 -0.469079 -3.74272 0
M  V30 5845 H 561.148 0.124846 -2.94836 0
M  V30 5846 H 561.229 -1.43522 -2.11743 0
M  V30 5847 H 560.873 -2.61862 -4.35191 0
M  V30 5848 H 560.803 -1.03422 -5.16344 0
M  V30 5849 H 563.294 -1.13366 -3.60495 0
M  V30 5850 H 563.607 -2.9072 -7.16032 0
M  V30 5851 H 561.952 -2.60808 -6.44208 0
M  V30 5852 H 565.143 -1.48439 -4.43941 0
M  V30 5853 H 565.316 -2.29293 -6.06077 0
M  V30 5854 N 558.722 1.53707 -0.348139 0
M  V30 5855 C 559.999 1.93247 0.302475 0
M  V30 5856 C 560.379 1.28012 1.67857 0
M  V30 5857 O 559.727 0.43274 2.24365 0
M  V30 5858 C 559.937 3.47031 0.370159 0
M  V30 5859 C 561.285 4.20066 0.61882 0
M  V30 5860 O 562.309 3.53319 0.452087 0
M  V30 5861 O 561.168 5.38318 0.94215 0
M  V30 5862 H 558.262 0.807736 0.177458 0
M  V30 5863 H 560.808 1.64927 -0.399651 0
M  V30 5864 H 559.58 3.86745 -0.59534 0
M  V30 5865 H 559.203 3.81532 1.11888 0
M  V30 5866 N 560.2 0.0768682 1.57412 0
M  V30 5867 C 561.446 -0.585926 1.94778 0
M  V30 5868 C 561.801 -1.66912 0.956982 0
M  V30 5869 O 561.094 -1.9159 -0.0199454 0
M  V30 5870 C 561.288 -1.20268 3.36557 0
M  V30 5871 C 561.117 -0.18076 4.49337 0
M  V30 5872 C 559.887 0.236362 5.04747 0
M  V30 5873 C 562.085 0.583978 5.10974 0
M  V30 5874 N 560.067 1.24846 6.01071 0
M  V30 5875 C 561.438 1.44841 6.02844 0
M  V30 5876 C 563.493 0.639492 4.93776 0
M  V30 5877 C 562.196 2.36343 6.79363 0
M  V30 5878 C 564.222 1.54204 5.70942 0
M  V30 5879 C 563.584 2.39414 6.62465 0
M  V30 5880 H 559.683 -0.185281 0.759734 0
M  V30 5881 H 562.267 0.155193 1.9408 0
M  V30 5882 H 560.438 -1.9137 3.37982 0
M  V30 5883 H 562.17 -1.82636 3.61146 0
M  V30 5884 H 558.925 -0.14777 4.73369 0
M  V30 5885 H 559.349 1.75217 6.53933 0
M  V30 5886 H 563.991 -0.00510074 4.228 0
M  V30 5887 H 561.709 3.01836 7.49614 0
M  V30 5888 H 565.295 1.5899 5.59655 0
M  V30 5889 H 564.175 3.0812 7.21132 0
M  V30 5890 N 561.678 -1.56367 -0.196722 0
M  V30 5891 C 563.089 -1.70462 -0.761545 0
M  V30 5892 C 563.44 -0.683161 -1.83922 0
M  V30 5893 O 562.565 0.160753 -2.15802 0
M  V30 5894 C 563.16 -3.09057 -1.38814 0
M  V30 5895 C 561.719 -3.24922 -1.90007 0
M  V30 5896 C 560.866 -2.66412 -0.769399 0
M  V30 5897 H 563.817 -1.58675 0.0283263 0
M  V30 5898 H 563.838 -3.06296 -2.2575 0
M  V30 5899 H 563.35 -3.83378 -0.603559 0
M  V30 5900 H 561.451 -2.55514 -2.71189 0
M  V30 5901 H 561.564 -4.3241 -2.06297 0
M  V30 5902 H 559.928 -2.25546 -1.18326 0
M  V30 5903 H 560.711 -3.433 0.00291773 0
M  V30 5904 N 563.156 0.464375 -1.50603 0
M  V30 5905 C 564.402 1.21485 -1.63135 0
M  V30 5906 C 564.757 1.89538 -0.33063 0
M  V30 5907 O 564.05 1.79432 0.671903 0
M  V30 5908 C 564.244 2.278 -2.75394 0
M  V30 5909 C 564.073 1.70178 -4.16257 0
M  V30 5910 C 562.843 1.49854 -4.82568 0
M  V30 5911 C 565.041 1.19298 -5.00272 0
M  V30 5912 N 563.023 0.875458 -6.07626 0
M  V30 5913 C 564.394 0.693527 -6.16109 0
M  V30 5914 C 566.449 1.08216 -4.85998 0
M  V30 5915 C 565.152 0.0941808 -7.19238 0
M  V30 5916 C 567.178 0.496745 -5.8931 0
M  V30 5917 C 566.54 0.00770448 -7.044 0
M  V30 5918 H 562.639 0.433184 -0.651057 0
M  V30 5919 H 565.223 0.515748 -1.87745 0
M  V30 5920 H 563.394 2.95129 -2.52495 0
M  V30 5921 H 565.126 2.94814 -2.77249 0
M  V30 5922 H 561.881 1.75269 -4.39975 0
M  V30 5923 H 562.305 0.582135 -6.74493 0
M  V30 5924 H 566.947 1.44617 -3.97298 0
M  V30 5925 H 564.665 -0.28202 -8.07608 0
M  V30 5926 H 568.251 0.413275 -5.8033 0
M  V30 5927 H 567.131 -0.438188 -7.82975 0
M  V30 5928 N 564.634 1.40294 0.718013 0
M  V30 5929 C 565.883 1.37746 1.4734 0
M  V30 5930 C 566.196 -0.0180754 1.95592 0
M  V30 5931 O 567.402 -0.166166 2.70991 0
M  V30 5932 C 565.858 2.4208 2.66318 0
M  V30 5933 C 565.466 3.87432 2.24945 0
M  V30 5934 C 567.21 2.48635 3.44065 0
M  V30 5935 C 565.117 4.83368 3.40748 0
M  V30 5936 H 564.047 0.512165 0.553356 0
M  V30 5937 H 566.698 1.66019 0.781661 0
M  V30 5938 H 565.08 2.06903 3.3765 0
M  V30 5939 H 566.254 4.3174 1.6105 0
M  V30 5940 H 564.569 3.8433 1.60249 0
M  V30 5941 H 567.166 3.17499 4.30231 0
M  V30 5942 H 567.509 1.51611 3.87711 0
M  V30 5943 H 568.042 2.82791 2.79775 0
M  V30 5944 H 564.781 5.81716 3.02136 0
M  V30 5945 H 564.301 4.43726 4.03568 0
M  V30 5946 H 565.98 5.03074 4.06848 0
M  V30 5947 N 566.112 -0.949982 1.2575 0
M  V30 5948 C 567.342 -1.72721 1.13363 0
M  V30 5949 C 567.75 -1.86562 -0.314842 0
M  V30 5950 O 567.093 -1.36621 -1.22803 0
M  V30 5951 C 567.155 -3.15695 1.7198 0
M  V30 5952 C 566.819 -3.25268 3.21014 0
M  V30 5953 C 567.816 -3.09222 4.17945 0
M  V30 5954 C 565.501 -3.4894 3.61312 0
M  V30 5955 C 567.495 -3.16701 5.53154 0
M  V30 5956 C 565.182 -3.56055 4.96657 0
M  V30 5957 C 566.18 -3.3995 5.92387 0
M  V30 5958 O 565.868 -3.46757 7.25269 0
M  V30 5959 H 565.6 -0.547888 0.395973 0
M  V30 5960 H 568.154 -1.20009 1.66694 0
M  V30 5961 H 566.384 -3.69791 1.13101 0
M  V30 5962 H 568.073 -3.75295 1.54624 0
M  V30 5963 H 568.839 -2.90798 3.88151 0
M  V30 5964 H 564.718 -3.60534 2.87291 0
M  V30 5965 H 568.262 -3.04048 6.27854 0
M  V30 5966 H 564.159 -3.73997 5.26115 0
M  V30 5967 H 564.927 -3.63358 7.33426 0
M  V30 5968 N 567.59 -1.07411 -1.15328 0
M  V30 5969 C 568.837 -0.797649 -1.86128 0
M  V30 5970 C 569.165 0.676298 -1.82364 0
M  V30 5971 O 568.42 1.51223 -1.24218 0
M  V30 5972 C 568.719 -1.25191 -3.34757 0
M  V30 5973 C 568.385 -2.73191 -3.58716 0
M  V30 5974 C 567.047 -3.13616 -3.64964 0
M  V30 5975 C 569.399 -3.68718 -3.6837 0
M  V30 5976 C 566.727 -4.48383 -3.78377 0
M  V30 5977 C 569.079 -5.03248 -3.83306 0
M  V30 5978 C 567.743 -5.43293 -3.878 0
M  V30 5979 H 567.013 -0.29188 -0.681092 0
M  V30 5980 H 569.66 -1.34524 -1.36292 0
M  V30 5981 H 567.965 -0.623712 -3.86804 0
M  V30 5982 H 569.662 -1.01489 -3.87945 0
M  V30 5983 H 566.252 -2.40898 -3.54494 0
M  V30 5984 H 570.436 -3.38614 -3.62842 0
M  V30 5985 H 565.692 -4.78877 -3.80114 0
M  V30 5986 H 569.866 -5.77142 -3.89718 0
M  V30 5987 H 567.493 -6.47721 -3.97946 0
M  V30 5988 N 569.068 1.32177 -0.85831 0
M  V30 5989 C 570.314 1.97417 -0.46417 0
M  V30 5990 C 570.647 1.67746 0.978514 0
M  V30 5991 O 569.922 0.967654 1.68721 0
M  V30 5992 C 570.205 3.53069 -0.708094 0
M  V30 5993 C 570.058 3.92357 -2.19946 0
M  V30 5994 C 571.377 4.39783 -0.166881 0
M  V30 5995 H 568.496 0.717097 -0.17012 0
M  V30 5996 H 571.138 1.56499 -1.07741 0
M  V30 5997 H 569.288 3.88054 -0.186128 0
M  V30 5998 H 570.96 3.67533 -2.78779 0
M  V30 5999 H 569.203 3.41384 -2.67656 0
M  V30 6000 H 569.874 5.00841 -2.32082 0
M  V30 6001 H 572.35 4.11556 -0.613285 0
M  V30 6002 H 571.226 5.47671 -0.367093 0
M  V30 6003 H 571.487 4.32196 0.930559 0
M  V30 6004 N 570.547 0.616602 1.45037 0
M  V30 6005 C 571.775 0.121968 2.0654 0
M  V30 6006 C 572.19 -1.19743 1.45969 0
M  V30 6007 O 571.547 -1.73133 0.577168 0
M  V30 6008 C 571.598 -0.0145171 3.61497 0
M  V30 6009 O 571.319 1.25269 4.19809 0
M  V30 6010 C 572.82 -0.539555 4.40004 0
M  V30 6011 H 570.04 0.0729837 0.667019 0
M  V30 6012 H 572.584 0.846891 1.8614 0
M  V30 6013 H 570.739 -0.689809 3.81209 0
M  V30 6014 H 571.153 1.08816 5.13088 0
M  V30 6015 H 572.627 -0.584112 5.48901 0
M  V30 6016 H 573.104 -1.56368 4.10421 0
M  V30 6017 H 573.71 0.101995 4.25178 0
M  V30 6018 N 572.025 -1.5352 0.356285 0
M  V30 6019 C 572.955 -2.28372 -0.486661 0
M  V30 6020 C 573.936 -1.30432 -1.09185 0
M  V30 6021 O 575.121 -1.59291 -1.11085 0
M  V30 6022 C 572.251 -3.06604 -1.63129 0
M  V30 6023 C 571.205 -4.12154 -1.15381 0
M  V30 6024 C 570.531 -4.78415 -2.38796 0
M  V30 6025 C 571.831 -5.21724 -0.245179 0
M  V30 6026 H 573.525 -2.99083 0.137797 0
M  V30 6027 H 571.071 -1.43841 0.0677134 0
M  V30 6028 H 573.024 -3.57712 -2.22755 0
M  V30 6029 H 571.748 -2.33568 -2.28284 0
M  V30 6030 H 570.407 -3.61978 -0.580294 0
M  V30 6031 H 570.055 -4.01959 -3.02387 0
M  V30 6032 H 569.755 -5.49734 -2.07524 0
M  V30 6033 H 571.279 -5.32313 -2.99125 0
M  V30 6034 H 572.693 -5.68391 -0.748646 0
M  V30 6035 H 571.09 -6.00095 -0.0237608 0
M  V30 6036 H 572.16 -4.79596 0.715229 0
M  V30 6037 N 573.503 -0.0852151 -1.57369 0
M  V30 6038 C 574.752 0.580443 -1.93168 0
M  V30 6039 C 575.065 1.6995 -0.968319 0
M  V30 6040 O 576.271 2.42564 -1.21963 0
M  V30 6041 C 574.727 1.08386 -3.43192 0
M  V30 6042 C 574.335 -0.00491388 -4.48 0
M  V30 6043 C 576.079 1.72281 -3.87968 0
M  V30 6044 C 573.986 0.513299 -5.89168 0
M  V30 6045 H 572.916 0.22059 -0.72101 0
M  V30 6046 H 575.567 -0.159621 -1.82804 0
M  V30 6047 H 573.949 1.8773 -3.48674 0
M  V30 6048 H 575.123 -0.780032 -4.5415 0
M  V30 6049 H 573.438 -0.548453 -4.12772 0
M  V30 6050 H 576.035 2.12108 -4.9083 0
M  V30 6051 H 576.378 2.58811 -3.26071 0
M  V30 6052 H 576.911 0.995359 -3.85146 0
M  V30 6053 H 573.65 -0.315153 -6.54742 0
M  V30 6054 H 573.17 1.25564 -5.8651 0
M  V30 6055 H 574.849 0.985433 -6.39451 0
M  V30 6056 N 574.981 1.5647 0.188427 0
M  V30 6057 C 576.23 1.80207 0.905995 0
M  V30 6058 C 576.543 0.659579 1.84144 0
M  V30 6059 O 577.749 0.781431 2.60011 0
M  V30 6060 C 576.205 3.19255 1.66145 0
M  V30 6061 C 575.813 4.41324 0.770504 0
M  V30 6062 C 577.557 3.52298 2.36826 0
M  V30 6063 C 575.464 5.71394 1.52521 0
M  V30 6064 H 574.394 0.671953 0.342045 0
M  V30 6065 H 577.045 1.82808 0.159164 0
M  V30 6066 H 575.427 3.10922 2.45242 0
M  V30 6067 H 576.601 4.60797 0.0177261 0
M  V30 6068 H 574.916 4.16035 0.174199 0
M  V30 6069 H 577.513 4.46715 2.93854 0
M  V30 6070 H 577.856 2.76359 3.11338 0
M  V30 6071 H 578.389 3.62108 1.6469 0
M  V30 6072 H 575.128 6.50316 0.82275 0
M  V30 6073 H 574.648 5.55928 2.25175 0
M  V30 6074 H 576.327 6.12747 2.07725 0
M  V30 6075 N 576.459 -0.456382 1.50847 0
M  V30 6076 C 577.708 -1.2042 1.61808 0
M  V30 6077 C 578.021 -1.9278 0.330932 0
M  V30 6078 O 579.227 -2.69612 0.319643 0
M  V30 6079 C 577.683 -2.18891 2.85683 0
M  V30 6080 C 577.291 -1.52267 4.2133 0
M  V30 6081 C 579.035 -2.94224 3.05994 0
M  V30 6082 C 576.942 -2.4911 5.36375 0
M  V30 6083 H 575.872 -0.453177 0.602616 0
M  V30 6084 H 578.523 -0.473144 1.77295 0
M  V30 6085 H 576.905 -2.95351 2.63787 0
M  V30 6086 H 578.079 -0.814949 4.53536 0
M  V30 6087 H 576.394 -0.891594 4.06743 0
M  V30 6088 H 578.991 -3.66732 3.89117 0
M  V30 6089 H 579.334 -3.54469 2.18306 0
M  V30 6090 H 579.867 -2.24874 3.28141 0
M  V30 6091 H 576.606 -1.93582 6.26264 0
M  V30 6092 H 576.126 -3.17991 5.08569 0
M  V30 6093 H 577.805 -3.10637 5.67551 0
M  V30 6094 N 577.937 -1.40673 -0.710563 0
M  V30 6095 C 579.185 -1.38947 -1.46759 0
M  V30 6096 C 579.506 0.00572879 -1.94999 0
M  V30 6097 O 578.776 0.961358 -1.70689 0
M  V30 6098 H 577.356 -0.5114 -0.544499 0
M  V30 6099 H 580.018 -1.75773 -0.842012 0
M  V30 6100 H 579.114 -2.06745 -2.33801 0
M  V30 6101 N 579.415 0.9433 -1.26252 0
M  V30 6102 C 580.64 1.72898 -1.14547 0
M  V30 6103 C 581.065 1.85761 0.295743 0
M  V30 6104 O 580.423 1.3463 1.21427 0
M  V30 6105 C 580.471 3.11471 -1.8171 0
M  V30 6106 O 579.575 3.97336 -1.10445 0
M  V30 6107 H 578.916 0.530555 -0.399259 0
M  V30 6108 H 581.446 1.18159 -1.67032 0
M  V30 6109 H 581.456 3.61872 -1.88449 0
M  V30 6110 H 580.131 3.01425 -2.86558 0
M  V30 6111 H 578.708 3.55788 -1.11666 0
M  V30 6112 N 580.893 1.08022 1.14757 0
M  V30 6113 C 582.14 0.807509 1.85703 0
M  V30 6114 C 582.468 -0.666617 1.8272 0
M  V30 6115 O 581.723 -1.50562 1.25018 0
M  V30 6116 C 582.022 1.26964 3.34088 0
M  V30 6117 C 581.688 2.7509 3.57262 0
M  V30 6118 C 580.35 3.15547 3.63296 0
M  V30 6119 C 582.702 3.70667 3.66409 0
M  V30 6120 C 580.03 4.50384 3.75994 0
M  V30 6121 C 582.382 5.05274 3.80632 0
M  V30 6122 C 581.046 5.45342 3.84913 0
M  V30 6123 H 580.316 0.295488 0.679535 0
M  V30 6124 H 582.963 1.35245 1.35577 0
M  V30 6125 H 581.268 0.644216 3.86467 0
M  V30 6126 H 582.965 1.03544 3.87401 0
M  V30 6127 H 579.555 2.42775 3.53212 0
M  V30 6128 H 583.739 3.40533 3.61041 0
M  V30 6129 H 578.995 4.80886 3.77569 0
M  V30 6130 H 583.169 5.79201 3.86652 0
M  V30 6131 H 580.796 6.49823 3.94505 0
M  V30 6132 N 582.371 -1.3172 0.865308 0
M  V30 6133 C 583.618 -1.96876 0.473931 0
M  V30 6134 C 583.946 -1.68425 -0.972786 0
M  V30 6135 O 583.201 -0.970742 -1.69927 0
M  V30 6136 C 583.5 -3.5102 0.672283 0
M  V30 6137 C 583.166 -3.9948 2.09108 0
M  V30 6138 C 581.828 -4.12425 2.4791 0
M  V30 6139 C 584.18 -4.2503 3.0166 0
M  V30 6140 C 581.508 -4.48267 3.78515 0
M  V30 6141 C 583.86 -4.62335 4.31774 0
M  V30 6142 C 582.524 -4.73486 4.70497 0
M  V30 6143 H 581.794 -0.72042 0.173424 0
M  V30 6144 H 584.441 -1.56937 1.0974 0
M  V30 6145 H 582.746 -3.91785 -0.034356 0
M  V30 6146 H 584.443 -3.99475 0.349353 0
M  V30 6147 H 581.033 -3.89898 1.77981 0
M  V30 6148 H 585.217 -4.14529 2.7291 0
M  V30 6149 H 580.473 -4.55097 4.08285 0
M  V30 6150 H 584.647 -4.81058 5.03543 0
M  V30 6151 H 582.274 -5.01016 5.71741 0
M  V30 6152 N 583.85 -0.624285 -1.44708 0
M  V30 6153 C 585.096 -0.126237 -2.02407 0
M  V30 6154 C 585.428 1.24618 -1.48943 0
M  V30 6155 O 584.704 1.82569 -0.670742 0
M  V30 6156 C 584.986 -0.105449 -3.59946 0
M  V30 6157 C 584.84 -1.50972 -4.23707 0
M  V30 6158 C 586.159 0.573629 -4.36346 0
M  V30 6159 H 583.278 -0.0473472 -0.735478 0
M  V30 6160 H 585.92 -0.799452 -1.72362 0
M  V30 6161 H 584.07 0.46783 -3.85673 0
M  V30 6162 H 585.742 -2.13136 -4.0911 0
M  V30 6163 H 583.985 -2.0656 -3.81465 0
M  V30 6164 H 584.656 -1.44727 -5.32689 0
M  V30 6165 H 587.132 0.0861787 -4.16011 0
M  V30 6166 H 586.008 0.557338 -5.46063 0
M  V30 6167 H 586.269 1.64276 -4.10446 0
M  V30 6168 N 585.328 1.53329 -0.364422 0
M  V30 6169 C 586.258 2.28627 0.474543 0
M  V30 6170 C 587.239 1.31009 1.08492 0
M  V30 6171 O 588.424 1.59878 1.10239 0
M  V30 6172 C 585.554 3.07465 1.61501 0
M  V30 6173 C 584.508 4.1276 1.13194 0
M  V30 6174 C 583.834 4.79674 2.36255 0
M  V30 6175 C 585.134 5.21847 0.217507 0
M  V30 6176 H 586.828 2.99005 -0.153656 0
M  V30 6177 H 584.374 1.43803 -0.0753406 0
M  V30 6178 H 586.327 3.58889 2.20855 0
M  V30 6179 H 585.051 2.34775 2.27042 0
M  V30 6180 H 583.71 3.62281 0.56109 0
M  V30 6181 H 583.358 4.03557 3.00251 0
M  V30 6182 H 583.058 5.50827 2.04606 0
M  V30 6183 H 584.582 5.33892 2.96297 0
M  V30 6184 H 585.996 5.6878 0.718493 0
M  V30 6185 H 584.393 6.00099 -0.00806408 0
M  V30 6186 H 585.463 4.7921 -0.740653 0
M  V30 6187 N 586.806 0.0935595 1.57322 0
M  V30 6188 C 587.754 -0.883457 2.15169 0
M  V30 6189 C 588.748 -1.29324 1.09415 0
M  V30 6190 O 589.954 -1.26795 1.27762 0
M  V30 6191 H 586.329 -0.302923 0.688289 0
M  V30 6192 H 588.3 -0.370845 2.96087 0
M  V30 6193 C 587.049 -2.13345 2.74552 0
M  V30 6194 H 586.372 -1.82702 3.55612 0
M  V30 6195 H 587.812 -2.7977 3.18598 0
M  V30 6196 C 586.271 -2.90646 1.70371 0
M  V30 6197 O 586.801 -3.85133 1.14173 0
M  V30 6198 N 585.007 -2.54157 1.40899 0
M  V30 6199 H 584.554 -1.77391 1.86789 0
M  V30 6200 H 584.512 -3.06178 0.714301 0
M  V30 6201 N 588.284 -1.56567 -0.180126 0
M  V30 6202 C 589.214 -1.98753 -1.22553 0
M  V30 6203 C 590.195 -0.86175 -1.46656 0
M  V30 6204 O 591.38 -1.12719 -1.58139 0
M  V30 6205 C 588.51 -2.33988 -2.56645 0
M  V30 6206 C 587.464 -3.49445 -2.47128 0
M  V30 6207 C 586.79 -3.70397 -3.8563 0
M  V30 6208 C 588.09 -4.83171 -1.98352 0
M  V30 6209 H 589.784 -2.86332 -0.874896 0
M  V30 6210 H 587.33 -1.37757 -0.419414 0
M  V30 6211 H 589.283 -2.62097 -3.29974 0
M  V30 6212 H 588.007 -1.43309 -2.93479 0
M  V30 6213 H 586.666 -3.2145 -1.76254 0
M  V30 6214 H 586.314 -2.77023 -4.19842 0
M  V30 6215 H 586.014 -4.48077 -3.80132 0
M  V30 6216 H 587.538 -4.00897 -4.60558 0
M  V30 6217 H 588.952 -5.10213 -2.61449 0
M  V30 6218 H 587.349 -5.64425 -2.03823 0
M  V30 6219 H 588.419 -4.75753 -0.937402 0
M  V30 6220 N 589.762 0.448376 -1.51087 0
M  V30 6221 C 591.008 1.20049 -1.6345 0
M  V30 6222 C 591.341 1.91121 -0.344444 0
M  V30 6223 O 590.616 1.83125 0.655396 0
M  V30 6224 C 590.899 2.22624 -2.83038 0
M  V30 6225 C 590.752 1.55708 -4.21989 0
M  V30 6226 C 592.071 3.23718 -2.98152 0
M  V30 6227 H 589.19 0.435085 -0.59487 0
M  V30 6228 H 591.832 0.491183 -1.83541 0
M  V30 6229 H 589.982 2.83117 -2.66039 0
M  V30 6230 H 591.654 0.986367 -4.50631 0
M  V30 6231 H 589.897 0.859647 -4.25197 0
M  V30 6232 H 590.568 2.30357 -5.01637 0
M  V30 6233 H 593.044 2.73269 -3.13788 0
M  V30 6234 H 591.92 3.92795 -3.83411 0
M  V30 6235 H 592.181 3.89179 -2.09743 0
M  V30 6236 N 591.24 1.41047 0.703093 0
M  V30 6237 C 592.17 1.45067 1.82969 0
M  V30 6238 C 593.151 0.31016 1.67248 0
M  V30 6239 O 594.336 0.520548 1.87093 0
M  V30 6240 C 591.466 1.32478 3.2104 0
M  V30 6241 C 590.42 2.44262 3.51454 0
M  V30 6242 C 589.746 2.16742 4.88801 0
M  V30 6243 C 591.046 3.86606 3.51189 0
M  V30 6244 H 592.74 2.39353 1.79863 0
M  V30 6245 H 590.286 1.15206 0.863919 0
M  V30 6246 H 592.239 1.33904 3.99559 0
M  V30 6247 H 590.963 0.346735 3.24754 0
M  V30 6248 H 589.622 2.42107 2.75282 0
M  V30 6249 H 589.27 1.17299 4.89132 0
M  V30 6250 H 588.97 2.91643 5.10116 0
M  V30 6251 H 590.494 2.19872 5.69639 0
M  V30 6252 H 591.908 3.90517 4.19725 0
M  V30 6253 H 590.305 4.61128 3.84033 0
M  V30 6254 H 591.375 4.15296 2.50315 0
M  V30 6255 N 592.718 -0.936591 1.26751 0
M  V30 6256 C 593.966 -1.67998 1.12343 0
M  V30 6257 C 594.287 -1.92137 -0.332938 0
M  V30 6258 O 593.557 -1.52132 -1.23421 0
M  V30 6259 H 592.137 -0.622609 0.412756 0
M  V30 6260 H 594.799 -1.12509 1.59147 0
M  V30 6261 H 593.895 -2.65185 1.64571 0
M  V30 6262 N 594.196 -1.08629 -1.14182 0
M  V30 6263 C 595.442 -0.818556 -1.85546 0
M  V30 6264 C 595.775 0.654076 -1.82854 0
M  V30 6265 O 595.05 1.48099 -1.26083 0
M  V30 6266 C 595.333 -1.34397 -3.3408 0
M  V30 6267 C 595.186 -2.8821 -3.45333 0
M  V30 6268 C 596.505 -0.971069 -4.29253 0
M  V30 6269 H 593.624 -0.298821 -0.673702 0
M  V30 6270 H 596.266 -1.34629 -1.34071 0
M  V30 6271 H 594.416 -0.895064 -3.78049 0
M  V30 6272 H 596.088 -3.41488 -3.10134 0
M  V30 6273 H 594.331 -3.25756 -2.86471 0
M  V30 6274 H 595.002 -3.20047 -4.49749 0
M  V30 6275 H 597.478 -1.35809 -3.93313 0
M  V30 6276 H 596.354 -1.36586 -5.31635 0
M  V30 6277 H 596.615 0.121659 -4.41933 0
M  V30 6278 N 595.674 1.31259 -0.872281 0
M  V30 6279 C 596.604 2.30929 -0.345554 0
M  V30 6280 C 597.585 1.60449 0.5648 0
M  V30 6281 O 598.77 1.8814 0.481335 0
M  V30 6282 C 595.9 3.44348 0.451823 0
M  V30 6283 C 594.854 4.26435 -0.365641 0
M  V30 6284 C 594.18 5.31785 0.557562 0
M  V30 6285 C 595.48 4.97159 -1.60095 0
M  V30 6286 H 597.174 2.75234 -1.17841 0
M  V30 6287 H 594.72 1.3232 -0.568094 0
M  V30 6288 H 596.673 4.13128 0.830854 0
M  V30 6289 H 595.397 2.98816 1.31821 0
M  V30 6290 H 594.056 3.59326 -0.726649 0
M  V30 6291 H 593.704 4.82502 1.4213 0
M  V30 6292 H 593.404 5.87598 0.0144878 0
M  V30 6293 H 594.928 6.03424 0.933387 0
M  V30 6294 H 596.342 5.58523 -1.29323 0
M  V30 6295 H 594.739 5.62779 -2.08327 0
M  V30 6296 H 595.809 4.24012 -2.35249 0
M  V30 6297 N 597.152 0.631951 1.44375 0
M  V30 6298 C 598.377 0.142146 2.06912 0
M  V30 6299 C 598.802 -1.17456 1.4692 0
M  V30 6300 O 598.16 -1.72074 0.570975 0
M  V30 6301 C 598.208 0.0417952 3.60576 0
M  V30 6302 O 597.312 -1.00194 4.00044 0
M  V30 6303 H 596.653 0.0851491 0.658518 0
M  V30 6304 H 599.183 0.868863 1.85235 0
M  V30 6305 H 599.193 -0.148517 4.0773 0
M  V30 6306 H 597.868 1.0031 4.03622 0
M  V30 6307 H 596.445 -0.786131 3.64519 0
M  V30 6308 N 598.631 -1.53133 0.372548 0
M  V30 6309 C 599.879 -2.00958 -0.214534 0
M  V30 6310 C 600.2 -1.26135 -1.48711 0
M  V30 6311 O 599.47 -0.376597 -1.92246 0
M  V30 6312 H 598.05 -0.742456 -0.0822664 0
M  V30 6313 H 600.712 -1.88367 0.500385 0
M  V30 6314 H 599.808 -3.09031 -0.436605 0
M  V30 6315 N 600.109 -0.101901 -1.5727 0
M  V30 6316 C 601.019 0.868647 -2.17926 0
M  V30 6317 C 602.035 1.30527 -1.1506 0
M  V30 6318 O 603.211 1.37178 -1.47459 0
M  V30 6319 C 600.276 2.10727 -2.75309 0
M  V30 6320 C 599.337 1.7242 -3.93154 0
M  V30 6321 C 598.57 2.90377 -4.47791 0
M  V30 6322 O 598.793 4.05305 -4.01353 0
M  V30 6323 O 597.727 2.6845 -5.38719 0
M  V30 6324 H 601.553 0.382544 -3.01281 0
M  V30 6325 H 599.138 0.122812 -1.48894 0
M  V30 6326 H 601.02 2.83303 -3.11958 0
M  V30 6327 H 599.695 2.58376 -1.94996 0
M  V30 6328 H 598.602 0.970039 -3.61305 0
M  V30 6329 H 599.935 1.29528 -4.74851 0
M  V30 6330 N 601.587 1.56661 0.17182 0
M  V30 6331 C 602.834 1.81965 0.888529 0
M  V30 6332 C 603.162 0.6789 1.82267 0
M  V30 6333 O 602.417 -0.333875 1.92831 0
M  V30 6334 C 602.716 3.13435 1.71736 0
M  V30 6335 C 602.382 4.41159 0.932184 0
M  V30 6336 C 601.044 4.75851 0.715481 0
M  V30 6337 C 603.396 5.19803 0.381387 0
M  V30 6338 C 600.724 5.86666 -0.063126 0
M  V30 6339 C 603.076 6.31433 -0.384129 0
M  V30 6340 C 601.74 6.64692 -0.611637 0
M  V30 6341 H 601.01 0.665859 0.325136 0
M  V30 6342 H 603.657 1.90884 0.153495 0
M  V30 6343 H 601.962 2.99857 2.52177 0
M  V30 6344 H 603.659 3.30224 2.27493 0
M  V30 6345 H 600.249 4.13947 1.11112 0
M  V30 6346 H 604.433 4.93396 0.536148 0
M  V30 6347 H 599.689 6.10892 -0.249136 0
M  V30 6348 H 603.863 6.91577 -0.818185 0
M  V30 6349 H 601.49 7.50398 -1.21684 0
M  V30 6350 N 603.065 -0.440357 1.51323 0
M  V30 6351 C 604.29 -1.21716 1.67928 0
M  V30 6352 C 604.715 -1.84328 0.374826 0
M  V30 6353 O 604.073 -1.68675 -0.664706 0
M  V30 6354 C 604.121 -2.27914 2.79442 0
M  V30 6355 O 603.225 -3.33325 2.42834 0
M  V30 6356 H 602.566 -0.35674 0.560029 0
M  V30 6357 H 605.096 -0.520417 1.97871 0
M  V30 6358 H 605.106 -2.72746 3.03436 0
M  V30 6359 H 603.781 -1.8172 3.741 0
M  V30 6360 H 602.358 -2.9399 2.294 0
M  V30 6361 N 604.543 -1.41418 -0.695603 0
M  V30 6362 C 605.49 -1.43264 -1.80954 0
M  V30 6363 C 606.46 -0.287016 -1.63601 0
M  V30 6364 O 607.645 -0.488054 -1.84452 0
M  V30 6365 C 604.785 -1.32054 -3.18835 0
M  V30 6366 C 603.898 -2.56485 -3.4762 0
M  V30 6367 C 603.033 -2.3757 -4.75115 0
M  V30 6368 C 602.072 -3.57477 -4.96867 0
M  V30 6369 N 601.209 -3.37632 -6.15588 0
M  V30 6370 H 606.049 -2.38467 -1.78711 0
M  V30 6371 H 603.586 -1.18415 -0.872715 0
M  V30 6372 H 605.544 -1.23558 -3.98484 0
M  V30 6373 H 604.174 -0.404592 -3.20254 0
M  V30 6374 H 603.226 -2.75432 -2.62376 0
M  V30 6375 H 604.538 -3.45678 -3.59594 0
M  V30 6376 H 603.692 -2.2654 -5.62818 0
M  V30 6377 H 602.431 -1.45834 -4.65386 0
M  V30 6378 H 601.436 -3.68961 -4.07612 0
M  V30 6379 H 602.661 -4.50167 -5.08455 0
M  V30 6380 H 600.607 -2.48596 -6.07072 0
M  V30 6381 H 600.524 -4.20401 -6.2833 0
M  V30 6382 H 601.792 -3.30375 -7.06026 0
M  V30 6383 N 606.021 0.929856 -1.27246 0
M  V30 6384 C 606.931 2.0636 -1.11592 0
M  V30 6385 C 607.947 1.73938 -0.046496 0
M  V30 6386 O 609.123 1.9981 -0.252544 0
M  V30 6387 C 606.188 3.38213 -0.762437 0
M  V30 6388 C 605.249 3.84346 -1.9125 0
M  V30 6389 C 604.482 5.09906 -1.57579 0
M  V30 6390 O 604.705 5.68354 -0.482694 0
M  V30 6391 O 603.639 5.51359 -2.41426 0
M  V30 6392 H 607.465 2.22478 -2.0673 0
M  V30 6393 H 605.05 1.04865 -1.06413 0
M  V30 6394 H 606.932 4.1741 -0.57854 0
M  V30 6395 H 605.607 3.23307 0.159439 0
M  V30 6396 H 604.514 3.06045 -2.15144 0
M  V30 6397 H 605.847 4.0379 -2.81451 0
M  V30 6398 N 607.499 1.09233 1.13605 0
M  V30 6399 C 608.915 0.82163 1.36826 0
M  V30 6400 C 609.115 -0.565021 1.93416 0
M  V30 6401 O 608.171 -1.32026 2.15234 0
M  V30 6402 C 609.484 1.91124 2.32147 0
M  V30 6403 C 611.032 1.93824 2.45767 0
M  V30 6404 C 611.507 3.01923 3.44393 0
M  V30 6405 N 612.998 3.01149 3.51942 0
M  V30 6406 C 613.733 3.81434 4.2813 0
M  V30 6407 N 613.229 4.71621 5.07489 0
M  V30 6408 N 615.022 3.69702 4.23411 0
M  V30 6409 H 607.173 1.98633 0.752234 0
M  V30 6410 H 609.436 0.862482 0.393482 0
M  V30 6411 H 609.142 2.90862 1.97717 0
M  V30 6412 H 609.016 1.78777 3.32142 0
M  V30 6413 H 611.403 0.94726 2.79483 0
M  V30 6414 H 611.484 2.10248 1.45703 0
M  V30 6415 H 611.128 4.01232 3.11408 0
M  V30 6416 H 611.058 2.82742 4.44257 0
M  V30 6417 H 613.549 2.35789 2.95317 0
M  V30 6418 H 613.862 5.29468 5.62924 0
M  V30 6419 H 612.207 4.75658 5.06729 0
M  V30 6420 H 615.398 2.98606 3.60489 0
M  V30 6421 H 615.571 4.32509 4.82535 0
M  V30 6422 N 608.977 -1.30795 0.87923 0
M  V30 6423 C 609.887 -2.32041 0.345565 0
M  V30 6424 C 610.903 -1.65103 -0.549265 0
M  V30 6425 O 612.079 -1.9645 -0.443763 0
M  V30 6426 C 609.144 -3.43944 -0.436245 0
M  V30 6427 C 608.205 -4.26521 0.48765 0
M  V30 6428 C 607.438 -5.33081 -0.256943 0
M  V30 6429 O 607.661 -5.50762 -1.48381 0
M  V30 6430 O 606.595 -6.00635 0.389985 0
M  V30 6431 H 610.421 -2.79627 1.18501 0
M  V30 6432 H 608.006 -1.3486 0.642885 0
M  V30 6433 H 609.888 -4.12128 -0.879119 0
M  V30 6434 H 608.563 -2.98504 -1.25208 0
M  V30 6435 H 607.47 -3.61057 0.979216 0
M  V30 6436 H 608.803 -4.75551 1.26933 0
M  V30 6437 N 610.455 -0.639598 -1.44038 0
M  V30 6438 C 611.402 0.0602458 -2.30721 0
M  V30 6439 C 612.372 0.828352 -1.43971 0
M  V30 6440 O 613.557 0.807693 -1.72861 0
M  V30 6441 C 610.697 1.03008 -3.29368 0
M  V30 6442 C 609.81 0.259502 -4.3122 0
M  V30 6443 C 608.945 1.22191 -5.16955 0
M  V30 6444 C 607.984 0.440978 -6.10509 0
M  V30 6445 N 607.121 1.35428 -6.88915 0
M  V30 6446 H 611.961 -0.684867 -2.90023 0
M  V30 6447 H 609.498 -0.349509 -1.42888 0
M  V30 6448 H 611.456 1.60583 -3.85057 0
M  V30 6449 H 610.086 1.74222 -2.71747 0
M  V30 6450 H 609.138 -0.432317 -3.77935 0
M  V30 6451 H 610.45 -0.348347 -4.97582 0
M  V30 6452 H 609.604 1.86873 -5.77203 0
M  V30 6453 H 608.343 1.86367 -4.50687 0
M  V30 6454 H 607.348 -0.219279 -5.49363 0
M  V30 6455 H 608.573 -0.196192 -6.78817 0
M  V30 6456 H 606.519 1.9831 -6.25307 0
M  V30 6457 H 606.436 0.800657 -7.51748 0
M  V30 6458 H 607.704 1.98967 -7.53679 0
M  V30 6459 N 611.933 1.52934 -0.380664 0
M  V30 6460 C 612.896 2.24809 0.446473 0
M  V30 6461 C 613.896 1.26133 0.997347 0
M  V30 6462 O 615.086 1.50297 0.880714 0
M  V30 6463 C 612.218 2.99649 1.62553 0
M  V30 6464 H 613.411 2.99343 -0.182677 0
M  V30 6465 H 610.964 1.55736 -0.132618 0
M  V30 6466 H 611.699 2.29395 2.29235 0
M  V30 6467 H 611.484 3.72066 1.23732 0
M  V30 6468 H 612.974 3.54246 2.21133 0
M  V30 6469 N 613.412 0.11024 1.57214 0
M  V30 6470 C 614.359 -0.843195 2.14846 0
M  V30 6471 C 615.329 -1.26954 1.07107 0
M  V30 6472 O 616.514 -1.34861 1.34971 0
M  V30 6473 C 613.654 -2.09123 2.74521 0
M  V30 6474 C 612.767 -1.71404 3.96541 0
M  V30 6475 C 611.902 -2.91107 4.44331 0
M  V30 6476 C 610.941 -2.49586 5.58903 0
M  V30 6477 N 610.078 -3.62175 6.01477 0
M  V30 6478 H 614.918 -0.344886 2.95998 0
M  V30 6479 H 612.455 -0.15855 1.46243 0
M  V30 6480 H 614.413 -2.82234 3.07246 0
M  V30 6481 H 613.043 -2.56427 1.96074 0
M  V30 6482 H 612.095 -0.88201 3.70033 0
M  V30 6483 H 613.407 -1.36884 4.7965 0
M  V30 6484 H 612.561 -3.72454 4.78919 0
M  V30 6485 H 611.3 -3.28848 3.60153 0
M  V30 6486 H 610.305 -1.6667 5.23929 0
M  V30 6487 H 611.53 -2.12973 6.4484 0
M  V30 6488 H 609.476 -3.99605 5.20242 0
M  V30 6489 H 609.393 -3.3155 6.79419 0
M  V30 6490 H 610.661 -4.43987 6.407 0
M  V30 6491 N 614.89 -1.56749 -0.16351 0
M  V30 6492 C 615.853 -1.96121 -1.18613 0
M  V30 6493 C 616.853 -0.845765 -1.36761 0
M  V30 6494 O 618.043 -1.11268 -1.34033 0
M  V30 6495 C 615.175 -2.26282 -2.54969 0
M  V30 6496 H 616.368 -2.87639 -0.848764 0
M  V30 6497 H 613.921 -1.50928 -0.406251 0
M  V30 6498 H 614.656 -1.37504 -2.93706 0
M  V30 6499 H 614.441 -3.07595 -2.43162 0
M  V30 6500 H 615.931 -2.57638 -3.28653 0
M  V30 6501 N 616.368 0.432326 -1.51554 0
M  V30 6502 C 617.784 0.769195 -1.39841 0
M  V30 6503 C 617.984 1.95584 -0.484675 0
M  V30 6504 O 617.04 2.52433 0.0582829 0
M  V30 6505 C 618.353 1.04487 -2.81963 0
M  V30 6506 C 619.901 1.149 -2.91148 0
M  V30 6507 C 620.376 1.45758 -4.34187 0
M  V30 6508 N 621.867 1.52671 -4.37317 0
M  V30 6509 C 622.602 1.78129 -5.4503 0
M  V30 6510 N 622.098 2.01345 -6.62897 0
M  V30 6511 N 623.891 1.79953 -5.32516 0
M  V30 6512 H 616.042 -0.349122 -2.09511 0
M  V30 6513 H 618.305 -0.0938113 -0.943347 0
M  V30 6514 H 618.011 0.24557 -3.50842 0
M  V30 6515 H 617.885 1.97119 -3.21596 0
M  V30 6516 H 620.272 1.93891 -2.22464 0
M  V30 6517 H 620.353 0.201568 -2.55005 0
M  V30 6518 H 619.997 0.672917 -5.03423 0
M  V30 6519 H 619.927 2.41715 -4.67848 0
M  V30 6520 H 622.418 1.36612 -3.52343 0
M  V30 6521 H 622.731 2.20155 -7.40778 0
M  V30 6522 H 621.076 1.98657 -6.66003 0
M  V30 6523 H 624.267 1.61337 -4.39418 0
M  V30 6524 H 624.44 1.99455 -6.1654 0
M  V30 6525 N 617.846 1.41785 0.688094 0
M  V30 6526 C 619.094 1.41264 1.4453 0
M  V30 6527 C 619.415 0.0252946 1.94984 0
M  V30 6528 O 618.685 -0.934081 1.72197 0
M  V30 6529 H 617.265 0.519998 0.536294 0
M  V30 6530 H 619.927 1.7709 0.813941 0
M  V30 6531 H 619.023 2.10439 2.30482 0
M  V30 6532 N 619.324 -0.923095 1.27737 0
M  V30 6533 C 620.601 -1.64989 1.05062 0
M  V30 6534 C 620.981 -2.07018 -0.413124 0
M  V30 6535 O 620.329 -1.80797 -1.39731 0
M  V30 6536 C 620.539 -2.84847 2.01652 0
M  V30 6537 C 621.887 -3.56083 2.31279 0
M  V30 6538 O 622.911 -2.94981 1.99662 0
M  V30 6539 O 621.77 -4.66182 2.85196 0
M  V30 6540 H 618.864 -0.723357 0.400853 0
M  V30 6541 H 621.41 -0.973224 1.3902 0
M  V30 6542 H 620.182 -2.50814 3.00347 0
M  V30 6543 H 619.805 -3.60231 1.68284 0
M  V30 6544 N 620.802 -1.09834 -1.13024 0
M  V30 6545 C 622.049 -0.83695 -1.84395 0
M  V30 6546 C 622.377 0.637463 -1.83757 0
M  V30 6547 O 621.632 1.48554 -1.27398 0
M  V30 6548 C 621.931 -1.32263 -3.32026 0
M  V30 6549 C 621.597 -2.80739 -3.52841 0
M  V30 6550 C 620.259 -3.21286 -3.5823 0
M  V30 6551 C 622.611 -3.76449 -3.60466 0
M  V30 6552 C 619.939 -4.56308 -3.68781 0
M  V30 6553 C 622.291 -5.11266 -3.72546 0
M  V30 6554 C 620.955 -5.51397 -3.76189 0
M  V30 6555 H 620.225 -0.306262 -0.674748 0
M  V30 6556 H 622.872 -1.37385 -1.33408 0
M  V30 6557 H 621.177 -0.705618 -3.85394 0
M  V30 6558 H 622.874 -1.09695 -3.85705 0
M  V30 6559 H 619.464 -2.48363 -3.49305 0
M  V30 6560 H 623.648 -3.46234 -3.55578 0
M  V30 6561 H 618.904 -4.86832 -3.69871 0
M  V30 6562 H 623.078 -5.85279 -3.77388 0
M  V30 6563 H 620.705 -6.56017 -3.84117 0
M  V30 6564 N 622.28 1.30327 -0.886154 0
M  V30 6565 C 623.212 2.27079 -0.311072 0
M  V30 6566 C 624.225 1.53758 0.53502 0
M  V30 6567 O 625.414 1.74947 0.354378 0
M  V30 6568 C 622.514 3.33965 0.576228 0
M  V30 6569 C 621.687 4.36735 -0.241064 0
M  V30 6570 C 620.746 5.23028 0.576916 0
M  V30 6571 O 619.772 5.692 -0.000802231 0
M  V30 6572 N 620.974 5.49016 1.88579 0
M  V30 6573 H 623.739 2.77065 -1.14259 0
M  V30 6574 H 621.3 1.43519 -0.749258 0
M  V30 6575 H 623.292 3.88618 1.12953 0
M  V30 6576 H 621.862 2.839 1.30842 0
M  V30 6577 H 621.082 3.81932 -0.975805 0
M  V30 6578 H 622.37 5.02451 -0.801272 0
M  V30 6579 H 621.768 5.13288 2.37806 0
M  V30 6580 H 620.325 6.06539 2.38651 0
M  V30 6581 N 623.758 0.647228 1.43697 0
M  V30 6582 C 624.705 -0.0480092 2.3075 0
M  V30 6583 C 625.675 -0.820705 1.44408 0
M  V30 6584 O 626.86 -0.798515 1.73287 0
M  V30 6585 C 624 -1.01259 3.2991 0
M  V30 6586 C 623.113 -0.236629 4.31351 0
M  V30 6587 C 622.248 -1.19447 5.17596 0
M  V30 6588 C 621.287 -0.408595 6.10735 0
M  V30 6589 N 620.424 -1.31772 6.89623 0
M  V30 6590 H 625.264 0.700238 2.89656 0
M  V30 6591 H 622.801 0.357082 1.427 0
M  V30 6592 H 624.759 -1.58538 3.85903 0
M  V30 6593 H 623.389 -1.72778 2.72667 0
M  V30 6594 H 622.441 0.452353 3.77701 0
M  V30 6595 H 623.753 0.374731 4.9739 0
M  V30 6596 H 622.907 -1.83809 5.78186 0
M  V30 6597 H 621.646 -1.83975 4.51669 0
M  V30 6598 H 620.651 0.24841 5.49239 0
M  V30 6599 H 621.876 0.232188 6.78703 0
M  V30 6600 H 619.822 -1.94991 6.2635 0
M  V30 6601 H 619.739 -0.760779 7.52162 0
M  V30 6602 H 621.007 -1.94967 7.54724 0
M  V30 6603 N 625.236 -1.5273 0.388769 0
M  V30 6604 C 626.166 -2.29353 -0.438111 0
M  V30 6605 C 627.147 -1.32719 -1.06394 0
M  V30 6606 O 628.332 -1.61612 -1.07681 0
M  V30 6607 C 625.462 -3.09995 -1.56589 0
M  V30 6608 C 624.416 -4.14509 -1.06613 0
M  V30 6609 C 623.742 -4.83372 -2.28594 0
M  V30 6610 C 625.042 -5.22127 -0.134459 0
M  V30 6611 H 626.736 -2.98723 0.201206 0
M  V30 6612 H 624.282 -1.43665 0.0982089 0
M  V30 6613 H 626.235 -3.62357 -2.15118 0
M  V30 6614 H 624.959 -2.38357 -2.23279 0
M  V30 6615 H 623.618 -3.63128 -0.503383 0
M  V30 6616 H 623.266 -4.08283 -2.93792 0
M  V30 6617 H 622.966 -5.54012 -1.95817 0
M  V30 6618 H 624.49 -5.38538 -2.87766 0
M  V30 6619 H 625.904 -5.69851 -0.627914 0
M  V30 6620 H 624.301 -6.00011 0.103534 0
M  V30 6621 H 625.371 -4.77971 0.816798 0
M  V30 6622 N 626.714 -0.118576 -1.57153 0
M  V30 6623 C 628.13 0.238014 -1.57815 0
M  V30 6624 C 628.33 1.66747 -1.13127 0
M  V30 6625 O 627.386 2.38867 -0.818462 0
M  V30 6626 C 628.699 0.00508207 -3.007 0
M  V30 6627 C 630.247 0.0710139 -3.12919 0
M  V30 6628 C 630.722 -0.13422 -4.57803 0
M  V30 6629 N 632.213 -0.0801755 -4.63131 0
M  V30 6630 C 632.948 -0.213885 -5.73001 0
M  V30 6631 N 632.444 -0.403742 -6.91623 0
M  V30 6632 N 634.237 -0.15349 -5.6189 0
M  V30 6633 H 626.388 -1.05226 -1.84503 0
M  V30 6634 H 628.651 -0.414318 -0.852669 0
M  V30 6635 H 628.357 -0.983125 -3.3768 0
M  V30 6636 H 628.231 0.73714 -3.69927 0
M  V30 6637 H 630.618 1.04975 -2.75798 0
M  V30 6638 H 630.699 -0.692918 -2.46236 0
M  V30 6639 H 630.343 -1.10992 -4.95624 0
M  V30 6640 H 630.273 0.649692 -5.22577 0
M  V30 6641 H 632.764 0.0630689 -3.77847 0
M  V30 6642 H 633.077 -0.496645 -7.71202 0
M  V30 6643 H 631.422 -0.43971 -6.93608 0
M  V30 6644 H 634.613 -0.00613174 -4.681 0
M  V30 6645 H 634.786 -0.261138 -6.47474 0
M  V30 6646 N 628.193 1.56834 0.155195 0
M  V30 6647 C 629.103 2.009 1.21146 0
M  V30 6648 C 630.119 0.923029 1.475 0
M  V30 6649 O 631.295 1.23189 1.59331 0
M  V30 6650 C 628.36 2.37378 2.52691 0
M  V30 6651 C 627.421 3.59883 2.34057 0
M  V30 6652 C 626.654 3.94612 3.59329 0
M  V30 6653 O 626.877 3.30104 4.65175 0
M  V30 6654 O 625.811 4.87895 3.52479 0
M  V30 6655 H 629.637 2.9105 0.867371 0
M  V30 6656 H 627.222 1.44916 0.363298 0
M  V30 6657 H 629.104 2.61737 3.3026 0
M  V30 6658 H 627.779 1.50385 2.86646 0
M  V30 6659 H 626.686 3.40722 1.54465 0
M  V30 6660 H 628.019 4.47468 2.0502 0
M  V30 6661 N 629.671 -0.424282 1.51781 0
M  V30 6662 C 630.618 -1.51591 1.74037 0
M  V30 6663 C 631.588 -1.55556 0.582358 0
M  V30 6664 O 632.773 -1.72364 0.818245 0
M  V30 6665 C 629.913 -2.89188 1.8832 0
M  V30 6666 C 629.026 -2.9465 3.1592 0
M  V30 6667 C 628.161 -4.23452 3.20721 0
M  V30 6668 C 627.2 -4.22831 4.42584 0
M  V30 6669 N 626.337 -5.43178 4.44862 0
M  V30 6670 H 631.177 -1.31917 2.67212 0
M  V30 6671 H 628.714 -0.640599 1.32419 0
M  V30 6672 H 630.672 -3.69044 1.94583 0
M  V30 6673 H 629.302 -3.07392 0.985402 0
M  V30 6674 H 628.354 -2.07378 3.18902 0
M  V30 6675 H 629.666 -2.90055 4.05795 0
M  V30 6676 H 628.82 -5.1169 3.25973 0
M  V30 6677 H 627.559 -4.30722 2.28757 0
M  V30 6678 H 626.564 -3.32984 4.37495 0
M  V30 6679 H 627.789 -4.17213 5.35826 0
M  V30 6680 H 625.735 -5.51145 3.55775 0
M  V30 6681 H 625.652 -5.40515 5.28563 0
M  V30 6682 H 626.92 -6.33412 4.54324 0
M  V30 6683 N 631.149 -1.42148 -0.680565 0
M  V30 6684 C 632.081 -1.41119 -1.80605 0
M  V30 6685 C 633.094 -0.311099 -1.598 0
M  V30 6686 O 634.283 -0.573813 -1.69026 0
M  V30 6687 C 631.383 -1.18204 -3.17618 0
M  V30 6688 C 630.556 -2.40537 -3.65322 0
M  V30 6689 C 629.615 -2.13254 -4.8105 0
M  V30 6690 O 628.641 -2.8641 -4.91892 0
M  V30 6691 N 629.843 -1.13208 -5.69354 0
M  V30 6692 H 632.608 -2.38128 -1.81975 0
M  V30 6693 H 630.169 -1.36953 -0.863446 0
M  V30 6694 H 632.161 -0.97878 -3.92686 0
M  V30 6695 H 630.731 -0.29738 -3.11182 0
M  V30 6696 H 629.951 -2.76468 -2.80996 0
M  V30 6697 H 631.239 -3.22012 -3.93936 0
M  V30 6698 H 630.637 -0.526893 -5.63241 0
M  V30 6699 H 629.194 -0.988699 -6.44258 0
M  V30 6700 N 632.627 0.916307 -1.28225 0
M  V30 6701 C 633.559 2.02303 -1.07732 0
M  V30 6702 C 634.572 1.62773 -0.0298421 0
M  V30 6703 O 635.761 1.76406 -0.272626 0
M  V30 6704 C 632.861 3.33282 -0.614504 0
M  V30 6705 C 632.034 4.01439 -1.73682 0
M  V30 6706 C 631.093 5.10698 -1.26781 0
M  V30 6707 O 630.119 5.34038 -1.96958 0
M  V30 6708 N 631.321 5.80355 -0.129624 0
M  V30 6709 H 634.086 2.20442 -2.03041 0
M  V30 6710 H 631.647 1.08744 -1.19943 0
M  V30 6711 H 633.639 4.03699 -0.284397 0
M  V30 6712 H 632.209 3.11633 0.245664 0
M  V30 6713 H 631.429 3.24604 -2.23665 0
M  V30 6714 H 632.717 4.43721 -2.48976 0
M  V30 6715 H 632.115 5.6386 0.455847 0
M  V30 6716 H 630.672 6.51647 0.141224 0
M  V30 6717 N 634.105 1.10431 1.1244 0
M  V30 6718 C 635.035 0.775143 2.20258 0
M  V30 6719 C 636.016 -0.25186 1.68225 0
M  V30 6720 O 637.201 -0.117637 1.93843 0
M  V30 6721 C 634.331 0.206133 3.46688 0
M  V30 6722 C 633.285 1.16382 4.11873 0
M  V30 6723 C 632.611 0.456014 5.32752 0
M  V30 6724 C 633.911 2.5104 4.58013 0
M  V30 6725 H 635.605 1.67665 2.4805 0
M  V30 6726 H 633.151 0.807595 1.19222 0
M  V30 6727 H 635.104 -0.036291 4.21384 0
M  V30 6728 H 633.828 -0.730614 3.18323 0
M  V30 6729 H 632.487 1.39169 3.39157 0
M  V30 6730 H 632.135 -0.485203 5.00654 0
M  V30 6731 H 631.835 1.09466 5.77314 0
M  V30 6732 H 633.359 0.222135 6.10196 0
M  V30 6733 H 634.773 2.32401 5.24083 0
M  V30 6734 H 633.17 3.10789 5.13352 0
M  V30 6735 H 634.24 3.11039 3.71998 0
M  V30 6736 N 635.583 -1.29855 0.893053 0
M  V30 6737 C 636.493 -2.31661 0.370157 0
M  V30 6738 C 637.509 -1.65677 -0.531723 0
M  V30 6739 O 638.685 -1.9691 -0.422902 0
M  V30 6740 C 635.75 -3.44388 -0.399741 0
M  V30 6741 C 634.811 -4.2598 0.532861 0
M  V30 6742 C 634.044 -5.33324 -0.200388 0
M  V30 6743 O 634.267 -5.52305 -1.42531 0
M  V30 6744 O 633.201 -6.00188 0.453668 0
M  V30 6745 H 637.027 -2.78354 1.2146 0
M  V30 6746 H 634.612 -1.34171 0.657153 0
M  V30 6747 H 636.494 -4.13037 -0.835358 0
M  V30 6748 H 635.169 -2.99815 -1.22035 0
M  V30 6749 H 634.076 -3.59998 1.01746 0
M  V30 6750 H 635.409 -4.74178 1.3197 0
M  V30 6751 N 637.061 -0.65484 -1.43351 0
M  V30 6752 C 637.971 0.0363603 -2.34572 0
M  V30 6753 C 638.987 0.810432 -1.53974 0
M  V30 6754 O 640.163 0.757308 -1.86619 0
M  V30 6755 C 637.228 0.989733 -3.32273 0
M  V30 6756 C 636.289 0.212414 -4.28774 0
M  V30 6757 C 635.522 1.12038 -5.21808 0
M  V30 6758 O 635.745 2.35967 -5.19303 0
M  V30 6759 O 634.679 0.59191 -5.98982 0
M  V30 6760 H 638.505 -0.714527 -2.95175 0
M  V30 6761 H 636.09 -0.415029 -1.4352 0
M  V30 6762 H 637.972 1.53759 -3.92347 0
M  V30 6763 H 636.647 1.72082 -2.74171 0
M  V30 6764 H 635.554 -0.379062 -3.72175 0
M  V30 6765 H 636.887 -0.479138 -4.89862 0
M  V30 6766 N 638.539 1.52521 -0.396863 0
M  V30 6767 C 639.816 1.94112 0.240842 0
M  V30 6768 C 640.196 1.33288 1.637 0
M  V30 6769 O 639.544 0.503901 2.22875 0
M  V30 6770 C 639.754 3.48033 0.259567 0
M  V30 6771 C 641.102 4.21822 0.484866 0
M  V30 6772 O 642.126 3.54579 0.339453 0
M  V30 6773 O 640.985 5.41042 0.770412 0
M  V30 6774 H 638.079 0.812973 0.151671 0
M  V30 6775 H 640.625 1.63572 -0.451918 0
M  V30 6776 H 639.397 3.84655 -0.718078 0
M  V30 6777 H 639.02 3.84899 0.996937 0
M  V30 6778 N 640.017 0.126909 1.57088 0
M  V30 6779 C 640.947 -0.816847 2.18746 0
M  V30 6780 C 641.928 -1.27161 1.12979 0
M  V30 6781 O 643.113 -1.33279 1.41246 0
M  V30 6782 C 640.243 -2.06398 2.79315 0
M  V30 6783 C 639.197 -1.74673 3.90735 0
M  V30 6784 C 638.523 -3.06482 4.38147 0
M  V30 6785 C 639.823 -1.0089 5.12463 0
M  V30 6786 H 641.517 -0.303032 2.97863 0
M  V30 6787 H 639.063 -0.144314 1.43275 0
M  V30 6788 H 641.016 -2.72885 3.2111 0
M  V30 6789 H 639.74 -2.60118 1.975 0
M  V30 6790 H 638.399 -1.10572 3.49527 0
M  V30 6791 H 638.047 -3.58152 3.5318 0
M  V30 6792 H 637.747 -2.86025 5.13287 0
M  V30 6793 H 639.271 -3.74073 4.82599 0
M  V30 6794 H 640.685 -1.57546 5.51228 0
M  V30 6795 H 639.082 -0.905006 5.93237 0
M  V30 6796 H 640.152 0.00297335 4.849 0
M  V30 6797 N 641.495 -1.56914 -0.146875 0
M  V30 6798 C 642.442 -1.98275 -1.18134 0
M  V30 6799 C 643.412 -0.850367 -1.42681 0
M  V30 6800 O 644.597 -1.11244 -1.55014 0
M  V30 6801 C 641.737 -2.36861 -2.5098 0
M  V30 6802 C 640.85 -3.63391 -2.33605 0
M  V30 6803 C 639.985 -3.91079 -3.59486 0
M  V30 6804 C 639.024 -5.10879 -3.37149 0
M  V30 6805 N 638.161 -5.34577 -4.55161 0
M  V30 6806 H 643.001 -2.8645 -0.821622 0
M  V30 6807 H 640.538 -1.41718 -0.394248 0
M  V30 6808 H 642.496 -2.57262 -3.28439 0
M  V30 6809 H 641.126 -1.51766 -2.84898 0
M  V30 6810 H 640.178 -3.50766 -1.47199 0
M  V30 6811 H 641.49 -4.51007 -2.13059 0
M  V30 6812 H 640.644 -4.11979 -4.45374 0
M  V30 6813 H 639.383 -3.01885 -3.83036 0
M  V30 6814 H 638.388 -4.89853 -2.49649 0
M  V30 6815 H 639.613 -6.01626 -3.14997 0
M  V30 6816 H 637.559 -4.48337 -4.78884 0
M  V30 6817 H 637.476 -6.16463 -4.37618 0
M  V30 6818 H 638.744 -5.59975 -5.42263 0
M  V30 6819 N 642.974 0.416227 -1.52004 0
M  V30 6820 C 644.222 1.16153 -1.65387 0
M  V30 6821 C 644.543 1.91208 -0.382669 0
M  V30 6822 O 643.813 1.86413 0.602231 0
M  V30 6823 H 642.393 0.431765 -0.60958 0
M  V30 6824 H 645.055 0.475151 -1.89019 0
M  V30 6825 H 644.151 1.87952 -2.4916 0
M  V30 6826 N 644.452 1.42507 0.673017 0
M  V30 6827 C 645.682 1.46261 1.45916 0
M  V30 6828 C 646.09 0.0729724 1.89059 0
M  V30 6829 O 645.433 -0.922987 1.58829 0
M  V30 6830 C 645.495 2.32853 2.73898 0
M  V30 6831 C 645.159 3.80699 2.52819 0
M  V30 6832 C 646.156 4.72307 2.17306 0
M  V30 6833 C 643.841 4.24983 2.67758 0
M  V30 6834 C 645.835 6.06192 1.97003 0
M  V30 6835 C 643.522 5.58927 2.4707 0
M  V30 6836 C 644.52 6.49348 2.11746 0
M  V30 6837 O 644.208 7.80817 1.91259 0
M  V30 6838 H 643.94 0.499561 0.455428 0
M  V30 6839 H 646.494 1.87697 0.834196 0
M  V30 6840 H 644.724 1.86268 3.38882 0
M  V30 6841 H 646.413 2.28041 3.35786 0
M  V30 6842 H 647.179 4.39378 2.05359 0
M  V30 6843 H 643.058 3.54893 2.94231 0
M  V30 6844 H 646.602 6.76731 1.69355 0
M  V30 6845 H 642.499 5.91429 2.58615 0
M  V30 6846 H 643.267 7.92194 2.05843 0
M  V30 6847 N 645.93 -0.909495 1.28709 0
M  V30 6848 C 646.86 -2.0291 1.15542 0
M  V30 6849 C 647.841 -1.7002 0.0521017 0
M  V30 6850 O 649.026 -1.92835 0.229849 0
M  V30 6851 C 646.156 -3.37458 0.820935 0
M  V30 6852 C 645.11 -3.84524 1.87949 0
M  V30 6853 C 644.436 -5.16086 1.39854 0
M  V30 6854 C 645.736 -4.05918 3.28676 0
M  V30 6855 H 647.43 -2.14183 2.09203 0
M  V30 6856 H 644.976 -1.02913 1.00722 0
M  V30 6857 H 646.929 -4.1528 0.715571 0
M  V30 6858 H 645.653 -3.26249 -0.151374 0
M  V30 6859 H 644.312 -3.08911 1.97408 0
M  V30 6860 H 643.96 -5.01284 0.41518 0
M  V30 6861 H 643.66 -5.48547 2.1064 0
M  V30 6862 H 645.184 -5.96459 1.30649 0
M  V30 6863 H 646.598 -4.74252 3.22115 0
M  V30 6864 H 644.995 -4.49717 3.97334 0
M  V30 6865 H 646.065 -3.10583 3.72379 0
M  V30 6866 N 647.408 -1.11026 -1.11852 0
M  V30 6867 C 648.685 -0.768347 -1.79877 0
M  V30 6868 C 649.065 0.744261 -1.97545 0
M  V30 6869 O 648.413 1.67271 -1.55669 0
M  V30 6870 C 648.623 -1.52648 -3.13846 0
M  V30 6871 C 649.971 -1.70297 -3.88953 0
M  V30 6872 O 650.995 -1.49037 -3.23522 0
M  V30 6873 O 649.854 -2.05593 -5.06353 0
M  V30 6874 H 646.948 -0.277891 -0.778913 0
M  V30 6875 H 649.494 -1.21343 -1.18633 0
M  V30 6876 H 648.266 -2.55564 -2.96315 0
M  V30 6877 H 647.889 -1.07466 -3.82801 0
M  V30 6878 N 648.886 1.2938 -0.899927 0
M  V30 6879 C 650.132 1.96206 -0.536153 0
M  V30 6880 C 650.487 1.69647 0.90761 0
M  V30 6881 O 649.78 0.999089 1.63489 0
M  V30 6882 C 649.974 3.49114 -0.765113 0
M  V30 6883 C 649.803 3.90538 -2.22958 0
M  V30 6884 C 648.573 4.15395 -2.87706 0
M  V30 6885 C 650.771 4.0224 -3.20479 0
M  V30 6886 N 648.753 4.43389 -4.24593 0
M  V30 6887 C 650.124 4.34288 -4.42486 0
M  V30 6888 C 652.179 3.84716 -3.16066 0
M  V30 6889 C 650.882 4.50638 -5.6064 0
M  V30 6890 C 652.908 4.02276 -4.33507 0
M  V30 6891 C 652.27 4.34684 -5.54283 0
M  V30 6892 H 648.369 0.742364 -0.245804 0
M  V30 6893 H 650.953 1.56314 -1.16078 0
M  V30 6894 H 649.124 3.88028 -0.169861 0
M  V30 6895 H 650.856 4.03035 -0.366751 0
M  V30 6896 H 647.611 4.09164 -2.385 0
M  V30 6897 H 648.035 4.61494 -4.95331 0
M  V30 6898 H 652.677 3.58724 -2.23778 0
M  V30 6899 H 650.395 4.75467 -6.5342 0
M  V30 6900 H 653.981 3.90169 -4.31578 0
M  V30 6901 H 652.861 4.47988 -6.43643 0
M  V30 6902 N 650.364 0.662433 1.43002 0
M  V30 6903 C 651.613 0.176873 2.00923 0
M  V30 6904 C 651.926 -1.21954 1.52927 0
M  V30 6905 O 653.132 -1.80081 2.03182 0
M  V30 6906 C 651.588 0.265379 3.5892 0
M  V30 6907 C 651.196 1.66507 4.15908 0
M  V30 6908 C 652.94 -0.162103 4.2419 0
M  V30 6909 C 650.847 1.707 5.66229 0
M  V30 6910 H 649.777 0.0623627 0.751417 0
M  V30 6911 H 652.428 0.825813 1.63868 0
M  V30 6912 H 650.81 -0.451235 3.93421 0
M  V30 6913 H 651.984 2.40777 3.92891 0
M  V30 6914 H 650.299 2.03932 3.63044 0
M  V30 6915 H 652.896 -0.150745 5.34487 0
M  V30 6916 H 653.239 -1.19519 3.98774 0
M  V30 6917 H 653.772 0.503075 3.94606 0
M  V30 6918 H 650.511 2.7195 5.96426 0
M  V30 6919 H 650.031 1.00768 5.91275 0
M  V30 6920 H 651.71 1.45487 6.3043 0
M  V30 6921 N 651.842 -1.52309 0.404946 0
M  V30 6922 C 653.07 -2.06185 -0.171818 0
M  V30 6923 C 653.485 -1.27536 -1.39212 0
M  V30 6924 O 652.842 -0.326112 -1.79563 0
M  V30 6925 C 652.893 -3.57647 -0.526417 0
M  V30 6926 O 652.614 -4.3332 0.645417 0
M  V30 6927 C 654.115 -4.27925 -1.15736 0
M  V30 6928 H 651.335 -0.670632 -0.0222328 0
M  V30 6929 H 653.879 -1.96259 0.574692 0
M  V30 6930 H 652.034 -3.67595 -1.22282 0
M  V30 6931 H 652.448 -5.23328 0.35042 0
M  V30 6932 H 653.922 -5.35093 -1.35572 0
M  V30 6933 H 654.399 -3.84134 -2.12926 0
M  V30 6934 H 655.005 -4.22335 -0.501281 0
M  V30 6935 N 653.32 -0.135238 -1.57019 0
M  V30 6936 C 654.252 0.839675 -2.13265 0
M  V30 6937 C 655.265 1.21887 -1.07923 0
M  V30 6938 O 656.454 1.16499 -1.35241 0
M  V30 6939 C 653.554 2.13647 -2.63075 0
M  V30 6940 C 652.727 1.92646 -3.92691 0
M  V30 6941 C 651.786 3.06205 -4.27931 0
M  V30 6942 O 650.812 2.78409 -4.96465 0
M  V30 6943 N 652.014 4.33072 -3.86561 0
M  V30 6944 H 654.779 0.359026 -2.97542 0
M  V30 6945 H 652.34 0.0486979 -1.61827 0
M  V30 6946 H 654.332 2.88641 -2.8367 0
M  V30 6947 H 652.902 2.5301 -1.83588 0
M  V30 6948 H 652.122 1.01754 -3.80841 0
M  V30 6949 H 653.41 1.75939 -4.77413 0
M  V30 6950 H 652.808 4.58526 -3.31316 0
M  V30 6951 H 651.365 5.04885 -4.12231 0
M  V30 6952 N 654.798 1.5699 0.138552 0
M  V30 6953 C 655.761 1.97984 1.15478 0
M  V30 6954 C 656.761 0.867416 1.35398 0
M  V30 6955 O 657.951 1.13387 1.32246 0
M  V30 6956 C 655.083 2.3031 2.51337 0
M  V30 6957 H 656.276 2.88953 0.802896 0
M  V30 6958 H 653.829 1.51555 0.382189 0
M  V30 6959 H 654.564 1.42159 2.91481 0
M  V30 6960 H 654.349 3.11425 2.38237 0
M  V30 6961 H 655.839 2.62834 3.24512 0
M  V30 6962 N 656.276 -0.40816 1.52223 0
M  V30 6963 C 657.186 -1.52202 1.78526 0
M  V30 6964 C 658.202 -1.60546 0.670892 0
M  V30 6965 O 659.378 -1.77242 0.956404 0
M  V30 6966 C 656.443 -2.87928 1.93128 0
M  V30 6967 C 655.504 -2.89463 3.17033 0
M  V30 6968 C 654.737 -4.18715 3.30929 0
M  V30 6969 O 654.96 -5.12662 2.50067 0
M  V30 6970 O 653.894 -4.27125 4.24084 0
M  V30 6971 H 657.72 -1.32911 2.73072 0
M  V30 6972 H 655.305 -0.594112 1.37079 0
M  V30 6973 H 657.187 -3.68426 2.04549 0
M  V30 6974 H 655.862 -3.07285 1.01772 0
M  V30 6975 H 654.769 -2.07815 3.11069 0
M  V30 6976 H 656.102 -2.75055 4.08174 0
M  V30 6977 N 657.755 -1.42862 -0.66545 0
M  V30 6978 C 659.032 -1.3431 -1.42197 0
M  V30 6979 C 659.412 0.0150265 -2.11095 0
M  V30 6980 O 658.76 1.03101 -2.03918 0
M  V30 6981 C 658.97 -2.51783 -2.41674 0
M  V30 6982 C 660.318 -2.94321 -3.0604 0
M  V30 6983 O 661.342 -2.51741 -2.52001 0
M  V30 6984 O 660.201 -3.68047 -4.03985 0
M  V30 6985 H 657.295 -0.530159 -0.634713 0
M  V30 6986 H 659.841 -1.54888 -0.693386 0
M  V30 6987 H 658.613 -3.42282 -1.89627 0
M  V30 6988 H 658.236 -2.33241 -3.22001 0
M  V30 6989 N 659.233 0.902656 -1.29189 0
M  V30 6990 C 660.482 1.6475 -1.16362 0
M  V30 6991 C 660.795 1.93517 0.284682 0
M  V30 6992 O 662.001 2.66192 0.534229 0
M  V30 6993 C 660.457 2.96848 -2.03493 0
M  V30 6994 C 660.065 2.75687 -3.5313 0
M  V30 6995 C 661.809 3.74762 -1.99383 0
M  V30 6996 C 659.716 4.03492 -4.32375 0
M  V30 6997 H 658.646 0.618041 -0.431904 0
M  V30 6998 H 661.297 1.0008 -1.53806 0
M  V30 6999 H 659.679 3.62715 -1.58916 0
M  V30 7000 H 660.853 2.18431 -4.05739 0
M  V30 7001 H 659.168 2.11171 -3.58881 0
M  V30 7002 H 661.765 4.69515 -2.5585 0
M  V30 7003 H 662.108 4.04767 -0.973123 0
M  V30 7004 H 662.641 3.15732 -2.41988 0
M  V30 7005 H 659.38 3.78656 -5.3507 0
M  V30 7006 H 658.9 4.60318 -3.84535 0
M  V30 7007 H 660.579 4.71662 -4.42881 0
M  V30 7008 N 660.711 1.11618 1.11262 0
M  V30 7009 C 661.988 0.777876 1.79467 0
M  V30 7010 C 662.368 -0.733774 1.97937 0
M  V30 7011 O 661.716 -1.66443 1.56554 0
M  V30 7012 C 661.926 1.5431 3.13032 0
M  V30 7013 C 663.274 1.72357 3.88044 0
M  V30 7014 O 664.298 1.5075 3.22727 0
M  V30 7015 O 663.157 2.08276 5.05256 0
M  V30 7016 H 660.251 0.282018 0.777428 0
M  V30 7017 H 662.797 1.21971 1.17988 0
M  V30 7018 H 661.569 2.57132 2.94956 0
M  V30 7019 H 661.192 1.09495 3.82226 0
M  V30 7020 N 662.189 -1.289 0.906776 0
M  V30 7021 C 663.6 -1.77336 0.58384 0
M  V30 7022 C 663.951 -1.74304 -0.900697 0
M  V30 7023 O 663.076 -1.33335 -1.70443 0
M  V30 7024 C 663.671 -3.22019 1.05304 0
M  V30 7025 C 662.23 -3.68205 0.781148 0
M  V30 7026 C 661.377 -2.48837 1.22373 0
M  V30 7027 H 664.328 -1.15462 1.08877 0
M  V30 7028 H 664.349 -3.78481 0.391414 0
M  V30 7029 H 663.861 -3.24194 2.13353 0
M  V30 7030 H 661.962 -3.71497 -0.28643 0
M  V30 7031 H 662.075 -4.58675 1.384 0
M  V30 7032 H 660.439 -2.46461 0.642594 0
M  V30 7033 H 661.222 -2.53736 2.31242 0
M  V30 7034 N 663.667 -0.670007 -1.42649 0
M  V30 7035 C 664.577 0.0114788 -2.34597 0
M  V30 7036 C 665.593 0.794055 -1.54825 0
M  V30 7037 O 666.769 0.737472 -1.87412 0
M  V30 7038 C 663.834 0.954436 -3.33304 0
M  V30 7039 C 662.895 0.166925 -4.28975 0
M  V30 7040 C 662.128 1.06497 -5.22967 0
M  V30 7041 O 662.351 2.30446 -5.21777 0
M  V30 7042 O 661.285 0.528347 -5.99577 0
M  V30 7043 H 665.111 -0.745794 -2.944 0
M  V30 7044 H 662.696 -0.430228 -1.43071 0
M  V30 7045 H 664.578 1.49589 -3.93956 0
M  V30 7046 H 663.253 1.69164 -2.7598 0
M  V30 7047 H 662.16 -0.418515 -3.71752 0
M  V30 7048 H 663.493 -0.531067 -4.89327 0
M  V30 7049 N 665.145 1.52092 -0.413018 0
M  V30 7050 C 666.093 2.28681 0.425199 0
M  V30 7051 C 667.087 1.3353 1.04241 0
M  V30 7052 O 668.293 1.50973 0.980166 0
M  V30 7053 H 664.668 0.735661 0.155906 0
M  V30 7054 H 666.639 2.97418 -0.241926 0
M  V30 7055 C 665.388 3.1235 1.5275 0
M  V30 7056 H 664.711 3.85439 1.06191 0
M  V30 7057 H 666.151 3.69038 2.08774 0
M  V30 7058 C 664.61 2.26161 2.49706 0
M  V30 7059 O 665.14 1.90452 3.53682 0
M  V30 7060 N 663.346 1.89854 2.20008 0
M  V30 7061 H 662.893 2.19092 1.35486 0
M  V30 7062 H 662.851 1.3248 2.85125 0
M  V30 7063 N 666.623 0.143563 1.56945 0
M  V30 7064 C 667.533 -0.810562 2.20152 0
M  V30 7065 C 668.549 -1.27431 1.1848 0
M  V30 7066 O 669.725 -1.33221 1.51044 0
M  V30 7067 C 666.79 -2.03353 2.80799 0
M  V30 7068 C 665.851 -1.61936 3.97587 0
M  V30 7069 C 665.084 -2.78403 4.55332 0
M  V30 7070 O 665.307 -3.94521 4.11958 0
M  V30 7071 O 664.241 -2.54073 5.45647 0
M  V30 7072 H 668.067 -0.30253 3.02189 0
M  V30 7073 H 665.652 -0.0832925 1.49168 0
M  V30 7074 H 667.534 -2.74932 3.19359 0
M  V30 7075 H 666.209 -2.53116 2.01777 0
M  V30 7076 H 665.116 -0.873904 3.6375 0
M  V30 7077 H 666.449 -1.16892 4.78118 0
M  V30 7078 N 668.101 -1.57061 -0.130224 0
M  V30 7079 C 669.378 -1.75205 -0.869631 0
M  V30 7080 C 669.758 -0.716063 -1.98584 0
M  V30 7081 O 669.106 0.262032 -2.26993 0
M  V30 7082 C 669.316 -3.19835 -1.39666 0
M  V30 7083 C 670.664 -3.82011 -1.85345 0
M  V30 7084 O 671.688 -3.23368 -1.49371 0
M  V30 7085 O 670.547 -4.85064 -2.51744 0
M  V30 7086 H 667.641 -0.716977 -0.412157 0
M  V30 7087 H 670.187 -1.69311 -0.11484 0
M  V30 7088 H 668.959 -3.86745 -0.595288 0
M  V30 7089 H 668.582 -3.30222 -2.21448 0
M  V30 7090 N 669.579 0.400081 -1.52437 0
M  V30 7091 C 670.489 1.51253 -1.79331 0
M  V30 7092 C 671.505 1.60188 -0.679396 0
M  V30 7093 O 672.681 1.76733 -0.965791 0
M  V30 7094 C 669.746 2.869 -1.94652 0
M  V30 7095 C 668.807 2.87777 -3.18564 0
M  V30 7096 C 668.04 4.16954 -3.33145 0
M  V30 7097 O 668.263 5.11329 -2.52783 0
M  V30 7098 O 667.197 4.2487 -4.26343 0
M  V30 7099 H 671.023 1.31461 -2.73773 0
M  V30 7100 H 668.608 0.586834 -1.37392 0
M  V30 7101 H 670.49 3.67336 -2.065 0
M  V30 7102 H 669.165 3.06741 -1.034 0
M  V30 7103 H 668.072 2.06162 -3.12167 0
M  V30 7104 H 669.405 2.72886 -4.09627 0
M  V30 7105 N 671.057 1.43213 0.657864 0
M  V30 7106 C 672.305 1.44298 1.41501 0
M  V30 7107 C 672.626 0.0666478 1.94886 0
M  V30 7108 O 671.896 -0.897345 1.74139 0
M  V30 7109 H 670.476 0.531257 0.525143 0
M  V30 7110 H 673.138 1.78777 0.776195 0
M  V30 7111 H 672.234 2.1528 2.25966 0
M  V30 7112 N 672.536 -0.895792 1.29666 0
M  V30 7113 C 673.469 -2.00238 1.09453 0
M  V30 7114 C 674.447 -1.62599 0.00527044 0
M  V30 7115 O 675.631 -1.87847 0.156729 0
M  V30 7116 C 672.758 -3.32066 0.667054 0
M  V30 7117 C 671.804 -3.88691 1.7556 0
M  V30 7118 S 672.637 -4.17317 3.35569 0
M  V30 7119 C 673.793 -5.52181 2.94698 0
M  V30 7120 H 674.026 -2.17076 2.03138 0
M  V30 7121 H 671.559 -1.04287 1.13858 0
M  V30 7122 H 673.517 -4.08272 0.427136 0
M  V30 7123 H 672.178 -3.13101 -0.250256 0
M  V30 7124 H 671.371 -4.83918 1.40853 0
M  V30 7125 H 670.973 -3.19187 1.94924 0
M  V30 7126 H 673.265 -6.3281 2.41986 0
M  V30 7127 H 674.208 -5.91817 3.88791 0
M  V30 7128 H 674.616 -5.14225 2.32879 0
M  V30 7129 N 674.014 -1.12206 -1.10668 0
M  V30 7130 C 675.291 -0.787382 -1.79052 0
M  V30 7131 C 675.671 0.723267 -1.98323 0
M  V30 7132 O 675.019 1.6561 -1.57434 0
M  V30 7133 C 675.229 -1.55968 -3.1221 0
M  V30 7134 C 676.577 -1.74413 -3.87125 0
M  V30 7135 O 677.601 -1.5246 -3.21923 0
M  V30 7136 O 676.46 -2.10952 -5.04144 0
M  V30 7137 H 673.554 -0.286137 -0.775922 0
M  V30 7138 H 676.1 -1.22595 -1.1734 0
M  V30 7139 H 674.872 -2.58692 -2.93588 0
M  V30 7140 H 674.495 -1.1152 -3.8164 0
M  V30 7141 N 675.492 1.28418 -0.913599 0
M  V30 7142 C 676.402 2.31043 -0.406965 0
M  V30 7143 C 677.418 1.66501 0.505298 0
M  V30 7144 O 678.594 1.97558 0.391522 0
M  V30 7145 C 675.659 3.4498 0.344901 0
M  V30 7146 C 674.72 4.25078 -0.600563 0
M  V30 7147 C 673.953 5.33575 0.115516 0
M  V30 7148 O 674.176 5.54503 1.33727 0
M  V30 7149 O 673.11 5.9939 -0.549095 0
M  V30 7150 H 676.936 2.76387 -1.25873 0
M  V30 7151 H 674.521 1.33109 -0.678415 0
M  V30 7152 H 676.403 4.14314 0.769542 0
M  V30 7153 H 675.078 3.01719 1.1725 0
M  V30 7154 H 673.985 3.58334 -1.0746 0
M  V30 7155 H 675.318 4.72018 -1.39497 0
M  V30 7156 N 676.97 0.677563 1.42291 0
M  V30 7157 C 677.88 0.000962654 2.346 0
M  V30 7158 C 678.896 -0.785833 1.55244 0
M  V30 7159 O 680.072 -0.727523 1.87801 0
M  V30 7160 C 677.137 -0.936746 3.33805 0
M  V30 7161 C 676.198 -0.144173 4.29058 0
M  V30 7162 C 675.431 -1.03722 5.23524 0
M  V30 7163 O 675.654 -2.27675 5.22992 0
M  V30 7164 O 674.588 -0.496542 5.99848 0
M  V30 7165 H 678.414 0.761397 2.94001 0
M  V30 7166 H 675.999 0.43781 1.42841 0
M  V30 7167 H 677.881 -1.47497 3.94744 0
M  V30 7168 H 676.556 -1.67698 2.76874 0
M  V30 7169 H 675.463 0.438224 3.71524 0
M  V30 7170 H 676.796 0.55701 4.89038 0
M  V30 7171 N 678.448 -1.51871 0.421078 0
M  V30 7172 C 679.395 -2.27334 -0.398508 0
M  V30 7173 C 680.365 -1.30241 -1.03085 0
M  V30 7174 O 681.55 -1.59121 -1.05285 0
M  V30 7175 C 678.69 -3.10664 -1.50272 0
M  V30 7176 C 677.803 -4.2273 -0.890122 0
M  V30 7177 C 676.938 -4.93399 -1.96803 0
M  V30 7178 C 675.977 -5.97409 -1.333 0
M  V30 7179 N 675.114 -6.61548 -2.35156 0
M  V30 7180 H 679.954 -2.96938 0.251411 0
M  V30 7181 H 677.491 -1.46472 0.135825 0
M  V30 7182 H 679.449 -3.57292 -2.15403 0
M  V30 7183 H 678.079 -2.43207 -2.1225 0
M  V30 7184 H 677.131 -3.80186 -0.127537 0
M  V30 7185 H 678.443 -4.97302 -0.386349 0
M  V30 7186 H 677.597 -5.43491 -2.69633 0
M  V30 7187 H 676.336 -4.18421 -2.50549 0
M  V30 7188 H 675.341 -5.46624 -0.59008 0
M  V30 7189 H 676.566 -6.74335 -0.803076 0
M  V30 7190 H 674.512 -5.89394 -2.88012 0
M  V30 7191 H 674.429 -7.31832 -1.89624 0
M  V30 7192 H 675.697 -7.16276 -3.0752 0
M  V30 7193 N 679.926 -0.151884 -1.56866 0
M  V30 7194 C 681.337 0.368128 -1.83035 0
M  V30 7195 C 681.688 1.64402 -1.07082 0
M  V30 7196 O 680.813 2.14056 -0.317647 0
M  V30 7197 C 681.408 0.674676 -3.32014 0
M  V30 7198 C 679.967 1.13919 -3.58747 0
M  V30 7199 C 679.114 0.164833 -2.7681 0
M  V30 7200 H 682.065 -0.376499 -1.54169 0
M  V30 7201 H 682.086 1.52883 -3.48435 0
M  V30 7202 H 681.598 -0.254113 -3.87267 0
M  V30 7203 H 679.699 2.08375 -3.08886 0
M  V30 7204 H 679.812 1.06179 -4.67186 0
M  V30 7205 H 678.176 0.658419 -2.46043 0
M  V30 7206 H 678.959 -0.757633 -3.34836 0
M  V30 7207 N 681.404 1.57128 0.121893 0
M  V30 7208 C 682.82 1.52357 0.47534 0
M  V30 7209 C 683.02 0.864417 1.82017 0
M  V30 7210 O 682.076 0.445529 2.48538 0
M  V30 7211 C 683.389 2.97122 0.4625 0
M  V30 7212 C 684.937 3.08196 0.546255 0
M  V30 7213 C 685.412 4.54516 0.563833 0
M  V30 7214 N 686.903 4.58959 0.625353 0
M  V30 7215 C 687.638 5.69585 0.660354 0
M  V30 7216 N 687.134 6.89714 0.653175 0
M  V30 7217 N 688.927 5.57685 0.703143 0
M  V30 7218 H 681.078 1.98364 -0.75931 0
M  V30 7219 H 683.341 0.905777 -0.279772 0
M  V30 7220 H 683.047 3.48706 -0.457943 0
M  V30 7221 H 682.921 3.54406 1.29136 0
M  V30 7222 H 685.308 2.56617 1.45712 0
M  V30 7223 H 685.389 2.53912 -0.310234 0
M  V30 7224 H 685.033 5.06741 -0.342974 0
M  V30 7225 H 684.963 5.06609 1.43716 0
M  V30 7226 H 687.454 3.72489 0.637182 0
M  V30 7227 H 687.767 7.69781 0.682425 0
M  V30 7228 H 686.112 6.92223 0.620646 0
M  V30 7229 H 689.303 4.62744 0.706095 0
M  V30 7230 H 689.476 6.43909 0.726952 0
M  V30 7231 N 682.882 -0.391992 1.52647 0
M  V30 7232 C 683.83 -1.4991 1.77848 0
M  V30 7233 C 684.824 -1.56587 0.646282 0
M  V30 7234 O 686.03 -1.59789 0.828698 0
M  V30 7235 H 682.405 -0.498883 0.56269 0
M  V30 7236 H 684.376 -1.25847 2.70564 0
M  V30 7237 C 683.125 -2.87081 1.96163 0
M  V30 7238 H 682.448 -2.82692 2.82711 0
M  V30 7239 H 683.888 -3.63792 2.17787 0
M  V30 7240 C 682.347 -3.28822 0.733348 0
M  V30 7241 O 682.877 -4.01598 -0.0906481 0
M  V30 7242 N 681.083 -2.85068 0.564317 0
M  V30 7243 H 680.63 -2.26012 1.23598 0
M  V30 7244 H 680.588 -3.13355 -0.256166 0
M  V30 7245 N 684.36 -1.4356 -0.65026 0
M  V30 7246 C 685.293 -1.434 -1.77515 0
M  V30 7247 C 686.271 -0.295082 -1.599 0
M  V30 7248 O 687.455 -0.489128 -1.82043 0
M  V30 7249 C 684.582 -1.2484 -3.14853 0
M  V30 7250 C 683.628 -2.42046 -3.51163 0
M  V30 7251 S 684.461 -4.04595 -3.50803 0
M  V30 7252 C 685.617 -3.88424 -4.90793 0
M  V30 7253 H 685.85 -2.38586 -1.77381 0
M  V30 7254 H 683.383 -1.30627 -0.823169 0
M  V30 7255 H 685.341 -1.14819 -3.94115 0
M  V30 7256 H 684.002 -0.311977 -3.12547 0
M  V30 7257 H 683.195 -2.24873 -4.51052 0
M  V30 7258 H 682.797 -2.48708 -2.79321 0
M  V30 7259 H 685.089 -3.50932 -5.79528 0
M  V30 7260 H 686.032 -4.88076 -5.13018 0
M  V30 7261 H 686.44 -3.20829 -4.64467 0
M  V30 7262 N 685.838 0.888903 -1.30139 0
M  V30 7263 C 687.063 1.67884 -1.21777 0
M  V30 7264 C 687.488 1.86848 0.216689 0
M  V30 7265 O 686.846 1.39659 1.15608 0
M  V30 7266 C 686.894 3.03483 -1.94757 0
M  V30 7267 O 685.998 3.92294 -1.27198 0
M  V30 7268 H 685.339 0.513144 -0.421402 0
M  V30 7269 H 687.869 1.10968 -1.71893 0
M  V30 7270 H 687.879 3.53553 -2.03627 0
M  V30 7271 H 686.554 2.89 -2.99085 0
M  V30 7272 H 685.131 3.50732 -1.26655 0
M  V30 7273 N 687.317 1.12792 1.10072 0
M  V30 7274 C 688.25 0.742921 2.15768 0
M  V30 7275 C 689.228 -0.267714 1.60381 0
M  V30 7276 O 690.412 -0.160782 1.87813 0
M  V30 7277 C 687.539 0.100244 3.38552 0
M  V30 7278 C 686.585 1.07831 4.12644 0
M  V30 7279 S 687.418 2.60765 4.6772 0
M  V30 7280 C 688.574 1.97838 5.9381 0
M  V30 7281 H 688.807 1.63822 2.48092 0
M  V30 7282 H 686.34 0.947385 1.21918 0
M  V30 7283 H 688.298 -0.264175 4.09649 0
M  V30 7284 H 686.959 -0.772223 3.04459 0
M  V30 7285 H 686.152 0.576325 5.00694 0
M  V30 7286 H 685.754 1.38586 3.47376 0
M  V30 7287 H 688.046 1.32341 6.64449 0
M  V30 7288 H 688.989 2.83943 6.48677 0
M  V30 7289 H 689.397 1.43267 5.46017 0
M  V30 7290 N 688.795 -1.27931 0.920396 0
M  V30 7291 C 690.206 -1.76707 0.602616 0
M  V30 7292 C 690.557 -1.75249 -0.882159 0
M  V30 7293 O 689.682 -1.35135 -1.69019 0
M  V30 7294 C 690.277 -3.20884 1.08714 0
M  V30 7295 C 688.836 -3.67356 0.820157 0
M  V30 7296 C 687.983 -2.47525 1.25006 0
M  V30 7297 H 690.934 -1.14301 1.10095 0
M  V30 7298 H 690.955 -3.78045 0.431535 0
M  V30 7299 H 690.467 -3.21913 2.1678 0
M  V30 7300 H 688.568 -3.7178 -0.247012 0
M  V30 7301 H 688.681 -4.57181 1.43257 0
M  V30 7302 H 687.045 -2.45765 0.668698 0
M  V30 7303 H 687.828 -2.51269 2.3392 0
M  V30 7304 N 690.273 -0.685099 -1.4193 0
M  V30 7305 C 691.501 -0.220372 -2.05723 0
M  V30 7306 C 691.916 1.12642 -1.51516 0
M  V30 7307 O 691.273 1.70182 -0.659114 0
M  V30 7308 C 691.324 -0.157974 -3.61155 0
M  V30 7309 O 691.045 -1.45156 -4.13354 0
M  V30 7310 C 692.546 0.329009 -4.42077 0
M  V30 7311 H 689.766 -0.104725 -0.662777 0
M  V30 7312 H 692.31 -0.934736 -1.81887 0
M  V30 7313 H 690.465 0.507144 -3.84066 0
M  V30 7314 H 690.879 -1.33172 -5.07312 0
M  V30 7315 H 692.353 0.321559 -5.51063 0
M  V30 7316 H 692.83 1.36608 -4.17414 0
M  V30 7317 H 693.436 -0.304737 -4.24207 0
M  V30 7318 N 691.751 1.51645 -0.429126 0
M  V30 7319 C 692.976 2.06917 0.141399 0
M  V30 7320 C 693.401 1.29527 1.36398 0
M  V30 7321 O 692.759 0.33094 1.78254 0
M  V30 7322 C 692.807 3.57776 0.4504 0
M  V30 7323 O 691.911 3.82639 1.53821 0
M  V30 7324 H 691.252 0.663978 0.0054647 0
M  V30 7325 H 693.782 1.95355 -0.608093 0
M  V30 7326 H 693.792 4.01894 0.703249 0
M  V30 7327 H 692.467 4.13532 -0.443213 0
M  V30 7328 H 691.044 3.5039 1.27597 0
M  V30 7329 N 693.229 0.160201 1.56784 0
M  V30 7330 C 694.139 -0.787167 2.21 0
M  V30 7331 C 695.155 -1.26167 1.19825 0
M  V30 7332 O 696.331 -1.31611 1.52448 0
M  V30 7333 C 693.396 -2.00364 2.8294 0
M  V30 7334 C 692.457 -1.5771 3.99282 0
M  V30 7335 C 691.69 -2.73558 4.58259 0
M  V30 7336 O 691.913 -3.90129 4.16119 0
M  V30 7337 O 690.847 -2.48271 5.48311 0
M  V30 7338 H 694.673 -0.270462 3.02493 0
M  V30 7339 H 692.258 -0.0674666 1.49248 0
M  V30 7340 H 694.14 -2.71529 3.22257 0
M  V30 7341 H 692.815 -2.50961 2.04451 0
M  V30 7342 H 691.722 -0.835274 3.64656 0
M  V30 7343 H 693.055 -1.11815 4.79331 0
M  V30 7344 N 694.707 -1.5719 -0.113559 0
M  V30 7345 C 695.935 -1.89328 -0.834422 0
M  V30 7346 C 696.35 -0.752018 -1.73177 0
M  V30 7347 O 695.707 0.276912 -1.80387 0
M  V30 7348 C 695.758 -3.20962 -1.66329 0
M  V30 7349 O 695.479 -4.30695 -0.802069 0
M  V30 7350 C 696.98 -3.6684 -2.48884 0
M  V30 7351 H 694.2 -0.626769 -0.239587 0
M  V30 7352 H 696.744 -2.04273 -0.0963195 0
M  V30 7353 H 694.899 -3.0767 -2.35409 0
M  V30 7354 H 695.313 -5.06175 -1.37431 0
M  V30 7355 H 696.787 -4.61692 -3.02563 0
M  V30 7356 H 697.264 -2.93765 -3.26495 0
M  V30 7357 H 697.87 -3.82938 -1.85036 0
M  V30 7358 N 696.185 0.383891 -1.52853 0
M  V30 7359 C 697.095 1.49343 -1.80925 0
M  V30 7360 C 698.111 1.59458 -0.696348 0
M  V30 7361 O 699.287 1.75698 -0.984481 0
M  V30 7362 C 696.352 2.84819 -1.97684 0
M  V30 7363 C 695.413 2.84382 -3.21598 0
M  V30 7364 C 694.646 4.13397 -3.37548 0
M  V30 7365 O 694.869 5.08619 -2.58192 0
M  V30 7366 O 693.803 4.20325 -4.30826 0
M  V30 7367 H 697.629 1.2855 -2.75152 0
M  V30 7368 H 695.214 0.572229 -1.38007 0
M  V30 7369 H 697.096 3.65125 -2.10385 0
M  V30 7370 H 695.771 3.05627 -1.06647 0
M  V30 7371 H 694.678 2.0284 -3.14336 0
M  V30 7372 H 696.011 2.68526 -4.12498 0
M  V30 7373 N 697.663 1.43903 0.642637 0
M  V30 7374 C 698.888 1.49758 1.43483 0
M  V30 7375 C 699.313 0.119911 1.87717 0
M  V30 7376 O 698.671 -0.888558 1.58033 0
M  V30 7377 C 698.719 2.45744 2.63898 0
M  V30 7378 O 697.823 1.95101 3.63331 0
M  V30 7379 H 697.164 0.506138 0.429791 0
M  V30 7380 H 699.694 1.88923 0.785438 0
M  V30 7381 H 699.704 2.63399 3.11584 0
M  V30 7382 H 698.379 3.45818 2.31046 0
M  V30 7383 H 696.956 1.87158 3.22531 0
M  V30 7384 N 699.141 -0.881989 1.30609 0
M  V30 7385 C 700.387 -1.63647 1.19781 0
M  V30 7386 C 700.72 -1.92632 -0.246265 0
M  V30 7387 O 699.995 -1.54938 -1.17577 0
M  V30 7388 C 700.278 -2.97437 2.02985 0
M  V30 7389 C 700.131 -2.75406 3.55628 0
M  V30 7390 C 701.45 -3.98397 1.86997 0
M  V30 7391 H 698.569 -0.593841 0.436488 0
M  V30 7392 H 701.211 -1.02041 1.60273 0
M  V30 7393 H 699.361 -3.50018 1.68581 0
M  V30 7394 H 701.033 -2.2959 4.00107 0
M  V30 7395 H 699.276 -2.09856 3.79662 0
M  V30 7396 H 699.947 -3.70552 4.09139 0
M  V30 7397 H 702.423 -3.54986 2.17081 0
M  V30 7398 H 701.299 -4.89916 2.47536 0
M  V30 7399 H 701.56 -4.3424 0.829943 0
M  V30 7400 N 700.619 -1.13374 -1.09472 0
M  V30 7401 C 701.567 -0.806105 -2.18185 0
M  V30 7402 C 702.561 0.21136 -1.68076 0
M  V30 7403 O 703.767 0.0685558 -1.79869 0
M  V30 7404 H 700.142 -0.242901 -0.71169 0
M  V30 7405 H 702.113 -1.73115 -2.43051 0
M  V30 7406 C 700.862 -0.287928 -3.46506 0
M  V30 7407 H 700.185 -1.06217 -3.85432 0
M  V30 7408 H 701.625 -0.0971054 -4.23889 0
M  V30 7409 C 700.084 0.986256 -3.22141 0
M  V30 7410 O 700.614 2.06217 -3.44728 0
M  V30 7411 N 698.82 0.917153 -2.75747 0
M  V30 7412 H 698.367 0.0414609 -2.57567 0
M  V30 7413 H 698.325 1.77029 -2.59823 0
M  V30 7414 N 702.098 1.27442 -0.927168 0
M  V30 7415 C 703.326 1.98498 -0.583622 0
M  V30 7416 C 703.741 1.69171 0.838241 0
M  V30 7417 O 703.098 0.951969 1.55704 0
M  V30 7418 C 703.149 3.52552 -0.799341 0
M  V30 7419 O 702.87 3.80851 -2.16527 0
M  V30 7420 C 704.371 4.4086 -0.464436 0
M  V30 7421 H 701.591 0.633487 -0.221213 0
M  V30 7422 H 704.135 1.62308 -1.24404 0
M  V30 7423 H 702.29 3.86955 -0.185728 0
M  V30 7424 H 702.704 4.75441 -2.21487 0
M  V30 7425 H 704.178 5.47967 -0.666075 0
M  V30 7426 H 704.655 4.35082 0.599995 0
M  V30 7427 H 705.261 4.11977 -1.05617 0
M  V30 7428 N 703.576 0.692616 1.41565 0
M  V30 7429 C 704.486 0.0258451 2.34586 0
M  V30 7430 C 705.502 -0.769324 1.56069 0
M  V30 7431 O 706.678 -0.707563 1.88562 0
M  V30 7432 C 703.743 -0.901289 3.3478 0
M  V30 7433 C 702.804 -0.0986579 4.29187 0
M  V30 7434 C 702.037 -0.981634 5.24595 0
M  V30 7435 O 702.26 -2.22115 5.25377 0
M  V30 7436 O 701.194 -0.432892 6.00341 0
M  V30 7437 H 705.02 0.792537 2.93177 0
M  V30 7438 H 702.605 0.452935 1.42369 0
M  V30 7439 H 704.487 -1.43302 3.96286 0
M  V30 7440 H 703.162 -1.64752 2.78637 0
M  V30 7441 H 702.069 0.477604 3.71039 0
M  V30 7442 H 703.402 0.608848 4.8842 0
M  V30 7443 N 705.054 -1.51416 0.437162 0
M  V30 7444 C 706.002 -2.29328 -0.388765 0
M  V30 7445 C 706.996 -1.35171 -1.02104 0
M  V30 7446 O 708.202 -1.52513 -0.956024 0
M  V30 7447 H 704.577 -0.738048 -0.144183 0
M  V30 7448 H 706.548 -2.96995 0.289212 0
M  V30 7449 C 705.297 -3.14741 -1.47761 0
M  V30 7450 H 704.62 -3.8708 -1.00045 0
M  V30 7451 H 706.06 -3.72313 -2.02877 0
M  V30 7452 C 704.519 -2.30105 -2.46076 0
M  V30 7453 O 705.049 -1.96055 -3.50607 0
M  V30 7454 N 703.255 -1.93331 -2.1696 0
M  V30 7455 H 702.802 -2.2122 -1.31983 0
M  V30 7456 H 702.76 -1.36999 -2.82982 0
M  V30 7457 N 706.532 -0.168513 -1.56696 0
M  V30 7458 C 707.778 0.477865 -1.9709 0
M  V30 7459 C 708.111 1.63084 -1.05438 0
M  V30 7460 O 707.386 1.94238 -0.10095 0
M  V30 7461 C 707.669 0.963521 -3.4697 0
M  V30 7462 C 707.522 -0.189443 -4.49401 0
M  V30 7463 C 708.841 1.83813 -3.99876 0
M  V30 7464 H 705.96 0.172229 -0.716593 0
M  V30 7465 H 708.602 -0.254083 -1.88293 0
M  V30 7466 H 706.752 1.58724 -3.54597 0
M  V30 7467 H 708.424 -0.826451 -4.53836 0
M  V30 7468 H 706.667 -0.845366 -4.25483 0
M  V30 7469 H 707.338 0.192446 -5.51664 0
M  V30 7470 H 709.814 1.31235 -3.94863 0
M  V30 7471 H 708.69 2.14697 -5.0517 0
M  V30 7472 H 708.951 2.78289 -3.43523 0
M  V30 7473 N 708.01 1.57248 0.105221 0
M  V30 7474 C 708.973 2.00388 1.11252 0
M  V30 7475 C 709.973 0.89594 1.33527 0
M  V30 7476 O 711.163 1.16166 1.29811 0
M  V30 7477 C 708.295 2.35589 2.46395 0
M  V30 7478 H 709.488 2.90591 0.741424 0
M  V30 7479 H 707.041 1.52332 0.349956 0
M  V30 7480 H 707.776 1.4831 2.884 0
M  V30 7481 H 707.561 3.16408 2.31578 0
M  V30 7482 H 709.051 2.69658 3.18864 0
M  V30 7483 N 709.488 -0.375779 1.53054 0
M  V30 7484 C 710.736 -1.11727 1.68409 0
M  V30 7485 C 711.057 -1.90127 0.43323 0
M  V30 7486 O 710.327 -1.87945 -0.552595 0
M  V30 7487 H 708.907 -0.415451 0.620813 0
M  V30 7488 H 711.569 -0.424869 1.90213 0
M  V30 7489 H 710.665 -1.8128 2.54055 0
M  V30 7490 N 710.966 -1.44241 -0.634997 0
M  V30 7491 C 712.214 -1.46531 -1.39187 0
M  V30 7492 C 712.535 -0.0976441 -1.94755 0
M  V30 7493 O 711.805 0.869528 -1.75545 0
M  V30 7494 H 710.385 -0.539544 -0.516625 0
M  V30 7495 H 713.047 -1.79989 -0.747655 0
M  V30 7496 H 712.143 -2.18848 -2.22513 0
M  V30 7497 N 712.444 0.87505 -1.31075 0
M  V30 7498 C 713.721 1.60976 -1.11113 0
M  V30 7499 C 714.101 2.08409 0.336006 0
M  V30 7500 O 713.449 1.85858 1.32924 0
M  V30 7501 C 713.659 2.77166 -2.12085 0
M  V30 7502 C 715.007 3.47254 -2.44335 0
M  V30 7503 O 716.031 2.87367 -2.10472 0
M  V30 7504 O 714.89 4.55276 -3.02301 0
M  V30 7505 H 711.984 0.707982 -0.427424 0
M  V30 7506 H 714.53 0.920957 -1.42536 0
M  V30 7507 H 713.302 2.39494 -3.09449 0
M  V30 7508 H 712.925 3.53737 -1.81538 0
M  V30 7509 N 713.922 1.13953 1.08869 0
M  V30 7510 C 715.171 0.899431 1.80536 0
M  V30 7511 C 715.484 -0.575781 1.86933 0
M  V30 7512 O 716.69 -0.932988 2.54966 0
M  V30 7513 C 715.146 1.55963 3.24351 0
M  V30 7514 C 714.754 3.07077 3.26202 0
M  V30 7515 C 716.498 1.40046 4.00733 0
M  V30 7516 C 714.405 3.65955 4.64576 0
M  V30 7517 H 713.335 0.332849 0.676556 0
M  V30 7518 H 715.986 1.3679 1.22314 0
M  V30 7519 H 714.368 1.01883 3.82669 0
M  V30 7520 H 715.542 3.67785 2.77617 0
M  V30 7521 H 713.857 3.22576 2.63312 0
M  V30 7522 H 716.454 1.81441 5.02974 0
M  V30 7523 H 716.797 0.345993 4.1486 0
M  V30 7524 H 717.33 1.91137 3.48872 0
M  V30 7525 H 714.069 4.71234 4.55652 0
M  V30 7526 H 713.589 3.10027 5.13462 0
M  V30 7527 H 715.268 3.65968 5.33551 0
M  V30 7528 N 715.4 -1.26948 0.933913 0
M  V30 7529 C 716.31 -2.30366 0.443671 0
M  V30 7530 C 717.326 -1.67284 -0.478745 0
M  V30 7531 O 718.502 -1.98156 -0.360043 0
M  V30 7532 C 715.567 -3.45485 -0.289974 0
M  V30 7533 C 714.628 -4.24069 0.668114 0
M  V30 7534 C 713.861 -5.33691 -0.0306138 0
M  V30 7535 O 714.084 -5.5656 -1.24888 0
M  V30 7536 O 713.018 -5.98441 0.644384 0
M  V30 7537 H 716.844 -2.74349 1.30254 0
M  V30 7538 H 714.429 -1.32012 0.699506 0
M  V30 7539 H 716.311 -4.15486 -0.70353 0
M  V30 7540 H 714.986 -3.03546 -1.12435 0
M  V30 7541 H 713.893 -3.56579 1.13147 0
M  V30 7542 H 715.226 -4.69739 1.46989 0
M  V30 7543 N 716.879 -0.700114 -1.41195 0
M  V30 7544 C 718.127 -0.232546 -2.00758 0
M  V30 7545 C 718.448 1.1734 -1.55745 0
M  V30 7546 O 717.718 1.79262 -0.790058 0
M  V30 7547 H 716.298 -0.0829845 -0.742376 0
M  V30 7548 H 718.96 -0.902289 -1.72756 0
M  V30 7549 H 718.056 -0.253521 -3.11069 0
M  V30 7550 N 718.357 1.51182 -0.445186 0
M  V30 7551 C 719.267 2.31692 0.368255 0
M  V30 7552 C 720.283 1.40942 1.02036 0
M  V30 7553 O 721.459 1.74011 1.01401 0
M  V30 7554 C 718.524 3.14903 1.45041 0
M  V30 7555 C 717.585 4.21442 0.817615 0
M  V30 7556 C 716.818 5.00677 1.8482 0
M  V30 7557 O 717.041 4.80644 3.07145 0
M  V30 7558 O 715.975 5.84559 1.43438 0
M  V30 7559 H 719.801 3.0232 -0.289219 0
M  V30 7560 H 717.386 1.47951 -0.207555 0
M  V30 7561 H 719.268 3.66612 2.07783 0
M  V30 7562 H 717.943 2.47031 2.09182 0
M  V30 7563 H 716.85 3.73791 0.151931 0
M  V30 7564 H 718.183 4.9171 0.219564 0
M  V30 7565 N 719.835 0.176821 1.56605 0
M  V30 7566 C 720.783 -0.768159 2.1955 0
M  V30 7567 C 721.777 -1.23343 1.16116 0
M  V30 7568 O 722.983 -1.19844 1.34303 0
M  V30 7569 H 719.358 -0.266013 0.703378 0
M  V30 7570 H 721.329 -0.213374 2.97636 0
M  V30 7571 C 720.078 -1.98492 2.85475 0
M  V30 7572 H 719.401 -1.63595 3.64797 0
M  V30 7573 H 720.841 -2.62489 3.3298 0
M  V30 7574 C 719.3 -2.81207 1.85538 0
M  V30 7575 O 719.83 -3.7854 1.34427 0
M  V30 7576 N 718.036 -2.46331 1.54173 0
M  V30 7577 H 717.583 -1.67241 1.95929 0
M  V30 7578 H 717.541 -3.01961 0.875595 0
M  V30 7579 N 721.313 -1.57302 -0.09688 0
M  V30 7580 C 722.553 -1.87823 -0.806334 0
M  V30 7581 C 722.917 -0.767593 -1.75989 0
M  V30 7582 O 724.118 -0.955173 -2.51257 0
M  V30 7583 C 722.389 -3.23585 -1.51749 0
M  V30 7584 S 723.948 -3.75795 -2.26547 0
M  V30 7585 H 720.766 -0.658281 -0.268676 0
M  V30 7586 H 723.368 -1.95397 -0.0635476 0
M  V30 7587 H 722.072 -4.0234 -0.809348 0
M  V30 7588 H 721.603 -3.19145 -2.30021 0
M  V30 7589 H 723.618 -3.49068 -3.52656 0
M  V30 7590 N 722.791 0.367657 -1.53252 0
M  V30 7591 C 724.039 1.10832 -1.68999 0
M  V30 7592 C 724.36 1.89894 -0.443306 0
M  V30 7593 O 723.63 1.88235 0.54262 0
M  V30 7594 H 722.21 0.412153 -0.623008 0
M  V30 7595 H 724.872 0.414775 -1.90435 0
M  V30 7596 H 723.968 1.7993 -2.55013 0
M  V30 7597 N 724.269 1.44576 0.627338 0
M  V30 7598 C 725.232 1.51372 1.72102 0
M  V30 7599 C 726.232 0.395329 1.55865 0
M  V30 7600 O 727.422 0.658094 1.61291 0
M  V30 7601 C 724.554 1.39129 3.11217 0
M  V30 7602 H 725.747 2.48798 1.6745 0
M  V30 7603 H 723.3 1.31724 0.841336 0
M  V30 7604 H 724.035 0.428114 3.21462 0
M  V30 7605 H 723.82 2.20229 3.24409 0
M  V30 7606 H 725.31 1.46874 3.90919 0
M  V30 7607 N 725.747 -0.868086 1.31537 0
M  V30 7608 C 727.163 -1.15414 1.10235 0
M  V30 7609 C 727.363 -2.01106 -0.125947 0
M  V30 7610 O 726.419 -2.38994 -0.814734 0
M  V30 7611 C 727.732 -1.84445 2.37488 0
M  V30 7612 C 729.28 -1.97139 2.43116 0
M  V30 7613 C 729.755 -2.69585 3.70254 0
M  V30 7614 N 731.246 -2.77119 3.71159 0
M  V30 7615 C 731.981 -3.33791 4.6623 0
M  V30 7616 N 731.477 -3.9138 5.71659 0
M  V30 7617 N 733.27 -3.31767 4.53747 0
M  V30 7618 H 725.421 -0.297109 2.10312 0
M  V30 7619 H 727.684 -0.194227 0.92789 0
M  V30 7620 H 727.39 -1.2893 3.27215 0
M  V30 7621 H 727.264 -2.84709 2.47428 0
M  V30 7622 H 729.651 -2.51818 1.53856 0
M  V30 7623 H 729.732 -0.95912 2.37138 0
M  V30 7624 H 729.376 -2.15572 4.59881 0
M  V30 7625 H 729.306 -3.71223 3.73499 0
M  V30 7626 H 731.797 -2.3625 2.94948 0
M  V30 7627 H 732.11 -4.3274 6.40278 0
M  V30 7628 H 730.455 -3.8975 5.7543 0
M  V30 7629 H 733.646 -2.86016 3.70557 0
M  V30 7630 H 733.819 -3.75636 5.28017 0
M  V30 7631 N 727.225 -1.14528 -1.08264 0
M  V30 7632 C 728.155 -0.856356 -2.1723 0
M  V30 7633 C 729.136 0.189251 -1.69044 0
M  V30 7634 O 730.321 0.0456119 -1.94146 0
M  V30 7635 C 727.451 -0.334662 -3.45684 0
M  V30 7636 C 726.405 -1.31588 -4.0727 0
M  V30 7637 C 725.731 -0.653428 -5.30692 0
M  V30 7638 C 727.031 -2.67866 -4.48381 0
M  V30 7639 H 728.725 -1.76755 -2.41657 0
M  V30 7640 H 726.271 -0.851287 -1.16143 0
M  V30 7641 H 728.224 -0.120128 -4.21229 0
M  V30 7642 H 726.948 0.611967 -3.20815 0
M  V30 7643 H 725.607 -1.51661 -3.33758 0
M  V30 7644 H 725.255 0.299054 -5.0211 0
M  V30 7645 H 724.955 -1.30817 -5.72853 0
M  V30 7646 H 726.479 -0.448453 -6.08951 0
M  V30 7647 H 727.893 -2.51692 -5.15096 0
M  V30 7648 H 726.29 -3.29627 -5.01464 0
M  V30 7649 H 727.36 -3.24632 -3.60198 0
M  V30 7650 N 728.703 1.26451 -0.940633 0
M  V30 7651 C 729.666 2.24651 -0.454378 0
M  V30 7652 C 730.666 1.54826 0.434222 0
M  V30 7653 O 731.856 1.72628 0.233477 0
M  V30 7654 C 728.988 3.39148 0.345192 0
M  V30 7655 H 730.181 2.69182 -1.32217 0
M  V30 7656 H 727.734 1.38596 -0.722547 0
M  V30 7657 H 728.469 3.00018 1.23125 0
M  V30 7658 H 728.254 3.9101 -0.292107 0
M  V30 7659 H 729.744 4.12103 0.675341 0
M  V30 7660 N 730.181 0.707592 1.40822 0
M  V30 7661 C 731.131 0.0265008 2.27985 0
M  V30 7662 C 732.115 -0.740685 1.42838 0
M  V30 7663 O 733.307 -0.6142 1.66002 0
M  V30 7664 C 730.436 -0.900382 3.31282 0
M  V30 7665 C 729.522 -0.128807 4.23904 0
M  V30 7666 N 729.913 0.883744 4.9802 0
M  V30 7667 C 728.211 -0.362539 4.44524 0
M  V30 7668 C 728.912 1.34666 5.65898 0
M  V30 7669 N 727.888 0.670306 5.39451 0
M  V30 7670 H 731.69 0.802667 2.82727 0
M  V30 7671 H 729.204 0.539475 1.53178 0
M  V30 7672 H 731.201 -1.40357 3.92563 0
M  V30 7673 H 729.861 -1.67601 2.781 0
M  V30 7674 H 730.872 1.26435 5.0223 0
M  V30 7675 H 727.549 -1.11512 4.02332 0
M  V30 7676 H 728.939 2.18756 6.35292 0
M  V30 7677 N 731.66 -1.50943 0.453197 0
M  V30 7678 C 733.076 -1.59245 0.106342 0
M  V30 7679 C 733.276 -1.46287 -1.38572 0
M  V30 7680 O 732.332 -1.31219 -2.15726 0
M  V30 7681 C 733.645 -2.93797 0.640595 0
M  V30 7682 C 735.193 -3.07148 0.602435 0
M  V30 7683 C 735.668 -4.44247 1.11393 0
M  V30 7684 N 737.159 -4.50611 1.07258 0
M  V30 7685 C 737.894 -5.55049 1.43905 0
M  V30 7686 N 737.39 -6.66828 1.87914 0
M  V30 7687 N 739.183 -5.45494 1.35621 0
M  V30 7688 H 731.334 -1.5761 1.42382 0
M  V30 7689 H 733.597 -0.74384 0.587713 0
M  V30 7690 H 733.303 -3.087 1.68515 0
M  V30 7691 H 733.177 -3.77127 0.0742272 0
M  V30 7692 H 735.564 -2.91903 -0.433171 0
M  V30 7693 H 735.645 -2.25619 1.20539 0
M  V30 7694 H 735.289 -4.60239 2.14808 0
M  V30 7695 H 735.219 -5.2434 0.487353 0
M  V30 7696 H 737.71 -3.70391 0.749585 0
M  V30 7697 H 738.023 -7.42558 2.14072 0
M  V30 7698 H 736.368 -6.67995 1.91853 0
M  V30 7699 H 739.559 -4.57053 1.01093 0
M  V30 7700 H 739.732 -6.2677 1.64508 0
M  V30 7701 N 733.138 -0.185124 -1.56509 0
M  V30 7702 C 734.387 0.456421 -1.96468 0
M  V30 7703 C 734.7 1.63448 -1.07444 0
M  V30 7704 O 735.906 2.34316 -1.37143 0
M  V30 7705 C 734.362 0.863404 -3.4939 0
M  V30 7706 C 733.97 -0.289815 -4.47062 0
M  V30 7707 C 735.714 1.47259 -3.98139 0
M  V30 7708 C 733.621 0.137571 -5.9124 0
M  V30 7709 H 732.551 0.17429 -0.733579 0
M  V30 7710 H 735.202 -0.275554 -1.81419 0
M  V30 7711 H 733.584 1.65176 -3.59907 0
M  V30 7712 H 734.758 -1.06728 -4.4827 0
M  V30 7713 H 733.073 -0.809851 -4.08449 0
M  V30 7714 H 735.67 1.80463 -5.03326 0
M  V30 7715 H 736.013 2.3755 -3.41871 0
M  V30 7716 H 736.546 0.748405 -3.90696 0
M  V30 7717 H 733.285 -0.730907 -6.51412 0
M  V30 7718 H 732.805 0.8801 -5.93308 0
M  V30 7719 H 734.484 0.576771 -6.44424 0
M  V30 7720 N 734.616 1.57351 0.0885366 0
M  V30 7721 C 735.841 1.91011 0.80805 0
M  V30 7722 C 736.266 0.780009 1.71165 0
M  V30 7723 O 735.624 -0.268083 1.79307 0
M  V30 7724 C 735.672 3.23562 1.59185 0
M  V30 7725 O 734.776 3.11615 2.7013 0
M  V30 7726 H 734.117 0.625943 0.221565 0
M  V30 7727 H 736.647 2.04507 0.0617954 0
M  V30 7728 H 736.657 3.5703 1.97468 0
M  V30 7729 H 735.332 4.05398 0.928741 0
M  V30 7730 H 733.909 2.89673 2.34827 0
M  V30 7731 N 736.094 -0.359525 1.53444 0
M  V30 7732 C 737.041 -1.44073 1.8031 0
M  V30 7733 C 738.011 -1.52946 0.647811 0
M  V30 7734 O 739.196 -1.68739 0.890614 0
M  V30 7735 C 736.336 -2.80941 2.00416 0
M  V30 7736 C 735.449 -2.80986 3.28132 0
M  V30 7737 C 734.584 -4.09468 3.38393 0
M  V30 7738 C 733.623 -4.03679 4.60119 0
M  V30 7739 N 732.76 -5.23821 4.675 0
M  V30 7740 H 737.6 -1.20464 2.72566 0
M  V30 7741 H 735.137 -0.583859 1.35017 0
M  V30 7742 H 737.095 -3.60459 2.1006 0
M  V30 7743 H 735.725 -3.02936 1.11489 0
M  V30 7744 H 734.777 -1.93666 3.27411 0
M  V30 7745 H 736.089 -2.72583 4.17732 0
M  V30 7746 H 735.243 -4.97404 3.47382 0
M  V30 7747 H 733.982 -4.20632 2.4682 0
M  V30 7748 H 732.987 -3.14129 4.51224 0
M  V30 7749 H 734.212 -3.94112 5.5304 0
M  V30 7750 H 732.158 -5.35559 3.7883 0
M  V30 7751 H 732.075 -5.17611 5.51013 0
M  V30 7752 H 733.343 -6.13572 4.8078 0
M  V30 7753 N 737.572 -1.44907 -0.619662 0
M  V30 7754 C 738.797 -1.52021 -1.41083 0
M  V30 7755 C 739.222 -0.14976 -1.87503 0
M  V30 7756 O 738.58 0.863303 -1.59426 0
M  V30 7757 C 738.628 -2.49911 -2.59955 0
M  V30 7758 O 737.732 -2.00857 -3.60181 0
M  V30 7759 H 737.073 -0.512912 -0.421684 0
M  V30 7760 H 739.603 -1.90149 -0.755282 0
M  V30 7761 H 739.613 -2.68323 -3.07354 0
M  V30 7762 H 738.288 -3.4945 -2.25516 0
M  V30 7763 H 736.865 -1.92265 -3.19513 0
M  V30 7764 N 739.05 0.861098 -1.31996 0
M  V30 7765 C 739.997 1.96912 -1.20392 0
M  V30 7766 C 740.967 1.65869 -0.0875899 0
M  V30 7767 O 742.152 1.88992 -0.262011 0
M  V30 7768 C 739.292 3.32435 -0.926335 0
M  V30 7769 C 738.405 3.76018 -2.12684 0
M  V30 7770 C 737.54 5.00301 -1.78529 0
M  V30 7771 C 736.579 5.36357 -2.94937 0
M  V30 7772 N 735.716 6.51818 -2.60917 0
M  V30 7773 H 740.556 2.06169 -2.1517 0
M  V30 7774 H 738.093 1.00917 -1.07024 0
M  V30 7775 H 740.051 4.10478 -0.745917 0
M  V30 7776 H 738.681 3.22796 -0.0153578 0
M  V30 7777 H 737.733 2.93683 -2.41774 0
M  V30 7778 H 739.045 3.98664 -2.99781 0
M  V30 7779 H 738.199 5.86034 -1.57001 0
M  V30 7780 H 736.938 4.79578 -0.886356 0
M  V30 7781 H 735.943 4.49139 -3.17103 0
M  V30 7782 H 737.168 5.59041 -3.85552 0
M  V30 7783 H 735.114 6.32624 -1.73558 0
M  V30 7784 H 735.031 6.7445 -3.41544 0
M  V30 7785 H 736.299 7.4072 -2.42804 0
M  V30 7786 N 740.528 1.15101 1.07655 0
M  V30 7787 C 741.775 0.923974 1.80191 0
M  V30 7788 C 742.103 -0.549065 1.86589 0
M  V30 7789 O 741.358 -1.42307 1.3434 0
M  V30 7790 C 741.657 1.47954 3.25337 0
M  V30 7791 C 741.323 2.97253 3.39044 0
M  V30 7792 C 739.985 3.38012 3.42493 0
M  V30 7793 C 742.337 3.93219 3.42094 0
M  V30 7794 C 739.665 4.73384 3.4659 0
M  V30 7795 C 742.017 5.28458 3.47728 0
M  V30 7796 C 740.681 5.68717 3.49453 0
M  V30 7797 H 739.951 0.338106 0.659367 0
M  V30 7798 H 742.598 1.43594 1.26701 0
M  V30 7799 H 740.903 0.888691 3.81588 0
M  V30 7800 H 742.6 1.27972 3.80032 0
M  V30 7801 H 739.19 2.64746 3.37057 0
M  V30 7802 H 743.374 3.62805 3.38654 0
M  V30 7803 H 738.63 5.03925 3.46222 0
M  V30 7804 H 742.804 6.02618 3.49034 0
M  V30 7805 H 740.431 6.73596 3.5238 0
M  V30 7806 N 742.006 -1.2595 0.947325 0
M  V30 7807 C 743.231 -1.98083 0.614633 0
M  V30 7808 C 743.656 -1.70013 -0.804815 0
M  V30 7809 O 743.014 -0.95175 -1.54309 0
M  V30 7810 C 743.062 -3.4993 0.870706 0
M  V30 7811 O 742.166 -4.12364 -0.0541451 0
M  V30 7812 H 741.507 -0.621232 0.234451 0
M  V30 7813 H 744.037 -1.60259 1.27193 0
M  V30 7814 H 744.047 -4.00198 0.794051 0
M  V30 7815 H 742.722 -3.69691 1.90529 0
M  V30 7816 H 741.299 -3.72826 0.0740917 0
M  V30 7817 N 743.484 -0.715051 -1.40445 0
M  V30 7818 C 744.9 -0.388555 -1.54798 0
M  V30 7819 C 745.1 1.10271 -1.68649 0
M  V30 7820 O 744.156 1.88875 -1.67578 0
M  V30 7821 C 745.469 -1.15414 -2.77669 0
M  V30 7822 C 747.017 -1.14039 -2.91486 0
M  V30 7823 C 747.492 -1.88812 -4.1727 0
M  V30 7824 N 748.983 -1.85878 -4.24268 0
M  V30 7825 C 749.718 -2.40558 -5.20499 0
M  V30 7826 N 749.214 -3.03791 -6.22642 0
M  V30 7827 N 751.007 -2.30703 -5.12574 0
M  V30 7828 H 743.158 -1.68201 -1.297 0
M  V30 7829 H 745.421 -0.710915 -0.627139 0
M  V30 7830 H 745.127 -2.20853 -2.7371 0
M  V30 7831 H 745.001 -0.745412 -3.69761 0
M  V30 7832 H 747.388 -0.0941996 -2.9495 0
M  V30 7833 H 747.469 -1.58834 -2.00513 0
M  V30 7834 H 747.113 -2.93422 -4.14568 0
M  V30 7835 H 747.043 -1.41438 -5.0725 0
M  V30 7836 H 749.534 -1.39794 -3.51093 0
M  V30 7837 H 749.847 -3.43032 -6.92495 0
M  V30 7838 H 748.192 -3.07875 -6.23087 0
M  V30 7839 H 751.383 -1.80961 -4.31707 0
M  V30 7840 H 751.556 -2.73618 -5.87398 0
M  V30 7841 N 744.962 1.50701 -0.461195 0
M  V30 7842 C 746.192 2.06381 0.0950376 0
M  V30 7843 C 746.6 1.32627 1.34933 0
M  V30 7844 O 745.943 0.386137 1.79596 0
M  V30 7845 C 746.005 3.56558 0.458965 0
M  V30 7846 C 745.669 4.51732 -0.691891 0
M  V30 7847 C 746.666 4.95594 -1.57105 0
M  V30 7848 C 744.351 4.94542 -0.879407 0
M  V30 7849 C 746.345 5.80963 -2.62223 0
M  V30 7850 C 744.032 5.79695 -1.93382 0
M  V30 7851 C 745.03 6.22806 -2.80359 0
M  V30 7852 O 744.718 7.06265 -3.83986 0
M  V30 7853 H 744.45 0.676 0.000687488 0
M  V30 7854 H 747.004 1.94974 -0.646087 0
M  V30 7855 H 745.234 3.65832 1.25314 0
M  V30 7856 H 746.923 3.94647 0.949124 0
M  V30 7857 H 747.689 4.63197 -1.43783 0
M  V30 7858 H 743.568 4.60513 -0.211907 0
M  V30 7859 H 747.112 6.14533 -3.30143 0
M  V30 7860 H 743.009 6.11506 -2.06715 0
M  V30 7861 H 743.777 7.24494 -3.80855 0
M  V30 7862 N 746.441 0.193421 1.56409 0
M  V30 7863 C 747.687 -0.43983 1.98588 0
M  V30 7864 C 748.042 -1.59353 1.07816 0
M  V30 7865 O 747.335 -1.9121 0.122226 0
M  V30 7866 C 747.529 -0.949718 3.44551 0
M  V30 7867 C 747.358 0.153045 4.49439 0
M  V30 7868 C 746.128 0.610119 5.01603 0
M  V30 7869 C 748.326 0.961397 5.05234 0
M  V30 7870 N 746.308 1.69088 5.90155 0
M  V30 7871 C 747.679 1.8916 5.90439 0
M  V30 7872 C 749.734 1.004 4.87672 0
M  V30 7873 C 748.437 2.86086 6.5996 0
M  V30 7874 C 750.463 1.96131 5.57931 0
M  V30 7875 C 749.825 2.87895 6.42881 0
M  V30 7876 H 745.924 -0.128415 0.771384 0
M  V30 7877 H 748.508 0.29873 1.92395 0
M  V30 7878 H 746.679 -1.65772 3.51246 0
M  V30 7879 H 748.411 -1.55344 3.73698 0
M  V30 7880 H 745.166 0.203771 4.73161 0
M  V30 7881 H 745.59 2.23241 6.39134 0
M  V30 7882 H 750.232 0.308536 4.21673 0
M  V30 7883 H 747.95 3.56609 7.25159 0
M  V30 7884 H 751.536 2.00066 5.46319 0
M  V30 7885 H 750.416 3.60763 6.9629 0
M  V30 7886 N 747.919 -1.57396 -0.0801906 0
M  V30 7887 C 749.335 -1.53564 -0.434778 0
M  V30 7888 C 749.535 -0.912372 -1.79661 0
M  V30 7889 O 748.591 -0.511268 -2.4727 0
M  V30 7890 C 749.904 -2.98244 -0.383561 0
M  V30 7891 C 751.452 -3.09536 -0.46435 0
M  V30 7892 C 751.927 -4.55851 -0.443128 0
M  V30 7893 N 753.418 -4.60456 -0.503448 0
M  V30 7894 C 754.153 -5.71135 -0.509106 0
M  V30 7895 N 753.649 -6.91203 -0.47008 0
M  V30 7896 N 755.442 -5.59353 -0.555035 0
M  V30 7897 H 747.593 -1.96281 0.811635 0
M  V30 7898 H 749.856 -0.898041 0.303689 0
M  V30 7899 H 749.562 -3.47369 0.550236 0
M  V30 7900 H 749.436 -3.57705 -1.19694 0
M  V30 7901 H 751.823 -2.6039 -1.38857 0
M  V30 7902 H 751.904 -2.53 0.377445 0
M  V30 7903 H 751.548 -5.05653 0.477207 0
M  V30 7904 H 751.478 -5.10242 -1.30234 0
M  V30 7905 H 753.969 -3.74048 -0.538199 0
M  V30 7906 H 754.282 -7.7132 -0.478091 0
M  V30 7907 H 752.627 -6.93625 -0.436897 0
M  V30 7908 H 755.818 -4.64453 -0.583158 0
M  V30 7909 H 755.991 -6.4561 -0.555976 0
M  V30 7910 N 749.397 0.351382 -1.53633 0
M  V30 7911 C 750.813 0.693987 -1.43722 0
M  V30 7912 C 751.013 1.9274 -0.587669 0
M  V30 7913 O 750.069 2.52387 -0.0756082 0
M  V30 7914 C 751.382 0.893937 -2.87105 0
M  V30 7915 C 752.93 0.993051 -2.96829 0
M  V30 7916 C 753.405 1.22537 -4.41303 0
M  V30 7917 N 754.896 1.29275 -4.44795 0
M  V30 7918 C 755.631 1.48988 -5.53706 0
M  V30 7919 N 755.127 1.65924 -6.72637 0
M  V30 7920 N 756.92 1.51472 -5.41306 0
M  V30 7921 H 749.071 -0.459688 -2.07366 0
M  V30 7922 H 751.334 -0.143684 -0.937048 0
M  V30 7923 H 751.04 0.0592517 -3.5165 0
M  V30 7924 H 750.914 1.79795 -3.31592 0
M  V30 7925 H 753.301 1.81827 -2.32429 0
M  V30 7926 H 753.382 0.0661119 -2.55715 0
M  V30 7927 H 753.026 0.405117 -5.06282 0
M  V30 7928 H 752.956 2.16575 -4.80003 0
M  V30 7929 H 755.447 1.17743 -3.59089 0
M  V30 7930 H 755.76 1.80578 -7.51406 0
M  V30 7931 H 754.105 1.63075 -6.75597 0
M  V30 7932 H 757.296 1.37818 -4.47352 0
M  V30 7933 H 757.469 1.66493 -6.26246 0
M  V30 7934 N 750.875 1.45233 0.611969 0
M  V30 7935 C 752.121 1.50233 1.37119 0
M  V30 7936 C 752.476 0.140336 1.91888 0
M  V30 7937 O 751.769 -0.847161 1.71854 0
M  V30 7938 C 751.963 2.51353 2.54079 0
M  V30 7939 C 751.792 3.97251 2.10764 0
M  V30 7940 C 750.562 4.65256 1.97141 0
M  V30 7941 C 752.76 4.85914 1.68499 0
M  V30 7942 N 750.742 5.95895 1.4759 0
M  V30 7943 C 752.113 6.06147 1.30331 0
M  V30 7944 C 754.168 4.72813 1.56051 0
M  V30 7945 C 752.871 7.14729 0.809591 0
M  V30 7946 C 754.897 5.8144 1.08083 0
M  V30 7947 C 754.259 7.00825 0.708775 0
M  V30 7948 H 750.358 0.604708 0.495835 0
M  V30 7949 H 752.942 1.81679 0.700055 0
M  V30 7950 H 751.113 2.21866 3.18795 0
M  V30 7951 H 752.845 2.46528 3.20945 0
M  V30 7952 H 749.6 4.20345 2.18191 0
M  V30 7953 H 750.024 6.65349 1.25059 0
M  V30 7954 H 754.666 3.80931 1.83443 0
M  V30 7955 H 752.384 8.06404 0.523215 0
M  V30 7956 H 755.97 5.73335 0.988842 0
M  V30 7957 H 754.85 7.83448 0.343305 0
M  V30 7958 N 752.353 -0.854086 1.3245 0
M  V30 7959 C 753.301 -1.98411 1.21391 0
M  V30 7960 C 754.295 -1.68984 0.118586 0
M  V30 7961 O 755.501 -1.77784 0.281549 0
M  V30 7962 H 751.876 -0.651077 0.376301 0
M  V30 7963 H 753.847 -2.04867 2.16961 0
M  V30 7964 C 752.596 -3.34345 0.954407 0
M  V30 7965 H 751.919 -3.57518 1.78944 0
M  V30 7966 H 753.359 -4.13959 0.917269 0
M  V30 7967 C 751.818 -3.35151 -0.342838 0
M  V30 7968 O 752.348 -3.78174 -1.35452 0
M  V30 7969 N 750.554 -2.88298 -0.365012 0
M  V30 7970 H 750.101 -2.53481 0.4588 0
M  V30 7971 H 750.059 -2.8922 -1.23284 0
M  V30 7972 N 753.831 -1.1567 -1.07043 0
M  V30 7973 C 755.247 -0.900006 -1.31803 0
M  V30 7974 C 755.447 0.451293 -1.96381 0
M  V30 7975 O 754.503 1.19252 -2.22565 0
M  V30 7976 C 755.816 -2.04334 -2.20609 0
M  V30 7977 C 757.364 -2.07823 -2.34048 0
M  V30 7978 C 757.839 -3.21488 -3.26204 0
M  V30 7979 N 759.33 -3.21156 -3.33786 0
M  V30 7980 C 760.065 -4.05746 -4.05163 0
M  V30 7981 N 759.561 -5.00407 -4.79129 0
M  V30 7982 N 761.354 -3.93759 -4.01136 0
M  V30 7983 H 753.505 -2.02681 -0.635146 0
M  V30 7984 H 755.768 -0.883956 -0.342528 0
M  V30 7985 H 755.474 -3.01895 -1.80423 0
M  V30 7986 H 755.348 -1.97838 -3.21154 0
M  V30 7987 H 757.735 -1.1086 -2.73485 0
M  V30 7988 H 757.816 -2.18386 -1.33197 0
M  V30 7989 H 757.46 -4.18706 -2.87485 0
M  V30 7990 H 757.39 -3.08162 -4.27017 0
M  V30 7991 H 759.881 -2.52606 -2.81067 0
M  V30 7992 H 760.194 -5.61387 -5.31097 0
M  V30 7993 H 758.539 -5.04393 -4.78135 0
M  V30 7994 H 761.73 -3.19115 -3.42466 0
M  V30 7995 H 761.903 -4.59906 -4.56498 0
M  V30 7996 N 755.309 1.25446 -0.953992 0
M  V30 7997 C 756.556 1.93143 -0.608429 0
M  V30 7998 C 756.884 1.74727 0.854451 0
M  V30 7999 O 756.139 1.0855 1.62836 0
M  V30 8000 C 756.438 3.45555 -0.912496 0
M  V30 8001 C 756.104 3.84126 -2.36131 0
M  V30 8002 C 754.766 3.94367 -2.75732 0
M  V30 8003 C 757.118 4.0324 -3.30223 0
M  V30 8004 C 754.446 4.21127 -4.08496 0
M  V30 8005 C 756.798 4.31493 -4.62598 0
M  V30 8006 C 755.462 4.3995 -5.01996 0
M  V30 8007 H 754.732 0.706762 -0.22264 0
M  V30 8008 H 757.379 1.49005 -1.20291 0
M  V30 8009 H 755.684 3.91091 -0.235618 0
M  V30 8010 H 757.381 3.9612 -0.623714 0
M  V30 8011 H 753.971 3.76711 -2.04418 0
M  V30 8012 H 758.155 3.94744 -3.00817 0
M  V30 8013 H 753.411 4.2589 -4.38665 0
M  V30 8014 H 757.585 4.45227 -5.35486 0
M  V30 8015 H 755.212 4.60439 -6.04896 0
M  V30 8016 N 756.787 0.722489 1.40064 0
M  V30 8017 C 758.027 0.269491 2.02616 0
M  V30 8018 C 758.391 -1.11835 1.56067 0
M  V30 8019 O 759.592 -1.66873 2.1073 0
M  V30 8020 C 757.863 0.354066 3.55642 0
M  V30 8021 S 759.422 -0.0209309 4.38795 0
M  V30 8022 H 756.24 0.106412 0.702992 0
M  V30 8023 H 758.842 0.946237 1.71075 0
M  V30 8024 H 757.546 1.36565 3.87012 0
M  V30 8025 H 757.077 -0.340925 3.9192 0
M  V30 8026 H 759.092 -1.24093 4.80432 0
M  V30 8027 N 758.265 -1.50454 0.469181 0
M  V30 8028 C 759.681 -1.59124 0.123226 0
M  V30 8029 C 759.881 -1.47749 -1.37013 0
M  V30 8030 O 758.937 -1.335 -2.14322 0
M  V30 8031 C 760.25 -2.93101 0.67172 0
M  V30 8032 C 761.798 -3.06491 0.634978 0
M  V30 8033 C 762.273 -4.43041 1.16098 0
M  V30 8034 N 763.764 -4.49448 1.12031 0
M  V30 8035 C 764.499 -5.53491 1.49784 0
M  V30 8036 N 763.995 -6.64798 1.94976 0
M  V30 8037 N 765.788 -5.44025 1.41399 0
M  V30 8038 H 757.939 -1.56091 1.44046 0
M  V30 8039 H 760.202 -0.737564 0.59557 0
M  V30 8040 H 759.908 -3.06895 1.7178 0
M  V30 8041 H 759.782 -3.77027 0.114222 0
M  V30 8042 H 762.169 -2.92346 -0.402187 0
M  V30 8043 H 762.25 -2.24328 1.22926 0
M  V30 8044 H 761.894 -4.57935 2.19677 0
M  V30 8045 H 761.824 -5.23794 0.542939 0
M  V30 8046 H 764.315 -3.69575 0.788828 0
M  V30 8047 H 764.628 -7.40246 2.21936 0
M  V30 8048 H 762.973 -6.65923 1.98927 0
M  V30 8049 H 766.164 -4.55955 1.05935 0
M  V30 8050 H 766.337 -6.2499 1.71147 0
M  V30 8051 N 759.743 -0.201713 -1.56304 0
M  V30 8052 C 761.159 0.154025 -1.58855 0
M  V30 8053 C 761.359 1.60516 -1.21807 0
M  V30 8054 O 760.415 2.34193 -0.94393 0
M  V30 8055 C 761.728 -0.154319 -3.00304 0
M  V30 8056 C 763.276 -0.0949578 -3.12856 0
M  V30 8057 C 763.751 -0.376703 -4.56448 0
M  V30 8058 N 765.242 -0.325558 -4.62054 0
M  V30 8059 C 765.977 -0.51732 -5.71062 0
M  V30 8060 N 765.473 -0.769789 -6.8851 0
M  V30 8061 N 767.266 -0.45112 -5.60287 0
M  V30 8062 H 759.417 -1.14858 -1.78666 0
M  V30 8063 H 761.68 -0.458934 -0.829508 0
M  V30 8064 H 761.386 -1.16074 -3.31994 0
M  V30 8065 H 761.26 0.540014 -3.73314 0
M  V30 8066 H 763.647 0.902075 -2.80974 0
M  V30 8067 H 763.728 -0.822468 -2.42217 0
M  V30 8068 H 763.372 -1.37108 -4.89044 0
M  V30 8069 H 763.302 0.371772 -5.25286 0
M  V30 8070 H 765.793 -0.137308 -3.7765 0
M  V30 8071 H 766.106 -0.904744 -7.67486 0
M  V30 8072 H 764.451 -0.806758 -6.90302 0
M  V30 8073 H 767.642 -0.254253 -4.67409 0
M  V30 8074 H 767.815 -0.603982 -6.45179 0
M  V30 8075 N 761.222 1.57436 0.0718424 0
M  V30 8076 C 762.169 2.03686 1.08539 0
M  V30 8077 C 763.139 0.917474 1.38462 0
M  V30 8078 O 764.324 1.18513 1.4953 0
M  V30 8079 C 761.464 2.48566 2.39393 0
M  V30 8080 C 760.577 3.74122 2.16001 0
M  V30 8081 C 759.712 4.07786 3.40418 0
M  V30 8082 C 758.751 5.26383 3.1239 0
M  V30 8083 N 757.888 5.55685 4.29138 0
M  V30 8084 H 762.728 2.90043 0.684018 0
M  V30 8085 H 760.265 1.43438 0.326183 0
M  V30 8086 H 762.223 2.72639 3.15791 0
M  V30 8087 H 760.853 1.65186 2.77333 0
M  V30 8088 H 759.905 3.57389 1.30296 0
M  V30 8089 H 761.217 4.60659 1.91298 0
M  V30 8090 H 760.371 4.32759 4.25211 0
M  V30 8091 H 759.11 3.19817 3.68197 0
M  V30 8092 H 758.115 5.01206 2.25993 0
M  V30 8093 H 759.34 6.1597 2.85934 0
M  V30 8094 H 757.286 4.70675 4.56948 0
M  V30 8095 H 757.203 6.3664 4.07708 0
M  V30 8096 H 758.471 5.85209 5.14928 0
M  V30 8097 N 762.7 -0.34323 1.53817 0
M  V30 8098 C 763.94 -1.09188 1.72793 0
M  V30 8099 C 764.304 -1.85876 0.481062 0
M  V30 8100 O 765.505 -2.63158 0.547851 0
M  V30 8101 C 763.776 -2.00783 2.9567 0
M  V30 8102 S 765.335 -2.82866 3.35459 0
M  V30 8103 H 762.153 -0.368926 0.607795 0
M  V30 8104 H 764.755 -0.370265 1.91962 0
M  V30 8105 H 763.459 -1.43245 3.84589 0
M  V30 8106 H 762.99 -2.77381 2.78968 0
M  V30 8107 H 765.005 -4.03196 2.89218 0
M  V30 8108 N 764.178 -1.45556 -0.604258 0
M  V30 8109 C 765.594 -1.30035 -0.925368 0
M  V30 8110 C 765.794 -0.255833 -1.99869 0
M  V30 8111 O 764.85 0.349076 -2.50075 0
M  V30 8112 C 766.163 -2.68028 -1.36314 0
M  V30 8113 C 767.711 -2.75951 -1.47717 0
M  V30 8114 C 768.186 -4.14476 -1.94868 0
M  V30 8115 N 769.677 -4.16787 -2.02097 0
M  V30 8116 C 770.412 -5.20845 -2.39809 0
M  V30 8117 N 769.908 -6.35246 -2.76467 0
M  V30 8118 N 771.701 -5.08204 -2.40177 0
M  V30 8119 H 763.852 -2.1214 0.10512 0
M  V30 8120 H 766.115 -0.947871 -0.0156303 0
M  V30 8121 H 765.821 -3.45667 -0.648628 0
M  V30 8122 H 765.695 -2.96711 -2.329 0
M  V30 8123 H 768.082 -1.98613 -2.18258 0
M  V30 8124 H 768.163 -2.50977 -0.494371 0
M  V30 8125 H 767.807 -4.923 -1.24912 0
M  V30 8126 H 767.737 -4.36843 -2.94068 0
M  V30 8127 H 770.228 -3.34233 -1.76343 0
M  V30 8128 H 770.541 -7.10438 -3.04134 0
M  V30 8129 H 768.886 -6.38642 -2.74155 0
M  V30 8130 H 772.077 -4.17874 -2.10947 0
M  V30 8131 H 772.25 -5.89417 -2.69242 0
M  V30 8132 N 765.656 0.84705 -1.32902 0
M  V30 8133 C 766.619 1.9378 -1.224 0
M  V30 8134 C 767.619 1.60144 -0.145108 0
M  V30 8135 O 768.809 1.69638 -0.396058 0
M  V30 8136 C 765.941 3.29234 -0.884174 0
M  V30 8137 H 767.134 2.04518 -2.19345 0
M  V30 8138 H 764.687 1.03816 -1.16842 0
M  V30 8139 H 765.422 3.24193 0.0831277 0
M  V30 8140 H 765.207 3.55026 -1.6643 0
M  V30 8141 H 766.697 4.09162 -0.835226 0
M  V30 8142 N 767.134 1.16236 1.06428 0
M  V30 8143 C 768.097 0.870163 2.1204 0
M  V30 8144 C 769.097 -0.134239 1.60239 0
M  V30 8145 O 770.287 0.0964932 1.73933 0
M  V30 8146 C 767.419 0.301033 3.39568 0
M  V30 8147 H 768.612 1.8064 2.39394 0
M  V30 8148 H 766.165 0.971116 1.2247 0
M  V30 8149 H 766.9 -0.642948 3.17863 0
M  V30 8150 H 766.685 1.02475 3.78472 0
M  V30 8151 H 768.175 0.114494 4.17443 0
M  V30 8152 N 768.612 -1.24939 0.960631 0
M  V30 8153 C 769.858 -1.93104 0.61958 0
M  V30 8154 C 770.191 -1.74991 -0.84212 0
M  V30 8155 O 769.466 -1.09867 -1.60498 0
M  V30 8156 C 769.749 -3.46326 0.986422 0
M  V30 8157 C 769.602 -3.73638 2.50429 0
M  V30 8158 C 770.921 -4.37067 0.515827 0
M  V30 8159 H 768.04 -0.701311 0.226566 0
M  V30 8160 H 770.682 -1.47442 1.19836 0
M  V30 8161 H 768.832 -3.85348 0.493907 0
M  V30 8162 H 770.504 -3.44217 3.07103 0
M  V30 8163 H 768.747 -3.19035 2.93937 0
M  V30 8164 H 769.418 -4.80815 2.71147 0
M  V30 8165 H 771.894 -4.05381 0.938389 0
M  V30 8166 H 770.77 -5.43022 0.80114 0
M  V30 8167 H 771.031 -4.38224 -0.584171 0
M  V30 8168 N 770.09 -0.729906 -1.39679 0
M  V30 8169 C 771.037 -0.0866063 -2.30637 0
M  V30 8170 C 772.007 0.735115 -1.48947 0
M  V30 8171 O 773.192 0.696125 -1.77648 0
M  V30 8172 C 770.332 0.818524 -3.35252 0
M  V30 8173 C 769.445 -0.0152635 -4.31997 0
M  V30 8174 C 768.58 0.890669 -5.2368 0
M  V30 8175 C 767.619 0.0518246 -6.12078 0
M  V30 8176 N 766.756 0.913411 -6.96133 0
M  V30 8177 H 771.596 -0.867925 -2.85081 0
M  V30 8178 H 769.133 -0.439673 -1.40376 0
M  V30 8179 H 771.091 1.3577 -3.9449 0
M  V30 8180 H 769.721 1.56587 -2.82277 0
M  V30 8181 H 768.773 -0.671794 -3.74421 0
M  V30 8182 H 770.085 -0.664086 -4.9436 0
M  V30 8183 H 769.239 1.49787 -5.87919 0
M  V30 8184 H 767.978 1.57328 -4.61627 0
M  V30 8185 H 766.983 -0.568209 -5.46856 0
M  V30 8186 H 768.208 -0.627497 -6.76195 0
M  V30 8187 H 766.154 1.58141 -6.36653 0
M  V30 8188 H 766.071 0.320952 -7.55318 0
M  V30 8189 H 767.339 1.50633 -7.64807 0
M  V30 8190 N 771.568 1.50203 -0.477153 0
M  V30 8191 C 772.793 2.07263 0.0754986 0
M  V30 8192 C 773.218 1.33801 1.32208 0
M  V30 8193 O 772.576 0.387482 1.77111 0
M  V30 8194 C 772.624 3.59028 0.336348 0
M  V30 8195 O 771.728 3.87339 1.4157 0
M  V30 8196 H 771.069 0.663815 -0.015662 0
M  V30 8197 H 773.599 1.93321 -0.669936 0
M  V30 8198 H 773.609 4.03927 0.575034 0
M  V30 8199 H 772.284 4.11912 -0.574551 0
M  V30 8200 H 770.861 3.54272 1.16385 0
M  V30 8201 N 773.046 0.209999 1.56195 0
M  V30 8202 C 773.994 -0.721416 2.2113 0
M  V30 8203 C 774.988 -1.20852 1.18706 0
M  V30 8204 O 776.194 -1.16968 1.36815 0
M  V30 8205 H 772.569 -0.251033 0.708863 0
M  V30 8206 H 774.54 -0.150193 2.98022 0
M  V30 8207 C 773.289 -1.92392 2.89621 0
M  V30 8208 H 772.612 -1.5582 3.68185 0
M  V30 8209 H 774.052 -2.55367 3.38473 0
M  V30 8210 C 772.511 -2.77208 1.91461 0
M  V30 8211 O 773.041 -3.75603 1.42426 0
M  V30 8212 N 771.247 -2.43006 1.59363 0
M  V30 8213 H 770.794 -1.63047 1.99433 0
M  V30 8214 H 770.752 -3.00036 0.939449 0
M  V30 8215 N 774.524 -1.57472 -0.0634922 0
M  V30 8216 C 775.77 -1.87932 -0.762194 0
M  V30 8217 C 776.103 -0.803377 -1.76804 0
M  V30 8218 O 775.378 0.185468 -1.93614 0
M  V30 8219 C 775.661 -3.29053 -1.46275 0
M  V30 8220 C 775.514 -4.47309 -0.472755 0
M  V30 8221 C 776.833 -3.68537 -2.40558 0
M  V30 8222 H 773.952 -0.683521 -0.275624 0
M  V30 8223 H 776.594 -1.89983 -0.0252651 0
M  V30 8224 H 774.744 -3.27435 -2.0909 0
M  V30 8225 H 776.416 -4.61053 0.150828 0
M  V30 8226 H 774.659 -4.33286 0.211187 0
M  V30 8227 H 775.33 -5.42853 -1.00072 0
M  V30 8228 H 777.806 -3.71302 -1.87814 0
M  V30 8229 H 776.682 -4.68152 -2.86574 0
M  V30 8230 H 776.943 -2.98917 -3.25731 0
M  V30 8231 N 776.003 0.335068 -1.53997 0
M  V30 8232 C 777.25 1.07435 -1.71651 0
M  V30 8233 C 777.578 1.88378 -0.48413 0
M  V30 8234 O 776.833 1.8827 0.534139 0
M  V30 8235 C 777.132 2.0364 -2.9371 0
M  V30 8236 C 776.798 1.38942 -4.28959 0
M  V30 8237 C 775.46 1.21027 -4.65732 0
M  V30 8238 C 777.812 0.924083 -5.12943 0
M  V30 8239 C 775.14 0.552097 -5.84097 0
M  V30 8240 C 777.492 0.27978 -6.31981 0
M  V30 8241 C 776.156 0.0883843 -6.67441 0
M  V30 8242 H 775.426 0.393133 -0.628114 0
M  V30 8243 H 778.073 0.352712 -1.88224 0
M  V30 8244 H 776.378 2.82215 -2.71775 0
M  V30 8245 H 778.075 2.6085 -3.04562 0
M  V30 8246 H 774.665 1.53885 -4.00022 0
M  V30 8247 H 778.849 1.05032 -4.85059 0
M  V30 8248 H 774.105 0.392502 -6.10139 0
M  V30 8249 H 778.279 -0.0888479 -6.96343 0
M  V30 8250 H 775.906 -0.423657 -7.59019 0
M  V30 8251 N 777.481 1.45874 0.596531 0
M  V30 8252 C 778.711 1.5379 1.37958 0
M  V30 8253 C 779.119 0.173086 1.88407 0
M  V30 8254 O 778.462 -0.837498 1.63498 0
M  V30 8255 C 778.524 2.47044 2.61169 0
M  V30 8256 C 778.188 3.93565 2.32283 0
M  V30 8257 C 779.185 4.83162 1.91965 0
M  V30 8258 C 776.87 4.38579 2.44854 0
M  V30 8259 C 778.864 6.15782 1.64593 0
M  V30 8260 C 776.551 5.71238 2.17095 0
M  V30 8261 C 777.549 6.59659 1.77028 0
M  V30 8262 O 777.237 7.89857 1.49601 0
M  V30 8263 H 776.969 0.523 0.428307 0
M  V30 8264 H 779.523 1.91855 0.733529 0
M  V30 8265 H 777.753 2.0397 3.28532 0
M  V30 8266 H 779.442 2.4552 3.23226 0
M  V30 8267 H 780.208 4.49646 1.8178 0
M  V30 8268 H 776.087 3.6999 2.75006 0
M  V30 8269 H 779.631 6.84757 1.33245 0
M  V30 8270 H 775.528 6.04306 2.26901 0
M  V30 8271 H 776.296 8.01991 1.63561 0
M  V30 8272 N 778.959 -0.83999 1.33349 0
M  V30 8273 C 780.205 -1.59724 1.25936 0
M  V30 8274 C 780.56 -1.91616 -0.173563 0
M  V30 8275 O 779.853 -1.55791 -1.11534 0
M  V30 8276 C 780.047 -2.91571 2.06691 0
M  V30 8277 C 779.876 -2.72556 3.57691 0
M  V30 8278 C 778.646 -2.70174 4.27006 0
M  V30 8279 C 780.844 -2.45272 4.52047 0
M  V30 8280 N 778.826 -2.42525 5.63964 0
M  V30 8281 C 780.197 -2.27163 5.76885 0
M  V30 8282 C 782.252 -2.30859 4.41144 0
M  V30 8283 C 780.955 -1.96105 6.92052 0
M  V30 8284 C 782.981 -2.01194 5.56125 0
M  V30 8285 C 782.343 -1.83897 6.79972 0
M  V30 8286 H 778.442 -0.587568 0.516031 0
M  V30 8287 H 781.026 -0.986169 1.67877 0
M  V30 8288 H 779.197 -3.5063 1.67073 0
M  V30 8289 H 780.929 -3.56762 1.91057 0
M  V30 8290 H 777.684 -2.8364 3.7927 0
M  V30 8291 H 778.108 -2.31588 6.36157 0
M  V30 8292 H 782.75 -2.42946 3.46031 0
M  V30 8293 H 780.468 -1.82756 7.87163 0
M  V30 8294 H 784.054 -1.90799 5.49624 0
M  V30 8295 H 782.934 -1.61271 7.67438 0
M  V30 8296 N 780.437 -1.16799 -1.0581 0
M  V30 8297 C 781.367 -0.902241 -2.15364 0
M  V30 8298 C 782.348 0.153351 -1.69407 0
M  V30 8299 O 783.533 0.00442032 -1.94199 0
M  V30 8300 C 780.663 -0.407911 -3.44896 0
M  V30 8301 C 779.617 -1.40197 -4.04387 0
M  V30 8302 C 778.943 -0.765848 -5.29187 0
M  V30 8303 C 780.243 -2.77316 -4.42598 0
M  V30 8304 H 781.937 -1.81841 -2.37853 0
M  V30 8305 H 779.483 -0.875731 -1.14311 0
M  V30 8306 H 781.436 -0.20945 -4.20879 0
M  V30 8307 H 780.16 0.54378 -3.22041 0
M  V30 8308 H 778.819 -1.58707 -3.30466 0
M  V30 8309 H 778.467 0.192482 -5.02632 0
M  V30 8310 H 778.167 -1.42939 -5.69949 0
M  V30 8311 H 779.691 -0.577519 -6.07863 0
M  V30 8312 H 781.105 -2.62561 -5.09642 0
M  V30 8313 H 779.502 -3.4019 -4.94359 0
M  V30 8314 H 780.572 -3.32199 -3.53231 0
M  V30 8315 N 781.915 1.24427 -0.967243 0
M  V30 8316 C 783.161 1.92772 -0.629812 0
M  V30 8317 C 783.494 1.75436 0.832827 0
M  V30 8318 O 782.769 1.10716 1.59913 0
M  V30 8319 C 783.052 3.45798 -1.00477 0
M  V30 8320 C 782.905 3.72304 -2.52407 0
M  V30 8321 C 784.224 4.36787 -0.538999 0
M  V30 8322 H 781.343 0.700099 -0.230282 0
M  V30 8323 H 783.985 1.46805 -1.20616 0
M  V30 8324 H 782.135 3.8508 -0.514336 0
M  V30 8325 H 783.807 3.42584 -3.08924 0
M  V30 8326 H 782.05 3.17472 -2.95625 0
M  V30 8327 H 782.721 4.7937 -2.73693 0
M  V30 8328 H 785.197 4.04877 -0.959874 0
M  V30 8329 H 784.073 5.4259 -0.829926 0
M  V30 8330 H 784.334 4.38527 0.560923 0
M  V30 8331 N 783.393 0.737304 1.3929 0
M  V30 8332 C 784.642 0.283129 1.99703 0
M  V30 8333 C 784.955 -1.13677 1.59176 0
M  V30 8334 O 786.161 -1.69058 2.12442 0
M  V30 8335 C 784.617 0.455262 3.57009 0
M  V30 8336 C 784.225 1.88319 4.06497 0
M  V30 8337 C 785.969 0.0629786 4.24453 0
M  V30 8338 C 783.876 2.00475 5.56385 0
M  V30 8339 H 782.806 0.102106 0.747054 0
M  V30 8340 H 785.457 0.911515 1.5926 0
M  V30 8341 H 783.839 -0.242057 3.9526 0
M  V30 8342 H 785.013 2.61265 3.79575 0
M  V30 8343 H 783.328 2.2289 3.51723 0
M  V30 8344 H 785.925 0.132787 5.34535 0
M  V30 8345 H 786.268 -0.982128 4.04549 0
M  V30 8346 H 786.801 0.71154 3.91385 0
M  V30 8347 H 783.54 3.03182 5.81172 0
M  V30 8348 H 783.06 1.31969 5.85102 0
M  V30 8349 H 784.739 1.787 6.21832 0
M  V30 8350 N 784.871 -1.49948 0.485112 0
M  V30 8351 C 786.118 -2.02396 -0.0650059 0
M  V30 8352 C 786.446 -1.36606 -1.38452 0
M  V30 8353 O 785.701 -0.485476 -1.89583 0
M  V30 8354 C 786 -3.56282 -0.282434 0
M  V30 8355 C 785.666 -4.40625 0.957106 0
M  V30 8356 C 784.328 -4.63393 1.29692 0
M  V30 8357 C 786.68 -4.89799 1.78176 0
M  V30 8358 C 784.008 -5.3258 2.4612 0
M  V30 8359 C 786.36 -5.60266 2.93743 0
M  V30 8360 C 785.024 -5.81284 3.28124 0
M  V30 8361 H 784.294 -0.740618 -0.0237873 0
M  V30 8362 H 786.941 -1.80416 0.642044 0
M  V30 8363 H 785.246 -3.76853 -1.07186 0
M  V30 8364 H 786.943 -3.94442 -0.722276 0
M  V30 8365 H 783.533 -4.23133 0.682384 0
M  V30 8366 H 787.717 -4.7205 1.53239 0
M  V30 8367 H 782.973 -5.47059 2.73014 0
M  V30 8368 H 787.147 -5.97347 3.5798 0
M  V30 8369 H 784.774 -6.34671 4.18446 0
M  V30 8370 N 786.349 -0.21828 -1.56081 0
M  V30 8371 C 787.279 0.687922 -2.23136 0
M  V30 8372 C 788.26 1.20357 -1.202 0
M  V30 8373 O 789.445 1.24817 -1.48776 0
M  V30 8374 C 786.575 1.89762 -2.90874 0
M  V30 8375 C 785.529 1.51595 -4.00254 0
M  V30 8376 C 784.855 2.80415 -4.55271 0
M  V30 8377 C 786.155 0.708404 -5.17474 0
M  V30 8378 H 787.849 0.128854 -2.99123 0
M  V30 8379 H 785.395 0.0605354 -1.43873 0
M  V30 8380 H 787.348 2.53699 -3.36474 0
M  V30 8381 H 786.072 2.4816 -2.1233 0
M  V30 8382 H 784.731 0.900058 -3.55379 0
M  V30 8383 H 784.379 3.36951 -3.73461 0
M  V30 8384 H 784.079 2.55613 -5.2909 0
M  V30 8385 H 785.603 3.453 -5.03587 0
M  V30 8386 H 787.017 1.2514 -5.59476 0
M  V30 8387 H 785.414 0.557593 -5.97504 0
M  V30 8388 H 786.484 -0.285679 -4.84058 0
M  V30 8389 N 787.827 1.57504 0.0551401 0
M  V30 8390 C 789.073 1.88334 0.752216 0
M  V30 8391 C 789.406 0.812742 1.76375 0
M  V30 8392 O 788.681 -0.175198 1.93709 0
M  V30 8393 C 788.964 3.29824 1.44528 0
M  V30 8394 C 788.817 4.47553 0.449026 0
M  V30 8395 C 790.136 3.69808 2.38601 0
M  V30 8396 H 787.255 0.684973 0.271995 0
M  V30 8397 H 789.897 1.89994 0.0151895 0
M  V30 8398 H 788.047 3.28539 2.07351 0
M  V30 8399 H 789.719 4.60967 -0.175277 0
M  V30 8400 H 787.962 4.33168 -0.234162 0
M  V30 8401 H 788.633 5.43376 0.971917 0
M  V30 8402 H 791.109 3.72293 1.85842 0
M  V30 8403 H 789.985 4.69665 2.84088 0
M  V30 8404 H 790.246 3.00641 3.24141 0
M  V30 8405 N 789.305 -0.326896 1.54172 0
M  V30 8406 C 790.552 -1.06523 1.72218 0
M  V30 8407 C 790.88 -1.88119 0.494114 0
M  V30 8408 O 790.135 -1.8855 -0.524147 0
M  V30 8409 C 790.434 -2.0208 2.94785 0
M  V30 8410 C 790.1 -1.36665 4.2969 0
M  V30 8411 C 788.762 -1.18556 4.66367 0
M  V30 8412 C 791.114 -0.896868 5.13425 0
M  V30 8413 C 788.442 -0.521113 5.84381 0
M  V30 8414 C 790.794 -0.246261 6.3212 0
M  V30 8415 C 789.458 -0.052987 6.67479 0
M  V30 8416 H 788.728 -0.389796 0.63019 0
M  V30 8417 H 791.375 -0.342725 1.88408 0
M  V30 8418 H 789.68 -2.8077 2.73268 0
M  V30 8419 H 791.377 -2.59231 3.05941 0
M  V30 8420 H 787.967 -1.51762 4.00832 0
M  V30 8421 H 792.151 -1.02458 4.85609 0
M  V30 8422 H 787.407 -0.36014 6.10338 0
M  V30 8423 H 791.581 0.125775 6.96286 0
M  V30 8424 H 789.208 0.463903 7.58783 0
M  V30 8425 N 790.784 -1.46188 -0.588786 0
M  V30 8426 C 791.714 -1.59148 -1.70863 0
M  V30 8427 C 792.695 -0.442083 -1.64255 0
M  V30 8428 O 793.88 -0.667575 -1.82365 0
M  V30 8429 C 791.01 -1.5757 -3.09498 0
M  V30 8430 C 789.964 -2.71418 -3.30932 0
M  V30 8431 C 789.29 -2.549 -4.70032 0
M  V30 8432 C 790.59 -4.1329 -3.19356 0
M  V30 8433 H 792.284 -2.52889 -1.60274 0
M  V30 8434 H 789.83 -1.21707 -0.769638 0
M  V30 8435 H 791.783 -1.65231 -3.87655 0
M  V30 8436 H 790.507 -0.603705 -3.20972 0
M  V30 8437 H 789.166 -2.63216 -2.55172 0
M  V30 8438 H 788.814 -1.55797 -4.78264 0
M  V30 8439 H 788.514 -3.31257 -4.85327 0
M  V30 8440 H 790.038 -2.64443 -5.50366 0
M  V30 8441 H 791.452 -4.22636 -3.87365 0
M  V30 8442 H 789.849 -4.90187 -3.46175 0
M  V30 8443 H 790.919 -4.33874 -2.16522 0
M  V30 8444 N 792.262 0.832906 -1.33792 0
M  V30 8445 C 793.21 1.96455 -1.24532 0
M  V30 8446 C 794.204 1.68774 -0.145455 0
M  V30 8447 O 795.41 1.77314 -0.309797 0
M  V30 8448 H 791.785 0.645008 -0.386611 0
M  V30 8449 H 793.756 2.01389 -2.20193 0
M  V30 8450 C 792.505 3.32784 -1.00748 0
M  V30 8451 H 791.828 3.54626 -1.84609 0
M  V30 8452 H 793.268 4.12447 -0.98301 0
M  V30 8453 C 791.727 3.35654 0.289475 0
M  V30 8454 O 792.257 3.80281 1.29419 0
M  V30 8455 N 790.463 2.88843 0.3191 0
M  V30 8456 H 790.01 2.52719 -0.499069 0
M  V30 8457 H 789.968 2.91145 1.18667 0
M  V30 8458 N 793.74 1.17359 1.05189 0
M  V30 8459 C 794.968 0.986529 1.81866 0
M  V30 8460 C 795.383 -0.46522 1.82979 0
M  V30 8461 O 794.74 -1.32305 1.25705 0
M  V30 8462 C 794.791 1.52021 3.27982 0
M  V30 8463 O 794.512 2.91511 3.27037 0
M  V30 8464 C 796.013 1.37774 4.21347 0
M  V30 8465 H 793.233 0.349021 0.573084 0
M  V30 8466 H 795.777 1.55648 1.32643 0
M  V30 8467 H 793.932 0.992287 3.74476 0
M  V30 8468 H 794.346 3.16178 4.18488 0
M  V30 8469 H 795.82 1.7993 5.21852 0
M  V30 8470 H 796.297 0.32483 4.37997 0
M  V30 8471 H 796.903 1.89583 3.80708 0
M  V30 8472 N 795.218 -1.23913 0.973828 0
M  V30 8473 C 796.148 -2.27453 0.527969 0
M  V30 8474 C 797.129 -1.6443 -0.435513 0
M  V30 8475 O 798.314 -1.9137 -0.330306 0
M  V30 8476 C 795.444 -3.4685 -0.176757 0
M  V30 8477 C 794.398 -4.22181 0.703352 0
M  V30 8478 C 793.724 -5.34534 -0.133215 0
M  V30 8479 C 795.024 -4.82865 1.99096 0
M  V30 8480 H 796.718 -2.65 1.3934 0
M  V30 8481 H 794.264 -1.27388 0.671446 0
M  V30 8482 H 796.217 -4.18424 -0.499934 0
M  V30 8483 H 794.941 -3.08346 -1.07659 0
M  V30 8484 H 793.6 -3.52416 1.00989 0
M  V30 8485 H 793.248 -4.92271 -1.03338 0
M  V30 8486 H 792.948 -5.85855 0.452494 0
M  V30 8487 H 794.472 -6.08933 -0.450924 0
M  V30 8488 H 795.886 -5.46481 1.73297 0
M  V30 8489 H 794.283 -5.44444 2.52389 0
M  V30 8490 H 795.353 -4.03977 2.68199 0
M  V30 8491 N 796.696 -0.74468 -1.38897 0
M  V30 8492 C 797.924 -0.307428 -2.04603 0
M  V30 8493 C 798.339 1.06115 -1.56157 0
M  V30 8494 O 797.696 1.67233 -0.730701 0
M  V30 8495 C 797.747 -0.31101 -3.6016 0
M  V30 8496 O 797.468 -1.62557 -4.06825 0
M  V30 8497 C 798.969 0.141213 -4.43075 0
M  V30 8498 H 796.189 -0.132741 -0.657739 0
M  V30 8499 H 798.733 -1.01104 -1.77759 0
M  V30 8500 H 796.888 0.343792 -3.85872 0
M  V30 8501 H 797.302 -1.54569 -5.01207 0
M  V30 8502 H 798.776 0.0875449 -5.51931 0
M  V30 8503 H 799.253 1.18782 -4.22833 0
M  V30 8504 H 799.859 -0.484383 -4.22533 0
M  V30 8505 N 798.174 1.49689 -0.493057 0
M  V30 8506 C 799.423 2.01622 0.0560733 0
M  V30 8507 C 799.736 1.37838 1.3878 0
M  V30 8508 O 800.942 1.81054 2.02316 0
M  V30 8509 C 799.398 3.59586 0.150409 0
M  V30 8510 C 799.006 4.32338 -1.1742 0
M  V30 8511 C 800.75 4.19489 0.650327 0
M  V30 8512 C 798.657 5.8214 -1.04246 0
M  V30 8513 H 797.587 0.753594 0.0247297 0
M  V30 8514 H 800.238 1.723 -0.631279 0
M  V30 8515 H 798.62 3.8559 0.902035 0
M  V30 8516 H 799.794 4.18042 -1.9385 0
M  V30 8517 H 798.109 3.84144 -1.60694 0
M  V30 8518 H 800.706 5.29181 0.766272 0
M  V30 8519 H 801.049 3.82326 1.6472 0
M  V30 8520 H 801.582 3.97775 -0.0445371 0
M  V30 8521 H 798.321 6.23814 -2.01336 0
M  V30 8522 H 797.841 5.98952 -0.31892 0
M  V30 8523 H 799.52 6.43004 -0.717957 0
M  V30 8524 N 799.652 0.226554 1.55963 0
M  V30 8525 C 800.615 -0.668015 2.19249 0
M  V30 8526 C 801.615 -1.11794 1.1558 0
M  V30 8527 O 802.805 -1.02593 1.40784 0
M  V30 8528 C 799.937 -1.91571 2.81981 0
M  V30 8529 H 801.13 -0.116175 2.99675 0
M  V30 8530 H 798.683 -0.0230497 1.56283 0
M  V30 8531 H 799.418 -2.50929 2.05439 0
M  V30 8532 H 799.203 -1.6015 3.57903 0
M  V30 8533 H 800.693 -2.55294 3.30477 0
M  V30 8534 N 801.13 -1.57531 -0.0467866 0
M  V30 8535 C 802.355 -1.93087 -0.757123 0
M  V30 8536 C 802.78 -0.825116 -1.69037 0
M  V30 8537 O 802.138 0.220449 -1.79955 0
M  V30 8538 C 802.186 -3.27669 -1.5055 0
M  V30 8539 O 801.29 -3.18667 -2.61773 0
M  V30 8540 H 800.631 -0.631597 -0.204892 0
M  V30 8541 H 803.161 -2.04599 -0.00755232 0
M  V30 8542 H 803.171 -3.6214 -1.87932 0
M  V30 8543 H 801.846 -4.07717 -0.820931 0
M  V30 8544 H 800.423 -2.95798 -2.27064 0
M  V30 8545 N 802.608 0.318715 -1.54344 0
M  V30 8546 C 803.518 1.41535 -1.87097 0
M  V30 8547 C 804.534 1.56361 -0.763353 0
M  V30 8548 O 805.71 1.71365 -1.05811 0
M  V30 8549 C 802.775 2.76178 -2.09587 0
M  V30 8550 C 801.836 2.70486 -3.3337 0
M  V30 8551 C 801.069 3.98708 -3.54778 0
M  V30 8552 O 801.292 4.9721 -2.79532 0
M  V30 8553 O 800.226 4.01674 -4.48266 0
M  V30 8554 H 804.052 1.16764 -2.80357 0
M  V30 8555 H 801.637 0.51318 -1.4031 0
M  V30 8556 H 803.519 3.55873 -2.25682 0
M  V30 8557 H 802.194 3.00829 -1.19514 0
M  V30 8558 H 801.101 1.89325 -3.22656 0
M  V30 8559 H 802.434 2.50789 -4.23516 0
M  V30 8560 N 804.086 1.46499 0.581025 0
M  V30 8561 C 805.036 1.53606 1.68491 0
M  V30 8562 C 806.02 0.396853 1.55929 0
M  V30 8563 O 807.212 0.645366 1.64815 0
M  V30 8564 C 804.341 1.53089 3.07276 0
M  V30 8565 C 803.427 2.72309 3.25128 0
M  V30 8566 N 803.818 3.97216 3.13134 0
M  V30 8567 C 802.116 2.68568 3.56072 0
M  V30 8568 C 802.817 4.7693 3.33036 0
M  V30 8569 N 801.793 4.08833 3.58269 0
M  V30 8570 H 805.595 2.47976 1.5775 0
M  V30 8571 H 803.109 1.42161 0.785104 0
M  V30 8572 H 805.106 1.56268 3.86505 0
M  V30 8573 H 803.766 0.597969 3.19146 0
M  V30 8574 H 804.777 4.28439 2.90964 0
M  V30 8575 H 801.454 1.84307 3.74616 0
M  V30 8576 H 802.844 5.85879 3.28932 0
M  V30 8577 N 805.565 -0.825799 1.34232 0
M  V30 8578 C 806.795 -1.61129 1.29309 0
M  V30 8579 C 807.203 -1.88714 -0.135589 0
M  V30 8580 O 806.546 -1.47703 -1.09222 0
M  V30 8581 C 806.608 -2.97866 2.01287 0
M  V30 8582 C 806.272 -2.9319 3.50555 0
M  V30 8583 C 807.269 -2.67978 4.45515 0
M  V30 8584 C 804.954 -3.12913 3.92926 0
M  V30 8585 C 806.948 -2.62536 5.80822 0
M  V30 8586 C 804.635 -3.07096 5.28333 0
M  V30 8587 C 805.633 -2.8194 6.22092 0
M  V30 8588 O 805.321 -2.7605 7.55018 0
M  V30 8589 H 805.053 -0.507652 0.446391 0
M  V30 8590 H 807.607 -1.03575 1.77374 0
M  V30 8591 H 805.837 -3.57327 1.47832 0
M  V30 8592 H 807.526 -3.58848 1.89691 0
M  V30 8593 H 808.292 -2.52478 4.14101 0
M  V30 8594 H 804.171 -3.3151 3.20347 0
M  V30 8595 H 807.715 -2.42821 6.53975 0
M  V30 8596 H 803.612 -3.22148 5.59367 0
M  V30 8597 H 804.38 -2.91798 7.6472 0
M  V30 8598 N 807.043 -1.17915 -1.04565 0
M  V30 8599 C 807.991 -0.897919 -2.1457 0
M  V30 8600 C 808.985 0.139883 -1.68821 0
M  V30 8601 O 810.191 -0.00779463 -1.79998 0
M  V30 8602 H 806.566 -0.272867 -0.700748 0
M  V30 8603 H 808.537 -1.83268 -2.3549 0
M  V30 8604 C 807.286 -0.434634 -3.44973 0
M  V30 8605 H 806.609 -1.22469 -3.8058 0
M  V30 8606 H 808.049 -0.276804 -4.23095 0
M  V30 8607 C 806.508 0.848738 -3.26034 0
M  V30 8608 O 807.038 1.9141 -3.53164 0
M  V30 8609 N 805.244 0.799373 -2.79389 0
M  V30 8610 H 804.791 -0.0678192 -2.57511 0
M  V30 8611 H 804.749 1.6585 -2.67098 0
M  V30 8612 N 808.521 1.23394 -0.980386 0
M  V30 8613 C 809.453 2.24146 -0.478657 0
M  V30 8614 C 810.466 1.57303 0.419492 0
M  V30 8615 O 811.655 1.77094 0.223631 0
M  V30 8616 C 808.755 3.3732 0.326913 0
M  V30 8617 C 807.928 4.33744 -0.56436 0
M  V30 8618 C 806.987 5.25866 0.187358 0
M  V30 8619 O 806.013 5.67626 -0.423019 0
M  V30 8620 N 807.215 5.61492 1.47335 0
M  V30 8621 H 809.98 2.67826 -1.34496 0
M  V30 8622 H 807.541 1.37566 -0.853653 0
M  V30 8623 H 809.533 3.95926 0.838148 0
M  V30 8624 H 808.103 2.92823 1.09422 0
M  V30 8625 H 807.323 3.73641 -1.25642 0
M  V30 8626 H 808.611 4.95123 -1.17177 0
M  V30 8627 H 808.009 5.29514 1.99077 0
M  V30 8628 H 806.566 6.2257 1.93002 0
M  V30 8629 N 809.999 0.752036 1.385 0
M  V30 8630 C 811.41 0.375385 1.82887 0
M  V30 8631 C 811.761 -1.09575 1.62751 0
M  V30 8632 O 810.886 -1.84685 1.12785 0
M  V30 8633 C 811.481 0.674563 3.32017 0
M  V30 8634 C 810.04 0.351208 3.74758 0
M  V30 8635 C 809.187 0.928531 2.61292 0
M  V30 8636 H 812.138 0.948313 1.27251 0
M  V30 8637 H 812.159 -0.0477781 3.8047 0
M  V30 8638 H 811.671 1.74533 3.46641 0
M  V30 8639 H 809.772 -0.713042 3.65714 0
M  V30 8640 H 809.885 0.845675 4.71577 0
M  V30 8641 H 808.249 0.354012 2.52228 0
M  V30 8642 H 809.032 2.0043 2.78716 0
M  V30 8643 N 811.477 -1.49425 0.500989 0
M  V30 8644 C 812.425 -2.30771 -0.291149 0
M  V30 8645 C 813.419 -1.3938 -0.962787 0
M  V30 8646 O 814.625 -1.56431 -0.890477 0
M  V30 8647 H 811 -0.743499 -0.11275 0
M  V30 8648 H 812.971 -2.95501 0.414917 0
M  V30 8649 C 811.72 -3.20725 -1.34279 0
M  V30 8650 H 811.043 -3.90975 -0.83538 0
M  V30 8651 H 812.483 -3.80583 -1.86903 0
M  V30 8652 C 810.942 -2.40334 -2.36095 0
M  V30 8653 O 811.472 -2.10749 -3.41976 0
M  V30 8654 N 809.678 -2.02359 -2.08565 0
M  V30 8655 H 809.225 -2.26619 -1.22482 0
M  V30 8656 H 809.183 -1.48878 -2.76916 0
M  V30 8657 N 812.955 -0.234822 -1.55841 0
M  V30 8658 C 814.201 0.387023 -1.99684 0
M  V30 8659 C 814.556 1.56439 -1.12003 0
M  V30 8660 O 813.849 1.90818 -0.172879 0
M  V30 8661 C 814.043 0.858032 -3.46947 0
M  V30 8662 C 813.872 -0.272152 -4.48876 0
M  V30 8663 C 812.642 -0.742896 -4.99809 0
M  V30 8664 C 814.84 -1.09501 -5.02508 0
M  V30 8665 N 812.822 -1.84675 -5.85464 0
M  V30 8666 C 814.193 -2.04748 -5.85217 0
M  V30 8667 C 816.248 -1.13295 -4.84839 0
M  V30 8668 C 814.951 -3.03483 -6.52143 0
M  V30 8669 C 816.977 -2.10854 -5.52535 0
M  V30 8670 C 816.339 -3.04838 -6.35022 0
M  V30 8671 H 812.438 0.107918 -0.774518 0
M  V30 8672 H 815.022 -0.349635 -1.91535 0
M  V30 8673 H 813.193 1.56401 -3.55518 0
M  V30 8674 H 814.925 1.45381 -3.77686 0
M  V30 8675 H 811.68 -0.32915 -4.72455 0
M  V30 8676 H 812.104 -2.40108 -6.32991 0
M  V30 8677 H 816.746 -0.420226 -4.20706 0
M  V30 8678 H 814.464 -3.7571 -7.15449 0
M  V30 8679 H 818.05 -2.1448 -5.40823 0
M  V30 8680 H 816.93 -3.79097 -6.8648 0
M  V30 8681 N 814.433 1.57553 0.0384317 0
M  V30 8682 C 815.363 2.0898 1.04161 0
M  V30 8683 C 816.344 0.99029 1.38301 0
M  V30 8684 O 817.529 1.26499 1.47349 0
M  V30 8685 C 814.659 2.56145 2.34536 0
M  V30 8686 C 813.613 3.70275 2.14663 0
M  V30 8687 C 812.939 4.03612 3.50715 0
M  V30 8688 C 814.239 4.99067 1.54045 0
M  V30 8689 H 815.933 2.93046 0.613548 0
M  V30 8690 H 813.479 1.40973 0.293684 0
M  V30 8691 H 815.432 2.90741 3.05037 0
M  V30 8692 H 814.156 1.6915 2.79385 0
M  V30 8693 H 812.815 3.36013 1.46597 0
M  V30 8694 H 812.463 3.13698 3.93195 0
M  V30 8695 H 812.163 4.80482 3.38247 0
M  V30 8696 H 813.687 4.40735 4.22593 0
M  V30 8697 H 815.101 5.3168 2.14451 0
M  V30 8698 H 813.498 5.80484 1.52178 0
M  V30 8699 H 814.568 4.8226 0.505259 0
M  V30 8700 N 815.911 -0.310526 1.54511 0
M  V30 8701 C 817.139 -1.06611 1.77318 0
M  V30 8702 C 817.554 -1.81265 0.528043 0
M  V30 8703 O 816.911 -1.75466 -0.50178 0
M  V30 8704 C 816.962 -2.05409 2.97472 0
M  V30 8705 O 816.683 -1.33785 4.17173 0
M  V30 8706 C 818.184 -2.93082 3.32593 0
M  V30 8707 H 815.404 -0.316578 0.591624 0
M  V30 8708 H 817.948 -0.352691 2.01436 0
M  V30 8709 H 816.103 -2.72266 2.7559 0
M  V30 8710 H 816.517 -2.00055 4.84849 0
M  V30 8711 H 817.991 -3.58274 4.19933 0
M  V30 8712 H 818.468 -3.60877 2.50329 0
M  V30 8713 H 819.074 -2.31768 3.566 0
M  V30 8714 N 817.389 -1.46805 -0.573248 0
M  V30 8715 C 818.299 -1.60687 -1.70929 0
M  V30 8716 C 819.315 -0.490084 -1.66956 0
M  V30 8717 O 820.491 -0.755482 -1.86693 0
M  V30 8718 C 817.556 -1.60259 -3.07438 0
M  V30 8719 C 816.617 -2.83242 -3.22603 0
M  V30 8720 C 815.85 -2.82825 -4.52599 0
M  V30 8721 O 816.073 -1.92113 -5.37074 0
M  V30 8722 O 815.007 -3.74489 -4.71213 0
M  V30 8723 H 818.833 -2.56782 -1.62163 0
M  V30 8724 H 816.418 -1.29706 -0.741399 0
M  V30 8725 H 818.3 -1.6275 -3.88704 0
M  V30 8726 H 816.975 -0.673268 -3.16621 0
M  V30 8727 H 815.882 -2.86302 -2.40794 0
M  V30 8728 H 817.215 -3.75415 -3.18315 0
M  V30 8729 N 818.867 0.818669 -1.34668 0
M  V30 8730 C 820.113 1.57746 -1.27453 0
M  V30 8731 C 820.446 1.93588 0.154077 0
M  V30 8732 O 819.721 1.60371 1.10051 0
M  V30 8733 C 820.004 2.87414 -2.16945 0
M  V30 8734 C 819.857 2.58125 -3.68363 0
M  V30 8735 C 821.176 3.89021 -2.05792 0
M  V30 8736 H 818.295 0.572339 -0.464324 0
M  V30 8737 H 820.937 0.942784 -1.64959 0
M  V30 8738 H 819.087 3.41576 -1.85089 0
M  V30 8739 H 820.759 2.10239 -4.10606 0
M  V30 8740 H 819.002 1.91503 -3.89242 0
M  V30 8741 H 819.673 3.5061 -4.26353 0
M  V30 8742 H 822.149 3.44224 -2.33771 0
M  V30 8743 H 821.025 4.77548 -2.70628 0
M  V30 8744 H 821.286 4.29786 -1.03618 0
M  V30 8745 N 820.346 1.18468 1.03938 0
M  V30 8746 C 821.278 0.870615 2.12021 0
M  V30 8747 C 822.291 -0.132318 1.62261 0
M  V30 8748 O 823.48 0.0956901 1.78243 0
M  V30 8749 C 820.58 0.279727 3.37744 0
M  V30 8750 C 819.753 1.32863 4.16733 0
M  V30 8751 C 818.812 0.753204 5.20781 0
M  V30 8752 O 817.838 1.42825 5.5099 0
M  V30 8753 N 819.04 -0.448664 5.78764 0
M  V30 8754 H 821.805 1.80091 2.39556 0
M  V30 8755 H 819.366 1.08524 1.20142 0
M  V30 8756 H 821.358 -0.118829 4.04526 0
M  V30 8757 H 819.928 -0.554621 3.07641 0
M  V30 8758 H 819.148 1.90245 3.45254 0
M  V30 8759 H 820.436 2.03574 4.66299 0
M  V30 8760 H 819.834 -1.01481 5.56523 0
M  V30 8761 H 818.391 -0.789125 6.47005 0
M  V30 8762 N 821.824 -1.22873 0.986916 0
M  V30 8763 C 823.101 -1.86939 0.575589 0
M  V30 8764 C 823.481 -1.88656 -0.947205 0
M  V30 8765 O 822.829 -1.3728 -1.82665 0
M  V30 8766 C 823.039 -3.28117 1.18914 0
M  V30 8767 C 824.387 -4.04659 1.28593 0
M  V30 8768 O 825.411 -3.3736 1.14308 0
M  V30 8769 O 824.27 -5.25112 1.51391 0
M  V30 8770 H 821.364 -0.803748 0.194724 0
M  V30 8771 H 823.91 -1.30698 1.08241 0
M  V30 8772 H 822.682 -3.21468 2.231 0
M  V30 8773 H 822.305 -3.91956 0.667535 0
M  V30 8774 N 823.302 -0.75937 -1.38099 0
M  V30 8775 C 824.53 -0.329111 -2.04266 0
M  V30 8776 C 824.945 1.04453 -1.57274 0
M  V30 8777 O 824.302 1.66449 -0.748397 0
M  V30 8778 C 824.353 -0.349192 -3.5981 0
M  V30 8779 O 824.074 -1.66863 -4.05078 0
M  V30 8780 C 825.575 0.0942106 -4.432 0
M  V30 8781 H 822.795 -0.13971 -0.656294 0
M  V30 8782 H 825.339 -1.02984 -1.76677 0
M  V30 8783 H 823.494 0.302846 -3.86214 0
M  V30 8784 H 823.908 -1.59877 -4.9954 0
M  V30 8785 H 825.382 0.0290004 -5.51992 0
M  V30 8786 H 825.859 1.1429 -4.24069 0
M  V30 8787 H 826.465 -0.529171 -4.21995 0
M  V30 8788 N 824.78 1.49157 -0.508906 0
M  V30 8789 C 825.743 2.27784 0.25434 0
M  V30 8790 C 826.743 1.34132 0.88686 0
M  V30 8791 O 827.933 1.5722 0.750168 0
M  V30 8792 C 825.065 3.12347 1.36573 0
M  V30 8793 H 826.258 2.96718 -0.435714 0
M  V30 8794 H 823.811 1.54052 -0.264128 0
M  V30 8795 H 824.546 2.47997 2.08969 0
M  V30 8796 H 824.331 3.81213 0.917543 0
M  V30 8797 H 825.821 3.71712 1.90315 0
M  V30 8798 N 826.258 0.243083 1.55714 0
M  V30 8799 C 827.206 -0.674349 2.2261 0
M  V30 8800 C 828.2 -1.18307 1.21243 0
M  V30 8801 O 829.406 -1.1404 1.39265 0
M  V30 8802 H 825.781 -0.235941 0.714028 0
M  V30 8803 H 827.752 -0.0869446 2.98273 0
M  V30 8804 C 826.501 -1.86206 2.93637 0
M  V30 8805 H 825.824 -1.47975 3.71407 0
M  V30 8806 H 827.264 -2.4813 3.43813 0
M  V30 8807 C 825.723 -2.73084 1.97298 0
M  V30 8808 O 826.253 -3.72497 1.50361 0
M  V30 8809 N 824.459 -2.39571 1.64482 0
M  V30 8810 H 824.006 -1.5878 2.02846 0
M  V30 8811 H 823.964 -2.97976 1.00288 0
M  V30 8812 N 827.736 -1.57571 -0.0300757 0
M  V30 8813 C 828.683 -2.06492 -1.03101 0
M  V30 8814 C 829.653 -0.953862 -1.3598 0
M  V30 8815 O 830.838 -1.22436 -1.46335 0
M  V30 8816 C 827.978 -2.54826 -2.32718 0
M  V30 8817 C 827.091 -3.79718 -2.06006 0
M  V30 8818 C 826.226 -4.16668 -3.29487 0
M  V30 8819 C 825.265 -5.3448 -2.98324 0
M  V30 8820 N 824.402 -5.66867 -4.14254 0
M  V30 8821 H 829.242 -2.91755 -0.606877 0
M  V30 8822 H 826.779 -1.44252 -0.288038 0
M  V30 8823 H 828.737 -2.80916 -3.08451 0
M  V30 8824 H 827.367 -1.72481 -2.72856 0
M  V30 8825 H 826.419 -3.60718 -1.20774 0
M  V30 8826 H 827.731 -4.65569 -1.79017 0
M  V30 8827 H 826.885 -4.43881 -4.13588 0
M  V30 8828 H 825.624 -3.29466 -3.59588 0
M  V30 8829 H 824.629 -5.07021 -2.12625 0
M  V30 8830 H 825.854 -6.23334 -2.69502 0
M  V30 8831 H 823.8 -4.82625 -4.44308 0
M  V30 8832 H 823.717 -6.47226 -3.90685 0
M  V30 8833 H 824.985 -5.98656 -4.99231 0
M  V30 8834 N 829.214 0.302327 -1.54673 0
M  V30 8835 C 830.177 1.35592 -1.8479 0
M  V30 8836 C 831.177 1.43743 -0.72073 0
M  V30 8837 O 832.367 1.43402 -0.989017 0
M  V30 8838 C 829.499 2.74091 -2.02699 0
M  V30 8839 H 830.692 1.10132 -2.78946 0
M  V30 8840 H 828.245 0.538926 -1.46715 0
M  V30 8841 H 828.98 3.04775 -1.10826 0
M  V30 8842 H 828.765 2.69565 -2.8474 0
M  V30 8843 H 830.255 3.50272 -2.27374 0
M  V30 8844 N 830.692 1.47107 0.565454 0
M  V30 8845 C 831.622 1.61846 1.68309 0
M  V30 8846 C 832.603 0.468159 1.63531 0
M  V30 8847 O 833.788 0.696504 1.8128 0
M  V30 8848 C 830.918 1.62474 3.06952 0
M  V30 8849 C 829.872 2.76649 3.26572 0
M  V30 8850 C 829.198 2.62345 4.65917 0
M  V30 8851 C 830.498 4.18319 3.12741 0
M  V30 8852 H 832.192 2.55407 1.5623 0
M  V30 8853 H 829.738 1.22916 0.750179 0
M  V30 8854 H 831.691 1.71378 3.84977 0
M  V30 8855 H 830.415 0.654692 3.19971 0
M  V30 8856 H 829.074 2.67242 2.50952 0
M  V30 8857 H 828.722 1.63386 4.75725 0
M  V30 8858 H 828.422 3.38936 4.79996 0
M  V30 8859 H 829.946 2.73165 5.46089 0
M  V30 8860 H 831.36 4.28745 3.80593 0
M  V30 8861 H 829.757 4.95632 3.38333 0
M  V30 8862 H 830.827 4.37263 2.09592 0
M  V30 8863 N 832.17 -0.811516 1.35101 0
M  V30 8864 C 833.1 -1.9378 1.30275 0
M  V30 8865 C 834.081 -1.69165 0.178075 0
M  V30 8866 O 835.266 -1.90599 0.372256 0
M  V30 8867 C 832.396 -3.30439 1.06899 0
M  V30 8868 C 831.35 -3.69523 2.15955 0
M  V30 8869 C 830.676 -5.0429 1.77751 0
M  V30 8870 C 831.976 -3.80419 3.57881 0
M  V30 8871 H 833.67 -1.98075 2.24514 0
M  V30 8872 H 831.216 -0.951586 1.08078 0
M  V30 8873 H 833.169 -4.08828 1.02164 0
M  V30 8874 H 831.893 -3.26473 0.0910462 0
M  V30 8875 H 830.552 -2.93416 2.19778 0
M  V30 8876 H 830.2 -4.96823 0.785876 0
M  V30 8877 H 829.9 -5.31411 2.5075 0
M  V30 8878 H 831.424 -5.85125 1.74533 0
M  V30 8879 H 832.838 -4.49051 3.56407 0
M  V30 8880 H 831.235 -4.19005 4.29598 0
M  V30 8881 H 832.305 -2.82105 3.94391 0
M  V30 8882 N 833.648 -1.19017 -1.03309 0
M  V30 8883 C 834.611 -0.926076 -2.09658 0
M  V30 8884 C 835.611 0.0917077 -1.60538 0
M  V30 8885 O 836.801 -0.142574 -1.73616 0
M  V30 8886 C 833.933 -0.390958 -3.38651 0
M  V30 8887 H 835.126 -1.86923 -2.3452 0
M  V30 8888 H 832.679 -1.00325 -1.19853 0
M  V30 8889 H 833.414 0.558446 -3.19456 0
M  V30 8890 H 833.199 -1.12474 -3.75622 0
M  V30 8891 H 834.689 -0.225131 -4.16993 0
M  V30 8892 N 835.127 1.22348 -0.993418 0
M  V30 8893 C 836.057 2.26584 -0.564088 0
M  V30 8894 C 837.038 1.65102 0.409298 0
M  V30 8895 O 838.223 1.91872 0.299819 0
M  V30 8896 C 835.353 3.47087 0.121554 0
M  V30 8897 C 834.307 4.21009 -0.770429 0
M  V30 8898 C 833.633 5.34678 0.0481586 0
M  V30 8899 C 834.933 4.79636 -2.06752 0
M  V30 8900 H 836.627 2.62749 -1.43538 0
M  V30 8901 H 834.173 1.26303 -0.691628 0
M  V30 8902 H 836.126 4.19166 0.433303 0
M  V30 8903 H 834.85 3.1002 1.0274 0
M  V30 8904 H 833.509 3.50764 -1.06583 0
M  V30 8905 H 833.157 4.93852 0.954933 0
M  V30 8906 H 832.857 5.85061 -0.545641 0
M  V30 8907 H 834.381 6.09573 0.353991 0
M  V30 8908 H 835.795 5.43654 -1.81969 0
M  V30 8909 H 834.192 5.4036 -2.61019 0
M  V30 8910 H 835.262 3.99659 -2.74592 0
M  V30 8911 N 836.605 0.766683 1.37694 0
M  V30 8912 C 837.852 0.328714 1.99814 0
M  V30 8913 C 838.18 -1.09333 1.60862 0
M  V30 8914 O 837.435 -1.7657 0.8439 0
M  V30 8915 C 837.734 0.413831 3.54996 0
M  V30 8916 C 837.4 1.7934 4.137 0
M  V30 8917 C 836.062 2.17092 4.29447 0
M  V30 8918 C 838.414 2.69776 4.45949 0
M  V30 8919 C 835.742 3.44726 4.74743 0
M  V30 8920 C 838.094 3.96814 4.92667 0
M  V30 8921 C 836.758 4.34618 5.0662 0
M  V30 8922 H 836.028 0.120285 0.731172 0
M  V30 8923 H 838.675 0.97972 1.64541 0
M  V30 8924 H 836.98 -0.320723 3.90485 0
M  V30 8925 H 838.677 0.0563369 4.0096 0
M  V30 8926 H 835.267 1.48997 4.01868 0
M  V30 8927 H 839.451 2.41871 4.33373 0
M  V30 8928 H 834.707 3.73917 4.83731 0
M  V30 8929 H 838.881 4.67022 5.16588 0
M  V30 8930 H 836.508 5.33578 5.41478 0
M  V30 8931 N 838.083 -1.48885 0.516809 0
M  V30 8932 C 839.311 -2.06892 -0.0184017 0
M  V30 8933 C 839.726 -1.37511 -1.29368 0
M  V30 8934 O 839.083 -0.458409 -1.76649 0
M  V30 8935 C 839.134 -3.60566 -0.259673 0
M  V30 8936 O 838.855 -4.27338 0.965065 0
M  V30 8937 C 840.356 -4.35331 -0.836751 0
M  V30 8938 H 837.576 -0.670433 0.0275743 0
M  V30 8939 H 840.12 -1.91455 0.718689 0
M  V30 8940 H 838.275 -3.75653 -0.94678 0
M  V30 8941 H 838.689 -5.19287 0.737647 0
M  V30 8942 H 840.163 -5.43675 -0.955065 0
M  V30 8943 H 840.64 -3.9887 -1.83845 0
M  V30 8944 H 841.246 -4.2489 -0.186622 0
M  V30 8945 N 839.561 -0.251338 -1.55583 0
M  V30 8946 C 840.524 0.63305 -2.20284 0
M  V30 8947 C 841.524 1.09941 -1.17344 0
M  V30 8948 O 842.714 1.00341 -1.42399 0
M  V30 8949 C 839.846 1.8706 -2.84993 0
M  V30 8950 H 841.039 0.0684846 -2.99822 0
M  V30 8951 H 838.592 -0.00181653 -1.563 0
M  V30 8952 H 839.327 2.47629 -2.09405 0
M  V30 8953 H 839.112 1.54436 -3.60405 0
M  V30 8954 H 840.602 2.50004 -3.34496 0
M  V30 8955 N 841.039 1.57585 0.0217189 0
M  V30 8956 C 841.949 2.10444 1.03684 0
M  V30 8957 C 842.965 1.04472 1.39146 0
M  V30 8958 O 844.141 1.36249 1.48317 0
M  V30 8959 C 841.206 2.5794 2.31664 0
M  V30 8960 C 840.267 3.78425 2.02714 0
M  V30 8961 C 839.5 4.23646 3.24592 0
M  V30 8962 O 839.723 3.6834 4.35525 0
M  V30 8963 O 838.657 5.16013 3.09862 0
M  V30 8964 H 842.483 2.97354 0.617584 0
M  V30 8965 H 840.068 1.47473 0.239174 0
M  V30 8966 H 841.95 2.88785 3.06889 0
M  V30 8967 H 840.625 1.74138 2.7287 0
M  V30 8968 H 839.532 3.52587 1.25033 0
M  V30 8969 H 840.865 4.63234 1.66359 0
M  V30 8970 N 842.517 -0.29412 1.54831 0
M  V30 8971 C 843.45 -1.38779 1.81151 0
M  V30 8972 C 844.428 -1.48464 0.663124 0
M  V30 8973 O 845.612 -1.65418 0.903835 0
M  V30 8974 C 842.739 -2.76627 1.95436 0
M  V30 8975 C 841.785 -2.84333 3.17895 0
M  V30 8976 S 842.618 -2.45726 4.75793 0
M  V30 8977 C 843.774 -3.85589 4.93023 0
M  V30 8978 H 844.007 -1.16246 2.73631 0
M  V30 8979 H 841.54 -0.492611 1.46331 0
M  V30 8980 H 843.498 -3.56021 2.04351 0
M  V30 8981 H 842.159 -2.96425 1.03881 0
M  V30 8982 H 841.352 -3.85457 3.24713 0
M  V30 8983 H 840.954 -2.1294 3.07461 0
M  V30 8984 H 843.246 -4.80656 4.77468 0
M  V30 8985 H 844.189 -3.83737 5.95107 0
M  V30 8986 H 844.597 -3.75911 4.21131 0
M  V30 8987 N 843.995 -1.47404 -0.557645 0
M  V30 8988 C 844.925 -1.62736 -1.67449 0
M  V30 8989 C 845.906 -0.476824 -1.6328 0
M  V30 8990 O 847.091 -0.706108 -1.80908 0
M  V30 8991 C 844.221 -1.641 -3.06086 0
M  V30 8992 C 843.175 -2.78377 -3.25101 0
M  V30 8993 C 842.501 -2.64812 -4.6452 0
M  V30 8994 C 843.801 -4.19971 -3.10518 0
M  V30 8995 H 845.495 -2.56232 -1.54873 0
M  V30 8996 H 843.041 -1.23312 -0.743649 0
M  V30 8997 H 844.994 -1.73417 -3.84063 0
M  V30 8998 H 843.718 -0.671652 -3.19619 0
M  V30 8999 H 842.377 -2.6857 -2.49531 0
M  V30 9000 H 842.025 -1.65906 -4.74852 0
M  V30 9001 H 841.725 -3.41477 -4.78191 0
M  V30 9002 H 843.249 -2.76057 -5.44633 0
M  V30 9003 H 844.663 -4.30757 -3.78313 0
M  V30 9004 H 843.06 -4.97419 -3.35699 0
M  V30 9005 H 844.13 -4.38369 -2.0727 0
M  V30 9006 N 845.473 0.80434 -1.35529 0
M  V30 9007 C 846.403 1.93086 -1.31301 0
M  V30 9008 C 847.384 1.69068 -0.187044 0
M  V30 9009 O 848.569 1.90399 -0.382359 0
M  V30 9010 C 845.699 3.29867 -1.0865 0
M  V30 9011 C 844.653 3.68373 -2.17911 0
M  V30 9012 C 843.979 5.0334 -1.80423 0
M  V30 9013 C 845.279 3.78516 -3.59893 0
M  V30 9014 H 846.973 1.96882 -2.25561 0
M  V30 9015 H 844.519 0.945841 -1.08581 0
M  V30 9016 H 846.472 4.08281 -1.04331 0
M  V30 9017 H 845.196 3.2642 -0.108359 0
M  V30 9018 H 843.855 2.92247 -2.21331 0
M  V30 9019 H 843.503 4.96399 -0.812213 0
M  V30 9020 H 843.203 5.30074 -2.53565 0
M  V30 9021 H 844.727 5.84191 -1.77633 0
M  V30 9022 H 846.141 4.47155 -3.58783 0
M  V30 9023 H 844.538 4.16721 -4.31814 0
M  V30 9024 H 845.608 2.8001 -3.95882 0
M  V30 9025 N 846.951 1.19563 1.02676 0
M  V30 9026 C 847.898 0.935291 2.11 0
M  V30 9027 C 848.868 -0.130685 1.65585 0
M  V30 9028 O 850.053 0.0119062 1.90796 0
M  V30 9029 C 847.193 0.482384 3.41712 0
M  V30 9030 C 846.306 1.61537 4.00662 0
M  V30 9031 C 845.441 1.11378 5.19392 0
M  V30 9032 C 844.48 2.22052 5.70403 0
M  V30 9033 N 843.617 1.73185 6.80405 0
M  V30 9034 H 848.457 1.86275 2.32606 0
M  V30 9035 H 845.994 0.928656 1.14081 0
M  V30 9036 H 847.952 0.20118 4.16715 0
M  V30 9037 H 846.582 -0.408086 3.2021 0
M  V30 9038 H 845.634 2.01173 3.22852 0
M  V30 9039 H 846.946 2.44912 4.34534 0
M  V30 9040 H 846.1 0.787935 6.01562 0
M  V30 9041 H 844.839 0.249789 4.8706 0
M  V30 9042 H 843.844 2.55465 4.86845 0
M  V30 9043 H 845.069 3.08911 6.04774 0
M  V30 9044 H 843.015 0.890973 6.49921 0
M  V30 9045 H 842.932 2.50148 7.13416 0
M  V30 9046 H 844.2 1.4357 7.66164 0
M  V30 9047 N 848.429 -1.21819 0.999893 0
M  V30 9048 C 849.362 -2.22635 0.500887 0
M  V30 9049 C 850.34 -1.56459 -0.442636 0
M  V30 9050 O 851.524 -1.84902 -0.366551 0
M  V30 9051 C 848.651 -3.37598 -0.273046 0
M  V30 9052 C 847.697 -4.22006 0.617511 0
M  V30 9053 S 848.53 -4.93583 2.07693 0
M  V30 9054 C 849.686 -6.1198 1.31269 0
M  V30 9055 H 849.919 -2.64618 1.35516 0
M  V30 9056 H 847.452 -1.31606 0.807419 0
M  V30 9057 H 849.41 -4.04251 -0.713515 0
M  V30 9058 H 848.071 -2.94108 -1.10268 0
M  V30 9059 H 847.264 -5.03995 0.0216543 0
M  V30 9060 H 846.866 -3.6052 0.99504 0
M  V30 9061 H 849.158 -6.74979 0.583933 0
M  V30 9062 H 850.101 -6.75991 2.10811 0
M  V30 9063 H 850.509 -5.5847 0.822901 0
M  V30 9064 N 849.908 -0.773975 -1.37286 0
M  V30 9065 C 851.138 -0.350249 -2.03609 0
M  V30 9066 C 851.546 1.03313 -1.58502 0
M  V30 9067 O 850.889 1.67118 -0.7627 0
M  V30 9068 C 850.951 -0.317215 -3.58098 0
M  V30 9069 C 850.615 -1.64556 -4.26345 0
M  V30 9070 C 851.612 -2.59839 -4.50311 0
M  V30 9071 C 849.297 -1.92061 -4.64131 0
M  V30 9072 C 851.291 -3.80833 -5.11122 0
M  V30 9073 C 848.978 -3.13325 -5.24663 0
M  V30 9074 C 849.976 -4.0753 -5.48095 0
M  V30 9075 O 849.664 -5.26658 -6.0736 0
M  V30 9076 H 849.396 -0.144456 -0.660385 0
M  V30 9077 H 851.95 -1.0496 -1.76557 0
M  V30 9078 H 850.18 0.438528 -3.84205 0
M  V30 9079 H 851.869 0.0797428 -4.05822 0
M  V30 9080 H 852.635 -2.39872 -4.21529 0
M  V30 9081 H 848.514 -1.19562 -4.45226 0
M  V30 9082 H 852.058 -4.54377 -5.29327 0
M  V30 9083 H 847.955 -3.33177 -5.52869 0
M  V30 9084 H 848.723 -5.27513 -6.25837 0
M  V30 9085 N 851.386 1.48609 -0.524698 0
M  V30 9086 C 852.611 2.07398 0.00952139 0
M  V30 9087 C 853.036 1.37939 1.27884 0
M  V30 9088 O 852.394 0.443633 1.75788 0
M  V30 9089 C 852.442 3.59916 0.221956 0
M  V30 9090 O 851.546 3.91647 1.29175 0
M  V30 9091 H 850.887 0.662981 -0.0367729 0
M  V30 9092 H 853.417 1.91092 -0.7311 0
M  V30 9093 H 853.427 4.05552 0.446236 0
M  V30 9094 H 852.102 4.09876 -0.705306 0
M  V30 9095 H 850.679 3.57796 1.05055 0
M  V30 9096 N 852.864 0.259585 1.55447 0
M  V30 9097 C 853.794 -0.62852 2.24882 0
M  V30 9098 C 854.775 -1.17128 1.23349 0
M  V30 9099 O 855.96 -1.20829 1.52033 0
M  V30 9100 C 853.09 -1.81983 2.95803 0
M  V30 9101 C 852.044 -1.40929 4.04132 0
M  V30 9102 C 851.37 -2.68246 4.62545 0
M  V30 9103 C 852.67 -0.570956 5.1917 0
M  V30 9104 H 854.364 -0.0495021 2.99359 0
M  V30 9105 H 851.91 -0.0223688 1.43983 0
M  V30 9106 H 853.863 -2.44689 3.43082 0
M  V30 9107 H 852.587 -2.42444 2.18835 0
M  V30 9108 H 851.246 -0.805519 3.57641 0
M  V30 9109 H 850.894 -3.26931 3.82263 0
M  V30 9110 H 850.594 -2.41495 5.35681 0
M  V30 9111 H 852.118 -3.31827 5.12565 0
M  V30 9112 H 853.532 -1.10262 5.62597 0
M  V30 9113 H 851.929 -0.398979 5.98772 0
M  V30 9114 H 852.999 0.413918 4.8313 0
M  V30 9115 N 854.342 -1.57594 -0.0133615 0
M  V30 9116 C 855.59 -1.89605 -0.699596 0
M  V30 9117 C 855.911 -0.85926 -1.75048 0
M  V30 9118 O 855.181 0.105112 -1.95618 0
M  V30 9119 H 853.761 -0.699776 -0.261385 0
M  V30 9120 H 856.423 -1.94885 0.0244044 0
M  V30 9121 H 855.519 -2.88962 -1.17928 0
M  V30 9122 N 855.82 0.285905 -1.54985 0
M  V30 9123 C 856.75 1.35752 -1.89983 0
M  V30 9124 C 857.731 1.52163 -0.760295 0
M  V30 9125 O 858.916 1.65421 -1.01733 0
M  V30 9126 C 856.046 2.71925 -2.16042 0
M  V30 9127 C 855 2.70261 -3.31878 0
M  V30 9128 C 854.326 4.09864 -3.43388 0
M  V30 9129 C 855.626 2.30667 -4.68604 0
M  V30 9130 H 857.32 1.06709 -2.79738 0
M  V30 9131 H 854.866 0.511884 -1.34595 0
M  V30 9132 H 856.819 3.46992 -2.39113 0
M  V30 9133 H 855.543 3.02523 -1.23074 0
M  V30 9134 H 854.202 1.97651 -3.08755 0
M  V30 9135 H 853.85 4.37664 -2.47909 0
M  V30 9136 H 853.55 4.09648 -4.21262 0
M  V30 9137 H 855.074 4.86689 -3.68736 0
M  V30 9138 H 856.488 2.95453 -4.91305 0
M  V30 9139 H 854.885 2.41637 -5.49301 0
M  V30 9140 H 855.955 1.25793 -4.68299 0
M  V30 9141 N 857.298 1.47698 0.54982 0
M  V30 9142 C 858.23 1.56806 1.67166 0
M  V30 9143 C 859.243 0.453709 1.5635 0
M  V30 9144 O 860.432 0.723663 1.63173 0
M  V30 9145 C 857.532 1.4632 3.05686 0
M  V30 9146 C 856.705 2.72452 3.42182 0
M  V30 9147 C 855.764 2.55698 4.59897 0
M  V30 9148 O 854.79 3.29534 4.64108 0
M  V30 9149 N 855.992 1.64009 5.56849 0
M  V30 9150 H 858.757 2.53545 1.59797 0
M  V30 9151 H 856.318 1.44171 0.736635 0
M  V30 9152 H 858.31 1.32835 3.82279 0
M  V30 9153 H 856.88 0.57634 3.07241 0
M  V30 9154 H 856.1 3.00644 2.54964 0
M  V30 9155 H 857.388 3.56172 3.63344 0
M  V30 9156 H 856.786 1.03186 5.5621 0
M  V30 9157 H 855.343 1.56473 6.3274 0
M  V30 9158 N 858.776 -0.797141 1.35954 0
M  V30 9159 C 859.739 -1.89104 1.29508 0
M  V30 9160 C 860.739 -1.59495 0.204444 0
M  V30 9161 O 861.929 -1.68051 0.458746 0
M  V30 9162 C 859.061 -3.25726 1.00576 0
M  V30 9163 H 860.254 -1.96237 2.26785 0
M  V30 9164 H 857.807 -0.994075 1.20614 0
M  V30 9165 H 858.542 -3.24279 0.0372519 0
M  V30 9166 H 858.327 -3.48604 1.79492 0
M  V30 9167 H 859.817 -4.0578 0.986508 0
M  V30 9168 N 860.254 -1.20106 -1.0204 0
M  V30 9169 C 861.484 -1.0329 -1.78927 0
M  V30 9170 C 861.892 0.421115 -1.84454 0
M  V30 9171 O 861.235 1.30422 -1.29367 0
M  V30 9172 C 861.297 -1.53627 -3.25021 0
M  V30 9173 C 860.961 -3.01869 -3.4311 0
M  V30 9174 C 861.958 -3.9956 -3.32638 0
M  V30 9175 C 859.643 -3.40746 -3.6905 0
M  V30 9176 C 861.637 -5.34119 -3.47844 0
M  V30 9177 C 859.324 -4.75462 -3.839 0
M  V30 9178 C 860.322 -5.71957 -3.73302 0
M  V30 9179 O 860.01 -7.04231 -3.87703 0
M  V30 9180 H 859.742 -0.363962 -0.569656 0
M  V30 9181 H 862.296 -1.59551 -1.29354 0
M  V30 9182 H 860.526 -0.917481 -3.75658 0
M  V30 9183 H 862.215 -1.32889 -3.8353 0
M  V30 9184 H 862.981 -3.70869 -3.12539 0
M  V30 9185 H 858.86 -2.66182 -3.76388 0
M  V30 9186 H 862.404 -6.09421 -3.39488 0
M  V30 9187 H 858.301 -5.03844 -4.03499 0
M  V30 9188 H 859.069 -7.11425 -4.04744 0
M  V30 9189 N 861.732 1.21287 -1.00634 0
M  V30 9190 C 862.979 1.90389 -0.6898 0
M  V30 9191 C 863.307 1.78193 0.779574 0
M  V30 9192 O 862.562 1.15358 1.58085 0
M  V30 9193 C 862.861 3.41374 -1.05824 0
M  V30 9194 C 862.527 3.73766 -2.5221 0
M  V30 9195 C 861.189 3.82317 -2.92211 0
M  V30 9196 C 863.541 3.88871 -3.47028 0
M  V30 9197 C 860.869 4.03423 -4.2599 0
M  V30 9198 C 863.221 4.11484 -4.80483 0
M  V30 9199 C 861.885 4.18263 -5.20204 0
M  V30 9200 H 861.155 0.696683 -0.252416 0
M  V30 9201 H 863.802 1.43769 -1.26502 0
M  V30 9202 H 862.107 3.8974 -0.401281 0
M  V30 9203 H 863.804 3.93118 -0.79116 0
M  V30 9204 H 860.394 3.67702 -2.20212 0
M  V30 9205 H 864.578 3.8163 -3.17289 0
M  V30 9206 H 859.834 4.06902 -4.56334 0
M  V30 9207 H 864.008 4.22115 -5.53888 0
M  V30 9208 H 861.635 4.34369 -6.23881 0
M  V30 9209 N 863.21 0.781244 1.36873 0
M  V30 9210 C 864.456 0.350407 1.9975 0
M  V30 9211 C 864.789 -1.07293 1.6187 0
M  V30 9212 O 864.064 -1.73983 0.869491 0
M  V30 9213 C 864.347 0.504834 3.56544 0
M  V30 9214 C 864.2 1.97127 4.04303 0
M  V30 9215 C 865.519 -0.0851272 4.40018 0
M  V30 9216 H 862.638 0.128794 0.725659 0
M  V30 9217 H 865.28 0.98606 1.6241 0
M  V30 9218 H 863.43 -0.0363006 3.88483 0
M  V30 9219 H 865.102 2.57284 3.82887 0
M  V30 9220 H 863.345 2.47676 3.56145 0
M  V30 9221 H 864.016 2.03033 5.13305 0
M  V30 9222 H 866.492 0.376704 4.14391 0
M  V30 9223 H 865.368 0.0530015 5.48874 0
M  V30 9224 H 865.629 -1.17642 4.2616 0
M  V30 9225 N 864.689 -1.48329 0.532571 0
M  V30 9226 C 865.914 -2.074 0.00147755 0
M  V30 9227 C 866.339 -1.38615 -1.27151 0
M  V30 9228 O 865.697 -0.452949 -1.75551 0
M  V30 9229 C 865.745 -3.60029 -0.202866 0
M  V30 9230 O 864.849 -3.92327 -1.27097 0
M  V30 9231 H 864.19 -0.662777 0.0402883 0
M  V30 9232 H 866.72 -1.90701 0.741224 0
M  V30 9233 H 866.73 -4.05783 -0.424722 0
M  V30 9234 H 865.405 -4.09496 0.727033 0
M  V30 9235 H 863.982 -3.58348 -1.03156 0
M  V30 9236 N 866.167 -0.267825 -1.55308 0
M  V30 9237 C 867.097 0.616585 -2.25212 0
M  V30 9238 C 868.078 1.16472 -1.23969 0
M  V30 9239 O 869.263 1.20021 -1.52672 0
M  V30 9240 C 866.393 1.80412 -2.96764 0
M  V30 9241 C 865.347 1.38784 -4.04874 0
M  V30 9242 C 864.673 2.65789 -4.63961 0
M  V30 9243 C 865.973 0.543415 -5.19465 0
M  V30 9244 H 867.667 0.0336257 -2.99381 0
M  V30 9245 H 865.213 0.0147328 -1.43992 0
M  V30 9246 H 867.166 2.42866 -3.44375 0
M  V30 9247 H 865.89 2.4128 -2.20118 0
M  V30 9248 H 864.549 0.786541 -3.58063 0
M  V30 9249 H 864.197 3.24899 -3.83992 0
M  V30 9250 H 863.897 2.38651 -5.36954 0
M  V30 9251 H 865.421 3.29104 -5.14318 0
M  V30 9252 H 866.835 1.07277 -5.63174 0
M  V30 9253 H 865.232 0.367219 -5.98975 0
M  V30 9254 H 866.302 -0.439534 -4.82904 0
M  V30 9255 N 867.645 1.57599 0.00500368 0
M  V30 9256 C 868.892 1.90349 0.690895 0
M  V30 9257 C 869.22 0.868045 1.74055 0
M  V30 9258 O 868.475 -0.127855 1.95282 0
M  V30 9259 C 868.774 3.29855 1.37588 0
M  V30 9260 C 868.44 4.48548 0.459906 0
M  V30 9261 C 867.102 4.80752 0.207693 0
M  V30 9262 C 869.454 5.20919 -0.171054 0
M  V30 9263 C 866.782 5.82701 -0.683855 0
M  V30 9264 C 869.134 6.23818 -1.05045 0
M  V30 9265 C 867.798 6.54481 -1.31189 0
M  V30 9266 H 867.068 0.696538 0.252816 0
M  V30 9267 H 869.715 1.91436 -0.0494495 0
M  V30 9268 H 868.02 3.24869 2.19015 0
M  V30 9269 H 869.717 3.52452 1.91255 0
M  V30 9270 H 866.307 4.23384 0.666648 0
M  V30 9271 H 870.491 4.96299 0.0107942 0
M  V30 9272 H 865.747 6.04822 -0.894467 0
M  V30 9273 H 869.921 6.79029 -1.54574 0
M  V30 9274 H 867.548 7.33299 -2.00442 0
M  V30 9275 N 869.123 -0.277682 1.55134 0
M  V30 9276 C 870.071 -1.36305 1.88478 0
M  V30 9277 C 871.065 -1.51362 0.760654 0
M  V30 9278 O 872.271 -1.53202 0.944943 0
M  V30 9279 H 868.646 -0.45577 0.598146 0
M  V30 9280 H 870.617 -1.05431 2.79154 0
M  V30 9281 C 869.366 -2.71739 2.16918 0
M  V30 9282 H 868.689 -2.60942 3.02901 0
M  V30 9283 H 870.129 -3.46635 2.44172 0
M  V30 9284 C 868.588 -3.22476 0.975239 0
M  V30 9285 O 869.118 -4.01164 0.207497 0
M  V30 9286 N 867.324 -2.80097 0.774219 0
M  V30 9287 H 866.871 -2.16221 1.40022 0
M  V30 9288 H 866.829 -3.14392 -0.023021 0
M  V30 9289 N 870.601 -1.47988 -0.541979 0
M  V30 9290 C 872.017 -1.33843 -0.869383 0
M  V30 9291 C 872.217 -0.340374 -1.98604 0
M  V30 9292 O 871.273 0.242696 -2.51331 0
M  V30 9293 C 872.586 -2.73568 -1.24823 0
M  V30 9294 C 874.134 -2.81967 -1.3588 0
M  V30 9295 C 874.609 -4.22368 -1.77114 0
M  V30 9296 N 876.1 -4.24983 -1.84237 0
M  V30 9297 C 876.835 -5.30547 -2.17503 0
M  V30 9298 N 876.331 -6.46401 -2.49275 0
M  V30 9299 N 878.124 -5.17933 -2.18406 0
M  V30 9300 H 870.275 -2.11503 0.195001 0
M  V30 9301 H 872.538 -0.947681 0.0245862 0
M  V30 9302 H 872.244 -3.48107 -0.501435 0
M  V30 9303 H 872.118 -3.06322 -2.20106 0
M  V30 9304 H 874.505 -2.07692 -2.09638 0
M  V30 9305 H 874.586 -2.52848 -0.387478 0
M  V30 9306 H 874.23 -4.97155 -1.0392 0
M  V30 9307 H 874.16 -4.48922 -2.75275 0
M  V30 9308 H 876.651 -3.41411 -1.62009 0
M  V30 9309 H 876.964 -7.22698 -2.73729 0
M  V30 9310 H 875.309 -6.49696 -2.46821 0
M  V30 9311 H 878.5 -4.26445 -1.93034 0
M  V30 9312 H 878.673 -6.00307 -2.44 0
M  V30 9313 N 872.079 0.78992 -1.36375 0
M  V30 9314 C 873.326 1.54777 -1.30576 0
M  V30 9315 C 873.654 1.94159 0.115095 0
M  V30 9316 O 872.909 1.62918 1.08426 0
M  V30 9317 C 873.208 2.83698 -2.17371 0
M  V30 9318 C 872.874 2.63457 -3.65925 0
M  V30 9319 C 871.536 2.57645 -4.06415 0
M  V30 9320 C 873.888 2.44833 -4.60115 0
M  V30 9321 C 871.216 2.31174 -5.39236 0
M  V30 9322 C 873.568 2.19889 -5.93154 0
M  V30 9323 C 872.232 2.1251 -6.32768 0
M  V30 9324 H 871.502 0.566371 -0.477813 0
M  V30 9325 H 874.149 0.91138 -1.68422 0
M  V30 9326 H 872.454 3.51802 -1.72459 0
M  V30 9327 H 874.151 3.41487 -2.10209 0
M  V30 9328 H 870.741 2.68836 -3.33804 0
M  V30 9329 H 874.925 2.48325 -4.29707 0
M  V30 9330 H 870.181 2.23942 -5.68911 0
M  V30 9331 H 874.355 2.04473 -6.65705 0
M  V30 9332 H 871.982 1.91761 -7.35616 0
M  V30 9333 N 873.557 1.20646 1.01402 0
M  V30 9334 C 874.834 0.927176 1.72229 0
M  V30 9335 C 875.214 -0.563382 2.03443 0
M  V30 9336 O 874.562 -1.52576 1.70096 0
M  V30 9337 C 874.772 1.80285 2.98828 0
M  V30 9338 C 876.12 2.04624 3.72041 0
M  V30 9339 O 877.144 1.77559 3.0879 0
M  V30 9340 O 876.003 2.50347 4.85787 0
M  V30 9341 H 873.097 0.346891 0.75073 0
M  V30 9342 H 875.643 1.31532 1.07227 0
M  V30 9343 H 874.415 2.81204 2.72102 0
M  V30 9344 H 874.038 1.41495 3.71571 0
M  V30 9345 N 875.035 -1.20752 1.01276 0
M  V30 9346 C 876.275 -1.91733 0.708372 0
M  V30 9347 C 876.639 -1.76836 -0.747855 0
M  V30 9348 O 877.84 -2.42262 -1.16458 0
M  V30 9349 C 876.111 -3.39155 1.12732 0
M  V30 9350 S 877.67 -4.28518 0.944325 0
M  V30 9351 H 874.488 -0.662394 0.25837 0
M  V30 9352 H 877.09 -1.46085 1.29921 0
M  V30 9353 H 875.794 -3.47516 2.18313 0
M  V30 9354 H 875.325 -3.89826 0.5291 0
M  V30 9355 H 877.34 -4.9596 -0.154278 0
M  V30 9356 N 876.513 -0.788492 -1.36457 0
M  V30 9357 C 877.76 -0.360461 -1.99266 0
M  V30 9358 C 878.088 1.0676 -1.62581 0
M  V30 9359 O 877.343 1.75205 -0.871884 0
M  V30 9360 C 877.642 -0.470255 -3.54293 0
M  V30 9361 C 877.308 -1.85899 -4.10795 0
M  V30 9362 C 875.97 -2.23896 -4.25939 0
M  V30 9363 C 878.322 -2.76836 -4.41601 0
M  V30 9364 C 875.65 -3.52235 -4.69199 0
M  V30 9365 C 878.002 -4.04602 -4.86292 0
M  V30 9366 C 876.666 -4.42623 -4.99641 0
M  V30 9367 H 875.936 -0.131902 -0.729166 0
M  V30 9368 H 878.583 -1.00577 -1.62962 0
M  V30 9369 H 876.888 0.258559 -3.90946 0
M  V30 9370 H 878.585 -0.120119 -4.0082 0
M  V30 9371 H 875.175 -1.55372 -3.99447 0
M  V30 9372 H 879.359 -2.48735 -4.2947 0
M  V30 9373 H 874.615 -3.81565 -4.77722 0
M  V30 9374 H 878.789 -4.75182 -5.09092 0
M  V30 9375 H 876.416 -5.42125 -5.32921 0
M  V30 9376 N 877.991 1.48044 -0.54043 0
M  V30 9377 C 879.237 2.02797 -0.0101718 0
M  V30 9378 C 879.57 1.41565 1.32939 0
M  V30 9379 O 878.845 0.565139 1.86109 0
M  V30 9380 C 879.128 3.59959 0.100758 0
M  V30 9381 C 878.981 4.31654 -1.26471 0
M  V30 9382 C 880.3 4.32347 0.822455 0
M  V30 9383 H 877.419 0.736982 -0.00517052 0
M  V30 9384 H 880.061 1.76656 -0.69948 0
M  V30 9385 H 878.211 3.82363 0.687824 0
M  V30 9386 H 879.883 4.20639 -1.89369 0
M  V30 9387 H 878.126 3.92663 -1.84386 0
M  V30 9388 H 878.797 5.401 -1.13998 0
M  V30 9389 H 881.273 4.14835 0.324164 0
M  V30 9390 H 880.149 5.41978 0.868993 0
M  V30 9391 H 880.41 4.00369 1.87501 0
M  V30 9392 N 879.47 0.276058 1.55163 0
M  V30 9393 C 880.716 -0.340959 1.99913 0
M  V30 9394 C 881.049 -1.55434 1.16422 0
M  V30 9395 O 880.324 -1.93081 0.234517 0
M  V30 9396 C 880.607 -0.722211 3.52783 0
M  V30 9397 C 880.46 0.498575 4.47028 0
M  V30 9398 C 881.779 -1.5583 4.11589 0
M  V30 9399 H 878.898 -0.122455 0.726756 0
M  V30 9400 H 881.54 0.38319 1.86096 0
M  V30 9401 H 879.69 -1.33919 3.64689 0
M  V30 9402 H 881.362 1.13713 4.47065 0
M  V30 9403 H 879.605 1.13646 4.18649 0
M  V30 9404 H 880.276 0.188041 5.5168 0
M  V30 9405 H 882.752 -1.03722 4.02965 0
M  V30 9406 H 881.628 -1.79387 5.1876 0
M  V30 9407 H 881.889 -2.53963 3.61877 0
M  V30 9408 N 880.948 -1.576 0.00335426 0
M  V30 9409 C 882.188 -1.92571 -0.685253 0
M  V30 9410 C 882.552 -0.877961 -1.70751 0
M  V30 9411 O 883.753 -1.11303 -2.44673 0
M  V30 9412 C 882.024 -3.3258 -1.30863 0
M  V30 9413 S 883.583 -3.89442 -2.02189 0
M  V30 9414 H 880.401 -0.674035 -0.226268 0
M  V30 9415 H 883.003 -1.95405 0.0608461 0
M  V30 9416 H 881.707 -4.06673 -0.551837 0
M  V30 9417 H 881.238 -3.33128 -2.09259 0
M  V30 9418 H 883.253 -3.70789 -3.29742 0
M  V30 9419 N 882.426 0.269451 -1.5528 0
M  V30 9420 C 883.674 0.998604 -1.75705 0
M  V30 9421 C 883.995 1.86691 -0.563175 0
M  V30 9422 O 883.265 1.91305 0.421811 0
M  V30 9423 H 881.845 0.371698 -0.647958 0
M  V30 9424 H 884.507 0.292826 -1.92688 0
M  V30 9425 H 883.603 1.63348 -2.6594 0
M  V30 9426 N 883.904 1.48273 0.534124 0
M  V30 9427 C 885.152 1.55771 1.28762 0
M  V30 9428 C 885.473 0.231575 1.9362 0
M  V30 9429 O 884.743 -0.746533 1.81118 0
M  V30 9430 H 883.323 0.573851 0.47823 0
M  V30 9431 H 885.985 1.84712 0.621888 0
M  V30 9432 H 885.081 2.33657 2.06908 0
M  V30 9433 N 885.382 -0.782676 1.36792 0
M  V30 9434 C 886.631 -1.53605 1.30723 0
M  V30 9435 C 886.944 -1.95294 -0.109296 0
M  V30 9436 O 888.15 -2.69921 -0.292398 0
M  V30 9437 C 886.606 -2.77321 2.29393 0
M  V30 9438 C 886.214 -2.42774 3.76517 0
M  V30 9439 C 887.958 -3.55289 2.32314 0
M  V30 9440 C 885.865 -3.62926 4.66947 0
M  V30 9441 H 884.795 -0.576646 0.485794 0
M  V30 9442 H 887.446 -0.858255 1.62192 0
M  V30 9443 H 885.828 -3.46934 1.90927 0
M  V30 9444 H 887.002 -1.81014 4.23758 0
M  V30 9445 H 885.317 -1.78002 3.76436 0
M  V30 9446 H 887.914 -4.44573 2.97083 0
M  V30 9447 H 888.257 -3.94361 1.3336 0
M  V30 9448 H 888.79 -2.92662 2.69432 0
M  V30 9449 H 885.529 -3.28944 5.66989 0
M  V30 9450 H 885.049 -4.23828 4.24418 0
M  V30 9451 H 886.728 -4.29873 4.83548 0
M  V30 9452 N 886.86 -1.21182 -1.00761 0
M  V30 9453 C 887.79 -0.992773 -2.11344 0
M  V30 9454 C 888.771 0.0813618 -1.69905 0
M  V30 9455 O 889.956 -0.0779503 -1.94043 0
M  V30 9456 C 887.086 -0.553826 -3.42856 0
M  V30 9457 C 886.04 -1.57223 -3.98077 0
M  V30 9458 C 885.366 -0.989605 -5.25463 0
M  V30 9459 C 886.666 -2.95839 -4.30438 0
M  V30 9460 H 888.36 -1.91766 -2.29927 0
M  V30 9461 H 885.906 -0.923426 -1.10494 0
M  V30 9462 H 887.859 -0.387771 -4.19612 0
M  V30 9463 H 886.583 0.406702 -3.24058 0
M  V30 9464 H 885.242 -1.7258 -3.23437 0
M  V30 9465 H 884.89 -0.0208743 -5.02996 0
M  V30 9466 H 884.59 -1.66984 -5.63374 0
M  V30 9467 H 886.114 -0.834815 -6.04866 0
M  V30 9468 H 887.528 -2.8394 -4.98047 0
M  V30 9469 H 885.925 -3.60851 -4.79486 0
M  V30 9470 H 886.995 -3.46882 -3.38823 0
M  V30 9471 N 888.338 1.20213 -1.01915 0
M  V30 9472 C 889.248 2.26763 -0.601311 0
M  V30 9473 C 890.264 1.70185 0.362369 0
M  V30 9474 O 891.44 2.00165 0.222682 0
M  V30 9475 C 888.505 3.46662 0.0512879 0
M  V30 9476 C 887.566 4.18459 -0.958659 0
M  V30 9477 C 886.799 5.32634 -0.337107 0
M  V30 9478 O 887.022 5.63841 0.86251 0
M  V30 9479 O 885.956 5.9258 -1.05511 0
M  V30 9480 H 889.782 2.64725 -1.48844 0
M  V30 9481 H 887.367 1.2688 -0.788784 0
M  V30 9482 H 889.249 4.19345 0.41564 0
M  V30 9483 H 887.924 3.1057 0.912572 0
M  V30 9484 H 886.831 3.47937 -1.37442 0
M  V30 9485 H 888.164 4.58498 -1.78999 0
M  V30 9486 N 889.816 0.795718 1.36037 0
M  V30 9487 C 891.044 0.383153 2.03321 0
M  V30 9488 C 891.459 -1.00246 1.59988 0
M  V30 9489 O 890.816 -1.64406 0.792265 0
M  V30 9490 C 890.867 0.444467 3.58757 0
M  V30 9491 O 890.588 1.77544 4.00512 0
M  V30 9492 C 892.089 0.0233291 4.43294 0
M  V30 9493 H 889.309 0.157061 0.652359 0
M  V30 9494 H 891.853 1.07632 1.73884 0
M  V30 9495 H 890.008 -0.200341 3.86882 0
M  V30 9496 H 890.422 1.73065 4.95125 0
M  V30 9497 H 891.896 0.117361 5.51875 0
M  V30 9498 H 892.373 -1.03007 4.2695 0
M  V30 9499 H 892.979 0.64087 4.20444 0
M  V30 9500 N 891.294 -1.47756 0.548274 0
M  V30 9501 C 892.543 -2.01691 0.0187961 0
M  V30 9502 C 892.856 -1.42894 -1.33569 0
M  V30 9503 O 894.062 -1.88438 -1.95457 0
M  V30 9504 C 892.518 -3.59896 -0.016847 0
M  V30 9505 C 892.126 -4.27683 1.33385 0
M  V30 9506 C 893.87 -4.21614 -0.494188 0
M  V30 9507 C 891.777 -5.7787 1.2578 0
M  V30 9508 H 890.707 -0.753993 0.00325648 0
M  V30 9509 H 893.358 -1.69838 0.694792 0
M  V30 9510 H 891.74 -3.88672 -0.758304 0
M  V30 9511 H 892.914 -4.10559 2.09232 0
M  V30 9512 H 891.229 -3.77915 1.7484 0
M  V30 9513 H 893.826 -5.3166 -0.569342 0
M  V30 9514 H 894.169 -3.88176 -1.50417 0
M  V30 9515 H 894.702 -3.97336 0.192138 0
M  V30 9516 H 891.441 -6.15912 2.2435 0
M  V30 9517 H 890.961 -5.97355 0.540997 0
M  V30 9518 H 892.64 -6.39897 0.956109 0
M  V30 9519 N 892.772 -0.284283 -1.55015 0
M  V30 9520 C 893.702 0.592663 -2.25853 0
M  V30 9521 C 894.683 1.15151 -1.25197 0
M  V30 9522 O 895.868 1.18395 -1.53936 0
M  V30 9523 C 892.998 1.77254 -2.98661 0
M  V30 9524 C 891.952 1.34482 -4.06323 0
M  V30 9525 C 891.278 2.60853 -4.66754 0
M  V30 9526 C 892.578 0.488288 -5.20013 0
M  V30 9527 H 894.272 0.00187041 -2.994 0
M  V30 9528 H 891.818 -0.000540402 -1.44 0
M  V30 9529 H 893.771 2.39199 -3.46932 0
M  V30 9530 H 892.495 2.38931 -2.22664 0
M  V30 9531 H 891.154 0.748519 -3.58877 0
M  V30 9532 H 890.802 3.20808 -3.87416 0
M  V30 9533 H 890.502 2.32942 -5.39455 0
M  V30 9534 H 892.026 3.23631 -5.1778 0
M  V30 9535 H 893.44 1.01298 -5.6428 0
M  V30 9536 H 891.837 0.303669 -5.99331 0
M  V30 9537 H 892.907 -0.490727 -4.8241 0
M  V30 9538 N 894.251 1.57596 -0.0117121 0
M  V30 9539 C 895.497 1.91355 0.671661 0
M  V30 9540 C 895.83 0.886818 1.72769 0
M  V30 9541 O 895.105 -0.0928813 1.94278 0
M  V30 9542 C 895.388 3.35657 1.30409 0
M  V30 9543 C 895.241 4.49055 0.2588 0
M  V30 9544 C 896.56 3.79595 2.22701 0
M  V30 9545 H 893.679 0.695893 0.242698 0
M  V30 9546 H 896.321 1.89887 -0.0654071 0
M  V30 9547 H 894.471 3.37038 1.9323 0
M  V30 9548 H 896.143 4.59809 -0.370631 0
M  V30 9549 H 894.386 4.31785 -0.417672 0
M  V30 9550 H 895.057 5.4701 0.740578 0
M  V30 9551 H 897.533 3.7984 1.69885 0
M  V30 9552 H 896.409 4.81292 2.63912 0
M  V30 9553 H 896.67 3.14118 3.11098 0
M  V30 9554 N 895.729 -0.261212 1.5542 0
M  V30 9555 C 896.639 -1.34493 1.92221 0
M  V30 9556 C 897.655 -1.53421 0.82086 0
M  V30 9557 O 898.831 -1.6732 1.12099 0
M  V30 9558 C 895.896 -2.68209 2.19692 0
M  V30 9559 C 894.957 -2.57927 3.43179 0
M  V30 9560 C 894.19 -3.85266 3.69331 0
M  V30 9561 O 894.413 -4.86493 2.97793 0
M  V30 9562 O 893.347 -3.8476 4.62865 0
M  V30 9563 H 897.173 -1.06278 2.84497 0
M  V30 9564 H 894.758 -0.460752 1.42118 0
M  V30 9565 H 896.64 -3.47252 2.38734 0
M  V30 9566 H 895.315 -2.96186 1.30597 0
M  V30 9567 H 894.222 -1.77219 3.2946 0
M  V30 9568 H 895.555 -2.34898 4.32532 0
M  V30 9569 N 897.207 -1.48554 -0.526253 0
M  V30 9570 C 898.435 -1.60429 -1.30652 0
M  V30 9571 C 898.85 -0.265963 -1.86917 0
M  V30 9572 O 898.207 0.745262 -1.6659 0
M  V30 9573 C 898.258 -2.65377 -2.45473 0
M  V30 9574 O 897.979 -3.94017 -1.91527 0
M  V30 9575 C 899.48 -2.87726 -3.37237 0
M  V30 9576 H 896.7 -0.540817 -0.397187 0
M  V30 9577 H 899.244 -1.94409 -0.634461 0
M  V30 9578 H 897.399 -2.34246 -3.08557 0
M  V30 9579 H 897.813 -4.51623 -2.66715 0
M  V30 9580 H 899.287 -3.64951 -4.14144 0
M  V30 9581 H 899.764 -1.96688 -3.92696 0
M  V30 9582 H 900.37 -3.20176 -2.79942 0
M  V30 9583 N 898.685 0.775411 -1.37205 0
M  V30 9584 C 899.632 1.88857 -1.32671 0
M  V30 9585 C 900.602 1.64976 -0.192899 0
M  V30 9586 O 901.787 1.86944 -0.381673 0
M  V30 9587 C 898.927 3.25871 -1.13588 0
M  V30 9588 C 898.04 3.61731 -2.36167 0
M  V30 9589 C 897.175 4.87934 -2.09985 0
M  V30 9590 C 896.214 5.16514 -3.2845 0
M  V30 9591 N 895.351 6.33905 -3.01842 0
M  V30 9592 H 900.191 1.92068 -2.27846 0
M  V30 9593 H 897.728 0.939066 -1.13225 0
M  V30 9594 H 899.686 4.04903 -1.00546 0
M  V30 9595 H 898.316 3.22045 -0.220613 0
M  V30 9596 H 897.368 2.77712 -2.59962 0
M  V30 9597 H 898.68 3.78792 -3.24528 0
M  V30 9598 H 897.834 5.74863 -1.93953 0
M  V30 9599 H 896.573 4.7297 -1.18956 0
M  V30 9600 H 895.578 4.28063 -3.45025 0
M  V30 9601 H 896.803 5.33389 -4.20325 0
M  V30 9602 H 894.749 6.20306 -2.13439 0
M  V30 9603 H 894.666 6.51364 -3.83746 0
M  V30 9604 H 895.934 7.23779 -2.8942 0
M  V30 9605 N 900.163 1.21714 1.00117 0
M  V30 9606 C 901.412 1.03087 1.73367 0
M  V30 9607 C 901.725 -0.435532 1.90689 0
M  V30 9608 O 902.931 -0.741291 2.61184 0
M  V30 9609 C 901.387 1.79593 3.11888 0
M  V30 9610 C 900.995 3.30428 3.02525 0
M  V30 9611 C 902.739 1.69386 3.89241 0
M  V30 9612 C 900.646 3.99408 4.3615 0
M  V30 9613 H 899.576 0.382117 0.650002 0
M  V30 9614 H 902.227 1.45486 1.11831 0
M  V30 9615 H 900.609 1.29988 3.74058 0
M  V30 9616 H 901.783 3.87364 2.49571 0
M  V30 9617 H 900.098 3.4122 2.38659 0
M  V30 9618 H 902.695 2.18251 4.8813 0
M  V30 9619 H 903.038 0.652773 4.1115 0
M  V30 9620 H 903.571 2.16489 3.33733 0
M  V30 9621 H 900.31 5.03735 4.19442 0
M  V30 9622 H 899.83 3.47261 4.8905 0
M  V30 9623 H 901.509 4.04537 5.04934 0
M  V30 9624 N 901.641 -1.19671 1.02551 0
M  V30 9625 C 902.574 -2.21522 0.547998 0
M  V30 9626 C 903.552 -1.57363 -0.409349 0
M  V30 9627 O 904.736 -1.85638 -0.327248 0
M  V30 9628 C 901.863 -3.38101 -0.201375 0
M  V30 9629 C 900.909 -4.20601 0.706886 0
M  V30 9630 S 901.742 -4.89066 2.18116 0
M  V30 9631 C 902.898 -6.09058 1.4422 0
M  V30 9632 H 903.131 -2.61684 1.41099 0
M  V30 9633 H 900.664 -1.29864 0.835153 0
M  V30 9634 H 902.622 -4.05674 -0.627607 0
M  V30 9635 H 901.283 -2.96381 -1.04005 0
M  V30 9636 H 900.476 -5.03836 0.128554 0
M  V30 9637 H 900.078 -3.58329 1.07129 0
M  V30 9638 H 902.37 -6.73588 0.726975 0
M  V30 9639 H 903.313 -6.71368 2.25102 0
M  V30 9640 H 903.721 -5.56599 0.941176 0
M  V30 9641 N 903.119 -0.802921 -1.35613 0
M  V30 9642 C 904.344 -0.392846 -2.03645 0
M  V30 9643 C 904.769 0.987075 -1.6012 0
M  V30 9644 O 904.127 1.63849 -0.776101 0
M  V30 9645 C 904.175 -0.480208 -3.57388 0
M  V30 9646 O 903.279 0.507751 -4.09262 0
M  V30 9647 H 902.62 -0.16464 -0.643265 0
M  V30 9648 H 905.15 -1.08779 -1.73287 0
M  V30 9649 H 905.16 -0.348683 -4.06507 0
M  V30 9650 H 903.835 -1.48675 -3.88418 0
M  V30 9651 H 902.412 0.336769 -3.71376 0
M  V30 9652 N 904.597 1.47463 -0.556102 0
M  V30 9653 C 906.008 1.86298 -0.122429 0
M  V30 9654 C 906.359 1.46285 1.30749 0
M  V30 9655 O 905.484 0.865405 1.98342 0
M  V30 9656 C 906.079 3.38115 -0.215407 0
M  V30 9657 C 904.638 3.76046 0.163223 0
M  V30 9658 C 903.785 2.71515 -0.563466 0
M  V30 9659 H 906.736 1.38996 -0.765888 0
M  V30 9660 H 906.757 3.76263 0.566271 0
M  V30 9661 H 906.269 3.67207 -1.25622 0
M  V30 9662 H 904.37 3.5257 1.20519 0
M  V30 9663 H 904.483 4.78705 -0.194568 0
M  V30 9664 H 902.847 2.54699 -0.00667879 0
M  V30 9665 H 903.63 3.03449 -1.60542 0
M  V30 9666 N 906.075 0.2925 1.54862 0
M  V30 9667 C 907.005 -0.580677 2.26165 0
M  V30 9668 C 907.986 -1.14485 1.25806 0
M  V30 9669 O 909.171 -1.17577 1.54562 0
M  V30 9670 C 906.301 -1.75668 2.99596 0
M  V30 9671 C 905.255 -1.32325 4.07031 0
M  V30 9672 C 904.581 -2.58374 4.68131 0
M  V30 9673 C 905.881 -0.460703 5.20264 0
M  V30 9674 H 907.575 0.0140075 2.99397 0
M  V30 9675 H 905.121 0.00817706 1.43998 0
M  V30 9676 H 907.074 -2.37356 3.48195 0
M  V30 9677 H 905.798 -2.37747 2.23928 0
M  V30 9678 H 904.457 -0.729477 3.59269 0
M  V30 9679 H 904.105 -3.18749 3.89112 0
M  V30 9680 H 903.805 -2.30078 5.40683 0
M  V30 9681 H 905.329 -3.2088 5.19489 0
M  V30 9682 H 906.743 -0.983037 5.64809 0
M  V30 9683 H 905.14 -0.271881 5.99484 0
M  V30 9684 H 906.21 0.516304 4.82143 0
M  V30 9685 N 907.553 -1.57587 0.0200696 0
M  V30 9686 C 908.801 -1.91046 -0.65922 0
M  V30 9687 C 909.122 -0.896197 -1.73186 0
M  V30 9688 O 908.392 0.0635952 -1.95797 0
M  V30 9689 H 906.972 -0.705163 -0.246483 0
M  V30 9690 H 909.634 -1.94789 0.0657368 0
M  V30 9691 H 908.73 -2.91399 -1.11773 0
M  V30 9692 N 909.032 0.252966 -1.55557 0
M  V30 9693 C 910.281 0.979736 -1.76307 0
M  V30 9694 C 910.594 1.86714 -0.582871 0
M  V30 9695 O 911.8 2.6302 -0.673247 0
M  V30 9696 C 910.256 1.79205 -3.12112 0
M  V30 9697 C 909.864 0.952333 -4.37761 0
M  V30 9698 C 911.608 2.51191 -3.42203 0
M  V30 9699 C 909.515 1.76018 -5.64599 0
M  V30 9700 H 908.445 0.369538 -0.657235 0
M  V30 9701 H 911.096 0.234619 -1.81994 0
M  V30 9702 H 909.478 2.57888 -3.00515 0
M  V30 9703 H 910.652 0.208251 -4.60329 0
M  V30 9704 H 908.967 0.346082 -4.14959 0
M  V30 9705 H 911.564 3.12074 -4.34182 0
M  V30 9706 H 911.907 3.22499 -2.63249 0
M  V30 9707 H 912.44 1.79523 -3.54988 0
M  V30 9708 H 909.179 1.09095 -6.46358 0
M  V30 9709 H 908.699 2.4797 -5.46142 0
M  V30 9710 H 910.378 2.32884 -6.03634 0
M  V30 9711 N 910.51 1.48831 0.518367 0
M  V30 9712 C 911.735 1.61379 1.30275 0
M  V30 9713 C 912.16 0.278571 1.86026 0
M  V30 9714 O 911.518 -0.751427 1.64995 0
M  V30 9715 C 911.566 2.67225 2.42122 0
M  V30 9716 O 910.67 2.25192 3.45489 0
M  V30 9717 H 910.011 0.540742 0.385349 0
M  V30 9718 H 912.541 1.949 0.622498 0
M  V30 9719 H 912.551 2.88859 2.8814 0
M  V30 9720 H 911.226 3.64155 2.00907 0
M  V30 9721 H 909.803 2.13819 3.05509 0
M  V30 9722 N 911.988 -0.768124 1.37614 0
M  V30 9723 C 913.234 -1.52907 1.33219 0
M  V30 9724 C 913.567 -1.94026 -0.0821218 0
M  V30 9725 O 912.842 -1.64345 -1.04023 0
M  V30 9726 C 913.125 -2.79164 2.27463 0
M  V30 9727 C 912.978 -2.44276 3.7769 0
M  V30 9728 C 914.297 -3.81115 2.20089 0
M  V30 9729 H 911.416 -0.554712 0.485246 0
M  V30 9730 H 914.058 -0.880911 1.68345 0
M  V30 9731 H 912.208 -3.34472 1.97639 0
M  V30 9732 H 913.88 -1.94855 4.18126 0
M  V30 9733 H 912.123 -1.76925 3.96081 0
M  V30 9734 H 912.794 -3.34544 4.39072 0
M  V30 9735 H 915.27 -3.35311 2.46386 0
M  V30 9736 H 914.146 -4.67174 2.88166 0
M  V30 9737 H 914.407 -4.25644 1.19498 0
M  V30 9738 N 913.466 -1.22244 -0.994698 0
M  V30 9739 C 914.396 -1.01513 -2.10279 0
M  V30 9740 C 915.377 0.0633365 -1.69982 0
M  V30 9741 O 916.562 -0.0985268 -1.9395 0
M  V30 9742 C 913.692 -0.59016 -3.42249 0
M  V30 9743 C 912.646 -1.61436 -3.96387 0
M  V30 9744 C 911.972 -1.04528 -5.24383 0
M  V30 9745 C 913.272 -3.00388 -4.27276 0
M  V30 9746 H 914.966 -1.94194 -2.2788 0
M  V30 9747 H 912.512 -0.935094 -1.09508 0
M  V30 9748 H 914.465 -0.432254 -4.19177 0
M  V30 9749 H 913.189 0.372308 -3.24471 0
M  V30 9750 H 911.848 -1.76001 -3.21589 0
M  V30 9751 H 911.496 -0.0742225 -5.02945 0
M  V30 9752 H 911.196 -1.72949 -5.61571 0
M  V30 9753 H 912.72 -0.898922 -6.03947 0
M  V30 9754 H 914.134 -2.89207 -4.95007 0
M  V30 9755 H 912.531 -3.65916 -4.75631 0
M  V30 9756 H 913.601 -3.50456 -3.35125 0
M  V30 9757 N 914.944 1.19125 -1.03184 0
M  V30 9758 C 916.36 1.40909 -0.749447 0
M  V30 9759 C 916.56 1.9022 0.664729 0
M  V30 9760 O 915.616 2.08085 1.43028 0
M  V30 9761 C 916.929 2.41761 -1.78807 0
M  V30 9762 C 918.477 2.55503 -1.80796 0
M  V30 9763 C 918.952 3.59612 -2.83626 0
M  V30 9764 N 920.443 3.6711 -2.82461 0
M  V30 9765 C 921.178 4.47366 -3.5868 0
M  V30 9766 N 920.674 5.31302 -4.44623 0
M  V30 9767 N 922.467 4.42044 -3.47208 0
M  V30 9768 H 914.618 0.854399 -1.94458 0
M  V30 9769 H 916.881 0.437753 -0.840878 0
M  V30 9770 H 916.587 2.12559 -2.80199 0
M  V30 9771 H 916.461 3.40981 -1.61283 0
M  V30 9772 H 918.848 2.84027 -0.800803 0
M  V30 9773 H 918.929 1.56427 -2.02396 0
M  V30 9774 H 918.573 3.3183 -3.84515 0
M  V30 9775 H 918.503 4.58345 -2.59283 0
M  V30 9776 H 920.994 3.07166 -2.2013 0
M  V30 9777 H 921.307 5.89667 -4.99512 0
M  V30 9778 H 919.652 5.30753 -4.48694 0
M  V30 9779 H 922.843 3.75513 -2.79477 0
M  V30 9780 H 923.016 5.0435 -4.06859 0
M  V30 9781 N 916.422 0.810101 1.35185 0
M  V30 9782 C 917.662 0.397802 2.00492 0
M  V30 9783 C 918.026 -1.01684 1.62863 0
M  V30 9784 O 919.227 -1.53133 2.20916 0
M  V30 9785 C 917.498 0.579524 3.5267 0
M  V30 9786 S 919.057 0.258169 4.3804 0
M  V30 9787 H 915.875 0.150904 0.694801 0
M  V30 9788 H 918.477 1.05312 1.64711 0
M  V30 9789 H 917.181 1.60901 3.77543 0
M  V30 9790 H 916.712 -0.0909886 3.93295 0
M  V30 9791 H 918.727 -0.932882 4.87352 0
M  V30 9792 N 917.9 -1.47166 0.563914 0
M  V30 9793 C 919.146 -2.02756 0.0424338 0
M  V30 9794 C 919.479 -1.43662 -1.3067 0
M  V30 9795 O 918.754 -0.594676 -1.85186 0
M  V30 9796 C 919.037 -3.60074 -0.0434793 0
M  V30 9797 C 918.89 -4.29587 1.33323 0
M  V30 9798 C 920.209 -4.336 -0.753568 0
M  V30 9799 H 917.328 -0.736806 0.0168946 0
M  V30 9800 H 919.97 -1.75521 0.727496 0
M  V30 9801 H 918.12 -3.83409 -0.626906 0
M  V30 9802 H 919.792 -4.17573 1.96037 0
M  V30 9803 H 918.035 -3.8968 1.9061 0
M  V30 9804 H 918.706 -5.38218 1.22576 0
M  V30 9805 H 921.182 -4.15299 -0.258126 0
M  V30 9806 H 920.058 -5.43291 -0.782659 0
M  V30 9807 H 920.319 -4.03302 -1.81108 0
M  V30 9808 N 919.378 -0.300708 -1.54705 0
M  V30 9809 C 920.794 0.0526874 -1.59513 0
M  V30 9810 C 920.994 1.52444 -1.31769 0
M  V30 9811 O 920.05 2.27716 -1.09096 0
M  V30 9812 C 921.363 -0.344989 -2.98714 0
M  V30 9813 C 922.911 -0.29373 -3.11619 0
M  V30 9814 C 923.386 -0.666225 -4.53129 0
M  V30 9815 N 924.877 -0.618749 -4.59049 0
M  V30 9816 C 925.612 -0.879447 -5.66616 0
M  V30 9817 N 925.108 -1.2061 -6.82221 0
M  V30 9818 N 926.901 -0.806528 -5.56284 0
M  V30 9819 H 919.052 -1.25988 -1.71 0
M  V30 9820 H 921.315 -0.510758 -0.798643 0
M  V30 9821 H 921.021 -1.36953 -3.2394 0
M  V30 9822 H 920.895 0.301507 -3.75993 0
M  V30 9823 H 923.282 0.72156 -2.86142 0
M  V30 9824 H 923.363 -0.974844 -2.36496 0
M  V30 9825 H 923.007 -1.67932 -4.79334 0
M  V30 9826 H 922.937 0.0369575 -5.26587 0
M  V30 9827 H 925.428 -0.377202 -3.76013 0
M  V30 9828 H 925.741 -1.391 -7.60178 0
M  V30 9829 H 924.086 -1.24413 -6.83774 0
M  V30 9830 H 927.277 -0.550993 -4.64846 0
M  V30 9831 H 927.45 -1.01307 -6.40032 0
M  V30 9832 N 920.856 1.57574 -0.0284266 0
M  V30 9833 C 921.786 2.1321 0.952039 0
M  V30 9834 C 922.767 1.04806 1.33977 0
M  V30 9835 O 923.952 1.32635 1.41851 0
M  V30 9836 C 921.082 2.65862 2.23461 0
M  V30 9837 C 920.036 3.79047 1.98765 0
M  V30 9838 C 919.362 4.18124 3.33281 0
M  V30 9839 C 920.662 5.05151 1.32739 0
M  V30 9840 H 922.356 2.95385 0.488705 0
M  V30 9841 H 919.902 1.42092 0.233628 0
M  V30 9842 H 921.855 3.03417 2.92431 0
M  V30 9843 H 920.579 1.80848 2.71959 0
M  V30 9844 H 919.238 3.41929 1.32213 0
M  V30 9845 H 918.886 3.30092 3.79537 0
M  V30 9846 H 918.586 4.94396 3.17563 0
M  V30 9847 H 920.11 4.58262 4.0352 0
M  V30 9848 H 921.524 5.40297 1.91708 0
M  V30 9849 H 919.921 5.86416 1.27421 0
M  V30 9850 H 920.991 4.83969 0.300261 0
M  V30 9851 N 922.334 -0.244713 1.55689 0
M  V30 9852 C 923.264 -1.30667 1.93516 0
M  V30 9853 C 924.245 -1.50094 0.800371 0
M  V30 9854 O 925.43 -1.62665 1.06083 0
M  V30 9855 C 922.56 -2.66101 2.23176 0
M  V30 9856 C 921.514 -2.61366 3.38927 0
M  V30 9857 C 920.84 -4.00616 3.54134 0
M  V30 9858 C 922.14 -2.18161 4.74555 0
M  V30 9859 H 923.834 -0.992546 2.82469 0
M  V30 9860 H 921.38 -0.476018 1.35905 0
M  V30 9861 H 923.333 -3.4053 2.48228 0
M  V30 9862 H 922.057 -2.99154 1.31051 0
M  V30 9863 H 920.716 -1.89395 3.13887 0
M  V30 9864 H 920.364 -4.30938 2.59426 0
M  V30 9865 H 920.064 -3.98335 4.31975 0
M  V30 9866 H 921.588 -4.76741 3.8151 0
M  V30 9867 H 923.002 -2.82323 4.98965 0
M  V30 9868 H 921.399 -2.26988 5.55515 0
M  V30 9869 H 922.469 -1.13333 4.7147 0
M  V30 9870 N 923.813 -1.49104 -0.510467 0
M  V30 9871 C 925.229 -1.35657 -0.840797 0
M  V30 9872 C 925.429 -0.382425 -1.97838 0
M  V30 9873 O 924.485 0.189331 -2.51789 0
M  V30 9874 C 925.798 -2.76155 -1.18992 0
M  V30 9875 C 927.346 -2.84786 -1.29868 0
M  V30 9876 C 927.821 -4.2603 -1.68115 0
M  V30 9877 N 929.312 -4.28796 -1.75181 0
M  V30 9878 C 930.047 -5.35041 -2.062 0
M  V30 9879 N 929.543 -6.51543 -2.35508 0
M  V30 9880 N 931.336 -5.2245 -2.07371 0
M  V30 9881 H 923.487 -2.11042 0.23982 0
M  V30 9882 H 925.75 -0.946946 0.0446824 0
M  V30 9883 H 925.456 -3.49092 -0.427484 0
M  V30 9884 H 925.33 -3.10922 -2.13558 0
M  V30 9885 H 927.717 -2.12092 -2.05186 0
M  V30 9886 H 927.798 -2.53613 -0.333758 0
M  V30 9887 H 927.442 -4.99247 -0.933512 0
M  V30 9888 H 927.372 -4.5466 -2.65691 0
M  V30 9889 H 929.863 -3.44771 -1.5473 0
M  V30 9890 H 930.176 -7.28342 -2.58337 0
M  V30 9891 H 928.521 -6.54785 -2.32985 0
M  V30 9892 H 931.712 -4.30444 -1.83945 0
M  V30 9893 H 931.885 -6.05347 -2.31212 0
M  V30 9894 N 925.291 0.760815 -1.38019 0
M  V30 9895 C 926.54 1.51506 -1.3315 0
M  V30 9896 C 926.853 1.95444 0.0782124 0
M  V30 9897 O 928.059 2.70352 0.249418 0
M  V30 9898 C 926.515 2.73636 -2.33776 0
M  V30 9899 C 926.123 2.36753 -3.80332 0
M  V30 9900 C 927.867 3.51548 -2.37937 0
M  V30 9901 C 925.774 3.55451 -4.72661 0
M  V30 9902 H 924.704 0.568844 -0.494907 0
M  V30 9903 H 927.355 0.832343 -1.63537 0
M  V30 9904 H 925.737 3.43852 -1.96422 0
M  V30 9905 H 926.911 1.7425 -4.26584 0
M  V30 9906 H 925.226 1.71991 -3.7922 0
M  V30 9907 H 927.823 4.39791 -3.04119 0
M  V30 9908 H 928.166 3.9219 -1.39617 0
M  V30 9909 H 928.699 2.88339 -2.74054 0
M  V30 9910 H 925.438 3.19882 -5.7215 0
M  V30 9911 H 924.958 4.17022 -4.31107 0
M  V30 9912 H 926.637 4.22125 -4.90326 0
M  V30 9913 N 926.769 1.22769 0.988202 0
M  V30 9914 C 928.016 1.05509 1.72841 0
M  V30 9915 C 928.344 -0.409145 1.90148 0
M  V30 9916 O 927.599 -1.3195 1.44526 0
M  V30 9917 C 927.898 1.71679 3.13466 0
M  V30 9918 C 927.564 3.21584 3.16061 0
M  V30 9919 C 926.226 3.62486 3.16476 0
M  V30 9920 C 928.578 4.17511 3.11984 0
M  V30 9921 C 925.906 4.97789 3.10521 0
M  V30 9922 C 928.258 5.52796 3.0757 0
M  V30 9923 C 926.922 5.93072 3.06304 0
M  V30 9924 H 926.192 0.386085 0.632471 0
M  V30 9925 H 928.839 1.52596 1.157 0
M  V30 9926 H 927.144 1.1693 3.73945 0
M  V30 9927 H 928.841 1.55809 3.69492 0
M  V30 9928 H 925.431 2.89019 3.1649 0
M  V30 9929 H 929.615 3.86926 3.10809 0
M  V30 9930 H 924.871 5.28218 3.07888 0
M  V30 9931 H 929.045 6.26848 3.03372 0
M  V30 9932 H 926.672 6.97879 3.01444 0
M  V30 9933 N 928.247 -1.18576 1.03814 0
M  V30 9934 C 929.194 -2.2212 0.626988 0
M  V30 9935 C 930.164 -1.62064 -0.363912 0
M  V30 9936 O 931.349 -1.89041 -0.258469 0
M  V30 9937 C 928.489 -3.45099 -0.00650133 0
M  V30 9938 C 927.602 -4.19503 1.03156 0
M  V30 9939 C 926.737 -5.29932 0.366852 0
M  V30 9940 C 925.776 -5.96104 1.39018 0
M  V30 9941 N 924.913 -6.98076 0.750625 0
M  V30 9942 H 929.753 -2.56646 1.51449 0
M  V30 9943 H 927.29 -1.26084 0.757702 0
M  V30 9944 H 929.248 -4.15363 -0.391108 0
M  V30 9945 H 927.878 -3.11201 -0.857536 0
M  V30 9946 H 926.93 -3.48092 1.53414 0
M  V30 9947 H 928.242 -4.64843 1.80893 0
M  V30 9948 H 927.396 -6.06657 -0.0720979 0
M  V30 9949 H 926.135 -4.85687 -0.442631 0
M  V30 9950 H 925.14 -5.18122 1.8393 0
M  V30 9951 H 926.365 -6.42432 2.20132 0
M  V30 9952 H 924.311 -6.55989 -0.0385981 0
M  V30 9953 H 924.228 -7.41655 1.46574 0
M  V30 9954 H 925.496 -7.78776 0.335986 0
M  V30 9955 N 929.725 -0.817259 -1.34754 0
M  V30 9956 C 930.974 -0.39908 -1.97713 0
M  V30 9957 C 931.287 1.04203 -1.65533 0
M  V30 9958 O 932.493 1.56384 -2.21937 0
M  V30 9959 C 930.949 -0.662634 -3.53747 0
M  V30 9960 C 930.557 -2.11699 -3.94826 0
M  V30 9961 C 932.301 -0.31034 -4.23364 0
M  V30 9962 C 930.208 -2.32573 -5.4375 0
M  V30 9963 H 929.138 -0.145488 -0.739831 0
M  V30 9964 H 931.789 -1.00282 -1.53674 0
M  V30 9965 H 930.171 0.0111972 -3.95998 0
M  V30 9966 H 931.345 -2.82951 -3.63697 0
M  V30 9967 H 929.66 -2.43017 -3.3813 0
M  V30 9968 H 932.257 -0.44421 -5.32852 0
M  V30 9969 H 932.6 0.744594 -4.09587 0
M  V30 9970 H 933.133 -0.938518 -3.8657 0
M  V30 9971 H 929.872 -3.36551 -5.62507 0
M  V30 9972 H 929.392 -1.65858 -5.76412 0
M  V30 9973 H 931.071 -2.14651 -6.10356 0
M  V30 9974 N 931.203 1.46865 -0.571711 0
M  V30 9975 C 932.431 2.06818 -0.0583975 0
M  V30 9976 C 932.846 1.42218 1.24175 0
M  V30 9977 O 932.203 0.523655 1.74826 0
M  V30 9978 C 932.254 3.61281 0.125673 0
M  V30 9979 O 931.975 4.23462 -1.123 0
M  V30 9980 C 933.476 4.38137 0.674604 0
M  V30 9981 H 930.696 0.668948 -0.052438 0
M  V30 9982 H 933.24 1.88656 -0.789251 0
M  V30 9983 H 931.395 3.78908 0.806707 0
M  V30 9984 H 931.809 5.16192 -0.929869 0
M  V30 9985 H 933.283 5.46845 0.752626 0
M  V30 9986 H 933.76 4.05419 1.68915 0
M  V30 9987 H 934.366 4.2529 0.0287979 0
M  V30 9988 N 932.681 0.308908 1.54543 0
M  V30 9989 C 934.097 -0.0442273 1.59539 0
M  V30 9990 C 934.297 -1.51743 1.32575 0
M  V30 9991 O 933.353 -2.27134 1.10302 0
M  V30 9992 C 934.666 0.360826 2.98527 0
M  V30 9993 C 936.214 0.310252 3.11459 0
M  V30 9994 C 936.689 0.690246 4.52769 0
M  V30 9995 N 938.18 0.643084 4.58714 0
M  V30 9996 C 938.915 0.909483 5.66141 0
M  V30 9997 N 938.411 1.24226 6.81572 0
M  V30 9998 N 940.204 0.836018 5.55848 0
M  V30 9999 H 932.355 1.26893 1.70329 0
M  V30 10000 H 934.618 0.514986 0.795923 0
M  V30 10001 H 934.324 1.38669 3.23209 0
M  V30 10002 H 934.198 -0.281563 3.76148 0
M  V30 10003 H 936.585 -0.706375 2.86521 0
M  V30 10004 H 936.666 0.987373 2.35976 0
M  V30 10005 H 936.31 1.70472 4.78437 0
M  V30 10006 H 936.24 -0.00903075 5.26599 0
M  V30 10007 H 938.731 0.397138 3.75807 0
M  V30 10008 H 939.044 1.4313 7.5943 0
M  V30 10009 H 937.389 1.28038 6.83104 0
M  V30 10010 H 940.58 0.575637 4.64547 0
M  V30 10011 H 940.753 1.047 6.39486 0
M  V30 10012 N 934.159 -1.57557 0.0367827 0
M  V30 10013 C 935.389 -1.96134 -0.649225 0
M  V30 10014 C 935.797 -0.912279 -1.65753 0
M  V30 10015 O 935.14 0.113569 -1.83349 0
M  V30 10016 C 935.202 -3.30889 -1.40545 0
M  V30 10017 C 934.866 -4.53622 -0.554609 0
M  V30 10018 C 935.863 -5.19611 0.17331 0
M  V30 10019 C 933.548 -4.99907 -0.48976 0
M  V30 10020 C 935.542 -6.3021 0.95467 0
M  V30 10021 C 933.229 -6.10386 0.295299 0
M  V30 10022 C 934.227 -6.75398 1.01621 0
M  V30 10023 O 933.915 -7.83755 1.78839 0
M  V30 10024 H 933.647 -0.650662 -0.183344 0
M  V30 10025 H 936.201 -2.05179 0.0951512 0
M  V30 10026 H 934.431 -3.18356 -2.19513 0
M  V30 10027 H 936.12 -3.54315 -1.9803 0
M  V30 10028 H 936.886 -4.84819 0.132589 0
M  V30 10029 H 932.765 -4.49105 -1.04046 0
M  V30 10030 H 936.309 -6.80886 1.51789 0
M  V30 10031 H 932.206 -6.44616 0.33771 0
M  V30 10032 H 932.974 -8.0046 1.70898 0
M  V30 10033 N 935.637 0.236453 -1.55816 0
M  V30 10034 C 936.883 0.960127 -1.79313 0
M  V30 10035 C 937.238 1.8256 -0.607406 0
M  V30 10036 O 936.531 1.87398 0.399046 0
M  V30 10037 C 936.725 1.84549 -3.06066 0
M  V30 10038 C 936.554 1.06721 -4.36853 0
M  V30 10039 C 935.324 0.76811 -4.99428 0
M  V30 10040 C 937.522 0.439715 -5.12417 0
M  V30 10041 N 935.504 -0.0331365 -6.13891 0
M  V30 10042 C 936.875 -0.225616 -6.19589 0
M  V30 10043 C 938.93 0.351237 -4.9666 0
M  V30 10044 C 937.633 -0.970943 -7.12717 0
M  V30 10045 C 939.659 -0.380585 -5.90174 0
M  V30 10046 C 939.021 -1.03451 -6.96762 0
M  V30 10047 H 935.12 0.332095 -0.707981 0
M  V30 10048 H 937.704 0.232311 -1.93309 0
M  V30 10049 H 935.875 2.54525 -2.93379 0
M  V30 10050 H 937.607 2.50552 -3.17814 0
M  V30 10051 H 934.362 1.08248 -4.61063 0
M  V30 10052 H 934.786 -0.422159 -6.75682 0
M  V30 10053 H 939.428 0.842469 -4.14321 0
M  V30 10054 H 937.146 -1.47374 -7.94548 0
M  V30 10055 H 940.732 -0.449851 -5.80058 0
M  V30 10056 H 939.612 -1.59175 -7.67876 0
M  V30 10057 N 937.115 1.49373 0.502552 0
M  V30 10058 C 938.063 1.66411 1.62512 0
M  V30 10059 C 939.057 0.530062 1.60893 0
M  V30 10060 O 940.263 0.709648 1.65421 0
M  V30 10061 H 936.638 0.524707 0.538689 0
M  V30 10062 H 938.609 2.60639 1.45293 0
M  V30 10063 C 937.358 1.74648 3.00655 0
M  V30 10064 H 936.681 2.61285 3.02606 0
M  V30 10065 H 938.121 1.90605 3.78742 0
M  V30 10066 C 936.58 0.490963 3.33303 0
M  V30 10067 O 937.11 -0.384039 3.9986 0
M  V30 10068 N 935.316 0.354375 2.88431 0
M  V30 10069 H 934.863 1.06742 2.34444 0
M  V30 10070 H 934.821 -0.484593 3.10643 0
M  V30 10071 N 938.594 -0.753485 1.38421 0
M  V30 10072 C 939.819 -1.54783 1.38047 0
M  V30 10073 C 940.244 -1.8808 -0.0276371 0
M  V30 10074 O 939.602 -1.5058 -1.00973 0
M  V30 10075 C 939.65 -2.82353 2.24297 0
M  V30 10076 O 938.754 -3.77509 1.66014 0
M  V30 10077 H 938.095 -0.468151 0.470883 0
M  V30 10078 H 940.625 -0.931144 1.82184 0
M  V30 10079 H 940.635 -3.31277 2.38159 0
M  V30 10080 H 939.31 -2.57449 3.26639 0
M  V30 10081 H 937.887 -3.36212 1.61294 0
M  V30 10082 N 940.072 -1.23292 -0.981677 0
M  V30 10083 C 941.002 -1.03738 -2.09191 0
M  V30 10084 C 941.983 0.0453041 -1.7004 0
M  V30 10085 O 943.168 -0.119092 -1.93834 0
M  V30 10086 C 940.298 -0.626426 -3.41604 0
M  V30 10087 C 939.252 -1.65631 -3.94652 0
M  V30 10088 C 938.578 -1.10084 -5.23245 0
M  V30 10089 C 939.878 -3.04903 -4.24066 0
M  V30 10090 H 941.572 -1.966 -2.25807 0
M  V30 10091 H 939.118 -0.946656 -1.0851 0
M  V30 10092 H 941.071 -0.476689 -4.18695 0
M  V30 10093 H 939.795 0.337873 -3.24848 0
M  V30 10094 H 938.454 -1.79402 -3.19704 0
M  V30 10095 H 938.102 -0.127562 -5.02838 0
M  V30 10096 H 937.802 -1.78896 -5.59705 0
M  V30 10097 H 939.326 -0.962928 -6.02959 0
M  V30 10098 H 940.74 -2.94441 -4.91912 0
M  V30 10099 H 939.137 -3.70941 -4.71724 0
M  V30 10100 H 940.207 -3.53991 -3.31389 0
M  V30 10101 N 941.55 1.18024 -1.04442 0
M  V30 10102 C 942.775 1.92573 -0.770097 0
M  V30 10103 C 943.2 1.75871 0.667169 0
M  V30 10104 O 942.558 1.07136 1.46258 0
M  V30 10105 C 942.606 3.41904 -1.14602 0
M  V30 10106 O 941.71 4.11491 -0.273712 0
M  V30 10107 H 941.051 0.600636 -0.283076 0
M  V30 10108 H 943.581 1.49645 -1.39526 0
M  V30 10109 H 943.591 3.92623 -1.10956 0
M  V30 10110 H 942.266 3.53382 -2.19304 0
M  V30 10111 H 940.843 3.71059 -0.370124 0
M  V30 10112 N 943.028 0.824394 1.34319 0
M  V30 10113 C 943.976 0.235628 2.31403 0
M  V30 10114 C 944.97 -0.624443 1.57471 0
M  V30 10115 O 946.176 -0.515618 1.72457 0
M  V30 10116 H 942.551 0.0574537 0.749802 0
M  V30 10117 H 944.522 1.06925 2.78585 0
M  V30 10118 C 943.271 -0.586617 3.42716 0
M  V30 10119 H 942.594 0.0658669 3.99746 0
M  V30 10120 H 944.034 -0.964661 4.1288 0
M  V30 10121 C 942.493 -1.75957 2.87299 0
M  V30 10122 O 943.023 -2.8578 2.82299 0
M  V30 10123 N 941.229 -1.57678 2.44102 0
M  V30 10124 H 940.776 -0.683436 2.48369 0
M  V30 10125 H 940.734 -2.36311 2.07375 0
M  V30 10126 N 944.506 -1.46559 0.579492 0
M  V30 10127 C 945.436 -2.33059 -0.143437 0
M  V30 10128 C 946.417 -1.4515 -0.886868 0
M  V30 10129 O 947.602 -1.73973 -0.862961 0
M  V30 10130 C 944.732 -3.27364 -1.15973 0
M  V30 10131 C 943.686 -4.24689 -0.531348 0
M  V30 10132 C 943.012 -5.08479 -1.65388 0
M  V30 10133 C 944.312 -5.1961 0.529391 0
M  V30 10134 H 946.006 -2.93753 0.578762 0
M  V30 10135 H 943.552 -1.41256 0.279775 0
M  V30 10136 H 945.505 -3.86732 -1.67382 0
M  V30 10137 H 944.229 -2.64771 -1.91217 0
M  V30 10138 H 942.888 -3.6658 -0.0383749 0
M  V30 10139 H 942.536 -4.42273 -2.3959 0
M  V30 10140 H 942.236 -5.74387 -1.23909 0
M  V30 10141 H 943.76 -5.70709 -2.17079 0
M  V30 10142 H 945.174 -5.73212 0.100506 0
M  V30 10143 H 943.571 -5.93843 0.86432 0
M  V30 10144 H 944.641 -4.63737 1.4169 0
M  V30 10145 N 945.984 -0.3171 -1.54377 0
M  V30 10146 C 947.23 0.287836 -2.00747 0
M  V30 10147 C 947.563 1.52292 -1.20502 0
M  V30 10148 O 946.838 1.92391 -0.285626 0
M  V30 10149 C 947.121 0.628423 -3.54574 0
M  V30 10150 C 946.974 -0.616922 -4.45549 0
M  V30 10151 C 948.293 1.44862 -4.15575 0
M  V30 10152 H 945.412 0.103144 -0.729747 0
M  V30 10153 H 948.054 -0.432396 -1.85014 0
M  V30 10154 H 946.204 1.24203 -3.68111 0
M  V30 10155 H 947.876 -1.25526 -4.43893 0
M  V30 10156 H 946.119 -1.24706 -4.15489 0
M  V30 10157 H 946.79 -0.334243 -5.50987 0
M  V30 10158 H 949.266 0.930015 -4.05574 0
M  V30 10159 H 948.142 1.6557 -5.23333 0
M  V30 10160 H 948.403 2.44279 -3.68484 0
M  V30 10161 N 947.462 1.57535 -0.0451378 0
M  V30 10162 C 948.425 2.1008 0.916461 0
M  V30 10163 C 949.425 1.01913 1.2438 0
M  V30 10164 O 950.615 1.2801 1.18148 0
M  V30 10165 C 947.747 2.58001 2.22818 0
M  V30 10166 H 948.94 2.96334 0.461076 0
M  V30 10167 H 946.493 1.54974 0.203169 0
M  V30 10168 H 947.228 1.75123 2.72951 0
M  V30 10169 H 947.013 3.3704 2.00366 0
M  V30 10170 H 948.503 2.98822 2.9171 0
M  V30 10171 N 948.94 -0.228186 1.55939 0
M  V30 10172 C 950.165 -0.974795 1.83064 0
M  V30 10173 C 950.59 -1.77426 0.624624 0
M  V30 10174 O 949.948 -1.76211 -0.426556 0
M  V30 10175 C 949.996 -1.87342 3.08116 0
M  V30 10176 O 949.1 -2.96784 2.86344 0
M  V30 10177 H 948.441 -0.276379 0.603747 0
M  V30 10178 H 950.971 -0.243507 2.03146 0
M  V30 10179 H 950.981 -2.28451 3.38045 0
M  V30 10180 H 949.656 -1.28575 3.95526 0
M  V30 10181 H 948.233 -2.59669 2.67631 0
M  V30 10182 N 950.418 -1.49637 -0.494624 0
M  V30 10183 C 951.348 -1.69692 -1.60396 0
M  V30 10184 C 952.329 -0.545648 -1.61111 0
M  V30 10185 O 953.514 -0.782202 -1.77751 0
M  V30 10186 C 950.644 -1.76934 -2.9885 0
M  V30 10187 C 949.598 -2.91915 -3.13001 0
M  V30 10188 C 948.924 -2.84276 -4.5287 0
M  V30 10189 C 950.224 -4.32764 -2.92426 0
M  V30 10190 H 951.918 -2.6257 -1.43866 0
M  V30 10191 H 949.464 -1.26355 -0.690679 0
M  V30 10192 H 951.417 -1.8955 -3.76362 0
M  V30 10193 H 950.141 -0.806609 -3.16483 0
M  V30 10194 H 948.8 -2.78911 -2.37916 0
M  V30 10195 H 948.448 -1.85897 -4.67388 0
M  V30 10196 H 948.148 -3.61452 -4.63278 0
M  V30 10197 H 949.672 -2.98909 -5.32434 0
M  V30 10198 H 951.086 -4.46415 -3.59703 0
M  V30 10199 H 949.483 -5.1121 -3.143 0
M  V30 10200 H 950.553 -4.46765 -1.88491 0
M  V30 10201 N 951.896 0.746133 -1.38819 0
M  V30 10202 C 952.826 1.87344 -1.39372 0
M  V30 10203 C 953.807 1.68123 -0.258583 0
M  V30 10204 O 954.992 1.88606 -0.462769 0
M  V30 10205 C 952.122 3.24962 -1.22543 0
M  V30 10206 C 951.076 3.58799 -2.33339 0
M  V30 10207 C 950.402 4.95235 -2.01609 0
M  V30 10208 C 951.702 3.62911 -3.75624 0
M  V30 10209 H 953.396 1.87138 -2.33709 0
M  V30 10210 H 950.942 0.898937 -1.12495 0
M  V30 10211 H 952.895 4.03488 -1.21554 0
M  V30 10212 H 951.619 3.25667 -0.246707 0
M  V30 10213 H 950.278 2.82596 -2.33527 0
M  V30 10214 H 949.926 4.92508 -1.02202 0
M  V30 10215 H 949.626 5.18843 -2.75819 0
M  V30 10216 H 951.15 5.76131 -2.02251 0
M  V30 10217 H 952.564 4.31535 -3.77426 0
M  V30 10218 H 950.961 3.98031 -4.491 0
M  V30 10219 H 952.031 2.62967 -4.07402 0
M  V30 10220 N 953.375 1.23811 0.975125 0
M  V30 10221 C 954.323 1.02149 2.0897 0
M  V30 10222 C 955.317 -0.0412172 1.6935 0
M  V30 10223 O 956.523 0.112726 1.79647 0
M  V30 10224 H 952.898 0.313259 0.683647 0
M  V30 10225 H 954.869 1.96686 2.24404 0
M  V30 10226 C 953.618 0.635023 3.41852 0
M  V30 10227 H 952.941 1.44449 3.72793 0
M  V30 10228 H 954.381 0.52301 4.20762 0
M  V30 10229 C 952.84 -0.657207 3.30428 0
M  V30 10230 O 953.37 -1.70494 3.63723 0
M  V30 10231 N 951.576 -0.635122 2.83575 0
M  V30 10232 H 951.123 0.21784 2.56677 0
M  V30 10233 H 951.081 -1.49995 2.76313 0
M  V30 10234 N 954.853 -1.17469 1.05066 0
M  V30 10235 C 956.078 -1.92162 0.780298 0
M  V30 10236 C 956.503 -1.76222 -0.657832 0
M  V30 10237 O 955.861 -1.0791 -1.45688 0
M  V30 10238 C 955.909 -3.41292 1.16414 0
M  V30 10239 O 955.013 -4.1134 0.295531 0
M  V30 10240 H 954.354 -0.599127 0.286257 0
M  V30 10241 H 956.884 -1.48903 1.40318 0
M  V30 10242 H 956.894 -3.92029 1.13036 0
M  V30 10243 H 955.569 -3.52214 2.21175 0
M  V30 10244 H 954.146 -3.70857 0.389797 0
M  V30 10245 N 956.331 -0.831506 -1.3388 0
M  V30 10246 C 957.577 -0.424302 -1.98312 0
M  V30 10247 C 957.91 1.01211 -1.65741 0
M  V30 10248 O 957.185 1.70636 -0.933464 0
M  V30 10249 C 957.468 -0.636815 -3.54424 0
M  V30 10250 C 957.321 -2.11997 -3.96708 0
M  V30 10251 C 958.64 -0.0782411 -4.4003 0
M  V30 10252 H 955.759 -0.155637 -0.720379 0
M  V30 10253 H 958.401 -1.04566 -1.58638 0
M  V30 10254 H 956.551 -0.107907 -3.8835 0
M  V30 10255 H 958.223 -2.71317 -3.73075 0
M  V30 10256 H 956.466 -2.60723 -3.46707 0
M  V30 10257 H 957.137 -2.21944 -5.05416 0
M  V30 10258 H 959.613 -0.530243 -4.12708 0
M  V30 10259 H 958.489 -0.256676 -5.483 0
M  V30 10260 H 958.75 1.01745 -4.30233 0
M  V30 10261 N 957.809 1.4625 -0.587256 0
M  V30 10262 C 959.225 1.57641 -0.249284 0
M  V30 10263 C 959.425 1.58169 1.24839 0
M  V30 10264 O 958.481 1.50109 2.03036 0
M  V30 10265 C 959.794 2.86837 -0.902509 0
M  V30 10266 C 961.342 3.00476 -0.876524 0
M  V30 10267 C 961.817 4.32414 -1.50938 0
M  V30 10268 N 963.308 4.39124 -1.47392 0
M  V30 10269 C 964.043 5.39838 -1.93293 0
M  V30 10270 N 963.539 6.47202 -2.47188 0
M  V30 10271 N 965.332 5.31068 -1.84183 0
M  V30 10272 H 957.483 1.44151 -1.55994 0
M  V30 10273 H 959.746 0.687905 -0.652297 0
M  V30 10274 H 959.452 2.92274 -1.95624 0
M  V30 10275 H 959.326 3.74927 -0.413466 0
M  V30 10276 H 961.713 2.94618 0.168601 0
M  V30 10277 H 961.794 2.1385 -1.40363 0
M  V30 10278 H 961.438 4.3903 -2.55372 0
M  V30 10279 H 961.368 5.17823 -0.957455 0
M  V30 10280 H 963.859 3.62138 -1.08002 0
M  V30 10281 H 964.172 7.20269 -2.80058 0
M  V30 10282 H 962.517 6.48009 -2.51216 0
M  V30 10283 H 965.708 4.46095 -1.41833 0
M  V30 10284 H 965.881 6.09414 -2.2027 0
M  V30 10285 N 959.287 0.325282 1.54207 0
M  V30 10286 C 960.512 -0.281418 2.05482 0
M  V30 10287 C 960.937 -1.44869 1.19977 0
M  V30 10288 O 960.295 -1.80088 0.209275 0
M  V30 10289 C 960.343 -0.692029 3.53897 0
M  V30 10290 O 959.447 -1.7942 3.71325 0
M  V30 10291 H 958.788 -0.0504872 0.662078 0
M  V30 10292 H 961.318 0.474191 1.99029 0
M  V30 10293 H 961.328 -0.974219 3.96198 0
M  V30 10294 H 960.003 0.161709 4.15586 0
M  V30 10295 H 958.58 -1.51069 3.40929 0
M  V30 10296 N 960.765 -1.57509 0.0534917 0
M  V30 10297 C 962.014 -1.91959 -0.619244 0
M  V30 10298 C 962.327 -0.933882 -1.71866 0
M  V30 10299 O 963.533 -1.17052 -2.44972 0
M  V30 10300 C 961.989 -3.40938 -1.15278 0
M  V30 10301 C 961.597 -4.47919 -0.085348 0
M  V30 10302 C 963.341 -3.84419 -1.80063 0
M  V30 10303 C 961.248 -5.88014 -0.631897 0
M  V30 10304 H 960.178 -0.71642 -0.235072 0
M  V30 10305 H 962.829 -1.83089 0.122758 0
M  V30 10306 H 961.211 -3.44821 -1.94717 0
M  V30 10307 H 962.385 -4.55629 0.688374 0
M  V30 10308 H 960.7 -4.13793 0.465178 0
M  V30 10309 H 963.297 -4.86457 -2.21954 0
M  V30 10310 H 963.64 -3.20791 -2.65328 0
M  V30 10311 H 964.173 -3.83062 -1.07275 0
M  V30 10312 H 960.912 -6.55244 0.183175 0
M  V30 10313 H 960.432 -5.83861 -1.37355 0
M  V30 10314 H 962.111 -6.37336 -1.11407 0
M  V30 10315 N 962.243 0.219913 -1.56058 0
M  V30 10316 C 963.206 1.25606 -1.91718 0
M  V30 10317 C 964.206 1.39721 -0.795912 0
M  V30 10318 O 965.396 1.37958 -1.06364 0
M  V30 10319 C 962.528 2.62961 -2.16943 0
M  V30 10320 H 963.721 0.951909 -2.84392 0
M  V30 10321 H 961.274 0.460398 -1.49365 0
M  V30 10322 H 962.009 2.98472 -1.26826 0
M  V30 10323 H 961.794 2.54093 -2.98629 0
M  V30 10324 H 963.284 3.37727 -2.45622 0
M  V30 10325 N 963.721 1.49897 0.486681 0
M  V30 10326 C 964.946 1.64106 1.26823 0
M  V30 10327 C 965.371 0.317967 1.85393 0
M  V30 10328 O 964.729 -0.71626 1.66551 0
M  V30 10329 C 964.777 2.72301 2.36399 0
M  V30 10330 O 963.881 2.32469 3.40634 0
M  V30 10331 H 963.222 0.548794 0.373793 0
M  V30 10332 H 965.752 1.96177 0.581017 0
M  V30 10333 H 965.762 2.94906 2.81948 0
M  V30 10334 H 964.437 3.68335 1.93137 0
M  V30 10335 H 963.014 2.20251 3.00905 0
M  V30 10336 N 965.199 -0.738761 1.39212 0
M  V30 10337 C 966.129 -1.86602 1.40364 0
M  V30 10338 C 967.11 -1.67984 0.267495 0
M  V30 10339 O 968.295 -1.88358 0.472765 0
M  V30 10340 C 965.425 -3.24308 1.24265 0
M  V30 10341 C 964.379 -3.57557 2.35239 0
M  V30 10342 C 963.705 -4.94159 2.04233 0
M  V30 10343 C 965.005 -3.60914 3.77543 0
M  V30 10344 H 966.699 -1.85896 2.34698 0
M  V30 10345 H 964.245 -0.892959 1.1297 0
M  V30 10346 H 966.198 -4.02838 1.23692 0
M  V30 10347 H 964.922 -3.25531 0.263974 0
M  V30 10348 H 963.581 -2.81354 2.35022 0
M  V30 10349 H 963.229 -4.91959 1.04813 0
M  V30 10350 H 962.929 -5.17373 2.78567 0
M  V30 10351 H 964.453 -5.7505 2.05303 0
M  V30 10352 H 965.867 -4.29528 3.79709 0
M  V30 10353 H 964.264 -3.95644 4.51205 0
M  V30 10354 H 965.334 -2.60803 4.08791 0
M  V30 10355 N 966.677 -1.24326 -0.968545 0
M  V30 10356 C 967.607 -1.05951 -2.08079 0
M  V30 10357 C 968.588 0.0272666 -1.70078 0
M  V30 10358 O 969.773 -0.139644 -1.93697 0
M  V30 10359 C 966.903 -0.662623 -3.4092 0
M  V30 10360 C 965.857 -1.69807 -3.92873 0
M  V30 10361 C 965.183 -1.15628 -5.22048 0
M  V30 10362 C 966.483 -3.09383 -4.20808 0
M  V30 10363 H 968.177 -1.98984 -2.23709 0
M  V30 10364 H 965.723 -0.958112 -1.075 0
M  V30 10365 H 967.676 -0.521071 -4.18166 0
M  V30 10366 H 966.4 0.303399 -3.25188 0
M  V30 10367 H 965.059 -1.82783 -3.17783 0
M  V30 10368 H 964.707 -0.180888 -5.02675 0
M  V30 10369 H 964.407 -1.84822 -5.57776 0
M  V30 10370 H 965.931 -1.02683 -6.01904 0
M  V30 10371 H 967.345 -2.99642 -4.88761 0
M  V30 10372 H 965.742 -3.75923 -4.67763 0
M  V30 10373 H 966.812 -3.57486 -3.27616 0
M  V30 10374 N 968.156 1.1691 -1.05688 0
M  V30 10375 C 969.086 2.23275 -0.683402 0
M  V30 10376 C 970.067 1.6704 0.321206 0
M  V30 10377 O 971.252 1.93191 0.197691 0
M  V30 10378 C 968.382 3.47244 -0.0626006 0
M  V30 10379 C 967.336 4.16333 -0.992513 0
M  V30 10380 C 966.662 5.34182 -0.23533 0
M  V30 10381 C 967.962 4.68002 -2.31886 0
M  V30 10382 H 969.656 2.54771 -1.57264 0
M  V30 10383 H 967.202 1.2246 -0.757606 0
M  V30 10384 H 969.155 4.20874 0.210503 0
M  V30 10385 H 967.879 3.1503 0.861616 0
M  V30 10386 H 966.538 3.44622 -1.25026 0
M  V30 10387 H 966.186 4.9822 0.69181 0
M  V30 10388 H 965.886 5.81346 -0.855002 0
M  V30 10389 H 967.41 6.10592 0.0303717 0
M  V30 10390 H 968.824 5.33244 -2.10531 0
M  V30 10391 H 967.221 5.25764 -2.89296 0
M  V30 10392 H 968.291 3.84541 -2.95391 0
M  V30 10393 N 969.634 0.838594 1.33437 0
M  V30 10394 C 970.564 0.286672 2.31734 0
M  V30 10395 C 971.545 -0.605451 1.5896 0
M  V30 10396 O 972.73 -0.529059 1.86854 0
M  V30 10397 C 969.86 -0.539311 3.43087 0
M  V30 10398 C 968.814 0.256997 4.27228 0
M  V30 10399 C 968.14 -0.692718 5.30194 0
M  V30 10400 C 969.44 1.47391 5.01072 0
M  V30 10401 H 971.134 1.10798 2.78144 0
M  V30 10402 H 968.68 0.534235 1.33723 0
M  V30 10403 H 970.633 -0.935724 4.1088 0
M  V30 10404 H 969.357 -1.39383 2.95364 0
M  V30 10405 H 968.016 0.634967 3.61059 0
M  V30 10406 H 967.664 -1.54363 4.78729 0
M  V30 10407 H 967.364 -0.164023 5.87371 0
M  V30 10408 H 968.888 -1.08665 6.00853 0
M  V30 10409 H 970.302 1.15067 5.61634 0
M  V30 10410 H 968.699 1.93937 5.67898 0
M  V30 10411 H 969.769 2.24382 4.29861 0
M  V30 10412 N 971.112 -1.45937 0.595003 0
M  V30 10413 C 972.042 -2.33198 -0.11871 0
M  V30 10414 C 973.023 -1.46083 -0.871423 0
M  V30 10415 O 974.208 -1.74879 -0.844461 0
M  V30 10416 C 971.338 -3.28576 -1.12495 0
M  V30 10417 C 970.292 -4.25229 -0.486275 0
M  V30 10418 C 969.618 -5.10204 -1.59986 0
M  V30 10419 C 970.918 -5.19019 0.584473 0
M  V30 10420 H 972.612 -2.93122 0.609886 0
M  V30 10421 H 970.158 -1.40951 0.294742 0
M  V30 10422 H 972.111 -3.88485 -1.6327 0
M  V30 10423 H 970.835 -2.66784 -1.88398 0
M  V30 10424 H 969.494 -3.666 0.000507962 0
M  V30 10425 H 969.142 -4.44789 -2.34886 0
M  V30 10426 H 968.842 -5.75669 -1.1781 0
M  V30 10427 H 970.366 -5.7298 -2.11014 0
M  V30 10428 H 971.78 -5.73073 0.161297 0
M  V30 10429 H 970.177 -5.92893 0.927256 0
M  V30 10430 H 971.247 -4.62208 1.46601 0
M  V30 10431 N 972.59 -0.333456 -1.54032 0
M  V30 10432 C 973.837 0.266133 -2.00744 0
M  V30 10433 C 974.165 1.51361 -1.22148 0
M  V30 10434 O 973.42 1.93473 -0.294368 0
M  V30 10435 C 973.719 0.63565 -3.51702 0
M  V30 10436 C 973.385 -0.513786 -4.47963 0
M  V30 10437 C 972.047 -0.829253 -4.74001 0
M  V30 10438 C 974.399 -1.2854 -5.05101 0
M  V30 10439 C 971.727 -1.91888 -5.54433 0
M  V30 10440 C 974.079 -2.3652 -5.86721 0
M  V30 10441 C 972.743 -2.68637 -6.11057 0
M  V30 10442 H 972.013 0.097385 -0.734573 0
M  V30 10443 H 974.66 -0.459282 -1.85911 0
M  V30 10444 H 972.965 1.44163 -3.64313 0
M  V30 10445 H 974.662 1.11129 -3.85294 0
M  V30 10446 H 971.252 -0.25784 -4.27824 0
M  V30 10447 H 975.436 -1.05494 -4.84958 0
M  V30 10448 H 970.692 -2.17208 -5.71516 0
M  V30 10449 H 974.866 -2.96747 -6.30011 0
M  V30 10450 H 972.493 -3.53197 -6.73169 0
M  V30 10451 N 974.068 1.57479 -0.061844 0
M  V30 10452 C 974.998 2.15181 0.9066 0
M  V30 10453 C 975.979 1.07624 1.31724 0
M  V30 10454 O 977.164 1.35614 1.39006 0
M  V30 10455 C 974.294 2.70542 2.17771 0
M  V30 10456 C 973.248 3.83178 1.9068 0
M  V30 10457 C 972.574 4.25099 3.24337 0
M  V30 10458 C 973.874 5.07853 1.21994 0
M  V30 10459 H 975.568 2.96355 0.42594 0
M  V30 10460 H 973.114 1.42556 0.203435 0
M  V30 10461 H 975.067 3.09552 2.85929 0
M  V30 10462 H 973.791 1.86575 2.68062 0
M  V30 10463 H 972.45 3.44656 1.24931 0
M  V30 10464 H 972.098 3.38069 3.72449 0
M  V30 10465 H 971.798 5.01021 3.07005 0
M  V30 10466 H 973.322 4.66718 3.93709 0
M  V30 10467 H 974.736 5.44242 1.80204 0
M  V30 10468 H 973.133 5.88987 1.14954 0
M  V30 10469 H 974.203 4.84497 0.197536 0
M  V30 10470 N 975.546 -0.211634 1.56173 0
M  V30 10471 C 976.793 -0.93455 1.79645 0
M  V30 10472 C 977.121 -1.83936 0.632294 0
M  V30 10473 O 976.376 -1.91919 -0.382841 0
M  V30 10474 C 976.675 -1.79657 3.08963 0
M  V30 10475 C 976.341 -1.04415 4.38644 0
M  V30 10476 C 975.003 -0.836351 4.73876 0
M  V30 10477 C 977.355 -0.51355 5.18664 0
M  V30 10478 C 974.683 -0.0861976 5.86637 0
M  V30 10479 C 977.035 0.223309 6.32206 0
M  V30 10480 C 975.699 0.442279 6.66033 0
M  V30 10481 H 974.969 -0.341976 0.657368 0
M  V30 10482 H 977.616 -0.202024 1.90431 0
M  V30 10483 H 975.921 -2.59726 2.93342 0
M  V30 10484 H 977.618 -2.35823 3.24328 0
M  V30 10485 H 974.208 -1.21611 4.10985 0
M  V30 10486 H 978.392 -0.661541 4.91871 0
M  V30 10487 H 973.648 0.0935866 6.11328 0
M  V30 10488 H 977.822 0.641917 6.93435 0
M  V30 10489 H 975.449 1.02547 7.53252 0
M  V30 10490 N 977.024 -1.50153 -0.478725 0
M  V30 10491 C 978.273 -1.60002 -1.22809 0
M  V30 10492 C 978.586 -0.302277 -1.9325 0
M  V30 10493 O 979.792 -0.279583 -2.70057 0
M  V30 10494 C 978.248 -2.82402 -2.23108 0
M  V30 10495 C 977.856 -4.19023 -1.58505 0
M  V30 10496 C 979.6 -3.01593 -2.98734 0
M  V30 10497 C 977.507 -5.32618 -2.57045 0
M  V30 10498 H 976.437 -0.595822 -0.462073 0
M  V30 10499 H 979.088 -1.76573 -0.499412 0
M  V30 10500 H 977.47 -2.59373 -2.99235 0
M  V30 10501 H 978.644 -4.52277 -0.882187 0
M  V30 10502 H 976.959 -4.05374 -0.951877 0
M  V30 10503 H 979.556 -3.8363 -3.72468 0
M  V30 10504 H 979.899 -2.1302 -3.57671 0
M  V30 10505 H 980.432 -3.24766 -2.29721 0
M  V30 10506 H 977.171 -6.23321 -2.02858 0
M  V30 10507 H 976.691 -5.03792 -3.25505 0
M  V30 10508 H 978.37 -5.62877 -3.19028 0
M  V30 10509 N 978.502 0.731368 -1.39602 0
M  V30 10510 C 979.751 1.48647 -1.36334 0
M  V30 10511 C 980.064 1.95565 0.0367383 0
M  V30 10512 O 981.27 2.7082 0.192017 0
M  V30 10513 C 979.726 2.68616 -2.39528 0
M  V30 10514 C 979.334 2.28632 -3.85268 0
M  V30 10515 C 981.078 3.46422 -2.45341 0
M  V30 10516 C 978.985 3.45345 -4.80095 0
M  V30 10517 H 977.915 0.558218 -0.506861 0
M  V30 10518 H 980.566 0.797467 -1.65266 0
M  V30 10519 H 978.948 3.39609 -2.03671 0
M  V30 10520 H 980.122 1.65162 -4.30184 0
M  V30 10521 H 978.437 1.63909 -3.82783 0
M  V30 10522 H 981.034 4.33241 -3.13379 0
M  V30 10523 H 981.377 3.8914 -1.47904 0
M  V30 10524 H 981.91 2.82461 -2.80108 0
M  V30 10525 H 978.649 3.07674 -5.78807 0
M  V30 10526 H 978.169 4.07784 -4.39855 0
M  V30 10527 H 979.848 4.1163 -4.99169 0
M  V30 10528 N 979.98 1.24838 0.961938 0
M  V30 10529 C 981.229 1.0855 1.69999 0
M  V30 10530 C 981.542 -0.374645 1.91979 0
M  V30 10531 O 982.748 -0.657822 2.6341 0
M  V30 10532 C 981.204 1.89424 3.06017 0
M  V30 10533 C 980.812 3.39885 2.9186 0
M  V30 10534 C 982.556 1.81684 3.83655 0
M  V30 10535 C 980.463 4.13082 4.23223 0
M  V30 10536 H 979.393 0.402603 0.637516 0
M  V30 10537 H 982.044 1.4897 1.07146 0
M  V30 10538 H 980.426 1.41823 3.69733 0
M  V30 10539 H 981.6 3.95108 2.37121 0
M  V30 10540 H 979.915 3.4864 2.27683 0
M  V30 10541 H 982.512 2.3367 4.80939 0
M  V30 10542 H 982.855 0.783247 4.08865 0
M  V30 10543 H 983.388 2.26997 3.26676 0
M  V30 10544 H 980.127 5.16824 4.03204 0
M  V30 10545 H 979.647 3.62644 4.77755 0
M  V30 10546 H 981.326 4.20397 4.91808 0
M  V30 10547 N 981.458 -1.16348 1.06306 0
M  V30 10548 C 982.705 -1.86881 0.779852 0
M  V30 10549 C 983.033 -1.8171 -0.693668 0
M  V30 10550 O 982.288 -1.22769 -1.52401 0
M  V30 10551 C 982.587 -3.35936 1.21991 0
M  V30 10552 C 982.253 -3.61307 2.69756 0
M  V30 10553 C 980.915 -3.6794 3.10119 0
M  V30 10554 C 983.267 -3.71871 3.65187 0
M  V30 10555 C 980.595 -3.82639 4.44752 0
M  V30 10556 C 982.947 -3.88091 4.99568 0
M  V30 10557 C 981.611 -3.92967 5.39568 0
M  V30 10558 H 980.881 -0.683847 0.285368 0
M  V30 10559 H 983.528 -1.37569 1.33218 0
M  V30 10560 H 981.833 -3.87381 0.586774 0
M  V30 10561 H 983.53 -3.88895 0.977821 0
M  V30 10562 H 980.12 -3.56777 2.37504 0
M  V30 10563 H 984.304 -3.66057 3.35136 0
M  V30 10564 H 979.56 -3.84666 4.75228 0
M  V30 10565 H 983.734 -3.95207 5.73397 0
M  V30 10566 H 981.361 -4.04109 6.43895 0
M  V30 10567 N 982.937 -0.845659 -1.3299 0
M  V30 10568 C 984.162 -0.457435 -2.02293 0
M  V30 10569 C 984.587 0.935634 -1.63179 0
M  V30 10570 O 983.945 1.61297 -0.827835 0
M  V30 10571 C 983.993 -0.593665 -3.5568 0
M  V30 10572 O 983.097 0.37729 -4.10671 0
M  V30 10573 H 982.438 -0.185022 -0.637701 0
M  V30 10574 H 984.968 -1.14237 -1.69738 0
M  V30 10575 H 984.978 -0.477834 -4.05192 0
M  V30 10576 H 983.653 -1.60957 -3.83491 0
M  V30 10577 H 982.23 0.218448 -3.7226 0
M  V30 10578 N 984.415 1.45619 -0.602734 0
M  V30 10579 C 985.345 2.33258 0.106342 0
M  V30 10580 C 986.326 1.46543 0.863664 0
M  V30 10581 O 987.511 1.75324 0.835175 0
M  V30 10582 C 984.641 3.29168 1.10751 0
M  V30 10583 C 983.595 4.25481 0.463717 0
M  V30 10584 C 982.921 5.11046 1.57278 0
M  V30 10585 C 984.221 5.18702 -0.61199 0
M  V30 10586 H 985.915 2.92795 -0.625423 0
M  V30 10587 H 983.461 1.40793 -0.302213 0
M  V30 10588 H 985.414 3.89346 1.61208 0
M  V30 10589 H 984.138 2.6778 1.8698 0
M  V30 10590 H 982.797 3.66595 -0.0199496 0
M  V30 10591 H 982.445 4.46029 2.32524 0
M  V30 10592 H 982.145 5.76286 1.14755 0
M  V30 10593 H 983.669 5.74091 2.07972 0
M  V30 10594 H 985.083 5.72979 -0.191686 0
M  V30 10595 H 983.48 5.92393 -0.958686 0
M  V30 10596 H 984.55 4.61424 -1.4905 0
M  V30 10597 N 985.893 0.34162 1.53853 0
M  V30 10598 C 986.823 -0.508431 2.27897 0
M  V30 10599 C 987.804 -1.10425 1.29384 0
M  V30 10600 O 988.989 -1.126 1.58224 0
M  V30 10601 C 986.119 -1.66048 3.05034 0
M  V30 10602 C 985.073 -1.19309 4.11035 0
M  V30 10603 C 984.399 -2.4335 4.76114 0
M  V30 10604 C 985.699 -0.294952 5.21467 0
M  V30 10605 H 987.393 0.109251 2.99201 0
M  V30 10606 H 984.939 0.0539847 1.43899 0
M  V30 10607 H 986.892 -2.26158 3.5557 0
M  V30 10608 H 985.616 -2.30503 2.31379 0
M  V30 10609 H 984.275 -0.614809 3.61408 0
M  V30 10610 H 983.923 -3.06208 3.99056 0
M  V30 10611 H 983.623 -2.1276 5.47729 0
M  V30 10612 H 985.147 -3.0419 5.29434 0
M  V30 10613 H 986.561 -0.80285 5.67651 0
M  V30 10614 H 984.958 -0.0810221 6.00045 0
M  V30 10615 H 986.028 0.669433 4.80257 0
M  V30 10616 N 987.371 -1.57444 0.0701946 0
M  V30 10617 C 988.619 -1.93047 -0.598106 0
M  V30 10618 C 988.94 -0.950841 -1.70247 0
M  V30 10619 O 988.21 0.00127177 -1.959 0
M  V30 10620 H 986.79 -0.712648 -0.223924 0
M  V30 10621 H 989.452 -1.94481 0.127674 0
M  V30 10622 H 988.548 -2.94807 -1.02445 0
M  V30 10623 N 988.849 0.203349 -1.56283 0
M  V30 10624 C 989.782 1.27982 -1.88934 0
M  V30 10625 C 990.76 1.44345 -0.748555 0
M  V30 10626 O 991.944 1.59867 -0.998741 0
M  V30 10627 C 989.071 2.64762 -2.11231 0
M  V30 10628 C 988.117 2.65315 -3.33932 0
M  V30 10629 S 988.95 2.17568 -4.8931 0
M  V30 10630 C 990.106 3.56189 -5.14665 0
M  V30 10631 H 990.339 1.00095 -2.79943 0
M  V30 10632 H 987.872 0.406458 -1.48954 0
M  V30 10633 H 989.83 3.43501 -2.2476 0
M  V30 10634 H 988.491 2.89864 -1.20986 0
M  V30 10635 H 987.684 3.6587 -3.46634 0
M  V30 10636 H 987.286 1.94652 -3.19353 0
M  V30 10637 H 989.578 4.52001 -5.0468 0
M  V30 10638 H 990.521 3.48387 -6.16467 0
M  V30 10639 H 990.929 3.50719 -4.42331 0
M  V30 10640 N 990.327 1.50405 0.470755 0
M  V30 10641 C 991.259 1.65447 1.58619 0
M  V30 10642 C 992.272 0.535949 1.53725 0
M  V30 10643 O 993.461 0.80914 1.59107 0
M  V30 10644 C 990.561 1.62318 2.975 0
M  V30 10645 C 989.734 2.90207 3.27259 0
M  V30 10646 C 988.793 2.79717 4.45696 0
M  V30 10647 O 987.819 3.53672 4.45987 0
M  V30 10648 N 989.021 1.93296 5.47373 0
M  V30 10649 H 991.786 2.61659 1.46132 0
M  V30 10650 H 989.347 1.47873 0.659178 0
M  V30 10651 H 991.339 1.52912 3.747 0
M  V30 10652 H 989.909 0.738392 3.03754 0
M  V30 10653 H 989.129 3.13737 2.38669 0
M  V30 10654 H 990.417 3.74931 3.43953 0
M  V30 10655 H 989.815 1.32524 5.49958 0
M  V30 10656 H 988.372 1.89793 6.23556 0
M  V30 10657 N 991.805 -0.723954 1.39988 0
M  V30 10658 C 992.735 -1.85103 1.42335 0
M  V30 10659 C 993.716 -1.6769 0.285297 0
M  V30 10660 O 994.901 -1.87846 0.492716 0
M  V30 10661 C 992.031 -3.22972 1.27697 0
M  V30 10662 C 990.985 -3.55041 2.39018 0
M  V30 10663 C 990.311 -4.91965 2.09462 0
M  V30 10664 C 991.611 -3.56889 3.8135 0
M  V30 10665 H 993.305 -1.83396 2.36656 0
M  V30 10666 H 990.851 -0.880926 1.13911 0
M  V30 10667 H 992.804 -4.01503 1.27958 0
M  V30 10668 H 991.528 -3.25233 0.298487 0
M  V30 10669 H 990.187 -2.78845 2.37993 0
M  V30 10670 H 989.835 -4.90819 1.10025 0
M  V30 10671 H 989.535 -5.14389 2.84038 0
M  V30 10672 H 991.059 -5.7284 2.11391 0
M  V30 10673 H 992.473 -4.25476 3.84243 0
M  V30 10674 H 990.87 -3.90836 4.55376 0
M  V30 10675 H 991.94 -2.56452 4.11534 0
M  V30 10676 N 993.283 -1.25346 -0.955304 0
M  V30 10677 C 994.53 -1.10055 -1.69983 0
M  V30 10678 C 994.858 0.358586 -1.91166 0
M  V30 10679 O 994.113 1.28071 -1.47974 0
M  V30 10680 C 994.412 -1.7993 -3.08804 0
M  V30 10681 C 994.078 -3.29851 -3.07424 0
M  V30 10682 C 992.74 -3.7075 -3.06754 0
M  V30 10683 C 995.092 -4.25636 -3.00805 0
M  V30 10684 C 992.42 -5.05847 -2.97214 0
M  V30 10685 C 994.772 -5.60756 -2.92806 0
M  V30 10686 C 993.436 -6.00984 -2.90472 0
M  V30 10687 H 992.706 -0.402718 -0.622012 0
M  V30 10688 H 995.353 -1.5561 -1.11614 0
M  V30 10689 H 993.658 -1.26803 -3.70713 0
M  V30 10690 H 995.355 -1.65551 -3.65231 0
M  V30 10691 H 991.945 -2.97308 -3.08716 0
M  V30 10692 H 996.129 -3.9503 -3.00441 0
M  V30 10693 H 991.385 -5.36196 -2.93775 0
M  V30 10694 H 995.559 -6.34671 -2.86645 0
M  V30 10695 H 993.186 -7.05626 -2.82835 0
M  V30 10696 N 994.761 1.15782 -1.06922 0
M  V30 10697 C 996.009 1.86097 -0.788192 0
M  V30 10698 C 996.33 1.82475 0.687606 0
M  V30 10699 O 995.6 1.26266 1.49778 0
M  V30 10700 H 994.18 0.689008 -0.288577 0
M  V30 10701 H 996.842 1.40377 -1.35205 0
M  V30 10702 H 995.938 2.91358 -1.1188 0
M  V30 10703 N 996.239 0.8527 1.3254 0
M  V30 10704 C 997.487 0.454224 1.96929 0
M  V30 10705 C 997.808 -0.993034 1.67821 0
M  V30 10706 O 997.078 -1.69371 0.984393 0
M  V30 10707 H 995.658 0.164977 0.728554 0
M  V30 10708 H 998.32 1.0887 1.61658 0
M  V30 10709 H 997.416 0.597667 3.06324 0
M  V30 10710 N 997.718 -1.45297 0.610449 0
M  V30 10711 C 998.665 -2.30553 -0.106718 0
M  V30 10712 C 999.635 -1.42272 -0.85719 0
M  V30 10713 O 1000.82 -1.71199 -0.842357 0
M  V30 10714 C 997.96 -3.27226 -1.09623 0
M  V30 10715 C 997.073 -4.3061 -0.346329 0
M  V30 10716 C 996.208 -5.14389 -1.32581 0
M  V30 10717 C 995.247 -6.09497 -0.563892 0
M  V30 10718 N 994.384 -6.86047 -1.4928 0
M  V30 10719 H 999.224 -2.91344 0.626296 0
M  V30 10720 H 996.761 -1.43563 0.32065 0
M  V30 10721 H 998.719 -3.81744 -1.68308 0
M  V30 10722 H 997.349 -2.68182 -1.79662 0
M  V30 10723 H 996.401 -3.7873 0.356084 0
M  V30 10724 H 997.713 -4.98183 0.248026 0
M  V30 10725 H 996.867 -5.73321 -1.98464 0
M  V30 10726 H 995.606 -4.4684 -1.9541 0
M  V30 10727 H 994.611 -5.49693 0.108551 0
M  V30 10728 H 995.836 -6.79074 0.0593872 0
M  V30 10729 H 993.782 -6.21185 -2.10868 0
M  V30 10730 H 993.699 -7.49983 -0.951953 0
M  V30 10731 H 994.967 -7.49518 -2.14112 0
M  V30 10732 N 999.196 -0.349774 -1.5367 0
M  V30 10733 C 1000.44 0.244827 -2.01015 0
M  V30 10734 C 1000.77 1.50057 -1.23746 0
M  V30 10735 O 1000.03 1.9315 -0.314872 0
M  V30 10736 C 1000.32 0.598311 -3.52356 0
M  V30 10737 C 999.991 -0.56127 -4.47393 0
M  V30 10738 C 998.653 -0.879481 -4.73095 0
M  V30 10739 C 1001 -1.3389 -5.03709 0
M  V30 10740 C 998.333 -1.97758 -5.52366 0
M  V30 10741 C 1000.68 -2.4273 -5.84179 0
M  V30 10742 C 999.349 -2.75103 -6.08173 0
M  V30 10743 H 998.619 0.0895884 -0.735564 0
M  V30 10744 H 1001.27 -0.478975 -1.85413 0
M  V30 10745 H 999.571 1.40291 -3.65822 0
M  V30 10746 H 1001.27 1.07036 -3.86451 0
M  V30 10747 H 997.858 -0.303201 -4.27526 0
M  V30 10748 H 1002.04 -1.10632 -4.83812 0
M  V30 10749 H 997.298 -2.23257 -5.6918 0
M  V30 10750 H 1001.47 -3.03412 -6.26828 0
M  V30 10751 H 999.099 -3.60317 -6.69385 0
M  V30 10752 N 1000.67 1.57404 -0.0785433 0
M  V30 10753 C 1001.62 2.14316 0.903949 0
M  V30 10754 C 1002.62 1.08176 1.30362 0
M  V30 10755 O 1003.82 1.26546 1.28008 0
M  V30 10756 H 1000.2 0.685367 0.309477 0
M  V30 10757 H 1002.17 2.95719 0.399081 0
M  V30 10758 C 1000.92 2.72504 2.15956 0
M  V30 10759 H 1000.24 3.53853 1.86087 0
M  V30 10760 H 1001.68 3.15914 2.82798 0
M  V30 10761 C 1000.14 1.6759 2.92259 0
M  V30 10762 O 1000.67 1.10492 3.86205 0
M  V30 10763 N 998.875 1.38467 2.5549 0
M  V30 10764 H 998.422 1.85088 1.79166 0
M  V30 10765 H 998.38 0.685053 3.06846 0
M  V30 10766 N 1002.15 -0.195058 1.56388 0
M  V30 10767 C 1003.4 -0.915444 1.80626 0
M  V30 10768 C 1003.73 -1.83255 0.651768 0
M  V30 10769 O 1002.98 -1.92314 -0.362464 0
M  V30 10770 C 1003.28 -1.7637 3.10851 0
M  V30 10771 C 1002.95 -0.997572 4.39726 0
M  V30 10772 C 1001.61 -0.786043 4.74737 0
M  V30 10773 C 1003.96 -0.45851 5.19179 0
M  V30 10774 C 1001.29 -0.023972 5.86695 0
M  V30 10775 C 1003.64 0.29035 6.31933 0
M  V30 10776 C 1002.3 0.512895 6.65527 0
M  V30 10777 H 1001.57 -0.334985 0.660959 0
M  V30 10778 H 1004.22 -0.181815 1.90635 0
M  V30 10779 H 1002.53 -2.566 2.9608 0
M  V30 10780 H 1004.22 -2.3237 3.26811 0
M  V30 10781 H 1000.81 -1.17245 4.12252 0
M  V30 10782 H 1005 -0.609334 4.92545 0
M  V30 10783 H 1000.25 0.158421 6.11195 0
M  V30 10784 H 1004.43 0.715429 6.92715 0
M  V30 10785 H 1002.05 1.10531 7.52122 0
M  V30 10786 N 1003.63 -1.50653 -0.462772 0
M  V30 10787 C 1004.91 -1.5258 -1.22387 0
M  V30 10788 C 1005.29 -0.275263 -2.09298 0
M  V30 10789 O 1004.63 0.740943 -2.16153 0
M  V30 10790 C 1004.84 -2.82611 -2.04773 0
M  V30 10791 C 1006.19 -3.33592 -2.62681 0
M  V30 10792 O 1007.22 -2.83989 -2.15008 0
M  V30 10793 O 1006.08 -4.20081 -3.49563 0
M  V30 10794 H 1003.17 -0.612367 -0.55582 0
M  V30 10795 H 1005.72 -1.62948 -0.473914 0
M  V30 10796 H 1004.49 -3.65098 -1.40781 0
M  V30 10797 H 1004.11 -2.75286 -2.86886 0
M  V30 10798 N 1005.11 0.71652 -1.4037 0
M  V30 10799 C 1006.02 1.86074 -1.42876 0
M  V30 10800 C 1007.03 1.71005 -0.321475 0
M  V30 10801 O 1008.21 1.93286 -0.565909 0
M  V30 10802 C 1005.28 3.21862 -1.28863 0
M  V30 10803 C 1004.34 3.49193 -2.49726 0
M  V30 10804 C 1003.57 4.78502 -2.36372 0
M  V30 10805 O 1003.79 5.53529 -1.37703 0
M  V30 10806 O 1002.73 5.06147 -3.25728 0
M  V30 10807 H 1006.55 1.86916 -2.39366 0
M  V30 10808 H 1004.14 0.866818 -1.21683 0
M  V30 10809 H 1006.02 4.02972 -1.23253 0
M  V30 10810 H 1004.69 3.2175 -0.354783 0
M  V30 10811 H 1003.6 2.68095 -2.60913 0
M  V30 10812 H 1004.93 3.54101 -3.41868 0
M  V30 10813 N 1006.59 1.25851 0.948643 0
M  V30 10814 C 1007.52 1.0108 2.04593 0
M  V30 10815 C 1008.5 -0.0619691 1.62482 0
M  V30 10816 O 1009.68 0.0789196 1.88335 0
M  V30 10817 C 1006.81 0.529174 3.34541 0
M  V30 10818 C 1005.85 1.59337 3.95618 0
M  V30 10819 S 1006.69 3.18026 4.30836 0
M  V30 10820 C 1007.84 2.71613 5.63895 0
M  V30 10821 H 1008.08 1.93988 2.2529 0
M  V30 10822 H 1005.61 1.09448 1.08906 0
M  V30 10823 H 1007.57 0.25795 4.09689 0
M  V30 10824 H 1006.23 -0.37951 3.11799 0
M  V30 10825 H 1005.42 1.20722 4.89328 0
M  V30 10826 H 1005.02 1.81559 3.26975 0
M  V30 10827 H 1007.32 2.15612 6.42275 0
M  V30 10828 H 1008.26 3.63986 6.07387 0
M  V30 10829 H 1008.67 2.11417 5.23415 0
M  V30 10830 N 1008.06 -1.15214 1.07534 0
M  V30 10831 C 1009 -2.19634 0.655261 0
M  V30 10832 C 1010.01 -1.60139 -0.293165 0
M  V30 10833 O 1011.2 -1.78311 -0.0821957 0
M  V30 10834 C 1008.3 -3.38851 -0.0578281 0
M  V30 10835 C 1007.47 -4.27888 0.90725 0
M  V30 10836 C 1006.53 -5.25692 0.231115 0
M  V30 10837 O 1005.56 -5.62469 0.872746 0
M  V30 10838 N 1006.76 -5.71424 -1.0225 0
M  V30 10839 H 1009.52 -2.56292 1.55353 0
M  V30 10840 H 1007.08 -1.30347 0.960271 0
M  V30 10841 H 1009.08 -4.01334 -0.520874 0
M  V30 10842 H 1007.65 -3.00593 -0.858071 0
M  V30 10843 H 1006.87 -3.62475 1.54937 0
M  V30 10844 H 1008.15 -4.84246 1.56151 0
M  V30 10845 H 1007.55 -5.43659 -1.56369 0
M  V30 10846 H 1006.11 -6.35938 -1.42919 0
M  V30 10847 N 1009.54 -0.859717 -1.32086 0
M  V30 10848 C 1010.77 -0.479724 -2.01262 0
M  V30 10849 C 1011.19 0.924985 -1.64589 0
M  V30 10850 O 1010.54 1.60439 -0.869803 0
M  V30 10851 C 1010.59 -0.615128 -3.56228 0
M  V30 10852 O 1010.31 -1.96451 -3.91585 0
M  V30 10853 C 1011.82 -0.234804 -4.42678 0
M  V30 10854 H 1009.04 -0.188007 -0.644123 0
M  V30 10855 H 1011.58 -1.15805 -1.68551 0
M  V30 10856 H 1009.73 0.0155268 -3.87397 0
M  V30 10857 H 1010.15 -1.96491 -4.86304 0
M  V30 10858 H 1011.62 -0.380534 -5.50687 0
M  V30 10859 H 1012.1 0.825189 -4.31378 0
M  V30 10860 H 1012.71 -0.840739 -4.16907 0
M  V30 10861 N 1011.02 1.44971 -0.618145 0
M  V30 10862 C 1012.44 1.57077 -0.282666 0
M  V30 10863 C 1012.64 1.60782 1.21456 0
M  V30 10864 O 1011.69 1.54382 1.99806 0
M  V30 10865 C 1013.01 2.84858 -0.963148 0
M  V30 10866 C 1014.55 2.9855 -0.940062 0
M  V30 10867 C 1015.03 4.29115 -1.60076 0
M  V30 10868 N 1016.52 4.35899 -1.56674 0
M  V30 10869 C 1017.25 5.35617 -2.04701 0
M  V30 10870 N 1016.75 6.41813 -2.6086 0
M  V30 10871 N 1018.54 5.27042 -1.95406 0
M  V30 10872 H 1010.69 1.4081 -1.59017 0
M  V30 10873 H 1012.96 0.673914 -0.666741 0
M  V30 10874 H 1012.66 2.88059 -2.0178 0
M  V30 10875 H 1012.54 3.73966 -0.492901 0
M  V30 10876 H 1014.92 2.94909 0.10607 0
M  V30 10877 H 1015.01 2.10825 -1.44868 0
M  V30 10878 H 1014.65 4.33514 -2.64627 0
M  V30 10879 H 1014.58 5.15675 -1.06708 0
M  V30 10880 H 1017.07 3.59766 -1.15659 0
M  V30 10881 H 1017.38 7.14166 -2.95273 0
M  V30 10882 H 1015.73 6.42534 -2.64905 0
M  V30 10883 H 1018.92 4.42987 -1.51263 0
M  V30 10884 H 1019.09 6.04604 -2.33147 0
M  V30 10885 N 1012.5 0.357919 1.53482 0
M  V30 10886 C 1013.91 0.00655107 1.59599 0
M  V30 10887 C 1014.11 -1.47449 1.37336 0
M  V30 10888 O 1013.17 -2.2351 1.17472 0
M  V30 10889 C 1014.48 0.455617 2.97228 0
M  V30 10890 C 1016.03 0.409183 3.10314 0
M  V30 10891 C 1016.51 0.833941 4.50344 0
M  V30 10892 N 1018 0.788695 4.56436 0
M  V30 10893 C 1018.73 1.08914 5.62961 0
M  V30 10894 N 1018.23 1.45847 6.77274 0
M  V30 10895 N 1020.02 1.01243 5.52907 0
M  V30 10896 H 1012.17 1.32248 1.66206 0
M  V30 10897 H 1014.44 0.540047 0.779136 0
M  V30 10898 H 1014.14 1.48881 3.18634 0
M  V30 10899 H 1014.02 -0.161751 3.76853 0
M  V30 10900 H 1016.4 -0.614863 2.88623 0
M  V30 10901 H 1016.48 1.06195 2.32715 0
M  V30 10902 H 1016.13 1.85607 4.72771 0
M  V30 10903 H 1016.06 0.158507 5.26361 0
M  V30 10904 H 1018.55 0.516497 3.74354 0
M  V30 10905 H 1018.86 1.67218 7.54492 0
M  V30 10906 H 1017.21 1.49705 6.78685 0
M  V30 10907 H 1020.4 0.723137 4.62481 0
M  V30 10908 H 1020.57 1.24991 6.35831 0
M  V30 10909 N 1013.98 -1.5736 0.0868897 0
M  V30 10910 C 1015.2 -1.98809 -0.590757 0
M  V30 10911 C 1015.63 -0.965407 -1.61436 0
M  V30 10912 O 1014.98 0.067143 -1.81176 0
M  V30 10913 C 1015.03 -3.39249 -1.22238 0
M  V30 10914 O 1014.14 -3.39706 -2.33824 0
M  V30 10915 H 1013.48 -0.64669 -0.150626 0
M  V30 10916 H 1016.01 -2.03927 0.165873 0
M  V30 10917 H 1016.02 -3.76765 -1.56564 0
M  V30 10918 H 1014.69 -4.13208 -0.472434 0
M  V30 10919 H 1013.27 -3.13977 -2.01178 0
M  V30 10920 N 1015.45 0.186762 -1.56489 0
M  V30 10921 C 1016.68 0.921832 -1.85229 0
M  V30 10922 C 1017.1 1.76496 -0.670416 0
M  V30 10923 O 1016.45 1.78899 0.360758 0
M  V30 10924 C 1016.51 1.81121 -3.12854 0
M  V30 10925 O 1016.23 1.00211 -4.26485 0
M  V30 10926 C 1017.73 2.65725 -3.54831 0
M  V30 10927 H 1014.95 0.268563 -0.61491 0
M  V30 10928 H 1017.49 0.191505 -2.03601 0
M  V30 10929 H 1015.65 2.49506 -2.96354 0
M  V30 10930 H 1016.06 1.60893 -4.99213 0
M  V30 10931 H 1017.53 3.23771 -4.47075 0
M  V30 10932 H 1018.01 3.39843 -2.78215 0
M  V30 10933 H 1018.62 2.02698 -3.7389 0
M  V30 10934 N 1016.93 1.50896 0.454776 0
M  V30 10935 C 1018.18 1.62699 1.20562 0
M  V30 10936 C 1018.51 0.334943 1.91594 0
M  V30 10937 O 1017.76 -0.680106 1.83502 0
M  V30 10938 C 1018.06 2.76839 2.26042 0
M  V30 10939 C 1017.73 4.16745 1.72147 0
M  V30 10940 C 1016.39 4.54809 1.5717 0
M  V30 10941 C 1018.74 5.04118 1.32341 0
M  V30 10942 C 1016.07 5.7797 1.00835 0
M  V30 10943 C 1018.42 6.27842 0.774419 0
M  V30 10944 C 1017.09 6.64694 0.611415 0
M  V30 10945 H 1016.36 0.595358 0.441169 0
M  V30 10946 H 1019 1.84879 0.499202 0
M  V30 10947 H 1017.31 2.48812 3.02655 0
M  V30 10948 H 1019 2.83173 2.83926 0
M  V30 10949 H 1015.59 3.86725 1.84775 0
M  V30 10950 H 1019.78 4.75331 1.42739 0
M  V30 10951 H 1015.03 6.05183 0.869669 0
M  V30 10952 H 1019.21 6.94896 0.457389 0
M  V30 10953 H 1016.84 7.60004 0.172751 0
M  V30 10954 N 1018.41 -0.709066 1.40748 0
M  V30 10955 C 1019.69 -1.4626 1.29874 0
M  V30 10956 C 1020.07 -2.10949 -0.0799322 0
M  V30 10957 O 1019.42 -2.00651 -1.09323 0
M  V30 10958 C 1019.63 -2.49302 2.44232 0
M  V30 10959 C 1020.97 -3.14945 2.84771 0
M  V30 10960 O 1022 -2.59623 2.43873 0
M  V30 10961 O 1020.86 -4.15111 3.5545 0
M  V30 10962 H 1017.95 -0.650716 0.51039 0
M  V30 10963 H 1020.5 -0.740687 1.52682 0
M  V30 10964 H 1019.27 -2.00063 3.36289 0
M  V30 10965 H 1018.89 -3.29021 2.23229 0
M  V30 10966 N 1019.89 -1.26353 -0.941956 0
M  V30 10967 C 1020.84 -1.07654 -2.06188 0
M  V30 10968 C 1021.83 -0.00369741 -1.694 0
M  V30 10969 O 1023.04 -0.160316 -1.79285 0
M  V30 10970 H 1019.41 -0.331274 -0.675101 0
M  V30 10971 H 1021.38 -2.02566 -2.19111 0
M  V30 10972 C 1020.13 -0.725436 -3.40048 0
M  V30 10973 H 1019.46 -1.54283 -3.68832 0
M  V30 10974 H 1020.9 -0.634383 -4.19227 0
M  V30 10975 C 1019.35 0.569369 -3.32054 0
M  V30 10976 O 1019.88 1.60791 -3.68116 0
M  V30 10977 N 1018.09 0.559714 -2.85159 0
M  V30 10978 H 1017.64 -0.285817 -2.56009 0
M  V30 10979 H 1017.6 1.42617 -2.80193 0
M  V30 10980 N 1021.37 1.14642 -1.08144 0
M  V30 10981 C 1022.61 1.85617 -0.809484 0
M  V30 10982 C 1022.94 1.8279 0.664672 0
M  V30 10983 O 1022.2 1.25178 1.50429 0
M  V30 10984 C 1022.5 3.33953 -1.2732 0
M  V30 10985 C 1022.16 3.56969 -2.7547 0
M  V30 10986 C 1020.82 3.6296 -3.15933 0
M  V30 10987 C 1023.18 3.66014 -3.71057 0
M  V30 10988 C 1020.5 3.75515 -4.50783 0
M  V30 10989 C 1022.86 3.80094 -5.05679 0
M  V30 10990 C 1021.52 3.84333 -5.45751 0
M  V30 10991 H 1020.79 0.67922 -0.296211 0
M  V30 10992 H 1023.44 1.35433 -1.35389 0
M  V30 10993 H 1021.74 3.86399 -0.648329 0
M  V30 10994 H 1023.44 3.87291 -1.03957 0
M  V30 10995 H 1020.03 3.52953 -2.4315 0
M  V30 10996 H 1024.21 3.60679 -3.40917 0
M  V30 10997 H 1019.47 3.77057 -4.81288 0
M  V30 10998 H 1023.64 3.86035 -5.79612 0
M  V30 10999 H 1021.27 3.93814 -6.50242 0
M  V30 11000 N 1022.85 0.866709 1.31628 0
M  V30 11001 C 1024.26 0.529032 1.79048 0
M  V30 11002 C 1024.61 -0.953871 1.71452 0
M  V30 11003 O 1023.73 -1.74462 1.28031 0
M  V30 11004 C 1024.33 0.953522 3.25105 0
M  V30 11005 C 1022.89 0.667554 3.70433 0
M  V30 11006 C 1022.03 1.14664 2.52483 0
M  V30 11007 H 1024.98 1.05275 1.18756 0
M  V30 11008 H 1025.01 0.274844 3.79506 0
M  V30 11009 H 1024.52 2.03283 3.30602 0
M  V30 11010 H 1022.62 -0.400532 3.70441 0
M  V30 11011 H 1022.73 1.2423 4.62714 0
M  V30 11012 H 1021.1 0.566502 2.4832 0
M  V30 11013 H 1021.88 2.2333 2.60727 0
M  V30 11014 N 1024.32 -1.44642 0.625825 0
M  V30 11015 C 1025.26 -2.28882 -0.120614 0
M  V30 11016 C 1026.27 -1.40985 -0.81407 0
M  V30 11017 O 1027.46 -1.65188 -0.676404 0
M  V30 11018 C 1024.56 -3.17217 -1.19274 0
M  V30 11019 C 1023.73 -4.33499 -0.582839 0
M  V30 11020 C 1022.79 -5.02908 -1.54823 0
M  V30 11021 O 1021.82 -5.59102 -1.06743 0
M  V30 11022 N 1023.02 -5.0387 -2.88262 0
M  V30 11023 H 1025.78 -2.93585 0.602318 0
M  V30 11024 H 1023.34 -1.5503 0.466604 0
M  V30 11025 H 1025.34 -3.60515 -1.83878 0
M  V30 11026 H 1023.91 -2.54301 -1.81797 0
M  V30 11027 H 1023.13 -3.93458 0.241696 0
M  V30 11028 H 1024.41 -5.08561 -0.155914 0
M  V30 11029 H 1023.81 -4.59539 -3.2991 0
M  V30 11030 H 1022.37 -5.50974 -3.4824 0
M  V30 11031 N 1025.8 -0.366053 -1.5329 0
M  V30 11032 C 1027.03 0.226839 -2.06156 0
M  V30 11033 C 1027.45 1.41637 -1.23776 0
M  V30 11034 O 1026.81 1.7947 -0.256948 0
M  V30 11035 C 1026.86 0.597956 -3.55608 0
M  V30 11036 O 1025.96 1.69512 -3.75951 0
M  V30 11037 H 1025.3 0.0329156 -0.663184 0
M  V30 11038 H 1027.83 -0.526793 -1.97702 0
M  V30 11039 H 1027.84 0.868831 -3.98642 0
M  V30 11040 H 1026.52 -0.271838 -4.15011 0
M  V30 11041 H 1025.09 1.41976 -3.44815 0
M  V30 11042 N 1027.28 1.57312 -0.0952337 0
M  V30 11043 C 1028.21 2.17056 0.860753 0
M  V30 11044 C 1029.19 1.10394 1.29411 0
M  V30 11045 O 1030.38 1.38532 1.36098 0
M  V30 11046 C 1027.51 2.751 2.11984 0
M  V30 11047 C 1026.46 3.87136 1.8251 0
M  V30 11048 C 1025.79 4.31883 3.15247 0
M  V30 11049 C 1027.09 5.10326 1.11194 0
M  V30 11050 H 1028.78 2.97192 0.362983 0
M  V30 11051 H 1026.33 1.42955 0.173151 0
M  V30 11052 H 1028.28 3.15547 2.79299 0
M  V30 11053 H 1027 1.92219 2.64044 0
M  V30 11054 H 1025.66 3.47229 1.17592 0
M  V30 11055 H 1025.31 3.45893 3.65195 0
M  V30 11056 H 1025.01 5.0742 2.96309 0
M  V30 11057 H 1026.53 4.74964 3.83721 0
M  V30 11058 H 1027.95 5.47942 1.6862 0
M  V30 11059 H 1026.34 5.91293 1.02435 0
M  V30 11060 H 1027.41 4.84807 0.0947227 0
M  V30 11061 N 1028.76 -0.17846 1.56586 0
M  V30 11062 C 1029.69 -1.22342 1.98884 0
M  V30 11063 C 1030.67 -1.46564 0.86331 0
M  V30 11064 O 1031.85 -1.58019 1.12887 0
M  V30 11065 C 1028.98 -2.56396 2.34261 0
M  V30 11066 C 1027.94 -2.46756 3.49708 0
M  V30 11067 C 1027.26 -3.85235 3.70807 0
M  V30 11068 C 1028.56 -1.97838 4.83381 0
M  V30 11069 H 1030.26 -0.871848 2.86425 0
M  V30 11070 H 1027.8 -0.417948 1.37801 0
M  V30 11071 H 1029.76 -3.29695 2.62448 0
M  V30 11072 H 1028.48 -2.93327 1.43621 0
M  V30 11073 H 1027.14 -1.75912 3.21637 0
M  V30 11074 H 1026.79 -4.19547 2.7747 0
M  V30 11075 H 1026.49 -3.79655 4.48481 0
M  V30 11076 H 1028.01 -4.60131 4.01387 0
M  V30 11077 H 1029.43 -2.60906 5.10491 0
M  V30 11078 H 1027.82 -2.03223 5.64642 0
M  V30 11079 H 1028.89 -0.932339 4.75852 0
M  V30 11080 N 1030.24 -1.51135 -0.446768 0
M  V30 11081 C 1031.46 -1.67129 -1.21965 0
M  V30 11082 C 1031.88 -0.36467 -1.85245 0
M  V30 11083 O 1031.24 0.655908 -1.70306 0
M  V30 11084 C 1031.29 -2.78016 -2.31061 0
M  V30 11085 O 1031.01 -4.03615 -1.70371 0
M  V30 11086 C 1032.51 -3.05197 -3.21511 0
M  V30 11087 H 1029.73 -0.561111 -0.367961 0
M  V30 11088 H 1032.27 -1.97499 -0.530517 0
M  V30 11089 H 1030.43 -2.50272 -2.95707 0
M  V30 11090 H 1030.84 -4.65126 -2.424 0
M  V30 11091 H 1032.32 -3.8639 -3.94216 0
M  V30 11092 H 1032.79 -2.17228 -3.81718 0
M  V30 11093 H 1033.4 -3.34565 -2.62577 0
M  V30 11094 N 1031.71 0.701592 -1.41122 0
M  V30 11095 C 1032.96 1.46376 -1.40363 0
M  V30 11096 C 1033.29 1.94197 -0.0105442 0
M  V30 11097 O 1032.57 1.69121 0.960637 0
M  V30 11098 C 1032.85 2.67994 -2.40523 0
M  V30 11099 C 1032.7 2.25977 -3.88914 0
M  V30 11100 C 1034.02 3.70181 -2.38022 0
M  V30 11101 H 1031.14 0.530929 -0.511159 0
M  V30 11102 H 1033.78 0.799588 -1.72356 0
M  V30 11103 H 1031.93 3.24661 -2.13372 0
M  V30 11104 H 1033.61 1.74684 -4.26946 0
M  V30 11105 H 1031.85 1.57826 -4.04071 0
M  V30 11106 H 1032.52 3.13215 -4.54533 0
M  V30 11107 H 1035 3.23174 -2.62103 0
M  V30 11108 H 1033.87 4.52894 -3.10127 0
M  V30 11109 H 1034.13 4.19458 -1.3967 0
M  V30 11110 N 1033.19 1.2685 0.935242 0
M  V30 11111 C 1034.44 1.12745 1.68211 0
M  V30 11112 C 1034.77 -0.328128 1.91712 0
M  V30 11113 O 1034.02 -1.25701 1.49993 0
M  V30 11114 C 1034.32 1.8482 3.05903 0
M  V30 11115 C 1033.99 3.347 3.02137 0
M  V30 11116 C 1032.65 3.75583 3.00817 0
M  V30 11117 C 1035 4.30368 2.93995 0
M  V30 11118 C 1032.33 5.10511 2.89129 0
M  V30 11119 C 1034.68 5.65343 2.83848 0
M  V30 11120 C 1033.34 6.0553 2.80874 0
M  V30 11121 H 1032.61 0.412563 0.615527 0
M  V30 11122 H 1035.26 1.57366 1.09124 0
M  V30 11123 H 1033.57 1.32685 3.68649 0
M  V30 11124 H 1035.26 1.71341 3.62551 0
M  V30 11125 H 1031.85 3.02182 3.03947 0
M  V30 11126 H 1036.04 3.9976 2.94118 0
M  V30 11127 H 1031.29 5.40802 2.85208 0
M  V30 11128 H 1035.47 6.39151 2.76512 0
M  V30 11129 H 1033.09 7.10037 2.71573 0
M  V30 11130 N 1034.67 -1.14067 1.0875 0
M  V30 11131 C 1035.6 -2.18926 0.67852 0
M  V30 11132 C 1036.62 -1.60441 -0.276163 0
M  V30 11133 O 1037.8 -1.78388 -0.0632788 0
M  V30 11134 C 1034.9 -3.38893 -0.0218852 0
M  V30 11135 C 1034.08 -4.26901 0.952582 0
M  V30 11136 C 1033.14 -5.25418 0.286859 0
M  V30 11137 O 1032.16 -5.61512 0.932354 0
M  V30 11138 N 1033.36 -5.72476 -0.961831 0
M  V30 11139 H 1036.13 -2.54629 1.58063 0
M  V30 11140 H 1033.69 -1.29321 0.974042 0
M  V30 11141 H 1035.68 -4.01864 -0.478278 0
M  V30 11142 H 1034.25 -3.01486 -0.826141 0
M  V30 11143 H 1033.47 -3.60812 1.58772 0
M  V30 11144 H 1034.76 -4.82563 1.61279 0
M  V30 11145 H 1034.16 -5.45287 -1.50594 0
M  V30 11146 H 1032.72 -6.37418 -1.36166 0
M  V30 11147 N 1036.15 -0.873678 -1.31166 0
M  V30 11148 C 1037.4 -0.482577 -1.95842 0
M  V30 11149 C 1037.71 0.970881 -1.69804 0
M  V30 11150 O 1038.92 1.4683 -2.28371 0
M  V30 11151 C 1037.37 -0.812074 -3.50619 0
M  V30 11152 C 1036.98 -2.28254 -3.85492 0
M  V30 11153 C 1038.72 -0.489624 -4.21667 0
M  V30 11154 C 1036.63 -2.55426 -5.33396 0
M  V30 11155 H 1035.56 -0.176736 -0.732994 0
M  V30 11156 H 1038.21 -1.06709 -1.49283 0
M  V30 11157 H 1036.59 -0.156769 -3.9569 0
M  V30 11158 H 1037.77 -2.98122 -3.51369 0
M  V30 11159 H 1036.08 -2.5714 -3.27518 0
M  V30 11160 H 1038.68 -0.669811 -5.30488 0
M  V30 11161 H 1039.02 0.570204 -4.12376 0
M  V30 11162 H 1039.56 -1.10163 -3.82242 0
M  V30 11163 H 1036.3 -3.60106 -5.47726 0
M  V30 11164 H 1035.82 -1.90156 -5.68859 0
M  V30 11165 H 1037.49 -2.40345 -6.00702 0
M  V30 11166 N 1037.63 1.44308 -0.633487 0
M  V30 11167 C 1038.56 2.33431 0.0568402 0
M  V30 11168 C 1039.54 1.48342 0.832386 0
M  V30 11169 O 1040.72 1.77056 0.797798 0
M  V30 11170 C 1037.85 3.31443 1.03743 0
M  V30 11171 C 1036.81 4.26368 0.373362 0
M  V30 11172 C 1036.13 5.14267 1.46403 0
M  V30 11173 C 1037.43 5.17287 -0.721876 0
M  V30 11174 H 1039.13 2.91402 -0.687388 0
M  V30 11175 H 1036.67 1.4012 -0.332009 0
M  V30 11176 H 1038.63 3.92677 1.52913 0
M  V30 11177 H 1037.35 2.71686 1.81258 0
M  V30 11178 H 1036.01 3.6647 -0.0977053 0
M  V30 11179 H 1035.66 4.50861 2.23011 0
M  V30 11180 H 1035.36 5.7859 1.02506 0
M  V30 11181 H 1036.88 5.78373 1.95748 0
M  V30 11182 H 1038.29 5.72444 -0.313181 0
M  V30 11183 H 1036.69 5.90226 -1.08413 0
M  V30 11184 H 1037.76 4.58159 -1.58804 0
M  V30 11185 N 1039.1 0.374177 1.53094 0
M  V30 11186 C 1040.33 -0.213325 2.05797 0
M  V30 11187 C 1040.75 -1.41753 1.24706 0
M  V30 11188 O 1040.1 -1.80183 0.289868 0
M  V30 11189 C 1040.16 -0.598367 3.56513 0
M  V30 11190 O 1039.88 0.557983 4.34532 0
M  V30 11191 C 1041.38 -1.24334 4.25507 0
M  V30 11192 H 1038.6 -0.0357398 0.670048 0
M  V30 11193 H 1041.14 0.535035 1.97377 0
M  V30 11194 H 1039.3 -1.29663 3.65056 0
M  V30 11195 H 1039.71 0.244911 5.23928 0
M  V30 11196 H 1041.18 -1.46325 5.32253 0
M  V30 11197 H 1041.66 -2.20622 3.79766 0
M  V30 11198 H 1042.27 -0.586269 4.2124 0
M  V30 11199 N 1040.58 -1.57259 0.103575 0
M  V30 11200 C 1041.83 -1.94272 -0.557024 0
M  V30 11201 C 1042.15 -0.986739 -1.68192 0
M  V30 11202 O 1041.42 -0.0402818 -1.95859 0
M  V30 11203 H 1040 -0.717237 -0.208757 0
M  V30 11204 H 1042.66 -1.94167 0.168898 0
M  V30 11205 H 1041.76 -2.96914 -0.961691 0
M  V30 11206 N 1042.06 0.170153 -1.56679 0
M  V30 11207 C 1042.97 1.23057 -1.99735 0
M  V30 11208 C 1043.99 1.48374 -0.908912 0
M  V30 11209 O 1045.16 1.60499 -1.21663 0
M  V30 11210 C 1042.23 2.54944 -2.34956 0
M  V30 11211 C 1041.29 2.3748 -3.57634 0
M  V30 11212 C 1040.52 3.63078 -3.91165 0
M  V30 11213 O 1040.74 4.68304 -3.2565 0
M  V30 11214 O 1039.68 3.57119 -4.8451 0
M  V30 11215 H 1043.5 0.895104 -2.9021 0
M  V30 11216 H 1041.09 0.377109 -1.44562 0
M  V30 11217 H 1042.97 3.32742 -2.58574 0
M  V30 11218 H 1041.65 2.88068 -1.47643 0
M  V30 11219 H 1040.55 1.57709 -3.39232 0
M  V30 11220 H 1041.89 2.0928 -4.45491 0
M  V30 11221 N 1043.54 1.5137 0.438746 0
M  V30 11222 C 1044.82 1.54508 1.19944 0
M  V30 11223 C 1045.2 0.308525 2.08833 0
M  V30 11224 O 1044.54 -0.706461 2.17305 0
M  V30 11225 C 1044.75 2.85833 2.00251 0
M  V30 11226 C 1046.1 3.37729 2.5734 0
M  V30 11227 O 1047.13 2.87374 2.10463 0
M  V30 11228 O 1045.98 4.25589 3.42836 0
M  V30 11229 H 1043.08 0.621132 0.546007 0
M  V30 11230 H 1045.62 1.63682 0.447931 0
M  V30 11231 H 1044.4 3.67291 1.34955 0
M  V30 11232 H 1044.02 2.79815 2.8247 0
M  V30 11233 N 1045.02 -0.694098 1.41492 0
M  V30 11234 C 1046.26 -1.45493 1.42138 0
M  V30 11235 C 1046.62 -1.92376 0.0302688 0
M  V30 11236 O 1045.91 -1.66723 -0.944142 0
M  V30 11237 C 1046.1 -2.6805 2.36398 0
M  V30 11238 C 1045.93 -2.33157 3.84536 0
M  V30 11239 C 1044.7 -2.2345 4.53209 0
M  V30 11240 C 1046.9 -1.96037 4.75473 0
M  V30 11241 N 1044.88 -1.81457 5.8647 0
M  V30 11242 C 1046.25 -1.64814 5.97693 0
M  V30 11243 C 1048.31 -1.8286 4.63106 0
M  V30 11244 C 1047.01 -1.21738 7.08923 0
M  V30 11245 C 1049.04 -1.41188 5.74299 0
M  V30 11246 C 1048.4 -1.10877 6.95619 0
M  V30 11247 H 1044.5 -0.529635 0.575335 0
M  V30 11248 H 1047.08 -0.802901 1.77374 0
M  V30 11249 H 1045.25 -3.30972 2.03254 0
M  V30 11250 H 1046.99 -3.34531 2.27753 0
M  V30 11251 H 1043.74 -2.41894 4.07166 0
M  V30 11252 H 1044.17 -1.62938 6.571 0
M  V30 11253 H 1048.81 -2.04947 3.69806 0
M  V30 11254 H 1046.53 -0.983947 8.02087 0
M  V30 11255 H 1050.11 -1.3154 5.66735 0
M  V30 11256 H 1048.99 -0.791191 7.80199 0
M  V30 11257 N 1046.49 -1.27344 -0.928501 0
M  V30 11258 C 1047.44 -1.09835 -2.05034 0
M  V30 11259 C 1048.44 -0.0216643 -1.69386 0
M  V30 11260 O 1049.64 -0.179323 -1.79105 0
M  V30 11261 H 1046.02 -0.338416 -0.671549 0
M  V30 11262 H 1047.99 -2.04879 -2.1695 0
M  V30 11263 C 1046.74 -0.761462 -3.3926 0
M  V30 11264 H 1046.06 -1.58186 -3.67175 0
M  V30 11265 H 1047.5 -0.678812 -4.18531 0
M  V30 11266 C 1045.96 0.534118 -3.32639 0
M  V30 11267 O 1046.49 1.56877 -3.69801 0
M  V30 11268 N 1044.7 0.529437 -2.85736 0
M  V30 11269 H 1044.24 -0.312954 -2.55692 0
M  V30 11270 H 1044.2 1.39637 -2.81689 0
M  V30 11271 N 1047.97 1.13488 -1.09353 0
M  V30 11272 C 1049.2 1.89133 -0.85108 0
M  V30 11273 C 1049.62 1.78542 0.591976 0
M  V30 11274 O 1048.98 1.13243 1.41583 0
M  V30 11275 C 1049.03 3.36736 -1.29001 0
M  V30 11276 O 1048.13 4.09959 -0.447993 0
M  V30 11277 H 1047.47 0.58809 -0.308296 0
M  V30 11278 H 1050 1.43593 -1.45747 0
M  V30 11279 H 1050.01 3.87564 -1.27508 0
M  V30 11280 H 1048.69 3.43762 -2.34095 0
M  V30 11281 H 1047.27 3.69155 -0.52717 0
M  V30 11282 N 1049.45 0.880621 1.30701 0
M  V30 11283 C 1050.7 0.497611 1.966 0
M  V30 11284 C 1051.03 -0.949901 1.69383 0
M  V30 11285 O 1050.31 -1.67054 0.996152 0
M  V30 11286 C 1050.59 0.767919 3.51817 0
M  V30 11287 C 1050.44 2.26574 3.88567 0
M  V30 11288 C 1051.76 0.241502 4.39437 0
M  V30 11289 H 1048.88 0.182267 0.714106 0
M  V30 11290 H 1051.52 1.10382 1.54648 0
M  V30 11291 H 1049.67 0.251967 3.87682 0
M  V30 11292 H 1051.34 2.84977 3.62748 0
M  V30 11293 H 1049.59 2.73411 3.36792 0
M  V30 11294 H 1050.26 2.40549 4.9683 0
M  V30 11295 H 1052.73 0.683051 4.10455 0
M  V30 11296 H 1051.61 0.459997 5.46969 0
M  V30 11297 H 1051.87 -0.857068 4.33713 0
M  V30 11298 N 1050.93 -1.4397 0.641131 0
M  V30 11299 C 1051.86 -2.27948 -0.10731 0
M  V30 11300 C 1052.84 -1.39124 -0.841615 0
M  V30 11301 O 1054.02 -1.68566 -0.843662 0
M  V30 11302 C 1051.15 -3.18277 -1.15835 0
M  V30 11303 C 1050.2 -4.23276 -0.52345 0
M  V30 11304 S 1051.03 -5.30984 0.693969 0
M  V30 11305 C 1052.19 -6.24882 -0.356831 0
M  V30 11306 H 1052.42 -2.91077 0.605083 0
M  V30 11307 H 1049.95 -1.48303 0.429598 0
M  V30 11308 H 1051.91 -3.70867 -1.75977 0
M  V30 11309 H 1050.57 -2.54348 -1.84299 0
M  V30 11310 H 1049.76 -4.86533 -1.31536 0
M  V30 11311 H 1049.37 -3.74 0.00358355 0
M  V30 11312 H 1051.66 -6.66305 -1.22653 0
M  V30 11313 H 1052.6 -7.07692 0.240412 0
M  V30 11314 H 1053.01 -5.60301 -0.687217 0
M  V30 11315 N 1052.41 -0.382291 -1.52893 0
M  V30 11316 C 1053.64 0.202114 -2.05609 0
M  V30 11317 C 1054.05 1.4164 -1.25438 0
M  V30 11318 O 1053.39 1.81359 -0.292324 0
M  V30 11319 C 1053.45 0.64356 -3.53693 0
M  V30 11320 C 1053.11 -0.456305 -4.54716 0
M  V30 11321 C 1054.11 -1.3115 -5.03086 0
M  V30 11322 C 1051.8 -0.621329 -4.98442 0
M  V30 11323 C 1053.79 -2.3169 -5.938 0
M  V30 11324 C 1051.48 -1.63008 -5.88958 0
M  V30 11325 C 1052.48 -2.47629 -6.36529 0
M  V30 11326 O 1052.16 -3.46781 -7.25257 0
M  V30 11327 H 1051.9 0.0358014 -0.675051 0
M  V30 11328 H 1054.45 -0.543935 -1.98067 0
M  V30 11329 H 1052.68 1.44148 -3.58829 0
M  V30 11330 H 1054.37 1.15284 -3.89184 0
M  V30 11331 H 1055.13 -1.19528 -4.70041 0
M  V30 11332 H 1051.01 0.027593 -4.60992 0
M  V30 11333 H 1054.56 -2.97776 -6.30853 0
M  V30 11334 H 1050.45 -1.74671 -6.21418 0
M  V30 11335 H 1051.22 -3.42707 -7.433 0
M  V30 11336 N 1053.89 1.57202 -0.111913 0
M  V30 11337 C 1055.16 1.86459 0.590972 0
M  V30 11338 C 1055.54 1.01182 1.85271 0
M  V30 11339 O 1054.89 0.0887891 2.28327 0
M  V30 11340 C 1055.1 3.37455 0.890225 0
M  V30 11341 C 1056.45 4.05895 1.24638 0
M  V30 11342 O 1057.47 3.42433 0.980713 0
M  V30 11343 O 1056.33 5.17903 1.74466 0
M  V30 11344 H 1053.43 0.771652 0.297459 0
M  V30 11345 H 1055.97 1.69072 -0.145882 0
M  V30 11346 H 1054.74 3.913 -0.00419012 0
M  V30 11347 H 1054.37 3.60248 1.68248 0
M  V30 11348 N 1055.36 -0.161842 1.56767 0
M  V30 11349 C 1056.61 -0.875192 1.82167 0
M  V30 11350 C 1056.93 -1.82367 0.690444 0
M  V30 11351 O 1056.2 -1.93756 -0.289023 0
M  V30 11352 H 1054.78 -0.326178 0.672024 0
M  V30 11353 H 1057.44 -0.159392 1.94247 0
M  V30 11354 H 1056.54 -1.44639 2.76561 0
M  V30 11355 N 1056.84 -1.516 -0.430713 0
M  V30 11356 C 1058.09 -1.63829 -1.17657 0
M  V30 11357 C 1058.4 -0.363605 -1.92191 0
M  V30 11358 O 1059.61 -0.365358 -2.6903 0
M  V30 11359 C 1058.07 -2.89357 -2.14011 0
M  V30 11360 C 1057.67 -4.23854 -1.45094 0
M  V30 11361 C 1059.42 -3.10944 -2.88988 0
M  V30 11362 C 1057.32 -5.40526 -2.3997 0
M  V30 11363 H 1056.25 -0.610221 -0.442884 0
M  V30 11364 H 1058.91 -1.78073 -0.442984 0
M  V30 11365 H 1057.29 -2.68762 -2.90832 0
M  V30 11366 H 1058.46 -4.54854 -0.737853 0
M  V30 11367 H 1056.78 -4.08197 -0.822429 0
M  V30 11368 H 1059.37 -3.95286 -3.60074 0
M  V30 11369 H 1059.72 -2.24291 -3.50712 0
M  V30 11370 H 1060.25 -3.3191 -2.19272 0
M  V30 11371 H 1056.99 -6.29459 -1.82925 0
M  V30 11372 H 1056.51 -5.13893 -3.09313 0
M  V30 11373 H 1058.19 -5.72741 -3.00959 0
M  V30 11374 N 1058.32 0.686584 -1.41858 0
M  V30 11375 C 1059.25 1.81107 -1.38836 0
M  V30 11376 C 1060.23 1.60599 -0.254293 0
M  V30 11377 O 1061.41 1.83229 -0.442641 0
M  V30 11378 C 1058.54 3.17928 -1.16787 0
M  V30 11379 C 1057.59 3.5721 -2.33031 0
M  V30 11380 S 1058.42 3.60986 -3.95536 0
M  V30 11381 C 1059.58 5.00519 -3.75808 0
M  V30 11382 H 1059.81 1.83396 -2.33994 0
M  V30 11383 H 1057.34 0.856146 -1.28489 0
M  V30 11384 H 1059.3 3.9691 -1.04752 0
M  V30 11385 H 1057.96 3.1324 -0.232335 0
M  V30 11386 H 1057.15 4.56629 -2.13321 0
M  V30 11387 H 1056.76 2.8556 -2.41519 0
M  V30 11388 H 1059.05 5.88272 -3.36069 0
M  V30 11389 H 1059.99 5.25273 -4.74862 0
M  V30 11390 H 1060.4 4.72481 -3.08904 0
M  V30 11391 N 1059.8 1.27835 0.921735 0
M  V30 11392 C 1060.76 1.11108 2.00469 0
M  V30 11393 C 1061.76 0.053203 1.60712 0
M  V30 11394 O 1062.95 0.298308 1.71627 0
M  V30 11395 C 1060.08 0.694269 3.33755 0
M  V30 11396 H 1061.28 2.07279 2.16738 0
M  V30 11397 H 1058.83 1.10708 1.10333 0
M  V30 11398 H 1059.56 -0.268561 3.23186 0
M  V30 11399 H 1059.35 1.45836 3.6397 0
M  V30 11400 H 1060.84 0.59965 4.13272 0
M  V30 11401 N 1061.28 -1.12907 1.09954 0
M  V30 11402 C 1062.51 -1.87866 0.859656 0
M  V30 11403 C 1062.91 -1.79664 -0.593096 0
M  V30 11404 O 1062.26 -1.16499 -1.42034 0
M  V30 11405 C 1062.32 -3.38055 1.22308 0
M  V30 11406 C 1061.98 -3.70035 2.68185 0
M  V30 11407 C 1062.98 -3.68817 3.66428 0
M  V30 11408 C 1060.66 -3.99523 3.04444 0
M  V30 11409 C 1062.66 -3.96639 4.98955 0
M  V30 11410 C 1060.35 -4.27006 4.37161 0
M  V30 11411 C 1061.34 -4.25549 5.34225 0
M  V30 11412 O 1061.03 -4.52354 6.64553 0
M  V30 11413 H 1060.76 -0.601425 0.308649 0
M  V30 11414 H 1063.32 -1.43817 1.46649 0
M  V30 11415 H 1061.55 -3.82634 0.559322 0
M  V30 11416 H 1063.24 -3.94348 0.961479 0
M  V30 11417 H 1064 -3.46104 3.3976 0
M  V30 11418 H 1059.88 -3.99801 2.29521 0
M  V30 11419 H 1063.43 -3.95418 5.74709 0
M  V30 11420 H 1059.32 -4.49192 4.6357 0
M  V30 11421 H 1060.09 -4.69997 6.70108 0
M  V30 11422 N 1062.75 -0.88754 -1.30232 0
M  V30 11423 C 1064 -0.506277 -1.95656 0
M  V30 11424 C 1064.32 0.948191 -1.70395 0
M  V30 11425 O 1063.59 1.66701 -1.02895 0
M  V30 11426 H 1062.17 -0.184235 -0.723924 0
M  V30 11427 H 1064.83 -1.13118 -1.58715 0
M  V30 11428 H 1063.93 -0.678673 -3.04632 0
M  V30 11429 N 1064.23 1.43628 -0.648757 0
M  V30 11430 C 1065.48 2.01465 -0.16002 0
M  V30 11431 C 1065.8 1.51413 1.22878 0
M  V30 11432 O 1065.07 0.724919 1.81994 0
M  V30 11433 H 1063.65 0.744885 -0.0561672 0
M  V30 11434 H 1066.31 1.75897 -0.839422 0
M  V30 11435 H 1065.41 3.1178 -0.141213 0
M  V30 11436 N 1065.71 0.390394 1.52688 0
M  V30 11437 C 1067.12 -0.083394 1.86514 0
M  V30 11438 C 1067.47 -1.46057 1.31003 0
M  V30 11439 O 1066.6 -2.06663 0.641809 0
M  V30 11440 C 1067.19 -0.158102 3.38431 0
M  V30 11441 C 1065.75 -0.576186 3.71964 0
M  V30 11442 C 1064.9 0.261156 2.76068 0
M  V30 11443 H 1067.85 0.608226 1.46582 0
M  V30 11444 H 1067.87 -0.977023 3.67742 0
M  V30 11445 H 1067.38 0.844365 3.78803 0
M  V30 11446 H 1065.48 -1.58598 3.37161 0
M  V30 11447 H 1065.6 -0.333577 4.77937 0
M  V30 11448 H 1063.96 -0.273737 2.53225 0
M  V30 11449 H 1064.74 1.26162 3.19277 0
M  V30 11450 N 1067.19 -1.57141 0.120249 0
M  V30 11451 C 1068.41 -2.00017 -0.548454 0
M  V30 11452 C 1068.84 -0.999433 -1.59352 0
M  V30 11453 O 1068.2 0.0286978 -1.81277 0
M  V30 11454 C 1068.24 -3.41766 -1.15015 0
M  V30 11455 O 1067.35 -3.44589 -2.26566 0
M  V30 11456 H 1066.69 -0.649739 -0.136875 0
M  V30 11457 H 1069.22 -2.03529 0.209092 0
M  V30 11458 H 1069.23 -3.80001 -1.48537 0
M  V30 11459 H 1067.9 -4.14117 -0.384681 0
M  V30 11460 H 1066.48 -3.18174 -1.94473 0
M  V30 11461 N 1068.67 0.153526 -1.5685 0
M  V30 11462 C 1069.91 0.867232 -1.8299 0
M  V30 11463 C 1070.24 1.81462 -0.700125 0
M  V30 11464 O 1069.5 1.93207 0.311348 0
M  V30 11465 C 1069.8 1.68066 -3.15418 0
M  V30 11466 C 1069.46 0.880635 -4.42217 0
M  V30 11467 C 1068.12 0.659899 -4.76654 0
M  V30 11468 C 1070.48 0.320698 -5.20212 0
M  V30 11469 C 1067.8 -0.131588 -5.86552 0
M  V30 11470 C 1070.16 -0.457794 -6.30941 0
M  V30 11471 C 1068.82 -0.689168 -6.63933 0
M  V30 11472 H 1068.09 0.317343 -0.669608 0
M  V30 11473 H 1070.74 0.131208 -1.9105 0
M  V30 11474 H 1069.04 2.4866 -3.02779 0
M  V30 11475 H 1070.74 2.23623 -3.32857 0
M  V30 11476 H 1067.33 1.06274 -4.15215 0
M  V30 11477 H 1071.51 0.47853 -4.93988 0
M  V30 11478 H 1066.77 -0.320413 -6.1056 0
M  V30 11479 H 1070.94 -0.898839 -6.90575 0
M  V30 11480 H 1068.57 -1.30433 -7.48927 0
M  V30 11481 N 1070.14 1.51827 0.422667 0
M  V30 11482 C 1071.56 1.57533 1.00201 0
M  V30 11483 C 1071.91 0.407623 1.91919 0
M  V30 11484 O 1071.03 -0.473763 2.1115 0
M  V30 11485 C 1071.63 2.85508 1.82403 0
M  V30 11486 C 1070.19 2.93737 2.35362 0
M  V30 11487 C 1069.33 2.52343 1.14971 0
M  V30 11488 H 1072.28 1.57391 0.20339 0
M  V30 11489 H 1072.3 2.70097 2.68007 0
M  V30 11490 H 1071.82 3.70477 1.15623 0
M  V30 11491 H 1069.92 2.13231 3.05554 0
M  V30 11492 H 1070.03 3.977 2.67155 0
M  V30 11493 H 1068.39 2.05878 1.49955 0
M  V30 11494 H 1069.18 3.39672 0.497786 0
M  V30 11495 N 1071.62 -0.679052 1.4222 0
M  V30 11496 C 1072.87 -1.43627 1.42182 0
M  V30 11497 C 1073.19 -1.94964 0.0377095 0
M  V30 11498 O 1072.46 -1.72788 -0.923098 0
M  V30 11499 H 1071.04 -0.532972 0.523402 0
M  V30 11500 H 1073.7 -0.802649 1.77605 0
M  V30 11501 H 1072.8 -2.29137 2.11902 0
M  V30 11502 N 1073.1 -1.28322 -0.914942 0
M  V30 11503 C 1074.03 -1.06469 -2.01841 0
M  V30 11504 C 1075.01 0.0188681 -1.62589 0
M  V30 11505 O 1076.2 -0.128825 -1.88059 0
M  V30 11506 C 1073.32 -0.617685 -3.3302 0
M  V30 11507 C 1072.37 -1.6977 -3.91255 0
M  V30 11508 S 1073.2 -3.29337 -4.22253 0
M  V30 11509 C 1074.36 -2.86468 -5.56495 0
M  V30 11510 H 1074.59 -1.99893 -2.20068 0
M  V30 11511 H 1072.12 -1.12297 -1.05966 0
M  V30 11512 H 1074.08 -0.366481 -4.08861 0
M  V30 11513 H 1072.74 0.296709 -3.12695 0
M  V30 11514 H 1071.94 -1.33653 -4.85956 0
M  V30 11515 H 1071.54 -1.90164 -3.22046 0
M  V30 11516 H 1073.83 -2.32565 -6.36333 0
M  V30 11517 H 1074.77 -3.79962 -5.97523 0
M  V30 11518 H 1075.18 -2.2522 -5.17626 0
M  V30 11519 N 1074.58 1.12322 -1.10551 0
M  V30 11520 C 1075.51 2.20176 -0.777486 0
M  V30 11521 C 1076.49 1.68252 0.250069 0
M  V30 11522 O 1077.67 1.93856 0.115574 0
M  V30 11523 C 1074.8 3.46666 -0.209822 0
M  V30 11524 C 1073.76 4.11749 -1.1682 0
M  V30 11525 C 1073.08 5.32703 -0.461684 0
M  V30 11526 C 1074.38 4.57746 -2.51527 0
M  V30 11527 H 1076.08 2.47872 -1.67928 0
M  V30 11528 H 1073.62 1.19136 -0.808863 0
M  V30 11529 H 1075.58 4.21388 0.0318068 0
M  V30 11530 H 1074.3 3.18401 0.727226 0
M  V30 11531 H 1072.96 3.39009 -1.3953 0
M  V30 11532 H 1072.61 5.00706 0.479875 0
M  V30 11533 H 1072.31 5.77197 -1.1008 0
M  V30 11534 H 1073.83 6.10172 -0.228629 0
M  V30 11535 H 1075.25 5.23835 -2.32958 0
M  V30 11536 H 1073.64 5.13021 -3.11335 0
M  V30 11537 H 1074.71 3.71667 -3.11435 0
M  V30 11538 N 1076.06 0.894434 1.2976 0
M  V30 11539 C 1077.3 0.518435 1.96061 0
M  V30 11540 C 1077.64 -0.931882 1.70381 0
M  V30 11541 O 1076.91 -1.65988 1.01381 0
M  V30 11542 C 1077.19 0.80519 3.50982 0
M  V30 11543 C 1077.05 2.30683 3.86142 0
M  V30 11544 C 1078.37 0.288096 4.39156 0
M  V30 11545 H 1075.48 0.18983 0.712133 0
M  V30 11546 H 1078.13 1.12016 1.53468 0
M  V30 11547 H 1076.28 0.293071 3.87393 0
M  V30 11548 H 1077.95 2.88808 3.59705 0
M  V30 11549 H 1076.19 2.76968 3.33873 0
M  V30 11550 H 1076.86 2.45805 4.94251 0
M  V30 11551 H 1079.34 0.726547 4.09708 0
M  V30 11552 H 1078.21 0.517985 5.4645 0
M  V30 11553 H 1078.48 -0.811018 4.34597 0
M  V30 11554 N 1077.53 -1.43282 0.656365 0
M  V30 11555 C 1078.77 -2.03652 0.174681 0
M  V30 11556 C 1079.14 -1.5068 -1.18994 0
M  V30 11557 O 1080.34 -2.02716 -1.76521 0
M  V30 11558 C 1078.61 -3.56906 0.18778 0
M  V30 11559 S 1080.17 -4.3822 -0.225599 0
M  V30 11560 H 1076.99 -0.70719 0.0735029 0
M  V30 11561 H 1079.59 -1.75303 0.865403 0
M  V30 11562 H 1078.29 -3.92961 1.18363 0
M  V30 11563 H 1077.82 -3.89903 -0.523378 0
M  V30 11564 H 1079.84 -4.74121 -1.46369 0
M  V30 11565 N 1079.01 -0.398486 -1.52479 0
M  V30 11566 C 1080.26 0.182046 -2.00877 0
M  V30 11567 C 1080.58 1.47128 -1.2889 0
M  V30 11568 O 1081.78 2.13242 -1.68048 0
M  V30 11569 C 1080.24 0.374978 -3.57941 0
M  V30 11570 C 1079.85 -0.901544 -4.38835 0
M  V30 11571 C 1081.59 0.911378 -4.14601 0
M  V30 11572 C 1079.5 -0.676385 -5.87519 0
M  V30 11573 H 1078.43 0.0718068 -0.750573 0
M  V30 11574 H 1081.08 -0.522297 -1.7591 0
M  V30 11575 H 1079.46 1.14139 -3.79194 0
M  V30 11576 H 1080.63 -1.67329 -4.29346 0
M  V30 11577 H 1078.95 -1.36357 -3.93441 0
M  V30 11578 H 1081.55 1.09569 -5.23353 0
M  V30 11579 H 1081.89 1.88306 -3.71277 0
M  V30 11580 H 1082.42 0.204296 -3.97275 0
M  V30 11581 H 1079.16 -1.61933 -6.35184 0
M  V30 11582 H 1078.68 0.0562542 -5.99774 0
M  V30 11583 H 1080.36 -0.314454 -6.46235 0
M  V30 11584 N 1080.49 1.57075 -0.12858 0
M  V30 11585 C 1081.72 1.99586 0.533769 0
M  V30 11586 C 1082.13 1.00737 1.60152 0
M  V30 11587 O 1081.47 -0.00647783 1.83699 0
M  V30 11588 C 1081.53 3.3852 1.21014 0
M  V30 11589 C 1081.2 4.56084 0.289191 0
M  V30 11590 C 1082.2 5.17717 -0.475963 0
M  V30 11591 C 1079.88 5.01912 0.197467 0
M  V30 11592 C 1081.87 6.23572 -1.32048 0
M  V30 11593 C 1079.56 6.07626 -0.65067 0
M  V30 11594 C 1080.56 6.68324 -1.40826 0
M  V30 11595 O 1080.25 7.71995 -2.2423 0
M  V30 11596 H 1079.98 0.660245 0.145096 0
M  V30 11597 H 1082.53 2.04276 -0.214615 0
M  V30 11598 H 1080.76 3.30613 2.00579 0
M  V30 11599 H 1082.45 3.65258 1.77036 0
M  V30 11600 H 1083.22 4.83221 -0.415027 0
M  V30 11601 H 1079.1 4.54407 0.776853 0
M  V30 11602 H 1082.64 6.70878 -1.91228 0
M  V30 11603 H 1078.54 6.41551 -0.712965 0
M  V30 11604 H 1079.31 7.89135 -2.17276 0
M  V30 11605 N 1081.97 -0.145205 1.5693 0
M  V30 11606 C 1083.22 -0.857516 1.83447 0
M  V30 11607 C 1083.54 -1.81088 0.709739 0
M  V30 11608 O 1082.8 -1.9337 -0.301097 0
M  V30 11609 C 1083.1 -1.66391 3.16305 0
M  V30 11610 C 1082.76 -0.857171 4.42678 0
M  V30 11611 C 1081.43 -0.634611 4.76997 0
M  V30 11612 C 1083.78 -0.293105 5.20375 0
M  V30 11613 C 1081.11 0.162693 5.86474 0
M  V30 11614 C 1083.46 0.491248 6.3069 0
M  V30 11615 C 1082.12 0.724368 6.63558 0
M  V30 11616 H 1081.39 -0.313787 0.671281 0
M  V30 11617 H 1084.04 -0.121074 1.91117 0
M  V30 11618 H 1082.34 -2.47051 3.04094 0
M  V30 11619 H 1084.04 -2.21855 3.34038 0
M  V30 11620 H 1080.63 -1.0407 4.15773 0
M  V30 11621 H 1084.82 -0.452326 4.94234 0
M  V30 11622 H 1080.07 0.352788 6.10381 0
M  V30 11623 H 1084.25 0.935449 6.90089 0
M  V30 11624 H 1081.87 1.34403 7.48224 0
M  V30 11625 N 1083.45 -1.52049 -0.414609 0
M  V30 11626 C 1084.7 -1.65067 -1.15912 0
M  V30 11627 C 1085.01 -0.383969 -1.91794 0
M  V30 11628 O 1086.22 -0.393872 -2.68628 0
M  V30 11629 C 1084.67 -2.91611 -2.1093 0
M  V30 11630 C 1084.28 -4.25369 -1.4059 0
M  V30 11631 C 1086.02 -3.13992 -2.85674 0
M  V30 11632 C 1083.93 -5.43041 -2.34223 0
M  V30 11633 H 1082.86 -0.614884 -0.436387 0
M  V30 11634 H 1085.51 -1.78533 -0.424072 0
M  V30 11635 H 1083.89 -2.71831 -2.87965 0
M  V30 11636 H 1085.07 -4.55611 -0.689568 0
M  V30 11637 H 1083.38 -4.09047 -0.779088 0
M  V30 11638 H 1085.98 -3.99082 -3.55861 0
M  V30 11639 H 1086.32 -2.27998 -3.48314 0
M  V30 11640 H 1086.86 -3.34217 -2.1574 0
M  V30 11641 H 1083.59 -6.31364 -1.76238 0
M  V30 11642 H 1083.11 -5.17144 -3.03845 0
M  V30 11643 H 1084.79 -5.75901 -2.94868 0
M  V30 11644 N 1084.93 0.6715 -1.42579 0
M  V30 11645 C 1086.17 1.42731 -1.42516 0
M  V30 11646 C 1086.49 1.95545 -0.0462407 0
M  V30 11647 O 1087.69 2.71391 0.0769798 0
M  V30 11648 C 1086.15 2.58215 -2.50705 0
M  V30 11649 C 1085.76 2.12086 -3.94618 0
M  V30 11650 C 1087.5 3.35705 -2.59813 0
M  V30 11651 C 1085.41 3.24672 -4.9431 0
M  V30 11652 H 1084.34 0.536218 -0.530081 0
M  V30 11653 H 1086.99 0.726655 -1.68499 0
M  V30 11654 H 1085.37 3.30665 -2.17892 0
M  V30 11655 H 1086.55 1.46768 -4.36802 0
M  V30 11656 H 1084.86 1.47526 -3.89391 0
M  V30 11657 H 1087.46 4.1956 -3.31472 0
M  V30 11658 H 1087.8 3.82517 -1.64276 0
M  V30 11659 H 1088.33 2.70326 -2.91836 0
M  V30 11660 H 1085.07 2.82848 -5.91335 0
M  V30 11661 H 1084.59 3.88761 -4.56755 0
M  V30 11662 H 1086.27 3.90088 -5.16179 0
M  V30 11663 N 1086.4 1.28806 0.908124 0
M  V30 11664 C 1087.33 1.15758 2.02787 0
M  V30 11665 C 1088.31 0.053911 1.70015 0
M  V30 11666 O 1089.5 0.231901 1.9281 0
M  V30 11667 C 1086.63 0.824526 3.37371 0
M  V30 11668 C 1085.58 1.88359 3.84324 0
M  V30 11669 C 1084.91 1.40404 5.15937 0
M  V30 11670 C 1086.21 3.29108 4.05568 0
M  V30 11671 H 1087.9 2.09431 2.13961 0
M  V30 11672 H 1085.45 1.00831 1.02806 0
M  V30 11673 H 1087.4 0.71999 4.15204 0
M  V30 11674 H 1086.13 -0.147902 3.26265 0
M  V30 11675 H 1084.79 1.97736 3.087 0
M  V30 11676 H 1084.43 0.420515 5.01239 0
M  V30 11677 H 1084.13 2.11224 5.48323 0
M  V30 11678 H 1085.66 1.31283 5.9632 0
M  V30 11679 H 1087.07 3.2262 4.73909 0
M  V30 11680 H 1085.47 3.97812 4.49294 0
M  V30 11681 H 1086.54 3.72709 3.10187 0
M  V30 11682 N 1087.88 -1.11734 1.11145 0
M  V30 11683 C 1089.13 -1.83405 0.858413 0
M  V30 11684 C 1089.46 -1.84488 -0.615975 0
M  V30 11685 O 1088.71 -1.29123 -1.47057 0
M  V30 11686 C 1089.01 -3.3046 1.36129 0
M  V30 11687 C 1088.68 -3.4954 2.84837 0
M  V30 11688 C 1087.34 -3.54456 3.25445 0
M  V30 11689 C 1089.69 -3.56048 3.8063 0
M  V30 11690 C 1087.02 -3.63431 4.60581 0
M  V30 11691 C 1089.37 -3.66554 5.15579 0
M  V30 11692 C 1088.03 -3.69728 5.55749 0
M  V30 11693 H 1087.3 -0.671128 0.314115 0
M  V30 11694 H 1089.95 -1.31795 1.38933 0
M  V30 11695 H 1088.26 -3.84544 0.750547 0
M  V30 11696 H 1089.95 -3.84398 1.14188 0
M  V30 11697 H 1086.54 -3.46382 2.52423 0
M  V30 11698 H 1090.73 -3.51513 3.5036 0
M  V30 11699 H 1085.98 -3.64164 4.91116 0
M  V30 11700 H 1090.16 -3.70532 5.89643 0
M  V30 11701 H 1087.78 -3.76435 6.60455 0
M  V30 11702 N 1089.36 -0.901303 -1.29284 0
M  V30 11703 C 1090.61 -0.52401 -1.94774 0
M  V30 11704 C 1090.92 0.934645 -1.71825 0
M  V30 11705 O 1092.13 1.41953 -2.31434 0
M  V30 11706 C 1090.58 -0.886262 -3.48817 0
M  V30 11707 C 1090.19 -2.3638 -3.80564 0
M  V30 11708 C 1091.94 -0.578955 -4.20533 0
M  V30 11709 C 1089.84 -2.66682 -5.27858 0
M  V30 11710 H 1088.77 -0.192244 -0.72908 0
M  V30 11711 H 1091.42 -1.09852 -1.46986 0
M  V30 11712 H 1089.81 -0.240666 -3.95268 0
M  V30 11713 H 1090.98 -3.05508 -3.44966 0
M  V30 11714 H 1089.29 -2.64029 -3.2199 0
M  V30 11715 H 1091.89 -0.782185 -5.28948 0
M  V30 11716 H 1092.23 0.482605 -4.13493 0
M  V30 11717 H 1092.77 -1.18246 -3.79819 0
M  V30 11718 H 1089.51 -3.71643 -5.39965 0
M  V30 11719 H 1089.03 -2.02179 -5.64698 0
M  V30 11720 H 1090.71 -2.53033 -5.95469 0
M  V30 11721 N 1090.84 1.42931 -0.663954 0
M  V30 11722 C 1092.08 2.03557 -0.185479 0
M  V30 11723 C 1092.44 1.51309 1.18193 0
M  V30 11724 O 1093.64 2.03649 1.75444 0
M  V30 11725 C 1091.91 3.56802 -0.206705 0
M  V30 11726 S 1093.47 4.38333 0.202356 0
M  V30 11727 H 1090.29 0.706791 -0.0772523 0
M  V30 11728 H 1092.89 1.74841 -0.874688 0
M  V30 11729 H 1091.6 3.92328 -1.20445 0
M  V30 11730 H 1091.13 3.90175 0.502693 0
M  V30 11731 H 1093.14 4.7489 1.43853 0
M  V30 11732 N 1092.32 0.406567 1.52266 0
M  V30 11733 C 1093.56 -0.169717 2.01386 0
M  V30 11734 C 1093.88 -1.45864 1.29417 0
M  V30 11735 O 1093.15 -1.9136 0.419327 0
M  V30 11736 H 1091.73 -0.0657075 0.744105 0
M  V30 11737 H 1094.4 0.542221 1.87206 0
M  V30 11738 H 1093.49 -0.367659 3.09927 0
M  V30 11739 N 1093.79 -1.57004 0.136909 0
M  V30 11740 C 1094.74 -2.17524 -0.823784 0
M  V30 11741 C 1095.74 -1.1294 -1.26258 0
M  V30 11742 O 1096.94 -1.3121 -1.23223 0
M  V30 11743 H 1093.32 -0.696381 -0.283827 0
M  V30 11744 H 1095.29 -2.96997 -0.289052 0
M  V30 11745 C 1094.04 -2.80331 -2.05693 0
M  V30 11746 H 1093.36 -3.60515 -1.72825 0
M  V30 11747 H 1094.8 -3.26192 -2.70878 0
M  V30 11748 C 1093.26 -1.78322 -2.85837 0
M  V30 11749 O 1093.79 -1.2475 -3.81838 0
M  V30 11750 N 1092 -1.47854 -2.50175 0
M  V30 11751 H 1091.54 -1.9161 -1.72173 0
M  V30 11752 H 1091.5 -0.798464 -3.04092 0
M  V30 11753 N 1095.27 0.136881 -1.57004 0
M  V30 11754 C 1096.5 0.861186 -1.87796 0
M  V30 11755 C 1096.91 1.74788 -0.724272 0
M  V30 11756 O 1096.25 1.80984 0.31471 0
M  V30 11757 C 1096.32 1.76115 -3.13407 0
M  V30 11758 C 1095.98 1.05059 -4.4476 0
M  V30 11759 C 1096.98 0.399736 -5.18361 0
M  V30 11760 C 1094.66 1.03709 -4.91477 0
M  V30 11761 C 1096.66 -0.255127 -6.36889 0
M  V30 11762 C 1094.34 0.378414 -6.09927 0
M  V30 11763 C 1095.34 -0.266555 -6.8248 0
M  V30 11764 O 1095.03 -0.914757 -7.98679 0
M  V30 11765 H 1094.76 0.253855 -0.626525 0
M  V30 11766 H 1097.31 0.131291 -2.0498 0
M  V30 11767 H 1095.54 2.53224 -2.92257 0
M  V30 11768 H 1097.23 2.3583 -3.30362 0
M  V30 11769 H 1098 0.401909 -4.83332 0
M  V30 11770 H 1093.88 1.52852 -4.34922 0
M  V30 11771 H 1097.42 -0.759135 -6.93457 0
M  V30 11772 H 1093.32 0.373942 -6.44416 0
M  V30 11773 H 1094.09 -0.817437 -8.14408 0
M  V30 11774 N 1096.75 1.52266 0.40654 0
M  V30 11775 C 1098 1.6568 1.15035 0
M  V30 11776 C 1098.31 0.394135 1.91588 0
M  V30 11777 O 1099.52 0.408113 2.68415 0
M  V30 11778 C 1097.97 2.92725 2.0938 0
M  V30 11779 C 1097.58 4.26108 1.38332 0
M  V30 11780 C 1099.33 3.15502 2.84004 0
M  V30 11781 C 1097.23 5.44275 2.3134 0
M  V30 11782 H 1096.16 0.61719 0.43312 0
M  V30 11783 H 1098.81 1.78755 0.414598 0
M  V30 11784 H 1097.2 2.73355 2.86519 0
M  V30 11785 H 1098.37 4.55971 0.665396 0
M  V30 11786 H 1096.69 4.09454 0.757384 0
M  V30 11787 H 1099.28 4.00964 3.5374 0
M  V30 11788 H 1099.63 2.29842 3.471 0
M  V30 11789 H 1100.16 3.35357 2.13964 0
M  V30 11790 H 1096.9 6.3229 1.72887 0
M  V30 11791 H 1096.42 5.18749 3.01098 0
M  V30 11792 H 1098.1 5.77457 2.91809 0
M  V30 11793 N 1098.23 -0.663929 1.42933 0
M  V30 11794 C 1099.16 -1.78899 1.50058 0
M  V30 11795 C 1100.14 -1.66329 0.356164 0
M  V30 11796 O 1101.32 -1.85587 0.571944 0
M  V30 11797 C 1098.45 -3.17265 1.41281 0
M  V30 11798 C 1097.41 -3.44584 2.53861 0
M  V30 11799 C 1096.73 -4.82638 2.3014 0
M  V30 11800 C 1098.03 -3.40394 3.96143 0
M  V30 11801 H 1099.73 -1.73194 2.44222 0
M  V30 11802 H 1097.27 -0.83182 1.17545 0
M  V30 11803 H 1099.23 -3.95715 1.44872 0
M  V30 11804 H 1097.95 -3.23675 0.43616 0
M  V30 11805 H 1096.61 -2.685 2.49606 0
M  V30 11806 H 1096.26 -4.85711 1.30743 0
M  V30 11807 H 1095.96 -5.01879 3.056 0
M  V30 11808 H 1097.48 -5.63359 2.35497 0
M  V30 11809 H 1098.9 -4.08796 4.01943 0
M  V30 11810 H 1097.29 -3.7117 4.71543 0
M  V30 11811 H 1098.36 -2.38767 4.22041 0
M  V30 11812 N 1099.71 -1.29285 -0.901281 0
M  V30 11813 C 1100.64 -1.16832 -2.0217 0
M  V30 11814 C 1101.62 -0.0629265 -1.69984 0
M  V30 11815 O 1102.8 -0.242123 -1.92685 0
M  V30 11816 C 1099.93 -0.842406 -3.36929 0
M  V30 11817 C 1098.89 -1.90394 -3.8332 0
M  V30 11818 C 1098.21 -1.43138 -5.15185 0
M  V30 11819 C 1099.51 -3.31254 -4.03817 0
M  V30 11820 H 1101.21 -2.10562 -2.12847 0
M  V30 11821 H 1098.75 -1.01375 -1.0227 0
M  V30 11822 H 1100.71 -0.741999 -4.14816 0
M  V30 11823 H 1099.43 0.130598 -3.26339 0
M  V30 11824 H 1098.09 -1.99371 -3.07647 0
M  V30 11825 H 1097.74 -0.447091 -5.01009 0
M  V30 11826 H 1097.44 -2.14129 -5.47195 0
M  V30 11827 H 1098.96 -1.34444 -5.95615 0
M  V30 11828 H 1100.37 -3.25129 -4.72191 0
M  V30 11829 H 1098.77 -4.00189 -4.47178 0
M  V30 11830 H 1099.84 -3.74349 -3.08206 0
M  V30 11831 N 1101.18 1.11143 -1.11736 0
M  V30 11832 C 1102.13 2.19358 -0.773626 0
M  V30 11833 C 1103.13 1.67744 0.236288 0
M  V30 11834 O 1104.33 1.79748 0.09525 0
M  V30 11835 H 1100.71 0.715218 -0.232309 0
M  V30 11836 H 1102.68 2.45594 -1.69487 0
M  V30 11837 C 1101.43 3.46895 -0.236457 0
M  V30 11838 H 1100.75 3.86967 -1.00483 0
M  V30 11839 H 1102.19 4.23986 -0.034168 0
M  V30 11840 C 1100.65 3.20641 1.03397 0
M  V30 11841 O 1101.18 3.41629 2.11312 0
M  V30 11842 N 1099.39 2.74356 0.957986 0
M  V30 11843 H 1098.93 2.57477 0.0796924 0
M  V30 11844 H 1098.89 2.57166 1.80867 0
M  V30 11845 N 1102.66 0.908147 1.28804 0
M  V30 11846 C 1103.91 0.539201 1.95501 0
M  V30 11847 C 1104.24 -0.913759 1.7136 0
M  V30 11848 O 1103.52 -1.64904 1.03136 0
M  V30 11849 C 1103.8 0.842372 3.50109 0
M  V30 11850 C 1103.65 2.34765 3.83673 0
M  V30 11851 C 1104.97 0.334658 4.38826 0
M  V30 11852 H 1102.09 0.197373 0.71008 0
M  V30 11853 H 1104.73 1.13637 1.52272 0
M  V30 11854 H 1102.88 0.334143 3.8706 0
M  V30 11855 H 1104.55 2.92607 3.56621 0
M  V30 11856 H 1102.8 2.80494 3.30916 0
M  V30 11857 H 1103.47 2.51034 4.91616 0
M  V30 11858 H 1105.94 0.769961 4.08914 0
M  V30 11859 H 1104.82 0.575914 5.4587 0
M  V30 11860 H 1105.08 -0.764878 4.35433 0
M  V30 11861 N 1104.14 -1.42577 0.671525 0
M  V30 11862 C 1105.39 -2.01584 0.192431 0
M  V30 11863 C 1105.72 -1.53076 -1.19992 0
M  V30 11864 O 1104.97 -0.722196 -1.81887 0
M  V30 11865 C 1105.27 -3.56985 0.172097 0
M  V30 11866 C 1104.94 -4.24912 1.50867 0
M  V30 11867 C 1103.6 -4.43182 1.87464 0
M  V30 11868 C 1105.95 -4.6322 2.38908 0
M  V30 11869 C 1103.28 -4.97031 3.11732 0
M  V30 11870 C 1105.63 -5.18447 3.62485 0
M  V30 11871 C 1104.29 -5.34932 3.99255 0
M  V30 11872 H 1103.56 -0.737647 0.0704155 0
M  V30 11873 H 1106.21 -1.70807 0.865862 0
M  V30 11874 H 1104.52 -3.87411 -0.584835 0
M  V30 11875 H 1106.21 -4.00419 -0.215749 0
M  V30 11876 H 1102.8 -4.11048 1.21397 0
M  V30 11877 H 1106.99 -4.4878 2.1192 0
M  V30 11878 H 1102.24 -5.07979 3.40246 0
M  V30 11879 H 1106.42 -5.47075 4.30909 0
M  V30 11880 H 1104.04 -5.76422 4.95623 0
M  V30 11881 N 1105.62 -0.414636 -1.52048 0
M  V30 11882 C 1106.55 0.399119 -2.30064 0
M  V30 11883 C 1107.53 1.04126 -1.34506 0
M  V30 11884 O 1108.71 1.04923 -1.63416 0
M  V30 11885 C 1105.84 1.51305 -3.12608 0
M  V30 11886 C 1104.8 0.995621 -4.16259 0
M  V30 11887 C 1104.12 2.20357 -4.87183 0
M  V30 11888 C 1105.42 0.0458178 -5.2228 0
M  V30 11889 H 1107.12 -0.251879 -2.98339 0
M  V30 11890 H 1104.66 -0.122579 -1.43477 0
M  V30 11891 H 1106.62 2.08936 -3.65956 0
M  V30 11892 H 1105.34 2.19201 -2.42113 0
M  V30 11893 H 1104 0.441676 -3.6393 0
M  V30 11894 H 1103.65 2.8682 -4.13211 0
M  V30 11895 H 1103.35 1.86385 -5.57256 0
M  V30 11896 H 1104.87 2.78584 -5.43345 0
M  V30 11897 H 1106.29 0.531102 -5.70835 0
M  V30 11898 H 1104.68 -0.20536 -5.99749 0
M  V30 11899 H 1105.75 -0.897807 -4.76516 0
M  V30 11900 N 1107.1 1.56929 -0.145233 0
M  V30 11901 C 1108.06 2.15483 0.781002 0
M  V30 11902 C 1109.06 1.09617 1.17647 0
M  V30 11903 O 1110.25 1.35265 1.09768 0
M  V30 11904 C 1107.38 2.7165 2.05959 0
M  V30 11905 H 1108.57 2.98667 0.271685 0
M  V30 11906 H 1106.13 1.55952 0.1042 0
M  V30 11907 H 1106.86 1.92127 2.61262 0
M  V30 11908 H 1106.65 3.491 1.78526 0
M  V30 11909 H 1108.14 3.16769 2.72116 0
M  V30 11910 N 1108.58 -0.128553 1.57075 0
M  V30 11911 C 1109.82 -0.836536 1.83535 0
M  V30 11912 C 1110.14 -1.81491 0.7294 0
M  V30 11913 O 1111.34 -2.56838 0.880128 0
M  V30 11914 C 1109.8 -1.53836 3.25365 0
M  V30 11915 C 1109.41 -0.601454 4.43944 0
M  V30 11916 C 1111.15 -2.23204 3.61082 0
M  V30 11917 C 1109.06 -1.30596 5.768 0
M  V30 11918 H 1107.99 -0.316142 0.684522 0
M  V30 11919 H 1110.64 -0.0892555 1.83283 0
M  V30 11920 H 1109.02 -2.33192 3.20058 0
M  V30 11921 H 1110.2 0.158209 4.60528 0
M  V30 11922 H 1108.51 -0.0152393 4.16397 0
M  V30 11923 H 1111.11 -2.76585 4.57608 0
M  V30 11924 H 1111.45 -3.0056 2.88044 0
M  V30 11925 H 1111.98 -1.50746 3.68131 0
M  V30 11926 H 1108.72 -0.573874 6.52983 0
M  V30 11927 H 1108.24 -2.03787 5.6412 0
M  V30 11928 H 1109.92 -1.8418 6.20231 0
M  V30 11929 N 1110.05 -1.5248 -0.398459 0
M  V30 11930 C 1111.02 -1.75949 -1.46883 0
M  V30 11931 C 1112.02 -0.629431 -1.47969 0
M  V30 11932 O 1113.21 -0.897407 -1.49306 0
M  V30 11933 C 1110.34 -1.85162 -2.8623 0
M  V30 11934 H 1111.53 -2.71513 -1.2736 0
M  V30 11935 H 1109.08 -1.43058 -0.629619 0
M  V30 11936 H 1109.82 -0.915505 -3.11109 0
M  V30 11937 H 1109.6 -2.67326 -2.86844 0
M  V30 11938 H 1111.09 -2.05025 -3.63805 0
M  V30 11939 N 1111.53 0.65634 -1.43283 0
M  V30 11940 C 1112.78 1.41837 -1.44949 0
M  V30 11941 C 1113.11 1.94065 -0.0723212 0
M  V30 11942 O 1112.39 1.72092 0.906346 0
M  V30 11943 C 1112.67 2.60206 -2.48927 0
M  V30 11944 C 1112.52 2.1349 -3.95907 0
M  V30 11945 C 1113.84 3.62421 -2.49678 0
M  V30 11946 H 1110.96 0.514398 -0.527792 0
M  V30 11947 H 1113.6 0.74435 -1.74813 0
M  V30 11948 H 1111.75 3.17708 -2.23592 0
M  V30 11949 H 1113.42 1.61012 -4.32288 0
M  V30 11950 H 1111.67 1.4489 -4.08888 0
M  V30 11951 H 1112.34 2.98596 -4.64268 0
M  V30 11952 H 1114.81 3.14671 -2.72252 0
M  V30 11953 H 1113.69 4.42798 -3.24378 0
M  V30 11954 H 1113.95 4.14802 -1.52944 0
M  V30 11955 N 1113.01 1.29761 0.894412 0
M  V30 11956 C 1114.29 1.08711 1.62608 0
M  V30 11957 C 1114.67 -0.366907 2.07887 0
M  V30 11958 O 1114.01 -1.35669 1.83865 0
M  V30 11959 C 1114.22 2.07947 2.80284 0
M  V30 11960 C 1115.57 2.39153 3.50843 0
M  V30 11961 O 1116.6 2.06183 2.9046 0
M  V30 11962 O 1115.46 2.95509 4.59713 0
M  V30 11963 H 1112.55 0.416866 0.714249 0
M  V30 11964 H 1115.1 1.41153 0.942015 0
M  V30 11965 H 1113.87 3.05859 2.44061 0
M  V30 11966 H 1113.49 1.76266 3.56393 0
M  V30 11967 N 1114.49 -1.10549 1.12324 0
M  V30 11968 C 1115.44 -2.18944 0.785248 0
M  V30 11969 C 1116.43 -1.67867 -0.227389 0
M  V30 11970 O 1117.64 -1.79796 -0.0857162 0
M  V30 11971 H 1114.01 -0.713976 0.236098 0
M  V30 11972 H 1115.98 -2.44692 1.70788 0
M  V30 11973 C 1114.73 -3.46765 0.25485 0
M  V30 11974 H 1114.05 -3.86428 1.02534 0
M  V30 11975 H 1115.49 -4.23962 0.0566526 0
M  V30 11976 C 1113.95 -3.21185 -1.01695 0
M  V30 11977 O 1114.48 -3.42745 -2.09497 0
M  V30 11978 N 1112.69 -2.7486 -0.943423 0
M  V30 11979 H 1112.24 -2.57515 -0.0660366 0
M  V30 11980 H 1112.19 -2.58122 -1.795 0
M  V30 11981 N 1115.97 -0.914965 -1.28321 0
M  V30 11982 C 1116.9 -0.421292 -2.29668 0
M  V30 11983 C 1117.88 0.511743 -1.6222 0
M  V30 11984 O 1119.06 0.419218 -1.89621 0
M  V30 11985 C 1116.19 0.338364 -3.45648 0
M  V30 11986 C 1115.15 -0.505646 -4.25003 0
M  V30 11987 C 1114.47 0.382421 -5.33331 0
M  V30 11988 C 1115.77 -1.76354 -4.91626 0
M  V30 11989 H 1117.47 -1.26826 -2.71211 0
M  V30 11990 H 1115.01 -0.611291 -1.30381 0
M  V30 11991 H 1116.96 0.694578 -4.15636 0
M  V30 11992 H 1115.69 1.21925 -3.02988 0
M  V30 11993 H 1114.35 -0.844395 -3.56743 0
M  V30 11994 H 1114 1.26189 -4.86914 0
M  V30 11995 H 1113.7 -0.17871 -5.87328 0
M  V30 11996 H 1115.22 0.73449 -6.06166 0
M  V30 11997 H 1116.63 -1.47616 -5.5397 0
M  V30 11998 H 1115.03 -2.26717 -5.55625 0
M  V30 11999 H 1116.1 -2.49063 -4.16048 0
M  V30 12000 N 1117.44 1.42219 -0.679077 0
M  V30 12001 C 1118.41 2.29197 -0.0125475 0
M  V30 12002 C 1119.41 1.43544 0.724691 0
M  V30 12003 O 1120.6 1.64884 0.562052 0
M  V30 12004 C 1117.73 3.26122 0.992846 0
M  V30 12005 H 1118.92 2.89629 -0.778154 0
M  V30 12006 H 1116.47 1.4993 -0.44166 0
M  V30 12007 H 1117.21 2.70637 1.78679 0
M  V30 12008 H 1116.99 3.89302 0.467544 0
M  V30 12009 H 1118.48 3.91339 1.45751 0
M  V30 12010 N 1118.92 0.422693 1.51826 0
M  V30 12011 C 1120.2 -0.20786 1.94492 0
M  V30 12012 C 1120.58 -1.61414 1.36047 0
M  V30 12013 O 1119.93 -2.21987 0.541657 0
M  V30 12014 C 1120.14 -0.200457 3.48424 0
M  V30 12015 C 1121.48 -0.413199 4.22585 0
M  V30 12016 O 1122.51 -0.27922 3.55104 0
M  V30 12017 O 1121.37 -0.678469 5.42272 0
M  V30 12018 H 1118.46 -0.137851 0.81543 0
M  V30 12019 H 1121.01 0.479617 1.62781 0
M  V30 12020 H 1119.78 0.783263 3.83381 0
M  V30 12021 H 1119.4 -0.931464 3.86535 0
M  V30 12022 N 1120.4 -1.5685 0.153553 0
M  V30 12023 C 1121.36 -2.15894 -0.769564 0
M  V30 12024 C 1122.36 -1.10239 -1.17064 0
M  V30 12025 O 1123.55 -1.35845 -1.09049 0
M  V30 12026 C 1120.68 -2.72738 -2.04516 0
M  V30 12027 H 1121.88 -2.98807 -0.255842 0
M  V30 12028 H 1119.43 -1.56005 -0.0959279 0
M  V30 12029 H 1120.17 -1.9351 -2.60239 0
M  V30 12030 H 1119.95 -3.50042 -1.76672 0
M  V30 12031 H 1121.44 -3.18208 -2.70432 0
M  V30 12032 N 1121.88 0.120221 -1.57141 0
M  V30 12033 C 1122.79 1.16641 -2.03549 0
M  V30 12034 C 1123.8 1.45407 -0.955656 0
M  V30 12035 O 1124.98 1.56547 -1.26708 0
M  V30 12036 C 1122.04 2.4734 -2.42948 0
M  V30 12037 C 1121.11 2.25982 -3.65008 0
M  V30 12038 C 1120.34 3.50449 -4.02518 0
M  V30 12039 O 1120.56 4.57706 -3.40384 0
M  V30 12040 O 1119.5 3.41524 -4.95626 0
M  V30 12041 H 1123.32 0.802323 -2.9291 0
M  V30 12042 H 1120.91 0.330927 -1.45689 0
M  V30 12043 H 1122.79 3.24348 -2.69029 0
M  V30 12044 H 1121.46 2.83225 -1.56733 0
M  V30 12045 H 1120.37 1.46837 -3.44078 0
M  V30 12046 H 1121.7 1.95002 -4.51924 0
M  V30 12047 N 1123.36 1.52689 0.390367 0
M  V30 12048 C 1124.58 1.71839 1.16129 0
M  V30 12049 C 1125.01 0.435226 1.82996 0
M  V30 12050 O 1124.36 -0.60889 1.70769 0
M  V30 12051 C 1124.41 2.86784 2.18603 0
M  V30 12052 O 1123.52 2.53662 3.25161 0
M  V30 12053 H 1122.86 0.571455 0.338135 0
M  V30 12054 H 1125.39 1.99475 0.45508 0
M  V30 12055 H 1125.4 3.12239 2.62622 0
M  V30 12056 H 1124.07 3.79872 1.69322 0
M  V30 12057 H 1122.65 2.38942 2.86289 0
M  V30 12058 N 1124.83 -0.648732 1.43629 0
M  V30 12059 C 1125.76 -1.77298 1.51947 0
M  V30 12060 C 1126.75 -1.65942 0.373785 0
M  V30 12061 O 1127.93 -1.8497 0.591596 0
M  V30 12062 C 1125.06 -3.15749 1.44638 0
M  V30 12063 C 1124.01 -3.41872 2.57502 0
M  V30 12064 C 1123.34 -4.8017 2.35246 0
M  V30 12065 C 1124.64 -3.36173 3.99731 0
M  V30 12066 H 1126.33 -1.70594 2.46045 0
M  V30 12067 H 1123.88 -0.819306 1.1842 0
M  V30 12068 H 1125.83 -3.94156 1.4906 0
M  V30 12069 H 1124.56 -3.23194 0.470466 0
M  V30 12070 H 1123.22 -2.65838 2.5244 0
M  V30 12071 H 1122.86 -4.84297 1.35887 0
M  V30 12072 H 1122.56 -4.9861 3.10906 0
M  V30 12073 H 1124.09 -5.6083 2.41459 0
M  V30 12074 H 1125.5 -4.0451 4.06257 0
M  V30 12075 H 1123.9 -3.66148 4.75453 0
M  V30 12076 H 1124.97 -2.34277 4.24549 0
M  V30 12077 N 1126.31 -1.30234 -0.887518 0
M  V30 12078 C 1127.54 -1.21829 -1.67229 0
M  V30 12079 C 1127.96 0.219251 -1.87523 0
M  V30 12080 O 1127.31 1.14526 -1.42091 0
M  V30 12081 C 1127.36 -1.94044 -3.05007 0
M  V30 12082 O 1127.08 -3.32185 -2.85631 0
M  V30 12083 C 1128.59 -1.92265 -3.99436 0
M  V30 12084 H 1125.81 -0.421716 -0.521916 0
M  V30 12085 H 1128.35 -1.71816 -1.10903 0
M  V30 12086 H 1126.5 -1.47861 -3.58072 0
M  V30 12087 H 1126.92 -3.68724 -3.73018 0
M  V30 12088 H 1128.39 -2.47336 -4.93486 0
M  V30 12089 H 1128.87 -0.900984 -4.29859 0
M  V30 12090 H 1129.48 -2.38247 -3.52305 0
M  V30 12091 N 1127.79 1.09952 -1.12909 0
M  V30 12092 C 1129.02 1.8633 -0.910821 0
M  V30 12093 C 1129.44 1.80335 0.534874 0
M  V30 12094 O 1128.8 1.1769 1.37908 0
M  V30 12095 C 1128.85 3.32462 -1.39648 0
M  V30 12096 O 1127.95 4.08327 -0.578192 0
M  V30 12097 H 1127.29 0.577984 -0.32685 0
M  V30 12098 H 1129.82 1.38883 -1.50242 0
M  V30 12099 H 1129.83 3.83311 -1.39774 0
M  V30 12100 H 1128.51 3.36141 -2.44913 0
M  V30 12101 H 1127.08 3.67291 -0.644347 0
M  V30 12102 N 1129.27 0.921757 1.27833 0
M  V30 12103 C 1130.23 0.420978 2.25301 0
M  V30 12104 C 1131.23 -0.457158 1.54165 0
M  V30 12105 O 1132.42 -0.259079 1.72263 0
M  V30 12106 C 1129.55 -0.395501 3.38598 0
M  V30 12107 H 1130.75 1.28206 2.71115 0
M  V30 12108 H 1128.3 0.701893 1.39654 0
M  V30 12109 H 1129.03 -1.27565 2.98157 0
M  V30 12110 H 1128.82 0.234029 3.91401 0
M  V30 12111 H 1130.31 -0.736444 4.11055 0
M  V30 12112 N 1130.75 -1.41857 0.686609 0
M  V30 12113 C 1131.68 -2.29188 -0.0234289 0
M  V30 12114 C 1132.69 -1.44311 -0.753541 0
M  V30 12115 O 1133.88 -1.67908 -0.605734 0
M  V30 12116 C 1130.98 -3.21991 -1.05713 0
M  V30 12117 C 1130.15 -4.35581 -0.398453 0
M  V30 12118 C 1129.21 -5.09022 -1.33354 0
M  V30 12119 O 1128.24 -5.63126 -0.829334 0
M  V30 12120 N 1129.44 -5.15643 -2.66632 0
M  V30 12121 H 1132.21 -2.90766 0.726295 0
M  V30 12122 H 1129.77 -1.52912 0.531937 0
M  V30 12123 H 1131.76 -3.6799 -1.68421 0
M  V30 12124 H 1130.33 -2.61782 -1.70847 0
M  V30 12125 H 1129.55 -3.92079 0.408358 0
M  V30 12126 H 1130.84 -5.08765 0.0599239 0
M  V30 12127 H 1130.23 -4.73118 -3.10122 0
M  V30 12128 H 1128.79 -5.65248 -3.24558 0
M  V30 12129 N 1132.22 -0.430739 -1.51599 0
M  V30 12130 C 1133.17 0.384024 -2.27583 0
M  V30 12131 C 1134.14 1.02254 -1.30895 0
M  V30 12132 O 1135.33 1.0427 -1.59789 0
M  V30 12133 C 1132.47 1.48291 -3.11615 0
M  V30 12134 C 1131.58 0.863187 -4.23288 0
M  V30 12135 C 1130.71 1.93657 -4.94642 0
M  V30 12136 C 1129.75 1.29493 -5.98246 0
M  V30 12137 N 1128.89 2.30939 -6.63032 0
M  V30 12138 H 1133.73 -0.270314 -2.96771 0
M  V30 12139 H 1131.27 -0.145148 -1.46382 0
M  V30 12140 H 1133.23 2.13124 -3.58656 0
M  V30 12141 H 1131.86 2.10697 -2.44554 0
M  V30 12142 H 1130.91 0.103326 -3.8026 0
M  V30 12143 H 1132.22 0.354676 -4.97537 0
M  V30 12144 H 1131.37 2.66167 -5.45197 0
M  V30 12145 H 1130.11 2.4788 -4.20008 0
M  V30 12146 H 1129.12 0.555262 -5.46989 0
M  V30 12147 H 1130.34 0.760122 -6.74833 0
M  V30 12148 H 1128.29 2.84254 -5.91216 0
M  V30 12149 H 1128.21 1.84961 -7.33025 0
M  V30 12150 H 1129.47 3.02953 -7.1822 0
M  V30 12151 N 1133.7 1.56767 -0.161869 0
M  V30 12152 C 1134.61 2.21083 0.784814 0
M  V30 12153 C 1135.63 1.19959 1.26039 0
M  V30 12154 O 1136.8 1.52588 1.31449 0
M  V30 12155 C 1133.87 2.83153 2.00063 0
M  V30 12156 C 1132.93 3.9945 1.57285 0
M  V30 12157 C 1132.16 4.5855 2.7307 0
M  V30 12158 O 1132.39 4.16534 3.89686 0
M  V30 12159 O 1131.32 5.48575 2.47688 0
M  V30 12160 H 1135.15 3.02522 0.267243 0
M  V30 12161 H 1132.73 1.49255 0.0658783 0
M  V30 12162 H 1134.61 3.22546 2.71186 0
M  V30 12163 H 1133.29 2.04718 2.50744 0
M  V30 12164 H 1132.2 3.64745 0.831393 0
M  V30 12165 H 1133.53 4.7945 1.11304 0
M  V30 12166 N 1135.18 -0.111886 1.57202 0
M  V30 12167 C 1136.09 -1.1556 2.04165 0
M  V30 12168 C 1137.11 -1.44898 0.963354 0
M  V30 12169 O 1138.28 -1.55873 1.27536 0
M  V30 12170 C 1135.35 -2.46048 2.44256 0
M  V30 12171 C 1134.41 -2.24043 3.66201 0
M  V30 12172 C 1133.64 -3.4831 4.04371 0
M  V30 12173 O 1133.86 -4.55895 3.42806 0
M  V30 12174 O 1132.8 -3.38891 4.9743 0
M  V30 12175 H 1136.62 -0.786778 2.93332 0
M  V30 12176 H 1134.21 -0.323196 1.45862 0
M  V30 12177 H 1136.09 -3.22916 2.70745 0
M  V30 12178 H 1134.77 -2.8239 1.58233 0
M  V30 12179 H 1133.67 -1.4501 3.44852 0
M  V30 12180 H 1135.01 -1.92602 4.52952 0
M  V30 12181 N 1136.66 -1.52894 -0.382264 0
M  V30 12182 C 1137.57 -1.81084 -1.4915 0
M  V30 12183 C 1138.58 -0.698045 -1.59384 0
M  V30 12184 O 1139.76 -0.98635 -1.75594 0
M  V30 12185 C 1136.83 -1.97987 -2.84608 0
M  V30 12186 C 1135.89 -3.219 -2.8404 0
M  V30 12187 C 1135.12 -3.37988 -4.13037 0
M  V30 12188 O 1135.34 -2.58733 -5.08344 0
M  V30 12189 O 1134.28 -4.31273 -4.19866 0
M  V30 12190 H 1138.1 -2.75289 -1.28257 0
M  V30 12191 H 1135.69 -1.38068 -0.57076 0
M  V30 12192 H 1137.57 -2.10773 -3.64901 0
M  V30 12193 H 1136.24 -1.06972 -3.05514 0
M  V30 12194 H 1135.15 -3.14551 -2.02505 0
M  V30 12195 H 1136.48 -4.12783 -2.68087 0
M  V30 12196 N 1138.14 0.641106 -1.43971 0
M  V30 12197 C 1139.05 1.78239 -1.52538 0
M  V30 12198 C 1140.06 1.6906 -0.411668 0
M  V30 12199 O 1141.24 1.90014 -0.66757 0
M  V30 12200 C 1138.3 3.14579 -1.45743 0
M  V30 12201 C 1137.37 3.35464 -2.67885 0
M  V30 12202 C 1136.6 4.65299 -2.61404 0
M  V30 12203 O 1136.82 5.45451 -1.66851 0
M  V30 12204 O 1135.76 4.8817 -3.521 0
M  V30 12205 H 1139.58 1.73965 -2.48937 0
M  V30 12206 H 1137.17 0.801098 -1.26106 0
M  V30 12207 H 1139.05 3.95873 -1.4444 0
M  V30 12208 H 1137.72 3.19417 -0.524837 0
M  V30 12209 H 1136.63 2.53888 -2.74758 0
M  V30 12210 H 1137.96 3.35481 -3.60157 0
M  V30 12211 N 1139.62 1.30703 0.880598 0
M  V30 12212 C 1140.53 1.19389 2.01949 0
M  V30 12213 C 1141.54 0.112868 1.73634 0
M  V30 12214 O 1142.72 0.328643 1.98701 0
M  V30 12215 C 1139.78 0.891004 3.35055 0
M  V30 12216 C 1138.84 2.05784 3.76764 0
M  V30 12217 C 1138.08 1.76931 5.03519 0
M  V30 12218 O 1138.3 0.699326 5.66097 0
M  V30 12219 O 1137.23 2.623 5.4174 0
M  V30 12220 H 1141.06 2.15073 2.14423 0
M  V30 12221 H 1138.64 1.10339 1.00726 0
M  V30 12222 H 1140.53 0.737476 4.14897 0
M  V30 12223 H 1139.2 -0.0358909 3.2368 0
M  V30 12224 H 1138.11 2.26672 2.97608 0
M  V30 12225 H 1139.44 2.96661 3.9275 0
M  V30 12226 N 1141.09 -1.09351 1.1349 0
M  V30 12227 C 1142.04 -2.16008 0.812981 0
M  V30 12228 C 1143.01 -1.64566 -0.225252 0
M  V30 12229 O 1144.2 -1.90552 -0.0973261 0
M  V30 12230 C 1141.34 -3.43913 0.285996 0
M  V30 12231 C 1140.45 -4.09251 1.38338 0
M  V30 12232 C 1139.58 -5.24916 0.814652 0
M  V30 12233 C 1138.62 -5.82178 1.89038 0
M  V30 12234 N 1137.76 -6.89203 1.33955 0
M  V30 12235 H 1142.6 -2.42887 1.72655 0
M  V30 12236 H 1140.14 -1.19209 0.861833 0
M  V30 12237 H 1142.09 -4.17183 -0.0376794 0
M  V30 12238 H 1140.72 -3.17349 -0.590707 0
M  V30 12239 H 1139.78 -3.33838 1.82363 0
M  V30 12240 H 1141.09 -4.4784 2.19638 0
M  V30 12241 H 1140.24 -6.05086 0.442306 0
M  V30 12242 H 1138.98 -4.87691 -0.029416 0
M  V30 12243 H 1137.99 -5.00669 2.27179 0
M  V30 12244 H 1139.21 -6.21464 2.73787 0
M  V30 12245 H 1137.16 -6.53956 0.517494 0
M  V30 12246 H 1137.07 -7.26565 2.08902 0
M  V30 12247 H 1138.34 -7.73126 0.994793 0
M  V30 12248 N 1142.57 -0.928524 -1.27343 0
M  V30 12249 C 1143.48 -0.433901 -2.30553 0
M  V30 12250 C 1144.5 0.485832 -1.6708 0
M  V30 12251 O 1145.67 0.36844 -1.98001 0
M  V30 12252 C 1142.74 0.304617 -3.45359 0
M  V30 12253 C 1141.8 -0.650131 -4.24349 0
M  V30 12254 C 1141.03 0.0532372 -5.33673 0
M  V30 12255 O 1141.26 1.27246 -5.56026 0
M  V30 12256 O 1140.19 -0.619009 -5.98709 0
M  V30 12257 H 1144.02 -1.2909 -2.74899 0
M  V30 12258 H 1141.6 -0.693903 -1.32308 0
M  V30 12259 H 1143.48 0.721137 -4.15184 0
M  V30 12260 H 1142.16 1.13721 -3.03066 0
M  V30 12261 H 1141.06 -1.11635 -3.57055 0
M  V30 12262 H 1142.4 -1.44996 -4.70358 0
M  V30 12263 N 1144.05 1.41491 -0.694123 0
M  V30 12264 C 1145.47 1.55358 -0.365532 0
M  V30 12265 C 1145.67 1.66994 1.12762 0
M  V30 12266 O 1144.72 1.64756 1.91342 0
M  V30 12267 C 1146.03 2.79352 -1.11279 0
M  V30 12268 C 1147.58 2.93147 -1.097 0
M  V30 12269 C 1148.06 4.20027 -1.82597 0
M  V30 12270 N 1149.55 4.26981 -1.7956 0
M  V30 12271 C 1150.28 5.24013 -2.32805 0
M  V30 12272 N 1149.78 6.27083 -2.94515 0
M  V30 12273 N 1151.57 5.15943 -2.23069 0
M  V30 12274 H 1143.72 1.32183 -1.66257 0
M  V30 12275 H 1145.99 0.637624 -0.701527 0
M  V30 12276 H 1145.69 2.76958 -2.16765 0
M  V30 12277 H 1145.57 3.70827 -0.690439 0
M  V30 12278 H 1147.95 2.95057 -0.0504037 0
M  V30 12279 H 1148.03 2.02849 -1.55839 0
M  V30 12280 H 1147.68 4.18878 -2.87235 0
M  V30 12281 H 1147.61 5.09294 -1.33893 0
M  V30 12282 H 1150.1 3.53129 -1.34567 0
M  V30 12283 H 1150.41 6.97511 -3.32714 0
M  V30 12284 H 1148.76 6.27589 -2.98592 0
M  V30 12285 H 1151.95 4.34346 -1.74532 0
M  V30 12286 H 1152.12 5.91396 -2.64868 0
M  V30 12287 N 1145.53 0.438773 1.51369 0
M  V30 12288 C 1146.47 -0.37195 2.27783 0
M  V30 12289 C 1147.44 -1.01558 1.31435 0
M  V30 12290 O 1148.63 -1.03421 1.60339 0
M  V30 12291 C 1145.77 -1.46636 3.12397 0
M  V30 12292 C 1144.88 -0.840727 4.2374 0
M  V30 12293 C 1144.02 -1.91031 4.95662 0
M  V30 12294 C 1143.06 -1.26318 5.98924 0
M  V30 12295 N 1142.19 -2.27419 6.64248 0
M  V30 12296 H 1147.03 0.286048 2.96624 0
M  V30 12297 H 1144.57 0.152909 1.46303 0
M  V30 12298 H 1146.53 -2.11219 3.59781 0
M  V30 12299 H 1145.16 -2.09397 2.45668 0
M  V30 12300 H 1144.21 -0.0831588 3.80309 0
M  V30 12301 H 1145.52 -0.328285 4.97719 0
M  V30 12302 H 1144.68 -2.63272 5.46601 0
M  V30 12303 H 1143.42 -2.45649 4.21317 0
M  V30 12304 H 1142.42 -0.526246 5.47276 0
M  V30 12305 H 1143.65 -0.724324 6.75226 0
M  V30 12306 H 1141.59 -2.81114 5.92715 0
M  V30 12307 H 1141.51 -1.81071 7.33996 0
M  V30 12308 H 1142.78 -2.99139 7.19817 0
M  V30 12309 N 1147.01 -1.56678 0.170181 0
M  V30 12310 C 1147.95 -2.17909 -0.760556 0
M  V30 12311 C 1148.92 -1.11875 -1.22773 0
M  V30 12312 O 1150.11 -1.40021 -1.2961 0
M  V30 12313 C 1147.25 -2.82305 -1.9849 0
M  V30 12314 C 1146.36 -4.02796 -1.5614 0
M  V30 12315 C 1145.5 -4.55121 -2.73932 0
M  V30 12316 C 1144.53 -5.68025 -2.28067 0
M  V30 12317 N 1143.67 -6.14865 -3.38947 0
M  V30 12318 H 1148.51 -2.97098 -0.231629 0
M  V30 12319 H 1146.05 -1.46742 -0.102602 0
M  V30 12320 H 1148.01 -3.17797 -2.70298 0
M  V30 12321 H 1146.64 -2.05721 -2.48755 0
M  V30 12322 H 1145.69 -3.73131 -0.740097 0
M  V30 12323 H 1147 -4.84526 -1.18472 0
M  V30 12324 H 1146.15 -4.92789 -3.53898 0
M  V30 12325 H 1144.89 -3.72445 -3.14858 0
M  V30 12326 H 1143.9 -5.2991 -1.46546 0
M  V30 12327 H 1145.12 -6.52501 -1.88199 0
M  V30 12328 H 1143.07 -5.35119 -3.79452 0
M  V30 12329 H 1142.99 -6.91582 -3.05369 0
M  V30 12330 H 1144.25 -6.57183 -4.19203 0
M  V30 12331 N 1148.48 0.103547 -1.57259 0
M  V30 12332 C 1149.41 1.12714 -2.04494 0
M  V30 12333 C 1150.39 1.42278 -0.932255 0
M  V30 12334 O 1151.58 1.52453 -1.20298 0
M  V30 12335 C 1148.71 2.44927 -2.46228 0
M  V30 12336 C 1147.66 2.2979 -3.61082 0
M  V30 12337 C 1146.99 3.67105 -3.88765 0
M  V30 12338 C 1148.29 1.7455 -4.9227 0
M  V30 12339 H 1149.98 0.734198 -2.90258 0
M  V30 12340 H 1147.53 0.351725 -1.39638 0
M  V30 12341 H 1149.48 3.16798 -2.77879 0
M  V30 12342 H 1148.21 2.8614 -1.57453 0
M  V30 12343 H 1146.87 1.60366 -3.29664 0
M  V30 12344 H 1146.51 4.05831 -2.97171 0
M  V30 12345 H 1146.21 3.57825 -4.66084 0
M  V30 12346 H 1147.74 4.40456 -4.22884 0
M  V30 12347 H 1149.15 2.36253 -5.22358 0
M  V30 12348 H 1147.55 1.76051 -5.73695 0
M  V30 12349 H 1148.62 0.704242 -4.79759 0
M  V30 12350 N 1149.96 1.53094 0.37415 0
M  V30 12351 C 1150.92 1.78264 1.44065 0
M  V30 12352 C 1151.92 0.652892 1.46949 0
M  V30 12353 O 1153.11 0.921046 1.47859 0
M  V30 12354 C 1150.25 1.89693 2.83248 0
M  V30 12355 H 1151.44 2.73505 1.23025 0
M  V30 12356 H 1148.99 1.44041 0.60678 0
M  V30 12357 H 1149.73 0.964884 3.09613 0
M  V30 12358 H 1149.51 2.71855 2.82554 0
M  V30 12359 H 1151 2.10787 3.60498 0
M  V30 12360 N 1151.44 -0.633461 1.44309 0
M  V30 12361 C 1152.86 -0.951379 1.28144 0
M  V30 12362 C 1153.06 -2.00344 0.215512 0
M  V30 12363 O 1152.11 -2.49321 -0.399389 0
M  V30 12364 C 1153.42 -1.41686 2.65227 0
M  V30 12365 C 1154.97 -1.53247 2.72918 0
M  V30 12366 C 1155.45 -2.03179 4.10466 0
M  V30 12367 N 1156.94 -2.10453 4.1263 0
M  V30 12368 C 1157.67 -2.50254 5.15907 0
M  V30 12369 N 1157.17 -2.89209 6.29547 0
M  V30 12370 N 1158.96 -2.50368 5.03262 0
M  V30 12371 H 1151.11 0.0623574 2.12308 0
M  V30 12372 H 1153.38 -0.0347244 0.947364 0
M  V30 12373 H 1153.08 -0.71814 3.4429 0
M  V30 12374 H 1152.96 -2.3883 2.91959 0
M  V30 12375 H 1155.34 -2.22216 1.94176 0
M  V30 12376 H 1155.42 -0.544836 2.4993 0
M  V30 12377 H 1155.07 -1.34806 4.89683 0
M  V30 12378 H 1155 -3.02809 4.3083 0
M  V30 12379 H 1157.49 -1.83042 3.30612 0
M  V30 12380 H 1157.8 -3.18386 7.04166 0
M  V30 12381 H 1156.15 -2.86966 6.32989 0
M  V30 12382 H 1159.34 -2.19324 4.13539 0
M  V30 12383 H 1159.51 -2.81062 5.83873 0
M  V30 12384 N 1152.92 -1.31168 -0.873655 0
M  V30 12385 C 1154.15 -1.23595 -1.65927 0
M  V30 12386 C 1154.56 0.199349 -1.87745 0
M  V30 12387 O 1153.92 1.13013 -1.43298 0
M  V30 12388 C 1153.97 -1.97268 -3.02932 0
M  V30 12389 O 1153.69 -3.35196 -2.82091 0
M  V30 12390 C 1155.19 -1.9649 -3.97374 0
M  V30 12391 H 1152.41 -0.427228 -0.517414 0
M  V30 12392 H 1154.96 -1.72983 -1.09074 0
M  V30 12393 H 1153.11 -1.51651 -3.56484 0
M  V30 12394 H 1153.52 -3.7266 -3.69087 0
M  V30 12395 H 1155 -2.52557 -4.90835 0
M  V30 12396 H 1155.48 -0.946525 -4.28879 0
M  V30 12397 H 1156.08 -2.4197 -3.49758 0
M  V30 12398 N 1154.4 1.08748 -1.14068 0
M  V30 12399 C 1155.36 2.1375 -0.827266 0
M  V30 12400 C 1156.36 1.59936 0.166496 0
M  V30 12401 O 1157.55 1.74092 -0.0614305 0
M  V30 12402 C 1154.68 3.40106 -0.232557 0
M  V30 12403 H 1155.87 2.42985 -1.7578 0
M  V30 12404 H 1153.43 1.24402 -0.946244 0
M  V30 12405 H 1154.16 3.16503 0.706859 0
M  V30 12406 H 1153.95 3.8046 -0.948293 0
M  V30 12407 H 1155.44 4.17589 -0.0303662 0
M  V30 12408 N 1155.87 0.935264 1.26849 0
M  V30 12409 C 1157.1 0.595704 1.98661 0
M  V30 12410 C 1157.52 -0.821001 1.69237 0
M  V30 12411 O 1156.88 -1.55211 0.936982 0
M  V30 12412 C 1156.93 0.837275 3.50745 0
M  V30 12413 O 1156.03 -0.0934914 4.12294 0
M  V30 12414 H 1155.38 0.228512 0.623441 0
M  V30 12415 H 1157.91 1.25658 1.61466 0
M  V30 12416 H 1157.92 0.755827 4.00938 0
M  V30 12417 H 1156.59 1.86993 3.71492 0
M  V30 12418 H 1155.17 0.0385124 3.7288 0
M  V30 12419 N 1157.35 -1.41121 0.701616 0
M  V30 12420 C 1158.76 -1.84122 0.309208 0
M  V30 12421 C 1159.11 -1.58695 -1.15371 0
M  V30 12422 O 1158.24 -1.06053 -1.88631 0
M  V30 12423 C 1158.83 -3.34233 0.554429 0
M  V30 12424 C 1157.39 -3.7578 0.215876 0
M  V30 12425 C 1156.54 -2.6447 0.833729 0
M  V30 12426 H 1159.49 -1.30587 0.901822 0
M  V30 12427 H 1159.51 -3.8005 -0.18491 0
M  V30 12428 H 1159.02 -3.52707 1.61923 0
M  V30 12429 H 1157.13 -3.62905 -0.844421 0
M  V30 12430 H 1157.24 -4.74319 0.675118 0
M  V30 12431 H 1155.6 -2.5334 0.262851 0
M  V30 12432 H 1156.39 -2.85761 1.90252 0
M  V30 12433 N 1158.83 -0.446794 -1.51134 0
M  V30 12434 C 1159.74 0.36579 -2.31731 0
M  V30 12435 C 1160.76 1.01886 -1.41051 0
M  V30 12436 O 1161.93 1.01216 -1.74119 0
M  V30 12437 C 1159 1.44705 -3.15058 0
M  V30 12438 C 1158.06 0.813129 -4.21529 0
M  V30 12439 C 1157.29 1.84287 -5.00873 0
M  V30 12440 O 1157.51 3.06633 -4.8097 0
M  V30 12441 O 1156.45 1.42816 -5.84711 0
M  V30 12442 H 1160.27 -0.292436 -3.02289 0
M  V30 12443 H 1157.86 -0.209129 -1.47929 0
M  V30 12444 H 1159.74 2.07393 -3.66833 0
M  V30 12445 H 1158.42 2.08919 -2.47254 0
M  V30 12446 H 1157.32 0.147953 -3.73807 0
M  V30 12447 H 1158.66 0.214331 -4.91733 0
M  V30 12448 N 1160.31 1.56586 -0.178487 0
M  V30 12449 C 1161.26 2.18309 0.74899 0
M  V30 12450 C 1162.23 1.12525 1.22178 0
M  V30 12451 O 1163.41 1.40706 1.28866 0
M  V30 12452 C 1160.55 2.83353 1.9699 0
M  V30 12453 C 1159.66 4.03618 1.54002 0
M  V30 12454 C 1158.8 4.56567 2.71514 0
M  V30 12455 C 1157.84 5.69226 2.25051 0
M  V30 12456 N 1156.97 6.16654 3.35682 0
M  V30 12457 H 1161.81 2.97217 0.21587 0
M  V30 12458 H 1159.35 1.46794 0.0948182 0
M  V30 12459 H 1161.31 3.19226 2.68609 0
M  V30 12460 H 1159.94 2.07037 2.4766 0
M  V30 12461 H 1158.99 3.73518 0.720298 0
M  V30 12462 H 1160.3 4.85148 1.15901 0
M  V30 12463 H 1159.46 4.94659 3.5128 0
M  V30 12464 H 1158.2 3.7411 3.12879 0
M  V30 12465 H 1157.2 5.30679 1.43734 0
M  V30 12466 H 1158.43 6.5349 1.84736 0
M  V30 12467 H 1156.37 5.37124 3.76609 0
M  V30 12468 H 1156.29 6.93192 3.01697 0
M  V30 12469 H 1157.56 6.59397 4.15711 0
M  V30 12470 N 1161.79 -0.095206 1.57312 0
M  V30 12471 C 1162.73 -1.11551 2.02052 0
M  V30 12472 C 1163.7 -1.39808 0.896818 0
M  V30 12473 O 1164.89 -1.51273 1.1628 0
M  V30 12474 C 1162.03 -2.43056 2.44985 0
M  V30 12475 C 1161.14 -2.21531 3.70875 0
M  V30 12476 C 1160.28 -3.46434 4.02687 0
M  V30 12477 C 1159.32 -3.2017 5.21687 0
M  V30 12478 N 1158.45 -4.37339 5.49253 0
M  V30 12479 H 1163.29 -0.727 2.88996 0
M  V30 12480 H 1160.83 -0.347441 1.42938 0
M  V30 12481 H 1162.79 -3.19803 2.67921 0
M  V30 12482 H 1161.42 -2.79754 1.61051 0
M  V30 12483 H 1160.47 -1.35587 3.55416 0
M  V30 12484 H 1161.78 -1.98116 4.57768 0
M  V30 12485 H 1160.94 -4.31589 4.26399 0
M  V30 12486 H 1159.67 -3.72904 3.14315 0
M  V30 12487 H 1158.68 -2.33409 4.97796 0
M  V30 12488 H 1159.9 -2.95047 6.11657 0
M  V30 12489 H 1157.85 -4.63885 4.6384 0
M  V30 12490 H 1157.77 -4.17114 6.30517 0
M  V30 12491 H 1159.04 -5.23559 5.775 0
M  V30 12492 N 1163.26 -1.53291 -0.366026 0
M  V30 12493 C 1164.2 -1.75981 -1.46845 0
M  V30 12494 C 1165.21 -0.640574 -1.49668 0
M  V30 12495 O 1166.4 -0.916823 -1.53155 0
M  V30 12496 C 1163.5 -1.82426 -2.85611 0
M  V30 12497 C 1162.67 -3.12062 -3.0649 0
M  V30 12498 C 1161.73 -3.09755 -4.25368 0
M  V30 12499 O 1160.76 -3.83555 -4.20564 0
M  V30 12500 N 1161.96 -2.30544 -5.32757 0
M  V30 12501 H 1164.72 -2.71104 -1.2776 0
M  V30 12502 H 1162.28 -1.52063 -0.555745 0
M  V30 12503 H 1164.28 -1.78361 -3.63276 0
M  V30 12504 H 1162.85 -0.945888 -2.97946 0
M  V30 12505 H 1162.07 -3.29433 -2.16489 0
M  V30 12506 H 1163.35 -3.97735 -3.17308 0
M  V30 12507 H 1162.75 -1.70095 -5.39522 0
M  V30 12508 H 1161.31 -2.32298 -6.09 0
M  V30 12509 N 1164.74 0.6258 -1.44643 0
M  V30 12510 C 1165.65 1.76611 -1.5442 0
M  V30 12511 C 1166.67 1.68614 -0.429576 0
M  V30 12512 O 1167.84 1.89296 -0.687686 0
M  V30 12513 C 1164.91 3.13015 -1.49071 0
M  V30 12514 C 1163.97 3.32604 -2.71428 0
M  V30 12515 C 1163.2 4.62501 -2.66325 0
M  V30 12516 O 1163.43 5.43651 -1.72626 0
M  V30 12517 O 1162.36 4.84408 -3.57258 0
M  V30 12518 H 1166.19 1.71315 -2.50769 0
M  V30 12519 H 1163.77 0.787677 -1.26949 0
M  V30 12520 H 1165.65 3.94318 -1.48631 0
M  V30 12521 H 1164.33 3.18842 -0.558686 0
M  V30 12522 H 1163.24 2.50959 -2.77435 0
M  V30 12523 H 1164.57 3.31642 -3.63695 0
M  V30 12524 N 1166.22 1.31629 0.866686 0
M  V30 12525 C 1167.15 1.22151 1.99001 0
M  V30 12526 C 1168.13 0.107972 1.69757 0
M  V30 12527 O 1169.32 0.293125 1.91975 0
M  V30 12528 C 1166.45 0.93144 3.34577 0
M  V30 12529 C 1165.4 2.0049 3.78137 0
M  V30 12530 C 1164.73 1.56747 5.11209 0
M  V30 12531 C 1166.03 3.41844 3.94892 0
M  V30 12532 H 1167.72 2.16132 2.0719 0
M  V30 12533 H 1165.27 1.04051 0.995463 0
M  V30 12534 H 1167.22 0.851719 4.12703 0
M  V30 12535 H 1165.94 -0.0440289 3.2657 0
M  V30 12536 H 1164.6 2.07457 3.02253 0
M  V30 12537 H 1164.25 0.579767 4.99648 0
M  V30 12538 H 1163.95 2.28562 5.41326 0
M  V30 12539 H 1165.47 1.50188 5.91841 0
M  V30 12540 H 1166.89 3.37534 4.63405 0
M  V30 12541 H 1165.29 4.11905 4.36411 0
M  V30 12542 H 1166.36 3.82389 2.98172 0
M  V30 12543 N 1167.7 -1.08142 1.14644 0
M  V30 12544 C 1168.95 -1.80849 0.917685 0
M  V30 12545 C 1169.28 -1.86123 -0.554249 0
M  V30 12546 O 1168.55 -1.33907 -1.41065 0
M  V30 12547 C 1168.84 -3.26325 1.52264 0
M  V30 12548 C 1168.69 -3.29244 3.06461 0
M  V30 12549 C 1170.01 -4.23375 1.20175 0
M  V30 12550 H 1167.13 -0.656559 0.334812 0
M  V30 12551 H 1169.77 -1.26595 1.41682 0
M  V30 12552 H 1167.92 -3.72656 1.09817 0
M  V30 12553 H 1169.59 -2.91216 3.57758 0
M  V30 12554 H 1167.83 -2.68438 3.40769 0
M  V30 12555 H 1168.51 -4.31785 3.43897 0
M  V30 12556 H 1170.98 -3.85394 1.56877 0
M  V30 12557 H 1169.86 -5.23472 1.65132 0
M  V30 12558 H 1170.12 -4.41944 0.117474 0
M  V30 12559 N 1169.18 -0.941978 -1.26351 0
M  V30 12560 C 1170.09 -0.45833 -2.30079 0
M  V30 12561 C 1171.1 0.468084 -1.67586 0
M  V30 12562 O 1172.28 0.347418 -1.98381 0
M  V30 12563 C 1169.34 0.26797 -3.45663 0
M  V30 12564 C 1168.41 -0.695102 -4.23635 0
M  V30 12565 C 1167.64 -0.003369 -5.337 0
M  V30 12566 O 1167.86 1.21342 -5.57344 0
M  V30 12567 O 1166.8 -0.682476 -5.98018 0
M  V30 12568 H 1170.62 -1.31998 -2.73514 0
M  V30 12569 H 1168.21 -0.707897 -1.31564 0
M  V30 12570 H 1170.09 0.677061 -4.15925 0
M  V30 12571 H 1168.76 1.105 -3.04256 0
M  V30 12572 H 1167.67 -1.15415 -3.55851 0
M  V30 12573 H 1169 -1.49977 -4.68794 0
M  V30 12574 N 1170.66 1.40747 -0.709091 0
M  V30 12575 C 1171.6 2.30741 -0.0523584 0
M  V30 12576 C 1172.57 1.4784 0.757145 0
M  V30 12577 O 1173.76 1.76595 0.72242 0
M  V30 12578 C 1170.9 3.34 0.868203 0
M  V30 12579 C 1170.01 4.31972 0.0488686 0
M  V30 12580 C 1169.15 5.223 0.968311 0
M  V30 12581 C 1168.18 6.11934 0.142682 0
M  V30 12582 N 1167.32 6.947 1.01665 0
M  V30 12583 H 1172.16 2.86338 -0.825509 0
M  V30 12584 H 1169.7 1.41013 -0.418785 0
M  V30 12585 H 1171.66 3.92431 1.41611 0
M  V30 12586 H 1170.29 2.79921 1.6076 0
M  V30 12587 H 1169.34 3.75377 -0.616137 0
M  V30 12588 H 1170.65 4.95291 -0.590625 0
M  V30 12589 H 1169.8 5.85631 1.58498 0
M  V30 12590 H 1168.54 4.5924 1.64164 0
M  V30 12591 H 1167.55 5.47639 -0.486965 0
M  V30 12592 H 1168.77 6.77052 -0.527046 0
M  V30 12593 H 1166.72 6.34236 1.67575 0
M  V30 12594 H 1166.64 7.54759 0.433045 0
M  V30 12595 H 1167.9 7.62487 1.6197 0
M  V30 12596 N 1172.13 0.454803 1.50895 0
M  V30 12597 C 1173.54 -0.00421212 1.867 0
M  V30 12598 C 1173.9 -1.4037 1.3708 0
M  V30 12599 O 1173.02 -2.03755 0.728884 0
M  V30 12600 C 1173.62 -0.0144196 3.38797 0
M  V30 12601 C 1172.17 -0.417905 3.74073 0
M  V30 12602 C 1171.32 0.37801 2.74711 0
M  V30 12603 H 1174.27 0.669849 1.4387 0
M  V30 12604 H 1174.29 -0.820172 3.71555 0
M  V30 12605 H 1173.81 1.00427 3.74881 0
M  V30 12606 H 1171.91 -1.44155 3.43584 0
M  V30 12607 H 1172.02 -0.130568 4.78922 0
M  V30 12608 H 1170.38 -0.166089 2.54158 0
M  V30 12609 H 1171.17 1.3959 3.13639 0
M  V30 12610 N 1173.61 -1.56489 0.186789 0
M  V30 12611 C 1174.57 -2.17478 -0.723596 0
M  V30 12612 C 1175.57 -1.12698 -1.14699 0
M  V30 12613 O 1176.76 -1.38128 -1.06143 0
M  V30 12614 C 1173.9 -2.77015 -1.98685 0
M  V30 12615 H 1175.09 -2.99282 -0.192403 0
M  V30 12616 H 1172.64 -1.56174 -0.0628153 0
M  V30 12617 H 1173.38 -1.98987 -2.56076 0
M  V30 12618 H 1173.16 -3.53711 -1.69207 0
M  V30 12619 H 1174.65 -3.23872 -2.63622 0
M  V30 12620 N 1175.09 0.086862 -1.5736 0
M  V30 12621 C 1176.34 0.790008 -1.8678 0
M  V30 12622 C 1176.67 1.77977 -0.777042 0
M  V30 12623 O 1175.94 1.93317 0.21419 0
M  V30 12624 C 1176.23 1.51143 -3.26845 0
M  V30 12625 C 1176.08 0.539106 -4.46558 0
M  V30 12626 C 1177.4 2.46003 -3.64926 0
M  V30 12627 H 1174.52 0.285741 -0.679354 0
M  V30 12628 H 1177.16 0.0534655 -1.89925 0
M  V30 12629 H 1175.31 2.13928 -3.24295 0
M  V30 12630 H 1176.98 -0.0823679 -4.61226 0
M  V30 12631 H 1175.22 -0.146842 -4.33551 0
M  V30 12632 H 1175.9 1.0812 -5.41308 0
M  V30 12633 H 1178.37 1.93306 -3.68473 0
M  V30 12634 H 1177.25 2.93493 -4.63846 0
M  V30 12635 H 1177.51 3.30133 -2.94049 0
M  V30 12636 N 1176.57 1.53483 0.357892 0
M  V30 12637 C 1177.82 1.69701 1.09754 0
M  V30 12638 C 1178.14 0.455389 1.89608 0
M  V30 12639 O 1177.41 -0.530623 1.88577 0
M  V30 12640 H 1175.99 0.62562 0.408178 0
M  V30 12641 H 1178.65 1.90696 0.402641 0
M  V30 12642 H 1177.74 2.56154 1.78302 0
M  V30 12643 N 1178.05 -0.61812 1.44973 0
M  V30 12644 C 1178.96 -1.7579 1.55355 0
M  V30 12645 C 1179.97 -1.68384 0.438512 0
M  V30 12646 O 1181.15 -1.88928 0.697715 0
M  V30 12647 C 1178.21 -3.1222 1.50729 0
M  V30 12648 C 1177.27 -3.3116 2.73188 0
M  V30 12649 C 1176.51 -4.61082 2.68774 0
M  V30 12650 O 1176.73 -5.42728 1.75507 0
M  V30 12651 O 1175.66 -4.82506 3.59821 0
M  V30 12652 H 1179.49 -1.69983 2.51674 0
M  V30 12653 H 1177.07 -0.780934 1.27365 0
M  V30 12654 H 1178.96 -3.93524 1.5072 0
M  V30 12655 H 1177.63 -3.18541 0.575587 0
M  V30 12656 H 1176.54 -2.49485 2.78762 0
M  V30 12657 H 1177.87 -3.29709 3.65449 0
M  V30 12658 N 1179.52 -1.32087 -0.859693 0
M  V30 12659 C 1180.75 -1.25486 -1.6513 0
M  V30 12660 C 1181.17 0.175015 -1.87284 0
M  V30 12661 O 1180.53 1.12468 -1.42199 0
M  V30 12662 C 1180.58 -2.01469 -2.9907 0
M  V30 12663 O 1179.68 -1.35904 -3.89363 0
M  V30 12664 H 1179.02 -0.432728 -0.503629 0
M  V30 12665 H 1181.55 -1.74322 -1.07112 0
M  V30 12666 H 1181.56 -2.11452 -3.4893 0
M  V30 12667 H 1180.24 -3.05448 -2.82266 0
M  V30 12668 H 1178.82 -1.34437 -3.47823 0
M  V30 12669 N 1181 1.07532 -1.15215 0
M  V30 12670 C 1181.95 2.14687 -0.847243 0
M  V30 12671 C 1182.92 1.64903 0.199043 0
M  V30 12672 O 1184.1 1.90682 0.0669986 0
M  V30 12673 C 1181.24 3.43414 -0.340673 0
M  V30 12674 C 1180.36 4.06999 -1.44831 0
M  V30 12675 C 1179.49 5.23554 -0.898059 0
M  V30 12676 C 1178.53 5.79097 -1.98276 0
M  V30 12677 N 1177.67 6.86985 -1.44902 0
M  V30 12678 H 1182.51 2.4011 -1.76498 0
M  V30 12679 H 1180.04 1.17823 -0.880689 0
M  V30 12680 H 1182 4.1719 -0.0286956 0
M  V30 12681 H 1180.63 3.18249 0.540144 0
M  V30 12682 H 1179.68 3.30895 -1.87651 0
M  V30 12683 H 1181 4.44289 -2.26735 0
M  V30 12684 H 1180.15 6.04305 -0.538514 0
M  V30 12685 H 1178.89 4.87676 -0.0481752 0
M  V30 12686 H 1177.89 4.96992 -2.35115 0
M  V30 12687 H 1179.12 6.1703 -2.83639 0
M  V30 12688 H 1177.07 6.5305 -0.621468 0
M  V30 12689 H 1176.98 7.23149 -2.20434 0
M  V30 12690 H 1178.25 7.71446 -1.11767 0
M  V30 12691 N 1182.48 0.948665 1.2585 0
M  V30 12692 C 1183.39 0.470525 2.29833 0
M  V30 12693 C 1184.41 -0.45919 1.67832 0
M  V30 12694 O 1185.58 -0.336893 1.98562 0
M  V30 12695 C 1182.65 -0.249635 3.458 0
M  V30 12696 C 1181.71 0.717559 4.23261 0
M  V30 12697 C 1180.94 0.0316724 5.33691 0
M  V30 12698 O 1181.16 -1.18384 5.5798 0
M  V30 12699 O 1180.1 0.71418 5.97648 0
M  V30 12700 H 1183.92 1.33447 2.72811 0
M  V30 12701 H 1181.51 0.714864 1.31187 0
M  V30 12702 H 1183.39 -0.654993 4.16279 0
M  V30 12703 H 1182.07 -1.08885 3.04837 0
M  V30 12704 H 1180.97 1.17301 3.55234 0
M  V30 12705 H 1182.31 1.52461 4.67992 0
M  V30 12706 N 1183.96 -1.40369 0.716545 0
M  V30 12707 C 1184.87 -2.34508 0.065658 0
M  V30 12708 C 1185.88 -1.57352 -0.742723 0
M  V30 12709 O 1187.06 -1.89735 -0.675456 0
M  V30 12710 C 1184.13 -3.36262 -0.844337 0
M  V30 12711 C 1183.19 -4.29292 -0.0257971 0
M  V30 12712 C 1182.42 -5.26185 -0.892452 0
M  V30 12713 O 1182.64 -5.29071 -2.13166 0
M  V30 12714 O 1181.58 -6.0099 -0.330933 0
M  V30 12715 H 1185.4 -2.91789 0.842184 0
M  V30 12716 H 1182.99 -1.41579 0.477034 0
M  V30 12717 H 1184.87 -3.98661 -1.36555 0
M  V30 12718 H 1183.54 -2.81393 -1.59999 0
M  V30 12719 H 1182.45 -3.70175 0.540512 0
M  V30 12720 H 1183.78 -4.87316 0.69166 0
M  V30 12721 N 1185.44 -0.462799 -1.50652 0
M  V30 12722 C 1186.38 0.335664 -2.28346 0
M  V30 12723 C 1187.35 0.994541 -1.33034 0
M  V30 12724 O 1188.54 1.00857 -1.61964 0
M  V30 12725 C 1185.68 1.41648 -3.1469 0
M  V30 12726 C 1184.79 0.773207 -4.25024 0
M  V30 12727 C 1183.93 1.83121 -4.98638 0
M  V30 12728 C 1182.97 1.16774 -6.00858 0
M  V30 12729 N 1182.1 2.16823 -6.67782 0
M  V30 12730 H 1186.94 -0.333202 -2.96131 0
M  V30 12731 H 1184.48 -0.176166 -1.46041 0
M  V30 12732 H 1186.44 2.05468 -3.63096 0
M  V30 12733 H 1185.07 2.05462 -2.48968 0
M  V30 12734 H 1184.12 0.0226444 -3.80393 0
M  V30 12735 H 1185.43 0.249061 -4.98178 0
M  V30 12736 H 1184.59 2.54543 -5.5072 0
M  V30 12737 H 1183.32 2.38915 -4.25172 0
M  V30 12738 H 1182.33 0.439112 -5.48044 0
M  V30 12739 H 1183.55 0.616809 -6.76293 0
M  V30 12740 H 1181.5 2.71649 -5.97112 0
M  V30 12741 H 1181.42 1.69371 -7.36783 0
M  V30 12742 H 1182.69 2.8765 -7.24484 0
M  V30 12743 N 1186.91 1.56388 -0.195085 0
M  V30 12744 C 1188.16 1.96755 0.443901 0
M  V30 12745 C 1188.48 1.08483 1.6276 0
M  V30 12746 O 1189.68 1.38632 2.33438 0
M  V30 12747 C 1188.14 3.49933 0.841139 0
M  V30 12748 C 1187.75 4.46868 -0.318275 0
M  V30 12749 C 1189.49 3.99069 1.44721 0
M  V30 12750 C 1187.4 5.91316 0.0999211 0
M  V30 12751 H 1186.33 0.734674 0.169616 0
M  V30 12752 H 1188.98 1.8124 -0.287101 0
M  V30 12753 H 1187.36 3.60951 1.62881 0
M  V30 12754 H 1188.53 4.47581 -1.0958 0
M  V30 12755 H 1186.85 4.07925 -0.835842 0
M  V30 12756 H 1189.45 5.04465 1.77255 0
M  V30 12757 H 1189.79 3.43376 2.35369 0
M  V30 12758 H 1190.32 3.91165 0.723513 0
M  V30 12759 H 1187.06 6.50934 -0.77237 0
M  V30 12760 H 1186.58 5.93856 0.842304 0
M  V30 12761 H 1188.26 6.44778 0.535726 0
M  V30 12762 N 1188.39 -0.0785156 1.57404 0
M  V30 12763 C 1189.3 -1.11203 2.0657 0
M  V30 12764 C 1190.32 -1.42822 0.993872 0
M  V30 12765 O 1191.49 -1.53133 1.30814 0
M  V30 12766 C 1188.56 -2.40812 2.4942 0
M  V30 12767 C 1187.62 -2.16225 3.70871 0
M  V30 12768 C 1186.85 -3.39654 4.11668 0
M  V30 12769 O 1187.08 -4.48521 3.524 0
M  V30 12770 O 1186.01 -3.28263 5.04507 0
M  V30 12771 H 1189.84 -0.724381 2.94935 0
M  V30 12772 H 1187.42 -0.292184 1.46515 0
M  V30 12773 H 1189.3 -3.17101 2.77534 0
M  V30 12774 H 1187.98 -2.7897 1.64187 0
M  V30 12775 H 1186.89 -1.37663 3.4785 0
M  V30 12776 H 1188.22 -1.82951 4.56935 0
M  V30 12777 N 1189.87 -1.5367 -0.349747 0
M  V30 12778 C 1190.8 -1.84208 -1.43492 0
M  V30 12779 C 1191.78 -0.696725 -1.55177 0
M  V30 12780 O 1192.97 -0.948061 -1.69486 0
M  V30 12781 C 1190.1 -2.04613 -2.80625 0
M  V30 12782 C 1189.05 -3.20419 -2.83753 0
M  V30 12783 C 1188.38 -3.26147 -4.23713 0
M  V30 12784 C 1189.68 -4.58666 -2.49846 0
M  V30 12785 H 1191.37 -2.75087 -1.18185 0
M  V30 12786 H 1188.92 -1.32363 -0.567101 0
M  V30 12787 H 1190.87 -2.2456 -3.56582 0
M  V30 12788 H 1189.59 -1.10459 -3.07354 0
M  V30 12789 H 1188.25 -3.00318 -2.10249 0
M  V30 12790 H 1187.9 -2.29599 -4.47541 0
M  V30 12791 H 1187.6 -4.03963 -4.26717 0
M  V30 12792 H 1189.12 -3.48296 -5.0152 0
M  V30 12793 H 1190.54 -4.78668 -3.15516 0
M  V30 12794 H 1188.94 -5.3884 -2.64144 0
M  V30 12795 H 1190.01 -4.62697 -1.4505 0
M  V30 12796 N 1191.35 0.610423 -1.45298 0
M  V30 12797 C 1192.3 1.7213 -1.53753 0
M  V30 12798 C 1193.27 1.61609 -0.383632 0
M  V30 12799 O 1194.45 1.8123 -0.596694 0
M  V30 12800 C 1191.59 3.10433 -1.50749 0
M  V30 12801 C 1190.7 3.3178 -2.76669 0
M  V30 12802 C 1189.84 4.60173 -2.65356 0
M  V30 12803 C 1188.88 4.74769 -3.86343 0
M  V30 12804 N 1188.01 5.94459 -3.73581 0
M  V30 12805 H 1192.85 1.64239 -2.48655 0
M  V30 12806 H 1190.39 0.800879 -1.23387 0
M  V30 12807 H 1192.35 3.90446 -1.46996 0
M  V30 12808 H 1190.98 3.17288 -0.593998 0
M  V30 12809 H 1190.03 2.45563 -2.90522 0
M  V30 12810 H 1191.34 3.38439 -3.66416 0
M  V30 12811 H 1190.5 5.48377 -2.59553 0
M  V30 12812 H 1189.24 4.55907 -1.73204 0
M  V30 12813 H 1188.24 3.8499 -3.92509 0
M  V30 12814 H 1189.47 4.80834 -4.79557 0
M  V30 12815 H 1187.41 5.91243 -2.84196 0
M  V30 12816 H 1187.33 6.02265 -4.5696 0
M  V30 12817 H 1188.6 6.85168 -3.71705 0
M  V30 12818 N 1192.83 1.32541 0.852676 0
M  V30 12819 C 1194.05 1.2636 1.64462 0
M  V30 12820 C 1194.48 -0.16508 1.87374 0
M  V30 12821 O 1193.83 -1.11712 1.42794 0
M  V30 12822 C 1193.88 2.03052 2.97997 0
M  V30 12823 O 1192.99 1.37967 3.88637 0
M  V30 12824 H 1192.33 0.435393 0.501327 0
M  V30 12825 H 1194.86 1.74888 1.06186 0
M  V30 12826 H 1194.87 2.133 3.47803 0
M  V30 12827 H 1193.54 3.06941 2.80642 0
M  V30 12828 H 1192.12 1.36279 3.47106 0
M  V30 12829 N 1194.3 -1.0692 1.15784 0
M  V30 12830 C 1195.55 -1.78983 0.929944 0
M  V30 12831 C 1195.87 -1.87884 -0.543969 0
M  V30 12832 O 1197.07 -2.56513 -0.889578 0
M  V30 12833 C 1195.53 -3.21657 1.61446 0
M  V30 12834 C 1195.14 -3.20943 3.12569 0
M  V30 12835 C 1196.88 -3.98299 1.46828 0
M  V30 12836 C 1194.79 -4.58298 3.73788 0
M  V30 12837 H 1193.72 -0.670809 0.344284 0
M  V30 12838 H 1196.37 -1.19975 1.38846 0
M  V30 12839 H 1194.75 -3.80885 1.08364 0
M  V30 12840 H 1195.92 -2.71334 3.72444 0
M  V30 12841 H 1194.24 -2.57799 3.26999 0
M  V30 12842 H 1196.84 -4.99822 1.89952 0
M  V30 12843 H 1197.18 -4.14213 0.416358 0
M  V30 12844 H 1197.71 -3.45577 1.97031 0
M  V30 12845 H 1194.45 -4.47588 4.789 0
M  V30 12846 H 1193.97 -5.08126 3.18698 0
M  V30 12847 H 1195.65 -5.27262 3.74972 0
M  V30 12848 N 1195.78 -0.955326 -1.25345 0
M  V30 12849 C 1197.01 -0.627693 -1.97149 0
M  V30 12850 C 1197.43 0.800349 -1.70997 0
M  V30 12851 O 1196.78 1.53545 -0.986417 0
M  V30 12852 C 1196.83 -0.877675 -3.50684 0
M  V30 12853 O 1196.55 -2.24957 -3.75934 0
M  V30 12854 C 1198.06 -0.562524 -4.39716 0
M  V30 12855 H 1195.28 -0.235269 -0.628402 0
M  V30 12856 H 1197.82 -1.27989 -1.59496 0
M  V30 12857 H 1195.97 -0.271878 -3.86445 0
M  V30 12858 H 1196.39 -2.32022 -4.70389 0
M  V30 12859 H 1197.86 -0.787972 -5.46347 0
M  V30 12860 H 1198.34 0.50293 -4.36311 0
M  V30 12861 H 1198.95 -1.14767 -4.09522 0
M  V30 12862 N 1197.26 1.39987 -0.723979 0
M  V30 12863 C 1198.22 2.29041 -0.0854583 0
M  V30 12864 C 1199.22 1.45777 0.678657 0
M  V30 12865 O 1200.41 1.66588 0.509311 0
M  V30 12866 C 1197.55 3.29115 0.88859 0
M  V30 12867 H 1198.74 2.87006 -0.869903 0
M  V30 12868 H 1196.29 1.48449 -0.489136 0
M  V30 12869 H 1197.03 2.76184 1.69979 0
M  V30 12870 H 1196.81 3.90593 0.343454 0
M  V30 12871 H 1198.3 3.95778 1.33227 0
M  V30 12872 N 1198.74 0.470782 1.50404 0
M  V30 12873 C 1200.02 -0.145879 1.95055 0
M  V30 12874 C 1200.4 -1.57004 1.41114 0
M  V30 12875 O 1199.74 -2.20152 0.612006 0
M  V30 12876 C 1199.95 -0.0895071 3.48885 0
M  V30 12877 C 1201.3 -0.278548 4.23685 0
M  V30 12878 O 1202.33 -0.166105 3.55812 0
M  V30 12879 O 1201.19 -0.505606 5.44156 0
M  V30 12880 H 1198.28 -0.111838 0.819403 0
M  V30 12881 H 1200.83 0.531162 1.61173 0
M  V30 12882 H 1199.6 0.904836 3.80695 0
M  V30 12883 H 1199.22 -0.808019 3.89303 0
M  V30 12884 N 1200.22 -1.56282 0.203376 0
M  V30 12885 C 1201.47 -1.97421 -0.432346 0
M  V30 12886 C 1201.79 -1.0917 -1.61576 0
M  V30 12887 O 1201.06 -0.164759 -1.95206 0
M  V30 12888 H 1199.64 -0.729062 -0.162721 0
M  V30 12889 H 1202.3 -1.927 0.292039 0
M  V30 12890 H 1201.39 -3.02429 -0.770918 0
M  V30 12891 N 1201.7 0.070167 -1.57444 0
M  V30 12892 C 1202.61 1.10106 -2.07157 0
M  V30 12893 C 1203.62 1.42293 -1.00143 0
M  V30 12894 O 1204.8 1.52437 -1.31624 0
M  V30 12895 C 1201.86 2.39486 -2.50694 0
M  V30 12896 C 1200.92 2.14255 -3.72012 0
M  V30 12897 C 1200.16 3.37466 -4.13464 0
M  V30 12898 O 1200.38 4.46645 -3.54773 0
M  V30 12899 O 1199.31 3.25583 -5.0624 0
M  V30 12900 H 1203.14 0.70873 -2.95315 0
M  V30 12901 H 1200.72 0.28441 -1.46668 0
M  V30 12902 H 1202.61 3.15625 -2.79212 0
M  V30 12903 H 1201.28 2.78095 -1.65664 0
M  V30 12904 H 1200.19 1.35816 -3.48575 0
M  V30 12905 H 1201.52 1.80525 -4.57899 0
M  V30 12906 N 1203.17 1.53854 0.341593 0
M  V30 12907 C 1204.4 1.75447 1.10604 0
M  V30 12908 C 1204.82 0.493225 1.81518 0
M  V30 12909 O 1204.18 -0.554253 1.7262 0
M  V30 12910 C 1204.23 2.93593 2.09369 0
M  V30 12911 O 1203.33 2.63878 3.16926 0
M  V30 12912 H 1202.67 0.581923 0.319783 0
M  V30 12913 H 1205.2 2.00822 0.391388 0
M  V30 12914 H 1205.21 3.20437 2.52556 0
M  V30 12915 H 1203.89 3.85067 1.57151 0
M  V30 12916 H 1202.47 2.47929 2.78542 0
M  V30 12917 N 1204.65 -0.602709 1.4562 0
M  V30 12918 C 1206.06 -1.1847 1.44297 0
M  V30 12919 C 1206.41 -1.95434 0.17316 0
M  V30 12920 O 1205.54 -2.03894 -0.724986 0
M  V30 12921 C 1206.13 -2.15508 2.61422 0
M  V30 12922 C 1204.69 -2.69073 2.63204 0
M  V30 12923 C 1203.84 -1.44568 2.36633 0
M  V30 12924 H 1206.79 -0.391745 1.53789 0
M  V30 12925 H 1206.81 -2.98628 2.35799 0
M  V30 12926 H 1206.32 -1.59464 3.53826 0
M  V30 12927 H 1204.42 -3.29042 1.7482 0
M  V30 12928 H 1204.54 -3.13173 3.62573 0
M  V30 12929 H 1202.9 -1.73692 1.86287 0
M  V30 12930 H 1203.68 -0.903852 3.31188 0
M  V30 12931 N 1206.13 -1.32992 -0.845635 0
M  V30 12932 C 1207.54 -1.21616 -1.41656 0
M  V30 12933 C 1207.89 0.167687 -1.95482 0
M  V30 12934 O 1207.02 1.06692 -1.8827 0
M  V30 12935 C 1207.61 -2.2018 -2.575 0
M  V30 12936 C 1206.17 -2.12664 -3.10565 0
M  V30 12937 C 1205.32 -2.08042 -1.83341 0
M  V30 12938 H 1208.27 -1.44688 -0.651993 0
M  V30 12939 H 1208.29 -1.80558 -3.34931 0
M  V30 12940 H 1207.8 -3.20888 -2.18294 0
M  V30 12941 H 1205.9 -1.15235 -3.54333 0
M  V30 12942 H 1206.02 -3.02902 -3.71197 0
M  V30 12943 H 1204.38 -1.53416 -2.03312 0
M  V30 12944 H 1205.16 -3.10547 -1.46339 0
M  V30 12945 N 1207.61 1.06304 -1.1635 0
M  V30 12946 C 1208.57 2.11947 -0.872419 0
M  V30 12947 C 1209.57 1.60253 0.132534 0
M  V30 12948 O 1210.76 1.73922 -0.0983441 0
M  V30 12949 C 1207.89 3.39536 -0.304646 0
M  V30 12950 H 1209.09 2.39201 -1.80894 0
M  V30 12951 H 1206.64 1.22367 -0.972419 0
M  V30 12952 H 1207.37 3.17931 0.639565 0
M  V30 12953 H 1207.16 3.78363 -1.02878 0
M  V30 12954 H 1208.65 4.17431 -0.118936 0
M  V30 12955 N 1209.09 0.96196 1.24836 0
M  V30 12956 C 1210.31 0.63814 1.96813 0
M  V30 12957 C 1210.73 -0.79127 1.71419 0
M  V30 12958 O 1210.09 -1.5302 0.994546 0
M  V30 12959 C 1210.14 0.89626 3.50213 0
M  V30 12960 O 1209.86 2.26947 3.74735 0
M  V30 12961 C 1211.36 0.585836 4.39412 0
M  V30 12962 H 1208.58 0.238598 0.627146 0
M  V30 12963 H 1211.12 1.28833 1.58815 0
M  V30 12964 H 1209.28 0.292368 3.86295 0
M  V30 12965 H 1209.69 2.34514 4.69152 0
M  V30 12966 H 1211.17 0.816935 5.45921 0
M  V30 12967 H 1211.64 -0.479784 4.36572 0
M  V30 12968 H 1212.25 1.16938 4.08908 0
M  V30 12969 N 1210.56 -1.39601 0.731392 0
M  V30 12970 C 1211.51 -2.30628 0.0890606 0
M  V30 12971 C 1212.48 -1.49025 -0.73353 0
M  V30 12972 O 1213.67 -1.77722 -0.694234 0
M  V30 12973 C 1210.81 -3.35339 -0.814956 0
M  V30 12974 C 1209.92 -4.31995 0.0198606 0
M  V30 12975 C 1209.05 -5.23774 -0.885095 0
M  V30 12976 C 1208.09 -6.12083 -0.045311 0
M  V30 12977 N 1207.23 -6.9623 -0.906002 0
M  V30 12978 H 1212.07 -2.84988 0.870958 0
M  V30 12979 H 1209.61 -1.40329 0.441166 0
M  V30 12980 H 1211.56 -3.94634 -1.3535 0
M  V30 12981 H 1210.19 -2.82443 -1.56287 0
M  V30 12982 H 1209.25 -3.74349 0.675778 0
M  V30 12983 H 1210.56 -4.94289 0.669346 0
M  V30 12984 H 1209.71 -5.88078 -1.49161 0
M  V30 12985 H 1208.45 -4.61794 -1.56837 0
M  V30 12986 H 1207.46 -5.46795 0.574028 0
M  V30 12987 H 1208.68 -6.76128 0.634692 0
M  V30 12988 H 1206.63 -6.36821 -1.57463 0
M  V30 12989 H 1206.54 -7.55352 -0.312914 0
M  V30 12990 H 1207.81 -7.64967 -1.49819 0
M  V30 12991 N 1212.04 -0.478751 -1.50152 0
M  V30 12992 C 1213.29 0.07531 -2.01559 0
M  V30 12993 C 1213.6 1.40089 -1.36508 0
M  V30 12994 O 1214.81 2.04035 -1.79115 0
M  V30 12995 C 1213.27 0.184714 -3.59426 0
M  V30 12996 C 1212.87 -1.13289 -4.33439 0
M  V30 12997 C 1214.62 0.690326 -4.18849 0
M  V30 12998 C 1212.53 -0.986866 -5.83108 0
M  V30 12999 H 1211.46 0.0319196 -0.753324 0
M  V30 13000 H 1214.11 -0.614809 -1.72894 0
M  V30 13001 H 1212.49 0.938788 -3.84711 0
M  V30 13002 H 1213.66 -1.89852 -4.19872 0
M  V30 13003 H 1211.98 -1.57021 -3.8566 0
M  V30 13004 H 1214.57 0.816733 -5.28426 0
M  V30 13005 H 1214.92 1.68361 -3.80737 0
M  V30 13006 H 1215.45 -0.00657846 -3.97799 0
M  V30 13007 H 1212.19 -1.95375 -6.25707 0
M  V30 13008 H 1211.71 -0.261752 -5.99229 0
M  V30 13009 H 1213.39 -0.656567 -6.4366 0
M  V30 13010 N 1213.52 1.56172 -0.211661 0
M  V30 13011 C 1214.47 2.21206 0.719063 0
M  V30 13012 C 1215.46 1.18835 1.20725 0
M  V30 13013 O 1216.67 1.36939 1.16823 0
M  V30 13014 H 1213.04 0.709129 0.250279 0
M  V30 13015 H 1215.01 2.98038 0.147022 0
M  V30 13016 C 1213.76 2.89826 1.92084 0
M  V30 13017 H 1213.09 3.68351 1.55428 0
M  V30 13018 H 1214.53 3.38744 2.55006 0
M  V30 13019 C 1212.99 1.91756 2.77004 0
M  V30 13020 O 1213.52 1.42826 3.75451 0
M  V30 13021 N 1211.72 1.59622 2.42836 0
M  V30 13022 H 1211.27 1.99606 1.62835 0
M  V30 13023 H 1211.23 0.942641 2.99936 0
M  V30 13024 N 1215 -0.0618163 1.57479 0
M  V30 13025 C 1215.93 -1.10452 1.99689 0
M  V30 13026 C 1216.91 -1.37019 0.875473 0
M  V30 13027 O 1218.09 -1.50226 1.13862 0
M  V30 13028 C 1215.22 -2.44669 2.34211 0
M  V30 13029 C 1214.27 -2.34172 3.56463 0
M  V30 13030 S 1215.1 -1.7263 5.06911 0
M  V30 13031 C 1216.26 -3.08405 5.44644 0
M  V30 13032 H 1216.49 -0.744843 2.87818 0
M  V30 13033 H 1214.02 -0.270698 1.52008 0
M  V30 13034 H 1215.98 -3.2187 2.54774 0
M  V30 13035 H 1214.64 -2.77794 1.46592 0
M  V30 13036 H 1213.83 -3.33175 3.78167 0
M  V30 13037 H 1213.44 -1.65109 3.35582 0
M  V30 13038 H 1215.73 -4.04727 5.43325 0
M  V30 13039 H 1216.67 -2.9147 6.4533 0
M  V30 13040 H 1217.08 -3.0947 4.72111 0
M  V30 13041 N 1216.48 -1.54033 -0.333429 0
M  V30 13042 C 1217.75 -1.62404 -1.09015 0
M  V30 13043 C 1218.13 -0.451653 -2.06212 0
M  V30 13044 O 1217.48 0.555086 -2.21655 0
M  V30 13045 C 1217.69 -2.98949 -1.80085 0
M  V30 13046 C 1219.04 -3.54655 -2.33464 0
M  V30 13047 O 1220.06 -3.0119 -1.90166 0
M  V30 13048 O 1218.92 -4.48195 -3.12703 0
M  V30 13049 H 1216.02 -0.65727 -0.501921 0
M  V30 13050 H 1218.56 -1.66378 -0.33411 0
M  V30 13051 H 1217.33 -3.75716 -1.09332 0
M  V30 13052 H 1216.96 -2.98609 -2.62523 0
M  V30 13053 N 1217.95 0.594978 -1.45938 0
M  V30 13054 C 1219.23 1.35477 -1.41086 0
M  V30 13055 C 1219.61 2.10917 -0.0879512 0
M  V30 13056 O 1218.96 2.08704 0.930323 0
M  V30 13057 C 1219.17 2.29106 -2.63271 0
M  V30 13058 C 1220.52 2.9132 -3.08898 0
M  V30 13059 O 1221.54 2.39423 -2.63733 0
M  V30 13060 O 1220.4 3.85553 -3.87313 0
M  V30 13061 H 1217.49 0.6081 -0.560485 0
M  V30 13062 H 1220.04 0.617016 -1.58085 0
M  V30 13063 H 1218.81 1.72707 -3.51124 0
M  V30 13064 H 1218.44 3.10241 -2.48669 0
M  V30 13065 N 1219.43 1.33438 0.838571 0
M  V30 13066 C 1220.36 1.26344 1.96365 0
M  V30 13067 C 1221.34 0.143956 1.6949 0
M  V30 13068 O 1222.53 0.333779 1.9131 0
M  V30 13069 C 1219.66 1.0022 3.32526 0
M  V30 13070 C 1218.61 2.08466 3.73799 0
M  V30 13071 C 1217.94 1.67555 5.07769 0
M  V30 13072 C 1219.24 3.50144 3.87552 0
M  V30 13073 H 1220.93 2.20478 2.02558 0
M  V30 13074 H 1218.48 1.06139 0.973168 0
M  V30 13075 H 1220.43 0.939068 4.10803 0
M  V30 13076 H 1219.16 0.0252514 3.2659 0
M  V30 13077 H 1217.81 2.13822 2.97785 0
M  V30 13078 H 1217.46 0.685619 4.98305 0
M  V30 13079 H 1217.16 2.39993 5.36356 0
M  V30 13080 H 1218.69 1.62708 5.88522 0
M  V30 13081 H 1220.1 3.47287 4.56141 0
M  V30 13082 H 1218.5 4.21069 4.27575 0
M  V30 13083 H 1219.57 3.88628 2.89994 0
M  V30 13084 N 1220.91 -1.05686 1.16912 0
M  V30 13085 C 1221.84 -2.1329 0.839044 0
M  V30 13086 C 1222.86 -1.62047 -0.156392 0
M  V30 13087 O 1224.04 -1.78366 0.0692192 0
M  V30 13088 C 1221.14 -3.38122 0.229558 0
M  V30 13089 C 1220.32 -4.18659 1.26662 0
M  V30 13090 C 1219.38 -5.21842 0.675811 0
M  V30 13091 O 1218.4 -5.53049 1.3463 0
M  V30 13092 N 1219.6 -5.78034 -0.534532 0
M  V30 13093 H 1222.37 -2.42203 1.76515 0
M  V30 13094 H 1219.93 -1.2174 1.06729 0
M  V30 13095 H 1221.92 -4.04305 -0.178868 0
M  V30 13096 H 1220.49 -3.06783 -0.60023 0
M  V30 13097 H 1219.71 -3.4804 1.85099 0
M  V30 13098 H 1221 -4.6927 1.9663 0
M  V30 13099 H 1220.4 -5.54955 -1.09731 0
M  V30 13100 H 1218.96 -6.45763 -0.885087 0
M  V30 13101 N 1222.39 -0.968567 -1.24324 0
M  V30 13102 C 1223.8 -0.66964 -1.74278 0
M  V30 13103 C 1224.15 0.81461 -1.7849 0
M  V30 13104 O 1223.28 1.63736 -1.4149 0
M  V30 13105 C 1223.87 -1.20885 -3.165 0
M  V30 13106 C 1222.43 -0.959808 -3.63957 0
M  V30 13107 C 1221.58 -1.34365 -2.42573 0
M  V30 13108 H 1224.53 -1.14379 -1.10015 0
M  V30 13109 H 1224.55 -0.57555 -3.76122 0
M  V30 13110 H 1224.06 -2.28912 -3.13402 0
M  V30 13111 H 1222.16 0.104894 -3.72452 0
M  V30 13112 H 1222.27 -1.60606 -4.51378 0
M  V30 13113 H 1220.64 -0.762039 -2.43033 0
M  V30 13114 H 1221.42 -2.43343 -2.42155 0
M  V30 13115 N 1223.87 1.39211 -0.738786 0
M  V30 13116 C 1224.81 2.32424 -0.0904601 0
M  V30 13117 C 1225.81 1.53258 0.721694 0
M  V30 13118 O 1227.01 1.68895 0.622454 0
M  V30 13119 H 1223.39 0.751927 -0.010453 0
M  V30 13120 H 1225.36 2.84726 -0.892945 0
M  V30 13121 C 1224.11 3.38377 0.799783 0
M  V30 13122 H 1223.43 3.99375 0.18424 0
M  V30 13123 H 1224.87 4.0604 1.22096 0
M  V30 13124 C 1223.33 2.75734 1.93578 0
M  V30 13125 O 1223.86 2.63876 3.02874 0
M  V30 13126 N 1222.07 2.33764 1.72634 0
M  V30 13127 H 1221.61 2.43609 0.837413 0
M  V30 13128 H 1221.57 1.92191 2.48817 0
M  V30 13129 N 1225.34 0.486708 1.49896 0
M  V30 13130 C 1226.25 -0.304222 2.32619 0
M  V30 13131 C 1227.27 -0.981103 1.43702 0
M  V30 13132 O 1228.45 -0.965639 1.76741 0
M  V30 13133 C 1225.51 -1.36301 3.18783 0
M  V30 13134 C 1224.57 -0.701082 4.23537 0
M  V30 13135 C 1223.81 -1.70943 5.05583 0
M  V30 13136 O 1224.03 -2.93773 4.88931 0
M  V30 13137 O 1222.96 -1.27263 5.88292 0
M  V30 13138 H 1226.79 0.37248 3.01407 0
M  V30 13139 H 1224.37 0.248277 1.47323 0
M  V30 13140 H 1226.26 -1.97594 3.72202 0
M  V30 13141 H 1224.93 -2.0229 2.52706 0
M  V30 13142 H 1223.84 -0.0487926 3.74068 0
M  V30 13143 H 1225.17 -0.0838817 4.92129 0
M  V30 13144 N 1226.82 -1.56058 0.219941 0
M  V30 13145 C 1227.77 -2.21585 -0.707321 0
M  V30 13146 C 1228.77 -1.19473 -1.20094 0
M  V30 13147 O 1229.97 -1.37557 -1.16095 0
M  V30 13148 H 1226.35 -0.710447 -0.246515 0
M  V30 13149 H 1228.32 -2.98111 -0.131214 0
M  V30 13150 C 1227.07 -2.90841 -1.90544 0
M  V30 13151 H 1226.39 -3.6917 -1.53472 0
M  V30 13152 H 1227.83 -3.40092 -2.53206 0
M  V30 13153 C 1226.29 -1.93223 -2.75983 0
M  V30 13154 O 1226.82 -1.44815 -3.74689 0
M  V30 13155 N 1225.02 -1.60907 -2.41986 0
M  V30 13156 H 1224.57 -2.00467 -1.61774 0
M  V30 13157 H 1224.53 -0.958534 -2.99432 0
M  V30 13158 N 1228.3 0.053464 -1.57509 0
M  V30 13159 C 1229.21 1.07902 -2.08313 0
M  V30 13160 C 1230.23 1.41223 -1.01647 0
M  V30 13161 O 1231.4 1.51032 -1.33233 0
M  V30 13162 C 1228.47 2.36813 -2.5322 0
M  V30 13163 C 1227.53 2.10297 -3.74264 0
M  V30 13164 C 1226.76 3.33062 -4.1702 0
M  V30 13165 O 1226.99 4.42857 -3.59491 0
M  V30 13166 O 1225.92 3.20195 -5.09665 0
M  V30 13167 H 1229.75 0.677368 -2.9605 0
M  V30 13168 H 1227.33 0.268838 -1.46961 0
M  V30 13169 H 1229.21 3.12645 -2.82544 0
M  V30 13170 H 1227.89 2.76323 -1.68605 0
M  V30 13171 H 1226.79 1.32111 -3.49996 0
M  V30 13172 H 1228.13 1.75658 -4.59788 0
M  V30 13173 N 1229.78 1.54207 0.325255 0
M  V30 13174 C 1231.06 1.6298 1.08153 0
M  V30 13175 C 1231.44 0.462583 2.05969 0
M  V30 13176 O 1230.78 -0.543323 2.21947 0
M  V30 13177 C 1230.99 2.999 1.78497 0
M  V30 13178 C 1232.34 3.55888 2.3158 0
M  V30 13179 O 1233.37 3.02194 1.88566 0
M  V30 13180 O 1232.23 4.49847 3.10322 0
M  V30 13181 H 1229.32 0.659923 0.498429 0
M  V30 13182 H 1231.87 1.66553 0.325282 0
M  V30 13183 H 1230.64 3.7629 1.07338 0
M  V30 13184 H 1230.26 2.99997 2.60936 0
M  V30 13185 N 1231.26 -0.58723 1.46251 0
M  V30 13186 C 1232.2 -1.69662 1.56472 0
M  V30 13187 C 1233.17 -1.60978 0.409294 0
M  V30 13188 O 1234.36 -1.80257 0.625451 0
M  V30 13189 C 1231.5 -3.07996 1.55669 0
M  V30 13190 C 1230.61 -3.27337 2.81913 0
M  V30 13191 C 1229.75 -4.55894 2.72644 0
M  V30 13192 C 1228.79 -4.68562 3.93847 0
M  V30 13193 N 1227.92 -5.8844 3.82991 0
M  V30 13194 H 1232.76 -1.60262 2.51237 0
M  V30 13195 H 1230.3 -0.781148 1.24645 0
M  V30 13196 H 1232.26 -3.88058 1.53189 0
M  V30 13197 H 1230.89 -3.16303 0.6444 0
M  V30 13198 H 1229.94 -2.4091 2.94392 0
M  V30 13199 H 1231.25 -3.32567 3.71754 0
M  V30 13200 H 1230.41 -5.44178 2.68244 0
M  V30 13201 H 1229.15 -4.53094 1.80435 0
M  V30 13202 H 1228.15 -3.78696 3.98584 0
M  V30 13203 H 1229.38 -4.73144 4.87146 0
M  V30 13204 H 1227.32 -5.86647 2.93566 0
M  V30 13205 H 1227.24 -5.94919 4.66484 0
M  V30 13206 H 1228.51 -6.79168 3.82559 0
M  V30 13207 N 1232.74 -1.33881 -0.831482 0
M  V30 13208 C 1233.96 -1.28961 -1.62431 0
M  V30 13209 C 1234.39 0.135249 -1.87613 0
M  V30 13210 O 1233.74 1.09426 -1.44553 0
M  V30 13211 C 1233.79 -2.07767 -2.94729 0
M  V30 13212 O 1232.9 -1.44133 -3.86393 0
M  V30 13213 H 1232.24 -0.443313 -0.494337 0
M  V30 13214 H 1234.77 -1.76555 -1.0339 0
M  V30 13215 H 1234.78 -2.18806 -3.44366 0
M  V30 13216 H 1233.45 -3.11367 -2.75724 0
M  V30 13217 H 1232.03 -1.41784 -3.44894 0
M  V30 13218 N 1234.21 1.05064 -1.1747 0
M  V30 13219 C 1235.62 1.59547 -0.969628 0
M  V30 13220 C 1235.98 1.90153 0.483332 0
M  V30 13221 O 1235.1 1.68415 1.35887 0
M  V30 13222 C 1235.7 2.89877 -1.75377 0
M  V30 13223 C 1234.25 3.41013 -1.59332 0
M  V30 13224 C 1233.4 2.1473 -1.7546 0
M  V30 13225 H 1236.35 0.878595 -1.3216 0
M  V30 13226 H 1236.37 3.59834 -1.23691 0
M  V30 13227 H 1235.89 2.67569 -2.8112 0
M  V30 13228 H 1233.99 3.68355 -0.560827 0
M  V30 13229 H 1234.1 4.15512 -2.38509 0
M  V30 13230 H 1232.46 2.25553 -1.18313 0
M  V30 13231 H 1233.25 1.9489 -2.82618 0
M  V30 13232 N 1235.69 0.975146 1.23809 0
M  V30 13233 C 1236.92 0.658023 1.95841 0
M  V30 13234 C 1237.33 -0.778132 1.72458 0
M  V30 13235 O 1236.67 -1.53462 1.00971 0
M  V30 13236 C 1236.73 0.862038 3.49012 0
M  V30 13237 C 1236.4 2.27925 3.96105 0
M  V30 13238 C 1237.4 3.25755 4.05191 0
M  V30 13239 C 1235.08 2.60894 4.29231 0
M  V30 13240 C 1237.07 4.54636 4.46749 0
M  V30 13241 C 1234.76 3.89999 4.70472 0
M  V30 13242 C 1235.76 4.86682 4.79197 0
M  V30 13243 O 1235.45 6.13483 5.19513 0
M  V30 13244 H 1235.18 0.243915 0.630461 0
M  V30 13245 H 1237.73 1.30768 1.58395 0
M  V30 13246 H 1235.96 0.155209 3.86388 0
M  V30 13247 H 1237.65 0.542873 4.02253 0
M  V30 13248 H 1238.42 3.01614 3.79808 0
M  V30 13249 H 1234.3 1.86355 4.21655 0
M  V30 13250 H 1237.84 5.30101 4.53474 0
M  V30 13251 H 1233.74 4.13937 4.95304 0
M  V30 13252 H 1234.51 6.17158 5.37641 0
M  V30 13253 N 1237.17 -1.38817 0.746158 0
M  V30 13254 C 1238.58 -1.83045 0.367629 0
M  V30 13255 C 1238.93 -1.62285 -1.10263 0
M  V30 13256 O 1238.06 -1.12001 -1.85162 0
M  V30 13257 C 1238.65 -3.323 0.660482 0
M  V30 13258 C 1237.21 -3.74903 0.335318 0
M  V30 13259 C 1236.36 -2.61683 0.917446 0
M  V30 13260 H 1239.31 -1.27651 0.94291 0
M  V30 13261 H 1239.33 -3.80446 -0.0639061 0
M  V30 13262 H 1238.84 -3.47377 1.73062 0
M  V30 13263 H 1236.94 -3.65408 -0.728538 0
M  V30 13264 H 1237.06 -4.71932 0.825677 0
M  V30 13265 H 1235.42 -2.52376 0.343316 0
M  V30 13266 H 1236.2 -2.79563 1.99247 0
M  V30 13267 N 1238.65 -0.49465 -1.49636 0
M  V30 13268 C 1239.6 0.300929 -2.30645 0
M  V30 13269 C 1240.59 0.968687 -1.38971 0
M  V30 13270 O 1241.8 0.897101 -1.56052 0
M  V30 13271 H 1238.17 0.1159 -0.743015 0
M  V30 13272 H 1240.14 -0.402387 -2.95674 0
M  V30 13273 C 1238.89 1.35638 -3.20153 0
M  V30 13274 H 1238.21 0.851946 -3.90617 0
M  V30 13275 H 1239.65 1.88515 -3.79787 0
M  V30 13276 C 1238.11 2.37112 -2.39331 0
M  V30 13277 O 1238.64 3.42867 -2.09298 0
M  V30 13278 N 1236.85 2.09421 -2.01473 0
M  V30 13279 H 1236.4 1.23441 -2.26097 0
M  V30 13280 H 1236.35 2.77545 -1.47703 0
M  V30 13281 N 1240.13 1.55939 -0.228214 0
M  V30 13282 C 1241.54 1.84612 0.278417 0
M  V30 13283 C 1241.89 1.14973 1.58983 0
M  V30 13284 O 1241.01 0.421673 2.12252 0
M  V30 13285 C 1241.61 3.3491 0.511935 0
M  V30 13286 C 1240.17 3.63876 0.962861 0
M  V30 13287 C 1239.31 2.77284 0.0296246 0
M  V30 13288 H 1242.26 1.52149 -0.451245 0
M  V30 13289 H 1242.29 3.55477 1.35707 0
M  V30 13290 H 1241.8 3.85567 -0.442697 0
M  V30 13291 H 1239.9 3.18682 1.93062 0
M  V30 13292 H 1240.01 4.71809 0.832659 0
M  V30 13293 H 1238.38 2.48961 0.53763 0
M  V30 13294 H 1239.16 3.30742 -0.920044 0
M  V30 13295 N 1241.6 -0.0451101 1.57535 0
M  V30 13296 C 1242.51 -1.06796 2.08882 0
M  V30 13297 C 1243.53 -1.40682 1.02394 0
M  V30 13298 O 1244.71 -1.50324 1.34033 0
M  V30 13299 C 1241.77 -2.35467 2.54472 0
M  V30 13300 C 1240.83 -2.0831 3.75374 0
M  V30 13301 C 1240.07 -3.30846 4.1878 0
M  V30 13302 O 1240.29 -4.40945 3.61834 0
M  V30 13303 O 1239.22 -3.17488 5.11356 0
M  V30 13304 H 1243.05 -0.661658 2.96405 0
M  V30 13305 H 1240.63 -0.26104 1.47102 0
M  V30 13306 H 1242.52 -3.11143 2.84198 0
M  V30 13307 H 1241.19 -2.75425 1.70068 0
M  V30 13308 H 1240.1 -1.30254 3.50692 0
M  V30 13309 H 1241.43 -1.73218 4.60713 0
M  V30 13310 N 1243.08 -1.54377 -0.317073 0
M  V30 13311 C 1244.31 -1.76865 -1.07362 0
M  V30 13312 C 1244.73 -0.520354 -1.81488 0
M  V30 13313 O 1244.08 0.509213 -1.75252 0
M  V30 13314 C 1244.13 -2.96598 -2.06668 0
M  V30 13315 O 1243.85 -4.16602 -1.35552 0
M  V30 13316 C 1245.36 -3.31348 -2.94489 0
M  V30 13317 H 1242.58 -0.590277 -0.319083 0
M  V30 13318 H 1245.12 -2.01284 -0.361227 0
M  V30 13319 H 1243.27 -2.74433 -2.73432 0
M  V30 13320 H 1243.69 -4.83996 -2.02108 0
M  V30 13321 H 1245.16 -4.1841 -3.60051 0
M  V30 13322 H 1245.64 -2.48797 -3.61935 0
M  V30 13323 H 1246.25 -3.55614 -2.33278 0
M  V30 13324 N 1244.56 0.579466 -1.4656 0
M  V30 13325 C 1245.79 1.36351 -1.55615 0
M  V30 13326 C 1246.2 1.87755 -0.198405 0
M  V30 13327 O 1245.56 1.63795 0.804834 0
M  V30 13328 C 1245.61 2.54881 -2.56355 0
M  V30 13329 O 1245.33 2.05607 -3.86856 0
M  V30 13330 C 1246.83 3.47391 -2.75381 0
M  V30 13331 H 1244.05 0.416426 -0.526147 0
M  V30 13332 H 1246.6 0.704134 -1.91995 0
M  V30 13333 H 1244.75 3.16802 -2.2297 0
M  V30 13334 H 1245.17 2.82823 -4.41714 0
M  V30 13335 H 1246.64 4.27031 -3.49783 0
M  V30 13336 H 1247.12 3.99532 -1.82403 0
M  V30 13337 H 1247.72 2.91303 -3.09875 0
M  V30 13338 N 1246.04 1.3432 0.824371 0
M  V30 13339 C 1247.29 1.26345 1.57738 0
M  V30 13340 C 1247.61 -0.166836 1.94285 0
M  V30 13341 O 1246.88 -1.09911 1.62162 0
M  V30 13342 H 1245.46 0.46466 0.584893 0
M  V30 13343 H 1248.12 1.68214 0.984373 0
M  V30 13344 H 1247.22 1.8672 2.50084 0
M  V30 13345 N 1247.52 -1.0444 1.18026 0
M  V30 13346 C 1248.43 -2.15862 0.918747 0
M  V30 13347 C 1249.44 -1.73614 -0.115808 0
M  V30 13348 O 1250.62 -2.01294 0.0652312 0
M  V30 13349 C 1247.68 -3.43846 0.443922 0
M  V30 13350 C 1246.74 -4.00497 1.54599 0
M  V30 13351 C 1245.98 -5.22373 1.09372 0
M  V30 13352 O 1246.2 -5.70379 -0.049085 0
M  V30 13353 O 1245.13 -5.71459 1.88992 0
M  V30 13354 H 1248.96 -2.40776 1.85097 0
M  V30 13355 H 1246.55 -1.14326 0.961769 0
M  V30 13356 H 1248.43 -4.20985 0.187017 0
M  V30 13357 H 1247.1 -3.20414 -0.460051 0
M  V30 13358 H 1246.01 -3.24764 1.85686 0
M  V30 13359 H 1247.34 -4.28262 2.42595 0
M  V30 13360 N 1248.99 -0.981699 -1.2329 0
M  V30 13361 C 1249.9 -0.531296 -2.28505 0
M  V30 13362 C 1250.92 0.414531 -1.6899 0
M  V30 13363 O 1252.1 0.284129 -1.99386 0
M  V30 13364 C 1249.16 0.157864 -3.4634 0
M  V30 13365 C 1248.22 -0.829527 -4.21209 0
M  V30 13366 C 1247.46 -0.17316 -5.33419 0
M  V30 13367 O 1247.68 1.03549 -5.60922 0
M  V30 13368 O 1246.61 -0.872385 -5.95544 0
M  V30 13369 H 1250.44 -1.40633 -2.69177 0
M  V30 13370 H 1248.02 -0.749395 -1.29246 0
M  V30 13371 H 1249.91 0.544394 -4.17869 0
M  V30 13372 H 1248.58 1.00764 -3.07617 0
M  V30 13373 H 1247.49 -1.26678 -3.51999 0
M  V30 13374 H 1248.82 -1.64815 -4.63785 0
M  V30 13375 N 1250.47 1.3842 -0.753509 0
M  V30 13376 C 1251.75 1.94181 -0.235142 0
M  V30 13377 C 1252.13 1.68881 1.26659 0
M  V30 13378 O 1251.48 1.02731 2.04104 0
M  V30 13379 C 1251.69 3.43998 -0.588751 0
M  V30 13380 C 1253.04 4.21044 -0.548352 0
M  V30 13381 O 1254.06 3.52279 -0.52704 0
M  V30 13382 O 1252.92 5.43631 -0.559221 0
M  V30 13383 H 1250.01 0.825536 -0.0491834 0
M  V30 13384 H 1252.56 1.47813 -0.833626 0
M  V30 13385 H 1251.33 3.55921 -1.6259 0
M  V30 13386 H 1250.95 3.97582 0.0377429 0
M  V30 13387 N 1251.95 0.502579 1.49372 0
M  V30 13388 C 1252.86 -0.279532 2.32929 0
M  V30 13389 C 1253.88 -0.965806 1.44735 0
M  V30 13390 O 1255.05 -0.946839 1.77755 0
M  V30 13391 C 1252.12 -1.32913 3.20211 0
M  V30 13392 C 1251.18 -0.656121 4.24256 0
M  V30 13393 C 1250.41 -1.65571 5.07368 0
M  V30 13394 O 1250.63 -2.88571 4.92019 0
M  V30 13395 O 1249.57 -1.21016 5.89609 0
M  V30 13396 H 1253.39 0.404427 3.00995 0
M  V30 13397 H 1250.98 0.263888 1.47051 0
M  V30 13398 H 1252.86 -1.93635 3.74277 0
M  V30 13399 H 1251.54 -1.99598 2.54837 0
M  V30 13400 H 1250.44 -0.00911489 3.74099 0
M  V30 13401 H 1251.78 -0.0316802 4.9219 0
M  V30 13402 N 1253.43 -1.55816 0.23648 0
M  V30 13403 C 1254.34 -2.24576 -0.678439 0
M  V30 13404 C 1255.35 -1.25836 -1.20172 0
M  V30 13405 O 1256.53 -1.58686 -1.24019 0
M  V30 13406 C 1253.6 -2.92376 -1.86325 0
M  V30 13407 C 1252.66 -4.06499 -1.38047 0
M  V30 13408 C 1251.89 -4.71057 -2.50881 0
M  V30 13409 O 1252.11 -4.34652 -3.69369 0
M  V30 13410 O 1251.05 -5.59768 -2.21232 0
M  V30 13411 H 1254.87 -3.03452 -0.122601 0
M  V30 13412 H 1252.46 -1.49399 0.00540803 0
M  V30 13413 H 1254.34 -3.35117 -2.55488 0
M  V30 13414 H 1253.01 -2.16448 -2.40691 0
M  V30 13415 H 1251.92 -3.68296 -0.656422 0
M  V30 13416 H 1253.25 -4.84214 -0.883024 0
M  V30 13417 N 1254.91 0.036755 -1.57557 0
M  V30 13418 C 1255.82 1.05687 -2.09446 0
M  V30 13419 C 1256.83 1.40137 -1.03139 0
M  V30 13420 O 1258.01 1.49611 -1.34828 0
M  V30 13421 C 1255.07 2.34114 -2.55717 0
M  V30 13422 C 1254.13 2.06316 -3.76473 0
M  V30 13423 C 1253.37 3.2862 -4.20529 0
M  V30 13424 O 1253.59 4.3902 -3.64167 0
M  V30 13425 O 1252.52 3.14772 -5.13033 0
M  V30 13426 H 1256.35 0.64593 -2.96751 0
M  V30 13427 H 1253.94 0.253235 -1.47238 0
M  V30 13428 H 1255.82 3.09631 -2.85844 0
M  V30 13429 H 1254.49 2.74519 -1.71526 0
M  V30 13430 H 1253.4 1.28392 -3.51378 0
M  V30 13431 H 1254.73 1.70772 -4.61625 0
M  V30 13432 N 1256.39 1.54543 0.308881 0
M  V30 13433 C 1257.8 1.64532 0.882392 0
M  V30 13434 C 1258.15 0.54886 1.88367 0
M  V30 13435 O 1257.27 -0.315832 2.14083 0
M  V30 13436 C 1257.87 2.98251 1.60722 0
M  V30 13437 C 1256.43 3.10387 2.12925 0
M  V30 13438 C 1255.57 2.60176 0.959362 0
M  V30 13439 H 1258.52 1.58466 0.0860803 0
M  V30 13440 H 1258.55 2.89233 2.47233 0
M  V30 13441 H 1258.06 3.78033 0.878233 0
M  V30 13442 H 1256.16 2.35309 2.88895 0
M  V30 13443 H 1256.27 4.16421 2.36918 0
M  V30 13444 H 1254.64 2.16434 1.3427 0
M  V30 13445 H 1255.42 3.42429 0.244454 0
M  V30 13446 N 1257.86 -0.571685 1.46866 0
M  V30 13447 C 1258.77 -1.70758 1.60869 0
M  V30 13448 C 1259.79 -1.66903 0.49186 0
M  V30 13449 O 1260.97 -1.86613 0.757468 0
M  V30 13450 C 1258.03 -3.07267 1.60586 0
M  V30 13451 C 1257.09 -3.22301 2.83585 0
M  V30 13452 C 1256.32 -4.52298 2.83306 0
M  V30 13453 O 1256.55 -5.36869 1.92685 0
M  V30 13454 O 1255.48 -4.70814 3.7499 0
M  V30 13455 H 1259.31 -1.6189 2.56954 0
M  V30 13456 H 1256.89 -0.740018 1.29785 0
M  V30 13457 H 1258.77 -3.8853 1.63163 0
M  V30 13458 H 1257.45 -3.16549 0.676637 0
M  V30 13459 H 1256.36 -2.4049 2.86558 0
M  V30 13460 H 1257.69 -3.17916 3.75753 0
M  V30 13461 N 1259.34 -1.34755 -0.817236 0
M  V30 13462 C 1260.27 -1.21147 -1.93387 0
M  V30 13463 C 1261.25 -0.101788 -1.62281 0
M  V30 13464 O 1262.44 -0.267968 -1.86586 0
M  V30 13465 C 1259.56 -0.86301 -3.27521 0
M  V30 13466 C 1258.61 -1.98325 -3.77584 0
M  V30 13467 S 1259.44 -3.59751 -3.9666 0
M  V30 13468 C 1260.6 -3.26959 -5.33712 0
M  V30 13469 H 1260.83 -2.15667 -2.04634 0
M  V30 13470 H 1258.36 -1.19848 -0.973441 0
M  V30 13471 H 1260.32 -0.668754 -4.05016 0
M  V30 13472 H 1258.98 0.0639417 -3.14035 0
M  V30 13473 H 1258.18 -1.69332 -4.74703 0
M  V30 13474 H 1257.78 -2.13529 -3.07053 0
M  V30 13475 H 1260.07 -2.79126 -6.17329 0
M  V30 13476 H 1261.01 -4.23238 -5.67693 0
M  V30 13477 H 1261.42 -2.62996 -4.99493 0
M  V30 13478 N 1260.82 1.03812 -1.18578 0
M  V30 13479 C 1262.23 1.58509 -0.986496 0
M  V30 13480 C 1262.58 1.90655 0.463136 0
M  V30 13481 O 1261.71 1.69847 1.34093 0
M  V30 13482 C 1262.3 2.88 -1.78441 0
M  V30 13483 C 1260.86 3.39304 -1.6294 0
M  V30 13484 C 1260.01 2.12857 -1.77727 0
M  V30 13485 H 1262.96 0.864528 -1.33085 0
M  V30 13486 H 1262.98 3.58502 -1.27501 0
M  V30 13487 H 1262.49 2.64572 -2.83942 0
M  V30 13488 H 1260.59 3.6774 -0.599864 0
M  V30 13489 H 1260.71 4.12959 -2.42902 0
M  V30 13490 H 1259.07 2.24285 -1.20699 0
M  V30 13491 H 1259.85 1.91882 -2.84669 0
M  V30 13492 N 1262.3 0.988223 1.22768 0
M  V30 13493 C 1263.54 0.662441 1.91676 0
M  V30 13494 C 1263.88 -0.802931 1.76824 0
M  V30 13495 O 1263.15 -1.58011 1.13415 0
M  V30 13496 C 1263.43 1.06332 3.44043 0
M  V30 13497 C 1263.29 2.5869 3.67967 0
M  V30 13498 C 1264.61 0.613058 4.35809 0
M  V30 13499 H 1261.73 0.242132 0.69609 0
M  V30 13500 H 1264.37 1.23091 1.44736 0
M  V30 13501 H 1262.52 0.579623 3.84152 0
M  V30 13502 H 1264.19 3.14694 3.37291 0
M  V30 13503 H 1262.43 3.00971 3.12408 0
M  V30 13504 H 1263.1 2.8179 4.74656 0
M  V30 13505 H 1265.58 1.02846 4.0319 0
M  V30 13506 H 1264.46 0.921901 5.41103 0
M  V30 13507 H 1264.72 -0.48641 4.39416 0
M  V30 13508 N 1263.78 -1.38018 0.760839 0
M  V30 13509 C 1265.02 -1.99557 0.319609 0
M  V30 13510 C 1265.34 -1.60699 -1.10457 0
M  V30 13511 O 1264.61 -0.867248 -1.75658 0
M  V30 13512 H 1263.19 -0.738066 0.115182 0
M  V30 13513 H 1265.86 -1.6867 0.976544 0
M  V30 13514 H 1264.95 -3.09672 0.388523 0
M  V30 13515 N 1265.25 -0.510493 -1.49103 0
M  V30 13516 C 1266.66 -0.0650831 -1.86587 0
M  V30 13517 C 1267.02 1.35185 -1.42195 0
M  V30 13518 O 1266.14 2.0091 -0.804004 0
M  V30 13519 C 1266.74 -0.111333 -3.38617 0
M  V30 13520 C 1265.29 0.278782 -3.75366 0
M  V30 13521 C 1264.44 -0.479707 -2.73119 0
M  V30 13522 H 1267.39 -0.722784 -1.41285 0
M  V30 13523 H 1267.41 0.681706 -3.74343 0
M  V30 13524 H 1266.93 -1.14271 -3.70896 0
M  V30 13525 H 1265.03 1.31304 -3.48698 0
M  V30 13526 H 1265.14 -0.047271 -4.79077 0
M  V30 13527 H 1263.5 0.0716459 -2.54599 0
M  V30 13528 H 1264.29 -1.51135 -3.08242 0
M  V30 13529 N 1266.73 1.55688 -0.24474 0
M  V30 13530 C 1268.15 1.59219 0.110159 0
M  V30 13531 C 1268.35 1.26187 1.57096 0
M  V30 13532 O 1267.4 1.00815 2.31501 0
M  V30 13533 C 1268.72 2.99764 -0.237075 0
M  V30 13534 C 1270.26 3.12475 -0.181198 0
M  V30 13535 C 1270.74 4.55236 -0.502435 0
M  V30 13536 N 1272.23 4.60981 -0.452855 0
M  V30 13537 C 1272.97 5.69418 -0.674605 0
M  V30 13538 N 1272.46 6.86125 -0.959366 0
M  V30 13539 N 1274.25 5.5883 -0.605459 0
M  V30 13540 H 1266.41 1.7543 -1.19741 0
M  V30 13541 H 1268.67 0.816537 -0.481634 0
M  V30 13542 H 1268.37 3.28666 -1.25185 0
M  V30 13543 H 1268.25 3.74662 0.436859 0
M  V30 13544 H 1270.64 2.83355 0.824248 0
M  V30 13545 H 1270.72 2.39857 -0.888952 0
M  V30 13546 H 1270.36 4.85077 -1.50543 0
M  V30 13547 H 1270.29 5.26111 0.226773 0
M  V30 13548 H 1272.78 3.77128 -0.241401 0
M  V30 13549 H 1273.09 7.64699 -1.11605 0
M  V30 13550 H 1271.44 6.87814 -0.996816 0
M  V30 13551 H 1274.63 4.6653 -0.383053 0
M  V30 13552 H 1274.8 6.43268 -0.781673 0
M  V30 13553 N 1268.21 -0.0283989 1.57574 0
M  V30 13554 C 1269.62 -0.574912 1.77628 0
M  V30 13555 C 1269.97 -1.75563 0.875903 0
M  V30 13556 O 1269.1 -2.16284 0.0709141 0
M  V30 13557 C 1269.69 -1.04972 3.22128 0
M  V30 13558 C 1268.25 -1.54175 3.43376 0
M  V30 13559 C 1267.4 -0.480127 2.73112 0
M  V30 13560 H 1270.35 0.197826 1.57462 0
M  V30 13561 H 1270.37 -1.91705 3.28678 0
M  V30 13562 H 1269.88 -0.190173 3.87634 0
M  V30 13563 H 1267.98 -2.42313 2.83046 0
M  V30 13564 H 1268.1 -1.58879 4.51989 0
M  V30 13565 H 1266.46 -0.935314 2.36905 0
M  V30 13566 H 1267.24 0.369973 3.41301 0
M  V30 13567 N 1269.69 -1.54705 -0.300681 0
M  V30 13568 C 1271.1 -1.45926 -0.646359 0
M  V30 13569 C 1271.3 -0.65072 -1.90704 0
M  V30 13570 O 1270.36 -0.158547 -2.52002 0
M  V30 13571 C 1271.67 -2.89889 -0.799059 0
M  V30 13572 C 1273.22 -2.99934 -0.894923 0
M  V30 13573 C 1273.7 -4.45093 -1.07962 0
M  V30 13574 N 1275.19 -4.48804 -1.14581 0
M  V30 13575 C 1275.92 -5.58305 -1.30702 0
M  V30 13576 N 1275.42 -6.77729 -1.43719 0
M  V30 13577 N 1277.21 -5.45994 -1.33593 0
M  V30 13578 H 1269.36 -2.05742 0.527617 0
M  V30 13579 H 1271.62 -0.931817 0.174415 0
M  V30 13580 H 1271.33 -3.51655 0.0563954 0
M  V30 13581 H 1271.2 -3.37325 -1.68796 0
M  V30 13582 H 1273.59 -2.38281 -1.74086 0
M  V30 13583 H 1273.67 -2.55794 0.0179973 0
M  V30 13584 H 1273.32 -5.0734 -0.238444 0
M  V30 13585 H 1273.25 -4.86864 -2.00677 0
M  V30 13586 H 1275.74 -3.62766 -1.05874 0
M  V30 13587 H 1276.05 -7.56937 -1.55776 0
M  V30 13588 H 1274.4 -6.80594 -1.40774 0
M  V30 13589 H 1277.59 -4.51641 -1.23035 0
M  V30 13590 H 1277.76 -6.31381 -1.45813 0
M  V30 13591 N 1271.17 0.563888 -1.47167 0
M  V30 13592 C 1272.58 1.14603 -1.47388 0
M  V30 13593 C 1272.93 1.94907 -0.224916 0
M  V30 13594 O 1272.05 2.05745 0.670672 0
M  V30 13595 C 1272.65 2.08501 -2.67044 0
M  V30 13596 C 1271.21 2.62 -2.70246 0
M  V30 13597 C 1270.35 1.38244 -2.40383 0
M  V30 13598 H 1273.31 0.350833 -1.54774 0
M  V30 13599 H 1273.33 2.92272 -2.43634 0
M  V30 13600 H 1272.84 1.50027 -3.57929 0
M  V30 13601 H 1270.94 3.24292 -1.83482 0
M  V30 13602 H 1271.05 3.0345 -3.70749 0
M  V30 13603 H 1269.42 1.68692 -1.90827 0
M  V30 13604 H 1270.2 0.815726 -3.33468 0
M  V30 13605 N 1272.64 1.35187 0.810078 0
M  V30 13606 C 1273.57 1.30481 1.93641 0
M  V30 13607 C 1274.56 0.179875 1.69146 0
M  V30 13608 O 1275.74 0.374284 1.90559 0
M  V30 13609 C 1272.87 1.07251 3.30325 0
M  V30 13610 C 1271.82 2.16348 3.69293 0
M  V30 13611 C 1271.15 1.78288 5.04101 0
M  V30 13612 C 1272.45 3.58285 3.80038 0
M  V30 13613 H 1274.14 2.24725 1.97836 0
M  V30 13614 H 1271.69 1.08179 0.950436 0
M  V30 13615 H 1273.64 1.02599 4.08719 0
M  V30 13616 H 1272.37 0.0945203 3.26463 0
M  V30 13617 H 1271.03 2.2009 2.93182 0
M  V30 13618 H 1270.67 0.791163 4.96739 0
M  V30 13619 H 1270.37 2.51315 5.31144 0
M  V30 13620 H 1271.9 1.75155 5.84938 0
M  V30 13621 H 1273.31 3.56884 4.48672 0
M  V30 13622 H 1271.71 4.30044 4.18548 0
M  V30 13623 H 1272.78 3.94691 2.81685 0
M  V30 13624 N 1274.12 -1.03182 1.19127 0
M  V30 13625 C 1275.35 -1.80703 1.01791 0
M  V30 13626 C 1275.77 -1.83147 -0.428824 0
M  V30 13627 O 1275.13 -1.2553 -1.30812 0
M  V30 13628 C 1275.18 -3.23754 1.58794 0
M  V30 13629 O 1274.28 -4.04261 0.815274 0
M  V30 13630 H 1273.62 -0.557944 0.359992 0
M  V30 13631 H 1276.15 -1.29887 1.58084 0
M  V30 13632 H 1276.16 -3.7451 1.61884 0
M  V30 13633 H 1274.84 -3.2129 2.64094 0
M  V30 13634 H 1273.42 -3.62909 0.857392 0
M  V30 13635 N 1275.6 -0.99472 -1.22242 0
M  V30 13636 C 1276.51 -0.555502 -2.27928 0
M  V30 13637 C 1277.53 0.396584 -1.6942 0
M  V30 13638 O 1278.7 0.262965 -1.99676 0
M  V30 13639 C 1275.77 0.121121 -3.46488 0
M  V30 13640 C 1274.83 -0.874155 -4.20306 0
M  V30 13641 C 1274.06 -0.229726 -5.33205 0
M  V30 13642 O 1274.28 0.975935 -5.61989 0
M  V30 13643 O 1273.22 -0.935501 -5.94586 0
M  V30 13644 H 1277.04 -1.4348 -2.6767 0
M  V30 13645 H 1274.63 -0.763061 -1.28444 0
M  V30 13646 H 1276.51 0.500043 -4.18423 0
M  V30 13647 H 1275.19 0.974959 -3.08668 0
M  V30 13648 H 1274.09 -1.30404 -3.50636 0
M  V30 13649 H 1275.43 -1.69725 -4.62011 0
M  V30 13650 N 1277.08 1.37613 -0.768148 0
M  V30 13651 C 1278.01 2.3291 -0.165911 0
M  V30 13652 C 1278.99 1.556 0.687205 0
M  V30 13653 O 1280.17 1.83854 0.625407 0
M  V30 13654 C 1277.3 3.39822 0.7168 0
M  V30 13655 C 1276.26 4.27986 -0.0347264 0
M  V30 13656 C 1275.58 5.2588 0.967192 0
M  V30 13657 C 1276.88 5.08052 -1.21164 0
M  V30 13658 H 1278.58 2.83524 -0.962006 0
M  V30 13659 H 1276.12 1.36318 -0.464051 0
M  V30 13660 H 1278.08 4.05464 1.14789 0
M  V30 13661 H 1276.8 2.87725 1.54538 0
M  V30 13662 H 1275.46 3.6387 -0.446557 0
M  V30 13663 H 1275.11 4.70064 1.79022 0
M  V30 13664 H 1274.81 5.85726 0.468913 0
M  V30 13665 H 1276.33 5.94397 1.3973 0
M  V30 13666 H 1277.75 5.66853 -0.857373 0
M  V30 13667 H 1276.14 5.77206 -1.64176 0
M  V30 13668 H 1277.21 4.40936 -2.0175 0
M  V30 13669 N 1278.56 0.518393 1.4883 0
M  V30 13670 C 1279.51 -0.270295 2.26392 0
M  V30 13671 C 1280.49 -0.9202 1.31989 0
M  V30 13672 O 1281.68 -0.824923 1.56601 0
M  V30 13673 C 1278.81 -1.32368 3.16755 0
M  V30 13674 C 1277.9 -0.679143 4.18627 0
M  V30 13675 N 1278.29 0.228392 5.05284 0
M  V30 13676 C 1276.59 -0.937712 4.36031 0
M  V30 13677 C 1277.29 0.599076 5.78607 0
M  V30 13678 N 1276.26 -0.0371273 5.43587 0
M  V30 13679 H 1280.07 0.428066 2.90766 0
M  V30 13680 H 1277.58 0.335632 1.58894 0
M  V30 13681 H 1279.58 -1.9023 3.70969 0
M  V30 13682 H 1278.24 -2.02354 2.53935 0
M  V30 13683 H 1279.25 0.600292 5.14409 0
M  V30 13684 H 1275.92 -1.62901 3.84408 0
M  V30 13685 H 1277.31 1.34256 6.5835 0
M  V30 13686 N 1280.03 -1.55556 0.252993 0
M  V30 13687 C 1280.96 -2.24613 -0.638047 0
M  V30 13688 C 1281.95 -1.22852 -1.1765 0
M  V30 13689 O 1283.13 -1.51519 -1.21472 0
M  V30 13690 C 1280.26 -2.95029 -1.83236 0
M  V30 13691 C 1279.21 -4.03531 -1.42641 0
M  V30 13692 C 1278.54 -4.61404 -2.70204 0
M  V30 13693 C 1279.84 -5.18923 -0.592958 0
M  V30 13694 H 1281.53 -2.99335 -0.0621918 0
M  V30 13695 H 1279.08 -1.43972 -0.0284722 0
M  V30 13696 H 1281.03 -3.42042 -2.46141 0
M  V30 13697 H 1279.76 -2.17805 -2.43369 0
M  V30 13698 H 1278.42 -3.57296 -0.820672 0
M  V30 13699 H 1278.06 -3.80874 -3.28548 0
M  V30 13700 H 1277.76 -5.34652 -2.43764 0
M  V30 13701 H 1279.29 -5.11154 -3.33997 0
M  V30 13702 H 1280.7 -5.62124 -1.12646 0
M  V30 13703 H 1279.1 -5.98598 -0.424358 0
M  V30 13704 H 1280.17 -4.83301 0.393434 0
M  V30 13705 N 1281.51 0.0200419 -1.57587 0
M  V30 13706 C 1282.46 1.01784 -2.07144 0
M  V30 13707 C 1283.43 1.3537 -0.962501 0
M  V30 13708 O 1284.61 1.45553 -1.23365 0
M  V30 13709 C 1281.75 2.31091 -2.56302 0
M  V30 13710 C 1280.87 2.03584 -3.81022 0
M  V30 13711 C 1280 3.26827 -4.18757 0
M  V30 13712 C 1279.04 2.94915 -5.36369 0
M  V30 13713 N 1278.18 4.10636 -5.69493 0
M  V30 13714 H 1283.02 0.588288 -2.92136 0
M  V30 13715 H 1280.56 0.278848 -1.44433 0
M  V30 13716 H 1282.51 3.06656 -2.82874 0
M  V30 13717 H 1281.14 2.71752 -1.74215 0
M  V30 13718 H 1280.2 1.18475 -3.6148 0
M  V30 13719 H 1281.51 1.76049 -4.66699 0
M  V30 13720 H 1280.66 4.10753 -4.46505 0
M  V30 13721 H 1279.4 3.57483 -3.31749 0
M  V30 13722 H 1278.41 2.09392 -5.08365 0
M  V30 13723 H 1279.63 2.65528 -6.25037 0
M  V30 13724 H 1277.58 4.41226 -4.85444 0
M  V30 13725 H 1277.49 3.86556 -6.497 0
M  V30 13726 H 1278.76 4.95409 -6.01822 0
M  V30 13727 N 1282.99 1.54862 0.292472 0
M  V30 13728 C 1283.9 1.89472 1.38339 0
M  V30 13729 C 1284.92 0.789783 1.55043 0
M  V30 13730 O 1286.09 1.08705 1.69544 0
M  V30 13731 C 1283.16 2.14244 2.72581 0
M  V30 13732 C 1282.22 3.37913 2.64789 0
M  V30 13733 C 1281.45 3.61494 3.92629 0
M  V30 13734 O 1281.67 2.87931 4.92394 0
M  V30 13735 O 1280.61 4.55019 3.94007 0
M  V30 13736 H 1284.43 2.82298 1.11989 0
M  V30 13737 H 1282.02 1.41161 0.489291 0
M  V30 13738 H 1283.9 2.31689 3.51991 0
M  V30 13739 H 1282.58 1.24603 2.98757 0
M  V30 13740 H 1281.48 3.25823 1.83821 0
M  V30 13741 H 1282.82 4.27711 2.43565 0
M  V30 13742 N 1284.47 -0.556076 1.47464 0
M  V30 13743 C 1285.42 -1.66304 1.60036 0
M  V30 13744 C 1286.39 -1.60074 0.443348 0
M  V30 13745 O 1287.57 -1.7889 0.663545 0
M  V30 13746 C 1284.71 -3.04624 1.62167 0
M  V30 13747 C 1283.82 -3.21283 2.88793 0
M  V30 13748 C 1282.96 -4.50008 2.82252 0
M  V30 13749 C 1282 -4.60103 4.03698 0
M  V30 13750 N 1281.13 -5.80184 3.95387 0
M  V30 13751 H 1285.97 -1.54897 2.5458 0
M  V30 13752 H 1283.51 -0.754533 1.26274 0
M  V30 13753 H 1285.47 -3.84721 1.61386 0
M  V30 13754 H 1284.1 -3.14865 0.711348 0
M  V30 13755 H 1283.15 -2.34611 2.99436 0
M  V30 13756 H 1284.46 -3.24607 3.78724 0
M  V30 13757 H 1283.62 -5.38366 2.79726 0
M  V30 13758 H 1282.36 -4.49165 1.90005 0
M  V30 13759 H 1281.36 -3.70157 4.06527 0
M  V30 13760 H 1282.59 -4.62704 4.97073 0
M  V30 13761 H 1280.53 -5.80288 3.05944 0
M  V30 13762 H 1280.45 -5.8489 4.78998 0
M  V30 13763 H 1281.72 -6.709 3.96879 0
M  V30 13764 N 1285.95 -1.35615 -0.802897 0
M  V30 13765 C 1286.91 -1.28705 -1.89651 0
M  V30 13766 C 1287.91 -0.197681 -1.5958 0
M  V30 13767 O 1289.1 -0.451618 -1.68244 0
M  V30 13768 C 1286.23 -0.991941 -3.26149 0
M  V30 13769 H 1287.43 -2.25951 -1.97196 0
M  V30 13770 H 1284.98 -1.20192 -0.999179 0
M  V30 13771 H 1285.71 -0.0235051 -3.24291 0
M  V30 13772 H 1285.5 -1.78013 -3.49362 0
M  V30 13773 H 1286.99 -0.969298 -4.06195 0
M  V30 13774 N 1287.43 1.02549 -1.19673 0
M  V30 13775 C 1288.67 1.76265 -1.00293 0
M  V30 13776 C 1289 1.88555 0.464816 0
M  V30 13777 O 1288.28 1.40484 1.34515 0
M  V30 13778 C 1288.56 3.18688 -1.6766 0
M  V30 13779 C 1288.42 3.14247 -3.21821 0
M  V30 13780 C 1289.73 4.17159 -1.40238 0
M  V30 13781 H 1286.85 0.639837 -0.365756 0
M  V30 13782 H 1289.5 1.19691 -1.4756 0
M  V30 13783 H 1287.65 3.66992 -1.27472 0
M  V30 13784 H 1289.32 2.73815 -3.71245 0
M  V30 13785 H 1287.56 2.51874 -3.53188 0
M  V30 13786 H 1288.23 4.14886 -3.64107 0
M  V30 13787 H 1290.71 3.77471 -1.75086 0
M  V30 13788 H 1289.58 5.14997 -1.89919 0
M  V30 13789 H 1289.84 4.4088 -0.328197 0
M  V30 13790 N 1288.9 1.00119 1.21713 0
M  V30 13791 C 1290.31 0.715611 1.72441 0
M  V30 13792 C 1290.67 -0.767 1.80587 0
M  V30 13793 O 1289.79 -1.59928 1.45781 0
M  V30 13794 C 1290.39 1.29234 3.13184 0
M  V30 13795 C 1288.94 1.05597 3.61284 0
M  V30 13796 C 1288.09 1.40749 2.38925 0
M  V30 13797 H 1291.04 1.17255 1.06943 0
M  V30 13798 H 1291.06 0.67507 3.74464 0
M  V30 13799 H 1290.58 2.37141 3.07223 0
M  V30 13800 H 1288.68 -0.00610816 3.72599 0
M  V30 13801 H 1288.79 1.72517 4.46961 0
M  V30 13802 H 1287.15 0.826207 2.40927 0
M  V30 13803 H 1287.94 2.49678 2.35618 0
M  V30 13804 N 1290.38 -1.37203 0.775435 0
M  V30 13805 C 1291.31 -2.27933 0.110444 0
M  V30 13806 C 1292.29 -1.46513 -0.705179 0
M  V30 13807 O 1293.48 -1.7584 -0.679154 0
M  V30 13808 C 1290.6 -3.27868 -0.84971 0
M  V30 13809 C 1289.65 -4.26338 -0.117627 0
M  V30 13810 S 1290.48 -5.21952 1.19691 0
M  V30 13811 C 1291.64 -6.25438 0.240393 0
M  V30 13812 H 1291.87 -2.83985 0.879766 0
M  V30 13813 H 1289.4 -1.43533 0.568996 0
M  V30 13814 H 1291.36 -3.85952 -1.39827 0
M  V30 13815 H 1290.02 -2.70756 -1.59217 0
M  V30 13816 H 1289.22 -4.96855 -0.845639 0
M  V30 13817 H 1288.82 -3.72263 0.360041 0
M  V30 13818 H 1291.11 -6.74962 -0.585867 0
M  V30 13819 H 1292.05 -7.02178 0.913846 0
M  V30 13820 H 1292.46 -5.64301 -0.150043 0
M  V30 13821 N 1291.86 -0.526279 -1.48553 0
M  V30 13822 C 1293.27 -0.0848694 -1.86507 0
M  V30 13823 C 1293.62 1.3367 -1.43621 0
M  V30 13824 O 1292.75 2.00046 -0.825268 0
M  V30 13825 C 1293.34 -0.147241 -3.3848 0
M  V30 13826 C 1291.9 0.238954 -3.75641 0
M  V30 13827 C 1291.05 -0.508648 -2.72595 0
M  V30 13828 H 1294 -0.737728 -1.40511 0
M  V30 13829 H 1294.02 0.641964 -3.75045 0
M  V30 13830 H 1293.53 -1.18199 -3.69663 0
M  V30 13831 H 1291.63 1.27598 -3.50071 0
M  V30 13832 H 1291.75 -0.0980808 -4.79 0
M  V30 13833 H 1290.11 0.0446382 -2.54661 0
M  V30 13834 H 1290.89 -1.54395 -3.06622 0
M  V30 13835 N 1293.34 1.5542 -0.261239 0
M  V30 13836 C 1294.25 2.25627 0.642625 0
M  V30 13837 C 1295.26 1.27732 1.18155 0
M  V30 13838 O 1296.44 1.60639 1.21479 0
M  V30 13839 C 1293.5 2.95303 1.8165 0
M  V30 13840 C 1292.57 4.08644 1.31563 0
M  V30 13841 C 1291.8 4.74988 2.43355 0
M  V30 13842 O 1292.02 4.40474 3.62407 0
M  V30 13843 O 1290.96 5.63217 2.12299 0
M  V30 13844 H 1294.78 3.03609 0.0743091 0
M  V30 13845 H 1292.37 1.49372 -0.0291754 0
M  V30 13846 H 1294.25 3.3914 2.50125 0
M  V30 13847 H 1292.92 2.2025 2.37217 0
M  V30 13848 H 1291.83 3.69294 0.597746 0
M  V30 13849 H 1293.16 4.85558 0.805878 0
M  V30 13850 N 1294.82 -0.0116844 1.57596 0
M  V30 13851 C 1295.78 -0.991601 2.0664 0
M  V30 13852 C 1296.78 -1.27973 0.973629 0
M  V30 13853 O 1297.97 -1.22686 1.23668 0
M  V30 13854 C 1295.1 -2.31975 2.49801 0
M  V30 13855 H 1296.29 -0.567607 2.9448 0
M  V30 13856 H 1293.85 -0.258906 1.54141 0
M  V30 13857 H 1294.58 -2.79087 1.65169 0
M  V30 13858 H 1294.37 -2.12386 3.29598 0
M  V30 13859 H 1295.86 -3.02294 2.88112 0
M  V30 13860 N 1296.29 -1.55015 -0.284256 0
M  V30 13861 C 1297.52 -1.79431 -1.04016 0
M  V30 13862 C 1297.94 -0.560254 -1.79563 0
M  V30 13863 O 1297.3 0.489804 -1.74558 0
M  V30 13864 C 1297.35 -3.01162 -1.98328 0
M  V30 13865 O 1296.45 -2.75459 -3.06914 0
M  V30 13866 H 1295.79 -0.593391 -0.297965 0
M  V30 13867 H 1298.32 -2.02136 -0.316585 0
M  V30 13868 H 1298.33 -3.29589 -2.40489 0
M  V30 13869 H 1297.01 -3.90634 -1.42751 0
M  V30 13870 H 1295.59 -2.58096 -2.69148 0
M  V30 13871 N 1297.77 0.548248 -1.47757 0
M  V30 13872 C 1298.73 1.63666 -1.60456 0
M  V30 13873 C 1299.73 1.53499 -0.479028 0
M  V30 13874 O 1300.92 1.57497 -0.744342 0
M  V30 13875 C 1298.06 3.03239 -1.55754 0
M  V30 13876 H 1299.25 1.53752 -2.57488 0
M  V30 13877 H 1296.8 0.768881 -1.36081 0
M  V30 13878 H 1297.54 3.18677 -0.601303 0
M  V30 13879 H 1297.32 3.12027 -2.37448 0
M  V30 13880 H 1298.81 3.82406 -1.67797 0
M  V30 13881 N 1299.25 1.36039 0.795694 0
M  V30 13882 C 1300.5 1.29919 1.5533 0
M  V30 13883 C 1300.82 -0.123325 1.94109 0
M  V30 13884 O 1300.08 -1.09115 1.62457 0
M  V30 13885 C 1300.38 2.16166 2.84617 0
M  V30 13886 C 1300.04 3.64805 2.65006 0
M  V30 13887 C 1298.71 4.05319 2.59365 0
M  V30 13888 C 1301.06 4.59073 2.46781 0
M  V30 13889 C 1298.39 5.38251 2.33458 0
M  V30 13890 C 1300.74 5.92216 2.22402 0
M  V30 13891 C 1299.4 6.31862 2.1519 0
M  V30 13892 H 1298.67 0.475408 0.568391 0
M  V30 13893 H 1301.32 1.68035 0.918512 0
M  V30 13894 H 1299.62 1.70967 3.5253 0
M  V30 13895 H 1301.32 2.0876 3.42375 0
M  V30 13896 H 1297.91 3.32662 2.70248 0
M  V30 13897 H 1302.1 4.28651 2.50144 0
M  V30 13898 H 1297.35 5.67957 2.26352 0
M  V30 13899 H 1301.53 6.64833 2.07293 0
M  V30 13900 H 1299.15 7.34797 1.94878 0
M  V30 13901 N 1300.73 -1.01913 1.20215 0
M  V30 13902 C 1301.98 -1.7547 1.01076 0
M  V30 13903 C 1302.3 -1.89045 -0.457404 0
M  V30 13904 O 1301.56 -1.41121 -1.35585 0
M  V30 13905 C 1301.86 -3.17734 1.63646 0
M  V30 13906 C 1301.52 -3.24143 3.13436 0
M  V30 13907 C 1300.19 -3.25599 3.54315 0
M  V30 13908 C 1302.54 -3.22508 4.09436 0
M  V30 13909 C 1299.87 -3.23089 4.89725 0
M  V30 13910 C 1302.22 -3.21539 5.44789 0
M  V30 13911 C 1300.88 -3.21298 5.85085 0
M  V30 13912 H 1300.15 -0.642092 0.369864 0
M  V30 13913 H 1302.8 -1.19547 1.49602 0
M  V30 13914 H 1301.1 -3.76799 1.07375 0
M  V30 13915 H 1302.8 -3.73338 1.46356 0
M  V30 13916 H 1299.39 -3.23743 2.80871 0
M  V30 13917 H 1303.57 -3.20555 3.7889 0
M  V30 13918 H 1298.83 -3.21231 5.20212 0
M  V30 13919 H 1303 -3.19226 6.18924 0
M  V30 13920 H 1300.63 -3.19107 6.89982 0
M  V30 13921 N 1302.21 -1.00763 -1.2118 0
M  V30 13922 C 1303.46 -0.687197 -1.89633 0
M  V30 13923 C 1303.77 0.78566 -1.79128 0
M  V30 13924 O 1304.97 1.21828 -2.42632 0
M  V30 13925 C 1303.43 -1.1787 -3.40051 0
M  V30 13926 C 1303.04 -2.67782 -3.59161 0
M  V30 13927 C 1304.78 -0.933277 -4.14114 0
M  V30 13928 C 1302.69 -3.10459 -5.03358 0
M  V30 13929 H 1301.62 -0.253342 -0.710165 0
M  V30 13930 H 1304.27 -1.21914 -1.37147 0
M  V30 13931 H 1302.65 -0.574791 -3.91806 0
M  V30 13932 H 1303.83 -3.33645 -3.17833 0
M  V30 13933 H 1302.14 -2.90368 -2.98455 0
M  V30 13934 H 1304.74 -1.22766 -5.20416 0
M  V30 13935 H 1305.08 0.130431 -4.16096 0
M  V30 13936 H 1305.61 -1.50011 -3.68431 0
M  V30 13937 H 1302.35 -4.16068 -5.06525 0
M  V30 13938 H 1301.87 -2.4931 -5.45531 0
M  V30 13939 H 1303.55 -3.02589 -5.71882 0
M  V30 13940 N 1303.68 1.3679 -0.7827 0
M  V30 13941 C 1304.93 1.99417 -0.352011 0
M  V30 13942 C 1305.26 1.62127 1.07448 0
M  V30 13943 O 1304.51 0.864449 1.75573 0
M  V30 13944 C 1304.81 3.54489 -0.455232 0
M  V30 13945 C 1304.48 4.11579 -1.84156 0
M  V30 13946 C 1303.14 4.26884 -2.22089 0
M  V30 13947 C 1305.49 4.4277 -2.74962 0
M  V30 13948 C 1302.82 4.70688 -3.50243 0
M  V30 13949 C 1305.17 4.88003 -4.02537 0
M  V30 13950 C 1303.84 5.01513 -4.40501 0
M  V30 13951 H 1303.11 0.729718 -0.12881 0
M  V30 13952 H 1305.75 1.63386 -0.998856 0
M  V30 13953 H 1304.06 3.90833 0.275129 0
M  V30 13954 H 1305.76 4.00867 -0.103127 0
M  V30 13955 H 1302.35 4.00102 -1.53677 0
M  V30 13956 H 1306.53 4.30521 -2.46912 0
M  V30 13957 H 1301.79 4.79335 -3.79537 0
M  V30 13958 H 1305.96 5.11102 -4.73019 0
M  V30 13959 H 1303.59 5.35214 -5.39861 0
M  V30 13960 N 1305.16 0.53415 1.48272 0
M  V30 13961 C 1306.39 0.00368464 2.074 0
M  V30 13962 C 1306.81 -1.27003 1.38751 0
M  V30 13963 O 1306.17 -1.75502 0.454817 0
M  V30 13964 C 1306.22 -0.199034 3.6005 0
M  V30 13965 O 1305.32 -1.26679 3.92462 0
M  V30 13966 H 1304.66 0.0409936 0.662733 0
M  V30 13967 H 1307.19 0.743253 1.90622 0
M  V30 13968 H 1307.2 -0.420404 4.05828 0
M  V30 13969 H 1305.88 0.731391 4.09418 0
M  V30 13970 H 1304.46 -1.02775 3.58457 0
M  V30 13971 N 1306.64 -1.55279 0.269478 0
M  V30 13972 C 1307.87 -2.04334 -0.355313 0
M  V30 13973 C 1308.29 -1.14677 -1.491 0
M  V30 13974 O 1307.65 -0.144215 -1.80726 0
M  V30 13975 C 1307.7 -3.51172 -0.819162 0
M  V30 13976 O 1306.8 -3.64615 -1.9269 0
M  V30 13977 H 1306.14 -0.659827 -0.0743229 0
M  V30 13978 H 1308.67 -2.00609 0.402131 0
M  V30 13979 H 1308.68 -3.92428 -1.11642 0
M  V30 13980 H 1307.36 -4.15898 0.0117821 0
M  V30 13981 H 1305.93 -3.35261 -1.63261 0
M  V30 13982 N 1308.12 0.00332656 -1.576 0
M  V30 13983 C 1309.07 1.01406 -2.09331 0
M  V30 13984 C 1310.06 1.35806 -1.01258 0
M  V30 13985 O 1311.27 1.34409 -1.19726 0
M  V30 13986 H 1307.64 0.344661 -0.668366 0
M  V30 13987 H 1309.61 0.552154 -2.93247 0
M  V30 13988 C 1308.36 2.29819 -2.60918 0
M  V30 13989 H 1307.68 2.04216 -3.43709 0
M  V30 13990 H 1309.12 2.98826 -3.00797 0
M  V30 13991 C 1307.58 3.0057 -1.52182 0
M  V30 13992 O 1308.11 3.91423 -0.902817 0
M  V30 13993 N 1306.32 2.62338 -1.25009 0
M  V30 13994 H 1305.87 1.88538 -1.75531 0
M  V30 13995 H 1305.82 3.0999 -0.524736 0
M  V30 13996 N 1309.6 1.55164 0.276031 0
M  V30 13997 C 1310.54 1.88623 1.36104 0
M  V30 13998 C 1311.54 0.762265 1.51281 0
M  V30 13999 O 1312.74 0.946573 1.53101 0
M  V30 14000 H 1309.12 0.59863 0.455133 0
M  V30 14001 H 1311.09 2.79266 1.05134 0
M  V30 14002 C 1309.84 2.17207 2.71508 0
M  V30 14003 H 1309.16 3.03179 2.6062 0
M  V30 14004 H 1310.6 2.44541 3.46375 0
M  V30 14005 C 1309.06 0.978671 3.22372 0
M  V30 14006 O 1309.59 0.211766 4.01141 0
M  V30 14007 N 1307.8 0.777199 2.80014 0
M  V30 14008 H 1307.34 1.40252 2.16072 0
M  V30 14009 H 1307.3 -0.0196754 3.14394 0
M  V30 14010 N 1311.07 -0.540404 1.48045 0
M  V30 14011 C 1312.49 -0.867958 1.33935 0
M  V30 14012 C 1312.69 -1.98568 0.342488 0
M  V30 14013 O 1311.75 -2.51357 -0.240022 0
M  V30 14014 C 1313.06 -1.24532 2.73701 0
M  V30 14015 C 1314.61 -1.3558 2.82112 0
M  V30 14016 C 1315.08 -1.76664 4.22556 0
M  V30 14017 N 1316.57 -1.83785 4.25179 0
M  V30 14018 C 1317.31 -2.16938 5.30778 0
M  V30 14019 N 1316.8 -2.48587 6.46666 0
M  V30 14020 N 1318.6 -2.17855 5.18166 0
M  V30 14021 H 1310.75 0.197251 2.11482 0
M  V30 14022 H 1313.01 0.0255947 0.947654 0
M  V30 14023 H 1312.72 -0.497731 3.4816 0
M  V30 14024 H 1312.59 -2.19779 3.06556 0
M  V30 14025 H 1314.98 -2.09417 2.07915 0
M  V30 14026 H 1315.06 -0.384787 2.52889 0
M  V30 14027 H 1314.7 -1.03391 4.97265 0
M  V30 14028 H 1314.63 -2.74797 4.49215 0
M  V30 14029 H 1317.12 -1.61645 3.41583 0
M  V30 14030 H 1317.44 -2.72959 7.22989 0
M  V30 14031 H 1315.78 -2.4613 6.49958 0
M  V30 14032 H 1318.97 -1.9258 4.2665 0
M  V30 14033 H 1319.15 -2.43361 6.00566 0
M  V30 14034 N 1312.55 -1.36459 -0.788468 0
M  V30 14035 C 1313.8 -1.30741 -1.54638 0
M  V30 14036 C 1314.13 0.113029 -1.94171 0
M  V30 14037 O 1313.38 1.08252 -1.63034 0
M  V30 14038 C 1313.68 -2.17672 -2.83467 0
M  V30 14039 C 1313.35 -3.66205 -2.63067 0
M  V30 14040 C 1312.01 -4.06688 -2.57212 0
M  V30 14041 C 1314.36 -4.60376 -2.44343 0
M  V30 14042 C 1311.69 -5.39482 -2.306 0
M  V30 14043 C 1314.04 -5.93388 -2.19258 0
M  V30 14044 C 1312.71 -6.32994 -2.11836 0
M  V30 14045 H 1311.98 -0.478416 -0.565862 0
M  V30 14046 H 1314.62 -1.68519 -0.909588 0
M  V30 14047 H 1312.93 -1.72834 -3.51619 0
M  V30 14048 H 1314.62 -2.10573 -3.41263 0
M  V30 14049 H 1311.21 -3.3409 -2.6848 0
M  V30 14050 H 1315.4 -4.29971 -2.47868 0
M  V30 14051 H 1310.65 -5.69149 -2.23337 0
M  V30 14052 H 1314.83 -6.65923 -2.03765 0
M  V30 14053 H 1312.46 -7.3582 -1.90978 0
M  V30 14054 N 1314.03 1.01274 -1.20754 0
M  V30 14055 C 1315.45 1.27256 -0.963221 0
M  V30 14056 C 1315.65 1.98349 0.354972 0
M  V30 14057 O 1314.7 2.28116 1.08255 0
M  V30 14058 C 1316.02 2.1038 -2.14851 0
M  V30 14059 C 1317.56 2.23633 -2.18991 0
M  V30 14060 C 1318.04 3.10136 -3.37016 0
M  V30 14061 N 1319.53 3.17724 -3.37054 0
M  V30 14062 C 1320.26 3.84891 -4.25025 0
M  V30 14063 N 1319.76 4.54152 -5.23181 0
M  V30 14064 N 1321.55 3.81454 -4.12855 0
M  V30 14065 H 1313.7 0.535534 -2.05538 0
M  V30 14066 H 1315.97 0.299006 -0.899611 0
M  V30 14067 H 1315.67 1.65484 -3.10335 0
M  V30 14068 H 1315.55 3.11122 -2.13267 0
M  V30 14069 H 1317.93 2.67753 -1.24067 0
M  V30 14070 H 1318.02 1.22387 -2.24622 0
M  V30 14071 H 1317.66 2.66721 -4.32229 0
M  V30 14072 H 1317.59 4.11478 -3.28623 0
M  V30 14073 H 1320.08 2.68412 -2.66014 0
M  V30 14074 H 1320.39 5.03084 -5.86623 0
M  V30 14075 H 1318.74 4.52964 -5.27113 0
M  V30 14076 H 1321.93 3.26494 -3.35439 0
M  V30 14077 H 1322.1 4.33523 -4.81624 0
M  V30 14078 N 1315.51 1.01404 1.20644 0
M  V30 14079 C 1316.44 0.602465 2.25594 0
M  V30 14080 C 1317.42 -0.381216 1.65773 0
M  V30 14081 O 1318.61 -0.267209 1.92353 0
M  V30 14082 C 1315.74 -0.0626245 3.47244 0
M  V30 14083 C 1314.69 0.841776 4.1964 0
M  V30 14084 C 1314.02 0.0426002 5.34683 0
M  V30 14085 C 1315.32 2.14864 4.76058 0
M  V30 14086 H 1317.01 1.47977 2.60275 0
M  V30 14087 H 1314.56 0.712966 1.25111 0
M  V30 14088 H 1316.51 -0.362095 4.19841 0
M  V30 14089 H 1315.23 -0.974627 3.11719 0
M  V30 14090 H 1313.89 1.12521 3.48905 0
M  V30 14091 H 1313.54 -0.870973 4.95402 0
M  V30 14092 H 1313.24 0.644866 5.84051 0
M  V30 14093 H 1314.76 -0.250476 6.10086 0
M  V30 14094 H 1316.18 1.9117 5.40488 0
M  V30 14095 H 1314.57 2.70153 5.35852 0
M  V30 14096 H 1315.64 2.81336 3.9494 0
M  V30 14097 N 1316.99 -1.36373 0.789944 0
M  V30 14098 C 1317.92 -2.2873 0.146642 0
M  V30 14099 C 1318.93 -1.49503 -0.644419 0
M  V30 14100 O 1320.12 -1.71939 -0.479515 0
M  V30 14101 C 1317.22 -3.28945 -0.815369 0
M  V30 14102 C 1316.39 -4.37337 -0.0742515 0
M  V30 14103 C 1315.45 -5.17511 -0.952284 0
M  V30 14104 O 1314.48 -5.67726 -0.409336 0
M  V30 14105 N 1315.68 -5.34001 -2.27648 0
M  V30 14106 H 1318.45 -2.84578 0.939978 0
M  V30 14107 H 1316.01 -1.48545 0.643898 0
M  V30 14108 H 1318 -3.79469 -1.40661 0
M  V30 14109 H 1316.57 -2.73734 -1.50958 0
M  V30 14110 H 1315.79 -3.8797 0.698068 0
M  V30 14111 H 1317.08 -5.06919 0.437148 0
M  V30 14112 H 1316.48 -4.94819 -2.74173 0
M  V30 14113 H 1315.03 -5.87766 -2.81735 0
M  V30 14114 N 1318.47 -0.542005 -1.47987 0
M  V30 14115 C 1319.71 -0.0144711 -2.04395 0
M  V30 14116 C 1320.07 1.30441 -1.40887 0
M  V30 14117 O 1321.27 1.91872 -1.88252 0
M  V30 14118 C 1319.54 0.0926282 -3.5728 0
M  V30 14119 S 1321.1 0.568487 -4.35102 0
M  V30 14120 H 1317.92 -0.0178299 -0.710776 0
M  V30 14121 H 1320.52 -0.725294 -1.81548 0
M  V30 14122 H 1319.22 -0.871888 -4.01032 0
M  V30 14123 H 1318.76 0.827468 -3.84599 0
M  V30 14124 H 1320.77 1.83092 -4.61185 0
M  V30 14125 N 1319.94 1.55134 -0.277709 0
M  V30 14126 C 1320.89 2.19317 0.623216 0
M  V30 14127 C 1321.88 1.15863 1.11645 0
M  V30 14128 O 1323.07 1.41668 1.0611 0
M  V30 14129 C 1320.2 2.91976 1.80568 0
M  V30 14130 C 1319.28 4.02722 1.3295 0
M  V30 14131 N 1319.68 5.02582 0.569654 0
M  V30 14132 C 1317.97 4.1584 1.61224 0
M  V30 14133 C 1318.67 5.80825 0.318983 0
M  V30 14134 N 1317.65 5.36229 0.892145 0
M  V30 14135 H 1321.45 2.93879 0.0348669 0
M  V30 14136 H 1318.97 1.62196 -0.0813871 0
M  V30 14137 H 1320.96 3.36408 2.46242 0
M  V30 14138 H 1319.62 2.18925 2.39796 0
M  V30 14139 H 1320.63 5.17446 0.216749 0
M  V30 14140 H 1317.31 3.53981 2.21368 0
M  V30 14141 H 1318.7 6.71275 -0.289742 0
M  V30 14142 N 1321.42 0.00503138 1.57599 0
M  V30 14143 C 1322.84 -0.351109 1.5569 0
M  V30 14144 C 1323.04 -1.74465 1.00818 0
M  V30 14145 O 1322.09 -2.44144 0.64422 0
M  V30 14146 C 1323.41 -0.221738 2.99881 0
M  V30 14147 C 1324.95 -0.296303 3.11594 0
M  V30 14148 C 1325.43 -0.195998 4.5758 0
M  V30 14149 N 1326.92 -0.253741 4.62504 0
M  V30 14150 C 1327.66 -0.199546 5.73053 0
M  V30 14151 N 1327.15 -0.0956553 6.92734 0
M  V30 14152 N 1328.94 -0.251779 5.61536 0
M  V30 14153 H 1321.1 0.916578 1.91605 0
M  V30 14154 H 1323.36 0.351802 0.880306 0
M  V30 14155 H 1323.06 0.737255 3.43886 0
M  V30 14156 H 1322.94 -1.00178 3.63654 0
M  V30 14157 H 1325.33 -1.24574 2.67517 0
M  V30 14158 H 1325.41 0.513692 2.50589 0
M  V30 14159 H 1325.05 0.749918 5.02333 0
M  V30 14160 H 1324.98 -1.02455 5.16537 0
M  V30 14161 H 1327.47 -0.335163 3.76411 0
M  V30 14162 H 1327.78 -0.0603357 7.72776 0
M  V30 14163 H 1326.13 -0.0612113 6.94973 0
M  V30 14164 H 1329.32 -0.331173 4.66927 0
M  V30 14165 H 1329.49 -0.206078 6.47672 0
M  V30 14166 N 1322.9 -1.55308 -0.267798 0
M  V30 14167 C 1324.15 -1.75364 -0.996515 0
M  V30 14168 C 1324.46 -0.565028 -1.87261 0
M  V30 14169 O 1325.67 -0.648119 -2.63651 0
M  V30 14170 C 1324.12 -3.10388 -1.82175 0
M  V30 14171 C 1323.73 -4.36832 -0.994062 0
M  V30 14172 C 1325.48 -3.39791 -2.54445 0
M  V30 14173 C 1323.38 -5.62893 -1.81398 0
M  V30 14174 H 1322.31 -0.653679 -0.375793 0
M  V30 14175 H 1324.96 -1.81762 -0.251975 0
M  V30 14176 H 1323.35 -2.98041 -2.60744 0
M  V30 14177 H 1324.52 -4.6011 -0.252167 0
M  V30 14178 H 1322.83 -4.1461 -0.385662 0
M  V30 14179 H 1325.43 -4.31184 -3.16203 0
M  V30 14180 H 1325.77 -2.60159 -3.24997 0
M  V30 14181 H 1326.31 -3.53259 -1.82902 0
M  V30 14182 H 1323.05 -6.45287 -1.15258 0
M  V30 14183 H 1322.57 -5.43751 -2.5317 0
M  V30 14184 H 1324.25 -6.01384 -2.38634 0
M  V30 14185 N 1324.38 0.532545 -1.4833 0
M  V30 14186 C 1325.62 1.29042 -1.56448 0
M  V30 14187 C 1325.96 1.92754 -0.236532 0
M  V30 14188 O 1325.23 1.79154 0.757237 0
M  V30 14189 C 1325.51 2.38173 -2.70084 0
M  V30 14190 C 1325.37 1.79169 -4.12576 0
M  V30 14191 C 1326.69 3.39957 -2.79495 0
M  V30 14192 H 1323.81 0.467816 -0.569488 0
M  V30 14193 H 1326.45 0.593517 -1.80492 0
M  V30 14194 H 1324.6 2.97616 -2.49714 0
M  V30 14195 H 1326.27 1.23797 -4.44378 0
M  V30 14196 H 1324.51 1.09716 -4.19696 0
M  V30 14197 H 1325.18 2.58174 -4.87904 0
M  V30 14198 H 1327.66 2.90466 -2.97941 0
M  V30 14199 H 1326.54 4.13714 -3.60739 0
M  V30 14200 H 1326.8 4.00347 -1.87548 0
M  V30 14201 N 1325.86 1.36875 0.78122 0
M  V30 14202 C 1326.8 1.31941 1.91557 0
M  V30 14203 C 1327.8 0.209783 1.68096 0
M  V30 14204 O 1329 0.377266 1.76002 0
M  V30 14205 H 1325.38 0.410955 0.629778 0
M  V30 14206 H 1327.35 2.27721 1.92836 0
M  V30 14207 C 1326.1 1.13379 3.28695 0
M  V30 14208 H 1325.42 1.98013 3.47319 0
M  V30 14209 H 1326.86 1.13976 4.08394 0
M  V30 14210 C 1325.32 -0.161119 3.36515 0
M  V30 14211 O 1325.85 -1.14806 3.84945 0
M  V30 14212 N 1324.06 -0.208594 2.8985 0
M  V30 14213 H 1323.6 0.595187 2.5063 0
M  V30 14214 H 1323.56 -1.07465 2.95463 0
M  V30 14215 N 1327.33 -1.00632 1.21289 0
M  V30 14216 C 1328.61 -1.71635 0.938124 0
M  V30 14217 C 1328.99 -2.03798 -0.550416 0
M  V30 14218 O 1328.34 -1.71065 -1.5149 0
M  V30 14219 C 1328.55 -2.97674 1.82184 0
M  V30 14220 C 1329.9 -3.7073 2.06989 0
M  V30 14221 O 1330.92 -3.07653 1.79522 0
M  V30 14222 O 1329.78 -4.84183 2.53435 0
M  V30 14223 H 1326.87 -0.748506 0.351664 0
M  V30 14224 H 1329.42 -1.06387 1.32212 0
M  V30 14225 H 1328.19 -2.70306 2.82931 0
M  V30 14226 H 1327.81 -3.70663 1.43858 0
M  V30 14227 N 1328.81 -1.02043 -1.20104 0
M  V30 14228 C 1330.04 -0.731315 -1.93544 0
M  V30 14229 C 1330.45 0.708582 -1.74999 0
M  V30 14230 O 1329.81 1.481 -1.06642 0
M  V30 14231 C 1329.86 -1.06233 -3.45538 0
M  V30 14232 O 1329.58 -2.44568 -3.63481 0
M  V30 14233 C 1331.08 -0.794818 -4.36116 0
M  V30 14234 H 1328.3 -0.268248 -0.615048 0
M  V30 14235 H 1330.85 -1.36264 -1.52488 0
M  V30 14236 H 1329 -0.476341 -3.8446 0
M  V30 14237 H 1329.42 -2.5663 -4.57429 0
M  V30 14238 H 1330.89 -1.07647 -5.41402 0
M  V30 14239 H 1331.37 0.270944 -4.38363 0
M  V30 14240 H 1331.97 -1.36314 -4.02863 0
M  V30 14241 N 1330.29 1.35952 -0.797165 0
M  V30 14242 C 1331.54 1.98283 -0.369685 0
M  V30 14243 C 1331.85 1.63968 1.06649 0
M  V30 14244 O 1333.06 2.19591 1.59662 0
M  V30 14245 C 1331.51 3.54692 -0.610046 0
M  V30 14246 C 1331.12 3.97925 -2.05814 0
M  V30 14247 C 1332.87 4.23778 -0.247457 0
M  V30 14248 C 1330.77 5.47142 -2.24475 0
M  V30 14249 H 1329.7 0.741909 -0.134489 0
M  V30 14250 H 1332.35 1.55146 -0.979893 0
M  V30 14251 H 1330.74 3.95938 0.0699822 0
M  V30 14252 H 1331.91 3.67857 -2.77521 0
M  V30 14253 H 1330.23 3.417 -2.37971 0
M  V30 14254 H 1332.82 5.33452 -0.365059 0
M  V30 14255 H 1333.17 4.08436 0.805315 0
M  V30 14256 H 1333.7 3.87921 -0.881028 0
M  V30 14257 H 1330.44 5.67441 -3.28163 0
M  V30 14258 H 1329.96 5.78811 -1.57282 0
M  V30 14259 H 1331.64 6.13475 -2.05567 0
M  V30 14260 N 1331.77 0.549846 1.47697 0
M  V30 14261 C 1333.02 0.0230503 2.02487 0
M  V30 14262 C 1333.34 -1.32382 1.42497 0
M  V30 14263 O 1332.6 -1.87293 0.567441 0
M  V30 14264 C 1332.9 -0.127268 3.57173 0
M  V30 14265 C 1332.56 1.14777 4.36047 0
M  V30 14266 C 1331.23 1.49716 4.57317 0
M  V30 14267 C 1333.58 1.99302 4.81589 0
M  V30 14268 C 1330.91 2.69042 5.21376 0
M  V30 14269 C 1333.26 3.17824 5.46965 0
M  V30 14270 C 1331.92 3.53086 5.66469 0
M  V30 14271 H 1331.19 0.00843471 0.740952 0
M  V30 14272 H 1333.84 0.719876 1.77454 0
M  V30 14273 H 1332.14 -0.907008 3.81157 0
M  V30 14274 H 1333.84 -0.550103 3.97209 0
M  V30 14275 H 1330.43 0.865703 4.19766 0
M  V30 14276 H 1334.61 1.73618 4.64942 0
M  V30 14277 H 1329.87 2.9654 5.34672 0
M  V30 14278 H 1334.04 3.83612 5.81218 0
M  V30 14279 H 1331.67 4.45643 6.15878 0
M  V30 14280 N 1333.25 -1.54984 0.285932 0
M  V30 14281 C 1334.47 -2.04239 -0.330774 0
M  V30 14282 C 1334.89 -1.16387 -1.48659 0
M  V30 14283 O 1334.25 -0.186255 -1.81547 0
M  V30 14284 C 1334.3 -3.52504 -0.801456 0
M  V30 14285 O 1334.02 -4.37014 0.30834 0
M  V30 14286 C 1335.52 -4.17692 -1.48487 0
M  V30 14287 H 1332.74 -0.666903 -0.0740351 0
M  V30 14288 H 1335.28 -2.00116 0.421178 0
M  V30 14289 H 1333.44 -3.57036 -1.50347 0
M  V30 14290 H 1333.85 -5.24471 -0.0553891 0
M  V30 14291 H 1335.33 -5.23004 -1.76552 0
M  V30 14292 H 1335.8 -3.66515 -2.41999 0
M  V30 14293 H 1336.41 -4.17193 -0.826428 0
M  V30 14294 N 1334.72 -0.0133892 -1.57594 0
M  V30 14295 C 1335.67 0.991796 -2.10395 0
M  V30 14296 C 1336.67 1.34724 -1.02693 0
M  V30 14297 O 1337.87 1.33131 -1.21145 0
M  V30 14298 H 1334.25 0.337553 -0.671984 0
M  V30 14299 H 1336.22 0.52102 -2.93816 0
M  V30 14300 C 1334.97 2.27039 -2.63341 0
M  V30 14301 H 1334.29 2.00559 -3.45855 0
M  V30 14302 H 1335.73 2.95619 -3.0395 0
M  V30 14303 C 1334.19 2.98939 -1.55362 0
M  V30 14304 O 1334.72 3.90444 -0.944282 0
M  V30 14305 N 1332.93 2.60997 -1.27784 0
M  V30 14306 H 1332.47 1.86666 -1.77521 0
M  V30 14307 H 1332.43 3.09416 -0.557585 0
M  V30 14308 N 1336.2 1.55448 0.259558 0
M  V30 14309 C 1337.13 1.9226 1.32508 0
M  V30 14310 C 1338.11 0.786012 1.5085 0
M  V30 14311 O 1339.3 1.04526 1.6367 0
M  V30 14312 C 1336.43 2.20627 2.68218 0
M  V30 14313 C 1335.38 3.36418 2.64589 0
M  V30 14314 C 1334.71 3.50295 4.03977 0
M  V30 14315 C 1336.01 4.72452 2.2268 0
M  V30 14316 H 1337.7 2.81509 1.01945 0
M  V30 14317 H 1335.25 1.35444 0.488965 0
M  V30 14318 H 1337.2 2.44968 3.42883 0
M  V30 14319 H 1335.93 1.28191 3.00391 0
M  V30 14320 H 1334.58 3.12065 1.92382 0
M  V30 14321 H 1334.23 2.55302 4.33394 0
M  V30 14322 H 1333.93 4.28155 4.02439 0
M  V30 14323 H 1335.46 3.76944 4.8036 0
M  V30 14324 H 1336.87 4.96249 2.87071 0
M  V30 14325 H 1335.27 5.53323 2.32279 0
M  V30 14326 H 1336.34 4.70367 1.17826 0
M  V30 14327 N 1337.68 -0.524672 1.4861 0
M  V30 14328 C 1338.93 -1.27671 1.5615 0
M  V30 14329 C 1339.24 -1.94088 0.242709 0
M  V30 14330 O 1340.45 -2.70789 0.196407 0
M  V30 14331 C 1338.9 -2.31686 2.75408 0
M  V30 14332 C 1338.51 -1.71315 4.13951 0
M  V30 14333 C 1340.26 -3.07867 2.92264 0
M  V30 14334 C 1338.16 -2.73302 5.24462 0
M  V30 14335 H 1337.09 -0.480177 0.581332 0
M  V30 14336 H 1339.74 -0.553473 1.74954 0
M  V30 14337 H 1338.13 -3.07069 2.50049 0
M  V30 14338 H 1339.3 -1.02085 4.4935 0
M  V30 14339 H 1337.62 -1.07608 4.02255 0
M  V30 14340 H 1340.21 -3.84088 3.71995 0
M  V30 14341 H 1340.56 -3.64052 2.01921 0
M  V30 14342 H 1341.09 -2.39599 3.17549 0
M  V30 14343 H 1337.83 -2.21929 6.16788 0
M  V30 14344 H 1337.35 -3.40843 4.93544 0
M  V30 14345 H 1339.03 -3.36186 5.528 0
M  V30 14346 N 1339.16 -1.37287 -0.77395 0
M  V30 14347 C 1340.09 -1.35569 -1.90114 0
M  V30 14348 C 1341.07 -0.224658 -1.6861 0
M  V30 14349 O 1342.25 -0.424676 -1.895 0
M  V30 14350 C 1339.38 -1.15971 -3.27365 0
M  V30 14351 C 1338.34 -2.26063 -3.63427 0
M  V30 14352 C 1337.66 -1.9159 -4.99197 0
M  V30 14353 C 1338.96 -3.68236 -3.70405 0
M  V30 14354 H 1340.66 -2.29891 -1.91808 0
M  V30 14355 H 1338.2 -1.10661 -0.92142 0
M  V30 14356 H 1340.16 -1.134 -4.05855 0
M  V30 14357 H 1338.88 -0.181043 -3.26098 0
M  V30 14358 H 1337.54 -2.27786 -2.87244 0
M  V30 14359 H 1337.19 -0.922586 -4.94467 0
M  V30 14360 H 1336.89 -2.65309 -5.24294 0
M  V30 14361 H 1338.41 -1.90602 -5.80089 0
M  V30 14362 H 1339.83 -3.68655 -4.39052 0
M  V30 14363 H 1338.22 -4.4099 -4.06999 0
M  V30 14364 H 1339.29 -4.02021 -2.71122 0
M  V30 14365 N 1340.64 0.999871 -1.21821 0
M  V30 14366 C 1341.88 1.7384 -1.03855 0
M  V30 14367 C 1342.21 1.89749 0.42727 0
M  V30 14368 O 1341.47 1.43261 1.33323 0
M  V30 14369 C 1341.77 3.1509 -1.6868 0
M  V30 14370 C 1341.43 3.19115 -3.18554 0
M  V30 14371 C 1340.09 3.19921 -3.5945 0
M  V30 14372 C 1342.45 3.15954 -4.14515 0
M  V30 14373 C 1339.77 3.15257 -4.94803 0
M  V30 14374 C 1342.13 3.12831 -5.49836 0
M  V30 14375 C 1340.79 3.11949 -5.90122 0
M  V30 14376 H 1340.06 0.636126 -0.380032 0
M  V30 14377 H 1342.71 1.17151 -1.51485 0
M  V30 14378 H 1341.01 3.75044 -1.13356 0
M  V30 14379 H 1342.71 3.70962 -1.52277 0
M  V30 14380 H 1339.3 3.19234 -2.85986 0
M  V30 14381 H 1343.48 3.14487 -3.83942 0
M  V30 14382 H 1338.74 3.12915 -5.25256 0
M  V30 14383 H 1342.91 3.09339 -6.23925 0
M  V30 14384 H 1340.54 3.0809 -6.94971 0
M  V30 14385 N 1342.11 1.02678 1.19562 0
M  V30 14386 C 1343.36 0.722016 1.89191 0
M  V30 14387 C 1343.69 -0.749217 1.79491 0
M  V30 14388 O 1342.94 -1.56105 1.18025 0
M  V30 14389 C 1343.24 1.11603 3.39529 0
M  V30 14390 C 1342.91 2.58518 3.69431 0
M  V30 14391 C 1341.57 2.98658 3.77302 0
M  V30 14392 C 1343.92 3.53579 3.82925 0
M  V30 14393 C 1341.25 4.32776 3.96134 0
M  V30 14394 C 1343.6 4.87398 4.0327 0
M  V30 14395 C 1342.27 5.27229 4.09373 0
M  V30 14396 H 1341.54 0.264204 0.692298 0
M  V30 14397 H 1344.18 1.28924 1.41601 0
M  V30 14398 H 1342.49 0.467374 3.89002 0
M  V30 14399 H 1344.19 0.857771 3.91718 0
M  V30 14400 H 1340.78 2.26421 3.63911 0
M  V30 14401 H 1344.96 3.23721 3.76189 0
M  V30 14402 H 1340.22 4.63175 3.99098 0
M  V30 14403 H 1344.39 5.60973 4.12653 0
M  V30 14404 H 1342.02 6.31164 4.23718 0
M  V30 14405 N 1343.59 -1.35528 0.804364 0
M  V30 14406 C 1344.84 -1.98084 0.380196 0
M  V30 14407 C 1345.15 -1.64531 -1.05778 0
M  V30 14408 O 1346.36 -2.20435 -1.58495 0
M  V30 14409 C 1344.82 -3.54364 0.628848 0
M  V30 14410 C 1344.42 -3.96828 2.07921 0
M  V30 14411 C 1346.17 -4.23641 0.269927 0
M  V30 14412 C 1344.08 -5.45944 2.27374 0
M  V30 14413 H 1343.01 -0.741185 0.138422 0
M  V30 14414 H 1345.66 -1.54624 0.988107 0
M  V30 14415 H 1344.04 -3.9597 -0.0489837 0
M  V30 14416 H 1345.21 -3.6638 2.79467 0
M  V30 14417 H 1343.53 -3.40433 2.39779 0
M  V30 14418 H 1346.12 -5.33251 0.393344 0
M  V30 14419 H 1346.47 -4.08858 -0.783644 0
M  V30 14420 H 1347 -3.87448 0.901588 0
M  V30 14421 H 1343.74 -5.65693 3.31168 0
M  V30 14422 H 1343.26 -5.77969 1.6035 0
M  V30 14423 H 1344.94 -6.12376 2.08817 0
M  V30 14424 N 1345.07 -0.557671 -1.47404 0
M  V30 14425 C 1346 0.178019 -2.3282 0
M  V30 14426 C 1346.98 0.908318 -1.43818 0
M  V30 14427 O 1348.17 0.888693 -1.72673 0
M  V30 14428 C 1345.3 1.2082 -3.25607 0
M  V30 14429 C 1344.25 0.594335 -4.23853 0
M  V30 14430 C 1343.58 1.72919 -5.05968 0
M  V30 14431 C 1344.88 -0.452196 -5.20339 0
M  V30 14432 H 1346.57 -0.535091 -2.9458 0
M  V30 14433 H 1344.12 -0.258775 -1.41656 0
M  V30 14434 H 1346.07 1.73104 -3.84204 0
M  V30 14435 H 1344.79 1.95126 -2.61903 0
M  V30 14436 H 1343.45 0.0927898 -3.66483 0
M  V30 14437 H 1343.1 2.4613 -4.38668 0
M  V30 14438 H 1342.8 1.32422 -5.72484 0
M  V30 14439 H 1344.33 2.25527 -5.67424 0
M  V30 14440 H 1345.74 -0.0154011 -5.73298 0
M  V30 14441 H 1344.14 -0.776068 -5.95061 0
M  V30 14442 H 1345.21 -1.34791 -4.65789 0
M  V30 14443 N 1346.55 1.54831 -0.294147 0
M  V30 14444 C 1347.48 2.26226 0.57827 0
M  V30 14445 C 1348.46 1.25928 1.14351 0
M  V30 14446 O 1349.65 1.54687 1.17412 0
M  V30 14447 C 1346.78 2.99783 1.75349 0
M  V30 14448 C 1345.73 4.07171 1.31892 0
M  V30 14449 C 1345.06 4.68406 2.57876 0
M  V30 14450 C 1346.36 5.20313 0.455167 0
M  V30 14451 H 1348.05 2.99395 -0.0171936 0
M  V30 14452 H 1345.6 1.43997 -0.00970944 0
M  V30 14453 H 1347.55 3.48448 2.36986 0
M  V30 14454 H 1346.27 2.24181 2.37509 0
M  V30 14455 H 1344.93 3.59346 0.725653 0
M  V30 14456 H 1344.58 3.89451 3.18335 0
M  V30 14457 H 1344.28 5.40927 2.29502 0
M  V30 14458 H 1345.8 5.1983 3.20327 0
M  V30 14459 H 1347.22 5.64913 0.977026 0
M  V30 14460 H 1345.61 5.99512 0.265501 0
M  V30 14461 H 1346.68 4.82088 -0.521434 0
M  V30 14462 N 1348.03 0.0217466 1.57585 0
M  V30 14463 C 1349.25 -0.67246 1.96196 0
M  V30 14464 C 1349.68 -1.6529 0.897827 0
M  V30 14465 O 1349.04 -1.80743 -0.142002 0
M  V30 14466 C 1349.08 -1.36162 3.33905 0
M  V30 14467 O 1348.19 -2.47671 3.29747 0
M  V30 14468 H 1347.53 -0.177238 0.639908 0
M  V30 14469 H 1350.06 0.0814073 2.04438 0
M  V30 14470 H 1350.07 -1.7201 3.69968 0
M  V30 14471 H 1348.74 -0.642893 4.10901 0
M  V30 14472 H 1347.32 -2.13989 3.0539 0
M  V30 14473 N 1349.51 -1.55583 -0.251311 0
M  V30 14474 C 1350.73 -1.81597 -1.00186 0
M  V30 14475 C 1351.16 -0.598216 -1.78334 0
M  V30 14476 O 1350.51 0.452667 -1.75558 0
M  V30 14477 C 1350.56 -3.05301 -1.91895 0
M  V30 14478 O 1349.67 -2.81907 -3.01002 0
M  V30 14479 H 1349.01 -0.599578 -0.285311 0
M  V30 14480 H 1351.54 -2.02762 -0.273638 0
M  V30 14481 H 1351.55 -3.34616 -2.33444 0
M  V30 14482 H 1350.22 -3.93574 -1.34433 0
M  V30 14483 H 1348.8 -2.63747 -2.63613 0
M  V30 14484 N 1350.98 0.516783 -1.48886 0
M  V30 14485 C 1352.23 1.26841 -1.56825 0
M  V30 14486 C 1352.55 1.93957 -0.252998 0
M  V30 14487 O 1353.75 2.70681 -0.210765 0
M  V30 14488 C 1352.21 2.30223 -2.76633 0
M  V30 14489 C 1351.82 1.69117 -4.14853 0
M  V30 14490 C 1353.56 3.06313 -2.93893 0
M  V30 14491 C 1351.47 2.70516 -5.25904 0
M  V30 14492 H 1350.4 0.477087 -0.58387 0
M  V30 14493 H 1353.05 0.544187 -1.75245 0
M  V30 14494 H 1351.43 3.05739 -2.51674 0
M  V30 14495 H 1352.6 0.997003 -4.49885 0
M  V30 14496 H 1350.92 1.05473 -4.0282 0
M  V30 14497 H 1353.52 3.8211 -3.74027 0
M  V30 14498 H 1353.86 3.62976 -2.03848 0
M  V30 14499 H 1354.39 2.37911 -3.18815 0
M  V30 14500 H 1351.13 2.18655 -6.17956 0
M  V30 14501 H 1350.65 3.38221 -4.95345 0
M  V30 14502 H 1352.33 3.3325 -5.54575 0
M  V30 14503 N 1352.46 1.37696 0.766659 0
M  V30 14504 C 1353.69 1.36564 1.56093 0
M  V30 14505 C 1354.11 -0.0455828 1.88045 0
M  V30 14506 O 1353.47 -1.02405 1.49609 0
M  V30 14507 C 1353.52 2.21592 2.84481 0
M  V30 14508 O 1352.62 1.62404 3.79076 0
M  V30 14509 H 1351.96 0.466394 0.472623 0
M  V30 14510 H 1354.49 1.81287 0.948486 0
M  V30 14511 H 1354.5 2.34987 3.33534 0
M  V30 14512 H 1353.18 3.24167 2.60554 0
M  V30 14513 H 1351.75 1.58078 3.37736 0
M  V30 14514 N 1353.94 -0.993397 1.22349 0
M  V30 14515 C 1354.87 -2.10171 1.01737 0
M  V30 14516 C 1355.85 -1.69989 -0.0615276 0
M  V30 14517 O 1357.04 -1.93939 0.100591 0
M  V30 14518 C 1354.17 -3.42186 0.593801 0
M  V30 14519 C 1353.12 -3.96215 1.61858 0
M  V30 14520 C 1352.45 -5.24272 1.05086 0
M  V30 14521 C 1353.75 -4.26956 3.00842 0
M  V30 14522 H 1355.44 -2.27673 1.94436 0
M  V30 14523 H 1352.99 -1.09408 0.936258 0
M  V30 14524 H 1354.94 -4.19131 0.436715 0
M  V30 14525 H 1353.66 -3.2451 -0.368855 0
M  V30 14526 H 1352.32 -3.21401 1.76343 0
M  V30 14527 H 1351.97 -5.02937 0.0795747 0
M  V30 14528 H 1351.67 -5.61387 1.73547 0
M  V30 14529 H 1353.19 -6.03851 0.905349 0
M  V30 14530 H 1354.61 -4.94699 2.89734 0
M  V30 14531 H 1353 -4.75242 3.66422 0
M  V30 14532 H 1354.07 -3.34752 3.50812 0
M  V30 14533 N 1355.42 -1.03311 -1.19015 0
M  V30 14534 C 1356.38 -0.622114 -2.20596 0
M  V30 14535 C 1357.38 0.316502 -1.57654 0
M  V30 14536 O 1358.57 0.102932 -1.73896 0
M  V30 14537 C 1355.7 0.0890432 -3.40784 0
M  V30 14538 H 1356.9 -1.52095 -2.58471 0
M  V30 14539 H 1354.45 -0.824777 -1.32767 0
M  V30 14540 H 1355.18 1.00203 -3.08431 0
M  V30 14541 H 1354.97 -0.58547 -3.87704 0
M  V30 14542 H 1356.46 0.363366 -4.16016 0
M  V30 14543 N 1356.9 1.35099 -0.81154 0
M  V30 14544 C 1357.86 2.28033 -0.230947 0
M  V30 14545 C 1358.86 1.49798 0.584575 0
M  V30 14546 O 1360.05 1.6949 0.402336 0
M  V30 14547 C 1357.18 3.341 0.677486 0
M  V30 14548 H 1358.37 2.80893 -1.05067 0
M  V30 14549 H 1355.93 1.45038 -0.582554 0
M  V30 14550 H 1356.66 2.86435 1.5207 0
M  V30 14551 H 1356.45 3.91986 0.0943563 0
M  V30 14552 H 1357.94 4.0345 1.07787 0
M  V30 14553 N 1358.37 0.56548 1.47106 0
M  V30 14554 C 1359.28 -0.180488 2.33905 0
M  V30 14555 C 1360.3 -0.90355 1.48701 0
M  V30 14556 O 1361.48 -0.870595 1.81611 0
M  V30 14557 C 1358.54 -1.19212 3.2556 0
M  V30 14558 C 1357.6 -0.475589 4.26658 0
M  V30 14559 C 1356.83 -1.43902 5.13934 0
M  V30 14560 O 1357.06 -2.67443 5.03816 0
M  V30 14561 O 1355.99 -0.958998 5.94211 0
M  V30 14562 H 1359.82 0.531726 2.99009 0
M  V30 14563 H 1357.4 0.32602 1.45799 0
M  V30 14564 H 1359.28 -1.77586 3.82153 0
M  V30 14565 H 1357.96 -1.8861 2.63074 0
M  V30 14566 H 1356.87 0.149561 3.73801 0
M  V30 14567 H 1358.2 0.177103 4.91881 0
M  V30 14568 N 1359.85 -1.54672 0.302354 0
M  V30 14569 C 1361.13 -1.92264 -0.359711 0
M  V30 14570 C 1361.51 -1.22973 -1.71583 0
M  V30 14571 O 1360.86 -0.365942 -2.25551 0
M  V30 14572 C 1361.07 -3.4578 -0.473019 0
M  V30 14573 C 1362.42 -4.18044 -0.743252 0
M  V30 14574 O 1363.44 -3.51822 -0.556778 0
M  V30 14575 O 1362.3 -5.35283 -1.10155 0
M  V30 14576 H 1359.39 -0.802112 -0.201359 0
M  V30 14577 H 1361.94 -1.66041 0.350513 0
M  V30 14578 H 1360.71 -3.88342 0.480265 0
M  V30 14579 H 1360.33 -3.78042 -1.23166 0
M  V30 14580 N 1361.33 -0.0301034 -1.57571 0
M  V30 14581 C 1362.74 0.508591 -1.79639 0
M  V30 14582 C 1363.09 1.72191 -0.940458 0
M  V30 14583 O 1362.22 2.15872 -0.151138 0
M  V30 14584 C 1362.81 0.929446 -3.25802 0
M  V30 14585 C 1361.37 1.41325 -3.48861 0
M  V30 14586 C 1360.52 0.378433 -2.74706 0
M  V30 14587 H 1363.47 -0.256131 -1.56619 0
M  V30 14588 H 1363.49 1.79374 -3.35567 0
M  V30 14589 H 1363 0.0461738 -3.88073 0
M  V30 14590 H 1361.1 2.31641 -2.91844 0
M  V30 14591 H 1361.22 1.41995 -4.57574 0
M  V30 14592 H 1359.58 0.846744 -2.40213 0
M  V30 14593 H 1360.36 -0.49639 -3.39692 0
M  V30 14594 N 1362.81 1.55714 0.243056 0
M  V30 14595 C 1364.05 1.77989 0.971993 0
M  V30 14596 C 1364.39 0.596038 1.84827 0
M  V30 14597 O 1363.66 -0.40554 1.90225 0
M  V30 14598 C 1363.95 3.10178 1.82925 0
M  V30 14599 C 1363.8 4.38974 0.9809 0
M  V30 14600 C 1365.12 3.38628 2.81103 0
M  V30 14601 H 1362.24 0.64754 0.35194 0
M  V30 14602 H 1364.88 1.88449 0.242237 0
M  V30 14603 H 1363.03 3.01392 2.45143 0
M  V30 14604 H 1364.7 4.59756 0.377113 0
M  V30 14605 H 1362.94 4.3286 0.285414 0
M  V30 14606 H 1363.61 5.27858 1.61461 0
M  V30 14607 H 1366.09 3.47403 2.29021 0
M  V30 14608 H 1364.97 4.32331 3.38203 0
M  V30 14609 H 1365.23 2.5973 3.57761 0
M  V30 14610 N 1364.29 -0.50888 1.49158 0
M  V30 14611 C 1365.22 -1.62778 1.61356 0
M  V30 14612 C 1366.23 -1.55039 0.496653 0
M  V30 14613 O 1367.42 -1.61115 0.768386 0
M  V30 14614 C 1364.52 -3.01534 1.54694 0
M  V30 14615 C 1363.69 -3.34539 2.81785 0
M  V30 14616 C 1362.75 -4.5267 2.68283 0
M  V30 14617 O 1361.78 -4.54844 3.42207 0
M  V30 14618 N 1362.98 -5.52115 1.79303 0
M  V30 14619 H 1365.75 -1.52744 2.57855 0
M  V30 14620 H 1363.31 -0.696597 1.46148 0
M  V30 14621 H 1365.3 -3.7847 1.43327 0
M  V30 14622 H 1363.87 -3.05535 0.660849 0
M  V30 14623 H 1363.09 -2.46576 3.07561 0
M  V30 14624 H 1364.38 -3.53384 3.66057 0
M  V30 14625 H 1363.77 -5.53153 1.18485 0
M  V30 14626 H 1362.33 -6.28184 1.73863 0
M  V30 14627 N 1365.76 -1.381 -0.759346 0
M  V30 14628 C 1366.71 -1.31373 -1.86347 0
M  V30 14629 C 1367.7 -0.199113 -1.59663 0
M  V30 14630 O 1368.89 -0.43459 -1.71582 0
M  V30 14631 C 1366.02 -1.13537 -3.23982 0
M  V30 14632 C 1365.11 -2.29596 -3.56576 0
M  V30 14633 N 1365.5 -3.55023 -3.60267 0
M  V30 14634 C 1363.79 -2.22022 -3.86811 0
M  V30 14635 C 1364.5 -4.31629 -3.89963 0
M  V30 14636 N 1363.47 -3.60915 -4.06499 0
M  V30 14637 H 1367.27 -2.26345 -1.8747 0
M  V30 14638 H 1364.79 -1.3125 -0.956415 0
M  V30 14639 H 1366.78 -1.06801 -4.02988 0
M  V30 14640 H 1365.44 -0.194922 -3.24114 0
M  V30 14641 H 1366.46 -3.88769 -3.42168 0
M  V30 14642 H 1363.13 -1.36104 -3.94692 0
M  V30 14643 H 1364.52 -5.40238 -3.9949 0
M  V30 14644 N 1367.24 0.986894 -1.22875 0
M  V30 14645 C 1368.47 1.76266 -1.08342 0
M  V30 14646 C 1368.89 1.85226 0.365602 0
M  V30 14647 O 1368.24 1.32675 1.25314 0
M  V30 14648 C 1368.29 3.19282 -1.69533 0
M  V30 14649 O 1368.01 3.10796 -3.08768 0
M  V30 14650 C 1369.52 4.13281 -1.60355 0
M  V30 14651 H 1366.74 0.553374 -0.379497 0
M  V30 14652 H 1369.28 1.24033 -1.62592 0
M  V30 14653 H 1367.43 3.68563 -1.19332 0
M  V30 14654 H 1367.85 4.0078 -3.38343 0
M  V30 14655 H 1369.32 5.11359 -2.07884 0
M  V30 14656 H 1369.8 4.356 -0.561182 0
M  V30 14657 H 1370.41 3.699 -2.09891 0
M  V30 14658 N 1368.72 1.0394 1.18466 0
M  V30 14659 C 1369.95 0.761926 1.92897 0
M  V30 14660 C 1370.37 -0.674618 1.75586 0
M  V30 14661 O 1369.73 -1.46711 1.06515 0
M  V30 14662 C 1369.78 1.13152 3.42387 0
M  V30 14663 O 1368.88 0.256266 4.11603 0
M  V30 14664 H 1368.22 0.280527 0.601831 0
M  V30 14665 H 1370.75 1.3889 1.50235 0
M  V30 14666 H 1370.76 1.0929 3.9309 0
M  V30 14667 H 1369.44 2.17804 3.54308 0
M  V30 14668 H 1368.01 0.354392 3.71212 0
M  V30 14669 N 1370.2 -1.34667 0.818693 0
M  V30 14670 C 1371.45 -1.98414 0.404759 0
M  V30 14671 C 1371.77 -1.64919 -1.03112 0
M  V30 14672 O 1371.03 -0.910695 -1.73219 0
M  V30 14673 C 1371.33 -3.53157 0.549059 0
M  V30 14674 C 1370.99 -4.06552 1.95003 0
M  V30 14675 C 1369.66 -4.20846 2.33329 0
M  V30 14676 C 1372.01 -4.35324 2.86604 0
M  V30 14677 C 1369.34 -4.61236 3.62599 0
M  V30 14678 C 1371.69 -4.77159 4.15334 0
M  V30 14679 C 1370.35 -4.89658 4.53642 0
M  V30 14680 H 1369.62 -0.726047 0.148112 0
M  V30 14681 H 1372.27 -1.60681 1.04182 0
M  V30 14682 H 1370.57 -3.91425 -0.17141 0
M  V30 14683 H 1372.27 -4.00453 0.209374 0
M  V30 14684 H 1368.86 -3.95887 1.64231 0
M  V30 14685 H 1373.04 -4.23823 2.58239 0
M  V30 14686 H 1368.3 -4.69104 3.92112 0
M  V30 14687 H 1372.47 -4.98381 4.86404 0
M  V30 14688 H 1370.1 -5.20713 5.53861 0
M  V30 14689 N 1371.68 -0.573274 -1.46804 0
M  V30 14690 C 1373.09 -0.23423 -1.57872 0
M  V30 14691 C 1373.29 1.26342 -1.56971 0
M  V30 14692 O 1372.35 2.04459 -1.48165 0
M  V30 14693 C 1373.66 -0.875097 -2.87685 0
M  V30 14694 C 1375.21 -0.847812 -3.01299 0
M  V30 14695 C 1375.68 -1.46804 -4.33835 0
M  V30 14696 N 1377.18 -1.43196 -4.4051 0
M  V30 14697 C 1377.91 -1.88133 -5.41658 0
M  V30 14698 N 1377.41 -2.41001 -6.49531 0
M  V30 14699 N 1379.2 -1.79107 -5.32801 0
M  V30 14700 H 1371.35 -1.54612 -1.45633 0
M  V30 14701 H 1373.61 -0.645703 -0.694098 0
M  V30 14702 H 1373.32 -1.92826 -2.94127 0
M  V30 14703 H 1373.19 -0.377671 -3.75305 0
M  V30 14704 H 1375.58 0.196707 -2.94444 0
M  V30 14705 H 1375.66 -1.38316 -2.1518 0
M  V30 14706 H 1375.31 -2.51171 -4.41447 0
M  V30 14707 H 1375.24 -0.908 -5.18713 0
M  V30 14708 H 1377.73 -1.04541 -3.63152 0
M  V30 14709 H 1378.04 -2.73172 -7.22908 0
M  V30 14710 H 1376.38 -2.45021 -6.50377 0
M  V30 14711 H 1379.58 -1.37569 -4.47429 0
M  V30 14712 H 1379.75 -2.14445 -6.11488 0
M  V30 14713 N 1373.15 1.5451 -0.310553 0
M  V30 14714 C 1374.1 2.25332 0.576928 0
M  V30 14715 C 1375.1 1.26272 1.12924 0
M  V30 14716 O 1376.3 1.44092 1.07878 0
M  V30 14717 H 1372.68 0.723611 0.204674 0
M  V30 14718 H 1374.65 2.98369 -0.0428167 0
M  V30 14719 C 1373.4 3.01455 1.73263 0
M  V30 14720 H 1372.72 3.7749 1.31688 0
M  V30 14721 H 1374.16 3.54276 2.32947 0
M  V30 14722 C 1372.62 2.08984 2.64248 0
M  V30 14723 O 1373.15 1.66414 3.65608 0
M  V30 14724 N 1371.36 1.74742 2.32193 0
M  V30 14725 H 1370.9 2.09558 1.49811 0
M  V30 14726 H 1370.86 1.13148 2.93334 0
M  V30 14727 N 1374.63 0.0384594 1.57553 0
M  V30 14728 C 1375.58 -0.949625 2.07283 0
M  V30 14729 C 1376.57 -1.27973 0.975284 0
M  V30 14730 O 1377.76 -1.26428 1.23875 0
M  V30 14731 C 1374.89 -2.22887 2.61106 0
M  V30 14732 C 1373.97 -1.92672 3.77807 0
M  V30 14733 N 1374.37 -1.32764 4.88065 0
M  V30 14734 C 1372.66 -2.22612 3.86471 0
M  V30 14735 C 1373.36 -1.19892 5.69211 0
M  V30 14736 N 1372.34 -1.69757 5.16414 0
M  V30 14737 H 1376.14 -0.481562 2.89928 0
M  V30 14738 H 1373.66 -0.166321 1.61546 0
M  V30 14739 H 1375.65 -2.94556 2.9503 0
M  V30 14740 H 1374.31 -2.70311 1.79895 0
M  V30 14741 H 1375.32 -1.00146 5.08125 0
M  V30 14742 H 1372 -2.72645 3.16182 0
M  V30 14743 H 1373.39 -0.734892 6.67869 0
M  V30 14744 N 1376.11 -1.55841 -0.234795 0
M  V30 14745 C 1377.36 -1.77438 -0.959094 0
M  V30 14746 C 1377.67 -0.604621 -1.86021 0
M  V30 14747 O 1378.88 -0.703897 -2.62217 0
M  V30 14748 C 1377.34 -3.14182 -1.7555 0
M  V30 14749 C 1376.94 -4.38843 -0.90118 0
M  V30 14750 C 1378.69 -3.45112 -2.47181 0
M  V30 14751 C 1376.59 -5.66614 -1.69417 0
M  V30 14752 H 1375.52 -0.661503 -0.361843 0
M  V30 14753 H 1378.18 -1.82255 -0.213364 0
M  V30 14754 H 1376.56 -3.03505 -2.54364 0
M  V30 14755 H 1377.73 -4.60541 -0.154515 0
M  V30 14756 H 1376.05 -4.15335 -0.297631 0
M  V30 14757 H 1378.64 -4.37794 -3.06986 0
M  V30 14758 H 1378.99 -2.66995 -3.19405 0
M  V30 14759 H 1379.52 -3.57059 -1.75368 0
M  V30 14760 H 1376.26 -6.47587 -1.01545 0
M  V30 14761 H 1375.78 -5.48998 -2.4158 0
M  V30 14762 H 1377.46 -6.06311 -2.25824 0
M  V30 14763 N 1377.59 0.500963 -1.49426 0
M  V30 14764 C 1378.52 1.61114 -1.69011 0
M  V30 14765 C 1379.5 1.61341 -0.538813 0
M  V30 14766 O 1380.69 1.78081 -0.77466 0
M  V30 14767 C 1377.82 2.99598 -1.75666 0
M  V30 14768 C 1376.77 3.14236 -2.90585 0
M  V30 14769 C 1376.1 4.54071 -2.82354 0
M  V30 14770 C 1377.4 2.94258 -4.3152 0
M  V30 14771 H 1379.09 1.44978 -2.61957 0
M  V30 14772 H 1376.64 0.69603 -1.26061 0
M  V30 14773 H 1378.59 3.77163 -1.87953 0
M  V30 14774 H 1377.31 3.16822 -0.793186 0
M  V30 14775 H 1375.97 2.39096 -2.779 0
M  V30 14776 H 1375.62 4.68172 -1.83914 0
M  V30 14777 H 1375.32 4.64806 -3.59485 0
M  V30 14778 H 1376.84 5.33696 -2.96649 0
M  V30 14779 H 1378.26 3.61592 -4.44886 0
M  V30 14780 H 1376.65 3.16464 -5.09873 0
M  V30 14781 H 1377.72 1.90383 -4.45962 0
M  V30 14782 N 1379.07 1.38501 0.752011 0
M  V30 14783 C 1380.31 1.34795 1.51118 0
M  V30 14784 C 1380.64 -0.0615084 1.94403 0
M  V30 14785 O 1379.9 -1.03892 1.65846 0
M  V30 14786 C 1380.2 2.25111 2.77596 0
M  V30 14787 C 1379.86 3.73052 2.53265 0
M  V30 14788 C 1378.52 4.13365 2.46339 0
M  V30 14789 C 1380.88 4.66692 2.32051 0
M  V30 14790 C 1378.2 5.45406 2.16216 0
M  V30 14791 C 1380.56 5.98992 2.03448 0
M  V30 14792 C 1379.22 6.38388 1.94979 0
M  V30 14793 H 1378.49 0.49325 0.552979 0
M  V30 14794 H 1381.14 1.70872 0.864588 0
M  V30 14795 H 1379.44 1.82096 3.46913 0
M  V30 14796 H 1381.14 2.19547 3.3556 0
M  V30 14797 H 1377.73 3.41091 2.59528 0
M  V30 14798 H 1381.91 4.36392 2.3638 0
M  V30 14799 H 1377.17 5.7487 2.08168 0
M  V30 14800 H 1381.34 6.71091 1.86037 0
M  V30 14801 H 1378.97 7.40625 1.71402 0
M  V30 14802 N 1380.55 -0.980364 1.23396 0
M  V30 14803 C 1381.78 -1.75434 1.09117 0
M  V30 14804 C 1382.18 -1.85739 -0.360243 0
M  V30 14805 O 1381.53 -1.33585 -1.26098 0
M  V30 14806 C 1381.59 -3.19795 1.6423 0
M  V30 14807 C 1381.25 -3.32999 3.12986 0
M  V30 14808 C 1382.25 -3.19321 4.1028 0
M  V30 14809 C 1379.93 -3.57647 3.52695 0
M  V30 14810 C 1381.93 -3.30096 5.45266 0
M  V30 14811 C 1379.62 -3.68061 4.87826 0
M  V30 14812 C 1380.61 -3.54295 5.83921 0
M  V30 14813 O 1380.3 -3.6434 7.16597 0
M  V30 14814 H 1380.03 -0.557382 0.382494 0
M  V30 14815 H 1382.59 -1.24038 1.63718 0
M  V30 14816 H 1380.82 -3.72439 1.04049 0
M  V30 14817 H 1382.51 -3.78954 1.45427 0
M  V30 14818 H 1383.27 -3.00177 3.80945 0
M  V30 14819 H 1379.15 -3.67433 2.78413 0
M  V30 14820 H 1382.7 -3.19268 6.20253 0
M  V30 14821 H 1378.59 -3.86715 5.16838 0
M  V30 14822 H 1379.36 -3.81135 7.24347 0
M  V30 14823 N 1382.02 -1.04567 -1.17913 0
M  V30 14824 C 1383.27 -0.752023 -1.88018 0
M  V30 14825 C 1383.6 0.720567 -1.8066 0
M  V30 14826 O 1382.85 1.54207 -1.20493 0
M  V30 14827 C 1383.15 -1.1699 -3.3771 0
M  V30 14828 C 1382.82 -2.64363 -3.65271 0
M  V30 14829 C 1381.48 -3.04622 -3.72503 0
M  V30 14830 C 1383.83 -3.59626 -3.77251 0
M  V30 14831 C 1381.16 -4.39023 -3.89199 0
M  V30 14832 C 1383.51 -4.93752 -3.95465 0
M  V30 14833 C 1382.18 -5.33675 -4.00933 0
M  V30 14834 H 1381.45 -0.275185 -0.688008 0
M  V30 14835 H 1384.09 -1.31161 -1.39532 0
M  V30 14836 H 1382.4 -0.529202 -3.8821 0
M  V30 14837 H 1384.1 -0.919981 -3.90304 0
M  V30 14838 H 1380.69 -2.32182 -3.60263 0
M  V30 14839 H 1384.87 -3.29665 -3.70992 0
M  V30 14840 H 1380.13 -4.69466 -3.91679 0
M  V30 14841 H 1384.3 -5.67467 -4.03676 0
M  V30 14842 H 1381.93 -6.37825 -4.13623 0
M  V30 14843 N 1383.5 1.34231 -0.825823 0
M  V30 14844 C 1384.78 1.92662 -0.337743 0
M  V30 14845 C 1385.16 1.75358 1.17529 0
M  V30 14846 O 1384.51 1.13405 1.98372 0
M  V30 14847 C 1384.72 3.40394 -0.770269 0
M  V30 14848 C 1386.06 4.17546 -0.770767 0
M  V30 14849 O 1387.09 3.4899 -0.713035 0
M  V30 14850 O 1385.95 5.39903 -0.846602 0
M  V30 14851 H 1383.04 0.821768 -0.0928741 0
M  V30 14852 H 1385.59 1.43187 -0.910807 0
M  V30 14853 H 1384.36 3.46802 -1.81228 0
M  V30 14854 H 1383.98 3.97223 -0.17306 0
M  V30 14855 N 1384.98 0.581051 1.46498 0
M  V30 14856 C 1386.23 0.0637189 2.01599 0
M  V30 14857 C 1386.54 -1.30353 1.45834 0
M  V30 14858 O 1387.75 -1.91211 1.92745 0
M  V30 14859 C 1386.2 0.0633254 3.59844 0
M  V30 14860 C 1385.81 1.42879 4.24605 0
M  V30 14861 C 1387.56 -0.400149 4.2261 0
M  V30 14862 C 1385.46 1.38621 5.74924 0
M  V30 14863 H 1384.39 0.0200512 0.753733 0
M  V30 14864 H 1387.04 0.732451 1.68248 0
M  V30 14865 H 1385.43 -0.671538 3.90264 0
M  V30 14866 H 1386.6 2.18325 4.05796 0
M  V30 14867 H 1384.91 1.83215 3.73927 0
M  V30 14868 H 1387.51 -0.450771 5.32797 0
M  V30 14869 H 1387.85 -1.41733 3.9143 0
M  V30 14870 H 1388.39 0.280598 3.96809 0
M  V30 14871 H 1385.13 2.38014 6.10761 0
M  V30 14872 H 1384.65 0.673926 5.96002 0
M  V30 14873 H 1386.33 1.09841 6.37608 0
M  V30 14874 N 1386.46 -1.54343 0.318742 0
M  V30 14875 C 1387.7 -2.00777 -0.285699 0
M  V30 14876 C 1388.04 -1.20664 -1.52164 0
M  V30 14877 O 1387.31 -0.287674 -1.92361 0
M  V30 14878 C 1387.59 -3.54641 -0.624649 0
M  V30 14879 C 1387.45 -4.45483 0.621663 0
M  V30 14880 C 1388.77 -4.15729 -1.4442 0
M  V30 14881 H 1385.89 -0.729856 -0.102367 0
M  V30 14882 H 1388.53 -1.84968 0.434364 0
M  V30 14883 H 1386.68 -3.68243 -1.23811 0
M  V30 14884 H 1388.35 -4.43759 1.25998 0
M  V30 14885 H 1386.59 -4.15356 1.25148 0
M  V30 14886 H 1387.26 -5.50951 0.340106 0
M  V30 14887 H 1389.74 -4.05672 -0.925699 0
M  V30 14888 H 1388.62 -5.23509 -1.65013 0
M  V30 14889 H 1388.88 -3.68743 -2.43887 0
M  V30 14890 N 1387.94 -0.0468143 -1.5753 0
M  V30 14891 C 1389.18 0.627939 -1.92518 0
M  V30 14892 C 1389.51 1.71107 -0.924801 0
M  V30 14893 O 1388.77 1.95597 0.0635812 0
M  V30 14894 C 1389.06 1.26669 -3.342 0
M  V30 14895 C 1388.73 0.312184 -4.49818 0
M  V30 14896 C 1387.39 0.0495202 -4.81175 0
M  V30 14897 C 1389.74 -0.342228 -5.20075 0
M  V30 14898 C 1387.07 -0.875064 -5.80137 0
M  V30 14899 C 1389.42 -1.25498 -6.20027 0
M  V30 14900 C 1388.09 -1.52636 -6.49814 0
M  V30 14901 H 1387.36 0.229779 -0.704473 0
M  V30 14902 H 1390.01 -0.112363 -1.9117 0
M  V30 14903 H 1388.31 2.08215 -3.31894 0
M  V30 14904 H 1390.01 1.79563 -3.5855 0
M  V30 14905 H 1386.6 0.527088 -4.25347 0
M  V30 14906 H 1390.78 -0.152384 -4.96066 0
M  V30 14907 H 1386.04 -1.09284 -6.01554 0
M  V30 14908 H 1390.21 -1.76815 -6.7358 0
M  V30 14909 H 1387.84 -2.24443 -7.26312 0
M  V30 14910 N 1389.41 1.55964 0.226527 0
M  V30 14911 C 1390.64 1.82823 0.968673 0
M  V30 14912 C 1391.06 0.625281 1.78145 0
M  V30 14913 O 1390.41 -0.40617 1.77923 0
M  V30 14914 C 1390.47 3.08143 1.89024 0
M  V30 14915 O 1390.19 4.23797 1.11032 0
M  V30 14916 C 1391.69 3.47954 2.74669 0
M  V30 14917 H 1388.91 0.607876 0.284126 0
M  V30 14918 H 1391.45 2.03048 0.243258 0
M  V30 14919 H 1389.61 2.89908 2.56967 0
M  V30 14920 H 1390.02 4.94957 1.73546 0
M  V30 14921 H 1391.49 4.38691 3.35044 0
M  V30 14922 H 1391.97 2.69476 3.46813 0
M  V30 14923 H 1392.58 3.6861 2.12147 0
M  V30 14924 N 1390.89 -0.493031 1.4969 0
M  V30 14925 C 1392.12 -1.27046 1.633 0
M  V30 14926 C 1392.54 -1.86278 0.307534 0
M  V30 14927 O 1391.89 -1.68208 -0.707968 0
M  V30 14928 C 1391.94 -2.39501 2.70779 0
M  V30 14929 O 1391.66 -1.82702 3.98185 0
M  V30 14930 C 1393.17 -3.30744 2.95166 0
M  V30 14931 H 1390.39 -0.385042 0.54953 0
M  V30 14932 H 1392.93 -0.590998 1.95774 0
M  V30 14933 H 1391.08 -3.03263 2.41061 0
M  V30 14934 H 1391.5 -2.56588 4.57452 0
M  V30 14935 H 1392.97 -4.05912 3.74085 0
M  V30 14936 H 1393.45 -3.88217 2.05387 0
M  V30 14937 H 1394.06 -2.72741 3.26332 0
M  V30 14938 N 1392.37 -1.38898 -0.744656 0
M  V30 14939 C 1393.62 -1.34909 -1.49941 0
M  V30 14940 C 1393.93 0.0553979 -1.95522 0
M  V30 14941 O 1395.14 0.21785 -2.70625 0
M  V30 14942 C 1393.59 -2.36954 -2.70889 0
M  V30 14943 C 1393.2 -3.83069 -2.32298 0
M  V30 14944 C 1394.95 -2.42024 -3.48747 0
M  V30 14945 C 1392.85 -4.76777 -3.4991 0
M  V30 14946 H 1391.78 -0.501512 -0.563029 0
M  V30 14947 H 1394.43 -1.64497 -0.813201 0
M  V30 14948 H 1392.82 -2.00421 -3.41537 0
M  V30 14949 H 1393.99 -4.28588 -1.69259 0
M  V30 14950 H 1392.31 -3.81202 -1.67554 0
M  V30 14951 H 1394.9 -3.0923 -4.36212 0
M  V30 14952 H 1395.25 -1.44184 -3.90534 0
M  V30 14953 H 1395.78 -2.774 -2.85121 0
M  V30 14954 H 1392.52 -5.75844 -3.13183 0
M  V30 14955 H 1392.04 -4.35944 -4.11962 0
M  V30 14956 H 1393.72 -4.95219 -4.16374 0
M  V30 14957 N 1393.85 0.973806 -1.23914 0
M  V30 14958 C 1395.1 1.71598 -1.07519 0
M  V30 14959 C 1395.42 1.90613 0.386926 0
M  V30 14960 O 1394.68 1.46056 1.30254 0
M  V30 14961 C 1394.98 3.11441 -1.75326 0
M  V30 14962 C 1394.64 3.12286 -3.25251 0
M  V30 14963 C 1393.31 3.12224 -3.66155 0
M  V30 14964 C 1395.66 3.0709 -4.21124 0
M  V30 14965 C 1392.99 3.0469 -5.01379 0
M  V30 14966 C 1395.34 3.01098 -5.56348 0
M  V30 14967 C 1394 2.99362 -5.96606 0
M  V30 14968 H 1393.27 0.627922 -0.39344 0
M  V30 14969 H 1395.92 1.13912 -1.53936 0
M  V30 14970 H 1394.22 3.72555 -1.21286 0
M  V30 14971 H 1395.92 3.67649 -1.60111 0
M  V30 14972 H 1392.51 3.13096 -2.92693 0
M  V30 14973 H 1396.69 3.06272 -3.90527 0
M  V30 14974 H 1391.95 3.01703 -5.31776 0
M  V30 14975 H 1396.12 2.96036 -6.30346 0
M  V30 14976 H 1393.75 2.93279 -7.0135 0
M  V30 14977 N 1395.33 1.05191 1.17357 0
M  V30 14978 C 1396.55 0.782373 1.91537 0
M  V30 14979 C 1396.97 -0.661935 1.76816 0
M  V30 14980 O 1396.33 -1.45221 1.10531 0
M  V30 14981 C 1396.38 1.15357 3.426 0
M  V30 14982 O 1396.1 2.54119 3.56869 0
M  V30 14983 C 1397.6 0.910167 4.33856 0
M  V30 14984 H 1394.82 0.284461 0.607719 0
M  V30 14985 H 1397.36 1.40259 1.48821 0
M  V30 14986 H 1395.52 0.578107 3.83062 0
M  V30 14987 H 1395.93 2.68668 4.50464 0
M  V30 14988 H 1397.41 1.21964 5.38358 0
M  V30 14989 H 1397.88 -0.154624 4.38928 0
M  V30 14990 H 1398.49 1.46947 3.99107 0
M  V30 14991 N 1396.8 -1.33791 0.83293 0
M  V30 14992 C 1398.05 -1.97233 0.422127 0
M  V30 14993 C 1398.37 -1.66738 -1.02264 0
M  V30 14994 O 1399.57 -2.23747 -1.53783 0
M  V30 14995 C 1398.03 -3.5295 0.703872 0
M  V30 14996 C 1397.64 -3.92329 2.16292 0
M  V30 14997 C 1399.38 -4.22973 0.359727 0
M  V30 14998 C 1397.29 -5.40999 2.38903 0
M  V30 14999 H 1396.22 -0.738082 0.154112 0
M  V30 15000 H 1398.87 -1.52494 1.02068 0
M  V30 15001 H 1397.25 -3.95985 0.0350184 0
M  V30 15002 H 1398.42 -3.6037 2.87176 0
M  V30 15003 H 1396.74 -3.35271 2.46947 0
M  V30 15004 H 1399.34 -5.32297 0.506366 0
M  V30 15005 H 1399.68 -4.10428 -0.696743 0
M  V30 15006 H 1400.21 -3.85449 0.983568 0
M  V30 15007 H 1396.95 -5.58541 3.43093 0
M  V30 15008 H 1396.47 -5.74438 1.72573 0
M  V30 15009 H 1398.15 -6.07809 2.2176 0
M  V30 15010 N 1398.28 -0.588812 -1.46187 0
M  V30 15011 C 1399.19 0.143253 -2.34162 0
M  V30 15012 C 1400.21 0.879779 -1.5012 0
M  V30 15013 O 1401.38 0.841592 -1.82973 0
M  V30 15014 C 1398.45 1.14017 -3.27416 0
M  V30 15015 C 1397.51 0.407651 -4.2736 0
M  V30 15016 C 1396.74 1.35708 -5.16158 0
M  V30 15017 O 1396.97 2.59394 -5.08007 0
M  V30 15018 O 1395.9 0.864343 -5.95662 0
M  V30 15019 H 1399.73 -0.579228 -2.98125 0
M  V30 15020 H 1397.31 -0.349174 -1.45262 0
M  V30 15021 H 1399.19 1.71484 -3.8493 0
M  V30 15022 H 1397.87 1.84401 -2.66041 0
M  V30 15023 H 1396.78 -0.209011 -3.73516 0
M  V30 15024 H 1398.11 -0.255334 -4.91537 0
M  V30 15025 N 1399.76 1.54172 -0.326923 0
M  V30 15026 C 1401.01 1.99809 0.275554 0
M  V30 15027 C 1401.32 1.21886 1.52981 0
M  V30 15028 O 1402.53 1.57917 2.20849 0
M  V30 15029 C 1400.98 3.55802 0.541543 0
M  V30 15030 C 1400.59 4.42563 -0.695853 0
M  V30 15031 C 1402.34 4.09898 1.10379 0
M  V30 15032 C 1400.24 5.90035 -0.401581 0
M  V30 15033 H 1399.17 0.746406 0.106742 0
M  V30 15034 H 1401.82 1.78155 -0.439669 0
M  V30 15035 H 1400.21 3.73457 1.31704 0
M  V30 15036 H 1401.38 4.36684 -1.47118 0
M  V30 15037 H 1399.7 3.99373 -1.17855 0
M  V30 15038 H 1402.29 5.17672 1.33863 0
M  V30 15039 H 1402.64 3.62089 2.0542 0
M  V30 15040 H 1403.17 3.9589 0.389395 0
M  V30 15041 H 1399.91 6.42046 -1.32126 0
M  V30 15042 H 1399.43 5.98858 0.335977 0
M  V30 15043 H 1401.11 6.46999 -0.0126539 0
M  V30 15044 N 1401.24 0.0551678 1.57503 0
M  V30 15045 C 1402.2 -0.903065 2.10659 0
M  V30 15046 C 1403.2 -1.23728 1.02703 0
M  V30 15047 O 1404.39 -1.17331 1.2876 0
M  V30 15048 C 1401.52 -2.21171 2.59415 0
M  V30 15049 H 1402.72 -0.442197 2.96622 0
M  V30 15050 H 1400.27 -0.193297 1.551 0
M  V30 15051 H 1401 -2.71831 1.76858 0
M  V30 15052 H 1400.79 -1.98216 3.38309 0
M  V30 15053 H 1402.28 -2.89802 3.00674 0
M  V30 15054 N 1402.72 -1.56081 -0.218252 0
M  V30 15055 C 1403.65 -1.95706 -1.27364 0
M  V30 15056 C 1404.63 -0.825731 -1.48713 0
M  V30 15057 O 1405.81 -1.08829 -1.60841 0
M  V30 15058 C 1402.94 -2.2766 -2.62275 0
M  V30 15059 C 1401.9 -3.43314 -2.55576 0
M  V30 15060 C 1401.22 -3.60883 -3.94547 0
M  V30 15061 C 1402.52 -4.7819 -2.10075 0
M  V30 15062 H 1404.22 -2.84113 -0.944459 0
M  V30 15063 H 1401.76 -1.36693 -0.452882 0
M  V30 15064 H 1403.72 -2.53973 -3.36268 0
M  V30 15065 H 1402.44 -1.3611 -2.96887 0
M  V30 15066 H 1401.1 -3.17056 -1.8404 0
M  V30 15067 H 1400.75 -2.66703 -4.26472 0
M  V30 15068 H 1400.45 -4.38674 -3.90946 0
M  V30 15069 H 1401.97 -3.89547 -4.70197 0
M  V30 15070 H 1403.38 -5.03686 -2.73813 0
M  V30 15071 H 1401.78 -5.59287 -2.17527 0
M  V30 15072 H 1402.85 -4.73325 -1.05314 0
M  V30 15073 N 1404.2 0.485086 -1.49949 0
M  V30 15074 C 1405.14 1.5848 -1.67788 0
M  V30 15075 C 1406.11 1.57776 -0.519216 0
M  V30 15076 O 1407.3 1.75521 -0.748141 0
M  V30 15077 C 1404.44 2.9654 -1.76516 0
M  V30 15078 C 1403.55 3.07139 -3.03792 0
M  V30 15079 C 1402.69 4.36029 -3.03401 0
M  V30 15080 C 1401.72 4.40318 -4.2519 0
M  V30 15081 N 1400.86 5.60659 -4.22618 0
M  V30 15082 H 1405.7 1.42575 -2.6168 0
M  V30 15083 H 1403.24 0.693426 -1.29731 0
M  V30 15084 H 1405.2 3.76583 -1.79557 0
M  V30 15085 H 1403.83 3.11112 -0.860764 0
M  V30 15086 H 1402.88 2.20057 -3.10289 0
M  V30 15087 H 1404.19 3.06167 -3.9378 0
M  V30 15088 H 1403.34 5.24407 -3.05094 0
M  V30 15089 H 1402.08 4.39588 -2.11219 0
M  V30 15090 H 1401.09 3.50339 -4.23725 0
M  V30 15091 H 1402.31 4.38461 -5.18583 0
M  V30 15092 H 1400.26 5.6503 -3.33282 0
M  V30 15093 H 1400.18 5.61371 -5.06359 0
M  V30 15094 H 1401.44 6.51201 -4.28436 0
M  V30 15095 N 1405.67 1.39291 0.737279 0
M  V30 15096 C 1406.92 1.35702 1.49224 0
M  V30 15097 C 1407.24 -0.0450282 1.95548 0
M  V30 15098 O 1408.44 -0.203495 2.70736 0
M  V30 15099 C 1406.9 2.38387 2.69629 0
M  V30 15100 C 1406.51 3.84295 2.30263 0
M  V30 15101 C 1408.25 2.4387 3.47459 0
M  V30 15102 C 1406.16 4.78626 3.47377 0
M  V30 15103 H 1405.09 0.50449 0.560362 0
M  V30 15104 H 1407.74 1.64926 0.804466 0
M  V30 15105 H 1406.12 2.0223 3.40469 0
M  V30 15106 H 1407.29 4.2948 1.66984 0
M  V30 15107 H 1405.61 3.82085 1.6553 0
M  V30 15108 H 1408.21 3.11539 4.34566 0
M  V30 15109 H 1408.55 1.46253 3.89764 0
M  V30 15110 H 1409.08 2.78908 2.83646 0
M  V30 15111 H 1405.82 5.77497 3.10124 0
M  V30 15112 H 1405.34 4.38123 4.09645 0
M  V30 15113 H 1407.02 4.9742 4.13742 0
M  V30 15114 N 1407.15 -0.967221 1.24429 0
M  V30 15115 C 1408.08 -2.07966 1.06172 0
M  V30 15116 C 1409.06 -1.70081 -0.0254566 0
M  V30 15117 O 1410.25 -1.93682 0.141705 0
M  V30 15118 C 1407.38 -3.4085 0.666251 0
M  V30 15119 C 1406.33 -3.92692 1.70225 0
M  V30 15120 C 1405.66 -5.21925 1.16183 0
M  V30 15121 C 1406.96 -4.20478 3.09831 0
M  V30 15122 H 1408.65 -2.23497 1.99222 0
M  V30 15123 H 1406.2 -1.07398 0.959255 0
M  V30 15124 H 1408.15 -4.1811 0.52552 0
M  V30 15125 H 1406.87 -3.2522 -0.299939 0
M  V30 15126 H 1405.53 -3.17588 1.83121 0
M  V30 15127 H 1405.18 -5.02655 0.186237 0
M  V30 15128 H 1404.88 -5.57579 1.85416 0
M  V30 15129 H 1406.41 -6.01795 1.03323 0
M  V30 15130 H 1407.82 -4.88442 3.00162 0
M  V30 15131 H 1406.22 -4.67362 3.7642 0
M  V30 15132 H 1407.29 -3.27235 3.57834 0
M  V30 15133 N 1408.63 -1.05812 -1.16797 0
M  V30 15134 C 1409.88 -0.770398 -1.8684 0
M  V30 15135 C 1410.2 0.704986 -1.8181 0
M  V30 15136 O 1409.47 1.50977 -1.24832 0
M  V30 15137 H 1408.05 -0.281989 -0.691731 0
M  V30 15138 H 1410.71 -1.33859 -1.41661 0
M  V30 15139 H 1409.81 -1.09094 -2.92412 0
M  V30 15140 N 1410.11 1.33347 -0.840014 0
M  V30 15141 C 1411.06 2.31113 -0.262617 0
M  V30 15142 C 1412.05 1.58189 0.606023 0
M  V30 15143 O 1413.26 1.73047 0.495457 0
M  V30 15144 H 1409.63 0.74908 -0.0662003 0
M  V30 15145 H 1411.6 2.77318 -1.10169 0
M  V30 15146 C 1410.35 3.43377 0.54658 0
M  V30 15147 H 1409.67 3.99642 -0.112514 0
M  V30 15148 H 1411.11 4.13978 0.91641 0
M  V30 15149 C 1409.57 2.89333 1.72592 0
M  V30 15150 O 1410.1 2.85615 2.82466 0
M  V30 15151 N 1408.31 2.45926 1.54819 0
M  V30 15152 H 1407.86 2.49149 0.654404 0
M  V30 15153 H 1407.81 2.10119 2.33875 0
M  V30 15154 N 1411.59 0.596556 1.45873 0
M  V30 15155 C 1412.55 -0.118666 2.28893 0
M  V30 15156 C 1413.55 -0.805668 1.3916 0
M  V30 15157 O 1414.74 -0.655511 1.61396 0
M  V30 15158 C 1411.87 -1.17789 3.19904 0
M  V30 15159 H 1413.06 0.611093 2.93608 0
M  V30 15160 H 1410.62 0.355115 1.52212 0
M  V30 15161 H 1411.35 -1.93878 2.59965 0
M  V30 15162 H 1411.14 -0.689616 3.85988 0
M  V30 15163 H 1412.63 -1.67912 3.82355 0
M  V30 15164 N 1413.06 -1.53996 0.335095 0
M  V30 15165 C 1414.34 -1.92984 -0.318848 0
M  V30 15166 C 1414.72 -1.26585 -1.68936 0
M  V30 15167 O 1414.07 -0.413702 -2.24724 0
M  V30 15168 C 1414.28 -3.46705 -0.399568 0
M  V30 15169 C 1415.63 -4.19527 -0.654411 0
M  V30 15170 O 1416.65 -3.52923 -0.482026 0
M  V30 15171 O 1415.51 -5.37499 -0.987756 0
M  V30 15172 H 1412.6 -0.806202 -0.1843 0
M  V30 15173 H 1415.15 -1.6526 0.385653 0
M  V30 15174 H 1413.92 -3.87235 0.56253 0
M  V30 15175 H 1413.54 -3.8057 -1.15119 0
M  V30 15176 N 1414.54 -0.0635198 -1.57472 0
M  V30 15177 C 1415.77 0.615841 -1.97208 0
M  V30 15178 C 1416.18 1.64181 -0.940281 0
M  V30 15179 O 1415.52 1.83515 0.0824321 0
M  V30 15180 C 1415.58 1.34908 -3.33227 0
M  V30 15181 C 1415.25 0.477535 -4.54498 0
M  V30 15182 C 1416.25 -0.261479 -5.19242 0
M  V30 15183 C 1413.93 0.404839 -5.00666 0
M  V30 15184 C 1415.92 -1.0615 -6.28499 0
M  V30 15185 C 1413.61 -0.398859 -6.09797 0
M  V30 15186 C 1414.61 -1.1307 -6.73576 0
M  V30 15187 O 1414.3 -1.92116 -7.80607 0
M  V30 15188 H 1414.03 0.172273 -0.65368 0
M  V30 15189 H 1416.58 -0.129963 -2.04988 0
M  V30 15190 H 1414.81 2.14078 -3.22036 0
M  V30 15191 H 1416.5 1.91988 -3.57625 0
M  V30 15192 H 1417.27 -0.214859 -4.84524 0
M  V30 15193 H 1413.15 0.964087 -4.50806 0
M  V30 15194 H 1416.69 -1.63324 -6.78212 0
M  V30 15195 H 1412.59 -0.447073 -6.4395 0
M  V30 15196 H 1413.36 -1.84459 -7.97444 0
M  V30 15197 N 1416.02 1.56195 0.209972 0
M  V30 15198 C 1417.27 1.80011 0.93402 0
M  V30 15199 C 1417.6 0.635109 1.83521 0
M  V30 15200 O 1416.87 -0.365099 1.91043 0
M  V30 15201 C 1417.16 3.13989 1.76304 0
M  V30 15202 C 1417.01 4.40956 0.887567 0
M  V30 15203 C 1418.33 3.44514 2.73857 0
M  V30 15204 H 1415.45 0.654859 0.338125 0
M  V30 15205 H 1418.09 1.88921 0.20221 0
M  V30 15206 H 1416.24 3.06524 2.38695 0
M  V30 15207 H 1417.91 4.60452 0.279507 0
M  V30 15208 H 1416.15 4.33368 0.193533 0
M  V30 15209 H 1416.83 5.31164 1.50228 0
M  V30 15210 H 1419.3 3.52182 2.216 0
M  V30 15211 H 1418.18 4.39407 3.28957 0
M  V30 15212 H 1418.44 2.6726 3.52171 0
M  V30 15213 N 1417.5 -0.477127 1.50204 0
M  V30 15214 C 1418.74 -1.22964 1.60891 0
M  V30 15215 C 1419.07 -1.9207 0.306464 0
M  V30 15216 O 1418.33 -1.82472 -0.707272 0
M  V30 15217 C 1418.63 -2.30126 2.73453 0
M  V30 15218 C 1418.29 -1.78314 4.14143 0
M  V30 15219 C 1416.95 -1.63904 4.52425 0
M  V30 15220 C 1419.31 -1.3981 5.02098 0
M  V30 15221 C 1416.63 -1.09404 5.76409 0
M  V30 15222 C 1418.99 -0.867538 6.26623 0
M  V30 15223 C 1417.65 -0.710022 6.63713 0
M  V30 15224 H 1416.92 -0.449959 0.588743 0
M  V30 15225 H 1419.57 -0.526592 1.84118 0
M  V30 15226 H 1417.87 -3.06315 2.44291 0
M  V30 15227 H 1419.57 -2.88099 2.78927 0
M  V30 15228 H 1416.16 -1.90496 3.83939 0
M  V30 15229 H 1420.34 -1.49779 4.73159 0
M  V30 15230 H 1415.6 -0.959413 6.03825 0
M  V30 15231 H 1419.77 -0.560496 6.94141 0
M  V30 15232 H 1417.4 -0.285555 7.59663 0
M  V30 15233 N 1418.98 -1.3968 -0.729882 0
M  V30 15234 C 1420.2 -1.40467 -1.5191 0
M  V30 15235 C 1420.62 -0.000529943 -1.888 0
M  V30 15236 O 1419.98 0.972072 -1.54457 0
M  V30 15237 C 1420.03 -2.2823 -2.80345 0
M  V30 15238 O 1419.75 -3.63176 -2.4502 0
M  V30 15239 C 1421.25 -2.37455 -3.74339 0
M  V30 15240 H 1418.47 -0.479604 -0.469277 0
M  V30 15241 H 1421.01 -1.83558 -0.901484 0
M  V30 15242 H 1419.17 -1.88538 -3.38426 0
M  V30 15243 H 1419.58 -4.0964 -3.2756 0
M  V30 15244 H 1421.06 -3.031 -4.6134 0
M  V30 15245 H 1421.53 -1.39525 -4.16449 0
M  V30 15246 H 1422.14 -2.77638 -3.22176 0
M  V30 15247 N 1420.45 0.960609 -1.2494 0
M  V30 15248 C 1421.68 1.7446 -1.12153 0
M  V30 15249 C 1422.1 1.85335 0.321315 0
M  V30 15250 O 1421.46 1.32944 1.23271 0
M  V30 15251 C 1421.51 3.13945 -1.774 0
M  V30 15252 O 1420.61 3.9882 -1.04958 0
M  V30 15253 H 1419.96 0.536007 -0.391909 0
M  V30 15254 H 1422.49 1.2045 -1.65388 0
M  V30 15255 H 1422.5 3.64434 -1.83444 0
M  V30 15256 H 1421.17 3.05346 -2.82377 0
M  V30 15257 H 1419.75 3.57293 -1.06752 0
M  V30 15258 N 1421.93 1.0643 1.16234 0
M  V30 15259 C 1423.18 0.77689 1.86138 0
M  V30 15260 C 1423.49 -0.699301 1.82672 0
M  V30 15261 O 1424.7 -1.10113 2.48168 0
M  V30 15262 C 1423.16 1.3396 3.3404 0
M  V30 15263 C 1422.76 2.84613 3.45976 0
M  V30 15264 C 1424.51 1.12979 4.09189 0
M  V30 15265 C 1422.42 3.34122 4.87972 0
M  V30 15266 H 1421.35 0.286936 0.697269 0
M  V30 15267 H 1424 1.28318 1.31174 0
M  V30 15268 H 1422.38 0.761073 3.88618 0
M  V30 15269 H 1423.55 3.48429 3.01552 0
M  V30 15270 H 1421.87 3.04277 2.84262 0
M  V30 15271 H 1424.46 1.47456 5.13966 0
M  V30 15272 H 1424.81 0.0682424 4.16244 0
M  V30 15273 H 1425.34 1.67418 3.60855 0
M  V30 15274 H 1422.08 4.39761 4.86097 0
M  V30 15275 H 1421.6 2.75055 5.33015 0
M  V30 15276 H 1423.28 3.29529 5.56794 0
M  V30 15277 N 1423.41 -1.329 0.847073 0
M  V30 15278 C 1424.66 -1.9751 0.446755 0
M  V30 15279 C 1424.99 -1.67069 -0.995905 0
M  V30 15280 O 1424.24 -0.947232 -1.71248 0
M  V30 15281 C 1424.54 -3.51913 0.623845 0
M  V30 15282 C 1424.21 -4.02324 2.03583 0
M  V30 15283 C 1422.87 -4.15802 2.42203 0
M  V30 15284 C 1425.22 -4.29147 2.95774 0
M  V30 15285 C 1422.55 -4.53441 3.72301 0
M  V30 15286 C 1424.9 -4.68242 4.25362 0
M  V30 15287 C 1423.56 -4.79925 4.63927 0
M  V30 15288 H 1422.83 -0.722742 0.163479 0
M  V30 15289 H 1425.48 -1.58435 1.07567 0
M  V30 15290 H 1423.79 -3.917 -0.0883447 0
M  V30 15291 H 1425.48 -3.99919 0.294268 0
M  V30 15292 H 1422.07 -3.92314 1.72591 0
M  V30 15293 H 1426.26 -4.1825 2.67171 0
M  V30 15294 H 1421.51 -4.60681 4.01974 0
M  V30 15295 H 1425.69 -4.87952 4.96866 0
M  V30 15296 H 1423.31 -5.08847 5.64782 0
M  V30 15297 N 1424.89 -0.604284 -1.45555 0
M  V30 15298 C 1426.12 -0.104452 -2.06636 0
M  V30 15299 C 1426.53 1.20976 -1.44949 0
M  V30 15300 O 1425.89 1.73616 -0.562468 0
M  V30 15301 C 1425.94 0.0451646 -3.61472 0
M  V30 15302 O 1425.66 -1.21705 -4.20856 0
M  V30 15303 C 1427.16 0.57684 -4.39531 0
M  V30 15304 H 1424.38 -0.067326 -0.667614 0
M  V30 15305 H 1426.93 -0.831079 -1.86851 0
M  V30 15306 H 1425.08 0.722104 -3.80611 0
M  V30 15307 H 1425.49 -1.04462 -5.13992 0
M  V30 15308 H 1426.97 0.630627 -5.48386 0
M  V30 15309 H 1427.45 1.59842 -4.09081 0
M  V30 15310 H 1428.05 -0.0659444 -4.25249 0
M  V30 15311 N 1426.37 1.53816 -0.343257 0
M  V30 15312 C 1427.3 2.27951 0.506005 0
M  V30 15313 C 1428.28 1.29502 1.10287 0
M  V30 15314 O 1429.46 1.58344 1.12432 0
M  V30 15315 C 1426.59 3.0521 1.65723 0
M  V30 15316 C 1425.55 4.11161 1.18871 0
M  V30 15317 C 1424.87 4.76373 2.42843 0
M  V30 15318 C 1426.17 5.21498 0.289403 0
M  V30 15319 H 1427.87 2.99189 -0.112435 0
M  V30 15320 H 1425.41 1.43893 -0.055516 0
M  V30 15321 H 1427.37 3.55811 2.2578 0
M  V30 15322 H 1426.09 2.31624 2.30256 0
M  V30 15323 H 1424.75 3.61473 0.610962 0
M  V30 15324 H 1424.4 3.99381 3.05784 0
M  V30 15325 H 1424.1 5.47955 2.12177 0
M  V30 15326 H 1425.62 5.29758 3.03627 0
M  V30 15327 H 1427.03 5.67736 0.796808 0
M  V30 15328 H 1425.43 6.00054 0.0746366 0
M  V30 15329 H 1426.5 4.80185 -0.674543 0
M  V30 15330 N 1427.84 0.0718701 1.57436 0
M  V30 15331 C 1428.75 -0.910077 2.16229 0
M  V30 15332 C 1429.77 -1.32699 1.12548 0
M  V30 15333 O 1430.95 -1.39967 1.44814 0
M  V30 15334 C 1428.01 -2.15942 2.71238 0
M  V30 15335 C 1427.07 -1.79891 3.89792 0
M  V30 15336 C 1426.31 -2.9887 4.42168 0
M  V30 15337 O 1426.53 -4.1289 3.93545 0
M  V30 15338 O 1425.46 -2.78682 5.33498 0
M  V30 15339 H 1429.29 -0.439969 3.00496 0
M  V30 15340 H 1426.87 -0.151204 1.48633 0
M  V30 15341 H 1428.76 -2.89204 3.06494 0
M  V30 15342 H 1427.43 -2.62051 1.90029 0
M  V30 15343 H 1426.34 -1.03881 3.59388 0
M  V30 15344 H 1427.67 -1.38566 4.72293 0
M  V30 15345 N 1429.32 -1.56304 -0.201686 0
M  V30 15346 C 1430.57 -1.79433 -0.921241 0
M  V30 15347 C 1430.88 -0.643943 -1.84696 0
M  V30 15348 O 1432.09 -0.759359 -2.60665 0
M  V30 15349 C 1430.55 -3.17835 -1.68846 0
M  V30 15350 C 1430.15 -4.40655 -0.807892 0
M  V30 15351 C 1431.9 -3.50277 -2.39805 0
M  V30 15352 C 1429.81 -5.7008 -1.5736 0
M  V30 15353 H 1428.74 -0.669029 -0.34773 0
M  V30 15354 H 1431.39 -1.82667 -0.174657 0
M  V30 15355 H 1429.77 -3.08832 -2.47869 0
M  V30 15356 H 1430.94 -4.60765 -0.0567923 0
M  V30 15357 H 1429.26 -4.15873 -0.209465 0
M  V30 15358 H 1431.85 -4.44207 -2.97631 0
M  V30 15359 H 1432.2 -2.7371 -3.1367 0
M  V30 15360 H 1432.73 -3.60698 -1.67754 0
M  V30 15361 H 1429.47 -6.49595 -0.877855 0
M  V30 15362 H 1428.99 -5.53999 -2.2988 0
M  V30 15363 H 1430.67 -6.10964 -2.12912 0
M  V30 15364 N 1430.8 0.469154 -1.50455 0
M  V30 15365 C 1432.05 1.21788 -1.60781 0
M  V30 15366 C 1432.36 1.93054 -0.314576 0
M  V30 15367 O 1433.57 2.69873 -0.296773 0
M  V30 15368 C 1432.02 2.21305 -2.83817 0
M  V30 15369 C 1431.63 1.55833 -4.20024 0
M  V30 15370 C 1433.38 2.96808 -3.03489 0
M  V30 15371 C 1431.28 2.53648 -5.34244 0
M  V30 15372 H 1430.21 0.45827 -0.598752 0
M  V30 15373 H 1432.86 0.488159 -1.76888 0
M  V30 15374 H 1431.25 2.97577 -2.61273 0
M  V30 15375 H 1432.42 0.853371 -4.52829 0
M  V30 15376 H 1430.74 0.926046 -4.05972 0
M  V30 15377 H 1433.33 3.70017 -3.85994 0
M  V30 15378 H 1433.68 3.56307 -2.15293 0
M  V30 15379 H 1434.21 2.27648 -3.26223 0
M  V30 15380 H 1430.95 1.98885 -6.246 0
M  V30 15381 H 1430.47 3.22291 -5.05854 0
M  V30 15382 H 1432.15 3.15438 -5.64897 0
M  V30 15383 N 1432.28 1.40065 0.722464 0
M  V30 15384 C 1433.21 1.42532 1.84951 0
M  V30 15385 C 1434.19 0.287082 1.6766 0
M  V30 15386 O 1435.37 0.494715 1.87793 0
M  V30 15387 C 1432.5 1.28041 3.22836 0
M  V30 15388 C 1431.46 2.39396 3.54787 0
M  V30 15389 C 1430.78 2.09986 4.91742 0
M  V30 15390 C 1432.08 3.81729 3.56483 0
M  V30 15391 H 1433.78 2.36851 1.83144 0
M  V30 15392 H 1431.32 1.14005 0.879714 0
M  V30 15393 H 1433.28 1.28385 4.01367 0
M  V30 15394 H 1432 0.301947 3.25201 0
M  V30 15395 H 1430.66 2.3829 2.78592 0
M  V30 15396 H 1430.31 1.10547 4.90702 0
M  V30 15397 H 1430.01 2.84586 5.14086 0
M  V30 15398 H 1431.53 2.12 5.72615 0
M  V30 15399 H 1432.95 3.84696 4.25067 0
M  V30 15400 H 1431.34 4.55791 3.90351 0
M  V30 15401 H 1432.41 4.11807 2.56014 0
M  V30 15402 N 1433.76 -0.95397 1.25448 0
M  V30 15403 C 1434.7 -2.05075 1.0589 0
M  V30 15404 C 1435.67 -1.66069 -0.0321545 0
M  V30 15405 O 1436.86 -1.90389 0.125152 0
M  V30 15406 C 1434 -3.38246 0.684391 0
M  V30 15407 C 1433.11 -3.90366 1.85037 0
M  V30 15408 C 1432.25 -5.11864 1.42016 0
M  V30 15409 C 1431.29 -5.56214 2.55523 0
M  V30 15410 N 1430.42 -6.68924 2.13272 0
M  V30 15411 H 1435.26 -2.21137 1.99755 0
M  V30 15412 H 1432.8 -1.08366 0.994742 0
M  V30 15413 H 1434.76 -4.14785 0.448209 0
M  V30 15414 H 1433.39 -3.22068 -0.217273 0
M  V30 15415 H 1432.44 -3.1034 2.19984 0
M  V30 15416 H 1433.75 -4.19228 2.70276 0
M  V30 15417 H 1432.91 -5.95823 1.14366 0
M  V30 15418 H 1431.65 -4.84718 0.538492 0
M  V30 15419 H 1430.65 -4.7082 2.83916 0
M  V30 15420 H 1431.88 -5.85368 3.44268 0
M  V30 15421 H 1429.82 -6.43486 1.27523 0
M  V30 15422 H 1429.74 -6.97307 2.92059 0
M  V30 15423 H 1431.01 -7.5629 1.88801 0
M  V30 15424 N 1435.24 -1.07045 -1.15668 0
M  V30 15425 C 1436.17 -0.632171 -2.19269 0
M  V30 15426 C 1437.15 0.348973 -1.58811 0
M  V30 15427 O 1438.33 0.256137 -1.86752 0
M  V30 15428 C 1435.46 0.0721491 -3.38623 0
M  V30 15429 C 1434.5 -0.866947 -4.17596 0
M  V30 15430 S 1435.34 -2.36628 -4.80382 0
M  V30 15431 C 1436.49 -1.67367 -6.03108 0
M  V30 15432 H 1436.73 -1.50986 -2.56106 0
M  V30 15433 H 1434.26 -0.884123 -1.2658 0
M  V30 15434 H 1436.22 0.472272 -4.07774 0
M  V30 15435 H 1434.88 0.926138 -3.00136 0
M  V30 15436 H 1434.07 -0.320814 -5.02978 0
M  V30 15437 H 1433.67 -1.20731 -3.53977 0
M  V30 15438 H 1435.96 -0.983606 -6.70322 0
M  V30 15439 H 1436.91 -2.50569 -6.62284 0
M  V30 15440 H 1437.32 -1.15299 -5.526 0
M  V30 15441 N 1436.71 1.32449 -0.85411 0
M  V30 15442 C 1437.94 2.01463 -0.471188 0
M  V30 15443 C 1438.36 1.64195 0.931954 0
M  V30 15444 O 1437.71 0.862994 1.60806 0
M  V30 15445 C 1437.76 3.56486 -0.600022 0
M  V30 15446 O 1437.49 3.92414 -1.94789 0
M  V30 15447 C 1438.99 4.42773 -0.216036 0
M  V30 15448 H 1436.21 0.644914 -0.185275 0
M  V30 15449 H 1438.75 1.6904 -1.1509 0
M  V30 15450 H 1436.91 3.87387 0.0319488 0
M  V30 15451 H 1437.32 4.87133 -1.94427 0
M  V30 15452 H 1438.79 5.50843 -0.357186 0
M  V30 15453 H 1439.27 4.31025 0.843468 0
M  V30 15454 H 1439.88 4.1726 -0.823058 0
M  V30 15455 N 1438.19 0.611994 1.45232 0
M  V30 15456 C 1439.15 -0.0943825 2.29006 0
M  V30 15457 C 1440.15 -0.790863 1.40007 0
M  V30 15458 O 1441.34 -0.638356 1.62082 0
M  V30 15459 C 1438.48 -1.1439 3.21135 0
M  V30 15460 H 1439.67 0.6422 2.92943 0
M  V30 15461 H 1437.22 0.37124 1.51827 0
M  V30 15462 H 1437.96 -1.9111 2.62007 0
M  V30 15463 H 1437.74 -0.648638 3.86698 0
M  V30 15464 H 1439.23 -1.63848 3.84114 0
M  V30 15465 N 1439.67 -1.53632 0.351409 0
M  V30 15466 C 1440.9 -2.0516 -0.243498 0
M  V30 15467 C 1441.31 -1.22559 -1.44138 0
M  V30 15468 O 1440.65 -0.255726 -1.81911 0
M  V30 15469 C 1440.71 -3.52324 -0.71469 0
M  V30 15470 C 1440.38 -4.55543 0.364598 0
M  V30 15471 C 1441.37 -5.05626 1.20987 0
M  V30 15472 C 1439.06 -4.99593 0.520779 0
M  V30 15473 C 1441.05 -5.98347 2.1968 0
M  V30 15474 C 1438.74 -5.92123 1.51109 0
M  V30 15475 C 1439.74 -6.41389 2.34754 0
M  V30 15476 O 1439.43 -7.32097 3.32098 0
M  V30 15477 H 1439.16 -0.674193 -0.0493948 0
M  V30 15478 H 1441.71 -1.99123 0.503919 0
M  V30 15479 H 1439.94 -3.55852 -1.51348 0
M  V30 15480 H 1441.63 -3.86783 -1.23102 0
M  V30 15481 H 1442.4 -4.72353 1.10033 0
M  V30 15482 H 1438.28 -4.60843 -0.120466 0
M  V30 15483 H 1441.82 -6.36724 2.85005 0
M  V30 15484 H 1437.72 -6.24811 1.62116 0
M  V30 15485 H 1438.48 -7.50053 3.27662 0
M  V30 15486 N 1441.15 -0.0802183 -1.57396 0
M  V30 15487 C 1442.4 0.585802 -1.93424 0
M  V30 15488 C 1442.72 1.69638 -0.961662 0
M  V30 15489 O 1441.99 1.95897 -0.011202 0
M  V30 15490 H 1440.57 0.219382 -0.714059 0
M  V30 15491 H 1443.23 -0.140055 -1.94396 0
M  V30 15492 H 1442.32 1.00566 -2.95454 0
M  V30 15493 N 1442.63 1.56409 0.193394 0
M  V30 15494 C 1443.59 1.93822 1.22334 0
M  V30 15495 C 1444.59 0.819513 1.3835 0
M  V30 15496 O 1445.78 1.0869 1.36132 0
M  V30 15497 C 1442.91 2.21375 2.59241 0
M  V30 15498 H 1444.1 2.85967 0.903502 0
M  V30 15499 H 1441.66 1.50125 0.43498 0
M  V30 15500 H 1442.39 1.31874 2.96277 0
M  V30 15501 H 1442.18 3.02899 2.48988 0
M  V30 15502 H 1443.67 2.51319 3.33509 0
M  V30 15503 N 1444.1 -0.461169 1.50702 0
M  V30 15504 C 1445.35 -1.21251 1.62186 0
M  V30 15505 C 1445.68 -1.91735 0.326818 0
M  V30 15506 O 1444.93 -1.83212 -0.687879 0
M  V30 15507 C 1445.23 -2.27213 2.75879 0
M  V30 15508 C 1444.9 -1.73912 4.16011 0
M  V30 15509 C 1443.56 -1.59097 4.54138 0
M  V30 15510 C 1445.91 -1.34477 5.03553 0
M  V30 15511 C 1443.24 -1.03285 5.77537 0
M  V30 15512 C 1445.59 -0.801027 6.27508 0
M  V30 15513 C 1444.26 -0.639586 6.64429 0
M  V30 15514 H 1443.53 -0.443689 0.593482 0
M  V30 15515 H 1446.17 -0.507035 1.84666 0
M  V30 15516 H 1444.48 -3.03707 2.47526 0
M  V30 15517 H 1446.18 -2.85124 2.81967 0
M  V30 15518 H 1442.77 -1.86413 3.85938 0
M  V30 15519 H 1446.95 -1.44753 4.74721 0
M  V30 15520 H 1442.21 -0.895316 6.04809 0
M  V30 15521 H 1446.38 -0.486842 6.94696 0
M  V30 15522 H 1444.01 -0.204966 7.59924 0
M  V30 15523 N 1445.58 -1.40446 -0.715026 0
M  V30 15524 C 1446.51 -1.43511 -1.84193 0
M  V30 15525 C 1447.49 -0.295969 -1.67505 0
M  V30 15526 O 1448.68 -0.504667 -1.87528 0
M  V30 15527 C 1445.81 -1.29751 -3.22152 0
M  V30 15528 C 1444.76 -2.41274 -3.53512 0
M  V30 15529 C 1444.09 -2.12591 -4.90621 0
M  V30 15530 C 1445.39 -3.83614 -3.54454 0
M  V30 15531 H 1447.08 -2.37819 -1.81885 0
M  V30 15532 H 1444.63 -1.14469 -0.873655 0
M  V30 15533 H 1446.58 -1.30511 -4.0068 0
M  V30 15534 H 1445.3 -0.319189 -3.25037 0
M  V30 15535 H 1443.96 -2.39764 -2.77324 0
M  V30 15536 H 1443.61 -1.13148 -4.90109 0
M  V30 15537 H 1443.31 -2.87308 -5.1257 0
M  V30 15538 H 1444.84 -2.15034 -5.71483 0
M  V30 15539 H 1446.25 -3.86945 -4.23021 0
M  V30 15540 H 1444.65 -4.57855 -3.87929 0
M  V30 15541 H 1445.72 -4.13159 -2.53827 0
M  V30 15542 N 1447.06 0.947303 -1.25952 0
M  V30 15543 C 1448.01 2.03076 -1.03653 0
M  V30 15544 C 1448.99 1.60874 0.0290512 0
M  V30 15545 O 1450.19 1.76008 -0.187169 0
M  V30 15546 C 1447.31 3.36797 -0.66501 0
M  V30 15547 C 1446.4 3.85502 -1.76773 0
M  V30 15548 N 1446.79 4.06922 -3.00413 0
M  V30 15549 C 1445.09 4.14359 -1.64993 0
M  V30 15550 C 1445.79 4.4717 -3.7204 0
M  V30 15551 N 1444.77 4.53523 -2.99697 0
M  V30 15552 H 1448.57 2.17641 -1.97509 0
M  V30 15553 H 1446.08 1.13268 -1.16379 0
M  V30 15554 H 1448.08 4.14053 -0.486427 0
M  V30 15555 H 1446.74 3.23607 0.266138 0
M  V30 15556 H 1447.75 3.93786 -3.36383 0
M  V30 15557 H 1444.43 4.09991 -0.788254 0
M  V30 15558 H 1445.82 4.71985 -4.78205 0
M  V30 15559 N 1448.54 1.07657 1.15099 0
M  V30 15560 C 1449.49 0.699678 2.19939 0
M  V30 15561 C 1450.46 -0.310432 1.63173 0
M  V30 15562 O 1451.64 -0.196177 1.89789 0
M  V30 15563 C 1448.78 0.106963 3.44934 0
M  V30 15564 C 1447.89 1.16892 4.15885 0
M  V30 15565 C 1447.03 0.540884 5.28439 0
M  V30 15566 C 1446.07 1.58542 5.91211 0
M  V30 15567 N 1445.2 0.979731 6.95231 0
M  V30 15568 H 1450.04 1.59805 2.51528 0
M  V30 15569 H 1447.58 0.798746 1.23525 0
M  V30 15570 H 1449.54 -0.254335 4.16424 0
M  V30 15571 H 1448.17 -0.754756 3.13852 0
M  V30 15572 H 1447.22 1.64775 3.4286 0
M  V30 15573 H 1448.53 1.96078 4.58645 0
M  V30 15574 H 1447.69 0.127397 6.06566 0
M  V30 15575 H 1446.43 -0.282708 4.8688 0
M  V30 15576 H 1445.43 2.00865 5.11794 0
M  V30 15577 H 1446.66 2.41135 6.34847 0
M  V30 15578 H 1444.6 0.177098 6.55761 0
M  V30 15579 H 1444.52 1.70878 7.36435 0
M  V30 15580 H 1445.79 0.591849 7.7725 0
M  V30 15581 N 1450.02 -1.31994 0.861122 0
M  V30 15582 C 1451.26 -1.96636 0.466754 0
M  V30 15583 C 1451.59 -1.6845 -0.982328 0
M  V30 15584 O 1450.86 -0.995157 -1.68741 0
M  V30 15585 H 1449.44 -0.727489 0.169613 0
M  V30 15586 H 1452.1 -1.60962 1.09897 0
M  V30 15587 H 1451.19 -3.05937 0.61716 0
M  V30 15588 N 1451.49 -0.619688 -1.44906 0
M  V30 15589 C 1452.72 -0.124598 -2.07025 0
M  V30 15590 C 1453.14 1.18698 -1.45919 0
M  V30 15591 O 1452.5 1.72552 -0.556366 0
M  V30 15592 C 1452.55 -0.0112238 -3.60598 0
M  V30 15593 O 1451.65 1.03582 -3.9918 0
M  V30 15594 H 1451 -0.0795631 -0.659216 0
M  V30 15595 H 1453.53 -0.853127 -1.85965 0
M  V30 15596 H 1453.54 0.183079 -4.07589 0
M  V30 15597 H 1452.21 -0.968849 -4.04458 0
M  V30 15598 H 1450.79 0.817008 -3.6384 0
M  V30 15599 N 1452.97 1.53444 -0.359552 0
M  V30 15600 C 1454.22 2.01166 0.232022 0
M  V30 15601 C 1454.55 1.24699 1.49266 0
M  V30 15602 O 1453.8 0.327164 1.92946 0
M  V30 15603 C 1454.1 3.5273 0.575863 0
M  V30 15604 C 1453.77 4.47027 -0.589746 0
M  V30 15605 C 1452.43 4.72525 -0.909587 0
M  V30 15606 C 1454.78 5.02846 -1.37095 0
M  V30 15607 C 1452.11 5.51096 -2.01271 0
M  V30 15608 C 1454.46 5.82622 -2.46444 0
M  V30 15609 C 1453.13 6.06409 -2.7897 0
M  V30 15610 H 1452.4 0.73612 0.084903 0
M  V30 15611 H 1455.04 1.85105 -0.490771 0
M  V30 15612 H 1453.35 3.66708 1.37959 0
M  V30 15613 H 1455.04 3.87125 1.04573 0
M  V30 15614 H 1451.63 4.27324 -0.330418 0
M  V30 15615 H 1455.82 4.83098 -1.1371 0
M  V30 15616 H 1451.07 5.67747 -2.26877 0
M  V30 15617 H 1455.25 6.24884 -3.07398 0
M  V30 15618 H 1452.88 6.67077 -3.64572 0
M  V30 15619 N 1454.45 0.0885642 1.57351 0
M  V30 15620 C 1455.69 -0.580127 1.95995 0
M  V30 15621 C 1456.05 -1.65754 0.969003 0
M  V30 15622 O 1457.26 -2.38297 1.2437 0
M  V30 15623 C 1455.53 -1.12689 3.3917 0
M  V30 15624 S 1457.09 -1.80836 3.99805 0
M  V30 15625 H 1453.9 -0.189492 0.685284 0
M  V30 15626 H 1456.51 0.166414 1.9479 0
M  V30 15627 H 1455.21 -0.331139 4.09062 0
M  V30 15628 H 1454.74 -1.90941 3.43955 0
M  V30 15629 H 1456.76 -3.09211 3.88076 0
M  V30 15630 N 1455.93 -1.56509 -0.185096 0
M  V30 15631 C 1457.34 -1.50318 -0.536334 0
M  V30 15632 C 1457.54 -0.790387 -1.85351 0
M  V30 15633 O 1456.6 -0.345039 -2.50131 0
M  V30 15634 C 1457.91 -2.95017 -0.581825 0
M  V30 15635 C 1459.46 -3.05746 -0.669974 0
M  V30 15636 C 1459.94 -4.51876 -0.746485 0
M  V30 15637 N 1461.43 -4.56067 -0.809746 0
M  V30 15638 C 1462.16 -5.66462 -0.889286 0
M  V30 15639 N 1461.66 -6.86523 -0.930509 0
M  V30 15640 N 1463.45 -5.54399 -0.927246 0
M  V30 15641 H 1455.6 -2.01262 0.678778 0
M  V30 15642 H 1457.87 -0.916313 0.243054 0
M  V30 15643 H 1457.57 -3.50268 0.317089 0
M  V30 15644 H 1457.45 -3.48916 -1.43309 0
M  V30 15645 H 1459.83 -2.50538 -1.55932 0
M  V30 15646 H 1459.91 -2.54955 0.207689 0
M  V30 15647 H 1459.56 -5.07711 0.138546 0
M  V30 15648 H 1459.49 -5.00408 -1.6401 0
M  V30 15649 H 1461.98 -3.6962 -0.786729 0
M  V30 15650 H 1462.29 -7.66407 -0.991992 0
M  V30 15651 H 1460.64 -6.89161 -0.899017 0
M  V30 15652 H 1463.83 -4.59524 -0.891947 0
M  V30 15653 H 1464 -6.40458 -0.985773 0
M  V30 15654 N 1457.41 0.45317 -1.50944 0
M  V30 15655 C 1458.35 1.56953 -1.71664 0
M  V30 15656 C 1459.35 1.59064 -0.582673 0
M  V30 15657 O 1460.55 1.62998 -0.763651 0
M  V30 15658 H 1456.93 0.521147 -0.542135 0
M  V30 15659 H 1458.9 1.36645 -2.65275 0
M  V30 15660 C 1457.65 2.9475 -1.84438 0
M  V30 15661 H 1456.97 2.93852 -2.71093 0
M  V30 15662 H 1458.41 3.72271 -2.02954 0
M  V30 15663 C 1456.87 3.31509 -0.600281 0
M  V30 15664 O 1457.4 4.00906 0.252366 0
M  V30 15665 N 1455.61 2.8711 -0.449014 0
M  V30 15666 H 1455.15 2.30808 -1.14392 0
M  V30 15667 H 1455.11 3.12068 0.382199 0
M  V30 15668 N 1458.88 1.40823 0.707568 0
M  V30 15669 C 1460.11 1.42659 1.49439 0
M  V30 15670 C 1460.52 0.0268475 1.89181 0
M  V30 15671 O 1459.87 -0.961444 1.56531 0
M  V30 15672 C 1459.93 2.26104 2.79494 0
M  V30 15673 C 1459.59 3.7442 2.62027 0
M  V30 15674 C 1460.59 4.66867 2.28759 0
M  V30 15675 C 1458.27 4.18328 2.78042 0
M  V30 15676 C 1460.27 6.01208 2.11727 0
M  V30 15677 C 1457.95 5.52736 2.60627 0
M  V30 15678 C 1458.95 6.43991 2.27518 0
M  V30 15679 O 1458.64 7.75921 2.10243 0
M  V30 15680 H 1458.37 0.488307 0.467475 0
M  V30 15681 H 1460.93 1.85607 0.879719 0
M  V30 15682 H 1459.16 1.77949 3.43323 0
M  V30 15683 H 1460.85 2.19785 3.41247 0
M  V30 15684 H 1461.61 4.34239 2.16012 0
M  V30 15685 H 1457.49 3.47612 3.02798 0
M  V30 15686 H 1461.03 6.724 1.85807 0
M  V30 15687 H 1456.93 5.84947 2.7296 0
M  V30 15688 H 1457.7 7.86938 2.251 0
M  V30 15689 N 1460.36 -0.94061 1.26453 0
M  V30 15690 C 1461.61 -1.68687 1.12031 0
M  V30 15691 C 1461.94 -1.91571 -0.336252 0
M  V30 15692 O 1461.19 -1.49458 -1.26336 0
M  V30 15693 C 1461.49 -3.06683 1.83521 0
M  V30 15694 C 1461.16 -3.03553 3.33416 0
M  V30 15695 C 1459.82 -3.02407 3.74304 0
M  V30 15696 C 1462.17 -2.95817 4.29118 0
M  V30 15697 C 1459.5 -2.9129 5.09281 0
M  V30 15698 C 1461.85 -2.86242 5.64135 0
M  V30 15699 C 1460.52 -2.83438 6.04333 0
M  V30 15700 H 1459.79 -0.61727 0.40995 0
M  V30 15701 H 1462.43 -1.0979 1.56902 0
M  V30 15702 H 1460.74 -3.69208 1.31121 0
M  V30 15703 H 1462.43 -3.63274 1.69802 0
M  V30 15704 H 1459.02 -3.05226 3.00891 0
M  V30 15705 H 1463.21 -2.9581 3.9851 0
M  V30 15706 H 1458.46 -2.87498 5.39588 0
M  V30 15707 H 1462.64 -2.79219 6.37973 0
M  V30 15708 H 1460.27 -2.74581 7.08879 0
M  V30 15709 N 1461.84 -1.08266 -1.14527 0
M  V30 15710 C 1462.79 -0.705807 -2.21633 0
M  V30 15711 C 1463.78 0.287758 -1.66938 0
M  V30 15712 O 1464.99 0.150479 -1.7937 0
M  V30 15713 H 1461.36 -0.210206 -0.722023 0
M  V30 15714 H 1463.33 -1.61855 -2.5069 0
M  V30 15715 C 1462.08 -0.129673 -3.47458 0
M  V30 15716 H 1461.41 -0.885365 -3.89873 0
M  V30 15717 H 1462.85 0.0962264 -4.23891 0
M  V30 15718 C 1461.31 1.13208 -3.1731 0
M  V30 15719 O 1461.84 2.21717 -3.34969 0
M  V30 15720 N 1460.04 1.0419 -2.7128 0
M  V30 15721 H 1459.59 0.15883 -2.5711 0
M  V30 15722 H 1459.55 1.88689 -2.51483 0
M  V30 15723 N 1463.32 1.31536 -0.86811 0
M  V30 15724 C 1464.57 1.96045 -0.474271 0
M  V30 15725 C 1464.88 1.6939 0.978071 0
M  V30 15726 O 1466.09 2.27746 1.47797 0
M  V30 15727 C 1464.54 3.5096 -0.797203 0
M  V30 15728 C 1464.15 3.86456 -2.26618 0
M  V30 15729 C 1465.9 4.21871 -0.471745 0
M  V30 15730 C 1463.8 5.34474 -2.53162 0
M  V30 15731 H 1462.73 0.733737 -0.173627 0
M  V30 15732 H 1465.38 1.49734 -1.06076 0
M  V30 15733 H 1463.77 3.95752 -0.139994 0
M  V30 15734 H 1464.94 3.52629 -2.9663 0
M  V30 15735 H 1463.25 3.28605 -2.55749 0
M  V30 15736 H 1465.85 5.30767 -0.647317 0
M  V30 15737 H 1466.19 4.12131 0.58768 0
M  V30 15738 H 1466.73 3.82706 -1.08542 0
M  V30 15739 H 1463.47 5.49248 -3.57781 0
M  V30 15740 H 1462.99 5.6966 -1.87743 0
M  V30 15741 H 1464.67 6.01716 -2.37797 0
M  V30 15742 N 1464.8 0.627364 1.44575 0
M  V30 15743 C 1465.73 -0.066735 2.33405 0
M  V30 15744 C 1466.71 -0.838666 1.47988 0
M  V30 15745 O 1467.89 -0.805296 1.76716 0
M  V30 15746 C 1465.02 -1.05148 3.31 0
M  V30 15747 C 1463.98 -0.391433 4.26206 0
M  V30 15748 C 1463.3 -1.48581 5.13642 0
M  V30 15749 C 1464.6 0.699942 5.17589 0
M  V30 15750 H 1466.3 0.675029 2.91691 0
M  V30 15751 H 1463.84 0.326066 1.4026 0
M  V30 15752 H 1465.8 -1.54576 3.92026 0
M  V30 15753 H 1464.52 -1.82408 2.70915 0
M  V30 15754 H 1463.18 0.0821694 3.66508 0
M  V30 15755 H 1462.83 -2.2492 4.49911 0
M  V30 15756 H 1462.53 -1.04957 5.7815 0
M  V30 15757 H 1464.05 -1.98198 5.77538 0
M  V30 15758 H 1465.47 0.288911 5.72572 0
M  V30 15759 H 1463.86 1.0591 5.9068 0
M  V30 15760 H 1464.93 1.5686 4.58828 0
M  V30 15761 N 1466.28 -1.53251 0.367684 0
M  V30 15762 C 1467.55 -1.93617 -0.277842 0
M  V30 15763 C 1467.93 -1.3014 -1.66213 0
M  V30 15764 O 1467.28 -0.461277 -2.23796 0
M  V30 15765 C 1467.49 -3.47475 -0.325937 0
M  V30 15766 C 1468.84 -4.2082 -0.565276 0
M  V30 15767 O 1469.86 -3.53866 -0.407057 0
M  V30 15768 O 1468.72 -5.39474 -0.873522 0
M  V30 15769 H 1465.82 -0.80993 -0.167158 0
M  V30 15770 H 1468.36 -1.64405 0.420621 0
M  V30 15771 H 1467.13 -3.85955 0.644542 0
M  V30 15772 H 1466.76 -3.82926 -1.07021 0
M  V30 15773 N 1467.75 -0.0969077 -1.57302 0
M  V30 15774 C 1468.68 0.858443 -2.17147 0
M  V30 15775 C 1469.66 1.29294 -1.10531 0
M  V30 15776 O 1470.85 1.3595 -1.38676 0
M  V30 15777 C 1467.98 2.11691 -2.75326 0
M  V30 15778 C 1466.93 1.82097 -3.8733 0
M  V30 15779 C 1466.26 3.14787 -4.32219 0
M  V30 15780 C 1467.56 1.10651 -5.10444 0
M  V30 15781 H 1469.25 0.35982 -2.9723 0
M  V30 15782 H 1466.8 0.17163 -1.42974 0
M  V30 15783 H 1468.75 2.78963 -3.15844 0
M  V30 15784 H 1467.48 2.63839 -1.925 0
M  V30 15785 H 1466.14 1.17222 -3.47354 0
M  V30 15786 H 1465.78 3.64826 -3.46281 0
M  V30 15787 H 1465.48 2.95769 -5.07735 0
M  V30 15788 H 1467.01 3.83215 -4.75372 0
M  V30 15789 H 1468.42 1.68036 -5.48121 0
M  V30 15790 H 1466.82 1.01805 -5.91401 0
M  V30 15791 H 1467.89 0.0895634 -4.84817 0
M  V30 15792 N 1469.23 1.56605 0.176793 0
M  V30 15793 C 1470.16 1.99014 1.2213 0
M  V30 15794 C 1471.14 0.86487 1.46472 0
M  V30 15795 O 1472.33 1.13055 1.57899 0
M  V30 15796 C 1469.46 2.34534 2.56146 0
M  V30 15797 C 1468.41 3.4997 2.46384 0
M  V30 15798 C 1467.74 3.71217 3.8484 0
M  V30 15799 C 1469.04 4.83592 1.97323 0
M  V30 15800 H 1470.73 2.86517 0.8688 0
M  V30 15801 H 1468.28 1.37846 0.416481 0
M  V30 15802 H 1470.23 2.62799 3.29416 0
M  V30 15803 H 1468.95 1.43933 2.93174 0
M  V30 15804 H 1467.61 3.21824 1.75569 0
M  V30 15805 H 1467.26 2.77916 4.19251 0
M  V30 15806 H 1466.96 4.48885 3.79178 0
M  V30 15807 H 1468.49 4.01877 4.59704 0
M  V30 15808 H 1469.9 5.10768 2.60363 0
M  V30 15809 H 1468.3 5.64858 2.02622 0
M  V30 15810 H 1469.37 4.75951 0.927275 0
M  V30 15811 N 1470.71 -0.445159 1.51182 0
M  V30 15812 C 1471.96 -1.19701 1.63705 0
M  V30 15813 C 1472.29 -1.91047 0.348511 0
M  V30 15814 O 1471.56 -1.83264 -0.651497 0
M  V30 15815 C 1471.85 -2.22021 2.83511 0
M  V30 15816 C 1471.7 -1.54809 4.2232 0
M  V30 15817 C 1473.02 -3.23083 2.9884 0
M  V30 15818 H 1470.14 -0.433818 0.595795 0
M  V30 15819 H 1472.78 -0.487276 1.83645 0
M  V30 15820 H 1470.93 -2.82551 2.66641 0
M  V30 15821 H 1472.6 -0.976774 4.5084 0
M  V30 15822 H 1470.84 -0.850596 4.25379 0
M  V30 15823 H 1471.52 -2.29289 5.02126 0
M  V30 15824 H 1473.99 -2.72601 3.14369 0
M  V30 15825 H 1472.87 -3.91978 3.84246 0
M  V30 15826 H 1473.13 -3.88732 2.1057 0
M  V30 15827 N 1472.19 -1.41197 -0.700089 0
M  V30 15828 C 1473.43 -1.40519 -1.46227 0
M  V30 15829 C 1473.77 -0.0126108 -1.94196 0
M  V30 15830 O 1473.04 0.958837 -1.69223 0
M  V30 15831 C 1473.32 -2.40808 -2.67738 0
M  V30 15832 C 1473.18 -3.89154 -2.25563 0
M  V30 15833 C 1474.5 -2.38415 -3.69927 0
M  V30 15834 H 1471.62 -0.511724 -0.530384 0
M  V30 15835 H 1474.26 -1.72441 -0.797754 0
M  V30 15836 H 1472.41 -2.13717 -3.24434 0
M  V30 15837 H 1474.08 -4.27132 -1.74229 0
M  V30 15838 H 1472.32 -4.04239 -1.57395 0
M  V30 15839 H 1472.99 -4.54866 -3.12731 0
M  V30 15840 H 1475.47 -2.62447 -3.22895 0
M  V30 15841 H 1474.35 -3.10609 -4.52563 0
M  V30 15842 H 1474.61 -1.40116 -4.19309 0
M  V30 15843 N 1473.67 0.933891 -1.2695 0
M  V30 15844 C 1474.89 1.72042 -1.15828 0
M  V30 15845 C 1475.32 1.85975 0.28193 0
M  V30 15846 O 1474.67 1.35528 1.20423 0
M  V30 15847 C 1474.72 3.10112 -1.84019 0
M  V30 15848 O 1473.83 3.96504 -1.13394 0
M  V30 15849 H 1473.17 0.527573 -0.40319 0
M  V30 15850 H 1475.7 1.16914 -1.67905 0
M  V30 15851 H 1475.71 3.60461 -1.91133 0
M  V30 15852 H 1474.38 2.99287 -2.8879 0
M  V30 15853 H 1472.96 3.54948 -1.14307 0
M  V30 15854 N 1475.14 1.08871 1.13951 0
M  V30 15855 C 1476.39 0.822504 1.85372 0
M  V30 15856 C 1476.72 -0.650183 1.82993 0
M  V30 15857 O 1476 -1.4783 1.26398 0
M  V30 15858 C 1476.28 1.35107 3.33793 0
M  V30 15859 C 1476.13 2.88945 3.44719 0
M  V30 15860 C 1477.45 0.980203 4.29045 0
M  V30 15861 H 1474.57 0.300255 0.673065 0
M  V30 15862 H 1477.21 1.34914 1.33784 0
M  V30 15863 H 1475.36 0.903108 3.77857 0
M  V30 15864 H 1477.04 3.42148 3.09407 0
M  V30 15865 H 1475.28 3.26365 2.85777 0
M  V30 15866 H 1475.95 3.21004 4.49066 0
M  V30 15867 H 1478.43 1.36646 3.93023 0
M  V30 15868 H 1477.3 1.37717 5.31343 0
M  V30 15869 H 1477.56 -0.112253 4.41957 0
M  V30 15870 N 1476.62 -1.31073 0.875073 0
M  V30 15871 C 1477.85 -2.01223 0.502383 0
M  V30 15872 C 1478.27 -1.65223 -0.899053 0
M  V30 15873 O 1477.63 -0.863559 -1.59412 0
M  V30 15874 C 1477.68 -3.54269 0.672747 0
M  V30 15875 O 1476.78 -4.11409 -0.285718 0
M  V30 15876 H 1476.12 -0.633422 0.199181 0
M  V30 15877 H 1478.65 -1.67152 1.17989 0
M  V30 15878 H 1478.66 -4.04027 0.567973 0
M  V30 15879 H 1477.34 -3.79811 1.69459 0
M  V30 15880 H 1475.91 -3.72654 -0.135472 0
M  V30 15881 N 1478.1 -0.635022 -1.4424 0
M  V30 15882 C 1479.03 0.0543561 -2.33437 0
M  V30 15883 C 1480.01 0.830807 -1.48431 0
M  V30 15884 O 1481.2 0.795913 -1.77141 0
M  V30 15885 C 1478.33 1.03391 -3.31553 0
M  V30 15886 C 1477.28 0.368824 -4.26408 0
M  V30 15887 C 1476.61 1.45855 -5.14422 0
M  V30 15888 C 1477.91 -0.727381 -5.1721 0
M  V30 15889 H 1479.6 -0.690489 -2.91329 0
M  V30 15890 H 1477.15 -0.3335 -1.40085 0
M  V30 15891 H 1479.1 1.52495 -3.9284 0
M  V30 15892 H 1477.82 1.80969 -2.71878 0
M  V30 15893 H 1476.48 -0.101605 -3.66459 0
M  V30 15894 H 1476.13 2.22531 -4.51098 0
M  V30 15895 H 1475.83 1.0189 -5.78699 0
M  V30 15896 H 1477.35 1.95132 -5.78581 0
M  V30 15897 H 1478.77 -0.319272 -5.7241 0
M  V30 15898 H 1477.17 -1.09041 -5.9011 0
M  V30 15899 H 1478.24 -1.59292 -4.57989 0
M  V30 15900 N 1479.58 1.53054 -0.375806 0
M  V30 15901 C 1480.83 2.00584 0.211847 0
M  V30 15902 C 1481.14 1.26692 1.49025 0
M  V30 15903 O 1482.35 1.64863 2.15713 0
M  V30 15904 C 1480.8 3.57345 0.428074 0
M  V30 15905 C 1480.41 4.40125 -0.836299 0
M  V30 15906 C 1482.15 4.13203 0.972825 0
M  V30 15907 C 1480.06 5.88459 -0.589093 0
M  V30 15908 H 1478.99 0.749424 0.0829412 0
M  V30 15909 H 1481.64 1.76666 -0.496126 0
M  V30 15910 H 1480.02 3.77458 1.19756 0
M  V30 15911 H 1481.2 4.31782 -1.60936 0
M  V30 15912 H 1479.51 3.95422 -1.30501 0
M  V30 15913 H 1482.11 5.21669 1.17326 0
M  V30 15914 H 1482.45 3.68441 1.93797 0
M  V30 15915 H 1482.99 3.96928 0.263249 0
M  V30 15916 H 1479.73 6.37517 -1.52485 0
M  V30 15917 H 1479.25 5.99624 0.145285 0
M  V30 15918 H 1480.92 6.46631 -0.218485 0
M  V30 15919 N 1481.06 0.105248 1.57248 0
M  V30 15920 C 1482.28 -0.567515 1.99484 0
M  V30 15921 C 1482.71 -1.60298 0.984182 0
M  V30 15922 O 1482.06 -1.81242 -0.0459944 0
M  V30 15923 C 1482.11 -1.18271 3.40653 0
M  V30 15924 O 1481.22 -2.29843 3.42412 0
M  V30 15925 H 1480.56 -0.143069 0.648404 0
M  V30 15926 H 1483.09 0.189661 2.03719 0
M  V30 15927 H 1483.1 -1.52157 3.78566 0
M  V30 15928 H 1481.77 -0.424179 4.13731 0
M  V30 15929 H 1480.35 -1.975 3.16304 0
M  V30 15930 N 1482.53 -1.56697 -0.168486 0
M  V30 15931 C 1483.78 -1.82154 -0.884654 0
M  V30 15932 C 1484.11 -0.682778 -1.82122 0
M  V30 15933 O 1483.36 0.32977 -1.92902 0
M  V30 15934 C 1483.66 -3.138 -1.71068 0
M  V30 15935 C 1483.33 -4.41356 -0.922793 0
M  V30 15936 C 1481.99 -4.76002 -0.705352 0
M  V30 15937 C 1484.34 -5.19883 -0.370323 0
M  V30 15938 C 1481.67 -5.86651 0.0756121 0
M  V30 15939 C 1484.02 -6.31349 0.397568 0
M  V30 15940 C 1482.69 -6.6456 0.625782 0
M  V30 15941 H 1481.96 -0.666549 -0.323718 0
M  V30 15942 H 1484.6 -1.90916 -0.149432 0
M  V30 15943 H 1482.91 -3.00393 -2.51538 0
M  V30 15944 H 1484.61 -3.30708 -2.2679 0
M  V30 15945 H 1481.2 -4.14182 -1.10231 0
M  V30 15946 H 1485.38 -4.93509 -0.525646 0
M  V30 15947 H 1480.64 -6.10838 0.262137 0
M  V30 15948 H 1484.81 -6.91401 0.832902 0
M  V30 15949 H 1482.44 -7.50137 1.23281 0
M  V30 15950 N 1484.01 0.437135 -1.51416 0
M  V30 15951 C 1485.26 1.18421 -1.63771 0
M  V30 15952 C 1485.58 1.91718 -0.356282 0
M  V30 15953 O 1484.85 1.85566 0.627863 0
M  V30 15954 H 1483.43 0.440125 -0.603572 0
M  V30 15955 H 1486.09 0.501155 -1.88347 0
M  V30 15956 H 1485.19 1.91367 -2.46546 0
M  V30 15957 N 1485.49 1.41566 0.692592 0
M  V30 15958 C 1486.74 1.40381 1.44831 0
M  V30 15959 C 1487.05 0.0172068 1.95592 0
M  V30 15960 O 1488.26 -0.11726 2.71247 0
M  V30 15961 C 1486.71 2.46844 2.61908 0
M  V30 15962 C 1486.32 3.91426 2.17921 0
M  V30 15963 C 1488.07 2.548 3.39525 0
M  V30 15964 C 1485.97 4.89436 3.31974 0
M  V30 15965 H 1484.9 0.522062 0.544028 0
M  V30 15966 H 1487.55 1.67402 0.751589 0
M  V30 15967 H 1485.94 2.12959 3.33863 0
M  V30 15968 H 1487.11 4.34575 1.53236 0
M  V30 15969 H 1485.43 3.87158 1.5329 0
M  V30 15970 H 1488.02 3.25207 4.24434 0
M  V30 15971 H 1488.37 1.58579 3.84913 0
M  V30 15972 H 1488.9 2.87791 2.74629 0
M  V30 15973 H 1485.64 5.87071 2.91595 0
M  V30 15974 H 1485.16 4.50933 3.95499 0
M  V30 15975 H 1486.84 5.10331 3.97708 0
M  V30 15976 N 1486.97 -0.927146 1.27443 0
M  V30 15977 C 1487.9 -2.03209 1.06013 0
M  V30 15978 C 1488.91 -1.62792 0.016041 0
M  V30 15979 O 1490.1 -1.76631 0.25766 0
M  V30 15980 C 1487.2 -3.33791 0.586225 0
M  V30 15981 C 1486.38 -4.02897 1.70273 0
M  V30 15982 C 1485.43 -5.11755 1.22447 0
M  V30 15983 O 1484.46 -5.35688 1.92423 0
M  V30 15984 N 1485.66 -5.80444 0.0804162 0
M  V30 15985 H 1488.43 -2.22155 2.01165 0
M  V30 15986 H 1485.99 -1.09757 1.19017 0
M  V30 15987 H 1487.98 -4.03926 0.250161 0
M  V30 15988 H 1486.55 -3.11414 -0.272076 0
M  V30 15989 H 1485.77 -3.26489 2.20905 0
M  V30 15990 H 1487.06 -4.45816 2.45205 0
M  V30 15991 H 1486.46 -5.63454 -0.503635 0
M  V30 15992 H 1485.01 -6.51504 -0.196466 0
M  V30 15993 N 1488.45 -1.09474 -1.13372 0
M  V30 15994 C 1489.67 -0.853093 -1.89043 0
M  V30 15995 C 1490.1 0.590075 -1.78605 0
M  V30 15996 O 1489.45 1.41462 -1.13394 0
M  V30 15997 C 1489.5 -1.29359 -3.36599 0
M  V30 15998 O 1488.61 -0.452355 -4.09912 0
M  V30 15999 H 1487.95 -0.308922 -0.587761 0
M  V30 16000 H 1490.48 -1.459 -1.43437 0
M  V30 16001 H 1490.49 -1.27921 -3.87428 0
M  V30 16002 H 1489.16 -2.3446 -3.43513 0
M  V30 16003 H 1487.74 -0.531098 -3.69099 0
M  V30 16004 N 1489.92 1.30607 -0.882012 0
M  V30 16005 C 1491.15 2.00954 -0.513048 0
M  V30 16006 C 1491.57 1.65697 0.890279 0
M  V30 16007 O 1490.93 0.872001 1.58952 0
M  V30 16008 C 1490.98 3.53907 -0.691525 0
M  V30 16009 O 1490.08 4.11555 0.263896 0
M  V30 16010 H 1489.43 0.632356 -0.202537 0
M  V30 16011 H 1491.96 1.66524 -1.18874 0
M  V30 16012 H 1491.97 4.0372 -0.589392 0
M  V30 16013 H 1490.64 3.78907 -1.71471 0
M  V30 16014 H 1489.22 3.7272 0.115707 0
M  V30 16015 N 1491.4 0.642663 1.43901 0
M  V30 16016 C 1492.37 -0.0457858 2.29154 0
M  V30 16017 C 1493.37 -0.760988 1.41653 0
M  V30 16018 O 1494.56 -0.603832 1.634 0
M  V30 16019 C 1491.69 -1.07552 3.23489 0
M  V30 16020 H 1492.88 0.704193 2.91515 0
M  V30 16021 H 1490.43 0.403361 1.51006 0
M  V30 16022 H 1491.17 -1.85509 2.66002 0
M  V30 16023 H 1490.95 -0.566468 3.87987 0
M  V30 16024 H 1492.44 -1.55663 3.87503 0
M  V30 16025 N 1492.88 -1.52852 0.383918 0
M  V30 16026 C 1494.13 -2.00694 -0.201206 0
M  V30 16027 C 1494.44 -1.2748 -1.48352 0
M  V30 16028 O 1495.65 -1.66005 -2.14836 0
M  V30 16029 C 1494.11 -3.57567 -0.409117 0
M  V30 16030 C 1493.71 -4.39675 0.859628 0
M  V30 16031 C 1495.46 -4.13713 -0.950899 0
M  V30 16032 C 1493.36 -5.88138 0.620292 0
M  V30 16033 H 1492.29 -0.749854 -0.0789656 0
M  V30 16034 H 1494.95 -1.764 0.505488 0
M  V30 16035 H 1493.33 -3.78088 -1.17753 0
M  V30 16036 H 1494.5 -4.30923 1.63224 0
M  V30 16037 H 1492.82 -3.94724 1.32597 0
M  V30 16038 H 1495.41 -5.22284 -1.14558 0
M  V30 16039 H 1495.76 -3.69463 -1.9184 0
M  V30 16040 H 1496.29 -3.97062 -0.242195 0
M  V30 16041 H 1493.03 -6.367 1.55864 0
M  V30 16042 H 1492.55 -5.99693 -0.113483 0
M  V30 16043 H 1494.23 -6.46506 0.252775 0
M  V30 16044 N 1494.36 -0.113586 -1.5719 0
M  V30 16045 C 1495.31 0.855985 -2.16277 0
M  V30 16046 C 1496.3 1.2792 -1.11053 0
M  V30 16047 O 1497.51 1.25158 -1.29366 0
M  V30 16048 H 1493.88 0.294134 -0.692091 0
M  V30 16049 H 1495.85 0.333109 -2.96535 0
M  V30 16050 C 1494.6 2.09832 -2.77247 0
M  V30 16051 H 1493.93 1.78158 -3.5791 0
M  V30 16052 H 1495.37 2.7569 -3.22135 0
M  V30 16053 C 1493.82 2.88453 -1.74059 0
M  V30 16054 O 1494.35 3.83648 -1.19068 0
M  V30 16055 N 1492.56 2.52342 -1.44124 0
M  V30 16056 H 1492.11 1.74998 -1.89033 0
M  V30 16057 H 1492.07 3.05244 -0.753234 0
M  V30 16058 N 1495.84 1.56784 0.160173 0
M  V30 16059 C 1497.08 1.82891 0.876278 0
M  V30 16060 C 1497.42 0.693173 1.81408 0
M  V30 16061 O 1496.69 -0.304136 1.92107 0
M  V30 16062 C 1496.97 3.19439 1.66226 0
M  V30 16063 C 1496.83 4.43557 0.746831 0
M  V30 16064 C 1498.15 3.53053 2.62758 0
M  V30 16065 H 1495.27 0.665285 0.31712 0
M  V30 16066 H 1497.91 1.89469 0.142004 0
M  V30 16067 H 1496.06 3.13962 2.28823 0
M  V30 16068 H 1497.73 4.61109 0.132876 0
M  V30 16069 H 1495.97 4.33764 0.0555625 0
M  V30 16070 H 1496.64 5.35675 1.33253 0
M  V30 16071 H 1499.12 3.59054 2.10284 0
M  V30 16072 H 1498 4.4965 3.14811 0
M  V30 16073 H 1498.26 2.78329 3.4349 0
M  V30 16074 N 1497.32 -0.429099 1.51646 0
M  V30 16075 C 1498.56 -1.17958 1.64966 0
M  V30 16076 C 1498.89 -1.90667 0.368755 0
M  V30 16077 O 1498.17 -1.83945 -0.632023 0
M  V30 16078 C 1498.45 -2.19002 2.8585 0
M  V30 16079 C 1498.31 -1.50321 4.23938 0
M  V30 16080 C 1499.62 -3.19895 3.0225 0
M  V30 16081 H 1496.74 -0.427474 0.600362 0
M  V30 16082 H 1499.39 -0.46777 1.84152 0
M  V30 16083 H 1497.54 -2.79707 2.69623 0
M  V30 16084 H 1499.21 -0.928902 4.51851 0
M  V30 16085 H 1497.45 -0.805431 4.26257 0
M  V30 16086 H 1498.12 -2.2395 5.0453 0
M  V30 16087 H 1500.6 -2.69251 3.17243 0
M  V30 16088 H 1499.47 -3.8788 3.88381 0
M  V30 16089 H 1499.73 -3.86477 2.14682 0
M  V30 16090 N 1498.79 -1.41931 -0.685074 0
M  V30 16091 C 1499.74 -1.44604 -1.79884 0
M  V30 16092 C 1500.71 -0.299166 -1.63384 0
M  V30 16093 O 1501.9 -0.501749 -1.84085 0
M  V30 16094 C 1499.04 -1.3442 -3.17845 0
M  V30 16095 C 1498.15 -2.59061 -3.45704 0
M  V30 16096 C 1497.28 -2.41094 -4.73336 0
M  V30 16097 C 1496.32 -3.61159 -4.94197 0
M  V30 16098 N 1495.46 -3.42198 -6.13062 0
M  V30 16099 H 1500.3 -2.39788 -1.76934 0
M  V30 16100 H 1497.84 -1.1906 -0.863891 0
M  V30 16101 H 1499.79 -1.26515 -3.97555 0
M  V30 16102 H 1498.42 -0.42838 -3.19945 0
M  V30 16103 H 1497.48 -2.77374 -2.60322 0
M  V30 16104 H 1498.79 -3.48341 -3.57016 0
M  V30 16105 H 1497.94 -2.30717 -5.61119 0
M  V30 16106 H 1496.68 -1.49288 -4.64289 0
M  V30 16107 H 1495.69 -3.7198 -4.04859 0
M  V30 16108 H 1496.91 -4.53933 -5.05096 0
M  V30 16109 H 1494.86 -2.531 -6.05208 0
M  V30 16110 H 1494.77 -4.25059 -6.25189 0
M  V30 16111 H 1496.04 -3.35612 -7.03551 0
M  V30 16112 N 1500.27 0.920374 -1.27933 0
M  V30 16113 C 1501.52 1.66338 -1.14081 0
M  V30 16114 C 1501.83 1.93107 0.311324 0
M  V30 16115 O 1503.04 2.65431 0.570862 0
M  V30 16116 C 1501.5 2.99624 -1.99383 0
M  V30 16117 C 1501.1 2.80527 -3.49297 0
M  V30 16118 C 1502.85 3.77474 -1.94199 0
M  V30 16119 C 1500.75 4.09413 -4.26773 0
M  V30 16120 H 1499.68 0.623935 -0.423346 0
M  V30 16121 H 1502.34 1.0219 -1.52412 0
M  V30 16122 H 1500.72 3.6487 -1.53902 0
M  V30 16123 H 1501.89 2.24002 -4.02691 0
M  V30 16124 H 1500.21 2.16097 -3.55937 0
M  V30 16125 H 1502.8 4.72997 -2.49356 0
M  V30 16126 H 1503.15 4.06069 -0.917249 0
M  V30 16127 H 1503.68 3.19036 -2.37614 0
M  V30 16128 H 1500.42 3.85994 -5.29801 0
M  V30 16129 H 1499.94 4.65574 -3.78155 0
M  V30 16130 H 1501.62 4.77721 -4.36339 0
M  V30 16131 N 1501.75 1.10074 1.1279 0
M  V30 16132 C 1502.68 0.768146 2.20503 0
M  V30 16133 C 1503.66 -0.257199 1.68144 0
M  V30 16134 O 1504.85 -0.12379 1.93805 0
M  V30 16135 C 1501.98 0.195125 3.46751 0
M  V30 16136 C 1500.93 1.15074 4.1224 0
M  V30 16137 C 1500.26 0.439098 5.32894 0
M  V30 16138 C 1501.56 2.49584 4.58808 0
M  V30 16139 H 1503.25 1.66876 2.48581 0
M  V30 16140 H 1500.8 0.803806 1.19478 0
M  V30 16141 H 1502.75 -0.0496695 4.21371 0
M  V30 16142 H 1501.47 -0.740717 3.1809 0
M  V30 16143 H 1500.13 1.38092 3.39597 0
M  V30 16144 H 1499.78 -0.501096 5.00498 0
M  V30 16145 H 1499.48 1.07632 5.77658 0
M  V30 16146 H 1501 0.202761 6.10263 0
M  V30 16147 H 1502.42 2.30736 5.24818 0
M  V30 16148 H 1500.81 3.09157 5.14336 0
M  V30 16149 H 1501.88 3.09857 3.72984 0
M  V30 16150 N 1503.23 -1.30138 0.888926 0
M  V30 16151 C 1504.64 -1.48552 0.583486 0
M  V30 16152 C 1504.84 -1.81376 -0.877781 0
M  V30 16153 O 1503.9 -1.90374 -1.65873 0
M  V30 16154 C 1505.21 -2.60613 1.50004 0
M  V30 16155 C 1506.76 -2.74493 1.50409 0
M  V30 16156 C 1507.24 -3.89672 2.40666 0
M  V30 16157 N 1508.73 -3.96988 2.38652 0
M  V30 16158 C 1509.46 -4.85429 3.05199 0
M  V30 16159 N 1508.96 -5.78638 3.80985 0
M  V30 16160 N 1510.75 -4.78831 2.9441 0
M  V30 16161 H 1502.9 -1.07105 1.83418 0
M  V30 16162 H 1505.16 -0.530991 0.785336 0
M  V30 16163 H 1504.87 -2.43191 2.54069 0
M  V30 16164 H 1504.74 -3.5718 1.21254 0
M  V30 16165 H 1507.13 -2.91318 0.470933 0
M  V30 16166 H 1507.21 -1.78535 1.83191 0
M  V30 16167 H 1506.86 -3.73603 3.44069 0
M  V30 16168 H 1506.79 -4.84975 2.05198 0
M  V30 16169 H 1509.28 -3.30313 1.83581 0
M  V30 16170 H 1509.59 -6.42894 4.28844 0
M  V30 16171 H 1507.94 -5.78558 3.85092 0
M  V30 16172 H 1511.13 -4.04995 2.34727 0
M  V30 16173 H 1511.3 -5.47547 3.46549 0
M  V30 16174 N 1504.71 -0.650285 -1.43559 0
M  V30 16175 C 1505.95 -0.162725 -2.02146 0
M  V30 16176 C 1506.28 1.21911 -1.51166 0
M  V30 16177 O 1505.56 1.81329 -0.703563 0
M  V30 16178 C 1505.84 -0.170356 -3.59697 0
M  V30 16179 C 1505.7 -1.5859 -4.20915 0
M  V30 16180 C 1507.01 0.494831 -4.37309 0
M  V30 16181 H 1504.13 -0.0606055 -0.734504 0
M  V30 16182 H 1506.78 -0.830411 -1.70892 0
M  V30 16183 H 1504.93 0.39819 -3.86454 0
M  V30 16184 H 1506.6 -2.20481 -4.05199 0
M  V30 16185 H 1504.84 -2.13407 -3.77677 0
M  V30 16186 H 1505.51 -1.54312 -5.29992 0
M  V30 16187 H 1507.99 0.0111281 -4.16099 0
M  V30 16188 H 1506.86 0.458753 -5.4698 0
M  V30 16189 H 1507.12 1.56846 -4.13342 0
M  V30 16190 N 1506.18 1.52647 -0.392018 0
M  V30 16191 C 1507.11 2.29446 0.433228 0
M  V30 16192 C 1508.09 1.32945 1.06111 0
M  V30 16193 O 1509.28 1.61841 1.07337 0
M  V30 16194 C 1506.41 3.10328 1.55929 0
M  V30 16195 C 1505.36 4.14735 1.05731 0
M  V30 16196 C 1504.69 4.83858 2.27565 0
M  V30 16197 C 1505.99 5.22154 0.123346 0
M  V30 16198 H 1507.68 2.9868 -0.207563 0
M  V30 16199 H 1505.23 1.43643 -0.101266 0
M  V30 16200 H 1507.18 3.62814 2.14346 0
M  V30 16201 H 1505.91 2.38832 2.22771 0
M  V30 16202 H 1504.57 3.63234 0.495653 0
M  V30 16203 H 1504.21 4.08907 2.92923 0
M  V30 16204 H 1503.91 5.54428 1.94637 0
M  V30 16205 H 1505.44 5.39149 2.86619 0
M  V30 16206 H 1506.85 5.69983 0.615784 0
M  V30 16207 H 1505.25 5.99987 -0.116304 0
M  V30 16208 H 1506.32 4.77796 -0.826969 0
M  V30 16209 N 1507.66 0.121921 1.57128 0
M  V30 16210 C 1509.08 -0.234655 1.57866 0
M  V30 16211 C 1509.28 -1.66506 1.13482 0
M  V30 16212 O 1508.33 -2.38692 0.823544 0
M  V30 16213 C 1509.65 0.00131784 3.007 0
M  V30 16214 C 1511.2 -0.0643537 3.12934 0
M  V30 16215 C 1511.67 0.143964 4.57774 0
M  V30 16216 N 1513.16 0.0900323 4.63112 0
M  V30 16217 C 1513.9 0.22608 5.72954 0
M  V30 16218 N 1513.39 0.418461 6.91535 0
M  V30 16219 N 1515.19 0.165449 5.61856 0
M  V30 16220 H 1507.34 1.05618 1.84279 0
M  V30 16221 H 1509.6 0.416132 0.851785 0
M  V30 16222 H 1509.31 0.99031 3.3747 0
M  V30 16223 H 1509.18 -0.729266 3.70083 0
M  V30 16224 H 1511.57 -1.04387 2.7602 0
M  V30 16225 H 1511.65 0.698157 2.46088 0
M  V30 16226 H 1511.29 1.12047 4.95387 0
M  V30 16227 H 1511.22 -0.638569 5.22714 0
M  V30 16228 H 1513.71 -0.0550269 3.7786 0
M  V30 16229 H 1514.03 0.513057 7.71095 0
M  V30 16230 H 1512.37 0.454471 6.93512 0
M  V30 16231 H 1515.56 0.0160945 4.68097 0
M  V30 16232 H 1515.73 0.274917 6.47417 0
M  V30 16233 N 1509.14 -1.56867 -0.151857 0
M  V30 16234 C 1510.39 -1.83353 -0.866566 0
M  V30 16235 C 1510.72 -0.702784 -1.81038 0
M  V30 16236 O 1509.99 0.293944 -1.92266 0
M  V30 16237 C 1510.28 -3.20316 -1.64529 0
M  V30 16238 C 1510.13 -4.43946 -0.723297 0
M  V30 16239 C 1511.45 -3.54441 -2.60882 0
M  V30 16240 H 1508.57 -0.666957 -0.313588 0
M  V30 16241 H 1511.21 -1.89541 -0.131954 0
M  V30 16242 H 1509.36 -3.15172 -2.27154 0
M  V30 16243 H 1511.03 -4.61173 -0.10842 0
M  V30 16244 H 1509.28 -4.33788 -0.0325582 0
M  V30 16245 H 1509.95 -5.36374 -1.3041 0
M  V30 16246 H 1512.42 -3.60164 -2.08377 0
M  V30 16247 H 1511.3 -4.51314 -3.12422 0
M  V30 16248 H 1511.56 -2.80146 -3.42009 0
M  V30 16249 N 1510.62 0.421051 -1.51871 0
M  V30 16250 C 1511.55 1.51928 -1.77313 0
M  V30 16251 C 1512.53 1.58258 -0.623579 0
M  V30 16252 O 1513.71 1.73724 -0.867967 0
M  V30 16253 C 1510.84 2.89865 -1.913 0
M  V30 16254 C 1509.8 2.98391 -3.06834 0
M  V30 16255 C 1509.12 4.38466 -3.06026 0
M  V30 16256 C 1510.42 2.7097 -4.46511 0
M  V30 16257 H 1512.12 1.30889 -2.69274 0
M  V30 16258 H 1509.66 0.628229 -1.29573 0
M  V30 16259 H 1511.62 3.66669 -2.07682 0
M  V30 16260 H 1510.34 3.12172 -0.960011 0
M  V30 16261 H 1509 2.24029 -2.90184 0
M  V30 16262 H 1508.65 4.57764 -2.08472 0
M  V30 16263 H 1508.35 4.45097 -3.83618 0
M  V30 16264 H 1509.87 5.17221 -3.24522 0
M  V30 16265 H 1511.29 3.37501 -4.63428 0
M  V30 16266 H 1509.68 2.88992 -5.25931 0
M  V30 16267 H 1510.75 1.66476 -4.55427 0
M  V30 16268 N 1512.1 1.42293 0.677538 0
M  V30 16269 C 1513.51 1.25158 0.990334 0
M  V30 16270 C 1513.71 0.153803 2.00912 0
M  V30 16271 O 1512.77 -0.475868 2.47975 0
M  V30 16272 C 1514.08 2.60745 1.49775 0
M  V30 16273 C 1515.63 2.68077 1.61566 0
M  V30 16274 C 1516.1 4.04024 2.15705 0
M  V30 16275 N 1517.6 4.05964 2.23042 0
M  V30 16276 C 1518.33 5.07968 2.66 0
M  V30 16277 N 1517.83 6.20356 3.08432 0
M  V30 16278 N 1519.62 4.95325 2.65725 0
M  V30 16279 H 1511.77 2.124 0.00295822 0
M  V30 16280 H 1514.03 0.945848 0.06384 0
M  V30 16281 H 1513.74 3.41919 0.823672 0
M  V30 16282 H 1513.61 2.84476 2.47695 0
M  V30 16283 H 1516 1.87251 2.28082 0
M  V30 16284 H 1516.08 2.48137 0.621434 0
M  V30 16285 H 1515.73 4.85306 1.498 0
M  V30 16286 H 1515.66 4.21314 3.15914 0
M  V30 16287 H 1518.15 3.24827 1.93122 0
M  V30 16288 H 1518.46 6.94043 3.39889 0
M  V30 16289 H 1516.8 6.23865 3.06296 0
M  V30 16290 H 1520 4.06599 2.31936 0
M  V30 16291 H 1520.17 5.74954 2.98884 0
M  V30 16292 N 1513.57 -0.913576 1.28419 0
M  V30 16293 C 1514.99 -1.47782 1.14094 0
M  V30 16294 C 1515.34 -1.94347 -0.269004 0
M  V30 16295 O 1514.46 -1.82474 -1.16328 0
M  V30 16296 C 1515.06 -2.6859 2.06507 0
M  V30 16297 C 1513.62 -3.21193 1.96245 0
M  V30 16298 C 1512.76 -1.939 1.98238 0
M  V30 16299 H 1515.71 -0.726271 1.41106 0
M  V30 16300 H 1515.73 -3.43858 1.62916 0
M  V30 16301 H 1515.25 -2.34668 3.09116 0
M  V30 16302 H 1513.35 -3.5984 0.966737 0
M  V30 16303 H 1513.46 -3.8643 2.83211 0
M  V30 16304 H 1511.82 -2.11006 1.42648 0
M  V30 16305 H 1512.61 -1.62273 3.02527 0
M  V30 16306 N 1515.05 -1.1067 -1.12204 0
M  V30 16307 C 1515.98 -0.779829 -2.20093 0
M  V30 16308 C 1516.96 0.248279 -1.68278 0
M  V30 16309 O 1518.15 0.113511 -1.93868 0
M  V30 16310 C 1515.28 -0.213511 -3.46643 0
M  V30 16311 C 1514.23 -1.17258 -4.11624 0
M  V30 16312 C 1513.56 -0.467352 -5.32654 0
M  V30 16313 C 1514.86 -2.52014 -4.57478 0
M  V30 16314 H 1516.55 -1.68192 -2.47693 0
M  V30 16315 H 1514.1 -0.810131 -1.1905 0
M  V30 16316 H 1516.05 0.0273225 -4.21391 0
M  V30 16317 H 1514.78 0.723837 -3.18478 0
M  V30 16318 H 1513.43 -1.39891 -3.3886 0
M  V30 16319 H 1513.08 0.474547 -5.00756 0
M  V30 16320 H 1512.78 -1.10694 -5.77079 0
M  V30 16321 H 1514.31 -0.235122 -6.10147 0
M  V30 16322 H 1515.72 -2.33516 -5.23587 0
M  V30 16323 H 1514.12 -3.1188 -5.1269 0
M  V30 16324 H 1515.19 -3.11831 -3.71335 0
M  V30 16325 N 1516.53 1.29665 -0.895815 0
M  V30 16326 C 1517.95 1.4824 -0.591355 0
M  V30 16327 C 1518.15 1.81839 0.86815 0
M  V30 16328 O 1517.2 1.91251 1.64861 0
M  V30 16329 C 1518.52 2.59814 -1.51384 0
M  V30 16330 C 1520.06 2.73691 -1.51862 0
M  V30 16331 C 1520.54 3.8839 -2.42729 0
M  V30 16332 N 1522.03 3.95717 -2.40754 0
M  V30 16333 C 1522.76 4.83804 -3.07769 0
M  V30 16334 N 1522.26 5.7661 -3.84048 0
M  V30 16335 N 1524.05 4.77263 -2.96946 0
M  V30 16336 H 1516.2 1.06131 -1.83984 0
M  V30 16337 H 1518.47 0.526819 -0.788141 0
M  V30 16338 H 1518.17 2.4184 -2.55355 0
M  V30 16339 H 1518.05 3.56532 -1.23147 0
M  V30 16340 H 1520.43 2.91064 -0.486375 0
M  V30 16341 H 1520.52 1.77561 -1.84135 0
M  V30 16342 H 1520.16 3.71773 -3.46045 0
M  V30 16343 H 1520.09 4.8388 -2.07767 0
M  V30 16344 H 1522.58 3.29334 -1.8533 0
M  V30 16345 H 1522.89 6.40611 -4.32247 0
M  V30 16346 H 1521.24 5.76507 -3.88155 0
M  V30 16347 H 1524.43 4.03744 -2.36871 0
M  V30 16348 H 1524.6 5.45701 -3.49448 0
M  V30 16349 N 1518.01 0.657889 1.43212 0
M  V30 16350 C 1518.97 -0.0214783 2.2919 0
M  V30 16351 C 1519.97 -0.745921 1.42452 0
M  V30 16352 O 1521.16 -0.586468 1.64031 0
M  V30 16353 C 1518.29 -1.04115 3.24612 0
M  V30 16354 H 1519.49 0.735072 2.90752 0
M  V30 16355 H 1517.04 0.419354 1.50569 0
M  V30 16356 H 1517.77 -1.82677 2.67954 0
M  V30 16357 H 1517.56 -0.525285 3.88566 0
M  V30 16358 H 1519.05 -1.51544 3.89132 0
M  V30 16359 N 1519.49 -1.52437 0.400108 0
M  V30 16360 C 1520.74 -2.00896 -0.179909 0
M  V30 16361 C 1521.05 -1.29046 -1.46991 0
M  V30 16362 O 1522.25 -1.68274 -2.13063 0
M  V30 16363 C 1520.71 -3.57981 -0.371169 0
M  V30 16364 C 1520.32 -4.38739 0.906213 0
M  V30 16365 C 1522.06 -4.14698 -0.906965 0
M  V30 16366 C 1519.97 -5.87447 0.682637 0
M  V30 16367 H 1518.9 -0.750649 -0.071008 0
M  V30 16368 H 1521.55 -1.75854 0.524169 0
M  V30 16369 H 1519.93 -3.79315 -1.13736 0
M  V30 16370 H 1521.11 -4.29167 1.67785 0
M  V30 16371 H 1519.42 -3.93296 1.36776 0
M  V30 16372 H 1522.02 -5.2347 -1.09012 0
M  V30 16373 H 1522.36 -3.71477 -1.87911 0
M  V30 16374 H 1522.89 -3.97297 -0.200068 0
M  V30 16375 H 1519.63 -6.35011 1.62608 0
M  V30 16376 H 1519.15 -5.99779 -0.0498716 0
M  V30 16377 H 1520.83 -6.46202 0.321331 0
M  V30 16378 N 1520.96 -0.130252 -1.57061 0
M  V30 16379 C 1521.91 0.832998 -2.17173 0
M  V30 16380 C 1522.91 1.26735 -1.12403 0
M  V30 16381 O 1524.11 1.23778 -1.30686 0
M  V30 16382 H 1520.49 0.286777 -0.695171 0
M  V30 16383 H 1522.46 0.301639 -2.96872 0
M  V30 16384 C 1521.21 2.06879 -2.79457 0
M  V30 16385 H 1520.53 1.74352 -3.5978 0
M  V30 16386 H 1521.97 2.72258 -3.25041 0
M  V30 16387 C 1520.43 2.86591 -1.77108 0
M  V30 16388 O 1520.96 3.82363 -1.2313 0
M  V30 16389 N 1519.17 2.508 -1.46792 0
M  V30 16390 H 1518.71 1.72984 -1.90878 0
M  V30 16391 H 1518.67 3.04428 -0.785566 0
M  V30 16392 N 1522.44 1.56945 0.143535 0
M  V30 16393 C 1523.86 1.51688 0.496291 0
M  V30 16394 C 1524.06 0.839251 1.83191 0
M  V30 16395 O 1523.12 0.411235 2.49129 0
M  V30 16396 C 1524.43 2.96456 0.503402 0
M  V30 16397 C 1525.98 3.07414 0.588676 0
M  V30 16398 C 1526.45 4.53696 0.626416 0
M  V30 16399 N 1527.94 4.58054 0.688543 0
M  V30 16400 C 1528.68 5.68621 0.738786 0
M  V30 16401 N 1528.17 6.88748 0.748163 0
M  V30 16402 N 1529.97 5.56663 0.779931 0
M  V30 16403 H 1522.12 1.99392 -0.731901 0
M  V30 16404 H 1524.38 0.909546 -0.267263 0
M  V30 16405 H 1524.09 3.49304 -0.409845 0
M  V30 16406 H 1523.96 3.52593 1.34008 0
M  V30 16407 H 1526.35 2.54584 1.49234 0
M  V30 16408 H 1526.43 2.54315 -0.275213 0
M  V30 16409 H 1526.07 5.07165 -0.273108 0
M  V30 16410 H 1526 5.04581 1.50684 0
M  V30 16411 H 1528.49 3.71576 0.688455 0
M  V30 16412 H 1528.81 7.68767 0.788444 0
M  V30 16413 H 1527.15 6.91302 0.715982 0
M  V30 16414 H 1530.34 4.61727 0.769799 0
M  V30 16415 H 1530.52 6.42847 0.815621 0
M  V30 16416 N 1523.92 -0.412991 1.52093 0
M  V30 16417 C 1524.88 -1.48555 1.7454 0
M  V30 16418 C 1525.88 -1.48563 0.615283 0
M  V30 16419 O 1527.07 -1.50155 0.883119 0
M  V30 16420 C 1524.21 -2.87984 1.82423 0
M  V30 16421 H 1525.4 -1.29945 2.70285 0
M  V30 16422 H 1522.95 -0.643241 1.4245 0
M  V30 16423 H 1523.69 -3.11969 0.885777 0
M  V30 16424 H 1523.47 -2.89381 2.64577 0
M  V30 16425 H 1524.96 -3.65745 2.01545 0
M  V30 16426 N 1525.4 -1.4265 -0.669982 0
M  V30 16427 C 1526.35 -1.46504 -1.7834 0
M  V30 16428 C 1527.32 -0.316478 -1.63057 0
M  V30 16429 O 1528.5 -0.521245 -1.83542 0
M  V30 16430 C 1525.64 -1.37784 -3.16401 0
M  V30 16431 C 1524.75 -2.62714 -3.42937 0
M  V30 16432 C 1523.89 -2.46101 -4.70752 0
M  V30 16433 C 1522.93 -3.66381 -4.90338 0
M  V30 16434 N 1522.07 -3.48681 -6.09398 0
M  V30 16435 H 1526.91 -2.41651 -1.74381 0
M  V30 16436 H 1524.44 -1.1997 -0.851215 0
M  V30 16437 H 1526.4 -1.30725 -3.9619 0
M  V30 16438 H 1525.03 -0.462291 -3.19473 0
M  V30 16439 H 1524.08 -2.8012 -2.57366 0
M  V30 16440 H 1525.39 -3.52108 -3.53301 0
M  V30 16441 H 1524.55 -2.36655 -5.58641 0
M  V30 16442 H 1523.29 -1.54204 -4.6268 0
M  V30 16443 H 1522.29 -3.76254 -4.00891 0
M  V30 16444 H 1523.52 -4.59265 -5.00253 0
M  V30 16445 H 1521.46 -2.59505 -6.02489 0
M  V30 16446 H 1521.38 -4.31666 -6.20645 0
M  V30 16447 H 1522.65 -3.43056 -6.99952 0
M  V30 16448 N 1526.88 0.906753 -1.28902 0
M  V30 16449 C 1528.13 1.6533 -1.16234 0
M  V30 16450 C 1528.45 1.92861 0.288004 0
M  V30 16451 O 1527.72 1.54971 1.19837 0
M  V30 16452 H 1526.3 0.612806 -0.427174 0
M  V30 16453 H 1528.96 1.08764 -1.6173 0
M  V30 16454 H 1528.05 2.61271 -1.70715 0
M  V30 16455 N 1528.36 1.11264 1.11616 0
M  V30 16456 C 1529.29 0.79149 2.19676 0
M  V30 16457 C 1530.27 -0.239351 1.68408 0
M  V30 16458 O 1531.45 -0.103228 1.93925 0
M  V30 16459 C 1528.58 0.231891 3.46525 0
M  V30 16460 C 1527.54 1.19439 4.10997 0
M  V30 16461 C 1526.86 0.495593 5.32398 0
M  V30 16462 C 1528.16 2.54437 4.56135 0
M  V30 16463 H 1529.86 1.69503 2.46797 0
M  V30 16464 H 1527.4 0.816433 1.18619 0
M  V30 16465 H 1529.35 -0.00497468 4.214 0
M  V30 16466 H 1528.08 -0.706938 3.18857 0
M  V30 16467 H 1526.74 1.41686 3.38113 0
M  V30 16468 H 1526.39 -0.447984 5.01001 0
M  V30 16469 H 1526.09 1.13753 5.76484 0
M  V30 16470 H 1527.61 0.267476 6.10014 0
M  V30 16471 H 1529.02 2.36289 5.22341 0
M  V30 16472 H 1527.42 3.14595 5.11028 0
M  V30 16473 H 1528.49 3.13795 3.69676 0
M  V30 16474 N 1529.83 -1.29188 0.902679 0
M  V30 16475 C 1530.78 -2.27632 0.381088 0
M  V30 16476 C 1531.75 -1.57131 -0.538431 0
M  V30 16477 O 1532.94 -1.85096 -0.463027 0
M  V30 16478 C 1530.08 -3.42971 -0.382701 0
M  V30 16479 C 1529.19 -4.28249 0.568054 0
M  V30 16480 C 1528.32 -5.30772 -0.213082 0
M  V30 16481 C 1527.36 -6.07707 0.732004 0
M  V30 16482 N 1526.5 -7.02098 -0.0149139 0
M  V30 16483 H 1531.34 -2.71628 1.22566 0
M  V30 16484 H 1528.88 -1.33594 0.615724 0
M  V30 16485 H 1530.83 -4.08623 -0.841619 0
M  V30 16486 H 1529.46 -2.99997 -1.19171 0
M  V30 16487 H 1528.52 -3.62743 1.14549 0
M  V30 16488 H 1529.83 -4.81794 1.29136 0
M  V30 16489 H 1528.98 -6.02255 -0.733065 0
M  V30 16490 H 1527.72 -4.77966 -0.969504 0
M  V30 16491 H 1526.73 -5.35086 1.26346 0
M  V30 16492 H 1527.95 -6.62602 1.4878 0
M  V30 16493 H 1525.9 -6.51658 -0.753548 0
M  V30 16494 H 1525.81 -7.53214 0.648423 0
M  V30 16495 H 1527.08 -7.77796 -0.515062 0
M  V30 16496 N 1531.31 -0.665475 -1.42861 0
M  V30 16497 C 1532.26 0.0411925 -2.27963 0
M  V30 16498 C 1533.25 0.782763 -1.40576 0
M  V30 16499 O 1534.44 0.66321 -1.64105 0
M  V30 16500 C 1531.57 0.998333 -3.28463 0
M  V30 16501 C 1530.65 0.254595 -4.23335 0
M  V30 16502 N 1531.04 -0.735508 -5.00424 0
M  V30 16503 C 1529.34 0.494345 -4.43252 0
M  V30 16504 C 1530.04 -1.17807 -5.69646 0
M  V30 16505 N 1529.02 -0.509865 -5.41204 0
M  V30 16506 H 1532.82 -0.718381 -2.84985 0
M  V30 16507 H 1530.33 -0.493763 -1.54712 0
M  V30 16508 H 1532.33 1.51949 -3.88223 0
M  V30 16509 H 1530.99 1.75783 -2.73002 0
M  V30 16510 H 1532 -1.1147 -5.05762 0
M  V30 16511 H 1528.68 1.23407 -3.98845 0
M  V30 16512 H 1530.07 -1.998 -6.41506 0
M  V30 16513 N 1532.79 1.52222 -0.408187 0
M  V30 16514 C 1534.04 2.02102 0.168154 0
M  V30 16515 C 1534.37 1.2933 1.4487 0
M  V30 16516 O 1533.64 0.399336 1.90356 0
M  V30 16517 C 1533.93 3.57679 0.416821 0
M  V30 16518 C 1533.78 4.41101 -0.880335 0
M  V30 16519 C 1535.1 4.23442 1.19936 0
M  V30 16520 H 1532.22 0.734583 0.0596402 0
M  V30 16521 H 1534.86 1.82121 -0.541467 0
M  V30 16522 H 1533.01 3.74835 1.02131 0
M  V30 16523 H 1534.68 4.35658 -1.51656 0
M  V30 16524 H 1532.92 4.07353 -1.49152 0
M  V30 16525 H 1533.6 5.48031 -0.660748 0
M  V30 16526 H 1536.07 4.10379 0.687605 0
M  V30 16527 H 1534.95 5.32239 1.3421 0
M  V30 16528 H 1535.21 3.82335 2.21973 0
M  V30 16529 N 1534.27 0.138579 1.5699 0
M  V30 16530 C 1535.51 -0.51539 1.96142 0
M  V30 16531 C 1535.85 -1.65067 1.02306 0
M  V30 16532 O 1535.12 -1.94395 0.0638645 0
M  V30 16533 C 1535.4 -1.02956 3.45068 0
M  V30 16534 C 1535.26 0.103646 4.49681 0
M  V30 16535 C 1536.58 -1.91411 3.96295 0
M  V30 16536 H 1533.7 -0.185873 0.713176 0
M  V30 16537 H 1536.34 0.218103 1.88744 0
M  V30 16538 H 1534.49 -1.65462 3.51503 0
M  V30 16539 H 1536.16 0.739693 4.55331 0
M  V30 16540 H 1534.4 0.764014 4.27019 0
M  V30 16541 H 1535.07 -0.297688 5.51197 0
M  V30 16542 H 1537.55 -1.38746 3.92286 0
M  V30 16543 H 1536.43 -2.24298 5.0098 0
M  V30 16544 H 1536.69 -2.84793 3.38149 0
M  V30 16545 N 1535.75 -1.57019 -0.13521 0
M  V30 16546 C 1536.68 -1.95769 -1.19193 0
M  V30 16547 C 1537.69 -0.854953 -1.38544 0
M  V30 16548 O 1538.88 -1.13332 -1.37906 0
M  V30 16549 C 1535.98 -2.22674 -2.55479 0
M  V30 16550 C 1535.15 -3.53972 -2.56949 0
M  V30 16551 C 1534.21 -3.69278 -3.7486 0
M  V30 16552 O 1533.24 -4.41555 -3.59191 0
M  V30 16553 N 1534.44 -3.06826 -4.92786 0
M  V30 16554 H 1537.2 -2.87022 -0.862451 0
M  V30 16555 H 1534.77 -1.58611 -0.324658 0
M  V30 16556 H 1536.76 -2.30144 -3.3289 0
M  V30 16557 H 1535.33 -1.37628 -2.80673 0
M  V30 16558 H 1534.55 -3.57836 -1.65368 0
M  V30 16559 H 1535.84 -4.40303 -2.54973 0
M  V30 16560 H 1535.23 -2.48043 -5.0842 0
M  V30 16561 H 1533.79 -3.19841 -5.67931 0
M  V30 16562 N 1537.22 0.404919 -1.52309 0
M  V30 16563 C 1538.46 1.1606 -1.68254 0
M  V30 16564 C 1538.83 1.87663 -0.405788 0
M  V30 16565 O 1540.03 2.65151 -0.441388 0
M  V30 16566 C 1538.3 2.12531 -2.87342 0
M  V30 16567 S 1539.86 2.9615 -3.23791 0
M  V30 16568 H 1536.68 0.393113 -0.592438 0
M  V30 16569 H 1539.28 0.4473 -1.90314 0
M  V30 16570 H 1537.98 1.58623 -3.78506 0
M  V30 16571 H 1537.51 2.88395 -2.67567 0
M  V30 16572 H 1539.53 4.14521 -2.7274 0
M  V30 16573 N 1538.7 1.43003 0.662408 0
M  V30 16574 C 1539.95 1.44346 1.4245 0
M  V30 16575 C 1540.28 0.064094 1.94094 0
M  V30 16576 O 1539.56 -0.913633 1.71706 0
M  V30 16577 C 1539.84 2.47822 2.61259 0
M  V30 16578 C 1539.69 3.94998 2.15166 0
M  V30 16579 C 1541.01 2.48139 3.63476 0
M  V30 16580 H 1538.13 0.525606 0.51663 0
M  V30 16581 H 1540.77 1.74495 0.751754 0
M  V30 16582 H 1538.92 2.22244 3.18653 0
M  V30 16583 H 1540.59 4.31601 1.62843 0
M  V30 16584 H 1538.84 4.0827 1.46622 0
M  V30 16585 H 1539.51 4.62998 3.00561 0
M  V30 16586 H 1541.98 2.70916 3.15823 0
M  V30 16587 H 1540.86 3.22498 4.44169 0
M  V30 16588 H 1541.12 1.51184 4.15447 0
M  V30 16589 N 1540.18 -0.899904 1.29381 0
M  V30 16590 C 1541.43 -1.65038 1.17341 0
M  V30 16591 C 1541.76 -1.92544 -0.275135 0
M  V30 16592 O 1541.01 -1.53402 -1.21517 0
M  V30 16593 C 1541.31 -3.0069 1.93185 0
M  V30 16594 C 1540.98 -2.92792 3.42905 0
M  V30 16595 C 1539.64 -2.90345 3.83736 0
M  V30 16596 C 1541.99 -2.82015 4.38312 0
M  V30 16597 C 1539.32 -2.7494 5.1829 0
M  V30 16598 C 1541.67 -2.68149 5.72956 0
M  V30 16599 C 1540.33 -2.64068 6.13045 0
M  V30 16600 H 1539.6 -0.603915 0.42938 0
M  V30 16601 H 1542.25 -1.04743 1.60316 0
M  V30 16602 H 1540.56 -3.6485 1.428 0
M  V30 16603 H 1542.25 -3.57688 1.81274 0
M  V30 16604 H 1538.84 -2.95498 3.10449 0
M  V30 16605 H 1543.03 -2.82982 4.07719 0
M  V30 16606 H 1538.28 -2.70186 5.48461 0
M  V30 16607 H 1542.46 -2.58781 6.46533 0
M  V30 16608 H 1540.08 -2.51889 7.17256 0
M  V30 16609 N 1541.66 -1.11854 -1.11024 0
M  V30 16610 C 1542.9 -0.871362 -1.83126 0
M  V30 16611 C 1543.24 0.601437 -1.84652 0
M  V30 16612 O 1542.51 1.44427 -1.30273 0
M  V30 16613 C 1542.8 -1.4391 -3.30094 0
M  V30 16614 C 1542.65 -2.97983 -3.36937 0
M  V30 16615 C 1543.97 -1.09361 -4.26296 0
M  V30 16616 H 1541.09 -0.317994 -0.664867 0
M  V30 16617 H 1543.73 -1.38414 -1.3016 0
M  V30 16618 H 1541.88 -1.00297 -3.7533 0
M  V30 16619 H 1543.55 -3.50231 -3.00227 0
M  V30 16620 H 1541.79 -3.33827 -2.77023 0
M  V30 16621 H 1542.46 -3.32797 -4.40398 0
M  V30 16622 H 1544.94 -1.47018 -3.89262 0
M  V30 16623 H 1543.82 -1.51756 -5.27505 0
M  V30 16624 H 1544.08 -0.0049637 -4.421 0
M  V30 16625 N 1543.14 1.28707 -0.909517 0
M  V30 16626 C 1544.1 2.25692 -0.39946 0
M  V30 16627 C 1545.1 1.53721 0.471848 0
M  V30 16628 O 1546.29 1.72008 0.275504 0
M  V30 16629 C 1543.42 3.38205 0.427793 0
M  V30 16630 H 1544.61 2.72326 -1.25613 0
M  V30 16631 H 1542.17 1.40317 -0.688535 0
M  V30 16632 H 1542.9 2.96926 1.30404 0
M  V30 16633 H 1542.69 3.91606 -0.19667 0
M  V30 16634 H 1544.18 4.10334 0.775634 0
M  V30 16635 N 1544.61 0.673042 1.42506 0
M  V30 16636 C 1545.86 0.1918 2.00786 0
M  V30 16637 C 1546.18 -1.20814 1.53829 0
M  V30 16638 O 1547.38 -1.78566 2.04515 0
M  V30 16639 C 1545.84 0.292045 3.58713 0
M  V30 16640 C 1545.45 1.69593 4.14659 0
M  V30 16641 C 1547.19 -0.130575 4.24299 0
M  V30 16642 C 1545.1 1.74904 5.64945 0
M  V30 16643 H 1544.03 0.0679452 0.750932 0
M  V30 16644 H 1546.68 0.837968 1.63249 0
M  V30 16645 H 1545.06 -0.421985 3.93745 0
M  V30 16646 H 1546.23 2.4369 3.9109 0
M  V30 16647 H 1544.55 2.06625 3.61518 0
M  V30 16648 H 1547.15 -0.11102 5.34585 0
M  V30 16649 H 1547.49 -1.16552 3.99651 0
M  V30 16650 H 1548.02 0.532386 3.94221 0
M  V30 16651 H 1544.76 2.76374 5.94388 0
M  V30 16652 H 1544.28 1.0516 5.9051 0
M  V30 16653 H 1545.96 1.50168 6.29332 0
M  V30 16654 N 1546.09 -1.52004 0.416254 0
M  V30 16655 C 1547.51 -1.59457 0.0674775 0
M  V30 16656 C 1547.71 -1.42865 -1.42098 0
M  V30 16657 O 1546.76 -1.2592 -2.18862 0
M  V30 16658 C 1548.08 -2.95272 0.56876 0
M  V30 16659 C 1549.63 -3.08525 0.527356 0
M  V30 16660 C 1550.1 -4.46832 1.00526 0
M  V30 16661 N 1551.59 -4.53092 0.962377 0
M  V30 16662 C 1552.33 -5.58393 1.30327 0
M  V30 16663 N 1551.82 -6.71212 1.71597 0
M  V30 16664 N 1553.62 -5.48639 1.22278 0
M  V30 16665 H 1545.77 -1.61036 1.38496 0
M  V30 16666 H 1548.03 -0.75795 0.569399 0
M  V30 16667 H 1547.74 -3.12717 1.60937 0
M  V30 16668 H 1547.61 -3.77196 -0.0177595 0
M  V30 16669 H 1550 -2.9076 -0.504225 0
M  V30 16670 H 1550.08 -2.28491 1.15002 0
M  V30 16671 H 1549.72 -4.6534 2.03521 0
M  V30 16672 H 1549.65 -5.25373 0.359345 0
M  V30 16673 H 1552.14 -3.72109 0.65904 0
M  V30 16674 H 1552.46 -7.47558 1.95901 0
M  V30 16675 H 1550.8 -6.72475 1.75507 0
M  V30 16676 H 1553.99 -4.59383 0.899175 0
M  V30 16677 H 1554.16 -6.30596 1.49175 0
M  V30 16678 N 1547.57 -0.146903 -1.56914 0
M  V30 16679 C 1548.8 0.511181 -2.00486 0
M  V30 16680 C 1549.21 1.58425 -1.02699 0
M  V30 16681 O 1548.57 1.82484 -0.0239878 0
M  V30 16682 C 1548.62 1.11191 -3.43975 0
M  V30 16683 O 1548.34 0.0817094 -4.38024 0
M  V30 16684 C 1549.84 1.85061 -4.02824 0
M  V30 16685 H 1547.06 0.133078 -0.657671 0
M  V30 16686 H 1549.61 -0.241457 -2.0307 0
M  V30 16687 H 1547.76 1.81517 -3.42243 0
M  V30 16688 H 1548.18 0.52181 -5.21898 0
M  V30 16689 H 1549.65 2.22385 -5.05222 0
M  V30 16690 H 1550.13 2.73649 -3.4353 0
M  V30 16691 H 1550.73 1.19434 -4.08186 0
M  V30 16692 N 1549.05 1.57088 0.126881 0
M  V30 16693 C 1550.3 1.83624 0.834582 0
M  V30 16694 C 1550.61 0.731331 1.81414 0
M  V30 16695 O 1551.82 0.88286 2.56745 0
M  V30 16696 C 1550.27 3.25529 1.5349 0
M  V30 16697 C 1549.88 4.44008 0.59673 0
M  V30 16698 C 1551.62 3.6132 2.22819 0
M  V30 16699 C 1549.53 5.76939 1.29982 0
M  V30 16700 H 1548.46 0.684858 0.315414 0
M  V30 16701 H 1551.11 1.83292 0.087305 0
M  V30 16702 H 1549.49 3.20306 2.32852 0
M  V30 16703 H 1550.67 4.60511 -0.163109 0
M  V30 16704 H 1548.98 4.16399 0.0108081 0
M  V30 16705 H 1551.58 4.57902 2.76098 0
M  V30 16706 H 1551.92 2.88363 3.00254 0
M  V30 16707 H 1552.46 3.68291 1.50354 0
M  V30 16708 H 1549.2 6.53044 0.566925 0
M  V30 16709 H 1548.72 5.64336 2.03187 0
M  V30 16710 H 1550.39 6.20427 1.8352 0
M  V30 16711 N 1550.53 -0.396836 1.52522 0
M  V30 16712 C 1551.77 -1.14037 1.66853 0
M  V30 16713 C 1552.1 -1.90706 0.406987 0
M  V30 16714 O 1551.37 -1.87165 -0.578443 0
M  V30 16715 H 1549.95 -0.423967 0.615029 0
M  V30 16716 H 1552.61 -0.451042 1.89609 0
M  V30 16717 H 1551.7 -1.84763 2.51533 0
M  V30 16718 N 1552.01 -1.43353 -0.654814 0
M  V30 16719 C 1552.95 -1.48652 -1.789 0
M  V30 16720 C 1553.95 -0.360274 -1.65525 0
M  V30 16721 O 1555.15 -0.534194 -1.71891 0
M  V30 16722 H 1551.53 -0.465987 -0.590221 0
M  V30 16723 H 1553.5 -2.44158 -1.7155 0
M  V30 16724 C 1552.25 -1.42512 -3.17152 0
M  V30 16725 H 1551.57 -2.28479 -3.28081 0
M  V30 16726 H 1553.01 -1.50282 -3.96474 0
M  V30 16727 C 1551.47 -0.142511 -3.36598 0
M  V30 16728 O 1552 0.796821 -3.93718 0
M  V30 16729 N 1550.21 -0.0532157 -2.90551 0
M  V30 16730 H 1549.75 -0.818421 -2.44253 0
M  V30 16731 H 1549.71 0.80427 -3.03939 0
M  V30 16732 N 1553.48 0.89303 -1.29857 0
M  V30 16733 C 1554.73 1.63881 -1.17583 0
M  V30 16734 C 1555.05 1.93723 0.270293 0
M  V30 16735 O 1556.25 2.66582 0.514432 0
M  V30 16736 C 1554.71 2.95327 -2.05694 0
M  V30 16737 C 1554.32 2.73055 -3.55169 0
M  V30 16738 C 1556.06 3.7327 -2.02162 0
M  V30 16739 C 1553.97 4.00268 -4.35361 0
M  V30 16740 H 1552.9 0.614815 -0.436485 0
M  V30 16741 H 1555.55 0.989339 -1.54546 0
M  V30 16742 H 1553.93 3.61523 -1.61607 0
M  V30 16743 H 1555.1 2.1541 -4.07351 0
M  V30 16744 H 1553.42 2.08498 -3.6044 0
M  V30 16745 H 1556.02 4.67601 -2.59333 0
M  V30 16746 H 1556.36 4.04032 -1.00318 0
M  V30 16747 H 1556.89 3.13925 -2.44328 0
M  V30 16748 H 1553.63 3.74669 -5.37869 0
M  V30 16749 H 1553.15 4.57448 -3.87945 0
M  V30 16750 H 1554.83 4.68358 -4.46374 0
M  V30 16751 N 1554.96 1.12442 1.10429 0
M  V30 16752 C 1556.21 0.881062 1.82661 0
M  V30 16753 C 1556.54 -0.591636 1.84968 0
M  V30 16754 O 1555.82 -1.43734 1.31037 0
M  V30 16755 C 1556.1 1.45658 3.29326 0
M  V30 16756 C 1555.95 2.99766 3.35352 0
M  V30 16757 C 1557.27 1.1162 4.2571 0
M  V30 16758 H 1554.39 0.321516 0.663172 0
M  V30 16759 H 1557.03 1.39102 1.29424 0
M  V30 16760 H 1555.18 1.02286 3.74793 0
M  V30 16761 H 1556.85 3.51818 2.98365 0
M  V30 16762 H 1555.1 3.35292 2.75249 0
M  V30 16763 H 1555.77 3.35128 4.38627 0
M  V30 16764 H 1558.24 1.49081 3.88477 0
M  V30 16765 H 1557.12 1.54552 5.26692 0
M  V30 16766 H 1557.38 0.0284093 4.42091 0
M  V30 16767 N 1556.44 -1.28223 0.91633 0
M  V30 16768 C 1557.69 -1.94149 0.546705 0
M  V30 16769 C 1558 -1.72904 -0.914529 0
M  V30 16770 O 1559.21 -2.33075 -1.39243 0
M  V30 16771 C 1557.66 -3.47759 0.92691 0
M  V30 16772 C 1557.27 -3.77779 2.40805 0
M  V30 16773 C 1559.02 -4.19829 0.627994 0
M  V30 16774 C 1556.92 -5.2471 2.72825 0
M  V30 16775 H 1555.85 -0.726787 0.200739 0
M  V30 16776 H 1558.5 -1.45694 1.1156 0
M  V30 16777 H 1556.89 -3.9496 0.286779 0
M  V30 16778 H 1558.06 -3.41377 3.09513 0
M  V30 16779 H 1556.37 -3.18887 2.67769 0
M  V30 16780 H 1558.97 -5.27999 0.843862 0
M  V30 16781 H 1559.31 -4.14028 -0.434315 0
M  V30 16782 H 1559.85 -3.78413 1.22671 0
M  V30 16783 H 1556.59 -5.35591 3.77919 0
M  V30 16784 H 1556.11 -5.623 2.08756 0
M  V30 16785 H 1557.79 -5.92475 2.59965 0
M  V30 16786 N 1557.92 -0.68059 -1.42147 0
M  V30 16787 C 1559.16 -0.205567 -2.01755 0
M  V30 16788 C 1559.5 1.18677 -1.53718 0
M  V30 16789 O 1558.77 1.79796 -0.741867 0
M  V30 16790 C 1559.05 -0.246615 -3.59255 0
M  V30 16791 C 1558.91 -1.67483 -4.17456 0
M  V30 16792 C 1560.23 0.40196 -4.38261 0
M  V30 16793 H 1557.35 -0.0761717 -0.733053 0
M  V30 16794 H 1559.99 -0.866473 -1.69092 0
M  V30 16795 H 1558.14 0.316127 -3.87212 0
M  V30 16796 H 1559.81 -2.29026 -4.00431 0
M  V30 16797 H 1558.05 -2.2137 -3.73065 0
M  V30 16798 H 1558.72 -1.65519 -5.266 0
M  V30 16799 H 1561.2 -0.077135 -4.16028 0
M  V30 16800 H 1560.08 0.342627 -5.4783 0
M  V30 16801 H 1560.34 1.48044 -4.16576 0
M  V30 16802 N 1559.4 1.51781 -0.424309 0
M  V30 16803 C 1560.62 2.06387 0.145548 0
M  V30 16804 C 1561.04 1.29299 1.37576 0
M  V30 16805 O 1560.4 0.348952 1.79133 0
M  V30 16806 C 1560.45 3.58288 0.48083 0
M  V30 16807 O 1560.17 4.32463 -0.700546 0
M  V30 16808 C 1561.67 4.29364 1.10278 0
M  V30 16809 H 1558.89 0.67086 0.0136908 0
M  V30 16810 H 1561.43 1.95511 -0.599639 0
M  V30 16811 H 1559.59 3.69122 1.17591 0
M  V30 16812 H 1560 5.22839 -0.417035 0
M  V30 16813 H 1561.48 5.36776 1.28747 0
M  V30 16814 H 1561.95 3.86815 2.08017 0
M  V30 16815 H 1562.56 4.2294 0.447458 0
M  V30 16816 N 1560.87 0.155222 1.56834 0
M  V30 16817 C 1562.1 -0.500542 2.00754 0
M  V30 16818 C 1562.52 -1.57878 1.03538 0
M  V30 16819 O 1561.87 -1.82469 0.0336651 0
M  V30 16820 C 1561.92 -1.09366 3.4456 0
M  V30 16821 O 1561.65 -0.0584788 4.38061 0
M  V30 16822 C 1563.15 -1.82923 4.038 0
M  V30 16823 H 1560.37 -0.129589 0.658368 0
M  V30 16824 H 1562.91 0.252223 2.02939 0
M  V30 16825 H 1561.07 -1.797 3.43201 0
M  V30 16826 H 1561.48 -0.494125 5.22167 0
M  V30 16827 H 1562.95 -2.19703 5.06394 0
M  V30 16828 H 1563.43 -2.71823 3.44976 0
M  V30 16829 H 1564.04 -1.17268 4.08813 0
M  V30 16830 N 1562.35 -1.57153 -0.118549 0
M  V30 16831 C 1563.28 -2.03409 -1.1466 0
M  V30 16832 C 1564.26 -0.918636 -1.43161 0
M  V30 16833 O 1565.45 -1.18838 -1.53594 0
M  V30 16834 C 1562.58 -2.43879 -2.47265 0
M  V30 16835 C 1561.53 -3.58873 -2.33225 0
M  V30 16836 C 1560.86 -3.85244 -3.70798 0
M  V30 16837 C 1562.16 -4.90582 -1.79239 0
M  V30 16838 H 1563.85 -2.89545 -0.761862 0
M  V30 16839 H 1561.4 -1.39296 -0.365034 0
M  V30 16840 H 1563.35 -2.74844 -3.19435 0
M  V30 16841 H 1562.07 -1.54715 -2.8763 0
M  V30 16842 H 1560.73 -3.28119 -1.63504 0
M  V30 16843 H 1560.38 -2.93285 -4.08648 0
M  V30 16844 H 1560.08 -4.62649 -3.62257 0
M  V30 16845 H 1561.61 -4.18661 -4.44472 0
M  V30 16846 H 1563.02 -5.20079 -2.41227 0
M  V30 16847 H 1561.42 -5.71989 -1.81518 0
M  V30 16848 H 1562.49 -4.79065 -0.74999 0
M  V30 16849 N 1563.83 0.388742 -1.5273 0
M  V30 16850 C 1564.76 1.48133 -1.80496 0
M  V30 16851 C 1565.74 1.56899 -0.657008 0
M  V30 16852 O 1566.93 1.71844 -0.904621 0
M  V30 16853 C 1564.06 2.85742 -1.97405 0
M  V30 16854 C 1563.01 2.91815 -3.13094 0
M  V30 16855 C 1562.34 4.31876 -3.15258 0
M  V30 16856 C 1563.64 2.61438 -4.52159 0
M  V30 16857 H 1565.33 1.25147 -2.7199 0
M  V30 16858 H 1562.88 0.600603 -1.30877 0
M  V30 16859 H 1564.83 3.62182 -2.15412 0
M  V30 16860 H 1563.55 3.10065 -1.02601 0
M  V30 16861 H 1562.21 2.17824 -2.9487 0
M  V30 16862 H 1561.86 4.53239 -2.18135 0
M  V30 16863 H 1561.56 4.3686 -3.92972 0
M  V30 16864 H 1563.08 5.10221 -3.3542 0
M  V30 16865 H 1564.5 3.27596 -4.70483 0
M  V30 16866 H 1562.89 2.77771 -5.31943 0
M  V30 16867 H 1563.96 1.56778 -4.58856 0
M  V30 16868 N 1565.31 1.43698 0.647203 0
M  V30 16869 C 1566.24 1.45295 1.77262 0
M  V30 16870 C 1567.25 0.34831 1.5903 0
M  V30 16871 O 1568.44 0.613106 1.6764 0
M  V30 16872 C 1565.54 1.25584 3.14773 0
M  V30 16873 C 1564.71 2.48998 3.59609 0
M  V30 16874 C 1563.77 2.24423 4.75942 0
M  V30 16875 O 1562.8 2.97813 4.85073 0
M  V30 16876 N 1564 1.26465 5.66557 0
M  V30 16877 H 1566.77 2.42311 1.76368 0
M  V30 16878 H 1564.33 1.38931 0.831247 0
M  V30 16879 H 1566.32 1.07016 3.90294 0
M  V30 16880 H 1564.89 0.369927 3.10403 0
M  V30 16881 H 1564.11 2.82951 2.74467 0
M  V30 16882 H 1565.4 3.31119 3.86313 0
M  V30 16883 H 1564.8 0.658206 5.61858 0
M  V30 16884 H 1563.35 1.13879 6.41775 0
M  V30 16885 N 1566.79 -0.886131 1.30328 0
M  V30 16886 C 1568.03 -1.63784 1.19085 0
M  V30 16887 C 1568.36 -1.92825 -0.254697 0
M  V30 16888 O 1567.62 -1.54682 -1.19883 0
M  V30 16889 C 1567.92 -2.98624 1.96364 0
M  V30 16890 C 1567.58 -2.89139 3.45991 0
M  V30 16891 C 1566.24 -2.86259 3.86794 0
M  V30 16892 C 1568.6 -2.7735 4.41278 0
M  V30 16893 C 1565.92 -2.69428 5.21177 0
M  V30 16894 C 1568.28 -2.62057 5.75768 0
M  V30 16895 C 1566.94 -2.57551 6.15811 0
M  V30 16896 H 1566.21 -0.599327 0.435761 0
M  V30 16897 H 1568.86 -1.03037 1.61418 0
M  V30 16898 H 1567.16 -3.63315 1.46662 0
M  V30 16899 H 1568.86 -3.55746 1.85057 0
M  V30 16900 H 1565.45 -2.92189 3.13566 0
M  V30 16901 H 1569.63 -2.78642 4.10697 0
M  V30 16902 H 1564.89 -2.64353 5.51296 0
M  V30 16903 H 1569.06 -2.51909 6.49242 0
M  V30 16904 H 1566.69 -2.44268 7.19887 0
M  V30 16905 N 1568.26 -1.13026 -1.09832 0
M  V30 16906 C 1569.2 -0.747512 -2.1561 0
M  V30 16907 C 1570.18 0.2643 -1.60438 0
M  V30 16908 O 1571.36 0.156784 -1.87847 0
M  V30 16909 C 1568.49 -0.107449 -3.3853 0
M  V30 16910 C 1567.53 -1.08709 -4.12413 0
M  V30 16911 S 1568.37 -2.6176 -4.67164 0
M  V30 16912 C 1569.52 -1.99102 -5.93388 0
M  V30 16913 H 1569.75 -1.6435 -2.47743 0
M  V30 16914 H 1567.29 -0.949978 -1.21716 0
M  V30 16915 H 1569.25 0.255456 -4.09704 0
M  V30 16916 H 1567.91 0.765741 -3.04623 0
M  V30 16917 H 1567.1 -0.58698 -5.0057 0
M  V30 16918 H 1566.7 -1.39325 -3.4708 0
M  V30 16919 H 1568.99 -1.33755 -6.64166 0
M  V30 16920 H 1569.94 -2.85323 -6.48071 0
M  V30 16921 H 1570.34 -1.44429 -5.45711 0
M  V30 16922 N 1569.74 1.27735 -0.923117 0
M  V30 16923 C 1570.99 1.9457 -0.561149 0
M  V30 16924 C 1571.32 1.72591 0.896805 0
M  V30 16925 O 1570.57 1.04546 1.65434 0
M  V30 16926 C 1570.87 3.47677 -0.827959 0
M  V30 16927 C 1570.54 3.8977 -2.26693 0
M  V30 16928 C 1569.2 4.00973 -2.66033 0
M  V30 16929 C 1571.55 4.11173 -3.20291 0
M  V30 16930 C 1568.88 4.30963 -3.98105 0
M  V30 16931 C 1571.23 4.42645 -4.51938 0
M  V30 16932 C 1569.9 4.52061 -4.91119 0
M  V30 16933 H 1569.17 0.711981 -0.205339 0
M  V30 16934 H 1571.81 1.51894 -1.16621 0
M  V30 16935 H 1570.12 3.91549 -0.140178 0
M  V30 16936 H 1571.81 3.97523 -0.526932 0
M  V30 16937 H 1568.4 3.81584 -1.95171 0
M  V30 16938 H 1572.59 4.01962 -2.91102 0
M  V30 16939 H 1567.84 4.36461 -4.28149 0
M  V30 16940 H 1572.02 4.58153 -5.2447 0
M  V30 16941 H 1569.65 4.75053 -5.93488 0
M  V30 16942 N 1571.22 0.688118 1.41784 0
M  V30 16943 C 1572.18 0.0271411 2.29184 0
M  V30 16944 C 1573.18 -0.715537 1.44002 0
M  V30 16945 O 1574.37 -0.551542 1.65238 0
M  V30 16946 C 1571.51 -0.97206 3.26747 0
M  V30 16947 H 1572.7 0.79658 2.89127 0
M  V30 16948 H 1570.25 0.451198 1.49646 0
M  V30 16949 H 1570.99 -1.76953 2.71769 0
M  V30 16950 H 1570.77 -0.442746 3.89592 0
M  V30 16951 H 1572.26 -1.43256 3.92259 0
M  V30 16952 N 1572.7 -1.51554 0.432352 0
M  V30 16953 C 1573.94 -2.03954 -0.135014 0
M  V30 16954 C 1574.3 -1.30972 -1.40393 0
M  V30 16955 O 1575.5 -1.73719 -2.05122 0
M  V30 16956 C 1573.77 -3.55646 -0.35361 0
M  V30 16957 S 1575.33 -4.29781 -0.885096 0
M  V30 16958 H 1572.15 -0.710178 -0.0341871 0
M  V30 16959 H 1574.75 -1.86365 0.590612 0
M  V30 16960 H 1573.46 -4.06333 0.576335 0
M  V30 16961 H 1572.99 -3.7752 -1.10646 0
M  V30 16962 H 1575 -4.46564 -2.16322 0
M  V30 16963 N 1574.18 -0.163538 -1.56749 0
M  V30 16964 C 1575.43 0.483453 -1.9582 0
M  V30 16965 C 1575.74 1.64913 -1.05181 0
M  V30 16966 O 1576.94 2.36184 -1.33901 0
M  V30 16967 C 1575.4 0.911471 -3.48167 0
M  V30 16968 C 1575.01 -0.228178 -4.47419 0
M  V30 16969 C 1576.75 1.52732 -3.96072 0
M  V30 16970 C 1574.66 0.219036 -5.90994 0
M  V30 16971 H 1573.59 0.184383 -0.731108 0
M  V30 16972 H 1576.24 -0.250527 -1.81782 0
M  V30 16973 H 1574.62 1.7012 -3.57596 0
M  V30 16974 H 1575.8 -1.0054 -4.49698 0
M  V30 16975 H 1574.11 -0.753485 -4.09526 0
M  V30 16976 H 1576.71 1.87383 -5.00791 0
M  V30 16977 H 1577.05 2.42239 -3.38565 0
M  V30 16978 H 1577.58 0.802176 -3.89628 0
M  V30 16979 H 1574.32 -0.641066 -6.52358 0
M  V30 16980 H 1573.84 0.96178 -5.92039 0
M  V30 16981 H 1575.52 0.665524 -6.43568 0
M  V30 16982 N 1575.65 1.57214 0.110213 0
M  V30 16983 C 1576.9 1.84946 0.814827 0
M  V30 16984 C 1577.22 0.750029 1.79999 0
M  V30 16985 O 1576.49 -0.225164 1.94602 0
M  V30 16986 H 1575.07 0.682385 0.303907 0
M  V30 16987 H 1577.74 1.94666 0.0954415 0
M  V30 16988 H 1576.83 2.81167 1.35469 0
M  V30 16989 N 1577.13 -0.380637 1.52934 0
M  V30 16990 C 1578.38 -1.1265 1.68635 0
M  V30 16991 C 1578.71 -1.89397 0.429227 0
M  V30 16992 O 1577.99 -1.85863 -0.573182 0
M  V30 16993 C 1578.27 -2.09797 2.92673 0
M  V30 16994 C 1578.12 -1.36758 4.28506 0
M  V30 16995 C 1579.44 -3.10117 3.12274 0
M  V30 16996 H 1576.56 -0.408158 0.613658 0
M  V30 16997 H 1579.2 -0.408947 1.85547 0
M  V30 16998 H 1577.35 -2.70987 2.78385 0
M  V30 16999 H 1579.02 -0.784679 4.54577 0
M  V30 17000 H 1577.27 -0.669413 4.28604 0
M  V30 17001 H 1577.94 -2.07786 5.11399 0
M  V30 17002 H 1580.41 -2.59022 3.25648 0
M  V30 17003 H 1579.29 -3.75328 4.00525 0
M  V30 17004 H 1579.55 -3.79451 2.26868 0
M  V30 17005 N 1578.61 -1.44039 -0.639573 0
M  V30 17006 C 1579.54 -1.46233 -1.76489 0
M  V30 17007 C 1580.56 -0.356739 -1.58843 0
M  V30 17008 O 1581.74 -0.621988 -1.67313 0
M  V30 17009 C 1578.84 -1.27252 -3.14102 0
M  V30 17010 C 1578.02 -2.50902 -3.58283 0
M  V30 17011 C 1577.08 -2.26944 -4.74745 0
M  V30 17012 O 1576.1 -3.00381 -4.83487 0
M  V30 17013 N 1577.3 -1.29468 -5.65878 0
M  V30 17014 H 1580.07 -2.43243 -1.7508 0
M  V30 17015 H 1577.63 -1.3937 -0.823867 0
M  V30 17016 H 1579.62 -1.09085 -3.89721 0
M  V30 17017 H 1578.19 -0.386383 -3.10203 0
M  V30 17018 H 1577.41 -2.84403 -2.72963 0
M  V30 17019 H 1578.7 -3.33163 -3.84552 0
M  V30 17020 H 1578.1 -0.687994 -5.61501 0
M  V30 17021 H 1576.66 -1.17281 -6.41162 0
M  V30 17022 N 1580.09 0.879207 -1.30796 0
M  V30 17023 C 1581.02 2.00158 -1.20246 0
M  V30 17024 C 1582 1.69852 -0.091769 0
M  V30 17025 O 1583.18 1.92246 -0.274792 0
M  V30 17026 C 1580.31 3.3545 -0.899472 0
M  V30 17027 C 1579.27 3.80033 -1.96873 0
M  V30 17028 C 1578.59 5.12681 -1.51861 0
M  V30 17029 C 1579.89 3.98136 -3.38061 0
M  V30 17030 H 1581.59 2.09242 -2.14145 0
M  V30 17031 H 1579.13 1.00535 -1.03096 0
M  V30 17032 H 1581.09 4.13497 -0.812299 0
M  V30 17033 H 1579.81 3.26513 0.075189 0
M  V30 17034 H 1578.47 3.04219 -2.04564 0
M  V30 17035 H 1578.12 5.00178 -0.532063 0
M  V30 17036 H 1577.82 5.43482 -2.23386 0
M  V30 17037 H 1579.34 5.93247 -1.44534 0
M  V30 17038 H 1580.76 4.66604 -3.33096 0
M  V30 17039 H 1579.15 4.40321 -4.07722 0
M  V30 17040 H 1580.22 3.01807 -3.79526 0
M  V30 17041 N 1581.57 1.13606 1.09231 0
M  V30 17042 C 1582.81 0.899054 1.81448 0
M  V30 17043 C 1583.14 -0.574726 1.85815 0
M  V30 17044 O 1582.4 -1.44144 1.32366 0
M  V30 17045 C 1582.7 1.43456 3.27345 0
M  V30 17046 C 1582.36 2.92553 3.43109 0
M  V30 17047 C 1581.02 3.3326 3.47118 0
M  V30 17048 C 1583.38 3.88467 3.47481 0
M  V30 17049 C 1580.7 4.68562 3.53081 0
M  V30 17050 C 1583.06 5.23616 3.54978 0
M  V30 17051 C 1581.72 5.63847 3.57257 0
M  V30 17052 H 1580.99 0.328987 0.663964 0
M  V30 17053 H 1583.64 1.41834 1.28668 0
M  V30 17054 H 1581.94 0.83602 3.82777 0
M  V30 17055 H 1583.64 1.22723 3.81759 0
M  V30 17056 H 1580.23 2.60076 3.40674 0
M  V30 17057 H 1584.41 3.58103 3.43622 0
M  V30 17058 H 1579.67 4.99106 3.53134 0
M  V30 17059 H 1583.84 5.9775 3.57306 0
M  V30 17060 H 1581.47 6.68676 3.6163 0
M  V30 17061 N 1583.05 -1.27244 0.929878 0
M  V30 17062 C 1583.99 -2.26773 0.429287 0
M  V30 17063 C 1584.96 -1.58238 -0.50498 0
M  V30 17064 O 1586.15 -1.86037 -0.423661 0
M  V30 17065 C 1583.29 -3.43706 -0.309865 0
M  V30 17066 C 1582.4 -4.26948 0.658764 0
M  V30 17067 C 1581.54 -5.31105 -0.10045 0
M  V30 17068 C 1580.57 -6.06018 0.860743 0
M  V30 17069 N 1579.71 -7.01972 0.134015 0
M  V30 17070 H 1584.55 -2.68967 1.283 0
M  V30 17071 H 1582.09 -1.32257 0.643923 0
M  V30 17072 H 1584.05 -4.10316 -0.754754 0
M  V30 17073 H 1582.68 -3.02457 -1.1278 0
M  V30 17074 H 1581.73 -3.60232 1.22218 0
M  V30 17075 H 1583.04 -4.78946 1.39326 0
M  V30 17076 H 1582.19 -6.03674 -0.605153 0
M  V30 17077 H 1580.93 -4.79915 -0.867902 0
M  V30 17078 H 1579.94 -5.32285 1.37668 0
M  V30 17079 H 1581.16 -6.59297 1.62801 0
M  V30 17080 H 1579.11 -6.53109 -0.615152 0
M  V30 17081 H 1579.03 -7.51669 0.808045 0
M  V30 17082 H 1580.29 -7.78714 -0.349964 0
M  V30 17083 N 1584.52 -0.695628 -1.41417 0
M  V30 17084 C 1585.77 -0.226171 -2.0083 0
M  V30 17085 C 1586.09 1.17833 -1.55371 0
M  V30 17086 O 1585.36 1.79512 -0.784362 0
M  V30 17087 H 1583.94 -0.0806271 -0.742636 0
M  V30 17088 H 1586.6 -0.8968 -1.73042 0
M  V30 17089 H 1585.7 -0.243643 -3.11148 0
M  V30 17090 N 1586 1.51322 -0.440383 0
M  V30 17091 C 1586.95 2.27823 0.369526 0
M  V30 17092 C 1587.92 1.31543 1.01418 0
M  V30 17093 O 1589.1 1.60449 1.03251 0
M  V30 17094 C 1586.24 3.12553 1.46304 0
M  V30 17095 C 1585.36 4.23829 0.836217 0
M  V30 17096 C 1584.49 4.95865 1.90504 0
M  V30 17097 C 1583.53 5.99058 1.25681 0
M  V30 17098 N 1582.67 6.64489 2.26712 0
M  V30 17099 H 1587.51 2.96593 -0.289205 0
M  V30 17100 H 1585.04 1.46287 -0.154466 0
M  V30 17101 H 1587 3.60006 2.10836 0
M  V30 17102 H 1585.63 2.4589 2.09136 0
M  V30 17103 H 1584.68 3.80318 0.0791116 0
M  V30 17104 H 1586 4.97753 0.322989 0
M  V30 17105 H 1585.15 5.46881 2.6269 0
M  V30 17106 H 1583.89 4.21578 2.452 0
M  V30 17107 H 1582.89 5.47331 0.520422 0
M  V30 17108 H 1584.12 6.75303 0.717138 0
M  V30 17109 H 1582.07 5.93014 2.80483 0
M  V30 17110 H 1581.98 7.34188 1.80289 0
M  V30 17111 H 1583.25 7.20134 2.98373 0
M  V30 17112 N 1587.48 0.171848 1.5666 0
M  V30 17113 C 1588.41 -0.753861 2.20996 0
M  V30 17114 C 1589.39 -1.23873 1.16574 0
M  V30 17115 O 1590.58 -1.29179 1.45005 0
M  V30 17116 C 1587.71 -1.98314 2.85112 0
M  V30 17117 C 1586.66 -1.6341 3.95577 0
M  V30 17118 C 1585.99 -2.93807 4.46745 0
M  V30 17119 C 1587.29 -0.861713 5.15142 0
M  V30 17120 H 1588.98 -0.217598 2.98608 0
M  V30 17121 H 1586.53 -0.10322 1.4363 0
M  V30 17122 H 1588.48 -2.63576 3.28794 0
M  V30 17123 H 1587.2 -2.54354 2.04869 0
M  V30 17124 H 1585.86 -1.00516 3.52551 0
M  V30 17125 H 1585.51 -3.47889 3.63293 0
M  V30 17126 H 1585.21 -2.71207 5.21268 0
M  V30 17127 H 1586.73 -3.60098 4.93114 0
M  V30 17128 H 1588.15 -1.41693 5.55514 0
M  V30 17129 H 1586.54 -0.734727 5.95585 0
M  V30 17130 H 1587.61 0.141851 4.84692 0
M  V30 17131 N 1588.96 -1.5727 -0.101874 0
M  V30 17132 C 1590.19 -1.89667 -0.81914 0
M  V30 17133 C 1590.6 -0.763027 -1.73132 0
M  V30 17134 O 1589.94 0.274317 -1.8164 0
M  V30 17135 C 1590 -3.17252 -1.6909 0
M  V30 17136 C 1589.66 -4.4699 -0.951257 0
M  V30 17137 C 1590.66 -5.19123 -0.28417 0
M  V30 17138 C 1588.35 -4.93665 -0.927349 0
M  V30 17139 C 1590.34 -6.36163 0.396934 0
M  V30 17140 C 1588.03 -6.10619 -0.242456 0
M  V30 17141 C 1589.03 -6.81717 0.418514 0
M  V30 17142 O 1588.71 -7.96443 1.09244 0
M  V30 17143 H 1588.45 -0.632024 -0.239836 0
M  V30 17144 H 1591 -2.05222 -0.0855979 0
M  V30 17145 H 1589.23 -2.97825 -2.46651 0
M  V30 17146 H 1590.92 -3.35533 -2.28413 0
M  V30 17147 H 1591.68 -4.84107 -0.294146 0
M  V30 17148 H 1587.56 -4.38219 -1.43126 0
M  V30 17149 H 1591.11 -6.91594 0.913417 0
M  V30 17150 H 1587 -6.45089 -0.230303 0
M  V30 17151 H 1587.77 -8.12385 0.998647 0
M  V30 17152 N 1590.44 0.372521 -1.53134 0
M  V30 17153 C 1591.66 1.13668 -1.72879 0
M  V30 17154 C 1592.08 1.83246 -0.454588 0
M  V30 17155 O 1591.44 1.73302 0.572062 0
M  V30 17156 C 1591.49 2.17226 -2.88955 0
M  V30 17157 O 1591.21 1.50483 -4.11445 0
M  V30 17158 C 1592.71 3.06243 -3.20516 0
M  V30 17159 H 1589.93 0.340156 -0.57839 0
M  V30 17160 H 1592.47 0.433557 -1.99851 0
M  V30 17161 H 1590.63 2.83148 -2.64397 0
M  V30 17162 H 1591.04 2.19425 -4.76396 0
M  V30 17163 H 1592.52 3.74901 -4.05158 0
M  V30 17164 H 1592.99 3.70669 -2.35587 0
M  V30 17165 H 1593.6 2.45946 -3.46973 0
M  V30 17166 N 1591.91 1.44376 0.631925 0
M  V30 17167 C 1593.15 1.48638 1.40307 0
M  V30 17168 C 1593.52 0.115559 1.91652 0
M  V30 17169 O 1594.72 0.0328551 2.6878 0
M  V30 17170 C 1592.99 2.51663 2.53773 0
M  V30 17171 S 1594.55 2.74966 3.41964 0
M  V30 17172 H 1591.37 0.525735 0.478669 0
M  V30 17173 H 1593.97 1.81294 0.731632 0
M  V30 17174 H 1592.67 3.49968 2.14361 0
M  V30 17175 H 1592.2 2.20577 3.25744 0
M  V30 17176 H 1594.22 2.06501 4.51189 0
M  V30 17177 N 1593.39 -0.872258 1.31261 0
M  V30 17178 C 1594.62 -1.6632 1.23905 0
M  V30 17179 C 1595.04 -1.87109 -0.192878 0
M  V30 17180 O 1594.4 -1.4112 -1.1382 0
M  V30 17181 C 1594.45 -3.00979 1.98606 0
M  V30 17182 O 1593.55 -3.90642 1.32183 0
M  V30 17183 H 1592.89 -0.507736 0.427902 0
M  V30 17184 H 1595.42 -1.0877 1.73292 0
M  V30 17185 H 1595.43 -3.50931 2.08113 0
M  V30 17186 H 1594.11 -2.85168 3.02741 0
M  V30 17187 H 1592.68 -3.4909 1.31112 0
M  V30 17188 N 1594.87 -1.14184 -1.08627 0
M  V30 17189 C 1596.15 -0.81955 -1.77603 0
M  V30 17190 C 1596.53 0.687377 -1.99595 0
M  V30 17191 O 1595.87 1.62744 -1.60396 0
M  V30 17192 C 1596.08 -1.61574 -3.09346 0
M  V30 17193 C 1597.43 -1.81367 -3.83916 0
M  V30 17194 O 1598.46 -1.58241 -3.19121 0
M  V30 17195 O 1597.32 -2.20011 -5.00257 0
M  V30 17196 H 1594.41 -0.300086 -0.770635 0
M  V30 17197 H 1596.96 -1.24691 -1.15109 0
M  V30 17198 H 1595.73 -2.63946 -2.88874 0
M  V30 17199 H 1595.35 -1.18386 -3.79566 0
M  V30 17200 N 1596.35 1.26749 -0.936613 0
M  V30 17201 C 1597.57 1.98597 -0.597817 0
M  V30 17202 C 1598 1.69324 0.8192 0
M  V30 17203 O 1597.36 0.938634 1.55111 0
M  V30 17204 C 1597.4 3.50656 -0.841007 0
M  V30 17205 O 1596.51 4.12304 0.0891038 0
M  V30 17206 H 1595.85 0.623197 -0.229176 0
M  V30 17207 H 1598.38 1.61332 -1.2583 0
M  V30 17208 H 1598.39 4.00857 -0.760093 0
M  V30 17209 H 1597.06 3.71293 -1.87388 0
M  V30 17210 H 1595.64 3.72876 -0.0424804 0
M  V30 17211 N 1597.83 0.703118 1.41046 0
M  V30 17212 C 1599.05 0.245088 2.05947 0
M  V30 17213 C 1599.48 -1.09988 1.52592 0
M  V30 17214 O 1598.83 -1.69015 0.656023 0
M  V30 17215 C 1598.88 0.221444 3.59919 0
M  V30 17216 O 1597.99 -0.801324 4.0454 0
M  V30 17217 H 1597.33 0.117862 0.653456 0
M  V30 17218 H 1599.86 0.960099 1.80674 0
M  V30 17219 H 1599.87 0.0548681 4.07963 0
M  V30 17220 H 1598.54 1.20301 3.98121 0
M  V30 17221 H 1597.12 -0.603489 3.67984 0
M  V30 17222 N 1599.3 -1.51086 0.448402 0
M  V30 17223 C 1600.25 -2.28015 -0.357438 0
M  V30 17224 C 1601.22 -1.32079 -1.00719 0
M  V30 17225 O 1602.41 -1.60995 -1.02398 0
M  V30 17226 C 1599.55 -3.13324 -1.44644 0
M  V30 17227 C 1598.66 -4.24267 -0.813729 0
M  V30 17228 C 1597.79 -4.96868 -1.87871 0
M  V30 17229 C 1596.83 -5.99716 -1.22502 0
M  V30 17230 N 1595.97 -6.65682 -2.23185 0
M  V30 17231 H 1600.81 -2.96436 0.30493 0
M  V30 17232 H 1598.35 -1.46203 0.162222 0
M  V30 17233 H 1600.31 -3.61119 -2.08924 0
M  V30 17234 H 1598.94 -2.46996 -2.07829 0
M  V30 17235 H 1597.99 -3.80354 -0.0589414 0
M  V30 17236 H 1599.3 -4.97917 -0.296587 0
M  V30 17237 H 1598.45 -5.48266 -2.59786 0
M  V30 17238 H 1597.19 -4.22873 -2.42961 0
M  V30 17239 H 1596.2 -5.476 -0.491388 0
M  V30 17240 H 1597.42 -6.75674 -0.681315 0
M  V30 17241 H 1595.37 -5.94493 -2.77334 0
M  V30 17242 H 1595.29 -7.35134 -1.76393 0
M  V30 17243 H 1596.55 -7.21707 -2.9455 0
M  V30 17244 N 1600.78 -0.180154 -1.56567 0
M  V30 17245 C 1601.71 0.77825 -2.15583 0
M  V30 17246 C 1602.73 1.18746 -1.1137 0
M  V30 17247 O 1603.92 1.12578 -1.38523 0
M  V30 17248 C 1601.02 2.06024 -2.69086 0
M  V30 17249 C 1600.19 1.8132 -3.98047 0
M  V30 17250 C 1599.25 2.93823 -4.36526 0
M  V30 17251 O 1598.27 2.64075 -5.04235 0
M  V30 17252 N 1599.48 4.21823 -3.98806 0
M  V30 17253 H 1602.24 0.273661 -2.98448 0
M  V30 17254 H 1599.8 0.00232952 -1.619 0
M  V30 17255 H 1601.79 2.80398 -2.9182 0
M  V30 17256 H 1600.36 2.47648 -1.9076 0
M  V30 17257 H 1599.58 0.908046 -3.83599 0
M  V30 17258 H 1600.87 1.62194 -4.82256 0
M  V30 17259 H 1600.27 4.48849 -3.44313 0
M  V30 17260 H 1598.83 4.92871 -4.26522 0
M  V30 17261 N 1602.26 1.57322 0.0935319 0
M  V30 17262 C 1603.49 1.90375 0.810245 0
M  V30 17263 C 1603.9 0.774011 1.72205 0
M  V30 17264 O 1603.26 -0.253918 1.80725 0
M  V30 17265 C 1603.31 3.23054 1.62228 0
M  V30 17266 O 1603.03 4.31682 0.747157 0
M  V30 17267 C 1604.53 3.6998 2.44192 0
M  V30 17268 H 1601.75 0.629769 0.231586 0
M  V30 17269 H 1604.3 2.04379 0.0702984 0
M  V30 17270 H 1602.45 3.10643 2.31472 0
M  V30 17271 H 1602.87 5.07884 1.30974 0
M  V30 17272 H 1604.34 4.65507 2.96659 0
M  V30 17273 H 1604.82 2.97899 3.22727 0
M  V30 17274 H 1605.42 3.85264 1.80144 0
M  V30 17275 N 1603.74 -0.364395 1.53329 0
M  V30 17276 C 1604.65 -1.47027 1.82812 0
M  V30 17277 C 1605.66 -1.58559 0.716598 0
M  V30 17278 O 1606.84 -1.7443 1.00678 0
M  V30 17279 C 1603.91 -2.82278 2.01295 0
M  V30 17280 C 1602.97 -2.80264 3.25193 0
M  V30 17281 C 1602.2 -4.09065 3.42785 0
M  V30 17282 O 1602.42 -5.0529 2.64648 0
M  V30 17283 O 1601.36 -4.14804 4.36144 0
M  V30 17284 H 1605.18 -1.25035 2.76767 0
M  V30 17285 H 1602.77 -0.554608 1.38724 0
M  V30 17286 H 1604.65 -3.62416 2.15017 0
M  V30 17287 H 1603.32 -3.04244 1.10531 0
M  V30 17288 H 1602.23 -1.9882 3.16893 0
M  V30 17289 H 1603.56 -2.63252 4.15884 0
M  V30 17290 N 1605.22 -1.44709 -0.62426 0
M  V30 17291 C 1606.18 -1.51738 -1.7178 0
M  V30 17292 C 1607.18 -0.398646 -1.5578 0
M  V30 17293 O 1608.37 -0.661525 -1.61151 0
M  V30 17294 C 1605.5 -1.39792 -3.1092 0
M  V30 17295 H 1606.69 -2.49154 -1.6692 0
M  V30 17296 H 1604.25 -1.31903 -0.838531 0
M  V30 17297 H 1604.98 -0.434955 -3.2137 0
M  V30 17298 H 1604.77 -2.20919 -3.2394 0
M  V30 17299 H 1606.26 -1.47706 -3.90606 0
M  V30 17300 N 1606.69 0.865285 -1.31722 0
M  V30 17301 C 1607.6 2.00542 -1.21738 0
M  V30 17302 C 1608.62 1.7349 -0.133124 0
M  V30 17303 O 1609.8 1.98303 -0.351809 0
M  V30 17304 C 1606.86 3.33993 -0.930045 0
M  V30 17305 C 1605.92 3.74337 -2.10167 0
M  V30 17306 C 1605.16 5.0142 -1.82795 0
M  V30 17307 O 1605.38 5.65242 -0.765345 0
M  V30 17308 O 1604.31 5.38642 -2.68604 0
M  V30 17309 H 1608.14 2.11898 -2.17561 0
M  V30 17310 H 1605.72 0.994313 -1.11507 0
M  V30 17311 H 1607.61 4.14008 -0.785846 0
M  V30 17312 H 1606.28 3.237 -0.00188642 0
M  V30 17313 H 1605.19 2.94943 -2.3013 0
M  V30 17314 H 1606.52 3.89261 -3.01225 0
M  V30 17315 N 1608.17 1.14759 1.0802 0
M  V30 17316 C 1609.41 0.928685 1.82085 0
M  V30 17317 C 1609.78 -0.534958 1.84397 0
M  V30 17318 O 1610.98 -0.871945 2.54265 0
M  V30 17319 C 1609.25 1.51791 3.23565 0
M  V30 17320 S 1610.81 1.44114 4.14459 0
M  V30 17321 H 1607.63 0.334389 0.627459 0
M  V30 17322 H 1610.23 1.46182 1.29812 0
M  V30 17323 H 1608.93 2.57622 3.19467 0
M  V30 17324 H 1608.46 0.983343 3.80912 0
M  V30 17325 H 1610.48 0.429366 4.94339 0
M  V30 17326 N 1609.65 -1.26251 0.943322 0
M  V30 17327 C 1610.6 -2.26304 0.453315 0
M  V30 17328 C 1611.57 -1.58764 -0.488168 0
M  V30 17329 O 1612.75 -1.86476 -0.403906 0
M  V30 17330 C 1609.89 -3.44015 -0.273393 0
M  V30 17331 C 1609.01 -4.26225 0.70401 0
M  V30 17332 C 1608.14 -5.31182 -0.0441134 0
M  V30 17333 C 1607.18 -6.05071 0.924971 0
M  V30 17334 N 1606.32 -7.0179 0.208461 0
M  V30 17335 H 1611.16 -2.67591 1.31146 0
M  V30 17336 H 1608.69 -1.31567 0.657914 0
M  V30 17337 H 1610.65 -4.11094 -0.711192 0
M  V30 17338 H 1609.28 -3.03636 -1.09566 0
M  V30 17339 H 1608.33 -3.58915 1.26032 0
M  V30 17340 H 1609.65 -4.77442 1.44398 0
M  V30 17341 H 1608.8 -6.04282 -0.541091 0
M  V30 17342 H 1607.54 -4.80809 -0.816952 0
M  V30 17343 H 1606.54 -5.30795 1.43305 0
M  V30 17344 H 1607.77 -6.57533 1.69785 0
M  V30 17345 H 1605.71 -6.53725 -0.545846 0
M  V30 17346 H 1605.63 -7.5077 0.887725 0
M  V30 17347 H 1606.9 -7.79041 -0.267352 0
M  V30 17348 N 1611.13 -0.710588 -1.40671 0
M  V30 17349 C 1612.38 -0.247459 -2.00579 0
M  V30 17350 C 1612.7 1.16179 -1.56612 0
M  V30 17351 O 1611.97 1.7867 -0.803358 0
M  V30 17352 H 1610.55 -0.0884992 -0.741739 0
M  V30 17353 H 1613.21 -0.915103 -1.72081 0
M  V30 17354 H 1612.31 -0.276631 -3.10872 0
M  V30 17355 N 1612.61 1.50847 -0.456408 0
M  V30 17356 C 1613.56 2.29805 0.359529 0
M  V30 17357 C 1614.55 1.3646 1.00374 0
M  V30 17358 O 1615.76 1.53718 0.936524 0
M  V30 17359 H 1612.13 0.739825 0.134772 0
M  V30 17360 H 1614.1 2.96603 -0.327009 0
M  V30 17361 C 1612.85 3.16597 1.43741 0
M  V30 17362 H 1612.17 3.88323 0.95108 0
M  V30 17363 H 1613.61 3.74866 1.98119 0
M  V30 17364 C 1612.07 2.3322 2.43126 0
M  V30 17365 O 1612.6 2.00504 3.48082 0
M  V30 17366 N 1610.81 1.96078 2.1448 0
M  V30 17367 H 1610.36 2.22883 1.29155 0
M  V30 17368 H 1610.31 1.40592 2.81214 0
M  V30 17369 N 1614.09 0.188454 1.56469 0
M  V30 17370 C 1615.32 -0.457182 2.01478 0
M  V30 17371 C 1615.72 -1.5619 1.06777 0
M  V30 17372 O 1615.07 -1.8359 0.063659 0
M  V30 17373 C 1615.13 -1.08002 3.42893 0
M  V30 17374 C 1614.79 -0.114858 4.56856 0
M  V30 17375 C 1615.79 0.673269 5.15522 0
M  V30 17376 C 1613.47 -0.00570411 5.023 0
M  V30 17377 C 1615.47 1.55758 6.18076 0
M  V30 17378 C 1613.16 0.882173 6.04699 0
M  V30 17379 C 1614.15 1.66239 6.6246 0
M  V30 17380 O 1613.84 2.5354 7.62871 0
M  V30 17381 H 1613.57 -0.119784 0.665303 0
M  V30 17382 H 1616.13 0.292446 2.03307 0
M  V30 17383 H 1614.36 -1.87811 3.3803 0
M  V30 17384 H 1616.05 -1.62962 3.7175 0
M  V30 17385 H 1616.81 0.599207 4.81284 0
M  V30 17386 H 1612.69 -0.602804 4.57042 0
M  V30 17387 H 1616.24 2.16701 6.63088 0
M  V30 17388 H 1612.13 0.957375 6.38361 0
M  V30 17389 H 1612.9 2.47245 7.80264 0
M  V30 17390 N 1615.56 -1.5737 -0.0851874 0
M  V30 17391 C 1616.81 -1.85772 -0.785604 0
M  V30 17392 C 1617.13 -0.779172 -1.79411 0
M  V30 17393 O 1618.33 -0.950621 -2.54314 0
M  V30 17394 C 1616.79 -3.29484 -1.44805 0
M  V30 17395 C 1616.4 -4.45434 -0.478799 0
M  V30 17396 C 1618.14 -3.671 -2.13161 0
M  V30 17397 C 1616.05 -5.80183 -1.1464 0
M  V30 17398 H 1614.98 -0.69298 -0.297145 0
M  V30 17399 H 1617.63 -1.83459 -0.0386776 0
M  V30 17400 H 1616.01 -3.26367 -2.24278 0
M  V30 17401 H 1617.18 -4.59917 0.285148 0
M  V30 17402 H 1615.5 -4.16281 0.0995964 0
M  V30 17403 H 1618.1 -4.65061 -2.6386 0
M  V30 17404 H 1618.44 -2.96223 -2.92503 0
M  V30 17405 H 1618.97 -3.72148 -1.40536 0
M  V30 17406 H 1615.71 -6.54317 -0.393583 0
M  V30 17407 H 1615.23 -5.69525 -1.88153 0
M  V30 17408 H 1616.91 -6.25074 -1.67006 0
M  V30 17409 N 1617.04 0.356258 -1.53521 0
M  V30 17410 C 1618.27 1.11828 -1.74075 0
M  V30 17411 C 1618.68 1.82753 -0.473998 0
M  V30 17412 O 1618.04 1.73899 0.553649 0
M  V30 17413 C 1618.09 2.14149 -2.91243 0
M  V30 17414 O 1617.81 1.4611 -4.13017 0
M  V30 17415 C 1619.31 3.02826 -3.23746 0
M  V30 17416 H 1616.53 0.334002 -0.581965 0
M  V30 17417 H 1619.08 0.412336 -2.003 0
M  V30 17418 H 1617.23 2.80328 -2.67386 0
M  V30 17419 H 1617.65 2.1436 -4.78696 0
M  V30 17420 H 1619.12 3.70583 -4.09112 0
M  V30 17421 H 1619.6 3.68149 -2.39505 0
M  V30 17422 H 1620.2 2.42252 -3.49563 0
M  V30 17423 N 1618.52 1.45038 0.616577 0
M  V30 17424 C 1619.75 1.51874 1.40064 0
M  V30 17425 C 1620.16 0.147105 1.88627 0
M  V30 17426 O 1619.5 -0.85995 1.62329 0
M  V30 17427 C 1619.56 2.43421 2.64549 0
M  V30 17428 C 1619.23 3.90326 2.37685 0
M  V30 17429 C 1620.22 4.80471 1.98605 0
M  V30 17430 C 1617.91 4.35163 2.50875 0
M  V30 17431 C 1619.9 6.13456 1.73064 0
M  V30 17432 C 1617.59 5.68192 2.24947 0
M  V30 17433 C 1618.59 6.57157 1.86102 0
M  V30 17434 O 1618.28 7.87721 1.60472 0
M  V30 17435 H 1618.01 0.517048 0.435474 0
M  V30 17436 H 1620.56 1.90826 0.759899 0
M  V30 17437 H 1618.79 1.99423 3.31312 0
M  V30 17438 H 1620.48 2.41042 3.26579 0
M  V30 17439 H 1621.25 4.47098 1.87959 0
M  V30 17440 H 1617.13 3.66165 2.80078 0
M  V30 17441 H 1620.67 6.82855 1.42669 0
M  V30 17442 H 1616.57 6.01122 2.35207 0
M  V30 17443 H 1617.33 7.99661 1.74598 0
M  V30 17444 N 1620 -0.858287 1.32179 0
M  V30 17445 C 1620.94 -1.96656 1.20811 0
M  V30 17446 C 1621.91 -1.6585 0.0911199 0
M  V30 17447 O 1623.1 -1.88936 0.266033 0
M  V30 17448 C 1620.24 -3.32237 0.933408 0
M  V30 17449 C 1619.35 -3.75564 2.13484 0
M  V30 17450 C 1618.49 -4.9992 1.79593 0
M  V30 17451 C 1617.53 -5.35728 2.96077 0
M  V30 17452 N 1616.66 -6.51261 2.62304 0
M  V30 17453 H 1621.5 -2.05711 2.15609 0
M  V30 17454 H 1619.04 -1.00689 1.07239 0
M  V30 17455 H 1621 -4.10318 0.754651 0
M  V30 17456 H 1619.63 -3.22792 0.0222279 0
M  V30 17457 H 1618.68 -2.93167 2.42399 0
M  V30 17458 H 1619.99 -3.98025 3.00629 0
M  V30 17459 H 1619.15 -5.85698 1.58248 0
M  V30 17460 H 1617.89 -4.79388 0.896561 0
M  V30 17461 H 1616.89 -4.48463 3.18058 0
M  V30 17462 H 1618.12 -5.58219 3.86741 0
M  V30 17463 H 1616.06 -6.32254 1.74904 0
M  V30 17464 H 1615.98 -6.73722 3.42979 0
M  V30 17465 H 1617.25 -7.40202 2.4438 0
M  V30 17466 N 1621.48 -1.1533 -1.07409 0
M  V30 17467 C 1622.75 -0.838341 -1.76724 0
M  V30 17468 C 1623.13 0.666169 -2.00313 0
M  V30 17469 O 1622.48 1.61033 -1.62113 0
M  V30 17470 C 1622.69 -1.64846 -3.07615 0
M  V30 17471 C 1624.04 -1.85429 -3.8197 0
M  V30 17472 O 1625.06 -1.61617 -3.17424 0
M  V30 17473 O 1623.92 -2.25305 -4.97896 0
M  V30 17474 H 1621.02 -0.308242 -0.767408 0
M  V30 17475 H 1623.56 -1.25905 -1.1378 0
M  V30 17476 H 1622.33 -2.66995 -2.86058 0
M  V30 17477 H 1621.96 -1.22405 -3.78289 0
M  V30 17478 N 1622.95 1.25748 -0.950004 0
M  V30 17479 C 1624.2 1.92954 -0.601104 0
M  V30 17480 C 1624.52 1.74817 0.863953 0
M  V30 17481 O 1623.79 1.10904 1.61484 0
M  V30 17482 H 1622.37 0.714077 -0.219325 0
M  V30 17483 H 1625.03 1.53009 -1.20724 0
M  V30 17484 H 1624.13 3.00959 -0.826447 0
M  V30 17485 N 1624.43 0.718038 1.40292 0
M  V30 17486 C 1625.34 0.0681535 2.34501 0
M  V30 17487 C 1626.36 -0.741048 1.57431 0
M  V30 17488 O 1627.53 -0.673437 1.89807 0
M  V30 17489 C 1624.6 -0.840758 3.36351 0
M  V30 17490 C 1623.66 -0.0212287 4.29295 0
M  V30 17491 C 1622.89 -0.886852 5.2628 0
M  V30 17492 O 1623.12 -2.12603 5.29298 0
M  V30 17493 O 1622.05 -0.324537 6.01024 0
M  V30 17494 H 1625.88 0.845288 2.91699 0
M  V30 17495 H 1623.46 0.478541 1.41529 0
M  V30 17496 H 1625.34 -1.36131 3.98806 0
M  V30 17497 H 1624.02 -1.597 2.81563 0
M  V30 17498 H 1622.92 0.544451 3.70117 0
M  V30 17499 H 1624.26 0.696846 4.87242 0
M  V30 17500 N 1625.91 -1.50602 0.464402 0
M  V30 17501 C 1627.16 -2.02587 -0.0930295 0
M  V30 17502 C 1627.49 -1.34618 -1.3997 0
M  V30 17503 O 1626.76 -0.469711 -1.88743 0
M  V30 17504 C 1627.05 -3.5898 -0.283783 0
M  V30 17505 C 1626.9 -4.3753 1.04344 0
M  V30 17506 C 1628.22 -4.27602 -1.04138 0
M  V30 17507 H 1625.34 -0.73629 -0.0323356 0
M  V30 17508 H 1627.98 -1.79986 0.608687 0
M  V30 17509 H 1626.13 -3.78368 -0.881488 0
M  V30 17510 H 1627.8 -4.29729 1.67721 0
M  V30 17511 H 1626.05 -4.01536 1.64168 0
M  V30 17512 H 1626.72 -5.45201 0.863691 0
M  V30 17513 H 1629.19 -4.12649 -0.534822 0
M  V30 17514 H 1628.07 -5.36854 -1.14364 0
M  V30 17515 H 1628.33 -3.9031 -2.0763 0
M  V30 17516 N 1627.39 -0.19675 -1.56367 0
M  V30 17517 C 1628.67 0.489288 -1.89381 0
M  V30 17518 C 1629.05 1.79529 -1.11052 0
M  V30 17519 O 1628.39 2.27513 -0.212117 0
M  V30 17520 C 1628.6 0.706459 -3.41775 0
M  V30 17521 C 1629.95 1.02508 -4.1204 0
M  V30 17522 O 1630.98 0.794123 -3.47235 0
M  V30 17523 O 1629.83 1.46207 -5.26579 0
M  V30 17524 H 1626.93 0.2553 -0.786607 0
M  V30 17525 H 1629.47 -0.237086 -1.68036 0
M  V30 17526 H 1628.25 -0.215762 -3.90705 0
M  V30 17527 H 1627.87 1.48523 -3.68818 0
M  V30 17528 N 1628.87 1.57413 0.0768405 0
M  V30 17529 C 1629.82 1.99785 1.09864 0
M  V30 17530 C 1630.8 0.879104 1.34761 0
M  V30 17531 O 1631.99 1.143 1.35146 0
M  V30 17532 C 1629.12 2.44111 2.41381 0
M  V30 17533 C 1628.21 3.62709 2.1978 0
M  V30 17534 N 1628.6 4.77051 1.68094 0
M  V30 17535 C 1626.9 3.6916 2.50273 0
M  V30 17536 C 1627.6 5.58921 1.6119 0
M  V30 17537 N 1626.57 5.0262 2.07061 0
M  V30 17538 H 1630.38 2.85631 0.692257 0
M  V30 17539 H 1627.89 1.59898 0.283993 0
M  V30 17540 H 1629.89 2.72703 3.15339 0
M  V30 17541 H 1628.55 1.59649 2.82741 0
M  V30 17542 H 1629.56 4.99443 1.3703 0
M  V30 17543 H 1626.23 2.95401 2.95033 0
M  V30 17544 H 1627.62 6.60708 1.22125 0
M  V30 17545 N 1630.34 -0.348112 1.53707 0
M  V30 17546 C 1631.76 -0.923978 1.62233 0
M  V30 17547 C 1632.11 -1.89702 0.500744 0
M  V30 17548 O 1631.23 -2.1321 -0.370212 0
M  V30 17549 C 1631.83 -1.68261 2.94064 0
M  V30 17550 C 1630.39 -2.20755 3.04867 0
M  V30 17551 C 1629.53 -1.02526 2.5765 0
M  V30 17552 H 1632.48 -0.126381 1.58196 0
M  V30 17553 H 1632.5 -2.54514 2.82848 0
M  V30 17554 H 1632.02 -0.974155 3.75675 0
M  V30 17555 H 1630.12 -2.9479 2.27881 0
M  V30 17556 H 1630.23 -2.47439 4.10257 0
M  V30 17557 H 1628.59 -1.39735 2.12947 0
M  V30 17558 H 1629.38 -0.331521 3.41696 0
M  V30 17559 N 1631.82 -1.45363 -0.608876 0
M  V30 17560 C 1633.07 -1.48586 -1.364 0
M  V30 17561 C 1633.38 -0.131213 -1.95159 0
M  V30 17562 O 1634.59 -0.0410845 -2.71469 0
M  V30 17563 C 1633.05 -2.61694 -2.47071 0
M  V30 17564 C 1632.65 -4.03466 -1.94729 0
M  V30 17565 C 1634.4 -2.74162 -3.24091 0
M  V30 17566 C 1632.31 -5.07958 -3.02874 0
M  V30 17567 H 1631.24 -0.552893 -0.512665 0
M  V30 17568 H 1633.89 -1.71499 -0.65271 0
M  V30 17569 H 1632.27 -2.32062 -3.20879 0
M  V30 17570 H 1633.44 -4.4277 -1.27638 0
M  V30 17571 H 1631.76 -3.95436 -1.30457 0
M  V30 17572 H 1634.35 -3.494 -4.04752 0
M  V30 17573 H 1634.7 -1.80751 -3.75013 0
M  V30 17574 H 1635.23 -3.03313 -2.57383 0
M  V30 17575 H 1631.97 -6.03073 -2.56871 0
M  V30 17576 H 1631.49 -4.73225 -3.68535 0
M  V30 17577 H 1633.17 -5.3265 -3.67277 0
M  V30 17578 N 1633.3 0.851265 -1.32632 0
M  V30 17579 C 1634.55 1.60057 -1.22738 0
M  V30 17580 C 1634.86 1.94485 0.208525 0
M  V30 17581 O 1636.07 2.68083 0.429361 0
M  V30 17582 C 1634.52 2.88634 -2.14985 0
M  V30 17583 C 1634.13 2.61617 -3.63676 0
M  V30 17584 C 1635.88 3.6665 -2.13935 0
M  V30 17585 C 1633.78 3.86215 -4.47875 0
M  V30 17586 H 1632.71 0.600617 -0.455824 0
M  V30 17587 H 1635.36 0.939671 -1.57615 0
M  V30 17588 H 1633.75 3.56199 -1.73027 0
M  V30 17589 H 1634.92 2.02342 -4.13998 0
M  V30 17590 H 1633.24 1.96926 -3.66891 0
M  V30 17591 H 1635.83 4.59114 -2.74078 0
M  V30 17592 H 1636.18 4.00636 -1.13121 0
M  V30 17593 H 1636.71 3.05993 -2.54192 0
M  V30 17594 H 1633.45 3.57367 -5.49517 0
M  V30 17595 H 1632.97 4.44874 -4.02302 0
M  V30 17596 H 1634.65 4.5392 -4.61049 0
M  V30 17597 N 1634.78 1.15898 1.06796 0
M  V30 17598 C 1635.71 0.818654 2.14081 0
M  V30 17599 C 1636.72 -0.171847 1.6189 0
M  V30 17600 O 1637.91 0.052196 1.78424 0
M  V30 17601 C 1635.01 0.197283 3.38325 0
M  V30 17602 C 1634.19 1.22662 4.19849 0
M  V30 17603 C 1633.24 0.625985 5.22463 0
M  V30 17604 O 1632.27 1.29347 5.54309 0
M  V30 17605 N 1633.47 -0.589665 5.77497 0
M  V30 17606 H 1636.24 1.74196 2.43877 0
M  V30 17607 H 1633.8 1.05562 1.22753 0
M  V30 17608 H 1635.79 -0.217439 4.04115 0
M  V30 17609 H 1634.36 -0.629476 3.06197 0
M  V30 17610 H 1633.58 1.8177 3.49791 0
M  V30 17611 H 1634.87 1.92143 4.71125 0
M  V30 17612 H 1634.27 -1.15022 5.53883 0
M  V30 17613 H 1632.82 -0.946667 6.44889 0
M  V30 17614 N 1636.26 -1.25243 0.956659 0
M  V30 17615 C 1637.67 -1.74909 0.652979 0
M  V30 17616 C 1638.02 -1.77704 -0.831605 0
M  V30 17617 O 1637.14 -1.39921 -1.65079 0
M  V30 17618 C 1637.74 -3.17639 1.1786 0
M  V30 17619 C 1636.3 -3.64856 0.925034 0
M  V30 17620 C 1635.44 -2.43844 1.32044 0
M  V30 17621 H 1638.4 -1.11101 1.13324 0
M  V30 17622 H 1638.42 -3.76654 0.539633 0
M  V30 17623 H 1637.93 -3.15572 2.25911 0
M  V30 17624 H 1636.03 -3.72335 -0.14043 0
M  V30 17625 H 1636.14 -4.5289 1.56292 0
M  V30 17626 H 1634.51 -2.43749 0.738813 0
M  V30 17627 H 1635.29 -2.44466 2.41021 0
M  V30 17628 N 1637.73 -0.725468 -1.3991 0
M  V30 17629 C 1639.15 -0.400048 -1.54505 0
M  V30 17630 C 1639.35 1.09014 -1.69464 0
M  V30 17631 O 1638.41 1.87624 -1.68977 0
M  V30 17632 C 1639.72 -1.17474 -2.76804 0
M  V30 17633 C 1641.27 -1.16202 -2.9063 0
M  V30 17634 C 1641.74 -1.91908 -4.15855 0
M  V30 17635 N 1643.23 -1.89026 -4.22875 0
M  V30 17636 C 1643.97 -2.4442 -5.18697 0
M  V30 17637 N 1643.46 -3.0841 -6.20367 0
M  V30 17638 N 1645.26 -2.34506 -5.10846 0
M  V30 17639 H 1637.41 -1.6916 -1.28447 0
M  V30 17640 H 1639.67 -0.715556 -0.621839 0
M  V30 17641 H 1639.38 -2.22881 -2.72061 0
M  V30 17642 H 1639.25 -0.772871 -3.69197 0
M  V30 17643 H 1641.64 -0.116116 -2.94871 0
M  V30 17644 H 1641.72 -1.60319 -1.99327 0
M  V30 17645 H 1641.36 -2.96494 -4.12375 0
M  V30 17646 H 1641.29 -1.45204 -5.06185 0
M  V30 17647 H 1643.78 -1.42399 -3.50044 0
M  V30 17648 H 1644.1 -3.48169 -6.89926 0
M  V30 17649 H 1642.44 -3.12497 -6.20782 0
M  V30 17650 H 1645.63 -1.84164 -4.3035 0
M  V30 17651 H 1645.81 -2.77976 -5.85349 0
M  V30 17652 N 1639.21 1.50354 -0.472382 0
M  V30 17653 C 1640.44 2.07238 0.0820787 0
M  V30 17654 C 1640.86 1.3338 1.32632 0
M  V30 17655 O 1640.22 0.381857 1.77233 0
M  V30 17656 C 1640.27 3.58919 0.347746 0
M  V30 17657 O 1639.37 3.86888 1.42799 0
M  V30 17658 H 1638.71 0.663862 -0.0135544 0
M  V30 17659 H 1641.24 1.93533 -0.663795 0
M  V30 17660 H 1641.25 4.03743 0.587855 0
M  V30 17661 H 1639.93 4.12093 -0.56147 0
M  V30 17662 H 1638.51 3.53901 1.17509 0
M  V30 17663 N 1640.69 0.205039 1.56261 0
M  V30 17664 C 1641.94 -0.42506 1.98909 0
M  V30 17665 C 1642.29 -1.58548 1.08997 0
M  V30 17666 O 1641.59 -1.91114 0.136433 0
M  V30 17667 C 1641.78 -0.924086 3.45247 0
M  V30 17668 C 1641.61 0.186441 4.49313 0
M  V30 17669 C 1640.38 0.647379 5.01136 0
M  V30 17670 C 1642.58 0.998917 5.04506 0
M  V30 17671 N 1640.56 1.73469 5.88882 0
M  V30 17672 C 1641.93 1.93542 5.89017 0
M  V30 17673 C 1643.98 1.04022 4.86913 0
M  V30 17674 C 1642.69 2.90982 6.57816 0
M  V30 17675 C 1644.71 2.00272 5.56458 0
M  V30 17676 C 1644.08 2.92664 6.40724 0
M  V30 17677 H 1640.17 -0.122679 0.772317 0
M  V30 17678 H 1642.76 0.31302 1.92167 0
M  V30 17679 H 1640.93 -1.63158 3.52469 0
M  V30 17680 H 1642.66 -1.52562 3.74842 0
M  V30 17681 H 1639.42 0.238929 4.72997 0
M  V30 17682 H 1639.84 2.27985 6.37457 0
M  V30 17683 H 1644.48 0.339864 4.21432 0
M  V30 17684 H 1642.2 3.61988 7.22489 0
M  V30 17685 H 1645.79 2.0412 5.44818 0
M  V30 17686 H 1644.67 3.65927 6.9359 0
M  V30 17687 N 1642.17 -1.57451 -0.0684915 0
M  V30 17688 C 1643.08 -2.07274 -1.09885 0
M  V30 17689 C 1644.1 -1.00295 -1.42186 0
M  V30 17690 O 1645.27 -1.31786 -1.52297 0
M  V30 17691 C 1642.34 -2.50949 -2.39219 0
M  V30 17692 C 1641.4 -3.7224 -2.13859 0
M  V30 17693 C 1640.63 -4.13823 -3.37026 0
M  V30 17694 O 1640.85 -3.55248 -4.46268 0
M  V30 17695 O 1639.79 -5.06587 -3.25044 0
M  V30 17696 H 1643.61 -2.9539 -0.705587 0
M  V30 17697 H 1641.2 -1.46698 -0.282849 0
M  V30 17698 H 1643.08 -2.79547 -3.15327 0
M  V30 17699 H 1641.76 -1.6596 -2.77919 0
M  V30 17700 H 1640.66 -3.4872 -1.35445 0
M  V30 17701 H 1642 -4.58091 -1.80038 0
M  V30 17702 N 1643.65 0.339955 -1.5389 0
M  V30 17703 C 1644.6 1.43787 -1.82833 0
M  V30 17704 C 1645.59 1.54303 -0.699058 0
M  V30 17705 O 1646.8 1.56884 -0.882455 0
M  V30 17706 H 1643.17 0.479497 -0.579298 0
M  V30 17707 H 1645.14 1.16592 -2.7468 0
M  V30 17708 C 1643.89 2.80257 -2.05794 0
M  V30 17709 H 1643.21 2.72933 -2.92143 0
M  V30 17710 H 1644.65 3.56191 -2.30009 0
M  V30 17711 C 1643.11 3.26143 -0.844532 0
M  V30 17712 O 1643.64 4.01674 -0.0457121 0
M  V30 17713 N 1641.85 2.82988 -0.660748 0
M  V30 17714 H 1641.4 2.21687 -1.31198 0
M  V30 17715 H 1641.35 3.14044 0.149661 0
M  V30 17716 N 1645.13 1.45684 0.601159 0
M  V30 17717 C 1646.35 1.53806 1.39135 0
M  V30 17718 C 1646.78 0.173625 1.87297 0
M  V30 17719 O 1646.13 -0.842931 1.60513 0
M  V30 17720 C 1646.18 2.53201 2.56752 0
M  V30 17721 O 1645.29 2.05427 3.57594 0
M  V30 17722 H 1644.63 0.51824 0.415118 0
M  V30 17723 H 1647.16 1.91095 0.731006 0
M  V30 17724 H 1647.17 2.72215 3.03912 0
M  V30 17725 H 1645.84 3.52294 2.21047 0
M  V30 17726 H 1644.42 1.96318 3.17039 0
M  V30 17727 N 1646.6 -0.84422 1.33082 0
M  V30 17728 C 1647.55 -1.95363 1.2289 0
M  V30 17729 C 1648.52 -1.65744 0.108705 0
M  V30 17730 O 1649.71 -1.88643 0.286057 0
M  V30 17731 C 1646.85 -3.31228 0.968594 0
M  V30 17732 C 1645.96 -3.73279 2.17455 0
M  V30 17733 C 1645.09 -4.97987 1.84885 0
M  V30 17734 C 1644.13 -5.32558 3.01743 0
M  V30 17735 N 1643.27 -6.48442 2.69197 0
M  V30 17736 H 1648.11 -2.03412 2.17778 0
M  V30 17737 H 1645.65 -0.995461 1.083 0
M  V30 17738 H 1647.6 -4.09494 0.798129 0
M  V30 17739 H 1646.23 -3.22751 0.0564631 0
M  V30 17740 H 1645.29 -2.9058 2.45494 0
M  V30 17741 H 1646.6 -3.94814 3.04834 0
M  V30 17742 H 1645.75 -5.83987 1.64451 0
M  V30 17743 H 1644.49 -4.7841 0.947356 0
M  V30 17744 H 1643.5 -4.45064 3.22797 0
M  V30 17745 H 1644.72 -5.54085 3.9264 0
M  V30 17746 H 1642.67 -6.30363 1.816 0
M  V30 17747 H 1642.58 -6.70046 3.50106 0
M  V30 17748 H 1643.85 -7.37568 2.52217 0
M  V30 17749 N 1648.08 -1.16463 -1.0618 0
M  V30 17750 C 1649.33 -0.946846 -1.79 0
M  V30 17751 C 1649.66 0.525259 -1.87273 0
M  V30 17752 O 1648.91 1.40584 -1.36142 0
M  V30 17753 C 1649.21 -1.52085 -3.23427 0
M  V30 17754 C 1648.88 -3.01547 -3.35232 0
M  V30 17755 C 1647.54 -3.42346 -3.38161 0
M  V30 17756 C 1649.89 -3.97543 -3.37059 0
M  V30 17757 C 1647.22 -4.77759 -3.40534 0
M  V30 17758 C 1649.57 -5.32843 -3.4097 0
M  V30 17759 C 1648.23 -5.73121 -3.42182 0
M  V30 17760 H 1647.5 -0.346475 -0.655008 0
M  V30 17761 H 1650.15 -1.45195 -1.24862 0
M  V30 17762 H 1648.46 -0.937212 -3.80426 0
M  V30 17763 H 1650.15 -1.32801 -3.78371 0
M  V30 17764 H 1646.74 -2.69017 -3.33658 0
M  V30 17765 H 1650.93 -3.67088 -3.34006 0
M  V30 17766 H 1646.18 -5.08293 -3.39777 0
M  V30 17767 H 1650.36 -6.07014 -3.41332 0
M  V30 17768 H 1647.98 -6.78029 -3.43774 0
M  V30 17769 N 1649.56 1.24734 -0.963288 0
M  V30 17770 C 1650.84 1.88004 -0.539809 0
M  V30 17771 C 1651.22 1.86814 0.983035 0
M  V30 17772 O 1650.56 1.33769 1.85251 0
M  V30 17773 C 1650.77 3.30326 -1.1263 0
M  V30 17774 C 1652.12 4.07039 -1.20848 0
M  V30 17775 O 1653.15 3.3948 -1.07849 0
M  V30 17776 O 1652.01 5.27906 -1.41342 0
M  V30 17777 H 1649.1 0.807318 -0.17935 0
M  V30 17778 H 1651.65 1.3274 -1.05727 0
M  V30 17779 H 1650.42 3.25668 -2.16925 0
M  V30 17780 H 1650.04 3.93159 -0.592614 0
M  V30 17781 N 1651.04 0.732878 1.39523 0
M  V30 17782 C 1652.28 0.279891 2.00556 0
M  V30 17783 C 1652.61 -1.13223 1.58148 0
M  V30 17784 O 1651.87 -1.78575 0.800591 0
M  V30 17785 C 1652.17 0.32714 3.559 0
M  V30 17786 C 1651.83 1.69198 4.17951 0
M  V30 17787 C 1650.49 2.06555 4.34613 0
M  V30 17788 C 1652.85 2.58821 4.52395 0
M  V30 17789 C 1650.17 3.33047 4.83008 0
M  V30 17790 C 1652.53 3.84682 5.02197 0
M  V30 17791 C 1651.19 4.22134 5.17068 0
M  V30 17792 H 1650.46 0.102419 0.733888 0
M  V30 17793 H 1653.11 0.939304 1.66881 0
M  V30 17794 H 1651.41 -0.415849 3.89587 0
M  V30 17795 H 1653.11 -0.0414564 4.00979 0
M  V30 17796 H 1649.7 1.39153 4.05382 0
M  V30 17797 H 1653.88 2.31231 4.39142 0
M  V30 17798 H 1649.14 3.6201 4.92706 0
M  V30 17799 H 1653.31 4.54286 5.27823 0
M  V30 17800 H 1650.94 5.20215 5.54329 0
M  V30 17801 N 1652.52 -1.50101 0.480349 0
M  V30 17802 C 1653.79 -1.95144 -0.133456 0
M  V30 17803 C 1654.17 -1.4211 -1.56102 0
M  V30 17804 O 1653.52 -0.626012 -2.19757 0
M  V30 17805 C 1653.73 -3.48935 -0.0672904 0
M  V30 17806 C 1655.08 -4.23854 -0.251564 0
M  V30 17807 O 1656.1 -3.55911 -0.143446 0
M  V30 17808 O 1654.96 -5.44467 -0.470947 0
M  V30 17809 H 1652.06 -0.820098 -0.106619 0
M  V30 17810 H 1654.6 -1.60832 0.541413 0
M  V30 17811 H 1653.37 -3.80111 0.929058 0
M  V30 17812 H 1653 -3.8981 -0.783214 0
M  V30 17813 N 1653.99 -0.213323 -1.5615 0
M  V30 17814 C 1654.94 0.716708 -2.21283 0
M  V30 17815 C 1655.94 1.20599 -1.18963 0
M  V30 17816 O 1657.14 1.16677 -1.37064 0
M  V30 17817 H 1653.52 0.249524 -0.709395 0
M  V30 17818 H 1655.49 0.14385 -2.98053 0
M  V30 17819 C 1654.24 1.91775 -2.9003 0
M  V30 17820 H 1653.56 1.55036 -3.68516 0
M  V30 17821 H 1655 2.54646 -3.39016 0
M  V30 17822 C 1653.46 2.768 -1.92051 0
M  V30 17823 O 1653.99 3.75299 -1.43225 0
M  V30 17824 N 1652.19 2.42666 -1.5988 0
M  V30 17825 H 1651.74 1.62622 -1.99779 0
M  V30 17826 H 1651.7 2.99836 -0.945833 0
M  V30 17827 N 1655.47 1.57485 0.0601405 0
M  V30 17828 C 1656.72 1.88094 0.758192 0
M  V30 17829 C 1657.05 0.807138 1.76632 0
M  V30 17830 O 1656.33 -0.181347 1.93653 0
M  V30 17831 C 1656.61 3.29363 1.45574 0
M  V30 17832 C 1656.46 4.47408 0.463233 0
M  V30 17833 C 1657.78 3.69048 2.39773 0
M  V30 17834 H 1654.9 0.684106 0.274169 0
M  V30 17835 H 1657.54 1.89988 0.0212215 0
M  V30 17836 H 1655.69 3.27879 2.08393 0
M  V30 17837 H 1657.36 4.6102 -0.160641 0
M  V30 17838 H 1655.61 4.3324 -0.220408 0
M  V30 17839 H 1656.28 5.43065 0.989164 0
M  V30 17840 H 1658.75 3.71701 1.87024 0
M  V30 17841 H 1657.63 4.68761 2.85577 0
M  V30 17842 H 1657.89 2.9961 3.25094 0
M  V30 17843 N 1656.95 -0.331789 1.54068 0
M  V30 17844 C 1657.88 -1.41332 1.8587 0
M  V30 17845 C 1658.86 -1.54353 0.714787 0
M  V30 17846 O 1660.05 -1.68368 0.967777 0
M  V30 17847 C 1657.18 -2.78218 2.07875 0
M  V30 17848 C 1656.13 -2.79994 3.23709 0
M  V30 17849 C 1655.46 -4.19878 3.31069 0
M  V30 17850 C 1656.76 -2.44476 4.6155 0
M  V30 17851 H 1658.45 -1.14966 2.76447 0
M  V30 17852 H 1656 -0.551615 1.33016 0
M  V30 17853 H 1657.95 -3.53937 2.28706 0
M  V30 17854 H 1656.67 -3.06044 1.14038 0
M  V30 17855 H 1655.33 -2.0673 3.02751 0
M  V30 17856 H 1654.98 -4.44831 2.34807 0
M  V30 17857 H 1654.68 -4.21974 4.08915 0
M  V30 17858 H 1656.2 -4.97421 3.54125 0
M  V30 17859 H 1657.62 -3.09908 4.82317 0
M  V30 17860 H 1656.02 -2.57837 5.41886 0
M  V30 17861 H 1657.09 -1.3964 4.64358 0
M  V30 17862 N 1658.43 -1.46001 -0.593424 0
M  V30 17863 C 1659.39 -1.55347 -1.68523 0
M  V30 17864 C 1660.39 -0.431599 -1.549 0
M  V30 17865 O 1661.58 -0.695559 -1.59711 0
M  V30 17866 C 1658.71 -1.46355 -3.07885 0
M  V30 17867 H 1659.91 -2.52639 -1.61597 0
M  V30 17868 H 1657.46 -1.33652 -0.810363 0
M  V30 17869 H 1658.19 -0.503024 -3.20375 0
M  V30 17870 H 1657.98 -2.27741 -3.19181 0
M  V30 17871 H 1659.47 -1.55958 -3.87385 0
M  V30 17872 N 1659.91 0.83715 -1.33527 0
M  V30 17873 C 1660.87 1.92865 -1.23837 0
M  V30 17874 C 1661.87 1.60032 -0.157005 0
M  V30 17875 O 1663.06 1.69339 -0.408654 0
M  V30 17876 C 1660.19 3.28568 -0.908617 0
M  V30 17877 H 1661.38 2.02883 -2.20859 0
M  V30 17878 H 1658.94 1.02944 -1.1761 0
M  V30 17879 H 1659.67 3.24246 0.0590328 0
M  V30 17880 H 1659.46 3.53779 -1.69064 0
M  V30 17881 H 1660.95 4.0853 -0.86561 0
M  V30 17882 N 1661.38 1.17024 1.05561 0
M  V30 17883 C 1662.32 0.827019 2.12687 0
M  V30 17884 C 1663.3 -0.204573 1.61308 0
M  V30 17885 O 1664.48 -0.0869578 1.88299 0
M  V30 17886 C 1661.61 0.233018 3.37897 0
M  V30 17887 C 1660.65 1.2394 4.08094 0
M  V30 17888 S 1661.49 2.78918 4.57127 0
M  V30 17889 C 1662.64 2.20988 5.8559 0
M  V30 17890 H 1662.87 1.73431 2.41472 0
M  V30 17891 H 1660.41 0.994498 1.18106 0
M  V30 17892 H 1662.37 -0.103221 4.1037 0
M  V30 17893 H 1661.03 -0.652154 3.07255 0
M  V30 17894 H 1660.22 0.772359 4.98047 0
M  V30 17895 H 1659.82 1.5211 3.4167 0
M  V30 17896 H 1662.11 1.58313 6.58744 0
M  V30 17897 H 1663.06 3.0918 6.37035 0
M  V30 17898 H 1663.46 1.64583 5.39975 0
M  V30 17899 N 1662.86 -1.24221 0.969889 0
M  V30 17900 C 1663.8 -2.2379 0.446447 0
M  V30 17901 C 1664.77 -1.55333 -0.480658 0
M  V30 17902 O 1665.96 -1.83953 -0.411531 0
M  V30 17903 C 1663.08 -3.36831 -0.35529 0
M  V30 17904 C 1662.13 -4.23386 0.514419 0
M  V30 17905 S 1662.96 -4.98501 1.95595 0
M  V30 17906 C 1664.12 -6.14999 1.16306 0
M  V30 17907 H 1664.35 -2.67844 1.29023 0
M  V30 17908 H 1661.89 -1.33536 0.775086 0
M  V30 17909 H 1663.84 -4.02391 -0.811882 0
M  V30 17910 H 1662.5 -2.91332 -1.17407 0
M  V30 17911 H 1661.7 -5.03898 -0.101254 0
M  V30 17912 H 1661.3 -3.6284 0.906829 0
M  V30 17913 H 1663.59 -6.76202 0.419162 0
M  V30 17914 H 1664.53 -6.80931 1.94264 0
M  V30 17915 H 1664.94 -5.6031 0.68647 0
M  V30 17916 N 1664.34 -0.740267 -1.39132 0
M  V30 17917 C 1665.3 -0.112183 -2.28925 0
M  V30 17918 C 1666.3 0.661598 -1.46559 0
M  V30 17919 O 1667.49 0.489835 -1.67171 0
M  V30 17920 C 1664.63 0.850121 -3.3013 0
M  V30 17921 H 1665.82 -0.903339 -2.85972 0
M  V30 17922 H 1663.37 -0.506427 -1.47868 0
M  V30 17923 H 1664.11 1.66744 -2.78149 0
M  V30 17924 H 1663.89 0.297847 -3.90967 0
M  V30 17925 H 1665.38 1.28599 -3.97306 0
M  V30 17926 N 1665.82 1.49844 -0.488302 0
M  V30 17927 C 1666.75 2.31737 0.286432 0
M  V30 17928 C 1667.73 1.39424 0.974418 0
M  V30 17929 O 1668.91 1.68339 0.968274 0
M  V30 17930 C 1666.04 3.19616 1.35878 0
M  V30 17931 C 1665 4.20619 0.791409 0
M  V30 17932 C 1664.32 4.9735 1.96333 0
M  V30 17933 C 1665.62 5.21882 -0.208975 0
M  V30 17934 H 1667.32 2.96755 -0.397092 0
M  V30 17935 H 1664.86 1.42709 -0.192413 0
M  V30 17936 H 1666.82 3.75711 1.90838 0
M  V30 17937 H 1665.54 2.52516 2.07131 0
M  V30 17938 H 1664.2 3.65651 0.263647 0
M  V30 17939 H 1663.85 4.26708 2.66325 0
M  V30 17940 H 1663.55 5.65684 1.58983 0
M  V30 17941 H 1665.07 5.56286 2.51751 0
M  V30 17942 H 1666.49 5.72746 0.252049 0
M  V30 17943 H 1664.88 5.98033 -0.497638 0
M  V30 17944 H 1665.95 4.7157 -1.12916 0
M  V30 17945 N 1667.3 0.221601 1.56034 0
M  V30 17946 C 1668.54 -0.410087 1.98304 0
M  V30 17947 C 1668.87 -1.59769 1.10924 0
M  V30 17948 O 1668.13 -1.95092 0.154196 0
M  V30 17949 C 1668.43 -0.887416 3.46208 0
M  V30 17950 C 1668.09 0.189671 4.50501 0
M  V30 17951 C 1666.75 0.485557 4.78744 0
M  V30 17952 C 1669.11 0.918112 5.1305 0
M  V30 17953 C 1666.43 1.5144 5.66818 0
M  V30 17954 C 1668.79 1.93629 6.02238 0
M  V30 17955 C 1667.45 2.23909 6.28825 0
M  V30 17956 H 1666.72 -0.150061 0.725646 0
M  V30 17957 H 1669.37 0.32413 1.88737 0
M  V30 17958 H 1667.67 -1.70039 3.52979 0
M  V30 17959 H 1669.37 -1.38602 3.76285 0
M  V30 17960 H 1665.96 -0.0510987 4.2857 0
M  V30 17961 H 1670.14 0.702761 4.91299 0
M  V30 17962 H 1665.4 1.75462 5.85682 0
M  V30 17963 H 1669.57 2.5058 6.49756 0
M  V30 17964 H 1667.2 3.03774 6.96868 0
M  V30 17965 N 1668.77 -1.57515 -0.0517878 0
M  V30 17966 C 1670 -1.92456 -0.759485 0
M  V30 17967 C 1670.42 -0.819396 -1.70092 0
M  V30 17968 O 1669.77 0.205913 -1.81335 0
M  V30 17969 C 1669.83 -3.27242 -1.53606 0
M  V30 17970 O 1669.55 -4.33511 -0.632441 0
M  V30 17971 C 1671.05 -3.76324 -2.34297 0
M  V30 17972 H 1668.27 -0.635688 -0.214807 0
M  V30 17973 H 1670.81 -2.04494 -0.0160862 0
M  V30 17974 H 1668.97 -3.16671 -2.23155 0
M  V30 17975 H 1669.38 -5.11178 -1.17462 0
M  V30 17976 H 1670.85 -4.73209 -2.84213 0
M  V30 17977 H 1671.33 -3.06351 -3.14716 0
M  V30 17978 H 1671.94 -3.89904 -1.69866 0
M  V30 17979 N 1670.25 0.323614 -1.54242 0
M  V30 17980 C 1671.5 1.06314 -1.727 0
M  V30 17981 C 1671.83 1.87674 -0.499225 0
M  V30 17982 O 1671.11 1.87862 0.503805 0
M  V30 17983 C 1671.39 1.9879 -3.00258 0
M  V30 17984 C 1671.24 1.2076 -4.33286 0
M  V30 17985 C 1672.56 2.98314 -3.23569 0
M  V30 17986 H 1669.68 0.385101 -0.628384 0
M  V30 17987 H 1672.32 0.339801 -1.86937 0
M  V30 17988 H 1670.47 2.60468 -2.88251 0
M  V30 17989 H 1672.15 0.615425 -4.57176 0
M  V30 17990 H 1670.39 0.509878 -4.30793 0
M  V30 17991 H 1671.06 1.88662 -5.18759 0
M  V30 17992 H 1673.54 2.46757 -3.35037 0
M  V30 17993 H 1672.41 3.60204 -4.14179 0
M  V30 17994 H 1672.67 3.7077 -2.40795 0
M  V30 17995 N 1671.73 1.46313 0.585673 0
M  V30 17996 C 1672.96 1.55273 1.37496 0
M  V30 17997 C 1673.38 0.193481 1.87102 0
M  V30 17998 O 1672.74 -0.825859 1.61398 0
M  V30 17999 C 1672.79 2.5591 2.54052 0
M  V30 18000 O 1671.89 2.09208 3.55395 0
M  V30 18001 H 1671.23 0.522614 0.409598 0
M  V30 18002 H 1673.76 1.9186 0.710697 0
M  V30 18003 H 1673.77 2.75424 3.01008 0
M  V30 18004 H 1672.45 3.54619 2.17298 0
M  V30 18005 H 1671.02 1.9967 3.14939 0
M  V30 18006 N 1673.21 -0.830057 1.33969 0
M  V30 18007 C 1674.44 -1.61774 1.28984 0
M  V30 18008 C 1674.85 -1.88299 -0.137515 0
M  V30 18009 O 1674.21 -1.46936 -1.0824 0
M  V30 18010 C 1674.26 -2.96282 2.07121 0
M  V30 18011 O 1673.98 -2.70918 3.44289 0
M  V30 18012 C 1675.48 -3.90699 2.09449 0
M  V30 18013 H 1672.7 -0.503088 0.444008 0
M  V30 18014 H 1675.25 -1.03328 1.76475 0
M  V30 18015 H 1673.4 -3.51305 1.63289 0
M  V30 18016 H 1673.82 -3.56635 3.84593 0
M  V30 18017 H 1675.29 -4.82266 2.68558 0
M  V30 18018 H 1675.77 -4.25536 1.08702 0
M  V30 18019 H 1676.37 -3.41614 2.53338 0
M  V30 18020 N 1674.69 -1.17582 -1.04939 0
M  V30 18021 C 1675.93 -0.965778 -1.77986 0
M  V30 18022 C 1676.26 0.505366 -1.8782 0
M  V30 18023 O 1675.52 1.39132 -1.37625 0
M  V30 18024 C 1675.82 -1.55507 -3.21796 0
M  V30 18025 C 1675.48 -3.05086 -3.32014 0
M  V30 18026 C 1674.14 -3.45914 -3.3451 0
M  V30 18027 C 1676.5 -4.01096 -3.32824 0
M  V30 18028 C 1673.82 -4.81344 -3.35447 0
M  V30 18029 C 1676.18 -5.3643 -3.353 0
M  V30 18030 C 1674.84 -5.76718 -3.36084 0
M  V30 18031 H 1674.11 -0.353403 -0.651297 0
M  V30 18032 H 1676.76 -1.46512 -1.23315 0
M  V30 18033 H 1675.06 -0.977509 -3.7941 0
M  V30 18034 H 1676.76 -1.36807 -3.76941 0
M  V30 18035 H 1673.35 -2.72541 -3.30786 0
M  V30 18036 H 1677.53 -3.7061 -3.30094 0
M  V30 18037 H 1672.79 -5.11868 -3.34366 0
M  V30 18038 H 1676.96 -6.106 -3.34874 0
M  V30 18039 H 1674.59 -6.81637 -3.36563 0
M  V30 18040 N 1676.17 1.23705 -0.976463 0
M  V30 18041 C 1677.08 2.28728 -0.521605 0
M  V30 18042 C 1678.09 1.68813 0.421691 0
M  V30 18043 O 1679.27 1.99263 0.292579 0
M  V30 18044 C 1676.33 3.4627 0.172545 0
M  V30 18045 C 1675.39 4.21557 -0.811664 0
M  V30 18046 C 1674.63 5.33488 -0.150546 0
M  V30 18047 O 1674.85 5.60478 1.05926 0
M  V30 18048 O 1673.78 5.95909 -0.847132 0
M  V30 18049 H 1677.61 2.6977 -1.39491 0
M  V30 18050 H 1675.19 1.29562 -0.743909 0
M  V30 18051 H 1677.08 4.17634 0.562103 0
M  V30 18052 H 1675.75 3.07187 1.02067 0
M  V30 18053 H 1674.66 3.52533 -1.25185 0
M  V30 18054 H 1675.99 4.6448 -1.62848 0
M  V30 18055 N 1677.64 0.747635 1.38738 0
M  V30 18056 C 1678.89 0.300552 1.99853 0
M  V30 18057 C 1679.21 -1.11986 1.59638 0
M  V30 18058 O 1678.48 -1.76477 0.850447 0
M  V30 18059 H 1677.06 0.108134 0.739132 0
M  V30 18060 H 1679.72 0.960405 1.69594 0
M  V30 18061 H 1678.82 0.358956 3.10029 0
M  V30 18062 N 1679.12 -1.49583 0.496242 0
M  V30 18063 C 1680.37 -2.03357 -0.0420511 0
M  V30 18064 C 1680.72 -1.36959 -1.3513 0
M  V30 18065 O 1680.02 -0.494641 -1.85105 0
M  V30 18066 C 1680.21 -3.56482 -0.255949 0
M  V30 18067 C 1680.04 -4.37722 1.03101 0
M  V30 18068 C 1678.81 -4.79914 1.58147 0
M  V30 18069 C 1681.01 -4.7659 1.93305 0
M  V30 18070 N 1678.99 -5.45564 2.81483 0
M  V30 18071 C 1680.36 -5.41909 3.01221 0
M  V30 18072 C 1682.41 -4.58533 1.9404 0
M  V30 18073 C 1681.12 -5.91083 4.09894 0
M  V30 18074 C 1683.14 -5.08665 3.01685 0
M  V30 18075 C 1682.51 -5.73981 4.0832 0
M  V30 18076 H 1678.6 -0.781591 0.0252733 0
M  V30 18077 H 1681.19 -1.82807 0.670044 0
M  V30 18078 H 1679.36 -3.76926 -0.937098 0
M  V30 18079 H 1681.09 -3.96898 -0.790825 0
M  V30 18080 H 1677.85 -4.59989 1.12725 0
M  V30 18081 H 1678.27 -5.82979 3.44186 0
M  V30 18082 H 1682.91 -4.07446 1.12906 0
M  V30 18083 H 1680.63 -6.41194 4.91829 0
M  V30 18084 H 1684.22 -4.96508 3.03268 0
M  V30 18085 H 1683.1 -6.12071 4.90243 0
M  V30 18086 N 1680.6 -0.229873 -1.55915 0
M  V30 18087 C 1682.01 0.276452 -1.84642 0
M  V30 18088 C 1682.36 1.58861 -1.15142 0
M  V30 18089 O 1681.49 2.12207 -0.423932 0
M  V30 18090 C 1682.08 0.508371 -3.34964 0
M  V30 18091 C 1680.64 0.958989 -3.63979 0
M  V30 18092 C 1679.79 0.0266738 -2.77287 0
M  V30 18093 H 1682.74 -0.452864 -1.52101 0
M  V30 18094 H 1682.76 1.35328 -3.55621 0
M  V30 18095 H 1682.27 -0.4468 -3.8552 0
M  V30 18096 H 1680.37 1.92722 -3.18887 0
M  V30 18097 H 1680.49 0.827637 -4.71897 0
M  V30 18098 H 1678.85 0.53498 -2.49018 0
M  V30 18099 H 1679.63 -0.923563 -3.30644 0
M  V30 18100 N 1682.08 1.5754 0.0434337 0
M  V30 18101 C 1682.99 2.08996 1.06574 0
M  V30 18102 C 1684 1.02544 1.40573 0
M  V30 18103 O 1685.18 1.34192 1.50181 0
M  V30 18104 C 1682.24 2.54723 2.35196 0
M  V30 18105 C 1681.31 3.75595 2.0791 0
M  V30 18106 C 1680.54 4.19132 3.304 0
M  V30 18107 O 1680.76 3.62303 4.40559 0
M  V30 18108 O 1679.7 5.11694 3.16944 0
M  V30 18109 H 1683.52 2.96475 0.658503 0
M  V30 18110 H 1681.11 1.47129 0.259475 0
M  V30 18111 H 1682.99 2.84529 3.1084 0
M  V30 18112 H 1681.66 1.70361 2.75243 0
M  V30 18113 H 1680.57 3.5083 1.2988 0
M  V30 18114 H 1681.9 4.60897 1.72727 0
M  V30 18115 N 1683.56 -0.31543 1.54411 0
M  V30 18116 C 1684.49 -1.39353 1.87358 0
M  V30 18117 C 1685.47 -1.53586 0.731118 0
M  V30 18118 O 1686.65 -1.67332 0.98558 0
M  V30 18119 C 1683.78 -2.75998 2.10814 0
M  V30 18120 C 1682.74 -2.76545 3.2666 0
M  V30 18121 C 1682.06 -4.16343 3.35504 0
M  V30 18122 C 1683.36 -2.39567 4.64117 0
M  V30 18123 H 1685.06 -1.12028 2.77651 0
M  V30 18124 H 1682.6 -0.537476 1.33593 0
M  V30 18125 H 1684.55 -3.51491 2.32447 0
M  V30 18126 H 1683.28 -3.04817 1.17278 0
M  V30 18127 H 1681.94 -2.03507 3.04927 0
M  V30 18128 H 1681.59 -4.42316 2.39512 0
M  V30 18129 H 1681.29 -4.17613 4.13368 0
M  V30 18130 H 1682.81 -4.93637 3.59381 0
M  V30 18131 H 1684.22 -3.04775 4.85577 0
M  V30 18132 H 1682.62 -2.52075 5.4459 0
M  V30 18133 H 1683.69 -1.34707 4.65813 0
M  V30 18134 N 1685.03 -1.46622 -0.577906 0
M  V30 18135 C 1685.96 -1.60413 -1.69676 0
M  V30 18136 C 1686.95 -0.454277 -1.63922 0
M  V30 18137 O 1688.13 -0.68111 -1.81864 0
M  V30 18138 C 1685.26 -1.59866 -3.08318 0
M  V30 18139 C 1684.21 -2.7387 -3.28906 0
M  V30 18140 C 1683.54 -2.58386 -4.68125 0
M  V30 18141 C 1684.84 -4.15652 -3.16276 0
M  V30 18142 H 1686.53 -2.54073 -1.5839 0
M  V30 18143 H 1684.08 -1.22275 -0.760572 0
M  V30 18144 H 1686.03 -1.68108 -3.86417 0
M  V30 18145 H 1684.76 -0.627541 -3.20514 0
M  V30 18146 H 1683.42 -2.65105 -2.53209 0
M  V30 18147 H 1683.06 -1.59347 -4.77093 0
M  V30 18148 H 1682.76 -3.34855 -4.82852 0
M  V30 18149 H 1684.29 -2.68525 -5.48385 0
M  V30 18150 H 1685.7 -4.25503 -3.84214 0
M  V30 18151 H 1684.1 -4.92746 -3.42523 0
M  V30 18152 H 1685.17 -4.35471 -2.13291 0
M  V30 18153 N 1686.51 0.822941 -1.34408 0
M  V30 18154 C 1687.74 1.60854 -1.29652 0
M  V30 18155 C 1688.15 1.88742 0.131572 0
M  V30 18156 O 1687.49 1.47936 1.08907 0
M  V30 18157 C 1687.56 2.97437 -2.0192 0
M  V30 18158 C 1687.22 2.92443 -3.51178 0
M  V30 18159 C 1688.22 2.67029 -4.46085 0
M  V30 18160 C 1685.9 3.12076 -3.93591 0
M  V30 18161 C 1687.9 2.61299 -5.81379 0
M  V30 18162 C 1685.58 3.05971 -5.28985 0
M  V30 18163 C 1686.58 2.80615 -6.22691 0
M  V30 18164 O 1686.27 2.74442 -7.55603 0
M  V30 18165 H 1686 0.506701 -0.447471 0
M  V30 18166 H 1688.55 1.03197 -1.77594 0
M  V30 18167 H 1686.78 3.57012 -1.48592 0
M  V30 18168 H 1688.47 3.58444 -1.90455 0
M  V30 18169 H 1689.24 2.51596 -4.14638 0
M  V30 18170 H 1685.12 3.30828 -3.21051 0
M  V30 18171 H 1688.66 2.41428 -6.54491 0
M  V30 18172 H 1684.56 3.20957 -5.60051 0
M  V30 18173 H 1685.33 2.90169 -7.65339 0
M  V30 18174 N 1687.99 1.18137 1.04314 0
M  V30 18175 C 1689.41 0.930523 1.29667 0
M  V30 18176 C 1689.61 -0.405336 1.97381 0
M  V30 18177 O 1688.66 -1.14025 2.25288 0
M  V30 18178 C 1689.98 2.09427 2.1578 0
M  V30 18179 C 1691.52 2.13229 2.29134 0
M  V30 18180 C 1692 3.29014 3.18612 0
M  V30 18181 N 1693.49 3.28859 3.26199 0
M  V30 18182 C 1694.22 4.15092 3.95583 0
M  V30 18183 N 1693.72 5.11453 4.67319 0
M  V30 18184 N 1695.51 4.03014 3.91837 0
M  V30 18185 H 1687.66 2.04108 0.587669 0
M  V30 18186 H 1689.93 0.89171 0.321804 0
M  V30 18187 H 1689.63 3.06023 1.73328 0
M  V30 18188 H 1689.51 2.0528 3.16449 0
M  V30 18189 H 1691.89 1.17212 2.70823 0
M  V30 18190 H 1691.98 2.21435 1.28064 0
M  V30 18191 H 1691.62 4.25302 2.77635 0
M  V30 18192 H 1691.55 3.18045 4.19708 0
M  V30 18193 H 1694.04 2.59097 2.75095 0
M  V30 18194 H 1694.35 5.7363 5.1785 0
M  V30 18195 H 1692.7 5.15415 4.66232 0
M  V30 18196 H 1695.89 3.27021 3.34925 0
M  V30 18197 H 1696.06 4.70435 4.4564 0
M  V30 18198 N 1689.47 -1.23186 0.98301 0
M  V30 18199 C 1690.69 -1.96242 0.671114 0
M  V30 18200 C 1691.12 -1.72248 -0.755792 0
M  V30 18201 O 1690.48 -0.995555 -1.5152 0
M  V30 18202 C 1690.52 -3.47293 0.970571 0
M  V30 18203 O 1689.63 -4.1235 0.0639814 0
M  V30 18204 H 1688.97 -0.614262 0.252147 0
M  V30 18205 H 1691.5 -1.56551 1.31731 0
M  V30 18206 H 1691.51 -3.9776 0.908345 0
M  V30 18207 H 1690.18 -3.64083 2.01039 0
M  V30 18208 H 1688.76 -3.72461 0.180842 0
M  V30 18209 N 1690.95 -0.754982 -1.38339 0
M  V30 18210 C 1692.2 -0.308537 -1.99326 0
M  V30 18211 C 1692.51 1.1164 -1.60611 0
M  V30 18212 O 1693.71 1.66339 -2.14578 0
M  V30 18213 C 1692.17 -0.500688 -3.564 0
M  V30 18214 C 1691.78 -1.9348 -4.04066 0
M  V30 18215 C 1693.52 -0.117026 -4.24339 0
M  V30 18216 C 1691.43 -2.07544 -5.53786 0
M  V30 18217 H 1690.36 -0.111611 -0.745694 0
M  V30 18218 H 1693.01 -0.931722 -1.58086 0
M  V30 18219 H 1691.39 0.191702 -3.95536 0
M  V30 18220 H 1692.57 -2.66077 -3.76217 0
M  V30 18221 H 1690.88 -2.27351 -3.48856 0
M  V30 18222 H 1693.48 -0.200847 -5.34323 0
M  V30 18223 H 1693.82 0.930531 -4.05767 0
M  V30 18224 H 1694.35 -0.761323 -3.90447 0
M  V30 18225 H 1691.09 -3.10559 -5.77264 0
M  V30 18226 H 1690.61 -1.39409 -5.83374 0
M  V30 18227 H 1692.29 -1.86605 -6.19506 0
M  V30 18228 N 1692.42 1.49318 -0.504168 0
M  V30 18229 C 1693.7 1.95332 0.102393 0
M  V30 18230 C 1694.08 1.44576 1.53821 0
M  V30 18231 O 1693.43 0.660894 2.18734 0
M  V30 18232 C 1693.64 3.48998 0.0117694 0
M  V30 18233 C 1694.99 4.24201 0.184101 0
M  V30 18234 O 1696.01 3.56094 0.0868056 0
M  V30 18235 O 1694.87 5.45147 0.384267 0
M  V30 18236 H 1691.96 0.821691 0.0935582 0
M  V30 18237 H 1694.51 1.5995 -0.566932 0
M  V30 18238 H 1693.28 3.78585 -0.989413 0
M  V30 18239 H 1692.91 3.91006 0.7211 0
M  V30 18240 N 1693.9 0.238138 1.5579 0
M  V30 18241 C 1695.13 -0.396409 2.03576 0
M  V30 18242 C 1695.55 -1.5138 1.11649 0
M  V30 18243 O 1694.91 -1.80979 0.107774 0
M  V30 18244 C 1694.96 -0.889749 3.49451 0
M  V30 18245 O 1694.06 -1.99997 3.60659 0
M  V30 18246 H 1693.4 -0.0876017 0.658196 0
M  V30 18247 H 1695.93 0.361632 2.01379 0
M  V30 18248 H 1695.94 -1.19526 3.901 0
M  V30 18249 H 1694.62 -0.0720136 4.15838 0
M  V30 18250 H 1693.2 -1.69983 3.31904 0
M  V30 18251 N 1695.38 -1.57561 -0.0350783 0
M  V30 18252 C 1696.33 -2.02627 -1.04528 0
M  V30 18253 C 1697.31 -0.914525 -1.32383 0
M  V30 18254 O 1698.51 -1.17843 -1.32068 0
M  V30 18255 C 1695.64 -2.50425 -2.34824 0
M  V30 18256 C 1694.72 -3.68408 -2.10086 0
M  V30 18257 N 1695.11 -4.8134 -1.55387 0
M  V30 18258 C 1693.41 -3.75666 -2.40398 0
M  V30 18259 C 1694.11 -5.62998 -1.46314 0
M  V30 18260 N 1693.09 -5.07933 -1.93662 0
M  V30 18261 H 1696.89 -2.87366 -0.616284 0
M  V30 18262 H 1694.4 -1.60594 -0.241499 0
M  V30 18263 H 1696.4 -2.80968 -3.07998 0
M  V30 18264 H 1695.06 -1.67089 -2.78408 0
M  V30 18265 H 1696.07 -5.029 -1.2374 0
M  V30 18266 H 1692.75 -3.03119 -2.87098 0
M  V30 18267 H 1694.14 -6.63714 -1.04564 0
M  V30 18268 N 1696.86 0.307236 -1.54576 0
M  V30 18269 C 1698.09 1.06233 -1.77545 0
M  V30 18270 C 1698.5 1.81153 -0.5319 0
M  V30 18271 O 1697.86 1.75573 0.498044 0
M  V30 18272 C 1697.91 2.04775 -2.97908 0
M  V30 18273 O 1697.63 1.32896 -4.17457 0
M  V30 18274 C 1699.13 2.92373 -3.33216 0
M  V30 18275 H 1696.35 0.315318 -0.592297 0
M  V30 18276 H 1698.9 0.348403 -2.0151 0
M  V30 18277 H 1697.05 2.71679 -2.76169 0
M  V30 18278 H 1697.46 1.99022 -4.85274 0
M  V30 18279 H 1698.94 3.5738 -4.20694 0
M  V30 18280 H 1699.42 3.60343 -2.51097 0
M  V30 18281 H 1700.02 2.31009 -3.57093 0
M  V30 18282 N 1698.34 1.46926 0.570122 0
M  V30 18283 C 1699.25 1.6105 1.70587 0
M  V30 18284 C 1700.26 0.493636 1.66851 0
M  V30 18285 O 1701.44 0.759454 1.86532 0
M  V30 18286 C 1698.5 1.60913 3.07096 0
M  V30 18287 C 1697.56 2.83928 3.21999 0
M  V30 18288 C 1696.8 2.83788 4.51996 0
M  V30 18289 O 1697.02 1.93256 5.36664 0
M  V30 18290 O 1695.95 3.75491 4.70415 0
M  V30 18291 H 1699.78 2.57126 1.61616 0
M  V30 18292 H 1697.37 1.29863 0.738637 0
M  V30 18293 H 1699.25 1.63576 3.88356 0
M  V30 18294 H 1697.92 0.680005 3.16477 0
M  V30 18295 H 1696.83 2.86814 2.40185 0
M  V30 18296 H 1698.16 3.76091 3.17516 0
M  V30 18297 N 1699.82 -0.815801 1.34842 0
M  V30 18298 C 1701.09 -1.55867 1.18173 0
M  V30 18299 C 1701.47 -2.09698 -0.242848 0
M  V30 18300 O 1700.82 -1.91594 -1.24514 0
M  V30 18301 C 1701.03 -2.67445 2.24219 0
M  V30 18302 C 1702.38 -3.36027 2.59559 0
M  V30 18303 O 1703.4 -2.77708 2.23062 0
M  V30 18304 O 1702.26 -4.4136 3.22279 0
M  V30 18305 H 1699.36 -0.688242 0.458533 0
M  V30 18306 H 1701.9 -0.856558 1.46496 0
M  V30 18307 H 1700.67 -2.25473 3.19809 0
M  V30 18308 H 1700.3 -3.453 1.97113 0
M  V30 18309 N 1701.29 -1.18689 -1.03686 0
M  V30 18310 C 1702.24 -0.917369 -2.11785 0
M  V30 18311 C 1703.21 0.144719 -1.65468 0
M  V30 18312 O 1704.4 0.00427016 -1.908 0
M  V30 18313 C 1701.54 -0.453396 -3.42109 0
M  V30 18314 C 1700.65 -1.58134 -4.02017 0
M  V30 18315 C 1699.78 -1.06971 -5.20318 0
M  V30 18316 C 1698.82 -2.17208 -5.72265 0
M  V30 18317 N 1697.96 -1.67411 -6.81849 0
M  V30 18318 H 1702.8 -1.84297 -2.34177 0
M  V30 18319 H 1700.34 -0.918951 -1.14864 0
M  V30 18320 H 1702.29 -0.165843 -4.1687 0
M  V30 18321 H 1700.92 0.435219 -3.19853 0
M  V30 18322 H 1699.98 -1.98429 -3.24546 0
M  V30 18323 H 1701.29 -2.41219 -4.36594 0
M  V30 18324 H 1700.44 -0.736906 -6.02208 0
M  V30 18325 H 1699.18 -0.208487 -4.87254 0
M  V30 18326 H 1698.19 -2.51328 -4.88993 0
M  V30 18327 H 1699.41 -3.03772 -6.07371 0
M  V30 18328 H 1697.36 -0.83584 -6.50653 0
M  V30 18329 H 1697.27 -2.44091 -7.15511 0
M  V30 18330 H 1698.54 -1.3707 -7.67354 0
M  V30 18331 N 1702.77 1.22662 -0.989529 0
M  V30 18332 C 1704.02 1.90944 -0.662187 0
M  V30 18333 C 1704.34 1.77477 0.807899 0
M  V30 18334 O 1703.61 1.15985 1.57874 0
M  V30 18335 H 1702.19 0.706738 -0.241932 0
M  V30 18336 H 1704.85 1.49091 -1.25531 0
M  V30 18337 H 1703.95 2.98177 -0.921777 0
M  V30 18338 N 1704.25 0.762308 1.37937 0
M  V30 18339 C 1705.66 0.388966 1.82603 0
M  V30 18340 C 1706.01 -1.08362 1.63561 0
M  V30 18341 O 1705.14 -1.83842 1.14154 0
M  V30 18342 C 1705.73 0.699218 3.31506 0
M  V30 18343 C 1704.29 0.379048 3.74487 0
M  V30 18344 C 1703.44 0.947924 2.60595 0
M  V30 18345 H 1706.39 0.957743 1.26542 0
M  V30 18346 H 1706.41 -0.019502 3.80495 0
M  V30 18347 H 1705.92 1.77105 3.45334 0
M  V30 18348 H 1704.02 -0.685844 3.66233 0
M  V30 18349 H 1704.14 0.880697 4.70936 0
M  V30 18350 H 1702.5 0.372746 2.51958 0
M  V30 18351 H 1703.28 2.02496 2.77219 0
M  V30 18352 N 1705.73 -1.49049 0.51208 0
M  V30 18353 C 1706.98 -2.01677 -0.0303931 0
M  V30 18354 C 1707.29 -1.39594 -1.37014 0
M  V30 18355 O 1708.5 -1.83615 -1.99994 0
M  V30 18356 C 1706.95 -3.59748 -0.104605 0
M  V30 18357 C 1706.56 -4.30808 1.22916 0
M  V30 18358 C 1708.3 -4.20283 -0.596854 0
M  V30 18359 C 1706.21 -5.80765 1.11651 0
M  V30 18360 H 1705.14 -0.753848 -0.015131 0
M  V30 18361 H 1707.79 -1.71482 0.653169 0
M  V30 18362 H 1706.17 -3.86707 -0.852859 0
M  V30 18363 H 1707.35 -4.15539 1.99158 0
M  V30 18364 H 1705.66 -3.82066 1.65573 0
M  V30 18365 H 1708.26 -5.30114 -0.698821 0
M  V30 18366 H 1708.6 -3.84392 -1.59838 0
M  V30 18367 H 1709.14 -3.97686 0.0951882 0
M  V30 18368 H 1705.87 -6.212 2.09264 0
M  V30 18369 H 1705.39 -5.98497 0.395167 0
M  V30 18370 H 1707.07 -6.42038 0.799782 0
M  V30 18371 N 1707.21 -0.246397 -1.55662 0
M  V30 18372 C 1708.44 0.38209 -2.03036 0
M  V30 18373 C 1708.84 1.52119 -1.12501 0
M  V30 18374 O 1708.19 1.83227 -0.131753 0
M  V30 18375 C 1708.25 0.952012 -3.46666 0
M  V30 18376 C 1707.91 -0.0547805 -4.56967 0
M  V30 18377 C 1708.91 -0.864138 -5.12668 0
M  V30 18378 C 1706.59 -0.180725 -5.01975 0
M  V30 18379 C 1708.59 -1.7859 -6.1187 0
M  V30 18380 C 1706.28 -1.106 -6.01008 0
M  V30 18381 C 1707.27 -1.90711 -6.55834 0
M  V30 18382 O 1706.96 -2.81678 -7.52936 0
M  V30 18383 H 1706.69 0.095009 -0.66929 0
M  V30 18384 H 1709.25 -0.367701 -2.02082 0
M  V30 18385 H 1707.48 1.75136 -3.44767 0
M  V30 18386 H 1709.17 1.49052 -3.77542 0
M  V30 18387 H 1709.93 -0.77742 -4.78729 0
M  V30 18388 H 1705.81 0.432761 -4.58964 0
M  V30 18389 H 1709.36 -2.41162 -6.54589 0
M  V30 18390 H 1705.25 -1.19364 -6.34368 0
M  V30 18391 H 1706.02 -2.76034 -7.7055 0
M  V30 18392 N 1708.68 1.57577 0.026722 0
M  V30 18393 C 1709.63 2.07803 1.04502 0
M  V30 18394 C 1710.63 0.992308 1.37294 0
M  V30 18395 O 1711.83 1.17717 1.36171 0
M  V30 18396 H 1708.21 0.663176 0.354545 0
M  V30 18397 H 1710.18 2.92395 0.595626 0
M  V30 18398 C 1708.93 2.57478 2.33667 0
M  V30 18399 H 1708.25 3.40639 2.09296 0
M  V30 18400 H 1709.69 2.96328 3.03258 0
M  V30 18401 C 1708.15 1.47704 3.02796 0
M  V30 18402 O 1708.68 0.844611 3.9272 0
M  V30 18403 N 1706.88 1.211 2.64165 0
M  V30 18404 H 1706.43 1.72713 1.91123 0
M  V30 18405 H 1706.39 0.47866 3.10735 0
M  V30 18406 N 1710.16 -0.299034 1.54737 0
M  V30 18407 C 1711.39 -1.05138 1.77847 0
M  V30 18408 C 1711.8 -1.81359 0.53902 0
M  V30 18409 O 1711.14 -1.76742 -0.500783 0
M  V30 18410 C 1711.2 -2.07681 2.93443 0
M  V30 18411 C 1710.87 -1.50636 4.3146 0
M  V30 18412 C 1711.87 -0.935378 5.11416 0
M  V30 18413 C 1709.55 -1.5414 4.78065 0
M  V30 18414 C 1711.54 -0.407022 6.36099 0
M  V30 18415 C 1709.23 -1.00917 6.0271 0
M  V30 18416 C 1710.23 -0.442956 6.81562 0
M  V30 18417 O 1709.92 0.081192 8.03859 0
M  V30 18418 H 1709.65 -0.317487 0.596807 0
M  V30 18419 H 1712.2 -0.343249 2.02512 0
M  V30 18420 H 1710.43 -2.82179 2.64408 0
M  V30 18421 H 1712.12 -2.68832 3.04112 0
M  V30 18422 H 1712.89 -0.901197 4.76554 0
M  V30 18423 H 1708.77 -1.9715 4.16717 0
M  V30 18424 H 1712.31 0.035577 6.97591 0
M  V30 18425 H 1708.21 -1.04051 6.37059 0
M  V30 18426 H 1708.98 -0.031922 8.18494 0
M  V30 18427 N 1711.64 -1.47227 -0.562322 0
M  V30 18428 C 1713.06 -1.32632 -0.887745 0
M  V30 18429 C 1713.26 -0.312972 -1.99055 0
M  V30 18430 O 1712.31 0.277309 -2.50973 0
M  V30 18431 C 1713.62 -2.71822 -1.28581 0
M  V30 18432 C 1715.17 -2.80068 -1.39753 0
M  V30 18433 C 1715.65 -4.19887 -1.82917 0
M  V30 18434 N 1717.14 -4.22404 -1.90077 0
M  V30 18435 C 1717.87 -5.27499 -2.24793 0
M  V30 18436 N 1717.37 -6.42904 -2.58159 0
M  V30 18437 N 1719.16 -5.14874 -2.25523 0
M  V30 18438 H 1711.31 -2.11752 0.165835 0
M  V30 18439 H 1713.58 -0.94793 0.0115238 0
M  V30 18440 H 1713.28 -3.47383 -0.549361 0
M  V30 18441 H 1713.16 -3.0326 -2.24306 0
M  V30 18442 H 1715.54 -2.04783 -2.1248 0
M  V30 18443 H 1715.62 -2.5229 -0.422286 0
M  V30 18444 H 1715.27 -4.95676 -1.10761 0
M  V30 18445 H 1715.2 -4.45086 -2.81436 0
M  V30 18446 H 1717.69 -3.39146 -1.66698 0
M  V30 18447 H 1718 -7.18857 -2.83662 0
M  V30 18448 H 1716.35 -6.46232 -2.55751 0
M  V30 18449 H 1719.54 -4.23745 -1.98892 0
M  V30 18450 H 1719.71 -5.96887 -2.5225 0
M  V30 18451 N 1713.12 0.808639 -1.35273 0
M  V30 18452 C 1714.36 1.56794 -1.28621 0
M  V30 18453 C 1714.7 1.93697 0.139686 0
M  V30 18454 O 1713.97 1.61185 1.08856 0
M  V30 18455 C 1714.25 2.85794 -2.19075 0
M  V30 18456 C 1714.11 2.5538 -3.70271 0
M  V30 18457 C 1715.43 3.87481 -2.08678 0
M  V30 18458 H 1712.55 0.568873 -0.468564 0
M  V30 18459 H 1715.19 0.930499 -1.65655 0
M  V30 18460 H 1713.34 3.40191 -1.87622 0
M  V30 18461 H 1715.01 2.07182 -4.12157 0
M  V30 18462 H 1713.25 1.88605 -3.90654 0
M  V30 18463 H 1713.92 3.47432 -4.28947 0
M  V30 18464 H 1716.4 3.42478 -2.36323 0
M  V30 18465 H 1715.28 4.75523 -2.7417 0
M  V30 18466 H 1715.54 4.29004 -1.06809 0
M  V30 18467 N 1714.6 1.19237 1.03055 0
M  V30 18468 C 1715.51 0.943876 2.14775 0
M  V30 18469 C 1716.52 -0.0955384 1.73738 0
M  V30 18470 O 1717.7 0.0887187 2.01204 0
M  V30 18471 C 1714.76 0.48402 3.43305 0
M  V30 18472 C 1713.82 1.59262 3.98665 0
M  V30 18473 C 1713.06 1.15461 5.21061 0
M  V30 18474 O 1713.28 0.0174841 5.70397 0
M  V30 18475 O 1712.21 1.95648 5.69215 0
M  V30 18476 H 1716.04 1.87894 2.38599 0
M  V30 18477 H 1713.63 0.975046 1.13195 0
M  V30 18478 H 1715.51 0.236135 4.20738 0
M  V30 18479 H 1714.18 -0.422626 3.20929 0
M  V30 18480 H 1713.09 1.89464 3.22574 0
M  V30 18481 H 1714.42 2.47576 4.25402 0
M  V30 18482 N 1716.07 -1.22136 0.99602 0
M  V30 18483 C 1717.32 -1.9028 0.66907 0
M  V30 18484 C 1717.64 -1.7837 -0.802717 0
M  V30 18485 O 1718.84 -2.41458 -1.24138 0
M  V30 18486 C 1717.3 -3.4116 1.1462 0
M  V30 18487 C 1716.91 -3.617 2.64343 0
M  V30 18488 C 1718.65 -4.14985 0.893718 0
M  V30 18489 C 1716.56 -5.06297 3.05642 0
M  V30 18490 H 1715.49 -0.71255 0.246554 0
M  V30 18491 H 1718.14 -1.38304 1.20599 0
M  V30 18492 H 1716.52 -3.92337 0.537378 0
M  V30 18493 H 1717.69 -3.21002 3.30597 0
M  V30 18494 H 1716.01 -3.01212 2.87507 0
M  V30 18495 H 1718.61 -5.21564 1.17794 0
M  V30 18496 H 1718.95 -4.15952 -0.17013 0
M  V30 18497 H 1719.48 -3.69846 1.46488 0
M  V30 18498 H 1716.22 -5.10472 4.11216 0
M  V30 18499 H 1715.74 -5.47885 2.44094 0
M  V30 18500 H 1717.42 -5.74743 2.97118 0
M  V30 18501 N 1717.55 -0.769612 -1.37531 0
M  V30 18502 C 1718.78 -0.343069 -2.04543 0
M  V30 18503 C 1719.2 1.02583 -1.57665 0
M  V30 18504 O 1718.56 1.65692 -0.735915 0
M  V30 18505 C 1718.61 -0.392914 -3.58453 0
M  V30 18506 O 1717.71 0.607401 -4.07902 0
M  V30 18507 H 1717.05 -0.148905 -0.647088 0
M  V30 18508 H 1719.58 -1.04521 -1.75888 0
M  V30 18509 H 1719.59 -0.24945 -4.07237 0
M  V30 18510 H 1718.27 -1.39159 -3.91928 0
M  V30 18511 H 1716.85 0.427231 -3.70445 0
M  V30 18512 N 1719.03 1.48775 -0.519977 0
M  V30 18513 C 1720.28 2.0169 0.0196973 0
M  V30 18514 C 1720.59 1.40319 1.36272 0
M  V30 18515 O 1721.8 1.84673 1.99018 0
M  V30 18516 C 1720.25 3.59798 0.085525 0
M  V30 18517 C 1719.86 4.3015 -1.25199 0
M  V30 18518 C 1721.61 4.20594 0.574557 0
M  V30 18519 C 1719.51 5.80165 -1.14729 0
M  V30 18520 H 1718.44 0.753918 0.011133 0
M  V30 18521 H 1721.09 1.71133 -0.662254 0
M  V30 18522 H 1719.48 3.87154 0.832339 0
M  V30 18523 H 1720.65 4.14477 -2.01359 0
M  V30 18524 H 1718.97 3.81183 -1.67596 0
M  V30 18525 H 1721.56 5.30477 0.670698 0
M  V30 18526 H 1721.91 3.85235 1.57797 0
M  V30 18527 H 1722.44 3.9763 -0.116277 0
M  V30 18528 H 1719.18 6.20081 -2.12555 0
M  V30 18529 H 1718.7 5.98279 -0.426902 0
M  V30 18530 H 1720.38 6.41605 -0.83382 0
M  V30 18531 N 1720.51 0.254649 1.55529 0
M  V30 18532 C 1721.76 -0.367932 1.99129 0
M  V30 18533 C 1722.08 -1.5738 1.14288 0
M  V30 18534 O 1721.34 -1.94721 0.195543 0
M  V30 18535 C 1721.64 -0.813781 3.48012 0
M  V30 18536 C 1721.3 0.285187 4.49997 0
M  V30 18537 C 1719.97 0.586996 4.77606 0
M  V30 18538 C 1722.32 1.02673 5.10987 0
M  V30 18539 C 1719.65 1.63429 5.63478 0
M  V30 18540 C 1722 2.0636 5.97995 0
M  V30 18541 C 1720.66 2.37197 6.23934 0
M  V30 18542 H 1719.93 -0.134636 0.728666 0
M  V30 18543 H 1722.58 0.364091 1.88007 0
M  V30 18544 H 1720.88 -1.62514 3.56506 0
M  V30 18545 H 1722.58 -1.3059 3.7914 0
M  V30 18546 H 1719.17 0.0398187 4.28582 0
M  V30 18547 H 1723.35 0.806814 4.89698 0
M  V30 18548 H 1718.61 1.87846 5.81828 0
M  V30 18549 H 1722.78 2.64306 6.44294 0
M  V30 18550 H 1720.41 3.18487 6.90268 0
M  V30 18551 N 1721.99 -1.57589 -0.0183649 0
M  V30 18552 C 1723.23 -1.89757 -0.707008 0
M  V30 18553 C 1723.56 -0.853257 -1.74785 0
M  V30 18554 O 1722.82 0.144406 -1.95166 0
M  V30 18555 C 1723.12 -3.28677 -1.4038 0
M  V30 18556 C 1722.78 -4.48142 -0.497917 0
M  V30 18557 C 1721.44 -4.80558 -0.248444 0
M  V30 18558 C 1723.8 -5.21046 0.126883 0
M  V30 18559 C 1721.12 -5.8326 0.634428 0
M  V30 18560 C 1723.48 -6.24686 0.997521 0
M  V30 18561 C 1722.14 -6.5557 1.25635 0
M  V30 18562 H 1721.41 -0.694369 -0.258713 0
M  V30 18563 H 1724.06 -1.91471 0.0332176 0
M  V30 18564 H 1722.36 -3.23 -2.21761 0
M  V30 18565 H 1724.06 -3.50818 -1.94236 0
M  V30 18566 H 1720.65 -4.22803 -0.702519 0
M  V30 18567 H 1724.83 -4.96272 -0.0528705 0
M  V30 18568 H 1720.09 -6.05558 0.843157 0
M  V30 18569 H 1724.26 -6.80315 1.48811 0
M  V30 18570 H 1721.89 -7.34972 1.94218 0
M  V30 18571 N 1723.46 0.290824 -1.54893 0
M  V30 18572 C 1724.71 1.02244 -1.73865 0
M  V30 18573 C 1725.03 1.88079 -0.537166 0
M  V30 18574 O 1726.23 2.64584 -0.608908 0
M  V30 18575 C 1724.69 1.86762 -3.07649 0
M  V30 18576 C 1724.3 1.0588 -4.35308 0
M  V30 18577 C 1726.04 2.59461 -3.35976 0
M  V30 18578 C 1723.95 1.89734 -5.60138 0
M  V30 18579 H 1722.88 0.385455 -0.648028 0
M  V30 18580 H 1725.53 0.27893 -1.81368 0
M  V30 18581 H 1723.91 2.6514 -2.94137 0
M  V30 18582 H 1725.08 0.320443 -4.59684 0
M  V30 18583 H 1723.4 0.447169 -4.13992 0
M  V30 18584 H 1726 3.22569 -4.26442 0
M  V30 18585 H 1726.34 3.28823 -2.55306 0
M  V30 18586 H 1726.87 1.88126 -3.50505 0
M  V30 18587 H 1723.61 1.24825 -6.43505 0
M  V30 18588 H 1723.13 2.61215 -5.39932 0
M  V30 18589 H 1724.81 2.47535 -5.97775 0
M  V30 18590 N 1724.94 1.47523 0.554506 0
M  V30 18591 C 1726.19 1.53546 1.30791 0
M  V30 18592 C 1726.5 0.203555 1.94538 0
M  V30 18593 O 1727.71 0.14181 2.71129 0
M  V30 18594 C 1726.17 2.70684 2.37188 0
M  V30 18595 C 1725.77 4.10415 1.7962 0
M  V30 18596 C 1727.52 2.86002 3.13693 0
M  V30 18597 C 1725.43 5.18849 2.83813 0
M  V30 18598 H 1724.36 0.571539 0.491792 0
M  V30 18599 H 1727.01 1.73803 0.58861 0
M  V30 18600 H 1725.39 2.43812 3.12045 0
M  V30 18601 H 1726.56 4.47202 1.11117 0
M  V30 18602 H 1724.88 4.00006 1.15691 0
M  V30 18603 H 1727.47 3.64181 3.91505 0
M  V30 18604 H 1727.82 1.94545 3.68046 0
M  V30 18605 H 1728.35 3.12657 2.45948 0
M  V30 18606 H 1725.09 6.12192 2.34311 0
M  V30 18607 H 1724.61 4.86577 3.50718 0
M  V30 18608 H 1726.29 5.45915 3.47255 0
M  V30 18609 N 1726.42 -0.801453 1.357 0
M  V30 18610 C 1727.65 -1.58771 1.32194 0
M  V30 18611 C 1728.06 -1.88927 -0.101529 0
M  V30 18612 O 1727.4 -1.49649 -1.0654 0
M  V30 18613 C 1727.46 -2.94186 2.06627 0
M  V30 18614 C 1727.13 -2.86819 3.55786 0
M  V30 18615 C 1728.12 -2.59898 4.50276 0
M  V30 18616 C 1725.81 -3.05775 3.98506 0
M  V30 18617 C 1727.8 -2.52017 5.85462 0
M  V30 18618 C 1725.49 -2.97516 5.33786 0
M  V30 18619 C 1726.49 -2.70673 6.27076 0
M  V30 18620 O 1726.18 -2.62387 7.59874 0
M  V30 18621 H 1725.91 -0.499518 0.455475 0
M  V30 18622 H 1728.46 -1.00358 1.79213 0
M  V30 18623 H 1726.69 -3.54602 1.54253 0
M  V30 18624 H 1728.38 -3.55368 1.96133 0
M  V30 18625 H 1729.15 -2.44968 4.18588 0
M  V30 18626 H 1725.03 -3.25678 3.26274 0
M  V30 18627 H 1728.57 -2.30985 6.58249 0
M  V30 18628 H 1724.47 -3.12006 5.65086 0
M  V30 18629 H 1725.24 -2.77957 7.69859 0
M  V30 18630 N 1727.9 -1.19782 -1.02421 0
M  V30 18631 C 1729.15 -0.997598 -1.75302 0
M  V30 18632 C 1729.46 0.471843 -1.89824 0
M  V30 18633 O 1730.67 0.790999 -2.59722 0
M  V30 18634 C 1729.12 -1.73608 -3.15259 0
M  V30 18635 C 1728.73 -3.24594 -3.08776 0
M  V30 18636 C 1730.47 -1.61927 -3.92403 0
M  V30 18637 C 1728.38 -3.91012 -4.43693 0
M  V30 18638 H 1727.31 -0.369643 -0.657176 0
M  V30 18639 H 1729.96 -1.43325 -1.14587 0
M  V30 18640 H 1728.34 -1.22826 -3.7647 0
M  V30 18641 H 1729.52 -3.82531 -2.56918 0
M  V30 18642 H 1727.83 -3.36603 -2.45127 0
M  V30 18643 H 1730.43 -2.08896 -4.92206 0
M  V30 18644 H 1730.77 -0.574192 -4.12321 0
M  V30 18645 H 1731.31 -2.10081 -3.37803 0
M  V30 18646 H 1728.05 -4.95639 -4.28979 0
M  V30 18647 H 1727.57 -3.37864 -4.95588 0
M  V30 18648 H 1729.24 -3.94828 -5.12562 0
M  V30 18649 N 1729.38 1.21606 -1.00248 0
M  V30 18650 C 1730.63 1.89922 -0.679152 0
M  V30 18651 C 1730.94 1.78793 0.793246 0
M  V30 18652 O 1732.15 2.42113 1.22856 0
M  V30 18653 C 1730.6 3.40548 -1.16427 0
M  V30 18654 C 1730.21 3.60293 -2.66257 0
M  V30 18655 C 1731.95 4.14506 -0.915714 0
M  V30 18656 C 1729.86 5.04669 -3.08323 0
M  V30 18657 H 1728.79 0.711232 -0.250329 0
M  V30 18658 H 1731.44 1.37663 -1.21331 0
M  V30 18659 H 1729.82 3.92046 -0.558177 0
M  V30 18660 H 1731 3.19245 -3.32294 0
M  V30 18661 H 1729.31 2.99683 -2.891 0
M  V30 18662 H 1731.91 5.20932 -1.20558 0
M  V30 18663 H 1732.25 4.16037 0.148068 0
M  V30 18664 H 1732.79 3.69064 -1.48448 0
M  V30 18665 H 1729.52 5.08284 -4.13917 0
M  V30 18666 H 1729.04 5.46583 -2.46996 0
M  V30 18667 H 1730.72 5.7316 -3.00162 0
M  V30 18668 N 1730.86 0.776895 1.37121 0
M  V30 18669 C 1732.1 0.340209 1.9881 0
M  V30 18670 C 1732.42 -1.09071 1.62367 0
M  V30 18671 O 1733.62 -1.62904 2.17197 0
M  V30 18672 C 1732.08 0.557325 3.55559 0
M  V30 18673 C 1731.69 1.99884 4.00937 0
M  V30 18674 C 1733.43 0.184519 4.24099 0
M  V30 18675 C 1731.34 2.16328 5.50415 0
M  V30 18676 H 1730.27 0.12346 0.743824 0
M  V30 18677 H 1732.92 0.956754 1.56584 0
M  V30 18678 H 1731.3 -0.128752 3.95791 0
M  V30 18679 H 1732.48 2.72029 3.71937 0
M  V30 18680 H 1730.79 2.32872 3.45195 0
M  V30 18681 H 1733.39 0.285827 5.33935 0
M  V30 18682 H 1733.73 -0.865859 4.07196 0
M  V30 18683 H 1734.26 0.823343 3.89186 0
M  V30 18684 H 1731 3.19703 5.7225 0
M  V30 18685 H 1730.52 1.48673 5.81082 0
M  V30 18686 H 1732.2 1.96437 6.16459 0
M  V30 18687 N 1732.33 -1.48497 0.527859 0
M  V30 18688 C 1733.58 -2.01698 -0.00900086 0
M  V30 18689 C 1733.9 -1.4104 -1.35525 0
M  V30 18690 O 1735.1 -1.85726 -1.98035 0
M  V30 18691 C 1733.56 -3.59839 -0.0664428 0
M  V30 18692 C 1733.17 -4.2948 1.27479 0
M  V30 18693 C 1734.91 -4.20893 -0.552244 0
M  V30 18694 C 1732.82 -5.79548 1.17805 0
M  V30 18695 H 1731.75 -0.753966 -0.00713463 0
M  V30 18696 H 1734.4 -1.70779 0.67132 0
M  V30 18697 H 1732.78 -3.8759 -0.811795 0
M  V30 18698 H 1733.95 -4.13403 2.03554 0
M  V30 18699 H 1732.27 -3.80289 1.69616 0
M  V30 18700 H 1734.87 -5.30825 -0.642556 0
M  V30 18701 H 1735.21 -3.86066 -1.55752 0
M  V30 18702 H 1735.74 -3.97563 0.137363 0
M  V30 18703 H 1732.48 -6.18945 2.15841 0
M  V30 18704 H 1732 -5.98044 0.458624 0
M  V30 18705 H 1733.68 -6.41153 0.867834 0
M  V30 18706 N 1733.81 -0.262893 -1.55392 0
M  V30 18707 C 1734.77 0.616662 -2.20749 0
M  V30 18708 C 1735.77 1.09066 -1.18158 0
M  V30 18709 O 1736.96 0.992797 -1.4314 0
M  V30 18710 C 1734.1 1.84937 -2.86376 0
M  V30 18711 H 1735.29 0.0462013 -2.99864 0
M  V30 18712 H 1732.84 -0.013432 -1.56294 0
M  V30 18713 H 1733.58 2.46066 -2.1124 0
M  V30 18714 H 1733.36 1.51754 -3.61543 0
M  V30 18715 H 1734.85 2.47511 -3.36345 0
M  V30 18716 N 1735.29 1.57597 0.0100073 0
M  V30 18717 C 1736.54 1.90129 0.696935 0
M  V30 18718 C 1736.86 0.862514 1.7433 0
M  V30 18719 O 1736.12 -0.134054 1.9524 0
M  V30 18720 C 1736.42 3.29416 1.38635 0
M  V30 18721 C 1736.08 4.484 0.474144 0
M  V30 18722 C 1734.75 4.80683 0.222956 0
M  V30 18723 C 1737.1 5.20971 -0.154514 0
M  V30 18724 C 1734.43 5.82915 -0.665351 0
M  V30 18725 C 1736.78 6.24148 -1.03064 0
M  V30 18726 C 1735.44 6.54895 -1.2911 0
M  V30 18727 H 1734.71 0.695732 0.255027 0
M  V30 18728 H 1737.36 1.91451 -0.0433713 0
M  V30 18729 H 1735.66 3.24172 2.20045 0
M  V30 18730 H 1737.36 3.51843 1.92373 0
M  V30 18731 H 1733.95 4.2317 0.680087 0
M  V30 18732 H 1738.14 4.96293 0.0265512 0
M  V30 18733 H 1733.39 6.05103 -0.875259 0
M  V30 18734 H 1737.57 6.79516 -1.52417 0
M  V30 18735 H 1735.19 7.33931 -1.98113 0
M  V30 18736 N 1736.77 -0.282606 1.55045 0
M  V30 18737 C 1738.01 -1.01547 1.75198 0
M  V30 18738 C 1738.34 -1.86627 0.54779 0
M  V30 18739 O 1737.6 -1.89974 -0.46993 0
M  V30 18740 C 1737.9 -1.93554 3.00452 0
M  V30 18741 C 1737.56 -1.24303 4.33428 0
M  V30 18742 C 1736.22 -1.0515 4.69571 0
M  V30 18743 C 1738.58 -0.749451 5.15784 0
M  V30 18744 C 1735.9 -0.353528 5.85634 0
M  V30 18745 C 1738.26 -0.0651157 6.32566 0
M  V30 18746 C 1736.92 0.138206 6.67357 0
M  V30 18747 H 1736.19 -0.371587 0.641096 0
M  V30 18748 H 1738.84 -0.288623 1.89312 0
M  V30 18749 H 1737.14 -2.72828 2.81197 0
M  V30 18750 H 1738.84 -2.50363 3.1324 0
M  V30 18751 H 1735.43 -1.4022 4.05014 0
M  V30 18752 H 1739.61 -0.885074 4.88344 0
M  V30 18753 H 1734.87 -0.185186 6.11119 0
M  V30 18754 H 1739.04 0.325146 6.95641 0
M  V30 18755 H 1736.67 0.681034 7.57143 0
M  V30 18756 N 1738.25 -1.47815 -0.546675 0
M  V30 18757 C 1739.18 -1.55643 -1.66884 0
M  V30 18758 C 1740.16 -0.407884 -1.57401 0
M  V30 18759 O 1741.34 -0.617164 -1.7811 0
M  V30 18760 C 1738.47 -1.46883 -3.05193 0
M  V30 18761 C 1737.51 -2.66372 -3.33089 0
M  V30 18762 S 1738.35 -4.28485 -3.21187 0
M  V30 18763 C 1739.5 -4.22295 -4.61971 0
M  V30 18764 H 1739.74 -2.5058 -1.59991 0
M  V30 18765 H 1737.27 -1.36142 -0.728331 0
M  V30 18766 H 1739.23 -1.42516 -3.84967 0
M  V30 18767 H 1737.89 -0.533133 -3.09542 0
M  V30 18768 H 1737.08 -2.56335 -4.33945 0
M  V30 18769 H 1736.68 -2.67915 -2.60955 0
M  V30 18770 H 1738.97 -3.91199 -5.53145 0
M  V30 18771 H 1739.92 -5.23274 -4.77064 0
M  V30 18772 H 1740.33 -3.53001 -4.40512 0
M  V30 18773 N 1739.72 0.794246 -1.36123 0
M  V30 18774 C 1740.66 1.91303 -1.24412 0
M  V30 18775 C 1741.63 1.62085 -0.129318 0
M  V30 18776 O 1742.82 1.86104 -0.299599 0
M  V30 18777 C 1739.95 3.26009 -0.918476 0
M  V30 18778 C 1738.99 3.74163 -2.04705 0
M  V30 18779 S 1739.82 3.90497 -3.66432 0
M  V30 18780 C 1740.98 5.28086 -3.3597 0
M  V30 18781 H 1741.21 2.00944 -2.19109 0
M  V30 18782 H 1738.75 0.952959 -1.21483 0
M  V30 18783 H 1740.7 4.03823 -0.737402 0
M  V30 18784 H 1739.37 3.14098 0.0106309 0
M  V30 18785 H 1738.56 4.7176 -1.77365 0
M  V30 18786 H 1738.16 3.03384 -2.1871 0
M  V30 18787 H 1740.45 6.12502 -2.89564 0
M  V30 18788 H 1741.4 5.60427 -4.32813 0
M  V30 18789 H 1741.8 4.94958 -2.71436 0
M  V30 18790 N 1741.2 1.20323 1.01785 0
M  V30 18791 C 1742.15 0.947754 2.12416 0
M  V30 18792 C 1743.14 -0.100443 1.69102 0
M  V30 18793 O 1744.35 0.0498028 1.79931 0
M  V30 18794 H 1740.72 0.289148 0.694188 0
M  V30 18795 H 1742.7 1.88714 2.31149 0
M  V30 18796 C 1741.44 0.51503 3.43864 0
M  V30 18797 H 1740.77 1.31318 3.77618 0
M  V30 18798 H 1742.21 0.375476 4.22334 0
M  V30 18799 C 1740.67 -0.772413 3.27926 0
M  V30 18800 O 1741.2 -1.83115 3.57536 0
M  V30 18801 N 1739.4 -0.733948 2.81179 0
M  V30 18802 H 1738.95 0.127902 2.57282 0
M  V30 18803 H 1738.91 -1.59571 2.70896 0
M  V30 18804 N 1742.68 -1.21073 1.00892 0
M  V30 18805 C 1743.93 -1.89559 0.689214 0
M  V30 18806 C 1744.24 -1.79211 -0.783753 0
M  V30 18807 O 1745.45 -2.42761 -1.2157 0
M  V30 18808 C 1743.9 -3.39925 1.18232 0
M  V30 18809 C 1743.51 -3.58876 2.68164 0
M  V30 18810 C 1745.26 -4.14014 0.937683 0
M  V30 18811 C 1743.16 -5.03027 3.10995 0
M  V30 18812 H 1742.09 -0.709895 0.254098 0
M  V30 18813 H 1744.74 -1.37017 1.2206 0
M  V30 18814 H 1743.13 -3.91745 0.578961 0
M  V30 18815 H 1744.3 -3.17478 3.33983 0
M  V30 18816 H 1742.61 -2.98146 2.90685 0
M  V30 18817 H 1745.21 -5.20285 1.23319 0
M  V30 18818 H 1745.55 -4.16109 -0.126003 0
M  V30 18819 H 1746.09 -3.68271 1.50403 0
M  V30 18820 H 1742.83 -5.06082 4.16607 0
M  V30 18821 H 1742.35 -5.45266 2.49891 0
M  V30 18822 H 1744.03 -5.7156 3.03197 0
M  V30 18823 N 1744.16 -0.784156 -1.36707 0
M  V30 18824 C 1745.41 -0.354133 -1.99379 0
M  V30 18825 C 1745.73 1.07276 -1.62241 0
M  V30 18826 O 1744.99 1.75481 -0.866317 0
M  V30 18827 C 1745.29 -0.459004 -3.5444 0
M  V30 18828 C 1744.95 -1.84594 -4.11383 0
M  V30 18829 C 1743.62 -2.22543 -4.26648 0
M  V30 18830 C 1745.97 -2.75433 -4.42477 0
M  V30 18831 C 1743.3 -3.50744 -4.70315 0
M  V30 18832 C 1745.65 -4.03056 -4.87574 0
M  V30 18833 C 1744.31 -4.41034 -5.01044 0
M  V30 18834 H 1743.58 -0.129586 -0.729581 0
M  V30 18835 H 1746.23 -1.00059 -1.6328 0
M  V30 18836 H 1744.53 0.27097 -3.90862 0
M  V30 18837 H 1746.23 -0.107393 -4.00856 0
M  V30 18838 H 1742.82 -1.54103 -3.99938 0
M  V30 18839 H 1747 -2.4737 -4.30258 0
M  V30 18840 H 1742.26 -3.80047 -4.78931 0
M  V30 18841 H 1746.43 -4.73563 -5.10599 0
M  V30 18842 H 1744.06 -5.4043 -5.34639 0
M  V30 18843 N 1745.64 1.48215 -0.535727 0
M  V30 18844 C 1746.88 2.028 -0.00373305 0
M  V30 18845 C 1747.22 1.41143 1.33388 0
M  V30 18846 O 1746.49 0.559227 1.86287 0
M  V30 18847 C 1746.77 3.59925 0.112186 0
M  V30 18848 C 1746.63 4.32053 -1.251 0
M  V30 18849 C 1747.95 4.32083 0.836177 0
M  V30 18850 H 1745.06 0.736995 -0.00283063 0
M  V30 18851 H 1747.71 1.76877 -0.693868 0
M  V30 18852 H 1745.86 3.82142 0.69996 0
M  V30 18853 H 1747.53 4.21238 -1.88033 0
M  V30 18854 H 1745.77 3.93246 -1.83139 0
M  V30 18855 H 1746.44 5.4046 -1.12283 0
M  V30 18856 H 1748.92 4.1473 0.337333 0
M  V30 18857 H 1747.79 5.41699 0.886196 0
M  V30 18858 H 1748.06 3.99772 1.88771 0
M  V30 18859 N 1747.11 0.27113 1.5525 0
M  V30 18860 C 1748.36 -0.346106 1.99114 0
M  V30 18861 C 1748.68 -1.56677 1.16092 0
M  V30 18862 O 1747.95 -1.94305 0.249472 0
M  V30 18863 H 1746.53 -0.13087 0.735447 0
M  V30 18864 H 1749.2 0.375542 1.91248 0
M  V30 18865 H 1748.29 -0.638703 3.05495 0
M  V30 18866 N 1748.59 -1.576 -0.00164943 0
M  V30 18867 C 1749.84 -1.90496 -0.686842 0
M  V30 18868 C 1750.17 -0.871747 -1.7387 0
M  V30 18869 O 1749.42 0.123698 -1.95309 0
M  V30 18870 C 1749.72 -3.30147 -1.36886 0
M  V30 18871 C 1749.39 -4.48645 -0.450358 0
M  V30 18872 C 1748.05 -4.80795 -0.197461 0
M  V30 18873 C 1750.4 -5.20882 0.18214 0
M  V30 18874 C 1747.73 -5.82554 0.696255 0
M  V30 18875 C 1750.08 -6.23593 1.06372 0
M  V30 18876 C 1748.75 -6.54201 1.32581 0
M  V30 18877 H 1748.02 -0.697074 -0.251333 0
M  V30 18878 H 1750.66 -1.91425 0.0535238 0
M  V30 18879 H 1748.97 -3.25334 -2.18323 0
M  V30 18880 H 1750.66 -3.52859 -1.90504 0
M  V30 18881 H 1747.25 -4.23525 -0.657635 0
M  V30 18882 H 1751.44 -4.963 -0.000231234 0
M  V30 18883 H 1746.69 -6.0463 0.907337 0
M  V30 18884 H 1750.87 -6.78698 1.56018 0
M  V30 18885 H 1748.5 -7.3287 2.02002 0
M  V30 18886 N 1750.07 0.274379 -1.55193 0
M  V30 18887 C 1751.32 1.00766 -1.75995 0
M  V30 18888 C 1751.65 1.8599 -0.558679 0
M  V30 18889 O 1750.92 1.8937 0.443784 0
M  V30 18890 C 1751.21 1.89137 -3.0643 0
M  V30 18891 C 1751.06 1.06914 -4.36909 0
M  V30 18892 C 1752.38 2.87869 -3.32896 0
M  V30 18893 H 1749.5 0.364915 -0.640317 0
M  V30 18894 H 1752.14 0.280156 -1.87923 0
M  V30 18895 H 1750.29 2.51166 -2.96391 0
M  V30 18896 H 1751.96 0.469666 -4.58903 0
M  V30 18897 H 1750.21 0.372566 -4.32197 0
M  V30 18898 H 1750.88 1.72063 -5.24498 0
M  V30 18899 H 1753.35 2.35974 -3.42718 0
M  V30 18900 H 1752.23 3.46845 -4.25429 0
M  V30 18901 H 1752.49 3.62921 -2.52469 0
M  V30 18902 N 1751.55 1.48103 0.538828 0
M  V30 18903 C 1752.8 1.54925 1.29156 0
M  V30 18904 C 1753.11 0.224177 1.94311 0
M  V30 18905 O 1754.32 0.170559 2.70964 0
M  V30 18906 C 1752.77 2.73184 2.34304 0
M  V30 18907 C 1752.38 4.12297 1.75257 0
M  V30 18908 C 1754.12 2.89313 3.10642 0
M  V30 18909 C 1752.03 5.2183 2.78294 0
M  V30 18910 H 1750.96 0.576723 0.485702 0
M  V30 18911 H 1753.61 1.74418 0.570142 0
M  V30 18912 H 1751.99 2.47107 3.09441 0
M  V30 18913 H 1753.17 4.48355 1.06368 0
M  V30 18914 H 1751.48 4.0121 1.11442 0
M  V30 18915 H 1754.08 3.68313 3.87621 0
M  V30 18916 H 1754.42 1.98438 3.65962 0
M  V30 18917 H 1754.96 3.15248 2.42618 0
M  V30 18918 H 1751.7 6.14642 2.27805 0
M  V30 18919 H 1751.22 4.90269 3.45537 0
M  V30 18920 H 1752.89 5.49567 3.41446 0
M  V30 18921 N 1753.03 -0.787016 1.36542 0
M  V30 18922 C 1754.27 -1.54728 1.311 0
M  V30 18923 C 1754.61 -1.93895 -0.108853 0
M  V30 18924 O 1753.88 -1.62896 -1.06278 0
M  V30 18925 C 1754.16 -2.82272 2.23594 0
M  V30 18926 C 1754.02 -2.49457 3.74287 0
M  V30 18927 C 1755.34 -3.84112 2.14816 0
M  V30 18928 H 1752.45 -0.561347 0.477555 0
M  V30 18929 H 1755.1 -0.904027 1.67115 0
M  V30 18930 H 1753.25 -3.37163 1.93011 0
M  V30 18931 H 1754.92 -2.00599 4.15401 0
M  V30 18932 H 1753.16 -1.82366 3.93605 0
M  V30 18933 H 1753.83 -3.40563 4.3442 0
M  V30 18934 H 1756.31 -3.38674 2.41741 0
M  V30 18935 H 1755.18 -4.71101 2.817 0
M  V30 18936 H 1755.45 -4.2725 1.13621 0
M  V30 18937 N 1754.5 -1.20861 -1.01145 0
M  V30 18938 C 1755.73 -1.04769 -1.78413 0
M  V30 18939 C 1756.15 0.402846 -1.84452 0
M  V30 18940 O 1755.5 1.27962 -1.30123 0
M  V30 18941 C 1755.56 -1.63065 -3.22633 0
M  V30 18942 O 1755.28 -3.02443 -3.16954 0
M  V30 18943 C 1756.78 -1.51996 -4.16428 0
M  V30 18944 H 1754 -0.368271 -0.560908 0
M  V30 18945 H 1756.54 -1.6006 -1.27283 0
M  V30 18946 H 1754.7 -1.11882 -3.70892 0
M  V30 18947 H 1755.11 -3.30199 -4.07515 0
M  V30 18948 H 1756.58 -1.97539 -5.15444 0
M  V30 18949 H 1757.06 -0.473305 -4.36642 0
M  V30 18950 H 1757.67 -2.02396 -3.74054 0
M  V30 18951 N 1755.98 1.20536 -1.01532 0
M  V30 18952 C 1757.23 1.89871 -0.70393 0
M  V30 18953 C 1757.56 1.78768 0.76631 0
M  V30 18954 O 1756.81 1.1653 1.57224 0
M  V30 18955 C 1757.11 3.40578 -1.08358 0
M  V30 18956 C 1756.78 3.71881 -2.54981 0
M  V30 18957 C 1755.44 3.80135 -2.95044 0
M  V30 18958 C 1757.79 3.86282 -3.49909 0
M  V30 18959 C 1755.12 4.00246 -4.28976 0
M  V30 18960 C 1757.47 4.07902 -4.83527 0
M  V30 18961 C 1756.14 4.14385 -5.23298 0
M  V30 18962 H 1755.41 0.694788 -0.257586 0
M  V30 18963 H 1758.05 1.42825 -1.27567 0
M  V30 18964 H 1756.36 3.89431 -0.430234 0
M  V30 18965 H 1758.05 3.92519 -0.820353 0
M  V30 18966 H 1754.64 3.66055 -2.22938 0
M  V30 18967 H 1758.83 3.79261 -3.20117 0
M  V30 18968 H 1754.08 4.03499 -4.59345 0
M  V30 18969 H 1758.26 4.17987 -5.5701 0
M  V30 18970 H 1755.89 4.29721 -6.27092 0
M  V30 18971 N 1757.46 0.791395 1.36289 0
M  V30 18972 C 1758.39 0.149076 2.28715 0
M  V30 18973 C 1759.41 -0.642827 1.49571 0
M  V30 18974 O 1760.59 -0.477685 1.7199 0
M  V30 18975 C 1757.69 -0.811868 3.29032 0
M  V30 18976 C 1756.87 -0.0695975 4.37345 0
M  V30 18977 C 1755.93 -0.946776 5.17612 0
M  V30 18978 O 1754.95 -0.403295 5.67769 0
M  V30 18979 N 1756.15 -2.27079 5.34243 0
M  V30 18980 H 1758.92 0.943005 2.84478 0
M  V30 18981 H 1756.48 0.645479 1.48476 0
M  V30 18982 H 1758.47 -1.40257 3.79618 0
M  V30 18983 H 1757.04 -1.50667 2.73895 0
M  V30 18984 H 1756.26 0.702196 3.87895 0
M  V30 18985 H 1757.55 0.442542 5.06872 0
M  V30 18986 H 1756.95 -2.73646 4.9511 0
M  V30 18987 H 1755.51 -2.81109 5.88065 0
M  V30 18988 N 1758.94 -1.47929 0.54358 0
M  V30 18989 C 1759.85 -2.33611 -0.215191 0
M  V30 18990 C 1760.87 -1.47343 -0.925526 0
M  V30 18991 O 1762.04 -1.80299 -0.897459 0
M  V30 18992 C 1759.11 -3.23755 -1.24031 0
M  V30 18993 C 1758.17 -4.25904 -0.538874 0
M  V30 18994 C 1757.4 -5.11741 -1.51516 0
M  V30 18995 O 1757.62 -4.9979 -2.74893 0
M  V30 18996 O 1756.56 -5.92722 -1.0471 0
M  V30 18997 H 1760.38 -2.99765 0.487279 0
M  V30 18998 H 1757.97 -1.46267 0.30434 0
M  V30 18999 H 1759.85 -3.79475 -1.8324 0
M  V30 19000 H 1758.53 -2.60245 -1.92495 0
M  V30 19001 H 1757.43 -3.73982 0.0940539 0
M  V30 19002 H 1758.77 -4.9209 0.104063 0
M  V30 19003 N 1760.42 -0.27936 -1.55104 0
M  V30 19004 C 1761.35 0.639572 -2.20096 0
M  V30 19005 C 1762.36 1.11423 -1.18696 0
M  V30 19006 O 1763.55 1.0354 -1.45402 0
M  V30 19007 C 1760.65 1.88494 -2.81644 0
M  V30 19008 C 1759.82 1.55639 -4.08773 0
M  V30 19009 C 1758.88 2.65466 -4.54328 0
M  V30 19010 O 1757.91 2.31473 -5.20008 0
M  V30 19011 N 1759.11 3.95606 -4.24825 0
M  V30 19012 H 1761.88 0.0833048 -2.99584 0
M  V30 19013 H 1759.44 -0.100637 -1.61587 0
M  V30 19014 H 1761.43 2.61272 -3.09062 0
M  V30 19015 H 1760 2.35015 -2.06123 0
M  V30 19016 H 1759.22 0.662253 -3.88597 0
M  V30 19017 H 1760.51 1.31196 -4.91594 0
M  V30 19018 H 1759.91 4.26043 -3.72161 0
M  V30 19019 H 1758.46 4.64748 -4.57004 0
M  V30 19020 N 1761.9 1.57599 -0.0067085 0
M  V30 19021 C 1763.14 1.90481 0.675393 0
M  V30 19022 C 1763.46 0.881481 1.73939 0
M  V30 19023 O 1762.73 -0.0801928 1.95736 0
M  V30 19024 H 1761.31 0.703048 0.252452 0
M  V30 19025 H 1763.98 1.94838 -0.04922 0
M  V30 19026 H 1763.07 2.90441 1.14239 0
M  V30 19027 N 1763.37 -0.266145 1.55336 0
M  V30 19028 C 1764.28 -1.35103 1.91793 0
M  V30 19029 C 1765.3 -1.5368 0.815985 0
M  V30 19030 O 1766.48 -1.67675 1.11567 0
M  V30 19031 C 1763.54 -2.68905 2.1884 0
M  V30 19032 C 1762.6 -2.59015 3.42359 0
M  V30 19033 C 1761.83 -3.86437 3.68106 0
M  V30 19034 O 1762.06 -4.87436 2.96247 0
M  V30 19035 O 1760.99 -3.86227 4.61641 0
M  V30 19036 H 1764.82 -1.07181 2.84158 0
M  V30 19037 H 1762.4 -0.465262 1.41971 0
M  V30 19038 H 1764.28 -3.48008 2.3763 0
M  V30 19039 H 1762.96 -2.96599 1.29656 0
M  V30 19040 H 1761.87 -1.78264 3.28896 0
M  V30 19041 H 1763.2 -2.3627 4.31784 0
M  V30 19042 N 1764.85 -1.48386 -0.530967 0
M  V30 19043 C 1765.78 -1.58922 -1.65156 0
M  V30 19044 C 1766.8 -0.473583 -1.5576 0
M  V30 19045 O 1767.99 -0.744383 -1.62238 0
M  V30 19046 C 1765.09 -1.50201 -3.03798 0
M  V30 19047 C 1764.26 -2.76787 -3.38685 0
M  V30 19048 C 1763.32 -2.61534 -4.56603 0
M  V30 19049 O 1762.34 -3.35417 -4.59874 0
M  V30 19050 N 1763.55 -1.71087 -5.54716 0
M  V30 19051 H 1766.31 -2.55559 -1.56555 0
M  V30 19052 H 1763.87 -1.45097 -0.718216 0
M  V30 19053 H 1765.86 -1.37693 -3.80556 0
M  V30 19054 H 1764.43 -0.615419 -3.06482 0
M  V30 19055 H 1763.65 -3.03867 -2.51115 0
M  V30 19056 H 1764.94 -3.6077 -3.58779 0
M  V30 19057 H 1764.34 -1.10261 -5.54851 0
M  V30 19058 H 1762.9 -1.64518 -6.30696 0
M  V30 19059 N 1766.33 0.779763 -1.36958 0
M  V30 19060 C 1767.24 1.92394 -1.34245 0
M  V30 19061 C 1768.26 1.72292 -0.243187 0
M  V30 19062 O 1769.43 1.95665 -0.477211 0
M  V30 19063 C 1766.5 3.27402 -1.14057 0
M  V30 19064 C 1765.56 3.60213 -2.33548 0
M  V30 19065 C 1764.79 4.88779 -2.14314 0
M  V30 19066 O 1765.01 5.59231 -1.12327 0
M  V30 19067 O 1763.95 5.20469 -3.02316 0
M  V30 19068 H 1767.77 1.97633 -2.30596 0
M  V30 19069 H 1765.36 0.921386 -1.17605 0
M  V30 19070 H 1767.24 4.08172 -1.04755 0
M  V30 19071 H 1765.92 3.23033 -0.207744 0
M  V30 19072 H 1764.82 2.7971 -2.48421 0
M  V30 19073 H 1766.16 3.69317 -3.25371 0
M  V30 19074 N 1767.81 1.21396 1.00503 0
M  V30 19075 C 1769.04 1.0556 1.77597 0
M  V30 19076 C 1769.45 -0.397591 1.84975 0
M  V30 19077 O 1768.79 -1.28764 1.31018 0
M  V30 19078 C 1768.85 1.57754 3.23039 0
M  V30 19079 C 1768.51 3.06214 3.39238 0
M  V30 19080 C 1769.51 4.03763 3.27523 0
M  V30 19081 C 1767.2 3.45418 3.6468 0
M  V30 19082 C 1769.19 5.38505 3.41015 0
M  V30 19083 C 1766.88 4.80312 3.77814 0
M  V30 19084 C 1767.88 5.76665 3.65988 0
M  V30 19085 O 1767.56 7.09111 3.78704 0
M  V30 19086 H 1767.3 0.371187 0.564975 0
M  V30 19087 H 1769.85 1.61186 1.27312 0
M  V30 19088 H 1768.08 0.965245 3.74459 0
M  V30 19089 H 1769.77 1.37762 3.81807 0
M  V30 19090 H 1770.53 3.74819 3.07791 0
M  V30 19091 H 1766.41 2.70954 3.72968 0
M  V30 19092 H 1769.96 6.13694 3.317 0
M  V30 19093 H 1765.85 5.08942 3.9705 0
M  V30 19094 H 1766.62 7.16521 3.95651 0
M  V30 19095 N 1769.29 -1.19996 1.0217 0
M  V30 19096 C 1770.23 -2.22963 0.596318 0
M  V30 19097 C 1771.2 -1.61548 -0.386212 0
M  V30 19098 O 1772.39 -1.88667 -0.284497 0
M  V30 19099 C 1769.53 -3.45058 -0.054059 0
M  V30 19100 C 1768.64 -4.20885 0.973648 0
M  V30 19101 C 1767.78 -5.30387 0.293788 0
M  V30 19102 C 1766.81 -5.97964 1.3079 0
M  V30 19103 N 1765.95 -6.99044 0.654351 0
M  V30 19104 H 1770.79 -2.58709 1.47898 0
M  V30 19105 H 1768.33 -1.27117 0.740254 0
M  V30 19106 H 1770.29 -4.14784 -0.448313 0
M  V30 19107 H 1768.92 -3.0999 -0.900342 0
M  V30 19108 H 1767.97 -3.50174 1.48602 0
M  V30 19109 H 1769.28 -4.67292 1.7447 0
M  V30 19110 H 1768.43 -6.065 -0.155695 0
M  V30 19111 H 1767.17 -4.85031 -0.509521 0
M  V30 19112 H 1766.18 -5.20607 1.76772 0
M  V30 19113 H 1767.4 -6.45404 2.11258 0
M  V30 19114 H 1765.35 -6.55873 -0.128996 0
M  V30 19115 H 1765.27 -7.43605 1.36339 0
M  V30 19116 H 1766.53 -7.79165 0.228631 0
M  V30 19117 N 1770.76 -0.798611 -1.35867 0
M  V30 19118 C 1771.71 -0.191425 -2.31811 0
M  V30 19119 C 1772.71 0.65438 -1.56251 0
M  V30 19120 O 1773.91 0.548435 -1.71441 0
M  V30 19121 H 1770.29 -0.0431343 -0.750762 0
M  V30 19122 H 1772.26 -1.01589 -2.80575 0
M  V30 19123 C 1771.01 0.651912 -3.41534 0
M  V30 19124 H 1770.33 0.0104309 -3.99799 0
M  V30 19125 H 1771.77 1.04328 -4.10964 0
M  V30 19126 C 1770.23 1.81407 -2.83889 0
M  V30 19127 O 1770.76 2.91115 -2.76794 0
M  V30 19128 N 1768.96 1.62308 -2.41049 0
M  V30 19129 H 1768.51 0.730709 -2.47019 0
M  V30 19130 H 1768.47 2.40226 -2.02827 0
M  V30 19131 N 1772.24 1.47639 -0.551417 0
M  V30 19132 C 1773.48 2.04382 -0.0274854 0
M  V30 19133 C 1773.85 1.41714 1.29542 0
M  V30 19134 O 1775.05 1.8947 1.90669 0
M  V30 19135 C 1773.32 3.57332 0.0698769 0
M  V30 19136 S 1774.88 4.35455 0.540771 0
M  V30 19137 H 1771.69 0.710648 -0.0223553 0
M  V30 19138 H 1774.3 1.81083 -0.73684 0
M  V30 19139 H 1773 4.00468 -0.897406 0
M  V30 19140 H 1772.53 3.85118 0.802962 0
M  V30 19141 H 1774.55 4.62342 1.80152 0
M  V30 19142 N 1773.72 0.287581 1.54954 0
M  V30 19143 C 1774.63 -0.604236 2.26685 0
M  V30 19144 C 1775.65 -1.1597 1.29719 0
M  V30 19145 O 1776.82 -1.18735 1.62678 0
M  V30 19146 C 1773.89 -1.76612 2.98344 0
M  V30 19147 C 1772.95 -1.24608 4.10818 0
M  V30 19148 C 1772.18 -2.35258 4.7905 0
M  V30 19149 O 1772.4 -3.54879 4.46561 0
M  V30 19150 O 1771.34 -2.02709 5.66739 0
M  V30 19151 H 1775.16 -0.0227663 3.03691 0
M  V30 19152 H 1772.75 0.0545243 1.493 0
M  V30 19153 H 1774.63 -2.44332 3.43336 0
M  V30 19154 H 1773.31 -2.33444 2.24244 0
M  V30 19155 H 1772.21 -0.53498 3.70255 0
M  V30 19156 H 1773.55 -0.723348 4.86856 0
M  V30 19157 N 1775.2 -1.57593 0.0150662 0
M  V30 19158 C 1776.13 -2.12395 -0.970081 0
M  V30 19159 C 1777.11 -1.03666 -1.34861 0
M  V30 19160 O 1778.29 -1.31427 -1.4297 0
M  V30 19161 C 1775.42 -2.63958 -2.25707 0
M  V30 19162 C 1774.38 -3.77348 -2.01971 0
M  V30 19163 C 1773.7 -4.15284 -3.36814 0
M  V30 19164 C 1775 -5.04008 -1.37017 0
M  V30 19165 H 1776.7 -2.9496 -0.513731 0
M  V30 19166 H 1774.24 -1.41889 -0.245666 0
M  V30 19167 H 1776.2 -3.00927 -2.94993 0
M  V30 19168 H 1774.92 -1.78535 -2.73483 0
M  V30 19169 H 1773.58 -3.40795 -1.35107 0
M  V30 19170 H 1773.23 -3.26863 -3.82321 0
M  V30 19171 H 1772.93 -4.91686 -3.21744 0
M  V30 19172 H 1774.45 -4.54824 -4.07391 0
M  V30 19173 H 1775.87 -5.38652 -1.96282 0
M  V30 19174 H 1774.26 -5.85315 -1.32388 0
M  V30 19175 H 1775.33 -4.83698 -0.341281 0
M  V30 19176 N 1776.68 0.257904 -1.55475 0
M  V30 19177 C 1777.95 1.00965 -1.67528 0
M  V30 19178 C 1778.33 2.03763 -0.551694 0
M  V30 19179 O 1777.68 2.24099 0.446314 0
M  V30 19180 C 1777.89 1.65289 -3.07377 0
M  V30 19181 C 1779.24 2.15888 -3.65619 0
M  V30 19182 O 1780.26 1.7525 -3.10106 0
M  V30 19183 O 1779.12 2.90471 -4.62913 0
M  V30 19184 H 1776.22 0.469266 -0.680969 0
M  V30 19185 H 1778.76 0.252562 -1.6781 0
M  V30 19186 H 1777.53 0.908769 -3.80601 0
M  V30 19187 H 1777.16 2.47646 -3.11058 0
M  V30 19188 N 1778.15 1.48666 0.52309 0
M  V30 19189 C 1779.1 1.63701 1.62698 0
M  V30 19190 C 1780.07 0.478895 1.59047 0
M  V30 19191 O 1781.26 0.703229 1.77368 0
M  V30 19192 C 1778.4 1.68912 3.00936 0
M  V30 19193 C 1777.51 2.95878 3.1477 0
M  V30 19194 C 1776.64 2.92206 4.43609 0
M  V30 19195 C 1775.68 4.13846 4.50996 0
M  V30 19196 N 1774.82 4.08213 5.71233 0
M  V30 19197 H 1779.66 2.57967 1.49188 0
M  V30 19198 H 1777.2 1.27924 0.726217 0
M  V30 19199 H 1779.16 1.69915 3.81031 0
M  V30 19200 H 1777.79 0.781309 3.13202 0
M  V30 19201 H 1776.84 3.04588 2.27883 0
M  V30 19202 H 1778.15 3.85861 3.1609 0
M  V30 19203 H 1777.3 2.91649 5.32002 0
M  V30 19204 H 1776.04 1.99964 4.44821 0
M  V30 19205 H 1775.05 4.14671 3.61009 0
M  V30 19206 H 1776.27 5.07256 4.51517 0
M  V30 19207 H 1774.22 3.18794 5.73329 0
M  V30 19208 H 1774.14 4.91908 5.74075 0
M  V30 19209 H 1775.4 4.11725 6.61893 0
M  V30 19210 N 1779.63 -0.772489 1.37369 0
M  V30 19211 C 1780.58 -1.90713 1.33158 0
M  V30 19212 C 1781.57 -1.67959 0.220482 0
M  V30 19213 O 1782.78 -1.75758 0.388465 0
M  V30 19214 H 1779.16 -0.627149 0.414956 0
M  V30 19215 H 1781.13 -1.91382 2.28944 0
M  V30 19216 C 1779.88 -3.27966 1.1547 0
M  V30 19217 H 1779.2 -3.46052 2.00221 0
M  V30 19218 H 1780.64 -4.0766 1.16574 0
M  V30 19219 C 1779.1 -3.3661 -0.139688 0
M  V30 19220 O 1779.63 -3.85668 -1.12353 0
M  V30 19221 N 1777.83 -2.89977 -0.190134 0
M  V30 19222 H 1777.38 -2.50246 0.611134 0
M  V30 19223 H 1777.34 -2.96142 -1.05582 0
M  V30 19224 N 1781.11 -1.21927 -0.998575 0
M  V30 19225 C 1782.04 -0.942076 -2.08944 0
M  V30 19226 C 1783.06 0.0771683 -1.62617 0
M  V30 19227 O 1784.24 -0.156133 -1.77816 0
M  V30 19228 C 1781.34 -0.394201 -3.366 0
M  V30 19229 C 1780.52 -1.46931 -4.11983 0
M  V30 19230 C 1779.58 -0.929531 -5.17925 0
M  V30 19231 O 1778.6 -1.61444 -5.45824 0
M  V30 19232 N 1779.8 0.251965 -5.79953 0
M  V30 19233 H 1782.57 -1.88119 -2.33306 0
M  V30 19234 H 1780.13 -1.12539 -1.16389 0
M  V30 19235 H 1782.12 -0.0185416 -4.04696 0
M  V30 19236 H 1780.69 0.449884 -3.09346 0
M  V30 19237 H 1779.91 -2.01854 -3.38598 0
M  V30 19238 H 1781.2 -2.19284 -4.59121 0
M  V30 19239 H 1780.6 0.825333 -5.59647 0
M  V30 19240 H 1779.16 0.569068 -6.49311 0
M  V30 19241 N 1782.59 1.19452 -1.02805 0
M  V30 19242 C 1784 1.41147 -0.744969 0
M  V30 19243 C 1784.2 1.90008 0.670765 0
M  V30 19244 O 1783.26 2.0763 1.43688 0
M  V30 19245 C 1784.57 2.42328 -1.78039 0
M  V30 19246 C 1786.12 2.56076 -1.79984 0
M  V30 19247 C 1786.6 3.6051 -2.82483 0
M  V30 19248 N 1788.09 3.68005 -2.81294 0
M  V30 19249 C 1788.82 4.48502 -3.57258 0
M  V30 19250 N 1788.32 5.32711 -4.42934 0
M  V30 19251 N 1790.11 4.43144 -3.45803 0
M  V30 19252 H 1782.26 0.860569 -1.94185 0
M  V30 19253 H 1784.53 0.44042 -0.839484 0
M  V30 19254 H 1784.23 2.13448 -2.79523 0
M  V30 19255 H 1784.11 3.41491 -1.60199 0
M  V30 19256 H 1786.49 2.84279 -0.791782 0
M  V30 19257 H 1786.57 1.57069 -2.01898 0
M  V30 19258 H 1786.22 3.33049 -3.83459 0
M  V30 19259 H 1786.15 4.59166 -2.57827 0
M  V30 19260 H 1788.64 3.07863 -2.19154 0
M  V30 19261 H 1788.95 5.9125 -4.97637 0
M  V30 19262 H 1787.3 5.32175 -4.47007 0
M  V30 19263 H 1790.49 3.76399 -2.78283 0
M  V30 19264 H 1790.66 5.0564 -4.05256 0
M  V30 19265 N 1784.07 0.805805 1.35442 0
M  V30 19266 C 1785 0.173326 2.28544 0
M  V30 19267 C 1786.01 -0.626927 1.50245 0
M  V30 19268 O 1787.2 -0.459416 1.72487 0
M  V30 19269 C 1784.3 -0.776924 3.29874 0
M  V30 19270 C 1783.47 -0.0232073 4.37394 0
M  V30 19271 C 1782.53 -0.891823 5.18587 0
M  V30 19272 O 1781.56 -0.343052 5.68165 0
M  V30 19273 N 1782.76 -2.214 5.36621 0
M  V30 19274 H 1785.53 0.973125 2.83461 0
M  V30 19275 H 1783.09 0.66119 1.47783 0
M  V30 19276 H 1785.08 -1.36223 3.81085 0
M  V30 19277 H 1783.65 -1.47753 2.75477 0
M  V30 19278 H 1782.87 0.743298 3.87129 0
M  V30 19279 H 1784.16 0.496278 5.06374 0
M  V30 19280 H 1783.55 -2.6838 4.97985 0
M  V30 19281 H 1782.11 -2.74856 5.91014 0
M  V30 19282 N 1785.54 -1.47344 0.559239 0
M  V30 19283 C 1786.78 -2.04364 0.0383239 0
M  V30 19284 C 1787.15 -1.42399 -1.28788 0
M  V30 19285 O 1788.35 -1.90478 -1.89661 0
M  V30 19286 C 1786.62 -3.57364 -0.0509258 0
M  V30 19287 S 1788.18 -4.35736 -0.51767 0
M  V30 19288 H 1785 -0.71052 0.0261238 0
M  V30 19289 H 1787.6 -1.80689 0.746433 0
M  V30 19290 H 1786.3 -3.99987 0.918631 0
M  V30 19291 H 1785.83 -3.85539 -0.782527 0
M  V30 19292 H 1787.85 -4.63291 -1.77697 0
M  V30 19293 N 1787.02 -0.295795 -1.54799 0
M  V30 19294 C 1788.27 0.315473 -2.00331 0
M  V30 19295 C 1788.6 1.53939 -1.18392 0
M  V30 19296 O 1787.88 1.92767 -0.259086 0
M  V30 19297 C 1788.16 0.677227 -3.53674 0
M  V30 19298 C 1788.01 -0.555462 -4.46357 0
M  V30 19299 C 1789.33 1.50576 -4.1354 0
M  V30 19300 H 1786.45 0.113191 -0.728256 0
M  V30 19301 H 1789.09 -0.406858 -1.85593 0
M  V30 19302 H 1787.24 1.29264 -3.66365 0
M  V30 19303 H 1788.91 -1.19397 -4.45581 0
M  V30 19304 H 1787.16 -1.18968 -4.17168 0
M  V30 19305 H 1787.83 -0.25828 -5.51395 0
M  V30 19306 H 1790.3 0.985819 -4.04253 0
M  V30 19307 H 1789.18 1.72766 -5.21002 0
M  V30 19308 H 1789.44 2.49334 -3.65082 0
M  V30 19309 N 1788.5 1.57583 -0.0234236 0
M  V30 19310 C 1789.41 2.13328 0.976138 0
M  V30 19311 C 1790.43 1.08414 1.36097 0
M  V30 19312 O 1791.6 1.40441 1.44354 0
M  V30 19313 C 1788.67 2.64469 2.24181 0
M  V30 19314 C 1787.73 3.84076 1.91793 0
M  V30 19315 C 1786.96 4.32768 3.12326 0
M  V30 19316 O 1787.19 3.80663 4.24797 0
M  V30 19317 O 1786.12 5.24676 2.94956 0
M  V30 19318 H 1789.95 2.99001 0.532166 0
M  V30 19319 H 1787.53 1.48098 0.196838 0
M  V30 19320 H 1789.41 2.97456 2.98492 0
M  V30 19321 H 1788.09 1.81881 2.6777 0
M  V30 19322 H 1786.99 3.56023 1.14883 0
M  V30 19323 H 1788.33 4.67808 1.53024 0
M  V30 19324 N 1789.98 -0.249655 1.5561 0
M  V30 19325 C 1791.21 -0.994263 1.81102 0
M  V30 19326 C 1791.62 -1.79553 0.596445 0
M  V30 19327 O 1790.96 -1.78246 -0.4443 0
M  V30 19328 C 1791.02 -1.9824 2.99902 0
M  V30 19329 C 1790.69 -1.36833 4.36034 0
M  V30 19330 C 1791.68 -0.772202 5.14133 0
M  V30 19331 C 1789.37 -1.38852 4.82727 0
M  V30 19332 C 1791.36 -0.204446 6.37072 0
M  V30 19333 C 1789.05 -0.816913 6.05615 0
M  V30 19334 C 1790.05 -0.225898 6.82626 0
M  V30 19335 O 1789.74 0.336892 8.03194 0
M  V30 19336 H 1789.47 -0.298339 0.606605 0
M  V30 19337 H 1792.02 -0.278647 2.03501 0
M  V30 19338 H 1790.25 -2.73625 2.73252 0
M  V30 19339 H 1791.94 -2.59021 3.12511 0
M  V30 19340 H 1792.71 -0.749129 4.7918 0
M  V30 19341 H 1788.59 -1.83793 4.22778 0
M  V30 19342 H 1792.13 0.257492 6.97125 0
M  V30 19343 H 1788.03 -0.837303 6.40046 0
M  V30 19344 H 1788.79 0.228492 8.18181 0
M  V30 19345 N 1791.46 -1.48941 -0.515198 0
M  V30 19346 C 1792.42 -1.64062 -1.60051 0
M  V30 19347 C 1793.42 -0.513101 -1.52394 0
M  V30 19348 O 1794.61 -0.77924 -1.558 0
M  V30 19349 C 1791.74 -1.6247 -2.99694 0
M  V30 19350 H 1792.94 -2.60849 -1.47978 0
M  V30 19351 H 1790.49 -1.37759 -0.738378 0
M  V30 19352 H 1791.22 -0.672141 -3.17258 0
M  V30 19353 H 1791.01 -2.4434 -3.0666 0
M  V30 19354 H 1792.5 -1.76273 -3.78573 0
M  V30 19355 N 1792.94 0.765193 -1.37777 0
M  V30 19356 C 1793.87 1.89247 -1.36777 0
M  V30 19357 C 1794.85 1.68463 -0.235389 0
M  V30 19358 O 1796.03 1.89225 -0.436733 0
M  V30 19359 C 1793.16 3.2662 -1.18053 0
M  V30 19360 C 1792.12 3.61981 -2.28372 0
M  V30 19361 C 1791.44 4.97967 -1.94765 0
M  V30 19362 C 1792.74 3.68053 -3.70587 0
M  V30 19363 H 1794.44 1.90341 -2.31108 0
M  V30 19364 H 1791.98 0.914355 -1.11245 0
M  V30 19365 H 1793.93 4.05125 -1.15982 0
M  V30 19366 H 1792.66 3.25976 -0.201803 0
M  V30 19367 H 1791.32 2.85788 -2.2961 0
M  V30 19368 H 1790.97 4.93869 -0.954052 0
M  V30 19369 H 1790.67 5.22594 -2.68642 0
M  V30 19370 H 1792.19 5.78864 -1.94292 0
M  V30 19371 H 1793.6 4.36696 -3.71443 0
M  V30 19372 H 1792 4.04183 -4.43572 0
M  V30 19373 H 1793.07 2.68556 -4.03739 0
M  V30 19374 N 1794.41 1.22455 0.992094 0
M  V30 19375 C 1795.36 0.99534 2.08235 0
M  V30 19376 C 1796.33 -0.0832064 1.65891 0
M  V30 19377 O 1797.52 0.0665468 1.90684 0
M  V30 19378 C 1794.66 0.580055 3.4019 0
M  V30 19379 C 1793.77 1.72946 3.95871 0
M  V30 19380 C 1792.9 1.26208 5.15989 0
M  V30 19381 C 1791.94 2.38298 5.63809 0
M  V30 19382 N 1791.08 1.92602 6.75166 0
M  V30 19383 H 1795.92 1.92861 2.27175 0
M  V30 19384 H 1793.46 0.960948 1.11374 0
M  V30 19385 H 1795.41 0.320448 4.15968 0
M  V30 19386 H 1794.04 -0.316208 3.21248 0
M  V30 19387 H 1793.1 2.10337 3.16958 0
M  V30 19388 H 1794.41 2.57257 4.27341 0
M  V30 19389 H 1793.56 0.959904 5.99058 0
M  V30 19390 H 1792.3 0.389184 4.86145 0
M  V30 19391 H 1791.31 2.69304 4.79328 0
M  V30 19392 H 1792.53 3.26105 5.95678 0
M  V30 19393 H 1790.48 1.07675 6.47103 0
M  V30 19394 H 1790.39 2.70478 7.05959 0
M  V30 19395 H 1791.66 1.65455 7.61738 0
M  V30 19396 N 1795.89 -1.18905 1.03437 0
M  V30 19397 C 1796.85 -2.20529 0.624461 0
M  V30 19398 C 1797.85 -1.57688 -0.314824 0
M  V30 19399 O 1799.04 -1.73906 -0.101082 0
M  V30 19400 C 1796.18 -3.40793 -0.0854166 0
M  V30 19401 H 1797.37 -2.58309 1.5237 0
M  V30 19402 H 1794.92 -1.32679 0.826189 0
M  V30 19403 H 1795.66 -3.08538 -0.998747 0
M  V30 19404 H 1795.44 -3.87642 0.589596 0
M  V30 19405 H 1796.93 -4.16055 -0.358938 0
M  V30 19406 N 1797.37 -0.812977 -1.35013 0
M  V30 19407 C 1798.79 -0.497497 -1.51648 0
M  V30 19408 C 1798.99 0.980162 -1.76054 0
M  V30 19409 O 1798.04 1.76498 -1.80567 0
M  V30 19410 C 1799.35 -1.3484 -2.68772 0
M  V30 19411 C 1800.9 -1.3445 -2.82652 0
M  V30 19412 C 1801.38 -2.17966 -4.02808 0
M  V30 19413 N 1802.87 -2.15537 -4.09998 0
M  V30 19414 C 1803.6 -2.76912 -5.02103 0
M  V30 19415 N 1803.1 -3.47239 -5.99497 0
M  V30 19416 N 1804.89 -2.66519 -4.94898 0
M  V30 19417 H 1797.04 -1.76987 -1.17429 0
M  V30 19418 H 1799.31 -0.753654 -0.575073 0
M  V30 19419 H 1799.01 -2.39732 -2.57336 0
M  V30 19420 H 1798.89 -1.0061 -3.63535 0
M  V30 19421 H 1801.27 -0.303409 -2.93536 0
M  V30 19422 H 1801.35 -1.72671 -1.88728 0
M  V30 19423 H 1801 -3.2212 -3.92685 0
M  V30 19424 H 1800.93 -1.77102 -4.95926 0
M  V30 19425 H 1803.42 -1.64373 -3.40279 0
M  V30 19426 H 1803.73 -3.91341 -6.66387 0
M  V30 19427 H 1802.08 -3.51344 -5.99652 0
M  V30 19428 H 1805.27 -2.1116 -4.17767 0
M  V30 19429 H 1805.44 -3.14639 -5.66486 0
M  V30 19430 N 1798.85 1.47045 -0.567045 0
M  V30 19431 C 1800.26 1.86202 -0.13627 0
M  V30 19432 C 1800.61 1.47252 1.29658 0
M  V30 19433 O 1799.73 0.880121 1.97694 0
M  V30 19434 C 1800.33 3.37945 -0.240528 0
M  V30 19435 C 1798.89 3.76157 0.135272 0
M  V30 19436 C 1798.04 2.71089 -0.583628 0
M  V30 19437 H 1800.99 1.38423 -0.776196 0
M  V30 19438 H 1801.01 3.76673 0.538293 0
M  V30 19439 H 1800.52 3.66263 -1.28348 0
M  V30 19440 H 1798.62 3.53456 1.17896 0
M  V30 19441 H 1798.73 4.78547 -0.230137 0
M  V30 19442 H 1797.1 2.54687 -0.0256067 0
M  V30 19443 H 1797.88 3.02247 -1.62792 0
M  V30 19444 N 1800.33 0.304 1.5464 0
M  V30 19445 C 1801.26 -0.563854 2.2659 0
M  V30 19446 C 1802.24 -1.13547 1.26653 0
M  V30 19447 O 1803.42 -1.16425 1.55431 0
M  V30 19448 C 1800.55 -1.73437 3.00894 0
M  V30 19449 C 1799.51 -1.29297 4.08003 0
M  V30 19450 C 1798.83 -2.54888 4.70038 0
M  V30 19451 C 1800.13 -0.422027 5.20592 0
M  V30 19452 H 1801.83 0.0362569 2.99378 0
M  V30 19453 H 1799.37 0.0188781 1.43988 0
M  V30 19454 H 1801.32 -2.34762 3.4995 0
M  V30 19455 H 1800.05 -2.36076 2.25689 0
M  V30 19456 H 1798.71 -0.702757 3.59801 0
M  V30 19457 H 1798.36 -3.15848 3.9147 0
M  V30 19458 H 1798.06 -2.26054 5.42378 0
M  V30 19459 H 1799.58 -3.17011 5.21859 0
M  V30 19460 H 1800.99 -0.941036 5.65524 0
M  V30 19461 H 1799.39 -0.227323 5.99669 0
M  V30 19462 H 1800.46 0.55212 4.81746 0
M  V30 19463 N 1801.8 -1.57568 0.0317802 0
M  V30 19464 C 1803.22 -1.56264 -0.324633 0
M  V30 19465 C 1803.42 -1.03765 -1.72728 0
M  V30 19466 O 1802.48 -0.685566 -2.43015 0
M  V30 19467 C 1803.79 -3.00214 -0.170806 0
M  V30 19468 C 1805.34 -3.12052 -0.243373 0
M  V30 19469 C 1805.81 -4.57847 -0.118304 0
M  V30 19470 N 1807.3 -4.62869 -0.175203 0
M  V30 19471 C 1808.04 -5.73309 -0.102252 0
M  V30 19472 N 1807.53 -6.92797 0.0219373 0
M  V30 19473 N 1809.33 -5.61882 -0.156432 0
M  V30 19474 H 1801.48 -1.90022 0.948968 0
M  V30 19475 H 1803.74 -0.874208 0.366693 0
M  V30 19476 H 1803.45 -3.42585 0.795517 0
M  V30 19477 H 1803.32 -3.65302 -0.939907 0
M  V30 19478 H 1805.71 -2.69593 -1.20016 0
M  V30 19479 H 1805.79 -2.49681 0.55615 0
M  V30 19480 H 1805.43 -5.00988 0.835072 0
M  V30 19481 H 1805.36 -5.18202 -0.936726 0
M  V30 19482 H 1807.85 -3.76925 -0.271225 0
M  V30 19483 H 1808.17 -7.72768 0.0708376 0
M  V30 19484 H 1806.51 -6.94977 0.0567564 0
M  V30 19485 H 1809.7 -4.67422 -0.251873 0
M  V30 19486 H 1809.88 -6.47929 -0.0961177 0
M  V30 19487 N 1803.28 0.241399 -1.5574 0
M  V30 19488 C 1804.7 0.590176 -1.48287 0
M  V30 19489 C 1804.9 1.8808 -0.723052 0
M  V30 19490 O 1803.95 2.51213 -0.25464 0
M  V30 19491 C 1805.27 0.687804 -2.92728 0
M  V30 19492 C 1806.82 0.779763 -3.03131 0
M  V30 19493 C 1807.29 0.908905 -4.48891 0
M  V30 19494 N 1808.78 0.973636 -4.52852 0
M  V30 19495 C 1809.52 1.09292 -5.62888 0
M  V30 19496 N 1809.01 1.1774 -6.82722 0
M  V30 19497 N 1810.81 1.12651 -5.50696 0
M  V30 19498 H 1802.96 -0.605781 -2.03578 0
M  V30 19499 H 1805.22 -0.209862 -0.924479 0
M  V30 19500 H 1804.93 -0.190608 -3.51183 0
M  V30 19501 H 1804.8 1.55794 -3.43523 0
M  V30 19502 H 1807.19 1.64863 -2.44754 0
M  V30 19503 H 1807.27 -0.115641 -2.55538 0
M  V30 19504 H 1806.91 0.0445788 -5.0788 0
M  V30 19505 H 1806.84 1.81943 -4.9417 0
M  V30 19506 H 1809.33 0.919469 -3.66544 0
M  V30 19507 H 1809.65 1.26764 -7.62332 0
M  V30 19508 H 1807.99 1.14688 -6.85472 0
M  V30 19509 H 1811.18 1.05703 -4.56009 0
M  V30 19510 H 1811.35 1.21602 -6.36488 0
M  V30 19511 N 1804.76 1.49212 0.507292 0
M  V30 19512 C 1805.99 1.61845 1.28412 0
M  V30 19513 C 1806.4 0.286619 1.87016 0
M  V30 19514 O 1805.74 -0.737169 1.6826 0
M  V30 19515 C 1805.8 2.62374 2.45764 0
M  V30 19516 C 1805.47 4.06882 2.08077 0
M  V30 19517 C 1806.46 4.93879 1.62418 0
M  V30 19518 C 1804.15 4.52574 2.17904 0
M  V30 19519 C 1806.14 6.24603 1.27082 0
M  V30 19520 C 1803.83 5.83313 1.8218 0
M  V30 19521 C 1804.83 6.69151 1.36843 0
M  V30 19522 O 1804.52 7.97454 1.01598 0
M  V30 19523 H 1804.25 0.547926 0.395921 0
M  V30 19524 H 1806.8 1.95937 0.616255 0
M  V30 19525 H 1805.03 2.23449 3.15606 0
M  V30 19526 H 1806.72 2.64603 3.07799 0
M  V30 19527 H 1807.49 4.59808 1.54277 0
M  V30 19528 H 1803.37 3.85932 2.52146 0
M  V30 19529 H 1806.91 6.91557 0.91623 0
M  V30 19530 H 1802.81 6.16913 1.89969 0
M  V30 19531 H 1803.58 8.10409 1.148 0
M  V30 19532 N 1806.24 -0.757876 1.38181 0
M  V30 19533 C 1807.49 -1.51222 1.33472 0
M  V30 19534 C 1807.8 -1.9546 -0.0740525 0
M  V30 19535 O 1809.01 -2.70404 -0.243664 0
M  V30 19536 C 1807.46 -2.73138 2.34358 0
M  V30 19537 C 1807.07 -2.35943 3.80835 0
M  V30 19538 C 1808.81 -3.51041 2.38685 0
M  V30 19539 C 1806.72 -3.54444 4.73417 0
M  V30 19540 H 1805.65 -0.567789 0.496116 0
M  V30 19541 H 1808.3 -0.828861 1.63714 0
M  V30 19542 H 1806.68 -3.43433 1.97153 0
M  V30 19543 H 1807.86 -1.73341 4.26954 0
M  V30 19544 H 1806.17 -1.71184 3.79585 0
M  V30 19545 H 1808.77 -4.39143 3.05054 0
M  V30 19546 H 1809.11 -3.91892 1.40451 0
M  V30 19547 H 1809.65 -2.87755 2.74667 0
M  V30 19548 H 1806.39 -3.18663 5.7283 0
M  V30 19549 H 1805.91 -4.16103 4.31993 0
M  V30 19550 H 1807.58 -4.21081 4.91223 0
M  V30 19551 N 1807.72 -1.22979 -0.985586 0
M  V30 19552 C 1809.13 -1.05448 -1.5407 0
M  V30 19553 C 1809.48 0.379808 -1.92489 0
M  V30 19554 O 1808.6 1.26582 -1.75516 0
M  V30 19555 C 1809.2 -1.90794 -2.7997 0
M  V30 19556 C 1807.76 -1.77538 -3.31899 0
M  V30 19557 C 1806.9 -1.86814 -2.04929 0
M  V30 19558 H 1809.86 -1.36718 -0.80585 0
M  V30 19559 H 1809.88 -1.42967 -3.5262 0
M  V30 19560 H 1809.39 -2.95177 -2.51977 0
M  V30 19561 H 1807.49 -0.759177 -3.64784 0
M  V30 19562 H 1807.6 -2.60627 -4.02008 0
M  V30 19563 H 1805.97 -1.30336 -2.18826 0
M  V30 19564 H 1806.75 -2.92742 -1.79324 0
M  V30 19565 N 1809.19 1.18355 -1.04066 0
M  V30 19566 C 1810.14 2.21987 -0.631714 0
M  V30 19567 C 1811.11 1.62142 0.360462 0
M  V30 19568 O 1812.3 1.89096 0.254445 0
M  V30 19569 C 1809.44 3.451 -0.000843566 0
M  V30 19570 C 1808.55 4.19283 -1.04048 0
M  V30 19571 C 1807.68 5.29852 -0.37813 0
M  V30 19572 C 1806.72 5.95807 -1.40287 0
M  V30 19573 N 1805.86 6.97915 -0.765481 0
M  V30 19574 H 1810.7 2.56323 -1.51995 0
M  V30 19575 H 1808.24 1.25923 -0.760384 0
M  V30 19576 H 1810.2 4.15445 0.382267 0
M  V30 19577 H 1808.83 3.11383 0.850911 0
M  V30 19578 H 1807.88 3.47765 -1.54154 0
M  V30 19579 H 1809.19 4.64457 -1.81882 0
M  V30 19580 H 1808.34 6.06671 0.059186 0
M  V30 19581 H 1807.08 4.8578 0.432293 0
M  V30 19582 H 1806.09 5.17729 -1.85032 0
M  V30 19583 H 1807.31 6.41962 -2.21499 0
M  V30 19584 H 1805.26 6.55995 0.0246364 0
M  V30 19585 H 1805.18 7.41341 -1.48152 0
M  V30 19586 H 1806.44 7.78702 -0.35256 0
M  V30 19587 N 1810.67 0.820125 1.3458 0
M  V30 19588 C 1811.62 0.22828 2.31477 0
M  V30 19589 C 1812.61 -0.629439 1.57272 0
M  V30 19590 O 1813.82 -0.521091 1.72292 0
M  V30 19591 H 1810.2 0.0550728 0.749981 0
M  V30 19592 H 1812.17 1.0604 2.78923 0
M  V30 19593 C 1810.92 -0.597495 3.42528 0
M  V30 19594 H 1810.24 0.0531749 3.99765 0
M  V30 19595 H 1811.68 -0.977765 4.12572 0
M  V30 19596 C 1810.14 -1.76868 2.86739 0
M  V30 19597 O 1810.67 -2.86674 2.81391 0
M  V30 19598 N 1808.87 -1.58453 2.436 0
M  V30 19599 H 1808.42 -0.691318 2.4815 0
M  V30 19600 H 1808.38 -2.36969 2.06624 0
M  V30 19601 N 1812.15 -1.46743 0.574835 0
M  V30 19602 C 1813.08 -2.2832 -0.20062 0
M  V30 19603 C 1814.1 -1.3805 -0.862898 0
M  V30 19604 O 1815.28 -1.6272 -0.733785 0
M  V30 19605 C 1812.38 -3.1285 -1.303 0
M  V30 19606 C 1811.56 -4.31195 -0.734153 0
M  V30 19607 C 1810.62 -4.97183 -1.72324 0
M  V30 19608 O 1809.64 -5.55025 -1.26239 0
M  V30 19609 N 1810.84 -4.93476 -3.05714 0
M  V30 19610 H 1813.61 -2.95513 0.499231 0
M  V30 19611 H 1811.17 -1.56568 0.412077 0
M  V30 19612 H 1813.16 -3.53861 -1.96378 0
M  V30 19613 H 1811.73 -2.47784 -1.90583 0
M  V30 19614 H 1810.95 -3.94063 0.103888 0
M  V30 19615 H 1812.24 -5.07704 -0.333751 0
M  V30 19616 H 1811.64 -4.47715 -3.45786 0
M  V30 19617 H 1810.2 -5.38453 -3.67304 0
M  V30 19618 N 1813.63 -0.312197 -1.54477 0
M  V30 19619 C 1814.58 0.574207 -2.20651 0
M  V30 19620 C 1815.56 1.09037 -1.18321 0
M  V30 19621 O 1816.75 1.02928 -1.43996 0
M  V30 19622 C 1813.88 1.74019 -2.95926 0
M  V30 19623 C 1812.97 1.23946 -4.05584 0
M  V30 19624 N 1813.36 0.457561 -5.03726 0
M  V30 19625 C 1811.66 1.51921 -4.19328 0
M  V30 19626 C 1812.36 0.189523 -5.81391 0
M  V30 19627 N 1811.34 0.772477 -5.38083 0
M  V30 19628 H 1815.14 -0.0306045 -2.93884 0
M  V30 19629 H 1812.65 -0.117497 -1.61974 0
M  V30 19630 H 1814.65 2.38687 -3.4181 0
M  V30 19631 H 1813.31 2.34859 -2.24212 0
M  V30 19632 H 1814.32 0.101432 -5.17801 0
M  V30 19633 H 1811 2.13428 -3.58824 0
M  V30 19634 H 1812.39 -0.439199 -6.70463 0
M  V30 19635 N 1815.11 1.57549 -0.040136 0
M  V30 19636 C 1816.04 2.07803 0.966975 0
M  V30 19637 C 1817.05 1.00363 1.28184 0
M  V30 19638 O 1818.24 1.27957 1.24456 0
M  V30 19639 C 1815.34 2.49688 2.29149 0
M  V30 19640 C 1814.51 3.80336 2.16017 0
M  V30 19641 C 1813.57 4.08652 3.31497 0
M  V30 19642 O 1812.6 4.78739 3.07892 0
M  V30 19643 N 1813.8 3.59693 4.55633 0
M  V30 19644 H 1816.57 2.94829 0.538115 0
M  V30 19645 H 1814.13 1.61237 0.146368 0
M  V30 19646 H 1816.12 2.65715 3.0525 0
M  V30 19647 H 1814.69 1.67969 2.63638 0
M  V30 19648 H 1813.91 3.73998 1.24575 0
M  V30 19649 H 1815.2 4.65912 2.04458 0
M  V30 19650 H 1814.59 3.03012 4.77703 0
M  V30 19651 H 1813.15 3.80978 5.28866 0
M  V30 19652 N 1816.58 -0.233136 1.55866 0
M  V30 19653 C 1817.81 -0.974999 1.82146 0
M  V30 19654 C 1818.22 -1.7891 0.615456 0
M  V30 19655 O 1817.57 -1.78707 -0.42537 0
M  V30 19656 C 1817.63 -1.95048 3.01988 0
M  V30 19657 C 1817.29 -1.32201 4.37461 0
M  V30 19658 C 1818.29 -0.717627 5.14923 0
M  V30 19659 C 1815.97 -1.33725 4.84173 0
M  V30 19660 C 1817.97 -0.136864 6.37253 0
M  V30 19661 C 1815.65 -0.752633 6.06448 0
M  V30 19662 C 1816.65 -0.153484 6.82828 0
M  V30 19663 O 1816.34 0.422063 8.02791 0
M  V30 19664 H 1816.07 -0.291889 0.609735 0
M  V30 19665 H 1818.63 -0.257048 2.03785 0
M  V30 19666 H 1816.86 -2.70711 2.76138 0
M  V30 19667 H 1818.55 -2.55692 3.1524 0
M  V30 19668 H 1819.31 -0.698263 4.79947 0
M  V30 19669 H 1815.19 -1.79298 4.24704 0
M  V30 19670 H 1818.73 0.331417 6.96812 0
M  V30 19671 H 1814.63 -0.769371 6.40899 0
M  V30 19672 H 1815.4 0.315258 8.17893 0
M  V30 19673 N 1818.06 -1.49479 -0.499372 0
M  V30 19674 C 1819.01 -1.66268 -1.60073 0
M  V30 19675 C 1819.98 -0.504137 -1.58265 0
M  V30 19676 O 1821.17 -0.731358 -1.76227 0
M  V30 19677 C 1818.31 -1.73678 -2.98211 0
M  V30 19678 C 1817.42 -3.00848 -3.10023 0
M  V30 19679 C 1816.55 -2.99227 -4.38904 0
M  V30 19680 C 1815.59 -4.20969 -4.44355 0
M  V30 19681 N 1814.73 -4.17249 -5.64666 0
M  V30 19682 H 1819.57 -2.60308 -1.45065 0
M  V30 19683 H 1817.11 -1.29063 -0.705774 0
M  V30 19684 H 1819.06 -1.75956 -3.7828 0
M  V30 19685 H 1817.69 -0.831037 -3.11919 0
M  V30 19686 H 1816.75 -3.08175 -2.23008 0
M  V30 19687 H 1818.06 -3.90841 -3.09911 0
M  V30 19688 H 1817.21 -3.00076 -5.27294 0
M  V30 19689 H 1815.95 -2.07015 -4.41584 0
M  V30 19690 H 1814.96 -4.20362 -3.54366 0
M  V30 19691 H 1816.18 -5.14376 -4.4339 0
M  V30 19692 H 1814.13 -3.27875 -5.68185 0
M  V30 19693 H 1814.04 -5.00979 -5.66177 0
M  V30 19694 H 1815.31 -4.22203 -6.55259 0
M  V30 19695 N 1819.54 0.750537 -1.38581 0
M  V30 19696 C 1820.79 1.51198 -1.35156 0
M  V30 19697 C 1821.12 1.94115 0.0574068 0
M  V30 19698 O 1820.4 1.65657 1.01922 0
M  V30 19699 C 1820.68 2.76245 -2.30999 0
M  V30 19700 C 1820.53 2.39446 -3.8077 0
M  V30 19701 C 1821.85 3.78282 -2.24924 0
M  V30 19702 H 1818.97 0.548488 -0.492271 0
M  V30 19703 H 1821.61 0.859402 -1.69453 0
M  V30 19704 H 1819.76 3.31928 -2.01882 0
M  V30 19705 H 1821.43 1.89515 -4.20573 0
M  V30 19706 H 1819.68 1.71866 -3.98302 0
M  V30 19707 H 1820.35 3.28926 -4.43296 0
M  V30 19708 H 1822.82 3.32146 -2.50636 0
M  V30 19709 H 1821.7 4.63467 -2.94091 0
M  V30 19710 H 1821.96 4.24088 -1.24908 0
M  V30 19711 N 1821.02 1.235 0.979051 0
M  V30 19712 C 1822.27 1.07956 1.72387 0
M  V30 19713 C 1822.62 -0.379427 1.88622 0
M  V30 19714 O 1821.91 -1.27702 1.42838 0
M  V30 19715 C 1822.11 1.74004 3.12182 0
M  V30 19716 C 1821.94 3.26174 3.09581 0
M  V30 19717 C 1820.71 3.95341 3.14696 0
M  V30 19718 C 1822.9 4.22924 2.92643 0
M  V30 19719 N 1820.89 5.34483 3.01996 0
M  V30 19720 C 1822.26 5.48988 2.88119 0
M  V30 19721 C 1824.31 4.13641 2.77138 0
M  V30 19722 C 1823.02 6.66834 2.69676 0
M  V30 19723 C 1825.04 5.31152 2.6006 0
M  V30 19724 C 1824.4 6.56143 2.56235 0
M  V30 19725 H 1820.5 0.449578 0.639847 0
M  V30 19726 H 1823.09 1.56249 1.16165 0
M  V30 19727 H 1821.26 1.28241 3.66618 0
M  V30 19728 H 1822.99 1.51423 3.75304 0
M  V30 19729 H 1819.74 3.46429 3.2293 0
M  V30 19730 H 1820.17 6.07435 2.98917 0
M  V30 19731 H 1824.81 3.17778 2.78885 0
M  V30 19732 H 1822.53 7.62831 2.66674 0
M  V30 19733 H 1826.11 5.25812 2.49024 0
M  V30 19734 H 1824.99 7.4554 2.43185 0
M  V30 19735 N 1822.5 -1.17802 1.04693 0
M  V30 19736 C 1823.73 -1.91589 0.773124 0
M  V30 19737 C 1824.14 -1.76773 -0.67438 0
M  V30 19738 O 1823.48 -1.09903 -1.47197 0
M  V30 19739 C 1823.54 -3.43279 1.06771 0
M  V30 19740 C 1823.2 -3.81875 2.51038 0
M  V30 19741 C 1824.2 -3.85138 3.49235 0
M  V30 19742 C 1821.89 -4.12986 2.85915 0
M  V30 19743 C 1823.88 -4.18972 4.80356 0
M  V30 19744 C 1821.57 -4.4649 4.17241 0
M  V30 19745 C 1822.57 -4.4946 5.14271 0
M  V30 19746 O 1822.25 -4.82178 6.43242 0
M  V30 19747 H 1821.99 -0.614869 0.280912 0
M  V30 19748 H 1824.54 -1.50352 1.39941 0
M  V30 19749 H 1822.77 -3.84786 0.384316 0
M  V30 19750 H 1824.46 -3.98321 0.780714 0
M  V30 19751 H 1825.22 -3.61232 3.2363 0
M  V30 19752 H 1821.1 -4.09848 2.11058 0
M  V30 19753 H 1824.65 -4.21205 5.56087 0
M  V30 19754 H 1820.54 -4.69857 4.42611 0
M  V30 19755 H 1821.31 -5.00055 6.47987 0
M  V30 19756 N 1823.98 -0.827251 -1.34143 0
M  V30 19757 C 1825.22 -0.418003 -1.98445 0
M  V30 19758 C 1825.55 1.01737 -1.65418 0
M  V30 19759 O 1824.83 1.70932 -0.928042 0
M  V30 19760 C 1825.11 -0.625559 -3.54625 0
M  V30 19761 C 1824.97 -2.10736 -3.97379 0
M  V30 19762 C 1826.28 -0.0642701 -4.40053 0
M  V30 19763 H 1823.4 -0.15335 -0.72087 0
M  V30 19764 H 1826.05 -1.04062 -1.58969 0
M  V30 19765 H 1824.2 -0.095577 -3.88382 0
M  V30 19766 H 1825.87 -2.70131 -3.73934 0
M  V30 19767 H 1824.11 -2.59621 -3.47533 0
M  V30 19768 H 1824.78 -2.20338 -5.06118 0
M  V30 19769 H 1827.26 -0.517137 -4.12874 0
M  V30 19770 H 1826.13 -0.239267 -5.48378 0
M  V30 19771 H 1826.39 1.0311 -4.29908 0
M  V30 19772 N 1825.45 1.46436 -0.582609 0
M  V30 19773 C 1826.7 2.02685 -0.0682503 0
M  V30 19774 C 1827.03 1.45315 1.2883 0
M  V30 19775 O 1826.31 0.61821 1.84414 0
M  V30 19776 C 1826.59 3.601 -0.00237797 0
M  V30 19777 C 1826.44 4.27855 -1.38782 0
M  V30 19778 C 1827.76 4.34525 0.69829 0
M  V30 19779 H 1824.88 0.736531 -0.0262761 0
M  V30 19780 H 1827.52 1.7458 -0.749789 0
M  V30 19781 H 1825.67 3.84176 0.57803 0
M  V30 19782 H 1827.35 4.15043 -2.01339 0
M  V30 19783 H 1825.59 3.87221 -1.95557 0
M  V30 19784 H 1826.26 5.36614 -1.2942 0
M  V30 19785 H 1828.74 4.15594 0.205219 0
M  V30 19786 H 1827.61 5.44244 0.71341 0
M  V30 19787 H 1827.87 4.05575 1.75957 0
M  V30 19788 N 1826.93 0.320385 1.54309 0
M  V30 19789 C 1827.88 -0.562569 2.25694 0
M  V30 19790 C 1828.87 -1.12117 1.26988 0
M  V30 19791 O 1830.08 -1.06958 1.44776 0
M  V30 19792 H 1826.45 -0.200063 0.724899 0
M  V30 19793 H 1828.43 0.0618142 2.98336 0
M  V30 19794 C 1827.17 -1.7134 3.02552 0
M  V30 19795 H 1826.5 -1.29281 3.7832 0
M  V30 19796 H 1827.94 -2.30687 3.55752 0
M  V30 19797 C 1826.4 -2.62912 2.10663 0
M  V30 19798 O 1826.93 -3.64541 1.68739 0
M  V30 19799 N 1825.13 -2.31076 1.76217 0
M  V30 19800 H 1824.68 -1.48474 2.10507 0
M  V30 19801 H 1824.64 -2.92608 1.15014 0
M  V30 19802 N 1828.41 -1.57525 0.0484906 0
M  V30 19803 C 1829.63 -1.97309 -0.639062 0
M  V30 19804 C 1830.06 -0.925753 -1.63742 0
M  V30 19805 O 1829.42 0.111304 -1.80958 0
M  V30 19806 C 1829.47 -3.36168 -1.30475 0
M  V30 19807 O 1828.57 -3.33903 -2.42038 0
M  V30 19808 H 1827.91 -0.642824 -0.166351 0
M  V30 19809 H 1830.44 -2.0427 0.116095 0
M  V30 19810 H 1830.45 -3.72835 -1.65705 0
M  V30 19811 H 1829.13 -4.11933 -0.573057 0
M  V30 19812 H 1827.7 -3.08978 -2.08775 0
M  V30 19813 N 1829.89 0.224867 -1.55988 0
M  V30 19814 C 1831.12 0.966727 -1.82926 0
M  V30 19815 C 1831.53 1.78078 -0.627177 0
M  V30 19816 O 1830.89 1.77966 0.404277 0
M  V30 19817 C 1830.94 1.88696 -3.08344 0
M  V30 19818 O 1830.66 1.10581 -4.23914 0
M  V30 19819 C 1832.16 2.74299 -3.48246 0
M  V30 19820 H 1829.38 0.283479 -0.608178 0
M  V30 19821 H 1831.92 0.241097 -2.03074 0
M  V30 19822 H 1830.08 2.56658 -2.90182 0
M  V30 19823 H 1830.49 1.73019 -4.95141 0
M  V30 19824 H 1831.97 3.34577 -4.39047 0
M  V30 19825 H 1832.44 3.46526 -2.69845 0
M  V30 19826 H 1833.05 2.11755 -3.68836 0
M  V30 19827 N 1831.37 1.49742 0.491438 0
M  V30 19828 C 1832.6 1.63198 1.26689 0
M  V30 19829 C 1833 0.306438 1.86702 0
M  V30 19830 O 1832.35 -0.719282 1.69033 0
M  V30 19831 C 1832.41 2.64966 2.42967 0
M  V30 19832 C 1832.07 4.09066 2.0375 0
M  V30 19833 C 1833.07 4.95574 1.57171 0
M  V30 19834 C 1830.75 4.54859 2.13092 0
M  V30 19835 C 1832.75 6.25916 1.2045 0
M  V30 19836 C 1830.44 5.85212 1.75983 0
M  V30 19837 C 1831.43 6.70565 1.29738 0
M  V30 19838 O 1831.12 7.98487 0.931347 0
M  V30 19839 H 1830.85 0.552094 0.390087 0
M  V30 19840 H 1833.41 1.9658 0.595439 0
M  V30 19841 H 1831.64 2.26784 3.13218 0
M  V30 19842 H 1833.33 2.67852 3.04975 0
M  V30 19843 H 1834.09 4.61419 1.49391 0
M  V30 19844 H 1829.97 3.88585 2.48038 0
M  V30 19845 H 1833.52 6.9249 0.84283 0
M  V30 19846 H 1829.41 6.18893 1.83415 0
M  V30 19847 H 1830.18 8.11581 1.06198 0
M  V30 19848 N 1832.84 -0.743177 1.38977 0
M  V30 19849 C 1834.09 -1.50256 1.35755 0
M  V30 19850 C 1834.42 -1.94438 -0.0491287 0
M  V30 19851 O 1833.67 -1.66505 -1.02834 0
M  V30 19852 C 1833.97 -2.76157 2.26874 0
M  V30 19853 C 1833.64 -2.50885 3.74657 0
M  V30 19854 C 1832.3 -2.43702 4.14925 0
M  V30 19855 C 1834.65 -2.29075 4.6816 0
M  V30 19856 C 1831.98 -2.12738 5.46772 0
M  V30 19857 C 1834.33 -1.9963 6.00275 0
M  V30 19858 C 1833 -1.9091 6.39617 0
M  V30 19859 H 1832.27 -0.549827 0.496761 0
M  V30 19860 H 1834.91 -0.85369 1.71419 0
M  V30 19861 H 1833.22 -3.45746 1.84301 0
M  V30 19862 H 1834.92 -3.34155 2.21679 0
M  V30 19863 H 1831.51 -2.57351 3.42737 0
M  V30 19864 H 1835.69 -2.33597 4.37888 0
M  V30 19865 H 1830.95 -2.04504 5.76184 0
M  V30 19866 H 1835.12 -1.8176 6.72262 0
M  V30 19867 H 1832.75 -1.66683 7.41701 0
M  V30 19868 N 1834.32 -1.24018 -0.972487 0
M  V30 19869 C 1835.23 -1.04527 -2.10027 0
M  V30 19870 C 1836.25 0.0125372 -1.73995 0
M  V30 19871 O 1837.42 -0.184615 -2.00552 0
M  V30 19872 C 1834.49 -0.647264 -3.40604 0
M  V30 19873 C 1833.55 -1.78102 -3.90613 0
M  V30 19874 C 1832.78 -1.4019 -5.14959 0
M  V30 19875 O 1833.01 -0.289608 -5.69664 0
M  V30 19876 O 1831.94 -2.22583 -5.59232 0
M  V30 19877 H 1835.77 -1.99064 -2.29363 0
M  V30 19878 H 1833.35 -1.02794 -1.08414 0
M  V30 19879 H 1835.23 -0.436606 -4.19132 0
M  V30 19880 H 1833.91 0.269025 -3.2258 0
M  V30 19881 H 1832.82 -2.04638 -3.13168 0
M  V30 19882 H 1834.15 -2.67591 -4.13105 0
M  V30 19883 N 1835.8 1.17245 -1.05316 0
M  V30 19884 C 1837.03 1.91176 -0.783273 0
M  V30 19885 C 1837.44 1.77128 0.664996 0
M  V30 19886 O 1836.78 1.10682 1.46612 0
M  V30 19887 C 1836.84 3.42708 -1.0859 0
M  V30 19888 C 1836.51 3.80539 -2.5306 0
M  V30 19889 C 1837.5 3.8328 -3.51272 0
M  V30 19890 C 1835.19 4.11464 -2.88102 0
M  V30 19891 C 1837.18 4.16418 -4.82571 0
M  V30 19892 C 1834.87 4.44271 -4.19603 0
M  V30 19893 C 1835.87 4.46726 -5.16648 0
M  V30 19894 O 1835.56 4.7876 -6.4579 0
M  V30 19895 H 1835.29 0.613371 -0.284169 0
M  V30 19896 H 1837.84 1.49608 -1.40736 0
M  V30 19897 H 1836.07 3.84576 -0.404716 0
M  V30 19898 H 1837.76 3.97901 -0.801827 0
M  V30 19899 H 1838.53 3.59511 -3.25541 0
M  V30 19900 H 1834.41 4.08723 -2.13228 0
M  V30 19901 H 1837.95 4.1825 -5.58313 0
M  V30 19902 H 1833.85 4.67503 -4.45097 0
M  V30 19903 H 1834.62 4.96612 -6.5063 0
M  V30 19904 N 1837.28 0.834353 1.33702 0
M  V30 19905 C 1838.21 0.279313 2.31823 0
M  V30 19906 C 1839.19 -0.610495 1.58767 0
M  V30 19907 O 1840.37 -0.534989 1.86686 0
M  V30 19908 C 1837.5 -0.550201 3.42914 0
M  V30 19909 C 1836.46 0.243432 4.27307 0
M  V30 19910 C 1835.78 -0.709548 5.29971 0
M  V30 19911 C 1837.08 1.45799 5.01537 0
M  V30 19912 H 1838.78 1.09915 2.78494 0
M  V30 19913 H 1836.32 0.529987 1.33892 0
M  V30 19914 H 1838.28 -0.948764 4.10581 0
M  V30 19915 H 1837 -1.4032 2.9492 0
M  V30 19916 H 1835.66 0.6235 3.61259 0
M  V30 19917 H 1835.31 -1.55882 4.78236 0
M  V30 19918 H 1835.01 -0.182671 5.87316 0
M  V30 19919 H 1836.53 -1.10572 6.00505 0
M  V30 19920 H 1837.95 1.13283 5.61996 0
M  V30 19921 H 1836.34 1.92133 5.68511 0
M  V30 19922 H 1837.41 2.23016 4.30571 0
M  V30 19923 N 1838.76 -1.46125 0.590367 0
M  V30 19924 C 1839.69 -2.27433 -0.186997 0
M  V30 19925 C 1840.67 -1.36095 -0.889776 0
M  V30 19926 O 1841.85 -1.65511 -0.902123 0
M  V30 19927 C 1838.98 -3.14029 -1.26899 0
M  V30 19928 C 1838.02 -4.21185 -0.671223 0
M  V30 19929 S 1838.86 -5.33087 0.507766 0
M  V30 19930 C 1840.01 -6.23251 -0.575243 0
M  V30 19931 H 1840.25 -2.93016 0.502873 0
M  V30 19932 H 1837.78 -1.49715 0.377448 0
M  V30 19933 H 1839.74 -3.64483 -1.88845 0
M  V30 19934 H 1838.4 -2.47744 -1.93085 0
M  V30 19935 H 1837.59 -4.81633 -1.48478 0
M  V30 19936 H 1837.19 -3.73783 -0.127271 0
M  V30 19937 H 1839.49 -6.61606 -1.4589 0
M  V30 19938 H 1840.43 -7.081 -0.00733853 0
M  V30 19939 H 1840.84 -5.57554 -0.882831 0
M  V30 19940 N 1840.23 -0.328564 -1.54137 0
M  V30 19941 C 1841.48 0.272505 -2.00658 0
M  V30 19942 C 1841.81 1.51748 -1.21666 0
M  V30 19943 O 1841.06 1.93566 -0.288224 0
M  V30 19944 C 1841.36 0.646813 -3.51498 0
M  V30 19945 C 1841.03 -0.499561 -4.48124 0
M  V30 19946 C 1839.69 -0.8142 -4.74262 0
M  V30 19947 C 1842.04 -1.26936 -5.05506 0
M  V30 19948 C 1839.37 -1.90127 -5.55039 0
M  V30 19949 C 1841.72 -2.34656 -5.87469 0
M  V30 19950 C 1840.39 -2.66696 -6.11906 0
M  V30 19951 H 1839.66 0.0997168 -0.73426 0
M  V30 19952 H 1842.3 -0.453377 -1.86056 0
M  V30 19953 H 1840.61 1.45319 -3.63854 0
M  V30 19954 H 1842.31 1.12352 -3.84939 0
M  V30 19955 H 1838.9 -0.244255 -4.27903 0
M  V30 19956 H 1843.08 -1.03954 -4.85291 0
M  V30 19957 H 1838.34 -2.15392 -5.72203 0
M  V30 19958 H 1842.51 -2.94745 -6.3095 0
M  V30 19959 H 1840.14 -3.51058 -6.74287 0
M  V30 19960 N 1841.71 1.57497 -0.0568439 0
M  V30 19961 C 1842.96 1.932 0.61658 0
M  V30 19962 C 1843.29 0.935936 1.70158 0
M  V30 19963 O 1842.57 -0.0372005 1.94464 0
M  V30 19964 C 1842.85 3.39254 1.20742 0
M  V30 19965 C 1842.7 4.49612 0.130081 0
M  V30 19966 C 1844.02 3.85817 2.11738 0
M  V30 19967 H 1841.14 0.702558 0.222668 0
M  V30 19968 H 1843.78 1.89622 -0.119765 0
M  V30 19969 H 1841.93 3.42434 1.83497 0
M  V30 19970 H 1843.6 4.58559 -0.502172 0
M  V30 19971 H 1841.85 4.30411 -0.541167 0
M  V30 19972 H 1842.52 5.48906 0.583606 0
M  V30 19973 H 1844.99 3.8455 1.58936 0
M  V30 19974 H 1843.87 4.88653 2.50019 0
M  V30 19975 H 1844.13 3.22899 3.01974 0
M  V30 19976 N 1843.19 -0.216591 1.56105 0
M  V30 19977 C 1844.12 -1.27155 1.95841 0
M  V30 19978 C 1845.1 -1.48626 0.827313 0
M  V30 19979 O 1846.29 -1.60725 1.09 0
M  V30 19980 C 1843.42 -2.62032 2.27939 0
M  V30 19981 C 1842.37 -2.55211 3.43586 0
M  V30 19982 C 1841.7 -3.94163 3.61303 0
M  V30 19983 C 1843 -2.09566 4.78413 0
M  V30 19984 H 1844.69 -0.941435 2.84214 0
M  V30 19985 H 1842.24 -0.451427 1.36741 0
M  V30 19986 H 1844.19 -3.35997 2.5433 0
M  V30 19987 H 1842.91 -2.96742 1.36426 0
M  V30 19988 H 1841.57 -1.83703 3.17252 0
M  V30 19989 H 1841.22 -4.26188 2.67156 0
M  V30 19990 H 1840.92 -3.90479 4.3909 0
M  V30 19991 H 1842.44 -4.69782 3.90047 0
M  V30 19992 H 1843.86 -2.73277 5.03977 0
M  V30 19993 H 1842.26 -2.16931 5.59518 0
M  V30 19994 H 1843.33 -1.0481 4.73437 0
M  V30 19995 N 1844.67 -1.5 -0.48349 0
M  V30 19996 C 1845.92 -1.59612 -1.23317 0
M  V30 19997 C 1846.23 -0.29614 -1.93345 0
M  V30 19998 O 1847.44 -0.271008 -2.70144 0
M  V30 19999 C 1845.89 -2.81692 -2.24003 0
M  V30 20000 C 1845.5 -4.18518 -1.59834 0
M  V30 20001 C 1847.24 -3.00643 -2.9969 0
M  V30 20002 C 1845.15 -5.31799 -2.58735 0
M  V30 20003 H 1844.08 -0.594352 -0.463963 0
M  V30 20004 H 1846.73 -1.76414 -0.505016 0
M  V30 20005 H 1845.11 -2.58422 -3.00057 0
M  V30 20006 H 1846.29 -4.51994 -0.896542 0
M  V30 20007 H 1844.6 -4.0507 -0.964743 0
M  V30 20008 H 1847.2 -3.82445 -3.73684 0
M  V30 20009 H 1847.54 -2.11883 -3.58345 0
M  V30 20010 H 1848.08 -3.24035 -2.30751 0
M  V30 20011 H 1844.82 -6.22674 -2.04836 0
M  V30 20012 H 1844.34 -5.02756 -3.27103 0
M  V30 20013 H 1846.01 -5.61861 -3.20814 0
M  V30 20014 N 1846.15 0.735796 -1.39369 0
M  V30 20015 C 1847.08 1.86303 -1.4076 0
M  V30 20016 C 1848.06 1.67926 -0.27107 0
M  V30 20017 O 1849.24 1.88257 -0.476773 0
M  V30 20018 C 1846.37 3.24043 -1.24955 0
M  V30 20019 C 1845.33 3.57055 -2.35999 0
M  V30 20020 C 1844.65 4.93723 -2.05284 0
M  V30 20021 C 1845.95 3.60109 -3.7831 0
M  V30 20022 H 1847.65 1.85396 -2.35093 0
M  V30 20023 H 1845.19 0.890552 -1.1316 0
M  V30 20024 H 1847.15 4.02574 -1.24549 0
M  V30 20025 H 1845.87 3.25475 -0.270902 0
M  V30 20026 H 1844.53 2.80853 -2.35621 0
M  V30 20027 H 1844.18 4.91734 -1.05859 0
M  V30 20028 H 1843.88 5.16779 -2.79667 0
M  V30 20029 H 1845.4 5.74612 -2.06527 0
M  V30 20030 H 1846.81 4.28718 -3.80622 0
M  V30 20031 H 1845.21 3.94683 -4.52046 0
M  V30 20032 H 1846.28 2.59932 -4.09345 0
M  V30 20033 N 1847.63 1.24532 0.965897 0
M  V30 20034 C 1848.56 1.06393 2.07853 0
M  V30 20035 C 1849.54 -0.0236467 1.70084 0
M  V30 20036 O 1850.72 0.143767 1.93667 0
M  V30 20037 C 1847.85 0.669877 3.40778 0
M  V30 20038 C 1846.81 1.70643 3.92511 0
M  V30 20039 C 1846.13 1.16738 5.21801 0
M  V30 20040 C 1847.43 3.10278 4.20149 0
M  V30 20041 H 1849.13 1.99459 2.23285 0
M  V30 20042 H 1846.67 0.960397 1.07296 0
M  V30 20043 H 1848.62 0.52997 4.18054 0
M  V30 20044 H 1847.35 -0.296477 3.25252 0
M  V30 20045 H 1846.01 1.83458 3.17393 0
M  V30 20046 H 1845.66 0.191586 5.02635 0
M  V30 20047 H 1845.36 1.86009 5.57382 0
M  V30 20048 H 1846.88 1.03963 6.01684 0
M  V30 20049 H 1848.29 3.00681 4.88123 0
M  V30 20050 H 1846.69 3.76918 4.66962 0
M  V30 20051 H 1847.76 3.58182 3.26854 0
M  V30 20052 N 1849.1 -1.16685 1.05936 0
M  V30 20053 C 1850.05 -2.2301 0.66101 0
M  V30 20054 C 1851.05 -1.66324 -0.321334 0
M  V30 20055 O 1852.25 -1.7903 -0.186587 0
M  V30 20056 H 1848.63 -0.726112 0.195616 0
M  V30 20057 H 1850.6 -2.539 1.56772 0
M  V30 20058 C 1849.35 -3.47649 0.0596424 0
M  V30 20059 H 1848.67 -3.91578 0.806635 0
M  V30 20060 H 1850.11 -4.23611 -0.18161 0
M  V30 20061 C 1848.57 -3.14965 -1.19578 0
M  V30 20062 O 1849.1 -3.30434 -2.28421 0
M  V30 20063 N 1847.3 -2.69126 -1.09634 0
M  V30 20064 H 1846.85 -2.56738 -0.210599 0
M  V30 20065 H 1846.81 -2.4763 -1.93718 0
M  V30 20066 N 1850.58 -0.841432 -1.33258 0
M  V30 20067 C 1851.81 -0.451942 -2.01904 0
M  V30 20068 C 1852.22 0.94758 -1.63298 0
M  V30 20069 O 1851.58 1.61622 -0.847611 0
M  V30 20070 C 1851.63 -0.565978 -3.57042 0
M  V30 20071 O 1851.35 -1.91036 -3.94255 0
M  V30 20072 C 1852.85 -0.173776 -4.42959 0
M  V30 20073 H 1850.07 -0.179113 -0.646653 0
M  V30 20074 H 1852.62 -1.13472 -1.70131 0
M  V30 20075 H 1850.77 0.0689126 -3.87339 0
M  V30 20076 H 1851.19 -1.8977 -4.88966 0
M  V30 20077 H 1852.66 -0.304608 -5.51159 0
M  V30 20078 H 1853.14 0.884559 -4.302 0
M  V30 20079 H 1853.74 -0.783205 -4.18026 0
M  V30 20080 N 1852.06 1.4581 -0.598108 0
M  V30 20081 C 1853.31 2.01511 -0.0872421 0
M  V30 20082 C 1853.62 1.47345 1.28642 0
M  V30 20083 O 1854.83 1.94963 1.88949 0
M  V30 20084 C 1853.28 3.59746 -0.105317 0
M  V30 20085 C 1852.89 4.22909 -1.47824 0
M  V30 20086 C 1854.64 4.23048 0.350802 0
M  V30 20087 C 1852.54 5.73268 -1.45321 0
M  V30 20088 H 1851.47 0.753448 -0.0288462 0
M  V30 20089 H 1854.12 1.67382 -0.752037 0
M  V30 20090 H 1852.51 3.91022 0.625947 0
M  V30 20091 H 1853.68 4.03221 -2.23046 0
M  V30 20092 H 1851.99 3.71763 -1.87566 0
M  V30 20093 H 1854.59 5.33286 0.388561 0
M  V30 20094 H 1854.93 3.93058 1.37155 0
M  V30 20095 H 1855.47 3.96455 -0.326889 0
M  V30 20096 H 1852.21 6.07942 -2.45126 0
M  V30 20097 H 1851.73 5.95175 -0.743436 0
M  V30 20098 H 1853.41 6.36283 -1.17275 0
M  V30 20099 N 1853.54 0.336733 1.53961 0
M  V30 20100 C 1854.78 -0.26229 2.0271 0
M  V30 20101 C 1855.14 -1.48309 1.21936 0
M  V30 20102 O 1856.34 -2.15584 1.60552 0
M  V30 20103 C 1854.61 -0.575319 3.52739 0
M  V30 20104 S 1856.17 -1.15212 4.23405 0
M  V30 20105 H 1852.99 -0.0785306 0.70665 0
M  V30 20106 H 1855.59 0.472914 1.89694 0
M  V30 20107 H 1854.3 0.32111 4.09142 0
M  V30 20108 H 1853.83 -1.34037 3.69862 0
M  V30 20109 H 1855.84 -2.43824 4.32162 0
M  V30 20110 N 1855.02 -1.57465 0.0651956 0
M  V30 20111 C 1855.95 -2.15374 -0.902018 0
M  V30 20112 C 1856.93 -1.07904 -1.31494 0
M  V30 20113 O 1858.11 -1.35909 -1.38717 0
M  V30 20114 C 1855.24 -2.71005 -2.17195 0
M  V30 20115 C 1854.2 -3.83583 -1.89864 0
M  V30 20116 C 1853.52 -4.25789 -3.23432 0
M  V30 20117 C 1854.82 -5.08112 -1.20913 0
M  V30 20118 H 1856.52 -2.96445 -0.419631 0
M  V30 20119 H 1854.06 -1.42599 -0.200401 0
M  V30 20120 H 1856.01 -3.1016 -2.8527 0
M  V30 20121 H 1854.74 -1.87146 -2.67664 0
M  V30 20122 H 1853.4 -3.44921 -1.24197 0
M  V30 20123 H 1853.05 -3.38861 -3.71729 0
M  V30 20124 H 1852.75 -5.01673 -3.05938 0
M  V30 20125 H 1854.27 -4.67555 -3.92715 0
M  V30 20126 H 1855.68 -5.44624 -1.79046 0
M  V30 20127 H 1854.08 -5.8923 -1.137 0
M  V30 20128 H 1855.15 -4.84538 -0.187224 0
M  V30 20129 N 1856.49 0.20831 -1.56217 0
M  V30 20130 C 1857.46 1.24178 -1.92646 0
M  V30 20131 C 1858.46 1.39125 -0.806274 0
M  V30 20132 O 1859.65 1.37163 -1.07386 0
M  V30 20133 C 1856.78 2.61342 -2.18891 0
M  V30 20134 H 1857.97 0.930748 -2.85091 0
M  V30 20135 H 1855.52 0.449285 -1.49703 0
M  V30 20136 H 1856.26 2.97521 -1.29041 0
M  V30 20137 H 1856.04 2.51866 -3.00509 0
M  V30 20138 H 1857.53 3.35892 -2.48125 0
M  V30 20139 N 1857.97 1.50255 0.475528 0
M  V30 20140 C 1858.9 1.63428 1.59268 0
M  V30 20141 C 1859.88 0.482517 1.55276 0
M  V30 20142 O 1861.07 0.70144 1.74963 0
M  V30 20143 C 1858.19 1.61277 2.97838 0
M  V30 20144 C 1857.24 2.81961 3.20001 0
M  V30 20145 S 1858.07 4.43321 3.00378 0
M  V30 20146 C 1859.23 4.43855 4.41297 0
M  V30 20147 H 1859.46 2.57928 1.47853 0
M  V30 20148 H 1856.99 1.39462 0.662547 0
M  V30 20149 H 1858.95 1.60721 3.77729 0
M  V30 20150 H 1857.61 0.680212 3.06646 0
M  V30 20151 H 1856.81 2.76747 4.21221 0
M  V30 20152 H 1856.41 2.80061 2.47875 0
M  V30 20153 H 1858.7 4.17145 5.33851 0
M  V30 20154 H 1859.64 5.45439 4.51555 0
M  V30 20155 H 1860.05 3.73616 4.23168 0
M  V30 20156 N 1859.45 -0.728395 1.39758 0
M  V30 20157 C 1860.38 -1.85288 1.34911 0
M  V30 20158 C 1861.39 -1.60763 0.25671 0
M  V30 20159 O 1862.58 -1.70875 0.516143 0
M  V30 20160 C 1859.68 -3.21445 1.07361 0
M  V30 20161 C 1858.86 -3.73272 2.28006 0
M  V30 20162 C 1857.92 -4.88008 1.96812 0
M  V30 20163 O 1856.94 -5.01325 2.69559 0
M  V30 20164 N 1858.14 -5.72867 0.938278 0
M  V30 20165 H 1860.91 -1.89949 2.31818 0
M  V30 20166 H 1858.47 -0.909409 1.33945 0
M  V30 20167 H 1860.46 -3.9578 0.845002 0
M  V30 20168 H 1859.03 -3.12012 0.191644 0
M  V30 20169 H 1858.25 -2.90214 2.66777 0
M  V30 20170 H 1859.54 -4.04633 3.08463 0
M  V30 20171 H 1858.94 -5.64704 0.335517 0
M  V30 20172 H 1857.49 -6.47241 0.769572 0
M  V30 20173 N 1860.93 -1.25042 -0.959279 0
M  V30 20174 C 1861.88 -1.0171 -2.04056 0
M  V30 20175 C 1862.86 0.0444009 -1.60839 0
M  V30 20176 O 1864.05 -0.170366 -1.76178 0
M  V30 20177 C 1861.18 -0.632842 -3.37417 0
M  V30 20178 C 1860.27 -1.73087 -3.87172 0
M  V30 20179 N 1860.66 -2.96517 -4.0977 0
M  V30 20180 C 1858.96 -1.61031 -4.15914 0
M  V30 20181 C 1859.66 -3.67756 -4.507 0
M  V30 20182 N 1858.63 -2.95355 -4.56362 0
M  V30 20183 H 1862.44 -1.95423 -2.19515 0
M  V30 20184 H 1859.95 -1.15293 -1.14374 0
M  V30 20185 H 1861.95 -0.446895 -4.14498 0
M  V30 20186 H 1860.61 0.297006 -3.23339 0
M  V30 20187 H 1861.62 -3.3261 -3.96977 0
M  V30 20188 H 1858.3 -0.749096 -4.10725 0
M  V30 20189 H 1859.69 -4.73679 -4.76527 0
M  V30 20190 N 1862.41 1.16121 -1.06553 0
M  V30 20191 C 1863.64 1.90335 -0.803506 0
M  V30 20192 C 1864.04 1.77824 0.646172 0
M  V30 20193 O 1863.39 1.12231 1.4543 0
M  V30 20194 C 1863.45 3.41537 -1.12219 0
M  V30 20195 C 1863.11 3.77833 -2.57082 0
M  V30 20196 C 1864.11 3.79533 -3.55318 0
M  V30 20197 C 1861.8 4.08385 -2.92449 0
M  V30 20198 C 1863.79 4.11277 -4.8696 0
M  V30 20199 C 1861.48 4.39795 -4.24291 0
M  V30 20200 C 1862.47 4.41221 -5.21357 0
M  V30 20201 O 1862.16 4.71883 -6.50831 0
M  V30 20202 H 1861.89 0.610323 -0.290658 0
M  V30 20203 H 1864.45 1.48107 -1.42315 0
M  V30 20204 H 1862.68 3.84125 -0.445483 0
M  V30 20205 H 1864.37 3.97029 -0.843985 0
M  V30 20206 H 1865.13 3.56038 -3.29336 0
M  V30 20207 H 1861.01 4.06439 -2.17551 0
M  V30 20208 H 1864.56 4.12305 -5.62717 0
M  V30 20209 H 1860.45 4.62756 -4.5003 0
M  V30 20210 H 1861.22 4.89683 -6.5586 0
M  V30 20211 N 1863.88 0.848487 1.3281 0
M  V30 20212 C 1865.13 0.44797 1.97073 0
M  V30 20213 C 1865.45 -0.998358 1.67505 0
M  V30 20214 O 1864.72 -1.69683 0.97901 0
M  V30 20215 H 1863.3 0.162663 0.729075 0
M  V30 20216 H 1865.97 1.08356 1.62003 0
M  V30 20217 H 1865.06 0.587939 3.06512 0
M  V30 20218 N 1865.36 -1.4549 0.605832 0
M  V30 20219 C 1866.29 -2.28694 -0.152145 0
M  V30 20220 C 1867.31 -1.3985 -0.833422 0
M  V30 20221 O 1868.5 -1.6424 -0.699105 0
M  V30 20222 C 1865.6 -3.15544 -1.23634 0
M  V30 20223 C 1864.77 -4.32655 -0.642525 0
M  V30 20224 C 1863.83 -5.00726 -1.61739 0
M  V30 20225 O 1862.85 -5.57577 -1.14438 0
M  V30 20226 N 1864.06 -4.9985 -2.95178 0
M  V30 20227 H 1866.82 -2.94387 0.561801 0
M  V30 20228 H 1864.38 -1.55659 0.445195 0
M  V30 20229 H 1866.37 -3.57947 -1.88828 0
M  V30 20230 H 1864.94 -2.51771 -1.85284 0
M  V30 20231 H 1864.16 -3.93754 0.187451 0
M  V30 20232 H 1865.45 -5.08298 -0.225985 0
M  V30 20233 H 1864.85 -4.54949 -3.36211 0
M  V30 20234 H 1863.41 -5.46123 -3.558 0
M  V30 20235 N 1866.84 -0.344893 -1.5378 0
M  V30 20236 C 1868.07 0.255228 -2.05824 0
M  V30 20237 C 1868.49 1.43329 -1.21812 0
M  V30 20238 O 1867.85 1.79807 -0.232191 0
M  V30 20239 C 1867.9 0.646906 -3.5475 0
M  V30 20240 O 1867 1.74677 -3.7358 0
M  V30 20241 H 1866.34 0.0420518 -0.662667 0
M  V30 20242 H 1868.87 -0.499498 -1.98409 0
M  V30 20243 H 1868.88 0.923686 -3.97407 0
M  V30 20244 H 1867.56 -0.214619 -4.15346 0
M  V30 20245 H 1866.13 1.46715 -3.42825 0
M  V30 20246 N 1868.32 1.57428 -0.0735454 0
M  V30 20247 C 1869.56 1.95432 0.598802 0
M  V30 20248 C 1869.92 0.953142 1.66671 0
M  V30 20249 O 1871.12 1.2209 2.39473 0
M  V30 20250 C 1869.39 3.38079 1.1592 0
M  V30 20251 S 1870.95 3.98061 1.84643 0
M  V30 20252 H 1867.77 0.683444 0.196022 0
M  V30 20253 H 1870.37 1.9494 -0.147819 0
M  V30 20254 H 1869.08 4.08727 0.370158 0
M  V30 20255 H 1868.61 3.42118 1.94214 0
M  V30 20256 H 1870.62 3.85108 3.129 0
M  V30 20257 N 1869.8 -0.200022 1.56326 0
M  V30 20258 C 1870.73 -1.25071 1.97179 0
M  V30 20259 C 1871.71 -1.4774 0.84303 0
M  V30 20260 O 1872.89 -1.5956 1.10699 0
M  V30 20261 C 1870.02 -2.596 2.30706 0
M  V30 20262 C 1868.98 -2.51552 3.46274 0
M  V30 20263 C 1868.3 -3.90309 3.65463 0
M  V30 20264 C 1869.6 -2.0448 4.80609 0
M  V30 20265 H 1871.3 -0.911238 2.85196 0
M  V30 20266 H 1868.84 -0.436899 1.37212 0
M  V30 20267 H 1870.8 -3.33281 2.5788 0
M  V30 20268 H 1869.52 -2.95278 1.39565 0
M  V30 20269 H 1868.18 -1.80327 3.19183 0
M  V30 20270 H 1867.83 -4.23331 2.71662 0
M  V30 20271 H 1867.53 -3.858 4.43207 0
M  V30 20272 H 1869.05 -4.65619 3.95008 0
M  V30 20273 H 1870.46 -2.67917 5.06847 0
M  V30 20274 H 1868.86 -2.10985 5.61788 0
M  V30 20275 H 1869.93 -0.997828 4.74522 0
M  V30 20276 N 1871.27 -1.50505 -0.467553 0
M  V30 20277 C 1872.52 -1.61671 -1.21938 0
M  V30 20278 C 1872.85 -0.318688 -1.91871 0
M  V30 20279 O 1872.1 0.695639 -1.82919 0
M  V30 20280 C 1872.4 -2.74913 -2.28381 0
M  V30 20281 C 1872.07 -4.1527 -1.75674 0
M  V30 20282 C 1870.73 -4.5346 -1.6102 0
M  V30 20283 C 1873.08 -5.02978 -1.3661 0
M  V30 20284 C 1870.41 -5.77094 -1.05732 0
M  V30 20285 C 1872.76 -6.27163 -0.827621 0
M  V30 20286 C 1871.43 -6.64152 -0.667746 0
M  V30 20287 H 1870.7 -0.591596 -0.446201 0
M  V30 20288 H 1873.34 -1.84449 -0.514858 0
M  V30 20289 H 1871.65 -2.46237 -3.04754 0
M  V30 20290 H 1873.35 -2.80756 -2.86317 0
M  V30 20291 H 1869.94 -3.85144 -1.88047 0
M  V30 20292 H 1874.12 -4.74103 -1.46764 0
M  V30 20293 H 1869.38 -6.04424 -0.920946 0
M  V30 20294 H 1873.55 -6.94484 -0.516286 0
M  V30 20295 H 1871.18 -7.5983 -0.237178 0
M  V30 20296 N 1872.75 0.720973 -1.40142 0
M  V30 20297 C 1873.7 1.83506 -1.3998 0
M  V30 20298 C 1874.67 1.64092 -0.257489 0
M  V30 20299 O 1875.85 1.85302 -0.454738 0
M  V30 20300 C 1872.99 3.21163 -1.26288 0
M  V30 20301 C 1872.11 3.52185 -2.5018 0
M  V30 20302 C 1871.24 4.79318 -2.2897 0
M  V30 20303 C 1870.28 5.03228 -3.48465 0
M  V30 20304 N 1869.42 6.21572 -3.26485 0
M  V30 20305 H 1874.26 1.82979 -2.35208 0
M  V30 20306 H 1871.8 0.893911 -1.16823 0
M  V30 20307 H 1873.75 4.00646 -1.16357 0
M  V30 20308 H 1872.38 3.20931 -0.346817 0
M  V30 20309 H 1871.44 2.67297 -2.70659 0
M  V30 20310 H 1872.75 3.65765 -3.39142 0
M  V30 20311 H 1871.9 5.66809 -2.16362 0
M  V30 20312 H 1870.64 4.67938 -1.37424 0
M  V30 20313 H 1869.65 4.14194 -3.61557 0
M  V30 20314 H 1870.87 5.16484 -4.40932 0
M  V30 20315 H 1868.82 6.11453 -2.37616 0
M  V30 20316 H 1868.73 6.35804 -4.0901 0
M  V30 20317 H 1870 7.11865 -3.17599 0
M  V30 20318 N 1874.23 1.25549 0.952634 0
M  V30 20319 C 1875.48 1.09811 1.69188 0
M  V30 20320 C 1875.79 -0.360368 1.92252 0
M  V30 20321 O 1877 -0.638228 2.63892 0
M  V30 20322 C 1875.45 1.91693 3.04601 0
M  V30 20323 C 1875.06 3.42045 2.89326 0
M  V30 20324 C 1876.81 1.8453 3.82294 0
M  V30 20325 C 1874.71 4.16216 4.20141 0
M  V30 20326 H 1873.64 0.40733 0.634507 0
M  V30 20327 H 1876.29 1.49762 1.06035 0
M  V30 20328 H 1874.68 1.44566 3.68669 0
M  V30 20329 H 1875.85 3.96859 2.34178 0
M  V30 20330 H 1874.17 3.50322 2.25085 0
M  V30 20331 H 1876.76 2.37237 4.79189 0
M  V30 20332 H 1877.11 0.81361 4.08272 0
M  V30 20333 H 1877.64 2.29418 3.2498 0
M  V30 20334 H 1874.38 5.19806 3.99352 0
M  V30 20335 H 1873.9 3.66184 4.75047 0
M  V30 20336 H 1875.58 4.2404 4.88671 0
M  V30 20337 N 1875.71 -1.15554 1.07168 0
M  V30 20338 C 1876.67 -2.18431 0.694305 0
M  V30 20339 C 1877.67 -1.5861 -0.264497 0
M  V30 20340 O 1878.86 -1.7414 -0.0457035 0
M  V30 20341 C 1875.99 -3.40892 0.0230473 0
M  V30 20342 H 1877.19 -2.53331 1.60511 0
M  V30 20343 H 1874.74 -1.29984 0.867982 0
M  V30 20344 H 1875.47 -3.11559 -0.900083 0
M  V30 20345 H 1875.26 -3.8557 0.712622 0
M  V30 20346 H 1876.75 -4.16986 -0.226392 0
M  V30 20347 N 1877.19 -0.855519 -1.32358 0
M  V30 20348 C 1878.12 -0.245562 -2.26875 0
M  V30 20349 C 1879.1 0.616957 -1.50441 0
M  V30 20350 O 1880.28 0.573569 -1.79562 0
M  V30 20351 C 1877.41 0.653572 -3.32334 0
M  V30 20352 C 1876.46 -0.135677 -4.26284 0
M  V30 20353 S 1877.29 -1.50466 -5.13926 0
M  V30 20354 C 1878.44 -0.611261 -6.22908 0
M  V30 20355 H 1878.68 -1.0468 -2.78261 0
M  V30 20356 H 1876.21 -0.653201 -1.39902 0
M  V30 20357 H 1878.17 1.16668 -3.93572 0
M  V30 20358 H 1876.83 1.42863 -2.7973 0
M  V30 20359 H 1876.02 0.549189 -5.00999 0
M  V30 20360 H 1875.62 -0.580401 -3.69469 0
M  V30 20361 H 1877.92 0.184141 -6.7725 0
M  V30 20362 H 1878.86 -1.32908 -6.95515 0
M  V30 20363 H 1879.27 -0.185219 -5.64196 0
M  V30 20364 N 1878.67 1.45167 -0.61354 0
M  V30 20365 C 1879.61 2.32319 0.114222 0
M  V30 20366 C 1880.61 1.4632 0.853634 0
M  V30 20367 O 1881.81 1.62769 0.768525 0
M  V30 20368 H 1878.19 0.749935 0.0556921 0
M  V30 20369 H 1880.16 2.91474 -0.639175 0
M  V30 20370 C 1878.91 3.30035 1.09417 0
M  V30 20371 H 1878.23 3.96209 0.534632 0
M  V30 20372 H 1879.67 3.93734 1.5732 0
M  V30 20373 C 1878.13 2.57648 2.1707 0
M  V30 20374 O 1878.66 2.36227 3.24899 0
M  V30 20375 N 1876.87 2.17682 1.92517 0
M  V30 20376 H 1876.41 2.35303 1.04834 0
M  V30 20377 H 1876.37 1.69573 2.6475 0
M  V30 20378 N 1880.14 0.353044 1.53595 0
M  V30 20379 C 1881.39 -0.2416 2.00248 0
M  V30 20380 C 1881.71 -1.5089 1.24465 0
M  V30 20381 O 1882.91 -2.18137 1.61643 0
M  V30 20382 C 1881.37 -0.481075 3.5667 0
M  V30 20383 C 1880.98 0.77087 4.41318 0
M  V30 20384 C 1882.72 -1.03406 4.11713 0
M  V30 20385 C 1880.63 0.501671 5.89268 0
M  V30 20386 H 1879.56 -0.0940573 0.74811 0
M  V30 20387 H 1882.21 0.469845 1.77383 0
M  V30 20388 H 1880.59 -1.25346 3.75639 0
M  V30 20389 H 1881.76 1.54509 4.34124 0
M  V30 20390 H 1880.08 1.24617 3.97315 0
M  V30 20391 H 1882.68 -1.25058 5.1987 0
M  V30 20392 H 1883.02 -1.99245 3.65523 0
M  V30 20393 H 1883.55 -0.322144 3.96493 0
M  V30 20394 H 1880.29 1.43005 6.39711 0
M  V30 20395 H 1879.81 -0.234284 5.99342 0
M  V30 20396 H 1881.49 0.122468 6.46884 0
M  V30 20397 N 1881.62 -1.57387 0.0818932 0
M  V30 20398 C 1882.55 -2.16318 -0.879124 0
M  V30 20399 C 1883.53 -1.09293 -1.30342 0
M  V30 20400 O 1884.72 -1.37373 -1.37267 0
M  V30 20401 C 1881.85 -2.73293 -2.14308 0
M  V30 20402 C 1880.8 -3.85575 -1.85785 0
M  V30 20403 C 1880.13 -4.29195 -3.18897 0
M  V30 20404 C 1881.43 -5.09365 -1.15517 0
M  V30 20405 H 1883.12 -2.96873 -0.388166 0
M  V30 20406 H 1880.67 -1.42803 -0.185265 0
M  V30 20407 H 1882.62 -3.13168 -2.81964 0
M  V30 20408 H 1881.34 -1.89974 -2.65664 0
M  V30 20409 H 1880 -3.46219 -1.20532 0
M  V30 20410 H 1879.65 -3.42784 -3.68114 0
M  V30 20411 H 1879.35 -5.04889 -3.006 0
M  V30 20412 H 1880.88 -4.71694 -3.87734 0
M  V30 20413 H 1882.29 -5.46493 -1.73259 0
M  V30 20414 H 1880.69 -5.90403 -1.07444 0
M  V30 20415 H 1881.76 -4.8471 -0.135822 0
M  V30 20416 N 1883.1 0.191729 -1.56429 0
M  V30 20417 C 1884.05 1.25706 -1.95706 0
M  V30 20418 C 1885.04 1.46938 -0.842948 0
M  V30 20419 O 1886.25 1.47759 -1.02797 0
M  V30 20420 H 1882.62 0.422099 -0.622364 0
M  V30 20421 H 1884.59 0.8988 -2.84542 0
M  V30 20422 C 1883.34 2.59366 -2.3157 0
M  V30 20423 H 1882.67 2.43845 -3.16827 0
M  V30 20424 H 1884.11 3.32646 -2.62912 0
M  V30 20425 C 1882.56 3.16609 -1.15155 0
M  V30 20426 O 1883.09 3.9941 -0.428355 0
M  V30 20427 N 1881.3 2.75402 -0.927467 0
M  V30 20428 H 1880.85 2.08172 -1.5173 0
M  V30 20429 H 1880.81 3.1404 -0.150348 0
M  V30 20430 N 1884.58 1.50751 0.459565 0
M  V30 20431 C 1885.51 1.65108 1.57526 0
M  V30 20432 C 1886.49 0.498959 1.54755 0
M  V30 20433 O 1887.67 0.719958 1.74209 0
M  V30 20434 C 1884.8 1.64427 2.96111 0
M  V30 20435 C 1883.85 2.85339 3.16992 0
M  V30 20436 S 1884.68 4.46482 2.95659 0
M  V30 20437 C 1885.83 4.48511 4.36565 0
M  V30 20438 H 1886.07 2.59481 1.45109 0
M  V30 20439 H 1883.6 1.40157 0.647718 0
M  V30 20440 H 1885.56 1.64718 3.76003 0
M  V30 20441 H 1884.22 0.712698 3.05908 0
M  V30 20442 H 1883.41 2.81199 4.18262 0
M  V30 20443 H 1883.01 2.82674 2.4489 0
M  V30 20444 H 1885.31 4.22783 5.29396 0
M  V30 20445 H 1886.25 5.50198 4.45744 0
M  V30 20446 H 1886.66 3.78084 4.19181 0
M  V30 20447 N 1886.06 -0.713531 1.40522 0
M  V30 20448 C 1886.99 -1.8404 1.43707 0
M  V30 20449 C 1887.97 -1.67474 0.297751 0
M  V30 20450 O 1889.15 -1.87474 0.506662 0
M  V30 20451 C 1886.28 -3.22014 1.30094 0
M  V30 20452 C 1885.24 -3.53255 2.4165 0
M  V30 20453 C 1884.56 -4.90395 2.13113 0
M  V30 20454 C 1885.86 -3.54045 3.83991 0
M  V30 20455 H 1887.56 -1.81632 2.38013 0
M  V30 20456 H 1885.1 -0.872437 1.14562 0
M  V30 20457 H 1887.05 -4.00541 1.30938 0
M  V30 20458 H 1885.78 -3.25002 0.322648 0
M  V30 20459 H 1884.44 -2.77069 2.40059 0
M  V30 20460 H 1884.09 -4.89988 1.13669 0
M  V30 20461 H 1883.79 -5.12264 2.87853 0
M  V30 20462 H 1885.31 -5.71254 2.15642 0
M  V30 20463 H 1886.72 -4.22609 3.87395 0
M  V30 20464 H 1885.12 -3.87441 4.58268 0
M  V30 20465 H 1886.19 -2.53387 4.13428 0
M  V30 20466 N 1887.53 -1.26053 -0.945962 0
M  V30 20467 C 1888.78 -1.11315 -1.69161 0
M  V30 20468 C 1889.11 0.34437 -1.91427 0
M  V30 20469 O 1888.36 1.26968 -1.48921 0
M  V30 20470 C 1888.66 -1.8222 -3.07459 0
M  V30 20471 C 1888.33 -3.32126 -3.04964 0
M  V30 20472 C 1886.99 -3.73019 -3.03991 0
M  V30 20473 C 1889.34 -4.2786 -2.97633 0
M  V30 20474 C 1886.67 -5.08041 -2.93446 0
M  V30 20475 C 1889.02 -5.62917 -2.88631 0
M  V30 20476 C 1887.69 -6.03127 -2.85998 0
M  V30 20477 H 1886.96 -0.407329 -0.619002 0
M  V30 20478 H 1889.6 -1.56435 -1.10454 0
M  V30 20479 H 1887.91 -1.29554 -3.69761 0
M  V30 20480 H 1889.61 -1.68261 -3.63991 0
M  V30 20481 H 1886.2 -2.99594 -3.06498 0
M  V30 20482 H 1890.38 -3.97252 -2.97497 0
M  V30 20483 H 1885.64 -5.38364 -2.89782 0
M  V30 20484 H 1889.81 -6.36784 -2.81921 0
M  V30 20485 H 1887.44 -7.07709 -2.77583 0
M  V30 20486 N 1889.01 1.14984 -1.07779 0
M  V30 20487 C 1890.24 1.89747 -0.824844 0
M  V30 20488 C 1890.65 1.78246 0.622385 0
M  V30 20489 O 1890.01 1.13739 1.42723 0
M  V30 20490 C 1890.06 3.39946 -1.2296 0
M  V30 20491 O 1889.78 3.5112 -2.62005 0
M  V30 20492 C 1891.28 4.31721 -1.00658 0
M  V30 20493 H 1888.5 0.601232 -0.297928 0
M  V30 20494 H 1891.05 1.4566 -1.43539 0
M  V30 20495 H 1889.2 3.81679 -0.663292 0
M  V30 20496 H 1889.62 4.44367 -2.78636 0
M  V30 20497 H 1891.09 5.35507 -1.33925 0
M  V30 20498 H 1891.57 4.39163 0.0568131 0
M  V30 20499 H 1892.17 3.95735 -1.55801 0
M  V30 20500 N 1890.49 0.862526 1.31902 0
M  V30 20501 C 1891.74 0.468847 1.96586 0
M  V30 20502 C 1892.06 -0.980535 1.68554 0
M  V30 20503 O 1891.33 -1.68635 0.996952 0
M  V30 20504 H 1889.91 0.170387 0.727308 0
M  V30 20505 H 1892.57 1.10068 1.60845 0
M  V30 20506 H 1891.67 0.620415 3.05871 0
M  V30 20507 N 1891.97 -1.4484 0.62123 0
M  V30 20508 C 1892.9 -2.33374 -0.0766286 0
M  V30 20509 C 1893.88 -1.47631 -0.844932 0
M  V30 20510 O 1895.06 -1.76373 -0.81278 0
M  V30 20511 C 1892.19 -3.30552 -1.0655 0
M  V30 20512 C 1891.15 -4.26037 -0.409496 0
M  V30 20513 C 1890.47 -5.13007 -1.50757 0
M  V30 20514 C 1891.77 -5.17881 0.677994 0
M  V30 20515 H 1893.47 -2.91975 0.662658 0
M  V30 20516 H 1891.01 -1.40397 0.320117 0
M  V30 20517 H 1892.97 -3.91367 -1.56237 0
M  V30 20518 H 1891.69 -2.70139 -1.83555 0
M  V30 20519 H 1890.35 -3.66539 0.0666321 0
M  V30 20520 H 1890 -4.48954 -2.26825 0
M  V30 20521 H 1889.7 -5.777 -1.07407 0
M  V30 20522 H 1891.22 -5.76692 -2.00645 0
M  V30 20523 H 1892.64 -5.72689 0.264637 0
M  V30 20524 H 1891.03 -5.91124 1.03405 0
M  V30 20525 H 1892.1 -4.59488 1.54914 0
M  V30 20526 N 1893.45 -0.361184 -1.53405 0
M  V30 20527 C 1894.69 0.229881 -2.01191 0
M  V30 20528 C 1895.02 1.49133 -1.24858 0
M  V30 20529 O 1894.28 1.92911 -0.329218 0
M  V30 20530 C 1894.58 0.572109 -3.52791 0
M  V30 20531 C 1894.24 -0.594503 -4.46964 0
M  V30 20532 C 1892.9 -0.914615 -4.72428 0
M  V30 20533 C 1895.26 -1.3763 -5.027 0
M  V30 20534 C 1892.58 -2.01858 -5.50881 0
M  V30 20535 C 1894.94 -2.47064 -5.82359 0
M  V30 20536 C 1893.6 -2.79615 -6.06112 0
M  V30 20537 H 1892.87 0.0841196 -0.73621 0
M  V30 20538 H 1895.52 -0.49274 -1.85052 0
M  V30 20539 H 1893.82 1.37569 -3.66854 0
M  V30 20540 H 1895.52 1.04161 -3.87236 0
M  V30 20541 H 1892.11 -0.334965 -4.27289 0
M  V30 20542 H 1896.29 -1.14224 -4.82977 0
M  V30 20543 H 1891.55 -2.27481 -5.67505 0
M  V30 20544 H 1895.72 -3.08062 -6.24556 0
M  V30 20545 H 1893.35 -3.65282 -6.66688 0
M  V30 20546 N 1894.92 1.57341 -0.0902386 0
M  V30 20547 C 1896.15 1.98513 0.583126 0
M  V30 20548 C 1896.57 0.969208 1.62024 0
M  V30 20549 O 1895.92 -0.041815 1.82452 0
M  V30 20550 C 1895.98 3.39743 1.2352 0
M  V30 20551 O 1895.7 4.37444 0.239568 0
M  V30 20552 C 1897.2 3.9589 1.99463 0
M  V30 20553 H 1894.42 0.652446 0.156701 0
M  V30 20554 H 1896.96 2.03808 -0.168092 0
M  V30 20555 H 1895.12 3.35477 1.93738 0
M  V30 20556 H 1895.53 5.19677 0.709619 0
M  V30 20557 H 1897 4.96876 2.40454 0
M  V30 20558 H 1897.48 3.33441 2.85856 0
M  V30 20559 H 1898.09 4.03615 1.34072 0
M  V30 20560 N 1896.4 -0.183431 1.56529 0
M  V30 20561 C 1897.65 -0.903332 1.8157 0
M  V30 20562 C 1897.98 -1.82417 0.666167 0
M  V30 20563 O 1897.26 -1.91635 -0.332621 0
M  V30 20564 C 1897.54 -1.70949 3.16936 0
M  V30 20565 C 1897.39 -0.812595 4.42399 0
M  V30 20566 C 1898.71 -2.6797 3.49113 0
M  V30 20567 H 1895.83 -0.326961 0.660504 0
M  V30 20568 H 1898.47 -0.170115 1.89237 0
M  V30 20569 H 1896.62 -2.33458 3.10531 0
M  V30 20570 H 1898.29 -0.201313 4.60861 0
M  V30 20571 H 1896.54 -0.119949 4.33634 0
M  V30 20572 H 1897.21 -1.4119 5.33638 0
M  V30 20573 H 1899.68 -2.15591 3.55893 0
M  V30 20574 H 1898.56 -3.21451 4.44927 0
M  V30 20575 H 1898.82 -3.47584 2.73199 0
M  V30 20576 N 1897.88 -1.50992 -0.451564 0
M  V30 20577 C 1898.79 -1.74097 -1.5725 0
M  V30 20578 C 1899.81 -0.624663 -1.62401 0
M  V30 20579 O 1900.98 -0.90528 -1.79907 0
M  V30 20580 C 1898.05 -1.84808 -2.93338 0
M  V30 20581 C 1897.11 -3.08618 -2.98418 0
M  V30 20582 C 1896.34 -3.18808 -4.28015 0
M  V30 20583 O 1896.56 -2.35291 -5.1961 0
M  V30 20584 O 1895.5 -4.11685 -4.39089 0
M  V30 20585 H 1899.32 -2.69156 -1.40673 0
M  V30 20586 H 1896.91 -1.35322 -0.633105 0
M  V30 20587 H 1898.79 -1.9392 -3.7413 0
M  V30 20588 H 1897.47 -0.929344 -3.10072 0
M  V30 20589 H 1896.37 -3.04993 -2.16633 0
M  V30 20590 H 1897.71 -4.00133 -2.86625 0
M  V30 20591 N 1899.36 0.706069 -1.40899 0
M  V30 20592 C 1900.29 1.83004 -1.36327 0
M  V30 20593 C 1901.27 1.60934 -0.232136 0
M  V30 20594 O 1902.45 1.83822 -0.417348 0
M  V30 20595 C 1899.58 3.19508 -1.12395 0
M  V30 20596 C 1898.63 3.60387 -2.28086 0
M  V30 20597 S 1899.46 3.66403 -3.90524 0
M  V30 20598 C 1900.62 5.0565 -3.68874 0
M  V30 20599 H 1900.85 1.86603 -2.31445 0
M  V30 20600 H 1898.38 0.873772 -1.27297 0
M  V30 20601 H 1900.34 3.98315 -0.992725 0
M  V30 20602 H 1899 3.1353 -0.189145 0
M  V30 20603 H 1898.19 4.59526 -2.07008 0
M  V30 20604 H 1897.8 2.88861 -2.37561 0
M  V30 20605 H 1900.09 5.92847 -3.27931 0
M  V30 20606 H 1901.03 5.31767 -4.67578 0
M  V30 20607 H 1901.44 4.76693 -3.02364 0
M  V30 20608 N 1900.84 1.26553 0.939264 0
M  V30 20609 C 1902.09 1.11599 1.68014 0
M  V30 20610 C 1902.4 -0.339956 1.92623 0
M  V30 20611 O 1903.6 -0.610203 2.64554 0
M  V30 20612 C 1902.06 1.94913 3.02551 0
M  V30 20613 C 1901.67 3.45094 2.85682 0
M  V30 20614 C 1903.41 1.88574 3.80316 0
M  V30 20615 C 1901.32 4.20648 4.15703 0
M  V30 20616 H 1900.25 0.414037 0.630151 0
M  V30 20617 H 1902.9 1.50878 1.04441 0
M  V30 20618 H 1901.28 1.48469 3.67115 0
M  V30 20619 H 1902.46 3.99321 2.29956 0
M  V30 20620 H 1900.77 3.5269 2.21357 0
M  V30 20621 H 1903.37 2.42307 4.76646 0
M  V30 20622 H 1903.71 0.856867 4.07386 0
M  V30 20623 H 1904.24 2.32852 3.22529 0
M  V30 20624 H 1900.98 5.24013 3.93816 0
M  V30 20625 H 1900.5 3.71202 4.71136 0
M  V30 20626 H 1902.18 4.29199 4.84146 0
M  V30 20627 N 1902.31 -1.14411 1.08387 0
M  V30 20628 C 1903.24 -2.21619 0.735327 0
M  V30 20629 C 1904.23 -1.67744 -0.282132 0
M  V30 20630 O 1905.41 -1.936 -0.152547 0
M  V30 20631 C 1902.54 -3.47003 0.143628 0
M  V30 20632 C 1901.49 -4.13903 1.08941 0
M  V30 20633 C 1900.82 -5.33487 0.359941 0
M  V30 20634 C 1902.12 -4.62463 2.42746 0
M  V30 20635 H 1903.81 -2.51031 1.63168 0
M  V30 20636 H 1901.36 -1.20658 0.785981 0
M  V30 20637 H 1903.31 -4.21251 -0.112217 0
M  V30 20638 H 1902.04 -3.16955 -0.787856 0
M  V30 20639 H 1900.7 -3.4161 1.33035 0
M  V30 20640 H 1900.34 -4.99699 -0.57534 0
M  V30 20641 H 1900.04 -5.79192 0.990451 0
M  V30 20642 H 1901.57 -6.10497 0.112145 0
M  V30 20643 H 1902.98 -5.28185 2.22919 0
M  V30 20644 H 1901.38 -5.18869 3.01488 0
M  V30 20645 H 1902.45 -3.77542 3.04286 0
M  V30 20646 N 1903.79 -0.869509 -1.31443 0
M  V30 20647 C 1904.74 -0.323034 -2.28528 0
M  V30 20648 C 1905.71 0.578245 -1.5571 0
M  V30 20649 O 1906.89 0.509983 -1.83858 0
M  V30 20650 C 1904.03 0.469861 -3.41886 0
M  V30 20651 C 1903.15 -0.458883 -4.29556 0
M  V30 20652 C 1902.28 0.348092 -5.30058 0
M  V30 20653 C 1901.32 -0.577109 -6.09373 0
M  V30 20654 N 1900.46 0.193589 -7.01833 0
M  V30 20655 H 1905.3 -1.15614 -2.74659 0
M  V30 20656 H 1902.84 -0.581526 -1.35117 0
M  V30 20657 H 1904.79 0.945338 -4.06349 0
M  V30 20658 H 1903.42 1.26767 -2.96867 0
M  V30 20659 H 1902.48 -1.05281 -3.65541 0
M  V30 20660 H 1903.79 -1.16833 -4.84924 0
M  V30 20661 H 1902.94 0.886098 -6.00194 0
M  V30 20662 H 1901.68 1.09083 -4.75344 0
M  V30 20663 H 1900.69 -1.12687 -5.38128 0
M  V30 20664 H 1901.91 -1.31869 -6.66174 0
M  V30 20665 H 1899.86 0.919147 -6.49529 0
M  V30 20666 H 1899.77 -0.456525 -7.5462 0
M  V30 20667 H 1901.04 0.71284 -7.76234 0
M  V30 20668 N 1905.27 1.44508 -0.628902 0
M  V30 20669 C 1906.2 2.33412 0.0642512 0
M  V30 20670 C 1907.18 1.48077 0.837091 0
M  V30 20671 O 1908.37 1.76802 0.803415 0
M  V30 20672 C 1905.5 3.31112 1.04795 0
M  V30 20673 C 1904.45 4.26248 0.386897 0
M  V30 20674 C 1903.78 5.13799 1.48035 0
M  V30 20675 C 1905.08 5.17514 -0.705449 0
M  V30 20676 H 1906.77 2.91619 -0.678133 0
M  V30 20677 H 1904.32 1.40225 -0.327558 0
M  V30 20678 H 1906.27 3.9219 1.54159 0
M  V30 20679 H 1904.99 2.71109 1.8212 0
M  V30 20680 H 1903.65 3.66499 -0.0860697 0
M  V30 20681 H 1903.3 4.5015 2.24441 0
M  V30 20682 H 1903 5.78262 1.04342 0
M  V30 20683 H 1904.52 5.77748 1.97583 0
M  V30 20684 H 1905.94 5.7254 -0.295004 0
M  V30 20685 H 1904.34 5.90567 -1.06538 0
M  V30 20686 H 1905.41 4.5866 -1.57349 0
M  V30 20687 N 1906.75 0.369315 1.53212 0
M  V30 20688 C 1908 -0.220348 2.00493 0
M  V30 20689 C 1908.31 -1.49561 1.26059 0
M  V30 20690 O 1909.52 -2.1641 1.63947 0
M  V30 20691 C 1907.97 -0.443218 3.5716 0
M  V30 20692 C 1907.58 0.817634 4.40476 0
M  V30 20693 C 1909.33 -0.990333 4.12786 0
M  V30 20694 C 1907.23 0.564143 5.88703 0
M  V30 20695 H 1906.16 -0.0861173 0.749066 0
M  V30 20696 H 1908.81 0.488632 1.76875 0
M  V30 20697 H 1907.2 -1.21355 3.76947 0
M  V30 20698 H 1908.37 1.59105 4.32461 0
M  V30 20699 H 1906.68 1.28824 3.95971 0
M  V30 20700 H 1909.28 -1.19537 5.21167 0
M  V30 20701 H 1909.62 -1.95357 3.67616 0
M  V30 20702 H 1910.16 -0.280073 3.96813 0
M  V30 20703 H 1906.9 1.49782 6.38158 0
M  V30 20704 H 1906.42 -0.170702 5.99557 0
M  V30 20705 H 1908.1 0.191072 6.46718 0
M  V30 20706 N 1908.23 -1.57291 0.0985816 0
M  V30 20707 C 1909.19 -2.1307 -0.844628 0
M  V30 20708 C 1910.19 -1.06076 -1.20849 0
M  V30 20709 O 1911.38 -1.31947 -1.13735 0
M  V30 20710 C 1908.51 -2.65416 -2.13933 0
M  V30 20711 H 1909.71 -2.97729 -0.36023 0
M  V30 20712 H 1907.26 -1.55574 -0.150451 0
M  V30 20713 H 1907.99 -1.84287 -2.6685 0
M  V30 20714 H 1907.78 -3.43647 -1.88811 0
M  V30 20715 H 1909.27 -3.08551 -2.814 0
M  V30 20716 N 1909.71 0.175127 -1.56624 0
M  V30 20717 C 1910.95 0.892368 -1.81777 0
M  V30 20718 C 1911.28 1.8241 -0.675051 0
M  V30 20719 O 1910.54 1.9276 0.337944 0
M  V30 20720 C 1910.83 1.72397 -3.13072 0
M  V30 20721 C 1910.5 0.941494 -4.40961 0
M  V30 20722 C 1909.16 0.725524 -4.75699 0
M  V30 20723 C 1911.51 0.392358 -5.19721 0
M  V30 20724 C 1908.84 -0.0507428 -5.86678 0
M  V30 20725 C 1911.19 -0.370801 -6.31512 0
M  V30 20726 C 1909.86 -0.597606 -6.64819 0
M  V30 20727 H 1909.13 0.326541 -0.665171 0
M  V30 20728 H 1911.78 0.157524 -1.90851 0
M  V30 20729 H 1910.08 2.52809 -2.99324 0
M  V30 20730 H 1911.78 2.28189 -3.29743 0
M  V30 20731 H 1908.37 1.11986 -4.13711 0
M  V30 20732 H 1912.55 0.546561 -4.93281 0
M  V30 20733 H 1907.81 -0.236241 -6.10943 0
M  V30 20734 H 1911.98 -0.803585 -6.91748 0
M  V30 20735 H 1909.61 -1.201 -7.50653 0
M  V30 20736 N 1911.18 1.5123 0.44355 0
M  V30 20737 C 1912.13 1.72095 1.53792 0
M  V30 20738 C 1913.1 0.562529 1.56284 0
M  V30 20739 O 1914.29 0.796259 1.73391 0
M  V30 20740 C 1911.43 1.84627 2.9156 0
M  V30 20741 C 1910.54 3.12147 2.98644 0
M  V30 20742 C 1909.67 3.1531 4.27496 0
M  V30 20743 C 1908.71 4.37171 4.28425 0
M  V30 20744 N 1907.85 4.37919 5.48791 0
M  V30 20745 H 1912.69 2.65512 1.35304 0
M  V30 20746 H 1910.23 1.31593 0.657387 0
M  V30 20747 H 1912.18 1.89874 3.71488 0
M  V30 20748 H 1910.81 0.946232 3.0862 0
M  V30 20749 H 1909.87 3.16239 2.11417 0
M  V30 20750 H 1911.18 4.02074 2.95192 0
M  V30 20751 H 1910.33 3.19439 5.15794 0
M  V30 20752 H 1909.07 2.23261 4.33596 0
M  V30 20753 H 1908.08 4.33225 3.38521 0
M  V30 20754 H 1909.3 5.30477 4.23994 0
M  V30 20755 H 1907.25 3.48737 5.55624 0
M  V30 20756 H 1907.16 5.21647 5.47193 0
M  V30 20757 H 1908.43 4.46232 6.39138 0
M  V30 20758 N 1912.66 -0.698586 1.41271 0
M  V30 20759 C 1914.07 -1.2784 1.36066 0
M  V30 20760 C 1914.42 -1.96154 0.0422934 0
M  V30 20761 O 1913.55 -1.98599 -0.859498 0
M  V30 20762 C 1914.14 -2.32481 2.46451 0
M  V30 20763 C 1912.7 -2.86046 2.44652 0
M  V30 20764 C 1911.85 -1.60045 2.26453 0
M  V30 20765 H 1914.8 -0.493547 1.5083 0
M  V30 20766 H 1914.82 -3.13705 2.15335 0
M  V30 20767 H 1914.33 -1.82732 3.4239 0
M  V30 20768 H 1912.43 -3.3998 1.52461 0
M  V30 20769 H 1912.55 -3.36682 3.40855 0
M  V30 20770 H 1910.91 -1.85742 1.74275 0
M  V30 20771 H 1911.69 -1.12295 3.24414 0
M  V30 20772 N 1914.14 -1.27049 -0.93254 0
M  V30 20773 C 1915.09 -1.09356 -2.03249 0
M  V30 20774 C 1916.06 0.00396271 -1.661 0
M  V30 20775 O 1917.24 -0.157449 -1.90149 0
M  V30 20776 C 1914.38 -0.741704 -3.37035 0
M  V30 20777 C 1913.49 -1.91636 -3.87169 0
M  V30 20778 C 1912.63 -1.50683 -5.0938 0
M  V30 20779 C 1911.67 -2.64927 -5.51797 0
M  V30 20780 N 1910.81 -2.24595 -6.65208 0
M  V30 20781 H 1915.65 -2.0348 -2.17715 0
M  V30 20782 H 1913.18 -1.01299 -1.06662 0
M  V30 20783 H 1915.14 -0.518546 -4.13965 0
M  V30 20784 H 1913.77 0.162576 -3.2239 0
M  V30 20785 H 1912.82 -2.2522 -3.06562 0
M  V30 20786 H 1914.13 -2.77353 -4.1458 0
M  V30 20787 H 1913.29 -1.24463 -5.93796 0
M  V30 20788 H 1912.03 -0.620687 -4.83734 0
M  V30 20789 H 1911.03 -2.91866 -4.65933 0
M  V30 20790 H 1912.26 -3.54154 -5.79441 0
M  V30 20791 H 1910.2 -1.38427 -6.41229 0
M  V30 20792 H 1910.12 -3.03853 -6.9225 0
M  V30 20793 H 1911.39 -2.0161 -7.52977 0
M  V30 20794 N 1915.62 1.13835 -1.08993 0
M  V30 20795 C 1916.87 1.84645 -0.82163 0
M  V30 20796 C 1917.19 1.83685 0.65458 0
M  V30 20797 O 1916.46 1.28948 1.47477 0
M  V30 20798 H 1915.04 0.683691 -0.300958 0
M  V30 20799 H 1917.7 1.37915 -1.37715 0
M  V30 20800 H 1916.79 2.89292 -1.17117 0
M  V30 20801 N 1917.1 0.876467 1.3098 0
M  V30 20802 C 1918.33 0.504582 2.00344 0
M  V30 20803 C 1918.73 -0.909186 1.65923 0
M  V30 20804 O 1918.08 -1.60812 0.887988 0
M  V30 20805 C 1918.14 0.589519 3.54634 0
M  V30 20806 C 1917.8 1.96607 4.12547 0
M  V30 20807 C 1918.8 2.9344 4.29172 0
M  V30 20808 C 1916.48 2.26914 4.48124 0
M  V30 20809 C 1918.48 4.18721 4.80574 0
M  V30 20810 C 1916.17 3.52443 4.99227 0
M  V30 20811 C 1917.16 4.48161 5.15403 0
M  V30 20812 O 1916.85 5.71464 5.65406 0
M  V30 20813 H 1916.58 0.194422 0.647438 0
M  V30 20814 H 1919.14 1.18126 1.68034 0
M  V30 20815 H 1917.37 -0.144102 3.86431 0
M  V30 20816 H 1919.06 0.230131 4.05247 0
M  V30 20817 H 1919.82 2.71335 4.01998 0
M  V30 20818 H 1915.7 1.53184 4.34805 0
M  V30 20819 H 1919.25 4.9344 4.93115 0
M  V30 20820 H 1915.14 3.74389 5.25836 0
M  V30 20821 H 1915.91 5.73727 5.83764 0
M  V30 20822 N 1918.57 -1.44173 0.636557 0
M  V30 20823 C 1919.82 -2.01993 0.143216 0
M  V30 20824 C 1920.15 -1.50104 -1.23689 0
M  V30 20825 O 1919.4 -0.677627 -1.83594 0
M  V30 20826 C 1919.7 -3.57299 0.0849933 0
M  V30 20827 C 1919.37 -4.28464 1.40461 0
M  V30 20828 C 1918.03 -4.47622 1.76601 0
M  V30 20829 C 1920.38 -4.68908 2.27541 0
M  V30 20830 C 1917.71 -5.04485 2.99519 0
M  V30 20831 C 1920.06 -5.27133 3.49734 0
M  V30 20832 C 1918.73 -5.44509 3.86091 0
M  V30 20833 H 1918 -0.739144 0.0524066 0
M  V30 20834 H 1920.64 -1.72868 0.823952 0
M  V30 20835 H 1918.95 -3.85869 -0.679134 0
M  V30 20836 H 1920.65 -3.99774 -0.31333 0
M  V30 20837 H 1917.24 -4.13886 1.11337 0
M  V30 20838 H 1921.42 -4.53815 2.00913 0
M  V30 20839 H 1916.68 -5.16125 3.27758 0
M  V30 20840 H 1920.85 -5.5742 4.1744 0
M  V30 20841 H 1918.48 -5.88336 4.81419 0
M  V30 20842 N 1920.05 -0.377435 -1.53014 0
M  V30 20843 C 1921.28 0.211512 -2.06319 0
M  V30 20844 C 1921.7 1.40713 -1.24825 0
M  V30 20845 O 1921.06 1.79274 -0.270279 0
M  V30 20846 C 1921.11 0.571512 -3.56042 0
M  V30 20847 O 1920.21 1.66713 -3.77201 0
M  V30 20848 H 1919.55 0.0279862 -0.66341 0
M  V30 20849 H 1922.08 -0.541471 -1.97305 0
M  V30 20850 H 1922.09 0.839182 -3.99277 0
M  V30 20851 H 1920.77 -0.302672 -4.14797 0
M  V30 20852 H 1919.34 1.3941 -3.4586 0
M  V30 20853 N 1921.53 1.57237 -0.106922 0
M  V30 20854 C 1922.81 1.8627 0.596889 0
M  V30 20855 C 1923.19 1.00593 1.85591 0
M  V30 20856 O 1922.54 0.0815394 2.28354 0
M  V30 20857 C 1922.75 3.37171 0.900934 0
M  V30 20858 C 1924.09 4.05497 1.25926 0
M  V30 20859 O 1925.12 3.4212 0.99158 0
M  V30 20860 O 1923.98 5.17347 1.76109 0
M  V30 20861 H 1921.07 0.770704 0.299907 0
M  V30 20862 H 1923.62 1.69117 -0.140513 0
M  V30 20863 H 1922.39 3.91299 0.00823337 0
M  V30 20864 H 1922.01 3.59712 1.69391 0
M  V30 20865 N 1923.01 -0.166818 1.56715 0
M  V30 20866 C 1924.42 -0.728845 1.71886 0
M  V30 20867 C 1924.77 -1.82584 0.718168 0
M  V30 20868 O 1923.9 -2.1607 -0.119503 0
M  V30 20869 C 1924.49 -1.32885 3.11652 0
M  V30 20870 C 1923.05 -1.83766 3.28492 0
M  V30 20871 C 1922.2 -0.718371 2.67833 0
M  V30 20872 H 1925.15 0.0586298 1.58592 0
M  V30 20873 H 1925.17 -2.19858 3.10552 0
M  V30 20874 H 1924.68 -0.530219 3.84461 0
M  V30 20875 H 1922.78 -2.66259 2.60647 0
M  V30 20876 H 1922.89 -1.98 4.36271 0
M  V30 20877 H 1921.26 -1.13996 2.27765 0
M  V30 20878 H 1922.04 0.0684914 3.43232 0
M  V30 20879 N 1924.49 -1.51463 -0.435524 0
M  V30 20880 C 1925.73 -1.65426 -1.18347 0
M  V30 20881 C 1926.09 -0.366774 -1.88872 0
M  V30 20882 O 1925.38 0.637507 -1.80683 0
M  V30 20883 C 1925.57 -2.79695 -2.22498 0
M  V30 20884 C 1925.4 -4.19431 -1.62196 0
M  V30 20885 C 1924.17 -4.85342 -1.40609 0
M  V30 20886 C 1926.37 -5.0246 -1.0972 0
M  V30 20887 N 1924.35 -6.09187 -0.759235 0
M  V30 20888 C 1925.72 -6.17321 -0.575716 0
M  V30 20889 C 1927.78 -4.87976 -0.989133 0
M  V30 20890 C 1926.48 -7.19287 0.0432192 0
M  V30 20891 C 1928.51 -5.90151 -0.384089 0
M  V30 20892 C 1927.87 -7.04286 0.126845 0
M  V30 20893 H 1923.97 -0.659213 -0.420669 0
M  V30 20894 H 1926.55 -1.88696 -0.479793 0
M  V30 20895 H 1924.72 -2.58086 -2.90252 0
M  V30 20896 H 1926.46 -2.82829 -2.89464 0
M  V30 20897 H 1923.21 -4.43242 -1.66833 0
M  V30 20898 H 1923.64 -6.75481 -0.453193 0
M  V30 20899 H 1928.28 -3.99988 -1.37002 0
M  V30 20900 H 1926 -8.06922 0.436231 0
M  V30 20901 H 1929.58 -5.81014 -0.30235 0
M  V30 20902 H 1928.46 -7.81995 0.587666 0
M  V30 20903 N 1925.96 0.691085 -1.4164 0
M  V30 20904 C 1926.91 1.82625 -1.44051 0
M  V30 20905 C 1927.91 1.66388 -0.318032 0
M  V30 20906 O 1929.11 1.73194 -0.490276 0
M  V30 20907 H 1925.49 0.601889 -0.450815 0
M  V30 20908 H 1927.46 1.77709 -2.39713 0
M  V30 20909 C 1926.21 3.20676 -1.34395 0
M  V30 20910 H 1925.53 3.3379 -2.20056 0
M  V30 20911 H 1926.97 4.0017 -1.40143 0
M  V30 20912 C 1925.43 3.36852 -0.0568027 0
M  V30 20913 O 1925.96 3.91562 0.896762 0
M  V30 20914 N 1924.17 2.90593 0.0207452 0
M  V30 20915 H 1923.71 2.46257 -0.755995 0
M  V30 20916 H 1923.67 3.01794 0.88136 0
M  V30 20917 N 1927.44 1.27542 0.925789 0
M  V30 20918 C 1928.69 1.14161 1.67616 0
M  V30 20919 C 1929.02 -0.311471 1.91686 0
M  V30 20920 O 1928.3 -1.22766 1.5086 0
M  V30 20921 C 1928.58 1.92778 3.04152 0
M  V30 20922 C 1928.43 3.46081 2.87312 0
M  V30 20923 C 1929.75 1.73374 4.04511 0
M  V30 20924 H 1926.87 0.416091 0.608307 0
M  V30 20925 H 1929.51 1.56719 1.0742 0
M  V30 20926 H 1927.66 1.5661 3.55536 0
M  V30 20927 H 1929.33 3.92089 2.43031 0
M  V30 20928 H 1927.58 3.72324 2.22615 0
M  V30 20929 H 1928.25 3.96333 3.84219 0
M  V30 20930 H 1930.72 2.04914 3.62146 0
M  V30 20931 H 1929.6 2.30773 4.98031 0
M  V30 20932 H 1929.86 0.682154 4.36806 0
M  V30 20933 N 1928.92 -1.13255 1.09595 0
M  V30 20934 C 1930.17 -1.84571 0.833056 0
M  V30 20935 C 1930.5 -1.83622 -0.641341 0
M  V30 20936 O 1929.75 -1.27084 -1.48823 0
M  V30 20937 C 1930.05 -3.32304 1.31562 0
M  V30 20938 C 1929.72 -3.53433 2.79993 0
M  V30 20939 C 1928.38 -3.58907 3.2053 0
M  V30 20940 C 1930.73 -3.61259 3.75687 0
M  V30 20941 C 1928.06 -3.69744 4.55529 0
M  V30 20942 C 1930.41 -3.73624 5.10478 0
M  V30 20943 C 1929.07 -3.77352 5.50601 0
M  V30 20944 H 1928.34 -0.675393 0.304837 0
M  V30 20945 H 1930.99 -1.33697 1.37103 0
M  V30 20946 H 1929.3 -3.85542 0.697482 0
M  V30 20947 H 1930.99 -3.85935 1.0888 0
M  V30 20948 H 1927.58 -3.49828 2.47625 0
M  V30 20949 H 1931.77 -3.56308 3.45483 0
M  V30 20950 H 1927.02 -3.70897 4.8605 0
M  V30 20951 H 1931.2 -3.78623 5.84481 0
M  V30 20952 H 1928.82 -3.85501 6.55204 0
M  V30 20953 N 1930.4 -0.883401 -1.30514 0
M  V30 20954 C 1931.68 -0.421186 -1.91011 0
M  V30 20955 C 1932.06 1.09793 -1.80301 0
M  V30 20956 O 1931.4 1.93254 -1.21923 0
M  V30 20957 C 1931.61 -0.917533 -3.36723 0
M  V30 20958 C 1932.96 -0.951573 -4.138 0
M  V30 20959 O 1933.99 -0.86409 -3.4556 0
M  V30 20960 O 1932.84 -1.08053 -5.35711 0
M  V30 20961 H 1929.94 -0.128514 -0.816954 0
M  V30 20962 H 1932.48 -0.972198 -1.39091 0
M  V30 20963 H 1931.26 -1.96135 -3.38595 0
M  V30 20964 H 1930.88 -0.345595 -3.96095 0
M  V30 20965 N 1931.88 1.43833 -0.644194 0
M  V30 20966 C 1933.12 2.01914 -0.153927 0
M  V30 20967 C 1933.45 1.50758 1.22891 0
M  V30 20968 O 1932.71 0.687354 1.83232 0
M  V30 20969 C 1933.01 3.57249 -0.103941 0
M  V30 20970 C 1932.67 4.27713 -1.42731 0
M  V30 20971 C 1931.33 4.46679 -1.78972 0
M  V30 20972 C 1933.69 4.67695 -2.30024 0
M  V30 20973 C 1931.01 5.0289 -3.0219 0
M  V30 20974 C 1933.37 5.2527 -3.52525 0
M  V30 20975 C 1932.03 5.42453 -3.88974 0
M  V30 20976 H 1931.3 0.738856 -0.0563257 0
M  V30 20977 H 1933.95 1.72428 -0.833108 0
M  V30 20978 H 1932.25 3.86224 0.65866 0
M  V30 20979 H 1933.95 3.99935 0.292124 0
M  V30 20980 H 1930.54 4.1329 -1.1353 0
M  V30 20981 H 1934.72 4.52743 -2.03317 0
M  V30 20982 H 1929.98 5.14379 -3.3049 0
M  V30 20983 H 1934.15 5.55198 -4.2039 0
M  V30 20984 H 1931.78 5.85775 -4.84532 0
M  V30 20985 N 1933.35 0.385544 1.52811 0
M  V30 20986 C 1934.28 -0.442951 2.2926 0
M  V30 20987 C 1935.27 -1.06674 1.32494 0
M  V30 20988 O 1936.45 -1.08022 1.61384 0
M  V30 20989 C 1933.58 -1.57243 3.09664 0
M  V30 20990 C 1932.53 -1.07488 4.14283 0
M  V30 20991 C 1931.86 -2.29614 4.82889 0
M  V30 20992 C 1933.16 -0.145479 5.22097 0
M  V30 20993 H 1934.85 0.1949 2.98765 0
M  V30 20994 H 1932.4 0.0951762 1.43685 0
M  V30 20995 H 1934.35 -2.15882 3.61902 0
M  V30 20996 H 1933.08 -2.23781 2.37885 0
M  V30 20997 H 1931.74 -0.511047 3.6302 0
M  V30 20998 H 1931.38 -2.94653 4.07662 0
M  V30 20999 H 1931.08 -1.96985 5.53598 0
M  V30 21000 H 1932.61 -2.88902 5.37929 0
M  V30 21001 H 1934.02 -0.639941 5.69717 0
M  V30 21002 H 1932.42 0.0908687 6.00031 0
M  V30 21003 H 1933.49 0.806707 4.78142 0
M  V30 21004 N 1934.83 -1.57178 0.115259 0
M  V30 21005 C 1936.08 -1.94241 -0.54344 0
M  V30 21006 C 1936.39 -1.0006 -1.68069 0
M  V30 21007 O 1937.6 -1.26574 -2.4019 0
M  V30 21008 C 1936.06 -3.45199 -1.0181 0
M  V30 21009 C 1935.66 -4.47909 0.0904861 0
M  V30 21010 C 1937.41 -3.91188 -1.64839 0
M  V30 21011 C 1935.32 -5.90041 -0.400667 0
M  V30 21012 H 1934.25 -0.725092 -0.206778 0
M  V30 21013 H 1936.9 -1.82466 0.194509 0
M  V30 21014 H 1935.28 -3.52196 -1.81036 0
M  V30 21015 H 1936.45 -4.52577 0.866638 0
M  V30 21016 H 1934.77 -4.11649 0.627197 0
M  V30 21017 H 1937.36 -4.94792 -2.02694 0
M  V30 21018 H 1937.71 -3.30955 -2.52536 0
M  V30 21019 H 1938.24 -3.86977 -0.92161 0
M  V30 21020 H 1934.98 -6.54021 0.440159 0
M  V30 21021 H 1934.5 -5.88801 -1.14338 0
M  V30 21022 H 1936.18 -6.41217 -0.863111 0
M  V30 21023 N 1936.31 0.158505 -1.56801 0
M  V30 21024 C 1937.56 0.874331 -1.82984 0
M  V30 21025 C 1937.89 1.81334 -0.695103 0
M  V30 21026 O 1937.17 1.9214 0.302091 0
M  V30 21027 C 1937.45 1.65886 -3.19615 0
M  V30 21028 C 1937.3 0.74211 -4.43636 0
M  V30 21029 C 1938.62 2.62382 -3.53332 0
M  V30 21030 H 1935.74 0.316412 -0.665622 0
M  V30 21031 H 1938.38 0.139988 -1.89484 0
M  V30 21032 H 1936.53 2.28488 -3.14206 0
M  V30 21033 H 1938.2 0.127969 -4.61122 0
M  V30 21034 H 1936.45 0.0509465 -4.3377 0
M  V30 21035 H 1937.12 1.32683 -5.35816 0
M  V30 21036 H 1939.59 2.09902 -3.59278 0
M  V30 21037 H 1938.47 3.14332 -4.49985 0
M  V30 21038 H 1938.73 3.43194 -2.78694 0
M  V30 21039 N 1937.79 1.51692 0.427485 0
M  V30 21040 C 1939.04 1.64079 1.17308 0
M  V30 21041 C 1939.35 0.367695 1.92113 0
M  V30 21042 O 1940.56 0.371083 2.68952 0
M  V30 21043 C 1939.01 2.89812 2.13394 0
M  V30 21044 C 1938.62 4.24161 1.44191 0
M  V30 21045 C 1940.37 3.11559 2.88325 0
M  V30 21046 C 1938.27 5.41036 2.38819 0
M  V30 21047 H 1937.2 0.611162 0.441584 0
M  V30 21048 H 1939.85 1.78167 0.439193 0
M  V30 21049 H 1938.24 2.6938 2.90259 0
M  V30 21050 H 1939.41 4.5501 0.72817 0
M  V30 21051 H 1937.72 4.08371 0.813739 0
M  V30 21052 H 1940.32 3.96051 3.59232 0
M  V30 21053 H 1940.66 2.25037 3.50234 0
M  V30 21054 H 1941.2 3.32376 2.18565 0
M  V30 21055 H 1937.94 6.29847 1.81585 0
M  V30 21056 H 1937.46 5.1455 3.08218 0
M  V30 21057 H 1939.14 5.73381 2.9974 0
M  V30 21058 N 1939.27 -0.683564 1.42004 0
M  V30 21059 C 1940.52 -1.44078 1.41725 0
M  V30 21060 C 1940.84 -1.94975 0.0315193 0
M  V30 21061 O 1940.11 -1.72494 -0.928579 0
M  V30 21062 H 1938.69 -0.534631 0.521707 0
M  V30 21063 H 1941.35 -0.808284 1.77349 0
M  V30 21064 H 1940.44 -2.29809 2.11174 0
M  V30 21065 N 1940.75 -1.28031 -0.919012 0
M  V30 21066 C 1941.97 -1.17828 -1.70679 0
M  V30 21067 C 1942.4 0.260207 -1.86292 0
M  V30 21068 O 1941.75 1.18833 -1.36925 0
M  V30 21069 C 1941.8 -1.87626 -3.07943 0
M  V30 21070 O 1940.91 -1.18014 -3.95154 0
M  V30 21071 H 1940.25 -0.40932 -0.522832 0
M  V30 21072 H 1942.78 -1.69258 -1.14947 0
M  V30 21073 H 1942.79 -1.95327 -3.58206 0
M  V30 21074 H 1941.46 -2.92263 -2.95897 0
M  V30 21075 H 1940.04 -1.18441 -3.5359 0
M  V30 21076 N 1942.22 1.12672 -1.10194 0
M  V30 21077 C 1943.47 1.83483 -0.837668 0
M  V30 21078 C 1943.79 1.84873 0.638864 0
M  V30 21079 O 1944.99 2.51654 1.01895 0
M  V30 21080 C 1943.45 3.29455 -1.4487 0
M  V30 21081 C 1943.06 3.36431 -2.95834 0
M  V30 21082 C 1944.8 4.05254 -1.26371 0
M  V30 21083 C 1942.71 4.76723 -3.49984 0
M  V30 21084 H 1941.64 0.687458 -0.309706 0
M  V30 21085 H 1944.29 1.26884 -1.32562 0
M  V30 21086 H 1942.67 3.85905 -0.88843 0
M  V30 21087 H 1943.84 2.89934 -3.58155 0
M  V30 21088 H 1942.16 2.74104 -3.13458 0
M  V30 21089 H 1944.76 5.0884 -1.64274 0
M  V30 21090 H 1945.1 4.15795 -0.205058 0
M  V30 21091 H 1945.63 3.55155 -1.79192 0
M  V30 21092 H 1942.37 4.71376 -4.55505 0
M  V30 21093 H 1941.89 5.23684 -2.9243 0
M  V30 21094 H 1943.57 5.45659 -3.47657 0
M  V30 21095 N 1943.7 0.89031 1.30043 0
M  V30 21096 C 1944.95 0.507478 1.95212 0
M  V30 21097 C 1945.26 -0.949179 1.71026 0
M  V30 21098 O 1946.47 -1.4391 2.30222 0
M  V30 21099 C 1944.93 0.856657 3.49556 0
M  V30 21100 C 1944.53 2.33145 3.82554 0
M  V30 21101 C 1946.28 0.543281 4.21009 0
M  V30 21102 C 1944.18 2.62198 5.301 0
M  V30 21103 H 1943.11 0.186056 0.730684 0
M  V30 21104 H 1945.77 1.08602 1.47912 0
M  V30 21105 H 1944.15 0.207146 3.95458 0
M  V30 21106 H 1945.32 3.02572 3.47544 0
M  V30 21107 H 1943.64 2.61289 3.24217 0
M  V30 21108 H 1946.23 0.737312 5.29592 0
M  V30 21109 H 1946.58 -0.517644 4.13069 0
M  V30 21110 H 1947.11 1.15022 3.80808 0
M  V30 21111 H 1943.85 3.67052 5.43096 0
M  V30 21112 H 1943.37 1.97385 5.66392 0
M  V30 21113 H 1945.05 2.47975 5.97593 0
M  V30 21114 N 1945.18 -1.43489 0.651812 0
M  V30 21115 C 1946.46 -1.95371 0.0946135 0
M  V30 21116 C 1946.84 -1.59316 -1.38498 0
M  V30 21117 O 1946.18 -0.87757 -2.10976 0
M  V30 21118 C 1946.39 -3.47346 0.339353 0
M  V30 21119 C 1947.74 -4.23901 0.243543 0
M  V30 21120 O 1948.77 -3.55161 0.271836 0
M  V30 21121 O 1947.63 -5.46248 0.166055 0
M  V30 21122 H 1944.72 -0.826934 -0.0104284 0
M  V30 21123 H 1947.27 -1.53436 0.724952 0
M  V30 21124 H 1946.04 -3.66712 1.36522 0
M  V30 21125 H 1945.66 -3.96277 -0.324122 0
M  V30 21126 N 1946.66 -0.393643 -1.52605 0
M  V30 21127 C 1947.9 0.187431 -2.01932 0
M  V30 21128 C 1948.24 1.46098 -1.27942 0
M  V30 21129 O 1947.51 1.90729 -0.381154 0
M  V30 21130 C 1947.79 0.450933 -3.57265 0
M  V30 21131 C 1947.65 -0.838204 -4.41921 0
M  V30 21132 C 1948.97 1.23971 -4.22278 0
M  V30 21133 H 1946.09 0.0666471 -0.73398 0
M  V30 21134 H 1948.73 -0.524064 -1.8263 0
M  V30 21135 H 1946.88 1.05703 -3.73844 0
M  V30 21136 H 1948.55 -1.47492 -4.37086 0
M  V30 21137 H 1946.79 -1.45258 -4.08757 0
M  V30 21138 H 1947.46 -0.608424 -5.48637 0
M  V30 21139 H 1949.94 0.726733 -4.09705 0
M  V30 21140 H 1948.82 1.39283 -5.30935 0
M  V30 21141 H 1949.08 2.25611 -3.802 0
M  V30 21142 N 1948.14 1.57115 -0.123593 0
M  V30 21143 C 1949.38 1.94527 0.533131 0
M  V30 21144 C 1949.7 1.0095 1.67536 0
M  V30 21145 O 1950.9 1.27846 2.39515 0
M  V30 21146 C 1949.36 3.45735 0.999783 0
M  V30 21147 C 1948.97 4.47854 -0.114238 0
M  V30 21148 C 1950.71 3.92057 1.62762 0
M  V30 21149 C 1948.62 5.90245 0.36937 0
M  V30 21150 H 1947.55 0.726179 0.20293 0
M  V30 21151 H 1950.2 1.8236 -0.204183 0
M  V30 21152 H 1948.58 3.53151 1.79166 0
M  V30 21153 H 1949.76 4.52111 -0.890627 0
M  V30 21154 H 1948.07 4.11311 -0.649019 0
M  V30 21155 H 1950.67 4.9586 2.00067 0
M  V30 21156 H 1951.01 3.3229 2.50777 0
M  V30 21157 H 1951.54 3.8746 0.901074 0
M  V30 21158 H 1948.28 6.53778 -0.474837 0
M  V30 21159 H 1947.8 5.89399 1.11214 0
M  V30 21160 H 1949.48 6.41666 0.829093 0
M  V30 21161 N 1949.61 -0.150187 1.56883 0
M  V30 21162 C 1950.54 -1.18735 2.01058 0
M  V30 21163 C 1951.52 -1.44983 0.889606 0
M  V30 21164 O 1952.71 -1.55958 1.15719 0
M  V30 21165 C 1949.84 -2.52129 2.38848 0
M  V30 21166 C 1948.79 -2.40408 3.54101 0
M  V30 21167 C 1948.12 -3.78484 3.77695 0
M  V30 21168 C 1949.42 -1.89087 4.86871 0
M  V30 21169 H 1951.11 -0.820044 2.87951 0
M  V30 21170 H 1948.66 -0.393025 1.38533 0
M  V30 21171 H 1950.61 -3.24908 2.68352 0
M  V30 21172 H 1949.34 -2.90688 1.48889 0
M  V30 21173 H 1948 -1.70082 3.24758 0
M  V30 21174 H 1947.64 -4.14474 2.84992 0
M  V30 21175 H 1947.34 -3.71504 4.55256 0
M  V30 21176 H 1948.87 -4.52816 4.09621 0
M  V30 21177 H 1950.28 -2.51656 5.15114 0
M  V30 21178 H 1948.68 -1.93005 5.68216 0
M  V30 21179 H 1949.75 -0.846357 4.77457 0
M  V30 21180 N 1951.09 -1.51916 -0.419434 0
M  V30 21181 C 1952.32 -1.69592 -1.19387 0
M  V30 21182 C 1952.74 -0.400225 -1.83793 0
M  V30 21183 O 1952.1 0.641368 -1.69576 0
M  V30 21184 C 1952.15 -2.8256 -2.24036 0
M  V30 21185 O 1951.25 -2.4741 -3.29942 0
M  V30 21186 H 1950.59 -0.564898 -0.348978 0
M  V30 21187 H 1953.12 -1.9857 -0.493064 0
M  V30 21188 H 1953.13 -3.07171 -2.68533 0
M  V30 21189 H 1951.81 -3.76572 -1.7654 0
M  V30 21190 H 1950.39 -2.33435 -2.90796 0
M  V30 21191 N 1952.57 0.676023 -1.42365 0
M  V30 21192 C 1953.48 1.81906 -1.48147 0
M  V30 21193 C 1954.5 1.70014 -0.37032 0
M  V30 21194 O 1955.67 1.91586 -0.621036 0
M  V30 21195 C 1952.74 3.18039 -1.38029 0
M  V30 21196 C 1951.8 3.41897 -2.59625 0
M  V30 21197 C 1951.03 4.71536 -2.4998 0
M  V30 21198 O 1951.25 5.49358 -1.535 0
M  V30 21199 O 1950.19 4.9661 -3.40091 0
M  V30 21200 H 1954.01 1.79984 -2.44621 0
M  V30 21201 H 1951.6 0.831611 -1.24115 0
M  V30 21202 H 1953.48 3.99277 -1.34743 0
M  V30 21203 H 1952.16 3.20602 -0.446789 0
M  V30 21204 H 1951.06 2.60512 -2.68485 0
M  V30 21205 H 1952.4 3.44164 -3.51869 0
M  V30 21206 N 1954.05 1.28517 0.912209 0
M  V30 21207 C 1955.28 1.18615 1.69523 0
M  V30 21208 C 1955.69 -0.254997 1.8707 0
M  V30 21209 O 1955.05 -1.17217 1.3988 0
M  V30 21210 C 1955.1 1.88188 3.08655 0
M  V30 21211 O 1954.82 3.26673 2.91918 0
M  V30 21212 C 1956.32 1.84607 4.03032 0
M  V30 21213 H 1953.54 0.411679 0.529869 0
M  V30 21214 H 1956.09 1.69668 1.14162 0
M  V30 21215 H 1954.24 1.41001 3.60829 0
M  V30 21216 H 1954.65 3.61538 3.79987 0
M  V30 21217 H 1956.13 2.37874 4.98116 0
M  V30 21218 H 1956.61 0.818787 4.315 0
M  V30 21219 H 1957.21 2.3148 3.56787 0
M  V30 21220 N 1955.53 -1.12086 1.1079 0
M  V30 21221 C 1956.47 -2.20006 0.755001 0
M  V30 21222 C 1957.47 -1.67538 -0.250501 0
M  V30 21223 O 1958.67 -1.79661 -0.110486 0
M  V30 21224 H 1955.05 -0.717162 0.226237 0
M  V30 21225 H 1957.02 -2.47022 1.67399 0
M  V30 21226 C 1955.77 -3.47083 0.207038 0
M  V30 21227 H 1955.09 -3.87805 0.971991 0
M  V30 21228 H 1956.53 -4.24 -0.00177915 0
M  V30 21229 C 1954.99 -3.19753 -1.06112 0
M  V30 21230 O 1955.52 -3.39825 -2.142 0
M  V30 21231 N 1953.73 -2.73534 -0.981212 0
M  V30 21232 H 1953.27 -2.574 -0.101519 0
M  V30 21233 H 1953.23 -2.55624 -1.83041 0
M  V30 21234 N 1957 -0.897194 -1.29569 0
M  V30 21235 C 1957.95 -0.344408 -2.25384 0
M  V30 21236 C 1958.94 0.534097 -1.51777 0
M  V30 21237 O 1960.13 0.376524 -1.72949 0
M  V30 21238 C 1957.26 0.429246 -3.40606 0
M  V30 21239 C 1956.35 -0.464038 -4.21554 0
M  V30 21240 N 1956.74 -1.57011 -4.80813 0
M  V30 21241 C 1955.03 -0.26137 -4.45233 0
M  V30 21242 C 1955.74 -2.12323 -5.41566 0
M  V30 21243 N 1954.71 -1.41659 -5.24818 0
M  V30 21244 H 1958.51 -1.18938 -2.68758 0
M  V30 21245 H 1956.03 -0.747965 -1.4415 0
M  V30 21246 H 1958.02 0.84199 -4.08309 0
M  V30 21247 H 1956.68 1.27151 -2.98769 0
M  V30 21248 H 1957.7 -1.95287 -4.7967 0
M  V30 21249 H 1954.37 0.542726 -4.13957 0
M  V30 21250 H 1955.76 -3.05274 -5.98546 0
M  V30 21251 N 1958.48 1.43142 -0.659413 0
M  V30 21252 C 1959.71 2.05788 -0.183 0
M  V30 21253 C 1960.12 1.49547 1.15898 0
M  V30 21254 O 1959.46 0.623841 1.72783 0
M  V30 21255 C 1959.53 3.59492 -0.0240613 0
M  V30 21256 C 1959.19 4.38347 -1.29231 0
M  V30 21257 C 1960.19 4.70005 -2.22242 0
M  V30 21258 C 1957.87 4.78251 -1.53562 0
M  V30 21259 C 1959.87 5.40482 -3.37872 0
M  V30 21260 C 1957.55 5.48472 -2.69484 0
M  V30 21261 C 1958.55 5.79511 -3.61464 0
M  V30 21262 O 1958.24 6.48295 -4.75361 0
M  V30 21263 H 1957.97 0.669968 -0.0901075 0
M  V30 21264 H 1960.52 1.84531 -0.902089 0
M  V30 21265 H 1958.75 3.79348 0.75046 0
M  V30 21266 H 1960.44 4.03819 0.410502 0
M  V30 21267 H 1961.21 4.3969 -2.04689 0
M  V30 21268 H 1957.09 4.53495 -0.828469 0
M  V30 21269 H 1960.63 5.64627 -4.09686 0
M  V30 21270 H 1956.53 5.78203 -2.86969 0
M  V30 21271 H 1957.3 6.66781 -4.74706 0
M  V30 21272 N 1959.96 0.40173 1.52394 0
M  V30 21273 C 1961.21 -0.176458 2.0173 0
M  V30 21274 C 1961.54 -1.45771 1.28768 0
M  V30 21275 O 1960.79 -1.9197 0.380249 0
M  V30 21276 C 1961.09 -0.478372 3.54184 0
M  V30 21277 C 1960.76 0.712798 4.4523 0
M  V30 21278 C 1959.42 1.03955 4.69837 0
M  V30 21279 C 1961.77 1.5091 4.98874 0
M  V30 21280 C 1959.1 2.16392 5.45336 0
M  V30 21281 C 1961.45 2.62418 5.75604 0
M  V30 21282 C 1960.11 2.95587 5.98485 0
M  V30 21283 H 1959.38 -0.0645707 0.738181 0
M  V30 21284 H 1962.03 0.541631 1.83681 0
M  V30 21285 H 1960.34 -1.27794 3.70373 0
M  V30 21286 H 1962.03 -0.938577 3.89861 0
M  V30 21287 H 1958.62 0.448135 4.26251 0
M  V30 21288 H 1962.81 1.26989 4.79779 0
M  V30 21289 H 1958.06 2.42447 5.61275 0
M  V30 21290 H 1962.24 3.24513 6.16169 0
M  V30 21291 H 1959.86 3.82829 6.56769 0
M  V30 21292 N 1961.44 -1.57047 0.131923 0
M  V30 21293 C 1962.68 -1.9752 -0.525856 0
M  V30 21294 C 1963.04 -1.01434 -1.63019 0
M  V30 21295 O 1964.24 -1.30894 -2.34777 0
M  V30 21296 C 1962.51 -3.42148 -1.03293 0
M  V30 21297 S 1964.07 -4.04639 -1.69742 0
M  V30 21298 H 1960.89 -0.690249 -0.170522 0
M  V30 21299 H 1963.49 -1.94257 0.220068 0
M  V30 21300 H 1962.2 -4.09819 -0.218206 0
M  V30 21301 H 1961.73 -3.4909 -1.81383 0
M  V30 21302 H 1963.74 -3.96455 -2.98392 0
M  V30 21303 N 1962.92 0.141865 -1.5696 0
M  V30 21304 C 1964.19 0.882597 -1.74555 0
M  V30 21305 C 1964.57 1.9911 -0.701321 0
M  V30 21306 O 1963.92 2.26792 0.278854 0
M  V30 21307 C 1964.13 1.42034 -3.18791 0
M  V30 21308 C 1965.48 1.88172 -3.80626 0
M  V30 21309 O 1966.5 1.51764 -3.22252 0
M  V30 21310 O 1965.36 2.55333 -4.83185 0
M  V30 21311 H 1962.46 0.417461 -0.713902 0
M  V30 21312 H 1965 0.127389 -1.69221 0
M  V30 21313 H 1963.77 0.623945 -3.86293 0
M  V30 21314 H 1963.4 2.2389 -3.28571 0
M  V30 21315 N 1964.39 1.52136 0.411372 0
M  V30 21316 C 1965.36 1.74698 1.48369 0
M  V30 21317 C 1966.36 0.616863 1.48497 0
M  V30 21318 O 1967.55 0.884716 1.50061 0
M  V30 21319 C 1964.68 1.82729 2.8779 0
M  V30 21320 H 1965.87 2.70424 1.29658 0
M  V30 21321 H 1963.43 1.42519 0.641725 0
M  V30 21322 H 1964.16 0.889096 3.11874 0
M  V30 21323 H 1963.95 2.64884 2.891 0
M  V30 21324 H 1965.44 2.01934 3.6553 0
M  V30 21325 N 1965.87 -0.668464 1.42721 0
M  V30 21326 C 1967.12 -1.42906 1.44739 0
M  V30 21327 C 1967.47 -1.9229 0.0649631 0
M  V30 21328 O 1966.77 -1.68399 -0.913917 0
M  V30 21329 C 1966.96 -2.63743 2.41194 0
M  V30 21330 C 1966.79 -2.26183 3.88679 0
M  V30 21331 C 1965.56 -2.15239 4.57166 0
M  V30 21332 C 1967.76 -1.87429 4.78931 0
M  V30 21333 N 1965.74 -1.70849 5.89647 0
M  V30 21334 C 1967.11 -1.54006 6.00568 0
M  V30 21335 C 1969.17 -1.74477 4.66328 0
M  V30 21336 C 1967.87 -1.08931 7.11004 0
M  V30 21337 C 1969.9 -1.30806 5.76753 0
M  V30 21338 C 1969.26 -0.983118 6.97506 0
M  V30 21339 H 1965.36 -0.519172 0.584795 0
M  V30 21340 H 1967.94 -0.770777 1.78793 0
M  V30 21341 H 1966.11 -3.27252 2.09191 0
M  V30 21342 H 1967.84 -3.30368 2.3375 0
M  V30 21343 H 1964.6 -2.3451 4.11463 0
M  V30 21344 H 1965.02 -1.5106 6.59932 0
M  V30 21345 H 1969.66 -1.98244 3.73443 0
M  V30 21346 H 1967.38 -0.839113 8.03732 0
M  V30 21347 H 1970.97 -1.21296 5.69015 0
M  V30 21348 H 1969.85 -0.650337 7.81499 0
M  V30 21349 N 1967.35 -1.28999 -0.905381 0
M  V30 21350 C 1968.3 -1.13515 -2.0302 0
M  V30 21351 C 1969.29 -0.0522132 -1.6932 0
M  V30 21352 O 1970.5 -0.211599 -1.78752 0
M  V30 21353 H 1966.87 -0.350474 -0.665336 0
M  V30 21354 H 1968.85 -2.08758 -2.13219 0
M  V30 21355 C 1967.59 -0.822531 -3.37831 0
M  V30 21356 H 1966.92 -1.64783 -3.64262 0
M  V30 21357 H 1968.36 -0.754193 -4.17238 0
M  V30 21358 C 1966.82 0.474033 -3.33548 0
M  V30 21359 O 1967.35 1.50182 -3.7257 0
M  V30 21360 N 1965.55 0.477812 -2.86645 0
M  V30 21361 H 1965.1 -0.359023 -2.55086 0
M  V30 21362 H 1965.06 1.34533 -2.84162 0
M  V30 21363 N 1968.83 1.11497 -1.11383 0
M  V30 21364 C 1970.06 1.87027 -0.884793 0
M  V30 21365 C 1970.47 1.80136 0.565362 0
M  V30 21366 O 1969.83 1.18222 1.39032 0
M  V30 21367 C 1969.88 3.35862 -1.33713 0
M  V30 21368 O 1969.6 3.42606 -2.73043 0
M  V30 21369 C 1971.1 4.283 -1.14342 0
M  V30 21370 H 1968.32 0.591449 -0.316905 0
M  V30 21371 H 1970.87 1.4102 -1.481 0
M  V30 21372 H 1969.02 3.79376 -0.784385 0
M  V30 21373 H 1969.44 4.35278 -2.92632 0
M  V30 21374 H 1970.91 5.30975 -1.50894 0
M  V30 21375 H 1971.39 4.39122 -0.0829321 0
M  V30 21376 H 1971.99 3.90578 -1.68312 0
M  V30 21377 N 1970.31 0.904053 1.29092 0
M  V30 21378 C 1971.55 0.532203 1.95381 0
M  V30 21379 C 1971.88 -0.922327 1.71241 0
M  V30 21380 O 1971.14 -1.66968 1.02079 0
M  V30 21381 C 1971.44 0.776255 3.48868 0
M  V30 21382 C 1971.1 2.20882 3.93093 0
M  V30 21383 C 1969.76 2.60052 4.04878 0
M  V30 21384 C 1972.12 3.14152 4.15882 0
M  V30 21385 C 1969.44 3.91663 4.36826 0
M  V30 21386 C 1971.8 4.45317 4.49306 0
M  V30 21387 C 1970.46 4.84354 4.59301 0
M  V30 21388 H 1969.73 0.194747 0.714951 0
M  V30 21389 H 1972.38 1.14354 1.53608 0
M  V30 21390 H 1970.68 0.0820369 3.91714 0
M  V30 21391 H 1972.38 0.467861 3.98261 0
M  V30 21392 H 1968.97 1.89485 3.84439 0
M  V30 21393 H 1973.15 2.85103 4.06239 0
M  V30 21394 H 1968.41 4.21623 4.42769 0
M  V30 21395 H 1972.58 5.17611 4.65888 0
M  V30 21396 H 1970.21 5.86371 4.83811 0
M  V30 21397 N 1971.79 -1.4279 0.666995 0
M  V30 21398 C 1973.06 -1.9526 0.11533 0
M  V30 21399 C 1973.44 -1.60776 -1.36801 0
M  V30 21400 O 1972.79 -0.899897 -2.10034 0
M  V30 21401 C 1973 -3.46967 0.376175 0
M  V30 21402 C 1974.35 -4.23619 0.28849 0
M  V30 21403 O 1975.37 -3.54853 0.30949 0
M  V30 21404 O 1974.23 -5.46041 0.223982 0
M  V30 21405 H 1971.33 -0.826998 -0.00165705 0
M  V30 21406 H 1973.87 -1.52658 0.741186 0
M  V30 21407 H 1972.64 -3.65243 1.40404 0
M  V30 21408 H 1972.27 -3.96598 -0.282074 0
M  V30 21409 N 1973.26 -0.409806 -1.52179 0
M  V30 21410 C 1974.23 0.40345 -2.25621 0
M  V30 21411 C 1975.23 0.973072 -1.28015 0
M  V30 21412 O 1976.42 0.851845 -1.51951 0
M  V30 21413 C 1973.55 1.568 -3.02699 0
M  V30 21414 H 1974.74 -0.239822 -2.9894 0
M  V30 21415 H 1972.29 -0.162341 -1.55455 0
M  V30 21416 H 1973.03 2.24811 -2.33731 0
M  V30 21417 H 1972.81 1.16603 -3.74361 0
M  V30 21418 H 1974.3 2.14326 -3.58405 0
M  V30 21419 N 1974.74 1.56975 -0.14025 0
M  V30 21420 C 1975.67 2.19432 0.798233 0
M  V30 21421 C 1976.65 1.14055 1.26196 0
M  V30 21422 O 1977.84 1.42373 1.32074 0
M  V30 21423 C 1974.97 2.81059 2.04018 0
M  V30 21424 C 1973.92 3.92204 1.71347 0
M  V30 21425 C 1973.25 4.40735 3.02748 0
M  V30 21426 C 1974.55 5.13302 0.965327 0
M  V30 21427 H 1976.24 2.98109 0.277716 0
M  V30 21428 H 1973.79 1.43392 0.132137 0
M  V30 21429 H 1975.74 3.23417 2.70147 0
M  V30 21430 H 1974.46 1.99703 2.5843 0
M  V30 21431 H 1973.12 3.50454 1.07599 0
M  V30 21432 H 1972.77 3.5621 3.55138 0
M  V30 21433 H 1972.47 5.15698 2.81654 0
M  V30 21434 H 1974 4.85759 3.6996 0
M  V30 21435 H 1975.41 5.52547 1.52857 0
M  V30 21436 H 1973.81 5.93984 0.854574 0
M  V30 21437 H 1974.88 4.8488 -0.0441688 0
M  V30 21438 N 1976.22 -0.133539 1.57033 0
M  V30 21439 C 1977.47 -0.842358 1.83268 0
M  V30 21440 C 1977.78 -1.81722 0.723634 0
M  V30 21441 O 1978.99 -2.57117 0.871969 0
M  V30 21442 C 1977.44 -1.54868 3.24875 0
M  V30 21443 C 1977.05 -0.615546 4.43751 0
M  V30 21444 C 1978.8 -2.24349 3.60372 0
M  V30 21445 C 1976.7 -1.32426 5.76383 0
M  V30 21446 H 1975.63 -0.318314 0.683515 0
M  V30 21447 H 1978.28 -0.0950741 1.83254 0
M  V30 21448 H 1976.67 -2.34207 3.19316 0
M  V30 21449 H 1977.84 0.143586 4.60576 0
M  V30 21450 H 1976.15 -0.0284595 4.1639 0
M  V30 21451 H 1978.75 -2.78037 4.56727 0
M  V30 21452 H 1979.09 -3.01473 2.87088 0
M  V30 21453 H 1979.63 -1.51914 3.67651 0
M  V30 21454 H 1976.37 -0.594603 6.52798 0
M  V30 21455 H 1975.89 -2.05577 5.6347 0
M  V30 21456 H 1977.57 -1.86148 6.19643 0
M  V30 21457 N 1977.7 -1.52352 -0.403298 0
M  V30 21458 C 1978.94 -1.66944 -1.15141 0
M  V30 21459 C 1979.28 -0.401064 -1.90013 0
M  V30 21460 O 1978.55 0.60071 -1.84991 0
M  V30 21461 C 1978.83 -2.89526 -2.14118 0
M  V30 21462 C 1978.69 -4.26428 -1.43104 0
M  V30 21463 C 1980.01 -3.07636 -3.14719 0
M  V30 21464 H 1977.13 -0.607531 -0.417223 0
M  V30 21465 H 1979.77 -1.84919 -0.436447 0
M  V30 21466 H 1977.92 -2.74332 -2.7509 0
M  V30 21467 H 1979.59 -4.53362 -0.852075 0
M  V30 21468 H 1977.83 -4.27563 -0.732965 0
M  V30 21469 H 1978.5 -5.08258 -2.15355 0
M  V30 21470 H 1980.98 -3.21767 -2.63828 0
M  V30 21471 H 1979.86 -3.94909 -3.81232 0
M  V30 21472 H 1980.12 -2.2121 -3.82777 0
M  V30 21473 N 1979.18 0.660885 -1.43074 0
M  V30 21474 C 1980.42 1.42296 -1.44498 0
M  V30 21475 C 1980.75 1.94087 -0.0661594 0
M  V30 21476 O 1980.03 1.71803 0.911806 0
M  V30 21477 C 1980.31 2.60995 -2.481 0
M  V30 21478 C 1980.17 2.14746 -3.95227 0
M  V30 21479 C 1981.48 3.63212 -2.48526 0
M  V30 21480 H 1978.6 0.516071 -0.526156 0
M  V30 21481 H 1981.25 0.749896 -1.74575 0
M  V30 21482 H 1979.4 3.18417 -2.22583 0
M  V30 21483 H 1981.07 1.62384 -4.31774 0
M  V30 21484 H 1979.31 1.46188 -4.08426 0
M  V30 21485 H 1979.98 3.00068 -4.63318 0
M  V30 21486 H 1982.46 3.15534 -2.71251 0
M  V30 21487 H 1981.33 4.43825 -3.22971 0
M  V30 21488 H 1981.59 4.15285 -1.51626 0
M  V30 21489 N 1980.65 1.29477 0.898527 0
M  V30 21490 C 1981.9 1.17284 1.64587 0
M  V30 21491 C 1982.22 -0.275718 1.93041 0
M  V30 21492 O 1981.49 -1.18847 1.55731 0
M  V30 21493 H 1980.07 0.431068 0.610073 0
M  V30 21494 H 1982.74 1.62419 1.07732 0
M  V30 21495 H 1981.83 1.72375 2.60179 0
M  V30 21496 N 1982.13 -1.10905 1.11972 0
M  V30 21497 C 1983.36 -1.87095 0.894991 0
M  V30 21498 C 1983.78 -1.79875 -0.550144 0
M  V30 21499 O 1983.14 -1.16517 -1.38901 0
M  V30 21500 C 1983.19 -3.33634 1.36825 0
M  V30 21501 O 1982.29 -4.08802 0.543553 0
M  V30 21502 H 1981.63 -0.580734 0.321938 0
M  V30 21503 H 1984.16 -1.40152 1.49059 0
M  V30 21504 H 1984.17 -3.84482 1.36519 0
M  V30 21505 H 1982.85 -3.38205 2.42054 0
M  V30 21506 H 1981.43 -3.67824 0.613185 0
M  V30 21507 N 1983.61 -0.910886 -1.2861 0
M  V30 21508 C 1984.86 -0.53847 -1.94379 0
M  V30 21509 C 1985.17 0.92185 -1.72515 0
M  V30 21510 O 1986.38 1.40229 -2.32482 0
M  V30 21511 C 1984.83 -0.91216 -3.48149 0
M  V30 21512 C 1984.44 -2.39201 -3.78796 0
M  V30 21513 C 1986.19 -0.610192 -4.20092 0
M  V30 21514 C 1984.09 -2.70598 -5.25862 0
M  V30 21515 H 1983.02 -0.197657 -0.727632 0
M  V30 21516 H 1985.67 -1.10941 -1.46165 0
M  V30 21517 H 1984.06 -0.270034 -3.95078 0
M  V30 21518 H 1985.23 -3.08063 -3.42686 0
M  V30 21519 H 1983.55 -2.66414 -3.20019 0
M  V30 21520 H 1986.14 -0.821472 -5.28352 0
M  V30 21521 H 1986.49 0.451862 -4.1384 0
M  V30 21522 H 1987.02 -1.21066 -3.7893 0
M  V30 21523 H 1983.76 -3.75645 -5.37188 0
M  V30 21524 H 1983.28 -2.0637 -5.6318 0
M  V30 21525 H 1984.96 -2.57451 -5.93572 0
M  V30 21526 N 1985.09 1.42434 -0.674558 0
M  V30 21527 C 1986.33 2.01841 -0.197012 0
M  V30 21528 C 1986.67 1.53214 1.19328 0
M  V30 21529 O 1985.94 0.734239 1.80109 0
M  V30 21530 C 1986.23 3.59356 -0.231383 0
M  V30 21531 C 1986.08 4.18162 -1.65711 0
M  V30 21532 C 1987.4 4.38086 0.420535 0
M  V30 21533 H 1984.52 0.733369 -0.0730636 0
M  V30 21534 H 1987.16 1.69458 -0.859297 0
M  V30 21535 H 1985.31 3.87074 0.332539 0
M  V30 21536 H 1986.98 4.01398 -2.27327 0
M  V30 21537 H 1985.22 3.74 -2.19787 0
M  V30 21538 H 1985.89 5.27297 -1.63285 0
M  V30 21539 H 1988.37 4.16057 -0.0594985 0
M  V30 21540 H 1987.25 5.47679 0.365847 0
M  V30 21541 H 1987.51 4.15945 1.49808 0
M  V30 21542 N 1986.57 0.417871 1.51959 0
M  V30 21543 C 1987.84 -0.214034 1.94425 0
M  V30 21544 C 1988.22 -1.61845 1.35534 0
M  V30 21545 O 1987.57 -2.22158 0.534606 0
M  V30 21546 C 1987.78 -0.211518 3.48358 0
M  V30 21547 C 1989.13 -0.426614 4.22451 0
M  V30 21548 O 1990.15 -0.290493 3.55013 0
M  V30 21549 O 1989.01 -0.695682 5.42054 0
M  V30 21550 H 1986.11 -0.140439 0.814988 0
M  V30 21551 H 1988.65 0.474446 1.62933 0
M  V30 21552 H 1987.42 0.771087 3.83627 0
M  V30 21553 H 1987.05 -0.943731 3.86238 0
M  V30 21554 N 1988.04 -1.56898 0.148573 0
M  V30 21555 C 1989.29 -1.9535 -0.502116 0
M  V30 21556 C 1989.61 -1.03603 -1.65909 0
M  V30 21557 O 1990.81 -1.31641 -2.37451 0
M  V30 21558 C 1989.27 -3.47281 -0.944653 0
M  V30 21559 C 1988.88 -4.47616 0.185474 0
M  V30 21560 C 1990.62 -3.94597 -1.56504 0
M  V30 21561 C 1988.53 -5.90758 -0.27542 0
M  V30 21562 H 1987.46 -0.729315 -0.191351 0
M  V30 21563 H 1990.11 -1.82013 0.233169 0
M  V30 21564 H 1988.49 -3.55957 -1.73525 0
M  V30 21565 H 1989.66 -4.50637 0.962441 0
M  V30 21566 H 1987.98 -4.10226 0.714373 0
M  V30 21567 H 1990.58 -4.9898 -1.92153 0
M  V30 21568 H 1990.92 -3.36238 -2.45459 0
M  V30 21569 H 1991.45 -3.88845 -0.839319 0
M  V30 21570 H 1988.19 -6.5294 0.578787 0
M  V30 21571 H 1987.71 -5.91094 -1.01823 0
M  V30 21572 H 1989.39 -6.42904 -0.726905 0
M  V30 21573 N 1989.52 0.125209 -1.57102 0
M  V30 21574 C 1990.49 1.13792 -1.98957 0
M  V30 21575 C 1991.49 1.34656 -0.878887 0
M  V30 21576 O 1992.68 1.31278 -1.14506 0
M  V30 21577 C 1989.81 2.49371 -2.32437 0
M  V30 21578 H 1991 0.778319 -2.89624 0
M  V30 21579 H 1988.55 0.369299 -1.51875 0
M  V30 21580 H 1989.29 2.90263 -1.4463 0
M  V30 21581 H 1989.07 2.35583 -3.13437 0
M  V30 21582 H 1990.56 3.22268 -2.65581 0
M  V30 21583 N 1991 1.52564 0.395213 0
M  V30 21584 C 1992.25 1.6653 1.13801 0
M  V30 21585 C 1992.56 0.408362 1.9129 0
M  V30 21586 O 1993.77 0.428049 2.68104 0
M  V30 21587 C 1992.22 2.94273 2.07199 0
M  V30 21588 C 1991.83 4.27125 1.35162 0
M  V30 21589 C 1993.58 3.17604 2.81652 0
M  V30 21590 C 1991.48 5.4598 2.27289 0
M  V30 21591 H 1990.41 0.620392 0.428521 0
M  V30 21592 H 1993.06 1.79058 0.401302 0
M  V30 21593 H 1991.45 2.75477 2.8448 0
M  V30 21594 H 1992.62 4.56452 0.631492 0
M  V30 21595 H 1990.94 4.10006 0.726934 0
M  V30 21596 H 1993.53 4.03582 3.5075 0
M  V30 21597 H 1993.88 2.32415 3.45382 0
M  V30 21598 H 1994.41 3.36938 2.11466 0
M  V30 21599 H 1991.15 6.33557 1.68184 0
M  V30 21600 H 1990.67 5.20972 2.97235 0
M  V30 21601 H 1992.35 5.79609 2.8751 0
M  V30 21602 N 1992.48 -0.653289 1.43422 0
M  V30 21603 C 1993.71 -1.44093 1.48475 0
M  V30 21604 C 1994.12 -1.88521 0.102614 0
M  V30 21605 O 1993.48 -1.59487 -0.887134 0
M  V30 21606 C 1993.53 -2.67595 2.43054 0
M  V30 21607 O 1993.25 -2.25025 3.75893 0
M  V30 21608 C 1994.75 -3.60953 2.57348 0
M  V30 21609 H 1991.97 -0.442658 0.504276 0
M  V30 21610 H 1994.52 -0.800914 1.88164 0
M  V30 21611 H 1992.67 -3.27736 2.06561 0
M  V30 21612 H 1993.08 -3.04932 4.26752 0
M  V30 21613 H 1994.56 -4.44276 3.27602 0
M  V30 21614 H 1995.04 -4.08295 1.61838 0
M  V30 21615 H 1995.64 -3.06693 2.94652 0
M  V30 21616 N 1993.96 -1.29952 -0.891648 0
M  V30 21617 C 1994.87 -1.17673 -2.02954 0
M  V30 21618 C 1995.88 -0.0981428 -1.73723 0
M  V30 21619 O 1997.06 -0.311785 -1.98972 0
M  V30 21620 C 1994.12 -0.862565 -3.35799 0
M  V30 21621 C 1993.18 -2.02583 -3.78495 0
M  V30 21622 C 1992.42 -1.72656 -5.05001 0
M  V30 21623 O 1992.64 -0.651307 -5.66669 0
M  V30 21624 O 1991.57 -2.57698 -5.43944 0
M  V30 21625 H 1995.4 -2.13248 -2.16239 0
M  V30 21626 H 1992.99 -1.09481 -1.01658 0
M  V30 21627 H 1994.87 -0.702274 -4.15507 0
M  V30 21628 H 1993.54 0.0633315 -3.23638 0
M  V30 21629 H 1992.45 -2.2414 -2.99519 0
M  V30 21630 H 1993.78 -2.93321 -3.95251 0
M  V30 21631 N 1995.44 1.1031 -1.12559 0
M  V30 21632 C 1996.68 1.82567 -0.883005 0
M  V30 21633 C 1997.01 1.85031 0.589667 0
M  V30 21634 O 1996.29 1.3119 1.43595 0
M  V30 21635 C 1996.57 3.29171 -1.46009 0
M  V30 21636 C 1996.43 3.35032 -3.00122 0
M  V30 21637 C 1997.74 4.25591 -1.12073 0
M  V30 21638 H 1994.86 0.662829 -0.322221 0
M  V30 21639 H 1997.51 1.29276 -1.3924 0
M  V30 21640 H 1995.66 3.74684 -1.02685 0
M  V30 21641 H 1997.33 2.9799 -3.52135 0
M  V30 21642 H 1995.57 2.74892 -3.35584 0
M  V30 21643 H 1996.24 4.3827 -3.35595 0
M  V30 21644 H 1998.72 3.88318 -1.49494 0
M  V30 21645 H 1997.59 5.26528 -1.55112 0
M  V30 21646 H 1997.85 4.42088 -0.0331138 0
M  V30 21647 N 1996.91 0.917694 1.28125 0
M  V30 21648 C 1997.86 0.399355 2.29146 0
M  V30 21649 C 1998.86 -0.511045 1.61508 0
M  V30 21650 O 2000.06 -0.391853 1.75683 0
M  V30 21651 H 1996.44 0.110553 0.743829 0
M  V30 21652 H 1998.41 1.26438 2.70289 0
M  V30 21653 C 1997.16 -0.34177 3.46016 0
M  V30 21654 H 1996.48 0.349564 3.98269 0
M  V30 21655 H 1997.92 -0.669035 4.18688 0
M  V30 21656 C 1996.38 -1.55111 2.99069 0
M  V30 21657 O 1996.91 -2.65012 3.0188 0
M  V30 21658 N 1995.11 -1.39946 2.54683 0
M  V30 21659 H 1994.66 -0.505341 2.52595 0
M  V30 21660 H 1994.62 -2.20989 2.23632 0
M  V30 21661 N 1998.39 -1.42074 0.682102 0
M  V30 21662 C 1999.8 -1.8453 0.283805 0
M  V30 21663 C 2000.15 -1.5709 -1.17547 0
M  V30 21664 O 1999.28 -1.03444 -1.90075 0
M  V30 21665 C 1999.87 -3.34965 0.508316 0
M  V30 21666 C 1998.43 -3.76042 0.164069 0
M  V30 21667 C 1997.58 -2.65594 0.797204 0
M  V30 21668 H 2000.53 -1.31817 0.88374 0
M  V30 21669 H 2000.55 -3.7976 -0.237267 0
M  V30 21670 H 2000.06 -3.54905 1.57047 0
M  V30 21671 H 1998.16 -3.61707 -0.894353 0
M  V30 21672 H 1998.28 -4.75205 0.609688 0
M  V30 21673 H 1996.64 -2.53678 0.227913 0
M  V30 21674 H 1997.42 -2.88355 1.86296 0
M  V30 21675 N 1999.87 -0.425924 -1.51735 0
M  V30 21676 C 2000.83 0.379497 -2.26036 0
M  V30 21677 C 2001.83 0.95944 -1.2904 0
M  V30 21678 O 2003.02 0.83568 -1.52846 0
M  V30 21679 C 2000.15 1.5358 -3.04345 0
M  V30 21680 H 2001.35 -0.271515 -2.98668 0
M  V30 21681 H 1998.9 -0.17882 -1.55274 0
M  V30 21682 H 1999.64 2.2232 -2.36103 0
M  V30 21683 H 1999.42 1.12626 -3.75577 0
M  V30 21684 H 2000.91 2.10513 -3.60658 0
M  V30 21685 N 2001.35 1.56817 -0.156891 0
M  V30 21686 C 2002.26 2.20833 0.79183 0
M  V30 21687 C 2003.27 1.19558 1.26419 0
M  V30 21688 O 2004.45 1.5217 1.31933 0
M  V30 21689 C 2001.51 2.82517 2.00961 0
M  V30 21690 C 2000.58 3.98948 1.58552 0
M  V30 21691 C 1999.81 4.57681 2.74525 0
M  V30 21692 O 2000.03 4.15295 3.91007 0
M  V30 21693 O 1998.97 5.47786 2.49428 0
M  V30 21694 H 2002.79 3.02436 0.276846 0
M  V30 21695 H 2000.38 1.49233 0.0706167 0
M  V30 21696 H 2002.26 3.21683 2.72209 0
M  V30 21697 H 2000.93 2.03921 2.51392 0
M  V30 21698 H 1999.84 3.64479 0.84297 0
M  V30 21699 H 2001.17 4.79094 1.12826 0
M  V30 21700 N 2002.83 -0.116876 1.57166 0
M  V30 21701 C 2003.78 -1.14913 1.96924 0
M  V30 21702 C 2004.76 -1.36955 0.844524 0
M  V30 21703 O 2005.95 -1.38012 1.10823 0
M  V30 21704 C 2003.08 -2.47515 2.37889 0
M  V30 21705 C 2002.17 -2.28939 3.56998 0
M  V30 21706 N 2002.56 -1.8018 4.72619 0
M  V30 21707 C 2000.86 -2.59587 3.62671 0
M  V30 21708 C 2001.56 -1.75362 5.54638 0
M  V30 21709 N 2000.53 -2.19785 4.97188 0
M  V30 21710 H 2004.33 -0.764725 2.83777 0
M  V30 21711 H 2001.85 -0.324594 1.59123 0
M  V30 21712 H 2003.85 -3.22177 2.6459 0
M  V30 21713 H 2002.51 -2.86712 1.52402 0
M  V30 21714 H 2003.52 -1.49696 4.95794 0
M  V30 21715 H 2000.19 -3.02456 2.87797 0
M  V30 21716 H 2001.58 -1.389 6.57386 0
M  V30 21717 N 2004.3 -1.52772 -0.387116 0
M  V30 21718 C 2005.53 -1.71787 -1.15312 0
M  V30 21719 C 2005.95 -0.437082 -1.83671 0
M  V30 21720 O 2005.3 0.588573 -1.72749 0
M  V30 21721 C 2005.35 -2.86869 -2.19974 0
M  V30 21722 O 2005.08 -4.0999 -1.54402 0
M  V30 21723 C 2006.58 -3.17579 -3.09287 0
M  V30 21724 H 2003.8 -0.575118 -0.345659 0
M  V30 21725 H 2006.34 -1.99428 -0.452607 0
M  V30 21726 H 2004.5 -2.61684 -2.85658 0
M  V30 21727 H 2004.91 -4.7428 -2.23961 0
M  V30 21728 H 2006.38 -4.01562 -3.7875 0
M  V30 21729 H 2006.86 -2.3204 -3.729 0
M  V30 21730 H 2007.47 -3.44611 -2.49246 0
M  V30 21731 N 2005.78 0.645673 -1.43767 0
M  V30 21732 C 2006.71 1.77107 -1.45484 0
M  V30 21733 C 2007.73 1.58993 -0.350002 0
M  V30 21734 O 2008.92 1.67575 -0.61489 0
M  V30 21735 C 2006.02 3.14639 -1.25919 0
M  V30 21736 C 2005.19 3.59344 -2.49381 0
M  V30 21737 C 2004.25 4.75703 -2.24929 0
M  V30 21738 O 2003.27 4.84756 -2.98329 0
M  V30 21739 N 2004.48 5.66422 -1.27068 0
M  V30 21740 H 2007.24 1.7611 -2.42498 0
M  V30 21741 H 2004.8 0.829768 -1.3902 0
M  V30 21742 H 2006.79 3.9018 -1.07432 0
M  V30 21743 H 2005.36 3.10364 -0.37323 0
M  V30 21744 H 2004.58 2.74166 -2.83243 0
M  V30 21745 H 2005.87 3.8596 -3.3153 0
M  V30 21746 H 2005.27 5.61787 -0.664185 0
M  V30 21747 H 2003.83 6.41653 -1.14562 0
M  V30 21748 N 2007.26 1.30423 0.884744 0
M  V30 21749 C 2008.5 1.20543 1.65072 0
M  V30 21750 C 2008.86 -0.236066 1.90543 0
M  V30 21751 O 2010.06 -0.458107 2.64868 0
M  V30 21752 C 2008.34 2.01135 2.95431 0
M  V30 21753 S 2009.89 2.07956 3.86393 0
M  V30 21754 H 2006.71 0.429572 0.566559 0
M  V30 21755 H 2009.31 1.64901 1.05014 0
M  V30 21756 H 2008.02 3.04981 2.74618 0
M  V30 21757 H 2007.55 1.57439 3.60522 0
M  V30 21758 H 2009.56 1.20711 4.81293 0
M  V30 21759 N 2008.74 -1.09711 1.13142 0
M  V30 21760 C 2009.96 -1.86136 0.914785 0
M  V30 21761 C 2010.39 -1.80448 -0.531035 0
M  V30 21762 O 2009.75 -1.17983 -1.37658 0
M  V30 21763 C 2009.79 -3.32164 1.40356 0
M  V30 21764 O 2008.9 -4.08203 0.586881 0
M  V30 21765 H 2008.24 -0.577287 0.328079 0
M  V30 21766 H 2010.77 -1.38563 1.50537 0
M  V30 21767 H 2010.78 -3.83013 1.40589 0
M  V30 21768 H 2009.45 -3.35619 2.45628 0
M  V30 21769 H 2008.03 -3.67153 0.652163 0
M  V30 21770 N 2010.22 -0.924476 -1.27637 0
M  V30 21771 C 2011.63 -0.608255 -1.76514 0
M  V30 21772 C 2011.98 0.87656 -1.7553 0
M  V30 21773 O 2011.1 1.68587 -1.35674 0
M  V30 21774 C 2011.7 -1.09738 -3.20536 0
M  V30 21775 C 2010.26 -0.831881 -3.67092 0
M  V30 21776 C 2009.4 -1.25795 -2.47125 0
M  V30 21777 H 2012.36 -1.1046 -1.13949 0
M  V30 21778 H 2012.38 -0.443602 -3.77905 0
M  V30 21779 H 2011.89 -2.17806 -3.21219 0
M  V30 21780 H 2009.99 0.235141 -3.71857 0
M  V30 21781 H 2010.1 -1.44716 -4.56721 0
M  V30 21782 H 2008.47 -0.676541 -2.4555 0
M  V30 21783 H 2009.25 -2.34721 -2.50521 0
M  V30 21784 N 2011.69 1.41711 -0.689627 0
M  V30 21785 C 2012.92 2.06171 -0.225425 0
M  V30 21786 C 2013.34 1.51535 1.11439 0
M  V30 21787 O 2012.7 0.639865 1.69633 0
M  V30 21788 C 2012.75 3.60114 -0.187089 0
M  V30 21789 O 2011.85 4.03757 0.83989 0
M  V30 21790 H 2011.2 0.654551 -0.111621 0
M  V30 21791 H 2013.73 1.81582 -0.942814 0
M  V30 21792 H 2013.74 4.07997 -0.0159369 0
M  V30 21793 H 2012.41 3.99251 -1.16497 0
M  V30 21794 H 2010.99 3.67392 0.638575 0
M  V30 21795 N 2013.17 0.433965 1.51507 0
M  V30 21796 C 2014.11 -0.424335 2.2422 0
M  V30 21797 C 2015.08 -1.02751 1.26019 0
M  V30 21798 O 2016.27 -1.07062 1.55145 0
M  V30 21799 C 2013.39 -1.59113 2.98999 0
M  V30 21800 C 2012.44 -1.10896 4.1183 0
M  V30 21801 S 2013.27 -0.0537502 5.35473 0
M  V30 21802 C 2014.43 -1.22529 6.13789 0
M  V30 21803 H 2014.66 0.192998 2.96673 0
M  V30 21804 H 2012.2 0.218455 1.52847 0
M  V30 21805 H 2014.15 -2.26006 3.42683 0
M  V30 21806 H 2012.81 -2.17987 2.26143 0
M  V30 21807 H 2012.01 -1.9814 4.63419 0
M  V30 21808 H 2011.61 -0.518327 3.70391 0
M  V30 21809 H 2013.9 -2.14429 6.42671 0
M  V30 21810 H 2014.84 -0.749446 7.04123 0
M  V30 21811 H 2015.25 -1.46233 5.4523 0
M  V30 21812 N 2014.65 -1.56732 0.165206 0
M  V30 21813 C 2015.6 -2.18974 -0.784415 0
M  V30 21814 C 2016.59 -1.15199 -1.242 0
M  V30 21815 O 2017.8 -1.33411 -1.20837 0
M  V30 21816 H 2014.17 -0.701387 -0.27122 0
M  V30 21817 H 2016.14 -2.9747 -0.235435 0
M  V30 21818 C 2014.89 -2.83996 -2.00603 0
M  V30 21819 H 2014.22 -3.63574 -1.66295 0
M  V30 21820 H 2015.66 -3.31025 -2.6495 0
M  V30 21821 C 2014.12 -1.83448 -2.82574 0
M  V30 21822 O 2014.65 -1.31617 -3.79526 0
M  V30 21823 N 2012.85 -1.52342 -2.47468 0
M  V30 21824 H 2012.4 -1.94684 -1.68689 0
M  V30 21825 H 2012.36 -0.853184 -3.02602 0
M  V30 21826 N 2016.13 0.10854 -1.57226 0
M  V30 21827 C 2017.09 1.11675 -2.00153 0
M  V30 21828 C 2018.09 1.33716 -0.89312 0
M  V30 21829 O 2019.28 1.30056 -1.15892 0
M  V30 21830 C 2016.41 2.46892 -2.35069 0
M  V30 21831 H 2017.61 0.747556 -2.90433 0
M  V30 21832 H 2015.16 0.35317 -1.52258 0
M  V30 21833 H 2015.89 2.88713 -1.47701 0
M  V30 21834 H 2015.68 2.32245 -3.15918 0
M  V30 21835 H 2017.17 3.19433 -2.68984 0
M  V30 21836 N 2017.61 1.52975 0.379009 0
M  V30 21837 C 2018.52 1.81401 1.48764 0
M  V30 21838 C 2019.53 0.701435 1.59235 0
M  V30 21839 O 2020.71 0.990085 1.75383 0
M  V30 21840 C 2017.77 1.98593 2.84186 0
M  V30 21841 C 2016.83 3.22504 2.83354 0
M  V30 21842 C 2016.07 3.38866 4.12317 0
M  V30 21843 O 2016.29 2.59814 5.07792 0
M  V30 21844 O 2015.22 4.32165 4.18947 0
M  V30 21845 H 2019.05 2.75561 1.27671 0
M  V30 21846 H 2016.64 1.38189 0.56782 0
M  V30 21847 H 2018.52 2.11549 3.64451 0
M  V30 21848 H 2017.19 1.07622 3.05285 0
M  V30 21849 H 2016.1 3.14982 2.01835 0
M  V30 21850 H 2017.43 4.13353 2.67208 0
M  V30 21851 N 2019.08 -0.63804 1.44107 0
M  V30 21852 C 2019.99 -1.77914 1.52917 0
M  V30 21853 C 2021.01 -1.68972 0.415266 0
M  V30 21854 O 2022.19 -1.89872 0.671613 0
M  V30 21855 C 2019.25 -3.14268 1.46412 0
M  V30 21856 C 2018.31 -3.34893 2.68598 0
M  V30 21857 C 2017.55 -4.64742 2.62394 0
M  V30 21858 O 2017.77 -5.45095 1.68011 0
M  V30 21859 O 2016.7 -4.87419 3.53138 0
M  V30 21860 H 2020.53 -1.73435 2.49307 0
M  V30 21861 H 2018.11 -0.798412 1.26276 0
M  V30 21862 H 2020 -3.95564 1.45282 0
M  V30 21863 H 2018.67 -3.19304 0.531634 0
M  V30 21864 H 2017.58 -2.53302 2.75297 0
M  V30 21865 H 2018.91 -3.34714 3.6087 0
M  V30 21866 N 2020.56 -1.3089 -0.877815 0
M  V30 21867 C 2021.51 -1.17796 -2.00566 0
M  V30 21868 C 2022.5 -0.0881167 -1.69171 0
M  V30 21869 O 2023.71 -0.249467 -1.78263 0
M  V30 21870 H 2020.09 -0.364508 -0.657752 0
M  V30 21871 H 2022.06 -2.13234 -2.08743 0
M  V30 21872 C 2020.81 -0.894005 -3.3601 0
M  V30 21873 H 2020.13 -1.72472 -3.60684 0
M  V30 21874 H 2021.57 -0.842526 -4.15545 0
M  V30 21875 C 2020.03 0.403175 -3.34479 0
M  V30 21876 O 2020.56 1.42245 -3.75672 0
M  V30 21877 N 2018.76 0.416903 -2.87594 0
M  V30 21878 H 2018.31 -0.413049 -2.54267 0
M  V30 21879 H 2018.27 1.28475 -2.86952 0
M  V30 21880 N 2022.04 1.0911 -1.13723 0
M  V30 21881 C 2023.27 1.85648 -0.924643 0
M  V30 21882 C 2023.69 1.80727 0.521458 0
M  V30 21883 O 2023.05 1.18712 1.3703 0
M  V30 21884 C 2023.1 3.31415 -1.42115 0
M  V30 21885 O 2022.2 4.07886 -0.608521 0
M  V30 21886 H 2021.54 0.575539 -0.331136 0
M  V30 21887 H 2024.07 1.37763 -1.5127 0
M  V30 21888 H 2024.08 3.82262 -1.42619 0
M  V30 21889 H 2022.76 3.34311 -2.47404 0
M  V30 21890 H 2021.33 3.66802 -0.671625 0
M  V30 21891 N 2023.52 0.931232 1.27145 0
M  V30 21892 C 2024.93 0.632011 1.46553 0
M  V30 21893 C 2025.13 -0.817674 1.84164 0
M  V30 21894 O 2024.19 -1.59524 1.95725 0
M  V30 21895 C 2025.5 1.58491 2.55541 0
M  V30 21896 C 2027.05 1.59352 2.69399 0
M  V30 21897 C 2027.53 2.53347 3.81548 0
M  V30 21898 N 2029.02 2.51575 3.88927 0
M  V30 21899 C 2029.75 3.20993 4.75132 0
M  V30 21900 N 2029.25 3.99803 5.65799 0
M  V30 21901 N 2031.04 3.09994 4.68892 0
M  V30 21902 H 2023.19 1.8684 1.01017 0
M  V30 21903 H 2025.46 0.802369 0.504884 0
M  V30 21904 H 2025.16 2.61927 2.34707 0
M  V30 21905 H 2025.04 1.32932 3.53 0
M  V30 21906 H 2027.42 0.566457 2.89612 0
M  V30 21907 H 2027.5 1.88962 1.72415 0
M  V30 21908 H 2027.15 3.56166 3.62088 0
M  V30 21909 H 2027.08 2.21032 4.77967 0
M  V30 21910 H 2029.57 1.94342 3.24098 0
M  V30 21911 H 2029.88 4.49749 6.28447 0
M  V30 21912 H 2028.23 4.03906 5.65584 0
M  V30 21913 H 2031.42 2.47915 3.97059 0
M  V30 21914 H 2031.59 3.64364 5.35857 0
M  V30 21915 N 2025 -1.41343 0.697132 0
M  V30 21916 C 2026.25 -2.00432 0.225852 0
M  V30 21917 C 2026.56 -1.55857 -1.18186 0
M  V30 21918 O 2027.77 -2.07516 -1.75069 0
M  V30 21919 C 2026.22 -3.58166 0.352888 0
M  V30 21920 C 2025.83 -4.11721 1.76607 0
M  V30 21921 C 2027.57 -4.2446 -0.0585393 0
M  V30 21922 C 2025.48 -5.61895 1.84467 0
M  V30 21923 H 2024.41 -0.749671 0.0806811 0
M  V30 21924 H 2027.06 -1.61804 0.865556 0
M  V30 21925 H 2025.44 -3.94405 -0.355093 0
M  V30 21926 H 2026.62 -3.86898 2.50293 0
M  V30 21927 H 2024.93 -3.57959 2.12731 0
M  V30 21928 H 2027.53 -5.34696 -0.0202684 0
M  V30 21929 H 2027.87 -4.01572 -1.09752 0
M  V30 21930 H 2028.41 -3.93261 0.599221 0
M  V30 21931 H 2025.14 -5.89612 2.86423 0
M  V30 21932 H 2024.66 -5.8864 1.15167 0
M  V30 21933 H 2026.34 -6.26692 1.60828 0
M  V30 21934 N 2026.48 -0.441993 -1.51275 0
M  V30 21935 C 2027.7 0.123815 -2.0703 0
M  V30 21936 C 2028.13 1.35293 -1.30681 0
M  V30 21937 O 2027.48 1.77966 -0.346072 0
M  V30 21938 C 2027.53 0.419988 -3.58146 0
M  V30 21939 O 2026.64 1.50565 -3.83932 0
M  V30 21940 H 2025.98 -0.00017643 -0.664 0
M  V30 21941 H 2028.51 -0.624668 -1.94831 0
M  V30 21942 H 2028.52 0.66908 -4.02476 0
M  V30 21943 H 2027.19 -0.478329 -4.1314 0
M  V30 21944 H 2025.77 1.24615 -3.51462 0
M  V30 21945 N 2027.95 1.56642 -0.173515 0
M  V30 21946 C 2029.2 1.96124 0.470974 0
M  V30 21947 C 2029.52 1.06229 1.6424 0
M  V30 21948 O 2030.72 1.35402 2.35327 0
M  V30 21949 C 2029.18 3.4874 0.889284 0
M  V30 21950 C 2028.79 4.47264 -0.256662 0
M  V30 21951 C 2030.53 3.97037 1.50207 0
M  V30 21952 C 2028.44 5.91122 0.181401 0
M  V30 21953 H 2027.37 0.732267 0.179724 0
M  V30 21954 H 2030.02 1.81619 -0.262096 0
M  V30 21955 H 2028.4 3.58672 1.6784 0
M  V30 21956 H 2029.57 4.49049 -1.03401 0
M  V30 21957 H 2027.89 4.09038 -0.779546 0
M  V30 21958 H 2030.49 5.01974 1.8419 0
M  V30 21959 H 2030.83 3.401 2.40078 0
M  V30 21960 H 2031.36 3.90131 0.777351 0
M  V30 21961 H 2028.1 6.51936 -0.682591 0
M  V30 21962 H 2027.62 5.92639 0.924063 0
M  V30 21963 H 2029.3 6.43979 0.624532 0
M  V30 21964 N 2029.43 -0.1002 1.57281 0
M  V30 21965 C 2030.66 -0.818307 1.9003 0
M  V30 21966 C 2031.07 -1.72531 0.766704 0
M  V30 21967 O 2030.43 -1.80616 -0.261577 0
M  V30 21968 C 2030.48 -1.63596 3.22364 0
M  V30 21969 O 2030.2 -0.765449 4.31361 0
M  V30 21970 C 2031.7 -2.45758 3.68942 0
M  V30 21971 H 2028.92 -0.234253 0.628782 0
M  V30 21972 H 2031.47 -0.0789616 2.04347 0
M  V30 21973 H 2029.62 -2.32787 3.09659 0
M  V30 21974 H 2030.04 -1.33126 5.07324 0
M  V30 21975 H 2031.51 -2.9863 4.64246 0
M  V30 21976 H 2031.99 -3.23987 2.96528 0
M  V30 21977 H 2032.59 -1.81776 3.84497 0
M  V30 21978 N 2030.91 -1.53174 -0.370891 0
M  V30 21979 C 2032.16 -1.69098 -1.11409 0
M  V30 21980 C 2032.48 -0.440066 -1.89456 0
M  V30 21981 O 2031.74 0.577901 -1.86973 0
M  V30 21982 C 2032.04 -2.88881 -2.10435 0
M  V30 21983 C 2031.7 -4.25602 -1.48908 0
M  V30 21984 C 2030.37 -4.62782 -1.31856 0
M  V30 21985 C 2032.72 -5.10648 -1.04346 0
M  V30 21986 C 2030.05 -5.8265 -0.688168 0
M  V30 21987 C 2032.4 -6.31157 -0.427093 0
M  V30 21988 C 2031.06 -6.67054 -0.244019 0
M  V30 21989 H 2030.33 -0.618775 -0.407674 0
M  V30 21990 H 2032.98 -1.8735 -0.396513 0
M  V30 21991 H 2031.28 -2.65119 -2.88477 0
M  V30 21992 H 2032.98 -2.98396 -2.67882 0
M  V30 21993 H 2029.57 -3.96324 -1.63173 0
M  V30 21994 H 2033.76 -4.82477 -1.16315 0
M  V30 21995 H 2029.01 -6.09057 -0.53469 0
M  V30 21996 H 2033.19 -6.96361 -0.0735755 0
M  V30 21997 H 2030.81 -7.598 0.246525 0
M  V30 21998 N 2032.39 0.630389 -1.44443 0
M  V30 21999 C 2033.63 1.38993 -1.47265 0
M  V30 22000 C 2033.96 1.94213 -0.105537 0
M  V30 22001 O 2033.22 1.7415 0.89277 0
M  V30 22002 C 2033.52 2.57255 -2.48102 0
M  V30 22003 C 2033.18 2.20319 -3.93408 0
M  V30 22004 C 2031.84 2.09959 -4.32979 0
M  V30 22005 C 2034.2 1.91148 -4.84883 0
M  V30 22006 C 2031.52 1.68616 -5.61948 0
M  V30 22007 C 2033.88 1.51298 -6.14241 0
M  V30 22008 C 2032.54 1.39479 -6.52765 0
M  V30 22009 H 2031.81 0.508613 -0.538882 0
M  V30 22010 H 2034.46 0.714772 -1.77661 0
M  V30 22011 H 2032.76 3.30007 -2.11193 0
M  V30 22012 H 2034.46 3.15483 -2.47531 0
M  V30 22013 H 2031.05 2.29301 -3.62103 0
M  V30 22014 H 2035.23 1.98061 -4.55066 0
M  V30 22015 H 2030.49 1.5807 -5.90613 0
M  V30 22016 H 2034.66 1.27764 -6.8458 0
M  V30 22017 H 2032.29 1.07216 -7.52601 0
M  V30 22018 N 2033.87 1.31354 0.870861 0
M  V30 22019 C 2035.28 1.09992 1.15646 0
M  V30 22020 C 2035.48 -0.130192 2.01079 0
M  V30 22021 O 2034.54 -0.819776 2.38822 0
M  V30 22022 C 2035.85 2.37098 1.84946 0
M  V30 22023 C 2037.4 2.42699 1.97651 0
M  V30 22024 C 2037.87 3.69684 2.70366 0
M  V30 22025 N 2039.36 3.70573 2.77902 0
M  V30 22026 C 2040.1 4.65525 3.34775 0
M  V30 22027 N 2039.6 5.70831 3.92586 0
M  V30 22028 N 2041.39 4.53046 3.32724 0
M  V30 22029 H 2033.54 2.10249 0.301547 0
M  V30 22030 H 2035.8 0.927478 0.196185 0
M  V30 22031 H 2035.51 3.26943 1.2962 0
M  V30 22032 H 2035.38 2.46827 2.8523 0
M  V30 22033 H 2037.77 1.53324 2.52142 0
M  V30 22034 H 2037.85 2.36935 0.964123 0
M  V30 22035 H 2037.49 4.59425 2.16543 0
M  V30 22036 H 2037.42 3.72714 3.7201 0
M  V30 22037 H 2039.92 2.94449 2.36872 0
M  V30 22038 H 2040.23 6.39363 4.3409 0
M  V30 22039 H 2038.57 5.74606 3.90964 0
M  V30 22040 H 2041.76 3.69952 2.86798 0
M  V30 22041 H 2041.94 5.27223 3.76749 0
M  V30 22042 N 2035.34 -1.08505 1.143 0
M  V30 22043 C 2036.27 -2.1741 0.851769 0
M  V30 22044 C 2037.25 -1.69004 -0.192818 0
M  V30 22045 O 2038.44 -1.94136 -0.0497098 0
M  V30 22046 C 2035.57 -3.45754 0.327364 0
M  V30 22047 C 2034.52 -4.07547 1.30728 0
M  V30 22048 C 2033.85 -5.30829 0.642225 0
M  V30 22049 C 2035.15 -4.48945 2.66919 0
M  V30 22050 H 2036.84 -2.42029 1.76245 0
M  V30 22051 H 2034.39 -1.16322 0.848834 0
M  V30 22052 H 2036.34 -4.21253 0.111237 0
M  V30 22053 H 2035.07 -3.20686 -0.618737 0
M  V30 22054 H 2033.73 -3.34077 1.50956 0
M  V30 22055 H 2033.37 -5.02046 -0.309652 0
M  V30 22056 H 2033.07 -5.73128 1.29608 0
M  V30 22057 H 2034.6 -6.09044 0.435598 0
M  V30 22058 H 2036.01 -5.15626 2.50604 0
M  V30 22059 H 2034.41 -5.02158 3.28568 0
M  V30 22060 H 2035.48 -3.60882 3.23871 0
M  V30 22061 N 2036.82 -0.937962 -1.26649 0
M  V30 22062 C 2038.07 -0.583818 -1.93902 0
M  V30 22063 C 2038.4 0.876602 -1.73626 0
M  V30 22064 O 2037.65 1.64203 -1.0647 0
M  V30 22065 C 2037.95 -0.868478 -3.46687 0
M  V30 22066 C 2037.62 -2.31227 -3.87098 0
M  V30 22067 C 2036.28 -2.70695 -3.97841 0
M  V30 22068 C 2038.63 -3.25068 -4.07407 0
M  V30 22069 C 2035.96 -4.03107 -4.26288 0
M  V30 22070 C 2038.31 -4.57073 -4.37341 0
M  V30 22071 C 2036.97 -4.96361 -4.46298 0
M  V30 22072 H 2036.24 -0.213634 -0.709536 0
M  V30 22073 H 2038.89 -1.18386 -1.50522 0
M  V30 22074 H 2037.2 -0.185864 -3.91359 0
M  V30 22075 H 2038.89 -0.573289 -3.96881 0
M  V30 22076 H 2035.48 -1.99611 -3.7928 0
M  V30 22077 H 2039.67 -2.95773 -3.98537 0
M  V30 22078 H 2034.92 -4.33214 -4.31434 0
M  V30 22079 H 2039.1 -5.29781 -4.52001 0
M  V30 22080 H 2036.72 -5.98992 -4.68095 0
M  V30 22081 N 2038.3 1.40971 -0.704618 0
M  V30 22082 C 2039.72 1.55082 -0.377067 0
M  V30 22083 C 2039.92 1.67827 1.11518 0
M  V30 22084 O 2038.97 1.66173 1.90112 0
M  V30 22085 C 2040.28 2.78517 -1.13352 0
M  V30 22086 C 2041.83 2.92323 -1.11875 0
M  V30 22087 C 2042.31 4.18658 -1.85714 0
M  V30 22088 N 2043.8 4.25635 -1.82728 0
M  V30 22089 C 2044.53 5.22268 -2.36693 0
M  V30 22090 N 2044.03 6.24877 -2.99167 0
M  V30 22091 N 2045.82 5.14271 -2.26897 0
M  V30 22092 H 2037.97 1.30944 -1.67235 0
M  V30 22093 H 2040.24 0.632393 -0.706246 0
M  V30 22094 H 2039.94 2.75339 -2.18818 0
M  V30 22095 H 2039.82 3.70304 -0.717978 0
M  V30 22096 H 2042.2 2.95011 -0.0723296 0
M  V30 22097 H 2042.28 2.01685 -1.57343 0
M  V30 22098 H 2041.93 4.16732 -2.9034 0
M  V30 22099 H 2041.86 5.08285 -1.37674 0
M  V30 22100 H 2044.35 3.52119 -1.37187 0
M  V30 22101 H 2044.66 6.95019 -3.37889 0
M  V30 22102 H 2043.01 6.25353 -3.03247 0
M  V30 22103 H 2046.2 4.33037 -1.77755 0
M  V30 22104 H 2046.37 5.89411 -2.69256 0
M  V30 22105 N 2039.78 0.45001 1.51039 0
M  V30 22106 C 2041.02 -0.112357 2.02489 0
M  V30 22107 C 2041.36 -1.41249 1.33276 0
M  V30 22108 O 2040.63 -1.89183 0.451679 0
M  V30 22109 C 2040.92 -0.318025 3.58693 0
M  V30 22110 C 2040.77 1.00164 4.38506 0
M  V30 22111 C 2042.09 -1.08213 4.26589 0
M  V30 22112 H 2039.21 -0.0393599 0.735948 0
M  V30 22113 H 2041.85 0.591485 1.80559 0
M  V30 22114 H 2040 -0.917553 3.77509 0
M  V30 22115 H 2041.67 1.63613 4.3131 0
M  V30 22116 H 2039.91 1.60329 4.03085 0
M  V30 22117 H 2040.58 0.811628 5.46001 0
M  V30 22118 H 2043.06 -0.574174 4.12119 0
M  V30 22119 H 2041.94 -1.19481 5.35738 0
M  V30 22120 H 2042.2 -2.11345 3.88311 0
M  V30 22121 N 2041.26 -1.56548 0.18182 0
M  V30 22122 C 2042.19 -2.14336 -0.783296 0
M  V30 22123 C 2043.17 -1.07634 -1.21876 0
M  V30 22124 O 2044.35 -1.3567 -1.30866 0
M  V30 22125 C 2041.48 -2.69146 -2.05616 0
M  V30 22126 C 2040.52 -3.88316 -1.76389 0
M  V30 22127 S 2041.36 -5.27472 -0.923777 0
M  V30 22128 C 2042.51 -5.85695 -2.20708 0
M  V30 22129 H 2042.75 -2.95863 -0.291996 0
M  V30 22130 H 2040.28 -1.54365 -0.033 0
M  V30 22131 H 2042.24 -3.01371 -2.78722 0
M  V30 22132 H 2040.9 -1.87685 -2.51859 0
M  V30 22133 H 2040.09 -4.25031 -2.7086 0
M  V30 22134 H 2039.69 -3.57032 -1.11373 0
M  V30 22135 H 2041.99 -5.99249 -3.16081 0
M  V30 22136 H 2042.93 -6.82564 -1.88446 0
M  V30 22137 H 2043.34 -5.14194 -2.32948 0
M  V30 22138 N 2042.73 0.0918577 -1.57332 0
M  V30 22139 C 2044.15 0.446151 -1.53237 0
M  V30 22140 C 2044.35 1.80332 -0.899027 0
M  V30 22141 O 2043.41 2.47642 -0.492921 0
M  V30 22142 C 2044.72 0.405662 -2.97951 0
M  V30 22143 C 2046.27 0.487286 -3.09184 0
M  V30 22144 C 2046.74 0.476912 -4.5551 0
M  V30 22145 N 2048.23 0.537573 -4.6007 0
M  V30 22146 C 2048.97 0.551436 -5.70742 0
M  V30 22147 N 2048.46 0.521312 -6.90836 0
M  V30 22148 N 2050.26 0.59649 -5.58926 0
M  V30 22149 H 2042.41 -0.797061 -1.96877 0
M  V30 22150 H 2044.67 -0.297022 -0.900268 0
M  V30 22151 H 2044.38 -0.524467 -3.47768 0
M  V30 22152 H 2044.25 1.22343 -3.56808 0
M  V30 22153 H 2046.64 1.40783 -2.59353 0
M  V30 22154 H 2046.72 -0.358678 -2.53273 0
M  V30 22155 H 2046.36 -0.439705 -5.05993 0
M  V30 22156 H 2046.29 1.34013 -5.09262 0
M  V30 22157 H 2048.78 0.565916 -3.73639 0
M  V30 22158 H 2049.1 0.535263 -7.70944 0
M  V30 22159 H 2047.44 0.48831 -6.93282 0
M  V30 22160 H 2050.63 0.617576 -4.64008 0
M  V30 22161 H 2050.81 0.603826 -6.45181 0
M  V30 22162 N 2044.21 1.53368 0.362763 0
M  V30 22163 C 2045.14 1.82984 1.45048 0
M  V30 22164 C 2046.12 0.683544 1.55762 0
M  V30 22165 O 2047.31 0.933658 1.70283 0
M  V30 22166 C 2044.44 2.02227 2.8235 0
M  V30 22167 C 2043.39 3.18002 2.86459 0
M  V30 22168 C 2042.72 3.22543 4.26463 0
M  V30 22169 C 2044.02 4.56531 2.53726 0
M  V30 22170 H 2045.71 2.74075 1.20513 0
M  V30 22171 H 2043.26 1.31877 0.578302 0
M  V30 22172 H 2045.21 2.21529 3.58473 0
M  V30 22173 H 2043.94 1.07849 3.08279 0
M  V30 22174 H 2042.59 2.98525 2.12787 0
M  V30 22175 H 2042.24 2.25797 4.49472 0
M  V30 22176 H 2041.94 4.00331 4.30127 0
M  V30 22177 H 2043.47 3.44032 5.04455 0
M  V30 22178 H 2044.88 4.75975 3.19563 0
M  V30 22179 H 2043.28 5.36581 2.68703 0
M  V30 22180 H 2044.35 4.61451 1.48967 0
M  V30 22181 N 2045.69 -0.62272 1.44776 0
M  V30 22182 C 2046.94 -1.38415 1.4822 0
M  V30 22183 C 2047.27 -1.93844 0.117595 0
M  V30 22184 O 2046.54 -1.7416 -0.865935 0
M  V30 22185 C 2046.83 -2.54325 2.54933 0
M  V30 22186 C 2046.68 -2.04192 4.00782 0
M  V30 22187 C 2048 -3.56495 2.58069 0
M  V30 22188 H 2045.12 -0.501939 0.539654 0
M  V30 22189 H 2047.76 -0.703347 1.76502 0
M  V30 22190 H 2045.91 -3.12403 2.30947 0
M  V30 22191 H 2047.58 -1.50879 4.35928 0
M  V30 22192 H 2045.83 -1.35308 4.12158 0
M  V30 22193 H 2046.5 -2.87679 4.7111 0
M  V30 22194 H 2048.97 -3.08232 2.79522 0
M  V30 22195 H 2047.85 -4.35106 3.34625 0
M  V30 22196 H 2048.11 -4.11119 1.62583 0
M  V30 22197 N 2047.17 -1.31814 -0.863883 0
M  V30 22198 C 2048.12 -1.19976 -1.97166 0
M  V30 22199 C 2049.09 -0.0840886 -1.65887 0
M  V30 22200 O 2050.27 -0.258021 -1.89047 0
M  V30 22201 C 2047.41 -0.919316 -3.3263 0
M  V30 22202 C 2046.52 -2.1189 -3.76466 0
M  V30 22203 C 2045.66 -1.77472 -5.00677 0
M  V30 22204 C 2044.7 -2.93804 -5.36978 0
M  V30 22205 N 2043.83 -2.59541 -6.52367 0
M  V30 22206 H 2048.67 -2.14735 -2.06623 0
M  V30 22207 H 2046.21 -1.06811 -1.01143 0
M  V30 22208 H 2048.17 -0.737251 -4.10634 0
M  V30 22209 H 2046.8 -0.0085443 -3.22799 0
M  V30 22210 H 2045.85 -2.41154 -2.94192 0
M  V30 22211 H 2047.16 -2.98939 -3.99295 0
M  V30 22212 H 2046.32 -1.55764 -5.86364 0
M  V30 22213 H 2045.06 -0.876231 -4.79764 0
M  V30 22214 H 2044.06 -3.16154 -4.49807 0
M  V30 22215 H 2045.29 -3.84371 -5.59853 0
M  V30 22216 H 2043.23 -1.72222 -6.32989 0
M  V30 22217 H 2043.15 -3.4012 -6.7517 0
M  V30 22218 H 2044.42 -2.4124 -7.41231 0
M  V30 22219 N 2048.65 1.07897 -1.14873 0
M  V30 22220 C 2049.58 2.16955 -0.863287 0
M  V30 22221 C 2050.56 1.69103 0.183853 0
M  V30 22222 O 2051.74 1.9416 0.0394136 0
M  V30 22223 C 2048.87 3.45575 -0.345696 0
M  V30 22224 C 2047.83 4.06847 -1.32888 0
M  V30 22225 C 2047.15 5.30481 -0.670367 0
M  V30 22226 C 2048.45 4.47523 -2.69296 0
M  V30 22227 H 2050.15 2.41091 -1.77526 0
M  V30 22228 H 2047.69 1.1587 -0.854991 0
M  V30 22229 H 2049.65 4.21188 -0.133575 0
M  V30 22230 H 2048.37 3.21009 0.601722 0
M  V30 22231 H 2047.03 3.33272 -1.52726 0
M  V30 22232 H 2046.68 5.02203 0.283023 0
M  V30 22233 H 2046.38 5.72433 -1.32645 0
M  V30 22234 H 2047.9 6.08805 -0.467891 0
M  V30 22235 H 2049.31 5.1429 -2.53335 0
M  V30 22236 H 2047.71 5.00409 -3.31226 0
M  V30 22237 H 2048.78 3.59159 -3.2578 0
M  V30 22238 N 2050.12 0.944665 1.2615 0
M  V30 22239 C 2051.05 0.47478 2.28622 0
M  V30 22240 C 2052.04 -0.473742 1.6337 0
M  V30 22241 O 2053.22 -0.374847 1.90548 0
M  V30 22242 C 2050.35 -0.2576 3.46343 0
M  V30 22243 C 2049.3 0.604701 4.23707 0
M  V30 22244 C 2048.63 -0.257841 5.34078 0
M  V30 22245 C 2049.93 1.8778 4.87377 0
M  V30 22246 H 2051.62 1.33122 2.68177 0
M  V30 22247 H 2049.17 0.641555 1.28919 0
M  V30 22248 H 2051.12 -0.597382 4.17144 0
M  V30 22249 H 2049.85 -1.14821 3.05751 0
M  V30 22250 H 2048.51 0.927426 3.54675 0
M  V30 22251 H 2048.15 -1.1479 4.89727 0
M  V30 22252 H 2047.85 0.315739 5.86751 0
M  V30 22253 H 2049.38 -0.592815 6.07715 0
M  V30 22254 H 2050.79 1.60505 5.50374 0
M  V30 22255 H 2049.19 2.39623 5.50182 0
M  V30 22256 H 2050.26 2.58705 4.10122 0
M  V30 22257 N 2051.6 -1.40596 0.712085 0
M  V30 22258 C 2052.83 -2.05787 0.258197 0
M  V30 22259 C 2053.25 -1.53289 -1.09015 0
M  V30 22260 O 2052.61 -0.666771 -1.68594 0
M  V30 22261 C 2052.66 -3.59771 0.244357 0
M  V30 22262 O 2051.76 -4.05042 -0.77555 0
M  V30 22263 H 2051.1 -0.652692 0.12202 0
M  V30 22264 H 2053.63 -1.80059 0.971583 0
M  V30 22265 H 2053.64 -4.0792 0.0808437 0
M  V30 22266 H 2052.32 -3.97347 1.22834 0
M  V30 22267 H 2050.9 -3.68361 -0.580045 0
M  V30 22268 N 2053.08 -0.458013 -1.50798 0
M  V30 22269 C 2054.5 -0.111425 -1.59211 0
M  V30 22270 C 2054.7 1.38104 -1.46729 0
M  V30 22271 O 2053.75 2.15306 -1.31907 0
M  V30 22272 C 2055.07 -0.649971 -2.93591 0
M  V30 22273 C 2056.61 -0.612237 -3.06954 0
M  V30 22274 C 2057.09 -1.1281 -4.43889 0
M  V30 22275 N 2058.58 -1.08696 -4.50266 0
M  V30 22276 C 2059.31 -1.45676 -5.54586 0
M  V30 22277 N 2058.81 -1.90042 -6.66225 0
M  V30 22278 N 2060.6 -1.37362 -5.45058 0
M  V30 22279 H 2052.75 -1.42885 -1.57155 0
M  V30 22280 H 2055.02 -0.590085 -0.741959 0
M  V30 22281 H 2054.72 -1.695 -3.0816 0
M  V30 22282 H 2054.6 -0.0862666 -3.77101 0
M  V30 22283 H 2056.98 0.42385 -2.9204 0
M  V30 22284 H 2057.07 -1.21259 -2.25233 0
M  V30 22285 H 2056.71 -2.16276 -4.59551 0
M  V30 22286 H 2056.64 -0.50409 -5.24182 0
M  V30 22287 H 2059.13 -0.761406 -3.7015 0
M  V30 22288 H 2059.44 -2.16442 -7.41871 0
M  V30 22289 H 2057.79 -1.93985 -6.67379 0
M  V30 22290 H 2060.98 -1.02552 -4.56728 0
M  V30 22291 H 2061.15 -1.66508 -6.26242 0
M  V30 22292 N 2054.56 1.56449 -0.190119 0
M  V30 22293 C 2055.81 1.97048 0.449068 0
M  V30 22294 C 2056.13 1.07797 1.62496 0
M  V30 22295 O 2055.4 0.148203 1.95339 0
M  V30 22296 H 2053.98 0.727656 0.168896 0
M  V30 22297 H 2056.64 1.9294 -0.275691 0
M  V30 22298 H 2055.74 3.01764 0.79653 0
M  V30 22299 N 2056.04 -0.0835127 1.57379 0
M  V30 22300 C 2056.95 -1.11858 2.06216 0
M  V30 22301 C 2057.96 -1.43137 0.989333 0
M  V30 22302 O 2059.14 -1.53548 1.30327 0
M  V30 22303 C 2056.2 -2.41603 2.48655 0
M  V30 22304 C 2055.27 -2.17401 3.70183 0
M  V30 22305 C 2054.5 -3.40959 4.10588 0
M  V30 22306 O 2054.72 -4.49637 3.50974 0
M  V30 22307 O 2053.66 -3.29863 5.03462 0
M  V30 22308 H 2057.48 -0.733741 2.94703 0
M  V30 22309 H 2055.07 -0.296834 1.46421 0
M  V30 22310 H 2056.95 -3.1798 2.76526 0
M  V30 22311 H 2055.62 -2.7949 1.63301 0
M  V30 22312 H 2054.53 -1.38767 3.47411 0
M  V30 22313 H 2055.86 -1.84401 4.56352 0
M  V30 22314 N 2057.52 -1.53558 -0.354624 0
M  V30 22315 C 2058.76 -1.69934 -1.09393 0
M  V30 22316 C 2059.08 -0.459423 -1.89511 0
M  V30 22317 O 2058.35 0.526608 -1.88689 0
M  V30 22318 H 2056.93 -0.626487 -0.406845 0
M  V30 22319 H 2059.6 -1.90781 -0.398582 0
M  V30 22320 H 2058.69 -2.56533 -1.77757 0
M  V30 22321 N 2058.99 0.615033 -1.45104 0
M  V30 22322 C 2060.24 1.37029 -1.48007 0
M  V30 22323 C 2060.56 1.95213 -0.122939 0
M  V30 22324 O 2061.76 2.71484 -0.0295763 0
M  V30 22325 C 2060.22 2.48178 -2.60645 0
M  V30 22326 C 2059.83 1.96437 -4.02637 0
M  V30 22327 C 2061.57 3.25251 -2.72786 0
M  V30 22328 C 2059.48 3.05024 -5.0667 0
M  V30 22329 H 2058.41 0.515004 -0.550715 0
M  V30 22330 H 2061.06 0.659974 -1.71221 0
M  V30 22331 H 2059.44 3.2186 -2.307 0
M  V30 22332 H 2060.61 1.29514 -4.42225 0
M  V30 22333 H 2058.93 1.32132 -3.9488 0
M  V30 22334 H 2061.53 4.06229 -3.47681 0
M  V30 22335 H 2061.87 3.75776 -1.7916 0
M  V30 22336 H 2062.4 2.58666 -3.0222 0
M  V30 22337 H 2059.14 2.59425 -6.01979 0
M  V30 22338 H 2058.66 3.70538 -4.71658 0
M  V30 22339 H 2060.34 3.69532 -5.31089 0
M  V30 22340 N 2060.47 1.3227 0.85688 0
M  V30 22341 C 2061.89 1.11212 1.14473 0
M  V30 22342 C 2062.09 -0.108857 2.01206 0
M  V30 22343 O 2061.14 -0.7944 2.39678 0
M  V30 22344 C 2062.46 2.39046 1.82421 0
M  V30 22345 C 2064 2.44782 1.95066 0
M  V30 22346 C 2064.48 3.72531 2.66429 0
M  V30 22347 N 2065.97 3.735 2.73956 0
M  V30 22348 C 2066.71 4.69049 3.29819 0
M  V30 22349 N 2066.2 5.74963 3.86509 0
M  V30 22350 N 2067.99 4.5655 3.27901 0
M  V30 22351 H 2060.15 2.10557 0.279231 0
M  V30 22352 H 2062.41 0.929507 0.186337 0
M  V30 22353 H 2062.11 3.28299 1.26145 0
M  V30 22354 H 2061.99 2.49838 2.82596 0
M  V30 22355 H 2064.38 1.5599 2.50502 0
M  V30 22356 H 2064.46 2.37944 0.938939 0
M  V30 22357 H 2064.1 4.61696 2.11658 0
M  V30 22358 H 2064.03 3.76639 3.68036 0
M  V30 22359 H 2066.52 2.96945 2.33735 0
M  V30 22360 H 2066.83 6.43931 4.27285 0
M  V30 22361 H 2065.18 5.7872 3.84848 0
M  V30 22362 H 2068.37 3.72973 2.82858 0
M  V30 22363 H 2068.54 5.31189 3.71136 0
M  V30 22364 N 2061.95 -1.07287 1.15444 0
M  V30 22365 C 2063.18 -1.83614 0.953597 0
M  V30 22366 C 2063.59 -1.82111 -0.498116 0
M  V30 22367 O 2062.95 -1.233 -1.34548 0
M  V30 22368 C 2063 -3.30668 1.46086 0
M  V30 22369 O 2062.72 -3.32236 2.85571 0
M  V30 22370 C 2064.22 -4.23761 1.3016 0
M  V30 22371 H 2061.44 -0.57928 0.338638 0
M  V30 22372 H 2063.99 -1.35426 1.53232 0
M  V30 22373 H 2062.14 -3.76203 0.924647 0
M  V30 22374 H 2062.56 -4.24117 3.08585 0
M  V30 22375 H 2064.03 -5.25009 1.70497 0
M  V30 22376 H 2064.51 -4.38511 0.245852 0
M  V30 22377 H 2065.11 -3.84062 1.82692 0
M  V30 22378 N 2063.43 -0.951342 -1.25647 0
M  V30 22379 C 2064.36 -0.486897 -2.28367 0
M  V30 22380 C 2065.34 0.465072 -1.63619 0
M  V30 22381 O 2066.52 0.364737 -1.90744 0
M  V30 22382 C 2063.65 0.239229 -3.46475 0
M  V30 22383 C 2062.61 -0.627163 -4.2338 0
M  V30 22384 C 2061.93 0.229514 -5.34207 0
M  V30 22385 C 2063.23 -1.90362 -4.86374 0
M  V30 22386 H 2064.93 -1.34542 -2.67467 0
M  V30 22387 H 2062.47 -0.648383 -1.28577 0
M  V30 22388 H 2064.43 0.575251 -4.17455 0
M  V30 22389 H 2063.15 1.13197 -3.06356 0
M  V30 22390 H 2061.81 -0.946222 -3.54178 0
M  V30 22391 H 2061.46 1.12192 -4.90328 0
M  V30 22392 H 2061.16 -0.346852 -5.86575 0
M  V30 22393 H 2062.68 0.560578 -6.08021 0
M  V30 22394 H 2064.1 -1.63422 -5.49515 0
M  V30 22395 H 2062.49 -2.42538 -5.48904 0
M  V30 22396 H 2063.56 -2.60876 -4.08744 0
M  V30 22397 N 2064.91 1.40216 -0.719531 0
M  V30 22398 C 2065.84 2.33348 -0.08432 0
M  V30 22399 C 2066.82 1.53101 0.741225 0
M  V30 22400 O 2068 1.81553 0.68935 0
M  V30 22401 C 2065.13 3.37106 0.835256 0
M  V30 22402 C 2064.09 4.27845 0.115036 0
M  V30 22403 C 2063.41 5.22174 1.15059 0
M  V30 22404 C 2064.71 5.1198 -1.03314 0
M  V30 22405 H 2066.41 2.86716 -0.862219 0
M  V30 22406 H 2063.95 1.37858 -0.416073 0
M  V30 22407 H 2065.9 4.012 1.28905 0
M  V30 22408 H 2064.63 2.82142 1.6451 0
M  V30 22409 H 2063.29 3.6521 -0.318975 0
M  V30 22410 H 2062.94 4.63513 1.95359 0
M  V30 22411 H 2062.64 5.83727 0.673556 0
M  V30 22412 H 2064.16 5.89144 1.60441 0
M  V30 22413 H 2065.57 5.69505 -0.658522 0
M  V30 22414 H 2063.97 5.82596 -1.4388 0
M  V30 22415 H 2065.04 4.47725 -1.86199 0
M  V30 22416 N 2066.38 0.466004 1.50553 0
M  V30 22417 C 2067.63 -0.0830139 2.03231 0
M  V30 22418 C 2067.98 -1.37862 1.34209 0
M  V30 22419 O 2067.28 -1.86064 0.457247 0
M  V30 22420 C 2067.47 -0.32772 3.55894 0
M  V30 22421 C 2067.3 0.942614 4.3971 0
M  V30 22422 C 2066.07 1.48445 4.83003 0
M  V30 22423 C 2068.27 1.83663 4.80388 0
M  V30 22424 N 2066.25 2.70434 5.51125 0
M  V30 22425 C 2067.62 2.90242 5.47868 0
M  V30 22426 C 2069.68 1.84762 4.6235 0
M  V30 22427 C 2068.38 3.97902 5.99222 0
M  V30 22428 C 2070.41 2.91375 5.1464 0
M  V30 22429 C 2069.77 3.96673 5.82091 0
M  V30 22430 H 2065.87 0.00952102 0.781942 0
M  V30 22431 H 2068.45 0.633077 1.8412 0
M  V30 22432 H 2066.62 -1.01285 3.74961 0
M  V30 22433 H 2068.35 -0.870629 3.95224 0
M  V30 22434 H 2065.11 1.03435 4.62167 0
M  V30 22435 H 2065.53 3.32371 5.89796 0
M  V30 22436 H 2070.17 1.04674 4.09638 0
M  V30 22437 H 2067.89 4.7881 6.50973 0
M  V30 22438 H 2071.48 2.93203 5.02517 0
M  V30 22439 H 2070.36 4.77812 6.21824 0
M  V30 22440 N 2067.86 -1.56346 0.198413 0
M  V30 22441 C 2069.09 -2.02058 -0.444989 0
M  V30 22442 C 2069.5 -1.07852 -1.54963 0
M  V30 22443 O 2068.86 -0.0839717 -1.82307 0
M  V30 22444 C 2068.91 -3.47445 -0.99822 0
M  V30 22445 O 2068.63 -4.38056 0.0623476 0
M  V30 22446 C 2070.13 -4.08691 -1.71717 0
M  V30 22447 H 2067.35 -0.661691 -0.111383 0
M  V30 22448 H 2069.9 -2.02166 0.308092 0
M  V30 22449 H 2068.05 -3.48026 -1.70167 0
M  V30 22450 H 2068.47 -5.23331 -0.349939 0
M  V30 22451 H 2069.94 -5.1226 -2.05654 0
M  V30 22452 H 2070.42 -3.52341 -2.62207 0
M  V30 22453 H 2071.02 -4.11892 -1.05949 0
M  V30 22454 N 2069.34 0.0751653 -1.57421 0
M  V30 22455 C 2070.59 0.774958 -1.87085 0
M  V30 22456 C 2070.92 1.77747 -0.789691 0
M  V30 22457 O 2070.17 1.94519 0.214672 0
M  V30 22458 C 2070.47 1.52138 -3.23402 0
M  V30 22459 C 2070.14 0.659153 -4.46056 0
M  V30 22460 C 2068.8 0.421528 -4.7935 0
M  V30 22461 C 2071.15 0.0610407 -5.21164 0
M  V30 22462 C 2068.48 -0.423745 -5.85168 0
M  V30 22463 C 2070.83 -0.771668 -6.27876 0
M  V30 22464 C 2069.49 -1.0192 -6.59673 0
M  V30 22465 H 2068.76 0.283577 -0.684591 0
M  V30 22466 H 2071.41 0.0358311 -1.91466 0
M  V30 22467 H 2069.72 2.33261 -3.14796 0
M  V30 22468 H 2071.41 2.06757 -3.43588 0
M  V30 22469 H 2068 0.854487 -4.19996 0
M  V30 22470 H 2072.19 0.231747 -4.95759 0
M  V30 22471 H 2067.44 -0.6243 -6.08204 0
M  V30 22472 H 2071.62 -1.24188 -6.85237 0
M  V30 22473 H 2069.24 -1.67595 -7.41496 0
M  V30 22474 N 2070.82 1.53744 0.346476 0
M  V30 22475 C 2072.07 1.70066 1.08445 0
M  V30 22476 C 2072.38 0.469013 1.89894 0
M  V30 22477 O 2073.59 0.513127 2.66607 0
M  V30 22478 C 2072.04 3.00716 1.97732 0
M  V30 22479 C 2071.65 4.31208 1.21504 0
M  V30 22480 C 2073.39 3.26404 2.71405 0
M  V30 22481 C 2071.3 5.52934 2.09804 0
M  V30 22482 H 2070.23 0.633711 0.408567 0
M  V30 22483 H 2072.88 1.80244 0.344133 0
M  V30 22484 H 2071.26 2.84388 2.75572 0
M  V30 22485 H 2072.44 4.5823 0.485955 0
M  V30 22486 H 2070.75 4.12111 0.596126 0
M  V30 22487 H 2073.35 4.14536 3.37733 0
M  V30 22488 H 2073.69 2.43286 3.37813 0
M  V30 22489 H 2074.23 3.43495 2.0064 0
M  V30 22490 H 2070.97 6.38587 1.47943 0
M  V30 22491 H 2070.49 5.30164 2.8051 0
M  V30 22492 H 2072.16 5.88463 2.68924 0
M  V30 22493 N 2072.3 -0.607329 1.45428 0
M  V30 22494 C 2073.24 -1.71802 1.54119 0
M  V30 22495 C 2074.21 -1.61527 0.387071 0
M  V30 22496 O 2075.4 -1.81102 0.60055 0
M  V30 22497 C 2072.54 -3.10112 1.5141 0
M  V30 22498 C 2071.65 -3.31191 2.77375 0
M  V30 22499 C 2070.79 -4.59608 2.66335 0
M  V30 22500 C 2069.83 -4.73946 3.87353 0
M  V30 22501 N 2068.96 -5.93662 3.74846 0
M  V30 22502 H 2073.8 -1.6371 2.49004 0
M  V30 22503 H 2071.34 -0.798251 1.23557 0
M  V30 22504 H 2073.3 -3.90132 1.47826 0
M  V30 22505 H 2071.93 -3.17161 0.600749 0
M  V30 22506 H 2070.98 -2.44944 2.91044 0
M  V30 22507 H 2072.29 -3.37658 3.67135 0
M  V30 22508 H 2071.45 -5.47823 2.60719 0
M  V30 22509 H 2070.18 -4.55538 1.74174 0
M  V30 22510 H 2069.19 -3.84153 3.93327 0
M  V30 22511 H 2070.41 -4.79812 4.8058 0
M  V30 22512 H 2068.36 -5.90637 2.85454 0
M  V30 22513 H 2068.28 -6.01291 4.58241 0
M  V30 22514 H 2069.55 -6.84375 3.73163 0
M  V30 22515 N 2073.77 -1.32722 -0.849853 0
M  V30 22516 C 2075 -1.2671 -1.64193 0
M  V30 22517 C 2075.42 0.161092 -1.87409 0
M  V30 22518 O 2074.78 1.11408 -1.43031 0
M  V30 22519 C 2074.83 -2.03686 -2.97564 0
M  V30 22520 O 2073.93 -1.38794 -3.88343 0
M  V30 22521 H 2073.28 -0.436459 -0.5004 0
M  V30 22522 H 2075.81 -1.75113 -1.05813 0
M  V30 22523 H 2075.82 -2.1404 -3.47349 0
M  V30 22524 H 2074.49 -3.07537 -2.79989 0
M  V30 22525 H 2073.07 -1.37018 -3.46815 0
M  V30 22526 N 2075.25 1.06673 -1.16011 0
M  V30 22527 C 2076.5 1.794 -0.939249 0
M  V30 22528 C 2076.83 1.87049 0.533193 0
M  V30 22529 O 2076.08 1.35544 1.4116 0
M  V30 22530 C 2076.38 3.24069 -1.50712 0
M  V30 22531 C 2076.05 3.36507 -3.00123 0
M  V30 22532 C 2074.71 3.39609 -3.4091 0
M  V30 22533 C 2077.06 3.38741 -3.96111 0
M  V30 22534 C 2074.39 3.42556 -4.76311 0
M  V30 22535 C 2076.74 3.43226 -5.31393 0
M  V30 22536 C 2075.41 3.44608 -5.71665 0
M  V30 22537 H 2074.68 0.656471 -0.343696 0
M  V30 22538 H 2077.32 1.25476 -1.44665 0
M  V30 22539 H 2075.63 3.80819 -0.921077 0
M  V30 22540 H 2077.32 3.78931 -1.31196 0
M  V30 22541 H 2073.91 3.34796 -2.676 0
M  V30 22542 H 2078.1 3.35559 -3.65669 0
M  V30 22543 H 2073.35 3.41928 -5.06848 0
M  V30 22544 H 2077.53 3.43902 -6.05561 0
M  V30 22545 H 2075.16 3.46645 -6.76566 0
M  V30 22546 N 2076.73 0.957992 1.25141 0
M  V30 22547 C 2077.66 0.438189 2.24972 0
M  V30 22548 C 2078.68 -0.447769 1.56521 0
M  V30 22549 O 2079.86 -0.255506 1.76662 0
M  V30 22550 C 2076.96 -0.387644 3.36676 0
M  V30 22551 C 2076.14 0.486109 4.3469 0
M  V30 22552 C 2075.2 -0.282086 5.25443 0
M  V30 22553 O 2074.22 0.320666 5.68296 0
M  V30 22554 N 2075.42 -1.57428 5.58746 0
M  V30 22555 H 2078.19 1.29648 2.70206 0
M  V30 22556 H 2075.75 0.828726 1.39082 0
M  V30 22557 H 2077.74 -0.909356 3.94351 0
M  V30 22558 H 2076.31 -1.14681 2.90804 0
M  V30 22559 H 2075.53 1.18889 3.75844 0
M  V30 22560 H 2076.82 1.08236 4.97154 0
M  V30 22561 H 2076.22 -2.08586 5.25841 0
M  V30 22562 H 2074.78 -2.04189 6.18991 0
M  V30 22563 N 2078.21 -1.39832 0.726957 0
M  V30 22564 C 2079.17 -2.29022 0.0903329 0
M  V30 22565 C 2080.17 -1.45921 -0.675553 0
M  V30 22566 O 2081.36 -1.66696 -0.505765 0
M  V30 22567 C 2078.49 -3.29304 -0.881584 0
M  V30 22568 H 2079.69 -2.86821 0.87601 0
M  V30 22569 H 2077.24 -1.48345 0.492294 0
M  V30 22570 H 2077.97 -2.76545 -1.69391 0
M  V30 22571 H 2077.76 -3.90665 -0.33514 0
M  V30 22572 H 2079.25 -3.96061 -1.32384 0
M  V30 22573 N 2079.69 -0.473982 -1.50304 0
M  V30 22574 C 2080.62 0.308532 -2.31453 0
M  V30 22575 C 2081.6 0.987678 -1.38488 0
M  V30 22576 O 2082.78 0.984294 -1.67408 0
M  V30 22577 C 2079.91 1.38921 -3.18305 0
M  V30 22578 C 2078.87 0.831509 -4.19845 0
M  V30 22579 C 2078.19 2.0107 -4.95454 0
M  V30 22580 C 2079.49 -0.159166 -5.22057 0
M  V30 22581 H 2081.19 -0.368757 -2.9712 0
M  V30 22582 H 2078.73 -0.178787 -1.42886 0
M  V30 22583 H 2080.69 1.94415 -3.73873 0
M  V30 22584 H 2079.41 2.09531 -2.50528 0
M  V30 22585 H 2078.07 0.298526 -3.65383 0
M  V30 22586 H 2077.72 2.70384 -4.24148 0
M  V30 22587 H 2077.42 1.64374 -5.64141 0
M  V30 22588 H 2078.94 2.57048 -5.53858 0
M  V30 22589 H 2080.35 0.306691 -5.72479 0
M  V30 22590 H 2078.75 -0.440549 -5.98481 0
M  V30 22591 H 2079.82 -1.08411 -4.72626 0
M  V30 22592 N 2081.16 1.56239 -0.206702 0
M  V30 22593 C 2082.58 1.84211 0.303832 0
M  V30 22594 C 2082.93 1.12771 1.60552 0
M  V30 22595 O 2082.05 0.392383 2.12813 0
M  V30 22596 C 2082.65 3.34173 0.558041 0
M  V30 22597 C 2081.21 3.62515 1.01292 0
M  V30 22598 C 2080.35 2.77217 0.0678344 0
M  V30 22599 H 2083.3 1.52757 -0.430235 0
M  V30 22600 H 2083.32 3.53573 1.40593 0
M  V30 22601 H 2082.84 3.8614 -0.38952 0
M  V30 22602 H 2080.94 3.15991 1.97435 0
M  V30 22603 H 2081.05 4.70617 0.8976 0
M  V30 22604 H 2079.41 2.48197 0.571888 0
M  V30 22605 H 2080.2 3.31978 -0.874377 0
M  V30 22606 N 2082.64 -0.0668159 1.57458 0
M  V30 22607 C 2083.87 -0.776687 1.91445 0
M  V30 22608 C 2084.28 -1.71389 0.801403 0
M  V30 22609 O 2083.62 -1.82206 -0.233788 0
M  V30 22610 C 2083.69 -1.61981 3.2094 0
M  V30 22611 C 2083.35 -0.851453 4.48998 0
M  V30 22612 C 2084.35 -0.168463 5.19627 0
M  V30 22613 C 2082.03 -0.817153 4.95609 0
M  V30 22614 C 2084.03 0.538543 6.35121 0
M  V30 22615 C 2081.71 -0.106378 6.11007 0
M  V30 22616 C 2082.71 0.570265 6.80615 0
M  V30 22617 O 2082.4 1.26958 7.93812 0
M  V30 22618 H 2082.13 -0.225698 0.63721 0
M  V30 22619 H 2084.68 -0.0398627 2.05361 0
M  V30 22620 H 2082.91 -2.39956 3.03246 0
M  V30 22621 H 2084.6 -2.20882 3.40538 0
M  V30 22622 H 2085.37 -0.186236 4.84642 0
M  V30 22623 H 2081.25 -1.33329 4.41299 0
M  V30 22624 H 2084.79 1.06725 6.89388 0
M  V30 22625 H 2080.69 -0.0865497 6.45442 0
M  V30 22626 H 2081.46 1.17936 8.09959 0
M  V30 22627 N 2084.12 -1.53926 -0.338317 0
M  V30 22628 C 2085.37 -1.71678 -1.07957 0
M  V30 22629 C 2085.7 -0.481294 -1.88141 0
M  V30 22630 O 2084.98 0.521709 -1.87372 0
M  V30 22631 C 2085.26 -2.98347 -2.01646 0
M  V30 22632 C 2085.11 -4.32114 -1.24889 0
M  V30 22633 C 2086.43 -3.20708 -3.01388 0
M  V30 22634 H 2083.55 -0.62468 -0.39108 0
M  V30 22635 H 2086.19 -1.86604 -0.357623 0
M  V30 22636 H 2084.34 -2.85752 -2.63207 0
M  V30 22637 H 2086.01 -4.56568 -0.659021 0
M  V30 22638 H 2084.26 -4.30287 -0.550962 0
M  V30 22639 H 2084.93 -5.16935 -1.93604 0
M  V30 22640 H 2087.4 -3.32667 -2.49943 0
M  V30 22641 H 2086.28 -4.10723 -3.6414 0
M  V30 22642 H 2086.54 -2.37246 -3.7305 0
M  V30 22643 N 2085.6 0.599608 -1.45748 0
M  V30 22644 C 2086.56 1.6918 -1.54631 0
M  V30 22645 C 2087.56 1.55081 -0.425029 0
M  V30 22646 O 2088.75 1.60004 -0.688782 0
M  V30 22647 C 2085.88 3.08502 -1.45049 0
M  V30 22648 H 2087.08 1.62667 -2.51951 0
M  V30 22649 H 2084.63 0.816022 -1.33307 0
M  V30 22650 H 2085.37 3.20585 -0.489439 0
M  V30 22651 H 2085.15 3.20144 -2.26386 0
M  V30 22652 H 2086.64 3.88042 -1.54315 0
M  V30 22653 N 2087.08 1.33171 0.842803 0
M  V30 22654 C 2088.01 1.2572 1.96766 0
M  V30 22655 C 2088.99 0.138574 1.69535 0
M  V30 22656 O 2090.17 0.327704 1.91415 0
M  V30 22657 C 2087.3 0.991637 3.32842 0
M  V30 22658 C 2086.26 2.07278 3.74459 0
M  V30 22659 C 2085.58 1.65942 5.08299 0
M  V30 22660 C 2086.88 3.48911 3.88662 0
M  V30 22661 H 2088.58 2.19834 2.03257 0
M  V30 22662 H 2086.12 1.05829 0.976533 0
M  V30 22663 H 2088.08 0.926021 4.111 0
M  V30 22664 H 2086.8 0.0148823 3.26597 0
M  V30 22665 H 2085.46 2.12875 2.98462 0
M  V30 22666 H 2085.11 0.669795 4.98521 0
M  V30 22667 H 2084.81 2.38288 5.37115 0
M  V30 22668 H 2086.33 1.60839 5.89036 0
M  V30 22669 H 2087.75 3.45837 4.57241 0
M  V30 22670 H 2086.14 4.1971 4.2891 0
M  V30 22671 H 2087.21 3.87705 2.91226 0
M  V30 22672 N 2088.56 -1.06056 1.16576 0
M  V30 22673 C 2089.49 -2.15554 0.897693 0
M  V30 22674 C 2090.47 -1.69375 -0.156927 0
M  V30 22675 O 2091.65 -1.94198 -0.00851939 0
M  V30 22676 C 2088.78 -3.44982 0.40063 0
M  V30 22677 C 2087.74 -4.04682 1.39343 0
M  V30 22678 C 2087.06 -5.29347 0.754677 0
M  V30 22679 C 2088.36 -4.43182 2.76381 0
M  V30 22680 H 2090.06 -2.38236 1.81339 0
M  V30 22681 H 2087.6 -1.14495 0.873316 0
M  V30 22682 H 2089.55 -4.20922 0.200566 0
M  V30 22683 H 2088.28 -3.21926 -0.550576 0
M  V30 22684 H 2086.94 -3.308 1.58009 0
M  V30 22685 H 2086.59 -5.0259 -0.203091 0
M  V30 22686 H 2086.29 -5.7025 1.41735 0
M  V30 22687 H 2087.81 -6.07983 0.564687 0
M  V30 22688 H 2089.22 -5.10195 2.61485 0
M  V30 22689 H 2087.62 -4.95076 3.39146 0
M  V30 22690 H 2088.69 -3.53931 3.31453 0
M  V30 22691 N 2090.03 -0.964615 -1.24631 0
M  V30 22692 C 2091.28 -0.620429 -1.91921 0
M  V30 22693 C 2091.6 0.847851 -1.76269 0
M  V30 22694 O 2092.8 1.30243 -2.38221 0
M  V30 22695 C 2091.26 -1.059 -3.43967 0
M  V30 22696 C 2090.87 -2.55052 -3.6831 0
M  V30 22697 C 2092.61 -0.787818 -4.17126 0
M  V30 22698 C 2090.52 -2.92658 -5.13912 0
M  V30 22699 H 2089.45 -0.22834 -0.718594 0
M  V30 22700 H 2092.1 -1.17041 -1.41328 0
M  V30 22701 H 2090.48 -0.437357 -3.93577 0
M  V30 22702 H 2091.65 -3.2232 -3.29312 0
M  V30 22703 H 2089.97 -2.79748 -3.08432 0
M  V30 22704 H 2092.57 -1.04483 -5.24392 0
M  V30 22705 H 2092.91 0.275932 -4.15385 0
M  V30 22706 H 2093.44 -1.37028 -3.73454 0
M  V30 22707 H 2090.18 -3.98091 -5.20772 0
M  V30 22708 H 2089.7 -2.30071 -5.5392 0
M  V30 22709 H 2091.38 -2.82395 -5.82119 0
M  V30 22710 N 2091.51 1.39445 -0.734362 0
M  V30 22711 C 2092.76 2.00824 -0.282443 0
M  V30 22712 C 2093.09 1.58137 1.12722 0
M  V30 22713 O 2092.37 0.809969 1.76833 0
M  V30 22714 C 2092.65 3.58051 -0.38359 0
M  V30 22715 C 2092.5 4.10758 -1.83298 0
M  V30 22716 C 2093.82 4.39476 0.234349 0
M  V30 22717 H 2090.94 0.729611 -0.104103 0
M  V30 22718 H 2093.58 1.65661 -0.930397 0
M  V30 22719 H 2091.73 3.88136 0.168068 0
M  V30 22720 H 2093.4 3.91395 -2.44147 0
M  V30 22721 H 2091.65 3.64342 -2.35451 0
M  V30 22722 H 2092.32 5.19897 -1.85503 0
M  V30 22723 H 2094.79 4.15431 -0.235909 0
M  V30 22724 H 2093.67 5.48738 0.133228 0
M  V30 22725 H 2093.93 4.21924 1.32032 0
M  V30 22726 N 2092.99 0.481946 1.5005 0
M  V30 22727 C 2093.92 -0.352787 2.25457 0
M  V30 22728 C 2094.9 -0.986902 1.29225 0
M  V30 22729 O 2096.08 -1.02072 1.58472 0
M  V30 22730 C 2093.21 -1.4952 3.0391 0
M  V30 22731 C 2092.26 -0.977381 4.1515 0
M  V30 22732 S 2093.09 0.116634 5.35373 0
M  V30 22733 C 2094.25 -1.0294 6.17377 0
M  V30 22734 H 2094.48 0.287284 2.95909 0
M  V30 22735 H 2092.01 0.266971 1.52074 0
M  V30 22736 H 2093.97 -2.14989 3.497 0
M  V30 22737 H 2092.63 -2.10682 2.32963 0
M  V30 22738 H 2091.82 -1.83296 4.69488 0
M  V30 22739 H 2091.43 -0.400227 3.71852 0
M  V30 22740 H 2093.72 -1.93874 6.49168 0
M  V30 22741 H 2094.66 -0.525055 7.06151 0
M  V30 22742 H 2095.07 -1.28813 5.49607 0
M  V30 22743 N 2094.47 -1.56127 0.214985 0
M  V30 22744 C 2095.4 -2.22991 -0.69263 0
M  V30 22745 C 2096.38 -1.19946 -1.20611 0
M  V30 22746 O 2097.56 -1.48512 -1.25131 0
M  V30 22747 C 2094.69 -2.90473 -1.90376 0
M  V30 22748 C 2093.65 -3.99933 -1.52439 0
M  V30 22749 C 2092.97 -4.54678 -2.81375 0
M  V30 22750 C 2094.27 -5.17323 -0.719325 0
M  V30 22751 H 2095.97 -2.99095 -0.135168 0
M  V30 22752 H 2093.51 -1.4386 -0.0635721 0
M  V30 22753 H 2095.47 -3.35938 -2.54408 0
M  V30 22754 H 2094.19 -2.11806 -2.48608 0
M  V30 22755 H 2092.85 -3.55189 -0.907557 0
M  V30 22756 H 2092.5 -3.72749 -3.37739 0
M  V30 22757 H 2092.2 -5.28549 -2.56729 0
M  V30 22758 H 2093.72 -5.02857 -3.46362 0
M  V30 22759 H 2095.14 -5.5921 -1.2632 0
M  V30 22760 H 2093.53 -5.97385 -0.570203 0
M  V30 22761 H 2094.6 -4.84117 0.275461 0
M  V30 22762 N 2095.95 0.0584645 -1.57492 0
M  V30 22763 C 2097.19 0.755071 -1.87896 0
M  V30 22764 C 2097.52 1.769 -0.808499 0
M  V30 22765 O 2096.78 1.94736 0.194028 0
M  V30 22766 C 2097.07 1.48699 -3.24998 0
M  V30 22767 C 2096.74 0.611806 -4.4673 0
M  V30 22768 C 2095.4 0.370663 -4.7977 0
M  V30 22769 C 2097.75 0.00576081 -5.212 0
M  V30 22770 C 2095.08 -0.485786 -5.84685 0
M  V30 22771 C 2097.43 -0.838219 -6.27022 0
M  V30 22772 C 2096.1 -1.08911 -6.58555 0
M  V30 22773 H 2095.37 0.2763 -0.68756 0
M  V30 22774 H 2098.02 0.0155215 -1.91494 0
M  V30 22775 H 2096.32 2.2991 -3.17252 0
M  V30 22776 H 2098.02 2.03101 -3.45761 0
M  V30 22777 H 2094.61 0.809892 -4.20878 0
M  V30 22778 H 2098.79 0.179152 -4.95977 0
M  V30 22779 H 2094.05 -0.688773 -6.07508 0
M  V30 22780 H 2098.22 -1.31449 -6.83882 0
M  V30 22781 H 2095.85 -1.7545 -7.39676 0
M  V30 22782 N 2097.42 1.54103 0.330149 0
M  V30 22783 C 2098.67 1.71993 1.06886 0
M  V30 22784 C 2099 0.490142 1.88223 0
M  V30 22785 O 2098.25 -0.528125 1.88439 0
M  V30 22786 C 2098.55 2.94358 2.02702 0
M  V30 22787 C 2098.22 4.294 1.37572 0
M  V30 22788 C 2096.88 4.66116 1.1954 0
M  V30 22789 C 2099.23 5.13235 0.907703 0
M  V30 22790 C 2096.56 5.8427 0.533447 0
M  V30 22791 C 2098.91 6.32067 0.259603 0
M  V30 22792 C 2097.58 6.67466 0.0670758 0
M  V30 22793 H 2096.85 0.629366 0.391125 0
M  V30 22794 H 2099.49 1.88335 0.346701 0
M  V30 22795 H 2097.8 2.72675 2.81346 0
M  V30 22796 H 2099.5 3.05394 2.59877 0
M  V30 22797 H 2096.09 4.00511 1.52608 0
M  V30 22798 H 2100.27 4.85392 1.03482 0
M  V30 22799 H 2095.53 6.10261 0.373022 0
M  V30 22800 H 2099.7 6.96311 -0.111078 0
M  V30 22801 H 2097.33 7.58879 -0.447886 0
M  V30 22802 N 2098.9 -0.59187 1.46064 0
M  V30 22803 C 2100.15 -1.34657 1.50168 0
M  V30 22804 C 2100.46 -1.94993 0.153981 0
M  V30 22805 O 2101.67 -2.71402 0.0727633 0
M  V30 22806 C 2100.13 -2.44 2.6456 0
M  V30 22807 C 2099.73 -1.90007 4.05711 0
M  V30 22808 C 2101.48 -3.2087 2.77926 0
M  V30 22809 C 2099.39 -2.96925 5.11458 0
M  V30 22810 H 2098.32 -0.506178 0.558838 0
M  V30 22811 H 2100.97 -0.632651 1.72249 0
M  V30 22812 H 2099.35 -3.18149 2.35791 0
M  V30 22813 H 2100.52 -1.22462 4.44229 0
M  V30 22814 H 2098.84 -1.25833 3.96932 0
M  V30 22815 H 2101.43 -4.00647 3.54099 0
M  V30 22816 H 2101.78 -3.72878 1.85115 0
M  V30 22817 H 2102.31 -2.53825 3.06296 0
M  V30 22818 H 2099.05 -2.49815 6.0603 0
M  V30 22819 H 2098.57 -3.62987 4.77494 0
M  V30 22820 H 2100.25 -3.61036 5.369 0
M  V30 22821 N 2100.38 -1.33616 -0.835729 0
M  V30 22822 C 2101.61 -1.28111 -1.62084 0
M  V30 22823 C 2102.02 0.149577 -1.88608 0
M  V30 22824 O 2101.36 1.10314 -1.4689 0
M  V30 22825 C 2101.42 -1.99073 -2.9935 0
M  V30 22826 C 2101.09 -3.48371 -2.95781 0
M  V30 22827 C 2102.08 -4.43516 -2.71273 0
M  V30 22828 C 2099.77 -3.90595 -3.15818 0
M  V30 22829 C 2101.76 -5.78859 -2.66835 0
M  V30 22830 C 2099.45 -5.26041 -3.11004 0
M  V30 22831 C 2100.45 -6.19985 -2.86544 0
M  V30 22832 O 2100.14 -7.5295 -2.8164 0
M  V30 22833 H 2099.87 -0.442615 -0.510948 0
M  V30 22834 H 2102.42 -1.76601 -1.04887 0
M  V30 22835 H 2100.65 -1.45179 -3.58413 0
M  V30 22836 H 2102.34 -1.87026 -3.60245 0
M  V30 22837 H 2103.11 -4.12218 -2.55541 0
M  V30 22838 H 2098.99 -3.1788 -3.33876 0
M  V30 22839 H 2102.53 -6.52157 -2.47663 0
M  V30 22840 H 2098.43 -5.56963 -3.26286 0
M  V30 22841 H 2099.2 -7.62535 -2.97459 0
M  V30 22842 N 2101.86 1.05436 -1.17136 0
M  V30 22843 C 2102.82 2.11293 -0.888146 0
M  V30 22844 C 2103.82 1.60347 0.120621 0
M  V30 22845 O 2105.01 1.73844 -0.111266 0
M  V30 22846 C 2102.14 3.393 -0.329871 0
M  V30 22847 H 2103.34 2.3785 -1.82667 0
M  V30 22848 H 2100.89 1.21641 -0.981486 0
M  V30 22849 H 2101.62 3.18397 0.61592 0
M  V30 22850 H 2101.41 3.77588 -1.05687 0
M  V30 22851 H 2102.9 4.17331 -0.149954 0
M  V30 22852 N 2103.34 0.971211 1.24118 0
M  V30 22853 C 2104.58 0.635963 1.9257 0
M  V30 22854 C 2104.92 -0.827222 1.75701 0
M  V30 22855 O 2104.19 -1.59559 1.11226 0
M  V30 22856 C 2104.47 1.01581 3.45476 0
M  V30 22857 C 2104.33 2.53595 3.71497 0
M  V30 22858 C 2105.65 0.552941 4.36613 0
M  V30 22859 H 2102.76 0.232516 0.699361 0
M  V30 22860 H 2105.41 1.21085 1.46419 0
M  V30 22861 H 2103.56 0.526628 3.84914 0
M  V30 22862 H 2105.23 3.10016 3.41596 0
M  V30 22863 H 2103.47 2.96637 3.16526 0
M  V30 22864 H 2104.14 2.75222 4.78494 0
M  V30 22865 H 2106.62 0.972795 4.04569 0
M  V30 22866 H 2105.49 0.847244 5.42322 0
M  V30 22867 H 2105.76 -0.54692 4.38704 0
M  V30 22868 N 2104.81 -1.39054 0.741747 0
M  V30 22869 C 2106.06 -1.99612 0.289503 0
M  V30 22870 C 2106.38 -1.59538 -1.13168 0
M  V30 22871 O 2107.58 -2.12981 -1.68379 0
M  V30 22872 C 2106.04 -3.56862 0.466657 0
M  V30 22873 C 2105.65 -4.05894 1.89616 0
M  V30 22874 C 2107.39 -4.24431 0.0765289 0
M  V30 22875 C 2105.3 -5.55742 2.0225 0
M  V30 22876 H 2104.23 -0.746725 0.10449 0
M  V30 22877 H 2106.88 -1.58968 0.916594 0
M  V30 22878 H 2105.26 -3.95335 -0.229437 0
M  V30 22879 H 2106.43 -3.78739 2.62475 0
M  V30 22880 H 2104.75 -3.5101 2.24011 0
M  V30 22881 H 2107.35 -5.3449 0.149851 0
M  V30 22882 H 2107.69 -4.04861 -0.969208 0
M  V30 22883 H 2108.22 -3.91156 0.724031 0
M  V30 22884 H 2104.96 -5.80201 3.05036 0
M  V30 22885 H 2104.48 -5.84678 1.33836 0
M  V30 22886 H 2106.16 -6.21258 1.80685 0
M  V30 22887 N 2106.29 -0.489897 -1.49792 0
M  V30 22888 C 2107.54 0.0584284 -2.02016 0
M  V30 22889 C 2107.86 1.38507 -1.37262 0
M  V30 22890 O 2107.13 1.88757 -0.524191 0
M  V30 22891 H 2105.71 0.0245828 -0.746595 0
M  V30 22892 H 2108.37 -0.644608 -1.83932 0
M  V30 22893 H 2107.47 0.196227 -3.11483 0
M  V30 22894 N 2107.77 1.56011 -0.223262 0
M  V30 22895 C 2108.7 2.16337 0.726193 0
M  V30 22896 C 2109.68 1.10827 1.18979 0
M  V30 22897 O 2110.87 1.39092 1.27223 0
M  V30 22898 C 2107.99 2.74503 1.98408 0
M  V30 22899 C 2107.04 3.92856 1.66031 0
M  V30 22900 S 2107.87 5.29736 0.783603 0
M  V30 22901 C 2109.03 5.91341 2.05102 0
M  V30 22902 H 2109.26 2.96533 0.213451 0
M  V30 22903 H 2106.79 1.54398 -0.00793866 0
M  V30 22904 H 2108.75 3.08655 2.70634 0
M  V30 22905 H 2107.41 1.94297 2.46794 0
M  V30 22906 H 2106.61 4.32063 2.59495 0
M  V30 22907 H 2106.21 3.5986 1.01867 0
M  V30 22908 H 2108.5 6.07419 3.00082 0
M  V30 22909 H 2109.44 6.87321 1.70283 0
M  V30 22910 H 2109.85 5.2019 2.19233 0
M  V30 22911 N 2109.25 -0.0501116 1.5752 0
M  V30 22912 C 2110.18 -1.08434 2.01928 0
M  V30 22913 C 2111.19 -1.33718 0.928613 0
M  V30 22914 O 2112.38 -1.31576 1.20623 0
M  V30 22915 C 2109.48 -2.43065 2.36162 0
M  V30 22916 C 2108.66 -2.37433 3.67347 0
M  V30 22917 C 2107.71 -3.54345 3.89007 0
M  V30 22918 O 2106.74 -3.3479 4.60331 0
M  V30 22919 N 2107.94 -4.75475 3.33022 0
M  V30 22920 H 2110.71 -0.705995 2.91266 0
M  V30 22921 H 2108.27 -0.238421 1.60135 0
M  V30 22922 H 2110.26 -3.19959 2.47807 0
M  V30 22923 H 2108.83 -2.72821 1.52603 0
M  V30 22924 H 2108.05 -1.45778 3.66254 0
M  V30 22925 H 2109.34 -2.30792 4.53445 0
M  V30 22926 H 2108.74 -4.94264 2.75171 0
M  V30 22927 H 2107.29 -5.49806 3.50081 0
M  V30 22928 N 2110.73 -1.54276 -0.321972 0
M  V30 22929 C 2111.97 -1.72813 -1.0613 0
M  V30 22930 C 2112.31 -0.501222 -1.8762 0
M  V30 22931 O 2111.58 0.501806 -1.87915 0
M  V30 22932 C 2111.86 -3.00469 -1.9847 0
M  V30 22933 C 2111.72 -4.33415 -1.20299 0
M  V30 22934 C 2113.04 -3.23886 -2.97969 0
M  V30 22935 H 2110.15 -0.628793 -0.384432 0
M  V30 22936 H 2112.8 -1.86973 -0.337811 0
M  V30 22937 H 2110.95 -2.88528 -2.60161 0
M  V30 22938 H 2112.62 -4.57242 -0.610559 0
M  V30 22939 H 2110.86 -4.30847 -0.505293 0
M  V30 22940 H 2111.53 -5.18959 -1.8811 0
M  V30 22941 H 2114.01 -3.353 -2.46401 0
M  V30 22942 H 2112.88 -4.14562 -3.59763 0
M  V30 22943 H 2113.15 -2.4119 -3.70513 0
M  V30 22944 N 2112.2 0.584116 -1.46376 0
M  V30 22945 C 2113.45 1.34238 -1.51613 0
M  V30 22946 C 2113.78 1.93779 -0.167271 0
M  V30 22947 O 2113.03 1.76902 0.836914 0
M  V30 22948 C 2113.33 2.49232 -2.56161 0
M  V30 22949 C 2113 2.07692 -4.00219 0
M  V30 22950 C 2111.66 1.96078 -4.39439 0
M  V30 22951 C 2114.01 1.75625 -4.90719 0
M  V30 22952 C 2111.34 1.50653 -5.67028 0
M  V30 22953 C 2113.69 1.3168 -6.18743 0
M  V30 22954 C 2112.36 1.18641 -6.56872 0
M  V30 22955 H 2111.63 0.491211 -0.554791 0
M  V30 22956 H 2114.27 0.657889 -1.79845 0
M  V30 22957 H 2112.58 3.23121 -2.21585 0
M  V30 22958 H 2114.28 3.07448 -2.57443 0
M  V30 22959 H 2110.87 2.17665 -3.69215 0
M  V30 22960 H 2115.05 1.83484 -4.61137 0
M  V30 22961 H 2110.31 1.39201 -5.95343 0
M  V30 22962 H 2114.48 1.0592 -6.88298 0
M  V30 22963 H 2112.11 0.832188 -7.55631 0
M  V30 22964 N 2113.68 1.34058 0.828631 0
M  V30 22965 C 2114.93 1.25844 1.58138 0
M  V30 22966 C 2115.25 -0.173004 1.94231 0
M  V30 22967 O 2114.52 -1.10425 1.61812 0
M  V30 22968 H 2113.1 0.4628 0.586366 0
M  V30 22969 H 2115.76 1.67901 0.989709 0
M  V30 22970 H 2114.86 1.85925 2.50676 0
M  V30 22971 N 2115.16 -1.04814 1.17694 0
M  V30 22972 C 2116.11 -2.12651 0.897118 0
M  V30 22973 C 2117.08 -1.65323 -0.160501 0
M  V30 22974 O 2118.26 -1.90787 -0.0224765 0
M  V30 22975 C 2115.4 -3.42526 0.420731 0
M  V30 22976 C 2114.52 -4.03508 1.54291 0
M  V30 22977 C 2113.65 -5.21315 1.02001 0
M  V30 22978 C 2112.69 -5.74311 2.11738 0
M  V30 22979 N 2111.83 -6.83415 1.60897 0
M  V30 22980 H 2116.67 -2.35925 1.82054 0
M  V30 22981 H 2114.2 -1.15736 0.907948 0
M  V30 22982 H 2116.16 -4.1701 0.126057 0
M  V30 22983 H 2114.79 -3.19423 -0.46572 0
M  V30 22984 H 2113.84 -3.26425 1.95323 0
M  V30 22985 H 2115.16 -4.38876 2.37042 0
M  V30 22986 H 2114.31 -6.02884 0.679408 0
M  V30 22987 H 2113.05 -4.87431 0.161982 0
M  V30 22988 H 2112.05 -4.91369 2.46651 0
M  V30 22989 H 2113.28 -6.10242 2.97963 0
M  V30 22990 H 2111.23 -6.51421 0.773715 0
M  V30 22991 H 2111.14 -7.17807 2.37252 0
M  V30 22992 H 2112.41 -7.68627 1.29741 0
M  V30 22993 N 2116.64 -0.977779 -1.23601 0
M  V30 22994 C 2117.89 -0.640749 -1.91252 0
M  V30 22995 C 2118.2 0.829108 -1.77159 0
M  V30 22996 O 2119.41 1.27709 -2.39589 0
M  V30 22997 C 2117.86 -1.09542 -3.42824 0
M  V30 22998 C 2117.47 -2.58944 -3.65584 0
M  V30 22999 C 2119.22 -0.832015 -4.16266 0
M  V30 23000 C 2117.12 -2.98092 -5.10779 0
M  V30 23001 H 2116.05 -0.235949 -0.716131 0
M  V30 23002 H 2118.7 -1.18533 -1.40079 0
M  V30 23003 H 2117.09 -0.479076 -3.93091 0
M  V30 23004 H 2118.26 -3.25795 -3.25875 0
M  V30 23005 H 2116.57 -2.83003 -3.05447 0
M  V30 23006 H 2119.17 -1.10039 -5.23255 0
M  V30 23007 H 2119.51 0.231859 -4.15654 0
M  V30 23008 H 2120.05 -1.40982 -3.7198 0
M  V30 23009 H 2116.79 -4.03592 -5.16521 0
M  V30 23010 H 2116.31 -2.35933 -5.51449 0
M  V30 23011 H 2117.99 -2.88553 -5.79091 0
M  V30 23012 N 2118.12 1.38658 -0.749111 0
M  V30 23013 C 2119.08 2.28849 -0.126757 0
M  V30 23014 C 2120.08 1.46977 0.652253 0
M  V30 23015 O 2121.27 1.6748 0.479181 0
M  V30 23016 C 2118.4 3.30665 0.829083 0
M  V30 23017 H 2119.6 2.85391 -0.921529 0
M  V30 23018 H 2117.15 1.47543 -0.515832 0
M  V30 23019 H 2117.88 2.79205 1.6497 0
M  V30 23020 H 2117.67 3.91149 0.272946 0
M  V30 23021 H 2119.16 3.98117 1.26067 0
M  V30 23022 N 2119.6 0.497834 1.49531 0
M  V30 23023 C 2120.53 -0.271671 2.31914 0
M  V30 23024 C 2121.51 -0.965521 1.40042 0
M  V30 23025 O 2122.69 -0.957536 1.68952 0
M  V30 23026 C 2119.82 -1.3384 3.20475 0
M  V30 23027 C 2118.78 -0.76461 4.21115 0
M  V30 23028 C 2118.1 -1.93162 4.98591 0
M  V30 23029 C 2119.4 0.242201 5.21738 0
M  V30 23030 H 2121.1 0.415979 2.96496 0
M  V30 23031 H 2118.64 0.201496 1.42583 0
M  V30 23032 H 2120.59 -1.88442 3.76918 0
M  V30 23033 H 2119.32 -2.05519 2.5383 0
M  V30 23034 H 2117.98 -0.240359 3.65811 0
M  V30 23035 H 2117.63 -2.63602 4.28396 0
M  V30 23036 H 2117.33 -1.55378 5.66685 0
M  V30 23037 H 2118.85 -2.48204 5.57877 0
M  V30 23038 H 2120.26 -0.215575 5.72895 0
M  V30 23039 H 2118.66 0.535707 5.97704 0
M  V30 23040 H 2119.73 1.15916 4.70841 0
M  V30 23041 N 2121.07 -1.5589 0.231532 0
M  V30 23042 C 2122.02 -2.22104 -0.690835 0
M  V30 23043 C 2123.02 -1.20363 -1.19202 0
M  V30 23044 O 2124.22 -1.38416 -1.1507 0
M  V30 23045 H 2120.6 -0.712259 -0.241228 0
M  V30 23046 H 2122.57 -2.98201 -0.109056 0
M  V30 23047 C 2121.32 -2.92249 -1.88377 0
M  V30 23048 H 2120.64 -3.703 -1.50725 0
M  V30 23049 H 2122.08 -3.41964 -2.50672 0
M  V30 23050 C 2120.54 -1.95268 -2.7454 0
M  V30 23051 O 2121.07 -1.47596 -3.73602 0
M  V30 23052 N 2119.27 -1.62701 -2.40783 0
M  V30 23053 H 2118.82 -2.01663 -1.6028 0
M  V30 23054 H 2118.78 -0.98076 -2.98711 0
M  V30 23055 N 2122.55 0.0417572 -1.57545 0
M  V30 23056 C 2123.83 0.769799 -1.79815 0
M  V30 23057 C 2124.21 1.94247 -0.826527 0
M  V30 23058 O 2123.56 2.28106 0.134058 0
M  V30 23059 C 2123.77 1.21472 -3.27178 0
M  V30 23060 C 2125.11 1.63585 -3.91823 0
M  V30 23061 O 2126.14 1.30963 -3.31251 0
M  V30 23062 O 2125 2.24087 -4.98445 0
M  V30 23063 H 2122.09 0.371214 -0.739005 0
M  V30 23064 H 2124.64 0.019513 -1.69689 0
M  V30 23065 H 2123.41 0.377014 -3.8948 0
M  V30 23066 H 2123.03 2.02541 -3.42144 0
M  V30 23067 N 2124.03 1.54445 0.313786 0
M  V30 23068 C 2125.26 1.77093 1.06985 0
M  V30 23069 C 2125.67 0.524216 1.81376 0
M  V30 23070 O 2125.03 -0.505482 1.7536 0
M  V30 23071 C 2125.08 2.97038 2.06036 0
M  V30 23072 O 2124.8 4.1689 1.34665 0
M  V30 23073 C 2126.3 3.31974 2.93783 0
M  V30 23074 H 2123.52 0.590955 0.317826 0
M  V30 23075 H 2126.07 2.01361 0.356942 0
M  V30 23076 H 2124.22 2.75015 2.72847 0
M  V30 23077 H 2124.64 4.84425 2.01078 0
M  V30 23078 H 2126.11 4.19176 3.5916 0
M  V30 23079 H 2126.59 2.49567 3.61404 0
M  V30 23080 H 2127.19 3.5611 2.3252 0
M  V30 23081 N 2125.51 -0.576345 1.46683 0
M  V30 23082 C 2126.74 -1.3602 1.55905 0
M  V30 23083 C 2127.15 -1.87712 0.202401 0
M  V30 23084 O 2126.51 -1.63966 -0.801346 0
M  V30 23085 C 2126.56 -2.54335 2.56897 0
M  V30 23086 O 2126.28 -2.04783 3.87293 0
M  V30 23087 C 2127.78 -3.46804 2.7612 0
M  V30 23088 H 2125 -0.415305 0.527032 0
M  V30 23089 H 2127.54 -0.700047 1.92145 0
M  V30 23090 H 2125.7 -3.16326 2.23644 0
M  V30 23091 H 2126.11 -2.81882 4.42315 0
M  V30 23092 H 2127.59 -4.26286 3.50691 0
M  V30 23093 H 2128.06 -3.99143 1.83253 0
M  V30 23094 H 2128.67 -2.90643 3.10495 0
M  V30 23095 N 2126.99 -1.34495 -0.82151 0
M  V30 23096 C 2127.9 -1.28265 -1.96431 0
M  V30 23097 C 2128.91 -0.190092 -1.72959 0
M  V30 23098 O 2130.09 -0.416817 -1.9704 0
M  V30 23099 C 2127.15 -1.03935 -3.30754 0
M  V30 23100 C 2126.21 -2.22361 -3.67225 0
M  V30 23101 C 2125.45 -1.99182 -4.95139 0
M  V30 23102 O 2125.67 -0.950771 -5.6242 0
M  V30 23103 O 2124.6 -2.86169 -5.2952 0
M  V30 23104 H 2128.43 -2.2441 -2.04631 0
M  V30 23105 H 2126.01 -1.14716 -0.957114 0
M  V30 23106 H 2127.9 -0.921538 -4.112 0
M  V30 23107 H 2126.57 -0.108311 -3.23519 0
M  V30 23108 H 2125.48 -2.39702 -2.87217 0
M  V30 23109 H 2126.81 -3.1386 -3.79147 0
M  V30 23110 N 2128.46 1.04188 -1.18248 0
M  V30 23111 C 2129.71 1.76764 -0.971464 0
M  V30 23112 C 2130.03 1.89102 0.49997 0
M  V30 23113 O 2131.23 2.58519 0.829468 0
M  V30 23114 C 2129.69 3.17801 -1.68909 0
M  V30 23115 C 2129.3 3.1356 -3.19975 0
M  V30 23116 C 2131.04 3.94763 -1.56084 0
M  V30 23117 C 2128.95 4.49449 -3.84382 0
M  V30 23118 H 2127.88 0.662591 -0.359847 0
M  V30 23119 H 2130.53 1.16702 -1.41608 0
M  V30 23120 H 2128.91 3.78252 -1.17224 0
M  V30 23121 H 2130.08 2.62568 -3.78675 0
M  V30 23122 H 2128.4 2.50097 -3.32927 0
M  V30 23123 H 2131 4.95253 -2.01566 0
M  V30 23124 H 2131.34 4.13128 -0.512919 0
M  V30 23125 H 2131.87 3.40885 -2.05043 0
M  V30 23126 H 2128.61 4.36289 -4.89216 0
M  V30 23127 H 2128.13 5.00549 -3.3047 0
M  V30 23128 H 2129.81 5.18367 -3.87175 0
M  V30 23129 N 2129.94 0.98432 1.23081 0
M  V30 23130 C 2130.89 0.520259 2.26707 0
M  V30 23131 C 2131.88 -0.424715 1.63989 0
M  V30 23132 O 2133.09 -0.298177 1.77513 0
M  V30 23133 H 2129.47 0.149826 0.736923 0
M  V30 23134 H 2131.44 1.40587 2.63207 0
M  V30 23135 C 2130.19 -0.157874 3.47341 0
M  V30 23136 H 2129.51 0.560186 3.95856 0
M  V30 23137 H 2130.95 -0.446157 4.21646 0
M  V30 23138 C 2129.41 -1.3904 3.0687 0
M  V30 23139 O 2129.94 -2.48637 3.15503 0
M  V30 23140 N 2128.14 -1.26249 2.61743 0
M  V30 23141 H 2127.69 -0.370736 2.54918 0
M  V30 23142 H 2127.65 -2.08824 2.35032 0
M  V30 23143 N 2131.42 -1.38259 0.756453 0
M  V30 23144 C 2132.84 -1.53575 0.434365 0
M  V30 23145 C 2133.04 -1.71851 -1.05212 0
M  V30 23146 O 2132.09 -1.73115 -1.83814 0
M  V30 23147 C 2133.41 -2.74118 1.23611 0
M  V30 23148 C 2134.95 -2.8797 1.22647 0
M  V30 23149 C 2135.43 -4.11477 2.01124 0
M  V30 23150 N 2136.92 -4.1856 1.98399 0
M  V30 23151 C 2137.65 -5.13124 2.55913 0
M  V30 23152 N 2137.15 -6.13343 3.22153 0
M  V30 23153 N 2138.94 -5.05495 2.45827 0
M  V30 23154 H 2131.09 -1.24647 1.7198 0
M  V30 23155 H 2133.36 -0.605745 0.72923 0
M  V30 23156 H 2133.06 -2.67028 2.28886 0
M  V30 23157 H 2132.94 -3.67384 0.854919 0
M  V30 23158 H 2135.32 -2.9454 0.181771 0
M  V30 23159 H 2135.41 -1.95707 1.6472 0
M  V30 23160 H 2135.05 -4.05669 3.05607 0
M  V30 23161 H 2134.98 -5.02825 1.56444 0
M  V30 23162 H 2137.47 -3.46785 1.50161 0
M  V30 23163 H 2137.78 -6.81999 3.63451 0
M  V30 23164 H 2136.13 -6.13667 3.26248 0
M  V30 23165 H 2139.32 -4.26141 1.93705 0
M  V30 23166 H 2139.49 -5.79012 2.90946 0
M  V30 23167 N 2132.9 -0.505757 -1.49264 0
M  V30 23168 C 2133.85 0.28378 -2.30862 0
M  V30 23169 C 2134.84 0.958332 -1.39687 0
M  V30 23170 O 2136.05 0.885479 -1.56714 0
M  V30 23171 H 2132.42 0.110376 -0.743856 0
M  V30 23172 H 2134.39 -0.424349 -2.95367 0
M  V30 23173 C 2133.14 1.33255 -3.21152 0
M  V30 23174 H 2132.46 0.822894 -3.9124 0
M  V30 23175 H 2133.9 1.85687 -3.81177 0
M  V30 23176 C 2132.36 2.35327 -2.41087 0
M  V30 23177 O 2132.89 3.41302 -2.1184 0
M  V30 23178 N 2131.1 2.07918 -2.03023 0
M  V30 23179 H 2130.65 1.21758 -2.27009 0
M  V30 23180 H 2130.6 2.7644 -1.49762 0
M  V30 23181 N 2134.38 1.55765 -0.239796 0
M  V30 23182 C 2135.32 2.22467 0.679046 0
M  V30 23183 C 2136.32 1.20993 1.18562 0
M  V30 23184 O 2137.52 1.39024 1.14334 0
M  V30 23185 H 2133.9 0.713528 0.237447 0
M  V30 23186 H 2135.87 2.98254 0.0932403 0
M  V30 23187 C 2134.62 2.93244 1.86825 0
M  V30 23188 H 2133.94 3.71094 1.48759 0
M  V30 23189 H 2135.38 3.43289 2.48855 0
M  V30 23190 C 2133.84 1.96721 2.735 0
M  V30 23191 O 2134.37 1.49575 3.72814 0
M  V30 23192 N 2132.58 1.63976 2.39917 0
M  V30 23193 H 2132.12 2.02511 1.59208 0
M  V30 23194 H 2132.08 0.996588 2.98187 0
M  V30 23195 N 2135.85 -0.0334016 1.57565 0
M  V30 23196 C 2136.8 -1.05382 2.07358 0
M  V30 23197 C 2137.8 -1.37713 0.986479 0
M  V30 23198 O 2139 -1.36669 1.17139 0
M  V30 23199 H 2135.38 -0.357353 0.661667 0
M  V30 23200 H 2137.35 -0.608016 2.9214 0
M  V30 23201 C 2136.1 -2.34757 2.56485 0
M  V30 23202 H 2135.42 -2.10738 3.39749 0
M  V30 23203 H 2136.86 -3.04512 2.9504 0
M  V30 23204 C 2135.32 -3.03419 1.46419 0
M  V30 23205 O 2135.85 -3.93075 0.827955 0
M  V30 23206 N 2134.06 -2.64676 1.19979 0
M  V30 23207 H 2133.6 -1.91854 1.71901 0
M  V30 23208 H 2133.56 -3.10935 0.465483 0
M  V30 23209 N 2137.33 -1.54609 -0.305591 0
M  V30 23210 C 2138.58 -1.73672 -1.04137 0
M  V30 23211 C 2138.91 -0.520024 -1.87419 0
M  V30 23212 O 2138.16 0.49808 -1.89256 0
M  V30 23213 C 2138.46 -2.97546 -1.97993 0
M  V30 23214 C 2138.13 -4.31535 -1.30723 0
M  V30 23215 C 2136.79 -4.67958 -1.12109 0
M  V30 23216 C 2139.14 -5.14614 -0.825937 0
M  V30 23217 C 2136.47 -5.85045 -0.440427 0
M  V30 23218 C 2138.82 -6.324 -0.159014 0
M  V30 23219 C 2137.49 -6.67489 0.0391208 0
M  V30 23220 H 2136.76 -0.635509 -0.381063 0
M  V30 23221 H 2139.4 -1.88863 -0.316695 0
M  V30 23222 H 2137.71 -2.77116 -2.76973 0
M  V30 23223 H 2139.4 -3.09489 -2.54985 0
M  V30 23224 H 2135.99 -4.02888 -1.46217 0
M  V30 23225 H 2140.18 -4.86977 -0.957472 0
M  V30 23226 H 2135.43 -6.10777 -0.275887 0
M  V30 23227 H 2139.61 -6.96047 0.221841 0
M  V30 23228 H 2137.24 -7.58071 0.568561 0
M  V30 23229 N 2138.81 0.568558 -1.46987 0
M  V30 23230 C 2139.74 1.69147 -1.54668 0
M  V30 23231 C 2140.76 1.56914 -0.433789 0
M  V30 23232 O 2141.94 1.6408 -0.702853 0
M  V30 23233 C 2139.04 3.07522 -1.4242 0
M  V30 23234 C 2138.22 3.45619 -2.68078 0
M  V30 23235 C 2137.28 4.63111 -2.49829 0
M  V30 23236 O 2136.3 4.68261 -3.23605 0
M  V30 23237 N 2137.5 5.5889 -1.56914 0
M  V30 23238 H 2140.27 1.63008 -2.51492 0
M  V30 23239 H 2137.83 0.75491 -1.43223 0
M  V30 23240 H 2139.82 3.83937 -1.27963 0
M  V30 23241 H 2138.39 3.07949 -0.537222 0
M  V30 23242 H 2137.61 2.58767 -2.97378 0
M  V30 23243 H 2138.9 3.67844 -3.51523 0
M  V30 23244 H 2138.3 5.57477 -0.961042 0
M  V30 23245 H 2136.86 6.34678 -1.48414 0
M  V30 23246 N 2140.29 1.34929 0.814366 0
M  V30 23247 C 2141.52 1.30863 1.60257 0
M  V30 23248 C 2141.93 -0.11553 1.88446 0
M  V30 23249 O 2141.29 -1.06518 1.4819 0
M  V30 23250 C 2141.34 2.10565 2.93845 0
M  V30 23251 O 2141.06 3.47427 2.66882 0
M  V30 23252 C 2142.56 2.13994 3.88228 0
M  V30 23253 H 2139.78 0.449849 0.497872 0
M  V30 23254 H 2142.33 1.77669 1.01262 0
M  V30 23255 H 2140.48 1.67378 3.49376 0
M  V30 23256 H 2140.89 3.88729 3.52122 0
M  V30 23257 H 2142.37 2.74168 4.79099 0
M  V30 23258 H 2142.85 1.13661 4.24238 0
M  V30 23259 H 2143.45 2.57308 3.38634 0
M  V30 23260 N 2141.77 -1.0356 1.18799 0
M  V30 23261 C 2143.01 -1.76847 0.986484 0
M  V30 23262 C 2143.34 -1.88397 -0.483413 0
M  V30 23263 O 2142.6 -1.39239 -1.37517 0
M  V30 23264 C 2142.9 -3.19959 1.59252 0
M  V30 23265 C 2142.56 -3.28431 3.0894 0
M  V30 23266 C 2141.22 -3.30451 3.49794 0
M  V30 23267 C 2143.58 -3.2812 4.04953 0
M  V30 23268 C 2140.9 -3.29807 4.85226 0
M  V30 23269 C 2143.26 -3.29016 5.40306 0
M  V30 23270 C 2141.92 -3.2933 5.80601 0
M  V30 23271 H 2141.19 -0.647128 0.36098 0
M  V30 23272 H 2143.84 -1.21597 1.47941 0
M  V30 23273 H 2142.14 -3.78243 1.02172 0
M  V30 23274 H 2143.84 -3.75319 1.41197 0
M  V30 23275 H 2140.43 -3.27583 2.76382 0
M  V30 23276 H 2144.61 -3.25746 3.74437 0
M  V30 23277 H 2139.87 -3.2837 5.15736 0
M  V30 23278 H 2144.04 -3.27726 6.14466 0
M  V30 23279 H 2141.67 -3.28585 6.85519 0
M  V30 23280 N 2143.25 -0.990834 -1.22557 0
M  V30 23281 C 2144.66 -0.700966 -1.73042 0
M  V30 23282 C 2145.01 0.782283 -1.7993 0
M  V30 23283 O 2144.13 1.61158 -1.4442 0
M  V30 23284 C 2144.73 -1.26574 -3.14268 0
M  V30 23285 C 2143.29 -1.0253 -3.62167 0
M  V30 23286 C 2142.43 -1.38718 -2.4011 0
M  V30 23287 H 2145.38 -1.16344 -1.07934 0
M  V30 23288 H 2145.41 -0.643298 -3.75023 0
M  V30 23289 H 2144.92 -2.34527 -3.09222 0
M  V30 23290 H 2143.02 0.0376973 -3.72581 0
M  V30 23291 H 2143.13 -1.68722 -4.48408 0
M  V30 23292 H 2141.5 -0.805751 -2.41619 0
M  V30 23293 H 2142.28 -2.47671 -2.37727 0
M  V30 23294 N 2144.72 1.37856 -0.763775 0
M  V30 23295 C 2145.66 2.28969 -0.102965 0
M  V30 23296 C 2146.67 1.48246 0.672832 0
M  V30 23297 O 2147.86 1.70992 0.51224 0
M  V30 23298 C 2144.96 3.27329 0.877995 0
M  V30 23299 C 2144.13 4.37116 0.157698 0
M  V30 23300 C 2143.19 5.156 1.05087 0
M  V30 23301 O 2142.22 5.66842 0.517604 0
M  V30 23302 N 2143.42 5.29559 2.37797 0
M  V30 23303 H 2146.18 2.8632 -0.885499 0
M  V30 23304 H 2143.74 1.49747 -0.615433 0
M  V30 23305 H 2145.74 3.76715 1.47877 0
M  V30 23306 H 2144.31 2.70804 1.56154 0
M  V30 23307 H 2143.53 3.89231 -0.623902 0
M  V30 23308 H 2144.81 5.07661 -0.34033 0
M  V30 23309 H 2144.21 4.89496 2.83566 0
M  V30 23310 H 2142.77 5.82282 2.929 0
M  V30 23311 N 2146.2 0.513665 1.48994 0
M  V30 23312 C 2147.16 -0.247066 2.27864 0
M  V30 23313 C 2148.16 -0.882574 1.34415 0
M  V30 23314 O 2149.35 -0.745145 1.57459 0
M  V30 23315 C 2146.49 -1.35575 3.12782 0
M  V30 23316 H 2147.68 0.445185 2.96577 0
M  V30 23317 H 2145.23 0.269045 1.53967 0
M  V30 23318 H 2145.97 -2.08176 2.48663 0
M  V30 23319 H 2145.75 -0.905368 3.81504 0
M  V30 23320 H 2147.24 -1.89127 3.72318 0
M  V30 23321 N 2147.68 -1.55636 0.248053 0
M  V30 23322 C 2148.93 -1.99266 -0.376927 0
M  V30 23323 C 2149.26 -1.13602 -1.57506 0
M  V30 23324 O 2148.53 -0.199686 -1.93472 0
M  V30 23325 C 2148.82 -3.51425 -0.785664 0
M  V30 23326 C 2148.67 -4.47854 0.417942 0
M  V30 23327 C 2149.99 -4.08714 -1.63221 0
M  V30 23328 H 2147.11 -0.724431 -0.135531 0
M  V30 23329 H 2149.75 -1.86756 0.349594 0
M  V30 23330 H 2147.9 -3.62216 -1.40469 0
M  V30 23331 H 2149.57 -4.49041 1.05638 0
M  V30 23332 H 2147.81 -4.20629 1.06084 0
M  V30 23333 H 2148.49 -5.51929 0.0886002 0
M  V30 23334 H 2150.96 -4.01031 -1.10966 0
M  V30 23335 H 2149.84 -5.15443 -1.88706 0
M  V30 23336 H 2150.1 -3.57242 -2.60443 0
M  V30 23337 N 2149.16 0.0250451 -1.5758 0
M  V30 23338 C 2150.09 1.02382 -2.09857 0
M  V30 23339 C 2151.07 1.37455 -1.002 0
M  V30 23340 O 2152.25 1.46269 -1.27746 0
M  V30 23341 C 2149.38 2.32351 -2.58128 0
M  V30 23342 C 2148.34 2.11509 -3.72086 0
M  V30 23343 C 2147.66 3.47274 -4.06577 0
M  V30 23344 C 2148.96 1.49799 -5.00357 0
M  V30 23345 H 2150.66 0.58863 -2.93557 0
M  V30 23346 H 2148.2 0.281696 -1.41218 0
M  V30 23347 H 2150.16 3.02556 -2.93322 0
M  V30 23348 H 2148.88 2.77938 -1.71518 0
M  V30 23349 H 2147.54 1.43737 -3.37247 0
M  V30 23350 H 2147.19 3.90516 -3.17027 0
M  V30 23351 H 2146.89 3.34153 -4.83338 0
M  V30 23352 H 2148.41 4.18834 -4.44309 0
M  V30 23353 H 2149.83 2.09927 -5.33483 0
M  V30 23354 H 2148.22 1.47241 -5.81756 0
M  V30 23355 H 2149.29 0.464269 -4.82672 0
M  V30 23356 N 2150.64 1.54769 0.297388 0
M  V30 23357 C 2151.57 1.88972 1.37157 0
M  V30 23358 C 2152.55 0.748993 1.52722 0
M  V30 23359 O 2153.73 1.00504 1.6617 0
M  V30 23360 C 2150.86 2.1402 2.73519 0
M  V30 23361 C 2149.82 3.29865 2.72714 0
M  V30 23362 C 2149.14 3.4034 4.12399 0
M  V30 23363 C 2150.44 4.66881 2.34135 0
M  V30 23364 H 2152.14 2.7894 1.0878 0
M  V30 23365 H 2149.68 1.34212 0.521848 0
M  V30 23366 H 2151.63 2.36533 3.48755 0
M  V30 23367 H 2150.36 1.20827 3.03428 0
M  V30 23368 H 2149.02 3.07281 1.99934 0
M  V30 23369 H 2148.67 2.44657 4.3949 0
M  V30 23370 H 2148.37 4.18214 4.1276 0
M  V30 23371 H 2149.89 3.65118 4.89409 0
M  V30 23372 H 2151.3 4.89101 2.99087 0
M  V30 23373 H 2149.7 5.47495 2.45703 0
M  V30 23374 H 2150.77 4.67354 1.29261 0
M  V30 23375 N 2152.11 -0.560755 1.47286 0
M  V30 23376 C 2153.04 -1.67792 1.62383 0
M  V30 23377 C 2154.02 -1.6338 0.473377 0
M  V30 23378 O 2155.21 -1.81057 0.702288 0
M  V30 23379 C 2152.34 -3.06431 1.63454 0
M  V30 23380 C 2151.29 -3.25688 2.7769 0
M  V30 23381 C 2150.62 -4.65078 2.63831 0
M  V30 23382 C 2151.92 -3.11404 4.19315 0
M  V30 23383 H 2153.61 -1.55414 2.55904 0
M  V30 23384 H 2151.16 -0.746251 1.23155 0
M  V30 23385 H 2153.11 -3.84428 1.72606 0
M  V30 23386 H 2151.84 -3.1976 0.664904 0
M  V30 23387 H 2150.5 -2.50098 2.68042 0
M  V30 23388 H 2150.14 -4.75201 1.64904 0
M  V30 23389 H 2149.84 -4.78911 3.40467 0
M  V30 23390 H 2151.37 -5.45214 2.74907 0
M  V30 23391 H 2152.78 -3.79222 4.29958 0
M  V30 23392 H 2151.18 -3.36749 4.9671 0
M  V30 23393 H 2152.25 -2.08195 4.3793 0
M  V30 23394 N 2153.59 -1.35359 -0.807199 0
M  V30 23395 C 2154.84 -1.28598 -1.56425 0
M  V30 23396 C 2155.17 0.139777 -1.93997 0
M  V30 23397 O 2154.42 1.10489 -1.61526 0
M  V30 23398 C 2154.72 -2.13745 -2.8644 0
M  V30 23399 C 2154.39 -3.62545 -2.68089 0
M  V30 23400 C 2153.05 -4.03105 -2.62792 0
M  V30 23401 C 2155.4 -4.56965 -2.50664 0
M  V30 23402 C 2152.73 -5.36253 -2.38013 0
M  V30 23403 C 2155.08 -5.9031 -2.27415 0
M  V30 23404 C 2153.74 -6.30015 -2.20539 0
M  V30 23405 H 2153.01 -0.470572 -0.572401 0
M  V30 23406 H 2155.66 -1.6725 -0.932725 0
M  V30 23407 H 2153.97 -1.67972 -3.53967 0
M  V30 23408 H 2155.66 -2.0585 -3.44132 0
M  V30 23409 H 2152.25 -3.30359 -2.73059 0
M  V30 23410 H 2156.44 -4.26515 -2.53769 0
M  V30 23411 H 2151.69 -5.66017 -2.31159 0
M  V30 23412 H 2155.87 -6.63051 -2.12922 0
M  V30 23413 H 2153.49 -7.33118 -2.01101 0
M  V30 23414 N 2155.07 1.02928 -1.19346 0
M  V30 23415 C 2156.49 1.28572 -0.945592 0
M  V30 23416 C 2156.69 1.97841 0.382273 0
M  V30 23417 O 2155.74 2.26603 1.11388 0
M  V30 23418 C 2157.05 2.13321 -2.11931 0
M  V30 23419 C 2158.6 2.2663 -2.15889 0
M  V30 23420 C 2159.08 3.14751 -3.3271 0
M  V30 23421 N 2160.57 3.22339 -3.32644 0
M  V30 23422 C 2161.3 3.90712 -4.19681 0
M  V30 23423 N 2160.8 4.61319 -5.16872 0
M  V30 23424 N 2162.59 3.87107 -4.07559 0
M  V30 23425 H 2154.74 0.563808 -2.0478 0
M  V30 23426 H 2157.01 0.311375 -0.895405 0
M  V30 23427 H 2156.71 1.69745 -3.08025 0
M  V30 23428 H 2156.59 3.14032 -2.08959 0
M  V30 23429 H 2158.97 2.69437 -1.20365 0
M  V30 23430 H 2159.05 1.25471 -2.22914 0
M  V30 23431 H 2158.7 2.72652 -4.28513 0
M  V30 23432 H 2158.63 4.15968 -3.22921 0
M  V30 23433 H 2161.12 2.72052 -2.6229 0
M  V30 23434 H 2161.43 5.1112 -5.79634 0
M  V30 23435 H 2159.78 4.60185 -5.20821 0
M  V30 23436 H 2162.97 3.31086 -3.30908 0
M  V30 23437 H 2163.14 4.40119 -4.75604 0
M  V30 23438 N 2156.55 0.997319 1.2203 0
M  V30 23439 C 2157.79 0.683932 1.92618 0
M  V30 23440 C 2158.15 -0.770282 1.75871 0
M  V30 23441 O 2159.35 -1.19529 2.40762 0
M  V30 23442 C 2157.62 1.0841 3.40561 0
M  V30 23443 S 2159.18 0.889754 4.29685 0
M  V30 23444 H 2156 0.249925 0.665626 0
M  V30 23445 H 2158.6 1.28053 1.47725 0
M  V30 23446 H 2157.31 2.13876 3.50265 0
M  V30 23447 H 2156.84 0.479484 3.90467 0
M  V30 23448 H 2158.85 -0.217337 4.95724 0
M  V30 23449 N 2158.03 -1.37449 0.771075 0
M  V30 23450 C 2158.99 -2.28619 0.163149 0
M  V30 23451 C 2159.99 -1.47996 -0.628787 0
M  V30 23452 O 2161.18 -1.68221 -0.452475 0
M  V30 23453 C 2158.31 -3.31942 -0.776372 0
M  V30 23454 H 2159.5 -2.83888 0.966816 0
M  V30 23455 H 2157.06 -1.46703 0.53924 0
M  V30 23456 H 2157.79 -2.81794 -1.60507 0
M  V30 23457 H 2157.58 -3.91534 -0.210683 0
M  V30 23458 H 2159.07 -4.00072 -1.19717 0
M  V30 23459 N 2159.5 -0.52156 -1.4872 0
M  V30 23460 C 2160.73 0.0117966 -2.06897 0
M  V30 23461 C 2161.15 1.28928 -1.37924 0
M  V30 23462 O 2160.5 1.76502 -0.464046 0
M  V30 23463 C 2160.56 0.248161 -3.60647 0
M  V30 23464 O 2160.28 -0.978703 -4.27028 0
M  V30 23465 C 2161.78 0.822848 -4.35596 0
M  V30 23466 H 2159 -0.0297145 -0.670342 0
M  V30 23467 H 2161.54 -0.724798 -1.91225 0
M  V30 23468 H 2159.7 0.934783 -3.75953 0
M  V30 23469 H 2160.11 -0.754221 -5.19049 0
M  V30 23470 H 2161.58 0.937703 -5.43977 0
M  V30 23471 H 2162.06 1.82571 -3.99455 0
M  V30 23472 H 2162.67 0.173056 -4.24948 0
M  V30 23473 N 2160.98 1.55502 -0.256304 0
M  V30 23474 C 2162.23 1.98775 0.36509 0
M  V30 23475 C 2162.55 1.14592 1.57778 0
M  V30 23476 O 2161.82 0.23092 1.94534 0
M  V30 23477 H 2160.4 0.734165 0.137882 0
M  V30 23478 H 2163.06 1.91597 -0.357276 0
M  V30 23479 H 2162.16 3.04871 0.667825 0
M  V30 23480 N 2162.46 -0.0166879 1.57591 0
M  V30 23481 C 2163.37 -1.03011 2.10774 0
M  V30 23482 C 2164.39 -1.38812 1.04915 0
M  V30 23483 O 2165.56 -1.47882 1.36722 0
M  V30 23484 C 2162.63 -2.30839 2.58678 0
M  V30 23485 C 2161.69 -2.01505 3.7907 0
M  V30 23486 C 2160.92 -3.23238 4.2468 0
M  V30 23487 O 2161.14 -4.34347 3.69729 0
M  V30 23488 O 2160.08 -3.08213 5.16999 0
M  V30 23489 H 2163.9 -0.608087 2.9755 0
M  V30 23490 H 2161.49 -0.234465 1.47549 0
M  V30 23491 H 2163.37 -3.05966 2.89763 0
M  V30 23492 H 2162.05 -2.72312 1.75008 0
M  V30 23493 H 2160.95 -1.23907 3.52984 0
M  V30 23494 H 2162.29 -1.64879 4.63762 0
M  V30 23495 N 2163.94 -1.54924 -0.289176 0
M  V30 23496 C 2164.9 -1.85935 -1.34017 0
M  V30 23497 C 2165.9 -0.732916 -1.43126 0
M  V30 23498 O 2167.09 -1.00116 -1.42556 0
M  V30 23499 C 2164.22 -2.0502 -2.72359 0
M  V30 23500 H 2165.42 -2.79872 -1.07758 0
M  V30 23501 H 2162.97 -1.47168 -0.526442 0
M  V30 23502 H 2163.7 -1.13412 -3.03823 0
M  V30 23503 H 2163.49 -2.8702 -2.67136 0
M  V30 23504 H 2164.98 -2.30342 -3.48328 0
M  V30 23505 N 2165.42 0.552936 -1.47582 0
M  V30 23506 C 2166.66 1.30952 -1.55638 0
M  V30 23507 C 2167.02 1.91166 -0.217561 0
M  V30 23508 O 2166.31 1.75129 0.777208 0
M  V30 23509 C 2166.5 2.43742 -2.6139 0
M  V30 23510 C 2166.33 1.94581 -4.05423 0
M  V30 23511 C 2165.1 1.78229 -4.72824 0
M  V30 23512 C 2167.3 1.48778 -4.92311 0
M  V30 23513 N 2165.28 1.23453 -6.01359 0
M  V30 23514 C 2166.65 1.05795 -6.10907 0
M  V30 23515 C 2168.71 1.36868 -4.78719 0
M  V30 23516 C 2167.41 0.520866 -7.17412 0
M  V30 23517 C 2169.44 0.845611 -5.85323 0
M  V30 23518 C 2168.8 0.425735 -7.03112 0
M  V30 23519 H 2164.9 0.471059 -0.624201 0
M  V30 23520 H 2167.48 0.626261 -1.84353 0
M  V30 23521 H 2165.65 3.09593 -2.34535 0
M  V30 23522 H 2167.39 3.10748 -2.59263 0
M  V30 23523 H 2164.14 2.01072 -4.28797 0
M  V30 23524 H 2164.57 0.981404 -6.69849 0
M  V30 23525 H 2169.21 1.67941 -3.88015 0
M  V30 23526 H 2166.93 0.197773 -8.07858 0
M  V30 23527 H 2170.51 0.756959 -5.76855 0
M  V30 23528 H 2169.39 0.0272611 -7.84195 0
M  V30 23529 N 2166.89 1.35785 0.800009 0
M  V30 23530 C 2167.83 1.25104 1.92046 0
M  V30 23531 C 2168.84 0.172854 1.6188 0
M  V30 23532 O 2170.03 0.426685 1.73325 0
M  V30 23533 C 2167.13 0.905182 3.26588 0
M  V30 23534 C 2166.3 2.08308 3.84612 0
M  V30 23535 C 2165.36 1.71196 4.97572 0
M  V30 23536 O 2164.39 2.43153 5.1465 0
M  V30 23537 N 2165.59 0.639434 5.76967 0
M  V30 23538 H 2168.35 2.21638 2.01734 0
M  V30 23539 H 2165.91 1.29041 0.977759 0
M  V30 23540 H 2167.91 0.638273 3.99635 0
M  V30 23541 H 2166.48 0.02931 3.12586 0
M  V30 23542 H 2165.7 2.51341 3.0368 0
M  V30 23543 H 2166.98 2.87028 4.2011 0
M  V30 23544 H 2166.38 0.0417276 5.65685 0
M  V30 23545 H 2164.94 0.432323 6.50365 0
M  V30 23546 N 2168.37 -1.02294 1.19891 0
M  V30 23547 C 2169.65 -1.72912 0.914382 0
M  V30 23548 C 2170.03 -2.0302 -0.57845 0
M  V30 23549 O 2169.38 -1.68961 -1.53833 0
M  V30 23550 C 2169.59 -3.00157 1.78064 0
M  V30 23551 C 2170.94 -3.73547 2.0186 0
M  V30 23552 O 2171.96 -3.10098 1.75265 0
M  V30 23553 O 2170.82 -4.87629 2.46738 0
M  V30 23554 H 2167.91 -0.753281 0.341315 0
M  V30 23555 H 2170.46 -1.08199 1.30733 0
M  V30 23556 H 2169.23 -2.7418 2.79179 0
M  V30 23557 H 2168.85 -3.7261 1.38736 0
M  V30 23558 N 2169.85 -1.00378 -1.21499 0
M  V30 23559 C 2171.1 -0.681173 -1.8985 0
M  V30 23560 C 2171.41 0.791343 -1.78877 0
M  V30 23561 O 2172.62 1.22598 -2.42244 0
M  V30 23562 C 2171.07 -1.1679 -3.40424 0
M  V30 23563 C 2170.68 -2.6664 -3.6001 0
M  V30 23564 C 2172.43 -0.920124 -4.14408 0
M  V30 23565 C 2170.33 -3.0886 -5.04341 0
M  V30 23566 H 2169.26 -0.251086 -0.710965 0
M  V30 23567 H 2171.91 -1.21478 -1.37533 0
M  V30 23568 H 2170.3 -0.562349 -3.91987 0
M  V30 23569 H 2171.47 -3.32634 -3.18891 0
M  V30 23570 H 2169.79 -2.89419 -2.99376 0
M  V30 23571 H 2172.38 -1.21113 -5.20803 0
M  V30 23572 H 2172.73 0.143641 -4.16052 0
M  V30 23573 H 2173.26 -1.4884 -3.68906 0
M  V30 23574 H 2170 -4.14458 -5.07844 0
M  V30 23575 H 2169.52 -2.47577 -5.4632 0
M  V30 23576 H 2171.2 -3.00772 -5.7284 0
M  V30 23577 N 2171.33 1.37038 -0.778354 0
M  V30 23578 C 2172.26 2.27909 -0.115295 0
M  V30 23579 C 2173.24 1.46663 0.702059 0
M  V30 23580 O 2174.42 1.75984 0.67541 0
M  V30 23581 C 2171.55 3.28048 0.84273 0
M  V30 23582 C 2170.6 4.26362 0.108552 0
M  V30 23583 S 2171.43 5.21696 -1.20802 0
M  V30 23584 C 2172.59 6.25386 -0.253704 0
M  V30 23585 H 2172.82 2.83797 -0.885808 0
M  V30 23586 H 2170.35 1.43412 -0.572049 0
M  V30 23587 H 2172.31 3.86248 1.39005 0
M  V30 23588 H 2170.97 2.71094 1.5864 0
M  V30 23589 H 2170.16 4.97034 0.835063 0
M  V30 23590 H 2169.77 3.72185 -0.367963 0
M  V30 23591 H 2172.06 6.75085 0.5715 0
M  V30 23592 H 2173 7.01982 -0.928788 0
M  V30 23593 H 2173.41 5.64331 0.138033 0
M  V30 23594 N 2172.81 0.529439 1.48441 0
M  V30 23595 C 2173.74 -0.222417 2.32438 0
M  V30 23596 C 2174.72 -0.935598 1.42058 0
M  V30 23597 O 2175.9 -0.921483 1.70945 0
M  V30 23598 C 2173.03 -1.27012 3.23242 0
M  V30 23599 C 2171.99 -0.675114 4.22642 0
M  V30 23600 C 2171.31 -1.82543 5.02576 0
M  V30 23601 C 2172.61 0.352815 5.21107 0
M  V30 23602 H 2174.31 0.478777 2.95547 0
M  V30 23603 H 2171.85 0.231695 1.42124 0
M  V30 23604 H 2173.81 -1.80405 3.80831 0
M  V30 23605 H 2172.53 -2.00089 2.58132 0
M  V30 23606 H 2171.19 -0.162711 3.66239 0
M  V30 23607 H 2170.84 -2.54456 4.33891 0
M  V30 23608 H 2170.54 -1.43323 5.69853 0
M  V30 23609 H 2172.06 -2.36315 5.63017 0
M  V30 23610 H 2173.48 -0.0940075 5.73223 0
M  V30 23611 H 2171.87 0.662368 5.96433 0
M  V30 23612 H 2172.94 1.25877 4.68277 0
M  V30 23613 N 2174.29 -1.55364 0.264547 0
M  V30 23614 C 2175.25 -2.20814 -0.614312 0
M  V30 23615 C 2176.25 -1.18274 -1.0894 0
M  V30 23616 O 2177.44 -1.43246 -0.991274 0
M  V30 23617 C 2174.57 -2.86572 -1.84632 0
M  V30 23618 H 2175.76 -2.99869 -0.0430102 0
M  V30 23619 H 2173.32 -1.56293 0.0150952 0
M  V30 23620 H 2174.05 -2.11501 -2.45841 0
M  V30 23621 H 2173.84 -3.61704 -1.51369 0
M  V30 23622 H 2175.33 -3.36608 -2.47153 0
M  V30 23623 N 2175.76 0.00833021 -1.57598 0
M  V30 23624 C 2177 0.699511 -1.92058 0
M  V30 23625 C 2177.37 1.71397 -0.865278 0
M  V30 23626 O 2178.57 2.45492 -1.09486 0
M  V30 23627 C 2176.84 1.33325 -3.31601 0
M  V30 23628 S 2178.4 2.05071 -3.87932 0
M  V30 23629 H 2175.22 0.231259 -0.672339 0
M  V30 23630 H 2177.82 -0.0463571 -1.95445 0
M  V30 23631 H 2176.52 0.581972 -4.06253 0
M  V30 23632 H 2176.05 2.11723 -3.31567 0
M  V30 23633 H 2178.07 3.32482 -3.68334 0
M  V30 23634 N 2177.24 1.55075 0.280956 0
M  V30 23635 C 2178.17 1.82323 1.37235 0
M  V30 23636 C 2179.15 0.675713 1.47895 0
M  V30 23637 O 2180.34 0.917856 1.64644 0
M  V30 23638 C 2177.46 1.97779 2.74957 0
M  V30 23639 C 2176.51 3.20299 2.81622 0
M  V30 23640 S 2177.34 4.77863 2.41675 0
M  V30 23641 C 2178.5 4.96281 3.81387 0
M  V30 23642 H 2178.73 2.74609 1.13917 0
M  V30 23643 H 2176.26 1.46744 0.480161 0
M  V30 23644 H 2178.22 2.07368 3.54272 0
M  V30 23645 H 2176.88 1.06395 2.95532 0
M  V30 23646 H 2176.08 3.27976 3.82685 0
M  V30 23647 H 2175.68 3.09259 2.1032 0
M  V30 23648 H 2177.97 4.81535 4.76582 0
M  V30 23649 H 2178.91 5.98345 3.78667 0
M  V30 23650 H 2179.32 4.24309 3.7232 0
M  V30 23651 N 2178.72 -0.545102 1.47873 0
M  V30 23652 C 2180.13 -1.12717 1.48835 0
M  V30 23653 C 2180.48 -1.94604 0.249718 0
M  V30 23654 O 2179.61 -2.06582 -0.644417 0
M  V30 23655 C 2180.2 -2.05084 2.69678 0
M  V30 23656 C 2178.76 -2.58538 2.7356 0
M  V30 23657 C 2177.91 -1.35171 2.42124 0
M  V30 23658 H 2180.86 -0.331094 1.55208 0
M  V30 23659 H 2180.88 -2.89145 2.47336 0
M  V30 23660 H 2180.39 -1.45457 3.59811 0
M  V30 23661 H 2178.49 -3.21929 1.87597 0
M  V30 23662 H 2178.61 -2.98704 3.74583 0
M  V30 23663 H 2176.97 -1.66249 1.9296 0
M  V30 23664 H 2177.75 -0.773194 3.3448 0
M  V30 23665 N 2180.2 -1.36208 -0.792797 0
M  V30 23666 C 2181.45 -1.29992 -1.54746 0
M  V30 23667 C 2181.77 0.121446 -1.94621 0
M  V30 23668 O 2181.04 1.06096 -1.64683 0
M  V30 23669 H 2179.62 -0.478184 -0.573889 0
M  V30 23670 H 2182.28 -1.70466 -0.944845 0
M  V30 23671 H 2181.37 -1.92505 -2.45658 0
M  V30 23672 N 2181.68 1.01656 -1.20431 0
M  V30 23673 C 2182.62 2.10198 -0.953184 0
M  V30 23674 C 2183.59 1.6569 0.116613 0
M  V30 23675 O 2184.78 1.90779 -0.0281152 0
M  V30 23676 C 2181.92 3.4129 -0.511397 0
M  V30 23677 C 2181.03 3.99275 -1.64935 0
M  V30 23678 C 2180.17 5.18427 -1.15787 0
M  V30 23679 C 2179.2 5.68496 -2.2689 0
M  V30 23680 N 2178.34 6.78909 -1.7896 0
M  V30 23681 H 2183.18 2.31015 -1.88245 0
M  V30 23682 H 2180.72 1.13288 -0.938314 0
M  V30 23683 H 2182.68 4.16529 -0.236575 0
M  V30 23684 H 2181.31 3.20545 0.380867 0
M  V30 23685 H 2180.36 3.21132 -2.03909 0
M  V30 23686 H 2181.67 4.32437 -2.48595 0
M  V30 23687 H 2180.82 6.00871 -0.839013 0
M  V30 23688 H 2179.56 4.8683 -0.291159 0
M  V30 23689 H 2178.57 4.84657 -2.59592 0
M  V30 23690 H 2179.79 6.02127 -3.14037 0
M  V30 23691 H 2177.74 6.49141 -0.946156 0
M  V30 23692 H 2177.66 7.11265 -2.562 0
M  V30 23693 H 2178.92 7.64917 -1.50074 0
M  V30 23694 N 2183.15 1.01021 1.20965 0
M  V30 23695 C 2184.1 0.575015 2.23522 0
M  V30 23696 C 2185.07 -0.401609 1.61172 0
M  V30 23697 O 2186.26 -0.302487 1.88387 0
M  V30 23698 C 2183.4 -0.0869827 3.4499 0
M  V30 23699 C 2182.51 0.933442 4.21795 0
M  V30 23700 C 2181.64 0.243164 5.30643 0
M  V30 23701 C 2180.68 1.25078 5.99184 0
M  V30 23702 N 2179.82 0.587617 6.99637 0
M  V30 23703 H 2184.66 1.45423 2.60108 0
M  V30 23704 H 2182.2 0.728091 1.27817 0
M  V30 23705 H 2184.15 -0.487872 4.14338 0
M  V30 23706 H 2182.78 -0.929881 3.09117 0
M  V30 23707 H 2181.84 1.45254 3.51576 0
M  V30 23708 H 2183.15 1.70003 4.68936 0
M  V30 23709 H 2182.3 -0.213561 6.06324 0
M  V30 23710 H 2181.04 -0.555781 4.84523 0
M  V30 23711 H 2180.05 1.71796 5.2227 0
M  V30 23712 H 2181.27 2.0509 6.47391 0
M  V30 23713 H 2179.22 -0.191575 6.5572 0
M  V30 23714 H 2179.13 1.29237 7.44872 0
M  V30 23715 H 2180.4 0.154271 7.79347 0
M  V30 23716 N 2184.63 -1.36623 0.78561 0
M  V30 23717 C 2185.87 -2.01176 0.361609 0
M  V30 23718 C 2186.24 -1.61005 -1.04602 0
M  V30 23719 O 2187.44 -2.1812 -1.57089 0
M  V30 23720 C 2185.71 -3.53657 0.515881 0
M  V30 23721 S 2187.27 -4.38434 0.179194 0
M  V30 23722 H 2184.08 -0.697408 0.13836 0
M  V30 23723 H 2186.69 -1.66582 1.02327 0
M  V30 23724 H 2185.39 -3.80381 1.54072 0
M  V30 23725 H 2184.92 -3.93067 -0.161844 0
M  V30 23726 H 2186.94 -4.85592 -1.02055 0
M  V30 23727 N 2186.11 -0.537304 -1.48158 0
M  V30 23728 C 2187.07 0.210784 -2.28229 0
M  V30 23729 C 2188.07 0.861078 -1.35802 0
M  V30 23730 O 2189.26 0.72 -1.58624 0
M  V30 23731 C 2186.39 1.30581 -3.14899 0
M  V30 23732 H 2187.59 -0.492311 -2.95832 0
M  V30 23733 H 2185.14 -0.293505 -1.53519 0
M  V30 23734 H 2185.88 2.04194 -2.51943 0
M  V30 23735 H 2185.66 0.844559 -3.82896 0
M  V30 23736 H 2187.15 1.8318 -3.7528 0
M  V30 23737 N 2187.59 1.55221 -0.272782 0
M  V30 23738 C 2189 1.85334 0.225428 0
M  V30 23739 C 2189.35 1.19479 1.55625 0
M  V30 23740 O 2188.48 0.482291 2.10957 0
M  V30 23741 C 2189.07 3.36239 0.415804 0
M  V30 23742 C 2187.63 3.66485 0.858249 0
M  V30 23743 C 2186.78 2.77255 -0.0498039 0
M  V30 23744 H 2189.73 1.50795 -0.494637 0
M  V30 23745 H 2189.75 3.59218 1.2547 0
M  V30 23746 H 2189.26 3.84141 -0.552945 0
M  V30 23747 H 2187.36 3.2408 1.83855 0
M  V30 23748 H 2187.47 4.74 0.697187 0
M  V30 23749 H 2185.84 2.50399 0.466105 0
M  V30 23750 H 2186.62 3.27971 -1.01439 0
M  V30 23751 N 2189.07 2.77022e-05 1.576 0
M  V30 23752 C 2189.98 -1.0077 2.11855 0
M  V30 23753 C 2190.99 -1.37692 1.06382 0
M  V30 23754 O 2192.17 -1.46423 1.38283 0
M  V30 23755 C 2189.23 -2.28082 2.61112 0
M  V30 23756 C 2188.29 -1.97473 3.81186 0
M  V30 23757 C 2187.53 -3.18716 4.28084 0
M  V30 23758 O 2187.75 -4.30401 3.74315 0
M  V30 23759 O 2186.68 -3.02712 5.20239 0
M  V30 23760 H 2190.51 -0.576494 2.98178 0
M  V30 23761 H 2188.1 -0.218802 1.47789 0
M  V30 23762 H 2189.98 -3.02875 2.92992 0
M  V30 23763 H 2188.65 -2.70441 1.77886 0
M  V30 23764 H 2187.56 -1.20156 3.54279 0
M  V30 23765 H 2188.89 -1.59951 4.65485 0
M  V30 23766 N 2190.54 -1.55222 -0.272728 0
M  V30 23767 C 2191.77 -1.80199 -1.02679 0
M  V30 23768 C 2192.19 -0.573583 -1.79141 0
M  V30 23769 O 2191.55 0.476818 -1.74918 0
M  V30 23770 C 2191.6 -3.02627 -1.96084 0
M  V30 23771 O 2190.7 -2.77732 -3.04858 0
M  V30 23772 H 2190.05 -0.595589 -0.293547 0
M  V30 23773 H 2192.58 -2.02366 -0.301554 0
M  V30 23774 H 2192.59 -3.31367 -2.38033 0
M  V30 23775 H 2191.26 -3.91684 -1.39844 0
M  V30 23776 H 2189.84 -2.60089 -2.67223 0
M  V30 23777 N 2192.02 0.537252 -1.4816 0
M  V30 23778 C 2192.93 1.66957 -1.6481 0
M  V30 23779 C 2193.95 1.6571 -0.53068 0
M  V30 23780 O 2195.12 1.84794 -0.800816 0
M  V30 23781 C 2192.19 3.03435 -1.67714 0
M  V30 23782 C 2191.25 3.15595 -2.9103 0
M  V30 23783 C 2190.48 4.45562 -2.93786 0
M  V30 23784 O 2190.71 5.32226 -2.05162 0
M  V30 23785 O 2189.64 4.61934 -3.85876 0
M  V30 23786 H 2193.47 1.55849 -2.60662 0
M  V30 23787 H 2191.05 0.709526 -1.31477 0
M  V30 23788 H 2192.93 3.84616 -1.72187 0
M  V30 23789 H 2191.61 3.14884 -0.750333 0
M  V30 23790 H 2190.52 2.33736 -2.92093 0
M  V30 23791 H 2191.85 3.09059 -3.83071 0
M  V30 23792 N 2193.5 1.36626 0.785562 0
M  V30 23793 C 2194.91 1.27805 1.36098 0
M  V30 23794 C 2195.26 -0.080453 1.96035 0
M  V30 23795 O 2194.39 -0.982008 1.92836 0
M  V30 23796 C 2194.98 2.3143 2.47438 0
M  V30 23797 C 2193.54 2.26286 3.00785 0
M  V30 23798 C 2192.69 2.16002 1.73892 0
M  V30 23799 H 2195.64 1.47449 0.586902 0
M  V30 23800 H 2195.66 1.95297 3.26557 0
M  V30 23801 H 2195.17 3.30293 2.03785 0
M  V30 23802 H 2193.27 1.30903 3.48848 0
M  V30 23803 H 2193.39 3.19134 3.57338 0
M  V30 23804 H 2191.75 1.62319 1.96277 0
M  V30 23805 H 2192.53 3.16757 1.32362 0
M  V30 23806 N 2194.98 -1.01016 1.20969 0
M  V30 23807 C 2196.2 -1.78837 1.05034 0
M  V30 23808 C 2196.63 -1.8389 -0.39572 0
M  V30 23809 O 2195.99 -1.2787 -1.28527 0
M  V30 23810 C 2196.03 -3.20837 1.64608 0
M  V30 23811 O 2195.14 -4.02725 0.888059 0
M  V30 23812 H 2194.48 -0.55136 0.369997 0
M  V30 23813 H 2197.01 -1.27015 1.60401 0
M  V30 23814 H 2197.02 -3.71529 1.68613 0
M  V30 23815 H 2195.69 -3.16474 2.69846 0
M  V30 23816 H 2194.27 -3.61304 0.922711 0
M  V30 23817 N 2196.46 -1.01661 -1.20428 0
M  V30 23818 C 2197.4 -0.580183 -2.25248 0
M  V30 23819 C 2198.4 0.381086 -1.65058 0
M  V30 23820 O 2199.6 0.251007 -1.78241 0
M  V30 23821 H 2195.98 -0.169312 -0.732692 0
M  V30 23822 H 2197.95 -1.47516 -2.59387 0
M  V30 23823 C 2196.7 0.0657269 -3.47638 0
M  V30 23824 H 2196.02 -0.664944 -3.94232 0
M  V30 23825 H 2197.46 0.334208 -4.22681 0
M  V30 23826 C 2195.92 1.30855 -3.10449 0
M  V30 23827 O 2196.45 2.40185 -3.21985 0
M  V30 23828 N 2194.66 1.19265 -2.64998 0
M  V30 23829 H 2194.2 0.303019 -2.55812 0
M  V30 23830 H 2194.16 2.02519 -2.40486 0
M  V30 23831 N 2197.93 1.36205 -0.792844 0
M  V30 23832 C 2199.16 2.03931 -0.377737 0
M  V30 23833 C 2199.58 1.59384 0.998919 0
M  V30 23834 O 2198.94 0.763932 1.64419 0
M  V30 23835 C 2198.99 3.57734 -0.453698 0
M  V30 23836 O 2198.09 4.08875 0.538079 0
M  V30 23837 H 2197.44 0.644468 -0.159867 0
M  V30 23838 H 2199.97 1.74089 -1.07491 0
M  V30 23839 H 2199.98 4.06755 -0.318535 0
M  V30 23840 H 2198.65 3.8951 -1.45791 0
M  V30 23841 H 2197.23 3.71116 0.364294 0
M  V30 23842 N 2199.41 0.545154 1.47871 0
M  V30 23843 C 2200.64 0.0211204 2.06889 0
M  V30 23844 C 2201.06 -1.26718 1.39957 0
M  V30 23845 O 2200.41 -1.75741 0.492067 0
M  V30 23846 C 2200.46 -0.190754 3.60996 0
M  V30 23847 O 2200.18 1.04652 4.25417 0
M  V30 23848 C 2201.69 -0.753445 4.3685 0
M  V30 23849 H 2198.91 0.0403753 0.669784 0
M  V30 23850 H 2201.45 0.755128 1.90048 0
M  V30 23851 H 2199.6 -0.874854 3.77392 0
M  V30 23852 H 2200.02 0.836702 5.17783 0
M  V30 23853 H 2201.49 -0.851043 5.454 0
M  V30 23854 H 2201.97 -1.76193 4.02309 0
M  V30 23855 H 2202.58 -0.105429 4.25169 0
M  V30 23856 N 2200.89 -1.55074 0.28101 0
M  V30 23857 C 2201.8 -2.26427 -0.61384 0
M  V30 23858 C 2202.82 -1.29226 -1.16519 0
M  V30 23859 O 2203.99 -1.62173 -1.19423 0
M  V30 23860 C 2201.06 -2.97593 -1.77875 0
M  V30 23861 C 2200.12 -4.10286 -1.26348 0
M  V30 23862 C 2199.35 -4.78049 -2.37287 0
M  V30 23863 O 2199.57 -4.45053 -3.56769 0
M  V30 23864 O 2198.51 -5.65874 -2.05109 0
M  V30 23865 H 2202.33 -3.03679 -0.0356398 0
M  V30 23866 H 2199.92 -1.49322 0.0481948 0
M  V30 23867 H 2201.8 -3.42297 -2.45785 0
M  V30 23868 H 2200.48 -2.23253 -2.34393 0
M  V30 23869 H 2199.38 -3.70025 -0.55067 0
M  V30 23870 H 2200.72 -4.86545 -0.743979 0
M  V30 23871 N 2202.37 -0.00838561 -1.57598 0
M  V30 23872 C 2203.62 0.673366 -1.90552 0
M  V30 23873 C 2203.94 1.73845 -0.883332 0
M  V30 23874 O 2203.21 1.95744 0.0781097 0
M  V30 23875 H 2201.79 0.251704 -0.703316 0
M  V30 23876 H 2204.45 -0.0512934 -1.94832 0
M  V30 23877 H 2203.55 1.1393 -2.90562 0
M  V30 23878 N 2203.85 1.55365 0.264492 0
M  V30 23879 C 2204.76 1.91936 1.34899 0
M  V30 23880 C 2205.77 0.81762 1.53594 0
M  V30 23881 O 2206.95 1.11745 1.67556 0
M  V30 23882 C 2204.01 2.19126 2.68672 0
M  V30 23883 C 2203.08 3.42634 2.58651 0
M  V30 23884 C 2202.31 3.68517 3.86045 0
M  V30 23885 O 2202.53 2.96765 4.87121 0
M  V30 23886 O 2201.47 4.62051 3.85736 0
M  V30 23887 H 2205.29 2.84272 1.06878 0
M  V30 23888 H 2202.88 1.4202 0.46375 0
M  V30 23889 H 2204.76 2.38001 3.47755 0
M  V30 23890 H 2203.43 1.29971 2.96461 0
M  V30 23891 H 2202.34 3.29086 1.77914 0
M  V30 23892 H 2203.67 4.32035 2.3581 0
M  V30 23893 N 2205.33 -0.529387 1.48443 0
M  V30 23894 C 2206.55 -1.30991 1.60153 0
M  V30 23895 C 2206.97 -1.86973 0.262017 0
M  V30 23896 O 2206.33 -1.66432 -0.748776 0
M  V30 23897 C 2206.38 -2.46033 2.64858 0
M  V30 23898 O 2206.1 -1.92358 3.93612 0
M  V30 23899 C 2207.6 -3.37844 2.87013 0
M  V30 23900 H 2204.82 -0.398328 0.539978 0
M  V30 23901 H 2207.36 -0.638563 1.94275 0
M  V30 23902 H 2205.52 -3.09051 2.33594 0
M  V30 23903 H 2205.93 -2.67667 4.51059 0
M  V30 23904 H 2207.41 -4.14913 3.64076 0
M  V30 23905 H 2207.88 -3.93111 1.95859 0
M  V30 23906 H 2208.49 -2.80617 3.19584 0
M  V30 23907 N 2206.8 -1.37041 -0.778305 0
M  V30 23908 C 2208.21 -1.28525 -1.35419 0
M  V30 23909 C 2208.57 0.0700557 -1.96075 0
M  V30 23910 O 2207.69 0.971767 -1.93354 0
M  V30 23911 C 2208.29 -2.32739 -2.46207 0
M  V30 23912 C 2206.84 -2.27878 -2.99581 0
M  V30 23913 C 2205.99 -2.16921 -1.72744 0
M  V30 23914 H 2208.94 -1.47758 -0.579074 0
M  V30 23915 H 2208.96 -1.97026 -3.25517 0
M  V30 23916 H 2208.48 -3.31369 -2.0203 0
M  V30 23917 H 2206.58 -1.32751 -3.48149 0
M  V30 23918 H 2206.69 -3.21025 -3.5564 0
M  V30 23919 H 2205.05 -1.63358 -1.95413 0
M  V30 23920 H 2205.84 -3.17455 -1.30681 0
M  V30 23921 N 2208.28 1.00373 -1.21503 0
M  V30 23922 C 2209.52 1.75699 -1.04447 0
M  V30 23923 C 2209.89 1.8747 0.414611 0
M  V30 23924 O 2211.09 2.59371 0.705718 0
M  V30 23925 C 2209.36 3.13074 -1.72394 0
M  V30 23926 S 2210.92 4.04274 -1.70611 0
M  V30 23927 H 2207.73 0.604525 -0.374259 0
M  V30 23928 H 2210.34 1.20089 -1.54269 0
M  V30 23929 H 2209.04 3.02141 -2.77739 0
M  V30 23930 H 2208.57 3.73757 -1.22758 0
M  V30 23931 H 2210.59 4.90528 -0.748098 0
M  V30 23932 N 2209.76 1.02298 1.19887 0
M  V30 23933 C 2211.01 0.714591 1.89045 0
M  V30 23934 C 2211.33 -0.758649 1.79637 0
M  V30 23935 O 2210.6 -1.54616 1.20294 0
M  V30 23936 H 2209.18 0.261329 0.699797 0
M  V30 23937 H 2211.84 1.29595 1.45572 0
M  V30 23938 H 2210.94 1.00365 2.95522 0
M  V30 23939 N 2211.24 -1.35782 0.800057 0
M  V30 23940 C 2212.46 -2.03728 0.388546 0
M  V30 23941 C 2212.89 -1.59911 -0.990453 0
M  V30 23942 O 2212.25 -0.772641 -1.64012 0
M  V30 23943 C 2212.29 -3.57489 0.472663 0
M  V30 23944 O 2211.4 -4.09154 -0.516388 0
M  V30 23945 H 2210.74 -0.643611 0.163282 0
M  V30 23946 H 2213.27 -1.73516 1.08413 0
M  V30 23947 H 2213.28 -4.0658 0.340102 0
M  V30 23948 H 2211.95 -3.88731 1.47855 0
M  V30 23949 H 2210.53 -3.71304 -0.344607 0
M  V30 23950 N 2212.72 -0.552988 -1.4758 0
M  V30 23951 C 2213.94 -0.0300957 -2.07378 0
M  V30 23952 C 2214.37 1.25226 -1.40357 0
M  V30 23953 O 2213.72 1.74909 -0.477129 0
M  V30 23954 C 2213.77 0.153168 -3.60275 0
M  V30 23955 O 2212.88 1.21671 -3.94043 0
M  V30 23956 H 2212.22 -0.0494298 -0.662158 0
M  V30 23957 H 2214.75 -0.767468 -1.8966 0
M  V30 23958 H 2214.76 0.36869 -4.06331 0
M  V30 23959 H 2213.43 -0.783469 -4.08454 0
M  V30 23960 H 2212.01 0.982016 -3.59737 0
M  V30 23961 N 2214.19 1.54923 -0.28923 0
M  V30 23962 C 2215.44 1.999 0.323483 0
M  V30 23963 C 2215.77 1.17765 1.54795 0
M  V30 23964 O 2215.02 0.238869 1.94237 0
M  V30 23965 C 2215.32 3.49738 0.736058 0
M  V30 23966 C 2214.99 4.4925 -0.385354 0
M  V30 23967 C 2213.65 4.7618 -0.69324 0
M  V30 23968 C 2216 5.08573 -1.1403 0
M  V30 23969 C 2213.33 5.59698 -1.7594 0
M  V30 23970 C 2215.68 5.9325 -2.19629 0
M  V30 23971 C 2214.35 6.18496 -2.51037 0
M  V30 23972 H 2213.62 0.731484 0.118371 0
M  V30 23973 H 2216.26 1.87149 -0.40588 0
M  V30 23974 H 2214.57 3.60038 1.54532 0
M  V30 23975 H 2216.27 3.81955 1.22112 0
M  V30 23976 H 2212.86 4.28386 -0.135277 0
M  V30 23977 H 2217.04 4.87779 -0.915696 0
M  V30 23978 H 2212.3 5.77499 -2.0076 0
M  V30 23979 H 2216.47 6.38247 -2.78593 0
M  V30 23980 H 2214.1 6.83002 -3.33784 0
M  V30 23981 N 2215.67 0.0167433 1.57591 0
M  V30 23982 C 2216.63 -0.954167 2.08395 0
M  V30 23983 C 2217.63 -1.26196 0.996553 0
M  V30 23984 O 2218.82 -1.20436 1.25861 0
M  V30 23985 C 2215.96 -2.27431 2.53944 0
M  V30 23986 H 2217.15 -0.514399 2.95455 0
M  V30 23987 H 2214.7 -0.231062 1.54583 0
M  V30 23988 H 2215.44 -2.76063 1.70176 0
M  V30 23989 H 2215.22 -2.06406 3.33375 0
M  V30 23990 H 2216.71 -2.97048 2.93517 0
M  V30 23991 N 2217.15 -1.55503 -0.256249 0
M  V30 23992 C 2218.4 -1.77159 -0.987048 0
M  V30 23993 C 2218.73 -0.580347 -1.85326 0
M  V30 23994 O 2218 0.421653 -1.89875 0
M  V30 23995 C 2218.29 -3.08616 -1.85548 0
M  V30 23996 C 2218.14 -4.38127 -1.01808 0
M  V30 23997 C 2219.46 -3.36233 -2.83964 0
M  V30 23998 H 2216.58 -0.644533 -0.357417 0
M  V30 23999 H 2219.22 -1.88237 -0.258206 0
M  V30 24000 H 2217.37 -2.99302 -2.4769 0
M  V30 24001 H 2219.04 -4.5942 -0.416078 0
M  V30 24002 H 2217.29 -4.32603 -0.322102 0
M  V30 24003 H 2217.96 -5.26471 -1.6593 0
M  V30 24004 H 2220.43 -3.45449 -2.31958 0
M  V30 24005 H 2219.31 -4.29448 -3.41856 0
M  V30 24006 H 2219.57 -2.56687 -3.5995 0
M  V30 24007 N 2218.63 0.521507 -1.48721 0
M  V30 24008 C 2219.88 1.27687 -1.5717 0
M  V30 24009 C 2220.2 1.92896 -0.249309 0
M  V30 24010 O 2219.46 1.80292 0.761131 0
M  V30 24011 C 2219.76 2.38143 -2.66501 0
M  V30 24012 C 2219.42 1.9053 -4.08667 0
M  V30 24013 C 2218.09 1.77263 -4.4736 0
M  V30 24014 C 2220.44 1.54654 -4.97726 0
M  V30 24015 C 2217.77 1.26468 -5.72907 0
M  V30 24016 C 2220.12 1.05318 -6.23771 0
M  V30 24017 C 2218.78 0.906745 -6.61313 0
M  V30 24018 H 2218.05 0.467238 -0.575125 0
M  V30 24019 H 2220.7 0.581019 -1.82473 0
M  V30 24020 H 2219 3.13432 -2.3509 0
M  V30 24021 H 2220.7 2.96252 -2.70251 0
M  V30 24022 H 2217.29 2.0181 -3.78115 0
M  V30 24023 H 2221.47 1.6376 -4.68504 0
M  V30 24024 H 2216.73 1.13825 -6.00711 0
M  V30 24025 H 2220.9 0.766318 -6.92171 0
M  V30 24026 H 2218.53 0.51095 -7.58481 0
M  V30 24027 N 2220.11 1.37452 0.771027 0
M  V30 24028 C 2221.34 1.35698 1.55787 0
M  V30 24029 C 2221.74 -0.059419 1.89107 0
M  V30 24030 O 2221.09 -1.0318 1.51985 0
M  V30 24031 C 2221.15 2.13128 2.89511 0
M  V30 24032 C 2220.81 3.62087 2.78823 0
M  V30 24033 C 2221.81 4.55954 2.49804 0
M  V30 24034 C 2219.5 4.05218 2.96822 0
M  V30 24035 C 2221.49 5.90931 2.38913 0
M  V30 24036 C 2219.18 5.40281 2.85552 0
M  V30 24037 C 2220.17 6.3295 2.56638 0
M  V30 24038 O 2219.86 7.6553 2.45395 0
M  V30 24039 H 2219.59 0.466489 0.489248 0
M  V30 24040 H 2222.15 1.81404 0.963414 0
M  V30 24041 H 2220.38 1.62114 3.51078 0
M  V30 24042 H 2222.07 2.04 3.50911 0
M  V30 24043 H 2222.83 4.23941 2.35583 0
M  V30 24044 H 2218.71 3.33448 3.18329 0
M  V30 24045 H 2222.26 6.63231 2.16265 0
M  V30 24046 H 2218.15 5.71896 2.99341 0
M  V30 24047 H 2218.92 7.75859 2.60739 0
M  V30 24048 N 2221.58 -0.997276 1.22033 0
M  V30 24049 C 2222.83 -1.73619 1.04225 0
M  V30 24050 C 2223.16 -1.89839 -0.423231 0
M  V30 24051 O 2222.41 -1.43544 -1.33017 0
M  V30 24052 C 2222.71 -3.1473 1.6935 0
M  V30 24053 C 2222.38 -3.18436 3.19232 0
M  V30 24054 C 2221.04 -3.19155 3.6013 0
M  V30 24055 C 2223.39 -3.15071 4.15187 0
M  V30 24056 C 2220.72 -3.14203 4.95473 0
M  V30 24057 C 2223.07 -3.1166 5.505 0
M  V30 24058 C 2221.74 -3.10692 5.90785 0
M  V30 24059 H 2221.01 -0.635316 0.381385 0
M  V30 24060 H 2223.65 -1.16829 1.51734 0
M  V30 24061 H 2221.96 -3.74801 1.14154 0
M  V30 24062 H 2223.66 -3.70637 1.53066 0
M  V30 24063 H 2220.25 -3.18624 2.86664 0
M  V30 24064 H 2224.43 -3.13669 3.84611 0
M  V30 24065 H 2219.69 -3.11796 5.25921 0
M  V30 24066 H 2223.86 -3.08011 6.24582 0
M  V30 24067 H 2221.49 -3.0661 6.95625 0
M  V30 24068 N 2223.06 -1.02932 -1.19343 0
M  V30 24069 C 2224.31 -0.721289 -1.88362 0
M  V30 24070 C 2224.62 0.753223 -1.80516 0
M  V30 24071 O 2225.83 1.17432 -2.4479 0
M  V30 24072 C 2224.29 -1.23984 -3.3787 0
M  V30 24073 C 2223.89 -2.74217 -3.54273 0
M  V30 24074 C 2225.64 -1.00782 -4.12363 0
M  V30 24075 C 2223.55 -3.19488 -4.97676 0
M  V30 24076 H 2222.48 -0.26611 -0.70548 0
M  V30 24077 H 2225.13 -1.24368 -1.34926 0
M  V30 24078 H 2223.51 -0.645369 -3.90706 0
M  V30 24079 H 2224.68 -3.39323 -3.11763 0
M  V30 24080 H 2223 -2.95704 -2.93169 0
M  V30 24081 H 2225.59 -1.32133 -5.18117 0
M  V30 24082 H 2225.94 0.0553576 -4.16263 0
M  V30 24083 H 2226.47 -1.56632 -3.65666 0
M  V30 24084 H 2223.21 -4.25137 -4.98938 0
M  V30 24085 H 2222.73 -2.5911 -5.40946 0
M  V30 24086 H 2224.41 -3.12855 -5.66331 0
M  V30 24087 N 2224.54 1.35356 -0.807246 0
M  V30 24088 C 2225.77 2.03519 -0.399345 0
M  V30 24089 C 2226.19 1.60434 0.981958 0
M  V30 24090 O 2225.55 0.781328 1.636 0
M  V30 24091 C 2225.6 3.57233 -0.491615 0
M  V30 24092 O 2224.7 4.09422 0.494682 0
M  V30 24093 H 2224.04 0.642736 -0.166693 0
M  V30 24094 H 2226.57 1.72939 -1.09331 0
M  V30 24095 H 2226.58 4.06394 -0.361659 0
M  V30 24096 H 2225.26 3.87941 -1.49914 0
M  V30 24097 H 2223.83 3.71482 0.324911 0
M  V30 24098 N 2226.02 0.560807 1.47284 0
M  V30 24099 C 2227.27 0.0380976 2.02464 0
M  V30 24100 C 2227.59 -1.31319 1.43477 0
M  V30 24101 O 2226.85 -1.86866 0.581344 0
M  V30 24102 C 2227.15 -0.100721 3.57258 0
M  V30 24103 C 2226.81 1.18014 4.35182 0
M  V30 24104 C 2225.48 1.53111 4.56191 0
M  V30 24105 C 2227.83 2.02876 4.80095 0
M  V30 24106 C 2225.16 2.72909 5.19363 0
M  V30 24107 C 2227.51 3.2188 5.44588 0
M  V30 24108 C 2226.17 3.57286 5.63829 0
M  V30 24109 H 2225.44 0.0139409 0.740869 0
M  V30 24110 H 2228.09 0.733043 1.76914 0
M  V30 24111 H 2226.39 -0.878657 3.8182 0
M  V30 24112 H 2228.09 -0.52057 3.97607 0
M  V30 24113 H 2224.68 0.896874 4.19111 0
M  V30 24114 H 2228.86 1.77068 4.63638 0
M  V30 24115 H 2224.12 3.00505 5.32454 0
M  V30 24116 H 2228.29 3.87921 5.78351 0
M  V30 24117 H 2225.92 4.50208 6.1255 0
M  V30 24118 N 2227.5 -1.54768 0.297442 0
M  V30 24119 C 2228.73 -2.04183 -0.315129 0
M  V30 24120 C 2229.13 -1.17441 -1.48338 0
M  V30 24121 O 2228.48 -0.191923 -1.82695 0
M  V30 24122 C 2228.54 -3.49608 -0.837521 0
M  V30 24123 C 2228.2 -4.5654 0.204992 0
M  V30 24124 C 2229.2 -5.0955 1.03222 0
M  V30 24125 C 2226.89 -5.01109 0.345666 0
M  V30 24126 C 2228.88 -6.05667 1.98611 0
M  V30 24127 C 2226.57 -5.97047 1.303 0
M  V30 24128 C 2227.56 -6.49209 2.1217 0
M  V30 24129 O 2227.25 -7.43268 3.06281 0
M  V30 24130 H 2226.98 -0.672052 -0.0729528 0
M  V30 24131 H 2229.54 -2.00764 0.433942 0
M  V30 24132 H 2227.77 -3.50339 -1.63706 0
M  V30 24133 H 2229.46 -3.82239 -1.36559 0
M  V30 24134 H 2230.22 -4.75914 0.934395 0
M  V30 24135 H 2226.1 -4.60139 -0.281629 0
M  V30 24136 H 2229.65 -6.46306 2.62553 0
M  V30 24137 H 2225.54 -6.301 1.40156 0
M  V30 24138 H 2226.31 -7.61058 3.01219 0
M  V30 24139 N 2228.97 -0.0251005 -1.5758 0
M  V30 24140 C 2229.91 0.992741 -2.05475 0
M  V30 24141 C 2230.89 1.31984 -0.949684 0
M  V30 24142 O 2232.07 1.4372 -1.21971 0
M  V30 24143 C 2229.2 2.31384 -2.47344 0
M  V30 24144 C 2228.24 2.14163 -3.68831 0
M  V30 24145 S 2229.08 1.4442 -5.15658 0
M  V30 24146 C 2230.23 2.77908 -5.60819 0
M  V30 24147 H 2230.46 0.585027 -2.91487 0
M  V30 24148 H 2228 0.18648 -1.5327 0
M  V30 24149 H 2229.96 3.07334 -2.72132 0
M  V30 24150 H 2228.62 2.69289 -1.61685 0
M  V30 24151 H 2227.81 3.11819 -3.95961 0
M  V30 24152 H 2227.41 1.46356 -3.44174 0
M  V30 24153 H 2229.7 3.74156 -5.64813 0
M  V30 24154 H 2230.65 2.55448 -6.60418 0
M  V30 24155 H 2231.05 2.8297 -4.88455 0
M  V30 24156 N 2230.45 1.55637 0.247999 0
M  V30 24157 C 2231.38 1.9324 1.31075 0
M  V30 24158 C 2232.36 0.797201 1.50262 0
M  V30 24159 O 2233.55 1.0574 1.62889 0
M  V30 24160 C 2230.68 2.22614 2.66571 0
M  V30 24161 C 2229.63 3.38375 2.62081 0
M  V30 24162 C 2228.96 3.53288 4.01362 0
M  V30 24163 C 2230.26 4.74094 2.19163 0
M  V30 24164 H 2231.95 2.82259 0.998506 0
M  V30 24165 H 2229.5 1.35804 0.478886 0
M  V30 24166 H 2231.45 2.47509 3.41053 0
M  V30 24167 H 2230.18 1.30419 2.9943 0
M  V30 24168 H 2228.83 3.13487 1.90057 0
M  V30 24169 H 2228.48 2.58515 4.31484 0
M  V30 24170 H 2228.18 4.31134 3.99246 0
M  V30 24171 H 2229.71 3.80503 4.77546 0
M  V30 24172 H 2231.12 4.98368 2.83376 0
M  V30 24173 H 2229.52 5.55034 2.2816 0
M  V30 24174 H 2230.59 4.7123 1.14327 0
M  V30 24175 N 2231.93 -0.513613 1.48996 0
M  V30 24176 C 2233.17 -1.27882 1.59454 0
M  V30 24177 C 2233.54 -1.90099 0.269513 0
M  V30 24178 O 2234.74 -2.67642 0.249186 0
M  V30 24179 C 2233.01 -2.32683 2.71281 0
M  V30 24180 S 2234.57 -3.18711 3.0161 0
M  V30 24181 H 2231.38 -0.434779 0.562573 0
M  V30 24182 H 2233.99 -0.583268 1.86596 0
M  V30 24183 H 2232.69 -1.85484 3.66093 0
M  V30 24184 H 2232.22 -3.06924 2.46091 0
M  V30 24185 H 2234.24 -4.33095 2.42163 0
M  V30 24186 N 2233.41 -1.37859 -0.763727 0
M  V30 24187 C 2234.37 -1.34084 -1.85887 0
M  V30 24188 C 2235.37 -0.243305 -1.58949 0
M  V30 24189 O 2236.56 -0.499619 -1.66882 0
M  V30 24190 C 2233.69 -1.08495 -3.23174 0
M  V30 24191 H 2234.89 -2.31506 -1.90644 0
M  V30 24192 H 2232.44 -1.23004 -0.964345 0
M  V30 24193 H 2233.18 -0.116375 -3.24091 0
M  V30 24194 H 2232.96 -1.87946 -3.4412 0
M  V30 24195 H 2234.45 -1.08524 -4.03252 0
M  V30 24196 N 2234.89 0.990791 -1.22561 0
M  V30 24197 C 2236.13 1.73064 -1.05144 0
M  V30 24198 C 2236.46 1.90061 0.413157 0
M  V30 24199 O 2235.72 1.44247 1.32254 0
M  V30 24200 C 2236.02 3.13828 -1.71017 0
M  V30 24201 C 2235.68 3.16739 -3.20916 0
M  V30 24202 C 2234.34 3.17241 -3.61817 0
M  V30 24203 C 2236.7 3.12864 -4.16852 0
M  V30 24204 C 2234.02 3.11571 -4.97132 0
M  V30 24205 C 2236.38 3.08737 -5.52145 0
M  V30 24206 C 2235.04 3.07555 -5.92424 0
M  V30 24207 H 2234.31 0.633284 -0.384749 0
M  V30 24208 H 2236.96 1.16022 -1.52352 0
M  V30 24209 H 2235.26 3.74191 -1.1614 0
M  V30 24210 H 2236.96 3.6982 -1.55029 0
M  V30 24211 H 2233.55 3.171 -2.8835 0
M  V30 24212 H 2237.73 3.11625 -3.86269 0
M  V30 24213 H 2232.99 3.09003 -5.27567 0
M  V30 24214 H 2237.16 3.04694 -6.26206 0
M  V30 24215 H 2234.79 3.02916 -6.97242 0
M  V30 24216 N 2236.37 1.03564 1.18795 0
M  V30 24217 C 2237.3 0.643058 2.24471 0
M  V30 24218 C 2238.28 -0.351253 1.66434 0
M  V30 24219 O 2239.46 -0.232471 1.92804 0
M  V30 24220 C 2236.59 1.85533e-05 3.473 0
M  V30 24221 C 2235.55 0.91733 4.18054 0
M  V30 24222 C 2234.87 0.139035 5.34519 0
M  V30 24223 C 2236.17 2.23415 4.72105 0
M  V30 24224 H 2237.87 1.52648 2.57564 0
M  V30 24225 H 2235.41 0.735416 1.23805 0
M  V30 24226 H 2237.36 -0.286309 4.20426 0
M  V30 24227 H 2236.09 -0.918243 3.13426 0
M  V30 24228 H 2234.75 1.18796 3.46818 0
M  V30 24229 H 2234.4 -0.781475 4.96892 0
M  V30 24230 H 2234.1 0.750107 5.82793 0
M  V30 24231 H 2235.62 -0.140393 6.10439 0
M  V30 24232 H 2237.03 2.00888 5.36951 0
M  V30 24233 H 2235.43 2.79774 5.30892 0
M  V30 24234 H 2236.5 2.88414 3.89802 0
M  V30 24235 N 2237.84 -1.34926 0.814413 0
M  V30 24236 C 2239.09 -1.97796 0.394906 0
M  V30 24237 C 2239.41 -1.65313 -1.04552 0
M  V30 24238 O 2240.61 -2.21607 -1.56852 0
M  V30 24239 C 2239.07 -3.53886 0.655165 0
M  V30 24240 C 2238.68 -3.95272 2.10865 0
M  V30 24241 C 2240.42 -4.23429 0.301403 0
M  V30 24242 C 2238.33 -5.4424 2.31425 0
M  V30 24243 H 2237.26 -0.740136 0.143926 0
M  V30 24244 H 2239.91 -1.53886 0.999571 0
M  V30 24245 H 2238.29 -3.95995 -0.0195557 0
M  V30 24246 H 2239.46 -3.64293 2.82183 0
M  V30 24247 H 2237.78 -3.38642 2.42303 0
M  V30 24248 H 2240.38 -5.32944 0.432962 0
M  V30 24249 H 2240.72 -4.09429 -0.753238 0
M  V30 24250 H 2241.25 -3.86768 0.930356 0
M  V30 24251 H 2237.99 -5.63216 3.35363 0
M  V30 24252 H 2237.51 -5.76761 1.6464 0
M  V30 24253 H 2239.19 -6.10807 2.13362 0
M  V30 24254 N 2239.32 -0.56861 -1.46985 0
M  V30 24255 C 2240.57 -0.0466248 -2.01646 0
M  V30 24256 C 2240.88 1.31584 -1.44723 0
M  V30 24257 O 2242.09 1.92838 -1.91117 0
M  V30 24258 C 2240.55 -0.0328152 -3.59885 0
M  V30 24259 C 2240.15 -1.39274 -4.25801 0
M  V30 24260 C 2241.9 0.435964 -4.22255 0
M  V30 24261 C 2239.8 -1.33742 -5.76079 0
M  V30 24262 H 2238.73 -0.0136602 -0.753876 0
M  V30 24263 H 2241.39 -0.718161 -1.68863 0
M  V30 24264 H 2239.77 0.704601 -3.89681 0
M  V30 24265 H 2240.94 -2.14877 -4.07633 0
M  V30 24266 H 2239.26 -1.80038 -3.75467 0
M  V30 24267 H 2241.85 0.495926 -5.32395 0
M  V30 24268 H 2242.2 1.45046 -3.90214 0
M  V30 24269 H 2242.73 -0.246947 -3.97033 0
M  V30 24270 H 2239.47 -2.32827 -6.12757 0
M  V30 24271 H 2238.99 -0.623372 -5.96552 0
M  V30 24272 H 2240.67 -1.04431 -6.38516 0
M  V30 24273 N 2240.8 1.54608 -0.305646 0
M  V30 24274 C 2241.75 2.25147 0.584079 0
M  V30 24275 C 2242.74 1.25913 1.13324 0
M  V30 24276 O 2243.95 1.43749 1.08334 0
M  V30 24277 H 2240.32 0.722957 0.206971 0
M  V30 24278 H 2242.29 2.98381 -0.0333435 0
M  V30 24279 C 2241.04 3.00904 1.74219 0
M  V30 24280 H 2240.37 3.7707 1.32885 0
M  V30 24281 H 2241.81 3.53535 2.34071 0
M  V30 24282 C 2240.26 2.08144 2.6491 0
M  V30 24283 O 2240.79 1.65252 3.66135 0
M  V30 24284 N 2239 1.74004 2.32747 0
M  V30 24285 H 2238.55 2.09081 1.50476 0
M  V30 24286 H 2238.51 1.12216 2.93692 0
M  V30 24287 N 2242.28 0.033457 1.57564 0
M  V30 24288 C 2243.21 -0.945228 2.13513 0
M  V30 24289 C 2244.19 -1.33642 1.05233 0
M  V30 24290 O 2245.37 -1.41427 1.33087 0
M  V30 24291 C 2242.5 -2.22611 2.66574 0
M  V30 24292 C 2241.46 -1.97554 3.79679 0
M  V30 24293 C 2240.78 -3.31945 4.19186 0
M  V30 24294 C 2242.08 -1.31126 5.05572 0
M  V30 24295 H 2243.78 -0.479273 2.95539 0
M  V30 24296 H 2241.32 -0.22909 1.42166 0
M  V30 24297 H 2243.28 -2.91461 3.04349 0
M  V30 24298 H 2242 -2.7138 1.81715 0
M  V30 24299 H 2240.66 -1.31121 3.42349 0
M  V30 24300 H 2240.31 -3.78481 3.31302 0
M  V30 24301 H 2240.01 -3.15983 4.95407 0
M  V30 24302 H 2241.53 -4.02055 4.59548 0
M  V30 24303 H 2242.95 -1.89982 5.40906 0
M  V30 24304 H 2241.34 -1.25548 5.8682 0
M  V30 24305 H 2242.41 -0.284809 4.84063 0
M  V30 24306 N 2243.76 -1.55766 -0.239741 0
M  V30 24307 C 2245 -1.77932 -0.96677 0
M  V30 24308 C 2245.33 -0.599047 -1.85045 0
M  V30 24309 O 2244.59 0.417362 -1.91198 0
M  V30 24310 C 2244.88 -3.05676 -1.85195 0
M  V30 24311 C 2244.55 -4.36691 -1.12303 0
M  V30 24312 C 2243.21 -4.72292 -0.921606 0
M  V30 24313 C 2245.56 -5.17654 -0.606928 0
M  V30 24314 C 2242.89 -5.86386 -0.191893 0
M  V30 24315 C 2245.24 -6.32505 0.109352 0
M  V30 24316 C 2243.91 -6.66722 0.32219 0
M  V30 24317 H 2243.18 -0.651099 -0.353766 0
M  V30 24318 H 2245.83 -1.90036 -0.236307 0
M  V30 24319 H 2244.13 -2.88614 -2.6497 0
M  V30 24320 H 2245.83 -3.20026 -2.41629 0
M  V30 24321 H 2242.42 -4.08727 -1.28997 0
M  V30 24322 H 2246.6 -4.90599 -0.750067 0
M  V30 24323 H 2241.86 -6.11398 -0.0165874 0
M  V30 24324 H 2246.03 -6.94479 0.516859 0
M  V30 24325 H 2243.66 -7.54977 0.889573 0
M  V30 24326 N 2245.23 0.505704 -1.49266 0
M  V30 24327 C 2246.48 1.26199 -1.5875 0
M  V30 24328 C 2246.81 1.92296 -0.271261 0
M  V30 24329 O 2246.09 1.80491 0.724799 0
M  V30 24330 C 2246.37 2.33263 -2.74336 0
M  V30 24331 C 2246.22 1.71698 -4.1574 0
M  V30 24332 C 2247.54 3.3486 -2.85581 0
M  V30 24333 H 2244.66 0.457468 -0.577834 0
M  V30 24334 H 2247.3 0.560865 -1.81533 0
M  V30 24335 H 2245.45 2.93063 -2.55042 0
M  V30 24336 H 2247.13 1.15761 -4.46539 0
M  V30 24337 H 2245.37 1.02128 -4.21607 0
M  V30 24338 H 2246.04 2.49332 -4.92481 0
M  V30 24339 H 2248.52 2.85045 -3.03132 0
M  V30 24340 H 2247.39 4.0714 -3.68142 0
M  V30 24341 H 2247.65 3.969 -1.94739 0
M  V30 24342 N 2246.71 1.38262 0.756405 0
M  V30 24343 C 2247.68 1.35068 1.85173 0
M  V30 24344 C 2248.68 0.251731 1.58817 0
M  V30 24345 O 2249.87 0.508462 1.66614 0
M  V30 24346 C 2247 1.10207 3.22595 0
M  V30 24347 H 2248.19 2.32514 1.89413 0
M  V30 24348 H 2245.74 1.23514 0.957808 0
M  V30 24349 H 2246.48 0.133561 3.24025 0
M  V30 24350 H 2246.26 1.89768 3.43119 0
M  V30 24351 H 2247.75 1.10661 4.02671 0
M  V30 24352 N 2248.19 -0.984277 1.23084 0
M  V30 24353 C 2249.44 -1.72759 1.06217 0
M  V30 24354 C 2249.77 -1.90024 -0.40055 0
M  V30 24355 O 2249.04 -1.44969 -1.2967 0
M  V30 24356 C 2249.33 -3.12814 1.7838 0
M  V30 24357 C 2249.18 -3.03143 3.32301 0
M  V30 24358 C 2250.5 -4.12159 1.54316 0
M  V30 24359 H 2247.62 -0.627054 0.387262 0
M  V30 24360 H 2250.26 -1.14614 1.51538 0
M  V30 24361 H 2248.41 -3.62454 1.39854 0
M  V30 24362 H 2250.08 -2.61057 3.80325 0
M  V30 24363 H 2248.33 -2.39741 3.61534 0
M  V30 24364 H 2249 -4.02289 3.77979 0
M  V30 24365 H 2251.47 -3.7131 1.87797 0
M  V30 24366 H 2250.35 -5.08254 2.0729 0
M  V30 24367 H 2250.61 -4.39512 0.477649 0
M  V30 24368 N 2249.67 -1.04192 -1.18244 0
M  V30 24369 C 2250.92 -0.741227 -1.87587 0
M  V30 24370 C 2251.23 0.734034 -1.81304 0
M  V30 24371 O 2252.44 1.14829 -2.46021 0
M  V30 24372 C 2250.89 -1.27561 -3.36536 0
M  V30 24373 C 2250.5 -2.77959 -3.51344 0
M  V30 24374 C 2252.24 -1.0515 -4.11271 0
M  V30 24375 C 2250.15 -3.24748 -4.94259 0
M  V30 24376 H 2249.08 -0.273578 -0.702617 0
M  V30 24377 H 2251.73 -1.25792 -1.33599 0
M  V30 24378 H 2250.11 -0.686772 -3.89999 0
M  V30 24379 H 2251.29 -3.42611 -3.08147 0
M  V30 24380 H 2249.6 -2.98797 -2.90016 0
M  V30 24381 H 2252.2 -1.3762 -5.16686 0
M  V30 24382 H 2252.54 0.0112042 -4.16298 0
M  V30 24383 H 2253.08 -1.60501 -3.63984 0
M  V30 24384 H 2249.82 -4.30405 -4.94401 0
M  V30 24385 H 2249.34 -2.64833 -5.38167 0
M  V30 24386 H 2251.01 -3.18844 -5.62981 0
M  V30 24387 N 2251.15 1.34492 -0.821557 0
M  V30 24388 C 2252.08 2.27426 -0.187744 0
M  V30 24389 C 2253.06 1.48822 0.655044 0
M  V30 24390 O 2254.24 1.78044 0.61908 0
M  V30 24391 C 2251.37 3.30563 0.737937 0
M  V30 24392 C 2250.41 4.26491 -0.0271463 0
M  V30 24393 S 2251.25 5.17589 -1.37338 0
M  V30 24394 C 2252.4 6.24262 -0.452537 0
M  V30 24395 H 2252.64 2.80835 -0.975647 0
M  V30 24396 H 2250.17 1.41519 -0.617385 0
M  V30 24397 H 2252.13 3.90475 1.26647 0
M  V30 24398 H 2250.79 2.76004 1.49935 0
M  V30 24399 H 2249.98 4.99439 0.676513 0
M  V30 24400 H 2249.58 3.70826 -0.486185 0
M  V30 24401 H 2251.88 6.76562 0.356438 0
M  V30 24402 H 2252.82 6.98672 -1.15165 0
M  V30 24403 H 2253.23 5.64485 -0.0415747 0
M  V30 24404 N 2252.62 0.576397 1.46681 0
M  V30 24405 C 2253.9 -0.00699999 1.95599 0
M  V30 24406 C 2254.28 -1.46587 1.51906 0
M  V30 24407 O 2253.63 -2.1525 0.766793 0
M  V30 24408 C 2253.84 0.158466 3.4864 0
M  V30 24409 C 2255.19 0.0230186 4.24594 0
M  V30 24410 O 2256.21 0.0869799 3.56094 0
M  V30 24411 O 2255.07 -0.117919 5.46373 0
M  V30 24412 H 2252.16 -0.0533695 0.825276 0
M  V30 24413 H 2254.71 0.644271 1.56994 0
M  V30 24414 H 2253.48 1.17289 3.73308 0
M  V30 24415 H 2253.11 -0.529531 3.94058 0
M  V30 24416 N 2254.1 -1.54444 0.313841 0
M  V30 24417 C 2255.05 -2.25454 -0.572131 0
M  V30 24418 C 2256.04 -1.26512 -1.12655 0
M  V30 24419 O 2257.25 -1.44321 -1.07571 0
M  V30 24420 H 2253.63 -0.724045 -0.203134 0
M  V30 24421 H 2255.6 -2.98359 0.0491669 0
M  V30 24422 C 2254.35 -3.01823 -1.72621 0
M  V30 24423 H 2253.67 -3.77769 -1.30884 0
M  V30 24424 H 2255.11 -3.54771 -2.32193 0
M  V30 24425 C 2253.57 -2.09546 -2.63803 0
M  V30 24426 O 2254.1 -1.67192 -3.65253 0
M  V30 24427 N 2252.3 -1.75236 -2.31821 0
M  V30 24428 H 2251.85 -2.09876 -1.49365 0
M  V30 24429 H 2251.81 -1.13772 -2.93093 0
M  V30 24430 N 2255.58 -0.0418125 -1.57545 0
M  V30 24431 C 2256.83 0.634048 -1.92318 0
M  V30 24432 C 2257.16 1.714 -0.919364 0
M  V30 24433 O 2256.41 1.95576 0.0697909 0
M  V30 24434 C 2256.71 1.27729 -3.33796 0
M  V30 24435 C 2256.38 0.326464 -4.49717 0
M  V30 24436 C 2255.04 0.0647968 -4.81156 0
M  V30 24437 C 2257.39 -0.325714 -5.20181 0
M  V30 24438 C 2254.72 -0.856641 -5.80412 0
M  V30 24439 C 2257.07 -1.23529 -6.20422 0
M  V30 24440 C 2255.73 -1.50572 -6.50296 0
M  V30 24441 H 2255 0.232015 -0.70374 0
M  V30 24442 H 2257.65 -0.106293 -1.91205 0
M  V30 24443 H 2255.96 2.09268 -3.31231 0
M  V30 24444 H 2257.65 1.80701 -3.57978 0
M  V30 24445 H 2254.24 0.54059 -4.25177 0
M  V30 24446 H 2258.43 -0.136634 -4.96112 0
M  V30 24447 H 2253.68 -1.07373 -6.01898 0
M  V30 24448 H 2257.86 -1.74676 -6.74138 0
M  V30 24449 H 2255.48 -2.22136 -7.27021 0
M  V30 24450 N 2257.06 1.55891 0.231477 0
M  V30 24451 C 2258.34 1.69217 0.981066 0
M  V30 24452 C 2258.72 0.586199 2.02798 0
M  V30 24453 O 2258.06 -0.408214 2.24824 0
M  V30 24454 C 2258.27 3.10138 1.60048 0
M  V30 24455 C 2259.62 3.69231 2.09651 0
M  V30 24456 O 2260.65 3.13036 1.69961 0
M  V30 24457 O 2259.5 4.67777 2.82572 0
M  V30 24458 H 2256.6 0.688835 0.45764 0
M  V30 24459 H 2259.14 1.68215 0.224043 0
M  V30 24460 H 2257.92 3.82089 0.844038 0
M  V30 24461 H 2257.54 3.15217 2.42331 0
M  V30 24462 N 2258.54 -0.497781 1.49532 0
M  V30 24463 C 2259.77 -1.27379 1.62659 0
M  V30 24464 C 2260.17 -1.8683 0.298521 0
M  V30 24465 O 2259.52 -1.68726 -0.726441 0
M  V30 24466 C 2259.58 -2.44088 2.63934 0
M  V30 24467 C 2259.24 -2.05482 4.08199 0
M  V30 24468 C 2260.24 -1.5927 4.94903 0
M  V30 24469 C 2257.93 -2.15018 4.53952 0
M  V30 24470 C 2259.92 -1.23102 6.254 0
M  V30 24471 C 2257.61 -1.78462 5.84461 0
M  V30 24472 C 2258.6 -1.32579 6.70009 0
M  V30 24473 O 2258.29 -0.965187 7.98085 0
M  V30 24474 H 2258.02 -0.392424 0.550436 0
M  V30 24475 H 2260.58 -0.603767 1.96326 0
M  V30 24476 H 2258.81 -3.14177 2.25454 0
M  V30 24477 H 2260.5 -3.06108 2.66557 0
M  V30 24478 H 2261.26 -1.51346 4.60781 0
M  V30 24479 H 2257.14 -2.49683 3.8753 0
M  V30 24480 H 2260.69 -0.872177 6.92126 0
M  V30 24481 H 2256.58 -1.86037 6.1811 0
M  V30 24482 H 2257.35 -1.09638 8.11124 0
M  V30 24483 N 2260.01 -1.38661 -0.749062 0
M  V30 24484 C 2260.94 -1.38976 -1.87637 0
M  V30 24485 C 2261.93 -0.255034 -1.68177 0
M  V30 24486 O 2263.11 -0.458787 -1.88703 0
M  V30 24487 C 2260.24 -1.21857 -3.2522 0
M  V30 24488 C 2259.19 -2.32581 -3.59291 0
M  V30 24489 C 2258.52 -2.00563 -4.9566 0
M  V30 24490 C 2259.82 -3.74857 -3.63703 0
M  V30 24491 H 2261.51 -2.33313 -1.87631 0
M  V30 24492 H 2259.06 -1.12305 -0.90131 0
M  V30 24493 H 2261.01 -1.20702 -4.03744 0
M  V30 24494 H 2259.74 -0.239832 -3.25718 0
M  V30 24495 H 2258.4 -2.3293 -2.83089 0
M  V30 24496 H 2258.04 -1.01162 -4.92722 0
M  V30 24497 H 2257.74 -2.74723 -5.19424 0
M  V30 24498 H 2259.27 -2.01034 -5.76557 0
M  V30 24499 H 2260.68 -3.76514 -4.32331 0
M  V30 24500 H 2259.08 -4.48259 -3.98978 0
M  V30 24501 H 2260.15 -4.06846 -2.63826 0
M  V30 24502 N 2261.49 0.977736 -1.23605 0
M  V30 24503 C 2262.72 1.75456 -1.09649 0
M  V30 24504 C 2263.14 1.85493 0.351826 0
M  V30 24505 O 2262.49 1.33602 1.24325 0
M  V30 24506 C 2262.54 3.18013 -1.71901 0
M  V30 24507 O 2262.27 3.08493 -3.11069 0
M  V30 24508 C 2263.77 4.12078 -1.63422 0
M  V30 24509 H 2260.99 0.550538 -0.383599 0
M  V30 24510 H 2263.53 1.22821 -1.63509 0
M  V30 24511 H 2261.69 3.67666 -1.22067 0
M  V30 24512 H 2262.1 3.98254 -3.41312 0
M  V30 24513 H 2263.57 5.098 -2.11678 0
M  V30 24514 H 2264.05 4.35171 -0.593538 0
M  V30 24515 H 2264.66 3.6833 -2.12634 0
M  V30 24516 N 2262.97 1.04818 1.1769 0
M  V30 24517 C 2264.39 0.768819 1.39862 0
M  V30 24518 C 2264.59 -0.638418 1.91119 0
M  V30 24519 O 2263.64 -1.40143 2.10039 0
M  V30 24520 C 2264.96 1.82126 2.39271 0
M  V30 24521 C 2266.5 1.84304 2.52984 0
M  V30 24522 C 2266.98 2.88561 3.55664 0
M  V30 24523 N 2268.47 2.875 3.63178 0
M  V30 24524 C 2269.21 3.64819 4.42374 0
M  V30 24525 N 2268.7 4.51912 5.25117 0
M  V30 24526 N 2270.49 3.53275 4.37211 0
M  V30 24527 H 2262.65 1.95618 0.827485 0
M  V30 24528 H 2264.91 0.846839 0.426108 0
M  V30 24529 H 2264.61 2.83105 2.08673 0
M  V30 24530 H 2264.49 1.65972 3.38723 0
M  V30 24531 H 2266.88 0.839919 2.82895 0
M  V30 24532 H 2266.96 2.04535 1.5362 0
M  V30 24533 H 2266.6 3.89057 3.26492 0
M  V30 24534 H 2266.53 2.65583 4.54723 0
M  V30 24535 H 2269.02 2.24348 3.04099 0
M  V30 24536 H 2269.33 5.07601 5.82719 0
M  V30 24537 H 2267.68 4.55975 5.24511 0
M  V30 24538 H 2270.87 2.84632 3.71621 0
M  V30 24539 H 2271.04 4.1378 4.98688 0
M  V30 24540 N 2264.45 -1.34055 0.828678 0
M  V30 24541 C 2265.73 -1.9259 0.341842 0
M  V30 24542 C 2266.11 -1.75607 -1.17155 0
M  V30 24543 O 2265.45 -1.13827 -1.9813 0
M  V30 24544 C 2265.66 -3.40229 0.777512 0
M  V30 24545 C 2267.01 -4.17381 0.779652 0
M  V30 24546 O 2268.04 -3.48838 0.720461 0
M  V30 24547 O 2266.9 -5.39721 0.858091 0
M  V30 24548 H 2263.99 -0.821569 0.0946229 0
M  V30 24549 H 2266.54 -1.42992 0.913852 0
M  V30 24550 H 2265.31 -3.46416 1.81966 0
M  V30 24551 H 2264.93 -3.97185 0.181514 0
M  V30 24552 N 2265.93 -0.584167 -1.46374 0
M  V30 24553 C 2267.17 -0.078746 -2.03248 0
M  V30 24554 C 2267.53 1.26761 -1.44739 0
M  V30 24555 O 2266.82 1.81842 -0.603657 0
M  V30 24556 C 2267.02 0.0438714 -3.57373 0
M  V30 24557 C 2266.84 -1.28905 -4.30829 0
M  V30 24558 C 2265.61 -1.86358 -4.6968 0
M  V30 24559 C 2267.81 -2.21257 -4.64274 0
M  V30 24560 N 2265.79 -3.13374 -5.27892 0
M  V30 24561 C 2267.17 -3.3286 -5.23072 0
M  V30 24562 C 2269.22 -2.20919 -4.46205 0
M  V30 24563 C 2267.92 -4.44261 -5.65708 0
M  V30 24564 C 2269.95 -3.3135 -4.89858 0
M  V30 24565 C 2269.31 -4.41674 -5.48729 0
M  V30 24566 H 2265.41 -0.071628 -0.778713 0
M  V30 24567 H 2267.99 -0.777386 -1.78507 0
M  V30 24568 H 2266.17 0.711682 -3.81824 0
M  V30 24569 H 2267.9 0.553811 -4.00893 0
M  V30 24570 H 2264.65 -1.39834 -4.52486 0
M  V30 24571 H 2265.08 -3.78188 -5.61519 0
M  V30 24572 H 2269.72 -1.36895 -4.00024 0
M  V30 24573 H 2267.44 -5.29026 -6.10866 0
M  V30 24574 H 2271.02 -3.32208 -4.77628 0
M  V30 24575 H 2269.9 -5.25714 -5.81889 0
M  V30 24576 N 2267.41 1.54275 -0.322027 0
M  V30 24577 C 2268.63 2.05422 0.285755 0
M  V30 24578 C 2269.06 1.19671 1.45122 0
M  V30 24579 O 2268.41 0.205473 1.80132 0
M  V30 24580 C 2268.46 3.5375 0.699497 0
M  V30 24581 O 2267.57 3.70945 1.80203 0
M  V30 24582 H 2266.91 0.66197 0.0518846 0
M  V30 24583 H 2269.44 1.99129 -0.469989 0
M  V30 24584 H 2269.45 3.95992 0.982579 0
M  V30 24585 H 2268.12 4.15619 -0.152937 0
M  V30 24586 H 2266.7 3.40609 1.51788 0
M  V30 24587 N 2268.88 0.0501669 1.5752 0
M  V30 24588 C 2270.13 -0.623294 1.91828 0
M  V30 24589 C 2270.45 -1.72063 0.930252 0
M  V30 24590 O 2271.65 -2.45218 1.16534 0
M  V30 24591 C 2270.11 -1.15997 3.40694 0
M  V30 24592 C 2269.72 -0.0948023 4.479 0
M  V30 24593 C 2271.46 -1.80874 3.84038 0
M  V30 24594 C 2269.37 -0.644307 5.8788 0
M  V30 24595 H 2268.3 -0.236584 0.715922 0
M  V30 24596 H 2270.95 0.118893 1.83114 0
M  V30 24597 H 2269.33 -1.95444 3.44409 0
M  V30 24598 H 2270.5 0.678755 4.55774 0
M  V30 24599 H 2268.82 0.456443 4.13891 0
M  V30 24600 H 2271.42 -2.2298 4.85988 0
M  V30 24601 H 2271.76 -2.66005 3.2023 0
M  V30 24602 H 2272.29 -1.08084 3.82835 0
M  V30 24603 H 2269.03 0.169344 6.55281 0
M  V30 24604 H 2268.55 -1.38587 5.8357 0
M  V30 24605 H 2270.23 -1.12752 6.371 0
M  V30 24606 N 2270.36 -1.56011 -0.223207 0
M  V30 24607 C 2271.29 -1.953 -1.27984 0
M  V30 24608 C 2272.27 -0.821005 -1.48975 0
M  V30 24609 O 2273.46 -1.08318 -1.61186 0
M  V30 24610 C 2270.59 -2.26827 -2.62996 0
M  V30 24611 C 2269.54 -3.42501 -2.56665 0
M  V30 24612 C 2268.87 -3.59629 -3.95691 0
M  V30 24613 C 2270.17 -4.77521 -2.11592 0
M  V30 24614 H 2271.86 -2.83812 -0.953475 0
M  V30 24615 H 2269.41 -1.36549 -0.45722 0
M  V30 24616 H 2271.36 -2.52904 -3.37072 0
M  V30 24617 H 2270.08 -1.35167 -2.97317 0
M  V30 24618 H 2268.74 -3.16471 -1.85046 0
M  V30 24619 H 2268.39 -2.65347 -4.27317 0
M  V30 24620 H 2268.09 -4.37431 -3.92337 0
M  V30 24621 H 2269.62 -3.88052 -4.71432 0
M  V30 24622 H 2271.03 -5.02814 -2.75411 0
M  V30 24623 H 2269.43 -5.58594 -2.19301 0
M  V30 24624 H 2270.5 -4.72989 -1.06816 0
M  V30 24625 N 2271.84 0.489844 -1.49794 0
M  V30 24626 C 2273.09 1.24079 -1.59527 0
M  V30 24627 C 2273.41 1.92847 -0.288987 0
M  V30 24628 O 2272.68 1.83256 0.692403 0
M  V30 24629 H 2271.26 0.460973 -0.587804 0
M  V30 24630 H 2273.92 0.566746 -1.86478 0
M  V30 24631 H 2273.02 1.99876 -2.397 0
M  V30 24632 N 2273.32 1.39056 0.741698 0
M  V30 24633 C 2274.73 1.3207 1.31963 0
M  V30 24634 C 2275.08 -0.0180453 1.96192 0
M  V30 24635 O 2274.2 -0.920162 1.95862 0
M  V30 24636 C 2274.8 2.39185 2.3995 0
M  V30 24637 C 2273.36 2.35741 2.93434 0
M  V30 24638 C 2272.51 2.21425 1.66932 0
M  V30 24639 H 2275.46 1.49241 0.539695 0
M  V30 24640 H 2275.48 2.05587 3.20178 0
M  V30 24641 H 2274.99 3.36609 1.93174 0
M  V30 24642 H 2273.09 1.41935 3.44507 0
M  V30 24643 H 2273.2 3.30341 3.47004 0
M  V30 24644 H 2271.57 1.68481 1.91014 0
M  V30 24645 H 2272.35 3.20808 1.22218 0
M  V30 24646 N 2274.8 -0.971167 1.24121 0
M  V30 24647 C 2275.75 -2.05018 0.997587 0
M  V30 24648 C 2276.73 -1.60789 -0.0597464 0
M  V30 24649 O 2277.92 -1.76333 0.153547 0
M  V30 24650 C 2275.05 -3.38005 0.600616 0
M  V30 24651 C 2274.14 -3.88806 1.69384 0
M  V30 24652 N 2274.53 -4.12581 2.92593 0
M  V30 24653 C 2272.83 -4.17432 1.57055 0
M  V30 24654 C 2273.53 -4.54189 3.63439 0
M  V30 24655 N 2272.5 -4.59159 2.90987 0
M  V30 24656 H 2276.3 -2.2137 1.9332 0
M  V30 24657 H 2273.82 -1.15468 1.14196 0
M  V30 24658 H 2275.82 -4.14905 0.407323 0
M  V30 24659 H 2274.48 -3.23041 -0.327846 0
M  V30 24660 H 2275.49 -4.00133 3.28807 0
M  V30 24661 H 2272.16 -4.11421 0.70987 0
M  V30 24662 H 2273.55 -4.81025 4.6911 0
M  V30 24663 N 2276.27 -1.05441 -1.17133 0
M  V30 24664 C 2277.22 -0.627713 -2.19189 0
M  V30 24665 C 2278.21 0.337119 -1.57329 0
M  V30 24666 O 2279.4 0.153945 -1.76329 0
M  V30 24667 C 2276.53 -0.00657469 -3.43299 0
M  V30 24668 C 2275.62 -0.995384 -4.12253 0
M  V30 24669 N 2276.01 -2.16773 -4.56993 0
M  V30 24670 C 2274.3 -0.824413 -4.38314 0
M  V30 24671 C 2275.01 -2.79349 -5.10234 0
M  V30 24672 N 2273.98 -2.0713 -5.02591 0
M  V30 24673 H 2277.78 -1.5209 -2.51487 0
M  V30 24674 H 2275.3 -0.924892 -1.3349 0
M  V30 24675 H 2277.29 0.316892 -4.15694 0
M  V30 24676 H 2275.95 0.881978 -3.12492 0
M  V30 24677 H 2276.97 -2.54595 -4.51001 0
M  V30 24678 H 2273.64 0.0128792 -4.17498 0
M  V30 24679 H 2275.03 -3.78781 -5.54954 0
M  V30 24680 N 2277.75 1.33613 -0.835776 0
M  V30 24681 C 2278.68 2.31794 -0.28178 0
M  V30 24682 C 2279.66 1.58832 0.608805 0
M  V30 24683 O 2280.85 1.86742 0.533002 0
M  V30 24684 C 2277.98 3.42972 0.546552 0
M  V30 24685 C 2276.93 4.27281 -0.247979 0
M  V30 24686 C 2276.26 5.30046 0.703907 0
M  V30 24687 C 2277.56 5.01382 -1.46333 0
M  V30 24688 H 2279.25 2.78377 -1.10211 0
M  V30 24689 H 2276.8 1.33836 -0.531412 0
M  V30 24690 H 2278.75 4.10681 0.944395 0
M  V30 24691 H 2277.48 2.95069 1.40006 0
M  V30 24692 H 2276.13 3.61192 -0.627345 0
M  V30 24693 H 2275.78 4.78402 1.55373 0
M  V30 24694 H 2275.48 5.87335 0.176421 0
M  V30 24695 H 2277.01 6.00622 1.09933 0
M  V30 24696 H 2278.42 5.61875 -1.13881 0
M  V30 24697 H 2276.82 5.68306 -1.92738 0
M  V30 24698 H 2277.89 4.30334 -2.23474 0
M  V30 24699 N 2279.23 0.591922 1.46062 0
M  V30 24700 C 2280.51 0.0137463 1.95595 0
M  V30 24701 C 2280.89 -1.44967 1.53453 0
M  V30 24702 O 2280.24 -2.14425 0.78958 0
M  V30 24703 C 2280.45 0.195435 3.48452 0
M  V30 24704 C 2281.79 0.0680511 4.24545 0
M  V30 24705 O 2282.82 0.124744 3.55982 0
M  V30 24706 O 2281.68 -0.0599619 5.46467 0
M  V30 24707 H 2278.77 -0.0446133 0.825796 0
M  V30 24708 H 2281.32 0.660886 1.56302 0
M  V30 24709 H 2280.09 1.21242 3.72043 0
M  V30 24710 H 2279.71 -0.487706 3.94598 0
M  V30 24711 N 2280.71 -1.54102 0.330204 0
M  V30 24712 C 2281.62 -2.28265 -0.541493 0
M  V30 24713 C 2282.63 -1.32868 -1.12349 0
M  V30 24714 O 2283.81 -1.6589 -1.14203 0
M  V30 24715 C 2280.88 -3.03101 -1.68317 0
M  V30 24716 C 2279.94 -4.14098 -1.13231 0
M  V30 24717 C 2279.17 -4.85356 -2.21958 0
M  V30 24718 O 2279.39 -4.56178 -3.42429 0
M  V30 24719 O 2278.33 -5.72113 -1.87003 0
M  V30 24720 H 2282.15 -3.03639 0.0609914 0
M  V30 24721 H 2279.74 -1.49093 0.0956762 0
M  V30 24722 H 2281.62 -3.49944 -2.34771 0
M  V30 24723 H 2280.29 -2.30597 -2.27171 0
M  V30 24724 H 2279.2 -3.7159 -0.432671 0
M  V30 24725 H 2280.53 -4.88665 -0.588812 0
M  V30 24726 N 2282.19 -0.0585199 -1.57491 0
M  V30 24727 C 2283.43 0.613615 -1.92979 0
M  V30 24728 C 2283.76 1.70415 -0.937491 0
M  V30 24729 O 2283.02 1.95639 0.0490436 0
M  V30 24730 C 2283.32 1.24182 -3.35132 0
M  V30 24731 C 2282.98 0.278747 -4.50038 0
M  V30 24732 C 2281.64 0.0137601 -4.81198 0
M  V30 24733 C 2284 -0.380868 -5.19807 0
M  V30 24734 C 2281.32 -0.918153 -5.79471 0
M  V30 24735 C 2283.68 -1.30102 -6.19077 0
M  V30 24736 C 2282.34 -1.57461 -6.48662 0
M  V30 24737 H 2281.61 0.224537 -0.706161 0
M  V30 24738 H 2284.26 -0.126567 -1.91081 0
M  V30 24739 H 2282.56 2.05743 -3.33432 0
M  V30 24740 H 2284.26 1.76894 -3.59874 0
M  V30 24741 H 2280.85 0.495464 -4.25727 0
M  V30 24742 H 2285.03 -0.189245 -4.95939 0
M  V30 24743 H 2280.29 -1.13751 -6.00725 0
M  V30 24744 H 2284.46 -1.81816 -6.72247 0
M  V30 24745 H 2282.09 -2.29834 -7.24624 0
M  V30 24746 N 2283.66 1.56128 0.21493 0
M  V30 24747 C 2284.61 1.92954 1.26639 0
M  V30 24748 C 2285.58 0.787555 1.46242 0
M  V30 24749 O 2286.77 1.04402 1.59702 0
M  V30 24750 C 2283.91 2.2573 2.61036 0
M  V30 24751 C 2283.02 3.52895 2.49177 0
M  V30 24752 C 2282.15 3.75087 3.76143 0
M  V30 24753 C 2281.19 4.95744 3.59033 0
M  V30 24754 N 2280.33 5.14291 4.77963 0
M  V30 24755 H 2285.17 2.82608 0.945334 0
M  V30 24756 H 2282.71 1.39871 0.455465 0
M  V30 24757 H 2284.67 2.42745 3.39309 0
M  V30 24758 H 2283.3 1.39241 2.91225 0
M  V30 24759 H 2282.35 3.44037 1.62304 0
M  V30 24760 H 2283.66 4.41322 2.32458 0
M  V30 24761 H 2282.81 3.92234 4.62858 0
M  V30 24762 H 2281.55 2.84954 3.95794 0
M  V30 24763 H 2280.56 4.7854 2.70701 0
M  V30 24764 H 2281.78 5.87368 3.40846 0
M  V30 24765 H 2279.73 4.27102 4.97916 0
M  V30 24766 H 2279.65 5.96862 4.63996 0
M  V30 24767 H 2280.91 5.35879 5.66086 0
M  V30 24768 N 2285.14 -0.481893 1.50052 0
M  V30 24769 C 2286.56 -0.814732 1.37238 0
M  V30 24770 C 2286.76 -1.97071 0.420144 0
M  V30 24771 O 2285.81 -2.52105 -0.141201 0
M  V30 24772 C 2287.13 -1.13696 2.78377 0
M  V30 24773 C 2288.68 -1.24405 2.87215 0
M  V30 24774 C 2289.15 -1.59946 4.29163 0
M  V30 24775 N 2290.64 -1.66959 4.32064 0
M  V30 24776 C 2291.38 -1.95942 5.38882 0
M  V30 24777 N 2290.87 -2.2302 6.55922 0
M  V30 24778 N 2292.67 -1.97354 5.26315 0
M  V30 24779 H 2284.82 0.280087 2.10545 0
M  V30 24780 H 2287.08 0.062762 0.94592 0
M  V30 24781 H 2286.79 -0.360725 3.49845 0
M  V30 24782 H 2286.66 -2.07581 3.14945 0
M  V30 24783 H 2289.05 -2.01097 2.15972 0
M  V30 24784 H 2289.13 -0.285254 2.54205 0
M  V30 24785 H 2288.77 -0.837979 5.00939 0
M  V30 24786 H 2288.7 -2.56958 4.59652 0
M  V30 24787 H 2291.19 -1.48117 3.47663 0
M  V30 24788 H 2291.51 -2.44378 7.33143 0
M  V30 24789 H 2289.85 -2.20435 6.59116 0
M  V30 24790 H 2293.04 -1.75689 4.33879 0
M  V30 24791 H 2293.21 -2.19607 6.09653 0
M  V30 24792 N 2286.62 -1.39448 -0.734313 0
M  V30 24793 C 2287.87 -1.3602 -1.48935 0
M  V30 24794 C 2288.18 0.0408662 -1.95557 0
M  V30 24795 O 2289.39 0.197733 -2.70779 0
M  V30 24796 C 2287.84 -2.3896 -2.69121 0
M  V30 24797 C 2287.45 -3.84784 -2.29445 0
M  V30 24798 C 2289.2 -2.44609 -3.46939 0
M  V30 24799 C 2287.1 -4.79365 -3.46358 0
M  V30 24800 H 2286.03 -0.505682 -0.559287 0
M  V30 24801 H 2288.68 -1.65097 -0.800954 0
M  V30 24802 H 2287.07 -2.02954 -3.40038 0
M  V30 24803 H 2288.24 -4.29834 -1.6607 0
M  V30 24804 H 2286.56 -3.82436 -1.64716 0
M  V30 24805 H 2289.15 -3.12464 -4.33902 0
M  V30 24806 H 2289.5 -1.47082 -3.89451 0
M  V30 24807 H 2290.03 -2.79512 -2.83051 0
M  V30 24808 H 2286.77 -5.78156 -3.08895 0
M  V30 24809 H 2286.29 -4.38993 -4.08711 0
M  V30 24810 H 2287.97 -4.98299 -4.12683 0
M  V30 24811 N 2288.1 0.964571 -1.24635 0
M  V30 24812 C 2289.34 1.71115 -1.0996 0
M  V30 24813 C 2289.7 1.89052 0.357388 0
M  V30 24814 O 2288.99 1.44319 1.26026 0
M  V30 24815 C 2289.19 3.1013 -1.77635 0
M  V30 24816 C 2289.02 3.05754 -3.29765 0
M  V30 24817 C 2287.79 3.10061 -3.98987 0
M  V30 24818 C 2289.98 2.87688 -4.2631 0
M  V30 24819 N 2287.97 2.95738 -5.37971 0
M  V30 24820 C 2289.34 2.81692 -5.52313 0
M  V30 24821 C 2291.39 2.72292 -4.16847 0
M  V30 24822 C 2290.09 2.61876 -6.69936 0
M  V30 24823 C 2292.12 2.53844 -5.34151 0
M  V30 24824 C 2291.48 2.4856 -6.59088 0
M  V30 24825 H 2287.58 0.634556 -0.457015 0
M  V30 24826 H 2290.17 1.14334 -1.57594 0
M  V30 24827 H 2288.34 3.65097 -1.32511 0
M  V30 24828 H 2290.07 3.73511 -1.55792 0
M  V30 24829 H 2286.82 3.18865 -3.50175 0
M  V30 24830 H 2287.25 2.91807 -6.10882 0
M  V30 24831 H 2291.89 2.75157 -3.21011 0
M  V30 24832 H 2289.61 2.57753 -7.65891 0
M  V30 24833 H 2293.19 2.42871 -5.28682 0
M  V30 24834 H 2292.07 2.34468 -7.48328 0
M  V30 24835 N 2289.58 1.0606 1.16572 0
M  V30 24836 C 2290.54 0.67343 2.19083 0
M  V30 24837 C 2291.54 -0.27962 1.5835 0
M  V30 24838 O 2292.73 -0.0623182 1.74088 0
M  V30 24839 C 2289.86 -0.00948241 3.40899 0
M  V30 24840 H 2291.05 1.58086 2.54851 0
M  V30 24841 H 2288.61 0.855539 1.30806 0
M  V30 24842 H 2289.34 -0.929772 3.10686 0
M  V30 24843 H 2289.13 0.675798 3.86232 0
M  V30 24844 H 2290.62 -0.266171 4.16751 0
M  V30 24845 N 2291.06 -1.33168 0.84285 0
M  V30 24846 C 2291.97 -2.32905 0.281485 0
M  V30 24847 C 2292.98 -1.63527 -0.594558 0
M  V30 24848 O 2294.16 -1.95153 -0.497735 0
M  V30 24849 C 2291.22 -3.42612 -0.530869 0
M  V30 24850 C 2290.28 -4.27703 0.369918 0
M  V30 24851 C 2289.52 -5.32171 -0.40376 0
M  V30 24852 O 2289.74 -5.46464 -1.63504 0
M  V30 24853 O 2288.67 -6.01482 0.224305 0
M  V30 24854 H 2292.5 -2.82787 1.10749 0
M  V30 24855 H 2290.08 -1.36581 0.605474 0
M  V30 24856 H 2291.97 -4.09549 -0.992365 0
M  V30 24857 H 2290.64 -2.9494 -1.33387 0
M  V30 24858 H 2289.55 -3.63619 0.879339 0
M  V30 24859 H 2290.88 -4.78869 1.13779 0
M  V30 24860 N 2292.53 -0.599659 -1.45746 0
M  V30 24861 C 2293.76 -0.0977495 -2.06369 0
M  V30 24862 C 2294.17 1.21983 -1.44627 0
M  V30 24863 O 2293.51 1.75215 -0.551862 0
M  V30 24864 C 2293.58 0.12461 -3.59284 0
M  V30 24865 C 2293.24 -1.10995 -4.43316 0
M  V30 24866 C 2294.24 -2.02617 -4.78793 0
M  V30 24867 C 2291.92 -1.33655 -4.84192 0
M  V30 24868 C 2293.92 -3.15234 -5.53991 0
M  V30 24869 C 2291.6 -2.46574 -5.59146 0
M  V30 24870 C 2292.6 -3.37192 -5.93962 0
M  V30 24871 O 2292.29 -4.48147 -6.67397 0
M  V30 24872 H 2292.02 -0.0623272 -0.673121 0
M  V30 24873 H 2294.58 -0.825014 -1.88103 0
M  V30 24874 H 2292.81 0.906679 -3.75921 0
M  V30 24875 H 2294.49 0.577131 -4.01776 0
M  V30 24876 H 2295.26 -1.86332 -4.47778 0
M  V30 24877 H 2291.14 -0.64024 -4.56533 0
M  V30 24878 H 2294.68 -3.85988 -5.81084 0
M  V30 24879 H 2290.58 -2.62815 -5.89575 0
M  V30 24880 H 2291.35 -4.46729 -6.85839 0
M  V30 24881 N 2294.01 1.53925 -0.338371 0
M  V30 24882 C 2295.29 1.93051 0.31474 0
M  V30 24883 C 2295.67 1.26944 1.68667 0
M  V30 24884 O 2295.02 0.418484 2.24635 0
M  V30 24885 C 2295.23 3.46789 0.392188 0
M  V30 24886 C 2296.57 4.19665 0.645481 0
M  V30 24887 O 2297.6 3.53025 0.474513 0
M  V30 24888 O 2296.46 5.37708 0.976314 0
M  V30 24889 H 2293.55 0.806593 0.182584 0
M  V30 24890 H 2296.1 1.65177 -0.38917 0
M  V30 24891 H 2294.87 3.87115 -0.57077 0
M  V30 24892 H 2294.49 3.80814 1.14309 0
M  V30 24893 N 2295.49 0.0668712 1.57458 0
M  V30 24894 C 2296.9 -0.466526 1.80777 0
M  V30 24895 C 2297.25 -1.69949 0.98039 0
M  V30 24896 O 2296.38 -2.1546 0.201479 0
M  V30 24897 C 2296.97 -0.853153 3.27882 0
M  V30 24898 C 2295.53 -1.33144 3.52065 0
M  V30 24899 C 2294.68 -0.314215 2.75514 0
M  V30 24900 H 2297.63 0.292615 1.55979 0
M  V30 24901 H 2297.65 -1.71494 3.39662 0
M  V30 24902 H 2297.16 0.0444121 3.88075 0
M  V30 24903 H 2295.26 -2.24767 2.97171 0
M  V30 24904 H 2295.38 -1.31276 4.60764 0
M  V30 24905 H 2293.74 -0.79045 2.42124 0
M  V30 24906 H 2294.52 0.575537 3.38441 0
M  V30 24907 N 2296.97 -1.56239 -0.206647 0
M  V30 24908 C 2297.88 -1.96811 -1.27682 0
M  V30 24909 C 2298.89 -0.874062 -1.50453 0
M  V30 24910 O 2300.07 -1.17887 -1.63293 0
M  V30 24911 C 2297.13 -2.28946 -2.60354 0
M  V30 24912 C 2296.2 -3.51998 -2.45756 0
M  V30 24913 C 2295.43 -3.82591 -3.72102 0
M  V30 24914 O 2295.65 -3.1464 -4.75771 0
M  V30 24915 O 2294.59 -4.76049 -3.68321 0
M  V30 24916 H 2298.41 -2.88043 -0.962543 0
M  V30 24917 H 2296 -1.43643 -0.410721 0
M  V30 24918 H 2297.88 -2.50743 -3.38682 0
M  V30 24919 H 2296.55 -1.40885 -2.91433 0
M  V30 24920 H 2295.46 -3.35462 -1.65578 0
M  V30 24921 H 2296.79 -4.40489 -2.19613 0
M  V30 24922 N 2298.45 0.473929 -1.50305 0
M  V30 24923 C 2299.41 1.55466 -1.68413 0
M  V30 24924 C 2300.41 1.50921 -0.554932 0
M  V30 24925 O 2301.6 1.53591 -0.821909 0
M  V30 24926 C 2298.73 2.95099 -1.70673 0
M  V30 24927 H 2299.92 1.40729 -2.64831 0
M  V30 24928 H 2297.48 0.700107 -1.39743 0
M  V30 24929 H 2298.21 3.15284 -0.759375 0
M  V30 24930 H 2298 2.99806 -2.52704 0
M  V30 24931 H 2299.49 3.73568 -1.86646 0
M  V30 24932 N 2299.92 1.39835 0.726907 0
M  V30 24933 C 2300.87 1.392 1.84097 0
M  V30 24934 C 2301.84 0.250531 1.642 0
M  V30 24935 O 2303.03 0.446879 1.85493 0
M  V30 24936 C 2300.17 1.24925 3.21695 0
M  V30 24937 C 2299.28 2.48684 3.53242 0
M  V30 24938 C 2298.41 2.26936 4.80285 0
M  V30 24939 C 2297.45 3.46329 5.047 0
M  V30 24940 N 2296.59 3.23847 6.22951 0
M  V30 24941 H 2301.43 2.3443 1.83974 0
M  V30 24942 H 2298.97 1.16443 0.898856 0
M  V30 24943 H 2300.92 1.14658 4.01135 0
M  V30 24944 H 2299.55 0.33321 3.21076 0
M  V30 24945 H 2298.61 2.69524 2.68442 0
M  V30 24946 H 2299.92 3.37589 3.67199 0
M  V30 24947 H 2299.07 2.13957 5.67721 0
M  V30 24948 H 2297.81 1.35439 4.68516 0
M  V30 24949 H 2296.82 3.59798 4.15723 0
M  V30 24950 H 2298.04 4.38738 5.18349 0
M  V30 24951 H 2295.99 2.35022 6.12455 0
M  V30 24952 H 2295.9 4.06311 6.37532 0
M  V30 24953 H 2297.17 3.14578 7.13205 0
M  V30 24954 N 2301.4 -0.957948 1.25144 0
M  V30 24955 C 2302.65 -1.69879 1.09479 0
M  V30 24956 C 2302.97 -1.91545 -0.365468 0
M  V30 24957 O 2302.24 -1.50017 -1.25983 0
M  V30 24958 H 2300.82 -0.629518 0.40214 0
M  V30 24959 H 2303.48 -1.15191 1.57216 0
M  V30 24960 H 2302.58 -2.67937 1.60051 0
M  V30 24961 N 2302.88 -1.06677 -1.16008 0
M  V30 24962 C 2304.3 -0.790972 -1.38621 0
M  V30 24963 C 2304.5 0.607931 -1.9211 0
M  V30 24964 O 2303.55 1.36784 -2.12242 0
M  V30 24965 C 2304.86 -1.8591 -2.36343 0
M  V30 24966 C 2306.41 -1.88306 -2.5002 0
M  V30 24967 C 2306.89 -2.94183 -3.51028 0
M  V30 24968 N 2308.38 -2.93241 -3.58558 0
M  V30 24969 C 2309.11 -3.7181 -4.36514 0
M  V30 24970 N 2308.61 -4.60209 -5.17861 0
M  V30 24971 N 2310.4 -3.60186 -4.31535 0
M  V30 24972 H 2302.55 -1.9691 -0.79626 0
M  V30 24973 H 2304.82 -0.853511 -0.412582 0
M  V30 24974 H 2304.52 -2.86389 -2.04142 0
M  V30 24975 H 2304.4 -1.7134 -3.36039 0
M  V30 24976 H 2306.78 -0.884819 -2.81523 0
M  V30 24977 H 2306.86 -2.06953 -1.50346 0
M  V30 24978 H 2306.51 -3.94202 -3.20261 0
M  V30 24979 H 2306.44 -2.72784 -4.50441 0
M  V30 24980 H 2308.93 -2.29157 -3.00492 0
M  V30 24981 H 2309.24 -5.16807 -5.74569 0
M  V30 24982 H 2307.59 -4.64262 -5.1719 0
M  V30 24983 H 2310.78 -2.90508 -3.67046 0
M  V30 24984 H 2310.95 -4.21661 -4.92042 0
M  V30 24985 N 2304.36 1.32719 -0.8499 0
M  V30 24986 C 2305.61 1.9668 -0.447209 0
M  V30 24987 C 2305.92 1.68027 1.00132 0
M  V30 24988 O 2307.13 2.25688 1.50922 0
M  V30 24989 C 2305.58 3.52025 -0.748762 0
M  V30 24990 C 2305.19 3.89542 -2.21271 0
M  V30 24991 C 2306.93 4.22481 -0.413562 0
M  V30 24992 C 2304.84 5.37912 -2.45773 0
M  V30 24993 H 2303.77 0.73606 -0.163499 0
M  V30 24994 H 2306.42 1.51181 -1.04002 0
M  V30 24995 H 2304.8 3.95908 -0.0854423 0
M  V30 24996 H 2305.98 3.56684 -2.91742 0
M  V30 24997 H 2304.29 3.32099 -2.51196 0
M  V30 24998 H 2306.89 5.31609 -0.574111 0
M  V30 24999 H 2307.23 4.11282 0.64442 0
M  V30 25000 H 2307.77 3.84165 -1.03257 0
M  V30 25001 H 2304.5 5.54126 -3.50177 0
M  V30 25002 H 2304.02 5.72193 -1.79874 0
M  V30 25003 H 2305.7 6.04936 -2.29482 0
M  V30 25004 N 2305.84 0.60738 1.45426 0
M  V30 25005 C 2306.78 -0.111584 2.3053 0
M  V30 25006 C 2307.75 -0.860191 1.42091 0
M  V30 25007 O 2308.94 -0.845968 1.71021 0
M  V30 25008 C 2306.08 -1.10313 3.26994 0
M  V30 25009 C 2305.19 -0.355417 4.30535 0
M  V30 25010 C 2304.33 -1.33667 5.14108 0
M  V30 25011 C 2303.37 -0.576755 6.09377 0
M  V30 25012 N 2302.5 -1.50728 6.8573 0
M  V30 25013 H 2307.34 0.620145 2.91476 0
M  V30 25014 H 2304.88 0.317619 1.4363 0
M  V30 25015 H 2306.84 -1.69114 3.81388 0
M  V30 25016 H 2305.47 -1.80227 2.67802 0
M  V30 25017 H 2304.52 0.348089 3.78804 0
M  V30 25018 H 2305.83 0.23751 4.98234 0
M  V30 25019 H 2304.99 -1.99674 5.72901 0
M  V30 25020 H 2303.72 -1.96353 4.46427 0
M  V30 25021 H 2302.73 0.0969486 5.49715 0
M  V30 25022 H 2303.95 0.0450534 6.79085 0
M  V30 25023 H 2301.9 -2.12179 6.20738 0
M  V30 25024 H 2301.82 -0.967781 7.4978 0
M  V30 25025 H 2303.09 -2.15693 7.49064 0
M  V30 25026 N 2307.31 -1.53743 0.34653 0
M  V30 25027 C 2308.26 -2.21875 -0.524914 0
M  V30 25028 C 2309.25 -1.2072 -1.06374 0
M  V30 25029 O 2310.44 -1.46253 -0.996946 0
M  V30 25030 C 2307.57 -2.99729 -1.67384 0
M  V30 25031 C 2306.66 -4.08244 -1.14881 0
M  V30 25032 N 2307.05 -5.0462 -0.34524 0
M  V30 25033 C 2305.34 -4.22608 -1.42542 0
M  V30 25034 C 2306.05 -5.81669 -0.0599684 0
M  V30 25035 N 2305.02 -5.39671 -0.652425 0
M  V30 25036 H 2308.82 -2.93743 0.0960607 0
M  V30 25037 H 2306.34 -1.61672 0.153548 0
M  V30 25038 H 2308.33 -3.47042 -2.31014 0
M  V30 25039 H 2306.99 -2.29388 -2.29807 0
M  V30 25040 H 2308.01 -5.17898 0.0139349 0
M  V30 25041 H 2304.68 -3.63489 -2.05382 0
M  V30 25042 H 2306.07 -6.69318 0.588439 0
M  V30 25043 N 2308.79 -0.0752207 -1.5742 0
M  V30 25044 C 2309.72 0.888286 -2.15944 0
M  V30 25045 C 2310.7 1.30804 -1.08739 0
M  V30 25046 O 2311.89 1.37848 -1.3679 0
M  V30 25047 C 2309.02 2.15465 -2.72382 0
M  V30 25048 C 2307.97 1.87418 -3.84784 0
M  V30 25049 C 2307.3 3.20714 -4.2784 0
M  V30 25050 C 2308.6 1.17675 -5.08871 0
M  V30 25051 H 2310.29 0.400747 -2.96706 0
M  V30 25052 H 2307.84 0.191317 -1.42723 0
M  V30 25053 H 2309.79 2.83289 -3.1197 0
M  V30 25054 H 2308.52 2.66467 -1.88846 0
M  V30 25055 H 2307.17 1.21998 -3.45705 0
M  V30 25056 H 2306.82 3.69564 -3.41221 0
M  V30 25057 H 2306.52 3.02738 -5.03611 0
M  V30 25058 H 2308.05 3.8973 -4.70046 0
M  V30 25059 H 2309.46 1.75574 -5.45753 0
M  V30 25060 H 2307.86 1.09946 -5.89942 0
M  V30 25061 H 2308.93 0.156368 -4.84648 0
M  V30 25062 N 2310.27 1.56347 0.198358 0
M  V30 25063 C 2311.55 1.7126 0.944952 0
M  V30 25064 C 2311.93 0.629084 2.01509 0
M  V30 25065 O 2311.28 -0.360433 2.25639 0
M  V30 25066 C 2311.49 3.13463 1.53434 0
M  V30 25067 C 2312.83 3.73595 2.01772 0
M  V30 25068 O 2313.86 3.16571 1.63283 0
M  V30 25069 O 2312.72 4.73666 2.72586 0
M  V30 25070 H 2309.81 0.698388 0.442926 0
M  V30 25071 H 2312.36 1.68652 0.188312 0
M  V30 25072 H 2311.13 3.83793 0.762802 0
M  V30 25073 H 2310.75 3.20286 2.3559 0
M  V30 25074 N 2311.75 -0.465951 1.50554 0
M  V30 25075 C 2312.99 -1.21946 1.6204 0
M  V30 25076 C 2313.33 -1.91509 0.32215 0
M  V30 25077 O 2312.6 -1.82349 -0.676691 0
M  V30 25078 C 2312.89 -2.25907 2.80425 0
M  V30 25079 C 2312.74 -1.60615 4.20146 0
M  V30 25080 C 2314.06 -3.27171 2.94359 0
M  V30 25081 H 2311.18 -0.441987 0.589759 0
M  V30 25082 H 2313.82 -0.512538 1.82956 0
M  V30 25083 H 2311.97 -2.86198 2.62722 0
M  V30 25084 H 2313.64 -1.03881 4.49451 0
M  V30 25085 H 2311.88 -0.909137 4.24166 0
M  V30 25086 H 2312.55 -2.36187 4.98919 0
M  V30 25087 H 2315.03 -2.76907 3.10583 0
M  V30 25088 H 2313.91 -3.97236 3.78807 0
M  V30 25089 H 2314.17 -3.91597 2.05193 0
M  V30 25090 N 2313.23 -1.40218 -0.719481 0
M  V30 25091 C 2314.47 -1.3849 -1.4815 0
M  V30 25092 C 2314.81 0.0141526 -1.94195 0
M  V30 25093 O 2314.08 0.982067 -1.67886 0
M  V30 25094 C 2314.36 -2.37096 -2.71031 0
M  V30 25095 C 2314.22 -3.86009 -2.30905 0
M  V30 25096 C 2315.54 -2.33295 -3.73178 0
M  V30 25097 H 2312.65 -0.504366 -0.537386 0
M  V30 25098 H 2315.3 -1.71325 -0.821442 0
M  V30 25099 H 2313.45 -2.09226 -3.27348 0
M  V30 25100 H 2315.12 -4.2469 -1.80099 0
M  V30 25101 H 2313.36 -4.02031 -1.62951 0
M  V30 25102 H 2314.03 -4.50513 -3.1897 0
M  V30 25103 H 2316.51 -2.57972 -3.26481 0
M  V30 25104 H 2315.38 -3.04342 -4.56801 0
M  V30 25105 H 2315.65 -1.34324 -4.212 0
M  V30 25106 N 2314.7 0.951297 -1.25651 0
M  V30 25107 C 2315.93 1.7309 -1.13346 0
M  V30 25108 C 2316.35 1.86197 0.312401 0
M  V30 25109 O 2315.7 1.36209 1.21463 0
M  V30 25110 C 2315.76 3.14295 -1.78607 0
M  V30 25111 O 2315.48 3.01825 -3.17542 0
M  V30 25112 C 2316.98 4.08519 -1.72126 0
M  V30 25113 H 2314.2 0.542278 -0.395191 0
M  V30 25114 H 2316.74 1.19325 -1.66078 0
M  V30 25115 H 2314.9 3.64994 -1.29839 0
M  V30 25116 H 2315.31 3.90925 -3.49683 0
M  V30 25117 H 2316.78 5.05196 -2.22444 0
M  V30 25118 H 2317.26 4.33814 -0.685711 0
M  V30 25119 H 2317.87 3.63737 -2.20399 0
M  V30 25120 N 2316.18 1.07291 1.1544 0
M  V30 25121 C 2317.11 0.714146 2.22311 0
M  V30 25122 C 2318.09 -0.298126 1.67467 0
M  V30 25123 O 2319.28 -0.171014 1.93446 0
M  V30 25124 C 2316.41 0.110509 3.47124 0
M  V30 25125 C 2315.36 1.04987 4.14924 0
M  V30 25126 C 2314.69 0.309018 5.33806 0
M  V30 25127 C 2315.99 2.38322 4.64758 0
M  V30 25128 H 2317.68 1.60765 2.52577 0
M  V30 25129 H 2315.23 0.774431 1.21402 0
M  V30 25130 H 2317.18 -0.152408 4.21124 0
M  V30 25131 H 2315.91 -0.818065 3.16189 0
M  V30 25132 H 2314.56 1.2977 3.42864 0
M  V30 25133 H 2314.21 -0.622997 4.99127 0
M  V30 25134 H 2313.91 0.935138 5.80111 0
M  V30 25135 H 2315.44 0.0538844 6.10576 0
M  V30 25136 H 2316.85 2.17869 5.30289 0
M  V30 25137 H 2315.25 2.96523 5.21722 0
M  V30 25138 H 2316.32 3.00669 3.80429 0
M  V30 25139 N 2317.66 -1.32267 0.856927 0
M  V30 25140 C 2318.59 -2.31316 0.318621 0
M  V30 25141 C 2319.57 -1.5978 -0.583459 0
M  V30 25142 O 2320.76 -1.87567 -0.503226 0
M  V30 25143 C 2317.89 -3.43799 -0.491918 0
M  V30 25144 C 2316.84 -4.26832 0.315924 0
M  V30 25145 C 2316.17 -5.31099 -0.619492 0
M  V30 25146 C 2317.47 -4.98991 1.54291 0
M  V30 25147 H 2319.16 -2.76589 1.14626 0
M  V30 25148 H 2316.71 -1.32973 0.552637 0
M  V30 25149 H 2318.66 -4.12132 -0.878939 0
M  V30 25150 H 2317.38 -2.97259 -1.35294 0
M  V30 25151 H 2316.04 -3.60149 0.684728 0
M  V30 25152 H 2315.69 -4.80813 -1.47742 0
M  V30 25153 H 2315.39 -5.87541 -0.0829589 0
M  V30 25154 H 2316.91 -6.02295 -1.00364 0
M  V30 25155 H 2318.33 -5.59993 1.22806 0
M  V30 25156 H 2316.73 -5.65168 2.01755 0
M  V30 25157 H 2317.8 -4.26724 2.30292 0
M  V30 25158 N 2319.14 -0.615084 -1.45102 0
M  V30 25159 C 2320.55 -0.27935 -1.57136 0
M  V30 25160 C 2320.75 1.21795 -1.60525 0
M  V30 25161 O 2319.81 2.00132 -1.5396 0
M  V30 25162 C 2321.12 -0.957134 -2.8506 0
M  V30 25163 C 2322.67 -0.933758 -2.98747 0
M  V30 25164 C 2323.15 -1.5917 -4.29452 0
M  V30 25165 N 2324.64 -1.55753 -4.36228 0
M  V30 25166 C 2325.37 -2.0357 -5.36048 0
M  V30 25167 N 2324.87 -2.59505 -6.42362 0
M  V30 25168 N 2326.66 -1.94293 -5.27453 0
M  V30 25169 H 2318.81 -1.58719 -1.41145 0
M  V30 25170 H 2321.08 -0.665318 -0.67532 0
M  V30 25171 H 2320.78 -2.01171 -2.88484 0
M  V30 25172 H 2320.66 -0.485006 -3.74069 0
M  V30 25173 H 2323.04 0.112295 -2.94886 0
M  V30 25174 H 2323.12 -1.44422 -2.1113 0
M  V30 25175 H 2322.77 -2.63712 -4.34072 0
M  V30 25176 H 2322.7 -1.05619 -5.15899 0
M  V30 25177 H 2325.19 -1.14899 -3.60009 0
M  V30 25178 H 2325.5 -2.93765 -7.14788 0
M  V30 25179 H 2323.85 -2.63548 -6.43092 0
M  V30 25180 H 2327.04 -1.50328 -4.43305 0
M  V30 25181 H 2327.21 -2.31871 -6.05095 0
M  V30 25182 N 2320.62 1.53557 -0.354678 0
M  V30 25183 C 2322.03 1.596 -0.00318231 0
M  V30 25184 C 2322.23 1.37024 1.47738 0
M  V30 25185 O 2321.29 1.17 2.23757 0
M  V30 25186 C 2322.6 2.97324 -0.449342 0
M  V30 25187 C 2324.15 3.104 -0.402632 0
M  V30 25188 C 2324.63 4.50519 -0.824434 0
M  V30 25189 N 2326.12 4.56601 -0.779059 0
M  V30 25190 C 2326.85 5.6319 -1.07725 0
M  V30 25191 N 2326.35 6.77581 -1.44417 0
M  V30 25192 N 2328.14 5.5312 -1.00076 0
M  V30 25193 H 2320.29 1.66485 -1.31896 0
M  V30 25194 H 2322.55 0.780274 -0.538402 0
M  V30 25195 H 2322.26 3.18947 -1.48208 0
M  V30 25196 H 2322.13 3.76818 0.169706 0
M  V30 25197 H 2324.52 2.88493 0.620954 0
M  V30 25198 H 2324.6 2.32939 -1.05703 0
M  V30 25199 H 2324.25 4.73162 -1.84608 0
M  V30 25200 H 2324.18 5.26394 -0.147397 0
M  V30 25201 H 2326.67 3.74462 -0.508594 0
M  V30 25202 H 2326.98 7.54843 -1.65625 0
M  V30 25203 H 2325.33 6.78999 -1.48272 0
M  V30 25204 H 2328.52 4.62632 -0.713374 0
M  V30 25205 H 2328.69 6.36093 -1.23649 0
M  V30 25206 N 2322.1 0.083568 1.57378 0
M  V30 25207 C 2323.34 -0.582464 1.93107 0
M  V30 25208 C 2323.66 -1.70051 0.96654 0
M  V30 25209 O 2324.86 -2.42691 1.2171 0
M  V30 25210 C 2323.32 -1.08745 3.43078 0
M  V30 25211 C 2322.93 0.000225151 4.48 0
M  V30 25212 C 2324.67 -1.72687 3.87788 0
M  V30 25213 C 2322.58 -0.519464 5.89114 0
M  V30 25214 H 2321.51 -0.221345 0.720779 0
M  V30 25215 H 2324.16 0.157707 1.82821 0
M  V30 25216 H 2322.54 -1.88095 3.48477 0
M  V30 25217 H 2323.72 0.775279 4.54231 0
M  V30 25218 H 2322.03 0.544133 4.12829 0
M  V30 25219 H 2324.63 -2.12621 4.90608 0
M  V30 25220 H 2324.97 -2.59152 3.258 0
M  V30 25221 H 2325.5 -0.999389 3.85042 0
M  V30 25222 H 2322.24 0.308301 6.54775 0
M  V30 25223 H 2321.76 -1.26178 5.86378 0
M  V30 25224 H 2323.44 -0.992125 6.39348 0
M  V30 25225 N 2323.57 -1.5645 -0.190064 0
M  V30 25226 C 2324.51 -1.91479 -1.2597 0
M  V30 25227 C 2325.52 -0.805956 -1.4145 0
M  V30 25228 O 2326.71 -1.08438 -1.41787 0
M  V30 25229 C 2323.81 -2.13599 -2.63113 0
M  V30 25230 C 2322.98 -3.44765 -2.69176 0
M  V30 25231 C 2322.04 -3.55937 -3.87551 0
M  V30 25232 O 2321.07 -4.28718 -3.74419 0
M  V30 25233 N 2322.27 -2.89397 -5.03219 0
M  V30 25234 H 2325.03 -2.83829 -0.962344 0
M  V30 25235 H 2322.59 -1.57378 -0.379953 0
M  V30 25236 H 2324.59 -2.18356 -3.40739 0
M  V30 25237 H 2323.16 -1.27724 -2.85316 0
M  V30 25238 H 2322.38 -3.51832 -1.77787 0
M  V30 25239 H 2323.66 -4.31112 -2.70222 0
M  V30 25240 H 2323.06 -2.30103 -5.16787 0
M  V30 25241 H 2321.62 -2.99775 -5.78773 0
M  V30 25242 N 2325.05 0.45796 -1.50799 0
M  V30 25243 C 2326.46 1.03847 -1.55154 0
M  V30 25244 C 2326.81 1.92817 -0.362753 0
M  V30 25245 O 2325.94 2.09988 0.522878 0
M  V30 25246 C 2326.53 1.89012 -2.81176 0
M  V30 25247 C 2325.09 2.42149 -2.88168 0
M  V30 25248 C 2324.24 1.20825 -2.49593 0
M  V30 25249 H 2327.19 0.240041 -1.56874 0
M  V30 25250 H 2327.21 2.74233 -2.63774 0
M  V30 25251 H 2326.72 1.24232 -3.67679 0
M  V30 25252 H 2324.82 3.10444 -2.06047 0
M  V30 25253 H 2324.94 2.76357 -3.91361 0
M  V30 25254 H 2323.3 1.54716 -2.02324 0
M  V30 25255 H 2324.08 0.576868 -3.38419 0
M  V30 25256 N 2326.53 1.40598 0.712035 0
M  V30 25257 C 2327.94 1.3484 1.29132 0
M  V30 25258 C 2328.29 0.023574 1.96186 0
M  V30 25259 O 2327.42 -0.878409 1.9777 0
M  V30 25260 C 2328.01 2.44221 2.34822 0
M  V30 25261 C 2326.57 2.41912 2.88367 0
M  V30 25262 C 2325.72 2.24916 1.62198 0
M  V30 25263 H 2328.67 1.50353 0.507917 0
M  V30 25264 H 2328.69 2.12332 3.15746 0
M  V30 25265 H 2328.2 3.40631 1.8599 0
M  V30 25266 H 2326.3 1.4921 3.41419 0
M  V30 25267 H 2326.42 3.37627 3.39919 0
M  V30 25268 H 2324.78 1.72495 1.87397 0
M  V30 25269 H 2325.56 3.23328 1.15386 0
M  V30 25270 N 2328.01 -0.94462 1.26153 0
M  V30 25271 C 2328.94 -2.06017 1.09906 0
M  V30 25272 C 2329.92 -1.70099 0.00522528 0
M  V30 25273 O 2331.1 -1.93395 0.176617 0
M  V30 25274 C 2328.23 -3.39592 0.727622 0
M  V30 25275 C 2327.19 -3.89558 1.77281 0
M  V30 25276 C 2326.51 -5.19744 1.25578 0
M  V30 25277 C 2327.81 -4.14822 3.17365 0
M  V30 25278 H 2329.51 -2.19868 2.03221 0
M  V30 25279 H 2327.05 -1.0565 0.97847 0
M  V30 25280 H 2329.01 -4.17094 0.60085 0
M  V30 25281 H 2327.73 -3.25708 -0.241229 0
M  V30 25282 H 2326.39 -3.14234 1.88819 0
M  V30 25283 H 2326.04 -5.02237 0.276872 0
M  V30 25284 H 2325.74 -5.54144 1.95443 0
M  V30 25285 H 2327.26 -5.99833 1.14161 0
M  V30 25286 H 2328.68 -4.82949 3.08923 0
M  V30 25287 H 2327.07 -4.60497 3.84789 0
M  V30 25288 H 2328.14 -3.20728 3.63678 0
M  V30 25289 N 2329.49 -1.07901 -1.1487 0
M  V30 25290 C 2330.73 -0.803973 -1.8542 0
M  V30 25291 C 2331.05 0.672078 -1.83052 0
M  V30 25292 O 2330.32 1.487 -1.27534 0
M  V30 25293 H 2328.9 -0.29442 -0.686532 0
M  V30 25294 H 2331.57 -1.36393 -1.39223 0
M  V30 25295 H 2330.66 -1.14351 -2.90397 0
M  V30 25296 N 2330.96 1.31811 -0.863929 0
M  V30 25297 C 2332.21 1.96925 -0.47187 0
M  V30 25298 C 2332.54 1.68323 0.974549 0
M  V30 25299 O 2331.79 0.968963 1.70028 0
M  V30 25300 C 2332.09 3.5109 -0.668609 0
M  V30 25301 C 2331.76 3.99699 -2.0869 0
M  V30 25302 C 2330.42 4.12684 -2.47478 0
M  V30 25303 C 2332.77 4.25346 -3.01215 0
M  V30 25304 C 2330.1 4.48663 -3.78045 0
M  V30 25305 C 2332.45 4.62787 -4.3129 0
M  V30 25306 C 2331.12 4.73978 -4.70001 0
M  V30 25307 H 2330.39 0.720601 -0.17267 0
M  V30 25308 H 2333.03 1.57052 -1.09576 0
M  V30 25309 H 2331.34 3.91781 0.0384563 0
M  V30 25310 H 2333.04 3.99512 -0.345172 0
M  V30 25311 H 2329.63 3.90084 -1.77573 0
M  V30 25312 H 2333.81 4.14814 -2.72476 0
M  V30 25313 H 2329.07 4.55524 -4.07808 0
M  V30 25314 H 2333.24 4.81585 -5.0304 0
M  V30 25315 H 2330.87 5.01614 -5.71216 0
M  V30 25316 N 2332.44 0.62277 1.44773 0
M  V30 25317 C 2333.69 0.12369 2.01721 0
M  V30 25318 C 2334.01 -1.25587 1.49174 0
M  V30 25319 O 2333.28 -1.83271 0.692006 0
M  V30 25320 H 2331.86 0.0427356 0.745777 0
M  V30 25321 H 2334.52 0.80759 1.77381 0
M  V30 25322 H 2333.62 0.0850082 3.11984 0
M  V30 25323 N 2333.92 -1.53367 0.362817 0
M  V30 25324 C 2334.87 -2.25647 -0.484968 0
M  V30 25325 C 2335.84 -1.26212 -1.0798 0
M  V30 25326 O 2337.02 -1.54988 -1.11281 0
M  V30 25327 C 2334.16 -3.04703 -1.62018 0
M  V30 25328 C 2333.27 -4.19026 -1.05079 0
M  V30 25329 C 2332.41 -4.85529 -2.15488 0
M  V30 25330 C 2331.45 -5.91887 -1.56 0
M  V30 25331 N 2330.59 -6.52093 -2.60229 0
M  V30 25332 H 2335.43 -2.97681 0.137916 0
M  V30 25333 H 2332.96 -1.46883 0.0798319 0
M  V30 25334 H 2334.92 -3.48811 -2.28881 0
M  V30 25335 H 2333.55 -2.34931 -2.21376 0
M  V30 25336 H 2332.6 -3.79423 -0.272524 0
M  V30 25337 H 2333.91 -4.95465 -0.575839 0
M  V30 25338 H 2333.07 -5.32806 -2.90177 0
M  V30 25339 H 2331.81 -4.08556 -2.66333 0
M  V30 25340 H 2330.81 -5.43974 -0.798243 0
M  V30 25341 H 2332.04 -6.70779 -1.05982 0
M  V30 25342 H 2329.98 -5.77974 -3.10294 0
M  V30 25343 H 2329.9 -7.24063 -2.17413 0
M  V30 25344 H 2331.17 -7.0402 -3.34629 0
M  V30 25345 N 2335.4 -0.091913 -1.57332 0
M  V30 25346 C 2336.33 0.865333 -2.16874 0
M  V30 25347 C 2337.31 1.29644 -1.1012 0
M  V30 25348 O 2338.49 1.3639 -1.38244 0
M  V30 25349 C 2335.62 2.12564 -2.74652 0
M  V30 25350 C 2334.58 1.83326 -3.8675 0
M  V30 25351 C 2333.9 3.16158 -4.31217 0
M  V30 25352 C 2335.2 1.12271 -5.10091 0
M  V30 25353 H 2336.9 0.369255 -2.97114 0
M  V30 25354 H 2334.44 0.176168 -1.42918 0
M  V30 25355 H 2336.4 2.79964 -3.14957 0
M  V30 25356 H 2335.12 2.64449 -1.91662 0
M  V30 25357 H 2333.78 1.18325 -3.4698 0
M  V30 25358 H 2333.43 3.65924 -3.45121 0
M  V30 25359 H 2333.13 2.97379 -5.06793 0
M  V30 25360 H 2334.65 3.84722 -4.74153 0
M  V30 25361 H 2336.07 1.69776 -5.47585 0
M  V30 25362 H 2334.46 1.03682 -5.91075 0
M  V30 25363 H 2335.53 0.104956 -4.84786 0
M  V30 25364 N 2336.88 1.56548 0.181765 0
M  V30 25365 C 2338.12 1.8319 0.906679 0
M  V30 25366 C 2338.48 0.671344 1.7988 0
M  V30 25367 O 2339.68 0.817965 2.56052 0
M  V30 25368 C 2337.95 3.14909 1.69018 0
M  V30 25369 S 2339.51 3.63 2.46529 0
M  V30 25370 H 2336.33 0.642796 0.303865 0
M  V30 25371 H 2338.93 1.94768 0.169072 0
M  V30 25372 H 2337.64 3.97377 1.02564 0
M  V30 25373 H 2337.17 3.06246 2.46936 0
M  V30 25374 H 2339.18 3.29496 3.71008 0
M  V30 25375 N 2338.35 -0.449957 1.5104 0
M  V30 25376 C 2339.77 -1.03023 1.55702 0
M  V30 25377 C 2340.12 -1.92622 0.372973 0
M  V30 25378 O 2339.24 -2.10262 -0.511734 0
M  V30 25379 C 2339.84 -1.87518 2.82174 0
M  V30 25380 C 2338.4 -2.40617 2.89449 0
M  V30 25381 C 2337.54 -1.195 2.5023 0
M  V30 25382 H 2340.49 -0.231718 1.56999 0
M  V30 25383 H 2340.51 -2.7283 2.65224 0
M  V30 25384 H 2340.03 -1.2228 3.68333 0
M  V30 25385 H 2338.13 -3.09347 2.07691 0
M  V30 25386 H 2338.24 -2.74278 3.92821 0
M  V30 25387 H 2336.6 -1.5364 2.03142 0
M  V30 25388 H 2337.39 -0.558913 3.3872 0
M  V30 25389 N 2339.83 -1.40974 -0.704569 0
M  V30 25390 C 2340.78 -1.38584 -1.81048 0
M  V30 25391 C 2341.77 -0.261613 -1.58759 0
M  V30 25392 O 2342.96 -0.501586 -1.69744 0
M  V30 25393 C 2340.09 -1.26163 -3.19277 0
M  V30 25394 C 2339.17 -2.43411 -3.47292 0
M  V30 25395 N 2339.56 -3.68887 -3.46058 0
M  V30 25396 C 2337.86 -2.3703 -3.778 0
M  V30 25397 C 2338.56 -4.46599 -3.72726 0
M  V30 25398 N 2337.54 -3.76588 -3.92023 0
M  V30 25399 H 2341.34 -2.33528 -1.78443 0
M  V30 25400 H 2338.86 -1.34902 -0.904175 0
M  V30 25401 H 2340.85 -1.22533 -3.98486 0
M  V30 25402 H 2339.51 -0.321958 -3.231 0
M  V30 25403 H 2340.52 -4.01897 -3.26649 0
M  V30 25404 H 2337.2 -1.51488 -3.89047 0
M  V30 25405 H 2338.59 -5.55498 -3.77983 0
M  V30 25406 N 2341.31 0.937917 -1.26653 0
M  V30 25407 C 2342.73 1.21203 -1.03836 0
M  V30 25408 C 2342.93 2.00131 0.234467 0
M  V30 25409 O 2341.98 2.34241 0.942726 0
M  V30 25410 C 2343.3 1.97013 -2.27171 0
M  V30 25411 C 2344.84 2.09992 -2.32105 0
M  V30 25412 C 2345.32 2.89204 -3.55141 0
M  V30 25413 N 2346.81 2.96776 -3.55638 0
M  V30 25414 C 2347.54 3.58505 -4.47506 0
M  V30 25415 N 2347.04 4.21707 -5.49668 0
M  V30 25416 N 2348.83 3.55809 -4.35151 0
M  V30 25417 H 2340.98 0.410354 -2.08398 0
M  V30 25418 H 2343.25 0.244098 -0.916035 0
M  V30 25419 H 2342.95 1.46428 -3.19768 0
M  V30 25420 H 2342.83 2.97667 -2.31677 0
M  V30 25421 H 2345.21 2.59766 -1.4002 0
M  V30 25422 H 2345.3 1.0859 -2.31607 0
M  V30 25423 H 2344.94 2.40115 -4.47557 0
M  V30 25424 H 2344.87 3.90869 -3.52887 0
M  V30 25425 H 2347.36 2.51847 -2.81747 0
M  V30 25426 H 2347.67 4.66716 -6.15951 0
M  V30 25427 H 2346.02 4.20284 -5.53522 0
M  V30 25428 H 2349.21 3.05628 -3.54555 0
M  V30 25429 H 2349.38 4.03627 -5.06941 0
M  V30 25430 N 2342.79 1.08509 1.14296 0
M  V30 25431 C 2344.03 0.816614 1.85632 0
M  V30 25432 C 2344.37 -0.655989 1.82785 0
M  V30 25433 O 2343.64 -1.48231 1.25928 0
M  V30 25434 C 2343.93 1.34047 3.34221 0
M  V30 25435 C 2343.78 2.87849 3.45634 0
M  V30 25436 C 2345.1 0.966576 4.29355 0
M  V30 25437 H 2342.22 0.298116 0.674015 0
M  V30 25438 H 2344.86 1.34489 1.34211 0
M  V30 25439 H 2343.01 0.891107 3.78142 0
M  V30 25440 H 2344.68 3.41164 3.10492 0
M  V30 25441 H 2342.92 3.25456 2.86812 0
M  V30 25442 H 2343.59 3.19576 4.50083 0
M  V30 25443 H 2346.07 1.35398 3.93455 0
M  V30 25444 H 2344.95 1.3603 5.31777 0
M  V30 25445 H 2345.21 -0.126284 4.4192 0
M  V30 25446 N 2344.27 -1.31351 0.870907 0
M  V30 25447 C 2345.23 -2.26779 0.332283 0
M  V30 25448 C 2346.23 -1.52253 -0.517275 0
M  V30 25449 O 2347.42 -1.71114 -0.326447 0
M  V30 25450 C 2344.55 -3.36786 -0.528007 0
M  V30 25451 H 2345.74 -2.75935 1.17473 0
M  V30 25452 H 2343.3 -1.42299 0.646575 0
M  V30 25453 H 2344.03 -2.92924 -1.39162 0
M  V30 25454 H 2343.82 -3.92018 0.0803271 0
M  V30 25455 H 2345.31 -4.0785 -0.897107 0
M  V30 25456 N 2345.74 -0.630439 -1.44441 0
M  V30 25457 C 2346.98 -0.137955 -2.03934 0
M  V30 25458 C 2347.35 1.2169 -1.48511 0
M  V30 25459 O 2348.55 1.80145 -1.99502 0
M  V30 25460 C 2346.82 -0.123436 -3.57187 0
M  V30 25461 S 2348.38 0.304527 -4.37742 0
M  V30 25462 H 2345.2 -0.0607477 -0.7084 0
M  V30 25463 H 2347.8 -0.833674 -1.76834 0
M  V30 25464 H 2346.5 -1.11263 -3.9503 0
M  V30 25465 H 2346.03 0.593552 -3.88897 0
M  V30 25466 H 2348.05 1.54889 -4.71406 0
M  V30 25467 N 2347.22 1.53172 -0.370945 0
M  V30 25468 C 2348.17 2.25901 0.472995 0
M  V30 25469 C 2349.14 1.26783 1.07309 0
M  V30 25470 O 2350.32 1.55576 1.10457 0
M  V30 25471 C 2347.46 3.05558 1.604 0
M  V30 25472 C 2346.58 4.19577 1.02855 0
M  V30 25473 C 2345.71 4.86665 2.1291 0
M  V30 25474 C 2344.75 5.92706 1.52859 0
M  V30 25475 N 2343.89 6.53464 2.56768 0
M  V30 25476 H 2348.73 2.97603 -0.153701 0
M  V30 25477 H 2346.27 1.46839 -0.0876204 0
M  V30 25478 H 2348.22 3.5002 2.27028 0
M  V30 25479 H 2346.85 2.36101 2.20127 0
M  V30 25480 H 2345.91 3.79562 0.252398 0
M  V30 25481 H 2347.22 4.95763 0.549555 0
M  V30 25482 H 2346.37 5.34338 2.87347 0
M  V30 25483 H 2345.11 4.09962 2.64163 0
M  V30 25484 H 2344.12 5.4439 0.769383 0
M  V30 25485 H 2345.34 6.71332 1.02423 0
M  V30 25486 H 2343.29 5.79611 3.07224 0
M  V30 25487 H 2343.2 7.25206 2.1357 0
M  V30 25488 H 2344.47 7.05784 3.30891 0
M  V30 25489 N 2348.7 0.100255 1.57281 0
M  V30 25490 C 2350.12 -0.256388 1.57527 0
M  V30 25491 C 2350.32 -1.68054 1.11176 0
M  V30 25492 O 2349.37 -2.39805 0.790572 0
M  V30 25493 C 2350.69 -0.0401218 3.00673 0
M  V30 25494 C 2352.23 -0.107473 3.12815 0
M  V30 25495 C 2352.71 0.0808639 4.57929 0
M  V30 25496 N 2354.2 0.0262021 4.63193 0
M  V30 25497 C 2354.93 0.1471 5.73211 0
M  V30 25498 N 2354.43 0.323121 6.92046 0
M  V30 25499 N 2356.22 0.0880032 5.62031 0
M  V30 25500 H 2348.37 1.03069 1.85717 0
M  V30 25501 H 2350.64 0.404354 0.857439 0
M  V30 25502 H 2350.34 0.943709 3.38802 0
M  V30 25503 H 2350.22 -0.780198 3.69043 0
M  V30 25504 H 2352.6 -1.08181 2.74556 0
M  V30 25505 H 2352.69 0.664177 2.47027 0
M  V30 25506 H 2352.33 1.05209 4.96884 0
M  V30 25507 H 2352.26 -0.710543 5.21784 0
M  V30 25508 H 2354.75 -0.107095 3.77748 0
M  V30 25509 H 2355.06 0.406744 7.71729 0
M  V30 25510 H 2353.41 0.358855 6.94073 0
M  V30 25511 H 2356.6 -0.0484157 4.68075 0
M  V30 25512 H 2356.77 0.185671 6.47734 0
M  V30 25513 N 2350.18 -1.56643 -0.17346 0
M  V30 25514 C 2351.11 -1.99273 -1.21706 0
M  V30 25515 C 2352.09 -0.867985 -1.46287 0
M  V30 25516 O 2353.28 -1.13391 -1.57658 0
M  V30 25517 C 2350.41 -2.35079 -2.55647 0
M  V30 25518 C 2349.36 -3.50494 -2.45639 0
M  V30 25519 C 2348.69 -3.72035 -3.84049 0
M  V30 25520 C 2349.99 -4.84011 -1.96293 0
M  V30 25521 H 2351.68 -2.86702 -0.8627 0
M  V30 25522 H 2349.23 -1.37934 -0.413547 0
M  V30 25523 H 2351.18 -2.63499 -3.28856 0
M  V30 25524 H 2349.9 -1.44557 -2.92867 0
M  V30 25525 H 2348.56 -3.22197 -1.74884 0
M  V30 25526 H 2348.21 -2.78808 -4.18659 0
M  V30 25527 H 2347.91 -4.49691 -3.78222 0
M  V30 25528 H 2349.43 -4.02854 -4.58847 0
M  V30 25529 H 2350.85 -5.11321 -2.59275 0
M  V30 25530 H 2349.24 -5.65288 -2.01419 0
M  V30 25531 H 2350.31 -4.76148 -0.917143 0
M  V30 25532 N 2351.66 0.44194 -1.51277 0
M  V30 25533 C 2352.9 1.19352 -1.6396 0
M  V30 25534 C 2353.24 1.90973 -0.352577 0
M  V30 25535 O 2352.51 1.83402 0.647595 0
M  V30 25536 C 2352.79 2.21417 -2.83983 0
M  V30 25537 C 2352.65 1.5391 -4.22648 0
M  V30 25538 C 2353.97 3.22446 -2.99527 0
M  V30 25539 H 2351.09 0.432549 -0.596716 0
M  V30 25540 H 2353.73 0.483366 -1.83749 0
M  V30 25541 H 2351.88 2.81982 -2.67242 0
M  V30 25542 H 2353.55 0.967177 -4.51047 0
M  V30 25543 H 2351.79 0.84154 -4.25559 0
M  V30 25544 H 2352.46 2.2822 -5.02613 0
M  V30 25545 H 2354.94 2.71931 -3.14949 0
M  V30 25546 H 2353.82 3.91159 -3.85079 0
M  V30 25547 H 2354.08 3.88283 -2.11397 0
M  V30 25548 N 2353.14 1.41345 0.697083 0
M  V30 25549 C 2354.36 1.44173 1.49093 0
M  V30 25550 C 2354.79 0.0481899 1.88038 0
M  V30 25551 O 2354.14 -0.948216 1.54527 0
M  V30 25552 C 2354.19 2.35495 2.73084 0
M  V30 25553 O 2353.3 1.81094 3.70511 0
M  V30 25554 H 2352.64 0.489369 0.448792 0
M  V30 25555 H 2355.17 1.85789 0.856959 0
M  V30 25556 H 2355.18 2.51317 3.21409 0
M  V30 25557 H 2353.85 3.3675 2.44075 0
M  V30 25558 H 2352.43 1.74714 3.29438 0
M  V30 25559 N 2354.61 -0.931187 1.27148 0
M  V30 25560 C 2355.55 -2.03178 1.03893 0
M  V30 25561 C 2356.52 -1.62552 -0.039543 0
M  V30 25562 O 2357.71 -1.88208 0.1049 0
M  V30 25563 C 2354.84 -3.33779 0.575285 0
M  V30 25564 C 2353.88 -3.93382 1.64781 0
M  V30 25565 S 2354.71 -4.26407 3.2394 0
M  V30 25566 C 2355.87 -5.60093 2.79368 0
M  V30 25567 H 2356.1 -2.22592 1.97079 0
M  V30 25568 H 2353.64 -1.07385 1.1094 0
M  V30 25569 H 2355.59 -4.09294 0.314457 0
M  V30 25570 H 2354.26 -3.12293 -0.33645 0
M  V30 25571 H 2353.45 -4.87616 1.27463 0
M  V30 25572 H 2353.05 -3.24438 1.86053 0
M  V30 25573 H 2355.34 -6.39239 2.24454 0
M  V30 25574 H 2356.29 -6.02307 3.72333 0
M  V30 25575 H 2356.69 -5.20448 2.18619 0
M  V30 25576 N 2356.09 -1.09114 -1.13719 0
M  V30 25577 C 2357.04 -0.722258 -2.21102 0
M  V30 25578 C 2358.03 0.275344 -1.67147 0
M  V30 25579 O 2359.24 0.137144 -1.79477 0
M  V30 25580 H 2355.61 -0.215565 -0.720441 0
M  V30 25581 H 2357.59 -1.63714 -2.4948 0
M  V30 25582 C 2356.33 -0.155491 -3.47352 0
M  V30 25583 H 2355.66 -0.914314 -3.89205 0
M  V30 25584 H 2357.1 0.0647221 -4.23951 0
M  V30 25585 C 2355.56 1.10847 -3.18142 0
M  V30 25586 O 2356.09 2.19221 -3.36608 0
M  V30 25587 N 2354.29 1.02171 -2.72047 0
M  V30 25588 H 2353.84 0.139719 -2.57221 0
M  V30 25589 H 2353.8 1.86815 -2.52878 0
M  V30 25590 N 2357.57 1.30887 -0.877861 0
M  V30 25591 C 2358.5 2.26425 -0.284035 0
M  V30 25592 C 2359.48 1.51466 0.591334 0
M  V30 25593 O 2360.66 1.80509 0.543009 0
M  V30 25594 C 2357.79 3.33396 0.59707 0
M  V30 25595 C 2356.84 4.25992 -0.208011 0
M  V30 25596 S 2357.67 5.11298 -1.59167 0
M  V30 25597 C 2358.83 6.21781 -0.716901 0
M  V30 25598 H 2359.06 2.76444 -1.09388 0
M  V30 25599 H 2356.59 1.38773 -0.676853 0
M  V30 25600 H 2358.55 3.95495 1.09971 0
M  V30 25601 H 2357.21 2.82115 1.38094 0
M  V30 25602 H 2356.4 5.01859 0.464075 0
M  V30 25603 H 2356.01 3.68431 -0.643028 0
M  V30 25604 H 2358.3 6.77465 0.0691642 0
M  V30 25605 H 2359.24 6.93159 -1.44694 0
M  V30 25606 H 2359.65 5.638 -0.280955 0
M  V30 25607 N 2359.05 0.638091 1.44105 0
M  V30 25608 C 2360.46 0.226927 1.85316 0
M  V30 25609 C 2360.81 -1.22322 1.53401 0
M  V30 25610 O 2359.93 -1.93166 0.975497 0
M  V30 25611 C 2360.53 0.405072 3.3637 0
M  V30 25612 C 2359.09 0.0483563 3.76369 0
M  V30 25613 C 2358.24 0.715155 2.67919 0
M  V30 25614 H 2361.19 0.842787 1.34472 0
M  V30 25615 H 2361.21 -0.353933 3.7885 0
M  V30 25616 H 2360.72 1.46059 3.59567 0
M  V30 25617 H 2358.82 -1.00516 3.58786 0
M  V30 25618 H 2358.93 0.463271 4.76855 0
M  V30 25619 H 2357.3 0.149798 2.54259 0
M  V30 25620 H 2358.08 1.77341 2.93948 0
M  V30 25621 N 2360.53 -1.52973 0.379063 0
M  V30 25622 C 2361.46 -2.2907 -0.452665 0
M  V30 25623 C 2362.44 -1.32041 -1.07235 0
M  V30 25624 O 2363.62 -1.60925 -1.08705 0
M  V30 25625 C 2360.75 -3.08995 -1.58554 0
M  V30 25626 C 2359.71 -4.13824 -1.09243 0
M  V30 25627 C 2359.03 -4.81911 -2.31659 0
M  V30 25628 C 2360.33 -5.22031 -0.16761 0
M  V30 25629 H 2362.03 -2.98845 0.182233 0
M  V30 25630 H 2359.57 -1.43724 0.0890845 0
M  V30 25631 H 2361.52 -3.60983 -2.17414 0
M  V30 25632 H 2360.25 -2.36935 -2.24788 0
M  V30 25633 H 2358.91 -3.62801 -0.526431 0
M  V30 25634 H 2358.56 -4.06409 -2.96379 0
M  V30 25635 H 2358.26 -5.52758 -1.9933 0
M  V30 25636 H 2359.78 -5.367 -2.9118 0
M  V30 25637 H 2361.19 -5.69441 -0.664086 0
M  V30 25638 H 2359.59 -6.00064 0.065432 0
M  V30 25639 H 2360.66 -4.7848 0.786431 0
M  V30 25640 N 2362 -0.108595 -1.57225 0
M  V30 25641 C 2362.95 0.862847 -2.16004 0
M  V30 25642 C 2363.95 1.28272 -1.10646 0
M  V30 25643 O 2365.15 1.25568 -1.28968 0
M  V30 25644 H 2361.53 0.29633 -0.691153 0
M  V30 25645 H 2363.5 0.342523 -2.96428 0
M  V30 25646 C 2362.25 2.10711 -2.76579 0
M  V30 25647 H 2361.57 1.79294 -3.57343 0
M  V30 25648 H 2363.01 2.76712 -3.21258 0
M  V30 25649 C 2361.47 2.89004 -1.73142 0
M  V30 25650 O 2362 3.84024 -1.17849 0
M  V30 25651 N 2360.2 2.52799 -1.43322 0
M  V30 25652 H 2359.75 1.75598 -1.88476 0
M  V30 25653 H 2359.71 3.05481 -0.743539 0
M  V30 25654 N 2363.48 1.56732 0.16515 0
M  V30 25655 C 2364.71 1.86844 0.90022 0
M  V30 25656 C 2365.13 0.695627 1.74765 0
M  V30 25657 O 2364.49 -0.355188 1.77787 0
M  V30 25658 C 2364.54 3.15416 1.74771 0
M  V30 25659 O 2363.64 2.98073 2.85002 0
M  V30 25660 H 2362.98 0.614396 0.251821 0
M  V30 25661 H 2365.51 2.03962 0.161433 0
M  V30 25662 H 2365.52 3.46978 2.1464 0
M  V30 25663 H 2364.2 4.00387 1.12529 0
M  V30 25664 H 2362.77 2.7788 2.48671 0
M  V30 25665 N 2364.96 -0.433911 1.51509 0
M  V30 25666 C 2366.24 -1.1945 1.5489 0
M  V30 25667 C 2366.62 -2.08734 0.315191 0
M  V30 25668 O 2365.97 -2.17529 -0.69952 0
M  V30 25669 C 2366.18 -1.99337 2.86471 0
M  V30 25670 C 2367.52 -2.56261 3.38549 0
M  V30 25671 O 2368.55 -2.09544 2.88044 0
M  V30 25672 O 2367.41 -3.41475 4.26681 0
M  V30 25673 H 2364.5 -0.544021 0.622872 0
M  V30 25674 H 2367.05 -0.442703 1.63824 0
M  V30 25675 H 2365.82 -1.33782 3.6772 0
M  V30 25676 H 2365.44 -2.81575 2.80715 0
M  V30 25677 N 2366.44 -1.41713 -0.689577 0
M  V30 25678 C 2367.69 -1.41113 -1.44678 0
M  V30 25679 C 2368.01 -0.0232539 -1.94986 0
M  V30 25680 O 2367.28 0.935883 -1.72099 0
M  V30 25681 H 2365.86 -0.519436 -0.536838 0
M  V30 25682 H 2368.52 -1.77005 -0.815794 0
M  V30 25683 H 2367.62 -2.10197 -2.30702 0
M  V30 25684 N 2367.92 0.924431 -1.2764 0
M  V30 25685 C 2369.14 1.70647 -1.16992 0
M  V30 25686 C 2369.56 1.86818 0.272836 0
M  V30 25687 O 2368.92 1.38755 1.18546 0
M  V30 25688 C 2368.97 3.10436 -1.85234 0
M  V30 25689 O 2368.69 2.95022 -3.23873 0
M  V30 25690 C 2370.19 4.04776 -1.80753 0
M  V30 25691 H 2367.41 0.533773 -0.406604 0
M  V30 25692 H 2369.95 1.15775 -1.68571 0
M  V30 25693 H 2368.11 3.62158 -1.37551 0
M  V30 25694 H 2368.52 3.8342 -3.57896 0
M  V30 25695 H 2370 5.00364 -2.3311 0
M  V30 25696 H 2370.47 4.32262 -0.777575 0
M  V30 25697 H 2371.08 3.5898 -2.28065 0
M  V30 25698 N 2369.39 1.09715 1.13139 0
M  V30 25699 C 2370.64 0.836257 1.84755 0
M  V30 25700 C 2370.97 -0.636566 1.83471 0
M  V30 25701 O 2370.25 -1.46887 1.27493 0
M  V30 25702 C 2370.53 1.37584 3.3278 0
M  V30 25703 C 2370.38 2.91499 3.42562 0
M  V30 25704 C 2371.7 1.01206 4.28305 0
M  V30 25705 H 2368.82 0.305248 0.670815 0
M  V30 25706 H 2371.46 1.35905 1.32777 0
M  V30 25707 H 2369.61 0.931164 3.77176 0
M  V30 25708 H 2371.29 3.44438 3.06856 0
M  V30 25709 H 2369.53 3.2848 2.83343 0
M  V30 25710 H 2370.2 3.24332 4.46668 0
M  V30 25711 H 2372.68 1.39563 3.91997 0
M  V30 25712 H 2371.55 1.41662 5.30305 0
M  V30 25713 H 2371.81 -0.0794056 4.42029 0
M  V30 25714 N 2370.87 -1.30419 0.88479 0
M  V30 25715 C 2371.81 -2.26272 0.296039 0
M  V30 25716 C 2372.78 -1.51778 -0.583293 0
M  V30 25717 O 2373.97 -1.80795 -0.533428 0
M  V30 25718 C 2371.09 -3.33708 -0.579381 0
M  V30 25719 C 2370.14 -4.25876 0.2306 0
M  V30 25720 S 2370.97 -5.10447 1.61876 0
M  V30 25721 C 2372.13 -6.21392 0.749865 0
M  V30 25722 H 2372.36 -2.7586 1.10853 0
M  V30 25723 H 2369.9 -1.38413 0.684203 0
M  V30 25724 H 2371.85 -3.96073 -1.07873 0
M  V30 25725 H 2370.51 -2.82843 -1.36596 0
M  V30 25726 H 2369.71 -5.02098 -0.437453 0
M  V30 25727 H 2369.31 -3.68084 0.662557 0
M  V30 25728 H 2371.6 -6.77492 -0.0332357 0
M  V30 25729 H 2372.54 -6.92382 1.48368 0
M  V30 25730 H 2372.95 -5.63643 0.31085 0
M  V30 25731 N 2372.35 -0.645724 -1.43764 0
M  V30 25732 C 2373.6 -0.156075 -2.01898 0
M  V30 25733 C 2373.93 1.22731 -1.50889 0
M  V30 25734 O 2373.18 1.83159 -0.689304 0
M  V30 25735 C 2373.48 -0.107742 -3.57238 0
M  V30 25736 C 2373.15 -1.43186 -4.27561 0
M  V30 25737 C 2371.81 -1.79448 -4.46489 0
M  V30 25738 C 2374.16 -2.30522 -4.6745 0
M  V30 25739 C 2371.49 -3.02725 -5.02568 0
M  V30 25740 C 2373.84 -3.53084 -5.24895 0
M  V30 25741 C 2372.5 -3.89551 -5.42039 0
M  V30 25742 H 2371.77 -0.057112 -0.738796 0
M  V30 25743 H 2374.42 -0.834943 -1.7234 0
M  V30 25744 H 2372.73 0.65455 -3.86294 0
M  V30 25745 H 2374.42 0.287868 -3.99965 0
M  V30 25746 H 2371.01 -1.1397 -4.13169 0
M  V30 25747 H 2375.2 -2.03798 -4.52526 0
M  V30 25748 H 2370.45 -3.31037 -5.14027 0
M  V30 25749 H 2374.63 -4.20981 -5.54751 0
M  V30 25750 H 2372.25 -4.85155 -5.85259 0
M  V30 25751 N 2373.83 1.5277 -0.38717 0
M  V30 25752 C 2374.78 2.27927 0.463912 0
M  V30 25753 C 2375.77 1.31743 1.0649 0
M  V30 25754 O 2376.98 1.49289 1.00562 0
M  V30 25755 H 2373.35 0.732912 0.168357 0
M  V30 25756 H 2375.32 2.97785 -0.191462 0
M  V30 25757 C 2374.07 3.09715 1.58024 0
M  V30 25758 H 2373.39 3.83583 1.12711 0
M  V30 25759 H 2374.83 3.65445 2.15002 0
M  V30 25760 C 2373.29 2.21894 2.53505 0
M  V30 25761 O 2373.82 1.84428 3.5686 0
M  V30 25762 N 2372.03 1.86097 2.23196 0
M  V30 25763 H 2371.58 2.16763 1.39181 0
M  V30 25764 H 2371.53 1.27626 2.87331 0
M  V30 25765 N 2375.31 0.116931 1.57166 0
M  V30 25766 C 2376.27 -0.819705 2.14041 0
M  V30 25767 C 2377.27 -1.19603 1.07479 0
M  V30 25768 O 2378.46 -1.12188 1.33265 0
M  V30 25769 C 2375.59 -2.10821 2.67894 0
M  V30 25770 H 2376.78 -0.325459 2.98129 0
M  V30 25771 H 2374.34 -0.132285 1.55739 0
M  V30 25772 H 2375.07 -2.64681 1.87388 0
M  V30 25773 H 2374.86 -1.84787 3.45827 0
M  V30 25774 H 2376.35 -2.7778 3.11814 0
M  V30 25775 N 2376.78 -1.56818 -0.156836 0
M  V30 25776 C 2378.01 -1.86956 -0.886283 0
M  V30 25777 C 2378.43 -0.704006 -1.75183 0
M  V30 25778 O 2377.78 0.326521 -1.79555 0
M  V30 25779 C 2377.84 -3.16257 -1.75112 0
M  V30 25780 O 2377.56 -4.28321 -0.920461 0
M  V30 25781 C 2379.06 -3.59842 -2.58899 0
M  V30 25782 H 2376.28 -0.619928 -0.256769 0
M  V30 25783 H 2378.82 -2.0393 -0.152579 0
M  V30 25784 H 2376.98 -3.01066 -2.43799 0
M  V30 25785 H 2377.39 -5.02195 -1.51329 0
M  V30 25786 H 2378.86 -4.53178 -3.15172 0
M  V30 25787 H 2379.34 -2.84655 -3.34467 0
M  V30 25788 H 2379.95 -3.77693 -1.95519 0
M  V30 25789 N 2378.26 0.425871 -1.51737 0
M  V30 25790 C 2379.19 1.52491 -1.7683 0
M  V30 25791 C 2380.17 1.58455 -0.618551 0
M  V30 25792 O 2381.36 1.73999 -0.862447 0
M  V30 25793 C 2378.49 2.90471 -1.90379 0
M  V30 25794 C 2377.44 2.99363 -3.05885 0
M  V30 25795 C 2376.77 4.39435 -3.04632 0
M  V30 25796 C 2378.07 2.72387 -4.45649 0
M  V30 25797 H 2379.76 1.31743 -2.68857 0
M  V30 25798 H 2377.31 0.632339 -1.29373 0
M  V30 25799 H 2379.26 3.67327 -2.06516 0
M  V30 25800 H 2377.99 3.12475 -0.950095 0
M  V30 25801 H 2376.64 2.24949 -2.89471 0
M  V30 25802 H 2376.29 4.58424 -2.07018 0
M  V30 25803 H 2375.99 4.46313 -3.82202 0
M  V30 25804 H 2377.52 5.18249 -3.22878 0
M  V30 25805 H 2378.93 3.38971 -4.62354 0
M  V30 25806 H 2377.33 2.90661 -5.25011 0
M  V30 25807 H 2378.4 1.67921 -4.54896 0
M  V30 25808 N 2379.74 1.42077 0.682052 0
M  V30 25809 C 2380.99 1.42159 1.44212 0
M  V30 25810 C 2381.32 0.0354527 1.94468 0
M  V30 25811 O 2380.57 -0.954972 1.70818 0
M  V30 25812 C 2380.87 2.38666 2.66032 0
M  V30 25813 C 2380.54 3.8521 2.34359 0
M  V30 25814 C 2379.2 4.25128 2.25432 0
M  V30 25815 C 2381.55 4.77677 2.08504 0
M  V30 25816 C 2378.88 5.55504 1.88765 0
M  V30 25817 C 2381.23 6.08387 1.73343 0
M  V30 25818 C 2379.89 6.47312 1.62921 0
M  V30 25819 H 2379.16 0.520196 0.527709 0
M  V30 25820 H 2381.81 1.74968 0.778356 0
M  V30 25821 H 2380.12 1.99158 3.37407 0
M  V30 25822 H 2381.81 2.35997 3.24201 0
M  V30 25823 H 2378.4 3.53601 2.42207 0
M  V30 25824 H 2382.59 4.4763 2.14338 0
M  V30 25825 H 2377.84 5.8453 1.7926 0
M  V30 25826 H 2382.02 6.79529 1.52361 0
M  V30 25827 H 2379.64 7.48247 1.34279 0
M  V30 25828 N 2381.22 -0.917649 1.28129 0
M  V30 25829 C 2382.18 -2.00113 1.11747 0
M  V30 25830 C 2383.18 -1.60694 0.0583334 0
M  V30 25831 O 2384.37 -1.71531 0.303785 0
M  V30 25832 C 2381.5 -3.33532 0.704921 0
M  V30 25833 H 2382.7 -2.16076 2.0797 0
M  V30 25834 H 2380.25 -1.09979 1.1106 0
M  V30 25835 H 2380.99 -3.2327 -0.258242 0
M  V30 25836 H 2380.77 -3.63503 1.46997 0
M  V30 25837 H 2382.26 -4.13079 0.612841 0
M  V30 25838 N 2382.7 -1.10314 -1.12555 0
M  V30 25839 C 2383.63 -0.772837 -2.20339 0
M  V30 25840 C 2384.61 0.25362 -1.68199 0
M  V30 25841 O 2385.79 0.119665 -1.93831 0
M  V30 25842 C 2382.92 -0.202504 -3.46709 0
M  V30 25843 C 2381.88 -1.15951 -4.11994 0
M  V30 25844 C 2381.2 -0.450438 -5.32799 0
M  V30 25845 C 2382.5 -2.5056 -4.58276 0
M  V30 25846 H 2384.2 -1.67405 -2.48226 0
M  V30 25847 H 2381.74 -0.806347 -1.19307 0
M  V30 25848 H 2383.7 0.0407012 -4.2138 0
M  V30 25849 H 2382.42 0.733945 -3.18246 0
M  V30 25850 H 2381.08 -1.38814 -3.39302 0
M  V30 25851 H 2380.73 0.490443 -5.00603 0
M  V30 25852 H 2380.43 -1.08862 -5.77428 0
M  V30 25853 H 2381.95 -0.215749 -6.10219 0
M  V30 25854 H 2383.37 -2.31852 -5.24326 0
M  V30 25855 H 2381.76 -3.10251 -5.13677 0
M  V30 25856 H 2382.83 -3.1065 -3.72323 0
M  V30 25857 N 2384.18 1.29948 -0.891694 0
M  V30 25858 C 2385.42 1.9617 -0.514296 0
M  V30 25859 C 2385.75 1.70184 0.935476 0
M  V30 25860 O 2385.03 1.01031 1.66202 0
M  V30 25861 C 2385.31 3.51152 -0.79778 0
M  V30 25862 C 2385.17 3.86628 -2.29867 0
M  V30 25863 C 2386.48 4.39216 -0.278826 0
M  V30 25864 H 2383.6 0.712532 -0.188327 0
M  V30 25865 H 2386.25 1.53704 -1.11691 0
M  V30 25866 H 2384.4 3.87454 -0.284894 0
M  V30 25867 H 2386.07 3.60314 -2.88048 0
M  V30 25868 H 2384.31 3.34457 -2.76263 0
M  V30 25869 H 2384.98 4.94769 -2.44761 0
M  V30 25870 H 2387.46 4.0986 -0.717897 0
M  V30 25871 H 2386.33 5.46559 -0.506449 0
M  V30 25872 H 2386.59 4.34425 0.82019 0
M  V30 25873 N 2385.65 0.653339 1.4342 0
M  V30 25874 C 2387.07 0.320914 1.5634 0
M  V30 25875 C 2387.27 -1.17496 1.63698 0
M  V30 25876 O 2386.33 -1.95979 1.59212 0
M  V30 25877 C 2387.64 1.03238 2.82423 0
M  V30 25878 C 2389.19 1.01264 2.96167 0
M  V30 25879 C 2389.66 1.705 4.25081 0
M  V30 25880 N 2391.15 1.67264 4.31945 0
M  V30 25881 C 2391.89 2.1771 5.30462 0
M  V30 25882 N 2391.38 2.76445 6.35256 0
M  V30 25883 N 2393.18 2.08209 5.22116 0
M  V30 25884 H 2385.33 1.62406 1.36887 0
M  V30 25885 H 2387.59 0.682989 0.657442 0
M  V30 25886 H 2387.3 2.08749 2.83049 0
M  V30 25887 H 2387.17 0.584013 3.72651 0
M  V30 25888 H 2389.56 -0.0340717 2.9508 0
M  V30 25889 H 2389.64 1.49969 2.07227 0
M  V30 25890 H 2389.28 2.75128 4.26928 0
M  V30 25891 H 2389.21 1.1926 5.12918 0
M  V30 25892 H 2391.7 1.24404 3.56836 0
M  V30 25893 H 2392.02 3.12613 7.06748 0
M  V30 25894 H 2390.36 2.80506 6.35879 0
M  V30 25895 H 2393.55 1.62028 4.39163 0
M  V30 25896 H 2393.73 2.47832 5.98735 0
M  V30 25897 N 2387.13 -1.52563 0.395266 0
M  V30 25898 C 2388.36 -2.06072 -0.184907 0
M  V30 25899 C 2388.77 -1.2665 -1.40019 0
M  V30 25900 O 2388.13 -0.314704 -1.79766 0
M  V30 25901 C 2388.18 -3.57305 -0.549116 0
M  V30 25902 O 2387.9 -4.33721 0.617889 0
M  V30 25903 C 2389.4 -4.27182 -1.18451 0
M  V30 25904 H 2386.62 -0.670477 -0.0264907 0
M  V30 25905 H 2389.17 -1.9662 0.562219 0
M  V30 25906 H 2387.32 -3.66811 -1.24614 0
M  V30 25907 H 2387.74 -5.2354 0.317183 0
M  V30 25908 H 2389.21 -5.34221 -1.38967 0
M  V30 25909 H 2389.69 -3.82774 -2.15361 0
M  V30 25910 H 2390.29 -4.22009 -0.528088 0
M  V30 25911 N 2388.61 -0.125265 -1.57101 0
M  V30 25912 C 2389.57 0.808342 -2.14473 0
M  V30 25913 C 2390.57 1.19031 -1.08112 0
M  V30 25914 O 2391.76 1.11479 -1.33858 0
M  V30 25915 C 2388.89 2.09397 -2.69008 0
M  V30 25916 H 2390.09 0.309644 -2.98297 0
M  V30 25917 H 2387.64 0.124024 -1.55807 0
M  V30 25918 H 2388.38 2.63684 -1.88789 0
M  V30 25919 H 2388.16 1.82951 -3.46802 0
M  V30 25920 H 2389.65 2.76122 -3.13283 0
M  V30 25921 N 2390.09 1.56899 0.148518 0
M  V30 25922 C 2391.02 2.01184 1.18521 0
M  V30 25923 C 2392 0.891148 1.44888 0
M  V30 25924 O 2393.18 1.15885 1.55834 0
M  V30 25925 C 2390.31 2.39116 2.51874 0
M  V30 25926 C 2389.27 3.54357 2.40031 0
M  V30 25927 C 2388.59 3.78098 3.78082 0
M  V30 25928 C 2389.89 4.87072 1.88568 0
M  V30 25929 H 2391.59 2.88038 0.816979 0
M  V30 25930 H 2389.13 1.38574 0.39155 0
M  V30 25931 H 2391.09 2.68698 3.24622 0
M  V30 25932 H 2389.81 1.49198 2.9053 0
M  V30 25933 H 2388.47 3.24939 1.69736 0
M  V30 25934 H 2388.12 2.85433 4.1417 0
M  V30 25935 H 2387.82 4.55651 3.7102 0
M  V30 25936 H 2389.34 4.10103 4.5238 0
M  V30 25937 H 2390.76 5.15381 2.51108 0
M  V30 25938 H 2389.15 5.68421 1.924 0
M  V30 25939 H 2390.22 4.77546 0.841276 0
M  V30 25940 N 2391.57 -0.417818 1.51961 0
M  V30 25941 C 2392.98 -0.755791 1.4057 0
M  V30 25942 C 2393.18 -1.95112 0.503351 0
M  V30 25943 O 2392.24 -2.52477 -0.0341481 0
M  V30 25944 C 2393.55 -1.01787 2.82949 0
M  V30 25945 C 2395.1 -1.12111 2.92233 0
M  V30 25946 C 2395.57 -1.416 4.35561 0
M  V30 25947 N 2397.06 -1.48483 4.38756 0
M  V30 25948 C 2397.8 -1.7291 5.46708 0
M  V30 25949 N 2397.3 -1.94999 6.64791 0
M  V30 25950 N 2399.09 -1.74854 5.34212 0
M  V30 25951 H 2391.24 0.369135 2.09168 0
M  V30 25952 H 2393.5 0.102825 0.942407 0
M  V30 25953 H 2393.21 -0.212019 3.5106 0
M  V30 25954 H 2393.08 -1.94036 3.23465 0
M  V30 25955 H 2395.47 -1.91756 2.24307 0
M  V30 25956 H 2395.55 -0.17718 2.55186 0
M  V30 25957 H 2395.19 -0.62476 5.04043 0
M  V30 25958 H 2395.12 -2.37231 4.70137 0
M  V30 25959 H 2397.62 -1.33238 3.53633 0
M  V30 25960 H 2397.93 -2.13063 7.42849 0
M  V30 25961 H 2396.27 -1.92281 6.67872 0
M  V30 25962 H 2399.46 -1.57129 4.4094 0
M  V30 25963 H 2399.64 -1.93552 6.18419 0
M  V30 25964 N 2393.04 -1.42436 -0.674508 0
M  V30 25965 C 2394.29 -1.42214 -1.43032 0
M  V30 25966 C 2394.61 -0.0421131 -1.95555 0
M  V30 25967 O 2395.81 0.0827081 -2.71374 0
M  V30 25968 C 2394.27 -2.50159 -2.58744 0
M  V30 25969 C 2393.88 -3.9417 -2.12918 0
M  V30 25970 C 2395.62 -2.59104 -3.36252 0
M  V30 25971 C 2393.53 -4.93623 -3.25714 0
M  V30 25972 H 2392.46 -0.528948 -0.537336 0
M  V30 25973 H 2395.11 -1.68345 -0.73021 0
M  V30 25974 H 2393.49 -2.17194 -3.31124 0
M  V30 25975 H 2394.66 -4.36491 -1.4769 0
M  V30 25976 H 2392.98 -3.89078 -1.48348 0
M  V30 25977 H 2395.58 -3.30586 -4.20258 0
M  V30 25978 H 2395.92 -1.63468 -3.82863 0
M  V30 25979 H 2396.45 -2.91265 -2.70942 0
M  V30 25980 H 2393.19 -5.90737 -2.84095 0
M  V30 25981 H 2392.71 -4.55933 -3.89724 0
M  V30 25982 H 2394.39 -5.15354 -3.91177 0
M  V30 25983 N 2394.52 0.910841 -1.28614 0
M  V30 25984 C 2395.47 2.01363 -1.1279 0
M  V30 25985 C 2396.44 1.66082 -0.0242302 0
M  V30 25986 O 2397.62 1.89855 -0.1897 0
M  V30 25987 C 2394.76 3.35728 -0.798802 0
M  V30 25988 C 2393.88 3.8386 -1.9818 0
M  V30 25989 C 2393.01 5.06749 -1.59307 0
M  V30 25990 C 2392.05 5.47221 -2.74254 0
M  V30 25991 N 2391.19 6.613 -2.35854 0
M  V30 25992 H 2396.03 2.1423 -2.07146 0
M  V30 25993 H 2393.56 1.04928 -1.03095 0
M  V30 25994 H 2395.52 4.13025 -0.588734 0
M  V30 25995 H 2394.15 3.2262 0.107833 0
M  V30 25996 H 2393.2 3.02695 -2.30391 0
M  V30 25997 H 2394.52 4.09813 -2.8435 0
M  V30 25998 H 2393.67 5.91598 -1.34524 0
M  V30 25999 H 2392.41 4.82611 -0.702702 0
M  V30 26000 H 2391.41 4.60912 -2.99733 0
M  V30 26001 H 2392.64 5.73346 -3.63938 0
M  V30 26002 H 2390.59 6.38787 -1.4929 0
M  V30 26003 H 2390.5 6.86993 -3.15558 0
M  V30 26004 H 2391.77 7.49446 -2.14361 0
M  V30 26005 N 2396 1.10909 1.11969 0
M  V30 26006 C 2397.23 0.876857 1.874 0
M  V30 26007 C 2397.64 -0.572993 1.79895 0
M  V30 26008 O 2397 -1.39532 1.17631 0
M  V30 26009 C 2397.05 1.32288 3.36426 0
M  V30 26010 O 2396.77 2.71588 3.43761 0
M  V30 26011 C 2398.27 1.12526 4.28781 0
M  V30 26012 H 2395.49 0.314395 0.592788 0
M  V30 26013 H 2398.04 1.47501 1.41646 0
M  V30 26014 H 2396.19 0.768295 3.79705 0
M  V30 26015 H 2396.61 2.90784 4.36515 0
M  V30 26016 H 2398.08 1.48642 5.3161 0
M  V30 26017 H 2398.56 0.0643166 4.39153 0
M  V30 26018 H 2399.16 1.66655 3.91288 0
M  V30 26019 N 2397.48 -1.29474 0.898573 0
M  V30 26020 C 2398.39 -2.31502 0.380014 0
M  V30 26021 C 2399.4 -1.65901 -0.524666 0
M  V30 26022 O 2400.58 -1.97088 -0.414517 0
M  V30 26023 C 2397.65 -3.44555 -0.385078 0
M  V30 26024 C 2396.71 -4.25749 0.550989 0
M  V30 26025 C 2395.94 -5.33404 -0.177685 0
M  V30 26026 O 2396.16 -5.52907 -1.40179 0
M  V30 26027 O 2395.1 -5.99989 0.479212 0
M  V30 26028 H 2398.92 -2.77835 1.22644 0
M  V30 26029 H 2396.51 -1.3389 0.662858 0
M  V30 26030 H 2398.39 -4.13389 -0.817769 0
M  V30 26031 H 2397.06 -3.00332 -1.20758 0
M  V30 26032 H 2395.97 -3.59562 1.03277 0
M  V30 26033 H 2397.3 -4.73612 1.33987 0
M  V30 26034 N 2398.96 -0.660936 -1.43071 0
M  V30 26035 C 2400.2 -0.17713 -2.01322 0
M  V30 26036 C 2400.53 1.21587 -1.52452 0
M  V30 26037 O 2399.8 1.81371 -0.740354 0
M  V30 26038 H 2398.38 -0.0624935 -0.744381 0
M  V30 26039 H 2401.04 -0.854336 -1.75177 0
M  V30 26040 H 2400.13 -0.167695 -3.11649 0
M  V30 26041 N 2400.43 1.52351 -0.403352 0
M  V30 26042 C 2401.38 2.28406 0.439712 0
M  V30 26043 C 2402.38 1.32865 1.05087 0
M  V30 26044 O 2403.58 1.50347 0.989733 0
M  V30 26045 H 2399.96 0.734656 0.160574 0
M  V30 26046 H 2401.93 2.97565 -0.223035 0
M  V30 26047 C 2400.68 3.11374 1.5473 0
M  V30 26048 H 2400 3.84757 1.08636 0
M  V30 26049 H 2401.44 3.67705 2.11114 0
M  V30 26050 C 2399.9 2.2457 2.51137 0
M  V30 26051 O 2400.43 1.88203 3.54884 0
M  V30 26052 N 2398.64 1.88454 2.21209 0
M  V30 26053 H 2398.18 2.18227 1.36874 0
M  V30 26054 H 2398.14 1.30667 2.85961 0
M  V30 26055 N 2401.91 0.133594 1.57033 0
M  V30 26056 C 2402.84 -0.807528 2.19092 0
M  V30 26057 C 2403.82 -1.26679 1.13519 0
M  V30 26058 O 2405.01 -1.32677 1.41812 0
M  V30 26059 C 2402.14 -2.05207 2.80191 0
M  V30 26060 C 2401.09 -1.73008 3.91475 0
M  V30 26061 C 2400.42 -3.04614 4.39448 0
M  V30 26062 C 2401.72 -0.987077 5.12888 0
M  V30 26063 H 2403.41 -0.290351 2.97989 0
M  V30 26064 H 2400.96 -0.138214 1.43335 0
M  V30 26065 H 2402.91 -2.71515 3.22269 0
M  V30 26066 H 2401.64 -2.59275 1.98606 0
M  V30 26067 H 2400.29 -1.09083 3.49995 0
M  V30 26068 H 2399.94 -3.56645 3.54702 0
M  V30 26069 H 2399.64 -2.83838 5.145 0
M  V30 26070 H 2401.17 -3.72016 4.84187 0
M  V30 26071 H 2402.58 -1.55198 5.51894 0
M  V30 26072 H 2400.98 -0.879746 5.93616 0
M  V30 26073 H 2402.05 0.0236139 4.84894 0
M  V30 26074 N 2403.39 -1.56975 -0.140195 0
M  V30 26075 C 2404.3 -2.02049 -1.1922 0
M  V30 26076 C 2405.32 -0.937088 -1.46611 0
M  V30 26077 O 2406.49 -1.24707 -1.58146 0
M  V30 26078 C 2403.56 -2.39783 -2.5041 0
M  V30 26079 C 2402.62 -3.62104 -2.30605 0
M  V30 26080 C 2401.85 -3.98029 -3.5554 0
M  V30 26081 O 2402.07 -3.34536 -4.61998 0
M  V30 26082 O 2401.01 -4.91243 -3.47799 0
M  V30 26083 H 2404.83 -2.91866 -0.839508 0
M  V30 26084 H 2402.42 -1.45256 -0.349427 0
M  V30 26085 H 2404.3 -2.64882 -3.27743 0
M  V30 26086 H 2402.98 -1.53119 -2.85195 0
M  V30 26087 H 2401.88 -3.42183 -1.51201 0
M  V30 26088 H 2403.22 -4.49408 -2.00733 0
M  V30 26089 N 2404.87 0.409753 -1.5218 0
M  V30 26090 C 2405.8 1.51822 -1.71705 0
M  V30 26091 C 2406.81 1.5144 -0.597471 0
M  V30 26092 O 2408 1.55717 -0.872609 0
M  V30 26093 C 2405.1 2.90716 -1.74176 0
M  V30 26094 C 2404.28 3.15297 -3.03161 0
M  V30 26095 C 2403.33 4.3406 -2.97453 0
M  V30 26096 O 2402.36 4.3137 -3.7136 0
M  V30 26097 N 2403.56 5.39137 -2.152 0
M  V30 26098 H 2406.33 1.35467 -2.67336 0
M  V30 26099 H 2403.89 0.599043 -1.5041 0
M  V30 26100 H 2405.88 3.68232 -1.6789 0
M  V30 26101 H 2404.45 3.00531 -0.860218 0
M  V30 26102 H 2403.67 2.2583 -3.23101 0
M  V30 26103 H 2404.96 3.28562 -3.8849 0
M  V30 26104 H 2404.36 5.4417 -1.54582 0
M  V30 26105 H 2402.91 6.154 -2.14771 0
M  V30 26106 N 2406.35 1.42792 0.666944 0
M  V30 26107 C 2407.31 1.46571 1.76209 0
M  V30 26108 C 2408.31 0.352224 1.56895 0
M  V30 26109 O 2409.5 0.613393 1.63043 0
M  V30 26110 C 2406.63 1.305 3.14933 0
M  V30 26111 H 2407.82 2.44089 1.74243 0
M  V30 26112 H 2405.38 1.29355 0.877319 0
M  V30 26113 H 2406.11 0.339358 3.2252 0
M  V30 26114 H 2405.9 2.11205 3.30356 0
M  V30 26115 H 2407.39 1.36045 3.94818 0
M  V30 26116 N 2407.82 -0.904008 1.29095 0
M  V30 26117 C 2408.77 -2.02899 1.13731 0
M  V30 26118 C 2409.77 -1.69314 0.054015 0
M  V30 26119 O 2410.97 -1.78729 0.213501 0
M  V30 26120 H 2407.35 -0.664963 0.351182 0
M  V30 26121 H 2409.32 -2.12997 2.08985 0
M  V30 26122 C 2408.07 -3.37743 0.826126 0
M  V30 26123 H 2407.39 -3.64086 1.6517 0
M  V30 26124 H 2408.83 -4.17158 0.758633 0
M  V30 26125 C 2407.29 -3.33599 -0.470483 0
M  V30 26126 O 2407.82 -3.7273 -1.49785 0
M  V30 26127 N 2406.03 -2.86696 -0.474762 0
M  V30 26128 H 2405.57 -2.55047 0.361737 0
M  V30 26129 H 2405.53 -2.84305 -1.34231 0
M  V30 26130 N 2409.3 -1.11501 -1.11379 0
M  V30 26131 C 2410.21 -0.786667 -2.21017 0
M  V30 26132 C 2411.23 0.220477 -1.72598 0
M  V30 26133 O 2412.4 0.0564897 -2.01321 0
M  V30 26134 C 2409.47 -0.235394 -3.459 0
M  V30 26135 C 2408.53 -1.30122 -4.09105 0
M  V30 26136 C 2407.76 -0.776161 -5.28026 0
M  V30 26137 O 2407.99 0.393561 -5.69041 0
M  V30 26138 O 2406.92 -1.54125 -5.81833 0
M  V30 26139 H 2410.75 -1.70213 -2.51518 0
M  V30 26140 H 2408.33 -0.890949 -1.19927 0
M  V30 26141 H 2410.21 0.067641 -4.21346 0
M  V30 26142 H 2408.89 0.652773 -3.1705 0
M  V30 26143 H 2407.8 -1.65728 -3.35388 0
M  V30 26144 H 2409.13 -2.1628 -4.42135 0
M  V30 26145 N 2410.78 1.28995 -0.905426 0
M  V30 26146 C 2411.69 2.31297 -0.392286 0
M  V30 26147 C 2412.71 1.66177 0.51586 0
M  V30 26148 O 2413.88 1.97305 0.404059 0
M  V30 26149 C 2410.95 3.44754 0.3668 0
M  V30 26150 C 2410.01 4.25451 -0.57356 0
M  V30 26151 C 2409.24 5.33491 0.149394 0
M  V30 26152 O 2409.47 5.53643 1.37245 0
M  V30 26153 O 2408.4 5.99727 -0.511024 0
M  V30 26154 H 2412.23 2.77181 -1.24115 0
M  V30 26155 H 2409.81 1.33537 -0.669949 0
M  V30 26156 H 2411.69 4.13817 0.795834 0
M  V30 26157 H 2410.37 3.00968 1.19163 0
M  V30 26158 H 2409.27 3.59009 -1.05182 0
M  V30 26159 H 2410.61 4.72895 -1.36497 0
M  V30 26160 N 2412.26 0.668514 1.42719 0
M  V30 26161 C 2413.19 0.000141219 2.335 0
M  V30 26162 C 2414.17 -0.795938 1.50329 0
M  V30 26163 O 2415.36 -0.754353 1.7895 0
M  V30 26164 C 2412.49 -0.956243 3.33876 0
M  V30 26165 C 2411.44 -0.269203 4.27153 0
M  V30 26166 C 2410.77 -1.33809 5.17686 0
M  V30 26167 C 2412.07 0.847896 5.15372 0
M  V30 26168 H 2413.76 0.758295 2.89638 0
M  V30 26169 H 2411.31 0.366104 1.39268 0
M  V30 26170 H 2413.26 -1.43285 3.96292 0
M  V30 26171 H 2411.98 -1.74574 2.76028 0
M  V30 26172 H 2410.64 0.187106 3.66122 0
M  V30 26173 H 2410.29 -2.11942 4.56168 0
M  V30 26174 H 2409.99 -0.883557 5.80919 0
M  V30 26175 H 2411.51 -1.81576 5.82977 0
M  V30 26176 H 2412.93 0.452782 5.71509 0
M  V30 26177 H 2411.32 1.22784 5.87405 0
M  V30 26178 H 2412.39 1.69937 4.54147 0
M  V30 26179 N 2413.74 -1.52135 0.411426 0
M  V30 26180 C 2415.15 -1.59478 0.0624145 0
M  V30 26181 C 2415.35 -1.42413 -1.42551 0
M  V30 26182 O 2414.41 -1.25224 -2.19261 0
M  V30 26183 C 2415.72 -2.95451 0.559383 0
M  V30 26184 C 2417.27 -3.08691 0.517558 0
M  V30 26185 C 2417.75 -4.47148 0.991073 0
M  V30 26186 N 2419.24 -4.53395 0.947987 0
M  V30 26187 C 2419.97 -5.58804 1.28553 0
M  V30 26188 N 2419.47 -6.71754 1.69465 0
M  V30 26189 N 2421.26 -5.49024 1.20536 0
M  V30 26190 H 2413.41 -1.61475 1.37985 0
M  V30 26191 H 2415.67 -0.759754 0.56699 0
M  V30 26192 H 2415.38 -3.13227 1.59944 0
M  V30 26193 H 2415.25 -3.77188 -0.0297351 0
M  V30 26194 H 2417.64 -2.90599 -0.513454 0
M  V30 26195 H 2417.72 -2.28855 1.14276 0
M  V30 26196 H 2417.37 -4.65984 2.02042 0
M  V30 26197 H 2417.3 -5.25484 0.342663 0
M  V30 26198 H 2419.79 -3.72316 0.647223 0
M  V30 26199 H 2420.1 -7.48176 1.93527 0
M  V30 26200 H 2418.45 -6.73029 1.73371 0
M  V30 26201 H 2421.64 -4.59666 0.884585 0
M  V30 26202 H 2421.81 -6.31066 1.47172 0
M  V30 26203 N 2415.22 -0.14192 -1.5696 0
M  V30 26204 C 2416.18 0.785549 -2.15318 0
M  V30 26205 C 2417.18 1.17878 -1.09368 0
M  V30 26206 O 2418.37 1.10053 -1.35033 0
M  V30 26207 C 2415.5 2.06532 -2.71214 0
M  V30 26208 H 2416.69 0.277988 -2.98609 0
M  V30 26209 H 2414.25 0.107491 -1.5593 0
M  V30 26210 H 2414.98 2.61667 -1.91575 0
M  V30 26211 H 2414.77 1.79262 -3.48723 0
M  V30 26212 H 2416.26 2.72784 -3.16194 0
M  V30 26213 N 2416.69 1.57047 0.131868 0
M  V30 26214 C 2417.94 1.83358 0.840408 0
M  V30 26215 C 2418.26 0.725567 1.81645 0
M  V30 26216 O 2419.46 0.874704 2.57024 0
M  V30 26217 C 2417.92 3.2504 1.54522 0
M  V30 26218 C 2417.53 4.43816 0.610823 0
M  V30 26219 C 2419.27 3.6061 2.23965 0
M  V30 26220 C 2417.18 5.76523 1.31813 0
M  V30 26221 H 2416.11 0.683853 0.317587 0
M  V30 26222 H 2418.76 1.83264 0.0931239 0
M  V30 26223 H 2417.14 3.19565 2.33867 0
M  V30 26224 H 2418.31 4.60561 -0.148488 0
M  V30 26225 H 2416.63 4.16393 0.0240284 0
M  V30 26226 H 2419.23 4.57023 2.7755 0
M  V30 26227 H 2419.57 2.87409 3.01168 0
M  V30 26228 H 2420.1 3.67812 1.51522 0
M  V30 26229 H 2416.84 6.52861 0.587656 0
M  V30 26230 H 2416.36 5.63688 2.04977 0
M  V30 26231 H 2418.04 6.19841 1.85489 0
M  V30 26232 N 2418.17 -0.401677 1.52395 0
M  V30 26233 C 2419.42 -1.14506 1.66046 0
M  V30 26234 C 2419.73 -1.91461 0.400249 0
M  V30 26235 O 2420.94 -2.68283 0.41668 0
M  V30 26236 C 2419.4 -2.08444 2.93392 0
M  V30 26237 C 2419 -1.36971 4.26548 0
M  V30 26238 C 2420.75 -2.82996 3.16407 0
M  V30 26239 C 2418.65 -2.29601 5.45011 0
M  V30 26240 H 2417.58 -0.431147 0.618569 0
M  V30 26241 H 2420.24 -0.408889 1.78886 0
M  V30 26242 H 2418.62 -2.85645 2.74268 0
M  V30 26243 H 2419.79 -0.650836 4.56181 0
M  V30 26244 H 2418.11 -0.744308 4.09694 0
M  V30 26245 H 2420.7 -3.52458 4.02091 0
M  V30 26246 H 2421.05 -3.46364 2.30949 0
M  V30 26247 H 2421.58 -2.12892 3.36038 0
M  V30 26248 H 2418.32 -1.70868 6.32838 0
M  V30 26249 H 2417.84 -2.9944 5.19707 0
M  V30 26250 H 2419.52 -2.89964 5.78385 0
M  V30 26251 N 2419.65 -1.43144 -0.659362 0
M  V30 26252 C 2420.6 -1.47825 -1.77246 0
M  V30 26253 C 2421.57 -0.328587 -1.62817 0
M  V30 26254 O 2422.75 -0.534871 -1.8315 0
M  V30 26255 C 2419.89 -1.40131 -3.15368 0
M  V30 26256 C 2419 -2.65255 -3.40975 0
M  V30 26257 C 2418.14 -2.49593 -4.6891 0
M  V30 26258 C 2417.18 -3.70015 -4.87602 0
M  V30 26259 N 2416.32 -3.532 -6.0679 0
M  V30 26260 H 2421.16 -2.42941 -1.7258 0
M  V30 26261 H 2418.69 -1.20599 -0.842275 0
M  V30 26262 H 2420.65 -1.33666 -3.95208 0
M  V30 26263 H 2419.28 -0.48602 -3.1912 0
M  V30 26264 H 2418.33 -2.82025 -2.55277 0
M  V30 26265 H 2419.64 -3.54724 -3.50674 0
M  V30 26266 H 2418.8 -2.408 -5.56866 0
M  V30 26267 H 2417.54 -1.57638 -4.61521 0
M  V30 26268 H 2416.54 -3.79222 -3.98083 0
M  V30 26269 H 2417.77 -4.6297 -4.96826 0
M  V30 26270 H 2415.71 -2.63975 -6.00544 0
M  V30 26271 H 2415.63 -4.36266 -6.1742 0
M  V30 26272 H 2416.9 -3.48248 -6.97383 0
M  V30 26273 N 2421.13 0.897149 -1.29572 0
M  V30 26274 C 2422.07 2.00156 -1.14919 0
M  V30 26275 C 2423.04 1.66047 -0.0418441 0
M  V30 26276 O 2424.23 1.89643 -0.209826 0
M  V30 26277 C 2421.37 3.34862 -0.834366 0
M  V30 26278 C 2420.48 3.81737 -2.0224 0
M  V30 26279 C 2419.62 5.05031 -1.64673 0
M  V30 26280 C 2418.66 5.44282 -2.80043 0
M  V30 26281 N 2417.79 6.58761 -2.42854 0
M  V30 26282 H 2422.63 2.12021 -2.09407 0
M  V30 26283 H 2420.17 1.03828 -1.04202 0
M  V30 26284 H 2422.13 4.12377 -0.632508 0
M  V30 26285 H 2420.76 3.22716 0.0736089 0
M  V30 26286 H 2419.81 3.00234 -2.33589 0
M  V30 26287 H 2421.12 4.06774 -2.8868 0
M  V30 26288 H 2420.28 5.90138 -1.40791 0
M  V30 26289 H 2419.02 4.81839 -0.75385 0
M  V30 26290 H 2418.02 4.57707 -3.04605 0
M  V30 26291 H 2419.25 5.69454 -3.69999 0
M  V30 26292 H 2417.19 6.37167 -1.56057 0
M  V30 26293 H 2417.11 6.83607 -3.22827 0
M  V30 26294 H 2418.38 7.4713 -2.22298 0
M  V30 26295 N 2422.61 1.1209 1.10786 0
M  V30 26296 C 2423.85 0.868691 1.82035 0
M  V30 26297 C 2424.17 -0.607394 1.8593 0
M  V30 26298 O 2425.37 -0.976085 2.53347 0
M  V30 26299 C 2423.83 1.50441 3.26949 0
M  V30 26300 C 2423.44 3.01502 3.31362 0
M  V30 26301 C 2425.18 1.33232 4.0305 0
M  V30 26302 C 2423.09 3.58025 4.70714 0
M  V30 26303 H 2422.02 0.32133 0.682102 0
M  V30 26304 H 2424.67 1.34696 1.24616 0
M  V30 26305 H 2423.05 0.953803 3.84342 0
M  V30 26306 H 2424.23 3.63025 2.83813 0
M  V30 26307 H 2422.54 3.18065 2.68744 0
M  V30 26308 H 2425.14 1.72887 5.05978 0
M  V30 26309 H 2425.48 0.275602 4.15387 0
M  V30 26310 H 2426.01 1.85194 3.52062 0
M  V30 26311 H 2422.75 4.6344 4.63577 0
M  V30 26312 H 2422.27 3.01277 5.18645 0
M  V30 26313 H 2423.95 3.56869 5.39679 0
M  V30 26314 N 2424.08 -1.28513 0.912254 0
M  V30 26315 C 2425.33 -1.95685 0.554885 0
M  V30 26316 C 2425.68 -1.70507 -0.89135 0
M  V30 26317 O 2424.98 -1.01467 -1.62527 0
M  V30 26318 C 2425.17 -3.48367 0.798453 0
M  V30 26319 C 2425 -3.88389 2.26681 0
M  V30 26320 C 2423.77 -4.12626 2.91664 0
M  V30 26321 C 2425.97 -3.99158 3.2431 0
M  V30 26322 N 2423.95 -4.3931 4.28813 0
M  V30 26323 C 2425.32 -4.30038 4.46617 0
M  V30 26324 C 2427.38 -3.81677 3.19729 0
M  V30 26325 C 2426.08 -4.45258 5.64923 0
M  V30 26326 C 2428.11 -3.98113 4.37332 0
M  V30 26327 C 2427.47 -4.29365 5.58413 0
M  V30 26328 H 2423.57 -0.73998 0.252889 0
M  V30 26329 H 2426.15 -1.55197 1.17567 0
M  V30 26330 H 2424.32 -3.87848 0.206948 0
M  V30 26331 H 2426.05 -4.02666 0.405264 0
M  V30 26332 H 2422.81 -4.06865 2.424 0
M  V30 26333 H 2423.23 -4.56737 4.9972 0
M  V30 26334 H 2427.87 -3.56569 2.27197 0
M  V30 26335 H 2425.59 -4.69198 6.57935 0
M  V30 26336 H 2429.18 -3.86025 4.35288 0
M  V30 26337 H 2428.06 -4.41814 6.47897 0
M  V30 26338 N 2425.56 -0.676073 -1.42362 0
M  V30 26339 C 2426.51 0.00146847 -2.308 0
M  V30 26340 C 2427.48 0.791418 -1.46034 0
M  V30 26341 O 2428.66 0.763409 -1.74862 0
M  V30 26342 C 2425.8 0.945861 -3.31885 0
M  V30 26343 C 2424.92 0.149599 -4.31741 0
M  V30 26344 C 2424.05 1.08986 -5.199 0
M  V30 26345 C 2423.09 0.285357 -6.11434 0
M  V30 26346 N 2422.23 1.17839 -6.9214 0
M  V30 26347 H 2427.07 -0.758505 -2.88185 0
M  V30 26348 H 2424.61 -0.385785 -1.41951 0
M  V30 26349 H 2426.56 1.50724 -3.89022 0
M  V30 26350 H 2425.19 1.67245 -2.76096 0
M  V30 26351 H 2424.25 -0.528425 -3.76712 0
M  V30 26352 H 2425.56 -0.474954 -4.96534 0
M  V30 26353 H 2424.71 1.72113 -5.81775 0
M  V30 26354 H 2423.45 1.74829 -4.55287 0
M  V30 26355 H 2422.46 -0.359114 -5.48626 0
M  V30 26356 H 2423.68 -0.369002 -6.78097 0
M  V30 26357 H 2421.63 1.82321 -6.30155 0
M  V30 26358 H 2421.54 0.60895 -7.53543 0
M  V30 26359 H 2422.81 1.79709 -7.58502 0
M  V30 26360 N 2427.04 1.51915 -0.419488 0
M  V30 26361 C 2428.46 1.59443 -0.0708711 0
M  V30 26362 C 2428.66 1.43167 1.41794 0
M  V30 26363 O 2427.71 1.26385 2.18593 0
M  V30 26364 C 2429.03 2.9515 -0.575043 0
M  V30 26365 C 2430.57 3.08413 -0.533921 0
M  V30 26366 C 2431.05 4.46617 -1.01477 0
M  V30 26367 N 2432.54 4.52886 -0.972019 0
M  V30 26368 C 2433.27 5.58114 -1.31515 0
M  V30 26369 N 2432.77 6.70846 -1.73025 0
M  V30 26370 N 2434.56 5.48377 -1.23446 0
M  V30 26371 H 2426.71 1.60741 -1.38839 0
M  V30 26372 H 2428.98 0.756736 -0.571011 0
M  V30 26373 H 2428.68 3.12374 -1.61602 0
M  V30 26374 H 2428.56 3.77199 0.00973147 0
M  V30 26375 H 2430.94 2.90867 0.498035 0
M  V30 26376 H 2431.03 2.28246 -1.15488 0
M  V30 26377 H 2430.67 4.64906 -2.04511 0
M  V30 26378 H 2430.6 5.25295 -0.370526 0
M  V30 26379 H 2433.09 3.71968 -0.666958 0
M  V30 26380 H 2433.4 7.47139 -1.97492 0
M  V30 26381 H 2431.75 6.721 -1.76938 0
M  V30 26382 H 2434.94 4.5919 -0.90895 0
M  V30 26383 H 2435.11 6.30277 -1.50517 0
M  V30 26384 N 2428.52 0.150242 1.56882 0
M  V30 26385 C 2429.75 -0.506913 2.00594 0
M  V30 26386 C 2430.16 -1.58206 1.03036 0
M  V30 26387 O 2429.52 -1.82479 0.0278716 0
M  V30 26388 C 2429.57 -1.10459 3.44211 0
M  V30 26389 O 2429.29 -0.0723866 4.3804 0
M  V30 26390 C 2430.79 -1.84204 4.03217 0
M  V30 26391 H 2428.01 -0.131678 0.657953 0
M  V30 26392 H 2430.56 0.245779 2.03018 0
M  V30 26393 H 2428.71 -1.80789 3.42628 0
M  V30 26394 H 2429.12 -0.510701 5.22008 0
M  V30 26395 H 2430.6 -2.21309 5.05694 0
M  V30 26396 H 2431.08 -2.72917 3.44112 0
M  V30 26397 H 2431.68 -1.18565 4.08439 0
M  V30 26398 N 2430 -1.57115 -0.123538 0
M  V30 26399 C 2431.22 -1.89165 -0.850365 0
M  V30 26400 C 2431.65 -0.741718 -1.72859 0
M  V30 26401 O 2431 0.307926 -1.78666 0
M  V30 26402 C 2431.05 -3.19939 -1.66347 0
M  V30 26403 O 2430.16 -3.05525 -2.76999 0
M  V30 26404 H 2429.5 -0.620856 -0.235443 0
M  V30 26405 H 2432.03 -2.04318 -0.107299 0
M  V30 26406 H 2432.04 -3.52547 -2.05365 0
M  V30 26407 H 2430.71 -4.0323 -1.01874 0
M  V30 26408 H 2429.29 -2.84375 -2.41216 0
M  V30 26409 N 2431.47 0.393589 -1.52606 0
M  V30 26410 C 2432.41 1.50199 -1.71801 0
M  V30 26411 C 2433.39 1.5244 -0.565769 0
M  V30 26412 O 2434.57 1.70914 -0.795017 0
M  V30 26413 C 2431.7 2.88682 -1.77145 0
M  V30 26414 C 2430.74 3.04287 -2.98851 0
M  V30 26415 S 2431.58 2.75968 -4.58914 0
M  V30 26416 C 2432.73 4.16652 -4.67067 0
M  V30 26417 H 2432.96 1.33691 -2.65545 0
M  V30 26418 H 2430.5 0.58617 -1.42841 0
M  V30 26419 H 2432.46 3.68486 -1.8091 0
M  V30 26420 H 2431.12 3.0252 -0.845022 0
M  V30 26421 H 2430.31 4.05641 -2.99118 0
M  V30 26422 H 2429.91 2.32369 -2.93054 0
M  V30 26423 H 2432.2 5.10515 -4.454 0
M  V30 26424 H 2433.15 4.21402 -5.69057 0
M  V30 26425 H 2433.55 4.02347 -3.95951 0
M  V30 26426 N 2432.95 1.43492 0.651762 0
M  V30 26427 C 2433.9 1.48763 1.7646 0
M  V30 26428 C 2434.87 0.337217 1.62641 0
M  V30 26429 O 2436.05 0.544576 1.82863 0
M  V30 26430 C 2433.19 1.41802 3.14621 0
M  V30 26431 C 2432.31 2.67059 3.39563 0
M  V30 26432 C 2431.44 2.52076 4.6758 0
M  V30 26433 C 2430.48 3.72595 4.85633 0
M  V30 26434 N 2429.62 3.56413 6.04908 0
M  V30 26435 H 2434.46 2.43852 1.71289 0
M  V30 26436 H 2432 1.21044 0.835868 0
M  V30 26437 H 2433.95 1.3576 3.94494 0
M  V30 26438 H 2432.58 0.502936 3.18858 0
M  V30 26439 H 2431.64 2.83374 2.53778 0
M  V30 26440 H 2432.95 3.56578 3.48788 0
M  V30 26441 H 2432.1 2.4375 5.55582 0
M  V30 26442 H 2430.84 1.60084 4.60678 0
M  V30 26443 H 2429.85 3.81328 3.96067 0
M  V30 26444 H 2431.07 4.65598 4.94364 0
M  V30 26445 H 2429.02 2.67156 5.99136 0
M  V30 26446 H 2428.93 4.39534 6.15098 0
M  V30 26447 H 2430.2 3.51941 6.95527 0
M  V30 26448 N 2434.43 -0.890264 1.30046 0
M  V30 26449 C 2435.36 -2.0117 1.18545 0
M  V30 26450 C 2436.34 -1.69924 0.0773655 0
M  V30 26451 O 2437.53 -1.92472 0.258484 0
M  V30 26452 C 2434.66 -3.36201 0.871 0
M  V30 26453 C 2433.61 -3.81688 1.93644 0
M  V30 26454 C 2432.94 -5.1395 1.47509 0
M  V30 26455 C 2434.24 -4.00988 3.34673 0
M  V30 26456 H 2435.93 -2.1105 2.12363 0
M  V30 26457 H 2433.48 -1.01405 1.0224 0
M  V30 26458 H 2435.43 -4.14171 0.777214 0
M  V30 26459 H 2434.15 -3.26438 -0.102868 0
M  V30 26460 H 2432.81 -3.05943 2.01977 0
M  V30 26461 H 2432.46 -5.00611 0.489639 0
M  V30 26462 H 2432.16 -5.45356 2.1877 0
M  V30 26463 H 2433.68 -5.94451 1.39499 0
M  V30 26464 H 2435.1 -4.69412 3.29128 0
M  V30 26465 H 2433.5 -4.43762 4.03974 0
M  V30 26466 H 2434.57 -3.05014 3.76954 0
M  V30 26467 N 2435.91 -1.12676 -1.1019 0
M  V30 26468 C 2436.84 -0.8194 -2.18651 0
M  V30 26469 C 2437.82 0.217886 -1.68699 0
M  V30 26470 O 2439 0.078524 -1.94041 0
M  V30 26471 C 2436.13 -0.276001 -3.46202 0
M  V30 26472 C 2435.09 -1.24664 -4.09442 0
M  V30 26473 C 2434.41 -0.563352 -5.31724 0
M  V30 26474 C 2435.71 -2.60225 -4.52858 0
M  V30 26475 H 2437.41 -1.72632 -2.44619 0
M  V30 26476 H 2434.95 -0.831472 -1.17569 0
M  V30 26477 H 2436.91 -0.048689 -4.21372 0
M  V30 26478 H 2435.63 0.666275 -3.19732 0
M  V30 26479 H 2434.29 -1.4598 -3.36282 0
M  V30 26480 H 2433.94 0.384147 -5.01531 0
M  V30 26481 H 2433.64 -1.21085 -5.74989 0
M  V30 26482 H 2435.16 -0.345137 -6.09624 0
M  V30 26483 H 2436.58 -2.42922 -5.1929 0
M  V30 26484 H 2434.97 -3.21077 -5.06981 0
M  V30 26485 H 2436.04 -3.18478 -3.6565 0
M  V30 26486 N 2437.39 1.28028 -0.919057 0
M  V30 26487 C 2438.66 1.89777 -0.473701 0
M  V30 26488 C 2439.04 1.83261 1.0478 0
M  V30 26489 O 2438.39 1.27206 1.89818 0
M  V30 26490 C 2438.6 3.34065 -1.01004 0
M  V30 26491 C 2439.95 4.11018 -1.06532 0
M  V30 26492 O 2440.97 3.43046 -0.959056 0
M  V30 26493 O 2439.83 5.32528 -1.22786 0
M  V30 26494 H 2436.93 0.813099 -0.150994 0
M  V30 26495 H 2439.47 1.36357 -1.01019 0
M  V30 26496 H 2438.24 3.33058 -2.05398 0
M  V30 26497 H 2437.87 3.94991 -0.454695 0
M  V30 26498 N 2438.86 0.683613 1.42002 0
M  V30 26499 C 2439.8 -0.0282665 2.29183 0
M  V30 26500 C 2440.81 -0.756585 1.44151 0
M  V30 26501 O 2442 -0.609277 1.6778 0
M  V30 26502 C 2439.1 -1.06392 3.21767 0
M  V30 26503 C 2438.27 -0.407646 4.35496 0
M  V30 26504 C 2437.33 -1.34428 5.08739 0
M  V30 26505 O 2436.36 -0.841219 5.6295 0
M  V30 26506 N 2437.56 -2.67719 5.15079 0
M  V30 26507 H 2440.32 0.720156 2.90919 0
M  V30 26508 H 2437.88 0.528709 1.53024 0
M  V30 26509 H 2439.88 -1.69198 3.67633 0
M  V30 26510 H 2438.45 -1.71399 2.61421 0
M  V30 26511 H 2437.67 0.400081 3.92164 0
M  V30 26512 H 2438.95 0.049185 5.08776 0
M  V30 26513 H 2438.35 -3.1112 4.72462 0
M  V30 26514 H 2436.91 -3.2575 5.64562 0
M  V30 26515 N 2440.34 -1.5169 0.427538 0
M  V30 26516 C 2441.59 -2.02299 -0.142404 0
M  V30 26517 C 2441.92 -1.31164 -1.43211 0
M  V30 26518 O 2441.2 -0.423545 -1.89832 0
M  V30 26519 C 2441.48 -3.58181 -0.371238 0
M  V30 26520 C 2441.33 -4.39944 0.936436 0
M  V30 26521 C 2442.65 -4.24935 -1.14534 0
M  V30 26522 H 2439.77 -0.735283 -0.0502808 0
M  V30 26523 H 2442.41 -1.81417 0.564616 0
M  V30 26524 H 2440.56 -3.76106 -0.973493 0
M  V30 26525 H 2442.24 -4.33692 1.57192 0
M  V30 26526 H 2440.48 -4.0542 1.54327 0
M  V30 26527 H 2441.15 -5.47145 0.730484 0
M  V30 26528 H 2443.63 -4.11222 -0.63529 0
M  V30 26529 H 2442.5 -5.33905 -1.27421 0
M  V30 26530 H 2442.76 -3.85131 -2.17086 0
M  V30 26531 N 2441.82 -0.15856 -1.568 0
M  V30 26532 C 2443.07 0.49037 -1.96782 0
M  V30 26533 C 2443.4 1.63751 -1.044 0
M  V30 26534 O 2442.68 1.94298 -0.0886146 0
M  V30 26535 C 2442.96 0.985533 -3.46351 0
M  V30 26536 C 2442.81 -0.160903 -4.49512 0
M  V30 26537 C 2444.13 1.86348 -3.98701 0
M  V30 26538 H 2441.25 0.176776 -0.715485 0
M  V30 26539 H 2443.89 -0.242121 -1.88451 0
M  V30 26540 H 2442.04 1.60972 -3.53582 0
M  V30 26541 H 2443.71 -0.797617 -4.54352 0
M  V30 26542 H 2441.96 -0.818331 -4.26011 0
M  V30 26543 H 2442.63 0.227472 -5.51531 0
M  V30 26544 H 2445.1 1.3374 -3.94021 0
M  V30 26545 H 2443.98 2.179 -5.03796 0
M  V30 26546 H 2444.24 2.80464 -3.41749 0
M  V30 26547 N 2443.3 1.57178 0.115204 0
M  V30 26548 C 2444.71 1.74189 0.671939 0
M  V30 26549 C 2445.06 0.777809 1.80124 0
M  V30 26550 O 2444.19 -0.0483996 2.16346 0
M  V30 26551 C 2444.78 3.15852 1.22567 0
M  V30 26552 C 2443.34 3.34356 1.72866 0
M  V30 26553 C 2442.49 2.7005 0.629924 0
M  V30 26554 H 2445.44 1.58313 -0.11074 0
M  V30 26555 H 2445.46 3.17613 2.09529 0
M  V30 26556 H 2444.97 3.85996 0.40353 0
M  V30 26557 H 2443.07 2.6926 2.57545 0
M  V30 26558 H 2443.19 4.42545 1.83549 0
M  V30 26559 H 2441.55 2.3139 1.06446 0
M  V30 26560 H 2442.33 3.42821 -0.181302 0
M  V30 26561 N 2444.78 -0.38549 1.52813 0
M  V30 26562 C 2446.19 -0.963265 1.59932 0
M  V30 26563 C 2446.54 -1.90867 0.454335 0
M  V30 26564 O 2445.66 -2.12244 -0.422094 0
M  V30 26565 C 2446.26 -1.75381 2.89874 0
M  V30 26566 C 2444.82 -2.28124 2.99393 0
M  V30 26567 C 2443.97 -1.08779 2.55073 0
M  V30 26568 H 2446.92 -0.164921 1.57841 0
M  V30 26569 H 2446.94 -2.61336 2.76557 0
M  V30 26570 H 2446.45 -1.06548 3.73188 0
M  V30 26571 H 2444.55 -3.00259 2.20624 0
M  V30 26572 H 2444.66 -2.5737 4.04101 0
M  V30 26573 H 2443.03 -1.44886 2.09476 0
M  V30 26574 H 2443.81 -0.414747 3.40785 0
M  V30 26575 N 2446.26 -1.43835 -0.644143 0
M  V30 26576 C 2447.22 -1.49356 -1.73855 0
M  V30 26577 C 2448.22 -0.37714 -1.56315 0
M  V30 26578 O 2449.41 -0.639254 -1.62047 0
M  V30 26579 C 2446.54 -1.35493 -3.12817 0
M  V30 26580 H 2447.73 -2.4683 -1.70338 0
M  V30 26581 H 2445.29 -1.30735 -0.856629 0
M  V30 26582 H 2446.02 -0.390625 -3.21939 0
M  V30 26583 H 2445.81 -2.16434 -3.26954 0
M  V30 26584 H 2447.3 -1.42309 -3.92604 0
M  V30 26585 N 2447.73 0.883355 -1.30517 0
M  V30 26586 C 2448.98 1.63207 -1.19197 0
M  V30 26587 C 2449.3 1.9335 0.253171 0
M  V30 26588 O 2448.57 1.57107 1.17022 0
M  V30 26589 H 2447.15 0.605001 -0.438158 0
M  V30 26590 H 2449.81 1.05829 -1.63665 0
M  V30 26591 H 2448.91 2.5815 -1.754 0
M  V30 26592 N 2449.21 1.13259 1.09591 0
M  V30 26593 C 2450.49 0.804463 1.78291 0
M  V30 26594 C 2450.87 -0.704275 1.99005 0
M  V30 26595 O 2450.22 -1.64098 1.5901 0
M  V30 26596 C 2450.43 1.58946 3.10704 0
M  V30 26597 C 2451.77 1.78106 3.85439 0
M  V30 26598 O 2452.8 1.5553 3.20451 0
M  V30 26599 O 2451.66 2.15762 5.02105 0
M  V30 26600 H 2448.75 0.293541 0.773151 0
M  V30 26601 H 2451.3 1.23711 1.16162 0
M  V30 26602 H 2450.07 2.61487 2.91101 0
M  V30 26603 H 2449.69 1.15164 3.80556 0
M  V30 26604 N 2450.69 -1.27539 0.925834 0
M  V30 26605 C 2451.97 -1.89523 0.483759 0
M  V30 26606 C 2452.35 -1.83814 -1.03806 0
M  V30 26607 O 2451.69 -1.28211 -1.89141 0
M  V30 26608 C 2451.9 -3.33524 1.02774 0
M  V30 26609 C 2453.25 -4.10447 1.08711 0
M  V30 26610 O 2454.28 -3.42533 0.977236 0
M  V30 26611 O 2453.14 -5.31869 1.25608 0
M  V30 26612 H 2450.23 -0.812287 0.155304 0
M  V30 26613 H 2452.78 -1.3582 1.0174 0
M  V30 26614 H 2451.55 -3.31964 2.07161 0
M  V30 26615 H 2451.17 -3.94745 0.475636 0
M  V30 26616 N 2452.17 -0.691135 -1.41637 0
M  V30 26617 C 2453.08 -0.0233899 -2.34588 0
M  V30 26618 C 2454.09 0.770957 -1.55988 0
M  V30 26619 O 2455.27 0.709536 -1.88488 0
M  V30 26620 C 2452.33 0.904792 -3.34686 0
M  V30 26621 C 2451.4 0.10315 -4.29176 0
M  V30 26622 C 2450.63 0.987124 -5.24492 0
M  V30 26623 O 2450.85 2.22665 -5.25144 0
M  V30 26624 O 2449.79 0.439175 -6.00296 0
M  V30 26625 H 2453.61 -0.789468 -2.93259 0
M  V30 26626 H 2451.2 -0.451445 -1.42416 0
M  V30 26627 H 2453.08 1.43717 -3.96136 0
M  V30 26628 H 2451.75 1.65044 -2.78464 0
M  V30 26629 H 2450.66 -0.473721 -3.71089 0
M  V30 26630 H 2451.99 -0.603735 -4.88483 0
M  V30 26631 N 2453.65 1.51461 -0.435577 0
M  V30 26632 C 2454.89 2.02372 0.131673 0
M  V30 26633 C 2455.22 1.31922 1.42514 0
M  V30 26634 O 2454.5 0.433606 1.89605 0
M  V30 26635 C 2454.78 3.58373 0.352238 0
M  V30 26636 C 2454.64 4.39441 -0.959754 0
M  V30 26637 C 2455.95 4.25537 1.12279 0
M  V30 26638 H 2453.07 0.735539 0.0463807 0
M  V30 26639 H 2455.72 1.81115 -0.574229 0
M  V30 26640 H 2453.87 3.76616 0.953534 0
M  V30 26641 H 2455.54 4.32852 -1.5949 0
M  V30 26642 H 2453.78 4.04596 -1.56475 0
M  V30 26643 H 2454.45 5.4675 -0.75949 0
M  V30 26644 H 2456.93 4.11553 0.613473 0
M  V30 26645 H 2455.8 5.34574 1.24588 0
M  V30 26646 H 2456.06 3.86277 2.15041 0
M  V30 26647 N 2455.12 0.166873 1.56714 0
M  V30 26648 C 2456.35 -0.485609 2.0112 0
M  V30 26649 C 2456.77 -1.57104 1.04708 0
M  V30 26650 O 2456.12 -1.82439 0.0472244 0
M  V30 26651 C 2456.18 -1.06802 3.45363 0
M  V30 26652 O 2455.9 -0.0259225 4.38092 0
M  V30 26653 C 2457.4 -1.79917 4.05148 0
M  V30 26654 H 2454.62 -0.124692 0.659312 0
M  V30 26655 H 2457.16 0.267298 2.02746 0
M  V30 26656 H 2455.32 -1.77144 3.44527 0
M  V30 26657 H 2455.73 -0.455306 5.2252 0
M  V30 26658 H 2457.2 -2.15933 5.08013 0
M  V30 26659 H 2457.68 -2.69252 3.46987 0
M  V30 26660 H 2458.29 -1.14226 4.09674 0
M  V30 26661 N 2456.6 -1.57237 -0.106866 0
M  V30 26662 C 2457.85 -1.8576 -0.813697 0
M  V30 26663 C 2458.18 -0.754346 -1.7895 0
M  V30 26664 O 2457.46 0.238757 -1.93029 0
M  V30 26665 C 2457.74 -3.24897 -1.55288 0
M  V30 26666 C 2457.59 -4.45836 -0.595851 0
M  V30 26667 C 2458.91 -3.61768 -2.50624 0
M  V30 26668 H 2456.03 -0.675665 -0.294357 0
M  V30 26669 H 2458.67 -1.89841 -0.0776138 0
M  V30 26670 H 2456.82 -3.21548 -2.18035 0
M  V30 26671 H 2458.49 -4.61294 0.0237073 0
M  V30 26672 H 2456.74 -4.33703 0.0916953 0
M  V30 26673 H 2457.41 -5.39889 -1.14995 0
M  V30 26674 H 2459.88 -3.65985 -1.97976 0
M  V30 26675 H 2458.76 -4.60076 -2.99368 0
M  V30 26676 H 2459.02 -2.89827 -3.33845 0
M  V30 26677 N 2458.08 0.377381 -1.53015 0
M  V30 26678 C 2459.33 1.11903 -1.68292 0
M  V30 26679 C 2459.65 1.90172 -0.431239 0
M  V30 26680 O 2458.92 1.87887 0.554561 0
M  V30 26681 H 2457.5 0.416101 -0.620378 0
M  V30 26682 H 2460.16 0.426859 -1.90168 0
M  V30 26683 H 2459.26 1.81545 -2.53866 0
M  V30 26684 N 2459.56 1.44175 0.636506 0
M  V30 26685 C 2460.51 1.50627 1.74872 0
M  V30 26686 C 2461.48 0.354448 1.62274 0
M  V30 26687 O 2462.66 0.56394 1.82275 0
M  V30 26688 C 2459.8 1.45131 3.13099 0
M  V30 26689 C 2458.91 2.70646 3.36712 0
M  V30 26690 C 2458.05 2.57021 4.6488 0
M  V30 26691 C 2457.09 3.77725 4.81654 0
M  V30 26692 N 2456.22 3.62809 6.01094 0
M  V30 26693 H 2461.06 2.45655 1.68693 0
M  V30 26694 H 2458.6 1.21924 0.822983 0
M  V30 26695 H 2460.56 1.39936 3.93031 0
M  V30 26696 H 2459.19 0.536727 3.18307 0
M  V30 26697 H 2458.24 2.8605 2.50758 0
M  V30 26698 H 2459.55 3.60258 3.44987 0
M  V30 26699 H 2458.71 2.49629 5.52965 0
M  V30 26700 H 2457.45 1.64961 4.58955 0
M  V30 26701 H 2456.45 3.85508 3.92 0
M  V30 26702 H 2457.68 4.70815 4.89397 0
M  V30 26703 H 2455.62 2.73496 5.96268 0
M  V30 26704 H 2455.54 4.46034 6.10402 0
M  V30 26705 H 2456.81 3.59299 6.91755 0
M  V30 26706 N 2461.04 -0.876421 1.30983 0
M  V30 26707 C 2462.28 -1.62894 1.20298 0
M  V30 26708 C 2462.61 -1.93009 -0.240361 0
M  V30 26709 O 2461.87 -1.55569 -1.1873 0
M  V30 26710 C 2462.17 -2.97156 1.98577 0
M  V30 26711 C 2461.83 -2.86559 3.4813 0
M  V30 26712 C 2460.49 -2.83377 3.8891 0
M  V30 26713 C 2462.85 -2.74063 4.43327 0
M  V30 26714 C 2460.17 -2.65547 5.23165 0
M  V30 26715 C 2462.53 -2.57771 5.777 0
M  V30 26716 C 2461.19 -2.52968 6.17708 0
M  V30 26717 H 2460.46 -0.596072 0.440203 0
M  V30 26718 H 2463.11 -1.01834 1.62179 0
M  V30 26719 H 2461.41 -3.62215 1.49358 0
M  V30 26720 H 2463.11 -3.5436 1.87696 0
M  V30 26721 H 2459.7 -2.89851 3.15729 0
M  V30 26722 H 2463.88 -2.75582 4.12757 0
M  V30 26723 H 2459.14 -2.60249 5.53245 0
M  V30 26724 H 2463.31 -2.47077 6.51096 0
M  V30 26725 H 2460.94 -2.38911 7.21682 0
M  V30 26726 N 2462.51 -1.13839 -1.08989 0
M  V30 26727 C 2463.74 -0.924892 -1.84741 0
M  V30 26728 C 2464.15 0.529842 -1.8163 0
M  V30 26729 O 2463.5 1.37869 -1.21399 0
M  V30 26730 C 2463.56 -1.34067 -3.33566 0
M  V30 26731 C 2463.22 -2.80974 -3.6042 0
M  V30 26732 C 2464.22 -3.79114 -3.55765 0
M  V30 26733 C 2461.9 -3.18243 -3.88622 0
M  V30 26734 C 2463.9 -5.12534 -3.7893 0
M  V30 26735 C 2461.58 -4.5184 -4.11441 0
M  V30 26736 C 2462.58 -5.48794 -4.06588 0
M  V30 26737 O 2462.27 -6.79981 -4.28814 0
M  V30 26738 H 2462 -0.329513 -0.590252 0
M  V30 26739 H 2464.56 -1.51593 -1.38595 0
M  V30 26740 H 2462.79 -0.692919 -3.80441 0
M  V30 26741 H 2464.48 -1.09893 -3.90741 0
M  V30 26742 H 2465.24 -3.51667 -3.33999 0
M  V30 26743 H 2461.12 -2.43376 -3.91522 0
M  V30 26744 H 2464.66 -5.88199 -3.75058 0
M  V30 26745 H 2460.56 -4.7901 -4.32689 0
M  V30 26746 H 2461.33 -6.8615 -4.46252 0
M  V30 26747 N 2463.99 1.27046 -0.932584 0
M  V30 26748 C 2464.96 2.24935 -0.440104 0
M  V30 26749 C 2465.96 1.54547 0.444044 0
M  V30 26750 O 2467.15 1.72477 0.244434 0
M  V30 26751 C 2464.28 3.38922 0.36672 0
M  V30 26752 H 2465.47 2.70016 -1.30505 0
M  V30 26753 H 2463.02 1.39052 -0.713732 0
M  V30 26754 H 2463.76 2.9923 1.25028 0
M  V30 26755 H 2463.54 3.91188 -0.267272 0
M  V30 26756 H 2465.03 4.11666 0.701495 0
M  V30 26757 N 2465.47 0.698636 1.41269 0
M  V30 26758 C 2466.7 0.240028 2.05503 0
M  V30 26759 C 2467.11 -1.11189 1.52586 0
M  V30 26760 O 2466.47 -1.69544 0.675353 0
M  V30 26761 C 2466.52 0.192493 3.60987 0
M  V30 26762 O 2466.24 1.49101 4.11947 0
M  V30 26763 C 2467.74 -0.286732 4.42372 0
M  V30 26764 H 2464.96 0.111056 0.661746 0
M  V30 26765 H 2467.51 0.952082 1.80985 0
M  V30 26766 H 2465.66 -0.470405 3.84533 0
M  V30 26767 H 2466.08 1.38016 5.06016 0
M  V30 26768 H 2467.55 -0.268864 5.51345 0
M  V30 26769 H 2468.03 -1.32612 4.18701 0
M  V30 26770 H 2468.63 0.345276 4.23896 0
M  V30 26771 N 2466.95 -1.51228 0.443603 0
M  V30 26772 C 2468.2 -2.0214 -0.12076 0
M  V30 26773 C 2468.52 -1.32739 -1.42164 0
M  V30 26774 O 2467.78 -0.433044 -1.90849 0
M  V30 26775 C 2468.08 -3.55369 -0.380516 0
M  V30 26776 C 2467.74 -4.43095 0.835308 0
M  V30 26777 C 2466.41 -4.66792 1.16872 0
M  V30 26778 C 2468.76 -4.94523 1.6461 0
M  V30 26779 C 2466.09 -5.39161 2.31349 0
M  V30 26780 C 2468.44 -5.68148 2.78191 0
M  V30 26781 C 2467.1 -5.90106 3.11979 0
M  V30 26782 H 2466.37 -0.739681 -0.0441893 0
M  V30 26783 H 2469.02 -1.82117 0.592078 0
M  V30 26784 H 2467.32 -3.73756 -1.17532 0
M  V30 26785 H 2469.02 -3.92301 -0.830708 0
M  V30 26786 H 2465.61 -4.24853 0.565512 0
M  V30 26787 H 2469.79 -4.76094 1.40172 0
M  V30 26788 H 2465.05 -5.54375 2.57833 0
M  V30 26789 H 2469.22 -6.06986 3.41382 0
M  V30 26790 H 2466.85 -6.45962 4.00795 0
M  V30 26791 N 2468.43 -0.175182 -1.56623 0
M  V30 26792 C 2469.36 0.749156 -2.21156 0
M  V30 26793 C 2470.34 1.23624 -1.16838 0
M  V30 26794 O 2471.52 1.2887 -1.4528 0
M  V30 26795 C 2468.65 1.97706 -2.85534 0
M  V30 26796 C 2467.61 1.62568 -3.95924 0
M  V30 26797 C 2466.93 2.92856 -4.4737 0
M  V30 26798 C 2468.23 0.850747 -5.15325 0
M  V30 26799 H 2469.93 0.211242 -2.98654 0
M  V30 26800 H 2467.47 0.100163 -1.43651 0
M  V30 26801 H 2469.43 2.62875 -3.29355 0
M  V30 26802 H 2468.15 2.53918 -2.0541 0
M  V30 26803 H 2466.81 0.997657 -3.52764 0
M  V30 26804 H 2466.46 3.47115 -3.64033 0
M  V30 26805 H 2466.16 2.70097 -5.21844 0
M  V30 26806 H 2467.68 3.59048 -4.9388 0
M  V30 26807 H 2469.09 1.40511 -5.55814 0
M  V30 26808 H 2467.49 0.72205 -5.9574 0
M  V30 26809 H 2468.56 -0.152167 -4.84661 0
M  V30 26810 N 2469.91 1.57292 0.0985263 0
M  V30 26811 C 2471.15 1.85099 0.801326 0
M  V30 26812 C 2471.47 0.763934 1.80065 0
M  V30 26813 O 2472.67 0.929026 2.5511 0
M  V30 26814 C 2471.13 3.28244 1.47593 0
M  V30 26815 C 2470.74 4.45012 0.516546 0
M  V30 26816 C 2472.48 3.6528 2.16266 0
M  V30 26817 C 2470.39 5.7919 1.19554 0
M  V30 26818 H 2469.32 0.690436 0.30301 0
M  V30 26819 H 2471.97 1.8342 0.0542301 0
M  V30 26820 H 2470.35 3.24454 2.27036 0
M  V30 26821 H 2471.53 4.60142 -0.246146 0
M  V30 26822 H 2469.84 4.1635 -0.0643001 0
M  V30 26823 H 2472.44 4.62807 2.67794 0
M  V30 26824 H 2472.78 2.93732 2.95003 0
M  V30 26825 H 2473.31 3.70943 1.43686 0
M  V30 26826 H 2470.05 6.5396 0.449042 0
M  V30 26827 H 2469.57 5.67909 1.92974 0
M  V30 26828 H 2471.25 6.23636 1.72299 0
M  V30 26829 N 2471.38 -0.369261 1.53213 0
M  V30 26830 C 2472.32 -1.47216 1.7567 0
M  V30 26831 C 2473.33 -1.49803 0.637413 0
M  V30 26832 O 2474.52 -1.53349 0.913588 0
M  V30 26833 C 2471.62 -2.85996 1.81823 0
M  V30 26834 C 2470.79 -3.07148 3.11414 0
M  V30 26835 C 2469.85 -4.26021 3.08857 0
M  V30 26836 O 2468.88 -4.21373 3.82666 0
M  V30 26837 N 2470.08 -5.33242 2.29419 0
M  V30 26838 H 2472.84 -1.28332 2.70834 0
M  V30 26839 H 2470.4 -0.558954 1.51945 0
M  V30 26840 H 2472.4 -3.63651 1.77594 0
M  V30 26841 H 2470.97 -2.98145 0.939597 0
M  V30 26842 H 2470.19 -2.17184 3.28975 0
M  V30 26843 H 2471.47 -3.18147 3.97064 0
M  V30 26844 H 2470.87 -5.3988 1.68956 0
M  V30 26845 H 2469.43 -6.09489 2.31012 0
M  V30 26846 N 2472.86 -1.4451 -0.628851 0
M  V30 26847 C 2473.77 -1.54047 -1.76937 0
M  V30 26848 C 2474.79 -0.426016 -1.68704 0
M  V30 26849 O 2475.96 -0.683689 -1.8944 0
M  V30 26850 C 2473.03 -1.4841 -3.13329 0
M  V30 26851 C 2472.09 -2.70725 -3.33176 0
M  V30 26852 C 2471.32 -2.65348 -4.63062 0
M  V30 26853 O 2471.55 -1.71478 -5.44014 0
M  V30 26854 O 2470.48 -3.56234 -4.85161 0
M  V30 26855 H 2474.31 -2.50406 -1.71844 0
M  V30 26856 H 2471.89 -1.26782 -0.790355 0
M  V30 26857 H 2473.77 -1.47798 -3.94631 0
M  V30 26858 H 2472.45 -0.551955 -3.18959 0
M  V30 26859 H 2471.35 -2.76905 -2.51544 0
M  V30 26860 H 2472.69 -3.62994 -3.32409 0
M  V30 26861 N 2474.34 0.869463 -1.31446 0
M  V30 26862 C 2475.57 1.65292 -1.23945 0
M  V30 26863 C 2475.98 1.88166 0.197528 0
M  V30 26864 O 2475.32 1.44035 1.14016 0
M  V30 26865 C 2475.38 3.04319 -1.9139 0
M  V30 26866 C 2475.05 3.04551 -3.40731 0
M  V30 26867 C 2476.04 2.82473 -4.36469 0
M  V30 26868 C 2473.73 3.25656 -3.82431 0
M  V30 26869 C 2475.72 2.8148 -5.71881 0
M  V30 26870 C 2473.41 3.24291 -5.17956 0
M  V30 26871 C 2474.41 3.0223 -6.12492 0
M  V30 26872 O 2474.1 3.00711 -7.45539 0
M  V30 26873 H 2473.83 0.522047 -0.429468 0
M  V30 26874 H 2476.38 1.09347 -1.73875 0
M  V30 26875 H 2474.61 3.61992 -1.3601 0
M  V30 26876 H 2476.3 3.64888 -1.77797 0
M  V30 26877 H 2477.07 2.65949 -4.05581 0
M  V30 26878 H 2472.95 3.41858 -3.0928 0
M  V30 26879 H 2476.49 2.64179 -6.45643 0
M  V30 26880 H 2472.39 3.40355 -5.48479 0
M  V30 26881 H 2473.15 3.16769 -7.54718 0
M  V30 26882 N 2475.82 1.14415 1.08383 0
M  V30 26883 C 2477.06 0.912514 1.80775 0
M  V30 26884 C 2477.39 -0.560902 1.86237 0
M  V30 26885 O 2476.65 -1.43157 1.33434 0
M  V30 26886 C 2476.95 1.45885 3.2627 0
M  V30 26887 C 2476.61 2.95095 3.40925 0
M  V30 26888 C 2475.27 3.35831 3.44632 0
M  V30 26889 C 2477.63 3.91039 3.44584 0
M  V30 26890 C 2474.95 4.71173 3.49589 0
M  V30 26891 C 2477.31 5.26239 3.51077 0
M  V30 26892 C 2475.97 5.66487 3.53057 0
M  V30 26893 H 2475.24 0.333912 0.661501 0
M  V30 26894 H 2477.89 1.42786 1.2761 0
M  V30 26895 H 2476.19 0.864443 3.82145 0
M  V30 26896 H 2477.89 1.25556 3.80837 0
M  V30 26897 H 2474.48 2.626 3.38731 0
M  V30 26898 H 2478.66 3.60647 3.40951 0
M  V30 26899 H 2473.92 5.01716 3.49415 0
M  V30 26900 H 2478.09 6.00389 3.52854 0
M  V30 26901 H 2475.72 6.71345 3.56651 0
M  V30 26902 N 2477.3 -1.26549 0.939309 0
M  V30 26903 C 2478.71 -1.46148 0.64133 0
M  V30 26904 C 2478.91 -1.84681 -0.805931 0
M  V30 26905 O 2477.97 -1.96737 -1.58275 0
M  V30 26906 C 2479.28 -2.54526 1.60115 0
M  V30 26907 C 2480.83 -2.68379 1.61064 0
M  V30 26908 C 2481.3 -3.79927 2.55772 0
M  V30 26909 N 2482.79 -3.87317 2.54046 0
M  V30 26910 C 2483.53 -4.73079 3.24012 0
M  V30 26911 N 2483.03 -5.63242 4.03398 0
M  V30 26912 N 2484.82 -4.66909 3.12974 0
M  V30 26913 H 2476.97 -0.998252 1.8748 0
M  V30 26914 H 2479.23 -0.499764 0.805568 0
M  V30 26915 H 2478.94 -2.33034 2.63416 0
M  V30 26916 H 2478.81 -3.52146 1.35177 0
M  V30 26917 H 2481.2 -2.89246 0.584886 0
M  V30 26918 H 2481.28 -1.71209 1.90056 0
M  V30 26919 H 2480.92 -3.59813 3.58465 0
M  V30 26920 H 2480.85 -4.7655 2.24071 0
M  V30 26921 H 2483.35 -3.22854 1.96401 0
M  V30 26922 H 2483.66 -6.25571 4.53741 0
M  V30 26923 H 2482 -5.63 4.07499 0
M  V30 26924 H 2485.19 -3.95472 2.50439 0
M  V30 26925 H 2485.37 -5.33526 3.67769 0
M  V30 26926 N 2478.77 -0.706118 -1.40896 0
M  V30 26927 C 2479.72 -0.0474879 -2.30751 0
M  V30 26928 C 2480.69 0.760264 -1.47679 0
M  V30 26929 O 2481.88 0.726146 -1.76442 0
M  V30 26930 C 2479.02 0.875251 -3.33816 0
M  V30 26931 C 2478.13 0.0579864 -4.31961 0
M  V30 26932 C 2477.26 0.979333 -5.22094 0
M  V30 26933 C 2476.3 0.155599 -6.11902 0
M  V30 26934 N 2475.44 1.03131 -6.94484 0
M  V30 26935 H 2480.28 -0.819463 -2.86511 0
M  V30 26936 H 2477.82 -0.415808 -1.41101 0
M  V30 26937 H 2479.77 1.42439 -3.92131 0
M  V30 26938 H 2478.4 1.61351 -2.79581 0
M  V30 26939 H 2477.46 -0.608213 -3.75506 0
M  V30 26940 H 2478.77 -0.580169 -4.95414 0
M  V30 26941 H 2477.92 1.59733 -5.85295 0
M  V30 26942 H 2476.66 1.65133 -4.58893 0
M  V30 26943 H 2475.67 -0.475405 -5.47741 0
M  V30 26944 H 2476.89 -0.512754 -6.77161 0
M  V30 26945 H 2474.84 1.68913 -6.3388 0
M  V30 26946 H 2474.75 0.448975 -7.54666 0
M  V30 26947 H 2476.02 1.63579 -7.62143 0
M  V30 26948 N 2480.25 1.50991 -0.451617 0
M  V30 26949 C 2481.5 2.02201 0.110039 0
M  V30 26950 C 2481.83 1.33491 1.41458 0
M  V30 26951 O 2481.08 0.443159 1.90616 0
M  V30 26952 C 2481.38 3.55565 0.361665 0
M  V30 26953 C 2481.05 4.42646 -0.858795 0
M  V30 26954 C 2479.71 4.66165 -1.19346 0
M  V30 26955 C 2482.06 4.93643 -1.6723 0
M  V30 26956 C 2479.39 5.37927 -2.34205 0
M  V30 26957 C 2481.74 5.66665 -2.812 0
M  V30 26958 C 2480.4 5.88443 -3.15104 0
M  V30 26959 H 2479.67 0.739905 0.040266 0
M  V30 26960 H 2482.32 1.81801 -0.601728 0
M  V30 26961 H 2480.63 3.74374 1.15548 0
M  V30 26962 H 2482.32 3.92736 0.809891 0
M  V30 26963 H 2478.91 4.24547 -0.588035 0
M  V30 26964 H 2483.1 4.75344 -1.42695 0
M  V30 26965 H 2478.35 5.53 -2.6077 0
M  V30 26966 H 2482.53 6.05167 -3.44596 0
M  V30 26967 H 2480.15 6.43828 -4.04215 0
M  V30 26968 N 2481.73 0.183486 1.56528 0
M  V30 26969 C 2482.68 -0.742016 2.18547 0
M  V30 26970 C 2483.65 -1.21818 1.12914 0
M  V30 26971 O 2484.83 -1.28416 1.41117 0
M  V30 26972 C 2481.97 -1.96084 2.83981 0
M  V30 26973 C 2481.08 -1.52712 4.04108 0
M  V30 26974 C 2480.22 -2.70055 4.57432 0
M  V30 26975 C 2479.26 -2.23233 5.69942 0
M  V30 26976 N 2478.4 -3.33712 6.17722 0
M  V30 26977 H 2483.24 -0.20638 2.97284 0
M  V30 26978 H 2480.77 -0.0901313 1.46824 0
M  V30 26979 H 2482.73 -2.67589 3.20082 0
M  V30 26980 H 2481.36 -2.46998 2.07826 0
M  V30 26981 H 2480.41 -0.70837 3.73746 0
M  V30 26982 H 2481.72 -1.14352 4.85515 0
M  V30 26983 H 2480.88 -3.49699 4.95778 0
M  V30 26984 H 2479.62 -3.11683 3.75107 0
M  V30 26985 H 2478.62 -1.42039 5.31136 0
M  V30 26986 H 2479.85 -1.82649 6.54077 0
M  V30 26987 H 2477.79 -3.74892 5.38323 0
M  V30 26988 H 2477.71 -2.99483 6.94151 0
M  V30 26989 H 2478.98 -4.13604 6.60721 0
M  V30 26990 N 2483.21 -1.57342 -0.0901833 0
M  V30 26991 C 2484.15 -2.02407 -1.10905 0
M  V30 26992 C 2485.12 -0.901276 -1.39521 0
M  V30 26993 O 2486.31 -1.16763 -1.50901 0
M  V30 26994 C 2483.45 -2.4576 -2.42273 0
M  V30 26995 C 2482.56 -3.7158 -2.20346 0
M  V30 26996 C 2481.7 -4.03791 -3.45147 0
M  V30 26997 C 2480.74 -5.22707 -3.18503 0
M  V30 26998 N 2479.87 -5.50646 -4.35584 0
M  V30 26999 H 2484.71 -2.89227 -0.71777 0
M  V30 27000 H 2482.25 -1.43048 -0.342876 0
M  V30 27001 H 2484.21 -2.68941 -3.18946 0
M  V30 27002 H 2482.84 -1.61943 -2.79239 0
M  V30 27003 H 2481.89 -3.55847 -1.34452 0
M  V30 27004 H 2483.2 -4.58398 -1.96653 0
M  V30 27005 H 2482.36 -4.27775 -4.30225 0
M  V30 27006 H 2481.1 -3.15504 -3.71898 0
M  V30 27007 H 2480.1 -4.98538 -2.31818 0
M  V30 27008 H 2481.33 -6.12596 -2.93092 0
M  V30 27009 H 2479.27 -4.65318 -4.62401 0
M  V30 27010 H 2479.19 -6.31846 -4.15099 0
M  V30 27011 H 2480.46 -5.79169 -5.21712 0
M  V30 27012 N 2484.69 0.36113 -1.53407 0
M  V30 27013 C 2486.1 0.703099 -1.43278 0
M  V30 27014 C 2486.3 1.93109 -0.575418 0
M  V30 27015 O 2485.36 2.5243 -0.0595806 0
M  V30 27016 C 2486.67 0.912149 -2.86532 0
M  V30 27017 C 2488.22 1.01188 -2.96193 0
M  V30 27018 C 2488.69 1.25337 -4.40516 0
M  V30 27019 N 2490.19 1.32097 -4.43965 0
M  V30 27020 C 2490.92 1.525 -5.52749 0
M  V30 27021 N 2490.42 1.70191 -6.7157 0
M  V30 27022 N 2492.21 1.54906 -5.40334 0
M  V30 27023 H 2484.36 -0.446512 -2.07654 0
M  V30 27024 H 2486.62 -0.137731 -0.937941 0
M  V30 27025 H 2486.33 0.0815796 -3.51605 0
M  V30 27026 H 2486.2 1.81897 -3.30444 0
M  V30 27027 H 2488.59 1.83299 -2.3127 0
M  V30 27028 H 2488.67 0.0823479 -2.55667 0
M  V30 27029 H 2488.32 0.437257 -5.06014 0
M  V30 27030 H 2488.25 2.19619 -4.78618 0
M  V30 27031 H 2490.74 1.20021 -3.58334 0
M  V30 27032 H 2491.05 1.85346 -7.50244 0
M  V30 27033 H 2489.39 1.67361 -6.74548 0
M  V30 27034 H 2492.59 1.40656 -4.46468 0
M  V30 27035 H 2492.76 1.70466 -6.25176 0
M  V30 27036 N 2486.16 1.44842 0.621179 0
M  V30 27037 C 2487.11 1.52473 1.73265 0
M  V30 27038 C 2488.08 0.37164 1.61889 0
M  V30 27039 O 2489.27 0.583242 1.81667 0
M  V30 27040 C 2486.41 1.48443 3.11542 0
M  V30 27041 C 2485.52 2.74202 3.33822 0
M  V30 27042 C 2484.65 2.61937 4.62128 0
M  V30 27043 C 2483.69 3.82812 4.7762 0
M  V30 27044 N 2482.83 3.69164 5.97212 0
M  V30 27045 H 2487.67 2.47431 1.66078 0
M  V30 27046 H 2485.21 1.2279 0.810005 0
M  V30 27047 H 2487.17 1.44097 3.91525 0
M  V30 27048 H 2485.8 0.570458 3.17719 0
M  V30 27049 H 2484.85 2.88694 2.4771 0
M  V30 27050 H 2486.16 3.63896 3.41146 0
M  V30 27051 H 2485.31 2.5548 5.50286 0
M  V30 27052 H 2484.05 1.69819 4.57179 0
M  V30 27053 H 2483.06 3.89644 3.87889 0
M  V30 27054 H 2484.28 4.75979 4.84376 0
M  V30 27055 H 2482.23 2.79805 5.93334 0
M  V30 27056 H 2482.15 4.52483 6.05636 0
M  V30 27057 H 2483.41 3.66615 6.87905 0
M  V30 27058 N 2487.64 -0.862479 1.31905 0
M  V30 27059 C 2488.55 -2.00282 1.22164 0
M  V30 27060 C 2489.57 -1.73461 0.136816 0
M  V30 27061 O 2490.74 -1.98228 0.356029 0
M  V30 27062 C 2487.81 -3.33794 0.937152 0
M  V30 27063 C 2486.87 -3.73889 2.10963 0
M  V30 27064 C 2486.1 -5.01029 1.83862 0
M  V30 27065 O 2486.33 -5.65078 0.777373 0
M  V30 27066 O 2485.26 -5.38069 2.6975 0
M  V30 27067 H 2489.09 -2.11435 2.18011 0
M  V30 27068 H 2486.67 -0.991937 1.11718 0
M  V30 27069 H 2488.55 -4.1384 0.794656 0
M  V30 27070 H 2487.23 -3.23699 0.00877584 0
M  V30 27071 H 2486.14 -2.94452 2.30757 0
M  V30 27072 H 2487.47 -3.88619 3.02053 0
M  V30 27073 N 2489.12 -1.14988 -1.07775 0
M  V30 27074 C 2490.05 -0.800474 -2.14767 0
M  V30 27075 C 2491.07 0.185566 -1.61739 0
M  V30 27076 O 2492.25 -0.0370672 -1.78462 0
M  V30 27077 C 2489.35 -0.168592 -3.3848 0
M  V30 27078 C 2488.53 -1.19098 -4.20874 0
M  V30 27079 C 2487.59 -0.581667 -5.22975 0
M  V30 27080 O 2486.61 -1.24643 -5.55385 0
M  V30 27081 N 2487.81 0.638605 -5.76977 0
M  V30 27082 H 2490.58 -1.72122 -2.45345 0
M  V30 27083 H 2488.14 -1.04518 -1.23643 0
M  V30 27084 H 2490.13 0.251693 -4.03917 0
M  V30 27085 H 2488.7 0.655414 -3.05652 0
M  V30 27086 H 2487.92 -1.78797 -3.51319 0
M  V30 27087 H 2489.21 -1.88142 -4.72737 0
M  V30 27088 H 2488.61 1.19714 -5.52888 0
M  V30 27089 H 2487.17 1.00131 -6.44063 0
M  V30 27090 N 2490.6 1.26049 -0.946007 0
M  V30 27091 C 2491.85 1.93144 -0.594975 0
M  V30 27092 C 2492.17 1.74541 0.869499 0
M  V30 27093 O 2491.44 1.1039 1.61836 0
M  V30 27094 H 2490.02 0.714769 -0.217057 0
M  V30 27095 H 2492.68 1.53391 -1.20238 0
M  V30 27096 H 2491.78 3.0122 -0.816888 0
M  V30 27097 N 2492.08 0.71358 1.4052 0
M  V30 27098 C 2493.01 0.0744274 2.33381 0
M  V30 27099 C 2493.99 -0.747709 1.52785 0
M  V30 27100 O 2495.17 -0.69704 1.81259 0
M  V30 27101 C 2492.3 -0.849539 3.36749 0
M  V30 27102 C 2491.26 -0.133172 4.27793 0
M  V30 27103 C 2490.58 -1.17272 5.21681 0
M  V30 27104 C 2491.88 1.01143 5.12413 0
M  V30 27105 H 2493.58 0.850057 2.87079 0
M  V30 27106 H 2491.12 0.410226 1.38033 0
M  V30 27107 H 2493.08 -1.30605 4.0065 0
M  V30 27108 H 2491.8 -1.65704 2.81442 0
M  V30 27109 H 2490.46 0.303491 3.65342 0
M  V30 27110 H 2490.11 -1.97322 4.6268 0
M  V30 27111 H 2489.81 -0.698294 5.83436 0
M  V30 27112 H 2491.33 -1.62937 5.88459 0
M  V30 27113 H 2492.74 0.634374 5.69779 0
M  V30 27114 H 2491.14 1.41409 5.83201 0
M  V30 27115 H 2492.21 1.843 4.48511 0
M  V30 27116 N 2493.55 -1.50749 0.459618 0
M  V30 27117 C 2494.8 -2.02556 -0.099461 0
M  V30 27118 C 2495.13 -1.34173 -1.40397 0
M  V30 27119 O 2494.41 -0.463716 -1.88891 0
M  V30 27120 C 2494.69 -3.58888 -0.295179 0
M  V30 27121 C 2494.54 -4.37859 1.02954 0
M  V30 27122 C 2495.86 -4.27269 -1.05495 0
M  V30 27123 H 2492.98 -0.736184 -0.0346731 0
M  V30 27124 H 2495.62 -1.80178 0.60297 0
M  V30 27125 H 2493.77 -3.78086 -0.893497 0
M  V30 27126 H 2495.45 -4.3026 1.66356 0
M  V30 27127 H 2493.69 -4.02056 1.62892 0
M  V30 27128 H 2494.36 -5.45473 0.846377 0
M  V30 27129 H 2496.84 -4.12477 -0.547921 0
M  V30 27130 H 2495.71 -5.36488 -1.16068 0
M  V30 27131 H 2495.97 -3.89649 -2.08868 0
M  V30 27132 N 2495.03 -0.191784 -1.56429 0
M  V30 27133 C 2496.28 0.446971 -1.97095 0
M  V30 27134 C 2496.6 1.62381 -1.0797 0
M  V30 27135 O 2495.87 1.95323 -0.150282 0
M  V30 27136 H 2494.45 0.168122 -0.727835 0
M  V30 27137 H 2497.11 -0.277744 -1.92911 0
M  V30 27138 H 2496.21 0.793318 -3.01849 0
M  V30 27139 N 2496.51 1.57387 0.0818378 0
M  V30 27140 C 2497.46 2.02992 1.0983 0
M  V30 27141 C 2498.43 0.908663 1.39041 0
M  V30 27142 O 2499.61 1.17561 1.5028 0
M  V30 27143 C 2496.75 2.47041 2.40966 0
M  V30 27144 C 2495.87 3.72743 2.18372 0
M  V30 27145 C 2495 4.05616 3.43 0
M  V30 27146 C 2494.04 5.24389 3.15726 0
M  V30 27147 N 2493.18 5.52948 4.32657 0
M  V30 27148 H 2498.02 2.89603 0.702421 0
M  V30 27149 H 2495.55 1.43228 0.335285 0
M  V30 27150 H 2497.51 2.70628 3.17516 0
M  V30 27151 H 2496.14 1.63422 2.78376 0
M  V30 27152 H 2495.19 3.56555 1.32562 0
M  V30 27153 H 2496.51 4.59435 1.94219 0
M  V30 27154 H 2495.66 4.3005 4.27951 0
M  V30 27155 H 2494.4 3.17472 3.7022 0
M  V30 27156 H 2493.4 4.99761 2.29171 0
M  V30 27157 H 2494.63 6.14142 2.8984 0
M  V30 27158 H 2492.57 4.67764 4.59927 0
M  V30 27159 H 2492.49 6.34038 4.11742 0
M  V30 27160 H 2493.76 5.81927 5.18634 0
M  V30 27161 N 2497.99 -0.35299 1.53596 0
M  V30 27162 C 2499.4 -0.929124 1.61939 0
M  V30 27163 C 2499.75 -1.8986 0.494719 0
M  V30 27164 O 2498.88 -2.13091 -0.376979 0
M  V30 27165 C 2499.47 -1.69193 2.93529 0
M  V30 27166 C 2498.03 -2.21722 3.04165 0
M  V30 27167 C 2497.18 -1.03344 2.57323 0
M  V30 27168 H 2500.13 -0.131403 1.58155 0
M  V30 27169 H 2500.15 -2.55411 2.82038 0
M  V30 27170 H 2499.66 -0.986078 3.75364 0
M  V30 27171 H 2497.76 -2.95512 2.26944 0
M  V30 27172 H 2497.87 -2.48741 4.09469 0
M  V30 27173 H 2496.24 -1.4041 2.12502 0
M  V30 27174 H 2497.02 -0.342368 3.41589 0
M  V30 27175 N 2499.47 -1.45169 -0.613489 0
M  V30 27176 C 2500.69 -1.5262 -1.40434 0
M  V30 27177 C 2501.12 -0.15774 -1.87437 0
M  V30 27178 O 2500.48 0.856509 -1.59792 0
M  V30 27179 C 2500.52 -2.51016 -2.58889 0
M  V30 27180 O 2499.63 -2.02388 -3.59323 0
M  V30 27181 H 2498.97 -0.514702 -0.419497 0
M  V30 27182 H 2501.5 -1.90469 -0.747181 0
M  V30 27183 H 2501.51 -2.69629 -3.06209 0
M  V30 27184 H 2500.18 -3.50407 -2.24026 0
M  V30 27185 H 2498.76 -1.93624 -3.18692 0
M  V30 27186 N 2500.95 0.855472 -1.32361 0
M  V30 27187 C 2501.88 1.97055 -1.17056 0
M  V30 27188 C 2502.89 1.62456 -0.105769 0
M  V30 27189 O 2504.08 1.74941 -0.35465 0
M  V30 27190 C 2501.18 3.30052 -0.769363 0
M  V30 27191 C 2500.35 3.92897 -1.92226 0
M  V30 27192 C 2499.41 5.04226 -1.50475 0
M  V30 27193 O 2498.44 5.24265 -2.21664 0
M  V30 27194 N 2499.64 5.79118 -0.40031 0
M  V30 27195 H 2502.4 2.10726 -2.13107 0
M  V30 27196 H 2499.97 1.03028 -1.24887 0
M  V30 27197 H 2501.96 4.01933 -0.472477 0
M  V30 27198 H 2500.53 3.1244 0.09997 0
M  V30 27199 H 2499.75 3.13813 -2.38569 0
M  V30 27200 H 2501.04 4.31619 -2.69411 0
M  V30 27201 H 2500.43 5.65373 0.19222 0
M  V30 27202 H 2498.99 6.51596 -0.163027 0
M  V30 27203 N 2502.42 1.15558 1.07164 0
M  V30 27204 C 2503.84 0.898626 1.31897 0
M  V30 27205 C 2504.04 -0.453348 1.96334 0
M  V30 27206 O 2503.1 -1.19485 2.2244 0
M  V30 27207 C 2504.41 2.04103 2.20823 0
M  V30 27208 C 2505.96 2.07578 2.34266 0
M  V30 27209 C 2506.43 3.21147 3.26541 0
M  V30 27210 N 2507.92 3.20807 3.34122 0
M  V30 27211 C 2508.66 4.05322 4.05588 0
M  V30 27212 N 2508.15 4.99905 4.79652 0
M  V30 27213 N 2509.95 3.93339 4.01548 0
M  V30 27214 H 2502.1 2.02615 0.637267 0
M  V30 27215 H 2504.36 0.883597 0.343453 0
M  V30 27216 H 2504.07 3.01706 1.80739 0
M  V30 27217 H 2503.94 1.97502 3.21361 0
M  V30 27218 H 2506.33 1.10573 2.73601 0
M  V30 27219 H 2506.41 2.18246 1.33425 0
M  V30 27220 H 2506.05 4.18405 2.87923 0
M  V30 27221 H 2505.98 3.07715 4.27339 0
M  V30 27222 H 2508.47 2.52311 2.81331 0
M  V30 27223 H 2508.79 5.60831 5.31684 0
M  V30 27224 H 2507.13 5.03892 4.78662 0
M  V30 27225 H 2510.32 3.18757 3.428 0
M  V30 27226 H 2510.5 4.59428 4.56979 0
M  V30 27227 N 2503.9 -1.25546 0.952678 0
M  V30 27228 C 2504.85 -2.27958 0.462394 0
M  V30 27229 C 2505.84 -1.62855 -0.466311 0
M  V30 27230 O 2507.05 -1.76697 -0.343256 0
M  V30 27231 H 2503.42 -0.740498 0.131023 0
M  V30 27232 H 2505.4 -2.66699 1.33843 0
M  V30 27233 C 2504.14 -3.46827 -0.246219 0
M  V30 27234 H 2503.47 -3.97153 0.459262 0
M  V30 27235 H 2504.91 -4.20374 -0.553319 0
M  V30 27236 C 2503.37 -3.03233 -1.46805 0
M  V30 27237 O 2503.9 -3.09074 -2.56586 0
M  V30 27238 N 2502.1 -2.58445 -1.3287 0
M  V30 27239 H 2501.65 -2.53892 -0.435491 0
M  V30 27240 H 2501.61 -2.29641 -2.14738 0
M  V30 27241 N 2505.38 -0.721022 -1.40139 0
M  V30 27242 C 2506.34 -0.0806236 -2.29058 0
M  V30 27243 C 2507.34 0.681733 -1.45633 0
M  V30 27244 O 2508.53 0.512827 -1.6648 0
M  V30 27245 C 2505.66 0.895535 -3.28927 0
M  V30 27246 H 2506.86 -0.863843 -2.87189 0
M  V30 27247 H 2504.41 -0.486001 -1.48552 0
M  V30 27248 H 2505.15 1.70561 -2.75825 0
M  V30 27249 H 2504.93 0.351698 -3.9052 0
M  V30 27250 H 2506.42 1.34062 -3.95496 0
M  V30 27251 N 2506.86 1.50503 -0.467606 0
M  V30 27252 C 2507.79 2.3132 0.318341 0
M  V30 27253 C 2508.77 1.38068 0.99354 0
M  V30 27254 O 2509.95 1.66989 0.991381 0
M  V30 27255 C 2507.08 3.17713 1.40269 0
M  V30 27256 C 2506.04 4.19489 0.849299 0
M  V30 27257 C 2505.36 4.94598 2.03168 0
M  V30 27258 C 2506.66 5.2212 -0.137034 0
M  V30 27259 H 2508.36 2.97274 -0.356158 0
M  V30 27260 H 2505.9 1.4296 -0.172728 0
M  V30 27261 H 2507.86 3.73045 1.95998 0
M  V30 27262 H 2506.58 2.49637 2.10591 0
M  V30 27263 H 2505.24 3.65253 0.314012 0
M  V30 27264 H 2504.89 4.22998 2.7218 0
M  V30 27265 H 2504.59 5.63439 1.66764 0
M  V30 27266 H 2506.11 5.52763 2.59394 0
M  V30 27267 H 2507.53 5.72344 0.330956 0
M  V30 27268 H 2505.92 5.98662 -0.415175 0
M  V30 27269 H 2506.99 4.73081 -1.06406 0
M  V30 27270 N 2508.34 0.200077 1.56325 0
M  V30 27271 C 2509.56 -0.445935 2.02549 0
M  V30 27272 C 2509.99 -1.54058 1.07925 0
M  V30 27273 O 2509.34 -1.81188 0.0636093 0
M  V30 27274 C 2509.39 -0.9747 3.47177 0
M  V30 27275 O 2508.5 -2.08732 3.55675 0
M  V30 27276 H 2507.84 -0.103626 0.655864 0
M  V30 27277 H 2510.37 0.312417 2.02201 0
M  V30 27278 H 2510.38 -1.29003 3.87069 0
M  V30 27279 H 2509.05 -0.173397 4.15538 0
M  V30 27280 H 2507.63 -1.78026 3.2766 0
M  V30 27281 N 2509.81 -1.57429 -0.0734901 0
M  V30 27282 C 2510.74 -2.0661 -1.08787 0
M  V30 27283 C 2511.72 -0.959261 -1.40471 0
M  V30 27284 O 2512.91 -1.23188 -1.50128 0
M  V30 27285 C 2510.04 -2.50861 -2.40179 0
M  V30 27286 C 2508.99 -3.65406 -2.22851 0
M  V30 27287 C 2508.32 -3.95706 -3.59612 0
M  V30 27288 C 2509.62 -4.95514 -1.65115 0
M  V30 27289 H 2511.31 -2.91608 -0.678622 0
M  V30 27290 H 2508.86 -1.40285 -0.324989 0
M  V30 27291 H 2510.81 -2.8388 -3.11432 0
M  V30 27292 H 2509.54 -1.6289 -2.8308 0
M  V30 27293 H 2508.2 -3.32667 -1.54039 0
M  V30 27294 H 2507.84 -3.04869 -4.0008 0
M  V30 27295 H 2507.54 -4.72834 -3.48857 0
M  V30 27296 H 2509.07 -4.3122 -4.32299 0
M  V30 27297 H 2510.48 -5.26775 -2.26232 0
M  V30 27298 H 2508.88 -5.76953 -1.65061 0
M  V30 27299 H 2509.95 -4.81016 -0.612474 0
M  V30 27300 N 2511.29 0.344839 -1.53781 0
M  V30 27301 C 2512.22 1.44403 -1.7799 0
M  V30 27302 C 2513.24 1.4877 -0.661165 0
M  V30 27303 O 2514.43 1.51876 -0.937869 0
M  V30 27304 C 2511.53 2.83067 -1.8635 0
M  V30 27305 C 2510.7 3.02155 -3.16261 0
M  V30 27306 C 2509.76 4.21053 -3.15595 0
M  V30 27307 O 2508.78 4.15232 -3.89322 0
M  V30 27308 N 2509.99 5.29525 -2.37873 0
M  V30 27309 H 2512.75 1.24007 -2.72841 0
M  V30 27310 H 2510.31 0.53471 -1.52815 0
M  V30 27311 H 2512.3 3.6078 -1.83357 0
M  V30 27312 H 2510.87 2.96612 -0.98691 0
M  V30 27313 H 2510.09 2.11923 -3.32389 0
M  V30 27314 H 2511.38 3.1179 -4.02075 0
M  V30 27315 H 2510.78 5.37124 -1.77523 0
M  V30 27316 H 2509.34 6.05737 -2.40679 0
M  V30 27317 N 2512.77 1.45492 0.605781 0
M  V30 27318 C 2513.73 1.53913 1.69834 0
M  V30 27319 C 2514.73 0.418451 1.5526 0
M  V30 27320 O 2515.92 0.681993 1.60295 0
M  V30 27321 C 2513.05 1.4374 3.09114 0
M  V30 27322 H 2514.25 2.5126 1.63734 0
M  V30 27323 H 2511.8 1.3296 0.821665 0
M  V30 27324 H 2512.54 0.475844 3.2079 0
M  V30 27325 H 2512.32 2.25027 3.211 0
M  V30 27326 H 2513.81 1.52668 3.88693 0
M  V30 27327 N 2514.25 -0.848441 1.32813 0
M  V30 27328 C 2515.5 -1.59989 1.23482 0
M  V30 27329 C 2515.82 -1.93953 -0.201819 0
M  V30 27330 O 2515.09 -1.60155 -1.12815 0
M  V30 27331 H 2513.67 -0.593172 0.454045 0
M  V30 27332 H 2516.33 -1.01452 1.66413 0
M  V30 27333 H 2515.43 -2.53408 1.82183 0
M  V30 27334 N 2515.73 -1.16125 -1.06549 0
M  V30 27335 C 2516.66 -0.888548 -2.15933 0
M  V30 27336 C 2517.64 0.164105 -1.69307 0
M  V30 27337 O 2518.82 0.0167515 -1.94193 0
M  V30 27338 C 2515.95 -0.386003 -3.45148 0
M  V30 27339 C 2514.91 -1.37627 -4.05269 0
M  V30 27340 C 2514.23 -0.73223 -5.29663 0
M  V30 27341 C 2515.53 -2.745 -4.4435 0
M  V30 27342 H 2517.23 -1.80327 -2.39003 0
M  V30 27343 H 2514.77 -0.868455 -1.14865 0
M  V30 27344 H 2516.73 -0.182721 -4.21004 0
M  V30 27345 H 2515.45 0.564218 -3.2169 0
M  V30 27346 H 2514.11 -1.56605 -3.31467 0
M  V30 27347 H 2513.76 0.224394 -5.02499 0
M  V30 27348 H 2513.46 -1.39317 -5.70846 0
M  V30 27349 H 2514.98 -0.538909 -6.08217 0
M  V30 27350 H 2516.39 -2.5932 -5.11299 0
M  V30 27351 H 2514.79 -3.37044 -4.96509 0
M  V30 27352 H 2515.86 -3.29949 -3.55333 0
M  V30 27353 N 2517.2 1.25039 -0.959323 0
M  V30 27354 C 2518.62 1.45109 -0.664499 0
M  V30 27355 C 2518.82 1.8594 0.776448 0
M  V30 27356 O 2517.88 1.9923 1.55125 0
M  V30 27357 C 2519.19 2.51947 -1.64144 0
M  V30 27358 C 2520.74 2.65783 -1.65314 0
M  V30 27359 C 2521.21 3.7581 -2.61784 0
M  V30 27360 N 2522.7 3.83227 -2.60176 0
M  V30 27361 C 2523.44 4.67864 -3.31498 0
M  V30 27362 N 2522.93 5.56753 -4.12308 0
M  V30 27363 N 2524.73 4.61871 -3.20362 0
M  V30 27364 H 2516.88 0.968299 -1.89044 0
M  V30 27365 H 2519.14 0.486885 -0.813417 0
M  V30 27366 H 2518.85 2.28814 -2.6709 0
M  V30 27367 H 2518.72 3.49951 -1.40762 0
M  V30 27368 H 2521.11 2.88279 -0.630829 0
M  V30 27369 H 2521.19 1.68163 -1.92756 0
M  V30 27370 H 2520.83 3.54065 -3.64144 0
M  V30 27371 H 2520.76 4.72925 -2.31624 0
M  V30 27372 H 2523.25 3.19689 -2.01513 0
M  V30 27373 H 2523.57 6.18273 -4.63636 0
M  V30 27374 H 2521.91 5.56446 -4.16404 0
M  V30 27375 H 2525.1 3.91438 -2.56698 0
M  V30 27376 H 2525.28 5.27608 -3.7621 0
M  V30 27377 N 2518.68 0.728444 1.39755 0
M  V30 27378 C 2519.91 0.283564 2.04948 0
M  V30 27379 C 2520.33 -1.07927 1.5491 0
M  V30 27380 O 2519.68 -1.68074 0.711164 0
M  V30 27381 C 2519.73 0.26902 3.60498 0
M  V30 27382 O 2519.45 1.57805 4.08692 0
M  V30 27383 C 2520.96 -0.192834 4.4288 0
M  V30 27384 H 2518.18 0.125068 0.659241 0
M  V30 27385 H 2520.72 0.990257 1.78925 0
M  V30 27386 H 2518.87 -0.388733 3.85445 0
M  V30 27387 H 2519.29 1.48718 5.02974 0
M  V30 27388 H 2520.76 -0.151855 5.51791 0
M  V30 27389 H 2521.24 -1.23701 4.2142 0
M  V30 27390 H 2521.85 0.435113 4.23068 0
M  V30 27391 N 2520.16 -1.50253 0.475581 0
M  V30 27392 C 2521.09 -2.31485 -0.306069 0
M  V30 27393 C 2522.07 -1.38593 -0.986204 0
M  V30 27394 O 2523.26 -1.67512 -0.982511 0
M  V30 27395 C 2520.39 -3.18453 -1.38583 0
M  V30 27396 C 2519.34 -4.19933 -0.827041 0
M  V30 27397 C 2518.67 -4.95668 -2.00542 0
M  V30 27398 C 2519.97 -5.2204 0.164722 0
M  V30 27399 H 2521.66 -2.97081 0.371918 0
M  V30 27400 H 2519.21 -1.42867 0.180307 0
M  V30 27401 H 2521.16 -3.74079 -1.94017 0
M  V30 27402 H 2519.88 -2.50751 -2.09265 0
M  V30 27403 H 2518.54 -3.65414 -0.294637 0
M  V30 27404 H 2518.19 -4.24435 -2.69933 0
M  V30 27405 H 2517.89 -5.64315 -1.63774 0
M  V30 27406 H 2519.41 -5.54131 -2.56459 0
M  V30 27407 H 2520.83 -5.72511 -0.300598 0
M  V30 27408 H 2519.23 -5.98433 0.446918 0
M  V30 27409 H 2520.3 -4.7251 1.08913 0
M  V30 27410 N 2521.64 -0.208365 -1.56217 0
M  V30 27411 C 2522.59 0.720243 -2.16325 0
M  V30 27412 C 2523.57 1.16693 -1.10777 0
M  V30 27413 O 2524.76 1.12312 -1.36803 0
M  V30 27414 C 2521.89 1.93388 -2.83647 0
M  V30 27415 C 2520.98 1.50748 -3.96403 0
M  V30 27416 N 2521.37 0.79285 -4.99547 0
M  V30 27417 C 2519.67 1.79578 -4.0825 0
M  V30 27418 C 2520.37 0.577262 -5.78829 0
M  V30 27419 N 2519.35 1.13 -5.31725 0
M  V30 27420 H 2523.15 0.165674 -2.93433 0
M  V30 27421 H 2520.66 -0.00909318 -1.62397 0
M  V30 27422 H 2522.66 2.60975 -3.25111 0
M  V30 27423 H 2521.32 2.49305 -2.08032 0
M  V30 27424 H 2522.33 0.446913 -5.15968 0
M  V30 27425 H 2519.01 2.36909 -3.43774 0
M  V30 27426 H 2520.4 0.00941146 -6.71899 0
M  V30 27427 N 2523.12 1.57465 0.0651402 0
M  V30 27428 C 2524.39 1.78652 0.796408 0
M  V30 27429 C 2524.77 0.7976 1.95452 0
M  V30 27430 O 2524.12 -0.167906 2.27882 0
M  V30 27431 C 2524.33 3.25339 1.26316 0
M  V30 27432 C 2525.68 3.89351 1.69384 0
M  V30 27433 O 2526.7 3.2927 1.35866 0
M  V30 27434 O 2525.56 4.95063 2.31462 0
M  V30 27435 H 2522.66 0.733413 0.382144 0
M  V30 27436 H 2525.2 1.69641 0.0447013 0
M  V30 27437 H 2523.97 3.88877 0.434791 0
M  V30 27438 H 2523.6 3.391 2.07598 0
M  V30 27439 N 2524.59 -0.336679 1.53962 0
M  V30 27440 C 2525.84 -1.0736 1.70753 0
M  V30 27441 C 2526.16 -1.89591 0.481094 0
M  V30 27442 O 2527.36 -2.66275 0.530093 0
M  V30 27443 C 2525.82 -1.95813 3.01969 0
M  V30 27444 C 2525.43 -1.18756 4.31973 0
M  V30 27445 C 2527.17 -2.69321 3.28126 0
M  V30 27446 C 2525.08 -2.06279 5.54259 0
M  V30 27447 H 2524.01 -0.404523 0.636299 0
M  V30 27448 H 2526.66 -0.332649 1.8046 0
M  V30 27449 H 2525.04 -2.73755 2.86136 0
M  V30 27450 H 2526.21 -0.456768 4.58531 0
M  V30 27451 H 2524.53 -0.569873 4.12482 0
M  V30 27452 H 2527.13 -3.35087 4.16678 0
M  V30 27453 H 2527.47 -3.36257 2.45432 0
M  V30 27454 H 2528 -1.98448 3.44765 0
M  V30 27455 H 2524.74 -1.43873 6.39516 0
M  V30 27456 H 2524.26 -2.77128 5.3194 0
M  V30 27457 H 2525.94 -2.65172 5.90163 0
M  V30 27458 N 2526.07 -1.45812 -0.598057 0
M  V30 27459 C 2527.32 -1.50028 -1.3541 0
M  V30 27460 C 2527.64 -0.147211 -1.94444 0
M  V30 27461 O 2526.91 0.82454 -1.77702 0
M  V30 27462 H 2525.49 -0.552526 -0.502717 0
M  V30 27463 H 2528.15 -1.81835 -0.701574 0
M  V30 27464 H 2527.25 -2.24444 -2.16867 0
M  V30 27465 N 2527.55 0.841385 -1.33261 0
M  V30 27466 C 2528.96 1.41267 -1.22068 0
M  V30 27467 C 2529.31 1.95535 0.161445 0
M  V30 27468 O 2528.44 1.8861 1.06091 0
M  V30 27469 C 2529.03 2.56796 -2.21001 0
M  V30 27470 C 2527.59 3.09885 -2.13655 0
M  V30 27471 C 2526.74 1.82675 -2.08626 0
M  V30 27472 H 2529.69 0.64737 -1.44896 0
M  V30 27473 H 2529.71 3.34353 -1.81626 0
M  V30 27474 H 2529.22 2.17268 -3.21584 0
M  V30 27475 H 2527.32 3.53963 -1.16366 0
M  V30 27476 H 2527.44 3.70228 -3.04085 0
M  V30 27477 H 2525.8 2.02821 -1.54064 0
M  V30 27478 H 2526.58 1.45347 -3.11013 0
M  V30 27479 N 2529.03 1.16688 1.05932 0
M  V30 27480 C 2529.94 0.891222 2.17012 0
M  V30 27481 C 2530.96 -0.137877 1.73453 0
M  V30 27482 O 2532.13 0.0396274 2.01361 0
M  V30 27483 C 2529.2 0.400159 3.44383 0
M  V30 27484 C 2528.26 1.49493 4.0243 0
M  V30 27485 C 2527.49 1.02721 5.23721 0
M  V30 27486 O 2527.71 -0.121616 5.7027 0
M  V30 27487 O 2526.65 1.81709 5.73817 0
M  V30 27488 H 2530.47 1.8202 2.4311 0
M  V30 27489 H 2528.06 0.947153 1.1554 0
M  V30 27490 H 2529.94 0.133466 4.21189 0
M  V30 27491 H 2528.62 -0.500761 3.19803 0
M  V30 27492 H 2527.52 1.81541 3.27099 0
M  V30 27493 H 2528.86 2.37129 4.31313 0
M  V30 27494 N 2530.51 -1.24529 0.96594 0
M  V30 27495 C 2531.76 -1.91855 0.622471 0
M  V30 27496 C 2532.07 -1.76359 -0.845975 0
M  V30 27497 O 2533.28 -2.38359 -1.29989 0
M  V30 27498 C 2531.73 -3.43854 1.06266 0
M  V30 27499 C 2531.34 -3.68039 2.55444 0
M  V30 27500 C 2533.08 -4.17041 0.792256 0
M  V30 27501 C 2530.99 -5.136 2.93205 0
M  V30 27502 H 2529.92 -0.71835 0.229105 0
M  V30 27503 H 2532.57 -1.41204 1.17191 0
M  V30 27504 H 2530.95 -3.93531 0.441545 0
M  V30 27505 H 2532.13 -3.28969 3.22671 0
M  V30 27506 H 2530.44 -3.08134 2.80076 0
M  V30 27507 H 2533.04 -5.24281 1.05041 0
M  V30 27508 H 2533.38 -4.15414 -0.271511 0
M  V30 27509 H 2533.92 -3.73308 1.37426 0
M  V30 27510 H 2530.65 -5.20348 3.98645 0
M  V30 27511 H 2530.17 -5.53675 2.3066 0
M  V30 27512 H 2531.85 -5.81818 2.83014 0
M  V30 27513 N 2531.99 -0.735845 -1.39367 0
M  V30 27514 C 2533.4 -0.411519 -1.54203 0
M  V30 27515 C 2533.6 1.07752 -1.7027 0
M  V30 27516 O 2532.66 1.86363 -1.70367 0
M  V30 27517 C 2533.97 -1.19528 -2.75923 0
M  V30 27518 C 2535.52 -1.18359 -2.89759 0
M  V30 27519 C 2535.99 -1.94993 -4.14417 0
M  V30 27520 N 2537.48 -1.92164 -4.21459 0
M  V30 27521 C 2538.22 -2.48268 -5.16866 0
M  V30 27522 N 2537.72 -3.13012 -6.18058 0
M  V30 27523 N 2539.51 -2.38296 -5.09089 0
M  V30 27524 H 2531.66 -1.7011 -1.27186 0
M  V30 27525 H 2533.92 -0.720158 -0.616504 0
M  V30 27526 H 2533.63 -2.24897 -2.70397 0
M  V30 27527 H 2533.5 -0.800286 -3.68613 0
M  V30 27528 H 2535.89 -0.138027 -2.94777 0
M  V30 27529 H 2535.97 -1.61796 -1.9813 0
M  V30 27530 H 2535.61 -2.99551 -4.10161 0
M  V30 27531 H 2535.54 -1.48962 -5.05092 0
M  V30 27532 H 2538.04 -1.44997 -3.48976 0
M  V30 27533 H 2538.35 -3.53287 -6.8732 0
M  V30 27534 H 2536.69 -3.17102 -6.18443 0
M  V30 27535 H 2539.88 -1.87357 -4.2897 0
M  V30 27536 H 2540.06 -2.82318 -5.83267 0
M  V30 27537 N 2533.46 1.49999 -0.483543 0
M  V30 27538 C 2534.88 1.58999 -0.138432 0
M  V30 27539 C 2535.08 1.49052 1.35594 0
M  V30 27540 O 2534.14 1.35543 2.13036 0
M  V30 27541 C 2535.45 2.92446 -0.699709 0
M  V30 27542 C 2537 3.0587 -0.664249 0
M  V30 27543 C 2537.47 4.41911 -1.20328 0
M  V30 27544 N 2538.96 4.48356 -1.16323 0
M  V30 27545 C 2539.7 5.52034 -1.55068 0
M  V30 27546 N 2539.19 6.62903 -2.01323 0
M  V30 27547 N 2540.99 5.42648 -1.46593 0
M  V30 27548 H 2533.14 1.54707 -1.45532 0
M  V30 27549 H 2535.4 0.731837 -0.602593 0
M  V30 27550 H 2535.11 3.05239 -1.74706 0
M  V30 27551 H 2534.98 3.76901 -0.15026 0
M  V30 27552 H 2537.37 2.92718 0.374221 0
M  V30 27553 H 2537.45 2.23142 -1.25065 0
M  V30 27554 H 2537.09 4.55814 -2.24045 0
M  V30 27555 H 2537.02 5.23251 -0.592988 0
M  V30 27556 H 2539.51 3.68804 -0.824123 0
M  V30 27557 H 2539.83 7.38091 -2.29003 0
M  V30 27558 H 2538.17 6.6399 -2.05284 0
M  V30 27559 H 2541.36 4.54922 -1.10289 0
M  V30 27560 H 2541.54 6.23326 -1.77114 0
M  V30 27561 N 2534.94 0.216646 1.56104 0
M  V30 27562 C 2535.9 -0.681923 2.18821 0
M  V30 27563 C 2536.9 -1.12526 1.14868 0
M  V30 27564 O 2538.09 -1.03485 1.4013 0
M  V30 27565 C 2535.23 -1.93357 2.80759 0
M  V30 27566 H 2536.42 -0.135201 2.99595 0
M  V30 27567 H 2533.97 -0.0329729 1.56265 0
M  V30 27568 H 2534.71 -2.52228 2.03842 0
M  V30 27569 H 2534.49 -1.6242 3.56878 0
M  V30 27570 H 2535.98 -2.57387 3.28849 0
M  V30 27571 N 2536.42 -1.57498 -0.0567885 0
M  V30 27572 C 2537.67 -1.87159 -0.751968 0
M  V30 27573 C 2537.98 -0.811406 -1.77976 0
M  V30 27574 O 2539.19 -0.996338 -2.52558 0
M  V30 27575 C 2537.64 -3.32042 -1.38838 0
M  V30 27576 C 2537.25 -4.46225 -0.398377 0
M  V30 27577 C 2539 -3.70885 -2.06505 0
M  V30 27578 C 2536.9 -5.82156 -1.04156 0
M  V30 27579 H 2535.83 -0.698227 -0.284597 0
M  V30 27580 H 2538.48 -1.83499 -0.00558046 0
M  V30 27581 H 2536.87 -3.3036 -2.18354 0
M  V30 27582 H 2538.04 -4.59328 0.368058 0
M  V30 27583 H 2536.35 -4.16034 0.174665 0
M  V30 27584 H 2538.95 -4.69745 -2.55429 0
M  V30 27585 H 2539.29 -3.0145 -2.87112 0
M  V30 27586 H 2539.83 -3.74623 -1.33801 0
M  V30 27587 H 2536.57 -6.54921 -0.275498 0
M  V30 27588 H 2536.09 -5.72826 -1.7785 0
M  V30 27589 H 2537.77 -6.27985 -1.55704 0
M  V30 27590 N 2537.9 0.328509 -1.54138 0
M  V30 27591 C 2539.12 1.09109 -1.7638 0
M  V30 27592 C 2539.55 1.81093 -0.508628 0
M  V30 27593 O 2538.91 1.73085 0.539567 0
M  V30 27594 C 2538.95 2.06867 -2.95361 0
M  V30 27595 O 2538.06 3.14673 -2.66561 0
M  V30 27596 H 2537.4 0.314828 -0.584619 0
M  V30 27597 H 2539.93 0.374313 -2.01147 0
M  V30 27598 H 2539.94 2.49824 -3.22571 0
M  V30 27599 H 2538.61 1.53874 -3.86388 0
M  V30 27600 H 2537.19 2.76426 -2.50286 0
M  V30 27601 N 2539.38 1.46127 0.590316 0
M  V30 27602 C 2540.62 1.50744 1.34613 0
M  V30 27603 C 2540.94 0.15752 1.94363 0
M  V30 27604 O 2540.21 -0.815104 1.78137 0
M  V30 27605 H 2538.79 0.555184 0.49978 0
M  V30 27606 H 2541.46 1.82204 0.691921 0
M  V30 27607 H 2540.55 2.25591 2.15674 0
M  V30 27608 N 2540.85 -0.834306 1.33705 0
M  V30 27609 C 2542.13 -1.57481 1.16014 0
M  V30 27610 C 2542.51 -2.09344 -0.271723 0
M  V30 27611 O 2541.86 -1.8986 -1.27143 0
M  V30 27612 C 2542.07 -2.7051 2.20512 0
M  V30 27613 C 2543.42 -3.39572 2.54904 0
M  V30 27614 O 2544.44 -2.80755 2.19214 0
M  V30 27615 O 2543.3 -4.45759 3.16166 0
M  V30 27616 H 2540.39 -0.694495 0.449004 0
M  V30 27617 H 2542.94 -0.876666 1.45302 0
M  V30 27618 H 2541.71 -2.29859 3.16671 0
M  V30 27619 H 2541.33 -3.47984 1.92335 0
M  V30 27620 N 2542.33 -1.17248 -1.05312 0
M  V30 27621 C 2543.26 -0.9114 -2.14978 0
M  V30 27622 C 2544.24 0.146139 -1.69471 0
M  V30 27623 O 2545.43 -0.00384614 -1.942 0
M  V30 27624 C 2542.56 -0.422589 -3.44719 0
M  V30 27625 C 2541.51 -1.41917 -4.03786 0
M  V30 27626 C 2540.84 -0.788367 -5.28856 0
M  V30 27627 C 2542.14 -2.79198 -4.41413 0
M  V30 27628 H 2543.83 -1.82852 -2.37077 0
M  V30 27629 H 2541.38 -0.880589 -1.13937 0
M  V30 27630 H 2543.33 -0.227363 -4.20786 0
M  V30 27631 H 2542.05 0.530067 -3.2227 0
M  V30 27632 H 2540.71 -1.60112 -3.29787 0
M  V30 27633 H 2540.36 0.171085 -5.02709 0
M  V30 27634 H 2540.06 -1.45363 -5.69336 0
M  V30 27635 H 2541.59 -0.603389 -6.07611 0
M  V30 27636 H 2543 -2.64728 -5.08519 0
M  V30 27637 H 2541.4 -3.42291 -4.92907 0
M  V30 27638 H 2542.47 -3.337 -3.51813 0
M  V30 27639 N 2543.81 1.24015 -0.972531 0
M  V30 27640 C 2545.04 1.96264 -0.654837 0
M  V30 27641 C 2545.45 1.72085 0.776678 0
M  V30 27642 O 2544.81 1.00751 1.52169 0
M  V30 27643 C 2544.86 3.49439 -0.925981 0
M  V30 27644 O 2544.58 3.72794 -2.30122 0
M  V30 27645 C 2546.08 4.38898 -0.623146 0
M  V30 27646 H 2543.3 0.625096 -0.243918 0
M  V30 27647 H 2545.85 1.57715 -1.30178 0
M  V30 27648 H 2544 3.86033 -0.325176 0
M  V30 27649 H 2544.42 4.67143 -2.38491 0
M  V30 27650 H 2545.89 5.45208 -0.863285 0
M  V30 27651 H 2546.37 4.36963 0.442677 0
M  V30 27652 H 2546.97 4.079 -1.20407 0
M  V30 27653 N 2545.29 0.743226 1.38974 0
M  V30 27654 C 2546.25 0.117055 2.28901 0
M  V30 27655 C 2547.25 -0.658477 1.46699 0
M  V30 27656 O 2548.44 -0.486276 1.67275 0
M  V30 27657 C 2545.57 -0.843092 3.3031 0
M  V30 27658 H 2546.77 0.909423 2.85779 0
M  V30 27659 H 2544.32 0.509573 1.4776 0
M  V30 27660 H 2545.05 -1.66152 2.78503 0
M  V30 27661 H 2544.84 -0.289525 3.9103 0
M  V30 27662 H 2546.33 -1.27753 3.97579 0
M  V30 27663 N 2546.77 -1.4974 0.491491 0
M  V30 27664 C 2547.68 -2.32715 -0.296794 0
M  V30 27665 C 2548.69 -1.44015 -0.97651 0
M  V30 27666 O 2549.87 -1.77048 -0.959992 0
M  V30 27667 C 2546.93 -3.19217 -1.35283 0
M  V30 27668 C 2545.99 -4.23758 -0.687557 0
M  V30 27669 C 2545.23 -5.06126 -1.69328 0
M  V30 27670 O 2545.45 -4.89866 -2.92211 0
M  V30 27671 O 2544.38 -5.88696 -1.25384 0
M  V30 27672 H 2548.21 -3.01287 0.382101 0
M  V30 27673 H 2545.8 -1.47243 0.252979 0
M  V30 27674 H 2547.68 -3.72831 -1.96404 0
M  V30 27675 H 2546.35 -2.53351 -2.01482 0
M  V30 27676 H 2545.26 -3.74082 -0.0368502 0
M  V30 27677 H 2546.59 -4.92153 -0.0681701 0
M  V30 27678 N 2548.24 -0.224922 -1.55987 0
M  V30 27679 C 2549.15 0.69507 -2.24067 0
M  V30 27680 C 2550.17 1.21102 -1.24941 0
M  V30 27681 O 2551.35 1.25192 -1.57762 0
M  V30 27682 C 2548.41 1.88488 -2.90987 0
M  V30 27683 C 2547.47 1.41057 -4.05464 0
M  V30 27684 C 2546.71 2.54367 -4.69184 0
M  V30 27685 O 2546.93 3.72581 -4.31902 0
M  V30 27686 O 2545.86 2.25376 -5.58112 0
M  V30 27687 H 2549.69 0.145096 -3.03353 0
M  V30 27688 H 2547.27 0.0056685 -1.49399 0
M  V30 27689 H 2549.16 2.57966 -3.33214 0
M  V30 27690 H 2547.83 2.42289 -2.14657 0
M  V30 27691 H 2546.74 0.68371 -3.67799 0
M  V30 27692 H 2548.07 0.9189 -4.83546 0
M  V30 27693 N 2549.72 1.57526 0.0484352 0
M  V30 27694 C 2550.63 2.08656 1.07237 0
M  V30 27695 C 2551.65 1.02097 1.40898 0
M  V30 27696 O 2552.82 1.33715 1.50606 0
M  V30 27697 C 2549.89 2.53975 2.36004 0
M  V30 27698 C 2548.95 3.74933 2.09101 0
M  V30 27699 C 2548.18 4.18081 3.31729 0
M  V30 27700 O 2548.41 3.60903 4.41708 0
M  V30 27701 O 2547.34 5.10685 3.18567 0
M  V30 27702 H 2551.17 2.96264 0.667913 0
M  V30 27703 H 2548.75 1.47046 0.264144 0
M  V30 27704 H 2550.63 2.8354 3.11742 0
M  V30 27705 H 2549.31 1.69486 2.75783 0
M  V30 27706 H 2548.22 3.50416 1.30993 0
M  V30 27707 H 2549.55 4.60346 1.7419 0
M  V30 27708 N 2551.2 -0.32033 1.5431 0
M  V30 27709 C 2552.13 -1.39947 1.86915 0
M  V30 27710 C 2553.11 -1.53817 0.726238 0
M  V30 27711 O 2554.3 -1.67644 0.980262 0
M  V30 27712 C 2551.43 -2.76666 2.09936 0
M  V30 27713 C 2550.38 -2.77581 3.25781 0
M  V30 27714 C 2549.71 -4.17406 3.34181 0
M  V30 27715 C 2551.01 -2.4104 4.63354 0
M  V30 27716 H 2552.7 -1.12909 2.77294 0
M  V30 27717 H 2550.25 -0.541715 1.33422 0
M  V30 27718 H 2552.2 -3.52228 2.3133 0
M  V30 27719 H 2550.92 -3.05188 1.1631 0
M  V30 27720 H 2549.58 -2.04474 3.04279 0
M  V30 27721 H 2549.23 -4.43074 2.38106 0
M  V30 27722 H 2548.93 -4.18923 4.1204 0
M  V30 27723 H 2550.45 -4.94776 3.57812 0
M  V30 27724 H 2551.87 -3.06315 4.84607 0
M  V30 27725 H 2550.27 -2.53803 5.43787 0
M  V30 27726 H 2551.34 -1.36185 4.65383 0
M  V30 27727 N 2552.68 -1.46438 -0.582558 0
M  V30 27728 C 2553.96 -1.42232 -1.34274 0
M  V30 27729 C 2554.34 -0.105867 -2.10834 0
M  V30 27730 O 2553.68 0.912559 -2.09487 0
M  V30 27731 C 2553.89 -2.65208 -2.26861 0
M  V30 27732 C 2555.24 -3.11362 -2.88685 0
M  V30 27733 O 2556.27 -2.65757 -2.37174 0
M  V30 27734 O 2555.12 -3.90574 -3.82248 0
M  V30 27735 H 2552.22 -0.565631 -0.603316 0
M  V30 27736 H 2554.76 -1.58604 -0.603563 0
M  V30 27737 H 2553.54 -3.52579 -1.69717 0
M  V30 27738 H 2553.16 -2.51295 -3.08117 0
M  V30 27739 N 2554.16 0.827204 -1.34146 0
M  V30 27740 C 2555.1 1.93782 -1.25367 0
M  V30 27741 C 2556.07 1.65592 -0.129803 0
M  V30 27742 O 2557.26 1.88264 -0.310057 0
M  V30 27743 C 2554.4 3.29968 -1.0107 0
M  V30 27744 C 2553.51 3.7048 -2.22191 0
M  V30 27745 C 2552.65 4.95592 -1.91212 0
M  V30 27746 C 2551.69 5.28672 -3.085 0
M  V30 27747 N 2550.82 6.44962 -2.77432 0
M  V30 27748 H 2555.66 2.00623 -2.20351 0
M  V30 27749 H 2553.2 0.981589 -1.09559 0
M  V30 27750 H 2555.16 4.08445 -0.850211 0
M  V30 27751 H 2553.79 3.22653 -0.0975593 0
M  V30 27752 H 2552.84 2.8743 -2.49175 0
M  V30 27753 H 2554.15 3.909 -3.09837 0
M  V30 27754 H 2553.31 5.81845 -1.71875 0
M  V30 27755 H 2552.04 4.77165 -1.0082 0
M  V30 27756 H 2551.05 4.40918 -3.28438 0
M  V30 27757 H 2552.27 5.4904 -3.99664 0
M  V30 27758 H 2550.22 6.27999 -1.89612 0
M  V30 27759 H 2550.14 6.65534 -3.5861 0
M  V30 27760 H 2551.41 7.34296 -2.61589 0
M  V30 27761 N 2555.63 1.17805 1.04688 0
M  V30 27762 C 2556.6 0.901582 2.10723 0
M  V30 27763 C 2557.6 -0.110409 1.60421 0
M  V30 27764 O 2558.79 0.122334 1.7377 0
M  V30 27765 C 2555.92 0.351469 3.39083 0
M  V30 27766 H 2557.11 1.84178 2.36682 0
M  V30 27767 H 2554.67 0.989211 1.21014 0
M  V30 27768 H 2555.4 -0.595634 3.18783 0
M  V30 27769 H 2555.19 1.08089 3.76907 0
M  V30 27770 H 2556.68 0.176524 4.17227 0
M  V30 27771 N 2557.11 -1.23497 0.979094 0
M  V30 27772 C 2558.05 -2.23452 0.463066 0
M  V30 27773 C 2559.02 -1.55686 -0.469101 0
M  V30 27774 O 2560.21 -1.84254 -0.397849 0
M  V30 27775 C 2557.33 -3.37086 -0.330249 0
M  V30 27776 C 2556.38 -4.22992 0.545869 0
M  V30 27777 S 2557.21 -4.97033 1.99294 0
M  V30 27778 C 2558.37 -6.14118 1.20873 0
M  V30 27779 H 2558.6 -2.66878 1.3101 0
M  V30 27780 H 2556.14 -1.32956 0.784989 0
M  V30 27781 H 2558.09 -4.02983 -0.781956 0
M  V30 27782 H 2556.75 -2.92196 -1.15239 0
M  V30 27783 H 2555.95 -5.0396 -0.0638042 0
M  V30 27784 H 2555.55 -3.62156 0.933768 0
M  V30 27785 H 2557.84 -6.75872 0.469403 0
M  V30 27786 H 2558.78 -6.79469 1.99319 0
M  V30 27787 H 2559.19 -5.59785 0.728091 0
M  V30 27788 N 2558.59 -0.750586 -1.38578 0
M  V30 27789 C 2559.54 -0.120876 -2.30483 0
M  V30 27790 C 2560.51 0.712896 -1.50023 0
M  V30 27791 O 2561.69 0.669645 -1.78663 0
M  V30 27792 C 2558.83 0.768606 -3.36432 0
M  V30 27793 C 2557.95 -0.0794681 -4.31927 0
M  V30 27794 C 2557.08 0.812737 -5.24946 0
M  V30 27795 C 2556.12 -0.0391523 -6.12087 0
M  V30 27796 N 2555.26 0.809846 -6.97414 0
M  V30 27797 H 2560.1 -0.9102 -2.83759 0
M  V30 27798 H 2557.63 -0.460488 -1.39707 0
M  V30 27799 H 2559.59 1.29891 -3.96464 0
M  V30 27800 H 2558.22 1.52375 -2.84573 0
M  V30 27801 H 2557.27 -0.727369 -3.73381 0
M  V30 27802 H 2558.59 -0.737488 -4.93318 0
M  V30 27803 H 2557.74 1.41032 -5.9008 0
M  V30 27804 H 2556.48 1.5045 -4.63914 0
M  V30 27805 H 2555.48 -0.649424 -5.45951 0
M  V30 27806 H 2556.71 -0.727928 -6.75187 0
M  V30 27807 H 2554.66 1.48661 -6.38933 0
M  V30 27808 H 2554.57 0.208657 -7.55712 0
M  V30 27809 H 2555.84 1.3925 -7.66961 0
M  V30 27810 N 2560.07 1.49477 -0.499425 0
M  V30 27811 C 2560.98 2.32869 0.284448 0
M  V30 27812 C 2562 1.44531 0.968859 0
M  V30 27813 O 2563.17 1.77555 0.950589 0
M  V30 27814 C 2560.24 3.1993 1.33588 0
M  V30 27815 C 2559.3 4.24117 0.665075 0
M  V30 27816 C 2558.53 5.07017 1.66641 0
M  V30 27817 O 2558.75 4.91409 2.89609 0
M  V30 27818 O 2557.69 5.89352 1.2226 0
M  V30 27819 H 2561.51 3.0108 -0.398073 0
M  V30 27820 H 2559.1 1.47106 -0.260784 0
M  V30 27821 H 2560.98 3.73868 1.94424 0
M  V30 27822 H 2559.66 2.54416 2.00136 0
M  V30 27823 H 2558.56 3.74096 0.0170112 0
M  V30 27824 H 2559.9 4.92182 0.042069 0
M  V30 27825 N 2561.55 0.233191 1.55865 0
M  V30 27826 C 2562.51 -0.658676 2.19532 0
M  V30 27827 C 2563.51 -1.11301 1.16055 0
M  V30 27828 O 2564.7 -1.01993 1.4122 0
M  V30 27829 C 2561.83 -1.90368 2.82794 0
M  V30 27830 H 2563.03 -0.103418 2.99722 0
M  V30 27831 H 2560.58 -0.016397 1.56291 0
M  V30 27832 H 2561.31 -2.50052 2.06505 0
M  V30 27833 H 2561.1 -1.58626 3.58581 0
M  V30 27834 H 2562.59 -2.53885 3.3156 0
M  V30 27835 N 2563.03 -1.57549 -0.0400806 0
M  V30 27836 C 2564.27 -1.89044 -0.734178 0
M  V30 27837 C 2564.6 -0.829566 -1.7559 0
M  V30 27838 O 2563.88 0.156672 -1.93868 0
M  V30 27839 C 2564.16 -3.3119 -1.41368 0
M  V30 27840 C 2564.02 -4.47962 -0.406221 0
M  V30 27841 C 2565.33 -3.72072 -2.35054 0
M  V30 27842 H 2562.45 -0.687542 -0.265435 0
M  V30 27843 H 2565.1 -1.9 0.00297427 0
M  V30 27844 H 2563.25 -3.30506 -2.042 0
M  V30 27845 H 2564.92 -4.60778 0.219336 0
M  V30 27846 H 2563.16 -4.32924 0.275561 0
M  V30 27847 H 2563.83 -5.44281 -0.919927 0
M  V30 27848 H 2566.31 -3.74052 -1.82275 0
M  V30 27849 H 2565.18 -4.7236 -2.79585 0
M  V30 27850 H 2565.44 -3.03726 -3.21252 0
M  V30 27851 N 2564.5 0.312142 -1.54478 0
M  V30 27852 C 2565.73 1.07232 -1.77528 0
M  V30 27853 C 2566.15 1.80543 -0.527807 0
M  V30 27854 O 2565.51 1.73647 0.521179 0
M  V30 27855 C 2565.56 2.03723 -2.97539 0
M  V30 27856 O 2564.66 3.11828 -2.69884 0
M  V30 27857 H 2564 0.308609 -0.587925 0
M  V30 27858 H 2566.53 0.352957 -2.01533 0
M  V30 27859 H 2566.54 2.46389 -3.25202 0
M  V30 27860 H 2565.22 1.49767 -3.87998 0
M  V30 27861 H 2563.8 2.73755 -2.53204 0
M  V30 27862 N 2565.98 1.46745 0.574784 0
M  V30 27863 C 2566.94 1.57481 1.66531 0
M  V30 27864 C 2567.94 0.45129 1.54337 0
M  V30 27865 O 2569.13 0.715841 1.58812 0
M  V30 27866 C 2566.27 1.50264 3.05996 0
M  V30 27867 H 2567.46 2.54676 1.58367 0
M  V30 27868 H 2565.01 1.34673 0.793278 0
M  V30 27869 H 2565.75 0.543781 3.19708 0
M  V30 27870 H 2565.53 2.31787 3.16255 0
M  V30 27871 H 2567.02 1.60879 3.85367 0
M  V30 27872 N 2567.46 -0.820078 1.34583 0
M  V30 27873 C 2568.42 -1.91273 1.26283 0
M  V30 27874 C 2569.42 -1.59819 0.177372 0
M  V30 27875 O 2570.61 -1.68805 0.430186 0
M  V30 27876 C 2567.74 -3.27384 0.950385 0
M  V30 27877 H 2568.94 -2.00054 2.23425 0
M  V30 27878 H 2566.49 -1.01438 1.18912 0
M  V30 27879 H 2567.23 -3.24295 -0.0177368 0
M  V30 27880 H 2567.01 -3.51598 1.73556 0
M  V30 27881 H 2568.5 -4.07395 0.917564 0
M  V30 27882 N 2568.94 -1.18359 -1.04062 0
M  V30 27883 C 2570.16 -1.00448 -1.81452 0
M  V30 27884 C 2570.59 0.44239 -1.82824 0
M  V30 27885 O 2569.95 1.31739 -1.24557 0
M  V30 27886 C 2569.99 -1.5639 -3.24923 0
M  V30 27887 O 2569.1 -0.78528 -4.04854 0
M  V30 27888 H 2568.44 -0.355845 -0.560598 0
M  V30 27889 H 2570.97 -1.57116 -1.31056 0
M  V30 27890 H 2570.98 -1.59103 -3.757 0
M  V30 27891 H 2569.65 -2.61705 -3.23239 0
M  V30 27892 H 2568.23 -0.830462 -3.63535 0
M  V30 27893 N 2570.42 1.22976 -0.98563 0
M  V30 27894 C 2571.33 2.28334 -0.538588 0
M  V30 27895 C 2572.34 1.69122 0.409134 0
M  V30 27896 O 2573.52 1.99475 0.277762 0
M  V30 27897 C 2570.58 3.46389 0.146807 0
M  V30 27898 C 2569.64 4.20942 -0.84297 0
M  V30 27899 C 2568.88 5.33361 -0.190188 0
M  V30 27900 O 2569.1 5.6125 1.01757 0
M  V30 27901 O 2568.03 5.95263 -0.891393 0
M  V30 27902 H 2571.86 2.68726 -1.41492 0
M  V30 27903 H 2569.44 1.29006 -0.753517 0
M  V30 27904 H 2571.33 4.1804 0.531051 0
M  V30 27905 H 2570 3.07937 0.997817 0
M  V30 27906 H 2568.91 3.51593 -1.27801 0
M  V30 27907 H 2570.24 4.63257 -1.66295 0
M  V30 27908 N 2571.89 0.757924 1.38178 0
M  V30 27909 C 2573.17 0.24134 1.94105 0
M  V30 27910 C 2573.55 -1.26119 1.69285 0
M  V30 27911 O 2572.9 -2.03775 1.03382 0
M  V30 27912 C 2573.11 0.59973 3.43808 0
M  V30 27913 C 2574.46 0.561791 4.20867 0
M  V30 27914 O 2575.48 0.538284 3.52109 0
M  V30 27915 O 2574.34 0.576574 5.4345 0
M  V30 27916 H 2571.43 0.0518187 0.825375 0
M  V30 27917 H 2573.98 0.838341 1.47546 0
M  V30 27918 H 2572.75 1.63726 3.55401 0
M  V30 27919 H 2572.37 -0.0250498 3.97592 0
M  V30 27920 N 2573.37 -1.4921 0.507345 0
M  V30 27921 C 2574.65 -1.95353 -0.0982359 0
M  V30 27922 C 2575.03 -1.44903 -1.53513 0
M  V30 27923 O 2574.38 -0.665548 -2.18593 0
M  V30 27924 C 2574.59 -3.49 -0.00434148 0
M  V30 27925 C 2575.94 -4.24239 -0.175072 0
M  V30 27926 O 2576.96 -3.56112 -0.0792265 0
M  V30 27927 O 2575.82 -5.45228 -0.372664 0
M  V30 27928 H 2572.91 -0.821888 -0.0918091 0
M  V30 27929 H 2575.46 -1.59829 0.570335 0
M  V30 27930 H 2574.23 -3.78373 0.997468 0
M  V30 27931 H 2573.85 -3.91159 -0.712776 0
M  V30 27932 N 2574.85 -0.241454 -1.55739 0
M  V30 27933 C 2576.1 0.385261 -1.97986 0
M  V30 27934 C 2576.41 1.59466 -1.13269 0
M  V30 27935 O 2577.62 2.29217 -1.45505 0
M  V30 27936 C 2576.07 0.736823 -3.52277 0
M  V30 27937 C 2575.68 -0.450875 -4.45725 0
M  V30 27938 C 2577.43 1.32803 -4.03192 0
M  V30 27939 C 2575.33 -0.0757702 -5.91351 0
M  V30 27940 H 2574.26 0.147718 -0.739389 0
M  V30 27941 H 2576.91 -0.34081 -1.80307 0
M  V30 27942 H 2575.3 1.52087 -3.6563 0
M  V30 27943 H 2576.47 -1.22827 -4.44129 0
M  V30 27944 H 2574.79 -0.956645 -4.05262 0
M  V30 27945 H 2577.38 1.62192 -5.09508 0
M  V30 27946 H 2577.73 2.25065 -3.50216 0
M  V30 27947 H 2578.26 0.607 -3.93142 0
M  V30 27948 H 2575 -0.965386 -6.48352 0
M  V30 27949 H 2574.52 0.66553 -5.96096 0
M  V30 27950 H 2576.2 0.343962 -6.46085 0
M  V30 27951 N 2576.33 1.57568 0.0317248 0
M  V30 27952 C 2577.58 1.89151 0.723071 0
M  V30 27953 C 2577.9 0.838408 1.75502 0
M  V30 27954 O 2577.16 -0.160948 1.95037 0
M  V30 27955 C 2577.46 3.27475 1.43161 0
M  V30 27956 C 2577.12 4.47704 0.535893 0
M  V30 27957 C 2575.79 4.8033 0.289178 0
M  V30 27958 C 2578.14 5.21134 -0.0827041 0
M  V30 27959 C 2575.47 5.83777 -0.584956 0
M  V30 27960 C 2577.82 6.25509 -0.944524 0
M  V30 27961 C 2576.48 6.56612 -1.20073 0
M  V30 27962 H 2575.75 0.692151 0.26459 0
M  V30 27963 H 2578.4 1.91492 -0.0169833 0
M  V30 27964 H 2576.7 3.21109 2.24492 0
M  V30 27965 H 2578.4 3.49159 1.97203 0
M  V30 27966 H 2574.99 4.22193 0.738339 0
M  V30 27967 H 2579.17 4.96209 0.094943 0
M  V30 27968 H 2574.43 6.06251 -0.791787 0
M  V30 27969 H 2578.6 6.81552 -1.43038 0
M  V30 27970 H 2576.23 7.36592 -1.8798 0
M  V30 27971 N 2577.81 -0.303946 1.54641 0
M  V30 27972 C 2579.22 -0.649437 1.45789 0
M  V30 27973 C 2579.42 -1.90841 0.646693 0
M  V30 27974 O 2578.48 -2.52035 0.153227 0
M  V30 27975 C 2579.79 -0.805176 2.8972 0
M  V30 27976 C 2581.34 -0.901252 2.99744 0
M  V30 27977 C 2581.81 -1.08901 4.44865 0
M  V30 27978 N 2583.31 -1.15529 4.48561 0
M  V30 27979 C 2584.04 -1.31881 5.58028 0
M  V30 27980 N 2583.54 -1.45149 6.77424 0
M  V30 27981 N 2585.33 -1.34745 5.45711 0
M  V30 27982 H 2577.48 0.523273 2.05853 0
M  V30 27983 H 2579.74 0.172447 0.932183 0
M  V30 27984 H 2579.45 0.0489726 3.51666 0
M  V30 27985 H 2579.32 -1.69507 3.36967 0
M  V30 27986 H 2581.71 -1.74589 2.37913 0
M  V30 27987 H 2581.79 0.0125981 2.55797 0
M  V30 27988 H 2581.44 -0.249152 5.07289 0
M  V30 27989 H 2581.37 -2.01704 4.86439 0
M  V30 27990 H 2583.86 -1.06639 3.62542 0
M  V30 27991 H 2584.17 -1.57373 7.56607 0
M  V30 27992 H 2582.51 -1.42211 6.80295 0
M  V30 27993 H 2585.71 -1.23988 4.51381 0
M  V30 27994 H 2585.88 -1.47146 6.31072 0
M  V30 27995 N 2579.28 -1.47047 -0.566994 0
M  V30 27996 C 2580.7 -1.32349 -0.891951 0
M  V30 27997 C 2580.9 -0.306651 -1.99153 0
M  V30 27998 O 2579.96 0.285276 -2.50883 0
M  V30 27999 C 2581.27 -2.71413 -1.29444 0
M  V30 28000 C 2582.82 -2.79623 -1.40641 0
M  V30 28001 C 2583.29 -4.19304 -1.8425 0
M  V30 28002 N 2584.78 -4.21798 -1.91417 0
M  V30 28003 C 2585.52 -5.26783 -2.26467 0
M  V30 28004 N 2585.01 -6.42081 -2.60199 0
M  V30 28005 N 2586.81 -5.14156 -2.27157 0
M  V30 28006 H 2578.96 -2.11803 0.159111 0
M  V30 28007 H 2581.22 -0.947962 0.00851418 0
M  V30 28008 H 2580.93 -3.47207 -0.560387 0
M  V30 28009 H 2580.8 -3.02546 -2.25268 0
M  V30 28010 H 2583.19 -2.04107 -2.1313 0
M  V30 28011 H 2583.27 -2.52155 -0.430294 0
M  V30 28012 H 2582.91 -4.95321 -1.12335 0
M  V30 28013 H 2582.84 -4.4419 -2.82847 0
M  V30 28014 H 2585.33 -3.38615 -1.67774 0
M  V30 28015 H 2585.65 -7.17953 -2.85943 0
M  V30 28016 H 2583.99 -6.45417 -2.57802 0
M  V30 28017 H 2587.18 -4.23111 -2.00237 0
M  V30 28018 H 2587.36 -5.96083 -2.54144 0
M  V30 28019 N 2580.76 0.812929 -1.35016 0
M  V30 28020 C 2581.73 1.906 -1.27296 0
M  V30 28021 C 2582.73 1.59722 -0.185845 0
M  V30 28022 O 2583.92 1.68574 -0.439132 0
M  V30 28023 C 2581.05 3.26876 -0.967733 0
M  V30 28024 H 2582.24 1.98866 -2.24482 0
M  V30 28025 H 2579.79 1.00806 -1.19448 0
M  V30 28026 H 2580.53 3.243 0.000538396 0
M  V30 28027 H 2580.31 3.50672 -1.75418 0
M  V30 28028 H 2581.8 4.06902 -0.939156 0
M  V30 28029 N 2582.24 1.18909 1.03433 0
M  V30 28030 C 2583.49 0.986413 1.76392 0
M  V30 28031 C 2583.81 -0.484534 1.88884 0
M  V30 28032 O 2583.08 -1.35117 1.41846 0
M  V30 28033 H 2581.66 0.361986 0.653433 0
M  V30 28034 H 2584.32 1.49705 1.24797 0
M  V30 28035 H 2583.42 1.42982 2.77421 0
M  V30 28036 N 2583.72 -1.22452 0.992137 0
M  V30 28037 C 2584.97 -1.90802 0.666249 0
M  V30 28038 C 2585.29 -1.77648 -0.80412 0
M  V30 28039 O 2584.56 -1.16321 -1.57627 0
M  V30 28040 H 2583.14 -0.706221 0.243435 0
M  V30 28041 H 2585.8 -1.48823 1.25848 0
M  V30 28042 H 2584.9 -2.9798 0.928121 0
M  V30 28043 N 2585.2 -0.765242 -1.37774 0
M  V30 28044 C 2586.13 -0.160994 -2.32944 0
M  V30 28045 C 2587.11 0.690488 -1.55455 0
M  V30 28046 O 2588.29 0.629286 -1.83722 0
M  V30 28047 C 2585.42 0.723971 -3.3967 0
M  V30 28048 C 2584.38 -0.0256925 -4.27992 0
M  V30 28049 C 2583.7 0.97829 -5.25674 0
M  V30 28050 C 2585 -1.20091 -5.08306 0
M  V30 28051 H 2586.7 -0.956019 -2.83726 0
M  V30 28052 H 2584.24 -0.461173 -1.36416 0
M  V30 28053 H 2586.2 1.15645 -4.05221 0
M  V30 28054 H 2584.92 1.55144 -2.87398 0
M  V30 28055 H 2583.58 -0.438876 -3.63964 0
M  V30 28056 H 2583.23 1.80014 -4.69685 0
M  V30 28057 H 2582.93 0.481275 -5.85626 0
M  V30 28058 H 2584.45 1.40984 -5.94101 0
M  V30 28059 H 2585.86 -0.845407 -5.67032 0
M  V30 28060 H 2584.26 -1.62957 -5.77551 0
M  V30 28061 H 2585.33 -2.00819 -4.41361 0
M  V30 28062 N 2586.67 1.48939 -0.515251 0
M  V30 28063 C 2587.92 2.02486 0.0241794 0
M  V30 28064 C 2588.25 1.39371 1.35669 0
M  V30 28065 O 2587.5 0.523607 1.88565 0
M  V30 28066 C 2587.8 3.56779 0.210532 0
M  V30 28067 C 2587.47 4.38605 -1.04576 0
M  V30 28068 C 2586.13 4.60684 -1.3901 0
M  V30 28069 C 2588.48 4.86106 -1.88017 0
M  V30 28070 C 2585.81 5.27509 -2.56809 0
M  V30 28071 C 2588.16 5.54228 -3.04982 0
M  V30 28072 C 2586.83 5.74549 -3.39779 0
M  V30 28073 H 2586.1 0.740947 0.00884786 0
M  V30 28074 H 2588.74 1.79085 -0.678294 0
M  V30 28075 H 2587.05 3.78938 0.995653 0
M  V30 28076 H 2588.75 3.95818 0.64259 0
M  V30 28077 H 2585.34 4.21671 -0.767571 0
M  V30 28078 H 2589.52 4.68864 -1.62727 0
M  V30 28079 H 2584.78 5.41442 -2.8399 0
M  V30 28080 H 2588.95 5.90007 -3.69953 0
M  V30 28081 H 2586.58 6.26104 -4.31159 0
M  V30 28082 N 2588.15 0.249709 1.55609 0
M  V30 28083 C 2589.4 -0.373513 1.98618 0
M  V30 28084 C 2589.72 -1.58262 1.13922 0
M  V30 28085 O 2588.99 -1.9463 0.222671 0
M  V30 28086 H 2587.57 -0.140993 0.733573 0
M  V30 28087 H 2590.23 0.34915 1.91747 0
M  V30 28088 H 2589.33 -0.680743 3.04585 0
M  V30 28089 N 2589.63 -1.57583 -0.0233682 0
M  V30 28090 C 2590.58 -2.08025 -1.04059 0
M  V30 28091 C 2591.57 -0.995228 -1.37082 0
M  V30 28092 O 2592.78 -1.18007 -1.35921 0
M  V30 28093 H 2589.15 -0.663929 -0.353133 0
M  V30 28094 H 2591.13 -2.92521 -0.589402 0
M  V30 28095 C 2589.87 -2.57975 -2.33119 0
M  V30 28096 H 2589.2 -3.41084 -2.08571 0
M  V30 28097 H 2590.64 -2.96973 -3.02627 0
M  V30 28098 C 2589.1 -1.48348 -3.02481 0
M  V30 28099 O 2589.63 -0.852967 -3.9254 0
M  V30 28100 N 2587.83 -1.21662 -2.63906 0
M  V30 28101 H 2587.38 -1.73119 -1.90755 0
M  V30 28102 H 2587.34 -0.485272 -3.10632 0
M  V30 28103 N 2591.11 0.29574 -1.548 0
M  V30 28104 C 2592.06 1.36667 -1.825 0
M  V30 28105 C 2593.04 1.4571 -0.68246 0
M  V30 28106 O 2594.24 1.49773 -0.943234 0
M  V30 28107 C 2591.36 2.73083 -2.0804 0
M  V30 28108 C 2590.45 2.68242 -3.28492 0
M  V30 28109 N 2590.84 2.33017 -4.48929 0
M  V30 28110 C 2589.14 2.99337 -3.30626 0
M  V30 28111 C 2589.84 2.37604 -5.30961 0
M  V30 28112 N 2588.82 2.7517 -4.6881 0
M  V30 28113 H 2592.62 1.08405 -2.73177 0
M  V30 28114 H 2590.13 0.504333 -1.5437 0
M  V30 28115 H 2592.13 3.50306 -2.26033 0
M  V30 28116 H 2590.79 3.02252 -1.18634 0
M  V30 28117 H 2591.8 2.05381 -4.75436 0
M  V30 28118 H 2588.48 3.33367 -2.51342 0
M  V30 28119 H 2589.87 2.13124 -6.37203 0
M  V30 28120 N 2592.59 1.47346 0.559187 0
M  V30 28121 C 2593.83 1.54097 1.3184 0
M  V30 28122 C 2594.17 0.20176 1.93149 0
M  V30 28123 O 2593.44 -0.789397 1.7776 0
M  V30 28124 C 2593.72 2.65749 2.43001 0
M  V30 28125 C 2593.58 4.0928 1.86574 0
M  V30 28126 C 2594.9 2.73324 3.44938 0
M  V30 28127 H 2592.02 0.560966 0.478002 0
M  V30 28128 H 2594.66 1.79393 0.625945 0
M  V30 28129 H 2592.81 2.44311 3.02067 0
M  V30 28130 H 2594.48 4.42075 1.31784 0
M  V30 28131 H 2592.72 4.17651 1.17261 0
M  V30 28132 H 2593.39 4.83172 2.66924 0
M  V30 28133 H 2595.87 2.92659 2.95787 0
M  V30 28134 H 2594.75 3.53225 4.20147 0
M  V30 28135 H 2595.01 1.80304 4.03662 0
M  V30 28136 N 2594.07 -0.805758 1.35445 0
M  V30 28137 C 2595.29 -1.59938 1.3204 0
M  V30 28138 C 2595.72 -1.87837 -0.0993885 0
M  V30 28139 O 2595.07 -1.46617 -1.06645 0
M  V30 28140 C 2595.12 -2.90707 2.13359 0
M  V30 28141 O 2594.23 -3.83569 1.51487 0
M  V30 28142 H 2593.57 -0.485779 0.452675 0
M  V30 28143 H 2596.1 -0.999987 1.78498 0
M  V30 28144 H 2596.11 -3.40124 2.25344 0
M  V30 28145 H 2594.78 -2.69726 3.16577 0
M  V30 28146 H 2593.36 -3.42122 1.48346 0
M  V30 28147 N 2595.54 -1.19456 -1.02801 0
M  V30 28148 C 2596.77 -1.02152 -1.79579 0
M  V30 28149 C 2597.18 0.432819 -1.84183 0
M  V30 28150 O 2596.52 1.3124 -1.28537 0
M  V30 28151 C 2596.59 -1.5156 -3.2599 0
M  V30 28152 C 2596.25 -2.99684 -3.4502 0
M  V30 28153 C 2597.25 -3.9744 -3.35168 0
M  V30 28154 C 2594.93 -3.38396 -3.71206 0
M  V30 28155 C 2596.93 -5.31899 -3.51229 0
M  V30 28156 C 2594.61 -4.73014 -3.86912 0
M  V30 28157 C 2595.61 -5.69575 -3.76926 0
M  V30 28158 O 2595.3 -7.01755 -3.92167 0
M  V30 28159 H 2595.03 -0.360337 -0.571955 0
M  V30 28160 H 2597.59 -1.58727 -1.30365 0
M  V30 28161 H 2595.82 -0.893609 -3.76233 0
M  V30 28162 H 2597.5 -1.30451 -3.84366 0
M  V30 28163 H 2598.27 -3.68877 -3.14888 0
M  V30 28164 H 2594.15 -2.63787 -3.78071 0
M  V30 28165 H 2597.69 -6.07253 -3.43351 0
M  V30 28166 H 2593.59 -5.01272 -4.0669 0
M  V30 28167 H 2594.36 -7.0884 -4.09253 0
M  V30 28168 N 2597.02 1.21924 -0.998617 0
M  V30 28169 C 2598.25 1.94548 -0.695311 0
M  V30 28170 C 2598.66 1.73913 0.745049 0
M  V30 28171 O 2598 1.03883 1.51506 0
M  V30 28172 C 2598.06 3.47301 -0.928546 0
M  V30 28173 C 2597.73 3.91679 -2.3545 0
M  V30 28174 C 2598.73 3.98895 -3.33435 0
M  V30 28175 C 2596.41 4.2417 -2.69045 0
M  V30 28176 C 2598.4 4.37984 -4.63086 0
M  V30 28177 C 2596.09 4.62937 -3.98915 0
M  V30 28178 C 2597.09 4.69813 -4.95746 0
M  V30 28179 O 2596.78 5.077 -6.23294 0
M  V30 28180 H 2596.51 0.625687 -0.255913 0
M  V30 28181 H 2599.06 1.55868 -1.3377 0
M  V30 28182 H 2597.29 3.86021 -0.228985 0
M  V30 28183 H 2598.98 4.01143 -0.619609 0
M  V30 28184 H 2599.75 3.73977 -3.08814 0
M  V30 28185 H 2595.63 4.18019 -1.94375 0
M  V30 28186 H 2599.17 4.43266 -5.38666 0
M  V30 28187 H 2595.07 4.87307 -4.23323 0
M  V30 28188 H 2595.84 5.25755 -6.27315 0
M  V30 28189 N 2598.5 0.772537 1.37367 0
M  V30 28190 C 2599.43 0.117542 2.28898 0
M  V30 28191 C 2600.44 -0.663379 1.48671 0
M  V30 28192 O 2601.63 -0.501341 1.71315 0
M  V30 28193 C 2598.73 -0.857135 3.27882 0
M  V30 28194 C 2597.91 -0.129861 4.37207 0
M  V30 28195 C 2596.97 -1.01802 5.16258 0
M  V30 28196 O 2595.99 -0.481501 5.6716 0
M  V30 28197 N 2597.19 -2.3442 5.31063 0
M  V30 28198 H 2599.96 0.903712 2.8575 0
M  V30 28199 H 2597.52 0.624956 1.49352 0
M  V30 28200 H 2599.51 -1.45475 3.77649 0
M  V30 28201 H 2598.08 -1.54427 2.71792 0
M  V30 28202 H 2597.3 0.648673 3.88826 0
M  V30 28203 H 2598.59 0.372648 5.07434 0
M  V30 28204 H 2597.99 -2.80444 4.91292 0
M  V30 28205 H 2596.54 -2.89187 5.84136 0
M  V30 28206 N 2599.98 -1.48664 0.523142 0
M  V30 28207 C 2601.2 -2.07397 -0.011692 0
M  V30 28208 C 2601.63 -1.37805 -1.28029 0
M  V30 28209 O 2600.99 -0.441793 -1.75835 0
M  V30 28210 C 2601.03 -3.59893 -0.225723 0
M  V30 28211 O 2600.14 -3.91512 -1.29585 0
M  V30 28212 H 2599.48 -0.663019 0.036079 0
M  V30 28213 H 2602.01 -1.91168 0.7291 0
M  V30 28214 H 2602.02 -4.05505 -0.45048 0
M  V30 28215 H 2600.69 -4.09949 0.701016 0
M  V30 28216 H 2599.27 -3.57686 -1.05429 0
M  V30 28217 N 2601.46 -0.257958 -1.55475 0
M  V30 28218 C 2602.73 0.414596 -1.91156 0
M  V30 28219 C 2603.11 1.75033 -1.18011 0
M  V30 28220 O 2602.46 2.26506 -0.301232 0
M  V30 28221 C 2602.67 0.571799 -3.44284 0
M  V30 28222 C 2604.02 0.862605 -4.15745 0
M  V30 28223 O 2605.04 0.657252 -3.50084 0
M  V30 28224 O 2603.9 1.25431 -5.31911 0
M  V30 28225 H 2601 0.224236 -0.79602 0
M  V30 28226 H 2603.54 -0.302843 -1.66976 0
M  V30 28227 H 2602.31 -0.368912 -3.89557 0
M  V30 28228 H 2601.94 1.33936 -3.74362 0
M  V30 28229 N 2602.93 1.57593 0.0150108 0
M  V30 28230 C 2604.18 1.89532 0.70158 0
M  V30 28231 C 2604.5 0.857427 1.75138 0
M  V30 28232 O 2603.77 -0.10716 1.95607 0
M  V30 28233 H 2602.35 0.699502 0.262117 0
M  V30 28234 H 2605.02 1.94887 -0.0223647 0
M  V30 28235 H 2604.11 2.88839 1.18231 0
M  V30 28236 N 2604.41 -0.287527 1.54955 0
M  V30 28237 C 2605.83 -0.633938 1.4647 0
M  V30 28238 C 2606.03 -1.90144 0.666898 0
M  V30 28239 O 2605.08 -2.51858 0.17995 0
M  V30 28240 C 2606.4 -0.774402 2.90557 0
M  V30 28241 C 2607.95 -0.86941 3.00683 0
M  V30 28242 C 2608.42 -1.04177 4.45995 0
M  V30 28243 N 2609.91 -1.10764 4.49762 0
M  V30 28244 C 2610.65 -1.25954 5.59395 0
M  V30 28245 N 2610.14 -1.37956 6.78926 0
M  V30 28246 N 2611.94 -1.2895 5.47109 0
M  V30 28247 H 2604.09 0.545077 2.05287 0
M  V30 28248 H 2606.35 0.182325 0.930302 0
M  V30 28249 H 2606.06 0.0862688 3.51594 0
M  V30 28250 H 2605.93 -1.65924 3.38746 0
M  V30 28251 H 2608.32 -1.72056 2.39752 0
M  V30 28252 H 2608.4 0.0397281 2.55769 0
M  V30 28253 H 2608.04 -0.195333 5.07524 0
M  V30 28254 H 2607.97 -1.96533 4.88551 0
M  V30 28255 H 2610.46 -1.02788 3.63652 0
M  V30 28256 H 2610.78 -1.4934 7.58233 0
M  V30 28257 H 2609.12 -1.34987 6.81765 0
M  V30 28258 H 2612.31 -1.19194 4.5267 0
M  V30 28259 H 2612.48 -1.40444 6.32597 0
M  V30 28260 N 2605.89 -1.47641 -0.551365 0
M  V30 28261 C 2607.12 -1.58439 -1.33835 0
M  V30 28262 C 2607.54 -0.237096 -1.866 0
M  V30 28263 O 2606.9 0.787965 -1.63281 0
M  V30 28264 C 2606.95 -2.6177 -2.4801 0
M  V30 28265 O 2606.05 -2.17446 -3.50415 0
M  V30 28266 H 2605.39 -0.532031 -0.397289 0
M  V30 28267 H 2607.92 -1.93466 -0.665725 0
M  V30 28268 H 2607.93 -2.82374 -2.94498 0
M  V30 28269 H 2606.61 -3.59594 -2.08962 0
M  V30 28270 H 2605.18 -2.06966 -3.10193 0
M  V30 28271 N 2607.37 0.798563 -1.3587 0
M  V30 28272 C 2608.33 1.89239 -1.2931 0
M  V30 28273 C 2609.33 1.59516 -0.202775 0
M  V30 28274 O 2610.52 1.68099 -0.456986 0
M  V30 28275 C 2607.65 3.25831 -1.00235 0
M  V30 28276 H 2608.85 1.96474 -2.26579 0
M  V30 28277 H 2606.4 0.995336 -1.2051 0
M  V30 28278 H 2607.13 3.24282 -0.033858 0
M  V30 28279 H 2606.92 3.48792 -1.79127 0
M  V30 28280 H 2608.41 4.05883 -0.982261 0
M  V30 28281 N 2608.85 1.19999 1.02166 0
M  V30 28282 C 2610.09 1.00706 1.75683 0
M  V30 28283 C 2610.42 -0.461393 1.88948 0
M  V30 28284 O 2609.68 -1.35882 1.40835 0
M  V30 28285 C 2609.98 1.62975 3.18079 0
M  V30 28286 C 2609.64 3.12751 3.24804 0
M  V30 28287 C 2608.3 3.53627 3.26346 0
M  V30 28288 C 2610.66 4.08754 3.23372 0
M  V30 28289 C 2607.98 4.89042 3.24122 0
M  V30 28290 C 2610.34 5.44109 3.22688 0
M  V30 28291 C 2609 5.84405 3.22532 0
M  V30 28292 H 2608.27 0.368508 0.642871 0
M  V30 28293 H 2610.92 1.4935 1.19862 0
M  V30 28294 H 2609.22 1.06579 3.77025 0
M  V30 28295 H 2610.92 1.45567 3.73646 0
M  V30 28296 H 2607.51 2.80187 3.24335 0
M  V30 28297 H 2611.69 3.78213 3.21354 0
M  V30 28298 H 2606.95 5.19533 3.22329 0
M  V30 28299 H 2611.12 6.18249 3.20532 0
M  V30 28300 H 2608.75 6.89307 3.20563 0
M  V30 28301 N 2610.32 -1.21392 1.00507 0
M  V30 28302 C 2611.74 -1.72212 0.721112 0
M  V30 28303 C 2612.09 -1.80831 -0.761231 0
M  V30 28304 O 2611.21 -1.46291 -1.59461 0
M  V30 28305 C 2611.81 -3.12769 1.30233 0
M  V30 28306 C 2610.37 -3.60945 1.0675 0
M  V30 28307 C 2609.51 -2.38474 1.41511 0
M  V30 28308 H 2612.46 -1.06568 1.17596 0
M  V30 28309 H 2612.48 -3.74246 0.687021 0
M  V30 28310 H 2612 -3.06464 2.3812 0
M  V30 28311 H 2610.1 -3.726 0.00578711 0
M  V30 28312 H 2610.21 -4.46408 1.73944 0
M  V30 28313 H 2608.57 -2.40662 0.833894 0
M  V30 28314 H 2609.36 -2.3482 2.50429 0
M  V30 28315 N 2611.8 -0.779811 -1.36955 0
M  V30 28316 C 2612.73 -0.12968 -2.28833 0
M  V30 28317 C 2613.75 0.655485 -1.49021 0
M  V30 28318 O 2614.94 0.492249 -1.71578 0
M  V30 28319 C 2612.04 0.839734 -3.28332 0
M  V30 28320 C 2611.21 0.106673 -4.3727 0
M  V30 28321 C 2610.27 0.990626 -5.16791 0
M  V30 28322 O 2609.29 0.451416 -5.67407 0
M  V30 28323 N 2610.5 2.31601 -5.32298 0
M  V30 28324 H 2613.26 -0.918853 -2.85267 0
M  V30 28325 H 2610.82 -0.632868 -1.49018 0
M  V30 28326 H 2612.81 1.4347 -3.78416 0
M  V30 28327 H 2611.38 1.52983 -2.72607 0
M  V30 28328 H 2610.6 -0.669285 -3.88477 0
M  V30 28329 H 2611.89 -0.399553 -5.07229 0
M  V30 28330 H 2611.29 2.77834 -4.92772 0
M  V30 28331 H 2609.85 2.86085 -5.85661 0
M  V30 28332 N 2613.28 1.48384 -0.531019 0
M  V30 28333 C 2614.51 2.069 -0.00137759 0
M  V30 28334 C 2614.92 1.38742 1.28047 0
M  V30 28335 O 2614.28 0.475275 1.76203 0
M  V30 28336 C 2614.33 3.60798 0.225192 0
M  V30 28337 O 2614.05 4.26396 -1.00587 0
M  V30 28338 C 2615.55 4.36111 0.795096 0
M  V30 28339 H 2612.77 0.670139 -0.0339822 0
M  V30 28340 H 2615.32 1.90759 -0.736959 0
M  V30 28341 H 2613.47 3.7654 0.910825 0
M  V30 28342 H 2613.89 5.18558 -0.787256 0
M  V30 28343 H 2615.36 5.44563 0.903047 0
M  V30 28344 H 2615.84 4.0061 1.80024 0
M  V30 28345 H 2616.44 4.25049 0.145995 0
M  V30 28346 N 2614.76 0.2662 1.55336 0
M  V30 28347 C 2616.01 -0.353123 1.99397 0
M  V30 28348 C 2616.33 -1.56527 1.15454 0
M  V30 28349 O 2615.59 -1.9457 0.210008 0
M  V30 28350 C 2615.89 -0.787895 3.48607 0
M  V30 28351 C 2615.55 0.31862 4.49773 0
M  V30 28352 C 2614.22 0.622474 4.77157 0
M  V30 28353 C 2616.57 1.06468 5.1021 0
M  V30 28354 C 2613.9 1.67612 5.62248 0
M  V30 28355 C 2616.25 2.10798 5.96445 0
M  V30 28356 C 2614.91 2.41828 6.22154 0
M  V30 28357 H 2614.18 -0.129217 0.729646 0
M  V30 28358 H 2616.83 0.378053 1.87731 0
M  V30 28359 H 2615.13 -1.5986 3.57704 0
M  V30 28360 H 2616.83 -1.27768 3.801 0
M  V30 28361 H 2613.42 0.0716678 4.2854 0
M  V30 28362 H 2617.6 0.843184 4.89085 0
M  V30 28363 H 2612.86 1.92165 5.80416 0
M  V30 28364 H 2617.03 2.69087 6.42312 0
M  V30 28365 H 2614.66 3.23608 6.87882 0
M  V30 28366 N 2616.24 -1.57599 -0.0066531 0
M  V30 28367 C 2617.46 -1.94553 -0.704053 0
M  V30 28368 C 2617.88 -0.867775 -1.67676 0
M  V30 28369 O 2617.24 0.153893 -1.8185 0
M  V30 28370 C 2617.29 -3.31507 -1.44171 0
M  V30 28371 O 2617.01 -4.35145 -0.508021 0
M  V30 28372 C 2618.51 -3.8288 -2.23422 0
M  V30 28373 H 2615.73 -0.641579 -0.196512 0
M  V30 28374 H 2618.27 -2.04456 0.0424889 0
M  V30 28375 H 2616.43 -3.22933 -2.13994 0
M  V30 28376 H 2616.84 -5.14332 -1.02773 0
M  V30 28377 H 2618.32 -4.81155 -2.70543 0
M  V30 28378 H 2618.79 -3.15239 -3.05812 0
M  V30 28379 H 2619.4 -3.9461 -1.5863 0
M  V30 28380 N 2617.72 0.279305 -1.55105 0
M  V30 28381 C 2618.94 1.03014 -1.79432 0
M  V30 28382 C 2619.36 1.80164 -0.564488 0
M  V30 28383 O 2618.72 1.76442 0.466295 0
M  V30 28384 C 2618.77 1.99368 -3.01553 0
M  V30 28385 O 2618.49 1.25345 -4.19786 0
M  V30 28386 C 2619.99 2.86315 -3.38435 0
M  V30 28387 H 2617.21 0.304584 -0.597888 0
M  V30 28388 H 2619.75 0.312 -2.02106 0
M  V30 28389 H 2617.91 2.66654 -2.81024 0
M  V30 28390 H 2618.32 1.90237 -4.88784 0
M  V30 28391 H 2619.8 3.49733 -4.27072 0
M  V30 28392 H 2620.27 3.55755 -2.57555 0
M  V30 28393 H 2620.88 2.2453 -3.61201 0
M  V30 28394 N 2619.19 1.47931 0.543528 0
M  V30 28395 C 2620.13 1.57516 1.66497 0
M  V30 28396 C 2621.14 0.46036 1.56155 0
M  V30 28397 O 2622.33 0.730602 1.62863 0
M  V30 28398 C 2619.43 1.4762 3.0506 0
M  V30 28399 C 2618.6 2.73906 3.4102 0
M  V30 28400 C 2617.66 2.57653 4.58804 0
M  V30 28401 O 2616.69 3.31506 4.62701 0
M  V30 28402 N 2617.89 1.66378 5.56146 0
M  V30 28403 H 2620.65 2.54223 1.58716 0
M  V30 28404 H 2618.21 1.44483 0.730492 0
M  V30 28405 H 2620.21 1.34461 3.8171 0
M  V30 28406 H 2618.78 0.589413 3.06993 0
M  V30 28407 H 2618 3.01727 2.53682 0
M  V30 28408 H 2619.28 3.57716 3.61825 0
M  V30 28409 H 2618.68 1.05553 5.55765 0
M  V30 28410 H 2617.24 1.59165 6.32068 0
M  V30 28411 N 2620.67 -0.791347 1.36292 0
M  V30 28412 C 2622.09 -1.08912 1.16663 0
M  V30 28413 C 2622.29 -2.01497 -0.0105912 0
M  V30 28414 O 2621.34 -2.43267 -0.676553 0
M  V30 28415 C 2622.66 -1.70545 2.47659 0
M  V30 28416 C 2624.2 -1.82895 2.54005 0
M  V30 28417 C 2624.68 -2.47942 3.85083 0
M  V30 28418 N 2626.17 -2.55413 3.86418 0
M  V30 28419 C 2626.91 -3.06548 4.84578 0
M  V30 28420 N 2626.4 -3.58006 5.93131 0
M  V30 28421 N 2628.19 -3.05242 4.71999 0
M  V30 28422 H 2620.35 -0.176201 2.11668 0
M  V30 28423 H 2622.61 -0.140779 0.937489 0
M  V30 28424 H 2622.31 -1.09983 3.34061 0
M  V30 28425 H 2622.19 -2.70074 2.63324 0
M  V30 28426 H 2624.58 -2.42595 1.68022 0
M  V30 28427 H 2624.66 -0.821766 2.42241 0
M  V30 28428 H 2624.3 -1.88887 4.7147 0
M  V30 28429 H 2624.23 -3.49228 3.94141 0
M  V30 28430 H 2626.72 -2.18974 3.07992 0
M  V30 28431 H 2627.03 -3.95369 6.64005 0
M  V30 28432 H 2625.38 -3.56163 5.96802 0
M  V30 28433 H 2628.57 -2.64329 3.86326 0
M  V30 28434 H 2628.74 -3.44786 5.48659 0
M  V30 28435 N 2622.15 -1.2054 -1.01528 0
M  V30 28436 C 2623.56 -1.01659 -1.56596 0
M  V30 28437 C 2623.91 0.426634 -1.91505 0
M  V30 28438 O 2623.04 1.30824 -1.72377 0
M  V30 28439 C 2623.63 -1.8391 -2.84539 0
M  V30 28440 C 2622.19 -1.69392 -3.3613 0
M  V30 28441 C 2621.34 -1.81761 -2.09424 0
M  V30 28442 H 2624.29 -1.34712 -0.83895 0
M  V30 28443 H 2624.31 -1.34325 -3.56001 0
M  V30 28444 H 2623.82 -2.88944 -2.591 0
M  V30 28445 H 2621.92 -0.669997 -3.66527 0
M  V30 28446 H 2622.04 -2.50746 -4.08244 0
M  V30 28447 H 2620.4 -1.24961 -2.21939 0
M  V30 28448 H 2621.18 -2.88282 -1.86409 0
M  V30 28449 N 2623.63 1.20858 -1.01149 0
M  V30 28450 C 2624.56 2.25721 -0.597702 0
M  V30 28451 C 2625.54 1.65692 0.384714 0
M  V30 28452 O 2626.72 1.92296 0.271269 0
M  V30 28453 C 2623.85 3.4723 0.0699539 0
M  V30 28454 C 2622.81 4.19817 -0.832917 0
M  V30 28455 C 2622.13 5.34691 -0.0313142 0
M  V30 28456 C 2623.43 4.7651 -2.13858 0
M  V30 28457 H 2625.13 2.60587 -1.47428 0
M  V30 28458 H 2622.67 1.25261 -0.710323 0
M  V30 28459 H 2624.63 4.19764 0.370956 0
M  V30 28460 H 2623.35 3.11512 0.981205 0
M  V30 28461 H 2622.01 3.49142 -1.11784 0
M  V30 28462 H 2621.66 4.95217 0.881428 0
M  V30 28463 H 2621.36 5.84186 -0.632536 0
M  V30 28464 H 2622.88 6.10032 0.263353 0
M  V30 28465 H 2624.3 5.4089 -1.90029 0
M  V30 28466 H 2622.69 5.36421 -2.69022 0
M  V30 28467 H 2623.76 3.95533 -2.80502 0
M  V30 28468 N 2625.11 0.787064 1.3654 0
M  V30 28469 C 2626.06 0.156997 2.27459 0
M  V30 28470 C 2627.04 -0.657684 1.46845 0
M  V30 28471 O 2628.23 -0.518143 1.69246 0
M  V30 28472 C 2625.36 -0.709219 3.35894 0
M  V30 28473 C 2624.45 0.114123 4.23946 0
M  V30 28474 N 2624.84 1.16745 4.92142 0
M  V30 28475 C 2623.14 -0.107419 4.45871 0
M  V30 28476 C 2623.84 1.66847 5.57258 0
M  V30 28477 N 2622.81 0.978086 5.34728 0
M  V30 28478 H 2626.61 0.963234 2.77667 0
M  V30 28479 H 2624.13 0.626296 1.49838 0
M  V30 28480 H 2626.13 -1.17649 3.99955 0
M  V30 28481 H 2624.79 -1.51403 2.87241 0
M  V30 28482 H 2625.8 1.54985 4.94166 0
M  V30 28483 H 2622.47 -0.882922 4.08057 0
M  V30 28484 H 2623.86 2.54773 6.21724 0
M  V30 28485 N 2626.58 -1.48101 0.53888 0
M  V30 28486 C 2627.83 -2.01699 0.00598865 0
M  V30 28487 C 2628.15 -1.42043 -1.34474 0
M  V30 28488 O 2629.35 -1.87193 -1.9665 0
M  V30 28489 C 2627.81 -3.59878 -0.0396994 0
M  V30 28490 C 2627.42 -4.28521 1.30667 0
M  V30 28491 C 2629.16 -4.21291 -0.52095 0
M  V30 28492 C 2627.07 -5.78657 1.22108 0
M  V30 28493 H 2626 -0.753998 -0.0015313 0
M  V30 28494 H 2628.65 -1.70276 0.683993 0
M  V30 28495 H 2627.03 -3.88182 -0.782969 0
M  V30 28496 H 2628.2 -4.11879 2.0662 0
M  V30 28497 H 2626.52 -3.79018 1.72437 0
M  V30 28498 H 2629.12 -5.31288 -0.60309 0
M  V30 28499 H 2629.46 -3.87213 -1.52879 0
M  V30 28500 H 2629.99 -3.9745 0.166904 0
M  V30 28501 H 2626.73 -6.17324 2.20435 0
M  V30 28502 H 2626.25 -5.97687 0.503055 0
M  V30 28503 H 2627.93 -6.40491 0.915458 0
M  V30 28504 N 2628.06 -0.274434 -1.55192 0
M  V30 28505 C 2629.01 0.629322 -2.23925 0
M  V30 28506 C 2630 1.15838 -1.23604 0
M  V30 28507 O 2631.21 1.11209 -1.41537 0
M  V30 28508 H 2627.58 0.221494 -0.718641 0
M  V30 28509 H 2629.56 0.0267798 -2.98388 0
M  V30 28510 C 2628.3 1.80246 -2.97332 0
M  V30 28511 H 2627.63 1.40455 -3.74316 0
M  V30 28512 H 2629.07 2.41146 -3.48747 0
M  V30 28513 C 2627.53 2.6905 -2.02765 0
M  V30 28514 O 2628.06 3.6939 -1.57842 0
M  V30 28515 N 2626.26 2.36205 -1.69279 0
M  V30 28516 H 2625.81 1.54658 -2.06007 0
M  V30 28517 H 2625.77 2.95893 -1.06276 0
M  V30 28518 N 2629.54 1.576 -0.00170483 0
M  V30 28519 C 2630.49 2.08529 0.989158 0
M  V30 28520 C 2631.46 0.981088 1.34029 0
M  V30 28521 O 2632.64 1.25362 1.43837 0
M  V30 28522 C 2629.78 2.59467 2.27532 0
M  V30 28523 C 2628.89 3.83795 1.98307 0
M  V30 28524 C 2628.03 4.23227 3.21017 0
M  V30 28525 C 2627.07 5.40387 2.87486 0
M  V30 28526 N 2626.21 5.75105 4.02739 0
M  V30 28527 H 2631.05 2.92919 0.547921 0
M  V30 28528 H 2628.58 1.44804 0.258891 0
M  V30 28529 H 2630.54 2.87079 3.02724 0
M  V30 28530 H 2629.17 1.77948 2.69322 0
M  V30 28531 H 2628.22 3.6308 1.13476 0
M  V30 28532 H 2629.53 4.69084 1.69593 0
M  V30 28533 H 2628.69 4.5213 4.04553 0
M  V30 28534 H 2627.43 3.3665 3.52871 0
M  V30 28535 H 2626.43 5.11206 2.02358 0
M  V30 28536 H 2627.66 6.28642 2.56878 0
M  V30 28537 H 2625.6 4.91486 4.34485 0
M  V30 28538 H 2625.52 6.54972 3.77554 0
M  V30 28539 H 2626.79 6.08601 4.87058 0
M  V30 28540 N 2631.02 -0.271076 1.55251 0
M  V30 28541 C 2631.98 -1.31838 1.87487 0
M  V30 28542 C 2632.98 -1.42261 0.74957 0
M  V30 28543 O 2634.17 -1.41378 1.01773 0
M  V30 28544 C 2631.3 -2.69948 2.08185 0
M  V30 28545 H 2632.5 -1.04485 2.8111 0
M  V30 28546 H 2630.05 -0.509232 1.47772 0
M  V30 28547 H 2630.78 -3.02479 1.1695 0
M  V30 28548 H 2630.57 -2.63769 2.90118 0
M  V30 28549 H 2632.06 -3.45616 2.34392 0
M  V30 28550 N 2632.5 -1.48217 -0.535675 0
M  V30 28551 C 2633.74 -1.55636 -1.28925 0
M  V30 28552 C 2634.07 -0.229548 -1.93644 0
M  V30 28553 O 2633.34 0.748428 -1.8104 0
M  V30 28554 H 2631.92 -0.573351 -0.47883 0
M  V30 28555 H 2634.58 -1.84647 -0.623821 0
M  V30 28556 H 2633.67 -2.3344 -2.07153 0
M  V30 28557 N 2633.97 0.784108 -1.3671 0
M  V30 28558 C 2635.2 1.57817 -1.34568 0
M  V30 28559 C 2635.62 1.87972 0.0694927 0
M  V30 28560 O 2634.98 1.48295 1.04299 0
M  V30 28561 C 2635.03 2.87276 -2.17957 0
M  V30 28562 O 2634.13 3.81111 -1.5757 0
M  V30 28563 H 2633.48 0.478516 -0.460346 0
M  V30 28564 H 2636.01 0.971463 -1.80066 0
M  V30 28565 H 2636.02 3.36496 -2.30727 0
M  V30 28566 H 2634.69 2.64655 -3.20828 0
M  V30 28567 H 2633.27 3.39719 -1.5377 0
M  V30 28568 N 2635.45 1.21076 1.00888 0
M  V30 28569 C 2636.68 1.05224 1.78725 0
M  V30 28570 C 2637.1 -0.393762 1.83932 0
M  V30 28571 O 2636.46 -1.2839 1.28006 0
M  V30 28572 C 2636.51 1.64949 3.20662 0
M  V30 28573 O 2635.61 0.892344 4.0263 0
M  V30 28574 H 2634.95 0.370583 0.550966 0
M  V30 28575 H 2637.48 1.60536 1.26844 0
M  V30 28576 H 2637.49 1.69008 3.71349 0
M  V30 28577 H 2636.17 2.70183 3.16187 0
M  V30 28578 H 2634.75 0.926555 3.61205 0
M  V30 28579 N 2636.93 -1.2032 1.01789 0
M  V30 28580 C 2637.86 -2.22567 0.547396 0
M  V30 28581 C 2638.88 -1.58519 -0.370894 0
M  V30 28582 O 2640.06 -1.77698 -0.169036 0
M  V30 28583 C 2637.16 -3.38166 -0.222972 0
M  V30 28584 C 2636.34 -4.31802 0.697547 0
M  V30 28585 C 2635.4 -5.26194 -0.0254695 0
M  V30 28586 O 2634.42 -5.66056 0.597466 0
M  V30 28587 N 2635.62 -5.65759 -1.29989 0
M  V30 28588 H 2638.39 -2.63561 1.42673 0
M  V30 28589 H 2635.95 -1.34874 0.895576 0
M  V30 28590 H 2637.94 -3.98317 -0.715932 0
M  V30 28591 H 2636.51 -2.96051 -1.00361 0
M  V30 28592 H 2635.73 -3.69598 1.37079 0
M  V30 28593 H 2637.02 -4.91283 1.32356 0
M  V30 28594 H 2636.42 -5.35388 -1.8269 0
M  V30 28595 H 2634.98 -6.28214 -1.73755 0
M  V30 28596 N 2638.41 -0.794293 -1.3612 0
M  V30 28597 C 2639.66 -0.368211 -1.98717 0
M  V30 28598 C 2639.98 1.06503 -1.63347 0
M  V30 28599 O 2639.25 1.73489 -0.909856 0
M  V30 28600 H 2637.83 -0.133159 -0.735036 0
M  V30 28601 H 2640.49 -1.01741 -1.66237 0
M  V30 28602 H 2639.59 -0.463977 -3.08632 0
M  V30 28603 N 2639.89 1.47813 -0.546727 0
M  V30 28604 C 2641.16 1.95545 0.0464069 0
M  V30 28605 C 2641.54 1.48922 1.49618 0
M  V30 28606 O 2640.89 0.72327 2.16751 0
M  V30 28607 C 2641.1 3.48889 -0.0881912 0
M  V30 28608 C 2642.45 4.24554 0.0625313 0
M  V30 28609 O 2643.47 3.56197 -0.0152181 0
M  V30 28610 O 2642.33 5.46024 0.227975 0
M  V30 28611 H 2639.43 0.824033 0.069986 0
M  V30 28612 H 2641.97 1.58261 -0.61251 0
M  V30 28613 H 2640.74 3.75596 -1.09744 0
M  V30 28614 H 2640.37 3.92911 0.608817 0
M  V30 28615 N 2641.36 0.28266 1.55044 0
M  V30 28616 C 2642.59 -0.335085 2.04169 0
M  V30 28617 C 2643.01 -1.48904 1.16073 0
M  V30 28618 O 2642.36 -1.81586 0.182423 0
M  V30 28619 C 2642.42 -0.808895 3.52334 0
M  V30 28620 O 2642.14 0.299115 4.37078 0
M  V30 28621 C 2643.64 -1.49368 4.17378 0
M  V30 28622 H 2640.86 -0.0754426 0.666745 0
M  V30 28623 H 2643.4 0.416953 2.00204 0
M  V30 28624 H 2641.56 -1.511 3.56718 0
M  V30 28625 H 2641.97 -0.0664593 5.24458 0
M  V30 28626 H 2643.44 -1.77655 5.2263 0
M  V30 28627 H 2643.92 -2.42772 3.66003 0
M  V30 28628 H 2644.53 -0.835232 4.17018 0
M  V30 28629 N 2642.84 -1.57597 0.0100627 0
M  V30 28630 C 2643.75 -2.12492 -0.994189 0
M  V30 28631 C 2644.77 -1.07256 -1.37011 0
M  V30 28632 O 2645.94 -1.39212 -1.4554 0
M  V30 28633 C 2643.01 -2.62559 -2.26415 0
M  V30 28634 C 2642.07 -3.82436 -1.95042 0
M  V30 28635 C 2641.3 -4.30105 -3.15983 0
M  V30 28636 O 2641.53 -3.77048 -4.28009 0
M  V30 28637 O 2640.46 -5.22156 -2.99393 0
M  V30 28638 H 2644.29 -2.98539 -0.557496 0
M  V30 28639 H 2641.87 -1.47925 -0.209387 0
M  V30 28640 H 2643.75 -2.94915 -3.01004 0
M  V30 28641 H 2642.43 -1.79605 -2.69303 0
M  V30 28642 H 2641.34 -3.55037 -1.17898 0
M  V30 28643 H 2642.67 -4.66494 -1.56984 0
M  V30 28644 N 2644.32 0.262839 -1.55393 0
M  V30 28645 C 2645.55 1.0153 -1.80849 0
M  V30 28646 C 2645.97 1.78773 -0.584978 0
M  V30 28647 O 2645.33 1.75218 0.465671 0
M  V30 28648 C 2645.38 1.94154 -3.0387 0
M  V30 28649 O 2644.48 3.03084 -2.79668 0
M  V30 28650 H 2643.82 0.289749 -0.597446 0
M  V30 28651 H 2646.35 0.288663 -2.02553 0
M  V30 28652 H 2646.36 2.35918 -3.32876 0
M  V30 28653 H 2645.04 1.37347 -3.92567 0
M  V30 28654 H 2643.61 2.65561 -2.61785 0
M  V30 28655 N 2645.8 1.48499 0.527807 0
M  V30 28656 C 2647.21 1.5014 1.10972 0
M  V30 28657 C 2647.56 0.272412 1.943 0
M  V30 28658 O 2646.69 -0.620264 2.0732 0
M  V30 28659 C 2647.28 2.72053 2.01923 0
M  V30 28660 C 2645.84 2.76559 2.55328 0
M  V30 28661 C 2644.99 2.43685 1.32336 0
M  V30 28662 H 2647.94 1.55584 0.312958 0
M  V30 28663 H 2647.96 2.50694 2.86239 0
M  V30 28664 H 2647.47 3.61484 1.41248 0
M  V30 28665 H 2645.57 1.91341 3.19717 0
M  V30 28666 H 2645.68 3.78044 2.94313 0
M  V30 28667 H 2644.05 1.94887 1.63985 0
M  V30 28668 H 2644.83 3.35359 0.734106 0
M  V30 28669 N 2647.28 -0.776847 1.37123 0
M  V30 28670 C 2648.5 -1.57102 1.35403 0
M  V30 28671 C 2648.93 -1.88006 -0.0595231 0
M  V30 28672 O 2648.29 -1.48846 -1.03511 0
M  V30 28673 C 2648.33 -2.86116 2.19477 0
M  V30 28674 O 2647.44 -3.8027 1.59589 0
M  V30 28675 H 2646.78 -0.476068 0.462877 0
M  V30 28676 H 2649.31 -0.9619 1.80579 0
M  V30 28677 H 2649.32 -3.35267 2.32508 0
M  V30 28678 H 2647.99 -2.6295 3.22227 0
M  V30 28679 H 2646.57 -3.38899 1.5557 0
M  V30 28680 N 2648.76 -1.2161 -1.00244 0
M  V30 28681 C 2649.71 -0.945088 -2.0749 0
M  V30 28682 C 2650.69 0.100647 -1.60585 0
M  V30 28683 O 2651.88 -0.108621 -1.76666 0
M  V30 28684 C 2649.01 -0.514401 -3.39424 0
M  V30 28685 C 2648.1 -1.59434 -3.9299 0
M  V30 28686 N 2648.49 -2.81998 -4.19894 0
M  V30 28687 C 2646.79 -1.46381 -4.21294 0
M  V30 28688 C 2647.49 -3.51762 -4.63291 0
M  V30 28689 N 2646.46 -2.79208 -4.66416 0
M  V30 28690 H 2650.26 -1.87623 -2.26218 0
M  V30 28691 H 2647.78 -1.11221 -1.18337 0
M  V30 28692 H 2649.78 -0.3016 -4.15808 0
M  V30 28693 H 2648.44 0.409952 -3.22102 0
M  V30 28694 H 2649.45 -3.18517 -4.08372 0
M  V30 28695 H 2646.12 -0.604936 -4.13094 0
M  V30 28696 H 2647.51 -4.56717 -4.92808 0
M  V30 28697 N 2650.23 1.19778 -1.02425 0
M  V30 28698 C 2651.14 2.26505 -0.610958 0
M  V30 28699 C 2652.16 1.70338 0.355122 0
M  V30 28700 O 2653.34 2.00258 0.21416 0
M  V30 28701 C 2650.4 3.46681 0.0365312 0
M  V30 28702 C 2649.46 4.18047 -0.976463 0
M  V30 28703 C 2648.69 5.32486 -0.359777 0
M  V30 28704 O 2648.92 5.64203 0.838501 0
M  V30 28705 O 2647.85 5.92126 -1.08032 0
M  V30 28706 H 2651.68 2.64089 -1.49969 0
M  V30 28707 H 2649.26 1.26543 -0.794178 0
M  V30 28708 H 2651.14 4.19518 0.397786 0
M  V30 28709 H 2649.82 3.10956 0.899344 0
M  V30 28710 H 2648.73 3.47349 -1.38922 0
M  V30 28711 H 2650.06 4.57732 -1.80949 0
M  V30 28712 N 2651.71 0.801501 1.35697 0
M  V30 28713 C 2652.66 0.206335 2.29876 0
M  V30 28714 C 2653.63 -0.656725 1.52566 0
M  V30 28715 O 2654.81 -0.602874 1.81025 0
M  V30 28716 C 2651.95 -0.643212 3.39053 0
M  V30 28717 C 2651.07 0.23972 4.31334 0
M  V30 28718 C 2650.2 -0.617347 5.276 0
M  V30 28719 C 2649.24 0.266298 6.1152 0
M  V30 28720 N 2648.38 -0.550448 6.99939 0
M  V30 28721 H 2653.22 1.01489 2.80186 0
M  V30 28722 H 2650.75 0.512022 1.37901 0
M  V30 28723 H 2652.71 -1.15087 4.01012 0
M  V30 28724 H 2651.34 -1.41708 2.90032 0
M  V30 28725 H 2650.39 0.865446 3.70424 0
M  V30 28726 H 2651.71 0.920071 4.90241 0
M  V30 28727 H 2650.86 -1.19034 5.94908 0
M  V30 28728 H 2649.6 -1.33128 4.69178 0
M  V30 28729 H 2648.6 0.851603 5.43165 0
M  V30 28730 H 2649.83 0.978018 6.72021 0
M  V30 28731 H 2647.78 -1.24845 6.44011 0
M  V30 28732 H 2647.69 0.0719648 7.55966 0
M  V30 28733 H 2648.96 -1.10688 7.71601 0
M  V30 28734 N 2653.19 -1.47521 0.554558 0
M  V30 28735 C 2654.12 -2.32782 -0.182933 0
M  V30 28736 C 2655.1 -1.43626 -0.911352 0
M  V30 28737 O 2656.29 -1.72485 -0.892336 0
M  V30 28738 C 2653.42 -3.25351 -1.21507 0
M  V30 28739 C 2652.37 -4.23727 -0.603281 0
M  V30 28740 C 2651.7 -5.05602 -1.73986 0
M  V30 28741 C 2653 -5.20433 0.441212 0
M  V30 28742 H 2654.69 -2.94692 0.528872 0
M  V30 28743 H 2652.24 -1.4171 0.255784 0
M  V30 28744 H 2654.19 -3.83838 -1.73915 0
M  V30 28745 H 2652.91 -2.61491 -1.95679 0
M  V30 28746 H 2651.57 -3.66462 -0.100525 0
M  V30 28747 H 2651.22 -4.38147 -2.47055 0
M  V30 28748 H 2650.92 -5.72203 -1.3363 0
M  V30 28749 H 2652.44 -5.66946 -2.26725 0
M  V30 28750 H 2653.86 -5.733 0.00330008 0
M  V30 28751 H 2652.25 -5.95223 0.763506 0
M  V30 28752 H 2653.32 -4.66073 1.33807 0
M  V30 28753 N 2654.67 -0.290879 -1.54892 0
M  V30 28754 C 2655.91 0.321832 -2.0023 0
M  V30 28755 C 2656.25 1.54314 -1.17902 0
M  V30 28756 O 2655.52 1.92848 -0.252964 0
M  V30 28757 C 2655.8 0.688453 -3.53458 0
M  V30 28758 C 2655.66 -0.541287 -4.46531 0
M  V30 28759 C 2656.98 1.51888 -4.13059 0
M  V30 28760 H 2654.1 0.115502 -0.727893 0
M  V30 28761 H 2656.74 -0.400963 -1.85721 0
M  V30 28762 H 2654.89 1.30427 -3.65952 0
M  V30 28763 H 2656.56 -1.17981 -4.45958 0
M  V30 28764 H 2654.8 -1.17643 -4.17543 0
M  V30 28765 H 2655.47 -0.240772 -5.51475 0
M  V30 28766 H 2657.95 0.998649 -4.03938 0
M  V30 28767 H 2656.83 1.74419 -5.20451 0
M  V30 28768 H 2657.09 2.50492 -3.64289 0
M  V30 28769 N 2656.15 1.57589 -0.0184203 0
M  V30 28770 C 2657.42 1.82623 0.700589 0
M  V30 28771 C 2657.8 0.900084 1.90949 0
M  V30 28772 O 2657.15 -0.0468744 2.28452 0
M  V30 28773 C 2657.36 3.31577 1.08893 0
M  V30 28774 C 2658.71 3.97782 1.48507 0
M  V30 28775 O 2659.73 3.36009 1.18221 0
M  V30 28776 O 2658.59 5.06636 2.04894 0
M  V30 28777 H 2655.69 0.752639 0.34273 0
M  V30 28778 H 2658.23 1.6964 -0.0452846 0
M  V30 28779 H 2657 3.90635 0.228044 0
M  V30 28780 H 2656.63 3.49628 1.89331 0
M  V30 28781 N 2657.62 -0.254594 1.5553 0
M  V30 28782 C 2658.85 -1.00569 1.81385 0
M  V30 28783 C 2659.27 -1.7846 0.59445 0
M  V30 28784 O 2658.63 -1.75462 -0.456372 0
M  V30 28785 C 2658.68 -1.92539 3.04895 0
M  V30 28786 O 2657.78 -3.01596 2.81271 0
M  V30 28787 H 2657.12 -0.286576 0.598974 0
M  V30 28788 H 2659.65 -0.277917 2.02704 0
M  V30 28789 H 2659.66 -2.3415 3.34123 0
M  V30 28790 H 2658.34 -1.35263 3.9329 0
M  V30 28791 H 2656.92 -2.64169 2.6319 0
M  V30 28792 N 2659.1 -1.48777 -0.519925 0
M  V30 28793 C 2660.33 -1.60984 -1.29968 0
M  V30 28794 C 2660.74 -0.273917 -1.86802 0
M  V30 28795 O 2660.1 0.738164 -1.66905 0
M  V30 28796 C 2660.15 -2.6642 -2.44342 0
M  V30 28797 O 2659.87 -3.94828 -1.89848 0
M  V30 28798 C 2661.37 -2.89159 -3.36009 0
M  V30 28799 H 2658.59 -0.542503 -0.394882 0
M  V30 28800 H 2661.14 -1.94677 -0.62618 0
M  V30 28801 H 2659.29 -2.35557 -3.07557 0
M  V30 28802 H 2659.71 -4.52755 -2.6479 0
M  V30 28803 H 2661.18 -3.6671 -4.12586 0
M  V30 28804 H 2661.66 -1.98358 -3.91855 0
M  V30 28805 H 2662.26 -3.21364 -2.78577 0
M  V30 28806 N 2660.58 0.769564 -1.37534 0
M  V30 28807 C 2661.83 1.5282 -1.32862 0
M  V30 28808 C 2662.15 1.94309 0.0862255 0
M  V30 28809 O 2661.41 1.64512 1.05992 0
M  V30 28810 C 2661.71 2.80436 -2.21563 0
M  V30 28811 C 2661.37 2.57989 -3.69801 0
M  V30 28812 C 2660.04 2.51576 -4.10199 0
M  V30 28813 C 2662.39 2.37967 -4.63704 0
M  V30 28814 C 2659.72 2.23134 -5.42612 0
M  V30 28815 C 2662.07 2.11049 -5.96356 0
M  V30 28816 C 2660.73 2.03082 -6.35857 0
M  V30 28817 H 2660 0.559206 -0.486178 0
M  V30 28818 H 2662.65 0.886248 -1.69758 0
M  V30 28819 H 2660.95 3.492 -1.77669 0
M  V30 28820 H 2662.65 3.38325 -2.15261 0
M  V30 28821 H 2659.24 2.63845 -3.37763 0
M  V30 28822 H 2663.43 2.41911 -4.33351 0
M  V30 28823 H 2658.68 2.15462 -5.72177 0
M  V30 28824 H 2662.86 1.94556 -6.68671 0
M  V30 28825 H 2660.48 1.80807 -7.38385 0
M  V30 28826 N 2662.06 1.22139 0.995977 0
M  V30 28827 C 2663.29 1.07032 1.77064 0
M  V30 28828 C 2663.7 -0.379324 1.8495 0
M  V30 28829 O 2663.06 -1.26295 1.31742 0
M  V30 28830 C 2663.11 1.67161 3.2053 0
M  V30 28831 O 2662.83 3.06455 3.13077 0
M  V30 28832 C 2664.33 1.57287 4.14458 0
M  V30 28833 H 2661.55 0.375384 0.556172 0
M  V30 28834 H 2664.1 1.61668 1.25235 0
M  V30 28835 H 2662.25 1.16596 3.69438 0
M  V30 28836 H 2662.66 3.35362 4.03277 0
M  V30 28837 H 2664.14 2.04087 5.12887 0
M  V30 28838 H 2664.62 0.528871 4.36004 0
M  V30 28839 H 2665.22 2.07143 3.71446 0
M  V30 28840 N 2663.54 -1.19233 1.03059 0
M  V30 28841 C 2664.95 -1.70643 0.757479 0
M  V30 28842 C 2665.3 -1.82405 -0.722703 0
M  V30 28843 O 2664.42 -1.4964 -1.56322 0
M  V30 28844 C 2665.02 -3.09937 1.36838 0
M  V30 28845 C 2663.58 -3.586 1.14382 0
M  V30 28846 C 2662.72 -2.35419 1.46537 0
M  V30 28847 H 2665.68 -1.0405 1.1983 0
M  V30 28848 H 2665.7 -3.72705 0.76625 0
M  V30 28849 H 2665.21 -3.01344 2.44567 0
M  V30 28850 H 2663.31 -3.72503 0.0848197 0
M  V30 28851 H 2663.42 -4.42618 1.83373 0
M  V30 28852 H 2661.79 -2.38839 0.884754 0
M  V30 28853 H 2662.57 -2.29455 2.55353 0
M  V30 28854 N 2665.01 -0.808686 -1.3527 0
M  V30 28855 C 2666.24 -0.401511 -2.03476 0
M  V30 28856 C 2666.66 0.98025 -1.60539 0
M  V30 28857 O 2666.02 1.63517 -0.783068 0
M  V30 28858 C 2666.07 -0.495416 -3.57181 0
M  V30 28859 O 2665.17 0.490325 -4.09475 0
M  V30 28860 H 2664.52 -0.167377 -0.642558 0
M  V30 28861 H 2667.05 -1.09515 -1.72822 0
M  V30 28862 H 2667.06 -0.365983 -4.06355 0
M  V30 28863 H 2665.73 -1.50327 -3.87782 0
M  V30 28864 H 2664.31 0.320958 -3.71516 0
M  V30 28865 N 2666.49 1.47225 -0.562374 0
M  V30 28866 C 2667.72 2.07355 -0.0432997 0
M  V30 28867 C 2668.14 1.41151 1.2433 0
M  V30 28868 O 2667.5 0.488257 1.74602 0
M  V30 28869 C 2667.55 3.60365 0.130224 0
M  V30 28870 O 2666.65 3.9481 1.1916 0
M  V30 28871 H 2665.99 0.661829 -0.0536451 0
M  V30 28872 H 2668.52 1.89168 -0.779528 0
M  V30 28873 H 2668.53 4.06557 0.342809 0
M  V30 28874 H 2667.21 4.07947 -0.809461 0
M  V30 28875 H 2665.79 3.60355 0.95909 0
M  V30 28876 N 2667.97 0.299089 1.54736 0
M  V30 28877 C 2669.2 -0.312956 2.04216 0
M  V30 28878 C 2669.61 -1.48213 1.17599 0
M  V30 28879 O 2668.95 -1.82674 0.193867 0
M  V30 28880 C 2669.01 -0.8338 3.49697 0
M  V30 28881 C 2668.68 0.20985 4.56518 0
M  V30 28882 C 2669.67 1.03765 5.0944 0
M  V30 28883 C 2667.36 0.350998 5.01072 0
M  V30 28884 C 2669.35 1.99255 6.05455 0
M  V30 28885 C 2667.04 1.30935 5.96908 0
M  V30 28886 C 2668.04 2.12861 6.48983 0
M  V30 28887 O 2667.73 3.07072 7.42942 0
M  V30 28888 H 2667.46 -0.0722376 0.672129 0
M  V30 28889 H 2670.01 0.436079 2.00717 0
M  V30 28890 H 2668.24 -1.63333 3.50513 0
M  V30 28891 H 2669.93 -1.36152 3.82384 0
M  V30 28892 H 2670.7 0.939459 4.75814 0
M  V30 28893 H 2666.58 -0.276732 4.60169 0
M  V30 28894 H 2670.12 2.63241 6.46026 0
M  V30 28895 H 2666.02 1.40826 6.29951 0
M  V30 28896 H 2666.79 3.02028 7.60737 0
M  V30 28897 N 2669.45 -1.57577 0.0267774 0
M  V30 28898 C 2670.67 -1.96409 -0.666193 0
M  V30 28899 C 2671.1 -0.9031 -1.65002 0
M  V30 28900 O 2670.46 0.136231 -1.80787 0
M  V30 28901 C 2670.5 -3.34338 -1.35095 0
M  V30 28902 O 2669.61 -3.30536 -2.46617 0
M  V30 28903 H 2668.95 -0.640471 -0.175194 0
M  V30 28904 H 2671.48 -2.04411 0.0879336 0
M  V30 28905 H 2671.49 -3.70516 -1.70828 0
M  V30 28906 H 2670.16 -4.11104 -0.629771 0
M  V30 28907 H 2668.74 -3.06072 -2.13013 0
M  V30 28908 N 2670.93 0.246342 -1.55663 0
M  V30 28909 C 2672.15 0.996061 -1.81916 0
M  V30 28910 C 2672.58 1.78142 -0.603906 0
M  V30 28911 O 2671.93 1.75702 0.44706 0
M  V30 28912 C 2671.98 1.9092 -3.05912 0
M  V30 28913 O 2671.09 3.001 -2.82866 0
M  V30 28914 H 2670.43 0.283396 -0.600486 0
M  V30 28915 H 2672.96 0.267163 -2.02848 0
M  V30 28916 H 2672.97 2.32374 -3.3536 0
M  V30 28917 H 2671.64 1.33176 -3.94001 0
M  V30 28918 H 2670.22 2.6277 -2.64587 0
M  V30 28919 N 2672.4 1.4905 0.512027 0
M  V30 28920 C 2673.63 1.61671 1.29113 0
M  V30 28921 C 2674.05 0.28382 1.86654 0
M  V30 28922 O 2673.4 -0.729302 1.67294 0
M  V30 28923 C 2673.46 2.67712 2.42925 0
M  V30 28924 O 2673.18 3.9583 1.87751 0
M  V30 28925 C 2674.68 2.90937 3.34471 0
M  V30 28926 H 2671.9 0.544589 0.391999 0
M  V30 28927 H 2674.44 1.95007 0.615847 0
M  V30 28928 H 2672.6 2.37185 3.06304 0
M  V30 28929 H 2673.01 4.54152 2.62385 0
M  V30 28930 H 2674.48 3.68893 4.10636 0
M  V30 28931 H 2674.96 2.00433 3.90798 0
M  V30 28932 H 2675.57 3.22837 2.76869 0
M  V30 28933 N 2673.88 -0.762259 1.3794 0
M  V30 28934 C 2675.13 -1.51812 1.33407 0
M  V30 28935 C 2675.45 -1.94844 -0.0780633 0
M  V30 28936 O 2674.72 -1.67005 -1.02402 0
M  V30 28937 H 2673.3 -0.563095 0.490849 0
M  V30 28938 H 2675.96 -0.906638 1.72528 0
M  V30 28939 H 2675.06 -2.41309 1.9793 0
M  V30 28940 N 2675.36 -1.22666 -0.989486 0
M  V30 28941 C 2676.59 -1.08054 -1.77029 0
M  V30 28942 C 2677.01 0.364451 -1.84536 0
M  V30 28943 O 2676.37 1.26338 -1.30033 0
M  V30 28944 C 2676.42 -1.7003 -3.17997 0
M  V30 28945 O 2675.52 -0.956286 -4.01159 0
M  V30 28946 H 2674.86 -0.379302 -0.545001 0
M  V30 28947 H 2677.39 -1.62534 -1.24274 0
M  V30 28948 H 2677.4 -1.74895 -3.68613 0
M  V30 28949 H 2676.08 -2.75179 -3.11848 0
M  V30 28950 H 2674.65 -0.983903 -3.59686 0
M  V30 28951 N 2676.84 1.18685 -1.0369 0
M  V30 28952 C 2677.79 2.24231 -0.618331 0
M  V30 28953 C 2678.78 1.65681 0.353016 0
M  V30 28954 O 2679.99 1.78642 0.220718 0
M  V30 28955 H 2676.36 0.729713 -0.181723 0
M  V30 28956 H 2678.33 2.56846 -1.51898 0
M  V30 28957 C 2677.08 3.47699 0.00671231 0
M  V30 28958 H 2676.41 3.93046 -0.731761 0
M  V30 28959 H 2677.85 4.23187 0.262417 0
M  V30 28960 C 2676.3 3.12625 1.25567 0
M  V30 28961 O 2676.83 3.26015 2.34685 0
M  V30 28962 N 2675.04 2.66984 1.1475 0
M  V30 28963 H 2674.59 2.56289 0.259556 0
M  V30 28964 H 2674.55 2.43888 1.98408 0
M  V30 28965 N 2678.32 0.815849 1.34839 0
M  V30 28966 C 2679.28 0.238225 2.27959 0
M  V30 28967 C 2680.28 -0.579789 1.49984 0
M  V30 28968 O 2681.47 -0.396923 1.69618 0
M  V30 28969 C 2678.6 -0.666817 3.34315 0
M  V30 28970 H 2679.8 1.05963 2.80556 0
M  V30 28971 H 2677.35 0.587181 1.44851 0
M  V30 28972 H 2678.08 -1.51155 2.86919 0
M  V30 28973 H 2677.87 -0.0818416 3.92015 0
M  V30 28974 H 2679.36 -1.06499 4.03792 0
M  V30 28975 N 2679.8 -1.46924 0.570174 0
M  V30 28976 C 2680.74 -2.31878 -0.183141 0
M  V30 28977 C 2681.74 -1.43721 -0.896695 0
M  V30 28978 O 2682.94 -1.60416 -0.816508 0
M  V30 28979 H 2679.32 -0.747951 -0.0779308 0
M  V30 28980 H 2681.29 -2.93243 0.552363 0
M  V30 28981 C 2680.04 -3.26642 -1.19166 0
M  V30 28982 H 2679.36 -3.94447 -0.652018 0
M  V30 28983 H 2680.8 -3.8889 -1.6894 0
M  V30 28984 C 2679.26 -2.5109 -2.24623 0
M  V30 28985 O 2679.79 -2.26478 -3.31769 0
M  V30 28986 N 2678 -2.11871 -1.98895 0
M  V30 28987 H 2677.54 -2.32087 -1.11773 0
M  V30 28988 H 2677.5 -1.61639 -2.69667 0
M  V30 28989 N 2681.27 -0.307291 -1.54575 0
M  V30 28990 C 2682.52 0.300941 -1.99442 0
M  V30 28991 C 2682.84 1.54518 -1.19931 0
M  V30 28992 O 2684.04 2.2284 -1.55096 0
M  V30 28993 C 2682.5 0.586747 -3.55085 0
M  V30 28994 C 2682.11 -0.639516 -4.43412 0
M  V30 28995 C 2683.85 1.15583 -4.08462 0
M  V30 28996 C 2681.76 -0.326514 -5.90498 0
M  V30 28997 H 2680.69 0.116225 -0.744988 0
M  V30 28998 H 2683.34 -0.416978 -1.787 0
M  V30 28999 H 2681.72 1.36443 -3.71752 0
M  V30 29000 H 2682.89 -1.41553 -4.3852 0
M  V30 29001 H 2681.21 -1.12767 -4.0084 0
M  V30 29002 H 2683.81 1.40436 -5.15928 0
M  V30 29003 H 2684.15 2.10009 -3.59447 0
M  V30 29004 H 2684.68 0.439709 -3.95362 0
M  V30 29005 H 2681.42 -1.23951 -6.43674 0
M  V30 29006 H 2680.94 0.412107 -5.98383 0
M  V30 29007 H 2682.62 0.0696256 -6.46963 0
M  V30 29008 N 2682.75 1.57561 -0.0351337 0
M  V30 29009 C 2683.7 2.11744 0.96267 0
M  V30 29010 C 2684.69 1.04542 1.33294 0
M  V30 29011 O 2685.9 1.2297 1.31447 0
M  V30 29012 H 2682.27 0.676577 0.328248 0
M  V30 29013 H 2684.25 2.94507 0.480428 0
M  V30 29014 C 2682.99 2.66449 2.23384 0
M  V30 29015 H 2682.32 3.4859 1.95768 0
M  V30 29016 H 2683.76 3.08 2.91397 0
M  V30 29017 C 2682.22 1.59472 2.96766 0
M  V30 29018 O 2682.75 0.998068 3.89103 0
M  V30 29019 N 2680.95 1.31373 2.59209 0
M  V30 29020 H 2680.5 1.8008 1.84199 0
M  V30 29021 H 2680.46 0.600227 3.08617 0
M  V30 29022 N 2684.23 -0.238084 1.55791 0
M  V30 29023 C 2685.18 -1.3146 1.91888 0
M  V30 29024 C 2686.17 -1.49376 0.798955 0
M  V30 29025 O 2687.38 -1.50746 0.983652 0
M  V30 29026 H 2683.75 -0.440389 0.609559 0
M  V30 29027 H 2685.72 -0.982876 2.81748 0
M  V30 29028 C 2684.47 -2.66126 2.23768 0
M  V30 29029 H 2683.8 -2.53144 3.09449 0
M  V30 29030 H 2685.24 -3.40304 2.52921 0
M  V30 29031 C 2683.69 -3.19888 1.05705 0
M  V30 29032 O 2684.22 -4.00505 0.309594 0
M  V30 29033 N 2682.43 -2.78034 0.8453 0
M  V30 29034 H 2681.98 -2.12585 1.45483 0
M  V30 29035 H 2681.94 -3.14348 0.0570525 0
M  V30 29036 N 2685.71 -1.4932 -0.504115 0
M  V30 29037 C 2686.67 -1.65247 -1.58827 0
M  V30 29038 C 2687.67 -0.524412 -1.52008 0
M  V30 29039 O 2688.86 -0.790797 -1.55216 0
M  V30 29040 C 2685.99 -1.64692 -2.98478 0
M  V30 29041 H 2687.19 -2.61942 -1.46036 0
M  V30 29042 H 2684.74 -1.38304 -0.72812 0
M  V30 29043 H 2685.47 -0.695699 -3.1675 0
M  V30 29044 H 2685.26 -2.46612 -3.04836 0
M  V30 29045 H 2686.75 -1.79082 -3.77252 0
M  V30 29046 N 2687.19 0.754933 -1.38342 0
M  V30 29047 C 2688.13 1.89002 -1.35576 0
M  V30 29048 C 2689.13 1.67665 -0.241853 0
M  V30 29049 O 2690.33 1.75249 -0.410815 0
M  V30 29050 H 2686.71 0.621813 -0.422909 0
M  V30 29051 H 2688.68 1.88451 -2.31363 0
M  V30 29052 C 2687.43 3.26469 -1.19637 0
M  V30 29053 H 2686.75 3.43474 -2.04611 0
M  V30 29054 H 2688.19 4.06142 -1.21756 0
M  V30 29055 C 2686.65 3.36761 0.0968113 0
M  V30 29056 O 2687.18 3.87067 1.07432 0
M  V30 29057 N 2685.39 2.90196 0.153191 0
M  V30 29058 H 2684.93 2.49447 -0.642952 0
M  V30 29059 H 2684.89 2.97462 1.01802 0
M  V30 29060 N 2688.66 1.23189 0.982967 0
M  V30 29061 C 2689.61 1.0082 2.09614 0
M  V30 29062 C 2690.61 -0.0519698 1.6932 0
M  V30 29063 O 2691.81 0.101316 1.79715 0
M  V30 29064 H 2688.19 0.308911 0.685622 0
M  V30 29065 H 2690.16 1.95257 2.25649 0
M  V30 29066 C 2688.91 0.613304 3.42248 0
M  V30 29067 H 2688.23 1.42079 3.73702 0
M  V30 29068 H 2689.67 0.496282 4.21086 0
M  V30 29069 C 2688.13 -0.678175 3.30004 0
M  V30 29070 O 2688.66 -1.728 3.62633 0
M  V30 29071 N 2686.86 -0.653115 2.83166 0
M  V30 29072 H 2686.41 0.201537 2.5681 0
M  V30 29073 H 2686.37 -1.51747 2.75355 0
M  V30 29074 N 2690.14 -1.18133 1.04318 0
M  V30 29075 C 2691.37 -1.92112 0.768151 0
M  V30 29076 C 2691.78 -1.7632 -0.675026 0
M  V30 29077 O 2691.14 -1.09452 -1.46036 0
M  V30 29078 C 2691.19 -3.43446 1.12814 0
M  V30 29079 O 2690.91 -3.58743 2.51466 0
M  V30 29080 C 2692.41 -4.34519 0.877976 0
M  V30 29081 H 2689.63 -0.609812 0.279948 0
M  V30 29082 H 2692.18 -1.49857 1.39151 0
M  V30 29083 H 2690.33 -3.8348 0.549691 0
M  V30 29084 H 2690.75 -4.52443 2.65321 0
M  V30 29085 H 2692.22 -5.39247 1.17969 0
M  V30 29086 H 2692.7 -4.38801 -0.187162 0
M  V30 29087 H 2693.3 -4.00186 1.43984 0
M  V30 29088 N 2691.62 -0.822988 -1.34405 0
M  V30 29089 C 2692.58 -0.250311 -2.27829 0
M  V30 29090 C 2693.58 0.571827 -1.50289 0
M  V30 29091 O 2694.77 0.387923 -1.69826 0
M  V30 29092 C 2691.91 0.649078 -3.34664 0
M  V30 29093 H 2693.1 -1.07449 -2.7999 0
M  V30 29094 H 2690.65 -0.594855 -1.44538 0
M  V30 29095 H 2691.39 1.49632 -2.87717 0
M  V30 29096 H 2691.17 0.061051 -3.92052 0
M  V30 29097 H 2692.66 1.04356 -4.04351 0
M  V30 29098 N 2693.1 1.4662 -0.577957 0
M  V30 29099 C 2694.03 2.33044 0.145876 0
M  V30 29100 C 2695.01 1.45058 0.888387 0
M  V30 29101 O 2696.19 1.73883 0.864782 0
M  V30 29102 C 2693.32 3.27243 1.16316 0
M  V30 29103 C 2692.28 4.24633 0.535793 0
M  V30 29104 C 2691.6 5.08306 1.6592 0
M  V30 29105 C 2692.9 5.19665 -0.523953 0
M  V30 29106 H 2694.6 2.93813 -0.575688 0
M  V30 29107 H 2692.14 1.41285 -0.278297 0
M  V30 29108 H 2694.1 3.86556 1.67786 0
M  V30 29109 H 2692.82 2.64571 1.91494 0
M  V30 29110 H 2691.48 3.66576 0.0422115 0
M  V30 29111 H 2691.13 4.42022 2.40053 0
M  V30 29112 H 2690.83 5.74257 1.2451 0
M  V30 29113 H 2692.35 5.70482 2.17676 0
M  V30 29114 H 2693.77 5.73222 -0.0945067 0
M  V30 29115 H 2692.16 5.93933 -0.858105 0
M  V30 29116 H 2693.23 4.63885 -1.41205 0
M  V30 29117 N 2694.58 0.315484 1.5441 0
M  V30 29118 C 2695.82 -0.288936 2.00024 0
M  V30 29119 C 2696.15 -1.53288 1.20532 0
M  V30 29120 O 2695.42 -1.93511 0.30502 0
M  V30 29121 H 2694 -0.109753 0.738893 0
M  V30 29122 H 2696.66 0.430163 1.90094 0
M  V30 29123 H 2695.75 -0.550945 3.07199 0
M  V30 29124 N 2696.05 -1.5754 0.0434891 0
M  V30 29125 C 2697.47 -1.565 -0.313011 0
M  V30 29126 C 2697.67 -1.05046 -1.71953 0
M  V30 29127 O 2696.73 -0.703606 -2.42499 0
M  V30 29128 C 2698.04 -3.00333 -0.148491 0
M  V30 29129 C 2699.59 -3.12225 -0.220176 0
M  V30 29130 C 2700.06 -4.57922 -0.084276 0
M  V30 29131 N 2701.55 -4.62986 -0.1408 0
M  V30 29132 C 2702.29 -5.73369 -0.0596435 0
M  V30 29133 N 2701.78 -6.92761 0.0734222 0
M  V30 29134 N 2703.58 -5.61983 -0.114671 0
M  V30 29135 H 2695.73 -1.89312 0.963063 0
M  V30 29136 H 2697.99 -0.871459 0.37318 0
M  V30 29137 H 2697.7 -3.41984 0.820954 0
M  V30 29138 H 2697.57 -3.6599 -0.912734 0
M  V30 29139 H 2699.96 -2.70477 -1.18009 0
M  V30 29140 H 2700.04 -2.49261 0.57469 0
M  V30 29141 H 2699.68 -5.00354 0.87228 0
M  V30 29142 H 2699.61 -5.18884 -0.898189 0
M  V30 29143 H 2702.1 -3.77117 -0.243207 0
M  V30 29144 H 2702.42 -7.72694 0.128264 0
M  V30 29145 H 2700.76 -6.94915 0.108402 0
M  V30 29146 H 2703.95 -4.67596 -0.217129 0
M  V30 29147 H 2704.13 -6.47982 -0.047964 0
M  V30 29148 N 2697.53 0.229818 -1.55915 0
M  V30 29149 C 2698.46 1.28811 -1.94756 0
M  V30 29150 C 2699.44 1.49322 -0.814683 0
M  V30 29151 O 2700.63 1.61644 -1.07634 0
M  V30 29152 C 2697.76 2.63955 -2.2571 0
M  V30 29153 C 2696.71 2.58114 -3.4141 0
M  V30 29154 C 2696.04 3.97212 -3.57948 0
M  V30 29155 C 2697.34 2.13615 -4.76619 0
M  V30 29156 H 2699.03 0.965497 -2.83405 0
M  V30 29157 H 2696.58 0.463004 -1.36353 0
M  V30 29158 H 2698.53 3.38141 -2.51472 0
M  V30 29159 H 2697.26 2.97888 -1.33905 0
M  V30 29160 H 2695.91 1.86386 -3.15683 0
M  V30 29161 H 2695.56 4.28438 -2.63534 0
M  V30 29162 H 2695.26 3.94188 -4.35764 0
M  V30 29163 H 2696.79 4.73072 -3.8605 0
M  V30 29164 H 2698.2 2.7754 -5.01642 0
M  V30 29165 H 2696.6 2.21667 -5.57659 0
M  V30 29166 H 2697.67 1.0882 -4.72532 0
M  V30 29167 N 2699.01 1.49585 0.49619 0
M  V30 29168 C 2700.42 1.5246 1.07762 0
M  V30 29169 C 2700.77 0.313564 1.93678 0
M  V30 29170 O 2699.9 -0.576149 2.08589 0
M  V30 29171 C 2700.49 2.76275 1.96107 0
M  V30 29172 C 2699.05 2.81913 2.49404 0
M  V30 29173 C 2698.2 2.46437 1.27138 0
M  V30 29174 H 2701.15 1.56212 0.279886 0
M  V30 29175 H 2701.17 2.56709 2.80857 0
M  V30 29176 H 2700.68 3.64399 1.33549 0
M  V30 29177 H 2698.78 1.9808 3.15587 0
M  V30 29178 H 2698.9 3.84201 2.86227 0
M  V30 29179 H 2697.26 1.98321 1.59815 0
M  V30 29180 H 2698.04 3.36841 0.662807 0
M  V30 29181 N 2700.49 -0.747586 1.3874 0
M  V30 29182 C 2701.9 -1.05146 1.20069 0
M  V30 29183 C 2702.1 -2.01429 0.0535189 0
M  V30 29184 O 2701.16 -2.45297 -0.598817 0
M  V30 29185 C 2702.47 -1.62579 2.52959 0
M  V30 29186 C 2704.02 -1.74721 2.59695 0
M  V30 29187 C 2704.5 -2.35566 3.92776 0
M  V30 29188 N 2705.99 -2.4299 3.94348 0
M  V30 29189 C 2706.72 -2.90977 4.94085 0
M  V30 29190 N 2706.22 -3.38954 6.0422 0
M  V30 29191 N 2708.01 -2.90072 4.81472 0
M  V30 29192 H 2700.16 -0.108771 2.12121 0
M  V30 29193 H 2702.43 -0.110882 0.941493 0
M  V30 29194 H 2702.13 -0.992991 3.37391 0
M  V30 29195 H 2702.01 -2.6156 2.71783 0
M  V30 29196 H 2704.39 -2.37127 1.75655 0
M  V30 29197 H 2704.47 -0.744283 2.44733 0
M  V30 29198 H 2704.12 -1.73792 4.77241 0
M  V30 29199 H 2704.05 -3.36512 4.05052 0
M  V30 29200 H 2706.54 -2.09064 3.14802 0
M  V30 29201 H 2706.85 -3.74044 6.76248 0
M  V30 29202 H 2705.2 -3.36996 6.07831 0
M  V30 29203 H 2708.39 -2.51905 3.9454 0
M  V30 29204 H 2708.56 -3.27157 5.5935 0
M  V30 29205 N 2701.97 -1.23709 -0.97642 0
M  V30 29206 C 2703.38 -1.0659 -1.53282 0
M  V30 29207 C 2703.73 0.365492 -1.92766 0
M  V30 29208 O 2702.85 1.25274 -1.76452 0
M  V30 29209 C 2703.45 -1.92869 -2.78544 0
M  V30 29210 C 2702.01 -1.8 -3.30571 0
M  V30 29211 C 2701.15 -1.88331 -2.03535 0
M  V30 29212 H 2704.11 -1.37313 -0.795668 0
M  V30 29213 H 2704.13 -1.45583 -3.51548 0
M  V30 29214 H 2703.64 -2.97041 -2.49776 0
M  V30 29215 H 2701.74 -0.786266 -3.6421 0
M  V30 29216 H 2701.85 -2.63607 -4.0006 0
M  V30 29217 H 2700.22 -1.31958 -2.17851 0
M  V30 29218 H 2701 -2.94067 -1.77143 0
M  V30 29219 N 2703.44 1.17579 -1.04943 0
M  V30 29220 C 2704.41 2.19716 -0.652494 0
M  V30 29221 C 2705.41 1.58076 0.294717 0
M  V30 29222 O 2706.6 1.74021 0.0789273 0
M  V30 29223 C 2703.73 3.40874 0.0420113 0
M  V30 29224 H 2704.92 2.56348 -1.55647 0
M  V30 29225 H 2702.48 1.31616 -0.843019 0
M  V30 29226 H 2703.21 3.09785 0.959376 0
M  V30 29227 H 2703 3.8686 -0.638912 0
M  V30 29228 H 2704.49 4.16478 0.305927 0
M  V30 29229 N 2704.92 0.830104 1.33967 0
M  V30 29230 C 2706.17 0.420768 1.97671 0
M  V30 29231 C 2706.49 -1.02135 1.66113 0
M  V30 29232 O 2705.76 -1.71016 0.955533 0
M  V30 29233 H 2704.34 0.1526 0.731247 0
M  V30 29234 H 2707 1.06113 1.63481 0
M  V30 29235 H 2706.1 0.545642 3.07293 0
M  V30 29236 N 2706.4 -1.46311 0.585725 0
M  V30 29237 C 2707.63 -2.06453 0.0780529 0
M  V30 29238 C 2708.04 -1.43456 -1.23357 0
M  V30 29239 O 2707.38 -0.535117 -1.75733 0
M  V30 29240 C 2707.44 -3.59149 -0.158888 0
M  V30 29241 C 2707.11 -4.44355 1.0676 0
M  V30 29242 C 2708.11 -4.80704 1.98039 0
M  V30 29243 C 2705.79 -4.85445 1.29029 0
M  V30 29244 C 2707.78 -5.56974 3.09933 0
M  V30 29245 C 2705.47 -5.61473 2.41228 0
M  V30 29246 C 2706.47 -5.97152 3.31509 0
M  V30 29247 O 2706.16 -6.71643 4.41759 0
M  V30 29248 H 2705.89 -0.673685 0.0559013 0
M  V30 29249 H 2708.44 -1.88882 0.807027 0
M  V30 29250 H 2706.67 -3.75038 -0.942509 0
M  V30 29251 H 2708.36 -4.01207 -0.615443 0
M  V30 29252 H 2709.13 -4.49536 1.82051 0
M  V30 29253 H 2705.01 -4.57123 0.596648 0
M  V30 29254 H 2708.55 -5.84741 3.80426 0
M  V30 29255 H 2704.45 -5.92056 2.57177 0
M  V30 29256 H 2705.22 -6.90071 4.40164 0
M  V30 29257 N 2707.88 -0.323668 -1.54241 0
M  V30 29258 C 2709.29 0.164372 -1.85975 0
M  V30 29259 C 2709.64 1.51613 -1.24531 0
M  V30 29260 O 2708.77 2.09257 -0.551388 0
M  V30 29261 C 2709.36 0.305031 -3.37424 0
M  V30 29262 C 2707.92 0.737293 -3.69108 0
M  V30 29263 C 2707.07 -0.140933 -2.76942 0
M  V30 29264 H 2710.02 -0.543948 -1.49087 0
M  V30 29265 H 2710.04 1.13592 -3.63149 0
M  V30 29266 H 2709.55 -0.678943 -3.82115 0
M  V30 29267 H 2707.65 1.73101 -3.2995 0
M  V30 29268 H 2707.77 0.540969 -4.76036 0
M  V30 29269 H 2706.13 0.383527 -2.51796 0
M  V30 29270 H 2706.91 -1.12168 -3.24459 0
M  V30 29271 N 2709.36 1.57515 -0.0518432 0
M  V30 29272 C 2710.58 1.97444 0.634861 0
M  V30 29273 C 2711.01 0.929236 1.63545 0
M  V30 29274 O 2710.37 -0.107452 1.80981 0
M  V30 29275 C 2710.41 3.36445 1.29759 0
M  V30 29276 O 2709.52 3.34417 2.41327 0
M  V30 29277 H 2708.86 0.643177 0.164983 0
M  V30 29278 H 2711.39 2.04245 -0.120442 0
M  V30 29279 H 2711.4 3.73187 1.64912 0
M  V30 29280 H 2710.07 4.12054 0.564288 0
M  V30 29281 H 2708.65 3.09422 2.08117 0
M  V30 29282 N 2710.84 -0.221546 1.56035 0
M  V30 29283 C 2712.06 -0.962832 1.83132 0
M  V30 29284 C 2712.48 -1.77945 0.630966 0
M  V30 29285 O 2711.84 -1.78052 -0.400488 0
M  V30 29286 C 2711.89 -1.88039 3.08745 0
M  V30 29287 O 2711.61 -1.09679 4.24149 0
M  V30 29288 C 2713.11 -2.73557 3.48829 0
M  V30 29289 H 2710.33 -0.282183 0.60878 0
M  V30 29290 H 2712.87 -0.236774 2.03125 0
M  V30 29291 H 2711.03 -2.5604 2.90727 0
M  V30 29292 H 2711.44 -1.71965 4.95508 0
M  V30 29293 H 2712.92 -3.33642 4.39758 0
M  V30 29294 H 2713.39 -3.45951 2.70582 0
M  V30 29295 H 2714 -2.1097 3.69286 0
M  V30 29296 N 2712.31 -1.49846 -0.48825 0
M  V30 29297 C 2713.56 -1.60212 -1.24338 0
M  V30 29298 C 2713.89 -0.293685 -1.91966 0
M  V30 29299 O 2713.17 0.703686 -1.81324 0
M  V30 29300 C 2713.45 -2.7704 -2.30045 0
M  V30 29301 C 2713.3 -4.17716 -1.66834 0
M  V30 29302 C 2714.62 -2.8947 -3.31504 0
M  V30 29303 H 2711.74 -0.583133 -0.450694 0
M  V30 29304 H 2714.38 -1.82175 -0.539641 0
M  V30 29305 H 2712.53 -2.58444 -2.90067 0
M  V30 29306 H 2714.21 -4.4786 -1.10542 0
M  V30 29307 H 2712.45 -4.2277 -0.972004 0
M  V30 29308 H 2713.12 -4.95357 -2.43567 0
M  V30 29309 H 2715.6 -3.06438 -2.81487 0
M  V30 29310 H 2714.47 -3.72869 -4.02815 0
M  V30 29311 H 2714.73 -1.99357 -3.946 0
M  V30 29312 N 2713.79 0.740218 -1.39135 0
M  V30 29313 C 2715.02 1.53456 -1.3952 0
M  V30 29314 C 2715.44 1.88098 0.00965577 0
M  V30 29315 O 2714.8 1.51538 0.995285 0
M  V30 29316 C 2714.85 2.80196 -2.26986 0
M  V30 29317 O 2713.95 3.75905 -1.69615 0
M  V30 29318 H 2713.29 0.463628 -0.475336 0
M  V30 29319 H 2715.82 0.913685 -1.83065 0
M  V30 29320 H 2715.83 3.28985 -2.41315 0
M  V30 29321 H 2714.51 2.54315 -3.29085 0
M  V30 29322 H 2713.08 3.34655 -1.645 0
M  V30 29323 N 2715.27 1.24225 0.969846 0
M  V30 29324 C 2716.5 1.10764 1.74754 0
M  V30 29325 C 2716.91 -0.340008 1.85713 0
M  V30 29326 O 2716.27 -1.23472 1.34391 0
M  V30 29327 C 2716.32 1.73922 3.16912 0
M  V30 29328 O 2716.04 3.13027 3.06506 0
M  V30 29329 C 2717.54 1.66043 4.11029 0
M  V30 29330 H 2714.76 0.387097 0.548085 0
M  V30 29331 H 2717.31 1.64288 1.21777 0
M  V30 29332 H 2715.46 1.24406 3.66881 0
M  V30 29333 H 2715.88 3.43841 3.96073 0
M  V30 29334 H 2717.35 2.1492 5.08442 0
M  V30 29335 H 2717.83 0.621235 4.34784 0
M  V30 29336 H 2718.43 2.14975 3.66968 0
M  V30 29337 N 2716.75 -1.1702 1.05565 0
M  V30 29338 C 2717.99 -1.8765 0.769107 0
M  V30 29339 C 2718.33 -1.81057 -0.702295 0
M  V30 29340 O 2717.6 -1.22115 -1.51388 0
M  V30 29341 C 2717.88 -3.37524 1.25498 0
M  V30 29342 C 2717.74 -3.52848 2.78959 0
M  V30 29343 C 2719.06 -4.31675 0.856994 0
M  V30 29344 H 2716.18 -0.681383 0.280866 0
M  V30 29345 H 2718.82 -1.37591 1.3103 0
M  V30 29346 H 2716.97 -3.80288 0.794583 0
M  V30 29347 H 2718.64 -3.19073 3.33151 0
M  V30 29348 H 2716.88 -2.95001 3.18051 0
M  V30 29349 H 2717.55 -4.5807 3.08019 0
M  V30 29350 H 2720.03 -3.96773 1.25341 0
M  V30 29351 H 2718.91 -5.35067 1.22452 0
M  V30 29352 H 2719.17 -4.41455 -0.238709 0
M  V30 29353 N 2718.23 -0.837197 -1.33524 0
M  V30 29354 C 2719.14 -0.271609 -2.33022 0
M  V30 29355 C 2720.15 0.601485 -1.63273 0
M  V30 29356 O 2721.33 0.506004 -1.9494 0
M  V30 29357 C 2718.39 0.545388 -3.42383 0
M  V30 29358 C 2717.45 -0.351784 -4.27856 0
M  V30 29359 C 2716.69 0.426315 -5.31995 0
M  V30 29360 O 2716.91 1.65819 -5.45766 0
M  V30 29361 O 2715.84 -0.198805 -6.01572 0
M  V30 29362 H 2719.67 -1.09549 -2.83254 0
M  V30 29363 H 2717.25 -0.599679 -1.36836 0
M  V30 29364 H 2719.14 1.00972 -4.09124 0
M  V30 29365 H 2717.81 1.34636 -2.94372 0
M  V30 29366 H 2716.72 -0.863917 -3.63988 0
M  V30 29367 H 2718.05 -1.11748 -4.79347 0
M  V30 29368 N 2719.7 1.45999 -0.593476 0
M  V30 29369 C 2720.95 2.01929 -0.0830235 0
M  V30 29370 C 2721.27 1.46614 1.28567 0
M  V30 29371 O 2720.54 0.654942 1.84628 0
M  V30 29372 H 2719.12 0.746486 -0.0277013 0
M  V30 29373 H 2721.78 1.78972 -0.771688 0
M  V30 29374 H 2720.88 3.12092 -0.0221338 0
M  V30 29375 N 2721.18 0.331843 1.54067 0
M  V30 29376 C 2722.13 -0.546062 2.21364 0
M  V30 29377 C 2723.12 -1.07521 1.197 0
M  V30 29378 O 2724.31 -1.01086 1.45295 0
M  V30 29379 C 2721.44 -1.70237 2.98118 0
M  V30 29380 C 2720.52 -1.18771 4.07129 0
M  V30 29381 N 2720.91 -0.393376 5.04268 0
M  V30 29382 C 2719.21 -1.46569 4.21229 0
M  V30 29383 C 2719.91 -0.11547 5.81585 0
M  V30 29384 N 2718.89 -0.703892 5.39023 0
M  V30 29385 H 2722.69 0.0680268 2.93821 0
M  V30 29386 H 2720.21 0.138114 1.61812 0
M  V30 29387 H 2722.2 -2.34315 3.44822 0
M  V30 29388 H 2720.86 -2.31985 2.27185 0
M  V30 29389 H 2721.87 -0.0354847 5.17888 0
M  V30 29390 H 2718.55 -2.08841 3.61513 0
M  V30 29391 H 2719.94 0.524544 6.69849 0
M  V30 29392 N 2722.66 -1.57485 0.0601958 0
M  V30 29393 C 2723.91 -1.92663 -0.610353 0
M  V30 29394 C 2724.23 -0.940011 -1.70847 0
M  V30 29395 O 2723.5 0.013711 -1.95895 0
M  V30 29396 H 2722.08 -0.711212 -0.228445 0
M  V30 29397 H 2724.74 -1.94559 0.115322 0
M  V30 29398 H 2723.84 -2.94151 -1.04315 0
M  V30 29399 N 2724.14 0.213268 -1.5615 0
M  V30 29400 C 2725.55 0.779552 -1.69646 0
M  V30 29401 C 2725.9 1.84635 -0.663648 0
M  V30 29402 O 2725.03 2.1562 0.183595 0
M  V30 29403 C 2725.62 1.42079 -3.0757 0
M  V30 29404 C 2724.18 1.93437 -3.22892 0
M  V30 29405 C 2723.33 0.797565 -2.65583 0
M  V30 29406 H 2726.28 -0.011523 -1.58696 0
M  V30 29407 H 2726.3 2.28981 -3.03888 0
M  V30 29408 H 2725.81 0.64412 -3.82718 0
M  V30 29409 H 2723.91 2.73879 -2.52628 0
M  V30 29410 H 2724.02 2.10864 -4.30201 0
M  V30 29411 H 2722.39 1.20708 -2.2428 0
M  V30 29412 H 2723.17 0.0334336 -3.43284 0
M  V30 29413 N 2725.62 1.50103 0.480296 0
M  V30 29414 C 2727.03 1.53595 1.06139 0
M  V30 29415 C 2727.38 0.334089 1.93335 0
M  V30 29416 O 2726.5 -0.553993 2.09189 0
M  V30 29417 C 2727.1 2.78339 1.93165 0
M  V30 29418 C 2725.66 2.84542 2.464 0
M  V30 29419 C 2724.8 2.47772 1.24517 0
M  V30 29420 H 2727.76 1.56501 0.263302 0
M  V30 29421 H 2727.78 2.59673 2.78119 0
M  V30 29422 H 2727.29 3.65795 1.29676 0
M  V30 29423 H 2725.39 2.01416 3.13468 0
M  V30 29424 H 2725.5 3.87216 2.82136 0
M  V30 29425 H 2723.87 2.00005 1.57702 0
M  V30 29426 H 2724.65 3.37525 0.627043 0
M  V30 29427 N 2727.09 -0.732829 1.39526 0
M  V30 29428 C 2728.02 -1.86003 1.41157 0
M  V30 29429 C 2729.01 -1.67868 0.274644 0
M  V30 29430 O 2730.19 -1.88155 0.480778 0
M  V30 29431 C 2727.32 -3.23776 1.25644 0
M  V30 29432 C 2726.27 -3.56552 2.36759 0
M  V30 29433 C 2725.6 -4.93285 2.06334 0
M  V30 29434 C 2726.9 -3.59303 3.79076 0
M  V30 29435 H 2728.59 -1.84895 2.35487 0
M  V30 29436 H 2726.14 -0.888142 1.13349 0
M  V30 29437 H 2728.09 -4.02308 1.25405 0
M  V30 29438 H 2726.82 -3.25416 0.277829 0
M  V30 29439 H 2725.48 -2.80351 2.36218 0
M  V30 29440 H 2725.12 -4.91508 1.06906 0
M  V30 29441 H 2724.82 -5.16182 2.80766 0
M  V30 29442 H 2726.35 -5.74171 2.07749 0
M  V30 29443 H 2727.76 -4.27907 3.81534 0
M  V30 29444 H 2726.16 -3.9372 4.52885 0
M  V30 29445 H 2727.23 -2.5906 4.09897 0
M  V30 29446 N 2728.57 -1.24737 -0.963244 0
M  V30 29447 C 2729.8 -1.11785 -1.74697 0
M  V30 29448 C 2730.22 0.325226 -1.85267 0
M  V30 29449 O 2729.58 1.23551 -1.32683 0
M  V30 29450 C 2729.63 -1.76737 -3.14319 0
M  V30 29451 O 2728.73 -1.04116 -3.99041 0
M  V30 29452 H 2728.07 -0.390777 -0.536833 0
M  V30 29453 H 2730.6 -1.65133 -1.20798 0
M  V30 29454 H 2730.61 -1.82674 -3.64821 0
M  V30 29455 H 2729.29 -2.81732 -3.05941 0
M  V30 29456 H 2727.87 -1.05998 -3.57518 0
M  V30 29457 N 2730.05 1.16459 -1.06184 0
M  V30 29458 C 2731.46 1.68575 -0.802456 0
M  V30 29459 C 2731.81 1.84257 0.674088 0
M  V30 29460 O 2730.94 1.53732 1.523 0
M  V30 29461 C 2731.53 3.062 -1.45008 0
M  V30 29462 C 2730.09 3.55441 -1.23849 0
M  V30 29463 C 2729.24 2.31451 -1.52728 0
M  V30 29464 H 2732.19 1.00836 -1.22547 0
M  V30 29465 H 2732.21 3.70542 -0.864796 0
M  V30 29466 H 2731.72 2.94754 -2.52471 0
M  V30 29467 H 2729.82 3.72148 -0.183553 0
M  V30 29468 H 2729.94 4.37601 -1.95044 0
M  V30 29469 H 2728.3 2.3641 -0.947767 0
M  V30 29470 H 2729.08 2.22604 -2.61347 0
M  V30 29471 N 2731.53 0.844266 1.33079 0
M  V30 29472 C 2732.49 0.286525 2.27402 0
M  V30 29473 C 2733.49 -0.547845 1.5118 0
M  V30 29474 O 2734.68 -0.360856 1.70421 0
M  V30 29475 C 2731.81 -0.595754 3.35654 0
M  V30 29476 H 2733.01 1.1189 2.78246 0
M  V30 29477 H 2730.56 0.617774 1.43573 0
M  V30 29478 H 2731.29 -1.45035 2.90061 0
M  V30 29479 H 2731.08 0.00132887 3.921 0
M  V30 29480 H 2732.57 -0.979097 4.0596 0
M  V30 29481 N 2733.01 -1.45682 0.60121 0
M  V30 29482 C 2734.26 -2.01492 0.0915307 0
M  V30 29483 C 2734.57 -1.47619 -1.28328 0
M  V30 29484 O 2735.77 -1.95365 -1.88533 0
M  V30 29485 C 2734.23 -3.59723 0.112973 0
M  V30 29486 C 2733.84 -4.22593 1.48724 0
M  V30 29487 C 2735.58 -4.23122 -0.341797 0
M  V30 29488 C 2733.49 -5.72957 1.46541 0
M  V30 29489 H 2732.42 -0.753385 0.0304497 0
M  V30 29490 H 2735.07 -1.67221 0.755597 0
M  V30 29491 H 2733.45 -3.91154 -0.617623 0
M  V30 29492 H 2734.63 -4.02745 2.23904 0
M  V30 29493 H 2732.94 -3.71363 1.88357 0
M  V30 29494 H 2735.54 -5.33368 -0.37721 0
M  V30 29495 H 2735.88 -3.93349 -1.36318 0
M  V30 29496 H 2736.41 -3.96384 0.335326 0
M  V30 29497 H 2733.15 -6.07419 2.46419 0
M  V30 29498 H 2732.67 -5.95015 0.756102 0
M  V30 29499 H 2734.35 -6.36032 1.18629 0
M  V30 29500 N 2734.48 -0.340009 -1.53889 0
M  V30 29501 C 2735.9 0.0120472 -1.59595 0
M  V30 29502 C 2736.1 1.49039 -1.35608 0
M  V30 29503 O 2735.16 2.24863 -1.1486 0
M  V30 29504 C 2736.47 -0.420951 -2.97739 0
M  V30 29505 C 2738.02 -0.372995 -3.1077 0
M  V30 29506 C 2738.49 -0.781407 -4.51285 0
M  V30 29507 N 2739.98 -0.735454 -4.57324 0
M  V30 29508 C 2740.72 -1.02346 -5.64192 0
M  V30 29509 N 2740.21 -1.37945 -6.78928 0
M  V30 29510 N 2742.01 -0.947936 -5.54049 0
M  V30 29511 H 2734.16 -1.30302 -1.67736 0
M  V30 29512 H 2736.42 -0.530932 -0.785376 0
M  V30 29513 H 2736.13 -1.45158 -3.20347 0
M  V30 29514 H 2736 0.205655 -3.76639 0
M  V30 29515 H 2738.39 0.648454 -2.87887 0
M  V30 29516 H 2738.47 -1.03476 -2.33937 0
M  V30 29517 H 2738.11 -1.80085 -4.74902 0
M  V30 29518 H 2738.04 -0.0971604 -5.2651 0
M  V30 29519 H 2740.53 -0.472839 -3.7493 0
M  V30 29520 H 2740.85 -1.58415 -7.56389 0
M  V30 29521 H 2739.19 -1.41786 -6.80383 0
M  V30 29522 H 2742.38 -0.669196 -4.63292 0
M  V30 29523 H 2742.56 -1.17574 -6.37244 0
M  V30 29524 N 2735.96 1.57451 -0.0685468 0
M  V30 29525 C 2737.21 1.93653 0.602205 0
M  V30 29526 C 2737.54 0.948556 1.69458 0
M  V30 29527 O 2736.82 -0.0227478 1.94487 0
M  V30 29528 C 2737.1 3.40142 1.18217 0
M  V30 29529 C 2736.95 4.49696 0.0966641 0
M  V30 29530 C 2738.27 3.8738 2.08865 0
M  V30 29531 H 2735.39 0.704194 0.217441 0
M  V30 29532 H 2738.03 1.89528 -0.133854 0
M  V30 29533 H 2736.18 3.43788 1.80947 0
M  V30 29534 H 2737.86 4.58173 -0.536236 0
M  V30 29535 H 2736.1 4.29997 -0.573139 0
M  V30 29536 H 2736.77 5.49325 0.542798 0
M  V30 29537 H 2739.25 3.8572 1.56074 0
M  V30 29538 H 2738.12 4.90497 2.46381 0
M  V30 29539 H 2738.38 3.25135 2.99566 0
M  V30 29540 N 2737.44 -0.204984 1.56261 0
M  V30 29541 C 2738.37 -1.27791 1.90268 0
M  V30 29542 C 2739.39 -1.42213 0.792422 0
M  V30 29543 O 2740.58 -1.42815 1.0708 0
M  V30 29544 C 2737.68 -2.6514 2.11079 0
M  V30 29545 C 2736.85 -2.72454 3.42181 0
M  V30 29546 C 2735.91 -3.90929 3.52223 0
M  V30 29547 O 2734.93 -3.78493 4.25125 0
M  V30 29548 N 2736.14 -5.05958 2.84582 0
M  V30 29549 H 2738.9 -0.989384 2.82898 0
M  V30 29550 H 2736.46 -0.394953 1.57009 0
M  V30 29551 H 2738.45 -3.42807 2.15095 0
M  V30 29552 H 2737.02 -2.86522 1.24995 0
M  V30 29553 H 2736.24 -1.81136 3.50119 0
M  V30 29554 H 2737.53 -2.74323 4.28514 0
M  V30 29555 H 2736.93 -5.18959 2.25161 0
M  V30 29556 H 2735.49 -5.81607 2.94238 0
M  V30 29557 N 2738.92 -1.50356 -0.472329 0
M  V30 29558 C 2739.83 -1.71913 -1.59634 0
M  V30 29559 C 2740.85 -0.602224 -1.63246 0
M  V30 29560 O 2742.02 -0.880401 -1.81138 0
M  V30 29561 C 2739.09 -1.80748 -2.95857 0
M  V30 29562 C 2738.15 -3.04476 -3.02643 0
M  V30 29563 C 2737.38 -3.12879 -4.32368 0
M  V30 29564 O 2737.6 -2.28108 -5.22803 0
M  V30 29565 O 2736.54 -4.05595 -4.44721 0
M  V30 29566 H 2740.36 -2.67192 -1.44369 0
M  V30 29567 H 2737.95 -1.34437 -0.651694 0
M  V30 29568 H 2739.83 -1.88746 -3.76767 0
M  V30 29569 H 2738.51 -0.886524 -3.11324 0
M  V30 29570 H 2737.41 -3.01979 -2.20816 0
M  V30 29571 H 2738.75 -3.96145 -2.92112 0
M  V30 29572 N 2740.4 0.725419 -1.39912 0
M  V30 29573 C 2741.64 1.48735 -1.37861 0
M  V30 29574 C 2741.98 1.94187 0.0223846 0
M  V30 29575 O 2741.25 1.67468 0.989175 0
M  V30 29576 C 2741.53 2.72033 -2.35945 0
M  V30 29577 C 2741.39 2.32539 -3.85027 0
M  V30 29578 C 2742.71 3.74163 -2.31711 0
M  V30 29579 H 2739.83 0.539519 -0.502084 0
M  V30 29580 H 2742.47 0.828697 -1.70975 0
M  V30 29581 H 2740.62 3.28232 -2.07836 0
M  V30 29582 H 2742.29 1.81898 -4.23923 0
M  V30 29583 H 2740.53 1.64654 -4.01337 0
M  V30 29584 H 2741.2 3.20877 -4.49157 0
M  V30 29585 H 2743.68 3.27571 -2.56586 0
M  V30 29586 H 2742.56 4.58087 -3.02403 0
M  V30 29587 H 2742.82 4.21766 -1.32537 0
M  V30 29588 N 2741.88 1.25246 0.956615 0
M  V30 29589 C 2742.84 1.05541 2.03455 0
M  V30 29590 C 2743.84 0.00889143 1.60798 0
M  V30 29591 O 2745.03 0.250895 1.72384 0
M  V30 29592 C 2742.16 0.602024 3.35542 0
M  V30 29593 H 2743.35 2.01227 2.22369 0
M  V30 29594 H 2740.91 1.07625 1.13343 0
M  V30 29595 H 2741.64 -0.357528 3.22323 0
M  V30 29596 H 2741.43 1.35749 3.67851 0
M  V30 29597 H 2742.92 0.485527 4.14768 0
M  V30 29598 N 2743.35 -1.15894 1.068 0
M  V30 29599 C 2744.6 -1.87059 0.79879 0
M  V30 29600 C 2744.95 -1.80442 -0.667707 0
M  V30 29601 O 2744.25 -1.21277 -1.48332 0
M  V30 29602 C 2744.44 -3.35414 1.23419 0
M  V30 29603 C 2744.27 -3.56473 2.74148 0
M  V30 29604 C 2743.04 -3.72266 3.41681 0
M  V30 29605 C 2745.24 -3.54763 3.72354 0
M  V30 29606 N 2743.22 -3.81325 4.81108 0
M  V30 29607 C 2744.59 -3.69868 4.97592 0
M  V30 29608 C 2746.65 -3.38005 3.65591 0
M  V30 29609 C 2745.35 -3.69948 6.16872 0
M  V30 29610 C 2747.38 -3.3938 4.84329 0
M  V30 29611 C 2746.74 -3.5501 6.08398 0
M  V30 29612 H 2742.84 -0.701894 0.344773 0
M  V30 29613 H 2745.42 -1.39018 1.36316 0
M  V30 29614 H 2743.59 -3.82084 0.697589 0
M  V30 29615 H 2745.32 -3.94264 0.91311 0
M  V30 29616 H 2742.08 -3.72805 2.92085 0
M  V30 29617 H 2742.5 -3.89611 5.53654 0
M  V30 29618 H 2747.14 -3.24845 2.7062 0
M  V30 29619 H 2744.86 -3.81888 7.12171 0
M  V30 29620 H 2748.45 -3.27649 4.80767 0
M  V30 29621 H 2747.33 -3.55999 6.98737 0
M  V30 29622 N 2744.83 -0.851312 -1.32629 0
M  V30 29623 C 2745.78 -0.291509 -2.28952 0
M  V30 29624 C 2746.75 0.599649 -1.54898 0
M  V30 29625 O 2747.93 0.535272 -1.83138 0
M  V30 29626 C 2745.07 0.516932 -3.41206 0
M  V30 29627 C 2744.19 -0.399642 -4.30147 0
M  V30 29628 C 2743.32 0.421106 -5.29528 0
M  V30 29629 C 2742.36 -0.493076 -6.10111 0
M  V30 29630 N 2741.5 0.29029 -7.015 0
M  V30 29631 H 2746.34 -1.11818 -2.76226 0
M  V30 29632 H 2743.87 -0.56285 -1.35906 0
M  V30 29633 H 2745.83 1.00125 -4.05007 0
M  V30 29634 H 2744.46 1.30846 -2.95092 0
M  V30 29635 H 2743.51 -1.00233 -3.66957 0
M  V30 29636 H 2744.83 -1.10139 -4.86488 0
M  V30 29637 H 2743.98 0.968727 -5.98916 0
M  V30 29638 H 2742.72 1.15623 -4.73796 0
M  V30 29639 H 2741.72 -1.05261 -5.3963 0
M  V30 29640 H 2742.95 -1.22676 -6.67928 0
M  V30 29641 H 2740.9 1.00857 -6.482 0
M  V30 29642 H 2740.81 -0.352487 -7.55178 0
M  V30 29643 H 2742.08 0.819746 -7.75178 0
M  V30 29644 N 2746.31 1.45361 -0.608928 0
M  V30 29645 C 2747.24 2.33301 0.0964116 0
M  V30 29646 C 2748.22 1.46909 0.857418 0
M  V30 29647 O 2749.41 1.75678 0.827704 0
M  V30 29648 C 2746.54 3.29637 1.09348 0
M  V30 29649 C 2745.49 4.25674 0.445601 0
M  V30 29650 C 2744.82 5.11711 1.55101 0
M  V30 29651 C 2746.12 5.18437 -0.634063 0
M  V30 29652 H 2747.81 2.92526 -0.63788 0
M  V30 29653 H 2745.36 1.40663 -0.308203 0
M  V30 29654 H 2747.31 3.90028 1.59549 0
M  V30 29655 H 2746.03 2.68573 1.85839 0
M  V30 29656 H 2744.69 3.66583 -0.0355542 0
M  V30 29657 H 2744.34 4.47014 2.30623 0
M  V30 29658 H 2744.04 5.76769 1.12301 0
M  V30 29659 H 2745.56 5.74971 2.05527 0
M  V30 29660 H 2746.98 5.72893 -0.216074 0
M  V30 29661 H 2745.37 5.91979 -0.983893 0
M  V30 29662 H 2746.44 4.60785 -1.51013 0
M  V30 29663 N 2747.79 0.348166 1.53706 0
M  V30 29664 C 2749.01 -0.250847 2.05877 0
M  V30 29665 C 2749.44 -1.4307 1.22117 0
M  V30 29666 O 2748.8 -1.79757 0.236017 0
M  V30 29667 C 2748.84 -0.639354 3.54887 0
M  V30 29668 O 2747.95 -1.73881 3.73951 0
M  V30 29669 H 2747.29 -0.0406414 0.662755 0
M  V30 29670 H 2749.82 0.50372 1.98302 0
M  V30 29671 H 2749.83 -0.915225 3.97602 0
M  V30 29672 H 2748.5 0.223459 4.15299 0
M  V30 29673 H 2747.08 -1.45985 3.43137 0
M  V30 29674 N 2749.27 -1.57412 0.0768958 0
M  V30 29675 C 2750.49 -1.98429 -0.603369 0
M  V30 29676 C 2750.92 -0.955137 -1.62046 0
M  V30 29677 O 2750.27 0.0786459 -1.81129 0
M  V30 29678 C 2750.32 -3.38466 -1.2439 0
M  V30 29679 O 2749.43 -3.38214 -2.35976 0
M  V30 29680 H 2748.77 -0.64572 -0.15473 0
M  V30 29681 H 2751.3 -2.04028 0.152921 0
M  V30 29682 H 2751.31 -3.75763 -1.58954 0
M  V30 29683 H 2749.98 -4.129 -0.498663 0
M  V30 29684 H 2748.56 -3.12693 -2.03168 0
M  V30 29685 N 2750.74 0.196695 -1.56368 0
M  V30 29686 C 2751.69 1.26327 -1.95306 0
M  V30 29687 C 2752.69 1.47205 -0.838278 0
M  V30 29688 O 2753.89 1.48085 -1.02327 0
M  V30 29689 H 2750.27 0.424073 -0.62102 0
M  V30 29690 H 2752.24 0.907829 -2.84255 0
M  V30 29691 C 2750.99 2.601 -2.30745 0
M  V30 29692 H 2750.31 2.4485 -3.16051 0
M  V30 29693 H 2751.75 3.33479 -2.61854 0
M  V30 29694 C 2750.21 3.16973 -1.14149 0
M  V30 29695 O 2750.74 3.99544 -0.415672 0
M  V30 29696 N 2748.95 2.75695 -0.918719 0
M  V30 29697 H 2748.49 2.08653 -1.51068 0
M  V30 29698 H 2748.45 3.14086 -0.140376 0
M  V30 29699 N 2752.22 1.50604 0.464349 0
M  V30 29700 C 2753.64 1.3818 0.79866 0
M  V30 29701 C 2753.84 0.443115 1.96567 0
M  V30 29702 O 2752.89 -0.11177 2.52253 0
M  V30 29703 C 2754.21 2.79685 1.10439 0
M  V30 29704 C 2755.76 2.88647 1.21045 0
M  V30 29705 C 2756.23 4.31001 1.54927 0
M  V30 29706 N 2757.72 4.33983 1.61905 0
M  V30 29707 C 2758.46 5.41132 1.8964 0
M  V30 29708 N 2757.95 6.5848 2.1535 0
M  V30 29709 N 2759.75 5.28583 1.91198 0
M  V30 29710 H 2751.9 2.10204 -0.30464 0
M  V30 29711 H 2754.16 0.945123 -0.073797 0
M  V30 29712 H 2753.87 3.50242 0.319872 0
M  V30 29713 H 2753.74 3.17346 2.03891 0
M  V30 29714 H 2756.13 2.18304 1.98563 0
M  V30 29715 H 2756.21 2.5452 0.255568 0
M  V30 29716 H 2755.85 5.01883 0.77946 0
M  V30 29717 H 2755.78 4.6262 2.51576 0
M  V30 29718 H 2758.27 3.49368 1.44049 0
M  V30 29719 H 2758.59 7.35945 2.35805 0
M  V30 29720 H 2756.93 6.61643 2.12728 0
M  V30 29721 H 2760.12 4.359 1.70614 0
M  V30 29722 H 2760.29 6.12174 2.12477 0
M  V30 29723 N 2753.7 -0.717989 1.40295 0
M  V30 29724 C 2754.61 -1.86224 1.42681 0
M  V30 29725 C 2755.63 -1.71038 0.319685 0
M  V30 29726 O 2756.8 -1.93345 0.563886 0
M  V30 29727 C 2753.87 -3.21997 1.28526 0
M  V30 29728 C 2752.93 -3.49454 2.4936 0
M  V30 29729 C 2752.16 -4.78749 2.35871 0
M  V30 29730 O 2752.38 -5.53673 1.37123 0
M  V30 29731 O 2751.32 -5.06488 3.25198 0
M  V30 29732 H 2755.14 -1.87167 2.3917 0
M  V30 29733 H 2752.73 -0.868091 1.21592 0
M  V30 29734 H 2754.61 -4.03101 1.22831 0
M  V30 29735 H 2753.29 -3.21787 0.351415 0
M  V30 29736 H 2752.19 -2.68368 2.60633 0
M  V30 29737 H 2753.53 -3.54458 3.41497 0
M  V30 29738 N 2755.18 -1.25752 -0.94996 0
M  V30 29739 C 2756.59 -1.02675 -1.22189 0
M  V30 29740 C 2756.79 0.253553 -1.99898 0
M  V30 29741 O 2755.85 0.965035 -2.33331 0
M  V30 29742 C 2757.16 -2.2528 -1.99171 0
M  V30 29743 C 2758.71 -2.3009 -2.12197 0
M  V30 29744 C 2759.19 -3.52365 -2.9258 0
M  V30 29745 N 2760.68 -3.52789 -3.00156 0
M  V30 29746 C 2761.41 -4.44065 -3.62759 0
M  V30 29747 N 2760.91 -5.45619 -4.26933 0
M  V30 29748 N 2762.7 -4.31736 -3.59945 0
M  V30 29749 H 2754.85 -2.07997 -0.430221 0
M  V30 29750 H 2757.12 -0.913664 -0.252828 0
M  V30 29751 H 2756.82 -3.18356 -1.49473 0
M  V30 29752 H 2756.7 -2.28826 -2.99864 0
M  V30 29753 H 2759.08 -1.37534 -2.61091 0
M  V30 29754 H 2759.16 -2.3056 -1.10795 0
M  V30 29755 H 2758.81 -4.45245 -2.44375 0
M  V30 29756 H 2758.74 -3.49141 -3.94218 0
M  V30 29757 H 2761.23 -2.79331 -2.54524 0
M  V30 29758 H 2761.54 -6.1147 -4.72572 0
M  V30 29759 H 2759.89 -5.49486 -4.25547 0
M  V30 29760 H 2763.08 -3.51623 -3.08997 0
M  V30 29761 H 2763.25 -5.03066 -4.08446 0
M  V30 29762 N 2756.66 1.15326 -1.07413 0
M  V30 29763 C 2757.61 2.18092 -0.664826 0
M  V30 29764 C 2758.59 1.57878 0.310367 0
M  V30 29765 O 2759.78 1.76565 0.123995 0
M  V30 29766 C 2756.91 3.43239 -0.0648425 0
M  V30 29767 C 2756 4.10505 -1.06521 0
M  V30 29768 N 2756.39 4.53248 -2.24499 0
M  V30 29769 C 2754.69 4.36852 -0.89869 0
M  V30 29770 C 2755.39 5.05419 -2.87969 0
M  V30 29771 N 2754.36 4.99003 -2.15631 0
M  V30 29772 H 2758.17 2.48869 -1.56337 0
M  V30 29773 H 2755.68 1.31901 -0.947416 0
M  V30 29774 H 2757.68 4.16172 0.24629 0
M  V30 29775 H 2756.34 3.13944 0.828811 0
M  V30 29776 H 2757.35 4.46615 -2.62213 0
M  V30 29777 H 2754.02 4.1746 -0.0579852 0
M  V30 29778 H 2755.41 5.48445 -3.88146 0
M  V30 29779 N 2758.13 0.858334 1.32176 0
M  V30 29780 C 2759.38 0.464205 1.97416 0
M  V30 29781 C 2759.71 -0.978484 1.67748 0
M  V30 29782 O 2758.99 -1.68719 0.967684 0
M  V30 29783 C 2759.27 0.708156 3.53068 0
M  V30 29784 C 2759.12 2.19953 3.92353 0
M  V30 29785 C 2760.44 0.166958 4.39783 0
M  V30 29786 H 2757.56 0.170132 0.717094 0
M  V30 29787 H 2760.2 1.07743 1.56497 0
M  V30 29788 H 2758.35 0.186197 3.88054 0
M  V30 29789 H 2760.03 2.78785 3.67528 0
M  V30 29790 H 2758.27 2.67662 3.41379 0
M  V30 29791 H 2758.94 2.32091 5.00837 0
M  V30 29792 H 2761.42 0.613358 4.11555 0
M  V30 29793 H 2760.29 0.367189 5.4767 0
M  V30 29794 H 2760.55 -0.930483 4.32197 0
M  V30 29795 N 2759.61 -1.45036 0.616628 0
M  V30 29796 C 2761.02 -1.85632 0.199391 0
M  V30 29797 C 2761.37 -1.51568 -1.24585 0
M  V30 29798 O 2760.5 -0.946714 -1.94593 0
M  V30 29799 C 2761.09 -3.36934 0.355093 0
M  V30 29800 C 2759.65 -3.76399 -0.00752132 0
M  V30 29801 C 2758.8 -2.68952 0.675303 0
M  V30 29802 H 2761.75 -1.35709 0.822732 0
M  V30 29803 H 2761.77 -3.78283 -0.410135 0
M  V30 29804 H 2761.28 -3.61695 1.40705 0
M  V30 29805 H 2759.39 -3.57254 -1.05831 0
M  V30 29806 H 2759.5 -4.7749 0.39243 0
M  V30 29807 H 2757.86 -2.54453 0.112036 0
M  V30 29808 H 2758.65 -2.96548 1.72957 0
M  V30 29809 N 2761.09 -0.356312 -1.53519 0
M  V30 29810 C 2762.02 0.537874 -2.2177 0
M  V30 29811 C 2763 1.0903 -1.20628 0
M  V30 29812 O 2764.19 1.14818 -1.49496 0
M  V30 29813 C 2761.31 1.74121 -2.90516 0
M  V30 29814 C 2760.36 1.31708 -4.05654 0
M  V30 29815 S 2761.19 0.326142 -5.34506 0
M  V30 29816 C 2762.35 1.53602 -6.0676 0
M  V30 29817 H 2762.58 -0.0417934 -2.97271 0
M  V30 29818 H 2760.11 -0.140399 -1.5376 0
M  V30 29819 H 2762.07 2.4315 -3.30739 0
M  V30 29820 H 2760.73 2.29211 -2.14758 0
M  V30 29821 H 2759.93 2.21463 -4.52736 0
M  V30 29822 H 2759.53 0.706119 -3.67274 0
M  V30 29823 H 2761.82 2.46852 -6.30928 0
M  V30 29824 H 2762.76 1.10675 -6.99397 0
M  V30 29825 H 2763.17 1.73786 -5.37083 0
M  V30 29826 N 2762.57 1.57369 -0.0852427 0
M  V30 29827 C 2763.81 1.95872 0.584262 0
M  V30 29828 C 2764.17 0.965502 1.65958 0
M  V30 29829 O 2765.37 1.23866 2.38559 0
M  V30 29830 C 2763.64 3.38931 1.13405 0
M  V30 29831 S 2765.2 3.99422 1.8168 0
M  V30 29832 H 2762.02 0.684882 0.190938 0
M  V30 29833 H 2764.62 1.94825 -0.162302 0
M  V30 29834 H 2763.33 4.08991 0.339773 0
M  V30 29835 H 2762.86 3.43552 1.91666 0
M  V30 29836 H 2764.87 3.87422 3.1003 0
M  V30 29837 N 2764.05 -0.188399 1.5647 0
M  V30 29838 C 2764.96 -1.25376 1.98287 0
M  V30 29839 C 2765.97 -1.49423 0.891561 0
M  V30 29840 O 2767.15 -1.61906 1.19785 0
M  V30 29841 C 2764.21 -2.57665 2.31969 0
M  V30 29842 C 2763.27 -2.41631 3.54842 0
M  V30 29843 C 2762.51 -3.67611 3.86908 0
M  V30 29844 O 2762.73 -4.72066 3.20171 0
M  V30 29845 O 2761.66 -3.62741 4.80315 0
M  V30 29846 H 2765.49 -0.928861 2.89147 0
M  V30 29847 H 2763.08 -0.393929 1.44113 0
M  V30 29848 H 2764.96 -3.35733 2.54679 0
M  V30 29849 H 2763.63 -2.89769 1.44276 0
M  V30 29850 H 2762.54 -1.61652 3.37372 0
M  V30 29851 H 2763.87 -2.14457 4.43022 0
M  V30 29852 N 2765.53 -1.50848 -0.456355 0
M  V30 29853 C 2766.8 -1.531 -1.21736 0
M  V30 29854 C 2767.18 -0.284169 -2.09179 0
M  V30 29855 O 2766.53 0.731735 -2.16467 0
M  V30 29856 C 2766.74 -2.8348 -2.03568 0
M  V30 29857 C 2768.09 -3.34708 -2.61259 0
M  V30 29858 O 2769.11 -2.84902 -2.13797 0
M  V30 29859 O 2767.97 -4.21565 -3.47772 0
M  V30 29860 H 2765.07 -0.614728 -0.553208 0
M  V30 29861 H 2767.61 -1.63149 -0.466974 0
M  V30 29862 H 2766.38 -3.65694 -1.39226 0
M  V30 29863 H 2766.01 -2.76504 -2.85711 0
M  V30 29864 N 2767 0.710538 -1.40674 0
M  V30 29865 C 2767.93 1.83734 -1.44098 0
M  V30 29866 C 2768.91 1.6741 -0.301315 0
M  V30 29867 O 2770.1 1.87366 -0.510651 0
M  V30 29868 C 2767.23 3.21736 -1.30779 0
M  V30 29869 C 2766.18 3.5274 -2.42401 0
M  V30 29870 C 2765.51 4.8994 -2.14156 0
M  V30 29871 C 2766.81 3.53227 -3.84744 0
M  V30 29872 H 2768.5 1.81125 -2.38399 0
M  V30 29873 H 2766.05 0.869996 -1.14748 0
M  V30 29874 H 2768 4.00262 -1.3179 0
M  V30 29875 H 2766.73 3.24933 -0.329565 0
M  V30 29876 H 2765.39 2.76558 -2.40648 0
M  V30 29877 H 2765.03 4.89745 -1.14712 0
M  V30 29878 H 2764.73 5.1165 -2.88943 0
M  V30 29879 H 2766.26 5.70793 -2.16858 0
M  V30 29880 H 2767.67 4.21783 -3.88293 0
M  V30 29881 H 2766.07 3.86465 -4.59091 0
M  V30 29882 H 2767.14 2.52506 -4.13967 0
M  V30 29883 N 2768.48 1.26254 0.943277 0
M  V30 29884 C 2769.39 1.09401 2.0753 0
M  V30 29885 C 2770.41 0.0280755 1.73977 0
M  V30 29886 O 2771.58 0.231372 2.00067 0
M  V30 29887 C 2768.65 0.726582 3.39001 0
M  V30 29888 C 2767.71 1.8717 3.8635 0
M  V30 29889 C 2766.94 1.52171 5.11546 0
M  V30 29890 O 2767.17 0.422485 5.68833 0
M  V30 29891 O 2766.1 2.35575 5.53885 0
M  V30 29892 H 2769.93 2.04363 2.24654 0
M  V30 29893 H 2767.51 1.05297 1.05986 0
M  V30 29894 H 2769.39 0.534309 4.17999 0
M  V30 29895 H 2768.07 -0.193664 3.2312 0
M  V30 29896 H 2766.97 2.11892 3.08306 0
M  V30 29897 H 2768.31 2.77159 4.06748 0
M  V30 29898 N 2769.96 -1.14755 1.08024 0
M  V30 29899 C 2770.89 -2.21852 0.728287 0
M  V30 29900 C 2771.87 -1.67654 -0.287457 0
M  V30 29901 O 2773.06 -1.93551 -0.158693 0
M  V30 29902 C 2770.19 -3.47047 0.13261 0
M  V30 29903 C 2769.14 -4.14247 1.07627 0
M  V30 29904 C 2768.47 -5.33599 0.343001 0
M  V30 29905 C 2769.77 -4.63231 2.41276 0
M  V30 29906 H 2771.46 -2.51548 1.6237 0
M  V30 29907 H 2769.01 -1.20907 0.782146 0
M  V30 29908 H 2770.96 -4.21213 -0.125591 0
M  V30 29909 H 2769.68 -3.16703 -0.797915 0
M  V30 29910 H 2768.34 -3.4203 1.3195 0
M  V30 29911 H 2767.99 -4.99514 -0.591203 0
M  V30 29912 H 2767.69 -5.79504 0.972057 0
M  V30 29913 H 2769.21 -6.1053 0.0927611 0
M  V30 29914 H 2770.63 -5.28891 2.21241 0
M  V30 29915 H 2769.02 -5.19824 2.99839 0
M  V30 29916 H 2770.09 -3.78506 3.03086 0
M  V30 29917 N 2771.44 -0.865331 -1.31719 0
M  V30 29918 C 2772.85 -0.556622 -1.49579 0
M  V30 29919 C 2773.05 0.910322 -1.79765 0
M  V30 29920 O 2772.11 1.69277 -1.87354 0
M  V30 29921 C 2773.42 -1.45283 -2.63274 0
M  V30 29922 C 2774.97 -1.45438 -2.77158 0
M  V30 29923 C 2775.45 -2.33605 -3.93945 0
M  V30 29924 N 2776.94 -2.3146 -4.01224 0
M  V30 29925 C 2777.67 -2.96402 -4.9085 0
M  V30 29926 N 2777.17 -3.70496 -5.85409 0
M  V30 29927 N 2778.96 -2.85734 -4.84058 0
M  V30 29928 H 2771.11 -1.81458 -1.10393 0
M  V30 29929 H 2773.37 -0.77564 -0.545056 0
M  V30 29930 H 2773.08 -2.49645 -2.4773 0
M  V30 29931 H 2772.95 -1.14798 -3.59307 0
M  V30 29932 H 2775.34 -0.418362 -2.92119 0
M  V30 29933 H 2775.42 -1.79944 -1.81807 0
M  V30 29934 H 2775.07 -3.37281 -3.79742 0
M  V30 29935 H 2775 -1.96426 -4.88594 0
M  V30 29936 H 2777.49 -1.77599 -3.33567 0
M  V30 29937 H 2777.8 -4.17189 -6.50517 0
M  V30 29938 H 2776.15 -3.74605 -5.85403 0
M  V30 29939 H 2779.34 -2.27391 -4.09159 0
M  V30 29940 H 2779.51 -3.36627 -5.53703 0
M  V30 29941 N 2772.92 1.44707 -0.624311 0
M  V30 29942 C 2774.33 1.56955 -0.28935 0
M  V30 29943 C 2774.53 1.61297 1.2077 0
M  V30 29944 O 2773.59 1.55231 1.99147 0
M  V30 29945 C 2774.9 2.84445 -0.975265 0
M  V30 29946 C 2776.45 2.98147 -0.952762 0
M  V30 29947 C 2776.92 4.2843 -1.61901 0
M  V30 29948 N 2778.41 4.35228 -1.58528 0
M  V30 29949 C 2779.15 5.3474 -2.06979 0
M  V30 29950 N 2778.65 6.40697 -2.6359 0
M  V30 29951 N 2780.44 5.26205 -1.97648 0
M  V30 29952 H 2772.59 1.40132 -1.59615 0
M  V30 29953 H 2774.85 0.67107 -0.669604 0
M  V30 29954 H 2774.56 2.87197 -2.03004 0
M  V30 29955 H 2774.43 3.73752 -0.508815 0
M  V30 29956 H 2776.82 2.94952 0.0935162 0
M  V30 29957 H 2776.9 2.10206 -1.45764 0
M  V30 29958 H 2776.54 4.32384 -2.6647 0
M  V30 29959 H 2776.47 5.15216 -1.08902 0
M  V30 29960 H 2778.97 3.5927 -1.17189 0
M  V30 29961 H 2779.28 7.12903 -2.9831 0
M  V30 29962 H 2777.62 6.41401 -2.67637 0
M  V30 29963 H 2780.81 4.42339 -1.53147 0
M  V30 29964 H 2780.99 6.03606 -2.35719 0
M  V30 29965 N 2774.39 0.364449 1.53328 0
M  V30 29966 C 2775.67 -0.281928 1.93558 0
M  V30 29967 C 2776.05 -1.66488 1.29788 0
M  V30 29968 O 2775.4 -2.23893 0.456552 0
M  V30 29969 C 2775.61 -0.33327 3.47405 0
M  V30 29970 C 2776.96 -0.574157 4.207 0
M  V30 29971 O 2777.98 -0.414525 3.5378 0
M  V30 29972 O 2776.84 -0.884907 5.39288 0
M  V30 29973 H 2773.93 -0.168867 0.809576 0
M  V30 29974 H 2776.48 0.41715 1.64493 0
M  V30 29975 H 2775.25 0.636394 3.8609 0
M  V30 29976 H 2774.87 -1.07829 3.82699 0
M  V30 29977 N 2775.87 -1.57322 0.0935872 0
M  V30 29978 C 2777.1 -1.99058 -0.582289 0
M  V30 29979 C 2777.52 -0.97227 -1.61023 0
M  V30 29980 O 2776.88 0.0594303 -1.81203 0
M  V30 29981 C 2776.93 -3.39767 -1.20793 0
M  V30 29982 O 2776.03 -3.40698 -2.32376 0
M  V30 29983 H 2775.37 -0.647325 -0.147872 0
M  V30 29984 H 2777.9 -2.03854 0.174552 0
M  V30 29985 H 2777.91 -3.77428 -1.54959 0
M  V30 29986 H 2776.59 -4.13405 -0.454841 0
M  V30 29987 H 2775.16 -3.14831 -1.9984 0
M  V30 29988 N 2777.35 0.180099 -1.56568 0
M  V30 29989 C 2778.6 0.896361 -1.81135 0
M  V30 29990 C 2778.92 1.8316 -0.669146 0
M  V30 29991 O 2778.19 1.93406 0.311582 0
M  V30 29992 H 2776.77 0.333987 -0.668178 0
M  V30 29993 H 2779.43 0.182017 -1.94048 0
M  V30 29994 H 2778.53 1.47852 -2.74856 0
M  V30 29995 N 2778.83 1.51088 0.448349 0
M  V30 29996 C 2780.05 1.67283 1.22602 0
M  V30 29997 C 2780.48 0.365078 1.84523 0
M  V30 29998 O 2779.84 -0.673612 1.68322 0
M  V30 29999 C 2779.88 2.78233 2.29388 0
M  V30 30000 O 2778.99 2.41069 3.34604 0
M  V30 30001 H 2778.33 0.558136 0.359695 0
M  V30 30002 H 2780.86 1.97593 0.530868 0
M  V30 30003 H 2780.87 3.0199 2.74346 0
M  V30 30004 H 2779.54 3.73134 1.83694 0
M  V30 30005 H 2778.12 2.27843 2.95198 0
M  V30 30006 N 2780.31 -0.703068 1.41049 0
M  V30 30007 C 2781.27 -1.79882 1.42039 0
M  V30 30008 C 2782.27 -1.57741 0.312181 0
M  V30 30009 O 2783.46 -1.64552 0.571701 0
M  V30 30010 C 2780.59 -3.18152 1.22443 0
M  V30 30011 H 2781.78 -1.80398 2.39575 0
M  V30 30012 H 2779.34 -0.909955 1.27081 0
M  V30 30013 H 2780.07 -3.23279 0.257169 0
M  V30 30014 H 2779.86 -3.35624 2.02729 0
M  V30 30015 H 2781.35 -3.98153 1.25953 0
M  V30 30016 N 2781.78 -1.26752 -0.936569 0
M  V30 30017 C 2783.03 -1.12346 -1.67996 0
M  V30 30018 C 2783.35 0.332905 -1.92137 0
M  V30 30019 O 2782.62 1.23418 -1.52134 0
M  V30 30020 H 2781.2 -0.412767 -0.622602 0
M  V30 30021 H 2783.87 -1.59149 -1.12506 0
M  V30 30022 H 2782.96 -1.64576 -2.65182 0
M  V30 30023 N 2783.26 1.1418 -1.08631 0
M  V30 30024 C 2784.49 1.89129 -0.838923 0
M  V30 30025 C 2784.91 1.78704 0.609121 0
M  V30 30026 O 2784.26 1.14796 1.41874 0
M  V30 30027 C 2784.31 3.39023 -1.25483 0
M  V30 30028 O 2784.03 3.49163 -2.64607 0
M  V30 30029 C 2785.54 4.30961 -1.03864 0
M  V30 30030 H 2782.76 0.599001 -0.302388 0
M  V30 30031 H 2785.3 1.44589 -1.44617 0
M  V30 30032 H 2783.45 3.81176 -0.691638 0
M  V30 30033 H 2783.87 4.42284 -2.8193 0
M  V30 30034 H 2785.34 5.34497 -1.37901 0
M  V30 30035 H 2785.82 4.39193 0.024175 0
M  V30 30036 H 2786.43 3.94566 -1.58738 0
M  V30 30037 N 2784.74 0.872304 1.31258 0
M  V30 30038 C 2785.67 0.28701 2.27396 0
M  V30 30039 C 2786.69 -0.551271 1.53182 0
M  V30 30040 O 2787.87 -0.372883 1.74562 0
M  V30 30041 C 2784.97 -0.611559 3.33336 0
M  V30 30042 C 2784.15 0.194806 4.36966 0
M  V30 30043 C 2783.21 -0.632266 5.22388 0
M  V30 30044 O 2782.23 -0.059469 5.69169 0
M  V30 30045 N 2783.43 -1.94382 5.46988 0
M  V30 30046 H 2786.2 1.11318 2.78259 0
M  V30 30047 H 2783.76 0.73402 1.44304 0
M  V30 30048 H 2785.75 -1.17061 3.874 0
M  V30 30049 H 2784.32 -1.33841 2.82499 0
M  V30 30050 H 2783.54 0.935308 3.82943 0
M  V30 30051 H 2784.83 0.748023 5.03271 0
M  V30 30052 H 2784.23 -2.43228 5.10741 0
M  V30 30053 H 2782.79 -2.4506 6.03977 0
M  V30 30054 N 2786.22 -1.44374 0.631976 0
M  V30 30055 C 2787.18 -2.29114 -0.0627739 0
M  V30 30056 C 2788.18 -1.41085 -0.771469 0
M  V30 30057 O 2789.37 -1.62948 -0.61593 0
M  V30 30058 C 2786.5 -3.22683 -1.09947 0
M  V30 30059 H 2787.7 -2.92029 0.682561 0
M  V30 30060 H 2785.25 -1.513 0.392154 0
M  V30 30061 H 2785.98 -2.64619 -1.87476 0
M  V30 30062 H 2785.77 -3.87556 -0.595218 0
M  V30 30063 H 2787.26 -3.86339 -1.58532 0
M  V30 30064 N 2787.7 -0.372575 -1.53133 0
M  V30 30065 C 2788.65 0.487179 -2.22734 0
M  V30 30066 C 2789.63 1.0431 -1.22508 0
M  V30 30067 O 2790.82 0.971979 -1.47924 0
M  V30 30068 C 2787.95 1.62273 -3.02527 0
M  V30 30069 C 2787.04 1.07935 -4.10135 0
M  V30 30070 N 2787.43 0.25954 -5.05134 0
M  V30 30071 C 2785.73 1.35349 -4.24967 0
M  V30 30072 C 2786.43 -0.0387679 -5.81687 0
M  V30 30073 N 2785.4 0.560732 -5.407 0
M  V30 30074 H 2789.21 -0.145904 -2.93538 0
M  V30 30075 H 2786.72 -0.180967 -1.61389 0
M  V30 30076 H 2788.72 2.2509 -3.50913 0
M  V30 30077 H 2787.38 2.2588 -2.33256 0
M  V30 30078 H 2788.39 -0.101837 -5.178 0
M  V30 30079 H 2785.06 1.99183 -3.66923 0
M  V30 30080 H 2786.45 -0.701958 -6.68223 0
M  V30 30081 N 2789.17 1.5727 -0.101929 0
M  V30 30082 C 2790.41 1.9648 0.563455 0
M  V30 30083 C 2790.78 0.98305 1.64925 0
M  V30 30084 O 2791.98 1.2639 2.37232 0
M  V30 30085 C 2790.25 3.40115 1.09803 0
M  V30 30086 S 2791.81 4.01326 1.77433 0
M  V30 30087 H 2788.63 0.686869 0.183663 0
M  V30 30088 H 2791.23 1.94642 -0.182956 0
M  V30 30089 H 2789.93 4.09328 0.296375 0
M  V30 30090 H 2789.46 3.45565 1.88012 0
M  V30 30091 H 2791.48 3.90689 3.05903 0
M  V30 30092 N 2790.65 -0.171793 1.56661 0
M  V30 30093 C 2791.58 -1.21494 1.99403 0
M  V30 30094 C 2792.56 -1.46195 0.869541 0
M  V30 30095 O 2793.75 -1.57537 1.13559 0
M  V30 30096 C 2790.88 -2.55396 2.35351 0
M  V30 30097 C 2789.83 -2.45265 3.50755 0
M  V30 30098 C 2789.16 -3.83653 3.72444 0
M  V30 30099 C 2790.46 -1.95778 4.84219 0
M  V30 30100 H 2792.15 -0.859648 2.86793 0
M  V30 30101 H 2789.7 -0.412079 1.37978 0
M  V30 30102 H 2791.65 -3.28575 2.63849 0
M  V30 30103 H 2790.38 -2.92713 1.44869 0
M  V30 30104 H 2789.03 -1.74541 3.22383 0
M  V30 30105 H 2788.68 -4.18362 2.79253 0
M  V30 30106 H 2788.38 -3.77743 4.50093 0
M  V30 30107 H 2789.91 -4.58418 4.03342 0
M  V30 30108 H 2791.32 -2.58731 5.11597 0
M  V30 30109 H 2789.72 -2.00817 5.65502 0
M  V30 30110 H 2790.79 -0.912075 4.76245 0
M  V30 30111 N 2792.13 -1.51324 -0.44033 0
M  V30 30112 C 2793.06 -1.75367 -1.54171 0
M  V30 30113 C 2794.04 -0.603403 -1.59038 0
M  V30 30114 O 2795.23 -0.845804 -1.74814 0
M  V30 30115 C 2792.36 -1.87598 -2.92274 0
M  V30 30116 C 2791.31 -3.03014 -3.02269 0
M  V30 30117 C 2790.64 -3.00425 -4.42322 0
M  V30 30118 C 2791.94 -4.43029 -2.76627 0
M  V30 30119 H 2793.63 -2.67588 -1.34302 0
M  V30 30120 H 2791.18 -1.28764 -0.644656 0
M  V30 30121 H 2793.13 -2.03002 -3.69281 0
M  V30 30122 H 2791.85 -0.920234 -3.13368 0
M  V30 30123 H 2790.51 -2.87311 -2.27701 0
M  V30 30124 H 2790.16 -2.02634 -4.60379 0
M  V30 30125 H 2789.86 -3.77926 -4.49939 0
M  V30 30126 H 2791.38 -3.17918 -5.21306 0
M  V30 30127 H 2792.8 -4.59099 -3.43368 0
M  V30 30128 H 2791.2 -5.22213 -2.95657 0
M  V30 30129 H 2792.27 -4.53273 -1.72254 0
M  V30 30130 N 2793.61 0.695578 -1.41419 0
M  V30 30131 C 2794.54 1.82195 -1.46039 0
M  V30 30132 C 2795.52 1.67081 -0.319054 0
M  V30 30133 O 2796.7 1.86814 -0.530495 0
M  V30 30134 C 2793.83 3.20331 -1.34184 0
M  V30 30135 C 2792.79 3.50149 -2.46129 0
M  V30 30136 C 2792.11 4.87641 -2.1934 0
M  V30 30137 C 2793.41 3.49126 -3.88469 0
M  V30 30138 H 2795.11 1.78587 -2.40306 0
M  V30 30139 H 2792.65 0.857777 -1.15664 0
M  V30 30140 H 2794.61 3.98841 -1.36028 0
M  V30 30141 H 2793.33 3.24565 -0.364009 0
M  V30 30142 H 2791.99 2.7399 -2.43568 0
M  V30 30143 H 2791.64 4.88501 -1.199 0
M  V30 30144 H 2791.34 5.08557 -2.94353 0
M  V30 30145 H 2792.86 5.68461 -2.22899 0
M  V30 30146 H 2794.28 4.17641 -3.92745 0
M  V30 30147 H 2792.67 3.81574 -4.63164 0
M  V30 30148 H 2793.74 2.48102 -4.16622 0
M  V30 30149 N 2795.09 1.27247 0.929833 0
M  V30 30150 C 2796.5 1.04606 1.2054 0
M  V30 30151 C 2796.7 -0.221719 2.00276 0
M  V30 30152 O 2795.76 -0.927792 2.34837 0
M  V30 30153 C 2797.07 2.2842 1.95562 0
M  V30 30154 C 2798.62 2.33437 2.08509 0
M  V30 30155 C 2799.1 3.56975 2.86937 0
M  V30 30156 N 2800.59 3.5752 2.94506 0
M  V30 30157 C 2801.32 4.4978 3.55648 0
M  V30 30158 N 2800.82 5.52342 4.18199 0
M  V30 30159 N 2802.61 4.37408 3.53031 0
M  V30 30160 H 2794.76 2.08655 0.397076 0
M  V30 30161 H 2797.02 0.917571 0.23826 0
M  V30 30162 H 2796.73 3.20694 1.44389 0
M  V30 30163 H 2796.6 2.33568 2.96186 0
M  V30 30164 H 2798.99 1.41671 2.58869 0
M  V30 30165 H 2799.07 2.32294 1.07113 0
M  V30 30166 H 2798.72 4.49077 2.37261 0
M  V30 30167 H 2798.65 3.55369 3.88614 0
M  V30 30168 H 2801.14 2.83345 2.50048 0
M  V30 30169 H 2801.45 6.1891 4.62785 0
M  V30 30170 H 2799.8 5.56187 4.16751 0
M  V30 30171 H 2802.99 3.56494 3.03364 0
M  V30 30172 H 2803.16 5.095 4.00391 0
M  V30 30173 N 2796.57 -1.13603 1.09235 0
M  V30 30174 C 2797.51 -2.18953 0.72996 0
M  V30 30175 C 2798.48 -1.63586 -0.287887 0
M  V30 30176 O 2799.67 -1.90041 -0.16997 0
M  V30 30177 C 2796.81 -3.44754 0.154549 0
M  V30 30178 C 2795.92 -4.14232 1.2262 0
M  V30 30179 C 2795.06 -5.27642 0.61375 0
M  V30 30180 C 2794.09 -5.88967 1.66684 0
M  V30 30181 N 2793.23 -6.93813 1.07557 0
M  V30 30182 H 2798.07 -2.49299 1.63261 0
M  V30 30183 H 2795.61 -1.22411 0.815715 0
M  V30 30184 H 2797.57 -4.16735 -0.19685 0
M  V30 30185 H 2796.2 -3.14864 -0.711377 0
M  V30 30186 H 2795.25 -3.40554 1.69491 0
M  V30 30187 H 2796.56 -4.55895 2.02388 0
M  V30 30188 H 2795.71 -6.06333 0.211082 0
M  V30 30189 H 2794.45 -4.87224 -0.215498 0
M  V30 30190 H 2793.46 -5.08974 2.07908 0
M  V30 30191 H 2794.68 -6.31459 2.49872 0
M  V30 30192 H 2792.63 -6.55454 0.267567 0
M  V30 30193 H 2792.55 -7.34007 1.81024 0
M  V30 30194 H 2793.81 -7.76359 0.699042 0
M  V30 30195 N 2798.04 -0.879253 -1.30793 0
M  V30 30196 C 2799.01 -0.346716 -2.26562 0
M  V30 30197 C 2800.01 0.50757 -1.52579 0
M  V30 30198 O 2801.2 0.315545 -1.71318 0
M  V30 30199 C 2798.33 0.506552 -3.37116 0
M  V30 30200 H 2799.52 -1.19228 -2.75181 0
M  V30 30201 H 2797.07 -0.655623 -1.41885 0
M  V30 30202 H 2797.81 1.37294 -2.93804 0
M  V30 30203 H 2797.59 -0.105287 -3.91959 0
M  V30 30204 H 2799.08 0.87112 -4.08413 0
M  V30 30205 N 2799.52 1.44037 -0.639624 0
M  V30 30206 C 2800.47 2.32488 0.0723 0
M  V30 30207 C 2801.46 1.47836 0.827103 0
M  V30 30208 O 2802.67 1.64129 0.739041 0
M  V30 30209 H 2799.04 0.750817 0.0421564 0
M  V30 30210 H 2801.02 2.90274 -0.691644 0
M  V30 30211 C 2799.76 3.31955 1.03446 0
M  V30 30212 H 2799.09 3.97109 0.46308 0
M  V30 30213 H 2800.53 3.96507 1.50193 0
M  V30 30214 C 2798.99 2.61521 2.12387 0
M  V30 30215 O 2799.52 2.42049 3.20585 0
M  V30 30216 N 2797.72 2.21119 1.88559 0
M  V30 30217 H 2797.27 2.37156 1.00572 0
M  V30 30218 H 2797.23 1.74321 2.61648 0
M  V30 30219 N 2801 0.380691 1.52933 0
M  V30 30220 C 2802.41 -0.0952356 1.86457 0
M  V30 30221 C 2802.76 -1.46886 1.30073 0
M  V30 30222 O 2801.89 -2.07067 0.628673 0
M  V30 30223 C 2802.48 -0.179589 3.38324 0
M  V30 30224 C 2801.04 -0.599793 3.7159 0
M  V30 30225 C 2800.19 0.243621 2.76228 0
M  V30 30226 H 2803.14 0.598906 1.46965 0
M  V30 30227 H 2803.16 -1.00035 3.67115 0
M  V30 30228 H 2802.67 0.820295 3.79332 0
M  V30 30229 H 2800.77 -1.60736 3.36147 0
M  V30 30230 H 2800.89 -0.363919 4.77716 0
M  V30 30231 H 2799.25 -0.289811 2.53046 0
M  V30 30232 H 2800.03 1.24132 3.20072 0
M  V30 30233 N 2802.48 -1.57214 0.110268 0
M  V30 30234 C 2803.7 -1.99665 -0.561144 0
M  V30 30235 C 2804.13 -0.989294 -1.59983 0
M  V30 30236 O 2803.49 0.040208 -1.81255 0
M  V30 30237 C 2803.53 -3.41029 -1.17183 0
M  V30 30238 O 2802.64 -3.43144 -2.28749 0
M  V30 30239 H 2801.98 -0.648857 -0.140998 0
M  V30 30240 H 2804.51 -2.03657 0.196164 0
M  V30 30241 H 2804.52 -3.7905 -1.50947 0
M  V30 30242 H 2803.19 -4.13865 -0.410968 0
M  V30 30243 H 2801.77 -3.16933 -1.96489 0
M  V30 30244 N 2803.96 0.163482 -1.5675 0
M  V30 30245 C 2805.37 0.515541 -1.51044 0
M  V30 30246 C 2805.57 1.84243 -0.815887 0
M  V30 30247 O 2804.63 2.49632 -0.37952 0
M  V30 30248 C 2805.94 0.541062 -2.95792 0
M  V30 30249 C 2807.49 0.627722 -3.06641 0
M  V30 30250 C 2807.96 0.684062 -4.52863 0
M  V30 30251 N 2809.45 0.746738 -4.57141 0
M  V30 30252 C 2810.19 0.811037 -5.67635 0
M  V30 30253 N 2809.69 0.83569 -6.87741 0
M  V30 30254 N 2811.48 0.850658 -5.55626 0
M  V30 30255 H 2803.63 -0.706485 -2.00306 0
M  V30 30256 H 2805.89 -0.255675 -0.912872 0
M  V30 30257 H 2805.6 -0.365391 -3.49797 0
M  V30 30258 H 2805.47 1.38481 -3.5086 0
M  V30 30259 H 2807.86 1.5246 -2.52666 0
M  V30 30260 H 2807.94 -0.24285 -2.54645 0
M  V30 30261 H 2807.58 -0.208589 -5.07471 0
M  V30 30262 H 2807.51 1.57089 -5.02624 0
M  V30 30263 H 2810.01 0.735652 -3.7067 0
M  V30 30264 H 2810.32 0.886144 -7.67703 0
M  V30 30265 H 2808.66 0.803837 -6.90336 0
M  V30 30266 H 2811.85 0.828454 -4.60711 0
M  V30 30267 H 2812.03 0.897305 -6.41757 0
M  V30 30268 N 2805.43 1.51555 0.432299 0
M  V30 30269 C 2806.67 1.66135 1.19073 0
M  V30 30270 C 2807.04 0.371906 1.88364 0
M  V30 30271 O 2808.24 0.393537 2.65904 0
M  V30 30272 C 2806.51 2.83465 2.17675 0
M  V30 30273 S 2808.07 3.18402 3.01937 0
M  V30 30274 H 2804.89 0.585258 0.403725 0
M  V30 30275 H 2807.49 1.89477 0.481521 0
M  V30 30276 H 2806.19 3.75586 1.65418 0
M  V30 30277 H 2805.72 2.62327 2.93169 0
M  V30 30278 H 2807.74 2.65226 4.19368 0
M  V30 30279 N 2806.91 -0.688069 1.41786 0
M  V30 30280 C 2807.86 -1.79418 1.40688 0
M  V30 30281 C 2808.85 -1.58443 0.280123 0
M  V30 30282 O 2810.04 -1.69147 0.521362 0
M  V30 30283 C 2807.17 -3.17783 1.2988 0
M  V30 30284 C 2806.25 -3.44428 2.47448 0
M  V30 30285 N 2806.64 -3.41729 3.72901 0
M  V30 30286 C 2804.94 -3.75008 2.41422 0
M  V30 30287 C 2805.64 -3.67488 4.50918 0
M  V30 30288 N 2804.62 -3.87602 3.81138 0
M  V30 30289 H 2808.42 -1.75706 2.35594 0
M  V30 30290 H 2805.93 -0.888369 1.35948 0
M  V30 30291 H 2807.93 -3.97029 1.27175 0
M  V30 30292 H 2806.59 -3.22702 0.359644 0
M  V30 30293 H 2807.6 -3.21936 4.05682 0
M  V30 30294 H 2804.28 -3.87253 1.56018 0
M  V30 30295 H 2805.67 -3.71475 5.59872 0
M  V30 30296 N 2808.39 -1.27739 -0.923072 0
M  V30 30297 C 2809.61 -1.17286 -1.71052 0
M  V30 30298 C 2810.04 0.26612 -1.86208 0
M  V30 30299 O 2809.4 1.19267 -1.36547 0
M  V30 30300 C 2809.45 -1.86647 -3.08537 0
M  V30 30301 O 2808.55 -1.16759 -3.95526 0
M  V30 30302 H 2807.89 -0.407658 -0.524129 0
M  V30 30303 H 2810.42 -1.68892 -1.15484 0
M  V30 30304 H 2810.43 -1.94188 -3.58824 0
M  V30 30305 H 2809.11 -2.91323 -2.96823 0
M  V30 30306 H 2807.68 -1.17318 -3.53965 0
M  V30 30307 N 2809.87 1.13022 -1.09836 0
M  V30 30308 C 2811.28 1.36387 -0.828899 0
M  V30 30309 C 2811.48 1.93714 0.554722 0
M  V30 30310 O 2810.54 2.15933 1.30879 0
M  V30 30311 C 2811.85 2.31127 -1.92356 0
M  V30 30312 C 2813.4 2.44732 -1.95129 0
M  V30 30313 C 2813.88 3.42782 -3.03751 0
M  V30 30314 N 2815.37 3.50335 -3.03018 0
M  V30 30315 C 2816.1 4.26095 -3.83707 0
M  V30 30316 N 2815.6 5.04973 -4.74315 0
M  V30 30317 N 2817.39 4.21438 -3.71949 0
M  V30 30318 H 2809.54 0.741655 -1.99031 0
M  V30 30319 H 2811.81 0.388888 -0.864564 0
M  V30 30320 H 2811.51 1.96167 -2.9191 0
M  V30 30321 H 2811.39 3.31186 -1.80542 0
M  V30 30322 H 2813.77 2.78975 -0.962118 0
M  V30 30323 H 2813.85 1.44582 -2.11021 0
M  V30 30324 H 2813.5 3.09269 -4.02884 0
M  V30 30325 H 2813.43 4.42747 -2.85102 0
M  V30 30326 H 2815.92 2.94058 -2.37357 0
M  V30 30327 H 2816.23 5.60099 -5.32456 0
M  V30 30328 H 2814.58 5.04191 -4.78348 0
M  V30 30329 H 2817.77 3.58895 -3.0052 0
M  V30 30330 H 2817.94 4.80227 -4.3507 0
M  V30 30331 N 2811.35 0.886177 1.30325 0
M  V30 30332 C 2812.26 0.357907 2.31854 0
M  V30 30333 C 2813.27 -0.540473 1.65393 0
M  V30 30334 O 2814.45 -0.433304 1.96684 0
M  V30 30335 C 2811.51 -0.417939 3.44172 0
M  V30 30336 C 2810.57 0.510338 4.26256 0
M  V30 30337 C 2809.81 -0.228575 5.3321 0
M  V30 30338 O 2810.03 -1.45449 5.51544 0
M  V30 30339 O 2808.96 0.421938 6.00419 0
M  V30 30340 H 2812.79 1.19987 2.78993 0
M  V30 30341 H 2810.38 0.650052 1.34516 0
M  V30 30342 H 2812.26 -0.857178 4.1259 0
M  V30 30343 H 2810.93 -1.23618 2.99166 0
M  V30 30344 H 2809.84 0.998414 3.60531 0
M  V30 30345 H 2811.17 1.29462 4.74869 0
M  V30 30346 N 2812.82 -1.43695 0.647253 0
M  V30 30347 C 2814.05 -2.0675 0.16412 0
M  V30 30348 C 2814.47 -1.4816 -1.15889 0
M  V30 30349 O 2813.83 -0.589224 -1.71458 0
M  V30 30350 C 2813.88 -3.60511 0.0801001 0
M  V30 30351 O 2812.98 -4.01086 -0.959383 0
M  V30 30352 H 2812.33 -0.657576 0.0921404 0
M  V30 30353 H 2814.86 -1.84301 0.888493 0
M  V30 30354 H 2814.87 -4.07864 -0.105192 0
M  V30 30355 H 2813.54 -4.02533 1.04593 0
M  V30 30356 H 2812.12 -3.65334 -0.747361 0
M  V30 30357 N 2814.3 -0.388796 -1.52729 0
M  V30 30358 C 2815.23 0.481665 -2.24082 0
M  V30 30359 C 2816.25 1.02713 -1.26309 0
M  V30 30360 O 2817.44 0.929538 -1.52387 0
M  V30 30361 C 2814.54 1.68019 -2.94318 0
M  V30 30362 C 2813.71 1.26219 -4.18793 0
M  V30 30363 C 2812.77 2.32534 -4.72032 0
M  V30 30364 O 2811.79 1.93963 -5.35133 0
M  V30 30365 N 2813 3.6444 -4.51845 0
M  V30 30366 H 2815.76 -0.129643 -2.99419 0
M  V30 30367 H 2813.32 -0.215128 -1.60464 0
M  V30 30368 H 2815.31 2.38665 -3.26835 0
M  V30 30369 H 2813.88 2.19785 -2.22291 0
M  V30 30370 H 2813.1 0.384634 -3.92319 0
M  V30 30371 H 2814.39 0.959559 -4.9967 0
M  V30 30372 H 2813.79 3.9854 -4.01475 0
M  V30 30373 H 2812.35 4.31123 -4.88852 0
M  V30 30374 N 2815.78 1.57153 -0.118604 0
M  V30 30375 C 2816.74 2.14128 0.817427 0
M  V30 30376 C 2817.74 1.07606 1.19488 0
M  V30 30377 O 2818.93 1.33384 1.12046 0
M  V30 30378 C 2816.07 2.68118 2.10536 0
M  V30 30379 H 2817.26 2.98163 0.322286 0
M  V30 30380 H 2814.81 1.55753 0.130628 0
M  V30 30381 H 2815.55 1.8767 2.64482 0
M  V30 30382 H 2815.33 3.46023 1.84419 0
M  V30 30383 H 2816.82 3.1211 2.77448 0
M  V30 30384 N 2817.26 -0.155167 1.56834 0
M  V30 30385 C 2818.22 -1.17568 1.9675 0
M  V30 30386 C 2819.22 -1.36309 0.85303 0
M  V30 30387 O 2820.41 -1.3344 1.1198 0
M  V30 30388 C 2817.54 -2.53761 2.27635 0
M  V30 30389 H 2818.74 -0.833448 2.88086 0
M  V30 30390 H 2816.29 -0.398215 1.51142 0
M  V30 30391 H 2817.02 -2.9297 1.39065 0
M  V30 30392 H 2816.81 -2.41522 3.08885 0
M  V30 30393 H 2818.3 -3.27277 2.59383 0
M  V30 30394 N 2818.74 -1.51782 -0.424256 0
M  V30 30395 C 2819.67 -1.6874 -1.5363 0
M  V30 30396 C 2820.65 -0.534942 -1.53548 0
M  V30 30397 O 2821.83 -0.760421 -1.72481 0
M  V30 30398 C 2818.96 -1.71293 -2.92192 0
M  V30 30399 C 2818 -2.92659 -3.10246 0
M  V30 30400 S 2818.84 -4.53261 -2.85158 0
M  V30 30401 C 2819.99 -4.58578 -4.25978 0
M  V30 30402 H 2820.23 -2.62797 -1.39014 0
M  V30 30403 H 2817.76 -1.41631 -0.614829 0
M  V30 30404 H 2819.72 -1.73449 -3.72056 0
M  V30 30405 H 2818.38 -0.7839 -3.04161 0
M  V30 30406 H 2817.57 -2.90884 -4.11585 0
M  V30 30407 H 2817.17 -2.88313 -2.38226 0
M  V30 30408 H 2819.47 -4.35024 -5.19385 0
M  V30 30409 H 2820.41 -5.60451 -4.32782 0
M  V30 30410 H 2820.82 -3.87764 -4.10243 0
M  V30 30411 N 2820.21 0.68054 -1.42149 0
M  V30 30412 C 2821.18 1.77599 -1.44883 0
M  V30 30413 C 2822.18 1.57224 -0.337236 0
M  V30 30414 O 2823.37 1.63621 -0.597807 0
M  V30 30415 C 2820.5 3.16164 -1.27489 0
M  V30 30416 H 2821.69 1.76564 -2.42415 0
M  V30 30417 H 2819.25 0.889622 -1.28512 0
M  V30 30418 H 2819.98 3.22829 -0.308567 0
M  V30 30419 H 2819.77 3.32356 -2.08043 0
M  V30 30420 H 2821.26 3.96098 -1.32272 0
M  V30 30421 N 2821.69 1.28226 0.916285 0
M  V30 30422 C 2822.94 1.15005 1.66188 0
M  V30 30423 C 2823.26 -0.302295 1.92643 0
M  V30 30424 O 2822.53 -1.20982 1.54078 0
M  V30 30425 H 2821.11 0.422619 0.615956 0
M  V30 30426 H 2823.77 1.60919 1.0996 0
M  V30 30427 H 2822.87 1.68774 2.6253 0
M  V30 30428 N 2823.17 -1.12438 1.10433 0
M  V30 30429 C 2824.1 -2.17894 0.710983 0
M  V30 30430 C 2825.12 -1.60833 -0.252287 0
M  V30 30431 O 2826.3 -1.78462 -0.0367587 0
M  V30 30432 C 2823.4 -3.38888 0.0284858 0
M  V30 30433 C 2822.58 -4.25438 1.01593 0
M  V30 30434 C 2821.64 -5.24933 0.364918 0
M  V30 30435 O 2820.66 -5.60064 1.01571 0
M  V30 30436 N 2821.86 -5.73843 -0.87664 0
M  V30 30437 H 2824.63 -2.52252 1.6183 0
M  V30 30438 H 2822.19 -1.27859 0.993155 0
M  V30 30439 H 2824.18 -4.0253 -0.418498 0
M  V30 30440 H 2822.75 -3.0268 -0.781241 0
M  V30 30441 H 2821.97 -3.58412 1.64117 0
M  V30 30442 H 2823.26 -4.80112 1.68433 0
M  V30 30443 H 2822.66 -5.47465 -1.42473 0
M  V30 30444 H 2821.22 -6.39372 -1.26677 0
M  V30 30445 N 2824.65 -0.893076 -1.29853 0
M  V30 30446 C 2825.56 -0.370198 -2.31661 0
M  V30 30447 C 2826.58 0.531694 -1.65677 0
M  V30 30448 O 2827.75 0.422868 -1.96911 0
M  V30 30449 C 2824.82 0.39968 -3.44389 0
M  V30 30450 C 2823.88 -0.532936 -4.25979 0
M  V30 30451 C 2823.11 0.200294 -5.33324 0
M  V30 30452 O 2823.33 1.42522 -5.52308 0
M  V30 30453 O 2822.27 -0.453774 -6.00187 0
M  V30 30454 H 2826.09 -1.21465 -2.78352 0
M  V30 30455 H 2823.68 -0.657176 -1.3417 0
M  V30 30456 H 2825.56 0.835285 -4.13039 0
M  V30 30457 H 2824.24 1.2203 -2.99817 0
M  V30 30458 H 2823.14 -1.01752 -3.59996 0
M  V30 30459 H 2824.48 -1.31978 -4.74176 0
M  V30 30460 N 2826.13 1.4335 -0.654865 0
M  V30 30461 C 2827.04 2.34572 0.0363191 0
M  V30 30462 C 2828.05 1.53975 0.810405 0
M  V30 30463 O 2829.23 1.86621 0.757275 0
M  V30 30464 C 2826.29 3.32274 0.989675 0
M  V30 30465 C 2825.36 4.28775 0.212339 0
M  V30 30466 C 2824.59 5.2181 1.12028 0
M  V30 30467 O 2824.81 5.19307 2.35958 0
M  V30 30468 O 2823.75 5.98984 0.591805 0
M  V30 30469 H 2827.57 2.95174 -0.714579 0
M  V30 30470 H 2825.16 1.43519 -0.415055 0
M  V30 30471 H 2827.04 3.9235 1.53752 0
M  V30 30472 H 2825.71 2.74174 1.72077 0
M  V30 30473 H 2824.62 3.72174 -0.379127 0
M  V30 30474 H 2825.95 4.89861 -0.479224 0
M  V30 30475 N 2827.61 0.39689 1.52521 0
M  V30 30476 C 2828.83 -0.182714 2.06092 0
M  V30 30477 C 2829.25 -1.39884 1.26799 0
M  V30 30478 O 2828.61 -1.79733 0.316616 0
M  V30 30479 C 2828.66 -0.545314 3.57363 0
M  V30 30480 O 2828.38 0.622505 4.33655 0
M  V30 30481 C 2829.88 -1.17997 4.27307 0
M  V30 30482 H 2827.1 -0.0257772 0.670505 0
M  V30 30483 H 2829.64 0.564311 1.9656 0
M  V30 30484 H 2827.8 -1.24223 3.66943 0
M  V30 30485 H 2828.21 0.322754 5.23506 0
M  V30 30486 H 2829.69 -1.38398 5.34369 0
M  V30 30487 H 2830.16 -2.14954 3.83003 0
M  V30 30488 H 2830.77 -0.523597 4.22065 0
M  V30 30489 N 2829.08 -1.57088 0.126936 0
M  V30 30490 C 2830.31 -2.00249 -0.539935 0
M  V30 30491 C 2830.73 -1.00621 -1.58925 0
M  V30 30492 O 2830.09 0.0209812 -1.81288 0
M  V30 30493 C 2830.14 -3.42252 -1.13559 0
M  V30 30494 O 2829.24 -3.45551 -2.25097 0
M  V30 30495 H 2828.58 -0.650316 -0.134108 0
M  V30 30496 H 2831.11 -2.03438 0.217753 0
M  V30 30497 H 2831.12 -3.8063 -1.46919 0
M  V30 30498 H 2829.8 -4.14277 -0.367049 0
M  V30 30499 H 2828.38 -3.18999 -1.93117 0
M  V30 30500 N 2830.56 0.146848 -1.56914 0
M  V30 30501 C 2831.49 1.20642 -1.9488 0
M  V30 30502 C 2832.51 1.39174 -0.844658 0
M  V30 30503 O 2833.7 1.38742 -1.12307 0
M  V30 30504 C 2830.8 2.57123 -2.20774 0
M  V30 30505 C 2829.97 2.59566 -3.52057 0
M  V30 30506 C 2829.03 3.77587 -3.66489 0
M  V30 30507 O 2828.05 3.62454 -4.3888 0
M  V30 30508 N 2829.26 4.95047 -3.03164 0
M  V30 30509 H 2832.02 0.883707 -2.86375 0
M  V30 30510 H 2829.58 0.336409 -1.58366 0
M  V30 30511 H 2831.57 3.34587 -2.2767 0
M  V30 30512 H 2830.14 2.81686 -1.35543 0
M  V30 30513 H 2829.36 1.68017 -3.56601 0
M  V30 30514 H 2830.65 2.5823 -4.384 0
M  V30 30515 H 2830.05 5.10245 -2.44267 0
M  V30 30516 H 2828.61 5.70286 -3.15621 0
M  V30 30517 N 2832.04 1.52005 0.4162 0
M  V30 30518 C 2833.32 1.56274 1.17635 0
M  V30 30519 C 2833.7 0.339529 2.08352 0
M  V30 30520 O 2833.04 -0.674085 2.18331 0
M  V30 30521 C 2833.25 2.88778 1.95981 0
M  V30 30522 C 2834.6 3.41517 2.52293 0
M  V30 30523 O 2835.63 2.9047 2.06169 0
M  V30 30524 O 2834.49 4.30637 3.36473 0
M  V30 30525 H 2831.58 0.629179 0.536715 0
M  V30 30526 H 2834.13 1.64329 0.423554 0
M  V30 30527 H 2832.9 3.69257 1.29481 0
M  V30 30528 H 2832.52 2.83982 2.7828 0
M  V30 30529 N 2833.52 -0.672992 1.42508 0
M  V30 30530 C 2834.43 -1.8159 1.48533 0
M  V30 30531 C 2835.44 -1.69934 0.373937 0
M  V30 30532 O 2836.62 -1.91453 0.625112 0
M  V30 30533 C 2833.68 -3.17745 1.38705 0
M  V30 30534 C 2832.75 -3.41344 2.60352 0
M  V30 30535 C 2831.98 -4.71002 2.50983 0
M  V30 30536 O 2832.2 -5.4903 1.54669 0
M  V30 30537 O 2831.14 -4.95886 3.41147 0
M  V30 30538 H 2834.96 -1.79463 2.45004 0
M  V30 30539 H 2832.55 -0.828968 1.24292 0
M  V30 30540 H 2834.43 -3.98989 1.35593 0
M  V30 30541 H 2833.1 -3.20506 0.453612 0
M  V30 30542 H 2832.01 -2.5994 2.69039 0
M  V30 30543 H 2833.34 -3.43414 3.52601 0
M  V30 30544 N 2835 -1.2871 -0.909472 0
M  V30 30545 C 2836.22 -1.18976 -1.6927 0
M  V30 30546 C 2836.64 0.251015 -1.87124 0
M  V30 30547 O 2836 1.16919 -1.40129 0
M  V30 30548 C 2836.05 -1.88844 -3.08253 0
M  V30 30549 O 2835.77 -3.27294 -2.91222 0
M  V30 30550 C 2837.27 -1.85464 -4.02639 0
M  V30 30551 H 2834.49 -0.412806 -0.528992 0
M  V30 30552 H 2837.03 -1.69911 -1.138 0
M  V30 30553 H 2835.19 -1.41769 -3.60528 0
M  V30 30554 H 2835.6 -3.62346 -3.79217 0
M  V30 30555 H 2837.08 -2.38933 -4.97609 0
M  V30 30556 H 2837.55 -0.827969 -4.31325 0
M  V30 30557 H 2838.16 -2.32239 -3.56294 0
M  V30 30558 N 2836.47 1.1185 -1.11028 0
M  V30 30559 C 2837.7 1.87035 -0.877577 0
M  V30 30560 C 2838.11 1.80222 0.575894 0
M  V30 30561 O 2837.45 1.17851 1.40914 0
M  V30 30562 C 2837.52 3.3687 -1.25535 0
M  V30 30563 C 2837.18 3.67454 -2.7171 0
M  V30 30564 C 2838.18 3.65298 -3.69937 0
M  V30 30565 C 2835.86 3.96595 -3.0825 0
M  V30 30566 C 2837.86 3.91851 -5.02724 0
M  V30 30567 C 2835.54 4.22807 -4.41223 0
M  V30 30568 C 2836.54 4.20423 -5.38269 0
M  V30 30569 O 2836.23 4.4598 -6.68847 0
M  V30 30570 H 2835.96 0.598447 -0.314384 0
M  V30 30571 H 2838.52 1.42408 -1.48017 0
M  V30 30572 H 2836.75 3.82081 -0.595875 0
M  V30 30573 H 2838.43 3.93411 -0.999133 0
M  V30 30574 H 2839.2 3.4284 -3.43053 0
M  V30 30575 H 2835.08 3.97589 -2.33333 0
M  V30 30576 H 2838.62 3.89905 -5.78463 0
M  V30 30577 H 2834.52 4.4474 -4.67843 0
M  V30 30578 H 2835.29 4.63569 -6.74571 0
M  V30 30579 N 2837.95 0.89995 1.29378 0
M  V30 30580 C 2838.86 0.382478 2.31461 0
M  V30 30581 C 2839.88 -0.5229 1.65957 0
M  V30 30582 O 2841.05 -0.412419 1.97132 0
M  V30 30583 C 2838.12 -0.381411 3.44596 0
M  V30 30584 C 2837.18 0.555519 4.25691 0
M  V30 30585 C 2836.41 -0.172008 5.33423 0
M  V30 30586 O 2836.64 -1.39591 5.53056 0
M  V30 30587 O 2835.57 0.485597 5.99938 0
M  V30 30588 H 2839.4 1.22939 2.77704 0
M  V30 30589 H 2836.98 0.664282 1.33819 0
M  V30 30590 H 2838.86 -0.813369 4.13476 0
M  V30 30591 H 2837.54 -1.20438 3.0046 0
M  V30 30592 H 2836.44 1.0366 3.59452 0
M  V30 30593 H 2837.78 1.34491 4.73469 0
M  V30 30594 N 2839.43 -1.43001 0.662458 0
M  V30 30595 C 2840.68 -2.02001 0.179893 0
M  V30 30596 C 2841.01 -1.52197 -1.20623 0
M  V30 30597 O 2840.28 -0.718943 -1.80725 0
M  V30 30598 C 2840.57 -3.59539 0.200908 0
M  V30 30599 C 2840.42 -4.19552 1.6216 0
M  V30 30600 C 2841.74 -4.37714 -0.457661 0
M  V30 30601 H 2838.86 -0.733963 0.0668434 0
M  V30 30602 H 2841.5 -1.70181 0.8449 0
M  V30 30603 H 2839.65 -3.86778 -0.365343 0
M  V30 30604 H 2841.32 -4.03311 2.23915 0
M  V30 30605 H 2839.57 -3.7585 2.16608 0
M  V30 30606 H 2840.24 -5.28662 1.58809 0
M  V30 30607 H 2842.71 -4.16093 0.0242226 0
M  V30 30608 H 2841.59 -5.4735 -0.412267 0
M  V30 30609 H 2841.85 -4.1466 -1.53329 0
M  V30 30610 N 2840.91 -0.404973 -1.52308 0
M  V30 30611 C 2841.86 0.422557 -2.26899 0
M  V30 30612 C 2842.83 1.04458 -1.29142 0
M  V30 30613 O 2844.01 1.06964 -1.57998 0
M  V30 30614 C 2841.15 1.53553 -3.09056 0
M  V30 30615 C 2840.26 0.934834 -4.21764 0
M  V30 30616 C 2839.4 2.02016 -4.91287 0
M  V30 30617 C 2838.44 1.39618 -5.95964 0
M  V30 30618 N 2837.57 2.42148 -6.59021 0
M  V30 30619 H 2842.41 -0.219955 -2.97187 0
M  V30 30620 H 2839.95 -0.120308 -1.46607 0
M  V30 30621 H 2841.91 2.19175 -3.54991 0
M  V30 30622 H 2840.54 2.14813 -2.40946 0
M  V30 30623 H 2839.59 0.167787 -3.8003 0
M  V30 30624 H 2840.9 0.438985 -4.96865 0
M  V30 30625 H 2840.06 2.75373 -5.40606 0
M  V30 30626 H 2838.8 2.54965 -4.15745 0
M  V30 30627 H 2837.8 0.647927 -5.45969 0
M  V30 30628 H 2839.03 0.874435 -6.73447 0
M  V30 30629 H 2836.97 2.94237 -5.86311 0
M  V30 30630 H 2836.89 1.97363 -7.29783 0
M  V30 30631 H 2838.16 3.15087 -7.1298 0
M  V30 30632 N 2842.39 1.57018 -0.135265 0
M  V30 30633 C 2843.32 2.11916 0.84658 0
M  V30 30634 C 2844.3 1.03968 1.25018 0
M  V30 30635 O 2845.48 1.31725 1.34836 0
M  V30 30636 C 2842.61 2.62923 2.13516 0
M  V30 30637 C 2841.65 3.82908 1.87839 0
M  V30 30638 S 2842.49 5.24497 1.07996 0
M  V30 30639 C 2843.64 5.78885 2.37998 0
M  V30 30640 H 2843.88 2.94865 0.3797 0
M  V30 30641 H 2841.41 1.54199 0.0788116 0
M  V30 30642 H 2843.37 2.92963 2.87546 0
M  V30 30643 H 2842.03 1.80126 2.5732 0
M  V30 30644 H 2841.22 4.16802 2.83358 0
M  V30 30645 H 2840.82 3.53569 1.21923 0
M  V30 30646 H 2843.12 5.89601 3.33731 0
M  V30 30647 H 2844.06 6.76669 2.08626 0
M  V30 30648 H 2844.47 5.07052 2.4811 0
M  V30 30649 N 2843.86 -0.138524 1.5699 0
M  V30 30650 C 2844.81 -1.18991 1.9986 0
M  V30 30651 C 2845.81 -1.43992 0.892335 0
M  V30 30652 O 2847.01 -1.44185 1.07753 0
M  V30 30653 H 2843.39 -0.400732 0.636332 0
M  V30 30654 H 2845.36 -0.801705 2.87429 0
M  V30 30655 C 2844.11 -2.51357 2.40239 0
M  V30 30656 H 2843.43 -2.32951 3.24921 0
M  V30 30657 H 2844.87 -3.23531 2.74051 0
M  V30 30658 C 2843.33 -3.12518 1.25834 0
M  V30 30659 O 2843.86 -3.97726 0.563674 0
M  V30 30660 N 2842.07 -2.72096 1.02041 0
M  V30 30661 H 2841.61 -2.02902 1.58708 0
M  V30 30662 H 2841.57 -3.13349 0.256851 0
M  V30 30663 N 2845.34 -1.52224 -0.408133 0
M  V30 30664 C 2846.29 -1.72019 -1.49645 0
M  V30 30665 C 2847.28 -0.574095 -1.5031 0
M  V30 30666 O 2848.47 -0.8312 -1.56269 0
M  V30 30667 C 2845.6 -1.87517 -2.87563 0
M  V30 30668 C 2844.68 -3.08 -2.91542 0
M  V30 30669 N 2845.07 -4.3069 -2.65217 0
M  V30 30670 C 2843.37 -3.07854 -3.2271 0
M  V30 30671 C 2844.07 -5.12167 -2.7579 0
M  V30 30672 N 2843.05 -4.47436 -3.08711 0
M  V30 30673 H 2846.85 -2.64519 -1.28089 0
M  V30 30674 H 2844.37 -1.5027 -0.615853 0
M  V30 30675 H 2846.36 -1.99815 -3.65896 0
M  V30 30676 H 2845.02 -0.962169 -3.10117 0
M  V30 30677 H 2846.03 -4.59146 -2.39593 0
M  V30 30678 H 2842.71 -2.26295 -3.50852 0
M  V30 30679 H 2844.1 -6.19915 -2.59144 0
M  V30 30680 N 2846.82 0.665425 -1.42863 0
M  V30 30681 C 2848.1 1.42195 -1.34313 0
M  V30 30682 C 2848.48 2.11095 0.0149894 0
M  V30 30683 O 2847.83 2.0392 1.03097 0
M  V30 30684 C 2848.04 2.41669 -2.51787 0
M  V30 30685 C 2849.38 3.06034 -2.94327 0
M  V30 30686 O 2850.41 2.51997 -2.51746 0
M  V30 30687 O 2849.27 4.03978 -3.68054 0
M  V30 30688 H 2846.36 0.634704 -0.53017 0
M  V30 30689 H 2848.91 0.693359 -1.54889 0
M  V30 30690 H 2847.68 1.89621 -3.42286 0
M  V30 30691 H 2847.3 3.21997 -2.33247 0
M  V30 30692 N 2848.3 1.29191 0.902633 0
M  V30 30693 C 2849.53 1.19872 1.68637 0
M  V30 30694 C 2849.94 -0.241088 1.87254 0
M  V30 30695 O 2849.3 -1.16174 1.40747 0
M  V30 30696 C 2849.35 1.90476 3.07247 0
M  V30 30697 O 2849.07 3.28834 2.89482 0
M  V30 30698 C 2850.57 1.87597 4.01649 0
M  V30 30699 H 2847.79 0.415606 0.526795 0
M  V30 30700 H 2850.34 1.70512 1.12898 0
M  V30 30701 H 2848.49 1.43679 3.59771 0
M  V30 30702 H 2848.9 3.64352 3.7729 0
M  V30 30703 H 2850.38 2.41569 4.96335 0
M  V30 30704 H 2850.86 0.850832 4.3088 0
M  V30 30705 H 2851.46 2.34125 3.55057 0
M  V30 30706 N 2849.78 -1.1126 1.1162 0
M  V30 30707 C 2850.69 -2.20934 0.789019 0
M  V30 30708 C 2851.7 -1.72621 -0.21864 0
M  V30 30709 O 2852.88 -2.01327 -0.0543472 0
M  V30 30710 C 2849.94 -3.45875 0.239075 0
M  V30 30711 C 2849 -4.08966 1.30558 0
M  V30 30712 C 2848.24 -5.27943 0.78178 0
M  V30 30713 O 2848.46 -5.69082 -0.387505 0
M  V30 30714 O 2847.39 -5.81668 1.54744 0
M  V30 30715 H 2851.22 -2.51336 1.70481 0
M  V30 30716 H 2848.81 -1.19832 0.892224 0
M  V30 30717 H 2850.69 -4.21353 -0.0631571 0
M  V30 30718 H 2849.36 -3.17119 -0.649398 0
M  V30 30719 H 2848.27 -3.35211 1.66085 0
M  V30 30720 H 2849.6 -4.41905 2.16751 0
M  V30 30721 N 2851.25 -0.906798 -1.28899 0
M  V30 30722 C 2852.22 -0.394695 -2.25776 0
M  V30 30723 C 2853.22 0.475092 -1.53621 0
M  V30 30724 O 2854.41 0.279134 -1.71949 0
M  V30 30725 C 2851.54 0.43493 -3.38114 0
M  V30 30726 H 2852.73 -1.25038 -2.7259 0
M  V30 30727 H 2850.29 -0.685571 -1.40462 0
M  V30 30728 H 2851.02 1.31031 -2.9665 0
M  V30 30729 H 2850.81 -0.188403 -3.91647 0
M  V30 30730 H 2852.3 0.784293 -4.10169 0
M  V30 30731 N 2852.73 1.42648 -0.670032 0
M  V30 30732 C 2853.97 2.03476 -0.194142 0
M  V30 30733 C 2854.34 1.51811 1.17548 0
M  V30 30734 O 2855.54 2.04394 1.74575 0
M  V30 30735 C 2853.81 3.56711 -0.221891 0
M  V30 30736 S 2855.37 4.38415 0.183695 0
M  V30 30737 H 2852.19 0.706455 -0.0802602 0
M  V30 30738 H 2854.79 1.74467 -0.882122 0
M  V30 30739 H 2853.49 3.91812 -1.22114 0
M  V30 30740 H 2853.02 3.90385 0.48608 0
M  V30 30741 H 2855.04 4.75498 1.4183 0
M  V30 30742 N 2854.21 0.413044 1.52091 0
M  V30 30743 C 2855.44 -0.163301 2.06756 0
M  V30 30744 C 2855.86 -1.37762 1.28075 0
M  V30 30745 O 2855.22 -1.78594 0.312046 0
M  V30 30746 C 2855.27 -0.488259 3.57279 0
M  V30 30747 O 2854.37 -1.57864 3.80989 0
M  V30 30748 H 2853.71 -0.0124951 0.663882 0
M  V30 30749 H 2856.24 0.587373 1.95987 0
M  V30 30750 H 2856.25 -0.745765 4.01126 0
M  V30 30751 H 2854.93 0.3994 4.13978 0
M  V30 30752 H 2853.5 -1.313 3.4902 0
M  V30 30753 N 2855.69 -1.56945 0.143591 0
M  V30 30754 C 2856.6 -2.20154 -0.810524 0
M  V30 30755 C 2857.62 -1.18482 -1.27428 0
M  V30 30756 O 2858.79 -1.51046 -1.33218 0
M  V30 30757 C 2855.86 -2.80803 -2.03349 0
M  V30 30758 C 2854.92 -3.9759 -1.61929 0
M  V30 30759 C 2854.15 -4.55337 -2.78395 0
M  V30 30760 O 2854.37 -4.11965 -3.94514 0
M  V30 30761 O 2853.31 -5.45651 -2.54063 0
M  V30 30762 H 2857.13 -3.0219 -0.302477 0
M  V30 30763 H 2854.72 -1.49168 -0.0832663 0
M  V30 30764 H 2856.6 -3.19364 -2.74926 0
M  V30 30765 H 2855.28 -2.01782 -2.53112 0
M  V30 30766 H 2854.18 -3.63751 -0.87384 0
M  V30 30767 H 2855.52 -4.7812 -1.16884 0
M  V30 30768 N 2857.17 0.130197 -1.57061 0
M  V30 30769 C 2858.58 0.68853 -1.7354 0
M  V30 30770 C 2858.93 1.80858 -0.760586 0
M  V30 30771 O 2858.05 2.1629 0.0690416 0
M  V30 30772 C 2858.65 1.25575 -3.14668 0
M  V30 30773 C 2857.21 1.76049 -3.32692 0
M  V30 30774 C 2856.36 0.655664 -2.69437 0
M  V30 30775 H 2859.31 -0.095628 -1.58412 0
M  V30 30776 H 2859.33 2.1255 -3.15599 0
M  V30 30777 H 2858.84 0.440344 -3.85594 0
M  V30 30778 H 2856.94 2.60103 -2.66791 0
M  V30 30779 H 2857.05 1.87764 -4.40774 0
M  V30 30780 H 2855.42 1.0865 -2.30364 0
M  V30 30781 H 2856.2 -0.148581 -3.42978 0
M  V30 30782 N 2858.65 1.52438 0.400055 0
M  V30 30783 C 2859.87 1.71098 1.17218 0
M  V30 30784 C 2860.3 0.423597 1.83268 0
M  V30 30785 O 2859.65 -0.619721 1.70379 0
M  V30 30786 C 2859.7 2.8539 2.2042 0
M  V30 30787 O 2858.81 2.51592 3.26765 0
M  V30 30788 H 2858.15 0.569297 0.341756 0
M  V30 30789 H 2860.68 1.99182 0.467737 0
M  V30 30790 H 2860.69 3.10566 2.646 0
M  V30 30791 H 2859.36 3.78789 1.7173 0
M  V30 30792 H 2857.94 2.37119 2.878 0
M  V30 30793 N 2860.12 -0.657839 1.43214 0
M  V30 30794 C 2861.05 -1.78259 1.50818 0
M  V30 30795 C 2862.03 -1.66176 0.363241 0
M  V30 30796 O 2863.22 -1.85342 0.579839 0
M  V30 30797 C 2860.35 -3.16661 1.4263 0
M  V30 30798 C 2859.3 -3.43501 2.55326 0
M  V30 30799 C 2858.63 -4.81654 2.32192 0
M  V30 30800 C 2859.93 -3.38704 3.97589 0
M  V30 30801 H 2861.62 -1.72152 2.44957 0
M  V30 30802 H 2859.17 -0.826809 1.17898 0
M  V30 30803 H 2861.12 -3.95095 1.46555 0
M  V30 30804 H 2859.85 -3.23486 0.449934 0
M  V30 30805 H 2858.51 -2.67435 2.50747 0
M  V30 30806 H 2858.15 -4.8515 1.32809 0
M  V30 30807 H 2857.85 -5.00574 3.07733 0
M  V30 30808 H 2859.38 -5.62352 2.37893 0
M  V30 30809 H 2860.79 -4.07082 4.0368 0
M  V30 30810 H 2859.19 -3.6916 4.73118 0
M  V30 30811 H 2860.26 -2.36968 4.23053 0
M  V30 30812 N 2861.6 -1.29668 -0.895769 0
M  V30 30813 C 2862.53 -1.17691 -2.01671 0
M  V30 30814 C 2863.51 -0.0701615 -1.69955 0
M  V30 30815 O 2864.7 -0.250322 -1.9258 0
M  V30 30816 C 2861.83 -0.85674 -3.36567 0
M  V30 30817 C 2860.78 -1.92024 -3.82506 0
M  V30 30818 C 2860.11 -1.45329 -5.14571 0
M  V30 30819 C 2861.41 -3.3297 -4.02403 0
M  V30 30820 H 2863.1 -2.11466 -2.11949 0
M  V30 30821 H 2860.65 -1.01809 -1.01838 0
M  V30 30822 H 2862.6 -0.759649 -4.14496 0
M  V30 30823 H 2861.32 0.116705 -3.26391 0
M  V30 30824 H 2859.98 -2.00678 -3.06796 0
M  V30 30825 H 2859.63 -0.468413 -5.00814 0
M  V30 30826 H 2859.33 -2.16456 -5.46279 0
M  V30 30827 H 2860.86 -1.36978 -5.95037 0
M  V30 30828 H 2862.27 -3.27136 -4.70803 0
M  V30 30829 H 2860.67 -4.02089 -4.45471 0
M  V30 30830 H 2861.74 -3.75658 -3.06609 0
M  V30 30831 N 2863.08 1.10667 -1.12208 0
M  V30 30832 C 2864.3 1.86904 -0.898971 0
M  V30 30833 C 2864.73 1.79992 0.546314 0
M  V30 30834 O 2864.09 1.16812 1.38653 0
M  V30 30835 C 2864.14 3.33342 -1.37534 0
M  V30 30836 O 2863.24 4.08686 -0.552252 0
M  V30 30837 H 2862.58 0.580048 -0.323173 0
M  V30 30838 H 2865.11 1.39834 -1.49357 0
M  V30 30839 H 2865.12 3.84191 -1.37337 0
M  V30 30840 H 2863.8 3.37689 -2.42773 0
M  V30 30841 H 2862.37 3.67693 -0.621012 0
M  V30 30842 N 2864.56 0.913621 1.28416 0
M  V30 30843 C 2865.79 0.562571 1.99105 0
M  V30 30844 C 2866.2 -0.856107 1.68274 0
M  V30 30845 O 2865.56 -1.56703 0.935429 0
M  V30 30846 C 2865.61 0.761965 3.53378 0
M  V30 30847 O 2865.33 2.12482 3.83123 0
M  V30 30848 C 2866.83 0.417729 4.41327 0
M  V30 30849 H 2864.05 0.214492 0.635794 0
M  V30 30850 H 2866.59 1.22679 1.63616 0
M  V30 30851 H 2864.75 0.144744 3.8713 0
M  V30 30852 H 2865.16 2.1644 4.77759 0
M  V30 30853 H 2866.64 0.608015 5.48641 0
M  V30 30854 H 2867.11 -0.646031 4.34423 0
M  V30 30855 H 2867.72 1.01248 4.13072 0
M  V30 30856 N 2866.04 -1.4229 0.677588 0
M  V30 30857 C 2866.95 -2.346 0.00100389 0
M  V30 30858 C 2867.96 -1.55245 -0.785806 0
M  V30 30859 O 2869.14 -1.87802 -0.72749 0
M  V30 30860 C 2866.2 -3.33807 -0.936688 0
M  V30 30861 C 2865.26 -4.29058 -0.144098 0
M  V30 30862 C 2864.5 -5.23526 -1.03713 0
M  V30 30863 O 2864.72 -5.22996 -2.27666 0
M  V30 30864 O 2863.65 -5.99849 -0.496437 0
M  V30 30865 H 2867.48 -2.93999 0.761448 0
M  V30 30866 H 2865.06 -1.4284 0.437835 0
M  V30 30867 H 2866.95 -3.94746 -1.4749 0
M  V30 30868 H 2865.62 -2.76876 -1.67693 0
M  V30 30869 H 2864.53 -3.71524 0.438289 0
M  V30 30870 H 2865.86 -4.89037 0.557096 0
M  V30 30871 N 2867.51 -0.421104 -1.5187 0
M  V30 30872 C 2868.45 0.44333 -2.23852 0
M  V30 30873 C 2869.42 1.03816 -1.25144 0
M  V30 30874 O 2870.61 1.08374 -1.54231 0
M  V30 30875 C 2867.74 1.61643 -2.9764 0
M  V30 30876 C 2866.78 1.14384 -4.10875 0
M  V30 30877 S 2867.61 0.0991462 -5.35408 0
M  V30 30878 C 2868.77 1.27729 -6.12728 0
M  V30 30879 H 2869 -0.167838 -2.96826 0
M  V30 30880 H 2866.54 -0.205488 -1.53026 0
M  V30 30881 H 2868.49 2.28903 -3.40755 0
M  V30 30882 H 2867.16 2.19897 -2.24286 0
M  V30 30883 H 2866.35 2.02061 -4.61722 0
M  V30 30884 H 2865.95 0.54971 -3.69938 0
M  V30 30885 H 2868.24 2.1987 -6.4083 0
M  V30 30886 H 2869.19 0.809115 -7.03462 0
M  V30 30887 H 2869.59 1.5085 -5.43971 0
M  V30 30888 N 2868.99 1.56866 -0.151912 0
M  V30 30889 C 2869.92 2.20019 0.781904 0
M  V30 30890 C 2870.9 1.1499 1.25345 0
M  V30 30891 O 2872.09 1.4335 1.31013 0
M  V30 30892 C 2869.22 2.82567 2.01923 0
M  V30 30893 C 2868.17 3.93467 1.68427 0
M  V30 30894 C 2867.5 4.42973 2.99465 0
M  V30 30895 C 2868.8 5.14005 0.927154 0
M  V30 30896 H 2870.49 2.98307 0.255554 0
M  V30 30897 H 2868.04 1.43487 0.121477 0
M  V30 30898 H 2869.99 3.25416 2.67736 0
M  V30 30899 H 2868.72 2.01618 2.56939 0
M  V30 30900 H 2867.37 3.51244 1.04991 0
M  V30 30901 H 2867.02 3.5884 3.52481 0
M  V30 30902 H 2866.72 5.17777 2.77814 0
M  V30 30903 H 2868.25 4.88495 3.6634 0
M  V30 30904 H 2869.66 5.53667 1.48746 0
M  V30 30905 H 2868.06 5.94603 0.810408 0
M  V30 30906 H 2869.13 4.84834 -0.0802016 0
M  V30 30907 N 2870.47 -0.121866 1.57128 0
M  V30 30908 C 2871.7 -0.848351 1.89256 0
M  V30 30909 C 2872.12 -1.7278 0.743557 0
M  V30 30910 O 2871.48 -1.78699 -0.306025 0
M  V30 30911 C 2871.53 -1.66007 3.20116 0
M  V30 30912 O 2870.63 -2.76673 3.05819 0
M  V30 30913 H 2869.97 -0.234782 0.621107 0
M  V30 30914 H 2872.5 -0.105124 2.0433 0
M  V30 30915 H 2872.51 -2.0499 3.52765 0
M  V30 30916 H 2871.19 -1.01445 4.03338 0
M  V30 30917 H 2869.76 -2.40913 2.84632 0
M  V30 30918 N 2871.95 -1.52648 -0.391965 0
M  V30 30919 C 2873.18 -1.71171 -1.15689 0
M  V30 30920 C 2873.59 -0.428477 -1.84284 0
M  V30 30921 O 2872.93 0.606638 -1.73394 0
M  V30 30922 C 2872.99 -2.80361 -2.25028 0
M  V30 30923 C 2872.66 -4.21572 -1.76425 0
M  V30 30924 C 2873.65 -5.04832 -1.24262 0
M  V30 30925 C 2871.34 -4.6788 -1.82738 0
M  V30 30926 C 2873.33 -6.32479 -0.790545 0
M  V30 30927 C 2871.02 -5.95513 -1.37142 0
M  V30 30928 C 2872.02 -6.77641 -0.853878 0
M  V30 30929 O 2871.7 -8.02881 -0.404567 0
M  V30 30930 H 2871.44 -0.576537 -0.35296 0
M  V30 30931 H 2873.99 -2.00068 -0.464959 0
M  V30 30932 H 2872.22 -2.46879 -2.97637 0
M  V30 30933 H 2873.91 -2.87316 -2.86713 0
M  V30 30934 H 2874.68 -4.70239 -1.18744 0
M  V30 30935 H 2870.55 -4.04046 -2.21964 0
M  V30 30936 H 2874.1 -6.96532 -0.385902 0
M  V30 30937 H 2870 -6.29609 -1.42345 0
M  V30 30938 H 2870.76 -8.16806 -0.526315 0
M  V30 30939 N 2873.43 0.650235 -1.43561 0
M  V30 30940 C 2874.36 1.77568 -1.44921 0
M  V30 30941 C 2875.37 1.59103 -0.344953 0
M  V30 30942 O 2876.56 1.67769 -0.609567 0
M  V30 30943 C 2873.66 3.15037 -1.2492 0
M  V30 30944 C 2872.83 3.60134 -2.48239 0
M  V30 30945 C 2871.89 4.76415 -2.23418 0
M  V30 30946 O 2870.92 4.85701 -2.96788 0
M  V30 30947 N 2872.12 5.66823 -1.25269 0
M  V30 30948 H 2874.89 1.76879 -2.41938 0
M  V30 30949 H 2872.45 0.834177 -1.38756 0
M  V30 30950 H 2874.44 3.90519 -1.06192 0
M  V30 30951 H 2873.01 3.10481 -0.363374 0
M  V30 30952 H 2872.23 2.75064 -2.82371 0
M  V30 30953 H 2873.52 3.87011 -3.30303 0
M  V30 30954 H 2872.91 5.61995 -0.646345 0
M  V30 30955 H 2871.47 6.42014 -1.12525 0
M  V30 30956 N 2874.9 1.30141 0.88888 0
M  V30 30957 C 2876.18 1.09402 1.62143 0
M  V30 30958 C 2876.56 -0.358055 2.08041 0
M  V30 30959 O 2875.91 -1.34885 1.84441 0
M  V30 30960 C 2876.12 2.09138 2.79396 0
M  V30 30961 C 2877.47 2.40644 3.49822 0
M  V30 30962 O 2878.49 2.07417 2.8958 0
M  V30 30963 O 2877.35 2.97464 4.58451 0
M  V30 30964 H 2874.44 0.419903 0.712468 0
M  V30 30965 H 2876.99 1.41553 0.935999 0
M  V30 30966 H 2875.76 3.06895 2.42757 0
M  V30 30967 H 2875.39 1.77782 3.55639 0
M  V30 30968 N 2876.38 -1.1007 1.12794 0
M  V30 30969 C 2877.66 -1.78631 0.796898 0
M  V30 30970 C 2878.04 -1.98705 -0.712704 0
M  V30 30971 O 2877.39 -1.58313 -1.6477 0
M  V30 30972 C 2877.6 -3.11375 1.57627 0
M  V30 30973 C 2878.95 -3.86191 1.7647 0
M  V30 30974 O 2879.97 -3.21107 1.5417 0
M  V30 30975 O 2878.83 -5.03015 2.13632 0
M  V30 30976 H 2875.92 -0.774388 0.290261 0
M  V30 30977 H 2878.47 -1.16686 1.23218 0
M  V30 30978 H 2877.24 -2.92207 2.60251 0
M  V30 30979 H 2876.86 -3.81041 1.13549 0
M  V30 30980 N 2877.86 -0.920419 -1.2793 0
M  V30 30981 C 2878.77 -0.419253 -2.30823 0
M  V30 30982 C 2879.79 0.496432 -1.66768 0
M  V30 30983 O 2880.96 0.381005 -1.97763 0
M  V30 30984 C 2878.03 0.326541 -3.45159 0
M  V30 30985 C 2877.09 -0.623173 -4.24753 0
M  V30 30986 C 2876.32 0.0871234 -5.33629 0
M  V30 30987 O 2876.54 1.30774 -5.55207 0
M  V30 30988 O 2875.48 -0.58098 -5.9909 0
M  V30 30989 H 2879.3 -1.27342 -2.75713 0
M  V30 30990 H 2876.89 -0.685488 -1.32746 0
M  V30 30991 H 2878.77 0.747486 -4.14718 0
M  V30 30992 H 2877.45 1.15643 -3.02338 0
M  V30 30993 H 2876.35 -1.09365 -3.57757 0
M  V30 30994 H 2877.69 -1.42007 -4.71269 0
M  V30 30995 N 2879.34 1.41929 -0.685124 0
M  V30 30996 C 2880.29 2.326 -0.00170073 0
M  V30 30997 C 2881.28 1.50392 0.779652 0
M  V30 30998 O 2882.49 1.66397 0.686451 0
M  V30 30999 H 2878.86 0.751779 0.0182484 0
M  V30 31000 H 2880.83 2.87926 -0.783643 0
M  V30 31001 C 2879.58 3.35078 0.928326 0
M  V30 31002 H 2878.9 3.98381 0.336508 0
M  V30 31003 H 2880.34 4.01085 1.37502 0
M  V30 31004 C 2878.8 2.68146 2.03959 0
M  V30 31005 O 2879.33 2.52126 3.12723 0
M  V30 31006 N 2877.54 2.27006 1.81429 0
M  V30 31007 H 2877.09 2.40236 0.929765 0
M  V30 31008 H 2877.04 1.82557 2.5597 0
M  V30 31009 N 2880.82 0.429152 1.51644 0
M  V30 31010 C 2882.23 0.081022 1.59394 0
M  V30 31011 C 2882.43 -1.40879 1.44067 0
M  V30 31012 O 2881.49 -2.17784 1.27774 0
M  V30 31013 C 2882.8 0.593825 2.94778 0
M  V30 31014 C 2884.35 0.553548 3.08066 0
M  V30 31015 C 2884.82 1.04319 4.45961 0
M  V30 31016 N 2886.32 1.00084 4.52258 0
M  V30 31017 C 2887.05 1.35066 5.57265 0
M  V30 31018 N 2886.55 1.77293 6.6973 0
M  V30 31019 N 2888.34 1.26935 5.4758 0
M  V30 31020 H 2880.49 1.3986 1.59853 0
M  V30 31021 H 2882.75 0.575818 0.753085 0
M  V30 31022 H 2882.46 1.63588 3.11339 0
M  V30 31023 H 2882.33 0.0142865 3.77197 0
M  V30 31024 H 2884.72 -0.479505 2.91178 0
M  V30 31025 H 2884.8 1.16939 2.27506 0
M  V30 31026 H 2884.45 2.07467 4.63595 0
M  V30 31027 H 2884.38 0.403966 5.25048 0
M  V30 31028 H 2886.87 0.69063 3.71536 0
M  V30 31029 H 2887.18 2.02245 7.45866 0
M  V30 31030 H 2885.52 1.81214 6.7096 0
M  V30 31031 H 2888.72 0.93817 4.58602 0
M  V30 31032 H 2888.89 1.54527 6.29306 0
M  V30 31033 N 2882.29 -1.56783 0.160229 0
M  V30 31034 C 2883.23 -2.14576 -0.805602 0
M  V30 31035 C 2884.24 -1.09851 -1.20152 0
M  V30 31036 O 2885.43 -1.3708 -1.1433 0
M  V30 31037 C 2882.53 -2.66444 -2.0943 0
M  V30 31038 C 2881.7 -3.95709 -1.86368 0
M  V30 31039 C 2880.76 -4.32754 -2.9935 0
M  V30 31040 O 2879.79 -5.00836 -2.70466 0
M  V30 31041 N 2880.99 -3.93409 -4.2686 0
M  V30 31042 H 2883.75 -2.98076 -0.311592 0
M  V30 31043 H 2881.31 -1.61884 -0.0229181 0
M  V30 31044 H 2883.31 -2.88231 -2.84086 0
M  V30 31045 H 2881.88 -1.87595 -2.50054 0
M  V30 31046 H 2881.1 -3.82413 -0.956754 0
M  V30 31047 H 2882.38 -4.80154 -1.68313 0
M  V30 31048 H 2881.78 -3.38577 -4.53191 0
M  V30 31049 H 2880.34 -4.2022 -4.98255 0
M  V30 31050 N 2883.77 0.113531 -1.57191 0
M  V30 31051 C 2884.7 1.1401 -2.03774 0
M  V30 31052 C 2885.68 1.42867 -0.923201 0
M  V30 31053 O 2886.87 1.53214 -1.19327 0
M  V30 31054 C 2884 2.46486 -2.44667 0
M  V30 31055 C 2882.95 2.32078 -3.59616 0
M  V30 31056 C 2882.28 3.69566 -3.86426 0
M  V30 31057 C 2883.58 1.77672 -4.91152 0
M  V30 31058 H 2885.27 0.752615 -2.89786 0
M  V30 31059 H 2882.82 0.360585 -1.39412 0
M  V30 31060 H 2884.77 3.18556 -2.75862 0
M  V30 31061 H 2883.5 2.87134 -1.55633 0
M  V30 31062 H 2882.16 1.62456 -3.28639 0
M  V30 31063 H 2881.8 4.07709 -2.94588 0
M  V30 31064 H 2881.5 3.60778 -4.63803 0
M  V30 31065 H 2883.03 4.43133 -4.20078 0
M  V30 31066 H 2884.44 2.39565 -5.20847 0
M  V30 31067 H 2882.84 1.79691 -5.72566 0
M  V30 31068 H 2883.91 0.734692 -4.79302 0
M  V30 31069 N 2885.25 1.52854 0.383864 0
M  V30 31070 C 2886.48 1.72032 1.14947 0
M  V30 31071 C 2886.89 0.44099 1.83578 0
M  V30 31072 O 2886.25 -0.584895 1.72873 0
M  V30 31073 C 2886.3 2.87337 2.19363 0
M  V30 31074 O 2886.02 4.10318 1.53529 0
M  V30 31075 C 2887.52 3.18236 3.08611 0
M  V30 31076 H 2884.74 0.575852 0.344435 0
M  V30 31077 H 2887.29 1.99524 0.448362 0
M  V30 31078 H 2885.44 2.62291 2.851 0
M  V30 31079 H 2885.86 4.74756 2.22951 0
M  V30 31080 H 2887.33 4.02368 3.77895 0
M  V30 31081 H 2887.81 2.32833 3.72405 0
M  V30 31082 H 2888.41 3.4514 2.48512 0
M  V30 31083 N 2886.73 -0.642612 1.43904 0
M  V30 31084 C 2887.66 -1.76649 1.527 0
M  V30 31085 C 2888.64 -1.65782 0.380845 0
M  V30 31086 O 2889.83 -1.84716 0.599464 0
M  V30 31087 C 2886.96 -3.1513 1.45981 0
M  V30 31088 C 2885.91 -3.40773 2.58955 0
M  V30 31089 C 2885.24 -4.79165 2.37288 0
M  V30 31090 C 2886.54 -3.34468 4.01159 0
M  V30 31091 H 2888.23 -1.69545 2.46769 0
M  V30 31092 H 2885.78 -0.814258 1.18768 0
M  V30 31093 H 2887.73 -3.93518 1.50737 0
M  V30 31094 H 2886.45 -3.22991 0.484219 0
M  V30 31095 H 2885.11 -2.64761 2.53569 0
M  V30 31096 H 2884.76 -4.83714 1.37947 0
M  V30 31097 H 2884.46 -4.97282 3.13025 0
M  V30 31098 H 2885.98 -5.59797 2.43844 0
M  V30 31099 H 2887.4 -4.02777 4.07975 0
M  V30 31100 H 2885.79 -3.64121 4.77007 0
M  V30 31101 H 2886.86 -2.32468 4.25543 0
M  V30 31102 N 2888.21 -1.30611 -0.881966 0
M  V30 31103 C 2889.62 -1.17666 -1.44954 0
M  V30 31104 C 2889.97 0.221497 -1.94946 0
M  V30 31105 O 2889.09 1.1184 -1.85259 0
M  V30 31106 C 2889.69 -2.13 -2.6347 0
M  V30 31107 C 2888.25 -2.04025 -3.16308 0
M  V30 31108 C 2887.4 -2.0291 -1.89004 0
M  V30 31109 H 2890.35 -1.42837 -0.69162 0
M  V30 31110 H 2890.37 -1.71259 -3.3978 0
M  V30 31111 H 2889.88 -3.1475 -2.27054 0
M  V30 31112 H 2887.98 -1.05426 -3.57374 0
M  V30 31113 H 2888.09 -2.92556 -3.79404 0
M  V30 31114 H 2886.46 -1.47754 -2.07463 0
M  V30 31115 H 2887.24 -3.06396 -1.54842 0
M  V30 31116 N 2889.69 1.0947 -1.13376 0
M  V30 31117 C 2890.6 2.1965 -0.824068 0
M  V30 31118 C 2891.61 1.72947 0.191149 0
M  V30 31119 O 2892.79 2.01388 0.022311 0
M  V30 31120 C 2889.85 3.45451 -0.29407 0
M  V30 31121 C 2888.91 4.06837 -1.37047 0
M  V30 31122 C 2888.15 5.26633 -0.865672 0
M  V30 31123 O 2888.37 5.69627 0.29692 0
M  V30 31124 O 2887.3 5.79133 -1.63978 0
M  V30 31125 H 2891.13 2.48592 -1.74458 0
M  V30 31126 H 2888.71 1.18397 -0.911176 0
M  V30 31127 H 2890.6 4.214 -0.00388446 0
M  V30 31128 H 2889.27 3.18112 0.598865 0
M  V30 31129 H 2888.18 3.32527 -1.71397 0
M  V30 31130 H 2889.51 4.38401 -2.23754 0
M  V30 31131 N 2891.16 0.92719 1.2744 0
M  V30 31132 C 2892.07 0.431488 2.30598 0
M  V30 31133 C 2893.09 -0.48758 1.67029 0
M  V30 31134 O 2894.27 -0.370512 1.97963 0
M  V30 31135 C 2891.33 -0.308231 3.45327 0
M  V30 31136 C 2890.39 0.64569 4.24416 0
M  V30 31137 C 2889.62 -0.0588226 5.33668 0
M  V30 31138 O 2889.85 -1.27828 5.55892 0
M  V30 31139 O 2888.78 0.612743 5.98773 0
M  V30 31140 H 2892.61 1.28802 2.75034 0
M  V30 31141 H 2890.19 0.692518 1.3238 0
M  V30 31142 H 2892.07 -0.725482 4.15108 0
M  V30 31143 H 2890.75 -1.14038 3.02947 0
M  V30 31144 H 2889.66 1.11261 3.57172 0
M  V30 31145 H 2890.99 1.44504 4.7051 0
M  V30 31146 N 2892.64 -1.41564 0.692641 0
M  V30 31147 C 2893.92 -1.9502 0.15053 0
M  V30 31148 C 2894.3 -1.63217 -1.33878 0
M  V30 31149 O 2893.65 -0.937635 -2.08376 0
M  V30 31150 C 2893.86 -3.46232 0.438697 0
M  V30 31151 C 2895.2 -4.2303 0.364852 0
M  V30 31152 O 2896.23 -3.54237 0.373445 0
M  V30 31153 O 2895.09 -5.45548 0.322436 0
M  V30 31154 H 2892.18 -0.826894 0.0132599 0
M  V30 31155 H 2894.73 -1.51296 0.7686 0
M  V30 31156 H 2893.5 -3.62651 1.46969 0
M  V30 31157 H 2893.12 -3.97042 -0.210493 0
M  V30 31158 N 2894.12 -0.437188 -1.51415 0
M  V30 31159 C 2895.07 0.374334 -2.27744 0
M  V30 31160 C 2896.04 1.01696 -1.31329 0
M  V30 31161 O 2897.22 1.03589 -1.60231 0
M  V30 31162 C 2894.36 1.46963 -3.12243 0
M  V30 31163 C 2893.47 0.845161 -4.23652 0
M  V30 31164 C 2892.61 1.9155 -4.95462 0
M  V30 31165 C 2891.65 1.26945 -5.98792 0
M  V30 31166 N 2890.79 2.28114 -6.64009 0
M  V30 31167 H 2895.63 -0.282944 -2.96654 0
M  V30 31168 H 2893.16 -0.151378 -1.46319 0
M  V30 31169 H 2895.12 2.11595 -3.5956 0
M  V30 31170 H 2893.75 2.09654 -2.45448 0
M  V30 31171 H 2892.8 0.0871391 -3.803 0
M  V30 31172 H 2894.11 0.333494 -4.97684 0
M  V30 31173 H 2893.27 2.63844 -5.46325 0
M  V30 31174 H 2892.01 2.46089 -4.2106 0
M  V30 31175 H 2891.01 0.531973 -5.4722 0
M  V30 31176 H 2892.24 0.73139 -6.7515 0
M  V30 31177 H 2890.18 2.81734 -5.9242 0
M  V30 31178 H 2890.1 1.81839 -7.33806 0
M  V30 31179 H 2891.37 2.99893 -7.19503 0
M  V30 31180 N 2895.6 1.56696 -0.168541 0
M  V30 31181 C 2897.01 1.58493 0.187658 0
M  V30 31182 C 2897.21 1.18378 1.63061 0
M  V30 31183 O 2896.27 0.894083 2.36141 0
M  V30 31184 C 2897.58 3.00563 -0.0906386 0
M  V30 31185 C 2899.13 3.12987 -0.02863 0
M  V30 31186 C 2899.61 4.57144 -0.279879 0
M  V30 31187 N 2901.1 4.62641 -0.227558 0
M  V30 31188 C 2901.83 5.7203 -0.396174 0
M  V30 31189 N 2901.33 6.89987 -0.623694 0
M  V30 31190 N 2903.12 5.61117 -0.332272 0
M  V30 31191 H 2895.27 1.8106 -1.11045 0
M  V30 31192 H 2897.53 0.839048 -0.44125 0
M  V30 31193 H 2897.24 3.34379 -1.09012 0
M  V30 31194 H 2897.11 3.72086 0.619012 0
M  V30 31195 H 2899.5 2.78999 0.961422 0
M  V30 31196 H 2899.58 2.43906 -0.770948 0
M  V30 31197 H 2899.23 4.9184 -1.26713 0
M  V30 31198 H 2899.16 5.2438 0.483017 0
M  V30 31199 H 2901.65 3.77857 -0.0572387 0
M  V30 31200 H 2901.96 7.69231 -0.741881 0
M  V30 31201 H 2900.31 6.91856 -0.660275 0
M  V30 31202 H 2903.5 4.67843 -0.155133 0
M  V30 31203 H 2903.67 6.46314 -0.467108 0
M  V30 31204 N 2897.08 -0.105193 1.57249 0
M  V30 31205 C 2898.35 -0.841616 1.76568 0
M  V30 31206 C 2898.73 -1.97419 0.7476 0
M  V30 31207 O 2898.08 -2.27381 -0.225846 0
M  V30 31208 C 2898.29 -1.34555 3.22019 0
M  V30 31209 C 2899.64 -1.79238 3.84914 0
M  V30 31210 O 2900.66 -1.44202 3.25706 0
M  V30 31211 O 2899.52 -2.43986 4.89012 0
M  V30 31212 H 2896.62 -0.400685 0.72345 0
M  V30 31213 H 2899.16 -0.0878595 1.69472 0
M  V30 31214 H 2897.93 -0.533617 3.87644 0
M  V30 31215 H 2897.56 -2.16161 3.33707 0
M  V30 31216 N 2898.55 -1.53055 -0.375752 0
M  V30 31217 C 2899.8 -1.67966 -1.11671 0
M  V30 31218 C 2900.12 -0.432689 -1.90754 0
M  V30 31219 O 2901.32 -0.462156 -2.67538 0
M  V30 31220 C 2899.78 -2.96888 -2.03435 0
M  V30 31221 C 2899.39 -4.28811 -1.29711 0
M  V30 31222 C 2901.13 -3.21165 -2.77585 0
M  V30 31223 C 2899.04 -5.4883 -2.20318 0
M  V30 31224 H 2897.97 -0.625798 -0.420586 0
M  V30 31225 H 2900.62 -1.79555 -0.378467 0
M  V30 31226 H 2899 -2.79077 -2.80949 0
M  V30 31227 H 2900.17 -4.5722 -0.573314 0
M  V30 31228 H 2898.49 -4.10898 -0.674663 0
M  V30 31229 H 2901.09 -4.08016 -3.45583 0
M  V30 31230 H 2901.43 -2.36795 -3.42394 0
M  V30 31231 H 2901.96 -3.39603 -2.07158 0
M  V30 31232 H 2898.7 -6.35647 -1.60102 0
M  V30 31233 H 2898.22 -5.24715 -2.90576 0
M  V30 31234 H 2899.9 -5.83224 -2.80105 0
M  V30 31235 N 2900.03 0.634971 -1.44242 0
M  V30 31236 C 2901.45 0.952719 -1.28045 0
M  V30 31237 C 2901.65 2.00367 -0.213415 0
M  V30 31238 O 2900.7 2.49279 0.401998 0
M  V30 31239 C 2902.02 1.41964 -2.65079 0
M  V30 31240 C 2903.57 1.53532 -2.72758 0
M  V30 31241 C 2904.04 2.03609 -4.10253 0
M  V30 31242 N 2905.53 2.10885 -4.1241 0
M  V30 31243 C 2906.27 2.50794 -5.15645 0
M  V30 31244 N 2905.76 2.89868 -6.29244 0
M  V30 31245 N 2907.56 2.50894 -5.03 0
M  V30 31246 H 2899.71 -0.0601353 -2.12315 0
M  V30 31247 H 2901.97 0.0357159 -0.947327 0
M  V30 31248 H 2901.68 0.721743 -3.44215 0
M  V30 31249 H 2901.55 2.39136 -2.91709 0
M  V30 31250 H 2903.94 2.22419 -1.93943 0
M  V30 31251 H 2904.02 0.547452 -2.49873 0
M  V30 31252 H 2903.66 1.35318 -4.89542 0
M  V30 31253 H 2903.59 3.0326 -4.30512 0
M  V30 31254 H 2906.08 1.83387 -3.3042 0
M  V30 31255 H 2906.4 3.19123 -7.03833 0
M  V30 31256 H 2904.74 2.87629 -6.32688 0
M  V30 31257 H 2907.93 2.19756 -4.1331 0
M  V30 31258 H 2908.1 2.81673 -5.83579 0
M  V30 31259 N 2901.51 1.31076 0.875027 0
M  V30 31260 C 2902.44 1.14117 1.98771 0
M  V30 31261 C 2903.46 0.0816405 1.62595 0
M  V30 31262 O 2904.64 0.328641 1.75449 0
M  V30 31263 C 2901.74 0.720282 3.31157 0
M  V30 31264 C 2900.92 1.86373 3.95707 0
M  V30 31265 C 2899.98 1.42973 5.06404 0
M  V30 31266 O 2899 2.13857 5.27498 0
M  V30 31267 N 2900.2 0.314296 5.79649 0
M  V30 31268 H 2902.97 2.09955 2.13867 0
M  V30 31269 H 2900.53 1.23344 1.04871 0
M  V30 31270 H 2902.52 0.412758 4.0259 0
M  V30 31271 H 2901.09 -0.146341 3.12257 0
M  V30 31272 H 2900.31 2.33884 3.1732 0
M  V30 31273 H 2901.6 2.62974 4.35571 0
M  V30 31274 H 2901 -0.276129 5.65026 0
M  V30 31275 H 2899.56 0.0662787 6.51766 0
M  V30 31276 N 2902.99 -1.08867 1.13955 0
M  V30 31277 C 2904.21 -1.85451 0.928592 0
M  V30 31278 C 2904.64 -1.80838 -0.51761 0
M  V30 31279 O 2904 -1.19003 -1.36777 0
M  V30 31280 C 2904.04 -3.31111 1.4282 0
M  V30 31281 O 2903.15 -4.07755 0.617201 0
M  V30 31282 H 2902.49 -0.574833 0.33236 0
M  V30 31283 H 2905.02 -1.3744 1.51563 0
M  V30 31284 H 2905.03 -3.81957 1.43432 0
M  V30 31285 H 2903.7 -3.33784 2.48115 0
M  V30 31286 H 2902.28 -3.66658 0.67943 0
M  V30 31287 N 2904.47 -0.933936 -1.26946 0
M  V30 31288 C 2905.88 -0.621355 -1.76057 0
M  V30 31289 C 2906.23 0.863491 -1.76177 0
M  V30 31290 O 2905.35 1.67574 -1.36923 0
M  V30 31291 C 2905.95 -1.12117 -3.19711 0
M  V30 31292 C 2904.51 -0.859139 -3.66464 0
M  V30 31293 C 2903.65 -1.27628 -2.46183 0
M  V30 31294 H 2906.61 -1.11303 -1.13125 0
M  V30 31295 H 2906.63 -0.471674 -3.77565 0
M  V30 31296 H 2906.14 -2.20188 -3.19592 0
M  V30 31297 H 2904.24 0.2075 -3.72022 0
M  V30 31298 H 2904.35 -1.48106 -4.55633 0
M  V30 31299 H 2902.72 -0.694771 -2.45041 0
M  V30 31300 H 2903.5 -2.36577 -2.4877 0
M  V30 31301 N 2905.94 1.41194 -0.700139 0
M  V30 31302 C 2906.89 2.30769 -0.0377058 0
M  V30 31303 C 2907.86 1.47356 0.766518 0
M  V30 31304 O 2909.05 1.76133 0.733619 0
M  V30 31305 C 2906.19 3.33442 0.889394 0
M  V30 31306 C 2905.3 4.31933 0.0762971 0
M  V30 31307 C 2904.43 5.21675 1.00146 0
M  V30 31308 C 2903.47 6.11831 0.181536 0
M  V30 31309 N 2902.61 6.94041 1.06074 0
M  V30 31310 H 2907.45 2.86856 -0.80731 0
M  V30 31311 H 2904.99 1.41276 -0.409823 0
M  V30 31312 H 2906.95 3.91524 1.441 0
M  V30 31313 H 2905.58 2.78895 1.62535 0
M  V30 31314 H 2904.63 3.75761 -0.592289 0
M  V30 31315 H 2905.94 4.95656 -0.559163 0
M  V30 31316 H 2905.09 5.84613 1.62213 0
M  V30 31317 H 2903.83 4.58189 1.67077 0
M  V30 31318 H 2902.84 5.47937 -0.452181 0
M  V30 31319 H 2904.06 6.77373 -0.484044 0
M  V30 31320 H 2902.01 6.33159 1.71599 0
M  V30 31321 H 2901.93 7.54469 0.480962 0
M  V30 31322 H 2903.19 7.61443 1.66809 0
M  V30 31323 N 2907.42 0.445212 1.51181 0
M  V30 31324 C 2908.84 0.0979234 1.59299 0
M  V30 31325 C 2909.04 -1.39343 1.45553 0
M  V30 31326 O 2908.09 -2.16417 1.30077 0
M  V30 31327 C 2909.41 0.625057 2.94132 0
M  V30 31328 C 2910.96 0.586191 3.07462 0
M  V30 31329 C 2911.43 1.09043 4.4483 0
M  V30 31330 N 2912.92 1.04875 4.51171 0
M  V30 31331 C 2913.66 1.40969 5.55801 0
M  V30 31332 N 2913.15 1.84387 6.67812 0
M  V30 31333 N 2914.95 1.32736 5.46203 0
M  V30 31334 H 2907.1 1.41547 1.58361 0
M  V30 31335 H 2909.36 0.583773 0.746936 0
M  V30 31336 H 2909.07 1.66881 3.09586 0
M  V30 31337 H 2908.94 0.0542925 3.77161 0
M  V30 31338 H 2911.33 -0.448594 2.9167 0
M  V30 31339 H 2911.41 1.19345 2.26253 0
M  V30 31340 H 2911.05 2.12372 4.61368 0
M  V30 31341 H 2910.98 0.459631 5.2459 0
M  V30 31342 H 2913.47 0.729997 3.70782 0
M  V30 31343 H 2913.79 2.10145 7.43679 0
M  V30 31344 H 2912.13 1.8832 6.69 0
M  V30 31345 H 2915.32 0.986758 4.57581 0
M  V30 31346 H 2915.49 1.61193 6.27631 0
M  V30 31347 N 2908.9 -1.56605 0.176849 0
M  V30 31348 C 2910.15 -1.9666 -0.465758 0
M  V30 31349 C 2910.47 -1.06415 -1.63404 0
M  V30 31350 O 2909.74 -0.131637 -1.95457 0
M  V30 31351 H 2908.32 -0.726198 -0.175059 0
M  V30 31352 H 2910.98 -1.93167 0.259323 0
M  V30 31353 H 2910.08 -3.01078 -0.822085 0
M  V30 31354 N 2910.38 0.0968524 -1.57302 0
M  V30 31355 C 2911.63 0.800666 -1.85999 0
M  V30 31356 C 2911.95 1.78819 -0.76512 0
M  V30 31357 O 2911.21 1.94205 0.241458 0
M  V30 31358 C 2911.51 1.5658 -3.21275 0
M  V30 31359 C 2911.17 0.720562 -4.45105 0
M  V30 31360 C 2909.84 0.487548 -4.78724 0
M  V30 31361 C 2912.19 0.132857 -5.21031 0
M  V30 31362 C 2909.52 -0.343063 -5.85696 0
M  V30 31363 C 2911.87 -0.685067 -6.2888 0
M  V30 31364 C 2910.53 -0.92819 -6.61015 0
M  V30 31365 H 2909.8 0.292985 -0.680618 0
M  V30 31366 H 2912.45 0.0622137 -1.91399 0
M  V30 31367 H 2910.75 2.37578 -3.11551 0
M  V30 31368 H 2912.45 2.11472 -3.40706 0
M  V30 31369 H 2909.04 0.912285 -4.18778 0
M  V30 31370 H 2913.22 0.300045 -4.95392 0
M  V30 31371 H 2908.48 -0.540424 -6.09007 0
M  V30 31372 H 2912.65 -1.14733 -6.86884 0
M  V30 31373 H 2910.28 -1.57361 -7.43735 0
M  V30 31374 N 2911.86 1.53252 0.36763 0
M  V30 31375 C 2912.79 1.82523 1.45628 0
M  V30 31376 C 2913.77 0.678595 1.55978 0
M  V30 31377 O 2914.95 0.928247 1.70579 0
M  V30 31378 C 2912.08 2.01329 2.82991 0
M  V30 31379 C 2911.04 3.17091 2.87467 0
M  V30 31380 C 2910.36 3.21187 4.27485 0
M  V30 31381 C 2911.66 4.55723 2.55174 0
M  V30 31382 H 2913.36 2.73691 1.21382 0
M  V30 31383 H 2910.9 1.31693 0.582486 0
M  V30 31384 H 2912.86 2.20389 3.59175 0
M  V30 31385 H 2911.58 1.0687 3.0862 0
M  V30 31386 H 2910.24 2.97848 2.13734 0
M  V30 31387 H 2909.89 2.24369 4.50186 0
M  V30 31388 H 2909.59 3.98963 4.31396 0
M  V30 31389 H 2911.11 3.42428 5.05544 0
M  V30 31390 H 2912.52 4.74958 3.21072 0
M  V30 31391 H 2910.92 5.35725 2.70405 0
M  V30 31392 H 2911.99 4.60975 1.50431 0
M  V30 31393 N 2913.34 -0.627313 1.44577 0
M  V30 31394 C 2914.75 -0.945915 1.28548 0
M  V30 31395 C 2914.95 -2.00251 0.224038 0
M  V30 31396 O 2914.01 -2.49489 -0.388773 0
M  V30 31397 C 2915.32 -1.40556 2.65828 0
M  V30 31398 C 2916.87 -1.52083 2.73568 0
M  V30 31399 C 2917.34 -2.0143 4.11327 0
M  V30 31400 N 2918.83 -2.08694 4.13522 0
M  V30 31401 C 2919.57 -2.48056 5.16968 0
M  V30 31402 N 2919.07 -2.86527 6.30773 0
M  V30 31403 N 2920.86 -2.48223 5.04323 0
M  V30 31404 H 2913.01 0.0713941 2.1228 0
M  V30 31405 H 2915.27 -0.0306915 0.947503 0
M  V30 31406 H 2914.98 -0.703478 3.44593 0
M  V30 31407 H 2914.85 -2.37585 2.92973 0
M  V30 31408 H 2917.24 -2.21387 1.9512 0
M  V30 31409 H 2917.32 -0.534193 2.5016 0
M  V30 31410 H 2916.96 -1.3272 4.90253 0
M  V30 31411 H 2916.89 -3.00973 4.32115 0
M  V30 31412 H 2919.39 -1.81633 3.31388 0
M  V30 31413 H 2919.7 -3.15386 7.05515 0
M  V30 31414 H 2918.04 -2.84269 6.34205 0
M  V30 31415 H 2921.23 -2.17561 4.14469 0
M  V30 31416 H 2921.41 -2.78574 5.85064 0
M  V30 31417 N 2914.81 -1.31539 -0.868063 0
M  V30 31418 C 2916.04 -1.24435 -1.65924 0
M  V30 31419 C 2916.46 0.186903 -1.87169 0
M  V30 31420 O 2915.82 1.13369 -1.41482 0
M  V30 31421 C 2915.87 -1.99565 -3.00343 0
M  V30 31422 O 2914.97 -1.33429 -3.90218 0
M  V30 31423 H 2914.31 -0.429521 -0.506367 0
M  V30 31424 H 2916.84 -1.73639 -1.08216 0
M  V30 31425 H 2916.85 -2.09233 -3.50265 0
M  V30 31426 H 2915.53 -3.0365 -2.842 0
M  V30 31427 H 2914.11 -1.32225 -3.4867 0
M  V30 31428 N 2916.29 1.08262 -1.1453 0
M  V30 31429 C 2917.25 2.13396 -0.836357 0
M  V30 31430 C 2918.25 1.60005 0.159687 0
M  V30 31431 O 2919.44 1.74064 -0.0688404 0
M  V30 31432 C 2916.58 3.40004 -0.247032 0
M  V30 31433 H 2917.77 2.42234 -1.76813 0
M  V30 31434 H 2915.32 1.23998 -0.951531 0
M  V30 31435 H 2916.06 3.16801 0.69338 0
M  V30 31436 H 2915.84 3.80053 -0.964479 0
M  V30 31437 H 2917.33 4.17572 -0.0481413 0
M  V30 31438 N 2917.77 0.940655 1.26449 0
M  V30 31439 C 2918.99 0.604155 1.98405 0
M  V30 31440 C 2919.42 -0.81379 1.69585 0
M  V30 31441 O 2918.78 -1.5481 0.943581 0
M  V30 31442 C 2918.83 0.852197 3.50385 0
M  V30 31443 O 2917.93 -0.0759406 4.1233 0
M  V30 31444 H 2917.27 0.231164 0.622462 0
M  V30 31445 H 2919.8 1.26344 1.60929 0
M  V30 31446 H 2919.81 0.772887 4.00613 0
M  V30 31447 H 2918.49 1.88572 3.70693 0
M  V30 31448 H 2917.06 0.0543843 3.7286 0
M  V30 31449 N 2919.25 -1.40821 0.707617 0
M  V30 31450 C 2920.18 -2.33411 0.0645335 0
M  V30 31451 C 2921.16 -1.52467 -0.754179 0
M  V30 31452 O 2922.34 -1.80962 -0.704717 0
M  V30 31453 C 2919.47 -3.36386 -0.863806 0
M  V30 31454 C 2918.43 -4.27732 -0.151305 0
M  V30 31455 C 2917.75 -5.2118 -1.19482 0
M  V30 31456 C 2919.05 -5.12837 0.989697 0
M  V30 31457 H 2920.75 -2.87437 0.83788 0
M  V30 31458 H 2918.29 -1.38206 0.404371 0
M  V30 31459 H 2920.25 -4.00093 -1.32302 0
M  V30 31460 H 2918.97 -2.80737 -1.66896 0
M  V30 31461 H 2917.63 -3.65467 0.288001 0
M  V30 31462 H 2917.28 -4.6184 -1.99281 0
M  V30 31463 H 2916.98 -5.83135 -0.723021 0
M  V30 31464 H 2918.5 -5.87763 -1.6543 0
M  V30 31465 H 2919.92 -5.70043 0.610215 0
M  V30 31466 H 2918.31 -5.83795 1.38936 0
M  V30 31467 H 2919.38 -4.49288 1.82397 0
M  V30 31468 N 2920.73 -0.453223 -1.50943 0
M  V30 31469 C 2921.97 0.107674 -2.01813 0
M  V30 31470 C 2922.29 1.41813 -1.33843 0
M  V30 31471 O 2921.56 1.89979 -0.478006 0
M  V30 31472 H 2920.14 0.0427817 -0.745774 0
M  V30 31473 H 2922.81 -0.599564 -1.85449 0
M  V30 31474 H 2921.9 0.272126 -3.10911 0
M  V30 31475 N 2922.2 1.56509 -0.185151 0
M  V30 31476 C 2923.62 1.58683 0.170837 0
M  V30 31477 C 2923.82 1.201 1.61797 0
M  V30 31478 O 2922.88 0.919079 2.35179 0
M  V30 31479 C 2924.19 3.0045 -0.122512 0
M  V30 31480 C 2925.74 3.12939 -0.0618249 0
M  V30 31481 C 2926.21 4.56821 -0.32835 0
M  V30 31482 N 2927.7 4.62373 -0.276614 0
M  V30 31483 C 2928.44 5.71577 -0.456823 0
M  V30 31484 N 2927.93 6.89287 -0.696841 0
M  V30 31485 N 2929.73 5.60733 -0.391767 0
M  V30 31486 H 2921.88 1.79872 -1.1296 0
M  V30 31487 H 2924.14 0.834321 -0.450124 0
M  V30 31488 H 2923.85 3.33204 -1.12552 0
M  V30 31489 H 2923.72 3.72722 0.579513 0
M  V30 31490 H 2926.11 2.80003 0.931776 0
M  V30 31491 H 2926.19 2.43074 -0.796774 0
M  V30 31492 H 2925.83 4.90468 -1.31922 0
M  V30 31493 H 2925.76 5.24863 0.427373 0
M  V30 31494 H 2928.25 3.77775 -0.0973123 0
M  V30 31495 H 2928.57 7.68401 -0.823426 0
M  V30 31496 H 2926.91 6.91117 -0.733619 0
M  V30 31497 H 2930.1 4.67652 -0.204745 0
M  V30 31498 H 2930.28 6.45782 -0.535632 0
M  V30 31499 N 2923.68 -0.0885089 1.57351 0
M  V30 31500 C 2925.1 -0.442889 1.53332 0
M  V30 31501 C 2925.3 -1.80141 0.902863 0
M  V30 31502 O 2924.35 -2.47536 0.498191 0
M  V30 31503 C 2925.67 -0.399319 2.98037 0
M  V30 31504 C 2927.21 -0.480705 3.09287 0
M  V30 31505 C 2927.69 -0.467216 4.55611 0
M  V30 31506 N 2929.18 -0.527779 4.60183 0
M  V30 31507 C 2929.92 -0.539287 5.70858 0
M  V30 31508 N 2929.41 -0.506608 6.90945 0
M  V30 31509 N 2931.2 -0.584593 5.59052 0
M  V30 31510 H 2923.36 0.801249 1.96707 0
M  V30 31511 H 2925.62 0.298938 0.899633 0
M  V30 31512 H 2925.32 0.531867 3.47655 0
M  V30 31513 H 2925.2 -1.21583 3.57068 0
M  V30 31514 H 2927.59 -1.40231 2.59652 0
M  V30 31515 H 2927.67 0.364067 2.53196 0
M  V30 31516 H 2927.31 0.450473 5.05898 0
M  V30 31517 H 2927.24 -1.32929 5.09546 0
M  V30 31518 H 2929.73 -0.557963 3.73758 0
M  V30 31519 H 2930.04 -0.518854 7.71056 0
M  V30 31520 H 2928.39 -0.473554 6.93385 0
M  V30 31521 H 2931.58 -0.607699 4.64139 0
M  V30 31522 H 2931.75 -0.590093 6.45308 0
M  V30 31523 N 2925.16 -1.53445 -0.359498 0
M  V30 31524 C 2926.12 -1.79633 -1.42354 0
M  V30 31525 C 2927.12 -0.66691 -1.46318 0
M  V30 31526 O 2928.31 -0.935139 -1.46972 0
M  V30 31527 C 2925.44 -1.92392 -2.81422 0
M  V30 31528 H 2926.64 -2.74669 -1.20404 0
M  V30 31529 H 2924.19 -1.44615 -0.592982 0
M  V30 31530 H 2924.93 -0.994439 -3.08677 0
M  V30 31531 H 2924.71 -2.74544 -2.79943 0
M  V30 31532 H 2926.2 -2.14224 -3.58466 0
M  V30 31533 N 2926.64 0.619637 -1.44908 0
M  V30 31534 C 2927.86 1.4108 -1.52024 0
M  V30 31535 C 2928.29 1.87503 -0.149793 0
M  V30 31536 O 2927.65 1.59428 0.863275 0
M  V30 31537 C 2927.69 2.59951 -2.49916 0
M  V30 31538 O 2926.8 3.60177 -2.00863 0
M  V30 31539 H 2926.14 0.421675 -0.512919 0
M  V30 31540 H 2928.67 0.755249 -1.9015 0
M  V30 31541 H 2928.68 3.0735 -2.68329 0
M  V30 31542 H 2927.35 2.25509 -3.49454 0
M  V30 31543 H 2925.93 3.1951 -1.92271 0
M  V30 31544 N 2928.12 1.31997 0.861075 0
M  V30 31545 C 2929.36 1.22191 1.61479 0
M  V30 31546 C 2929.69 -0.217819 1.93276 0
M  V30 31547 O 2928.95 -1.16906 1.56944 0
M  V30 31548 C 2929.25 2.02032 2.94818 0
M  V30 31549 C 2928.91 3.51451 2.82477 0
M  V30 31550 C 2927.57 3.92191 2.78819 0
M  V30 31551 C 2929.93 4.46495 2.68871 0
M  V30 31552 C 2927.25 5.26228 2.59423 0
M  V30 31553 C 2929.61 5.80669 2.51012 0
M  V30 31554 C 2928.27 6.20618 2.45742 0
M  V30 31555 H 2927.54 0.44713 0.590894 0
M  V30 31556 H 2930.19 1.63356 0.999347 0
M  V30 31557 H 2928.49 1.53575 3.60447 0
M  V30 31558 H 2930.19 1.91819 3.52146 0
M  V30 31559 H 2926.78 3.1909 2.86146 0
M  V30 31560 H 2930.96 4.15945 2.70746 0
M  V30 31561 H 2926.22 5.56245 2.53775 0
M  V30 31562 H 2930.39 6.53935 2.39462 0
M  V30 31563 H 2928.02 7.24421 2.30472 0
M  V30 31564 N 2929.59 -1.07653 1.15103 0
M  V30 31565 C 2930.54 -2.12994 0.813486 0
M  V30 31566 C 2931.53 -1.59641 -0.20087 0
M  V30 31567 O 2932.72 -1.77 -0.00206806 0
M  V30 31568 C 2929.85 -3.41977 0.301138 0
M  V30 31569 C 2928.94 -4.02191 1.34547 0
M  V30 31570 N 2929.33 -4.36706 2.55189 0
M  V30 31571 C 2927.62 -4.29623 1.19749 0
M  V30 31572 C 2928.33 -4.84381 3.22102 0
M  V30 31573 N 2927.3 -4.82963 2.49494 0
M  V30 31574 H 2931.1 -2.37508 1.7311 0
M  V30 31575 H 2928.62 -1.25061 1.03603 0
M  V30 31576 H 2930.61 -4.1688 0.0409873 0
M  V30 31577 H 2929.27 -3.18908 -0.610573 0
M  V30 31578 H 2930.29 -4.27491 2.92356 0
M  V30 31579 H 2926.96 -4.16069 0.345427 0
M  V30 31580 H 2928.35 -5.20404 4.25005 0
M  V30 31581 N 2931.07 -0.947348 -1.25949 0
M  V30 31582 C 2932 -0.479644 -2.28521 0
M  V30 31583 C 2932.98 0.470264 -1.6347 0
M  V30 31584 O 2934.17 0.370791 -1.90627 0
M  V30 31585 C 2931.3 0.250228 -3.46397 0
M  V30 31586 C 2930.25 -0.613718 -4.23577 0
M  V30 31587 C 2929.58 0.246474 -5.34132 0
M  V30 31588 C 2930.88 -1.88817 -4.86976 0
M  V30 31589 H 2932.57 -1.33692 -2.67893 0
M  V30 31590 H 2930.12 -0.644297 -1.28782 0
M  V30 31591 H 2932.07 0.588502 -4.1727 0
M  V30 31592 H 2930.8 1.1417 -3.05995 0
M  V30 31593 H 2929.45 -0.934973 -3.54477 0
M  V30 31594 H 2929.1 1.13748 -4.8997 0
M  V30 31595 H 2928.8 -0.328227 -5.86683 0
M  V30 31596 H 2930.33 0.579879 -6.0784 0
M  V30 31597 H 2931.74 -1.61676 -5.50031 0
M  V30 31598 H 2930.14 -2.40794 -5.49671 0
M  V30 31599 H 2931.21 -2.59577 -4.0957 0
M  V30 31600 N 2932.55 1.40444 -0.715075 0
M  V30 31601 C 2933.46 2.34515 -0.0632036 0
M  V30 31602 C 2934.48 1.57274 0.744369 0
M  V30 31603 O 2935.65 1.89665 0.677442 0
M  V30 31604 C 2932.72 3.36173 0.847855 0
M  V30 31605 C 2931.78 4.29289 0.0302901 0
M  V30 31606 C 2931.01 5.26092 0.897959 0
M  V30 31607 O 2931.23 5.28848 2.1372 0
M  V30 31608 O 2930.17 6.00955 0.337223 0
M  V30 31609 H 2933.99 2.91877 -0.839129 0
M  V30 31610 H 2931.58 1.41629 -0.475552 0
M  V30 31611 H 2933.46 3.98518 1.36973 0
M  V30 31612 H 2932.14 2.81225 1.60294 0
M  V30 31613 H 2931.04 3.70231 -0.536638 0
M  V30 31614 H 2932.38 4.87388 -0.68656 0
M  V30 31615 N 2934.03 0.461222 1.507 0
M  V30 31616 C 2935.27 -0.0960314 2.04174 0
M  V30 31617 C 2935.63 -1.37866 1.3363 0
M  V30 31618 O 2936.83 -2.01767 1.77605 0
M  V30 31619 C 2935.1 -0.285613 3.56257 0
M  V30 31620 S 2936.66 -0.802841 4.31393 0
M  V30 31621 H 2933.48 -0.0206157 0.710701 0
M  V30 31622 H 2936.08 0.626102 1.85203 0
M  V30 31623 H 2934.79 0.653844 4.05158 0
M  V30 31624 H 2934.32 -1.03415 3.79564 0
M  V30 31625 H 2936.33 -2.07753 4.50614 0
M  V30 31626 N 2935.51 -1.56408 0.193449 0
M  V30 31627 C 2936.44 -2.22015 -0.723295 0
M  V30 31628 C 2937.42 -1.18272 -1.22252 0
M  V30 31629 O 2938.6 -1.46774 -1.27166 0
M  V30 31630 C 2935.73 -2.87822 -1.94361 0
M  V30 31631 C 2934.69 -3.97794 -1.57936 0
M  V30 31632 C 2934.01 -4.50757 -2.87615 0
M  V30 31633 C 2935.31 -5.16282 -0.790549 0
M  V30 31634 H 2937.01 -2.9888 -0.176373 0
M  V30 31635 H 2934.55 -1.43758 -0.0833914 0
M  V30 31636 H 2936.51 -3.324 -2.59014 0
M  V30 31637 H 2935.23 -2.08359 -2.51503 0
M  V30 31638 H 2933.89 -3.53904 -0.956419 0
M  V30 31639 H 2933.54 -3.68059 -3.42843 0
M  V30 31640 H 2933.24 -5.24961 -2.63988 0
M  V30 31641 H 2934.76 -4.98036 -3.53259 0
M  V30 31642 H 2936.17 -5.57416 -1.34015 0
M  V30 31643 H 2934.57 -5.96542 -0.652475 0
M  V30 31644 H 2935.64 -4.84451 0.208718 0
M  V30 31645 N 2936.98 0.0801629 -1.57396 0
M  V30 31646 C 2937.93 1.09614 -2.03109 0
M  V30 31647 C 2938.9 1.38945 -0.910142 0
M  V30 31648 O 2940.09 1.50154 -1.17721 0
M  V30 31649 C 2937.23 2.40703 -2.47297 0
M  V30 31650 C 2936.34 2.17975 -3.72976 0
M  V30 31651 C 2935.47 3.42569 -4.05981 0
M  V30 31652 C 2934.51 3.15168 -5.24724 0
M  V30 31653 N 2933.65 4.32069 -5.53409 0
M  V30 31654 H 2938.49 0.699339 -2.89678 0
M  V30 31655 H 2936.03 0.33376 -1.43264 0
M  V30 31656 H 2937.99 3.17227 -2.70966 0
M  V30 31657 H 2936.62 2.78202 -1.63718 0
M  V30 31658 H 2935.67 1.32183 -3.56696 0
M  V30 31659 H 2936.98 1.9373 -4.59641 0
M  V30 31660 H 2936.13 4.27493 -4.30505 0
M  V30 31661 H 2934.87 3.69882 -3.17866 0
M  V30 31662 H 2933.88 2.28639 -5.00004 0
M  V30 31663 H 2935.1 2.89186 -6.1445 0
M  V30 31664 H 2933.05 4.59429 -4.68253 0
M  V30 31665 H 2932.97 4.11067 -6.34476 0
M  V30 31666 H 2934.23 5.18014 -5.82479 0
M  V30 31667 N 2938.46 1.53634 0.351355 0
M  V30 31668 C 2939.88 1.43723 0.693961 0
M  V30 31669 C 2940.08 0.587703 1.92739 0
M  V30 31670 O 2939.13 0.0756525 2.52387 0
M  V30 31671 C 2940.45 2.87107 0.893886 0
M  V30 31672 C 2942 2.96831 0.992999 0
M  V30 31673 C 2942.47 4.41305 1.2253 0
M  V30 31674 N 2943.96 4.44797 1.29267 0
M  V30 31675 C 2944.7 5.53709 1.48978 0
M  V30 31676 N 2944.19 6.7264 1.65912 0
M  V30 31677 N 2945.99 5.41309 1.51462 0
M  V30 31678 H 2938.14 2.07365 -0.459725 0
M  V30 31679 H 2940.4 0.937045 -0.143701 0
M  V30 31680 H 2940.11 3.5165 0.0591899 0
M  V30 31681 H 2939.98 3.31596 1.79789 0
M  V30 31682 H 2942.37 2.32432 1.81822 0
M  V30 31683 H 2942.45 2.55715 0.0660669 0
M  V30 31684 H 2942.09 5.06282 0.405028 0
M  V30 31685 H 2942.02 4.80007 2.16567 0
M  V30 31686 H 2944.51 3.59091 1.17737 0
M  V30 31687 H 2944.83 7.51409 1.80565 0
M  V30 31688 H 2943.17 6.756 1.63063 0
M  V30 31689 H 2946.36 4.47354 1.3781 0
M  V30 31690 H 2946.53 6.26249 1.66482 0
M  V30 31691 N 2939.94 -0.611943 1.45234 0
M  V30 31692 C 2940.87 -1.73664 1.49578 0
M  V30 31693 C 2941.89 -1.58133 0.387015 0
M  V30 31694 O 2943.07 -1.66094 0.653833 0
M  V30 31695 C 2940.17 -3.11614 1.33228 0
M  V30 31696 C 2939.35 -3.53426 2.577 0
M  V30 31697 C 2938.41 -4.70324 2.35971 0
M  V30 31698 O 2937.43 -4.77661 3.09561 0
M  V30 31699 N 2938.63 -5.63302 1.40253 0
M  V30 31700 H 2941.4 -1.70402 2.46542 0
M  V30 31701 H 2938.96 -0.797096 1.40918 0
M  V30 31702 H 2940.95 -3.87566 1.16509 0
M  V30 31703 H 2939.52 -3.09408 0.445565 0
M  V30 31704 H 2938.74 -2.67481 2.89565 0
M  V30 31705 H 2940.03 -3.78118 3.40448 0
M  V30 31706 H 2939.43 -5.60084 0.795121 0
M  V30 31707 H 2937.99 -6.38805 1.29507 0
M  V30 31708 N 2941.42 -1.32452 -0.854063 0
M  V30 31709 C 2942.37 -1.21438 -1.96269 0
M  V30 31710 C 2943.34 -0.0964142 -1.6582 0
M  V30 31711 O 2944.52 -0.272063 -1.8885 0
M  V30 31712 C 2941.66 -0.94401 -3.31937 0
M  V30 31713 C 2940.77 -2.14682 -3.74881 0
M  V30 31714 C 2939.91 -1.81188 -4.99344 0
M  V30 31715 C 2938.95 -2.97786 -5.3478 0
M  V30 31716 N 2938.08 -2.64382 -6.5042 0
M  V30 31717 H 2942.92 -2.16264 -2.05021 0
M  V30 31718 H 2940.46 -1.07559 -1.00346 0
M  V30 31719 H 2942.42 -0.767747 -4.10075 0
M  V30 31720 H 2941.05 -0.032533 -3.22784 0
M  V30 31721 H 2940.1 -2.43333 -2.92392 0
M  V30 31722 H 2941.41 -3.01898 -3.97063 0
M  V30 31723 H 2940.57 -1.60117 -5.8519 0
M  V30 31724 H 2939.31 -0.911861 -4.791 0
M  V30 31725 H 2938.31 -3.19488 -4.47445 0
M  V30 31726 H 2939.54 -3.88521 -5.56981 0
M  V30 31727 H 2937.48 -1.76921 -6.31692 0
M  V30 31728 H 2937.4 -3.45128 -6.72624 0
M  V30 31729 H 2938.67 -2.46742 -7.39418 0
M  V30 31730 N 2942.9 1.07041 -1.15672 0
M  V30 31731 C 2944.17 1.76455 -0.843979 0
M  V30 31732 C 2944.55 2.00525 0.659771 0
M  V30 31733 O 2943.9 1.62626 1.60515 0
M  V30 31734 C 2944.11 3.07087 -1.65827 0
M  V30 31735 C 2945.46 3.81376 -1.86647 0
M  V30 31736 O 2946.48 3.16907 -1.6263 0
M  V30 31737 O 2945.34 4.97174 -2.26893 0
M  V30 31738 H 2942.44 0.76642 -0.310691 0
M  V30 31739 H 2944.98 1.13378 -1.26268 0
M  V30 31740 H 2943.76 2.85205 -2.67907 0
M  V30 31741 H 2943.38 3.77897 -1.23612 0
M  V30 31742 N 2944.38 0.954014 1.25445 0
M  V30 31743 C 2945.79 0.658342 1.45389 0
M  V30 31744 C 2945.99 -0.784323 1.85609 0
M  V30 31745 O 2945.05 -1.55968 1.9857 0
M  V30 31746 C 2946.36 1.63074 2.52641 0
M  V30 31747 C 2947.91 1.64185 2.66481 0
M  V30 31748 C 2948.38 2.60188 3.76917 0
M  V30 31749 N 2949.87 2.58549 3.84326 0
M  V30 31750 C 2950.61 3.29511 4.69265 0
M  V30 31751 N 2950.11 4.09944 5.58496 0
M  V30 31752 N 2951.9 3.18401 4.63225 0
M  V30 31753 H 2944.05 1.88632 0.976304 0
M  V30 31754 H 2946.31 0.811345 0.490329 0
M  V30 31755 H 2946.02 2.66118 2.29944 0
M  V30 31756 H 2945.89 1.39277 3.50545 0
M  V30 31757 H 2948.28 0.618603 2.88543 0
M  V30 31758 H 2948.36 1.92041 1.68979 0
M  V30 31759 H 2948 3.62639 3.55605 0
M  V30 31760 H 2947.93 2.29618 4.73902 0
M  V30 31761 H 2950.43 2.00156 3.2054 0
M  V30 31762 H 2950.74 4.61011 6.20233 0
M  V30 31763 H 2949.08 4.14042 5.58206 0
M  V30 31764 H 2952.27 2.55037 3.92522 0
M  V30 31765 H 2952.45 3.7397 5.29198 0
M  V30 31766 N 2945.85 -1.40063 0.722513 0
M  V30 31767 C 2947.1 -2.00362 0.26449 0
M  V30 31768 C 2947.42 -1.57594 -1.14844 0
M  V30 31769 O 2946.69 -0.818508 -1.77981 0
M  V30 31770 H 2945.27 -0.74096 0.0947976 0
M  V30 31771 H 2947.93 -1.71297 0.929689 0
M  V30 31772 H 2947.03 -3.10625 0.303031 0
M  V30 31773 N 2947.33 -0.469207 -1.50453 0
M  V30 31774 C 2948.58 0.0862627 -2.01916 0
M  V30 31775 C 2948.9 1.40386 -1.3534 0
M  V30 31776 O 2948.17 1.89461 -0.498129 0
M  V30 31777 H 2946.75 0.0348693 -0.746186 0
M  V30 31778 H 2949.41 -0.619199 -1.84802 0
M  V30 31779 H 2948.51 0.239134 -3.11183 0
M  V30 31780 N 2948.81 1.56303 -0.201741 0
M  V30 31781 C 2950.09 1.89537 0.48324 0
M  V30 31782 C 2950.47 1.11624 1.79174 0
M  V30 31783 O 2949.81 0.219379 2.27444 0
M  V30 31784 C 2950.02 3.41999 0.695544 0
M  V30 31785 C 2951.37 4.12365 1.01192 0
M  V30 31786 O 2952.4 3.47487 0.783033 0
M  V30 31787 O 2951.26 5.27043 1.44525 0
M  V30 31788 H 2948.35 0.787418 0.252787 0
M  V30 31789 H 2950.9 1.67959 -0.24245 0
M  V30 31790 H 2949.67 3.90634 -0.228234 0
M  V30 31791 H 2949.29 3.6929 1.47345 0
M  V30 31792 N 2950.29 -0.0718147 1.57436 0
M  V30 31793 C 2951.54 -0.769793 1.86432 0
M  V30 31794 C 2951.85 -1.78742 0.794386 0
M  V30 31795 O 2953.06 -2.53497 0.972193 0
M  V30 31796 C 2951.51 -1.42 3.30702 0
M  V30 31797 C 2951.12 -0.440939 4.45825 0
M  V30 31798 C 2952.86 -2.10035 3.68898 0
M  V30 31799 C 2950.77 -1.09706 5.81136 0
M  V30 31800 H 2949.7 -0.291247 0.695479 0
M  V30 31801 H 2952.35 -0.0230901 1.83485 0
M  V30 31802 H 2950.73 -2.21497 3.28261 0
M  V30 31803 H 2951.91 0.324211 4.59658 0
M  V30 31804 H 2950.22 0.134959 4.16181 0
M  V30 31805 H 2952.82 -2.599 4.67286 0
M  V30 31806 H 2953.16 -2.89975 2.98697 0
M  V30 31807 H 2953.7 -1.3737 3.73329 0
M  V30 31808 H 2950.43 -0.33798 6.54628 0
M  V30 31809 H 2949.95 -1.83307 5.71103 0
M  V30 31810 H 2951.63 -1.61689 6.26471 0
M  V30 31811 N 2951.77 -1.53818 -0.343203 0
M  V30 31812 C 2952.99 -1.75331 -1.10787 0
M  V30 31813 C 2953.42 -0.491324 -1.8157 0
M  V30 31814 O 2952.77 0.556059 -1.72562 0
M  V30 31815 C 2952.82 -2.93374 -2.09676 0
M  V30 31816 O 2951.93 -2.63546 -3.17202 0
M  V30 31817 H 2951.27 -0.581588 -0.320392 0
M  V30 31818 H 2953.8 -2.00781 -0.39349 0
M  V30 31819 H 2953.81 -3.20172 -2.52891 0
M  V30 31820 H 2952.48 -3.84902 -1.57554 0
M  V30 31821 H 2951.06 -2.47637 -2.78801 0
M  V30 31822 N 2953.24 0.604233 -1.45557 0
M  V30 31823 C 2954.18 1.72868 -1.50497 0
M  V30 31824 C 2955.19 1.57925 -0.395396 0
M  V30 31825 O 2956.38 1.65745 -0.662633 0
M  V30 31826 C 2953.48 3.10903 -1.34879 0
M  V30 31827 C 2952.65 3.52054 -2.5957 0
M  V30 31828 C 2951.71 4.69066 -2.38461 0
M  V30 31829 O 2950.74 4.76013 -3.1209 0
M  V30 31830 N 2951.94 5.6255 -1.43239 0
M  V30 31831 H 2954.7 1.69092 -2.47443 0
M  V30 31832 H 2952.26 0.789611 -1.41339 0
M  V30 31833 H 2954.26 3.86943 -1.18563 0
M  V30 31834 H 2952.83 3.09168 -0.461967 0
M  V30 31835 H 2952.05 2.65941 -2.90979 0
M  V30 31836 H 2953.33 3.76307 -3.42448 0
M  V30 31837 H 2952.73 5.59655 -0.824813 0
M  V30 31838 H 2951.29 6.38109 -1.32893 0
M  V30 31839 N 2954.72 1.32903 0.847027 0
M  V30 31840 C 2955.67 1.22477 1.95622 0
M  V30 31841 C 2956.64 0.105207 1.65766 0
M  V30 31842 O 2957.82 0.282075 1.88703 0
M  V30 31843 C 2954.96 0.9616 3.31432 0
M  V30 31844 C 2954.08 2.16667 3.73737 0
M  V30 31845 C 2953.21 1.83834 4.98376 0
M  V30 31846 C 2952.25 3.00618 5.33193 0
M  V30 31847 N 2951.39 2.67827 6.49009 0
M  V30 31848 H 2956.23 2.17348 2.03872 0
M  V30 31849 H 2953.76 1.0809 0.997745 0
M  V30 31850 H 2955.72 0.789484 4.09662 0
M  V30 31851 H 2954.35 0.0496505 3.22762 0
M  V30 31852 H 2953.4 2.44881 2.91097 0
M  V30 31853 H 2954.72 3.04 3.95456 0
M  V30 31854 H 2953.87 1.63218 5.84333 0
M  V30 31855 H 2952.61 0.937256 4.78609 0
M  V30 31856 H 2951.61 3.21857 4.45745 0
M  V30 31857 H 2952.84 3.9147 5.54913 0
M  V30 31858 H 2950.79 1.80269 6.30745 0
M  V30 31859 H 2950.7 3.4869 6.70784 0
M  V30 31860 H 2951.97 2.5066 7.38099 0
M  V30 31861 N 2956.2 -1.06426 1.16238 0
M  V30 31862 C 2957.43 -1.829 0.967216 0
M  V30 31863 C 2957.84 -1.82476 -0.484569 0
M  V30 31864 O 2957.2 -1.24297 -1.33628 0
M  V30 31865 C 2957.25 -3.29573 1.48539 0
M  V30 31866 O 2956.97 -3.30105 2.88032 0
M  V30 31867 C 2958.47 -4.22782 1.33305 0
M  V30 31868 H 2955.69 -0.576748 0.342933 0
M  V30 31869 H 2958.24 -1.34283 1.54234 0
M  V30 31870 H 2956.39 -3.75506 0.952579 0
M  V30 31871 H 2956.81 -4.21812 3.11729 0
M  V30 31872 H 2958.28 -5.23728 1.74394 0
M  V30 31873 H 2958.76 -4.38317 0.278433 0
M  V30 31874 H 2959.36 -3.82694 1.85541 0
M  V30 31875 N 2957.68 -0.960653 -1.24937 0
M  V30 31876 C 2958.92 -0.619614 -1.93103 0
M  V30 31877 C 2959.26 0.842089 -1.74993 0
M  V30 31878 O 2958.53 1.60496 -1.0987 0
M  V30 31879 C 2958.82 -0.986483 -3.46324 0
M  V30 31880 C 2958.67 -2.50436 -3.73633 0
M  V30 31881 C 2959.99 -0.515904 -4.37066 0
M  V30 31882 H 2957.11 -0.226578 -0.701307 0
M  V30 31883 H 2959.75 -1.19839 -1.4744 0
M  V30 31884 H 2957.9 -0.493975 -3.85347 0
M  V30 31885 H 2959.57 -3.07109 -3.44212 0
M  V30 31886 H 2957.81 -2.93943 -3.1903 0
M  V30 31887 H 2958.48 -2.71156 -4.8081 0
M  V30 31888 H 2960.96 -0.938461 -4.05379 0
M  V30 31889 H 2959.84 -0.801235 -5.43021 0
M  V30 31890 H 2960.1 0.584094 -4.38225 0
M  V30 31891 N 2959.16 1.39677 -0.729931 0
M  V30 31892 C 2960.09 2.33279 -0.101659 0
M  V30 31893 C 2961.07 1.53647 0.729827 0
M  V30 31894 O 2962.25 1.82061 0.675838 0
M  V30 31895 C 2959.38 3.37718 0.810181 0
M  V30 31896 C 2958.34 4.27919 0.0832374 0
M  V30 31897 C 2957.66 5.23014 1.11175 0
M  V30 31898 C 2958.96 5.11198 -1.07116 0
M  V30 31899 H 2960.66 2.86067 -0.883503 0
M  V30 31900 H 2958.2 1.37545 -0.426307 0
M  V30 31901 H 2960.16 4.02147 1.2592 0
M  V30 31902 H 2958.88 2.83357 1.62408 0
M  V30 31903 H 2957.54 3.64963 -0.346107 0
M  V30 31904 H 2957.19 4.64952 1.91909 0
M  V30 31905 H 2956.89 5.84211 0.630157 0
M  V30 31906 H 2958.41 5.9032 1.56058 0
M  V30 31907 H 2959.82 5.69 -0.700826 0
M  V30 31908 H 2958.22 5.81511 -1.48206 0
M  V30 31909 H 2959.29 4.46329 -1.89521 0
M  V30 31910 N 2960.63 0.47718 1.50202 0
M  V30 31911 C 2962.05 0.0235369 1.86685 0
M  V30 31912 C 2962.4 -1.38317 1.39151 0
M  V30 31913 O 2961.52 -2.0265 0.759087 0
M  V30 31914 C 2962.12 0.0359362 3.38781 0
M  V30 31915 C 2960.68 -0.362261 3.74653 0
M  V30 31916 C 2959.82 0.418798 2.74119 0
M  V30 31917 H 2962.77 0.691158 1.42859 0
M  V30 31918 H 2962.79 -0.764858 3.72733 0
M  V30 31919 H 2962.31 1.05988 3.73347 0
M  V30 31920 H 2960.41 -1.39033 3.45689 0
M  V30 31921 H 2960.52 -0.0593728 4.79063 0
M  V30 31922 H 2958.88 -0.128296 2.54377 0
M  V30 31923 H 2959.67 1.44236 3.1153 0
M  V30 31924 N 2962.11 -1.56194 0.210027 0
M  V30 31925 C 2963.04 -2.2277 -0.699707 0
M  V30 31926 C 2964.02 -1.19562 -1.20991 0
M  V30 31927 O 2965.21 -1.48114 -1.25602 0
M  V30 31928 C 2962.34 -2.89867 -1.91297 0
M  V30 31929 C 2961.29 -3.99447 -1.53708 0
M  V30 31930 C 2960.62 -4.53782 -2.82818 0
M  V30 31931 C 2961.92 -5.17092 -0.735746 0
M  V30 31932 H 2963.61 -2.9905 -0.144663 0
M  V30 31933 H 2961.16 -1.43839 -0.0681392 0
M  V30 31934 H 2963.11 -3.35129 -2.55474 0
M  V30 31935 H 2961.84 -2.11015 -2.49279 0
M  V30 31936 H 2960.49 -3.54899 -0.918829 0
M  V30 31937 H 2960.14 -3.71675 -3.3892 0
M  V30 31938 H 2959.84 -5.27731 -2.58406 0
M  V30 31939 H 2961.37 -5.01755 -3.47957 0
M  V30 31940 H 2962.78 -5.58806 -1.28095 0
M  V30 31941 H 2961.18 -5.97201 -0.589167 0
M  V30 31942 H 2962.25 -4.84202 0.260089 0
M  V30 31943 N 2963.59 0.0634645 -1.57472 0
M  V30 31944 C 2964.54 1.08163 -2.00711 0
M  V30 31945 C 2965.52 1.34009 -0.890522 0
M  V30 31946 O 2966.72 1.3417 -1.15444 0
M  V30 31947 C 2963.85 2.39299 -2.46153 0
M  V30 31948 C 2962.93 2.1669 -3.64563 0
M  V30 31949 N 2963.32 1.64035 -4.78462 0
M  V30 31950 C 2961.62 2.47128 -3.71273 0
M  V30 31951 C 2962.32 1.56436 -5.6027 0
M  V30 31952 N 2961.3 2.02783 -5.04361 0
M  V30 31953 H 2965.1 0.667966 -2.86209 0
M  V30 31954 H 2962.61 0.270398 -1.60133 0
M  V30 31955 H 2964.61 3.13011 -2.75372 0
M  V30 31956 H 2963.27 2.81374 -1.62045 0
M  V30 31957 H 2964.28 1.32782 -5.00589 0
M  V30 31958 H 2960.96 2.92513 -2.97897 0
M  V30 31959 H 2962.35 1.16507 -6.61722 0
M  V30 31960 N 2965.07 1.53998 0.33504 0
M  V30 31961 C 2966 1.85571 1.41724 0
M  V30 31962 C 2966.98 0.711528 1.54503 0
M  V30 31963 O 2968.16 0.964221 1.68572 0
M  V30 31964 C 2965.29 2.07287 2.78657 0
M  V30 31965 C 2964.25 3.23117 2.80677 0
M  V30 31966 C 2963.57 3.30182 4.20575 0
M  V30 31967 C 2964.87 4.61033 2.4545 0
M  V30 31968 H 2966.57 2.76204 1.1555 0
M  V30 31969 H 2964.11 1.32899 0.554421 0
M  V30 31970 H 2966.07 2.27959 3.54419 0
M  V30 31971 H 2964.79 1.13392 3.06284 0
M  V30 31972 H 2963.45 3.02314 2.07368 0
M  V30 31973 H 2963.1 2.33867 4.45326 0
M  V30 31974 H 2962.8 4.08024 4.22836 0
M  V30 31975 H 2964.32 3.53075 4.98167 0
M  V30 31976 H 2965.74 4.81662 3.10925 0
M  V30 31977 H 2964.13 5.4134 2.58981 0
M  V30 31978 H 2965.2 4.64063 1.4062 0
M  V30 31979 N 2966.55 -0.596505 1.45875 0
M  V30 31980 C 2967.79 -1.35719 1.50692 0
M  V30 31981 C 2968.13 -1.936 0.15254 0
M  V30 31982 O 2967.4 -1.75694 -0.83438 0
M  V30 31983 C 2967.68 -2.49686 2.59478 0
M  V30 31984 C 2967.54 -1.96929 4.04399 0
M  V30 31985 C 2968.86 -3.51782 2.64457 0
M  V30 31986 H 2965.97 -0.492124 0.548619 0
M  V30 31987 H 2968.62 -0.671397 1.77742 0
M  V30 31988 H 2966.77 -3.08187 2.36544 0
M  V30 31989 H 2968.44 -1.42992 4.38578 0
M  V30 31990 H 2966.68 -1.27852 4.14532 0
M  V30 31991 H 2967.35 -2.79134 4.76223 0
M  V30 31992 H 2969.83 -3.0314 2.85036 0
M  V30 31993 H 2968.7 -4.29 3.42418 0
M  V30 31994 H 2968.97 -4.0812 1.69972 0
M  V30 31995 N 2968.02 -1.3335 -0.839967 0
M  V30 31996 C 2968.97 -1.20082 -1.93815 0
M  V30 31997 C 2969.96 -0.104006 -1.60564 0
M  V30 31998 O 2971.15 -0.331994 -1.73859 0
M  V30 31999 C 2968.28 -0.941089 -3.30149 0
M  V30 32000 C 2967.37 -2.08029 -3.69574 0
M  V30 32001 N 2967.76 -3.33016 -3.80702 0
M  V30 32002 C 2966.05 -1.98674 -3.99305 0
M  V30 32003 C 2966.76 -4.07725 -4.14892 0
M  V30 32004 N 2965.73 -3.36154 -4.27202 0
M  V30 32005 H 2969.53 -2.14821 -2.00572 0
M  V30 32006 H 2967.05 -1.25342 -1.03262 0
M  V30 32007 H 2969.04 -0.826966 -4.08616 0
M  V30 32008 H 2967.7 -0.00222445 -3.247 0
M  V30 32009 H 2968.72 -3.67777 -3.64637 0
M  V30 32010 H 2965.39 -1.1244 -4.02074 0
M  V30 32011 H 2966.78 -5.15577 -4.30848 0
M  V30 32012 N 2969.5 1.05808 -1.16801 0
M  V30 32013 C 2970.45 2.11673 -0.847268 0
M  V30 32014 C 2971.44 1.59941 0.175448 0
M  V30 32015 O 2972.63 1.76981 -0.0260913 0
M  V30 32016 C 2969.76 3.41454 -0.355506 0
M  V30 32017 C 2968.84 4 -1.40929 0
M  V30 32018 N 2969.23 4.32591 -2.62104 0
M  V30 32019 C 2967.53 4.27664 -1.26569 0
M  V30 32020 C 2968.23 4.79196 -3.29767 0
M  V30 32021 N 2967.21 4.78933 -2.57146 0
M  V30 32022 H 2971.01 2.34724 -1.76866 0
M  V30 32023 H 2968.53 1.23397 -1.05579 0
M  V30 32024 H 2970.52 4.16762 -0.107304 0
M  V30 32025 H 2969.18 3.19839 0.55976 0
M  V30 32026 H 2970.19 4.22785 -2.9912 0
M  V30 32027 H 2966.87 4.15466 -0.411576 0
M  V30 32028 H 2968.26 5.13576 -4.33231 0
M  V30 32029 N 2970.98 0.967265 1.24426 0
M  V30 32030 C 2971.91 0.454896 2.2464 0
M  V30 32031 C 2972.93 -0.436125 1.5685 0
M  V30 32032 O 2974.11 -0.24237 1.76847 0
M  V30 32033 C 2971.21 -0.362613 3.36954 0
M  V30 32034 C 2970.39 0.5184 4.34317 0
M  V30 32035 C 2969.45 -0.24303 5.25638 0
M  V30 32036 O 2968.47 0.36289 5.68042 0
M  V30 32037 N 2969.67 -1.53272 5.599 0
M  V30 32038 H 2972.44 1.31652 2.69235 0
M  V30 32039 H 2970 0.839039 1.38462 0
M  V30 32040 H 2971.99 -0.880024 3.95016 0
M  V30 32041 H 2970.56 -1.12517 2.91648 0
M  V30 32042 H 2969.78 1.21679 3.7495 0
M  V30 32043 H 2971.07 1.11928 4.96336 0
M  V30 32044 H 2970.47 -2.04673 5.27376 0
M  V30 32045 H 2969.03 -1.99583 6.20492 0
M  V30 32046 N 2972.46 -1.39288 0.737328 0
M  V30 32047 C 2973.42 -2.28948 0.10735 0
M  V30 32048 C 2974.42 -1.46419 -0.66469 0
M  V30 32049 O 2975.61 -1.67068 -0.493363 0
M  V30 32050 C 2972.74 -3.2995 -0.857087 0
M  V30 32051 H 2973.94 -2.86162 0.897301 0
M  V30 32052 H 2971.49 -1.47975 0.503305 0
M  V30 32053 H 2972.23 -2.77796 -1.67331 0
M  V30 32054 H 2972.01 -3.90903 -0.306098 0
M  V30 32055 H 2973.5 -3.97034 -1.29437 0
M  V30 32056 N 2973.94 -0.485139 -1.49947 0
M  V30 32057 C 2974.87 0.291323 -2.31676 0
M  V30 32058 C 2975.85 0.977359 -1.39218 0
M  V30 32059 O 2977.03 0.971825 -1.68134 0
M  V30 32060 C 2974.16 1.36552 -3.19329 0
M  V30 32061 C 2973.12 0.800285 -4.20451 0
M  V30 32062 C 2972.44 1.97382 -4.96935 0
M  V30 32063 C 2973.74 -0.197959 -5.21925 0
M  V30 32064 H 2975.44 -0.390827 -2.96838 0
M  V30 32065 H 2972.98 -0.189401 -1.42749 0
M  V30 32066 H 2974.94 1.91631 -3.75307 0
M  V30 32067 H 2973.66 2.07664 -2.52078 0
M  V30 32068 H 2972.32 0.271364 -3.65594 0
M  V30 32069 H 2971.97 2.67225 -4.26145 0
M  V30 32070 H 2971.67 1.60177 -5.65347 0
M  V30 32071 H 2973.19 2.52925 -5.55753 0
M  V30 32072 H 2974.61 0.264138 -5.72691 0
M  V30 32073 H 2973 -0.485014 -5.98137 0
M  V30 32074 H 2974.07 -1.1192 -4.71807 0
M  V30 32075 N 2975.42 1.56081 -0.218307 0
M  V30 32076 C 2976.38 2.18893 0.679594 0
M  V30 32077 C 2977.38 1.14988 1.12403 0
M  V30 32078 O 2978.57 1.4024 1.03336 0
M  V30 32079 C 2975.7 2.80965 1.93058 0
M  V30 32080 H 2976.89 2.99609 0.132013 0
M  V30 32081 H 2974.45 1.56269 0.0313099 0
M  V30 32082 H 2975.18 2.0411 2.52011 0
M  V30 32083 H 2974.97 3.57051 1.6204 0
M  V30 32084 H 2976.46 3.29123 2.57037 0
M  V30 32085 N 2976.89 -0.0551124 1.57504 0
M  V30 32086 C 2978.14 -0.752183 1.88335 0
M  V30 32087 C 2978.47 -1.76374 0.812773 0
M  V30 32088 O 2977.75 -1.9371 -0.175164 0
M  V30 32089 C 2978.03 -1.44522 3.29826 0
M  V30 32090 C 2977.88 -0.448948 4.47554 0
M  V30 32091 C 2979.2 -2.38594 3.69812 0
M  V30 32092 H 2976.32 -0.271983 0.684977 0
M  V30 32093 H 2978.96 -0.0151561 1.89994 0
M  V30 32094 H 2977.11 -2.07345 3.28543 0
M  V30 32095 H 2978.79 0.175358 4.60967 0
M  V30 32096 H 2977.03 0.234238 4.33167 0
M  V30 32097 H 2977.7 -0.971821 5.43378 0
M  V30 32098 H 2980.18 -1.85836 3.72296 0
M  V30 32099 H 2979.05 -2.84079 4.6967 0
M  V30 32100 H 2979.31 -3.24136 3.00646 0
M  V30 32101 N 2978.37 -1.54173 -0.326869 0
M  V30 32102 C 2979.33 -1.82612 -1.38512 0
M  V30 32103 C 2980.33 -0.697796 -1.4487 0
M  V30 32104 O 2981.52 -0.966104 -1.44955 0
M  V30 32105 C 2978.66 -1.98318 -2.77278 0
M  V30 32106 H 2979.85 -2.77161 -1.14551 0
M  V30 32107 H 2977.4 -1.4584 -0.562174 0
M  V30 32108 H 2978.14 -1.05969 -3.06498 0
M  V30 32109 H 2977.92 -2.8042 -2.74056 0
M  V30 32110 H 2979.41 -2.21779 -3.53841 0
M  V30 32111 N 2979.85 0.58876 -1.4619 0
M  V30 32112 C 2981.1 1.34452 -1.50887 0
M  V30 32113 C 2981.42 1.94346 -0.159589 0
M  V30 32114 O 2980.69 1.78224 0.813208 0
M  V30 32115 H 2979.27 0.499189 -0.555716 0
M  V30 32116 H 2981.93 0.689982 -1.82278 0
M  V30 32117 H 2981.03 2.15434 -2.2582 0
M  V30 32118 N 2981.33 1.33794 0.832883 0
M  V30 32119 C 2982.26 1.27179 1.95826 0
M  V30 32120 C 2983.24 0.151169 1.69427 0
M  V30 32121 O 2984.42 0.34192 1.91166 0
M  V30 32122 C 2981.55 1.01634 3.32096 0
M  V30 32123 C 2980.51 2.10055 3.72909 0
M  V30 32124 C 2979.83 1.69715 5.07051 0
M  V30 32125 C 2981.13 3.5179 3.86058 0
M  V30 32126 H 2982.83 2.21338 2.01618 0
M  V30 32127 H 2980.37 1.06552 0.968641 0
M  V30 32128 H 2982.33 0.956546 4.104 0
M  V30 32129 H 2981.05 0.039153 3.26577 0
M  V30 32130 H 2979.71 2.15087 2.96872 0
M  V30 32131 H 2979.36 0.706824 4.98009 0
M  V30 32132 H 2979.06 2.42273 5.35329 0
M  V30 32133 H 2980.58 1.65212 5.87824 0
M  V30 32134 H 2982 3.49226 4.54658 0
M  V30 32135 H 2980.39 4.22885 4.25779 0
M  V30 32136 H 2981.46 3.89859 2.88337 0
M  V30 32137 N 2982.81 -1.05187 1.1736 0
M  V30 32138 C 2984.03 -1.82402 0.987122 0
M  V30 32139 C 2984.46 -1.82393 -0.459816 0
M  V30 32140 O 2983.81 -1.23294 -1.32922 0
M  V30 32141 C 2983.86 -3.264 1.53282 0
M  V30 32142 O 2982.97 -4.05585 0.746612 0
M  V30 32143 H 2982.31 -0.563968 0.35048 0
M  V30 32144 H 2984.84 -1.32549 1.55859 0
M  V30 32145 H 2984.85 -3.77201 1.55511 0
M  V30 32146 H 2983.52 -3.25721 2.58608 0
M  V30 32147 H 2982.1 -3.64311 0.795735 0
M  V30 32148 N 2984.28 -0.97385 -1.23911 0
M  V30 32149 C 2985.69 -0.677052 -1.73991 0
M  V30 32150 C 2986.05 0.807005 -1.78835 0
M  V30 32151 O 2985.17 1.63133 -1.42185 0
M  V30 32152 C 2985.77 -1.22231 -3.15983 0
M  V30 32153 C 2984.32 -0.975291 -3.63545 0
M  V30 32154 C 2983.47 -1.35396 -2.41998 0
M  V30 32155 H 2986.42 -1.14846 -1.09527 0
M  V30 32156 H 2986.44 -0.591555 -3.75873 0
M  V30 32157 H 2985.96 -2.30244 -3.12425 0
M  V30 32158 H 2984.06 0.0890392 -3.72494 0
M  V30 32159 H 2984.17 -1.62526 -4.50691 0
M  V30 32160 H 2982.53 -0.772377 -2.42706 0
M  V30 32161 H 2983.32 -2.44371 -2.41117 0
M  V30 32162 N 2985.76 1.38895 -0.744705 0
M  V30 32163 C 2986.69 2.33158 -0.126396 0
M  V30 32164 C 2987.67 1.54413 0.71349 0
M  V30 32165 O 2988.86 1.82767 0.65649 0
M  V30 32166 C 2985.99 3.38558 0.774316 0
M  V30 32167 C 2984.94 4.27983 0.0378461 0
M  V30 32168 C 2984.27 5.24164 1.05622 0
M  V30 32169 C 2985.57 5.10033 -1.12532 0
M  V30 32170 H 2987.26 2.85114 -0.913794 0
M  V30 32171 H 2984.81 1.37085 -0.440871 0
M  V30 32172 H 2986.76 4.0346 1.21648 0
M  V30 32173 H 2985.48 2.85063 1.59394 0
M  V30 32174 H 2984.14 3.64575 -0.384797 0
M  V30 32175 H 2983.79 4.66961 1.86967 0
M  V30 32176 H 2983.49 5.84847 0.568158 0
M  V30 32177 H 2985.02 5.91942 1.49788 0
M  V30 32178 H 2986.43 5.68225 -0.761137 0
M  V30 32179 H 2984.83 5.79906 -1.54365 0
M  V30 32180 H 2985.9 4.44294 -1.94245 0
M  V30 32181 N 2987.24 0.493084 1.49688 0
M  V30 32182 C 2988.17 -0.279033 2.31827 0
M  V30 32183 C 2989.15 -0.969962 1.39735 0
M  V30 32184 O 2990.34 -0.962895 1.68647 0
M  V30 32185 C 2987.47 -1.34857 3.20048 0
M  V30 32186 C 2986.42 -0.777976 4.2087 0
M  V30 32187 C 2985.75 -1.94744 4.97975 0
M  V30 32188 C 2987.05 0.225635 5.21812 0
M  V30 32189 H 2988.74 0.406564 2.96627 0
M  V30 32190 H 2986.29 0.196968 1.42647 0
M  V30 32191 H 2988.24 -1.89638 3.76318 0
M  V30 32192 H 2986.96 -2.06324 2.53176 0
M  V30 32193 H 2985.62 -0.251972 3.65733 0
M  V30 32194 H 2985.27 -2.64961 4.27557 0
M  V30 32195 H 2984.97 -1.57177 5.66188 0
M  V30 32196 H 2986.49 -2.49974 5.57086 0
M  V30 32197 H 2987.91 -0.233763 5.72823 0
M  V30 32198 H 2986.31 0.516727 5.97871 0
M  V30 32199 H 2987.38 1.1442 4.71207 0
M  V30 32200 N 2988.72 -1.55963 0.226582 0
M  V30 32201 C 2989.65 -2.17799 -0.713868 0
M  V30 32202 C 2990.66 -1.14848 -1.15385 0
M  V30 32203 O 2991.85 -1.41806 -1.08413 0
M  V30 32204 C 2988.95 -2.75087 -1.9794 0
M  V30 32205 C 2988.13 -4.03258 -1.69417 0
M  V30 32206 C 2987.18 -4.45061 -2.80726 0
M  V30 32207 O 2986.21 -5.11857 -2.48981 0
M  V30 32208 N 2987.41 -4.1116 -4.0979 0
M  V30 32209 H 2990.18 -2.99129 -0.184887 0
M  V30 32210 H 2987.74 -1.61835 0.045763 0
M  V30 32211 H 2989.73 -3.00021 -2.71606 0
M  V30 32212 H 2988.3 -1.98032 -2.41872 0
M  V30 32213 H 2987.52 -3.86127 -0.793699 0
M  V30 32214 H 2988.81 -4.86861 -1.47797 0
M  V30 32215 H 2988.21 -3.57494 -4.38423 0
M  V30 32216 H 2986.76 -4.40975 -4.79984 0
M  V30 32217 N 2990.2 0.0467589 -1.57531 0
M  V30 32218 C 2991.61 0.40208 -1.54452 0
M  V30 32219 C 2991.81 1.77683 -0.950306 0
M  V30 32220 O 2990.87 2.46129 -0.563645 0
M  V30 32221 C 2992.18 0.32016 -2.98991 0
M  V30 32222 C 2993.73 0.398534 -3.10452 0
M  V30 32223 C 2994.2 0.346255 -4.56689 0
M  V30 32224 N 2995.7 0.405584 -4.61421 0
M  V30 32225 C 2996.43 0.387745 -5.72087 0
M  V30 32226 N 2995.93 0.323238 -6.92046 0
M  V30 32227 N 2997.72 0.436165 -5.60405 0
M  V30 32228 H 2989.87 -0.853121 -1.94514 0
M  V30 32229 H 2992.13 -0.322685 -0.891391 0
M  V30 32230 H 2991.84 -0.623855 -3.46123 0
M  V30 32231 H 2991.71 1.12073 -3.60166 0
M  V30 32232 H 2994.1 1.33298 -2.63279 0
M  V30 32233 H 2994.18 -0.43107 -2.52142 0
M  V30 32234 H 2993.83 -0.584445 -5.04526 0
M  V30 32235 H 2993.76 1.19373 -5.12891 0
M  V30 32236 H 2996.25 0.458671 -3.75106 0
M  V30 32237 H 2996.56 0.31424 -7.72161 0
M  V30 32238 H 2994.9 0.289548 -6.94397 0
M  V30 32239 H 2998.1 0.484428 -4.65587 0
M  V30 32240 H 2998.27 0.418793 -6.46645 0
M  V30 32241 N 2991.67 1.54344 0.318688 0
M  V30 32242 C 2992.9 1.77071 1.07984 0
M  V30 32243 C 2993.32 0.520148 1.80765 0
M  V30 32244 O 2992.68 -0.528535 1.73425 0
M  V30 32245 C 2992.73 2.96673 2.04982 0
M  V30 32246 O 2991.83 2.68559 3.12969 0
M  V30 32247 H 2991.18 0.586612 0.311099 0
M  V30 32248 H 2993.71 2.01381 0.361497 0
M  V30 32249 H 2993.72 3.24155 2.47765 0
M  V30 32250 H 2992.39 3.8736 1.5141 0
M  V30 32251 H 2990.97 2.52041 2.74826 0
M  V30 32252 N 2993.15 -0.580999 1.465 0
M  V30 32253 C 2994.1 -1.68488 1.53609 0
M  V30 32254 C 2995.09 -1.55928 0.396881 0
M  V30 32255 O 2996.28 -1.64814 0.645395 0
M  V30 32256 C 2993.41 -3.07273 1.53095 0
M  V30 32257 C 2992.49 -3.25124 2.72315 0
M  V30 32258 N 2992.88 -3.13127 3.97222 0
M  V30 32259 C 2991.18 -3.56067 2.68575 0
M  V30 32260 C 2991.88 -3.33028 4.76935 0
M  V30 32261 N 2990.86 -3.58262 4.08839 0
M  V30 32262 H 2994.66 -1.57746 2.47979 0
M  V30 32263 H 2992.18 -0.785079 1.42163 0
M  V30 32264 H 2994.17 -3.86502 1.56275 0
M  V30 32265 H 2992.83 -3.19145 0.598025 0
M  V30 32266 H 2993.84 -2.90957 4.28444 0
M  V30 32267 H 2990.52 -3.74613 1.84313 0
M  V30 32268 H 2991.91 -3.28921 5.85884 0
M  V30 32269 N 2994.63 -1.34234 -0.825776 0
M  V30 32270 C 2995.86 -1.29651 -1.61881 0
M  V30 32271 C 2996.28 0.127262 -1.87669 0
M  V30 32272 O 2995.64 1.0881 -1.45017 0
M  V30 32273 C 2995.69 -2.0902 -2.93842 0
M  V30 32274 O 2994.79 -1.45776 -3.85776 0
M  V30 32275 H 2994.13 -0.445413 -0.492446 0
M  V30 32276 H 2996.66 -1.76993 -1.02638 0
M  V30 32277 H 2996.67 -2.2027 -3.43431 0
M  V30 32278 H 2995.35 -3.12538 -2.74396 0
M  V30 32279 H 2993.92 -1.43251 -3.44287 0
M  V30 32280 N 2996.11 1.04563 -1.17917 0
M  V30 32281 C 2997.52 1.59132 -0.976411 0
M  V30 32282 C 2997.87 1.90357 0.475233 0
M  V30 32283 O 2997 1.68992 1.35169 0
M  V30 32284 C 2997.59 2.89127 -1.76609 0
M  V30 32285 C 2996.15 3.40332 -1.60783 0
M  V30 32286 C 2995.3 2.13982 -1.76372 0
M  V30 32287 H 2998.25 0.872962 -1.32533 0
M  V30 32288 H 2998.27 3.59305 -1.25222 0
M  V30 32289 H 2997.78 2.6637 -2.82257 0
M  V30 32290 H 2995.88 3.68113 -0.576501 0
M  V30 32291 H 2995.99 4.14493 -2.40275 0
M  V30 32292 H 2994.36 2.25047 -1.19272 0
M  V30 32293 H 2995.14 1.93685 -2.83445 0
M  V30 32294 N 2997.59 0.980408 1.23393 0
M  V30 32295 C 2998.55 0.525658 2.23091 0
M  V30 32296 C 2999.55 -0.384718 1.5613 0
M  V30 32297 O 3000.74 -0.178408 1.73284 0
M  V30 32298 C 2997.87 -0.23706 3.40075 0
M  V30 32299 H 2999.06 1.40718 2.64837 0
M  V30 32300 H 2996.62 0.766298 1.36226 0
M  V30 32301 H 2997.35 -1.13512 3.03785 0
M  V30 32302 H 2997.14 0.416424 3.89882 0
M  V30 32303 H 2998.63 -0.543819 4.14044 0
M  V30 32304 N 2999.06 -1.38498 0.75206 0
M  V30 32305 C 3000.29 -2.04963 0.317029 0
M  V30 32306 C 3000.71 -1.56348 -1.0458 0
M  V30 32307 O 3000.07 -0.714784 -1.66615 0
M  V30 32308 C 3000.12 -3.58924 0.347298 0
M  V30 32309 O 2999.22 -4.07097 -0.659224 0
M  V30 32310 H 2998.57 -0.64893 0.140664 0
M  V30 32311 H 3001.1 -1.77203 1.02276 0
M  V30 32312 H 3001.11 -4.07521 0.197642 0
M  V30 32313 H 2999.78 -3.93666 1.34164 0
M  V30 32314 H 2998.36 -3.69871 -0.474306 0
M  V30 32315 N 3000.54 -0.501015 -1.49424 0
M  V30 32316 C 3001.79 0.0434999 -2.02453 0
M  V30 32317 C 3002.12 1.36993 -1.3807 0
M  V30 32318 O 3001.37 1.89056 -0.50559 0
M  V30 32319 C 3001.67 0.244567 -3.56562 0
M  V30 32320 C 3001.34 -1.00386 -4.39583 0
M  V30 32321 C 3000 -1.34608 -4.61989 0
M  V30 32322 C 3002.35 -1.8337 -4.87878 0
M  V30 32323 C 2999.68 -2.51764 -5.29936 0
M  V30 32324 C 3002.03 -2.99679 -5.57113 0
M  V30 32325 C 3000.7 -3.34281 -5.77765 0
M  V30 32326 H 2999.97 0.0159177 -0.740829 0
M  V30 32327 H 3002.61 -0.661175 -1.79724 0
M  V30 32328 H 3000.92 1.03177 -3.77971 0
M  V30 32329 H 3002.61 0.68033 -3.95187 0
M  V30 32330 H 2999.2 -0.727299 -4.22384 0
M  V30 32331 H 3003.39 -1.58246 -4.70396 0
M  V30 32332 H 2998.64 -2.7881 -5.44128 0
M  V30 32333 H 3002.82 -3.64306 -5.9351 0
M  V30 32334 H 3000.45 -4.25165 -6.3019 0
M  V30 32335 N 3002.02 1.5584 -0.234849 0
M  V30 32336 C 3003.43 1.84729 0.270556 0
M  V30 32337 C 3003.78 1.15649 1.58492 0
M  V30 32338 O 3002.91 0.430704 2.12071 0
M  V30 32339 C 3003.5 3.35125 0.497674 0
M  V30 32340 C 3002.06 3.64283 0.947364 0
M  V30 32341 C 3001.21 2.77294 0.0178213 0
M  V30 32342 H 3004.16 1.51956 -0.457718 0
M  V30 32343 H 3004.18 3.56052 1.34192 0
M  V30 32344 H 3003.69 3.85375 -0.459105 0
M  V30 32345 H 3001.79 3.195 1.91703 0
M  V30 32346 H 3001.91 4.72159 0.812568 0
M  V30 32347 H 3000.27 2.49188 0.527028 0
M  V30 32348 H 3001.05 3.30347 -0.934114 0
M  V30 32349 N 3003.5 -0.038404 1.57553 0
M  V30 32350 C 3004.92 -0.393883 1.54663 0
M  V30 32351 C 3005.12 -1.77177 0.959716 0
M  V30 32352 O 3004.17 -2.45826 0.57669 0
M  V30 32353 C 3005.48 -0.304299 2.99156 0
M  V30 32354 C 3007.03 -0.382064 3.10659 0
M  V30 32355 C 3007.51 -0.322031 4.56866 0
M  V30 32356 N 3009 -0.381108 4.6163 0
M  V30 32357 C 3009.73 -0.3574 5.72285 0
M  V30 32358 N 3009.23 -0.286533 6.92207 0
M  V30 32359 N 3011.02 -0.406439 5.60629 0
M  V30 32360 H 3003.17 0.863425 1.94059 0
M  V30 32361 H 3005.44 0.327408 0.889667 0
M  V30 32362 H 3005.14 0.642202 3.45787 0
M  V30 32363 H 3005.02 -1.10162 3.60755 0
M  V30 32364 H 3007.4 -1.319 2.63982 0
M  V30 32365 H 3007.48 0.444436 2.5191 0
M  V30 32366 H 3007.13 0.611193 5.04209 0
M  V30 32367 H 3007.06 -1.16651 5.13517 0
M  V30 32368 H 3009.55 -0.438772 3.75344 0
M  V30 32369 H 3009.86 -0.273286 7.72317 0
M  V30 32370 H 3008.21 -0.252719 6.9454 0
M  V30 32371 H 3011.4 -0.45973 4.65837 0
M  V30 32372 H 3011.57 -0.384494 6.46858 0
M  V30 32373 N 3004.98 -1.54511 -0.310498 0
M  V30 32374 C 3006.39 -1.64439 -0.884113 0
M  V30 32375 C 3006.74 -0.546889 -1.88424 0
M  V30 32376 O 3005.86 0.318072 -2.1405 0
M  V30 32377 C 3006.46 -2.98083 -1.61034 0
M  V30 32378 C 3005.02 -3.10164 -2.1325 0
M  V30 32379 C 3004.17 -2.60075 -0.962084 0
M  V30 32380 H 3007.12 -1.58457 -0.0877387 0
M  V30 32381 H 3007.14 -2.88974 -2.47536 0
M  V30 32382 H 3006.65 -3.77941 -0.882189 0
M  V30 32383 H 3004.75 -2.35007 -2.89141 0
M  V30 32384 H 3004.86 -4.16173 -2.37354 0
M  V30 32385 H 3003.23 -2.16293 -1.34497 0
M  V30 32386 H 3004.01 -3.42403 -0.248038 0
M  V30 32387 N 3006.46 0.573222 -1.46806 0
M  V30 32388 C 3007.7 1.33107 -1.52606 0
M  V30 32389 C 3008.03 1.9365 -0.181667 0
M  V30 32390 O 3007.29 1.77519 0.823744 0
M  V30 32391 C 3007.58 2.47321 -2.58006 0
M  V30 32392 C 3007.25 2.04712 -4.01751 0
M  V30 32393 C 3005.91 1.92807 -4.40884 0
M  V30 32394 C 3008.26 1.71973 -4.92011 0
M  V30 32395 C 3005.59 1.46435 -5.68132 0
M  V30 32396 C 3007.94 1.27078 -6.19705 0
M  V30 32397 C 3006.61 1.13757 -6.57735 0
M  V30 32398 H 3005.88 0.487075 -0.558426 0
M  V30 32399 H 3008.53 0.644506 -1.80329 0
M  V30 32400 H 3006.83 3.21466 -2.2398 0
M  V30 32401 H 3008.53 3.05526 -2.59721 0
M  V30 32402 H 3005.12 2.14915 -3.70822 0
M  V30 32403 H 3009.3 1.80052 -4.62488 0
M  V30 32404 H 3004.56 1.34772 -5.96361 0
M  V30 32405 H 3008.73 1.00802 -6.89066 0
M  V30 32406 H 3006.36 0.77601 -7.56229 0
M  V30 32407 N 3007.93 1.3467 0.818645 0
M  V30 32408 C 3008.9 1.26487 1.91138 0
M  V30 32409 C 3009.9 0.179072 1.598 0
M  V30 32410 O 3011.09 0.431982 1.68759 0
M  V30 32411 C 3008.22 0.953868 3.27283 0
M  V30 32412 H 3009.41 2.23637 1.99816 0
M  V30 32413 H 3006.96 1.19019 1.01312 0
M  V30 32414 H 3007.7 -0.0142857 3.24297 0
M  V30 32415 H 3007.48 1.7393 3.51413 0
M  V30 32416 H 3008.97 0.921899 4.07297 0
M  V30 32417 N 3009.41 -1.03936 1.1847 0
M  V30 32418 C 3010.64 -1.80808 1.00579 0
M  V30 32419 C 3011.05 -1.83462 -0.445754 0
M  V30 32420 O 3010.41 -1.27103 -1.30962 0
M  V30 32421 C 3010.46 -3.26348 1.55497 0
M  V30 32422 O 3010.18 -3.23921 2.94969 0
M  V30 32423 C 3011.68 -4.19859 1.42243 0
M  V30 32424 H 3008.9 -0.569344 0.35509 0
M  V30 32425 H 3011.45 -1.30982 1.57048 0
M  V30 32426 H 3009.6 -3.73401 1.03202 0
M  V30 32427 H 3010.02 -4.15105 3.20606 0
M  V30 32428 H 3011.49 -5.19911 1.85464 0
M  V30 32429 H 3011.97 -4.37627 0.371344 0
M  V30 32430 H 3012.57 -3.78672 1.93617 0
M  V30 32431 N 3010.89 -0.986938 -1.22871 0
M  V30 32432 C 3012.3 -0.695468 -1.73263 0
M  V30 32433 C 3012.65 0.787992 -1.79681 0
M  V30 32434 O 3011.78 1.61615 -1.43908 0
M  V30 32435 C 3012.37 -1.25576 -3.14668 0
M  V30 32436 C 3010.93 -1.0138 -3.6249 0
M  V30 32437 C 3010.08 -1.37955 -2.40549 0
M  V30 32438 H 3013.03 -1.16001 -1.08302 0
M  V30 32439 H 3013.05 -0.631388 -3.75225 0
M  V30 32440 H 3012.56 -2.33544 -3.09965 0
M  V30 32441 H 3010.66 0.0495263 -3.72567 0
M  V30 32442 H 3010.78 -1.67297 -4.48941 0
M  V30 32443 H 3009.14 -0.798076 -2.41874 0
M  V30 32444 H 3009.92 -2.46915 -2.38512 0
M  V30 32445 N 3012.37 1.38098 -0.759394 0
M  V30 32446 C 3013.78 1.82685 -0.385111 0
M  V30 32447 C 3014.13 1.63332 1.08707 0
M  V30 32448 O 3013.25 1.13766 1.84082 0
M  V30 32449 C 3013.85 3.31653 -0.692219 0
M  V30 32450 C 3012.41 3.74566 -0.371143 0
M  V30 32451 C 3011.56 2.60794 -0.942421 0
M  V30 32452 H 3014.51 1.26744 -0.95507 0
M  V30 32453 H 3014.53 3.8049 0.0275333 0
M  V30 32454 H 3014.04 3.45707 -1.76375 0
M  V30 32455 H 3012.14 3.66088 0.693573 0
M  V30 32456 H 3012.25 4.71121 -0.870755 0
M  V30 32457 H 3010.62 2.52036 -0.367427 0
M  V30 32458 H 3011.4 2.77646 -2.0191 0
M  V30 32459 N 3013.85 0.508932 1.49156 0
M  V30 32460 C 3014.81 -0.254299 2.27785 0
M  V30 32461 C 3015.81 -0.886837 1.34134 0
M  V30 32462 O 3017 -0.75014 1.57221 0
M  V30 32463 C 3014.13 -1.36567 3.1235 0
M  V30 32464 H 3015.32 0.435767 2.96717 0
M  V30 32465 H 3012.88 0.264155 1.54052 0
M  V30 32466 H 3013.61 -2.08964 2.48001 0
M  V30 32467 H 3013.4 -0.917476 3.81215 0
M  V30 32468 H 3014.89 -1.90308 3.71716 0
M  V30 32469 N 3015.32 -1.55714 0.243111 0
M  V30 32470 C 3016.55 -2.0325 -0.386936 0
M  V30 32471 C 3016.97 -1.12246 -1.5181 0
M  V30 32472 O 3016.32 -0.136151 -1.81991 0
M  V30 32473 C 3016.37 -3.50161 -0.8983 0
M  V30 32474 O 3016.1 -4.37697 0.187784 0
M  V30 32475 C 3017.6 -4.13441 -1.59942 0
M  V30 32476 H 3014.82 -0.664609 -0.0923864 0
M  V30 32477 H 3017.36 -2.01201 0.365867 0
M  V30 32478 H 3015.52 -3.52757 -1.60129 0
M  V30 32479 H 3015.93 -5.24119 -0.199909 0
M  V30 32480 H 3017.4 -5.1794 -1.90898 0
M  V30 32481 H 3017.88 -3.59707 -2.52008 0
M  V30 32482 H 3018.49 -4.14757 -0.94109 0
M  V30 32483 N 3016.8 0.030048 -1.57571 0
M  V30 32484 C 3018.21 0.576771 -1.77568 0
M  V30 32485 C 3018.56 1.75655 -0.874065 0
M  V30 32486 O 3017.69 2.16291 -0.0686504 0
M  V30 32487 C 3018.28 1.0531 -3.22018 0
M  V30 32488 C 3016.84 1.54534 -3.43214 0
M  V30 32489 C 3015.99 0.482985 -2.73061 0
M  V30 32490 H 3018.94 -0.196178 -1.57483 0
M  V30 32491 H 3018.96 1.92049 -3.28477 0
M  V30 32492 H 3018.47 0.194229 -3.87614 0
M  V30 32493 H 3016.58 2.4261 -2.82792 0
M  V30 32494 H 3016.69 1.59352 -4.51823 0
M  V30 32495 H 3015.05 0.937793 -2.36807 0
M  V30 32496 H 3015.84 -0.366401 -3.41339 0
M  V30 32497 N 3018.28 1.54674 0.3023 0
M  V30 32498 C 3019.53 1.73549 1.03562 0
M  V30 32499 C 3019.85 0.523481 1.87842 0
M  V30 32500 O 3019.12 -0.462261 1.90368 0
M  V30 32501 H 3017.7 0.639935 0.385347 0
M  V30 32502 H 3020.36 1.92024 0.333598 0
M  V30 32503 H 3019.46 2.62418 1.68947 0
M  V30 32504 N 3019.76 -0.565428 1.47108 0
M  V30 32505 C 3020.98 -1.3534 1.57155 0
M  V30 32506 C 3021.41 -1.86817 0.21928 0
M  V30 32507 O 3020.77 -1.62522 -0.80351 0
M  V30 32508 C 3020.81 -2.50496 2.59392 0
M  V30 32509 O 3019.92 -3.52474 2.14092 0
M  V30 32510 H 3019.26 -0.402348 0.528216 0
M  V30 32511 H 3021.79 -0.684155 1.92822 0
M  V30 32512 H 3021.8 -2.97179 2.79551 0
M  V30 32513 H 3020.47 -2.12384 3.57583 0
M  V30 32514 H 3019.05 -3.12153 2.03997 0
M  V30 32515 N 3021.24 -1.35102 -0.811492 0
M  V30 32516 C 3022.65 -1.15033 -1.10632 0
M  V30 32517 C 3022.85 0.0405025 -2.01459 0
M  V30 32518 O 3021.91 0.712592 -2.42236 0
M  V30 32519 C 3023.22 -2.451 -1.74203 0
M  V30 32520 C 3024.77 -2.51262 -1.86645 0
M  V30 32521 C 3025.24 -3.81359 -2.53632 0
M  V30 32522 N 3026.74 -3.82583 -2.61121 0
M  V30 32523 C 3027.47 -4.79974 -3.13708 0
M  V30 32524 N 3026.97 -5.87751 -3.66771 0
M  V30 32525 N 3028.76 -4.67416 -3.12216 0
M  V30 32526 H 3020.91 -2.11383 -0.207604 0
M  V30 32527 H 3023.17 -0.935296 -0.154681 0
M  V30 32528 H 3022.88 -3.32391 -1.1493 0
M  V30 32529 H 3022.75 -2.59286 -2.73954 0
M  V30 32530 H 3025.14 -1.64402 -2.45063 0
M  V30 32531 H 3025.22 -2.40994 -0.857636 0
M  V30 32532 H 3024.87 -4.68614 -1.95865 0
M  V30 32533 H 3024.8 -3.88914 -3.5504 0
M  V30 32534 H 3027.29 -3.04707 -2.23522 0
M  V30 32535 H 3027.6 -6.58063 -4.05183 0
M  V30 32536 H 3025.94 -5.91449 -3.64983 0
M  V30 32537 H 3029.14 -3.82359 -2.70035 0
M  V30 32538 H 3029.31 -5.4348 -3.52893 0
M  V30 32539 N 3022.71 1.03306 -1.19019 0
M  V30 32540 C 3023.96 1.76287 -0.988289 0
M  V30 32541 C 3024.28 1.88936 0.482524 0
M  V30 32542 O 3023.55 1.41989 1.34966 0
M  V30 32543 H 3022.13 0.653048 -0.362681 0
M  V30 32544 H 3024.8 1.24638 -1.49838 0
M  V30 32545 H 3023.89 2.77269 -1.43278 0
M  V30 32546 N 3024.19 0.99344 1.22346 0
M  V30 32547 C 3025.44 0.680251 1.91688 0
M  V30 32548 C 3025.79 -0.779238 1.75914 0
M  V30 32549 O 3025.09 -1.55626 1.11764 0
M  V30 32550 C 3025.28 1.02203 3.42475 0
M  V30 32551 C 3025.11 2.51319 3.72919 0
M  V30 32552 C 3023.88 3.17733 3.92904 0
M  V30 32553 C 3026.08 3.4944 3.77354 0
M  V30 32554 N 3024.06 4.5632 4.10664 0
M  V30 32555 C 3025.43 4.73488 4.00261 0
M  V30 32556 C 3027.49 3.43739 3.60205 0
M  V30 32557 C 3026.19 5.9253 4.07799 0
M  V30 32558 C 3028.21 4.62159 3.69003 0
M  V30 32559 C 3027.58 5.85007 3.9236 0
M  V30 32560 H 3023.68 0.300206 0.722081 0
M  V30 32561 H 3026.26 1.27356 1.4727 0
M  V30 32562 H 3024.43 0.457291 3.85699 0
M  V30 32563 H 3026.16 0.664772 3.99203 0
M  V30 32564 H 3022.92 2.682 3.9034 0
M  V30 32565 H 3023.34 5.28206 4.23471 0
M  V30 32566 H 3027.98 2.49777 3.41132 0
M  V30 32567 H 3025.7 6.86896 4.25676 0
M  V30 32568 H 3029.29 4.59337 3.57072 0
M  V30 32569 H 3028.17 6.75108 3.98998 0
M  V30 32570 N 3025.67 -1.37693 0.766707 0
M  V30 32571 C 3027.08 -1.82478 0.394793 0
M  V30 32572 C 3027.43 -1.63906 -1.07839 0
M  V30 32573 O 3026.56 -1.1474 -1.83477 0
M  V30 32574 C 3027.15 -3.31281 0.709798 0
M  V30 32575 C 3025.71 -3.74364 0.391002 0
M  V30 32576 C 3024.86 -2.60291 0.956238 0
M  V30 32577 H 3027.81 -1.26236 0.961778 0
M  V30 32578 H 3027.83 -3.80499 -0.00735456 0
M  V30 32579 H 3027.34 -3.44767 1.78206 0
M  V30 32580 H 3025.44 -3.66451 -0.674148 0
M  V30 32581 H 3025.56 -4.70652 0.895728 0
M  V30 32582 H 3023.92 -2.51837 0.380788 0
M  V30 32583 H 3024.7 -2.76571 2.0338 0
M  V30 32584 N 3027.15 -0.516835 -1.48884 0
M  V30 32585 C 3028.56 -0.0730249 -1.86557 0
M  V30 32586 C 3028.91 1.34579 -1.42769 0
M  V30 32587 O 3028.04 2.00566 -0.812549 0
M  V30 32588 C 3028.63 -0.125745 -3.38567 0
M  V30 32589 C 3027.19 0.262801 -3.75481 0
M  V30 32590 C 3026.34 -0.491329 -2.72913 0
M  V30 32591 H 3029.29 -0.728791 -1.40976 0
M  V30 32592 H 3029.31 0.665766 -3.7463 0
M  V30 32593 H 3028.82 -1.15849 -3.70406 0
M  V30 32594 H 3026.92 1.29818 -3.49253 0
M  V30 32595 H 3027.03 -0.0676632 -4.79052 0
M  V30 32596 H 3025.4 0.0608078 -2.54627 0
M  V30 32597 H 3026.18 -1.52445 -3.07596 0
M  V30 32598 N 3028.63 1.55583 -0.251365 0
M  V30 32599 C 3029.56 2.18907 0.679128 0
M  V30 32600 C 3030.57 1.16669 1.13543 0
M  V30 32601 O 3031.76 1.43512 1.06144 0
M  V30 32602 C 3028.86 2.78201 1.93539 0
M  V30 32603 C 3028.03 4.05902 1.6298 0
M  V30 32604 C 3027.09 4.49471 2.7361 0
M  V30 32605 O 3026.12 5.15753 2.40806 0
M  V30 32606 N 3027.32 4.17627 4.03197 0
M  V30 32607 H 3030.09 2.99385 0.137275 0
M  V30 32608 H 3027.65 1.61742 -0.0715038 0
M  V30 32609 H 3029.64 3.04304 2.66798 0
M  V30 32610 H 3028.21 2.01855 2.38691 0
M  V30 32611 H 3027.43 3.87341 0.732169 0
M  V30 32612 H 3028.72 4.89151 1.40033 0
M  V30 32613 H 3028.11 3.64424 4.3268 0
M  V30 32614 H 3026.67 4.48555 4.72908 0
M  V30 32615 N 3030.1 -0.0216912 1.57585 0
M  V30 32616 C 3031.52 -0.567346 1.77871 0
M  V30 32617 C 3031.87 -1.75189 0.883368 0
M  V30 32618 O 3030.99 -2.16252 0.0801199 0
M  V30 32619 C 3031.59 -1.036 3.22572 0
M  V30 32620 C 3030.15 -1.52712 3.44029 0
M  V30 32621 C 3029.29 -0.468497 2.73314 0
M  V30 32622 H 3032.24 0.204527 1.57377 0
M  V30 32623 H 3032.26 -1.90304 3.29491 0
M  V30 32624 H 3031.78 -0.173671 3.87711 0
M  V30 32625 H 3029.88 -2.41106 2.84075 0
M  V30 32626 H 3029.99 -1.56954 4.52661 0
M  V30 32627 H 3028.35 -0.925222 2.37301 0
M  V30 32628 H 3029.14 0.384498 3.4114 0
M  V30 32629 N 3031.58 -1.54832 -0.294093 0
M  V30 32630 C 3032.83 -1.74699 -1.02996 0
M  V30 32631 C 3033.16 -0.534982 -1.86686 0
M  V30 32632 O 3032.44 0.46783 -1.8879 0
M  V30 32633 C 3032.72 -3.04 -1.93018 0
M  V30 32634 C 3032.57 -4.35514 -1.12462 0
M  V30 32635 C 3033.89 -3.29208 -2.92079 0
M  V30 32636 H 3031.01 -0.635625 -0.373028 0
M  V30 32637 H 3033.65 -1.87552 -0.304032 0
M  V30 32638 H 3031.8 -2.93173 -2.54915 0
M  V30 32639 H 3033.48 -4.58268 -0.527986 0
M  V30 32640 H 3031.72 -4.31688 -0.427498 0
M  V30 32641 H 3032.39 -5.22268 -1.78719 0
M  V30 32642 H 3034.87 -3.39689 -2.40313 0
M  V30 32643 H 3033.74 -4.20984 -3.52227 0
M  V30 32644 H 3034 -2.47833 -3.66102 0
M  V30 32645 N 3033.06 0.557619 -1.47405 0
M  V30 32646 C 3034.47 1.13974 -1.47874 0
M  V30 32647 C 3034.82 1.94809 -0.23321 0
M  V30 32648 O 3033.95 2.06028 0.661908 0
M  V30 32649 C 3034.54 2.07363 -2.67929 0
M  V30 32650 C 3033.1 2.60848 -2.71359 0
M  V30 32651 C 3032.25 1.37219 -2.40969 0
M  V30 32652 H 3035.2 0.344241 -1.54921 0
M  V30 32653 H 3035.22 2.91232 -2.44876 0
M  V30 32654 H 3034.73 1.48502 -3.58565 0
M  V30 32655 H 3032.83 3.23508 -1.84861 0
M  V30 32656 H 3032.95 3.01869 -3.72037 0
M  V30 32657 H 3031.31 1.67878 -1.91543 0
M  V30 32658 H 3032.09 0.801524 -3.33812 0
M  V30 32659 N 3034.54 1.35531 0.804316 0
M  V30 32660 C 3035.77 1.32051 1.5928 0
M  V30 32661 C 3036.18 -0.101523 1.88527 0
M  V30 32662 O 3035.54 -1.05414 1.48977 0
M  V30 32663 C 3035.59 2.12742 2.92272 0
M  V30 32664 O 3035.31 3.49401 2.64293 0
M  V30 32665 C 3036.81 2.16874 3.86627 0
M  V30 32666 H 3034.03 0.453537 0.494515 0
M  V30 32667 H 3036.58 1.78417 0.999384 0
M  V30 32668 H 3034.73 1.6997 3.48122 0
M  V30 32669 H 3035.15 3.91335 3.49224 0
M  V30 32670 H 3036.62 2.7772 4.77049 0
M  V30 32671 H 3037.1 1.1681 4.23382 0
M  V30 32672 H 3037.7 2.59817 3.36712 0
M  V30 32673 N 3036.02 -1.02674 1.19565 0
M  V30 32674 C 3036.95 -2.12895 0.959061 0
M  V30 32675 C 3037.93 -1.69755 -0.108352 0
M  V30 32676 O 3039.11 -1.94143 0.0471039 0
M  V30 32677 C 3036.24 -3.43693 0.499271 0
M  V30 32678 C 3035.2 -4.00525 1.50877 0
M  V30 32679 C 3034.52 -5.26969 0.905976 0
M  V30 32680 C 3035.82 -4.35085 2.88961 0
M  V30 32681 H 3037.52 -2.32945 1.88088 0
M  V30 32682 H 3035.06 -1.11947 0.905751 0
M  V30 32683 H 3037.02 -4.20175 0.321039 0
M  V30 32684 H 3035.74 -3.23371 -0.458148 0
M  V30 32685 H 3034.4 -3.26139 1.67418 0
M  V30 32686 H 3034.05 -5.02965 -0.0590622 0
M  V30 32687 H 3033.75 -5.65956 1.5801 0
M  V30 32688 H 3035.27 -6.06117 0.738587 0
M  V30 32689 H 3036.69 -5.02496 2.7599 0
M  V30 32690 H 3035.08 -4.8516 3.53186 0
M  V30 32691 H 3036.15 -3.44293 3.41453 0
M  V30 32692 N 3037.5 -0.999914 -1.21817 0
M  V30 32693 C 3038.91 -0.711849 -1.42846 0
M  V30 32694 C 3039.11 0.714895 -1.88392 0
M  V30 32695 O 3038.17 1.48491 -2.04222 0
M  V30 32696 C 3039.48 -1.72339 -2.46414 0
M  V30 32697 C 3041.03 -1.73963 -2.60204 0
M  V30 32698 C 3041.5 -2.73998 -3.67 0
M  V30 32699 N 3042.99 -2.72635 -3.74465 0
M  V30 32700 C 3043.73 -3.46701 -4.56712 0
M  V30 32701 N 3043.23 -4.3039 -5.42897 0
M  V30 32702 N 3045.02 -3.35374 -4.51088 0
M  V30 32703 H 3037.17 -1.92126 -0.905622 0
M  V30 32704 H 3039.43 -0.828985 -0.459879 0
M  V30 32705 H 3039.14 -2.74469 -2.19909 0
M  V30 32706 H 3039.01 -1.52192 -3.45134 0
M  V30 32707 H 3041.4 -0.725268 -2.86049 0
M  V30 32708 H 3041.48 -1.9818 -1.61735 0
M  V30 32709 H 3041.12 -3.75588 -3.41901 0
M  V30 32710 H 3041.05 -2.47048 -4.65054 0
M  V30 32711 H 3043.55 -2.11915 -3.12891 0
M  V30 32712 H 3043.86 -4.83713 -6.02695 0
M  V30 32713 H 3042.2 -4.34474 -5.42455 0
M  V30 32714 H 3045.39 -2.69429 -3.82786 0
M  V30 32715 H 3045.57 -3.93353 -5.14953 0
M  V30 32716 N 3038.97 1.37284 -0.773999 0
M  V30 32717 C 3039.9 2.32837 -0.175823 0
M  V30 32718 C 3040.88 1.55892 0.680576 0
M  V30 32719 O 3042.07 1.84119 0.617575 0
M  V30 32720 C 3039.2 3.40124 0.702328 0
M  V30 32721 C 3038.15 4.27967 -0.052944 0
M  V30 32722 C 3037.48 5.26287 0.944799 0
M  V30 32723 C 3038.78 5.07531 -1.23325 0
M  V30 32724 H 3040.47 2.83112 -0.974066 0
M  V30 32725 H 3038.02 1.36119 -0.46985 0
M  V30 32726 H 3039.97 4.05949 1.13062 0
M  V30 32727 H 3038.7 2.8838 1.53311 0
M  V30 32728 H 3037.36 3.63677 -0.462042 0
M  V30 32729 H 3037 4.70822 1.7702 0
M  V30 32730 H 3036.7 5.8592 0.443976 0
M  V30 32731 H 3038.23 5.94986 1.37199 0
M  V30 32732 H 3039.64 5.66483 -0.881495 0
M  V30 32733 H 3038.04 5.76502 -1.66631 0
M  V30 32734 H 3039.11 4.40074 -2.03625 0
M  V30 32735 N 3040.45 0.524724 1.48608 0
M  V30 32736 C 3041.36 -0.244882 2.33318 0
M  V30 32737 C 3042.38 -0.944188 1.46154 0
M  V30 32738 O 3043.55 -0.920315 1.79143 0
M  V30 32739 C 3040.62 -1.28139 3.22151 0
M  V30 32740 C 3039.68 -0.592993 4.25185 0
M  V30 32741 C 3038.91 -1.58011 5.09773 0
M  V30 32742 O 3039.14 -2.81226 4.96254 0
M  V30 32743 O 3038.07 -1.12239 5.91342 0
M  V30 32744 H 3041.9 0.449119 3.00361 0
M  V30 32745 H 3039.48 0.285715 1.46643 0
M  V30 32746 H 3041.36 -1.88051 3.77114 0
M  V30 32747 H 3040.04 -1.95789 2.57776 0
M  V30 32748 H 3038.94 0.0464872 3.74071 0
M  V30 32749 H 3040.28 0.0414759 4.92183 0
M  V30 32750 N 3041.93 -1.55447 0.259613 0
M  V30 32751 C 3043.18 -1.98852 -0.360858 0
M  V30 32752 C 3043.5 -1.14927 -1.57533 0
M  V30 32753 O 3042.77 -0.23506 -1.94485 0
M  V30 32754 H 3041.35 -0.734456 -0.136319 0
M  V30 32755 H 3044.01 -1.91521 0.361353 0
M  V30 32756 H 3043.11 -3.05013 -0.661335 0
M  V30 32757 N 3043.41 0.0133338 -1.57594 0
M  V30 32758 C 3044.65 0.701985 -1.90263 0
M  V30 32759 C 3044.99 1.74157 -0.85925 0
M  V30 32760 O 3044.26 1.94106 0.123743 0
M  V30 32761 C 3044.54 1.35726 -3.33542 0
M  V30 32762 C 3044.4 0.330129 -4.48587 0
M  V30 32763 C 3045.72 2.28705 -3.76008 0
M  V30 32764 H 3042.84 0.253727 -0.691948 0
M  V30 32765 H 3045.48 -0.0352228 -1.89967 0
M  V30 32766 H 3043.63 1.98561 -3.33925 0
M  V30 32767 H 3045.3 -0.297514 -4.6034 0
M  V30 32768 H 3043.54 -0.349002 -4.32394 0
M  V30 32769 H 3044.21 0.827412 -5.45764 0
M  V30 32770 H 3046.69 1.759 -3.77092 0
M  V30 32771 H 3045.57 2.71527 -4.77037 0
M  V30 32772 H 3045.83 3.16051 -3.09135 0
M  V30 32773 N 3044.89 1.54985 0.285878 0
M  V30 32774 C 3045.8 1.90059 1.37531 0
M  V30 32775 C 3046.81 0.796375 1.54706 0
M  V30 32776 O 3047.99 1.09426 1.6908 0
M  V30 32777 C 3045.05 2.15402 2.71667 0
M  V30 32778 C 3044.11 3.39037 2.63348 0
M  V30 32779 C 3043.35 3.63162 3.91087 0
M  V30 32780 O 3043.57 2.90024 4.91164 0
M  V30 32781 O 3042.5 4.56692 3.92067 0
M  V30 32782 H 3046.33 2.82772 1.10786 0
M  V30 32783 H 3043.91 1.41368 0.483278 0
M  V30 32784 H 3045.8 2.33186 3.51002 0
M  V30 32785 H 3044.47 1.25873 2.98224 0
M  V30 32786 H 3043.38 3.26602 1.82433 0
M  V30 32787 H 3044.71 4.28744 2.41742 0
M  V30 32788 N 3046.36 -0.549794 1.47699 0
M  V30 32789 C 3047.59 -1.33666 1.58582 0
M  V30 32790 C 3048.01 -1.86574 0.239082 0
M  V30 32791 O 3047.37 -1.63365 -0.786227 0
M  V30 32792 C 3047.42 -2.47731 2.62034 0
M  V30 32793 O 3046.52 -3.50184 2.17819 0
M  V30 32794 H 3045.87 -0.396723 0.532454 0
M  V30 32795 H 3048.4 -0.663666 1.93537 0
M  V30 32796 H 3048.41 -2.94197 2.82687 0
M  V30 32797 H 3047.08 -2.0858 3.59816 0
M  V30 32798 H 3045.66 -3.09972 2.07296 0
M  V30 32799 N 3047.84 -1.35955 -0.797117 0
M  V30 32800 C 3049.07 -1.33055 -1.59094 0
M  V30 32801 C 3049.49 0.0874262 -1.87897 0
M  V30 32802 O 3048.85 1.0571 -1.47293 0
M  V30 32803 C 3048.9 -2.15205 -2.89342 0
M  V30 32804 O 3048 -1.53926 -3.82597 0
M  V30 32805 H 3047.34 -0.455759 -0.482887 0
M  V30 32806 H 3049.87 -1.79131 -0.988601 0
M  V30 32807 H 3049.88 -2.27505 -3.38682 0
M  V30 32808 H 3048.56 -3.18288 -2.67705 0
M  V30 32809 H 3047.14 -1.50522 -3.41171 0
M  V30 32810 N 3049.32 1.02038 -1.20108 0
M  V30 32811 C 3050.23 2.13965 -0.962089 0
M  V30 32812 C 3051.25 1.73812 0.0807748 0
M  V30 32813 O 3052.42 2.01122 -0.105809 0
M  V30 32814 C 3049.49 3.42881 -0.513169 0
M  V30 32815 C 3048.55 3.97298 -1.62643 0
M  V30 32816 C 3047.78 5.20061 -1.19884 0
M  V30 32817 O 3048 5.70362 -0.0659426 0
M  V30 32818 O 3046.94 5.67532 -2.00477 0
M  V30 32819 H 3050.76 2.36994 -1.89914 0
M  V30 32820 H 3048.35 1.12363 -0.984628 0
M  V30 32821 H 3050.23 4.20522 -0.271871 0
M  V30 32822 H 3048.91 3.21277 0.395345 0
M  V30 32823 H 3047.81 3.20953 -1.92197 0
M  V30 32824 H 3049.15 4.23283 -2.51181 0
M  V30 32825 N 3050.8 1.00636 1.21285 0
M  V30 32826 C 3051.75 0.567916 2.23704 0
M  V30 32827 C 3052.72 -0.406724 1.61043 0
M  V30 32828 O 3053.9 -0.308466 1.8829 0
M  V30 32829 C 3051.04 -0.0979354 3.44961 0
M  V30 32830 C 3050.15 0.920046 4.22089 0
M  V30 32831 C 3049.29 0.226315 5.30718 0
M  V30 32832 C 3048.33 1.23175 5.99578 0
M  V30 32833 N 3047.46 0.565401 6.9982 0
M  V30 32834 H 3052.3 1.44596 2.60568 0
M  V30 32835 H 3049.84 0.724029 1.28048 0
M  V30 32836 H 3051.8 -0.501024 4.14181 0
M  V30 32837 H 3050.43 -0.93969 3.0882 0
M  V30 32838 H 3049.48 1.44137 3.52035 0
M  V30 32839 H 3050.79 1.68513 4.69473 0
M  V30 32840 H 3049.95 -0.23281 6.06253 0
M  V30 32841 H 3048.69 -0.571161 4.84344 0
M  V30 32842 H 3047.69 1.70137 5.22813 0
M  V30 32843 H 3048.92 2.03033 6.48039 0
M  V30 32844 H 3046.86 -0.212393 6.55656 0
M  V30 32845 H 3046.78 1.26872 7.45278 0
M  V30 32846 H 3048.05 0.129526 7.79392 0
M  V30 32847 N 3052.28 -1.36872 0.781268 0
M  V30 32848 C 3053.21 -2.32741 0.188169 0
M  V30 32849 C 3054.19 -1.5625 -0.672299 0
M  V30 32850 O 3055.37 -1.84444 -0.607802 0
M  V30 32851 C 3052.5 -3.40492 -0.684281 0
M  V30 32852 C 3051.46 -4.27933 0.0756394 0
M  V30 32853 C 3050.78 -5.2678 -0.916875 0
M  V30 32854 C 3052.08 -5.0687 1.26015 0
M  V30 32855 H 3053.78 -2.82591 0.989066 0
M  V30 32856 H 3051.32 -1.35868 0.477062 0
M  V30 32857 H 3053.28 -4.06543 -1.10908 0
M  V30 32858 H 3052 -2.89189 -1.5178 0
M  V30 32859 H 3050.66 -3.63427 0.481322 0
M  V30 32860 H 3050.31 -4.71754 -1.7452 0
M  V30 32861 H 3050.01 -5.86148 -0.412897 0
M  V30 32862 H 3051.53 -5.95706 -1.34041 0
M  V30 32863 H 3052.94 -5.66007 0.911524 0
M  V30 32864 H 3051.34 -5.7561 1.69686 0
M  V30 32865 H 3052.41 -4.38988 2.05956 0
M  V30 32866 N 3053.75 -0.532597 -1.48328 0
M  V30 32867 C 3054.7 0.242093 -2.31337 0
M  V30 32868 C 3055.7 0.932981 -1.41392 0
M  V30 32869 O 3056.9 0.857068 -1.58286 0
M  V30 32870 H 3053.28 0.0969405 -0.745726 0
M  V30 32871 H 3055.25 -0.477556 -2.94554 0
M  V30 32872 C 3054 1.2744 -3.23503 0
M  V30 32873 H 3053.32 0.752192 -3.9266 0
M  V30 32874 H 3054.76 1.78782 -3.84465 0
M  V30 32875 C 3053.22 2.3094 -2.45292 0
M  V30 32876 O 3053.75 3.37425 -2.17961 0
M  V30 32877 N 3051.96 2.04222 -2.06741 0
M  V30 32878 H 3051.5 1.17643 -2.29168 0
M  V30 32879 H 3051.46 2.73693 -1.54723 0
M  V30 32880 N 3055.23 1.55307 -0.267853 0
M  V30 32881 C 3056.46 2.04296 0.357451 0
M  V30 32882 C 3056.88 1.14521 1.4922 0
M  V30 32883 O 3056.24 0.142324 1.80741 0
M  V30 32884 C 3056.29 3.51087 0.822837 0
M  V30 32885 O 3055.39 3.64413 1.93071 0
M  V30 32886 H 3054.73 0.659749 0.0750134 0
M  V30 32887 H 3057.26 2.00651 -0.400031 0
M  V30 32888 H 3057.27 3.92311 1.12052 0
M  V30 32889 H 3055.95 4.15899 -0.0074293 0
M  V30 32890 H 3054.53 3.3509 1.63612 0
M  V30 32891 N 3056.71 -0.00497598 1.57599 0
M  V30 32892 C 3057.94 -0.705629 1.95027 0
M  V30 32893 C 3058.36 -1.66788 0.869673 0
M  V30 32894 O 3057.72 -1.80476 -0.172628 0
M  V30 32895 C 3057.77 -1.41804 3.31548 0
M  V30 32896 O 3056.87 -2.53226 3.255 0
M  V30 32897 H 3056.21 -0.188063 0.636811 0
M  V30 32898 H 3058.74 0.046732 2.04547 0
M  V30 32899 H 3058.75 -1.78258 3.66999 0
M  V30 32900 H 3057.43 -0.712471 4.09752 0
M  V30 32901 H 3056 -2.19136 3.01718 0
M  V30 32902 N 3058.19 -1.55135 -0.277654 0
M  V30 32903 C 3059.44 -1.75522 -1.00987 0
M  V30 32904 C 3059.76 -0.553745 -1.86451 0
M  V30 32905 O 3059.02 0.463862 -1.90123 0
M  V30 32906 C 3059.32 -3.01069 -1.92594 0
M  V30 32907 C 3058.98 -4.33822 -1.22918 0
M  V30 32908 C 3057.65 -4.69904 -1.0365 0
M  V30 32909 C 3060 -5.1602 -0.732981 0
M  V30 32910 C 3057.33 -5.85744 -0.33483 0
M  V30 32911 C 3059.68 -6.32584 -0.0449207 0
M  V30 32912 C 3058.34 -6.67309 0.15951 0
M  V30 32913 H 3057.61 -0.642279 -0.369538 0
M  V30 32914 H 3060.26 -1.89404 -0.282578 0
M  V30 32915 H 3058.56 -2.82067 -2.71929 0
M  V30 32916 H 3060.26 -3.14038 -2.49361 0
M  V30 32917 H 3056.85 -4.0546 -1.38926 0
M  V30 32918 H 3061.03 -4.88624 -0.869479 0
M  V30 32919 H 3056.29 -6.11175 -0.165675 0
M  V30 32920 H 3060.46 -6.95533 0.347352 0
M  V30 32921 H 3058.09 -7.56922 0.705203 0
M  V30 32922 N 3059.67 0.541953 -1.47989 0
M  V30 32923 C 3061.08 1.124 -1.49075 0
M  V30 32924 C 3061.43 1.94551 -0.253859 0
M  V30 32925 O 3060.55 2.06719 0.640019 0
M  V30 32926 C 3061.15 2.04509 -2.70114 0
M  V30 32927 C 3059.71 2.57955 -2.7411 0
M  V30 32928 C 3058.85 1.34656 -2.42411 0
M  V30 32929 H 3061.81 0.32779 -1.55278 0
M  V30 32930 H 3061.83 2.88618 -2.47951 0
M  V30 32931 H 3061.34 1.44691 -3.6012 0
M  V30 32932 H 3059.44 3.21529 -1.88282 0
M  V30 32933 H 3059.55 2.97907 -3.75218 0
M  V30 32934 H 3057.92 1.65837 -1.93313 0
M  V30 32935 H 3058.7 0.766074 -3.34643 0
M  V30 32936 N 3061.15 1.36376 0.789896 0
M  V30 32937 C 3062.37 1.33897 1.58386 0
M  V30 32938 C 3062.8 -0.0774603 1.8794 0
M  V30 32939 O 3062.15 -1.04927 1.47851 0
M  V30 32940 C 3062.2 2.16737 2.88197 0
M  V30 32941 O 3061.31 1.55953 3.81775 0
M  V30 32942 H 3060.65 0.458313 0.480463 0
M  V30 32943 H 3063.18 1.79653 0.979088 0
M  V30 32944 H 3063.19 2.29298 3.37471 0
M  V30 32945 H 3061.86 3.19703 2.66013 0
M  V30 32946 H 3060.44 1.52329 3.40368 0
M  V30 32947 N 3062.62 -1.014 1.20647 0
M  V30 32948 C 3063.87 -1.74448 1.01245 0
M  V30 32949 C 3064.19 -1.90218 -0.455699 0
M  V30 32950 O 3065.39 -2.60385 -0.768905 0
M  V30 32951 C 3063.85 -3.13773 1.7628 0
M  V30 32952 C 3063.46 -3.06007 3.27206 0
M  V30 32953 C 3065.2 -3.91013 1.65255 0
M  V30 32954 C 3063.11 -4.40355 3.94767 0
M  V30 32955 H 3062.04 -0.654012 0.375213 0
M  V30 32956 H 3064.69 -1.13365 1.44294 0
M  V30 32957 H 3063.07 -3.75413 1.2602 0
M  V30 32958 H 3064.24 -2.53658 3.847 0
M  V30 32959 H 3062.56 -2.42259 3.38673 0
M  V30 32960 H 3065.16 -4.90413 2.1307 0
M  V30 32961 H 3065.5 -4.11818 0.6092 0
M  V30 32962 H 3066.03 -3.36006 2.12943 0
M  V30 32963 H 3062.77 -4.24752 4.99265 0
M  V30 32964 H 3062.29 -4.927 3.42063 0
M  V30 32965 H 3063.97 -5.09189 3.99168 0
M  V30 32966 N 3064.1 -1.01278 -1.2075 0
M  V30 32967 C 3065.05 -0.550641 -2.21251 0
M  V30 32968 C 3066.04 0.391958 -1.56053 0
M  V30 32969 O 3067.23 0.215544 -1.75683 0
M  V30 32970 C 3064.36 0.113541 -3.43112 0
M  V30 32971 C 3063.44 -0.850538 -4.15484 0
M  V30 32972 N 3063.83 -2.00652 -4.64298 0
M  V30 32973 C 3062.13 -0.670554 -4.4093 0
M  V30 32974 C 3062.83 -2.61326 -5.19696 0
M  V30 32975 N 3061.81 -1.89419 -5.0953 0
M  V30 32976 H 3065.61 -1.43198 -2.56654 0
M  V30 32977 H 3063.12 -0.877621 -1.36644 0
M  V30 32978 H 3065.12 0.462138 -4.14331 0
M  V30 32979 H 3063.78 0.990771 -3.09215 0
M  V30 32980 H 3064.79 -2.38659 -4.59633 0
M  V30 32981 H 3061.47 0.158943 -4.17197 0
M  V30 32982 H 3062.86 -3.59133 -5.67867 0
M  V30 32983 N 3065.58 1.36456 -0.788516 0
M  V30 32984 C 3066.82 2.01098 -0.36589 0
M  V30 32985 C 3067.18 1.61227 1.04259 0
M  V30 32986 O 3068.38 2.18454 1.56625 0
M  V30 32987 C 3066.66 3.53547 -0.523406 0
M  V30 32988 S 3068.21 4.38395 -0.188525 0
M  V30 32989 H 3065.03 0.697112 -0.139844 0
M  V30 32990 H 3067.63 1.66364 -1.02681 0
M  V30 32991 H 3066.34 3.80053 -1.54881 0
M  V30 32992 H 3065.87 3.93101 0.153478 0
M  V30 32993 H 3067.88 4.85808 1.01021 0
M  V30 32994 N 3067.06 0.540456 1.48043 0
M  V30 32995 C 3068.31 0.0101722 2.02097 0
M  V30 32996 C 3068.63 -1.33769 1.41884 0
M  V30 32997 O 3067.9 -1.86869 0.587956 0
M  V30 32998 H 3066.48 0.000771847 0.747 0
M  V30 32999 H 3069.14 0.706666 1.81638 0
M  V30 33000 H 3068.23 -0.0903925 3.11969 0
M  V30 33001 N 3068.54 -1.55163 0.276085 0
M  V30 33002 C 3069.76 -2.04483 -0.346612 0
M  V30 33003 C 3070.19 -1.1531 -1.48611 0
M  V30 33004 O 3069.54 -0.151907 -1.80662 0
M  V30 33005 C 3069.59 -3.51518 -0.804207 0
M  V30 33006 O 3068.7 -3.65432 -1.91136 0
M  V30 33007 H 3068.04 -0.660138 -0.0715135 0
M  V30 33008 H 3070.57 -2.00436 0.410667 0
M  V30 33009 H 3070.58 -3.929 -1.0997 0
M  V30 33010 H 3069.25 -4.1589 0.0294854 0
M  V30 33011 H 3067.83 -3.35953 -1.61833 0
M  V30 33012 N 3070.01 -0.00338196 -1.576 0
M  V30 33013 C 3071.26 0.676115 -1.91834 0
M  V30 33014 C 3071.61 1.71193 -0.878109 0
M  V30 33015 O 3070.91 1.91288 0.109263 0
M  V30 33016 C 3071.1 1.35831 -3.30582 0
M  V30 33017 C 3070.93 0.390092 -4.48005 0
M  V30 33018 C 3069.7 -0.000737312 -5.053 0
M  V30 33019 C 3071.9 -0.345072 -5.13141 0
M  V30 33020 N 3069.88 -0.966816 -6.06239 0
M  V30 33021 C 3071.25 -1.16572 -6.08942 0
M  V30 33022 C 3073.31 -0.408545 -4.96221 0
M  V30 33023 C 3072.01 -2.04407 -6.89645 0
M  V30 33024 C 3074.04 -1.27413 -5.77512 0
M  V30 33025 C 3073.4 -2.08263 -6.72909 0
M  V30 33026 H 3069.5 0.220506 -0.750267 0
M  V30 33027 H 3072.08 -0.0645233 -1.94593 0
M  V30 33028 H 3070.25 2.06922 -3.28691 0
M  V30 33029 H 3071.98 1.99277 -3.52237 0
M  V30 33030 H 3068.74 0.368345 -4.72165 0
M  V30 33031 H 3069.16 -1.44533 -6.61392 0
M  V30 33032 H 3073.8 0.20225 -4.22316 0
M  V30 33033 H 3071.52 -2.66553 -7.62873 0
M  V30 33034 H 3075.11 -1.3272 -5.6646 0
M  V30 33035 H 3073.99 -2.74158 -7.34716 0
M  V30 33036 N 3071.49 1.5528 0.269423 0
M  V30 33037 C 3072.45 1.87627 1.31639 0
M  V30 33038 C 3073.45 0.751083 1.42181 0
M  V30 33039 O 3074.64 1.01924 1.4127 0
M  V30 33040 C 3071.78 2.08472 2.69726 0
M  V30 33041 H 3072.97 2.81221 1.04185 0
M  V30 33042 H 3070.52 1.47826 0.507659 0
M  V30 33043 H 3071.26 1.17271 3.02354 0
M  V30 33044 H 3071.04 2.90399 2.6346 0
M  V30 33045 H 3072.53 2.34759 3.45366 0
M  V30 33046 N 3072.97 -0.534097 1.48274 0
M  V30 33047 C 3073.88 -1.66606 1.65165 0
M  V30 33048 C 3074.9 -1.65597 0.534206 0
M  V30 33049 O 3076.07 -1.84623 0.804747 0
M  V30 33050 C 3073.14 -3.03078 1.68359 0
M  V30 33051 C 3072.2 -3.14974 2.91701 0
M  V30 33052 C 3071.43 -4.44936 2.94733 0
M  V30 33053 O 3071.65 -5.31788 2.06295 0
M  V30 33054 O 3070.59 -4.61112 3.86858 0
M  V30 33055 H 3074.41 -1.55293 2.60994 0
M  V30 33056 H 3072 -0.706726 1.31627 0
M  V30 33057 H 3073.88 -3.84249 1.73005 0
M  V30 33058 H 3072.56 -3.14723 0.757033 0
M  V30 33059 H 3071.46 -2.33114 2.9259 0
M  V30 33060 H 3072.8 -3.08243 3.83728 0
M  V30 33061 N 3074.45 -1.36793 -0.782652 0
M  V30 33062 C 3075.68 -1.34568 -1.5716 0
M  V30 33063 C 3076.09 0.0715169 -1.88664 0
M  V30 33064 O 3075.45 1.0303 -1.50635 0
M  V30 33065 C 3075.5 -2.17365 -2.8885 0
M  V30 33066 O 3075.22 -3.53561 -2.587 0
M  V30 33067 C 3076.72 -2.22997 -3.83128 0
M  V30 33068 H 3073.94 -0.461347 -0.487237 0
M  V30 33069 H 3076.48 -1.79984 -0.970873 0
M  V30 33070 H 3074.64 -1.75487 -3.45374 0
M  V30 33071 H 3075.05 -3.96841 -3.42954 0
M  V30 33072 H 3076.53 -2.85275 -4.7257 0
M  V30 33073 H 3077 -1.23531 -4.2147 0
M  V30 33074 H 3077.61 -2.65141 -3.32536 0
M  V30 33075 N 3075.93 1.00759 -1.21184 0
M  V30 33076 C 3077.15 1.78077 -1.05338 0
M  V30 33077 C 3077.57 1.8458 0.396955 0
M  V30 33078 O 3076.93 1.30531 1.27546 0
M  V30 33079 C 3076.98 3.22111 -1.64095 0
M  V30 33080 O 3076.7 3.15987 -3.03453 0
M  V30 33081 C 3078.2 4.1594 -1.53325 0
M  V30 33082 H 3075.42 0.559729 -0.37006 0
M  V30 33083 H 3077.96 1.26772 -1.60466 0
M  V30 33084 H 3076.12 3.70533 -1.13065 0
M  V30 33085 H 3076.53 4.06459 -3.31499 0
M  V30 33086 H 3078.01 5.14811 -1.99183 0
M  V30 33087 H 3078.48 4.36489 -0.487243 0
M  V30 33088 H 3079.09 3.73405 -2.03589 0
M  V30 33089 N 3077.4 1.01917 1.20211 0
M  V30 33090 C 3078.82 0.741161 1.71358 0
M  V30 33091 C 3079.17 -0.740076 1.81707 0
M  V30 33092 O 3078.29 -1.57743 1.48142 0
M  V30 33093 C 3078.89 1.33875 3.11228 0
M  V30 33094 C 3077.45 1.10955 3.59675 0
M  V30 33095 C 3076.59 1.44284 2.36807 0
M  V30 33096 H 3079.54 1.18832 1.05189 0
M  V30 33097 H 3079.56 0.73065 3.73419 0
M  V30 33098 H 3079.08 2.41681 3.03664 0
M  V30 33099 H 3077.18 0.0492707 3.72567 0
M  V30 33100 H 3077.29 1.79141 4.44348 0
M  V30 33101 H 3075.65 0.861924 2.39673 0
M  V30 33102 H 3076.44 2.53152 2.31881 0
M  V30 33103 N 3078.88 -1.36036 0.795742 0
M  V30 33104 C 3080.13 -1.98678 0.370326 0
M  V30 33105 C 3080.45 -1.6346 -1.06329 0
M  V30 33106 O 3079.72 -0.911701 -1.73392 0
M  V30 33107 H 3078.3 -0.734894 0.133941 0
M  V30 33108 H 3080.96 -1.66128 1.01918 0
M  V30 33109 H 3080.06 -3.08582 0.467261 0
M  V30 33110 N 3080.36 -0.5483 -1.47755 0
M  V30 33111 C 3081.61 -0.0208898 -2.02089 0
M  V30 33112 C 3081.93 1.33014 -1.42591 0
M  V30 33113 O 3081.2 1.86554 -0.597858 0
M  V30 33114 H 3079.78 -0.00473336 -0.746985 0
M  V30 33115 H 3082.44 -0.716288 -1.8126 0
M  V30 33116 H 3081.54 0.0738468 -3.12013 0
M  V30 33117 N 3081.84 1.55014 -0.28431 0
M  V30 33118 C 3083.09 1.99401 0.329177 0
M  V30 33119 C 3083.41 1.17419 1.55685 0
M  V30 33120 O 3082.68 0.265971 1.94086 0
M  V30 33121 H 3081.26 0.736532 0.124617 0
M  V30 33122 H 3083.92 1.90922 -0.391776 0
M  V30 33123 H 3083.02 3.06026 0.612726 0
M  V30 33124 N 3083.32 0.0117398 1.57596 0
M  V30 33125 C 3084.56 -0.669309 1.90695 0
M  V30 33126 C 3084.89 -1.73657 0.88703 0
M  V30 33127 O 3084.16 -1.9576 -0.0739435 0
M  V30 33128 H 3082.74 -0.250207 0.703851 0
M  V30 33129 H 3085.4 0.05544 1.94821 0
M  V30 33130 H 3084.49 -1.13311 2.90804 0
M  V30 33131 N 3084.79 -1.55421 -0.261185 0
M  V30 33132 C 3086.02 -1.80957 -1.01337 0
M  V30 33133 C 3086.44 -0.58688 -1.7871 0
M  V30 33134 O 3085.8 0.463806 -1.75267 0
M  V30 33135 C 3085.85 -3.04076 -1.9383 0
M  V30 33136 O 3084.95 -2.7999 -3.02786 0
M  V30 33137 H 3084.3 -0.597754 -0.289113 0
M  V30 33138 H 3086.83 -2.02584 -0.286507 0
M  V30 33139 H 3086.84 -3.33127 -2.35564 0
M  V30 33140 H 3085.51 -3.92713 -1.36929 0
M  V30 33141 H 3084.09 -2.62068 -2.65283 0
M  V30 33142 N 3086.27 0.526227 -1.48555 0
M  V30 33143 C 3087.5 1.31126 -1.60688 0
M  V30 33144 C 3087.92 1.8617 -0.268734 0
M  V30 33145 O 3087.28 1.64595 0.760138 0
M  V30 33146 C 3087.33 2.43531 -2.65942 0
M  V30 33147 O 3086.43 3.46674 -2.23362 0
M  V30 33148 H 3085.77 0.388202 -0.538698 0
M  V30 33149 H 3088.3 0.632791 -1.94569 0
M  V30 33150 H 3088.31 2.89663 -2.87332 0
M  V30 33151 H 3086.99 2.02829 -3.63088 0
M  V30 33152 H 3085.57 3.06635 -2.12201 0
M  V30 33153 N 3087.75 1.37206 0.775387 0
M  V30 33154 C 3088.71 1.32504 1.87017 0
M  V30 33155 C 3089.71 0.229821 1.59149 0
M  V30 33156 O 3090.9 0.485452 1.67299 0
M  V30 33157 C 3088.04 1.05751 3.24083 0
M  V30 33158 H 3089.23 2.29881 1.926 0
M  V30 33159 H 3086.78 1.22182 0.974739 0
M  V30 33160 H 3087.52 0.0888941 3.24178 0
M  V30 33161 H 3087.3 1.85022 3.45701 0
M  V30 33162 H 3088.79 1.05101 4.04158 0
M  V30 33163 N 3089.23 -1.00115 1.21716 0
M  V30 33164 C 3090.19 -2.07127 0.981374 0
M  V30 33165 C 3091.19 -1.60725 -0.0490833 0
M  V30 33166 O 3092.38 -1.73176 0.188586 0
M  V30 33167 C 3089.51 -3.37494 0.480667 0
M  V30 33168 H 3090.71 -2.29478 1.93079 0
M  V30 33169 H 3088.26 -1.17149 1.03469 0
M  V30 33170 H 3088.99 -3.20825 -0.473495 0
M  V30 33171 H 3088.78 -3.72506 1.224 0
M  V30 33172 H 3090.27 -4.16249 0.335684 0
M  V30 33173 N 3090.71 -1.02553 -1.19669 0
M  V30 33174 C 3092.12 -0.741988 -1.41304 0
M  V30 33175 C 3092.32 0.674774 -1.89866 0
M  V30 33176 O 3091.38 1.44126 -2.07326 0
M  V30 33177 C 3092.69 -1.77527 -2.42703 0
M  V30 33178 C 3094.24 -1.79443 -2.56455 0
M  V30 33179 C 3094.72 -2.81721 -3.61106 0
M  V30 33180 N 3096.21 -2.80517 -3.68598 0
M  V30 33181 C 3096.94 -3.5631 -4.49256 0
M  V30 33182 N 3096.44 -4.41808 -5.33645 0
M  V30 33183 N 3098.23 -3.44867 -4.43873 0
M  V30 33184 H 3090.38 -1.94003 -0.864666 0
M  V30 33185 H 3092.64 -0.838553 -0.442191 0
M  V30 33186 H 3092.35 -2.79071 -2.14037 0
M  V30 33187 H 3092.22 -1.59478 -3.41828 0
M  V30 33188 H 3094.61 -0.78578 -2.84446 0
M  V30 33189 H 3094.69 -2.01566 -1.57495 0
M  V30 33190 H 3094.34 -3.82755 -3.33857 0
M  V30 33191 H 3094.27 -2.56857 -4.59709 0
M  V30 33192 H 3096.76 -2.18504 -3.08325 0
M  V30 33193 H 3097.07 -4.96388 -5.92299 0
M  V30 33194 H 3095.42 -4.45883 -5.33117 0
M  V30 33195 H 3098.61 -2.77488 -3.76985 0
M  V30 33196 H 3098.78 -4.04188 -5.06494 0
M  V30 33197 N 3092.19 1.35612 -0.802945 0
M  V30 33198 C 3093.6 1.52013 -0.48624 0
M  V30 33199 C 3093.8 1.75323 0.993188 0
M  V30 33200 O 3092.86 1.79254 1.77832 0
M  V30 33201 C 3094.17 2.69765 -1.32844 0
M  V30 33202 C 3095.72 2.83641 -1.32351 0
M  V30 33203 C 3096.19 4.04413 -2.14974 0
M  V30 33204 N 3097.68 4.11584 -2.12491 0
M  V30 33205 C 3098.42 5.04142 -2.73182 0
M  V30 33206 N 3097.92 6.02055 -3.42785 0
M  V30 33207 N 3099.71 4.9686 -2.62843 0
M  V30 33208 H 3091.86 1.18738 -1.76111 0
M  V30 33209 H 3094.12 0.580645 -0.74937 0
M  V30 33210 H 3093.83 2.59106 -2.37817 0
M  V30 33211 H 3093.7 3.64271 -0.979122 0
M  V30 33212 H 3096.09 2.93753 -0.281638 0
M  V30 33213 H 3096.17 1.90003 -1.71267 0
M  V30 33214 H 3095.81 3.95062 -3.19199 0
M  V30 33215 H 3095.74 4.97225 -1.7342 0
M  V30 33216 H 3098.24 3.41489 -1.61845 0
M  V30 33217 H 3098.55 6.6927 -3.8639 0
M  V30 33218 H 3096.89 6.0224 -3.46889 0
M  V30 33219 H 3100.08 4.19321 -2.08057 0
M  V30 33220 H 3100.26 5.68803 -3.10431 0
M  V30 33221 N 3093.66 0.556128 1.47462 0
M  V30 33222 C 3094.91 0.0317162 2.02775 0
M  V30 33223 C 3095.24 -1.31428 1.4297 0
M  V30 33224 O 3094.52 -1.85498 0.584879 0
M  V30 33225 C 3094.8 -0.0625109 3.60046 0
M  V30 33226 C 3094.65 1.3105 4.30286 0
M  V30 33227 C 3095.97 -0.776476 4.33196 0
M  V30 33228 H 3093.09 0.0129999 0.736885 0
M  V30 33229 H 3095.73 0.718208 1.75903 0
M  V30 33230 H 3093.88 -0.647163 3.83072 0
M  V30 33231 H 3095.56 1.93827 4.18603 0
M  V30 33232 H 3093.8 1.88547 3.90682 0
M  V30 33233 H 3094.47 1.1973 5.38859 0
M  V30 33234 H 3096.95 -0.280074 4.15156 0
M  V30 33235 H 3095.82 -0.811365 5.4287 0
M  V30 33236 H 3096.08 -1.83237 4.02339 0
M  V30 33237 N 3095.14 -1.54861 0.292527 0
M  V30 33238 C 3096.56 -1.59483 -0.061118 0
M  V30 33239 C 3096.76 -1.30961 -1.53139 0
M  V30 33240 O 3095.81 -1.07891 -2.28289 0
M  V30 33241 C 3097.13 -2.98893 0.329195 0
M  V30 33242 C 3098.67 -3.1177 0.277255 0
M  V30 33243 C 3099.15 -4.53474 0.642264 0
M  V30 33244 N 3100.64 -4.59369 0.594476 0
M  V30 33245 C 3101.38 -5.67073 0.849485 0
M  V30 33246 N 3100.87 -6.82849 1.17002 0
M  V30 33247 N 3102.66 -5.56702 0.777114 0
M  V30 33248 H 3094.82 -1.71663 1.25082 0
M  V30 33249 H 3097.08 -0.801331 0.50653 0
M  V30 33250 H 3096.78 -3.24659 1.35238 0
M  V30 33251 H 3096.66 -3.75828 -0.321376 0
M  V30 33252 H 3099.05 -2.85757 -0.736675 0
M  V30 33253 H 3099.13 -2.37008 0.96233 0
M  V30 33254 H 3098.77 -4.80215 1.65396 0
M  V30 33255 H 3098.7 -5.2656 -0.0647906 0
M  V30 33256 H 3101.19 -3.76207 0.357322 0
M  V30 33257 H 3101.5 -7.60903 1.3508 0
M  V30 33258 H 3099.85 -6.84422 1.20797 0
M  V30 33259 H 3103.04 -4.65131 0.526415 0
M  V30 33260 H 3103.21 -6.40558 0.979225 0
M  V30 33261 N 3096.62 -0.0200973 -1.57587 0
M  V30 33262 C 3098.03 0.519987 -1.79313 0
M  V30 33263 C 3098.38 1.72785 -0.929506 0
M  V30 33264 O 3097.51 2.15963 -0.137427 0
M  V30 33265 C 3098.1 0.950115 -3.25205 0
M  V30 33266 C 3096.66 1.43537 -3.47957 0
M  V30 33267 C 3095.81 0.395868 -2.7446 0
M  V30 33268 H 3098.76 -0.246181 -1.56779 0
M  V30 33269 H 3098.78 1.81502 -3.34421 0
M  V30 33270 H 3098.29 0.0708148 -3.88035 0
M  V30 33271 H 3096.39 2.3349 -2.90367 0
M  V30 33272 H 3096.51 1.44897 -4.56664 0
M  V30 33273 H 3094.87 0.86198 -2.39671 0
M  V30 33274 H 3095.65 -0.47481 -3.40001 0
M  V30 33275 N 3098.1 1.55557 0.252939 0
M  V30 33276 C 3099.34 1.77368 0.983275 0
M  V30 33277 C 3099.68 0.58429 1.85202 0
M  V30 33278 O 3098.95 -0.417611 1.89964 0
M  V30 33279 C 3099.23 3.09011 1.84891 0
M  V30 33280 C 3099.09 4.38343 1.00875 0
M  V30 33281 C 3100.41 3.36836 2.83248 0
M  V30 33282 H 3097.53 0.645292 0.356044 0
M  V30 33283 H 3100.17 1.88292 0.254199 0
M  V30 33284 H 3098.32 2.99829 2.47052 0
M  V30 33285 H 3099.99 4.59507 0.406299 0
M  V30 33286 H 3098.23 4.3267 0.312894 0
M  V30 33287 H 3098.9 5.26822 1.64809 0
M  V30 33288 H 3101.38 3.45942 2.31222 0
M  V30 33289 H 3100.26 4.30175 3.40941 0
M  V30 33290 H 3100.52 2.57453 3.59403 0
M  V30 33291 N 3099.58 -0.518341 1.48832 0
M  V30 33292 C 3100.8 -1.30272 1.61381 0
M  V30 33293 C 3101.23 -1.86025 0.278603 0
M  V30 33294 O 3100.58 -1.64996 -0.751398 0
M  V30 33295 C 3100.63 -2.42117 2.6723 0
M  V30 33296 O 3099.74 -3.45485 2.25198 0
M  V30 33297 H 3099.08 -0.38534 0.540749 0
M  V30 33298 H 3101.61 -0.622464 1.94901 0
M  V30 33299 H 3101.62 -2.88135 2.88864 0
M  V30 33300 H 3100.29 -2.00901 3.64159 0
M  V30 33301 H 3098.87 -3.05505 2.13824 0
M  V30 33302 N 3101.05 -1.37615 -0.7681 0
M  V30 33303 C 3101.98 -1.36377 -1.89535 0
M  V30 33304 C 3102.96 -0.231833 -1.68513 0
M  V30 33305 O 3104.15 -0.432738 -1.89317 0
M  V30 33306 C 3101.28 -1.17363 -3.26869 0
M  V30 33307 C 3100.23 -2.27608 -3.62462 0
M  V30 33308 C 3099.56 -1.93714 -4.98377 0
M  V30 33309 C 3100.86 -3.69809 -3.68834 0
M  V30 33310 H 3102.55 -2.30705 -1.90828 0
M  V30 33311 H 3100.1 -1.11052 -0.916701 0
M  V30 33312 H 3102.05 -1.15126 -4.05369 0
M  V30 33313 H 3100.78 -0.194922 -3.26018 0
M  V30 33314 H 3099.44 -2.29007 -2.86272 0
M  V30 33315 H 3099.08 -0.943626 -4.9407 0
M  V30 33316 H 3098.78 -2.67539 -5.2316 0
M  V30 33317 H 3100.31 -1.9307 -5.79272 0
M  V30 33318 H 3101.72 -3.7052 -4.37479 0
M  V30 33319 H 3100.12 -4.42718 -4.05118 0
M  V30 33320 H 3101.19 -4.03172 -2.69408 0
M  V30 33321 N 3102.53 0.994677 -1.22245 0
M  V30 33322 C 3103.46 2.08201 -0.934204 0
M  V30 33323 C 3104.44 1.6214 0.122202 0
M  V30 33324 O 3105.63 1.88498 -0.00899912 0
M  V30 33325 C 3102.75 3.36273 -0.404706 0
M  V30 33326 C 3101.8 4.01257 -1.44552 0
M  V30 33327 S 3102.63 4.42338 -3.01824 0
M  V30 33328 C 3103.79 5.73582 -2.50508 0
M  V30 33329 H 3104.02 2.32332 -1.85497 0
M  V30 33330 H 3101.55 1.12891 -1.05332 0
M  V30 33331 H 3103.51 4.10364 -0.105791 0
M  V30 33332 H 3102.17 3.10176 0.494916 0
M  V30 33333 H 3101.37 4.9347 -1.02486 0
M  V30 33334 H 3100.97 3.33485 -1.69304 0
M  V30 33335 H 3103.26 6.49832 -1.91637 0
M  V30 33336 H 3104.2 6.20472 -3.41204 0
M  V30 33337 H 3104.61 5.30898 -1.91854 0
M  V30 33338 N 3104.01 1.03186 1.19123 0
M  V30 33339 C 3105.26 0.731144 1.89162 0
M  V30 33340 C 3105.59 -0.738631 1.79605 0
M  V30 33341 O 3104.86 -1.53817 1.1904 0
M  V30 33342 C 3105.15 1.18672 3.39984 0
M  V30 33343 C 3105 2.71794 3.58397 0
M  V30 33344 C 3106.32 0.769848 4.33314 0
M  V30 33345 H 3103.44 0.267081 0.686904 0
M  V30 33346 H 3106.08 1.28231 1.40203 0
M  V30 33347 H 3104.23 0.717803 3.81811 0
M  V30 33348 H 3105.9 3.26655 3.25721 0
M  V30 33349 H 3104.14 3.12043 3.01349 0
M  V30 33350 H 3104.82 2.98727 4.64183 0
M  V30 33351 H 3107.29 1.17321 3.99218 0
M  V30 33352 H 3106.17 1.11647 5.37426 0
M  V30 33353 H 3106.43 -0.327603 4.40885 0
M  V30 33354 N 3105.49 -1.35184 0.810125 0
M  V30 33355 C 3106.9 -1.8113 0.452648 0
M  V30 33356 C 3107.25 -1.67254 -1.0257 0
M  V30 33357 O 3106.38 -1.20519 -1.79733 0
M  V30 33358 C 3106.97 -3.28855 0.814833 0
M  V30 33359 C 3105.53 -3.7293 0.509905 0
M  V30 33360 C 3104.68 -2.57117 1.03856 0
M  V30 33361 H 3107.63 -1.23112 1.00145 0
M  V30 33362 H 3107.65 -3.8033 0.113702 0
M  V30 33363 H 3107.16 -3.38923 1.89084 0
M  V30 33364 H 3105.26 -3.6841 -0.557224 0
M  V30 33365 H 3105.37 -4.67564 1.04501 0
M  V30 33366 H 3103.74 -2.50499 0.460715 0
M  V30 33367 H 3104.52 -2.69961 2.12076 0
M  V30 33368 N 3106.97 -0.56394 -1.47165 0
M  V30 33369 C 3108.19 -0.0455063 -2.0735 0
M  V30 33370 C 3108.62 1.2418 -1.41283 0
M  V30 33371 O 3107.97 1.7455 -0.490115 0
M  V30 33372 C 3108.02 0.126389 -3.60378 0
M  V30 33373 O 3107.13 1.18739 -3.94936 0
M  V30 33374 H 3106.47 -0.0543493 -0.661772 0
M  V30 33375 H 3109 -0.781541 -1.89085 0
M  V30 33376 H 3109.01 0.338483 -4.06594 0
M  V30 33377 H 3107.68 -0.813802 -4.0786 0
M  V30 33378 H 3106.26 0.955254 -3.60457 0
M  V30 33379 N 3108.44 1.54704 -0.300735 0
M  V30 33380 C 3109.38 2.20957 0.609141 0
M  V30 33381 C 3110.39 1.20223 1.09774 0
M  V30 33382 O 3111.58 1.46817 1.01524 0
M  V30 33383 C 3108.68 2.84218 1.8459 0
M  V30 33384 C 3107.85 4.10882 1.49984 0
M  V30 33385 C 3106.91 4.57948 2.59172 0
M  V30 33386 O 3105.94 5.23153 2.24276 0
M  V30 33387 N 3107.14 4.30243 3.89707 0
M  V30 33388 H 3109.9 2.99671 0.0419584 0
M  V30 33389 H 3107.46 1.61433 -0.122925 0
M  V30 33390 H 3109.46 3.12638 2.56982 0
M  V30 33391 H 3108.03 2.09346 2.32149 0
M  V30 33392 H 3107.25 3.89474 0.608569 0
M  V30 33393 H 3108.53 4.93358 1.244 0
M  V30 33394 H 3107.93 3.78005 4.20867 0
M  V30 33395 H 3106.49 4.63373 4.58398 0
M  V30 33396 N 3109.92 0.0284543 1.57574 0
M  V30 33397 C 3110.89 -0.938654 2.09098 0
M  V30 33398 C 3111.89 -1.25452 1.0059 0
M  V30 33399 O 3113.08 -1.19497 1.26752 0
M  V30 33400 C 3110.21 -2.25538 2.55628 0
M  V30 33401 H 3111.4 -0.492428 2.9583 0
M  V30 33402 H 3108.95 -0.219567 1.5475 0
M  V30 33403 H 3109.69 -2.7479 1.72223 0
M  V30 33404 H 3109.47 -2.03923 3.349 0
M  V30 33405 H 3110.96 -2.94858 2.95717 0
M  V30 33406 N 3111.4 -1.55689 -0.244686 0
M  V30 33407 C 3112.65 -1.77273 -0.970494 0
M  V30 33408 C 3112.97 -0.592837 -1.8577 0
M  V30 33409 O 3112.24 0.391289 -1.91952 0
M  V30 33410 H 3110.82 -0.653796 -0.361331 0
M  V30 33411 H 3113.48 -1.9313 -0.2621 0
M  V30 33412 H 3112.58 -2.68508 -1.59091 0
M  V30 33413 N 3112.88 0.510441 -1.49105 0
M  V30 33414 C 3113.84 1.59526 -1.64572 0
M  V30 33415 C 3114.84 1.52229 -0.517964 0
M  V30 33416 O 3116.03 1.5555 -0.78421 0
M  V30 33417 C 3113.16 2.99174 -1.63426 0
M  V30 33418 H 3114.36 1.47145 -2.6132 0
M  V30 33419 H 3111.91 0.733976 -1.37994 0
M  V30 33420 H 3112.64 3.17042 -0.682266 0
M  V30 33421 H 3112.43 3.05879 -2.45317 0
M  V30 33422 H 3113.92 3.78008 -1.77481 0
M  V30 33423 N 3114.36 1.38021 0.760791 0
M  V30 33424 C 3115.77 1.30239 1.33771 0
M  V30 33425 C 3116.12 -0.0450808 1.96148 0
M  V30 33426 O 3115.24 -0.947066 1.94575 0
M  V30 33427 C 3115.84 2.35856 2.43223 0
M  V30 33428 C 3114.4 2.31674 2.96655 0
M  V30 33429 C 3113.54 2.19103 1.69968 0
M  V30 33430 H 3116.5 1.48483 0.560211 0
M  V30 33431 H 3116.52 2.01155 3.22981 0
M  V30 33432 H 3116.03 3.33915 1.97794 0
M  V30 33433 H 3114.13 1.37174 3.46431 0
M  V30 33434 H 3114.24 3.25527 3.51523 0
M  V30 33435 H 3112.61 1.65833 1.93317 0
M  V30 33436 H 3113.39 3.19093 1.26627 0
M  V30 33437 N 3115.83 -0.98818 1.22771 0
M  V30 33438 C 3117.08 -1.72498 1.05304 0
M  V30 33439 C 3117.4 -1.90596 -0.412069 0
M  V30 33440 O 3116.67 -1.46901 -1.29603 0
M  V30 33441 H 3115.25 -0.639137 0.386669 0
M  V30 33442 H 3117.92 -1.18991 1.54361 0
M  V30 33443 H 3117.01 -2.7176 1.53469 0
M  V30 33444 N 3117.31 -1.03816 -1.18575 0
M  V30 33445 C 3118.73 -0.756934 -1.40509 0
M  V30 33446 C 3118.93 0.654598 -1.90571 0
M  V30 33447 O 3117.98 1.41918 -2.08843 0
M  V30 33448 C 3119.3 -1.80091 -2.40806 0
M  V30 33449 C 3120.85 -1.82153 -2.54538 0
M  V30 33450 C 3121.32 -2.85535 -3.58097 0
M  V30 33451 N 3122.81 -2.8441 -3.65602 0
M  V30 33452 C 3123.55 -3.61055 -4.45451 0
M  V30 33453 N 3123.04 -4.47444 -5.28929 0
M  V30 33454 N 3124.84 -3.49555 -4.4019 0
M  V30 33455 H 3116.99 -1.9491 -0.84404 0
M  V30 33456 H 3119.25 -0.843196 -0.433272 0
M  V30 33457 H 3118.96 -2.81326 -2.11065 0
M  V30 33458 H 3118.83 -1.63095 -3.40118 0
M  V30 33459 H 3121.22 -0.815905 -2.83597 0
M  V30 33460 H 3121.3 -2.03225 -1.55348 0
M  V30 33461 H 3120.94 -3.86275 -3.29779 0
M  V30 33462 H 3120.87 -2.61718 -4.56959 0
M  V30 33463 H 3123.36 -2.21762 -3.0599 0
M  V30 33464 H 3123.68 -5.02642 -5.87001 0
M  V30 33465 H 3122.02 -4.51512 -5.28358 0
M  V30 33466 H 3125.21 -2.81471 -3.74021 0
M  V30 33467 H 3125.38 -4.09537 -5.02179 0
M  V30 33468 N 3118.79 1.34753 -0.817283 0
M  V30 33469 C 3119.72 2.28388 -0.192736 0
M  V30 33470 C 3120.74 1.50772 0.61414 0
M  V30 33471 O 3121.92 1.72871 0.444746 0
M  V30 33472 C 3119.02 3.30523 0.748871 0
M  V30 33473 C 3118.2 4.37398 -0.0139531 0
M  V30 33474 C 3117.26 5.19326 0.847734 0
M  V30 33475 O 3116.28 5.68436 0.294771 0
M  V30 33476 N 3117.48 5.38483 2.16833 0
M  V30 33477 H 3120.25 2.82624 -0.997172 0
M  V30 33478 H 3117.81 1.47216 -0.673722 0
M  V30 33479 H 3119.8 3.82228 1.3298 0
M  V30 33480 H 3118.37 2.76723 1.45408 0
M  V30 33481 H 3117.59 3.86483 -0.77616 0
M  V30 33482 H 3118.88 5.05934 -0.53928 0
M  V30 33483 H 3118.28 5.00247 2.64139 0
M  V30 33484 H 3116.84 5.93328 2.69825 0
M  V30 33485 N 3120.27 0.571737 1.46864 0
M  V30 33486 C 3121.52 0.0531427 2.0243 0
M  V30 33487 C 3121.84 -1.30249 1.44449 0
M  V30 33488 O 3121.1 -1.86429 0.595215 0
M  V30 33489 C 3121.4 -0.0741683 3.57323 0
M  V30 33490 C 3121.06 1.21245 4.34293 0
M  V30 33491 C 3119.73 1.56497 4.55041 0
M  V30 33492 C 3122.08 2.06438 4.78574 0
M  V30 33493 C 3119.41 2.76761 5.1732 0
M  V30 33494 C 3121.76 3.25918 5.42181 0
M  V30 33495 C 3120.42 3.61466 5.61158 0
M  V30 33496 H 3119.69 0.0194463 0.740745 0
M  V30 33497 H 3122.34 0.746171 1.76365 0
M  V30 33498 H 3120.64 -0.850258 3.82463 0
M  V30 33499 H 3122.34 -0.491007 3.97983 0
M  V30 33500 H 3118.93 0.927996 4.18433 0
M  V30 33501 H 3123.12 1.80509 4.6231 0
M  V30 33502 H 3118.37 3.04454 5.30206 0
M  V30 33503 H 3122.55 3.92208 5.75452 0
M  V30 33504 H 3120.17 4.54748 6.09187 0
M  V30 33505 N 3121.75 -1.54542 0.308935 0
M  V30 33506 C 3122.7 -2.20529 -0.578863 0
M  V30 33507 C 3123.68 -1.1809 -1.09286 0
M  V30 33508 O 3124.87 -1.43779 -1.03231 0
M  V30 33509 C 3122 -2.95558 -1.74644 0
M  V30 33510 C 3121.09 -4.05321 -1.24802 0
M  V30 33511 N 3121.48 -5.03628 -0.468192 0
M  V30 33512 C 3119.78 -4.19006 -1.52806 0
M  V30 33513 C 3120.48 -5.8135 -0.201794 0
M  V30 33514 N 3119.45 -5.37919 -0.783833 0
M  V30 33515 H 3123.26 -2.9389 0.0244012 0
M  V30 33516 H 3120.77 -1.61999 0.114077 0
M  V30 33517 H 3122.77 -3.41305 -2.39408 0
M  V30 33518 H 3121.43 -2.23716 -2.35332 0
M  V30 33519 H 3122.44 -5.17778 -0.112362 0
M  V30 33520 H 3119.12 -3.58373 -2.14185 0
M  V30 33521 H 3120.51 -6.70554 0.425047 0
M  V30 33522 N 3123.23 -0.0368104 -1.57557 0
M  V30 33523 C 3124.47 0.638886 -1.91736 0
M  V30 33524 C 3124.79 1.72224 -0.914545 0
M  V30 33525 O 3124.06 1.95853 0.0427903 0
M  V30 33526 H 3122.64 0.238977 -0.707742 0
M  V30 33527 H 3125.31 -0.0864273 -1.94708 0
M  V30 33528 H 3124.4 1.08671 -2.9257 0
M  V30 33529 N 3124.7 1.55817 0.236426 0
M  V30 33530 C 3125.93 1.82546 0.984458 0
M  V30 33531 C 3126.35 0.615237 1.77754 0
M  V30 33532 O 3125.71 -0.435864 1.75983 0
M  V30 33533 C 3125.76 3.07121 1.88968 0
M  V30 33534 O 3124.86 2.84772 2.98293 0
M  V30 33535 H 3124.2 0.602278 0.279566 0
M  V30 33536 H 3126.73 2.03014 0.254241 0
M  V30 33537 H 3126.74 3.36833 2.30234 0
M  V30 33538 H 3125.42 3.94841 1.30664 0
M  V30 33539 H 3124 2.66255 2.6108 0
M  V30 33540 N 3126.18 -0.502526 1.49373 0
M  V30 33541 C 3127.14 -1.58651 1.65416 0
M  V30 33542 C 3128.14 -1.51953 0.52603 0
M  V30 33543 O 3129.33 -1.55132 0.792448 0
M  V30 33544 C 3126.47 -2.98303 1.6501 0
M  V30 33545 H 3127.66 -1.45757 2.62097 0
M  V30 33546 H 3125.21 -0.726648 1.38382 0
M  V30 33547 H 3125.95 -3.16676 0.69907 0
M  V30 33548 H 3125.73 -3.04573 2.46936 0
M  V30 33549 H 3127.22 -3.77062 1.79483 0
M  V30 33550 N 3127.66 -1.38422 -0.75346 0
M  V30 33551 C 3128.88 -1.3805 -1.54781 0
M  V30 33552 C 3129.31 0.027604 -1.8808 0
M  V30 33553 O 3128.67 1.0097 -1.50581 0
M  V30 33554 C 3128.72 -2.24302 -2.82349 0
M  V30 33555 O 3127.82 -1.6602 -3.77506 0
M  V30 33556 H 3127.16 -0.470891 -0.468143 0
M  V30 33557 H 3129.69 -1.82185 -0.931112 0
M  V30 33558 H 3129.7 -2.38165 -3.31273 0
M  V30 33559 H 3128.38 -3.26643 -2.57443 0
M  V30 33560 H 3126.95 -1.613 -3.3621 0
M  V30 33561 N 3129.14 0.981655 -1.23294 0
M  V30 33562 C 3130.36 1.76337 -1.09179 0
M  V30 33563 C 3130.79 1.84764 0.352693 0
M  V30 33564 O 3130.15 1.30834 1.25507 0
M  V30 33565 C 3130.19 3.16908 -1.72051 0
M  V30 33566 O 3129.3 4.00542 -0.98181 0
M  V30 33567 H 3128.64 0.542575 -0.382764 0
M  V30 33568 H 3131.17 1.23237 -1.63322 0
M  V30 33569 H 3131.18 3.67492 -1.77238 0
M  V30 33570 H 3129.85 3.1009 -2.77159 0
M  V30 33571 H 3128.43 3.59052 -1.00679 0
M  V30 33572 N 3130.62 1.04444 1.18022 0
M  V30 33573 C 3131.55 0.659722 2.23986 0
M  V30 33574 C 3132.53 -0.338875 1.6669 0
M  V30 33575 O 3133.71 -0.218136 1.92971 0
M  V30 33576 C 3130.84 0.0258283 3.4729 0
M  V30 33577 C 3129.8 0.948373 4.17361 0
M  V30 33578 C 3129.12 0.178754 5.34401 0
M  V30 33579 C 3130.42 2.26918 4.70431 0
M  V30 33580 H 3132.12 1.54558 2.56422 0
M  V30 33581 H 3129.66 0.744596 1.23255 0
M  V30 33582 H 3131.61 -0.255057 4.20627 0
M  V30 33583 H 3130.34 -0.894926 3.141 0
M  V30 33584 H 3129 1.2137 3.45926 0
M  V30 33585 H 3128.65 -0.744526 4.97459 0
M  V30 33586 H 3128.35 0.793397 5.82219 0
M  V30 33587 H 3129.87 -0.0950242 6.10526 0
M  V30 33588 H 3131.28 2.04873 5.35444 0
M  V30 33589 H 3129.68 2.83712 5.28798 0
M  V30 33590 H 3130.75 2.91303 3.87648 0
M  V30 33591 N 3132.09 -1.34317 0.824418 0
M  V30 33592 C 3133.34 -1.98533 0.413814 0
M  V30 33593 C 3133.67 -1.65203 -1.02086 0
M  V30 33594 O 3132.95 -0.924432 -1.71127 0
M  V30 33595 C 3133.23 -3.54756 0.618073 0
M  V30 33596 C 3133.08 -3.97823 2.09897 0
M  V30 33597 C 3134.4 -4.40066 0.0549815 0
M  V30 33598 H 3131.52 -0.721192 0.151828 0
M  V30 33599 H 3134.16 -1.59188 1.03726 0
M  V30 33600 H 3132.31 -3.88402 0.087379 0
M  V30 33601 H 3133.99 -3.74504 2.69341 0
M  V30 33602 H 3132.23 -3.4808 2.58887 0
M  V30 33603 H 3132.9 -5.06582 2.19269 0
M  V30 33604 H 3135.38 -4.12982 0.508421 0
M  V30 33605 H 3134.25 -5.48428 0.227691 0
M  V30 33606 H 3134.51 -4.29689 -1.04017 0
M  V30 33607 N 3133.57 -0.579517 -1.46558 0
M  V30 33608 C 3134.48 0.158119 -2.34067 0
M  V30 33609 C 3135.5 0.889294 -1.49558 0
M  V30 33610 O 3136.67 0.853193 -1.82435 0
M  V30 33611 C 3133.74 1.16094 -3.26685 0
M  V30 33612 C 3132.8 0.43478 -4.27093 0
M  V30 33613 C 3132.03 1.38983 -5.15286 0
M  V30 33614 O 3132.26 2.62615 -5.06349 0
M  V30 33615 O 3131.19 0.902149 -5.95101 0
M  V30 33616 H 3135.02 -0.560286 -2.98487 0
M  V30 33617 H 3132.6 -0.339943 -1.45481 0
M  V30 33618 H 3134.48 1.73925 -3.83833 0
M  V30 33619 H 3133.16 1.86087 -2.64865 0
M  V30 33620 H 3132.06 -0.185289 -3.73641 0
M  V30 33621 H 3133.4 -0.224118 -4.91689 0
M  V30 33622 N 3135.05 1.54376 -0.317127 0
M  V30 33623 C 3136.01 2.22772 0.539011 0
M  V30 33624 C 3137.01 1.21903 1.04863 0
M  V30 33625 O 3138.2 1.46528 0.942083 0
M  V30 33626 C 3135.34 2.92674 1.74799 0
M  V30 33627 H 3136.53 2.99842 -0.0587944 0
M  V30 33628 H 3134.08 1.56151 -0.0681345 0
M  V30 33629 H 3134.82 2.19724 2.3852 0
M  V30 33630 H 3134.6 3.66633 1.39005 0
M  V30 33631 H 3136.09 3.44803 2.35586 0
M  V30 33632 N 3136.53 0.0451655 1.57535 0
M  V30 33633 C 3137.77 -0.630887 1.92737 0
M  V30 33634 C 3138.11 -1.70848 0.923295 0
M  V30 33635 O 3137.38 -1.94431 -0.051617 0
M  V30 33636 C 3137.67 -1.23253 3.3835 0
M  V30 33637 C 3137.52 -0.163411 4.49503 0
M  V30 33638 C 3138.84 -2.14592 3.84237 0
M  V30 33639 H 3135.96 -0.227871 0.700888 0
M  V30 33640 H 3138.6 0.105704 1.89706 0
M  V30 33641 H 3136.75 -1.86031 3.41064 0
M  V30 33642 H 3138.42 0.468161 4.58918 0
M  V30 33643 H 3136.66 0.509242 4.30801 0
M  V30 33644 H 3137.33 -0.624286 5.48458 0
M  V30 33645 H 3139.81 -1.61783 3.83361 0
M  V30 33646 H 3138.69 -2.53635 4.86786 0
M  V30 33647 H 3138.95 -3.0436 3.20652 0
M  V30 33648 N 3138.01 -1.5594 -0.228159 0
M  V30 33649 C 3138.94 -1.94893 -1.28604 0
M  V30 33650 C 3139.92 -0.816271 -1.49235 0
M  V30 33651 O 3141.1 -1.07806 -1.61529 0
M  V30 33652 C 3138.23 -2.2599 -2.63715 0
M  V30 33653 C 3137.19 -3.41685 -2.57751 0
M  V30 33654 C 3136.51 -3.5837 -3.96831 0
M  V30 33655 C 3137.81 -4.76846 -2.13107 0
M  V30 33656 H 3139.51 -2.83508 -0.962481 0
M  V30 33657 H 3137.05 -1.36403 -0.461553 0
M  V30 33658 H 3139.01 -2.51832 -3.37874 0
M  V30 33659 H 3137.73 -1.34222 -2.97745 0
M  V30 33660 H 3136.39 -3.15881 -1.8605 0
M  V30 33661 H 3136.04 -2.63989 -4.28157 0
M  V30 33662 H 3135.74 -4.36183 -3.93724 0
M  V30 33663 H 3137.26 -3.86554 -4.72661 0
M  V30 33664 H 3138.67 -5.01937 -2.77006 0
M  V30 33665 H 3137.07 -5.57895 -2.21074 0
M  V30 33666 H 3138.14 -4.72647 -1.08317 0
M  V30 33667 N 3139.48 0.494597 -1.49638 0
M  V30 33668 C 3140.73 1.24497 -1.58693 0
M  V30 33669 C 3141.05 1.93559 -0.281797 0
M  V30 33670 O 3142.25 2.70338 -0.250972 0
M  V30 33671 C 3140.71 2.26086 -2.80024 0
M  V30 33672 C 3140.32 1.62933 -4.17321 0
M  V30 33673 C 3142.06 3.01911 -2.98413 0
M  V30 33674 C 3139.97 2.6267 -5.29866 0
M  V30 33675 H 3138.9 0.468356 -0.590896 0
M  V30 33676 H 3141.55 0.518081 -1.76035 0
M  V30 33677 H 3139.93 3.01965 -2.5619 0
M  V30 33678 H 3141.1 0.930028 -4.51317 0
M  V30 33679 H 3139.42 0.994748 -4.04344 0
M  V30 33680 H 3142.02 3.76509 -3.79664 0
M  V30 33681 H 3142.36 3.59906 -2.09221 0
M  V30 33682 H 3142.89 2.33147 -3.22316 0
M  V30 33683 H 3139.63 2.09447 -6.21138 0
M  V30 33684 H 3139.15 3.30822 -5.00317 0
M  V30 33685 H 3140.83 3.2497 -5.59467 0
M  V30 33686 N 3140.96 1.3882 0.746109 0
M  V30 33687 C 3142.19 1.38868 1.54046 0
M  V30 33688 C 3142.61 -0.0176293 1.88092 0
M  V30 33689 O 3141.97 -1.0017 1.51115 0
M  V30 33690 C 3142.02 2.25796 2.81156 0
M  V30 33691 O 3141.12 1.6802 3.7662 0
M  V30 33692 H 3140.46 0.473367 0.465639 0
M  V30 33693 H 3142.99 1.82676 0.921437 0
M  V30 33694 H 3143 2.39918 3.30005 0
M  V30 33695 H 3141.68 3.28004 2.55707 0
M  V30 33696 H 3140.26 1.6308 3.35349 0
M  V30 33697 N 3142.44 -0.975103 1.23812 0
M  V30 33698 C 3143.35 -2.10247 1.04084 0
M  V30 33699 C 3144.37 -1.73992 -0.0162098 0
M  V30 33700 O 3145.54 -2.00591 0.180381 0
M  V30 33701 C 3142.61 -3.4074 0.640073 0
M  V30 33702 C 3141.67 -3.90988 1.77277 0
M  V30 33703 C 3140.9 -5.15253 1.39103 0
M  V30 33704 O 3141.12 -5.69724 0.277583 0
M  V30 33705 O 3140.06 -5.59701 2.21402 0
M  V30 33706 H 3143.88 -2.29782 1.98579 0
M  V30 33707 H 3141.47 -1.08631 1.02565 0
M  V30 33708 H 3143.35 -4.19223 0.427758 0
M  V30 33709 H 3142.03 -3.22523 -0.275833 0
M  V30 33710 H 3140.93 -3.13599 2.03977 0
M  V30 33711 H 3142.27 -4.13669 2.66718 0
M  V30 33712 N 3143.92 -1.05068 -1.17467 0
M  V30 33713 C 3145.17 -0.758518 -1.87326 0
M  V30 33714 C 3145.49 0.716517 -1.81359 0
M  V30 33715 O 3144.76 1.51766 -1.2387 0
M  V30 33716 H 3143.34 -0.277591 -0.693507 0
M  V30 33717 H 3146 -1.32957 -1.42508 0
M  V30 33718 H 3145.1 -1.07235 -2.93099 0
M  V30 33719 N 3145.4 1.33878 -0.831529 0
M  V30 33720 C 3146.33 2.31882 -0.274419 0
M  V30 33721 C 3147.31 1.58638 0.613844 0
M  V30 33722 O 3148.49 1.86572 0.538928 0
M  V30 33723 C 3145.62 3.42797 0.557438 0
M  V30 33724 C 3144.58 4.27358 -0.234412 0
M  V30 33725 C 3143.9 5.2982 0.720732 0
M  V30 33726 C 3145.2 5.01844 -1.4474 0
M  V30 33727 H 3146.9 2.78726 -1.09327 0
M  V30 33728 H 3144.44 1.34004 -0.52716 0
M  V30 33729 H 3146.4 4.10379 0.957429 0
M  V30 33730 H 3145.12 2.94623 1.40942 0
M  V30 33731 H 3143.78 3.6139 -0.615874 0
M  V30 33732 H 3143.43 4.77906 1.56891 0
M  V30 33733 H 3143.13 5.87276 0.195068 0
M  V30 33734 H 3144.65 6.0027 1.1184 0
M  V30 33735 H 3146.06 5.62234 -1.12097 0
M  V30 33736 H 3144.46 5.68915 -1.90933 0
M  V30 33737 H 3145.53 4.31041 -2.22107 0
M  V30 33738 N 3146.87 0.587281 1.46249 0
M  V30 33739 C 3148.12 0.0744628 2.01963 0
M  V30 33740 C 3148.44 -1.29187 1.46068 0
M  V30 33741 O 3147.71 -1.84904 0.647109 0
M  V30 33742 H 3146.29 0.0245367 0.746597 0
M  V30 33743 H 3148.96 0.764095 1.79298 0
M  V30 33744 H 3148.05 0.00890379 3.12099 0
M  V30 33745 N 3148.35 -1.54206 0.325309 0
M  V30 33746 C 3149.28 -2.21898 -0.573911 0
M  V30 33747 C 3150.3 -1.21954 -1.07848 0
M  V30 33748 O 3151.49 -1.48413 -0.991755 0
M  V30 33749 C 3148.59 -2.87118 -1.80045 0
M  V30 33750 C 3147.76 -4.13216 -1.43428 0
M  V30 33751 C 3146.82 -4.62013 -2.51854 0
M  V30 33752 O 3145.84 -5.26655 -2.15925 0
M  V30 33753 N 3147.05 -4.36388 -3.82812 0
M  V30 33754 H 3149.81 -2.99699 0.00572186 0
M  V30 33755 H 3147.37 -1.61217 0.148592 0
M  V30 33756 H 3149.36 -3.16686 -2.51976 0
M  V30 33757 H 3147.93 -2.13013 -2.28789 0
M  V30 33758 H 3147.15 -3.90393 -0.54653 0
M  V30 33759 H 3148.44 -4.95275 -1.16535 0
M  V30 33760 H 3147.84 -3.84652 -4.148 0
M  V30 33761 H 3146.4 -4.70607 -4.50968 0
M  V30 33762 N 3149.83 -0.0535194 -1.57509 0
M  V30 33763 C 3151.08 0.619738 -1.92784 0
M  V30 33764 C 3151.41 1.70712 -0.932076 0
M  V30 33765 O 3150.66 1.95622 0.0552547 0
M  V30 33766 C 3150.96 1.25245 -3.34736 0
M  V30 33767 C 3150.63 0.293034 -4.49947 0
M  V30 33768 C 3149.29 0.0290377 -4.81191 0
M  V30 33769 C 3151.64 -0.364363 -5.19925 0
M  V30 33770 C 3148.97 -0.899751 -5.7976 0
M  V30 33771 C 3151.32 -1.28136 -6.19487 0
M  V30 33772 C 3149.98 -1.554 -6.49159 0
M  V30 33773 H 3149.25 0.226778 -0.705445 0
M  V30 33774 H 3151.9 -0.120499 -1.91121 0
M  V30 33775 H 3150.21 2.06801 -3.32777 0
M  V30 33776 H 3151.9 1.78036 -3.59311 0
M  V30 33777 H 3148.49 0.508978 -4.25567 0
M  V30 33778 H 3152.68 -0.173499 -4.95997 0
M  V30 33779 H 3147.93 -1.11843 -6.01083 0
M  V30 33780 H 3152.11 -1.79681 -6.72821 0
M  V30 33781 H 3149.73 -2.27533 -7.2535 0
M  V30 33782 N 3151.31 1.56059 0.219886 0
M  V30 33783 C 3152.27 1.9172 1.25603 0
M  V30 33784 C 3153.27 0.795937 1.39719 0
M  V30 33785 O 3154.46 1.06367 1.37956 0
M  V30 33786 C 3151.59 2.16948 2.62957 0
M  V30 33787 H 3152.79 2.84393 0.951859 0
M  V30 33788 H 3150.34 1.49366 0.460372 0
M  V30 33789 H 3151.08 1.26831 2.9847 0
M  V30 33790 H 3150.86 2.98633 2.54088 0
M  V30 33791 H 3152.35 2.45628 3.37723 0
M  V30 33792 N 3152.79 -0.486655 1.49898 0
M  V30 33793 C 3153.72 -1.60362 1.63758 0
M  V30 33794 C 3154.73 -1.54284 0.519641 0
M  V30 33795 O 3155.92 -1.59955 0.792247 0
M  V30 33796 C 3153.02 -2.99202 1.59158 0
M  V30 33797 C 3152.19 -3.30314 2.86726 0
M  V30 33798 C 3151.25 -4.48633 2.74982 0
M  V30 33799 O 3150.28 -4.49707 3.4893 0
M  V30 33800 N 3151.48 -5.49389 1.87489 0
M  V30 33801 H 3154.25 -1.48895 2.60097 0
M  V30 33802 H 3151.81 -0.674799 1.47167 0
M  V30 33803 H 3153.8 -3.76298 1.48936 0
M  V30 33804 H 3152.37 -3.04519 0.706187 0
M  V30 33805 H 3151.59 -2.41978 3.11192 0
M  V30 33806 H 3152.88 -3.47904 3.71268 0
M  V30 33807 H 3152.28 -5.5133 1.26693 0
M  V30 33808 H 3150.83 -6.2553 1.8318 0
M  V30 33809 N 3154.27 -1.39214 -0.738737 0
M  V30 33810 C 3155.54 -1.26745 -1.4898 0
M  V30 33811 C 3155.92 0.124623 -2.10732 0
M  V30 33812 O 3155.27 1.13551 -1.98289 0
M  V30 33813 C 3155.48 -2.38894 -2.54422 0
M  V30 33814 C 3156.83 -2.78032 -3.2091 0
M  V30 33815 O 3157.85 -2.38316 -2.64734 0
M  V30 33816 O 3156.71 -3.46572 -4.22552 0
M  V30 33817 H 3153.81 -0.496484 -0.661387 0
M  V30 33818 H 3156.35 -1.51078 -0.77288 0
M  V30 33819 H 3155.12 -3.31974 -2.07145 0
M  V30 33820 H 3154.75 -2.16206 -3.33678 0
M  V30 33821 N 3155.74 0.968523 -1.24328 0
M  V30 33822 C 3157.15 1.52601 -1.07564 0
M  V30 33823 C 3157.51 1.92994 0.353211 0
M  V30 33824 O 3156.63 1.77246 1.24148 0
M  V30 33825 C 3157.23 2.77311 -1.94639 0
M  V30 33826 C 3155.78 3.29418 -1.82101 0
M  V30 33827 C 3154.93 2.02332 -1.89624 0
M  V30 33828 H 3157.88 0.786908 -1.37817 0
M  V30 33829 H 3157.9 3.50614 -1.47819 0
M  V30 33830 H 3157.42 2.4788 -2.98625 0
M  V30 33831 H 3155.52 3.63702 -0.80944 0
M  V30 33832 H 3155.63 3.98373 -2.66149 0
M  V30 33833 H 3153.99 2.17006 -1.33343 0
M  V30 33834 H 3154.78 1.75267 -2.95188 0
M  V30 33835 N 3157.22 1.0569 1.16908 0
M  V30 33836 C 3158.17 0.662285 2.21094 0
M  V30 33837 C 3159.14 -0.338054 1.62623 0
M  V30 33838 O 3160.32 -0.228329 1.89429 0
M  V30 33839 C 3157.46 0.0484625 3.45066 0
M  V30 33840 C 3156.58 1.09824 4.17807 0
M  V30 33841 C 3155.71 0.451207 5.2928 0
M  V30 33842 C 3154.75 1.48495 5.93815 0
M  V30 33843 N 3153.89 0.86171 6.96792 0
M  V30 33844 H 3158.73 1.55518 2.54201 0
M  V30 33845 H 3156.26 0.777687 1.24862 0
M  V30 33846 H 3158.22 -0.324905 4.15933 0
M  V30 33847 H 3156.85 -0.807863 3.12527 0
M  V30 33848 H 3155.9 1.58938 3.45605 0
M  V30 33849 H 3157.22 1.88273 4.61903 0
M  V30 33850 H 3156.37 0.0245318 6.06695 0
M  V30 33851 H 3155.11 -0.365221 4.86331 0
M  V30 33852 H 3154.11 1.92158 5.15126 0
M  V30 33853 H 3155.34 2.30336 6.38844 0
M  V30 33854 H 3153.29 0.0658841 6.55967 0
M  V30 33855 H 3153.2 1.58367 7.39227 0
M  V30 33856 H 3154.47 0.459977 7.78142 0
M  V30 33857 N 3158.7 -1.33435 0.838617 0
M  V30 33858 C 3159.95 -1.9779 0.434204 0
M  V30 33859 C 3160.27 -1.66433 -1.00649 0
M  V30 33860 O 3159.53 -0.936339 -1.71846 0
M  V30 33861 C 3159.83 -3.52302 0.601487 0
M  V30 33862 C 3159.49 -4.03609 2.01024 0
M  V30 33863 C 3158.16 -4.17331 2.39558 0
M  V30 33864 C 3160.51 -4.31017 2.93043 0
M  V30 33865 C 3157.84 -4.55796 3.69414 0
M  V30 33866 C 3160.19 -4.70933 4.2238 0
M  V30 33867 C 3158.85 -4.82861 4.6087 0
M  V30 33868 H 3158.12 -0.723765 0.158887 0
M  V30 33869 H 3160.77 -1.59115 1.06559 0
M  V30 33870 H 3159.07 -3.91636 -0.113215 0
M  V30 33871 H 3160.77 -4.00098 0.268868 0
M  V30 33872 H 3157.36 -3.93402 1.70097 0
M  V30 33873 H 3161.55 -4.19938 2.6451 0
M  V30 33874 H 3156.8 -4.63224 3.99041 0
M  V30 33875 H 3160.98 -4.91097 4.93758 0
M  V30 33876 H 3158.6 -5.12423 5.61539 0
M  V30 33877 N 3160.18 -0.595029 -1.45935 0
M  V30 33878 C 3161.43 -0.0829885 -2.01529 0
M  V30 33879 C 3161.74 1.28953 -1.47073 0
M  V30 33880 O 3162.95 1.8936 -1.94564 0
M  V30 33881 C 3161.4 -0.0977229 -3.59767 0
M  V30 33882 C 3161.01 -1.46932 -4.2322 0
M  V30 33883 C 3162.75 0.35973 -4.22973 0
M  V30 33884 C 3160.66 -1.44111 -5.73573 0
M  V30 33885 H 3159.59 -0.0272558 -0.753507 0
M  V30 33886 H 3162.24 -0.748502 -1.6754 0
M  V30 33887 H 3160.62 0.634199 -3.90889 0
M  V30 33888 H 3161.8 -2.22194 -4.03691 0
M  V30 33889 H 3160.11 -1.86781 -3.72158 0
M  V30 33890 H 3162.71 0.399817 -5.33203 0
M  V30 33891 H 3163.05 1.37984 -3.92767 0
M  V30 33892 H 3163.59 -0.31852 -3.96523 0
M  V30 33893 H 3160.32 -2.43842 -6.08458 0
M  V30 33894 H 3159.84 -0.730872 -5.9533 0
M  V30 33895 H 3161.52 -1.15932 -6.36529 0
M  V30 33896 N 3161.66 1.54031 -0.333483 0
M  V30 33897 C 3162.57 2.2838 0.536634 0
M  V30 33898 C 3163.58 1.33106 1.12066 0
M  V30 33899 O 3164.76 1.66133 1.1385 0
M  V30 33900 C 3161.82 3.03459 1.67672 0
M  V30 33901 C 3160.88 4.14338 1.1235 0
M  V30 33902 C 3160.12 4.85827 2.20924 0
M  V30 33903 O 3160.34 4.56906 3.41458 0
M  V30 33904 O 3159.27 5.7251 1.85785 0
M  V30 33905 H 3163.1 3.03625 -0.0674537 0
M  V30 33906 H 3160.68 1.49073 -0.0988492 0
M  V30 33907 H 3162.57 3.50442 2.34026 0
M  V30 33908 H 3161.24 2.3108 2.2668 0
M  V30 33909 H 3160.15 3.71681 0.424761 0
M  V30 33910 H 3161.48 4.8879 0.578411 0
M  V30 33911 N 3163.13 0.0618717 1.57479 0
M  V30 33912 C 3164.38 -0.610409 1.93396 0
M  V30 33913 C 3164.71 -1.69859 0.941364 0
M  V30 33914 O 3163.99 -1.94475 -0.030992 0
M  V30 33915 C 3164.27 -1.19658 3.39638 0
M  V30 33916 C 3164.12 -0.115726 4.49651 0
M  V30 33917 C 3165.44 -2.10505 3.86491 0
M  V30 33918 H 3162.56 -0.220424 0.703265 0
M  V30 33919 H 3165.2 0.125819 1.89583 0
M  V30 33920 H 3163.35 -1.82403 3.43018 0
M  V30 33921 H 3165.03 0.516809 4.58396 0
M  V30 33922 H 3163.27 0.554905 4.30236 0
M  V30 33923 H 3163.94 -0.566079 5.4909 0
M  V30 33924 H 3166.42 -1.57708 3.85055 0
M  V30 33925 H 3165.29 -2.48458 4.89449 0
M  V30 33926 H 3165.55 -3.00942 3.23862 0
M  V30 33927 N 3164.61 -1.56173 -0.211607 0
M  V30 33928 C 3165.84 -1.83741 -0.951151 0
M  V30 33929 C 3166.26 -0.642283 -1.77539 0
M  V30 33930 O 3165.61 0.389143 -1.78303 0
M  V30 33931 C 3165.66 -3.09936 -1.86069 0
M  V30 33932 O 3165.38 -4.24839 -1.06976 0
M  V30 33933 C 3166.89 -3.50563 -2.7133 0
M  V30 33934 H 3164.11 -0.610565 -0.278301 0
M  V30 33935 H 3166.65 -2.03271 -0.223836 0
M  V30 33936 H 3164.8 -2.92352 -2.54184 0
M  V30 33937 H 3165.22 -4.96593 -1.68806 0
M  V30 33938 H 3166.69 -4.41873 -3.30835 0
M  V30 33939 H 3167.17 -2.72779 -3.44221 0
M  V30 33940 H 3167.78 -3.70622 -2.08614 0
M  V30 33941 N 3166.09 0.478699 -1.50154 0
M  V30 33942 C 3167.32 1.25479 -1.64507 0
M  V30 33943 C 3167.73 1.85976 -0.325328 0
M  V30 33944 O 3167.09 1.68878 0.691855 0
M  V30 33945 C 3167.14 2.36902 -2.73057 0
M  V30 33946 O 3166.86 1.78887 -3.99914 0
M  V30 33947 C 3168.36 3.27907 -2.98315 0
M  V30 33948 H 3165.58 0.379771 -0.553186 0
M  V30 33949 H 3168.13 0.572255 -1.9633 0
M  V30 33950 H 3166.28 3.00945 -2.43949 0
M  V30 33951 H 3166.7 2.52203 -4.59884 0
M  V30 33952 H 3168.17 4.02317 -3.77949 0
M  V30 33953 H 3168.65 3.86236 -2.09089 0
M  V30 33954 H 3169.25 2.69609 -3.28924 0
M  V30 33955 N 3167.57 1.39603 0.731343 0
M  V30 33956 C 3168.5 1.34519 1.85573 0
M  V30 33957 C 3169.51 0.253316 1.60817 0
M  V30 33958 O 3170.7 0.512535 1.70983 0
M  V30 33959 C 3167.8 1.06682 3.21671 0
M  V30 33960 C 3166.98 2.27217 3.73753 0
M  V30 33961 C 3166.03 1.95781 4.88422 0
M  V30 33962 O 3165.06 2.685 5.01893 0
M  V30 33963 N 3166.26 0.926184 5.73064 0
M  V30 33964 H 3169.03 2.31416 1.90438 0
M  V30 33965 H 3166.59 1.33753 0.912234 0
M  V30 33966 H 3168.58 0.836646 3.95957 0
M  V30 33967 H 3167.15 0.185058 3.12052 0
M  V30 33968 H 3166.37 2.66163 2.90776 0
M  V30 33969 H 3167.66 3.07609 4.05283 0
M  V30 33970 H 3167.06 0.323597 5.64774 0
M  V30 33971 H 3165.61 0.755909 6.47402 0
M  V30 33972 N 3169.05 -0.961916 1.2484 0
M  V30 33973 C 3169.96 -2.09131 1.06308 0
M  V30 33974 C 3170.97 -1.74 0.00224534 0
M  V30 33975 O 3172.15 -2.00388 0.201646 0
M  V30 33976 C 3169.21 -3.40042 0.676177 0
M  V30 33977 C 3168.27 -3.89086 1.81414 0
M  V30 33978 C 3167.51 -5.13749 1.4456 0
M  V30 33979 O 3167.73 -5.69398 0.337994 0
M  V30 33980 O 3166.66 -5.57321 2.27326 0
M  V30 33981 H 3170.49 -2.27663 2.01005 0
M  V30 33982 H 3168.08 -1.07537 1.03712 0
M  V30 33983 H 3169.96 -4.18746 0.472198 0
M  V30 33984 H 3168.63 -3.22797 -0.24161 0
M  V30 33985 H 3167.54 -3.11418 2.07292 0
M  V30 33986 H 3168.87 -4.10817 2.71091 0
M  V30 33987 N 3170.52 -1.06308 -1.16346 0
M  V30 33988 C 3171.45 -0.695273 -2.22909 0
M  V30 33989 C 3172.44 0.312313 -1.67208 0
M  V30 33990 O 3173.62 0.187408 -1.93294 0
M  V30 33991 C 3170.75 -0.0810759 -3.47205 0
M  V30 33992 C 3169.7 -1.01465 -4.15799 0
M  V30 33993 C 3169.03 -0.26375 -5.34049 0
M  V30 33994 C 3170.33 -2.34373 -4.66762 0
M  V30 33995 H 3172.02 -1.58618 -2.53931 0
M  V30 33996 H 3169.57 -0.764111 -1.22055 0
M  V30 33997 H 3171.52 0.188106 -4.2098 0
M  V30 33998 H 3170.25 0.844842 -3.15484 0
M  V30 33999 H 3168.91 -1.26858 -3.43951 0
M  V30 34000 H 3168.55 0.665291 -4.98581 0
M  V30 34001 H 3168.25 -0.885922 -5.80883 0
M  V30 34002 H 3169.78 -0.00211727 -6.106 0
M  V30 34003 H 3171.19 -2.13366 -5.32117 0
M  V30 34004 H 3169.59 -2.92089 -5.24218 0
M  V30 34005 H 3170.66 -2.97433 -3.82964 0
M  V30 34006 N 3172 1.32989 -0.845682 0
M  V30 34007 C 3172.97 2.27371 -0.288945 0
M  V30 34008 C 3173.97 1.51238 0.546236 0
M  V30 34009 O 3175.16 1.7046 0.359042 0
M  V30 34010 C 3172.29 3.35717 0.592181 0
M  V30 34011 H 3173.48 2.78126 -1.12186 0
M  V30 34012 H 3171.03 1.43507 -0.619302 0
M  V30 34013 H 3171.77 2.90215 1.44727 0
M  V30 34014 H 3171.55 3.921 -0.00550147 0
M  V30 34015 H 3173.04 4.06064 0.974776 0
M  V30 34016 N 3173.48 0.60276 1.45618 0
M  V30 34017 C 3174.76 0.0282816 1.9558 0
M  V30 34018 C 3175.14 -1.43823 1.54526 0
M  V30 34019 O 3174.49 -2.13832 0.805493 0
M  V30 34020 C 3174.7 0.221325 3.48298 0
M  V30 34021 C 3176.04 0.0995995 4.24483 0
M  V30 34022 O 3177.07 0.151195 3.55879 0
M  V30 34023 O 3175.93 -0.0193493 5.46497 0
M  V30 34024 H 3173.02 -0.0384752 0.826105 0
M  V30 34025 H 3175.57 0.672484 1.55807 0
M  V30 34026 H 3174.34 1.24003 3.71132 0
M  V30 34027 H 3173.96 -0.458368 3.94949 0
M  V30 34028 N 3174.96 -1.53852 0.341647 0
M  V30 34029 C 3175.92 -2.23601 -0.503502 0
M  V30 34030 C 3176.92 -1.23556 -1.0291 0
M  V30 34031 O 3178.11 -1.48008 -0.918652 0
M  V30 34032 C 3175.24 -2.95418 -1.70121 0
M  V30 34033 H 3176.44 -2.99711 0.106489 0
M  V30 34034 H 3173.99 -1.56023 0.0929682 0
M  V30 34035 H 3174.72 -2.23491 -2.34995 0
M  V30 34036 H 3174.51 -3.68798 -1.33154 0
M  V30 34037 H 3176 -3.48507 -2.3007 0
M  V30 34038 N 3176.44 -0.0702223 -1.57443 0
M  V30 34039 C 3177.68 0.602926 -1.95305 0
M  V30 34040 C 3178.04 1.66872 -0.949622 0
M  V30 34041 O 3179.24 2.3973 -1.21584 0
M  V30 34042 C 3177.51 1.16634 -3.37833 0
M  V30 34043 S 3179.07 1.85483 -3.9767 0
M  V30 34044 H 3175.89 0.197464 -0.683029 0
M  V30 34045 H 3178.49 -0.143704 -1.94971 0
M  V30 34046 H 3177.2 0.378784 -4.08648 0
M  V30 34047 H 3176.73 1.94936 -3.41707 0
M  V30 34048 H 3178.74 3.13712 -3.84446 0
M  V30 34049 N 3177.91 1.56283 0.203321 0
M  V30 34050 C 3179.19 1.70959 0.950385 0
M  V30 34051 C 3179.57 0.622683 2.01707 0
M  V30 34052 O 3178.92 -0.367595 2.25524 0
M  V30 34053 C 3179.13 3.12974 1.54428 0
M  V30 34054 C 3180.48 3.72953 2.02957 0
M  V30 34055 O 3181.5 3.16051 1.64287 0
M  V30 34056 O 3180.36 4.72798 2.74089 0
M  V30 34057 H 3177.45 0.696978 0.445141 0
M  V30 34058 H 3180 1.68591 0.193666 0
M  V30 34059 H 3178.77 3.83549 0.774983 0
M  V30 34060 H 3178.4 3.19536 2.36606 0
M  V30 34061 N 3179.39 -0.470729 1.50406 0
M  V30 34062 C 3180.33 -1.58746 1.63936 0
M  V30 34063 C 3181.3 -1.55121 0.487472 0
M  V30 34064 O 3182.49 -1.74738 0.707022 0
M  V30 34065 C 3179.62 -2.97321 1.62227 0
M  V30 34066 C 3178.66 -3.19099 2.82981 0
M  V30 34067 S 3179.49 -2.98961 4.44278 0
M  V30 34068 C 3180.65 -4.39878 4.45262 0
M  V30 34069 H 3180.88 -1.47029 2.58398 0
M  V30 34070 H 3178.42 -0.658091 1.39673 0
M  V30 34071 H 3180.37 -3.77214 1.61926 0
M  V30 34072 H 3179.04 -3.06428 0.689998 0
M  V30 34073 H 3178.23 -4.20335 2.7809 0
M  V30 34074 H 3177.83 -2.46979 2.80851 0
M  V30 34075 H 3180.12 -5.32516 4.18847 0
M  V30 34076 H 3181.07 -4.49811 5.46878 0
M  V30 34077 H 3181.47 -4.21973 3.74965 0
M  V30 34078 N 3180.87 -1.39989 -0.72393 0
M  V30 34079 C 3182.1 -1.41112 -1.51311 0
M  V30 34080 C 3182.51 -0.00856652 -1.88798 0
M  V30 34081 O 3181.87 0.965488 -1.5487 0
M  V30 34082 C 3181.92 -2.29421 -2.79371 0
M  V30 34083 O 3181.64 -3.64216 -2.43472 0
M  V30 34084 C 3183.14 -2.39046 -3.73325 0
M  V30 34085 H 3180.36 -0.481597 -0.467231 0
M  V30 34086 H 3182.91 -1.8394 -0.893662 0
M  V30 34087 H 3181.06 -1.89977 -3.3762 0
M  V30 34088 H 3181.48 -4.1103 -3.25814 0
M  V30 34089 H 3182.95 -3.05061 -4.60045 0
M  V30 34090 H 3183.43 -1.41296 -4.15851 0
M  V30 34091 H 3184.03 -2.79007 -3.20991 0
M  V30 34092 N 3182.35 0.955282 -1.25348 0
M  V30 34093 C 3183.6 1.69419 -1.09453 0
M  V30 34094 C 3183.91 1.92175 0.364425 0
M  V30 34095 O 3185.12 2.63757 0.643797 0
M  V30 34096 C 3183.57 3.05005 -1.9105 0
M  V30 34097 C 3183.18 2.90047 -3.41433 0
M  V30 34098 C 3184.93 3.82683 -1.83723 0
M  V30 34099 C 3182.83 4.21019 -4.15328 0
M  V30 34100 H 3181.76 0.635365 -0.405989 0
M  V30 34101 H 3184.41 1.06351 -1.49538 0
M  V30 34102 H 3182.8 3.68973 -1.43788 0
M  V30 34103 H 3183.97 2.35015 -3.96364 0
M  V30 34104 H 3182.28 2.25824 -3.49846 0
M  V30 34105 H 3184.88 4.79689 -2.36225 0
M  V30 34106 H 3185.22 4.08443 -0.804991 0
M  V30 34107 H 3185.76 3.25464 -2.28732 0
M  V30 34108 H 3182.5 4.00448 -5.18962 0
M  V30 34109 H 3182.02 4.75819 -3.6518 0
M  V30 34110 H 3183.7 4.89565 -4.23008 0
M  V30 34111 N 3183.83 1.06924 1.1578 0
M  V30 34112 C 3184.74 0.696988 2.24007 0
M  V30 34113 C 3185.75 -0.289832 1.71569 0
M  V30 34114 O 3186.93 -0.13755 2.0093 0
M  V30 34115 C 3183.99 0.0958504 3.46567 0
M  V30 34116 C 3183.06 1.13535 4.14015 0
M  V30 34117 C 3182.29 0.562806 5.30724 0
M  V30 34118 O 3182.51 -0.62249 5.66993 0
M  V30 34119 O 3181.45 1.30559 5.87569 0
M  V30 34120 H 3185.27 1.59942 2.58171 0
M  V30 34121 H 3182.86 0.84191 1.23419 0
M  V30 34122 H 3184.74 -0.237333 4.20731 0
M  V30 34123 H 3183.41 -0.779972 3.14163 0
M  V30 34124 H 3182.32 1.52082 3.41792 0
M  V30 34125 H 3183.65 1.98292 4.5049 0
M  V30 34126 N 3185.31 -1.32538 0.852723 0
M  V30 34127 C 3186.22 -2.3269 0.298785 0
M  V30 34128 C 3187.23 -1.63964 -0.582389 0
M  V30 34129 O 3188.41 -1.95517 -0.483219 0
M  V30 34130 C 3185.47 -3.42997 -0.505393 0
M  V30 34131 C 3184.53 -4.27417 0.401693 0
M  V30 34132 C 3183.77 -5.32456 -0.3642 0
M  V30 34133 O 3183.99 -5.47664 -1.59438 0
M  V30 34134 O 3182.92 -6.01299 0.268998 0
M  V30 34135 H 3186.75 -2.81956 1.12848 0
M  V30 34136 H 3184.33 -1.36127 0.615608 0
M  V30 34137 H 3186.22 -4.10275 -0.961902 0
M  V30 34138 H 3184.89 -2.95923 -1.31192 0
M  V30 34139 H 3183.8 -3.62955 0.906337 0
M  V30 34140 H 3185.13 -4.7801 1.17335 0
M  V30 34141 N 3186.78 -0.610474 -1.45296 0
M  V30 34142 C 3187.72 0.155597 -2.27669 0
M  V30 34143 C 3188.69 0.870912 -1.37309 0
M  V30 34144 O 3189.88 0.879199 -1.6674 0
M  V30 34145 C 3187.01 1.22554 -3.1575 0
M  V30 34146 C 3186.05 0.613041 -4.22071 0
M  V30 34147 S 3186.88 -0.581277 -5.32336 0
M  V30 34148 C 3188.04 0.489188 -6.23985 0
M  V30 34149 H 3188.27 -0.543257 -2.92294 0
M  V30 34150 H 3185.81 -0.39807 -1.4918 0
M  V30 34151 H 3187.76 1.83798 -3.67054 0
M  V30 34152 H 3186.43 1.89648 -2.50385 0
M  V30 34153 H 3185.62 1.41818 -4.83636 0
M  V30 34154 H 3185.22 0.0756824 -3.73923 0
M  V30 34155 H 3187.51 1.36747 -6.63556 0
M  V30 34156 H 3188.46 -0.09037 -7.08042 0
M  V30 34157 H 3188.86 0.805813 -5.58719 0
M  V30 34158 N 3188.26 1.53669 -0.349801 0
M  V30 34159 C 3189.17 2.28936 0.512381 0
M  V30 34160 C 3190.19 1.34287 1.10648 0
M  V30 34161 O 3191.36 1.67331 1.12081 0
M  V30 34162 C 3188.43 3.0522 1.64444 0
M  V30 34163 C 3187.49 4.15506 1.07949 0
M  V30 34164 C 3186.72 4.88143 2.15759 0
M  V30 34165 O 3186.95 4.60502 3.36592 0
M  V30 34166 O 3185.88 5.74448 1.79702 0
M  V30 34167 H 3189.71 3.03536 -0.0996534 0
M  V30 34168 H 3187.29 1.48959 -0.114655 0
M  V30 34169 H 3189.17 3.52905 2.30296 0
M  V30 34170 H 3187.85 2.33471 2.24216 0
M  V30 34171 H 3186.75 3.7211 0.385316 0
M  V30 34172 H 3188.09 4.89376 0.526535 0
M  V30 34173 N 3189.74 0.0785709 1.57404 0
M  V30 34174 C 3190.96 -0.601257 1.98493 0
M  V30 34175 C 3191.39 -1.61944 0.956861 0
M  V30 34176 O 3190.75 -1.81138 -0.0767184 0
M  V30 34177 C 3190.8 -1.2403 3.38599 0
M  V30 34178 O 3189.9 -2.35616 3.38465 0
M  V30 34179 H 3189.24 -0.154042 0.645885 0
M  V30 34180 H 3191.77 0.155092 2.04011 0
M  V30 34181 H 3191.78 -1.58554 3.75932 0
M  V30 34182 H 3190.46 -0.494269 4.12953 0
M  V30 34183 H 3189.03 -2.02835 3.1291 0
M  V30 34184 N 3191.22 -1.56389 -0.19503 0
M  V30 34185 C 3192.18 -1.93694 -1.22537 0
M  V30 34186 C 3193.18 -0.818064 -1.38435 0
M  V30 34187 O 3194.37 -1.08548 -1.36246 0
M  V30 34188 C 3191.5 -2.21104 -2.59472 0
M  V30 34189 H 3192.7 -2.85872 -0.906494 0
M  V30 34190 H 3190.25 -1.5008 -0.436551 0
M  V30 34191 H 3190.98 -1.31564 -2.96414 0
M  V30 34192 H 3190.77 -3.02638 -2.49304 0
M  V30 34193 H 3192.26 -2.5097 -3.33772 0
M  V30 34194 N 3192.7 0.462746 -1.50653 0
M  V30 34195 C 3193.66 1.5421 -1.69564 0
M  V30 34196 C 3194.66 1.50504 -0.566132 0
M  V30 34197 O 3195.85 1.52976 -0.8333 0
M  V30 34198 C 3192.98 2.93823 -1.72861 0
M  V30 34199 H 3194.17 1.38757 -2.65869 0
M  V30 34200 H 3191.73 0.689703 -1.4026 0
M  V30 34201 H 3192.46 3.14711 -0.782785 0
M  V30 34202 H 3192.25 2.97919 -2.54925 0
M  V30 34203 H 3193.74 3.7217 -1.89417 0
M  V30 34204 N 3194.17 1.40371 0.716495 0
M  V30 34205 C 3195.45 1.29099 1.46945 0
M  V30 34206 C 3195.83 -0.0910811 2.10903 0
M  V30 34207 O 3195.18 -1.10382 2.0007 0
M  V30 34208 C 3195.39 2.42911 2.5059 0
M  V30 34209 C 3196.74 2.83102 3.16446 0
M  V30 34210 O 3197.76 2.42497 2.60909 0
M  V30 34211 O 3196.62 3.53251 4.16984 0
M  V30 34212 H 3193.71 0.506944 0.653404 0
M  V30 34213 H 3196.26 1.52289 0.748747 0
M  V30 34214 H 3195.03 3.35227 2.01837 0
M  V30 34215 H 3194.66 2.21487 3.30196 0
M  V30 34216 N 3195.65 -0.948621 1.25853 0
M  V30 34217 C 3196.6 -2.06754 1.06562 0
M  V30 34218 C 3197.59 -1.69399 -0.00525654 0
M  V30 34219 O 3198.8 -1.79367 0.150837 0
M  V30 34220 H 3195.18 -0.676843 0.327701 0
M  V30 34221 H 3197.15 -2.20178 2.01405 0
M  V30 34222 C 3195.9 -3.40427 0.707452 0
M  V30 34223 H 3195.22 -3.69642 1.52331 0
M  V30 34224 H 3196.66 -4.19557 0.612216 0
M  V30 34225 C 3195.12 -3.31748 -0.586912 0
M  V30 34226 O 3195.65 -3.67261 -1.62734 0
M  V30 34227 N 3193.85 -2.84859 -0.574778 0
M  V30 34228 H 3193.4 -2.56157 0.272281 0
M  V30 34229 H 3193.36 -2.79435 -1.44096 0
M  V30 34230 N 3197.13 -1.07536 -1.15212 0
M  V30 34231 C 3198.38 -0.794649 -1.85387 0
M  V30 34232 C 3198.69 0.681806 -1.83332 0
M  V30 34233 O 3199.9 1.07736 -2.49209 0
M  V30 34234 C 3198.35 -1.37147 -3.32744 0
M  V30 34235 C 3197.96 -2.87908 -3.43239 0
M  V30 34236 C 3199.71 -1.16886 -4.08091 0
M  V30 34237 C 3197.61 -3.38771 -4.84756 0
M  V30 34238 H 3196.54 -0.293589 -0.694494 0
M  V30 34239 H 3199.19 -1.29566 -1.29941 0
M  V30 34240 H 3197.58 -0.798189 -3.87872 0
M  V30 34241 H 3198.75 -3.51296 -2.98208 0
M  V30 34242 H 3197.07 -3.0698 -2.8134 0
M  V30 34243 H 3199.66 -1.52362 -5.12533 0
M  V30 34244 H 3200.01 -0.108031 -4.1616 0
M  V30 34245 H 3200.54 -1.7086 -3.59238 0
M  V30 34246 H 3197.28 -4.44388 -4.81871 0
M  V30 34247 H 3196.8 -2.80137 -5.30361 0
M  V30 34248 H 3198.48 -3.34837 -5.53618 0
M  V30 34249 N 3198.61 1.32084 -0.85974 0
M  V30 34250 C 3199.54 2.31248 -0.323543 0
M  V30 34251 C 3200.52 1.59904 0.580057 0
M  V30 34252 O 3201.7 1.87673 0.499232 0
M  V30 34253 C 3198.83 3.43902 0.4846 0
M  V30 34254 C 3197.79 4.26764 -0.325008 0
M  V30 34255 C 3197.11 5.3123 0.608187 0
M  V30 34256 C 3198.41 4.98661 -1.55353 0
M  V30 34257 H 3200.11 2.76344 -1.15214 0
M  V30 34258 H 3197.65 1.32855 -0.555465 0
M  V30 34259 H 3199.61 4.12318 0.870166 0
M  V30 34260 H 3198.33 2.97547 1.34661 0
M  V30 34261 H 3196.99 3.60002 -0.692391 0
M  V30 34262 H 3196.64 4.81126 1.46719 0
M  V30 34263 H 3196.34 5.87558 0.0704538 0
M  V30 34264 H 3197.86 6.02507 0.990819 0
M  V30 34265 H 3199.28 5.5973 -1.23997 0
M  V30 34266 H 3197.67 5.64737 -2.02957 0
M  V30 34267 H 3198.74 4.26233 -2.312 0
M  V30 34268 N 3200.09 0.618171 1.4497 0
M  V30 34269 C 3201.31 0.122432 2.07038 0
M  V30 34270 C 3201.74 -1.1885 1.45795 0
M  V30 34271 O 3201.09 -1.7261 0.55456 0
M  V30 34272 C 3201.14 0.00744978 3.60599 0
M  V30 34273 O 3200.25 -1.04 3.99071 0
M  V30 34274 H 3199.59 0.0788731 0.659299 0
M  V30 34275 H 3202.12 0.85118 1.86054 0
M  V30 34276 H 3202.13 -0.187345 4.0757 0
M  V30 34277 H 3200.8 0.964616 4.04559 0
M  V30 34278 H 3199.38 -0.820815 3.63754 0
M  V30 34279 N 3201.56 -1.53481 0.357946 0
M  V30 34280 C 3202.81 -2.00745 -0.233665 0
M  V30 34281 C 3203.13 -1.24713 -1.49905 0
M  V30 34282 O 3202.4 -0.358269 -1.92596 0
M  V30 34283 H 3200.98 -0.741639 -0.0893343 0
M  V30 34284 H 3203.65 -1.88835 0.482421 0
M  V30 34285 H 3202.74 -3.08601 -0.466019 0
M  V30 34286 N 3203.04 -0.0869173 -1.5736 0
M  V30 34287 C 3204.29 0.577564 -1.93671 0
M  V30 34288 C 3204.61 1.69227 -0.968874 0
M  V30 34289 O 3203.88 1.9589 -0.0195405 0
M  V30 34290 H 3202.46 0.21634 -0.714987 0
M  V30 34291 H 3205.12 -0.148329 -1.94335 0
M  V30 34292 H 3204.22 0.993076 -2.95879 0
M  V30 34293 N 3204.52 1.5649 0.186734 0
M  V30 34294 C 3205.48 1.94341 1.21508 0
M  V30 34295 C 3206.48 0.825394 1.38 0
M  V30 34296 O 3207.67 1.09269 1.35669 0
M  V30 34297 C 3204.81 2.22477 2.58296 0
M  V30 34298 H 3206 2.86349 0.891321 0
M  V30 34299 H 3203.55 1.50309 0.428586 0
M  V30 34300 H 3204.29 1.33134 2.95713 0
M  V30 34301 H 3204.07 3.03956 2.47696 0
M  V30 34302 H 3205.56 2.52736 3.32437 0
M  V30 34303 N 3206 -0.45475 1.50897 0
M  V30 34304 C 3207.41 -1.03517 1.55374 0
M  V30 34305 C 3207.76 -1.9274 0.366856 0
M  V30 34306 O 3206.89 -2.10099 -0.518407 0
M  V30 34307 C 3207.48 -1.88413 2.81578 0
M  V30 34308 C 3206.04 -2.41535 2.88683 0
M  V30 34309 C 3205.19 -1.20293 2.4985 0
M  V30 34310 H 3208.14 -0.236701 1.56925 0
M  V30 34311 H 3208.16 -2.73671 2.64357 0
M  V30 34312 H 3207.67 -1.23449 3.67943 0
M  V30 34313 H 3205.77 -3.10004 2.06708 0
M  V30 34314 H 3205.88 -2.75524 3.91948 0
M  V30 34315 H 3204.25 -1.54285 2.02653 0
M  V30 34316 H 3205.03 -0.569664 3.38541 0
M  V30 34317 N 3207.48 -1.40749 -0.709041 0
M  V30 34318 C 3208.41 -1.37454 -1.83409 0
M  V30 34319 C 3209.42 -0.278868 -1.60394 0
M  V30 34320 O 3210.61 -0.539672 -1.70146 0
M  V30 34321 C 3207.71 -1.11786 -3.19933 0
M  V30 34322 C 3206.88 -2.33135 -3.7009 0
M  V30 34323 C 3205.94 -2.03527 -4.85246 0
M  V30 34324 O 3204.97 -2.76451 -4.97558 0
M  V30 34325 N 3206.17 -1.01724 -5.71518 0
M  V30 34326 H 3208.94 -2.34417 -1.86732 0
M  V30 34327 H 3206.5 -1.35187 -0.89084 0
M  V30 34328 H 3208.49 -0.899534 -3.94576 0
M  V30 34329 H 3207.06 -0.234679 -3.11718 0
M  V30 34330 H 3206.28 -2.70756 -2.86505 0
M  V30 34331 H 3207.57 -3.14017 -4.00338 0
M  V30 34332 H 3206.96 -0.413406 -5.64187 0
M  V30 34333 H 3205.52 -0.858809 -6.46117 0
M  V30 34334 N 3208.96 0.941933 -1.26354 0
M  V30 34335 C 3210.18 1.72774 -1.14734 0
M  V30 34336 C 3210.61 1.85792 0.293733 0
M  V30 34337 O 3209.96 1.34761 1.21281 0
M  V30 34338 C 3210.01 3.11274 -1.82046 0
M  V30 34339 O 3209.12 3.97216 -1.10874 0
M  V30 34340 H 3208.46 0.530123 -0.399832 0
M  V30 34341 H 3210.99 1.17978 -1.6716 0
M  V30 34342 H 3211 3.61668 -1.8884 0
M  V30 34343 H 3209.67 3.01115 -2.86884 0
M  V30 34344 H 3208.25 3.55667 -1.12051 0
M  V30 34345 N 3210.43 1.08146 1.1464 0
M  V30 34346 C 3211.84 0.830953 1.67189 0
M  V30 34347 C 3212.2 -0.642716 1.85374 0
M  V30 34348 O 3211.32 -1.49669 1.56295 0
M  V30 34349 C 3211.92 1.50184 3.03694 0
M  V30 34350 C 3210.47 1.29864 3.53288 0
M  V30 34351 C 3209.62 1.56634 2.28825 0
M  V30 34352 H 3212.57 1.24241 0.987419 0
M  V30 34353 H 3212.59 0.927565 3.69021 0
M  V30 34354 H 3212.11 2.57437 2.90427 0
M  V30 34355 H 3210.21 0.246691 3.71782 0
M  V30 34356 H 3210.32 2.02444 4.34227 0
M  V30 34357 H 3208.68 0.987757 2.34767 0
M  V30 34358 H 3209.47 2.65088 2.18136 0
M  V30 34359 N 3211.91 -1.31626 0.866732 0
M  V30 34360 C 3212.86 -2.30536 0.309168 0
M  V30 34361 C 3213.85 -1.59379 -0.574 0
M  V30 34362 O 3215.06 -1.74011 -0.460461 0
M  V30 34363 H 3211.43 -0.747593 0.0812921 0
M  V30 34364 H 3213.41 -2.7504 1.15739 0
M  V30 34365 C 3212.15 -3.44409 -0.477227 0
M  V30 34366 H 3211.48 -3.99333 0.19308 0
M  V30 34367 H 3212.92 -4.15742 -0.832745 0
M  V30 34368 C 3211.38 -2.92755 -1.66722 0
M  V30 34369 O 3211.91 -2.91253 -2.76649 0
M  V30 34370 N 3210.11 -2.48998 -1.49828 0
M  V30 34371 H 3209.66 -2.50418 -0.604029 0
M  V30 34372 H 3209.62 -2.14792 -2.2959 0
M  V30 34373 N 3213.39 -0.62585 -1.4464 0
M  V30 34374 C 3214.64 -0.127983 -2.01694 0
M  V30 34375 C 3214.96 1.25269 -1.49441 0
M  V30 34376 O 3214.23 1.83123 -0.695906 0
M  V30 34377 H 3212.81 -0.0443228 -0.745684 0
M  V30 34378 H 3215.47 -0.811364 -1.77209 0
M  V30 34379 H 3214.57 -0.0916481 -3.11965 0
M  V30 34380 N 3214.87 1.53289 -0.36608 0
M  V30 34381 C 3215.83 2.24374 0.467865 0
M  V30 34382 C 3216.83 1.25178 1.00932 0
M  V30 34383 O 3218.02 1.49451 0.894989 0
M  V30 34384 C 3215.15 2.98087 1.65399 0
M  V30 34385 H 3216.35 2.99504 -0.154157 0
M  V30 34386 H 3213.9 1.55856 -0.117778 0
M  V30 34387 H 3214.63 2.27201 2.31409 0
M  V30 34388 H 3214.42 3.7087 1.2727 0
M  V30 34389 H 3215.91 3.52123 2.24497 0
M  V30 34390 N 3216.35 0.0952613 1.57312 0
M  V30 34391 C 3217.28 -0.860715 2.17057 0
M  V30 34392 C 3218.26 -1.29409 1.10396 0
M  V30 34393 O 3219.44 -1.36095 1.38534 0
M  V30 34394 C 3216.57 -2.11979 2.75104 0
M  V30 34395 C 3215.53 -1.82503 3.87139 0
M  V30 34396 C 3214.85 -3.1524 4.31889 0
M  V30 34397 C 3216.15 -1.11185 5.10328 0
M  V30 34398 H 3217.85 -0.362931 2.97192 0
M  V30 34399 H 3215.39 -0.173126 1.42955 0
M  V30 34400 H 3217.34 -2.79293 3.15552 0
M  V30 34401 H 3216.07 -2.64041 1.92224 0
M  V30 34402 H 3214.73 -1.17586 3.47231 0
M  V30 34403 H 3214.38 -3.65189 3.45899 0
M  V30 34404 H 3214.08 -2.963 5.07425 0
M  V30 34405 H 3215.6 -3.83712 4.74971 0
M  V30 34406 H 3217.01 -1.6861 5.47945 0
M  V30 34407 H 3215.41 -1.02424 5.91295 0
M  V30 34408 H 3216.48 -0.0946374 4.84808 0
M  V30 34409 N 3217.82 -1.56587 -0.178432 0
M  V30 34410 C 3218.75 -1.98886 -1.22338 0
M  V30 34411 C 3219.73 -0.863336 -1.46562 0
M  V30 34412 O 3220.92 -1.1289 -1.58017 0
M  V30 34413 C 3218.05 -2.34266 -2.56392 0
M  V30 34414 C 3217 -3.49712 -2.4675 0
M  V30 34415 C 3216.33 -3.70814 -3.85229 0
M  V30 34416 C 3217.63 -4.83385 -1.97829 0
M  V30 34417 H 3219.32 -2.86426 -0.871798 0
M  V30 34418 H 3216.87 -1.37802 -0.417924 0
M  V30 34419 H 3218.82 -2.62454 -3.29691 0
M  V30 34420 H 3217.55 -1.43627 -2.93324 0
M  V30 34421 H 3216.21 -3.21641 -1.75906 0
M  V30 34422 H 3215.85 -2.77477 -4.19542 0
M  V30 34423 H 3215.55 -4.48488 -3.79648 0
M  V30 34424 H 3217.08 -4.01395 -4.60124 0
M  V30 34425 H 3218.49 -5.10495 -2.60897 0
M  V30 34426 H 3216.89 -5.64646 -2.03213 0
M  V30 34427 H 3217.96 -4.75854 -0.932255 0
M  V30 34428 N 3219.3 0.446741 -1.51136 0
M  V30 34429 C 3220.71 1.02691 -1.55921 0
M  V30 34430 C 3221.06 1.92542 -0.377072 0
M  V30 34431 O 3220.19 2.10371 0.507258 0
M  V30 34432 C 3220.78 1.86917 -2.82573 0
M  V30 34433 C 3219.34 2.4 -2.8996 0
M  V30 34434 C 3218.49 1.18967 -2.50484 0
M  V30 34435 H 3221.44 0.228376 -1.57048 0
M  V30 34436 H 3221.46 2.72265 -2.65804 0
M  V30 34437 H 3220.97 1.21496 -3.68592 0
M  V30 34438 H 3219.07 3.08904 -2.08349 0
M  V30 34439 H 3219.19 2.73441 -3.93404 0
M  V30 34440 H 3217.55 1.53208 -2.03469 0
M  V30 34441 H 3218.33 0.551702 -3.38838 0
M  V30 34442 N 3220.78 1.41123 0.701567 0
M  V30 34443 C 3222.03 1.40158 1.46157 0
M  V30 34444 C 3222.35 0.00864972 1.94498 0
M  V30 34445 O 3221.61 -0.978422 1.69486 0
M  V30 34446 C 3221.91 2.34977 2.69296 0
M  V30 34447 C 3221.57 3.81944 2.39645 0
M  V30 34448 C 3220.24 4.21981 2.31269 0
M  V30 34449 C 3222.59 4.74758 2.15067 0
M  V30 34450 C 3219.92 5.5285 1.96403 0
M  V30 34451 C 3222.27 6.0594 1.81711 0
M  V30 34452 C 3220.93 6.45005 1.71826 0
M  V30 34453 H 3220.2 0.512874 0.534828 0
M  V30 34454 H 3222.85 1.73879 0.802394 0
M  V30 34455 H 3221.15 1.9449 3.40119 0
M  V30 34456 H 3222.85 2.31507 3.27423 0
M  V30 34457 H 3219.44 3.5023 2.47057 0
M  V30 34458 H 3223.63 4.44634 2.20487 0
M  V30 34459 H 3218.88 5.82005 1.87298 0
M  V30 34460 H 3223.06 6.77364 1.61711 0
M  V30 34461 H 3220.68 7.46325 1.44578 0
M  V30 34462 N 3222.26 -0.935219 1.26852 0
M  V30 34463 C 3223.5 -1.68458 1.12915 0
M  V30 34464 C 3223.84 -1.9145 -0.325674 0
M  V30 34465 O 3223.11 -1.49946 -1.23881 0
M  V30 34466 C 3223.39 -3.05573 1.90518 0
M  V30 34467 C 3223.25 -2.8987 3.43941 0
M  V30 34468 C 3224.57 -4.05786 1.7037 0
M  V30 34469 H 3221.69 -0.611375 0.41157 0
M  V30 34470 H 3224.33 -1.08579 1.55919 0
M  V30 34471 H 3222.48 -3.56687 1.5397 0
M  V30 34472 H 3224.15 -2.45932 3.90276 0
M  V30 34473 H 3222.39 -2.25369 3.70663 0
M  V30 34474 H 3223.06 -3.87146 3.93474 0
M  V30 34475 H 3225.54 -3.63655 2.02223 0
M  V30 34476 H 3224.42 -4.99728 2.27074 0
M  V30 34477 H 3224.68 -4.37299 0.649751 0
M  V30 34478 N 3223.74 -1.08752 -1.14065 0
M  V30 34479 C 3224.68 -0.715234 -2.2133 0
M  V30 34480 C 3225.68 0.28065 -1.67059 0
M  V30 34481 O 3226.88 0.142842 -1.79432 0
M  V30 34482 H 3223.26 -0.213277 -0.721122 0
M  V30 34483 H 3225.23 -1.62921 -2.49999 0
M  V30 34484 C 3223.98 -0.144462 -3.474 0
M  V30 34485 H 3223.3 -0.901953 -3.89493 0
M  V30 34486 H 3224.74 0.0781819 -4.23928 0
M  V30 34487 C 3223.2 1.11856 -3.17789 0
M  V30 34488 O 3223.73 2.20289 -3.3591 0
M  V30 34489 N 3221.94 1.03034 -2.71721 0
M  V30 34490 H 3221.48 0.147885 -2.57175 0
M  V30 34491 H 3221.44 1.87617 -2.52284 0
M  V30 34492 N 3225.21 1.31165 -0.873701 0
M  V30 34493 C 3226.45 1.98364 -0.493041 0
M  V30 34494 C 3226.82 1.67531 0.937943 0
M  V30 34495 O 3228.02 2.27973 1.42415 0
M  V30 34496 C 3226.29 3.49502 -0.747189 0
M  V30 34497 S 3227.85 4.36308 -0.466946 0
M  V30 34498 H 3224.67 0.686807 -0.183894 0
M  V30 34499 H 3227.27 1.59497 -1.13053 0
M  V30 34500 H 3225.97 3.69433 -1.78738 0
M  V30 34501 H 3225.5 3.93281 -0.0968302 0
M  V30 34502 H 3227.52 4.91249 0.699212 0
M  V30 34503 N 3226.69 0.633512 1.44307 0
M  V30 34504 C 3228.11 0.299338 1.56768 0
M  V30 34505 C 3228.31 -1.19741 1.62063 0
M  V30 34506 O 3227.36 -1.98155 1.56496 0
M  V30 34507 C 3228.68 0.993357 2.83818 0
M  V30 34508 C 3230.23 0.971727 2.97534 0
M  V30 34509 C 3230.7 1.64626 4.2739 0
M  V30 34510 N 3232.19 1.61296 4.34209 0
M  V30 34511 C 3232.93 2.10379 5.33412 0
M  V30 34512 N 3232.42 2.67664 6.39005 0
M  V30 34513 N 3234.22 2.00994 5.24936 0
M  V30 34514 H 3226.37 1.60504 1.39113 0
M  V30 34515 H 3228.63 0.673863 0.666792 0
M  V30 34516 H 3228.34 2.04829 2.85899 0
M  V30 34517 H 3228.21 0.532603 3.73421 0
M  V30 34518 H 3230.6 -0.0747335 2.95005 0
M  V30 34519 H 3230.68 1.47099 2.09274 0
M  V30 34520 H 3230.32 2.69218 4.30679 0
M  V30 34521 H 3230.25 1.1218 5.14513 0
M  V30 34522 H 3232.74 1.19474 3.58517 0
M  V30 34523 H 3233.06 3.02844 7.10989 0
M  V30 34524 H 3231.4 2.71716 6.39684 0
M  V30 34525 H 3234.59 1.55961 4.41355 0
M  V30 34526 H 3234.76 2.39557 6.02093 0
M  V30 34527 N 3228.17 -1.53093 0.374204 0
M  V30 34528 C 3229.45 -1.93733 -0.269597 0
M  V30 34529 C 3229.83 -1.30846 -1.65658 0
M  V30 34530 O 3229.18 -0.470799 -2.23597 0
M  V30 34531 C 3229.39 -3.4761 -0.311143 0
M  V30 34532 C 3230.73 -4.21057 -0.547358 0
M  V30 34533 O 3231.76 -3.54037 -0.39199 0
M  V30 34534 O 3230.62 -5.39841 -0.85055 0
M  V30 34535 H 3227.71 -0.810635 -0.163709 0
M  V30 34536 H 3230.26 -1.64224 0.427615 0
M  V30 34537 H 3229.03 -3.85677 0.660965 0
M  V30 34538 H 3228.65 -3.83378 -1.0539 0
M  V30 34539 N 3229.65 -0.103603 -1.57259 0
M  V30 34540 C 3230.61 0.837822 -2.13338 0
M  V30 34541 C 3231.61 1.2051 -1.06461 0
M  V30 34542 O 3232.8 1.13313 -1.32309 0
M  V30 34543 C 3229.93 2.13085 -2.66097 0
M  V30 34544 H 3231.13 0.350723 -2.97842 0
M  V30 34545 H 3228.68 0.145484 -1.55621 0
M  V30 34546 H 3229.41 2.6626 -1.85137 0
M  V30 34547 H 3229.2 1.87713 -3.44248 0
M  V30 34548 H 3230.69 2.80413 -3.09448 0
M  V30 34549 N 3231.13 1.56679 0.170126 0
M  V30 34550 C 3232.37 1.81702 0.884809 0
M  V30 34551 C 3232.7 0.680795 1.8273 0
M  V30 34552 O 3231.97 -0.29926 1.93601 0
M  V30 34553 H 3230.55 0.670291 0.329726 0
M  V30 34554 H 3233.21 1.9416 0.169657 0
M  V30 34555 H 3232.3 2.75792 1.46099 0
M  V30 34556 N 3232.6 -0.43872 1.5137 0
M  V30 34557 C 3233.54 -1.55071 1.68777 0
M  V30 34558 C 3234.55 -1.52553 0.568462 0
M  V30 34559 O 3235.74 -1.57354 0.842734 0
M  V30 34560 C 3232.84 -2.93987 1.68597 0
M  V30 34561 C 3232.01 -3.21025 2.97089 0
M  V30 34562 C 3231.07 -4.39657 2.89115 0
M  V30 34563 O 3230.1 -4.38379 3.6306 0
M  V30 34564 N 3231.3 -5.43146 2.04872 0
M  V30 34565 H 3234.06 -1.40544 2.64702 0
M  V30 34566 H 3231.62 -0.627637 1.49239 0
M  V30 34567 H 3233.62 -3.71369 1.60832 0
M  V30 34568 H 3232.19 -3.02118 0.80271 0
M  V30 34569 H 3231.41 -2.31955 3.18733 0
M  V30 34570 H 3232.69 -3.35916 3.82149 0
M  V30 34571 H 3232.09 -5.47021 1.44169 0
M  V30 34572 H 3230.65 -6.19386 2.02988 0
M  V30 34573 N 3234.08 -1.41493 -0.694073 0
M  V30 34574 C 3235.36 -1.31421 -1.44872 0
M  V30 34575 C 3235.74 0.0575167 -2.11022 0
M  V30 34576 O 3235.09 1.07185 -2.01801 0
M  V30 34577 C 3235.3 -2.46867 -2.46693 0
M  V30 34578 C 3236.65 -2.88101 -3.11902 0
M  V30 34579 O 3237.67 -2.46618 -2.57018 0
M  V30 34580 O 3236.53 -3.5984 -4.11312 0
M  V30 34581 H 3233.62 -0.517274 -0.645257 0
M  V30 34582 H 3236.17 -1.53461 -0.724425 0
M  V30 34583 H 3234.94 -3.38396 -1.96479 0
M  V30 34584 H 3234.56 -2.26712 -3.2663 0
M  V30 34585 N 3235.56 0.928479 -1.27346 0
M  V30 34586 C 3236.98 1.20428 -1.04734 0
M  V30 34587 C 3237.18 2.003 0.219587 0
M  V30 34588 O 3236.23 2.34935 0.925292 0
M  V30 34589 C 3237.55 1.95319 -2.28628 0
M  V30 34590 C 3239.09 2.08261 -2.33659 0
M  V30 34591 C 3239.57 2.86557 -3.5728 0
M  V30 34592 N 3241.06 2.94125 -3.57833 0
M  V30 34593 C 3241.79 3.55169 -4.50158 0
M  V30 34594 N 3241.29 4.17611 -5.52787 0
M  V30 34595 N 3243.08 3.52565 -4.37783 0
M  V30 34596 H 3235.23 0.394855 -2.08698 0
M  V30 34597 H 3237.5 0.237284 -0.917824 0
M  V30 34598 H 3237.2 1.44048 -3.20847 0
M  V30 34599 H 3237.08 2.95937 -2.33883 0
M  V30 34600 H 3239.46 2.58719 -1.41946 0
M  V30 34601 H 3239.55 1.06866 -2.32408 0
M  V30 34602 H 3239.19 2.36783 -4.49329 0
M  V30 34603 H 3239.12 3.88235 -3.55782 0
M  V30 34604 H 3241.61 2.49746 -2.83611 0
M  V30 34605 H 3241.92 4.62126 -6.19403 0
M  V30 34606 H 3240.27 4.16159 -5.5663 0
M  V30 34607 H 3243.46 3.02984 -3.56817 0
M  V30 34608 H 3243.63 3.99849 -5.09926 0
M  V30 34609 N 3237.04 1.09355 1.13486 0
M  V30 34610 C 3238 0.735901 2.17065 0
M  V30 34611 C 3239 -0.234153 1.59086 0
M  V30 34612 O 3240.19 -0.0124324 1.74196 0
M  V30 34613 C 3237.32 0.0881575 3.40786 0
M  V30 34614 H 3238.52 1.6532 2.50218 0
M  V30 34615 H 3236.07 0.892652 1.28302 0
M  V30 34616 H 3236.8 -0.840407 3.13221 0
M  V30 34617 H 3236.59 0.786141 3.84138 0
M  V30 34618 H 3238.08 -0.146702 4.17342 0
M  V30 34619 N 3238.52 -1.307 0.880644 0
M  V30 34620 C 3239.77 -1.95921 0.495928 0
M  V30 34621 C 3240.09 -1.69891 -0.957184 0
M  V30 34622 O 3239.36 -1.02013 -1.67243 0
M  V30 34623 H 3237.94 -0.724888 0.180406 0
M  V30 34624 H 3240.6 -1.59311 1.12277 0
M  V30 34625 H 3239.69 -3.04986 0.662562 0
M  V30 34626 N 3240 -0.641156 -1.43969 0
M  V30 34627 C 3241.24 -0.149369 -2.01547 0
M  V30 34628 C 3241.56 1.23677 -1.50762 0
M  V30 34629 O 3240.83 1.82374 -0.715289 0
M  V30 34630 H 3239.41 -0.0522292 -0.745172 0
M  V30 34631 H 3242.08 -0.830113 -1.76338 0
M  V30 34632 H 3241.17 -0.124731 -3.11851 0
M  V30 34633 N 3241.47 1.52892 -0.382318 0
M  V30 34634 C 3242.38 2.29972 0.463705 0
M  V30 34635 C 3243.4 1.36604 1.07774 0
M  V30 34636 O 3244.58 1.69671 1.08507 0
M  V30 34637 C 3241.64 3.08639 1.57932 0
M  V30 34638 C 3240.7 4.17703 0.991109 0
M  V30 34639 C 3239.93 4.9261 2.05356 0
M  V30 34640 O 3240.16 4.67538 3.26749 0
M  V30 34641 O 3239.09 5.78131 1.67477 0
M  V30 34642 H 3242.92 3.03257 -0.164016 0
M  V30 34643 H 3240.5 1.48683 -0.146225 0
M  V30 34644 H 3242.38 3.5771 2.22758 0
M  V30 34645 H 3241.06 2.38174 2.19214 0
M  V30 34646 H 3239.97 3.72844 0.306299 0
M  V30 34647 H 3241.3 4.90382 0.422613 0
M  V30 34648 N 3242.95 0.111941 1.57202 0
M  V30 34649 C 3243.86 -0.854715 2.18476 0
M  V30 34650 C 3244.88 -1.2979 1.15891 0
M  V30 34651 O 3246.05 -1.36234 1.48332 0
M  V30 34652 C 3243.12 -2.08965 2.76649 0
M  V30 34653 C 3242.18 -1.69906 3.94247 0
M  V30 34654 C 3241.41 -2.87512 4.49636 0
M  V30 34655 O 3241.64 -4.02734 4.03933 0
M  V30 34656 O 3240.57 -2.65005 5.40422 0
M  V30 34657 H 3244.4 -0.363299 3.01519 0
M  V30 34658 H 3241.98 -0.113303 1.4897 0
M  V30 34659 H 3243.86 -2.81305 3.1376 0
M  V30 34660 H 3242.54 -2.57126 1.96641 0
M  V30 34661 H 3241.44 -0.94695 3.61917 0
M  V30 34662 H 3242.78 -1.26493 4.75668 0
M  V30 34663 N 3244.43 -1.56767 -0.161814 0
M  V30 34664 C 3245.71 -1.73419 -0.904724 0
M  V30 34665 C 3246.09 -0.675943 -1.99986 0
M  V30 34666 O 3245.43 0.307672 -2.26419 0
M  V30 34667 C 3245.64 -3.16959 -1.46076 0
M  V30 34668 C 3246.99 -3.78202 -1.92998 0
M  V30 34669 O 3248.02 -3.20296 -1.5585 0
M  V30 34670 O 3246.88 -4.79898 -2.61457 0
M  V30 34671 H 3243.97 -0.708535 -0.426506 0
M  V30 34672 H 3246.52 -1.69046 -0.148899 0
M  V30 34673 H 3245.29 -3.85469 -0.673019 0
M  V30 34674 H 3244.91 -3.25697 -2.28051 0
M  V30 34675 N 3245.91 0.430686 -1.51601 0
M  V30 34676 C 3246.87 1.50579 -1.72797 0
M  V30 34677 C 3247.87 1.4927 -0.597929 0
M  V30 34678 O 3249.06 1.51174 -0.865561 0
M  V30 34679 C 3246.19 2.9009 -1.79054 0
M  V30 34680 H 3247.39 1.33086 -2.68753 0
M  V30 34681 H 3244.94 0.659797 -1.41691 0
M  V30 34682 H 3245.67 3.1298 -0.849364 0
M  V30 34683 H 3245.46 2.92445 -2.61187 0
M  V30 34684 H 3246.95 3.68069 -1.97269 0
M  V30 34685 N 3247.39 1.4186 0.686559 0
M  V30 34686 C 3248.63 1.4142 1.44377 0
M  V30 34687 C 3248.95 0.0274038 1.94981 0
M  V30 34688 O 3248.22 -0.932218 1.72298 0
M  V30 34689 H 3246.8 0.520578 0.535731 0
M  V30 34690 H 3249.47 1.77178 0.812025 0
M  V30 34691 H 3248.56 2.10688 2.30254 0
M  V30 34692 N 3248.86 -0.921712 1.27837 0
M  V30 34693 C 3250.1 -1.68455 1.15769 0
M  V30 34694 C 3250.47 -1.89789 -0.290509 0
M  V30 34695 O 3251.67 -2.63448 -0.533733 0
M  V30 34696 C 3249.94 -3.01067 1.92597 0
M  V30 34697 S 3251.5 -3.92187 1.96811 0
M  V30 34698 H 3248.32 -0.578622 0.41318 0
M  V30 34699 H 3250.92 -1.09691 1.61828 0
M  V30 34700 H 3249.62 -2.83235 2.96996 0
M  V30 34701 H 3249.15 -3.64881 1.47056 0
M  V30 34702 H 3251.17 -4.84551 1.06886 0
M  V30 34703 N 3250.34 -1.09956 -1.12905 0
M  V30 34704 C 3251.59 -0.840187 -1.84577 0
M  V30 34705 C 3251.92 0.632659 -1.83606 0
M  V30 34706 O 3251.2 1.46615 -1.27806 0
M  V30 34707 C 3251.48 -1.38292 -3.32486 0
M  V30 34708 C 3251.33 -2.92227 -3.41941 0
M  V30 34709 C 3252.65 -1.02117 -4.28089 0
M  V30 34710 H 3249.77 -0.306675 -0.670164 0
M  V30 34711 H 3252.41 -1.36187 -1.32488 0
M  V30 34712 H 3250.56 -0.939189 -3.76977 0
M  V30 34713 H 3252.23 -3.4509 -3.06122 0
M  V30 34714 H 3250.48 -3.29082 -2.82644 0
M  V30 34715 H 3251.15 -3.25282 -4.45977 0
M  V30 34716 H 3253.62 -1.40397 -3.91699 0
M  V30 34717 H 3252.5 -1.4279 -5.30002 0
M  V30 34718 H 3252.76 0.0699976 -4.42045 0
M  V30 34719 N 3251.82 1.30231 -0.887563 0
M  V30 34720 C 3253.24 1.48613 -0.581931 0
M  V30 34721 C 3253.44 1.81284 0.879679 0
M  V30 34722 O 3252.49 1.90201 1.66072 0
M  V30 34723 C 3253.8 2.6077 -1.49731 0
M  V30 34724 C 3255.35 2.7465 -1.50121 0
M  V30 34725 C 3255.83 3.89923 -2.40258 0
M  V30 34726 N 3257.32 3.97238 -2.38236 0
M  V30 34727 C 3258.05 4.85748 -3.0469 0
M  V30 34728 N 3257.55 5.79037 -3.80379 0
M  V30 34729 N 3259.34 4.79139 -2.93909 0
M  V30 34730 H 3251.49 1.07297 -1.83306 0
M  V30 34731 H 3253.76 0.531813 -0.78478 0
M  V30 34732 H 3253.46 2.43457 -2.53814 0
M  V30 34733 H 3253.34 3.57306 -1.2088 0
M  V30 34734 H 3255.72 2.91367 -0.467883 0
M  V30 34735 H 3255.8 1.78727 -1.83004 0
M  V30 34736 H 3255.45 3.73963 -3.43678 0
M  V30 34737 H 3255.38 4.8519 -2.04691 0
M  V30 34738 H 3257.87 3.30505 -1.83235 0
M  V30 34739 H 3258.18 6.43343 -4.28171 0
M  V30 34740 H 3256.53 5.7896 -3.84487 0
M  V30 34741 H 3259.72 4.0524 -2.34303 0
M  V30 34742 H 3259.89 5.47909 -3.45976 0
M  V30 34743 N 3253.3 0.648782 1.43627 0
M  V30 34744 C 3254.26 -0.036031 2.29172 0
M  V30 34745 C 3255.26 -0.754951 1.41976 0
M  V30 34746 O 3256.45 -0.596871 1.63655 0
M  V30 34747 C 3253.58 -1.06174 3.23944 0
M  V30 34748 H 3254.78 0.716595 2.91213 0
M  V30 34749 H 3252.33 0.409785 1.50833 0
M  V30 34750 H 3253.06 -1.84375 2.66789 0
M  V30 34751 H 3252.85 -0.549948 3.88224 0
M  V30 34752 H 3254.34 -1.54012 3.88162 0
M  V30 34753 N 3254.78 -1.52688 0.390421 0
M  V30 34754 C 3256.19 -1.59549 0.0404309 0
M  V30 34755 C 3256.39 -1.40435 -1.445 0
M  V30 34756 O 3255.45 -1.2219 -2.20965 0
M  V30 34757 C 3256.76 -2.96194 0.518613 0
M  V30 34758 C 3258.31 -3.09375 0.474968 0
M  V30 34759 C 3258.78 -4.48472 0.929357 0
M  V30 34760 N 3260.28 -4.54659 0.885415 0
M  V30 34761 C 3261.01 -5.60522 1.2084 0
M  V30 34762 N 3260.51 -6.74026 1.60192 0
M  V30 34763 N 3262.3 -5.50633 1.12958 0
M  V30 34764 H 3254.45 -1.63361 1.35746 0
M  V30 34765 H 3256.71 -0.767496 0.556466 0
M  V30 34766 H 3256.42 -3.15401 1.55612 0
M  V30 34767 H 3256.29 -3.77111 -0.0817127 0
M  V30 34768 H 3258.68 -2.89864 -0.553452 0
M  V30 34769 H 3258.76 -2.30408 1.11111 0
M  V30 34770 H 3258.41 -4.68724 1.95601 0
M  V30 34771 H 3258.34 -5.25906 0.270213 0
M  V30 34772 H 3260.83 -3.73173 0.595852 0
M  V30 34773 H 3261.14 -7.50772 1.83198 0
M  V30 34774 H 3259.48 -6.75354 1.64079 0
M  V30 34775 H 3262.68 -4.60841 0.821155 0
M  V30 34776 H 3262.85 -6.33034 1.38461 0
M  V30 34777 N 3256.25 -0.120276 -1.5714 0
M  V30 34778 C 3257.5 0.536353 -1.94853 0
M  V30 34779 C 3257.82 1.67134 -1.00455 0
M  V30 34780 O 3257.09 1.95805 -0.0610874 0
M  V30 34781 H 3255.67 0.201126 -0.719415 0
M  V30 34782 H 3258.34 -0.189516 -1.93976 0
M  V30 34783 H 3257.43 0.930092 -2.97919 0
M  V30 34784 N 3257.73 1.56851 0.153498 0
M  V30 34785 C 3259.15 1.51369 0.505913 0
M  V30 34786 C 3259.35 0.827602 1.8372 0
M  V30 34787 O 3258.4 0.395408 2.49385 0
M  V30 34788 C 3259.72 2.96131 0.522217 0
M  V30 34789 C 3261.27 3.07034 0.608184 0
M  V30 34790 C 3261.74 4.53289 0.655212 0
M  V30 34791 N 3263.23 4.57607 0.717615 0
M  V30 34792 C 3263.97 5.6814 0.774877 0
M  V30 34793 N 3263.46 6.88259 0.791882 0
M  V30 34794 N 3265.26 5.56156 0.815262 0
M  V30 34795 H 3257.41 1.99852 -0.719225 0
M  V30 34796 H 3259.67 0.911225 -0.261482 0
M  V30 34797 H 3259.38 3.49557 -0.387656 0
M  V30 34798 H 3259.25 3.51735 1.36244 0
M  V30 34799 H 3261.64 2.53631 1.50848 0
M  V30 34800 H 3261.72 2.54485 -0.259059 0
M  V30 34801 H 3261.36 5.07328 -0.240898 0
M  V30 34802 H 3261.29 5.03614 1.53885 0
M  V30 34803 H 3263.78 3.71131 0.712035 0
M  V30 34804 H 3264.1 7.68251 0.837243 0
M  V30 34805 H 3262.44 6.90834 0.759864 0
M  V30 34806 H 3265.63 4.61229 0.799102 0
M  V30 34807 H 3265.8 6.42316 0.856424 0
M  V30 34808 N 3259.21 -0.42264 1.51827 0
M  V30 34809 C 3260.62 -1.00198 1.57535 0
M  V30 34810 C 3260.97 -1.91918 0.407656 0
M  V30 34811 O 3260.1 -2.11151 -0.473726 0
M  V30 34812 C 3260.69 -1.82398 2.85511 0
M  V30 34813 C 3259.25 -2.35357 2.93741 0
M  V30 34814 C 3258.4 -1.14967 2.52345 0
M  V30 34815 H 3261.35 -0.203362 1.57392 0
M  V30 34816 H 3261.37 -2.68002 2.70102 0
M  V30 34817 H 3260.88 -1.15616 3.70479 0
M  V30 34818 H 3258.98 -3.0555 2.13237 0
M  V30 34819 H 3259.1 -2.67148 3.97705 0
M  V30 34820 H 3257.46 -1.49951 2.0588 0
M  V30 34821 H 3258.24 -0.497726 3.39673 0
M  V30 34822 N 3260.69 -1.42222 -0.679027 0
M  V30 34823 C 3261.91 -1.4606 -1.47245 0
M  V30 34824 C 3262.34 -0.0721318 -1.87962 0
M  V30 34825 O 3261.7 0.928461 -1.55722 0
M  V30 34826 C 3261.74 -2.38953 -2.70063 0
M  V30 34827 O 3260.85 -1.85798 -3.68175 0
M  V30 34828 H 3260.19 -0.495044 -0.442524 0
M  V30 34829 H 3262.72 -1.86865 -0.83323 0
M  V30 34830 H 3262.73 -2.5539 -3.18182 0
M  V30 34831 H 3261.4 -3.39831 -2.39767 0
M  V30 34832 H 3259.98 -1.78895 -3.27187 0
M  V30 34833 N 3262.17 0.91492 -1.28324 0
M  V30 34834 C 3263.08 2.05041 -1.13996 0
M  V30 34835 C 3264.09 1.73872 -0.0668227 0
M  V30 34836 O 3265.27 1.99502 -0.27588 0
M  V30 34837 C 3262.33 3.37298 -0.801916 0
M  V30 34838 C 3261.39 3.82084 -1.95729 0
M  V30 34839 C 3260.63 5.0803 -1.63528 0
M  V30 34840 O 3260.85 5.67751 -0.54909 0
M  V30 34841 O 3259.78 5.485 -2.47854 0
M  V30 34842 H 3263.61 2.20046 -2.09316 0
M  V30 34843 H 3261.2 1.03614 -1.07631 0
M  V30 34844 H 3263.08 4.16705 -0.627288 0
M  V30 34845 H 3261.75 3.23471 0.121639 0
M  V30 34846 H 3260.66 3.0351 -2.18707 0
M  V30 34847 H 3261.99 4.00473 -2.86151 0
M  V30 34848 N 3263.64 1.10553 1.1232 0
M  V30 34849 C 3264.55 0.767901 2.21676 0
M  V30 34850 C 3265.57 -0.235102 1.72404 0
M  V30 34851 O 3266.75 -0.0735558 2.01266 0
M  V30 34852 C 3263.81 0.20606 3.46087 0
M  V30 34853 C 3262.87 1.26649 4.10193 0
M  V30 34854 C 3262.11 0.731367 5.28665 0
M  V30 34855 O 3262.33 -0.44179 5.68687 0
M  V30 34856 O 3261.26 1.49186 5.83118 0
M  V30 34857 H 3265.09 1.68075 2.52952 0
M  V30 34858 H 3262.67 0.880749 1.20678 0
M  V30 34859 H 3264.56 -0.103361 4.21273 0
M  V30 34860 H 3263.23 -0.679629 3.16485 0
M  V30 34861 H 3262.14 1.62879 3.36781 0
M  V30 34862 H 3263.47 2.12524 4.43953 0
M  V30 34863 N 3265.12 -1.29758 0.894457 0
M  V30 34864 C 3266.03 -2.31621 0.372663 0
M  V30 34865 C 3267.05 -1.65734 -0.52993 0
M  V30 34866 O 3268.22 -1.96956 -0.420772 0
M  V30 34867 C 3265.29 -3.44431 -0.396015 0
M  V30 34868 C 3264.35 -4.25922 0.537469 0
M  V30 34869 C 3263.58 -5.33345 -0.194619 0
M  V30 34870 O 3263.81 -5.52459 -1.41934 0
M  V30 34871 O 3262.74 -6.00138 0.46016 0
M  V30 34872 H 3266.57 -2.78223 1.21761 0
M  V30 34873 H 3264.15 -1.341 0.658604 0
M  V30 34874 H 3266.03 -4.13127 -0.830889 0
M  V30 34875 H 3264.71 -2.99947 -1.21711 0
M  V30 34876 H 3263.62 -3.59888 1.02135 0
M  V30 34877 H 3264.95 -4.74035 1.32483 0
M  V30 34878 N 3266.6 -0.65639 -1.4328 0
M  V30 34879 C 3267.53 0.0196551 -2.33492 0
M  V30 34880 C 3268.51 0.808654 -1.49649 0
M  V30 34881 O 3269.7 0.769498 -1.78304 0
M  V30 34882 C 3266.83 0.984515 -3.33053 0
M  V30 34883 C 3265.78 0.305408 -4.26909 0
M  V30 34884 C 3265.11 1.38193 -5.16533 0
M  V30 34885 C 3266.41 -0.804172 -5.16072 0
M  V30 34886 H 3268.1 -0.733712 -2.90271 0
M  V30 34887 H 3265.65 -0.354283 -1.39574 0
M  V30 34888 H 3267.6 1.4664 -3.95063 0
M  V30 34889 H 3266.32 1.76908 -2.74538 0
M  V30 34890 H 3264.98 -0.156059 -3.66268 0
M  V30 34891 H 3264.63 2.15802 -4.54355 0
M  V30 34892 H 3264.33 0.932776 -5.80149 0
M  V30 34893 H 3265.85 1.86512 -5.81417 0
M  V30 34894 H 3267.27 -0.404312 -5.71873 0
M  V30 34895 H 3265.67 -1.17799 -5.88424 0
M  V30 34896 H 3266.74 -1.66081 -4.55571 0
M  V30 34897 N 3268.08 1.52478 -0.398513 0
M  V30 34898 C 3269.01 2.24384 0.467387 0
M  V30 34899 C 3270.02 1.2696 1.01906 0
M  V30 34900 O 3271.21 1.52976 0.919816 0
M  V30 34901 C 3268.31 2.95382 1.66141 0
M  V30 34902 C 3267.49 4.19588 1.2355 0
M  V30 34903 C 3266.55 4.73503 2.29524 0
M  V30 34904 O 3265.57 5.36357 1.90551 0
M  V30 34905 N 3266.77 4.54156 3.61556 0
M  V30 34906 H 3269.54 2.99331 -0.148706 0
M  V30 34907 H 3267.1 1.60324 -0.225341 0
M  V30 34908 H 3269.09 3.28348 2.36579 0
M  V30 34909 H 3267.66 2.23686 2.18365 0
M  V30 34910 H 3266.88 3.92556 0.359646 0
M  V30 34911 H 3268.17 5.00271 0.927724 0
M  V30 34912 H 3267.57 4.04005 3.95975 0
M  V30 34913 H 3266.12 4.91588 4.28001 0
M  V30 34914 N 3269.56 0.128608 1.57074 0
M  V30 34915 C 3270.83 -0.571129 1.87076 0
M  V30 34916 C 3271.21 -1.84186 1.03145 0
M  V30 34917 O 3270.56 -2.2822 0.113041 0
M  V30 34918 C 3270.77 -0.854324 3.38382 0
M  V30 34919 C 3272.12 -1.20318 4.07196 0
M  V30 34920 O 3273.14 -0.944277 3.43456 0
M  V30 34921 O 3272 -1.68954 5.19728 0
M  V30 34922 H 3269.1 -0.289244 0.774769 0
M  V30 34923 H 3271.64 0.163836 1.68907 0
M  V30 34924 H 3270.42 0.0457612 3.91273 0
M  V30 34925 H 3270.04 -1.64411 3.62015 0
M  V30 34926 N 3271.04 -1.5693 -0.145178 0
M  V30 34927 C 3272.26 -1.87976 -0.876353 0
M  V30 34928 C 3272.69 -0.717826 -1.73865 0
M  V30 34929 O 3272.04 0.332519 -1.78225 0
M  V30 34930 C 3272.09 -3.17616 -1.7074 0
M  V30 34931 O 3271.2 -3.01679 -2.81183 0
M  V30 34932 H 3270.54 -0.617553 -0.243976 0
M  V30 34933 H 3273.07 -2.04151 -0.135446 0
M  V30 34934 H 3273.08 -3.49683 -2.10204 0
M  V30 34935 H 3271.75 -4.01788 -1.07422 0
M  V30 34936 H 3270.33 -2.81024 -2.45112 0
M  V30 34937 N 3272.51 0.414582 -1.52049 0
M  V30 34938 C 3273.93 0.752798 -1.40731 0
M  V30 34939 C 3274.13 1.95004 -0.507502 0
M  V30 34940 O 3273.19 2.52484 0.0287745 0
M  V30 34941 C 3274.5 1.01184 -2.83165 0
M  V30 34942 C 3276.05 1.11489 -2.92471 0
M  V30 34943 C 3276.52 1.40673 -4.35861 0
M  V30 34944 N 3278.01 1.47549 -4.39071 0
M  V30 34945 C 3278.75 1.71746 -5.47075 0
M  V30 34946 N 3278.24 1.93584 -6.65205 0
M  V30 34947 N 3280.04 1.73716 -5.34583 0
M  V30 34948 H 3272.19 -0.373586 -2.09089 0
M  V30 34949 H 3274.45 -0.104831 -0.942186 0
M  V30 34950 H 3274.16 0.204547 -3.51105 0
M  V30 34951 H 3274.03 1.93347 -3.23878 0
M  V30 34952 H 3276.42 1.91278 -2.24715 0
M  V30 34953 H 3276.5 0.171749 -2.55223 0
M  V30 34954 H 3276.14 0.614031 -5.04175 0
M  V30 34955 H 3276.07 2.3623 -4.70641 0
M  V30 34956 H 3278.56 1.32485 -3.53915 0
M  V30 34957 H 3278.88 2.11482 -7.433 0
M  V30 34958 H 3277.22 1.9086 -6.6828 0
M  V30 34959 H 3280.41 1.5619 -4.41273 0
M  V30 34960 H 3280.59 1.92235 -6.18829 0
M  V30 34961 N 3273.99 1.4258 0.671475 0
M  V30 34962 C 3275.24 1.43439 1.43364 0
M  V30 34963 C 3275.57 0.0517681 1.94131 0
M  V30 34964 O 3274.85 -0.924518 1.71123 0
M  V30 34965 C 3275.13 2.46158 2.62827 0
M  V30 34966 C 3274.98 3.93624 2.1767 0
M  V30 34967 C 3276.3 2.45826 3.65044 0
M  V30 34968 H 3273.42 0.522315 0.519958 0
M  V30 34969 H 3276.06 1.74015 0.762819 0
M  V30 34970 H 3274.21 2.20216 3.20058 0
M  V30 34971 H 3275.88 4.30559 1.65581 0
M  V30 34972 H 3274.13 4.07331 1.49212 0
M  V30 34973 H 3274.8 4.6108 3.03495 0
M  V30 34974 H 3277.27 2.68905 3.17537 0
M  V30 34975 H 3276.15 3.19671 4.46208 0
M  V30 34976 H 3276.41 1.48543 4.16398 0
M  V30 34977 N 3275.47 -0.908102 1.28807 0
M  V30 34978 C 3276.7 -1.68898 1.18983 0
M  V30 34979 C 3277.11 -1.87497 -0.253301 0
M  V30 34980 O 3276.45 -1.40586 -1.18242 0
M  V30 34981 C 3276.51 -3.09867 1.82271 0
M  V30 34982 C 3276.18 -3.14532 3.3154 0
M  V30 34983 C 3277.17 -2.95306 4.27891 0
M  V30 34984 C 3274.86 -3.36866 3.72595 0
M  V30 34985 C 3276.85 -2.98333 5.63273 0
M  V30 34986 C 3274.54 -3.39525 5.08101 0
M  V30 34987 C 3275.54 -3.2028 6.03249 0
M  V30 34988 O 3275.23 -3.22711 7.36283 0
M  V30 34989 H 3274.96 -0.534566 0.413781 0
M  V30 34990 H 3277.51 -1.14461 1.70552 0
M  V30 34991 H 3275.74 -3.6587 1.25204 0
M  V30 34992 H 3277.43 -3.70005 1.66886 0
M  V30 34993 H 3278.2 -2.77872 3.97507 0
M  V30 34994 H 3274.08 -3.50889 2.98995 0
M  V30 34995 H 3277.62 -2.8323 6.37516 0
M  V30 34996 H 3273.52 -3.56488 5.38133 0
M  V30 34997 H 3274.28 -3.39035 7.44982 0
M  V30 34998 N 3276.95 -1.11147 -1.11732 0
M  V30 34999 C 3278.19 -0.859717 -1.83676 0
M  V30 35000 C 3278.53 0.61315 -1.84266 0
M  V30 35001 O 3277.8 1.45251 -1.29353 0
M  V30 35002 C 3278.08 -1.41811 -3.31001 0
M  V30 35003 C 3277.94 -2.95837 -3.38822 0
M  V30 35004 C 3279.26 -1.06652 -4.26982 0
M  V30 35005 H 3276.38 -0.313766 -0.666873 0
M  V30 35006 H 3279.02 -1.37585 -1.31036 0
M  V30 35007 H 3277.17 -0.97912 -3.75959 0
M  V30 35008 H 3278.84 -3.48317 -3.02444 0
M  V30 35009 H 3277.08 -3.32061 -2.79137 0
M  V30 35010 H 3277.75 -3.29994 -4.42502 0
M  V30 35011 H 3280.23 -1.44544 -3.90188 0
M  V30 35012 H 3279.11 -1.48404 -5.28458 0
M  V30 35013 H 3279.37 0.0231089 -4.42094 0
M  V30 35014 N 3278.43 1.29282 -0.901326 0
M  V30 35015 C 3279.65 2.00169 -0.542858 0
M  V30 35016 C 3280.08 1.67002 0.865553 0
M  V30 35017 O 3279.43 0.895529 1.57639 0
M  V30 35018 C 3279.48 3.5284 -0.744049 0
M  V30 35019 O 3278.59 4.11902 0.202699 0
M  V30 35020 H 3277.93 0.629276 -0.211914 0
M  V30 35021 H 3280.46 1.64738 -1.21336 0
M  V30 35022 H 3280.47 4.028 -0.64933 0
M  V30 35023 H 3279.14 3.76316 -1.77084 0
M  V30 35024 H 3277.72 3.72851 0.0602982 0
M  V30 35025 N 3279.9 0.663979 1.4293 0
M  V30 35026 C 3281.13 0.188237 2.06544 0
M  V30 35027 C 3281.55 -1.14152 1.49502 0
M  V30 35028 O 3280.91 -1.70759 0.609194 0
M  V30 35029 C 3280.96 0.122168 3.60393 0
M  V30 35030 O 3280.06 -0.912509 4.02178 0
M  V30 35031 H 3279.4 0.0998083 0.656456 0
M  V30 35032 H 3281.93 0.909941 1.83252 0
M  V30 35033 H 3281.94 -0.057585 4.07959 0
M  V30 35034 H 3280.62 1.09283 4.01285 0
M  V30 35035 H 3279.2 -0.704674 3.66181 0
M  V30 35036 N 3281.38 -1.52265 0.406593 0
M  V30 35037 C 3282.31 -2.29849 -0.411274 0
M  V30 35038 C 3283.29 -1.33953 -1.04836 0
M  V30 35039 O 3284.48 -1.62859 -1.05785 0
M  V30 35040 C 3281.61 -3.11804 -1.52955 0
M  V30 35041 C 3280.56 -4.15727 -1.01761 0
M  V30 35042 C 3279.89 -4.86011 -2.22929 0
M  V30 35043 C 3281.19 -5.22248 -0.0734232 0
M  V30 35044 H 3282.88 -2.98468 0.236107 0
M  V30 35045 H 3280.43 -1.4354 0.114994 0
M  V30 35046 H 3282.38 -3.64846 -2.10868 0
M  V30 35047 H 3281.1 -2.40951 -2.20478 0
M  V30 35048 H 3279.76 -3.63691 -0.460906 0
M  V30 35049 H 3279.41 -4.11689 -2.89 0
M  V30 35050 H 3279.11 -5.56263 -1.89328 0
M  V30 35051 H 3280.64 -5.41864 -2.81452 0
M  V30 35052 H 3282.05 -5.70546 -0.561267 0
M  V30 35053 H 3280.45 -5.99849 0.173656 0
M  V30 35054 H 3281.52 -4.76984 0.872607 0
M  V30 35055 O 3282.9 -0.277587 -1.59097 0
M  V30 35056 H 3283.59 0.291878 -1.91488 0
M  V30 END ATOM
M  V30 BEGIN BOND
M  V30 END BOND
M  V30 END CTAB
M  END
$$$$
