drugbank_target|P02924 L-arabinose-binding periplasmic protein (DB03142; DB03246; DB03485; DB04062)
 OpenBabel12092119583D

  0  0  0     0  0            999 V3000
M  V30 BEGIN CTAB
M  V30 COUNTS 5022 5069 0 0 0
M  V30 BEGIN ATOM
M  V30 1 H -0.908 1.98254 -0.117106 0
M  V30 2 N 0 1.576 0 0
M  V30 3 C 0.933 2.03868 1.02534 0
M  V30 4 C 1.911 0.928543 1.3348 0
M  V30 5 O 3.095 1.19667 1.45644 0
M  V30 6 C 0.222 2.43627 2.35294 0
M  V30 7 C -0.732 3.65373 2.2001 0
M  V30 8 S 0.101 5.13292 1.52614 0
M  V30 9 C 1.257 5.56322 2.86805 0
M  V30 10 H 1.49 2.90518 0.631377 0
M  V30 11 H -0.977 1.52953 0.210867 0
M  V30 12 H 0.981 2.67203 3.11629 0
M  V30 13 H -0.358 1.57376 2.7183 0
M  V30 14 H -1.165 3.90944 3.18086 0
M  V30 15 H -1.563 3.418 1.51819 0
M  V30 16 H 0.729 5.58782 3.83104 0
M  V30 17 H 1.672 6.56266 2.65933 0
M  V30 18 H 2.08 4.83886 2.90714 0
M  V30 19 N 1.4781 -0.272755 1.55222 0
M  V30 20 C 2.4281 -1.33946 1.84506 0
M  V30 21 C 3.4121 -1.44682 0.70399 0
M  V30 22 O 4.6041 -1.48358 0.965338 0
M  V30 23 C 1.7331 -2.69968 2.12067 0
M  V30 24 C 0.8191 -2.63341 3.32434 0
M  V30 25 N 1.2101 -2.26335 4.52334 0
M  V30 26 C -0.4919 -2.94402 3.35028 0
M  V30 27 C 0.2091 -2.29705 5.34425 0
M  V30 28 N -0.8149 -2.68188 4.72838 0
M  V30 29 H 2.9871 -1.04343 2.74754 0
M  V30 30 H 0.5011 -0.481389 1.55101 0
M  V30 31 H 2.4981 -3.46916 2.31202 0
M  V30 32 H 1.1581 -3.00459 1.23103 0
M  V30 33 H 2.1691 -1.98309 4.78429 0
M  V30 34 H -1.1539 -3.29603 2.56257 0
M  V30 35 H 0.2361 -2.03653 6.40293 0
M  V30 36 N 2.9562 -1.48159 -0.537278 0
M  V30 37 C 3.9032 -1.62138 -1.64256 0
M  V30 38 C 4.8732 -0.463668 -1.59497 0
M  V30 39 O 6.0582 -0.686241 -1.78032 0
M  V30 40 C 3.1982 -1.66028 -3.02537 0
M  V30 41 C 2.3112 -2.92855 -3.17585 0
M  V30 42 C 1.4462 -2.87952 -4.46382 0
M  V30 43 C 0.4852 -4.09516 -4.54932 0
M  V30 44 N -0.3778 -4.02733 -5.75109 0
M  V30 45 H 4.4622 -2.56529 -1.51647 0
M  V30 46 H 1.9992 -1.27224 -0.738414 0
M  V30 47 H 3.9572 -1.66265 -3.82638 0
M  V30 48 H 2.5872 -0.751331 -3.13934 0
M  V30 49 H 1.6392 -3.02395 -2.30784 0
M  V30 50 H 2.9512 -3.82822 -3.19764 0
M  V30 51 H 2.1052 -2.8655 -5.34765 0
M  V30 52 H 0.8442 -1.95702 -4.46712 0
M  V30 53 H -0.1508 -4.11201 -3.64957 0
M  V30 54 H 1.0742 -5.02917 -4.56346 0
M  V30 55 H -0.9798 -3.13299 -5.76351 0
M  V30 56 H -1.0628 -4.86397 -5.78752 0
M  V30 57 H 0.2052 -4.05379 -6.65799 0
M  V30 58 N 4.4343 0.785586 -1.36625 0
M  V30 59 C 5.6813 1.54362 -1.31067 0
M  V30 60 C 6.0093 1.94195 0.10893 0
M  V30 61 O 5.2643 1.63262 1.07908 0
M  V30 62 C 5.5633 2.83007 -2.1827 0
M  V30 63 C 5.2293 2.62294 -3.6676 0
M  V30 64 C 3.8913 2.56353 -4.0723 0
M  V30 65 C 6.2433 2.43371 -4.6089 0
M  V30 66 C 3.5713 2.29461 -5.39967 0
M  V30 67 C 5.9233 2.18005 -5.93849 0
M  V30 68 C 4.5873 2.105 -6.3344 0
M  V30 69 H 3.8573 0.564851 -0.479609 0
M  V30 70 H 6.5043 0.906028 -1.68711 0
M  V30 71 H 4.8093 3.51253 -1.73576 0
M  V30 72 H 6.5063 3.40817 -2.11292 0
M  V30 73 H 3.0963 2.67774 -3.34656 0
M  V30 74 H 7.2803 2.46959 -4.30494 0
M  V30 75 H 2.5363 2.22135 -5.69619 0
M  V30 76 H 6.7103 2.02359 -6.66351 0
M  V30 77 H 4.3373 1.89425 -7.36222 0
M  V30 78 N 5.9124 1.20967 1.01018 0
M  V30 79 C 7.1404 1.04956 1.78303 0
M  V30 80 C 7.5554 -0.400915 1.84494 0
M  V30 81 O 6.9124 -1.27826 1.30257 0
M  V30 82 C 6.9634 1.63403 3.22462 0
M  V30 83 O 6.6844 3.02775 3.16637 0
M  V30 84 C 8.1854 1.52432 4.16268 0
M  V30 85 H 5.4054 0.368858 0.560522 0
M  V30 86 H 7.9494 1.60193 1.27116 0
M  V30 87 H 6.1044 1.1227 3.70775 0
M  V30 88 H 6.5184 3.30626 4.07169 0
M  V30 89 H 7.9924 1.98078 5.15237 0
M  V30 90 H 8.4694 0.477875 4.36592 0
M  V30 91 H 9.0754 2.02787 3.73841 0
M  V30 92 N 7.3905 -1.2043 1.01659 0
M  V30 93 C 8.3375 -2.23215 0.586822 0
M  V30 94 C 9.3075 -1.61382 -0.393085 0
M  V30 95 O 10.4925 -1.88544 -0.292525 0
M  V30 96 C 7.6325 -3.45032 -0.0687464 0
M  V30 97 C 6.7455 -4.21296 0.955724 0
M  V30 98 C 5.8805 -5.30507 0.271208 0
M  V30 99 C 4.9195 -5.98515 1.28244 0
M  V30 100 N 4.0565 -6.99316 0.62459 0
M  V30 101 H 8.8965 -2.59336 1.46796 0
M  V30 102 H 6.4335 -1.27431 0.734836 0
M  V30 103 H 8.3915 -4.1459 -0.465965 0
M  V30 104 H 7.0215 -3.09604 -0.913529 0
M  V30 105 H 6.0735 -3.50803 1.4711 0
M  V30 106 H 7.3855 -4.6803 1.72479 0
M  V30 107 H 6.5395 -6.06428 -0.18151 0
M  V30 108 H 5.2785 -4.8481 -0.530163 0
M  V30 109 H 4.2835 -5.21355 1.74554 0
M  V30 110 H 5.5085 -6.46298 2.08509 0
M  V30 111 H 3.4545 -6.55812 -0.156914 0
M  V30 112 H 3.3715 -7.44178 1.33172 0
M  V30 113 H 4.6395 -7.79255 0.195462 0
M  V30 114 N 8.8686 -0.792821 -1.36206 0
M  V30 115 C 9.8316 -0.199459 -2.2833 0
M  V30 116 C 10.8316 0.605189 -1.48977 0
M  V30 117 O 12.0216 0.425685 -1.68919 0
M  V30 118 C 9.1536 0.723523 -3.33134 0
M  V30 119 H 10.3466 -1.01181 -2.82316 0
M  V30 120 H 7.8996 -0.562485 -1.45828 0
M  V30 121 H 8.6346 1.56008 -2.84309 0
M  V30 122 H 8.4196 0.148436 -3.91819 0
M  V30 123 H 9.9096 1.13344 -4.01924 0
M  V30 124 N 10.3467 1.47872 -0.545128 0
M  V30 125 C 11.2767 2.32661 0.197793 0
M  V30 126 C 12.2577 1.43041 0.920504 0
M  V30 127 O 13.4427 1.71912 0.90333 0
M  V30 128 C 10.5727 3.24569 1.23582 0
M  V30 129 C 9.5267 4.23333 0.630323 0
M  V30 130 C 8.8527 5.0448 1.77211 0
M  V30 131 C 10.1527 5.20704 -0.407974 0
M  V30 132 H 11.8467 2.95024 -0.510045 0
M  V30 133 H 9.3927 1.4187 -0.246731 0
M  V30 134 H 11.3457 3.8272 1.76362 0
M  V30 135 H 10.0697 2.60236 1.97344 0
M  V30 136 H 8.7287 3.6639 0.123922 0
M  V30 137 H 8.3767 4.36561 2.49847 0
M  V30 138 H 8.0767 5.71339 1.37281 0
M  V30 139 H 9.6007 5.65487 2.3034 0
M  V30 140 H 11.0147 5.7329 0.033305 0
M  V30 141 H 9.4117 5.95699 -0.725486 0
M  V30 142 H 10.4817 4.66917 -1.30828 0
M  V30 143 N 11.8248 0.280983 1.55075 0
M  V30 144 C 12.7878 -0.590896 2.21452 0
M  V30 145 C 13.7878 -1.07682 1.19421 0
M  V30 146 O 14.9778 -0.97605 1.44288 0
M  V30 147 C 12.1098 -1.81587 2.88511 0
M  V30 148 H 13.3028 -0.0112554 2.99898 0
M  V30 149 H 10.8558 0.0316438 1.56268 0
M  V30 150 H 11.5908 -2.43587 2.14093 0
M  V30 151 H 11.3758 -1.4753 3.63287 0
M  V30 152 H 12.8658 -2.43575 3.39206 0
M  V30 153 N 13.3029 -1.57598 0.00835791 0
M  V30 154 C 14.2659 -2.07884 -0.965242 0
M  V30 155 C 15.2659 -0.989825 -1.26725 0
M  V30 156 O 16.4559 -1.25218 -1.21104 0
M  V30 157 C 13.5879 -2.52731 -2.28779 0
M  V30 158 H 14.7809 -2.95178 -0.530112 0
M  V30 159 H 12.3339 -1.54458 -0.239283 0
M  V30 160 H 13.0689 -1.68705 -2.76964 0
M  V30 161 H 12.8539 -3.32272 -2.08177 0
M  V30 162 H 14.3439 -2.91933 -2.98605 0
M  V30 163 N 14.781 0.264519 -1.55364 0
M  V30 164 C 16.03 0.992812 -1.75574 0
M  V30 165 C 16.343 1.87142 -0.568979 0
M  V30 166 O 17.549 2.63513 -0.653682 0
M  V30 167 C 16.005 1.81519 -3.10771 0
M  V30 168 C 15.613 0.984839 -4.37041 0
M  V30 169 C 17.357 2.53727 -3.40327 0
M  V30 170 C 15.264 1.80209 -5.63275 0
M  V30 171 H 14.194 0.374412 -0.65447 0
M  V30 172 H 16.845 0.248138 -1.81815 0
M  V30 173 H 15.227 2.60115 -2.98591 0
M  V30 174 H 16.401 0.242455 -4.60162 0
M  V30 175 H 14.716 0.37691 -4.14691 0
M  V30 176 H 17.313 3.15292 -4.3185 0
M  V30 177 H 17.656 3.24447 -2.60845 0
M  V30 178 H 18.189 1.82156 -3.53644 0
M  V30 179 H 14.928 1.13896 -6.45529 0
M  V30 180 H 14.448 2.52022 -5.44284 0
M  V30 181 H 16.127 2.37364 -6.01887 0
M  V30 182 N 16.2591 1.48442 0.529413 0
M  V30 183 C 17.5071 1.56179 1.28267 0
M  V30 184 C 17.8281 0.237721 1.93546 0
M  V30 185 O 17.0981 -0.740779 1.81354 0
M  V30 186 H 15.6781 0.575367 0.476405 0
M  V30 187 H 18.3401 1.84909 0.61602 0
M  V30 188 H 17.4361 2.34312 2.06165 0
M  V30 189 N 17.7372 -0.778329 1.37039 0
M  V30 190 C 18.6672 -1.90546 1.34962 0
M  V30 191 C 19.6482 -1.68681 0.219274 0
M  V30 192 O 20.8332 -1.89634 0.418624 0
M  V30 193 C 17.9632 -3.27734 1.14925 0
M  V30 194 C 16.9172 -3.64147 2.24902 0
M  V30 195 C 16.2432 -4.99806 1.89996 0
M  V30 196 C 17.5432 -3.71579 3.67051 0
M  V30 197 H 19.2372 -1.92541 2.29277 0
M  V30 198 H 16.7832 -0.924948 1.10366 0
M  V30 199 H 18.7362 -4.06215 1.12104 0
M  V30 200 H 17.4602 -3.26154 0.170631 0
M  V30 201 H 16.1192 -2.8797 2.26868 0
M  V30 202 H 15.7672 -4.94759 0.906796 0
M  V30 203 H 15.4672 -5.25139 2.63634 0
M  V30 204 H 16.9912 -5.80694 1.88749 0
M  V30 205 H 18.4052 -4.40227 3.67251 0
M  V30 206 H 16.8022 -4.08405 4.39688 0
M  V30 207 H 17.8722 -2.72404 4.01154 0
M  V30 208 N 19.2153 -1.21501 -1.00376 0
M  V30 209 C 20.1783 -0.976927 -2.07337 0
M  V30 210 C 21.1783 0.0525322 -1.60714 0
M  V30 211 O 22.3683 -0.184869 -1.73216 0
M  V30 212 C 19.5003 -0.473423 -3.37597 0
M  V30 213 H 20.6933 -1.92587 -2.29892 0
M  V30 214 H 18.2463 -1.03217 -1.17371 0
M  V30 215 H 18.9813 0.480379 -3.20722 0
M  V30 216 H 18.7663 -1.216 -3.72768 0
M  V30 217 H 20.2563 -0.32675 -4.1632 0
M  V30 218 N 20.6934 1.19889 -1.02296 0
M  V30 219 C 21.6564 2.21116 -0.603351 0
M  V30 220 C 22.6564 1.5738 0.329884 0
M  V30 221 O 23.8464 1.73802 0.117702 0
M  V30 222 C 20.9784 3.40696 0.117992 0
M  V30 223 H 22.1714 2.59754 -1.49893 0
M  V30 224 H 19.7244 1.33463 -0.813468 0
M  V30 225 H 20.4594 3.07569 1.0282 0
M  V30 226 H 20.2444 3.88188 -0.552511 0
M  V30 227 H 21.7344 4.15692 0.398696 0
M  V30 228 N 22.1715 0.800033 1.35784 0
M  V30 229 C 23.4175 0.377901 1.99248 0
M  V30 230 C 23.7505 -1.05052 1.63333 0
M  V30 231 O 23.0255 -1.72768 0.893385 0
M  V30 232 C 23.3085 0.553922 3.55814 0
M  V30 233 C 23.1615 2.0268 4.01548 0
M  V30 234 C 24.4805 -0.0244802 4.40093 0
M  V30 235 H 21.5995 0.138782 0.723815 0
M  V30 236 H 24.2415 1.00835 1.61035 0
M  V30 237 H 22.3915 0.0172398 3.88496 0
M  V30 238 H 24.0635 2.62536 3.79305 0
M  V30 239 H 22.3065 2.5256 3.52698 0
M  V30 240 H 22.9775 2.10087 5.10458 0
M  V30 241 H 25.4535 0.433775 4.13833 0
M  V30 242 H 24.3295 0.128637 5.48749 0
M  V30 243 H 24.5905 -1.11758 4.27741 0
M  V30 244 N 23.6496 -1.47581 0.552962 0
M  V30 245 C 24.5826 -2.26883 -0.244857 0
M  V30 246 C 25.5606 -1.33784 -0.924147 0
M  V30 247 O 26.7446 -1.6316 -0.943981 0
M  V30 248 C 23.8716 -3.10695 -1.34856 0
M  V30 249 C 22.9176 -4.19339 -0.778268 0
M  V30 250 S 23.7506 -5.34207 0.37184 0
M  V30 251 C 24.9066 -6.21584 -0.733779 0
M  V30 252 H 25.1396 -2.94202 0.428087 0
M  V30 253 H 22.6726 -1.50628 0.339197 0
M  V30 254 H 24.6306 -3.59555 -1.98066 0
M  V30 255 H 23.2916 -2.42746 -1.99332 0
M  V30 256 H 22.4846 -4.77695 -1.60696 0
M  V30 257 H 22.0866 -3.73338 -0.222422 0
M  V30 258 H 24.3786 -6.57676 -1.62692 0
M  V30 259 H 25.3216 -7.07851 -0.187668 0
M  V30 260 H 25.7296 -5.55125 -1.02454 0
M  V30 261 N 25.1277 -0.289203 -1.54924 0
M  V30 262 C 26.3527 0.329299 -2.04769 0
M  V30 263 C 26.7777 1.4763 -1.16564 0
M  V30 264 O 26.1357 1.80527 -0.167186 0
M  V30 265 C 26.1837 0.774438 -3.52186 0
M  V30 266 O 25.2877 1.88038 -3.67036 0
M  V30 267 H 24.6287 0.0659259 -0.660719 0
M  V30 268 H 27.1587 -0.42761 -2.00082 0
M  V30 269 H 27.1687 1.06642 -3.93816 0
M  V30 270 H 25.8437 -0.0646707 -4.1585 0
M  V30 271 H 24.4207 1.58985 -3.3731 0
M  V30 272 N 26.6058 1.57591 -0.0167156 0
M  V30 273 C 27.5378 2.06343 0.997753 0
M  V30 274 C 28.5508 0.984469 1.29661 0
M  V30 275 O 29.7398 1.26093 1.26344 0
M  V30 276 C 26.8398 2.46255 2.32834 0
M  V30 277 C 26.0128 3.77083 2.21646 0
M  V30 278 C 25.0718 4.0368 3.37534 0
M  V30 279 O 24.0978 4.7411 3.14973 0
M  V30 280 N 25.2998 3.52881 4.60929 0
M  V30 281 H 28.0648 2.93997 0.581875 0
M  V30 282 H 25.6258 1.61002 0.170316 0
M  V30 283 H 27.6178 2.61149 3.09166 0
M  V30 284 H 26.1878 1.64032 2.66106 0
M  V30 285 H 25.4078 3.72106 1.30119 0
M  V30 286 H 26.6958 4.62822 2.11361 0
M  V30 287 H 26.0938 2.95878 4.82154 0
M  V30 288 H 24.6508 3.73076 5.34469 0
M  V30 289 N 28.0839 -0.256276 1.55502 0
M  V30 290 C 29.3089 -1.00766 1.81276 0
M  V30 291 C 29.7339 -1.78524 0.59252 0
M  V30 292 O 29.0919 -1.75413 -0.45827 0
M  V30 293 C 29.1399 -1.92869 3.04687 0
M  V30 294 O 28.2439 -3.019 2.80945 0
M  V30 295 H 27.5849 -0.287224 0.598664 0
M  V30 296 H 30.1149 -0.280109 2.02674 0
M  V30 297 H 30.1249 -2.34511 3.33869 0
M  V30 298 H 28.7999 -1.35689 3.93143 0
M  V30 299 H 27.3769 -2.64454 2.62904 0
M  V30 300 N 29.562 -1.4872 -0.521534 0
M  V30 301 C 30.525 -1.63379 -1.60748 0
M  V30 302 C 31.525 -0.50661 -1.52611 0
M  V30 303 O 32.715 -0.772601 -1.5613 0
M  V30 304 C 29.847 -1.61192 -3.00383 0
M  V30 305 H 31.04 -2.60217 -1.49087 0
M  V30 306 H 28.593 -1.37444 -0.744235 0
M  V30 307 H 29.328 -0.65863 -3.17541 0
M  V30 308 H 29.113 -2.43032 -3.07698 0
M  V30 309 H 30.603 -1.7466 -3.7932 0
M  V30 310 N 31.0401 0.771051 -1.3745 0
M  V30 311 C 31.9731 1.89166 -1.27638 0
M  V30 312 C 32.9511 1.61842 -0.156782 0
M  V30 313 O 34.1351 1.85569 -0.331111 0
M  V30 314 C 31.2621 3.24405 -0.973621 0
M  V30 315 C 30.3081 3.70638 -2.1102 0
M  V30 316 S 31.1411 3.84228 -3.73 0
M  V30 317 C 32.2971 5.22313 -3.44876 0
M  V30 318 H 32.5301 1.972 -2.22485 0
M  V30 319 H 30.0631 0.932224 -1.23081 0
M  V30 320 H 32.0211 4.02514 -0.805766 0
M  V30 321 H 30.6821 3.14071 -0.0426279 0
M  V30 322 H 29.8751 4.68685 -1.85338 0
M  V30 323 H 29.4771 2.99632 -2.23822 0
M  V30 324 H 31.7691 6.07505 -2.99908 0
M  V30 325 H 32.7121 5.53008 -4.42253 0
M  V30 326 H 33.1201 4.90284 -2.79789 0
M  V30 327 N 32.5182 1.22032 0.997298 0
M  V30 328 C 33.4812 0.987909 2.06816 0
M  V30 329 C 34.4812 -0.0440084 1.6074 0
M  V30 330 O 35.6712 0.194053 1.73116 0
M  V30 331 C 32.8032 0.49132 3.37341 0
M  V30 332 H 33.9962 1.93803 2.28868 0
M  V30 333 H 31.5492 1.03838 1.16822 0
M  V30 334 H 32.2842 -0.463364 3.20973 0
M  V30 335 H 32.0692 1.23575 3.72118 0
M  V30 336 H 33.5592 0.348824 4.16141 0
M  V30 337 N 33.9963 -1.19345 1.0293 0
M  V30 338 C 34.9063 -2.26245 0.620515 0
M  V30 339 C 35.9223 -1.70486 -0.347928 0
M  V30 340 O 37.0983 -2.00347 -0.205704 0
M  V30 341 C 34.1633 -3.46693 -0.0218957 0
M  V30 342 C 33.2243 -4.17632 0.994102 0
M  V30 343 C 32.4573 -5.32329 0.382253 0
M  V30 344 O 32.6803 -5.64552 -0.814676 0
M  V30 345 O 31.6143 -5.91664 1.10531 0
M  V30 346 H 35.4403 -2.63453 1.51083 0
M  V30 347 H 33.0253 -1.26207 0.799513 0
M  V30 348 H 34.9073 -4.19683 -0.380072 0
M  V30 349 H 33.5823 -3.11333 -0.886209 0
M  V30 350 H 32.4893 -3.4676 1.40387 0
M  V30 351 H 33.8223 -4.56964 1.8288 0
M  V30 352 N 35.4744 -0.807222 -1.35358 0
M  V30 353 C 36.4224 -0.20614 -2.31685 0
M  V30 354 C 37.4164 0.644445 -1.56663 0
M  V30 355 O 38.6224 0.537538 -1.71786 0
M  V30 356 H 34.9974 -0.0479006 -0.750473 0
M  V30 357 H 36.9684 -1.03369 -2.79924 0
M  V30 358 C 35.7174 0.630212 -3.41941 0
M  V30 359 H 35.0404 -0.0149558 -3.99797 0
M  V30 360 H 36.4804 1.01716 -4.11619 0
M  V30 361 C 34.9394 1.79601 -2.85035 0
M  V30 362 O 35.4694 2.89351 -2.78637 0
M  V30 363 N 33.6754 1.60774 -2.42074 0
M  V30 364 H 33.2224 0.715009 -2.47478 0
M  V30 365 H 33.1804 2.38933 -2.04349 0
M  V30 366 N 36.9525 1.47285 -0.560781 0
M  V30 367 C 37.8825 2.32857 0.173105 0
M  V30 368 C 38.8635 1.44009 0.905281 0
M  V30 369 O 40.0485 1.7286 0.885046 0
M  V30 370 C 37.1785 3.25861 1.20133 0
M  V30 371 C 36.1325 4.23978 0.585388 0
M  V30 372 C 35.4585 5.06332 1.7185 0
M  V30 373 C 36.7585 5.20242 -0.463178 0
M  V30 374 H 38.4525 2.94466 -0.541307 0
M  V30 375 H 35.9985 1.41601 -0.261764 0
M  V30 376 H 37.9515 3.84569 1.72293 0
M  V30 377 H 36.6755 2.62315 1.94573 0
M  V30 378 H 35.3345 3.66501 0.085054 0
M  V30 379 H 34.9825 4.39186 2.45203 0
M  V30 380 H 34.6825 5.72762 1.31213 0
M  V30 381 H 36.2065 5.67899 2.24329 0
M  V30 382 H 37.6205 5.73293 -0.027502 0
M  V30 383 H 36.0175 5.94896 -0.788627 0
M  V30 384 H 37.0875 4.65504 -1.35773 0
M  V30 385 N 38.4306 0.297415 1.54768 0
M  V30 386 C 39.3776 -0.580276 2.23386 0
M  V30 387 C 40.3476 -1.13238 1.21517 0
M  V30 388 O 41.5326 -1.17757 1.50126 0
M  V30 389 C 38.6726 -1.74801 2.97555 0
M  V30 390 C 37.7856 -1.22764 4.1419 0
M  V30 391 C 36.9206 -2.35895 4.75949 0
M  V30 392 C 35.9596 -1.80974 5.84735 0
M  V30 393 N 35.0966 -2.87664 6.40464 0
M  V30 394 H 39.9366 0.0114833 2.97998 0
M  V30 395 H 37.4736 0.0174361 1.4709 0
M  V30 396 H 39.4316 -2.43475 3.38786 0
M  V30 397 H 38.0616 -2.31145 2.25326 0
M  V30 398 H 37.1136 -0.433271 3.77924 0
M  V30 399 H 38.4256 -0.785551 4.92575 0
M  V30 400 H 37.5796 -3.12523 5.20014 0
M  V30 401 H 36.3186 -2.83429 3.96887 0
M  V30 402 H 35.3236 -1.02834 5.40097 0
M  V30 403 H 36.5486 -1.34348 6.65678 0
M  V30 404 H 34.4946 -3.34538 5.64287 0
M  V30 405 H 34.4116 -2.4794 7.14186 0
M  V30 406 H 35.6796 -3.642 6.89187 0
M  V30 407 N 39.9087 -1.5758 0.0250728 0
M  V30 408 C 40.8387 -2.13007 -0.956575 0
M  V30 409 C 41.8197 -1.0452 -1.342 0
M  V30 410 O 43.0047 -1.32332 -1.42133 0
M  V30 411 C 40.1347 -2.65386 -2.24026 0
M  V30 412 C 39.0887 -3.78623 -1.99571 0
M  V30 413 C 38.4147 -4.17414 -3.3417 0
M  V30 414 C 39.7147 -5.04867 -1.33814 0
M  V30 415 H 41.4087 -2.9528 -0.494991 0
M  V30 416 H 38.9547 -1.42042 -0.236651 0
M  V30 417 H 40.9077 -3.02794 -2.93076 0
M  V30 418 H 39.6317 -1.80268 -2.72343 0
M  V30 419 H 38.2907 -3.41646 -1.32941 0
M  V30 420 H 37.9387 -3.29284 -3.80238 0
M  V30 421 H 37.6387 -4.93719 -3.18615 0
M  V30 422 H 39.1627 -4.57402 -4.04495 0
M  V30 423 H 40.5767 -5.39888 -1.92857 0
M  V30 424 H 38.9737 -5.86144 -1.28669 0
M  V30 425 H 40.0437 -4.83904 -0.310561 0
M  V30 426 N 41.3868 0.248026 -1.55636 0
M  V30 427 C 42.6348 0.974295 -1.77065 0
M  V30 428 C 42.9558 1.85897 -0.588849 0
M  V30 429 O 42.2258 1.91868 0.395407 0
M  V30 430 H 40.8058 0.362733 -0.653019 0
M  V30 431 H 43.4678 0.266244 -1.93073 0
M  V30 432 H 42.5638 1.59667 -2.68166 0
M  V30 433 N 42.8649 1.48995 0.513639 0
M  V30 434 C 44.1119 1.57843 1.26854 0
M  V30 435 C 44.4399 0.259501 1.92761 0
M  V30 436 O 43.6949 -0.75159 1.80692 0
M  V30 437 C 43.9939 2.67756 2.36731 0
M  V30 438 C 43.6599 4.09669 1.88368 0
M  V30 439 C 42.3219 4.48291 1.74896 0
M  V30 440 C 44.6739 4.98537 1.52021 0
M  V30 441 C 42.0019 5.73568 1.23438 0
M  V30 442 C 44.3539 6.24319 1.0202 0
M  V30 443 C 43.0179 6.61783 0.871778 0
M  V30 444 H 42.2879 0.577587 0.464192 0
M  V30 445 H 44.9349 1.82778 0.571366 0
M  V30 446 H 43.2399 2.36743 3.12185 0
M  V30 447 H 44.9369 2.71813 2.9482 0
M  V30 448 H 41.5269 3.79176 1.99808 0
M  V30 449 H 45.7109 4.69363 1.61281 0
M  V30 450 H 40.9669 6.01304 1.10648 0
M  V30 451 H 45.1409 6.92566 0.729722 0
M  V30 452 H 42.7679 7.5874 0.470852 0
M  V30 453 N 44.343 -0.763751 1.37857 0
M  V30 454 C 45.273 -1.89103 1.36975 0
M  V30 455 C 46.254 -1.68439 0.237152 0
M  V30 456 O 47.439 -1.8918 0.438713 0
M  V30 457 C 44.569 -3.26496 1.18395 0
M  V30 458 C 43.523 -3.61741 2.28751 0
M  V30 459 C 42.849 -4.97762 1.95286 0
M  V30 460 C 44.149 -3.67665 3.70972 0
M  V30 461 H 45.843 -1.90099 2.31307 0
M  V30 462 H 43.389 -0.91319 1.11341 0
M  V30 463 H 45.342 -4.05003 1.16406 0
M  V30 464 H 44.066 -3.25955 0.205215 0
M  V30 465 H 42.725 -2.85547 2.29909 0
M  V30 466 H 42.373 -4.93769 0.959221 0
M  V30 467 H 42.073 -5.22313 2.69189 0
M  V30 468 H 43.597 -5.7866 1.94898 0
M  V30 469 H 45.011 -4.36307 3.719 0
M  V30 470 H 43.408 -4.03718 4.43995 0
M  V30 471 H 44.478 -2.68134 4.0402 0
M  V30 472 N 45.8211 -1.22559 -0.990812 0
M  V30 473 C 47.0671 -1.05297 -1.73322 0
M  V30 474 C 47.4001 0.410655 -1.89808 0
M  V30 475 O 46.6751 1.30439 -1.44277 0
M  V30 476 C 46.9581 -1.76713 -3.13759 0
M  V30 477 C 46.8111 -3.30684 -3.04907 0
M  V30 478 C 48.1301 -1.52121 -4.12974 0
M  V30 479 H 45.2491 -0.38392 -0.629106 0
M  V30 480 H 47.8911 -1.50926 -1.15418 0
M  V30 481 H 46.0411 -1.37924 -3.63193 0
M  V30 482 H 47.7131 -3.7893 -2.63077 0
M  V30 483 H 45.9561 -3.60253 -2.41661 0
M  V30 484 H 46.6271 -3.75833 -4.04294 0
M  V30 485 H 49.1031 -1.85819 -3.72304 0
M  V30 486 H 47.9791 -2.04582 -5.0935 0
M  V30 487 H 48.2401 -0.454257 -4.3976 0
M  V30 488 N 47.2992 1.18797 -1.03562 0
M  V30 489 C 48.2462 2.22253 -0.622259 0
M  V30 490 C 49.2162 1.61987 0.36736 0
M  V30 491 O 50.4012 1.88986 0.262492 0
M  V30 492 C 47.5412 3.45097 0.0138462 0
M  V30 493 C 46.6542 4.19722 -1.02263 0
M  V30 494 C 45.7892 5.30009 -0.355573 0
M  V30 495 C 44.8282 5.96399 -1.37749 0
M  V30 496 N 43.9652 6.98234 -0.735766 0
M  V30 497 H 48.8052 2.56968 -1.50903 0
M  V30 498 H 46.3422 1.26245 -0.755017 0
M  V30 499 H 48.3002 4.15279 0.399948 0
M  V30 500 H 46.9302 3.11018 0.864158 0
M  V30 501 H 45.9822 3.48418 -1.52673 0
M  V30 502 H 47.2942 4.65227 -1.79903 0
M  V30 503 H 46.4482 6.0664 0.0850095 0
M  V30 504 H 45.1872 4.85592 0.452967 0
M  V30 505 H 44.1922 5.18512 -1.82826 0
M  V30 506 H 45.4172 6.42899 -2.18764 0
M  V30 507 H 43.3632 6.55979 0.0525597 0
M  V30 508 H 43.2802 7.41965 -1.44995 0
M  V30 509 H 44.5482 7.78845 -0.31941 0
M  V30 510 N 48.7773 0.814389 1.34928 0
M  V30 511 C 49.7093 0.187834 2.28429 0
M  V30 512 C 50.7223 -0.617374 1.5064 0
M  V30 513 O 51.9113 -0.448454 1.72775 0
M  V30 514 C 49.0113 -0.755962 3.30361 0
M  V30 515 C 48.1843 0.00456686 4.374 0
M  V30 516 C 47.2433 -0.858876 5.19143 0
M  V30 517 O 46.2693 -0.306968 5.68372 0
M  V30 518 N 47.4713 -2.17988 5.38016 0
M  V30 519 H 50.2363 0.991105 2.82838 0
M  V30 520 H 47.7973 0.670561 1.4736 0
M  V30 521 H 49.7893 -1.338 3.81942 0
M  V30 522 H 48.3593 -1.46001 2.7641 0
M  V30 523 H 47.5793 0.767865 3.86649 0
M  V30 524 H 48.8673 0.528422 5.06049 0
M  V30 525 H 48.2653 -2.65212 4.99679 0
M  V30 526 H 46.8223 -2.71098 5.92747 0
M  V30 527 N 50.2554 -1.46986 0.568584 0
M  V30 528 C 51.6664 -1.86188 0.138219 0
M  V30 529 C 52.0174 -1.47388 -1.29504 0
M  V30 530 O 51.1424 -0.88219 -1.97602 0
M  V30 531 C 51.7374 -3.3792 0.244065 0
M  V30 532 C 50.2964 -3.76171 -0.131335 0
M  V30 533 C 49.4434 -2.71027 0.586465 0
M  V30 534 H 52.3944 -1.38342 0.777645 0
M  V30 535 H 52.4154 -3.76729 -0.534351 0
M  V30 536 H 51.9274 -3.66128 1.28731 0
M  V30 537 H 50.0284 -3.5358 -1.17526 0
M  V30 538 H 50.1414 -4.78523 0.235146 0
M  V30 539 H 48.5054 -2.54684 0.0282722 0
M  V30 540 H 49.2884 -3.02077 1.63109 0
M  V30 541 N 51.7335 -0.305618 -1.54608 0
M  V30 542 C 52.6435 0.57778 -2.27374 0
M  V30 543 C 53.6595 1.14451 -1.31061 0
M  V30 544 O 54.8355 1.16831 -1.6405 0
M  V30 545 C 51.9005 1.73123 -3.00382 0
M  V30 546 C 50.9615 1.19812 -4.12242 0
M  V30 547 C 50.1945 2.2966 -4.81759 0
M  V30 548 O 50.4175 3.49651 -4.50666 0
M  V30 549 O 49.3515 1.96091 -5.69062 0
M  V30 550 H 53.1775 -0.012624 -3.03697 0
M  V30 551 H 50.7625 -0.0719184 -1.49227 0
M  V30 552 H 52.6445 2.40315 -3.4616 0
M  V30 553 H 51.3195 2.30815 -2.26949 0
M  V30 554 H 50.2265 0.491798 -3.70853 0
M  V30 555 H 51.5595 0.666566 -4.87666 0
M  V30 556 N 53.2116 1.57565 -0.0334293 0
M  V30 557 C 54.1216 2.13943 0.962572 0
M  V30 558 C 55.1376 1.09276 1.35406 0
M  V30 559 O 56.3136 1.41355 1.4346 0
M  V30 560 C 53.3786 2.65887 2.22497 0
M  V30 561 C 52.4396 3.85286 1.8935 0
M  V30 562 C 51.6726 4.34743 3.09571 0
M  V30 563 O 51.8956 3.83352 4.22371 0
M  V30 564 O 50.8296 5.26538 2.91618 0
M  V30 565 H 54.6556 2.99333 0.513169 0
M  V30 566 H 52.2406 1.4822 0.18743 0
M  V30 567 H 54.1226 2.99346 2.96598 0
M  V30 568 H 52.7976 1.83578 2.6661 0
M  V30 569 H 51.7046 3.56746 1.1262 0
M  V30 570 H 53.0376 4.68771 1.5005 0
M  V30 571 N 54.6897 -0.239769 1.55765 0
M  V30 572 C 56.1007 -0.808263 1.68297 0
M  V30 573 C 56.4517 -1.85736 0.632181 0
M  V30 574 O 55.5767 -2.15277 -0.220204 0
M  V30 575 C 56.1717 -1.47284 3.05111 0
M  V30 576 C 54.7307 -1.98895 3.19559 0
M  V30 577 C 53.8777 -0.842575 2.64189 0
M  V30 578 H 56.8287 -0.0154422 1.58692 0
M  V30 579 H 56.8497 -2.34111 2.99954 0
M  V30 580 H 56.3617 -0.709053 3.81568 0
M  V30 581 H 54.4627 -2.78132 2.47938 0
M  V30 582 H 54.5757 -2.18143 4.26556 0
M  V30 583 H 52.9397 -1.24501 2.22197 0
M  V30 584 H 53.7227 -0.0917552 3.43177 0
M  V30 585 N 56.1678 -1.49265 -0.50573 0
M  V30 586 C 57.4138 -1.59723 -1.25937 0
M  V30 587 C 57.7688 -0.278236 -1.90378 0
M  V30 588 O 57.0618 0.72113 -1.77511 0
M  V30 589 C 57.2558 -2.69008 -2.35308 0
M  V30 590 C 57.0848 -4.11405 -1.81592 0
M  V30 591 C 55.8548 -4.78252 -1.63105 0
M  V30 592 C 58.0528 -4.96792 -1.33048 0
M  V30 593 N 56.0348 -6.0498 -1.04269 0
M  V30 594 C 57.4058 -6.13962 -0.863168 0
M  V30 595 C 59.4608 -4.82828 -1.21577 0
M  V30 596 C 58.1638 -7.18705 -0.292489 0
M  V30 597 C 60.1898 -5.87716 -0.65907 0
M  V30 598 C 59.5518 -7.0411 -0.201954 0
M  V30 599 H 55.6508 -0.638864 -0.450973 0
M  V30 600 H 58.2348 -1.86251 -0.567326 0
M  V30 601 H 56.4058 -2.4426 -3.01979 0
M  V30 602 H 58.1378 -2.69013 -3.02348 0
M  V30 603 H 54.8928 -4.34974 -1.87336 0
M  V30 604 H 55.3168 -6.72631 -0.767919 0
M  V30 605 H 59.9588 -3.93159 -1.55518 0
M  V30 606 H 57.6768 -8.08078 0.0591987 0
M  V30 607 H 61.2628 -5.7897 -0.573156 0
M  V30 608 H 60.1428 -7.83885 0.222101 0
M  V30 609 N 57.6459 0.756429 -1.3826 0
M  V30 610 C 58.8929 1.51547 -1.34312 0
M  V30 611 C 59.2209 1.94382 0.0677144 0
M  V30 612 O 58.4759 1.65514 1.04421 0
M  V30 613 C 58.7749 2.78313 -2.24224 0
M  V30 614 C 58.4409 2.54455 -3.72241 0
M  V30 615 C 57.1029 2.47657 -4.12576 0
M  V30 616 C 59.4549 2.3354 -4.65949 0
M  V30 617 C 56.7829 2.17956 -5.44713 0
M  V30 618 C 59.1349 2.05359 -5.9834 0
M  V30 619 C 57.7989 1.97016 -6.37762 0
M  V30 620 H 57.0689 0.55455 -0.491482 0
M  V30 621 H 59.7159 0.870039 -1.70595 0
M  V30 622 H 58.0209 3.47492 -1.80987 0
M  V30 623 H 59.7179 3.36259 -2.18474 0
M  V30 624 H 56.3079 2.60616 -3.40261 0
M  V30 625 H 60.4919 2.37772 -4.35635 0
M  V30 626 H 55.7479 2.10003 -5.74203 0
M  V30 627 H 59.9219 1.88179 -6.70494 0
M  V30 628 H 57.5489 1.73766 -7.40074 0
M  V30 629 N 59.124 1.23083 0.984299 0
M  V30 630 C 60.056 0.96636 2.07832 0
M  V30 631 C 61.069 -0.0582135 1.62696 0
M  V30 632 O 62.258 0.176843 1.77622 0
M  V30 633 C 59.358 0.433397 3.36117 0
M  V30 634 C 58.531 1.51722 4.10243 0
M  V30 635 C 57.59 0.989821 5.16807 0
M  V30 636 O 56.616 1.67794 5.43906 0
M  V30 637 N 57.818 -0.184367 5.80207 0
M  V30 638 H 60.583 1.90824 2.31098 0
M  V30 639 H 58.144 1.13888 1.1507 0
M  V30 640 H 60.136 0.065699 4.04647 0
M  V30 641 H 58.706 -0.413806 3.09849 0
M  V30 642 H 57.926 2.05786 3.36223 0
M  V30 643 H 59.214 2.24619 4.56534 0
M  V30 644 H 58.612 -0.760062 5.60571 0
M  V30 645 H 57.169 -0.493366 6.4993 0
M  V30 646 N 60.6021 -1.18246 1.0419 0
M  V30 647 C 61.8301 -1.92195 0.766072 0
M  V30 648 C 62.2451 -1.76247 -0.676933 0
M  V30 649 O 61.6021 -1.09293 -1.46155 0
M  V30 650 C 61.6531 -3.43568 1.12442 0
M  V30 651 O 61.3741 -3.59015 2.51078 0
M  V30 652 C 62.8751 -4.34613 0.873275 0
M  V30 653 H 60.0951 -0.610114 0.279288 0
M  V30 654 H 62.6391 -1.50007 1.38989 0
M  V30 655 H 60.7941 -3.8354 0.545542 0
M  V30 656 H 61.2081 -4.5273 2.64831 0
M  V30 657 H 62.6821 -5.39374 1.17385 0
M  V30 658 H 63.1591 -4.38781 -0.191909 0
M  V30 659 H 63.7651 -4.00341 1.43551 0
M  V30 660 N 62.0802 -0.821533 -1.34494 0
M  V30 661 C 62.9902 -0.244355 -2.33324 0
M  V30 662 C 64.0062 0.620527 -1.62559 0
M  V30 663 O 65.1822 0.528754 -1.94335 0
M  V30 664 C 62.2472 0.585368 -3.41723 0
M  V30 665 C 61.3082 -0.301752 -4.28238 0
M  V30 666 C 60.5412 0.488466 -5.3146 0
M  V30 667 O 60.7642 1.72186 -5.4379 0
M  V30 668 O 59.6982 -0.12848 -6.01763 0
M  V30 669 H 63.5242 -1.06231 -2.84515 0
M  V30 670 H 61.1092 -0.583645 -1.37528 0
M  V30 671 H 62.9912 1.05747 -4.07916 0
M  V30 672 H 61.6662 1.38068 -2.92778 0
M  V30 673 H 60.5732 -0.821315 -3.64973 0
M  V30 674 H 61.9062 -1.06138 -4.8062 0
M  V30 675 N 63.5583 1.46682 -0.576371 0
M  V30 676 C 64.8043 2.03287 -0.0679305 0
M  V30 677 C 65.1593 1.44063 1.27529 0
M  V30 678 O 64.4523 0.593973 1.82161 0
M  V30 679 C 64.6463 3.57345 0.062886 0
M  V30 680 C 64.4753 4.31509 -1.26611 0
M  V30 681 C 63.2453 4.70664 -1.83856 0
M  V30 682 C 65.4433 4.65444 -2.18783 0
M  V30 683 N 63.4253 5.29552 -3.10561 0
M  V30 684 C 64.7963 5.24835 -3.30072 0
M  V30 685 C 66.8513 4.47375 -2.18542 0
M  V30 686 C 65.5543 5.68063 -4.41244 0
M  V30 687 C 67.5803 4.91614 -3.28739 0
M  V30 688 C 66.9423 5.51071 -4.38748 0
M  V30 689 H 63.0413 0.779083 -0.0674836 0
M  V30 690 H 65.6253 1.78918 -0.767877 0
M  V30 691 H 63.7963 3.8144 0.731988 0
M  V30 692 H 65.5283 4.00592 0.575134 0
M  V30 693 H 62.2833 4.53224 -1.37424 0
M  V30 694 H 62.7073 5.63523 -3.75195 0
M  V30 695 H 67.3493 4.00747 -1.34765 0
M  V30 696 H 65.0673 6.13672 -5.25768 0
M  V30 697 H 68.6533 4.79389 -3.29662 0
M  V30 698 H 67.5333 5.84678 -5.22611 0
M  V30 699 N 65.0364 0.313813 1.54444 0
M  V30 700 C 65.9834 -0.55655 2.23989 0
M  V30 701 C 66.9534 -1.11943 1.22711 0
M  V30 702 O 68.1384 -1.16158 1.51367 0
M  V30 703 C 65.2784 -1.71635 2.99392 0
M  V30 704 C 64.3914 -1.18364 4.15468 0
M  V30 705 C 63.5264 -2.30834 4.78424 0
M  V30 706 C 62.5654 -1.74762 5.86622 0
M  V30 707 N 61.7024 -2.80855 6.43479 0
M  V30 708 H 66.5424 0.0430893 2.97969 0
M  V30 709 H 64.0794 0.0330359 1.47063 0
M  V30 710 H 66.0374 -2.39868 3.41349 0
M  V30 711 H 64.6674 -2.28742 2.27765 0
M  V30 712 H 63.7194 -0.393163 3.78363 0
M  V30 713 H 65.0314 -0.733262 4.93381 0
M  V30 714 H 64.1854 -3.0699 5.23299 0
M  V30 715 H 62.9244 -2.79204 3.99871 0
M  V30 716 H 61.9294 -0.970995 5.41158 0
M  V30 717 H 63.1544 -1.2728 6.67066 0
M  V30 718 H 61.1004 -3.28535 5.67804 0
M  V30 719 H 61.0174 -2.40351 7.16776 0
M  V30 720 H 62.2854 -3.5687 6.93011 0
M  V30 721 N 66.5145 -1.57545 0.0417849 0
M  V30 722 C 67.7615 -1.92317 -0.634082 0
M  V30 723 C 68.0895 -0.919334 -1.71402 0
M  V30 724 O 67.3445 0.0698253 -1.95575 0
M  V30 725 C 67.6435 -3.33794 -1.27735 0
M  V30 726 C 67.3095 -4.49716 -0.326543 0
M  V30 727 C 65.9715 -4.81156 -0.0648814 0
M  V30 728 C 68.3235 -5.20182 0.325623 0
M  V30 729 C 65.6515 -5.80414 0.856539 0
M  V30 730 C 68.0035 -6.20424 1.23518 0
M  V30 731 C 66.6675 -6.50298 1.5056 0
M  V30 732 H 65.9375 -0.703736 -0.232027 0
M  V30 733 H 68.5845 -1.91205 0.106259 0
M  V30 734 H 66.8895 -3.31228 -2.09274 0
M  V30 735 H 68.5865 -3.57975 -1.80707 0
M  V30 736 H 65.1765 -4.25176 -0.540665 0
M  V30 737 H 69.3605 -4.96112 0.136546 0
M  V30 738 H 64.6165 -6.019 1.07363 0
M  V30 739 H 68.7905 -6.74141 1.74664 0
M  V30 740 H 66.4175 -7.27025 2.22123 0
M  V30 741 N 67.9926 0.231505 -1.5589 0
M  V30 742 C 68.9556 1.27028 -1.90779 0
M  V30 743 C 69.9556 1.40308 -0.785507 0
M  V30 744 O 71.1456 1.38744 -1.05336 0
M  V30 745 C 68.2776 2.64566 -2.14983 0
M  V30 746 H 69.4706 0.973017 -2.83677 0
M  V30 747 H 67.0236 0.471486 -1.49019 0
M  V30 748 H 67.7586 2.99406 -1.24604 0
M  V30 749 H 67.5436 2.56305 -2.96732 0
M  V30 750 H 69.0336 3.39543 -2.43105 0
M  V30 751 N 69.4707 1.49531 0.497807 0
M  V30 752 C 70.7477 1.49682 1.25915 0
M  V30 753 C 71.1277 0.226339 2.09883 0
M  V30 754 O 70.4757 -0.791189 2.14365 0
M  V30 755 C 70.6857 2.77755 2.11313 0
M  V30 756 C 72.0337 3.27371 2.70395 0
M  V30 757 O 73.0577 2.78894 2.21578 0
M  V30 758 O 71.9167 4.11808 3.59272 0
M  V30 759 H 69.0107 0.599228 0.56996 0
M  V30 760 H 71.5567 1.61798 0.511816 0
M  V30 761 H 70.3287 3.61713 1.49264 0
M  V30 762 H 69.9517 2.68515 2.93233 0
M  V30 763 N 70.9488 -0.749086 1.3866 0
M  V30 764 C 71.8958 -1.86291 1.36251 0
M  V30 765 C 72.8658 -1.64578 0.224347 0
M  V30 766 O 74.0508 -1.86181 0.417279 0
M  V30 767 C 71.1908 -3.23644 1.19786 0
M  V30 768 C 70.3038 -3.57158 2.43027 0
M  V30 769 C 69.4388 -4.83838 2.19258 0
M  V30 770 C 68.4778 -5.10152 3.38247 0
M  V30 771 N 67.6148 -6.28029 3.13884 0
M  V30 772 H 72.4548 -1.87685 2.3147 0
M  V30 773 H 69.9918 -0.917287 1.14997 0
M  V30 774 H 71.9498 -4.0291 1.08254 0
M  V30 775 H 70.5798 -3.21566 0.282031 0
M  V30 776 H 69.6318 -2.72701 2.65214 0
M  V30 777 H 70.9438 -3.7253 3.31697 0
M  V30 778 H 70.0978 -5.71057 2.04888 0
M  V30 779 H 68.8368 -4.70614 1.2796 0
M  V30 780 H 67.8418 -4.21401 3.53131 0
M  V30 781 H 69.0668 -5.25271 4.30427 0
M  V30 782 H 67.0128 -6.1612 2.25238 0
M  V30 783 H 66.9298 -6.43922 3.96106 0
M  V30 784 H 68.1978 -7.18124 3.03179 0
M  V30 785 N 72.4269 -1.23603 -0.977757 0
M  V30 786 C 73.3899 -1.02069 -2.05218 0
M  V30 787 C 74.3899 0.0184305 -1.60789 0
M  V30 788 O 75.5799 -0.221569 -1.72785 0
M  V30 789 C 72.7119 -0.544926 -3.36517 0
M  V30 790 H 73.9049 -1.9742 -2.25755 0
M  V30 791 H 71.4579 -1.05684 -1.15155 0
M  V30 792 H 72.1929 0.412241 -3.21669 0
M  V30 793 H 71.9779 -1.2948 -3.70105 0
M  V30 794 H 73.4679 -0.414985 -4.15533 0
M  V30 795 N 73.905 1.17692 -1.04816 0
M  V30 796 C 75.153 1.87488 -0.754497 0
M  V30 797 C 75.474 1.81205 0.720407 0
M  V30 798 O 74.744 1.23544 1.52032 0
M  V30 799 H 73.324 0.694101 -0.276102 0
M  V30 800 H 75.986 1.42793 -1.32651 0
M  V30 801 H 75.082 2.93328 -1.06606 0
M  V30 802 N 75.3831 0.828654 1.34056 0
M  V30 803 C 76.3301 0.252567 2.29414 0
M  V30 804 C 77.3001 -0.62588 1.53857 0
M  V30 805 O 78.4851 -0.566312 1.82202 0
M  V30 806 C 75.6251 -0.574831 3.40279 0
M  V30 807 C 74.7381 0.326499 4.30764 0
M  V30 808 C 73.8731 -0.511016 5.28736 0
M  V30 809 C 72.9121 0.389342 6.1086 0
M  V30 810 N 72.0491 -0.409439 7.00905 0
M  V30 811 H 76.8891 1.07108 2.78086 0
M  V30 812 H 74.4261 0.539677 1.36843 0
M  V30 813 H 76.3841 -1.06992 4.03248 0
M  V30 814 H 75.0141 -1.35841 2.92826 0
M  V30 815 H 74.0661 0.939837 3.68607 0
M  V30 816 H 75.3781 1.01857 4.88289 0
M  V30 817 H 74.5321 -1.07035 5.97184 0
M  V30 818 H 73.2711 -1.23657 4.71763 0
M  V30 819 H 72.2761 0.960769 5.4134 0
M  V30 820 H 73.5011 1.1131 6.69916 0
M  V30 821 H 71.4471 -1.11856 6.46393 0
M  V30 822 H 71.3641 0.224126 7.55668 0
M  V30 823 H 72.6321 -0.951336 7.73673 0
M  V30 824 N 76.8612 -1.46375 0.584142 0
M  V30 825 C 78.1382 -1.956 0.0033388 0
M  V30 826 C 78.5182 -1.52679 -1.45782 0
M  V30 827 O 77.8662 -0.77816 -2.14842 0
M  V30 828 C 78.0762 -3.48551 0.176891 0
M  V30 829 C 79.4242 -4.24576 0.0454609 0
M  V30 830 O 80.4482 -3.56043 0.105801 0
M  V30 831 O 79.3072 -5.46427 -0.0890376 0
M  V30 832 H 76.4012 -0.825547 -0.0490066 0
M  V30 833 H 78.9472 -1.56652 0.65256 0
M  V30 834 H 77.7192 -3.72683 1.1926 0
M  V30 835 H 77.3422 -3.94332 -0.508695 0
M  V30 836 N 78.3393 -0.321999 -1.54275 0
M  V30 837 C 79.2693 0.537411 -2.27231 0
M  V30 838 C 80.2503 1.12064 -1.27968 0
M  V30 839 O 81.4353 1.14606 -1.56777 0
M  V30 840 C 78.5653 1.69919 -3.02894 0
M  V30 841 C 77.5193 1.24534 -4.09482 0
M  V30 842 C 76.8453 2.49394 -4.72977 0
M  V30 843 C 78.1453 0.361335 -5.21049 0
M  V30 844 H 79.8393 -0.0711406 -2.99315 0
M  V30 845 H 77.3853 -0.0356555 -1.43956 0
M  V30 846 H 79.3383 2.30668 -3.52662 0
M  V30 847 H 78.0623 2.33431 -2.28424 0
M  V30 848 H 76.7213 0.660782 -3.60596 0
M  V30 849 H 76.3693 3.11265 -3.95124 0
M  V30 850 H 76.0693 2.19718 -5.44975 0
M  V30 851 H 77.5933 3.10908 -5.25517 0
M  V30 852 H 79.0073 0.875072 -5.66582 0
M  V30 853 H 77.4043 0.157428 -5.99893 0
M  V30 854 H 78.4743 -0.60822 -4.8107 0
M  V30 855 N 79.8174 1.5752 -0.0501392 0
M  V30 856 C 81.0654 1.9227 0.622642 0
M  V30 857 C 81.3864 0.929083 1.71444 0
M  V30 858 O 80.6564 -0.0262186 1.95882 0
M  V30 859 H 79.2364 0.709739 0.232981 0
M  V30 860 H 81.8984 1.94628 -0.102898 0
M  V30 861 H 80.9944 2.93479 1.06191 0
M  V30 862 N 81.2955 -0.223234 1.56011 0
M  V30 863 C 82.5425 -0.947875 1.78946 0
M  V30 864 C 82.8705 -1.844 0.618608 0
M  V30 865 O 82.1255 -1.91629 -0.397093 0
M  V30 866 C 82.4245 -1.81948 3.0762 0
M  V30 867 C 82.0905 -1.07672 4.37856 0
M  V30 868 C 80.7525 -0.871544 4.73242 0
M  V30 869 C 83.1045 -0.552081 5.18268 0
M  V30 870 C 80.4325 -0.129791 5.86556 0
M  V30 871 C 82.7845 0.17632 6.32354 0
M  V30 872 C 81.4485 0.39277 6.66343 0
M  V30 873 H 80.7185 -0.346852 0.654809 0
M  V30 874 H 83.3655 -0.216171 1.90276 0
M  V30 875 H 81.6705 -2.61899 2.91404 0
M  V30 876 H 83.3675 -2.38227 3.22566 0
M  V30 877 H 79.9575 -1.24662 4.1007 0
M  V30 878 H 84.1415 -0.698076 4.91366 0
M  V30 879 H 79.3975 0.048153 6.11381 0
M  V30 880 H 83.5715 0.590367 6.93893 0
M  V30 881 H 81.1985 0.969466 7.53993 0
M  V30 882 N 82.7736 -1.49793 -0.48987 0
M  V30 883 C 83.6836 -1.70036 -1.61632 0
M  V30 884 C 84.6996 -0.583102 -1.63939 0
M  V30 885 O 85.8756 -0.859169 -1.82154 0
M  V30 886 C 82.9406 -1.77277 -2.97949 0
M  V30 887 C 82.0016 -3.00918 -3.06181 0
M  V30 888 C 81.2346 -3.07804 -4.35996 0
M  V30 889 O 81.4576 -2.21982 -5.25433 0
M  V30 890 O 80.3916 -4.00369 -4.49431 0
M  V30 891 H 84.2176 -2.65486 -1.47482 0
M  V30 892 H 81.8026 -1.33666 -0.667362 0
M  V30 893 H 83.6846 -1.84329 -3.78947 0
M  V30 894 H 82.3596 -0.850076 -3.12339 0
M  V30 895 H 81.2666 -2.99377 -2.2433 0
M  V30 896 H 82.5996 -3.92704 -2.96723 0
M  V30 897 N 84.2517 0.741722 -1.39055 0
M  V30 898 C 85.4977 1.50336 -1.36113 0
M  V30 899 C 85.8307 1.94148 0.0450796 0
M  V30 900 O 85.1057 1.66301 1.00868 0
M  V30 901 C 85.3887 2.74773 -2.32749 0
M  V30 902 C 85.2417 2.37023 -3.82283 0
M  V30 903 C 86.5607 3.76846 -2.27322 0
M  V30 904 H 83.6797 0.545351 -0.495743 0
M  V30 905 H 86.3217 0.848624 -1.69995 0
M  V30 906 H 84.4717 3.30639 -2.03986 0
M  V30 907 H 86.1437 1.8684 -4.21768 0
M  V30 908 H 84.3867 1.69334 -3.99385 0
M  V30 909 H 85.0577 3.26104 -4.45376 0
M  V30 910 H 87.5337 3.30548 -2.5274 0
M  V30 911 H 86.4097 4.6159 -2.97028 0
M  V30 912 H 86.6707 4.23286 -1.27599 0
M  V30 913 N 85.7298 1.2412 0.971189 0
M  V30 914 C 86.9788 1.07284 1.70801 0
M  V30 915 C 87.2918 -0.388902 1.91695 0
M  V30 916 O 88.4978 -0.677379 2.62914 0
M  V30 917 C 86.9538 1.87145 3.07416 0
M  V30 918 C 86.5618 3.37707 2.94377 0
M  V30 919 C 88.3058 1.78828 3.84995 0
M  V30 920 C 86.2128 4.09925 4.26281 0
M  V30 921 H 85.1428 0.397854 0.64049 0
M  V30 922 H 87.7938 1.4817 1.0825 0
M  V30 923 H 86.1758 1.39071 3.70777 0
M  V30 924 H 87.3498 3.93335 2.4005 0
M  V30 925 H 85.6648 3.46938 2.30267 0
M  V30 926 H 88.2618 2.30089 4.82662 0
M  V30 927 H 88.6048 0.75284 4.09436 0
M  V30 928 H 89.1378 2.24563 3.28354 0
M  V30 929 H 85.8768 5.13813 4.07033 0
M  V30 930 H 85.3968 3.59083 4.80437 0
M  V30 931 H 87.0758 4.1673 4.94919 0
M  V30 932 N 87.2079 -1.17134 1.05439 0
M  V30 933 C 88.1549 -2.21235 0.657539 0
M  V30 934 C 89.1249 -1.62551 -0.341543 0
M  V30 935 O 90.3099 -1.89379 -0.232393 0
M  V30 936 C 87.4499 -3.45076 0.0410575 0
M  V30 937 C 86.5629 -4.18042 1.08927 0
M  V30 938 C 85.6979 -5.29376 0.439848 0
M  V30 939 C 84.7369 -5.94132 1.4722 0
M  V30 940 N 83.8739 -6.96975 0.846756 0
M  V30 941 H 88.7139 -2.54534 1.54972 0
M  V30 942 H 86.2509 -1.25028 0.775006 0
M  V30 943 H 88.2089 -4.15862 -0.33383 0
M  V30 944 H 86.8389 -3.12353 -0.814568 0
M  V30 945 H 85.8909 -3.45945 1.58196 0
M  V30 946 H 87.2029 -4.62306 1.87282 0
M  V30 947 H 86.3569 -6.06699 0.0115125 0
M  V30 948 H 85.0959 -4.86251 -0.375656 0
M  V30 949 H 84.1009 -5.15538 1.91052 0
M  V30 950 H 85.3259 -6.39337 2.28965 0
M  V30 951 H 83.2719 -6.5598 0.0518075 0
M  V30 952 H 83.1889 -7.39565 1.5678 0
M  V30 953 H 84.4569 -7.78239 0.443277 0
M  V30 954 N 88.686 -0.835752 -1.33615 0
M  V30 955 C 89.935 -0.426289 -1.97144 0
M  V30 956 C 90.248 1.01912 -1.66953 0
M  V30 957 O 91.454 1.53311 -2.24072 0
M  V30 958 C 89.91 -0.711321 -3.52801 0
M  V30 959 C 89.518 -2.1712 -3.91871 0
M  V30 960 C 91.262 -0.368654 -4.22896 0
M  V30 961 C 89.169 -2.40044 -5.40493 0
M  V30 962 H 88.099 -0.15567 -0.737755 0
M  V30 963 H 90.75 -1.0239 -1.52278 0
M  V30 964 H 89.132 -0.0433766 -3.95976 0
M  V30 965 H 90.306 -2.87936 -3.59763 0
M  V30 966 H 88.621 -2.47654 -3.34749 0
M  V30 967 H 91.218 -0.517601 -5.32189 0
M  V30 968 H 91.561 0.688078 -4.10574 0
M  V30 969 H 92.094 -0.991702 -3.8524 0
M  V30 970 H 88.833 -3.44271 -5.57815 0
M  V30 971 H 88.353 -1.73785 -5.74072 0
M  V30 972 H 90.032 -2.23042 -6.0734 0
M  V30 973 N 90.1641 1.46063 -0.591896 0
M  V30 974 C 91.1271 2.28854 0.125973 0
M  V30 975 C 92.1271 1.38903 0.810107 0
M  V30 976 O 93.3171 1.61186 0.66066 0
M  V30 977 C 90.4491 3.19526 1.1881 0
M  V30 978 H 91.6421 2.93802 -0.601717 0
M  V30 979 H 89.1951 1.52325 -0.350254 0
M  V30 980 H 89.9301 2.59345 1.94707 0
M  V30 981 H 89.7151 3.85766 0.701936 0
M  V30 982 H 91.2051 3.81817 1.69132 0
M  V30 983 N 91.6422 0.330177 1.54103 0
M  V30 984 C 92.8882 -0.270806 2.00984 0
M  V30 985 C 93.2212 -1.51265 1.21789 0
M  V30 986 O 92.4962 -1.92142 0.301927 0
M  V30 987 C 92.7792 -0.598339 3.55094 0
M  V30 988 C 92.6322 0.654674 4.4501 0
M  V30 989 C 93.9512 -1.41334 4.16789 0
M  V30 990 H 91.0702 -0.0969531 0.730595 0
M  V30 991 H 93.7122 0.448066 1.84641 0
M  V30 992 H 91.8622 -1.21078 3.69151 0
M  V30 993 H 93.5342 1.29285 4.42813 0
M  V30 994 H 91.7772 1.28224 4.14416 0
M  V30 995 H 92.4482 0.380944 5.50684 0
M  V30 996 H 94.9242 -0.895597 4.06347 0
M  V30 997 H 93.8002 -1.61127 5.24718 0
M  V30 998 H 94.0612 -2.41146 3.70541 0
M  V30 999 N 93.1203 -1.57491 0.0584922 0
M  V30 1000 C 94.5313 -1.80526 -0.476138 0
M  V30 1001 C 94.8823 -0.971334 -1.70469 0
M  V30 1002 O 94.0073 -0.190012 -2.15564 0
M  V30 1003 C 94.6023 -3.27424 -0.870587 0
M  V30 1004 C 93.1613 -3.51351 -1.35015 0
M  V30 1005 C 92.3083 -2.75343 -0.32887 0
M  V30 1006 H 95.2593 -1.56133 0.284312 0
M  V30 1007 H 95.2803 -3.38745 -1.73299 0
M  V30 1008 H 94.7923 -3.88093 0.0237627 0
M  V30 1009 H 92.8933 -2.95971 -2.26345 0
M  V30 1010 H 93.0063 -4.60059 -1.33726 0
M  V30 1011 H 91.3703 -2.417 -0.803321 0
M  V30 1012 H 92.1533 -3.38743 0.557521 0
M  V30 1013 N 94.5984 0.214957 -1.56127 0
M  V30 1014 C 95.8754 0.963093 -1.70247 0
M  V30 1015 C 96.2554 2.02166 -0.60764 0
M  V30 1016 O 95.6034 2.25244 0.384385 0
M  V30 1017 C 95.8134 1.56756 -3.11815 0
M  V30 1018 C 97.1614 2.0573 -3.7143 0
M  V30 1019 O 98.1854 1.66637 -3.14818 0
M  V30 1020 O 97.0444 2.77603 -4.70743 0
M  V30 1021 H 94.1384 0.450321 -0.693643 0
M  V30 1022 H 96.6844 0.206219 -1.68442 0
M  V30 1023 H 95.4564 0.803533 -3.82961 0
M  V30 1024 H 95.0794 2.3898 -3.17765 0
M  V30 1025 N 96.0765 1.50051 0.48192 0
M  V30 1026 C 97.3245 1.60181 1.23234 0
M  V30 1027 C 97.6455 0.299176 1.92691 0
M  V30 1028 O 96.9155 -0.682708 1.83619 0
M  V30 1029 H 95.4955 0.590232 0.457859 0
M  V30 1030 H 98.1575 1.86775 0.556881 0
M  V30 1031 H 97.2535 2.40753 1.98607 0
M  V30 1032 N 97.5546 -0.734337 1.39446 0
M  V30 1033 C 98.4646 -1.87879 1.40495 0
M  V30 1034 C 99.4806 -1.714 0.299672 0
M  V30 1035 O 100.657 -1.93991 0.541249 0
M  V30 1036 C 97.7216 -3.23477 1.24754 0
M  V30 1037 C 96.7826 -3.52344 2.45259 0
M  V30 1038 C 96.0156 -4.81473 2.30259 0
M  V30 1039 O 96.2386 -5.55237 1.30643 0
M  V30 1040 O 95.1726 -5.10254 3.19256 0
M  V30 1041 H 98.9986 -1.89949 2.36966 0
M  V30 1042 H 96.5836 -0.882243 1.20569 0
M  V30 1043 H 98.4656 -4.04509 1.18111 0
M  V30 1044 H 97.1406 -3.22176 0.313781 0
M  V30 1045 H 96.0476 -2.71396 2.57478 0
M  V30 1046 H 97.3806 -3.58426 3.37331 0
M  V30 1047 N 99.0327 -1.24633 -0.964593 0
M  V30 1048 C 99.9797 -1.04144 -2.05968 0
M  V30 1049 C 100.95 0.046262 -1.66036 0
M  V30 1050 O 102.135 -0.108972 -1.90489 0
M  V30 1051 C 99.2747 -0.65563 -3.38815 0
M  V30 1052 C 98.3877 -1.81714 -3.91923 0
M  V30 1053 C 97.5227 -1.37662 -5.13052 0
M  V30 1054 C 96.5617 -2.50788 -5.58365 0
M  V30 1055 N 95.6987 -2.07582 -6.70712 0
M  V30 1056 H 100.539 -1.9787 -2.22827 0
M  V30 1057 H 98.0757 -0.9855 -1.09208 0
M  V30 1058 H 100.034 -0.412954 -4.15151 0
M  V30 1059 H 98.6637 0.244627 -3.21872 0
M  V30 1060 H 97.7157 -2.1734 -3.12198 0
M  V30 1061 H 99.0277 -2.66705 -4.21509 0
M  V30 1062 H 98.1817 -1.093 -5.96773 0
M  V30 1063 H 96.9207 -0.497293 -4.85158 0
M  V30 1064 H 95.9257 -2.79906 -4.73215 0
M  V30 1065 H 97.1507 -3.39283 -5.88272 0
M  V30 1066 H 95.0967 -1.22051 -6.44546 0
M  V30 1067 H 95.0137 -2.86125 -6.99763 0
M  V30 1068 H 96.2817 -1.82369 -7.57867 0
M  V30 1069 N 100.511 1.16574 -1.06058 0
M  V30 1070 C 101.739 1.90952 -0.796552 0
M  V30 1071 C 102.154 1.77302 0.648808 0
M  V30 1072 O 101.511 1.11605 1.44397 0
M  V30 1073 C 101.562 3.41736 -1.17894 0
M  V30 1074 O 101.283 3.54975 -2.56758 0
M  V30 1075 C 102.784 4.33169 -0.942308 0
M  V30 1076 H 100.004 0.605594 -0.288959 0
M  V30 1077 H 102.548 1.47777 -1.41358 0
M  V30 1078 H 100.703 3.82623 -0.606491 0
M  V30 1079 H 101.117 4.4846 -2.72 0
M  V30 1080 H 102.591 5.37439 -1.25952 0
M  V30 1081 H 103.068 4.3903 0.122078 0
M  V30 1082 H 103.674 3.98007 -1.49902 0
M  V30 1083 N 101.989 0.842826 1.3317 0
M  V30 1084 C 102.919 0.294028 2.31641 0
M  V30 1085 C 103.9 -0.600401 1.59151 0
M  V30 1086 O 105.085 -0.523124 1.87022 0
M  V30 1087 C 102.215 -0.528416 3.43257 0
M  V30 1088 C 101.169 0.27056 4.27144 0
M  V30 1089 C 100.495 -0.675881 5.30411 0
M  V30 1090 C 101.795 1.48981 5.00602 0
M  V30 1091 H 103.489 1.11681 2.77791 0
M  V30 1092 H 101.035 0.538478 1.33553 0
M  V30 1093 H 102.988 -0.922674 4.11175 0
M  V30 1094 H 101.712 -1.38445 2.95805 0
M  V30 1095 H 100.371 0.646427 3.60856 0
M  V30 1096 H 100.019 -1.52842 4.79216 0
M  V30 1097 H 99.7189 -0.145374 5.8742 0
M  V30 1098 H 101.243 -1.06757 6.01195 0
M  V30 1099 H 102.657 1.16849 5.61266 0
M  V30 1100 H 101.054 1.95739 5.6728 0
M  V30 1101 H 102.124 2.25746 4.29147 0
M  V30 1102 N 103.467 -1.45747 0.599634 0
M  V30 1103 C 104.415 -2.322 -0.136426 0
M  V30 1104 C 105.409 -1.45497 -0.867583 0
M  V30 1105 O 106.615 -1.62027 -0.78405 0
M  V30 1106 H 102.99 -0.749368 -0.0628588 0
M  V30 1107 H 104.961 -2.92072 0.611281 0
M  V30 1108 C 103.71 -3.28974 -1.12567 0
M  V30 1109 H 103.033 -3.9568 -0.572484 0
M  V30 1110 H 104.473 -3.92212 -1.61077 0
M  V30 1111 C 102.932 -2.55561 -2.19523 0
M  V30 1112 O 103.462 -2.33111 -3.27143 0
M  V30 1113 N 101.668 -2.15832 -1.94589 0
M  V30 1114 H 101.215 -2.3429 -1.07078 0
M  V30 1115 H 101.173 -1.67034 -2.66359 0
M  V30 1116 N 104.945 -0.338344 -1.53925 0
M  V30 1117 C 105.908 0.508299 -2.23493 0
M  V30 1118 C 106.908 1.03175 -1.23335 0
M  V30 1119 O 108.098 0.921826 -1.47811 0
M  V30 1120 C 105.23 1.70754 -2.95052 0
M  V30 1121 H 106.423 -0.100058 -2.99733 0
M  V30 1122 H 103.976 -0.0896198 -1.56043 0
M  V30 1123 H 104.711 2.35474 -2.22986 0
M  V30 1124 H 104.496 1.33946 -3.68512 0
M  V30 1125 H 105.986 2.30818 -3.48013 0
M  V30 1126 N 106.423 1.57458 -0.0668435 0
M  V30 1127 C 107.672 1.92477 0.602947 0
M  V30 1128 C 107.985 0.948419 1.71068 0
M  V30 1129 O 109.191 1.19124 2.43971 0
M  V30 1130 C 107.647 3.41903 1.12383 0
M  V30 1131 C 107.255 4.47975 0.04737 0
M  V30 1132 C 108.999 3.85931 1.76797 0
M  V30 1133 C 106.906 5.88529 0.582022 0
M  V30 1134 H 105.836 0.718387 0.22899 0
M  V30 1135 H 108.487 1.82978 -0.138276 0
M  V30 1136 H 106.869 3.46459 1.91787 0
M  V30 1137 H 108.043 4.55029 -0.726978 0
M  V30 1138 H 106.358 4.13384 -0.500243 0
M  V30 1139 H 108.955 4.88322 2.17821 0
M  V30 1140 H 109.298 3.23029 2.62599 0
M  V30 1141 H 109.831 3.83958 1.04024 0
M  V30 1142 H 106.57 6.55065 -0.238721 0
M  V30 1143 H 106.09 5.85004 1.324 0
M  V30 1144 H 107.769 6.38258 1.05999 0
M  V30 1145 N 107.901 -0.206675 1.56239 0
M  V30 1146 C 109.178 -0.954051 1.70755 0
M  V30 1147 C 109.558 -2.01841 0.618353 0
M  V30 1148 O 108.906 -2.25444 -0.372434 0
M  V30 1149 C 109.116 -1.551 3.12642 0
M  V30 1150 C 110.464 -2.03757 3.72516 0
M  V30 1151 O 111.488 -1.64965 3.15698 0
M  V30 1152 O 110.347 -2.75103 4.72208 0
M  V30 1153 H 107.441 -0.446636 0.696021 0
M  V30 1154 H 109.987 -0.197283 1.68549 0
M  V30 1155 H 108.759 -0.783212 3.83382 0
M  V30 1156 H 108.382 -2.37291 3.19028 0
M  V30 1157 N 109.379 -1.50304 -0.473955 0
M  V30 1158 C 110.604 -1.65175 -1.25427 0
M  V30 1159 C 111.029 -0.333673 -1.85117 0
M  V30 1160 O 110.387 0.702114 -1.67153 0
M  V30 1161 C 110.435 -2.74295 -2.34082 0
M  V30 1162 O 109.539 -2.35349 -3.38651 0
M  V30 1163 H 108.88 -0.551944 -0.369126 0
M  V30 1164 H 111.41 -1.96662 -0.564364 0
M  V30 1165 H 111.42 -2.97285 -2.79438 0
M  V30 1166 H 110.095 -3.69959 -1.90008 0
M  V30 1167 H 108.672 -2.22794 -2.99027 0
M  V30 1168 N 110.857 0.726932 -1.39834 0
M  V30 1169 C 111.787 1.85405 -1.41941 0
M  V30 1170 C 112.768 1.67751 -0.281728 0
M  V30 1171 O 113.953 1.8795 -0.488717 0
M  V30 1172 C 111.083 3.23243 -1.2701 0
M  V30 1173 C 110.037 3.55549 -2.38262 0
M  V30 1174 C 109.363 4.9241 -2.08415 0
M  V30 1175 C 110.663 3.577 -3.80589 0
M  V30 1176 H 112.357 1.83899 -2.36266 0
M  V30 1177 H 109.903 0.883349 -1.13723 0
M  V30 1178 H 111.856 4.01775 -1.27103 0
M  V30 1179 H 110.58 3.25296 -0.291564 0
M  V30 1180 H 109.239 2.79351 -2.37399 0
M  V30 1181 H 108.887 4.91052 -1.0898 0
M  V30 1182 H 108.587 5.14992 -2.82943 0
M  V30 1183 H 110.111 5.73289 -2.10171 0
M  V30 1184 H 111.525 4.26293 -3.83337 0
M  V30 1185 H 109.922 3.91804 -4.54543 0
M  V30 1186 H 110.992 2.57328 -4.10987 0
M  V30 1187 N 112.336 1.25143 0.95797 0
M  V30 1188 C 113.299 1.05321 2.03569 0
M  V30 1189 C 114.299 0.007152 1.60798 0
M  V30 1190 O 115.489 0.24903 1.72411 0
M  V30 1191 C 112.621 0.598394 3.35607 0
M  V30 1192 H 113.814 2.00986 2.22586 0
M  V30 1193 H 111.367 1.07502 1.13459 0
M  V30 1194 H 112.102 -0.361014 3.22284 0
M  V30 1195 H 111.887 1.35351 3.67998 0
M  V30 1196 H 113.377 0.48104 4.1482 0
M  V30 1197 N 113.814 -1.1601 1.06675 0
M  V30 1198 C 114.777 -2.18724 0.685001 0
M  V30 1199 C 115.777 -1.58496 -0.271246 0
M  V30 1200 O 116.967 -1.74119 -0.0531156 0
M  V30 1201 C 114.099 -3.40899 0.00853648 0
M  V30 1202 H 115.292 -2.54011 1.59431 0
M  V30 1203 H 112.845 -1.30352 0.862441 0
M  V30 1204 H 113.58 -3.11173 -0.913337 0
M  V30 1205 H 113.365 -3.8587 0.696204 0
M  V30 1206 H 114.855 -4.16886 -0.24414 0
M  V30 1207 N 115.292 -0.849877 -1.32721 0
M  V30 1208 C 116.517 -0.463856 -2.02146 0
M  V30 1209 C 116.942 0.930449 -1.63476 0
M  V30 1210 O 116.3 1.61033 -0.832952 0
M  V30 1211 C 116.348 -0.604955 -3.55489 0
M  V30 1212 O 115.452 0.36425 -4.10788 0
M  V30 1213 H 114.793 -0.187046 -0.637111 0
M  V30 1214 H 117.323 -1.14775 -1.69375 0
M  V30 1215 H 117.333 -0.490696 -4.05038 0
M  V30 1216 H 116.008 -1.62174 -3.82978 0
M  V30 1217 H 114.585 0.206628 -3.72327 0
M  V30 1218 N 116.77 1.45427 -0.607355 0
M  V30 1219 C 118.018 2.01841 -0.102253 0
M  V30 1220 C 118.339 1.47832 1.27164 0
M  V30 1221 O 117.609 0.672497 1.83995 0
M  V30 1222 H 116.189 0.746188 -0.0348101 0
M  V30 1223 H 118.851 1.78229 -0.7887 0
M  V30 1224 H 117.947 3.12057 -0.0518585 0
M  V30 1225 N 118.248 0.346503 1.53744 0
M  V30 1226 C 119.211 -0.496439 2.23759 0
M  V30 1227 C 120.211 -1.0252 1.2388 0
M  V30 1228 O 121.401 -0.913974 1.48297 0
M  V30 1229 C 118.533 -1.69187 2.95954 0
M  V30 1230 H 119.726 0.115952 2.99676 0
M  V30 1231 H 117.279 0.0978939 1.55993 0
M  V30 1232 H 118.014 -2.34288 2.24231 0
M  V30 1233 H 117.799 -1.31989 3.69217 0
M  V30 1234 H 119.289 -2.28969 3.49232 0
M  V30 1235 N 119.726 -1.57421 0.075193 0
M  V30 1236 C 120.673 -2.12915 -0.890843 0
M  V30 1237 C 121.643 -1.04252 -1.29309 0
M  V30 1238 O 122.828 -1.31933 -1.37834 0
M  V30 1239 C 119.968 -2.69795 -2.15186 0
M  V30 1240 C 119.081 -3.92624 -1.80194 0
M  V30 1241 C 118.216 -4.37736 -3.00933 0
M  V30 1242 C 117.255 -5.53205 -2.61974 0
M  V30 1243 N 116.392 -5.9326 -3.75483 0
M  V30 1244 H 121.232 -2.95156 -0.410735 0
M  V30 1245 H 118.769 -1.45854 -0.191086 0
M  V30 1246 H 120.727 -3.00883 -2.89008 0
M  V30 1247 H 119.357 -1.90313 -2.60731 0
M  V30 1248 H 118.409 -3.67977 -0.964218 0
M  V30 1249 H 119.721 -4.76482 -1.47534 0
M  V30 1250 H 118.875 -4.70503 -3.8303 0
M  V30 1251 H 117.614 -3.52739 -3.36789 0
M  V30 1252 H 116.619 -5.20086 -1.783 0
M  V30 1253 H 117.844 -6.39936 -2.27284 0
M  V30 1254 H 115.79 -5.11212 -4.11094 0
M  V30 1255 H 115.707 -6.71865 -3.46602 0
M  V30 1256 H 116.975 -6.30651 -4.58148 0
M  V30 1257 N 121.204 0.198386 -1.56346 0
M  V30 1258 C 122.452 0.91747 -1.80075 0
M  V30 1259 C 122.773 1.83929 -0.647692 0
M  V30 1260 O 122.043 1.93029 0.334166 0
M  V30 1261 H 120.623 0.341774 -0.664228 0
M  V30 1262 H 123.285 0.204684 -1.93822 0
M  V30 1263 H 122.381 1.51055 -2.7311 0
M  V30 1264 N 122.682 1.50554 0.465978 0
M  V30 1265 C 123.929 1.61798 1.21768 0
M  V30 1266 C 124.257 0.320696 1.91838 0
M  V30 1267 O 123.512 -0.693724 1.82992 0
M  V30 1268 C 123.811 2.75152 2.28093 0
M  V30 1269 C 123.477 4.15454 1.75239 0
M  V30 1270 C 122.139 4.53628 1.60546 0
M  V30 1271 C 124.491 5.03121 1.36083 0
M  V30 1272 C 121.819 5.77204 1.05128 0
M  V30 1273 C 124.171 6.27249 0.821056 0
M  V30 1274 C 122.835 6.64221 0.660795 0
M  V30 1275 H 122.105 0.592063 0.445582 0
M  V30 1276 H 124.752 1.84503 0.512927 0
M  V30 1277 H 123.057 2.46556 3.04496 0
M  V30 1278 H 124.754 2.81055 2.86023 0
M  V30 1279 H 121.344 3.85341 1.87644 0
M  V30 1280 H 125.528 4.74257 1.46267 0
M  V30 1281 H 120.784 6.0452 0.91462 0
M  V30 1282 H 124.958 6.94537 0.509018 0
M  V30 1283 H 122.585 7.59854 0.229226 0
M  V30 1284 N 124.16 -0.719506 1.40217 0
M  V30 1285 C 125.406 -1.48152 1.38488 0
M  V30 1286 C 125.739 -1.94195 -0.0141867 0
M  V30 1287 O 125.014 -1.67884 -0.982096 0
M  V30 1288 C 125.297 -2.71035 2.37091 0
M  V30 1289 C 125.15 -2.30912 3.86005 0
M  V30 1290 C 126.469 -3.73182 2.33288 0
M  V30 1291 H 123.588 -0.537395 0.504357 0
M  V30 1292 H 126.23 -0.821472 1.71324 0
M  V30 1293 H 124.38 -3.27352 2.0922 0
M  V30 1294 H 126.052 -1.80107 4.24687 0
M  V30 1295 H 124.295 -1.62958 4.02029 0
M  V30 1296 H 124.966 -3.18978 4.50508 0
M  V30 1297 H 127.442 -3.26485 2.57966 0
M  V30 1298 H 126.318 -4.56806 3.04334 0
M  V30 1299 H 126.579 -4.21202 1.34317 0
M  V30 1300 N 125.638 -1.25649 -0.95132 0
M  V30 1301 C 126.887 -1.09988 -1.69073 0
M  V30 1302 C 127.2 0.358355 -1.92289 0
M  V30 1303 O 128.406 0.635466 -2.63958 0
M  V30 1304 C 126.862 -1.92012 -3.044 0
M  V30 1305 C 126.47 -3.42347 -2.88968 0
M  V30 1306 C 128.214 -1.8493 -3.82101 0
M  V30 1307 C 126.121 -4.16655 -4.19705 0
M  V30 1308 H 125.051 -0.407993 -0.63408 0
M  V30 1309 H 127.702 -1.49873 -1.05879 0
M  V30 1310 H 126.084 -1.44952 -3.68517 0
M  V30 1311 H 127.258 -3.97104 -2.33762 0
M  V30 1312 H 125.573 -3.50557 -2.24719 0
M  V30 1313 H 128.17 -2.37739 -4.78941 0
M  V30 1314 H 128.513 -0.817883 -4.08187 0
M  V30 1315 H 129.046 -2.29758 -3.2474 0
M  V30 1316 H 125.785 -5.20224 -3.98807 0
M  V30 1317 H 125.305 -3.66681 -4.74663 0
M  V30 1318 H 126.984 -4.24551 -4.88227 0
M  V30 1319 N 127.117 1.15442 -1.07289 0
M  V30 1320 C 128.357 1.8788 -0.805012 0
M  V30 1321 C 128.721 1.80413 0.656907 0
M  V30 1322 O 129.922 2.47874 1.0398 0
M  V30 1323 C 128.193 3.3298 -1.29843 0
M  V30 1324 S 129.752 4.23158 -1.16114 0
M  V30 1325 H 126.57 0.64839 -0.291739 0
M  V30 1326 H 129.172 1.39285 -1.37186 0
M  V30 1327 H 127.876 3.35958 -2.35712 0
M  V30 1328 H 127.407 3.86629 -0.726767 0
M  V30 1329 H 129.422 4.96103 -0.0982778 0
M  V30 1330 N 128.595 0.856903 1.32268 0
M  V30 1331 C 129.823 0.475439 2.01363 0
M  V30 1332 C 130.238 -0.928486 1.64392 0
M  V30 1333 O 129.595 -1.60624 0.866387 0
M  V30 1334 C 129.646 0.607545 3.56358 0
M  V30 1335 O 129.367 1.95617 3.92002 0
M  V30 1336 C 130.868 0.225382 4.42727 0
M  V30 1337 H 128.088 0.186636 0.644521 0
M  V30 1338 H 130.632 1.15446 1.68797 0
M  V30 1339 H 128.787 -0.0237719 3.87393 0
M  V30 1340 H 129.201 1.95455 4.86721 0
M  V30 1341 H 130.675 0.368813 5.50767 0
M  V30 1342 H 131.152 -0.834369 4.31202 0
M  V30 1343 H 131.758 0.831864 4.17085 0
M  V30 1344 N 130.073 -1.45103 0.615059 0
M  V30 1345 C 131.484 -1.85654 0.197383 0
M  V30 1346 C 131.835 -1.51433 -1.24749 0
M  V30 1347 O 130.96 -0.944608 -1.94695 0
M  V30 1348 C 131.555 -3.36972 0.351448 0
M  V30 1349 C 130.114 -3.76398 -0.011593 0
M  V30 1350 C 129.261 -2.69024 0.672394 0
M  V30 1351 H 132.212 -1.35797 0.821263 0
M  V30 1352 H 132.233 -3.78239 -0.414227 0
M  V30 1353 H 131.745 -3.61847 1.40314 0
M  V30 1354 H 129.846 -3.5714 -1.06217 0
M  V30 1355 H 129.959 -4.77532 0.387265 0
M  V30 1356 H 128.323 -2.54465 0.109284 0
M  V30 1357 H 129.106 -2.96735 1.72636 0
M  V30 1358 N 131.551 -0.354651 -1.53558 0
M  V30 1359 C 132.828 0.294281 -1.93374 0
M  V30 1360 C 133.208 1.67313 -1.28723 0
M  V30 1361 O 132.556 2.24179 -0.442247 0
M  V30 1362 C 132.766 0.355445 -3.47185 0
M  V30 1363 C 134.114 0.601007 -4.20325 0
M  V30 1364 O 135.138 0.437106 -3.53508 0
M  V30 1365 O 133.997 0.919322 -5.38712 0
M  V30 1366 H 131.091 0.174033 -0.808481 0
M  V30 1367 H 133.637 -0.406638 -1.64756 0
M  V30 1368 H 132.409 -0.611729 -3.86489 0
M  V30 1369 H 132.032 1.1027 -3.82003 0
M  V30 1370 N 133.029 1.57378 -0.0835403 0
M  V30 1371 C 134.44 1.81261 0.447358 0
M  V30 1372 C 134.791 0.998331 1.68902 0
M  V30 1373 O 133.916 0.224282 2.15235 0
M  V30 1374 C 134.511 3.28767 0.818386 0
M  V30 1375 C 133.07 3.53455 1.29409 0
M  V30 1376 C 132.217 2.75831 0.285024 0
M  V30 1377 H 135.168 1.5566 -0.309115 0
M  V30 1378 H 135.189 3.41459 1.67887 0
M  V30 1379 H 134.701 3.88006 -0.0855019 0
M  V30 1380 H 132.802 2.99534 2.21608 0
M  V30 1381 H 132.915 4.62128 1.2639 0
M  V30 1382 H 131.279 2.42947 0.764767 0
M  V30 1383 H 132.062 3.37813 -0.611341 0
M  V30 1384 N 134.507 -0.190092 1.56449 0
M  V30 1385 C 135.454 -1.23557 1.94942 0
M  V30 1386 C 136.424 -1.44972 0.810696 0
M  V30 1387 O 137.609 -1.58023 1.06927 0
M  V30 1388 C 134.749 -2.57416 2.2985 0
M  V30 1389 C 133.862 -2.43537 3.5681 0
M  V30 1390 C 132.997 -3.70134 3.81017 0
M  V30 1391 C 132.036 -3.51109 5.01387 0
M  V30 1392 N 131.173 -4.6973 5.21822 0
M  V30 1393 H 136.013 -0.900304 2.84075 0
M  V30 1394 H 133.55 -0.43318 1.40577 0
M  V30 1395 H 135.508 -3.35409 2.48106 0
M  V30 1396 H 134.138 -2.88975 1.43852 0
M  V30 1397 H 133.19 -1.56816 3.46573 0
M  V30 1398 H 134.502 -2.25415 4.4496 0
M  V30 1399 H 133.656 -4.56566 3.9954 0
M  V30 1400 H 132.395 -3.91215 2.91207 0
M  V30 1401 H 131.4 -2.63063 4.82782 0
M  V30 1402 H 132.625 -3.31468 5.9271 0
M  V30 1403 H 130.571 -4.91065 4.34961 0
M  V30 1404 H 130.488 -4.54452 6.0416 0
M  V30 1405 H 131.756 -5.57499 5.44808 0
M  V30 1406 N 135.985 -1.50799 -0.457987 0
M  V30 1407 C 136.915 -1.73553 -1.5621 0
M  V30 1408 C 137.896 -0.584774 -1.59732 0
M  V30 1409 O 139.081 -0.825314 -1.7579 0
M  V30 1410 C 136.211 -1.84169 -2.94447 0
M  V30 1411 C 135.165 -2.99461 -3.0579 0
M  V30 1412 C 134.491 -2.95235 -4.45803 0
M  V30 1413 C 135.791 -4.39766 -2.81786 0
M  V30 1414 H 137.485 -2.66 -1.37421 0
M  V30 1415 H 135.031 -1.28002 -0.659662 0
M  V30 1416 H 136.984 -1.98672 -3.71628 0
M  V30 1417 H 135.708 -0.883545 -3.14422 0
M  V30 1418 H 134.367 -2.8463 -2.31044 0
M  V30 1419 H 134.015 -1.97239 -4.62715 0
M  V30 1420 H 133.715 -3.72642 -4.54326 0
M  V30 1421 H 135.239 -3.11803 -5.24987 0
M  V30 1422 H 136.653 -4.55054 -3.4871 0
M  V30 1423 H 135.05 -5.18722 -3.0174 0
M  V30 1424 H 136.12 -4.51229 -1.7754 0
M  V30 1425 N 137.463 0.71206 -1.40597 0
M  V30 1426 C 138.711 1.46907 -1.38791 0
M  V30 1427 C 139.032 1.94998 0.00780391 0
M  V30 1428 O 138.302 1.70587 0.963174 0
M  V30 1429 H 136.882 0.545043 -0.51082 0
M  V30 1430 H 139.544 0.843882 -1.75683 0
M  V30 1431 H 138.64 2.34021 -2.06496 0
M  V30 1432 N 138.941 1.26152 0.944643 0
M  V30 1433 C 140.166 1.14363 1.7302 0
M  V30 1434 C 140.591 -0.29772 1.85729 0
M  V30 1435 O 139.949 -1.2157 1.34501 0
M  V30 1436 C 139.997 1.81378 3.11664 0
M  V30 1437 O 139.101 1.10022 3.97453 0
M  V30 1438 H 138.442 0.398694 0.53098 0
M  V30 1439 H 140.972 1.66906 1.18337 0
M  V30 1440 H 140.982 1.88064 3.62072 0
M  V30 1441 H 139.657 2.86237 3.0173 0
M  V30 1442 H 138.234 1.11287 3.55907 0
M  V30 1443 N 140.419 -1.14872 1.07899 0
M  V30 1444 C 141.382 -2.17986 0.708161 0
M  V30 1445 C 142.382 -1.58775 -0.25442 0
M  V30 1446 O 143.572 -1.74166 -0.034645 0
M  V30 1447 C 140.704 -3.40871 0.0446929 0
M  V30 1448 H 141.897 -2.52306 1.62116 0
M  V30 1449 H 139.45 -1.2943 0.876218 0
M  V30 1450 H 140.185 -3.12124 -0.880281 0
M  V30 1451 H 139.97 -3.8511 0.737091 0
M  V30 1452 H 141.46 -4.17121 -0.19991 0
M  V30 1453 N 141.898 -0.863906 -1.31812 0
M  V30 1454 C 143.147 -0.46801 -1.96195 0
M  V30 1455 C 143.46 0.983474 -1.69077 0
M  V30 1456 O 144.666 1.48523 -2.27273 0
M  V30 1457 C 143.122 -0.785995 -3.51212 0
M  V30 1458 C 142.73 -2.25383 -3.87178 0
M  V30 1459 C 144.474 -0.458274 -4.22019 0
M  V30 1460 C 142.381 -2.51455 -5.3528 0
M  V30 1461 H 141.311 -0.171283 -0.734287 0
M  V30 1462 H 143.962 -1.05597 -1.50072 0
M  V30 1463 H 142.344 -0.127359 -3.95795 0
M  V30 1464 H 143.518 -2.95502 -3.53575 0
M  V30 1465 H 141.833 -2.54698 -3.2942 0
M  V30 1466 H 144.43 -0.630369 -5.30971 0
M  V30 1467 H 144.773 0.600834 -4.11941 0
M  V30 1468 H 145.306 -1.07319 -3.8305 0
M  V30 1469 H 142.045 -3.56025 -5.50387 0
M  V30 1470 H 141.565 -1.85923 -5.70257 0
M  V30 1471 H 143.244 -2.35874 -6.02472 0
M  V30 1472 N 143.376 1.44774 -0.622745 0
M  V30 1473 C 144.622 2.0242 -0.124083 0
M  V30 1474 C 144.955 1.4881 1.24777 0
M  V30 1475 O 144.23 0.668799 1.8264 0
M  V30 1476 C 144.513 3.59957 -0.101619 0
M  V30 1477 C 144.366 4.23867 -1.50521 0
M  V30 1478 C 145.685 4.36284 0.578272 0
M  V30 1479 H 142.804 0.735528 -0.0465645 0
M  V30 1480 H 145.446 1.72447 -0.797617 0
M  V30 1481 H 143.596 3.85623 0.471934 0
M  V30 1482 H 145.268 4.09336 -2.12701 0
M  V30 1483 H 143.511 3.81684 -2.06154 0
M  V30 1484 H 144.182 5.32843 -1.4416 0
M  V30 1485 H 146.658 4.16001 0.0906057 0
M  V30 1486 H 145.534 5.46004 0.563149 0
M  V30 1487 H 145.795 4.10271 1.64713 0
M  V30 1488 N 144.854 0.36279 1.53368 0
M  V30 1489 C 145.817 -0.472679 2.24273 0
M  V30 1490 C 146.817 -1.012 1.24961 0
M  V30 1491 O 148.007 -0.898194 1.49259 0
M  V30 1492 C 145.139 -1.66039 2.97731 0
M  V30 1493 H 146.332 0.14773 2.99536 0
M  V30 1494 H 143.885 0.114434 1.55881 0
M  V30 1495 H 144.62 -2.31896 2.26704 0
M  V30 1496 H 144.405 -1.28066 3.70596 0
M  V30 1497 H 145.895 -2.25252 3.51641 0
M  V30 1498 N 146.332 -1.57332 0.0918853 0
M  V30 1499 C 147.279 -2.13847 -0.868211 0
M  V30 1500 C 148.249 -1.05618 -1.28196 0
M  V30 1501 O 149.434 -1.33387 -1.36427 0
M  V30 1502 C 146.574 -2.72062 -2.12312 0
M  V30 1503 C 145.687 -3.94514 -1.7602 0
M  V30 1504 C 144.822 -4.40903 -2.96273 0
M  V30 1505 C 143.861 -5.55953 -2.56092 0
M  V30 1506 N 142.998 -5.97209 -3.69169 0
M  V30 1507 H 147.838 -2.95575 -0.379406 0
M  V30 1508 H 145.375 -1.46048 -0.175606 0
M  V30 1509 H 147.333 -3.03931 -2.858 0
M  V30 1510 H 145.963 -1.93068 -2.58698 0
M  V30 1511 H 145.015 -3.68979 -0.925135 0
M  V30 1512 H 146.327 -4.7802 -1.42472 0
M  V30 1513 H 145.481 -4.74539 -3.78018 0
M  V30 1514 H 144.22 -3.56291 -3.33029 0
M  V30 1515 H 143.225 -5.21948 -1.72773 0
M  V30 1516 H 144.45 -6.42311 -2.20484 0
M  V30 1517 H 142.396 -5.15543 -4.05649 0
M  V30 1518 H 142.313 -6.75504 -3.39456 0
M  V30 1519 H 143.581 -6.35475 -4.51434 0
M  V30 1520 N 147.81 0.181792 -1.56548 0
M  V30 1521 C 148.773 1.20894 -1.94724 0
M  V30 1522 C 149.773 1.37738 -0.829747 0
M  V30 1523 O 150.963 1.35323 -1.09697 0
M  V30 1524 C 148.095 2.57593 -2.23291 0
M  V30 1525 H 149.288 0.882275 -2.86629 0
M  V30 1526 H 146.841 0.423838 -1.50444 0
M  V30 1527 H 147.576 2.95291 -1.34067 0
M  V30 1528 H 147.361 2.46735 -3.04736 0
M  V30 1529 H 148.851 3.31637 -2.53785 0
M  V30 1530 N 149.288 1.51039 0.449983 0
M  V30 1531 C 150.704 1.38934 0.785462 0
M  V30 1532 C 150.904 0.461817 1.96136 0
M  V30 1533 O 149.96 -0.0877389 2.52348 0
M  V30 1534 C 151.273 2.80724 1.0777 0
M  V30 1535 C 152.821 2.89787 1.1829 0
M  V30 1536 C 153.296 4.32457 1.50815 0
M  V30 1537 N 154.787 4.35505 1.57764 0
M  V30 1538 C 155.522 5.42914 1.84477 0
M  V30 1539 N 155.018 6.60502 2.09068 0
M  V30 1540 N 156.811 5.3038 1.86155 0
M  V30 1541 H 148.962 2.09904 -0.324647 0
M  V30 1542 H 151.225 0.944378 -0.0827957 0
M  V30 1543 H 150.931 3.50531 0.286498 0
M  V30 1544 H 150.805 3.19273 2.00859 0
M  V30 1545 H 153.192 2.20186 1.96474 0
M  V30 1546 H 153.273 2.54752 0.231314 0
M  V30 1547 H 152.917 5.02603 0.731622 0
M  V30 1548 H 152.847 4.64995 2.47158 0
M  V30 1549 H 155.338 3.50724 1.40715 0
M  V30 1550 H 155.651 7.38158 2.28785 0
M  V30 1551 H 153.996 6.63639 2.06416 0
M  V30 1552 H 157.187 4.37505 1.66454 0
M  V30 1553 H 157.36 6.1417 2.06637 0
M  V30 1554 N 150.766 -0.704594 1.40972 0
M  V30 1555 C 152.014 -1.46169 1.39568 0
M  V30 1556 C 152.335 -1.95 0.00253745 0
M  V30 1557 O 151.605 -1.71095 -0.954114 0
M  V30 1558 H 150.185 -0.542326 0.513704 0
M  V30 1559 H 152.847 -0.834553 1.76128 0
M  V30 1560 H 151.943 -2.32922 2.07735 0
M  V30 1561 N 152.244 -1.26651 -0.937939 0
M  V30 1562 C 153.474 -1.15006 -1.71631 0
M  V30 1563 C 153.882 0.297026 -1.86854 0
M  V30 1564 O 153.225 1.21493 -1.37786 0
M  V30 1565 C 153.287 -1.74984 -3.14039 0
M  V30 1566 C 152.951 -3.24103 -3.2219 0
M  V30 1567 C 153.948 -4.20877 -3.05219 0
M  V30 1568 C 151.633 -3.64625 -3.45476 0
M  V30 1569 C 153.627 -5.56151 -3.11408 0
M  V30 1570 C 151.314 -5.00032 -3.513 0
M  V30 1571 C 152.312 -5.95604 -3.34282 0
M  V30 1572 O 152 -7.28545 -3.3982 0
M  V30 1573 H 151.732 -0.401183 -0.544085 0
M  V30 1574 H 154.286 -1.67832 -1.18413 0
M  V30 1575 H 152.516 -1.16624 -3.68695 0
M  V30 1576 H 154.205 -1.58199 -3.73802 0
M  V30 1577 H 154.971 -3.90908 -2.87081 0
M  V30 1578 H 150.85 -2.90718 -3.57777 0
M  V30 1579 H 154.394 -6.30727 -2.98043 0
M  V30 1580 H 150.291 -5.29659 -3.68959 0
M  V30 1581 H 151.059 -7.3686 -3.56343 0
M  V30 1582 N 153.722 1.14298 -1.08507 0
M  V30 1583 C 154.999 1.81544 -0.728088 0
M  V30 1584 C 155.379 1.95838 0.78808 0
M  V30 1585 O 154.727 1.51904 1.70697 0
M  V30 1586 C 154.937 3.17169 -1.45619 0
M  V30 1587 C 156.285 3.9265 -1.61591 0
M  V30 1588 O 157.309 3.26762 -1.41793 0
M  V30 1589 O 156.168 5.10807 -1.94263 0
M  V30 1590 H 153.262 0.78491 -0.260471 0
M  V30 1591 H 155.808 1.21307 -1.18671 0
M  V30 1592 H 154.58 3.01934 -2.489 0
M  V30 1593 H 154.203 3.851 -0.989124 0
M  V30 1594 N 155.201 0.870884 1.31352 0
M  V30 1595 C 156.134 0.271983 2.26573 0
M  V30 1596 C 157.112 -0.599385 1.51149 0
M  V30 1597 O 158.296 -0.552605 1.80218 0
M  V30 1598 C 155.423 -0.614801 3.33073 0
M  V30 1599 C 154.469 0.185342 4.26097 0
M  V30 1600 S 155.302 1.56444 5.12138 0
M  V30 1601 C 156.458 0.683807 6.22153 0
M  V30 1602 H 156.691 1.07916 2.77023 0
M  V30 1603 H 154.224 0.669459 1.39132 0
M  V30 1604 H 156.182 -1.12074 3.94905 0
M  V30 1605 H 154.843 -1.39593 2.81376 0
M  V30 1606 H 154.036 -0.490771 5.01605 0
M  V30 1607 H 153.638 0.623415 3.68768 0
M  V30 1608 H 155.93 -0.10521 6.77418 0
M  V30 1609 H 156.873 1.41004 6.93919 0
M  V30 1610 H 157.281 0.250952 5.63942 0
M  V30 1611 N 156.679 -1.44442 0.630414 0
M  V30 1612 C 157.626 -2.30678 -0.0749355 0
M  V30 1613 C 158.596 -1.4344 -0.837502 0
M  V30 1614 O 159.781 -1.72343 -0.818684 0
M  V30 1615 C 156.921 -3.28706 -1.05103 0
M  V30 1616 C 156.034 -4.31046 -0.286954 0
M  V30 1617 C 155.169 -5.16167 -1.2548 0
M  V30 1618 C 154.208 -6.10216 -0.479843 0
M  V30 1619 N 153.345 -6.88039 -1.39811 0
M  V30 1620 H 158.185 -2.90454 0.666386 0
M  V30 1621 H 155.722 -1.43107 0.340404 0
M  V30 1622 H 157.68 -3.84027 -1.63031 0
M  V30 1623 H 156.31 -2.70632 -1.75949 0
M  V30 1624 H 155.362 -3.78203 0.408243 0
M  V30 1625 H 156.674 -4.97794 0.316657 0
M  V30 1626 H 155.828 -5.76002 -1.90544 0
M  V30 1627 H 154.567 -4.49491 -1.89233 0
M  V30 1628 H 153.572 -5.49491 0.184295 0
M  V30 1629 H 154.797 -6.78928 0.152965 0
M  V30 1630 H 152.743 -6.24032 -2.02287 0
M  V30 1631 H 152.66 -7.51223 -0.848508 0
M  V30 1632 H 153.928 -7.52397 -2.03762 0
M  V30 1633 N 158.157 -0.370918 -1.53173 0
M  V30 1634 C 159.403 0.217423 -2.01631 0
M  V30 1635 C 159.736 1.47983 -1.25756 0
M  V30 1636 O 159.011 1.91274 -0.352764 0
M  V30 1637 C 159.294 0.503982 -3.56556 0
M  V30 1638 C 159.147 -0.77243 -4.43118 0
M  V30 1639 C 160.466 1.30234 -4.20389 0
M  V30 1640 H 157.585 0.0775486 -0.732909 0
M  V30 1641 H 160.227 -0.496863 -1.83388 0
M  V30 1642 H 158.377 1.11248 -3.72231 0
M  V30 1643 H 160.049 -1.4098 -4.39229 0
M  V30 1644 H 158.292 -1.39167 -4.10871 0
M  V30 1645 H 158.963 -0.526815 -5.4948 0
M  V30 1646 H 161.439 0.787546 -4.08579 0
M  V30 1647 H 160.315 1.47158 -5.28806 0
M  V30 1648 H 160.576 2.31237 -3.76805 0
M  V30 1649 N 159.635 1.57281 -0.100228 0
M  V30 1650 C 160.884 1.93713 0.561984 0
M  V30 1651 C 161.197 0.984492 1.69018 0
M  V30 1652 O 162.403 1.24273 2.41389 0
M  V30 1653 C 160.859 3.4421 1.05106 0
M  V30 1654 C 160.467 4.47975 -0.0476628 0
M  V30 1655 C 162.211 3.89595 1.68571 0
M  V30 1656 C 160.118 5.89631 0.457055 0
M  V30 1657 H 159.048 0.723082 0.2137 0
M  V30 1658 H 161.699 1.82644 -0.177057 0
M  V30 1659 H 160.081 3.50449 1.84395 0
M  V30 1660 H 161.255 4.53385 -0.823333 0
M  V30 1661 H 159.57 4.1223 -0.587816 0
M  V30 1662 H 162.167 4.92832 2.07414 0
M  V30 1663 H 162.51 3.28526 2.55688 0
M  V30 1664 H 163.043 3.86078 0.958562 0
M  V30 1665 H 159.782 6.54411 -0.377616 0
M  V30 1666 H 159.302 5.87681 1.19962 0
M  V30 1667 H 160.981 6.40363 0.92437 0
M  V30 1668 N 161.113 -0.173488 1.56642 0
M  V30 1669 C 162.076 -1.19859 1.95362 0
M  V30 1670 C 163.076 -1.37296 0.83704 0
M  V30 1671 O 164.266 -1.34739 1.10413 0
M  V30 1672 C 161.398 -2.56405 2.24654 0
M  V30 1673 H 162.591 -0.867062 2.87092 0
M  V30 1674 H 160.144 -0.415853 1.50666 0
M  V30 1675 H 160.879 -2.94576 1.35631 0
M  V30 1676 H 160.664 -2.45115 3.06041 0
M  V30 1677 H 162.154 -3.30287 2.5554 0
M  V30 1678 N 162.591 -1.51276 -0.441967 0
M  V30 1679 C 163.837 -1.63958 -1.19355 0
M  V30 1680 C 164.17 -0.352543 -1.90973 0
M  V30 1681 O 163.445 0.647627 -1.83401 0
M  V30 1682 C 163.728 -2.83979 -2.21422 0
M  V30 1683 C 163.581 -4.22646 -1.53918 0
M  V30 1684 C 164.9 -2.99521 -3.22451 0
M  V30 1685 H 162.019 -0.596709 -0.432559 0
M  V30 1686 H 164.661 -1.83748 -0.483398 0
M  V30 1687 H 162.811 -2.67237 -2.81987 0
M  V30 1688 H 164.483 -4.51045 -0.967256 0
M  V30 1689 H 162.726 -4.25558 -0.841615 0
M  V30 1690 H 163.397 -5.02609 -2.28229 0
M  V30 1691 H 165.873 -3.14944 -2.71937 0
M  V30 1692 H 164.749 -3.85072 -3.91166 0
M  V30 1693 H 165.01 -2.11391 -3.88287 0
M  V30 1694 N 164.069 0.697108 -1.41344 0
M  V30 1695 C 165.346 1.45154 -1.31109 0
M  V30 1696 C 165.726 2.11009 0.0620449 0
M  V30 1697 O 165.074 2.01571 1.07618 0
M  V30 1698 C 165.284 2.47223 -2.46337 0
M  V30 1699 C 166.632 3.1252 -2.87431 0
M  V30 1700 O 167.656 2.57547 -2.46065 0
M  V30 1701 O 166.515 4.12083 -3.58957 0
M  V30 1702 H 163.609 0.646365 -0.515889 0
M  V30 1703 H 166.155 0.727716 -1.53305 0
M  V30 1704 H 164.927 1.97204 -3.37974 0
M  V30 1705 H 164.55 3.27116 -2.2601 0
M  V30 1706 N 165.547 1.27147 0.931209 0
M  V30 1707 C 166.824 1.0401 1.65654 0
M  V30 1708 C 167.204 -0.426297 2.06751 0
M  V30 1709 O 166.552 -1.40879 1.79904 0
M  V30 1710 C 166.762 1.99834 2.86125 0
M  V30 1711 C 168.11 2.29007 3.57549 0
M  V30 1712 O 169.134 1.97779 2.96246 0
M  V30 1713 O 167.993 2.82222 4.67989 0
M  V30 1714 H 165.087 0.396239 0.725895 0
M  V30 1715 H 167.633 1.38397 0.982056 0
M  V30 1716 H 166.405 2.98744 2.52721 0
M  V30 1717 H 166.028 1.65987 3.61295 0
M  V30 1718 N 167.025 -1.13721 1.09112 0
M  V30 1719 C 167.957 -2.1871 0.685467 0
M  V30 1720 C 168.97 -1.60527 -0.271068 0
M  V30 1721 O 170.159 -1.78407 -0.0576148 0
M  V30 1722 C 167.259 -3.38898 -0.0111255 0
M  V30 1723 C 166.432 -4.26597 0.966131 0
M  V30 1724 C 165.491 -5.25324 0.303539 0
M  V30 1725 O 164.517 -5.61213 0.950177 0
M  V30 1726 N 165.719 -5.72779 -0.943651 0
M  V30 1727 H 168.484 -2.54126 1.58871 0
M  V30 1728 H 166.045 -1.29012 0.978143 0
M  V30 1729 H 168.037 -4.02014 -0.465517 0
M  V30 1730 H 166.607 -3.01747 -0.816565 0
M  V30 1731 H 165.827 -3.60306 1.59917 0
M  V30 1732 H 167.115 -4.82048 1.6281 0
M  V30 1733 H 166.513 -5.45762 -1.48862 0
M  V30 1734 H 165.07 -6.37847 -1.34142 0
M  V30 1735 N 168.503 -0.877838 -1.30888 0
M  V30 1736 C 169.75 -0.492696 -1.96415 0
M  V30 1737 C 170.078 0.956671 -1.69346 0
M  V30 1738 O 169.333 1.68993 -0.986913 0
M  V30 1739 C 169.632 -0.705748 -3.50363 0
M  V30 1740 C 169.298 -2.1291 -3.97467 0
M  V30 1741 C 167.96 -2.51834 -4.1004 0
M  V30 1742 C 170.312 -3.05702 -4.22132 0
M  V30 1743 C 167.64 -3.82775 -4.44635 0
M  V30 1744 C 169.992 -4.36166 -4.58194 0
M  V30 1745 C 168.656 -4.74993 -4.68975 0
M  V30 1746 H 167.926 -0.18029 -0.718733 0
M  V30 1747 H 170.573 -1.11233 -1.55883 0
M  V30 1748 H 168.878 -0.00303058 -3.918 0
M  V30 1749 H 170.575 -0.387456 -3.99124 0
M  V30 1750 H 167.165 -1.81694 -3.88182 0
M  V30 1751 H 171.349 -2.76853 -4.11906 0
M  V30 1752 H 166.605 -4.12609 -4.51181 0
M  V30 1753 H 170.779 -5.08111 -4.76231 0
M  V30 1754 H 168.406 -5.76495 -4.95537 0
M  V30 1755 N 169.982 1.44106 -0.638065 0
M  V30 1756 C 171.228 2.02277 -0.145546 0
M  V30 1757 C 171.561 1.50125 1.23191 0
M  V30 1758 O 170.836 0.688133 1.8192 0
M  V30 1759 C 171.119 3.59829 -0.139791 0
M  V30 1760 C 170.972 4.22247 -1.55008 0
M  V30 1761 C 172.291 4.36873 0.531966 0
M  V30 1762 H 169.41 0.734992 -0.0543632 0
M  V30 1763 H 172.052 1.71592 -0.815863 0
M  V30 1764 H 170.202 3.86102 0.431007 0
M  V30 1765 H 171.874 4.07057 -2.1703 0
M  V30 1766 H 170.117 3.79476 -2.10191 0
M  V30 1767 H 170.788 5.31284 -1.49804 0
M  V30 1768 H 173.264 4.16074 0.0464781 0
M  V30 1769 H 172.14 5.4657 0.505206 0
M  V30 1770 H 172.401 4.11995 1.60352 0
M  V30 1771 N 171.46 0.379036 1.52974 0
M  V30 1772 C 172.408 -0.476033 2.27677 0
M  V30 1773 C 173.402 -1.0719 1.31174 0
M  V30 1774 O 174.608 -1.01355 1.48752 0
M  V30 1775 H 170.983 -0.172255 0.732006 0
M  V30 1776 H 172.954 0.175615 2.97883 0
M  V30 1777 C 171.703 -1.5967 3.0887 0
M  V30 1778 H 171.026 -1.1475 3.82978 0
M  V30 1779 H 172.466 -2.16943 3.64296 0
M  V30 1780 C 170.925 -2.54682 2.20542 0
M  V30 1781 O 171.455 -3.57836 1.82527 0
M  V30 1782 N 169.661 -2.24183 1.84907 0
M  V30 1783 H 169.208 -1.40333 2.1602 0
M  V30 1784 H 169.166 -2.88006 1.26096 0
M  V30 1785 N 172.938 -1.57226 0.108567 0
M  V30 1786 C 173.901 -2.13602 -0.831082 0
M  V30 1787 C 174.901 -1.06841 -1.20173 0
M  V30 1788 O 176.091 -1.32666 -1.12895 0
M  V30 1789 C 173.223 -2.66769 -2.12243 0
M  V30 1790 H 174.416 -2.97951 -0.341317 0
M  V30 1791 H 171.969 -1.55667 -0.14057 0
M  V30 1792 H 172.704 -1.85977 -2.65675 0
M  V30 1793 H 172.489 -3.44839 -1.86625 0
M  V30 1794 H 173.979 -3.10332 -2.79435 0
M  V30 1795 N 174.416 0.165178 -1.56732 0
M  V30 1796 C 175.363 1.2044 -1.96883 0
M  V30 1797 C 176.333 1.43664 -0.833657 0
M  V30 1798 O 177.518 1.56302 -1.09427 0
M  V30 1799 C 174.658 2.53727 -2.33916 0
M  V30 1800 C 173.771 2.3783 -3.6064 0
M  V30 1801 C 172.906 3.64026 -3.86857 0
M  V30 1802 C 171.945 3.43088 -5.06909 0
M  V30 1803 N 171.082 4.61369 -5.29229 0
M  V30 1804 H 175.922 0.854996 -2.85471 0
M  V30 1805 H 173.459 0.41076 -1.41249 0
M  V30 1806 H 175.417 3.31419 -2.53411 0
M  V30 1807 H 174.047 2.8665 -1.48431 0
M  V30 1808 H 173.099 1.51282 -3.49024 0
M  V30 1809 H 174.411 2.18308 -4.4849 0
M  V30 1810 H 173.565 4.50152 -4.06753 0
M  V30 1811 H 172.304 3.86533 -2.97394 0
M  V30 1812 H 171.309 2.55349 -4.86906 0
M  V30 1813 H 172.534 3.21997 -5.97909 0
M  V30 1814 H 170.48 4.84084 -4.42718 0
M  V30 1815 H 170.397 4.44783 -6.11313 0
M  V30 1816 H 171.665 5.48761 -5.53608 0
M  V30 1817 N 175.894 1.51508 0.433938 0
M  V30 1818 C 177.142 1.6402 1.18075 0
M  V30 1819 C 177.463 0.360328 1.91642 0
M  V30 1820 O 176.733 -0.623945 1.85698 0
M  V30 1821 H 175.313 0.6045 0.43885 0
M  V30 1822 H 177.975 1.88452 0.497178 0
M  V30 1823 H 177.071 2.46949 1.90847 0
M  V30 1824 N 177.372 -0.689602 1.41712 0
M  V30 1825 C 178.319 -1.80345 1.44029 0
M  V30 1826 C 179.289 -1.63478 0.293948 0
M  V30 1827 O 180.474 -1.84244 0.495869 0
M  V30 1828 C 177.614 -3.18272 1.33405 0
M  V30 1829 C 176.727 -3.46529 2.57956 0
M  V30 1830 C 175.862 -4.74103 2.39582 0
M  V30 1831 C 174.901 -4.95347 3.5958 0
M  V30 1832 N 174.038 -6.14151 3.40239 0
M  V30 1833 H 178.878 -1.77698 2.39222 0
M  V30 1834 H 176.415 -0.867688 1.18784 0
M  V30 1835 H 178.373 -3.97956 1.25246 0
M  V30 1836 H 177.003 -3.2008 0.418164 0
M  V30 1837 H 176.055 -2.61207 2.76542 0
M  V30 1838 H 177.367 -3.58126 3.47199 0
M  V30 1839 H 176.521 -5.61853 2.28924 0
M  V30 1840 H 175.26 -4.64763 1.47805 0
M  V30 1841 H 174.265 -4.06044 3.70686 0
M  V30 1842 H 175.49 -5.06542 4.52318 0
M  V30 1843 H 173.436 -6.06013 2.51167 0
M  V30 1844 H 173.353 -6.26543 4.23061 0
M  V30 1845 H 174.621 -7.04619 3.33365 0
M  V30 1846 N 178.85 -1.27639 -0.924453 0
M  V30 1847 C 180.261 -1.12834 -1.48746 0
M  V30 1848 C 180.612 0.285505 -1.94112 0
M  V30 1849 O 179.737 1.17874 -1.81479 0
M  V30 1850 C 180.332 -2.04217 -2.70334 0
M  V30 1851 C 178.891 -1.93509 -3.22848 0
M  V30 1852 C 178.038 -1.96583 -1.95577 0
M  V30 1853 H 180.989 -1.40484 -0.738233 0
M  V30 1854 H 181.01 -1.59989 -3.4523 0
M  V30 1855 H 180.522 -3.07111 -2.37285 0
M  V30 1856 H 178.623 -0.936131 -3.60649 0
M  V30 1857 H 178.736 -2.79917 -3.88823 0
M  V30 1858 H 177.1 -1.4085 -2.12211 0
M  V30 1859 H 177.883 -3.01137 -1.64837 0
M  V30 1860 N 180.328 1.1314 -1.09713 0
M  V30 1861 C 181.261 2.17735 -0.683137 0
M  V30 1862 C 182.239 1.59582 0.311841 0
M  V30 1863 O 183.423 1.87298 0.212514 0
M  V30 1864 C 180.55 3.38699 -0.00684324 0
M  V30 1865 C 179.596 4.1546 -0.964102 0
M  V30 1866 S 180.429 4.74733 -2.47767 0
M  V30 1867 C 181.585 5.9904 -1.81387 0
M  V30 1868 H 181.818 2.52515 -1.56918 0
M  V30 1869 H 179.351 1.24484 -0.913404 0
M  V30 1870 H 181.309 4.08765 0.377044 0
M  V30 1871 H 179.97 3.02214 0.85589 0
M  V30 1872 H 179.163 5.02093 -0.43803 0
M  V30 1873 H 178.765 3.51066 -1.28953 0
M  V30 1874 H 181.057 6.67846 -1.13967 0
M  V30 1875 H 182 6.56261 -2.65947 0
M  V30 1876 H 182.408 5.4976 -1.28155 0
M  V30 1877 N 181.806 0.884767 1.30421 0
M  V30 1878 C 183.083 0.423185 1.90967 0
M  V30 1879 C 183.463 -1.09605 1.80416 0
M  V30 1880 O 182.811 -1.93126 1.22125 0
M  V30 1881 C 183.021 0.921056 3.36627 0
M  V30 1882 C 184.369 0.955903 4.137 0
M  V30 1883 O 185.393 0.867706 3.4547 0
M  V30 1884 O 184.252 1.08614 5.35598 0
M  V30 1885 H 181.346 0.129369 0.816819 0
M  V30 1886 H 183.892 0.973653 1.3899 0
M  V30 1887 H 182.664 1.96489 3.3839 0
M  V30 1888 H 182.287 0.349741 3.96059 0
M  V30 1889 N 183.284 -1.43765 0.645699 0
M  V30 1890 C 184.512 -2.06253 0.163556 0
M  V30 1891 C 184.927 -1.48352 -1.16778 0
M  V30 1892 O 184.284 -0.611932 -1.71935 0
M  V30 1893 C 184.335 -3.61453 0.0583186 0
M  V30 1894 O 184.056 -4.172 1.33702 0
M  V30 1895 C 185.557 -4.41002 -0.450795 0
M  V30 1896 H 182.777 -0.665413 0.0864077 0
M  V30 1897 H 185.321 -1.84396 0.884222 0
M  V30 1898 H 183.476 -3.82522 -0.612865 0
M  V30 1899 H 183.89 -5.10791 1.19131 0
M  V30 1900 H 185.364 -5.49966 -0.473403 0
M  V30 1901 H 185.841 -4.13488 -1.48068 0
M  V30 1902 H 186.447 -4.24886 0.187637 0
M  V30 1903 N 184.763 -0.387143 -1.52771 0
M  V30 1904 C 186.009 0.196025 -2.0185 0
M  V30 1905 C 186.342 1.46641 -1.27319 0
M  V30 1906 O 185.617 1.90889 -0.373032 0
M  V30 1907 C 185.9 0.466136 -3.5707 0
M  V30 1908 C 185.753 -0.819385 -4.42274 0
M  V30 1909 C 187.072 1.25768 -4.21747 0
M  V30 1910 H 184.191 0.0697708 -0.73369 0
M  V30 1911 H 186.833 -0.516286 -1.82851 0
M  V30 1912 H 184.983 1.07293 -3.7339 0
M  V30 1913 H 186.655 -1.4563 -4.37709 0
M  V30 1914 H 184.898 -1.43517 -4.09372 0
M  V30 1915 H 185.569 -0.585065 -5.48891 0
M  V30 1916 H 188.045 0.744167 -4.09391 0
M  V30 1917 H 186.921 1.41541 -5.30337 0
M  V30 1918 H 187.182 2.27228 -3.79236 0
M  V30 1919 N 186.241 1.57166 -0.116904 0
M  V30 1920 C 187.652 1.82169 0.408809 0
M  V30 1921 C 188.003 1.03393 1.66746 0
M  V30 1922 O 187.128 0.269886 2.1471 0
M  V30 1923 C 187.723 3.30429 0.748466 0
M  V30 1924 C 186.282 3.5612 1.21882 0
M  V30 1925 C 185.429 2.76374 0.226452 0
M  V30 1926 H 188.38 1.5497 -0.342063 0
M  V30 1927 H 188.401 3.44943 1.60607 0
M  V30 1928 H 187.913 3.87737 -0.167784 0
M  V30 1929 H 186.014 3.04168 2.15204 0
M  V30 1930 H 186.127 4.64705 1.16559 0
M  V30 1931 H 184.491 2.44515 0.713063 0
M  V30 1932 H 185.274 3.3644 -0.682859 0
M  V30 1933 N 187.719 -0.156864 1.56817 0
M  V30 1934 C 188.649 -1.19589 2.00551 0
M  V30 1935 C 189.63 -1.4536 0.883426 0
M  V30 1936 O 190.815 -1.56449 1.15054 0
M  V30 1937 C 187.945 -2.53143 2.37773 0
M  V30 1938 C 186.899 -2.41913 3.53075 0
M  V30 1939 C 186.225 -3.80088 3.76081 0
M  V30 1940 C 187.525 -1.91157 4.86062 0
M  V30 1941 H 189.219 -0.832293 2.87599 0
M  V30 1942 H 186.765 -0.398918 1.38364 0
M  V30 1943 H 188.718 -3.26047 2.66967 0
M  V30 1944 H 187.442 -2.91319 1.4765 0
M  V30 1945 H 186.101 -1.71462 3.24031 0
M  V30 1946 H 185.749 -4.15683 2.83225 0
M  V30 1947 H 185.449 -3.73439 4.53671 0
M  V30 1948 H 186.973 -4.54556 4.0769 0
M  V30 1949 H 188.387 -2.53846 5.14038 0
M  V30 1950 H 186.784 -1.95422 5.67389 0
M  V30 1951 H 187.854 -0.866673 4.77092 0
M  V30 1952 N 189.197 -1.51736 -0.425897 0
M  V30 1953 C 190.443 -1.65214 -1.1761 0
M  V30 1954 C 190.776 -0.372778 -1.90589 0
M  V30 1955 O 190.051 0.628139 -1.84078 0
M  V30 1956 C 190.334 -2.86312 -2.18398 0
M  V30 1957 C 190.187 -4.24254 -1.49426 0
M  V30 1958 C 191.506 -3.02925 -3.19256 0
M  V30 1959 H 188.625 -0.601263 -0.426206 0
M  V30 1960 H 191.267 -1.8425 -0.463882 0
M  V30 1961 H 189.417 -2.70213 -2.79137 0
M  V30 1962 H 191.089 -4.52046 -0.919362 0
M  V30 1963 H 189.332 -4.26426 -0.796432 0
M  V30 1964 H 190.003 -5.05001 -2.22885 0
M  V30 1965 H 192.479 -3.1781 -2.68581 0
M  V30 1966 H 191.355 -3.89199 -3.8706 0
M  V30 1967 H 191.616 -2.15497 -3.86023 0
M  V30 1968 N 190.675 0.682077 -1.42076 0
M  V30 1969 C 191.608 1.80666 -1.3941 0
M  V30 1970 C 192.586 1.60518 -0.25939 0
M  V30 1971 O 193.77 1.83088 -0.448456 0
M  V30 1972 C 190.897 3.17556 -1.17796 0
M  V30 1973 C 189.943 3.56468 -2.34164 0
M  V30 1974 S 190.776 3.59729 -3.96681 0
M  V30 1975 C 191.932 4.99323 -3.77395 0
M  V30 1976 H 192.165 1.82652 -2.34575 0
M  V30 1977 H 189.698 0.852062 -1.2876 0
M  V30 1978 H 191.656 3.96575 -1.06012 0
M  V30 1979 H 190.317 3.13164 -0.242279 0
M  V30 1980 H 189.51 4.5595 -2.1477 0
M  V30 1981 H 189.112 2.84792 -2.42425 0
M  V30 1982 H 191.404 5.87202 -3.37935 0
M  V30 1983 H 192.347 5.23763 -4.76527 0
M  V30 1984 H 192.755 4.71498 -3.10403 0
M  V30 1985 N 192.153 1.28127 0.917671 0
M  V30 1986 C 193.086 1.06039 2.02067 0
M  V30 1987 C 194.064 -0.0223285 1.62585 0
M  V30 1988 O 195.248 0.124823 1.88086 0
M  V30 1989 C 192.375 0.610596 3.33151 0
M  V30 1990 C 191.421 1.68937 3.91615 0
M  V30 1991 S 192.254 3.28437 4.22953 0
M  V30 1992 C 193.41 2.85283 5.57103 0
M  V30 1993 H 193.643 1.99425 2.20493 0
M  V30 1994 H 191.176 1.12071 1.06205 0
M  V30 1995 H 193.134 0.357778 4.08938 0
M  V30 1996 H 191.795 -0.303364 3.12632 0
M  V30 1997 H 190.988 1.32619 4.86239 0
M  V30 1998 H 190.59 1.89478 3.2245 0
M  V30 1999 H 192.882 2.3121 6.36827 0
M  V30 2000 H 193.825 3.7869 5.98331 0
M  V30 2001 H 194.233 2.24118 5.18104 0
M  V30 2002 N 193.631 -1.12557 1.10312 0
M  V30 2003 C 194.594 -2.16434 0.75424 0
M  V30 2004 C 195.594 -1.59278 -0.220685 0
M  V30 2005 O 196.784 -1.742 0.00230591 0
M  V30 2006 C 193.916 -3.40699 0.116987 0
M  V30 2007 H 195.109 -2.48811 1.67431 0
M  V30 2008 H 192.662 -1.27542 0.903475 0
M  V30 2009 H 193.397 -3.13921 -0.813877 0
M  V30 2010 H 193.182 -3.83459 0.818613 0
M  V30 2011 H 194.672 -4.17451 -0.111387 0
M  V30 2012 N 195.109 -0.891671 -1.2995 0
M  V30 2013 C 196.072 -0.36828 -2.26222 0
M  V30 2014 C 197.072 0.493014 -1.53056 0
M  V30 2015 O 198.262 0.299213 -1.71611 0
M  V30 2016 C 195.394 0.47442 -3.37583 0
M  V30 2017 H 196.587 -1.21844 -2.74033 0
M  V30 2018 H 194.14 -0.669107 -1.41254 0
M  V30 2019 H 194.875 1.34489 -2.95099 0
M  V30 2020 H 194.66 -0.142615 -3.91841 0
M  V30 2021 H 196.15 0.83218 -4.09224 0
M  V30 2022 N 196.587 1.43421 -0.653314 0
M  V30 2023 C 197.815 2.06163 -0.174491 0
M  V30 2024 C 198.23 1.48969 1.1599 0
M  V30 2025 O 197.587 0.621042 1.71608 0
M  V30 2026 C 197.638 3.61417 -0.0774865 0
M  V30 2027 O 197.359 4.16485 -1.35912 0
M  V30 2028 C 198.86 4.41235 0.427402 0
M  V30 2029 H 196.08 0.664946 -0.0899353 0
M  V30 2030 H 198.624 1.83924 -0.893988 0
M  V30 2031 H 196.779 3.82841 0.59257 0
M  V30 2032 H 197.193 5.10153 -1.21839 0
M  V30 2033 H 198.667 5.5021 0.44423 0
M  V30 2034 H 199.144 4.14268 1.45873 0
M  V30 2035 H 199.75 4.2478 -0.210167 0
M  V30 2036 N 198.065 0.39524 1.52563 0
M  V30 2037 C 199.012 -0.437036 2.26624 0
M  V30 2038 C 199.982 -1.05281 1.28472 0
M  V30 2039 O 201.167 -1.07971 1.57311 0
M  V30 2040 C 198.307 -1.55524 3.08069 0
M  V30 2041 C 197.42 -0.961745 4.21158 0
M  V30 2042 C 196.555 -2.05149 4.89987 0
M  V30 2043 C 195.594 -1.4342 5.95061 0
M  V30 2044 N 194.731 -2.46351 6.57462 0
M  V30 2045 H 199.571 0.200976 2.97322 0
M  V30 2046 H 197.108 0.110944 1.46681 0
M  V30 2047 H 199.066 -2.21437 3.53584 0
M  V30 2048 H 197.696 -2.16348 2.3957 0
M  V30 2049 H 196.748 -0.192048 3.79915 0
M  V30 2050 H 198.06 -0.470701 4.96574 0
M  V30 2051 H 197.214 -2.78819 5.38837 0
M  V30 2052 H 195.953 -2.57615 4.14109 0
M  V30 2053 H 194.958 -0.682774 5.45544 0
M  V30 2054 H 196.183 -0.917416 6.72875 0
M  V30 2055 H 194.129 -2.97975 5.8442 0
M  V30 2056 H 194.046 -2.02019 7.28508 0
M  V30 2057 H 195.314 -3.19633 7.10954 0
M  V30 2058 N 199.544 -1.57102 0.125237 0
M  V30 2059 C 200.793 -1.94582 -0.531095 0
M  V30 2060 C 201.106 -1.01126 -1.6743 0
M  V30 2061 O 202.312 -1.28097 -2.39381 0
M  V30 2062 C 200.768 -3.45839 -0.996164 0
M  V30 2063 C 200.376 -4.47842 0.118926 0
M  V30 2064 C 202.12 -3.92227 -1.62352 0
M  V30 2065 C 200.027 -5.90284 -0.363192 0
M  V30 2066 H 198.957 -0.726391 -0.20217 0
M  V30 2067 H 201.608 -1.82339 0.206092 0
M  V30 2068 H 199.99 -3.53338 -1.78796 0
M  V30 2069 H 201.164 -4.52018 0.895358 0
M  V30 2070 H 199.479 -4.11243 0.653324 0
M  V30 2071 H 202.076 -4.96069 -1.99548 0
M  V30 2072 H 202.419 -3.32552 -2.50429 0
M  V30 2073 H 202.952 -3.87554 -0.897019 0
M  V30 2074 H 199.691 -6.53728 0.481679 0
M  V30 2075 H 199.211 -5.89515 -1.10597 0
M  V30 2076 H 200.89 -6.41752 -0.822377 0
M  V30 2077 N 201.022 0.148545 -1.56898 0
M  V30 2078 C 202.27 0.859717 -1.82902 0
M  V30 2079 C 202.591 1.81775 -0.70588 0
M  V30 2080 O 201.861 1.93994 0.272586 0
M  V30 2081 H 200.441 0.320469 -0.674766 0
M  V30 2082 H 203.103 0.142918 -1.94375 0
M  V30 2083 H 202.199 1.4229 -2.77777 0
M  V30 2084 N 202.5 1.5196 0.417844 0
M  V30 2085 C 203.41 1.77554 1.53336 0
M  V30 2086 C 204.426 0.660655 1.6097 0
M  V30 2087 O 205.602 0.945099 1.77848 0
M  V30 2088 C 202.667 1.91291 2.89152 0
M  V30 2089 C 201.728 3.15183 2.91475 0
M  V30 2090 C 200.961 3.28256 4.20813 0
M  V30 2091 O 201.184 2.46798 5.14244 0
M  V30 2092 O 200.118 4.21356 4.29817 0
M  V30 2093 H 203.944 2.7222 1.34647 0
M  V30 2094 H 201.529 1.36698 0.602828 0
M  V30 2095 H 203.411 2.02199 3.69721 0
M  V30 2096 H 202.086 0.998129 3.07927 0
M  V30 2097 H 200.993 3.09739 2.09791 0
M  V30 2098 H 202.326 4.06414 2.77648 0
M  V30 2099 N 203.978 -0.674533 1.42435 0
M  V30 2100 C 205.394 -0.98769 1.25367 0
M  V30 2101 C 205.594 -2.00879 0.158044 0
M  V30 2102 O 204.65 -2.48075 -0.470633 0
M  V30 2103 C 205.963 -1.49224 2.6106 0
M  V30 2104 C 207.511 -1.61 2.68417 0
M  V30 2105 C 207.986 -2.14852 4.04478 0
M  V30 2106 N 209.477 -2.22185 4.06434 0
M  V30 2107 C 210.212 -2.64928 5.08528 0
M  V30 2108 N 209.708 -3.07121 6.21006 0
M  V30 2109 N 211.501 -2.64679 4.95885 0
M  V30 2110 H 203.652 0.00152503 2.124 0
M  V30 2111 H 205.915 -0.0618434 0.945981 0
M  V30 2112 H 205.621 -0.816453 3.42092 0
M  V30 2113 H 205.495 -2.47094 2.84999 0
M  V30 2114 H 207.882 -2.27686 1.87732 0
M  V30 2115 H 207.963 -0.616195 2.48267 0
M  V30 2116 H 207.607 -1.48775 4.85622 0
M  V30 2117 H 207.537 -3.15024 4.2198 0
M  V30 2118 H 210.028 -1.92435 3.25234 0
M  V30 2119 H 210.341 -3.38423 6.94759 0
M  V30 2120 H 208.686 -3.04978 6.24511 0
M  V30 2121 H 211.877 -2.31078 4.07088 0
M  V30 2122 H 212.05 -2.9767 5.75584 0
M  V30 2123 N 205.456 -1.28612 -0.910864 0
M  V30 2124 C 206.388 -1.08589 -2.01844 0
M  V30 2125 C 207.401 -0.0367419 -1.62759 0
M  V30 2126 O 208.59 -0.280101 -1.76289 0
M  V30 2127 C 205.69 -0.628626 -3.33019 0
M  V30 2128 C 204.863 -1.75382 -4.00699 0
M  V30 2129 C 203.922 -1.28945 -5.10156 0
M  V30 2130 O 202.948 -1.9922 -5.33198 0
M  V30 2131 N 204.15 -0.154224 -5.80295 0
M  V30 2132 H 206.915 -2.03973 -2.19579 0
M  V30 2133 H 204.476 -1.20403 -1.08234 0
M  V30 2134 H 206.468 -0.301508 -4.03575 0
M  V30 2135 H 205.038 0.232451 -3.11735 0
M  V30 2136 H 204.258 -2.25039 -3.23653 0
M  V30 2137 H 205.546 -2.50854 -4.42662 0
M  V30 2138 H 204.944 0.43194 -5.64049 0
M  V30 2139 H 203.501 0.113599 -6.51701 0
M  V30 2140 N 206.934 1.1197 -1.10907 0
M  V30 2141 C 208.182 1.83225 -0.852819 0
M  V30 2142 C 208.503 1.84769 0.623341 0
M  V30 2143 O 207.773 1.3143 1.45269 0
M  V30 2144 H 206.353 0.67849 -0.312507 0
M  V30 2145 H 209.015 1.3556 -1.40033 0
M  V30 2146 H 208.111 2.87265 -1.22005 0
M  V30 2147 N 208.412 0.89855 1.29475 0
M  V30 2148 C 209.344 0.332726 2.26772 0
M  V30 2149 C 210.357 -0.520323 1.54261 0
M  V30 2150 O 211.546 -0.337668 1.75277 0
M  V30 2151 C 208.646 -0.544334 3.345 0
M  V30 2152 C 207.819 0.282728 4.36485 0
M  V30 2153 C 206.878 -0.526982 5.23555 0
M  V30 2154 O 205.904 0.0551165 5.69173 0
M  V30 2155 N 207.106 -1.83331 5.5079 0
M  V30 2156 H 209.871 1.16897 2.75962 0
M  V30 2157 H 207.432 0.762919 1.42798 0
M  V30 2158 H 209.424 -1.09239 3.89678 0
M  V30 2159 H 207.994 -1.28127 2.85136 0
M  V30 2160 H 207.214 1.01221 3.80983 0
M  V30 2161 H 208.502 0.84918 5.01664 0
M  V30 2162 H 207.9 -2.32898 5.15534 0
M  V30 2163 H 206.457 -2.32852 6.08788 0
M  V30 2164 N 209.89 -1.43072 0.660911 0
M  V30 2165 C 210.8 -2.34585 -0.0264163 0
M  V30 2166 C 211.816 -1.54316 -0.803898 0
M  V30 2167 O 212.992 -1.86939 -0.749391 0
M  V30 2168 C 210.057 -3.32689 -0.975639 0
M  V30 2169 C 209.118 -4.2886 -0.194236 0
M  V30 2170 C 208.351 -5.22278 -1.09825 0
M  V30 2171 O 208.574 -5.20299 -2.33763 0
M  V30 2172 O 207.508 -5.99228 -0.566513 0
M  V30 2173 H 211.334 -2.94869 0.727034 0
M  V30 2174 H 208.919 -1.43342 0.42111 0
M  V30 2175 H 210.801 -3.92995 -1.52094 0
M  V30 2176 H 209.476 -2.74898 -1.70918 0
M  V30 2177 H 208.383 -3.72011 0.394835 0
M  V30 2178 H 209.716 -4.89655 0.499899 0
M  V30 2179 N 211.368 -0.403325 -1.52352 0
M  V30 2180 C 212.298 0.416205 -2.29761 0
M  V30 2181 C 213.279 1.05123 -1.33728 0
M  V30 2182 O 214.464 1.06134 -1.62632 0
M  V30 2183 C 211.594 1.53624 -3.11475 0
M  V30 2184 C 210.548 1.02653 -4.15507 0
M  V30 2185 C 209.874 2.23971 -4.85532 0
M  V30 2186 C 211.174 0.08463 -5.22231 0
M  V30 2187 H 212.868 -0.229701 -2.98518 0
M  V30 2188 H 210.414 -0.111913 -1.43564 0
M  V30 2189 H 212.367 2.1165 -3.64393 0
M  V30 2190 H 211.091 2.20994 -2.40477 0
M  V30 2191 H 209.75 0.46871 -3.63591 0
M  V30 2192 H 209.398 2.89883 -4.11068 0
M  V30 2193 H 209.098 1.90521 -5.55856 0
M  V30 2194 H 210.622 2.82614 -5.41259 0
M  V30 2195 H 212.036 0.573509 -5.70424 0
M  V30 2196 H 210.433 -0.160783 -5.99885 0
M  V30 2197 H 211.503 -0.86237 -4.7717 0
M  V30 2198 N 212.846 1.57033 -0.133567 0
M  V30 2199 C 214.076 1.99754 0.527429 0
M  V30 2200 C 214.484 1.01245 1.59832 0
M  V30 2201 O 213.827 -0.000645496 1.837 0
M  V30 2202 C 213.889 3.38903 1.19939 0
M  V30 2203 C 213.553 4.56174 0.274709 0
M  V30 2204 C 214.55 5.17563 -0.492398 0
M  V30 2205 C 212.235 5.01972 0.18153 0
M  V30 2206 C 214.229 6.2315 -1.34027 0
M  V30 2207 C 211.916 6.07416 -0.669958 0
M  V30 2208 C 212.914 6.67874 -1.42947 0
M  V30 2209 O 212.602 7.71279 -2.2668 0
M  V30 2210 H 212.334 0.660702 0.142999 0
M  V30 2211 H 214.888 2.04207 -0.221099 0
M  V30 2212 H 213.118 3.31248 1.99528 0
M  V30 2213 H 214.807 3.65818 1.75875 0
M  V30 2214 H 215.573 4.83087 -0.430367 0
M  V30 2215 H 211.452 4.54652 0.762422 0
M  V30 2216 H 214.996 6.70268 -1.93357 0
M  V30 2217 H 210.893 6.41321 -0.73333 0
M  V30 2218 H 211.661 7.88441 -2.1978 0
M  V30 2219 N 214.325 -0.140222 1.56975 0
M  V30 2220 C 215.272 -1.17292 1.98774 0
M  V30 2221 C 216.242 -1.4232 0.856408 0
M  V30 2222 O 217.427 -1.54541 1.119 0
M  V30 2223 C 214.567 -2.49973 2.37923 0
M  V30 2224 C 213.68 -2.32062 3.64378 0
M  V30 2225 C 212.815 -3.57825 3.926 0
M  V30 2226 C 211.854 -3.3498 5.12303 0
M  V30 2227 N 210.991 -4.52891 5.36502 0
M  V30 2228 H 215.831 -0.809472 2.86795 0
M  V30 2229 H 213.368 -0.388237 1.41884 0
M  V30 2230 H 215.326 -3.27346 2.58652 0
M  V30 2231 H 213.956 -2.84252 1.52972 0
M  V30 2232 H 213.008 -1.45711 3.51387 0
M  V30 2233 H 214.32 -2.11145 4.51906 0
M  V30 2234 H 213.474 -4.43624 4.13863 0
M  V30 2235 H 212.213 -3.81753 3.03506 0
M  V30 2236 H 211.218 -2.4757 4.90906 0
M  V30 2237 H 212.443 -3.12444 6.02956 0
M  V30 2238 H 210.389 -4.76979 4.50363 0
M  V30 2239 H 210.306 -4.35001 6.18312 0
M  V30 2240 H 211.574 -5.39884 5.62268 0
M  V30 2241 N 215.803 -1.52179 -0.40978 0
M  V30 2242 C 216.713 -1.78364 -1.52392 0
M  V30 2243 C 217.729 -0.669183 -1.60617 0
M  V30 2244 O 218.905 -0.954518 -1.77344 0
M  V30 2245 C 215.97 -1.92822 -2.88133 0
M  V30 2246 C 215.031 -3.16725 -2.898 0
M  V30 2247 C 214.264 -3.30483 -4.19067 0
M  V30 2248 O 214.487 -2.49522 -5.12928 0
M  V30 2249 O 213.421 -4.2363 -4.27576 0
M  V30 2250 H 217.247 -2.72931 -1.33201 0
M  V30 2251 H 214.832 -1.37016 -0.59557 0
M  V30 2252 H 216.714 -2.04157 -3.68643 0
M  V30 2253 H 215.389 -1.01444 -3.07393 0
M  V30 2254 H 214.296 -3.10848 -2.08146 0
M  V30 2255 H 215.629 -4.07881 -2.75489 0
M  V30 2256 N 217.281 0.66697 -1.42791 0
M  V30 2257 C 218.214 1.79177 -1.41318 0
M  V30 2258 C 219.192 1.60234 -0.276401 0
M  V30 2259 O 220.376 1.82602 -0.46785 0
M  V30 2260 C 217.503 3.16289 -1.21157 0
M  V30 2261 C 216.549 3.53964 -2.37932 0
M  V30 2262 S 217.382 3.55501 -4.00474 0
M  V30 2263 C 218.538 4.95292 -3.8267 0
M  V30 2264 H 218.771 1.80153 -2.365 0
M  V30 2265 H 216.304 0.838357 -1.29657 0
M  V30 2266 H 218.262 3.95428 -1.10212 0
M  V30 2267 H 216.923 3.1289 -0.275481 0
M  V30 2268 H 216.116 4.53646 -2.19594 0
M  V30 2269 H 215.718 2.82204 -2.45432 0
M  V30 2270 H 218.01 5.83584 -3.44145 0
M  V30 2271 H 218.953 5.18679 -4.82055 0
M  V30 2272 H 219.361 4.68179 -3.15386 0
M  V30 2273 N 218.759 1.29093 0.90403 0
M  V30 2274 C 219.691 1.09658 2.01266 0
M  V30 2275 C 220.704 0.0453729 1.62737 0
M  V30 2276 O 221.893 0.289446 1.76138 0
M  V30 2277 C 218.993 0.646278 3.32681 0
M  V30 2278 C 218.166 1.77505 3.99763 0
M  V30 2279 C 217.225 1.31649 5.09465 0
M  V30 2280 O 216.251 2.02045 5.32134 0
M  V30 2281 N 217.453 0.184997 5.80205 0
M  V30 2282 H 220.218 2.05135 2.18494 0
M  V30 2283 H 217.779 1.20975 1.07594 0
M  V30 2284 H 219.771 0.322906 4.0341 0
M  V30 2285 H 218.341 -0.215916 3.11853 0
M  V30 2286 H 217.561 2.26752 3.22455 0
M  V30 2287 H 218.849 2.53198 4.41325 0
M  V30 2288 H 218.247 -0.402021 5.6427 0
M  V30 2289 H 216.804 -0.0790358 6.51752 0
M  V30 2290 N 220.237 -1.11381 1.11499 0
M  V30 2291 C 221.184 -2.17439 0.773887 0
M  V30 2292 C 222.154 -1.64132 -0.254899 0
M  V30 2293 O 223.339 -1.90345 -0.13168 0
M  V30 2294 C 220.479 -3.44373 0.223917 0
M  V30 2295 C 219.592 -4.1168 1.30934 0
M  V30 2296 C 218.727 -5.263 0.71984 0
M  V30 2297 C 217.766 -5.85493 1.78507 0
M  V30 2298 N 216.903 -6.91507 1.21502 0
M  V30 2299 H 221.743 -2.45962 1.68246 0
M  V30 2300 H 219.28 -1.20744 0.840191 0
M  V30 2301 H 221.238 -4.17047 -0.112921 0
M  V30 2302 H 219.868 -3.16232 -0.647851 0
M  V30 2303 H 218.92 -3.37073 1.76312 0
M  V30 2304 H 220.232 -4.51729 2.11524 0
M  V30 2305 H 219.386 -6.05785 0.333094 0
M  V30 2306 H 218.125 -4.87559 -0.117377 0
M  V30 2307 H 217.13 -5.04686 2.18111 0
M  V30 2308 H 218.355 -6.26301 2.62533 0
M  V30 2309 H 216.301 -6.54783 0.399455 0
M  V30 2310 H 216.218 -7.30214 1.95763 0
M  V30 2311 H 217.486 -7.74795 0.855181 0
M  V30 2312 N 221.715 -0.905404 -1.28997 0
M  V30 2313 C 223.131 -0.60233 -1.47798 0
M  V30 2314 C 223.331 0.854645 -1.82478 0
M  V30 2315 O 222.387 1.63439 -1.92468 0
M  V30 2316 C 223.7 -1.53306 -2.58685 0
M  V30 2317 C 225.248 -1.53887 -2.72558 0
M  V30 2318 C 225.723 -2.45602 -3.86579 0
M  V30 2319 N 227.214 -2.43681 -3.93921 0
M  V30 2320 C 227.949 -3.11347 -4.81509 0
M  V30 2321 N 227.445 -3.88313 -5.73746 0
M  V30 2322 N 229.238 -3.00476 -4.75048 0
M  V30 2323 H 221.389 -1.84765 -1.04764 0
M  V30 2324 H 223.652 -0.792025 -0.520961 0
M  V30 2325 H 223.358 -2.57141 -2.39941 0
M  V30 2326 H 223.232 -1.25787 -3.55609 0
M  V30 2327 H 225.619 -0.507941 -2.90696 0
M  V30 2328 H 225.7 -1.85447 -1.76191 0
M  V30 2329 H 225.344 -3.48792 -3.69197 0
M  V30 2330 H 225.274 -2.11349 -4.82327 0
M  V30 2331 H 227.765 -1.87767 -3.27951 0
M  V30 2332 H 228.078 -4.36985 -6.37389 0
M  V30 2333 H 226.423 -3.92419 -5.73614 0
M  V30 2334 H 229.614 -2.39858 -4.01977 0
M  V30 2335 H 229.787 -3.53485 -5.43095 0
M  V30 2336 N 223.193 1.4272 -0.668489 0
M  V30 2337 C 224.441 2.01226 -0.187769 0
M  V30 2338 C 224.762 1.53092 1.2078 0
M  V30 2339 O 224.032 0.74993 1.80977 0
M  V30 2340 H 222.612 0.744041 -0.0664272 0
M  V30 2341 H 225.274 1.74723 -0.863583 0
M  V30 2342 H 224.37 3.11556 -0.184166 0
M  V30 2343 N 224.671 0.411399 1.52136 0
M  V30 2344 C 225.917 -0.156262 2.02799 0
M  V30 2345 C 226.272 -1.42613 1.29149 0
M  V30 2346 O 225.565 -1.87592 0.389839 0
M  V30 2347 C 225.759 -0.455872 3.54481 0
M  V30 2348 C 225.588 0.783404 4.42824 0
M  V30 2349 C 224.358 1.30928 4.88043 0
M  V30 2350 C 226.556 1.66217 4.86699 0
M  V30 2351 N 224.538 2.5038 5.6052 0
M  V30 2352 C 225.909 2.70292 5.5798 0
M  V30 2353 C 227.964 1.67966 4.68713 0
M  V30 2354 C 226.667 3.7603 6.13184 0
M  V30 2355 C 228.693 2.72624 5.24815 0
M  V30 2356 C 228.055 3.7542 5.9602 0
M  V30 2357 H 224.154 -0.0186886 0.781777 0
M  V30 2358 H 226.738 0.566255 1.86284 0
M  V30 2359 H 224.909 -1.14743 3.71064 0
M  V30 2360 H 226.641 -1.01261 3.91827 0
M  V30 2361 H 223.396 0.866977 4.65597 0
M  V30 2362 H 223.82 3.10881 6.014 0
M  V30 2363 H 228.462 0.898312 4.13147 0
M  V30 2364 H 226.18 4.55019 6.6782 0
M  V30 2365 H 229.766 2.74887 5.12765 0
M  V30 2366 H 228.646 4.55073 6.38654 0
M  V30 2367 N 226.149 -1.5696 0.141893 0
M  V30 2368 C 227.426 -1.87553 -0.555281 0
M  V30 2369 C 227.806 -1.04699 -1.83306 0
M  V30 2370 O 227.154 -0.132346 -2.28116 0
M  V30 2371 C 227.364 -3.39093 -0.825664 0
M  V30 2372 C 228.712 -4.08199 -1.16869 0
M  V30 2373 O 229.736 -3.44242 -0.915185 0
M  V30 2374 O 228.595 -5.21139 -1.6455 0
M  V30 2375 H 225.689 -0.777188 -0.282679 0
M  V30 2376 H 228.235 -1.68763 0.17812 0
M  V30 2377 H 227.007 -3.91221 0.0788633 0
M  V30 2378 H 226.63 -3.63393 -1.61343 0
M  V30 2379 N 227.627 0.131896 -1.57047 0
M  V30 2380 C 228.873 0.843179 -1.84441 0
M  V30 2381 C 229.206 1.80129 -0.725749 0
M  V30 2382 O 228.481 1.92624 0.269469 0
M  V30 2383 C 228.764 1.60442 -3.22382 0
M  V30 2384 C 228.617 0.666782 -4.4483 0
M  V30 2385 C 229.936 2.56354 -3.5773 0
M  V30 2386 H 227.055 0.305081 -0.670891 0
M  V30 2387 H 229.697 0.107839 -1.89694 0
M  V30 2388 H 227.847 2.23128 -3.18035 0
M  V30 2389 H 229.519 0.0497646 -4.61273 0
M  V30 2390 H 227.762 -0.022609 -4.33794 0
M  V30 2391 H 228.433 1.23579 -5.37989 0
M  V30 2392 H 230.909 2.0378 -3.62785 0
M  V30 2393 H 229.785 3.06657 -4.5525 0
M  V30 2394 H 230.046 3.38419 -2.84473 0
M  V30 2395 N 229.106 1.52395 0.401703 0
M  V30 2396 C 230.053 1.76268 1.48991 0
M  V30 2397 C 231.023 0.605386 1.54675 0
M  V30 2398 O 232.208 0.843742 1.7113 0
M  V30 2399 C 229.348 1.92592 2.86361 0
M  V30 2400 C 228.461 3.20259 2.89928 0
M  V30 2401 C 227.596 3.26972 4.18644 0
M  V30 2402 C 226.635 4.48812 4.16214 0
M  V30 2403 N 225.772 4.52877 5.36514 0
M  V30 2404 H 230.612 2.6914 1.27935 0
M  V30 2405 H 228.149 1.33355 0.620871 0
M  V30 2406 H 230.107 2.0004 3.66115 0
M  V30 2407 H 228.737 1.03093 3.05895 0
M  V30 2408 H 227.789 3.21945 2.02621 0
M  V30 2409 H 229.101 4.10056 2.83999 0
M  V30 2410 H 228.255 3.33533 5.06794 0
M  V30 2411 H 226.994 2.35126 4.27278 0
M  V30 2412 H 225.999 4.4239 3.26453 0
M  V30 2413 H 227.224 5.41961 4.09213 0
M  V30 2414 H 225.17 3.63917 5.45802 0
M  V30 2415 H 225.087 5.36529 5.32609 0
M  V30 2416 H 226.355 4.63676 6.26597 0
M  V30 2417 N 230.584 -0.659388 1.43143 0
M  V30 2418 C 231.494 -1.80167 1.50256 0
M  V30 2419 C 232.51 -1.69571 0.390106 0
M  V30 2420 O 233.686 -1.90849 0.643319 0
M  V30 2421 C 230.751 -3.16409 1.41725 0
M  V30 2422 C 229.812 -3.38848 2.63591 0
M  V30 2423 C 229.045 -4.68591 2.55458 0
M  V30 2424 O 229.268 -5.47532 1.59891 0
M  V30 2425 O 228.202 -4.92614 3.45854 0
M  V30 2426 H 232.028 -1.77121 2.46702 0
M  V30 2427 H 229.613 -0.817092 1.25076 0
M  V30 2428 H 231.495 -3.9768 1.39387 0
M  V30 2429 H 230.17 -3.20059 0.484118 0
M  V30 2430 H 229.077 -2.57366 2.71502 0
M  V30 2431 H 230.41 -3.4004 3.55856 0
M  V30 2432 N 232.062 -1.29571 -0.897171 0
M  V30 2433 C 233.287 -1.20705 -1.68656 0
M  V30 2434 C 233.712 0.228582 -1.86706 0
M  V30 2435 O 233.07 1.16494 -1.3892 0
M  V30 2436 C 233.118 -1.9282 -3.04717 0
M  V30 2437 O 232.222 -1.24697 -3.93096 0
M  V30 2438 H 231.563 -0.418126 -0.515816 0
M  V30 2439 H 234.093 -1.71183 -1.12061 0
M  V30 2440 H 234.103 -2.01372 -3.54843 0
M  V30 2441 H 232.778 -2.97239 -2.90899 0
M  V30 2442 H 231.355 -1.2442 -3.51531 0
M  V30 2443 N 233.54 1.10788 -1.12088 0
M  V30 2444 C 234.503 2.15207 -0.788577 0
M  V30 2445 C 235.503 1.59609 0.195317 0
M  V30 2446 O 236.693 1.74174 -0.0300193 0
M  V30 2447 C 233.825 3.4047 -0.171174 0
M  V30 2448 H 235.018 2.46116 -1.71368 0
M  V30 2449 H 232.571 1.26089 -0.923652 0
M  V30 2450 H 233.306 3.15176 0.763832 0
M  V30 2451 H 233.091 3.82109 -0.879514 0
M  V30 2452 H 234.581 4.17576 0.04496 0
M  V30 2453 N 235.018 0.912232 1.28515 0
M  V30 2454 C 236.264 0.545405 1.95328 0
M  V30 2455 C 236.597 -0.908313 1.71649 0
M  V30 2456 O 235.872 -1.64575 1.03659 0
M  V30 2457 C 236.155 0.853483 3.4984 0
M  V30 2458 C 236.008 2.35982 3.82926 0
M  V30 2459 C 237.327 0.348589 4.38717 0
M  V30 2460 H 234.446 0.199626 0.709449 0
M  V30 2461 H 237.088 1.1412 1.5191 0
M  V30 2462 H 235.238 0.34643 3.86952 0
M  V30 2463 H 236.91 2.93738 3.55691 0
M  V30 2464 H 235.153 2.81543 3.30024 0
M  V30 2465 H 235.824 2.52593 4.90816 0
M  V30 2466 H 238.3 0.78294 4.08668 0
M  V30 2467 H 237.176 0.593242 5.45685 0
M  V30 2468 H 237.437 -0.751049 4.35674 0
M  V30 2469 N 236.496 -1.42363 0.676048 0
M  V30 2470 C 237.429 -2.28141 -0.0516916 0
M  V30 2471 C 238.407 -1.41135 -0.807439 0
M  V30 2472 O 239.591 -1.70573 -0.802305 0
M  V30 2473 C 236.718 -3.21007 -1.08039 0
M  V30 2474 C 235.764 -4.24426 -0.420076 0
M  V30 2475 S 236.597 -5.29134 0.823246 0
M  V30 2476 C 237.753 -6.25566 -0.204344 0
M  V30 2477 H 237.986 -2.89515 0.675884 0
M  V30 2478 H 235.519 -1.47211 0.465635 0
M  V30 2479 H 237.477 -3.75048 -1.66881 0
M  V30 2480 H 236.138 -2.58766 -1.78042 0
M  V30 2481 H 235.331 -4.89596 -1.19633 0
M  V30 2482 H 234.933 -3.7388 0.0947845 0
M  V30 2483 H 237.225 -6.69098 -1.06369 0
M  V30 2484 H 238.168 -7.06895 0.412915 0
M  V30 2485 H 238.576 -5.61811 -0.55038 0
M  V30 2486 N 237.974 -0.419461 -1.51915 0
M  V30 2487 C 238.937 0.389116 -2.25873 0
M  V30 2488 C 239.937 0.964924 -1.28631 0
M  V30 2489 O 241.127 0.842179 -1.52489 0
M  V30 2490 C 238.259 1.54874 -3.03689 0
M  V30 2491 H 239.452 -0.258799 -2.98781 0
M  V30 2492 H 237.005 -0.172209 -1.55348 0
M  V30 2493 H 237.74 2.23323 -2.35154 0
M  V30 2494 H 237.525 1.14223 -3.75094 0
M  V30 2495 H 239.015 2.12046 -3.59759 0
M  V30 2496 N 239.452 1.56882 -0.150215 0
M  V30 2497 C 240.701 1.95403 0.500071 0
M  V30 2498 C 241.014 1.03777 1.658 0
M  V30 2499 O 242.22 1.31889 2.37313 0
M  V30 2500 C 240.676 3.4738 0.941018 0
M  V30 2501 C 240.284 4.47596 -0.190158 0
M  V30 2502 C 242.028 3.9476 1.56091 0
M  V30 2503 C 239.935 5.90787 0.269237 0
M  V30 2504 H 238.865 0.729515 0.190588 0
M  V30 2505 H 241.516 1.81988 -0.235074 0
M  V30 2506 H 239.898 3.56138 1.73152 0
M  V30 2507 H 241.072 4.50536 -0.967157 0
M  V30 2508 H 239.387 4.10151 -0.718666 0
M  V30 2509 H 241.984 4.99181 1.9163 0
M  V30 2510 H 242.327 3.36494 2.45107 0
M  V30 2511 H 242.86 3.88932 0.835249 0
M  V30 2512 H 239.599 6.52879 -0.585621 0
M  V30 2513 H 239.119 5.912 1.01204 0
M  V30 2514 H 240.798 6.42979 0.720176 0
M  V30 2515 N 240.93 -0.123565 1.57115 0
M  V30 2516 C 242.158 -0.846461 1.88793 0
M  V30 2517 C 242.573 -1.73652 0.740976 0
M  V30 2518 O 241.93 -1.80207 -0.288393 0
M  V30 2519 C 241.981 -1.6837 3.19897 0
M  V30 2520 O 241.702 -0.829477 4.30176 0
M  V30 2521 C 243.203 -2.51214 3.65248 0
M  V30 2522 H 240.423 -0.243573 0.625231 0
M  V30 2523 H 242.967 -0.109324 2.04208 0
M  V30 2524 H 241.122 -2.37364 3.06165 0
M  V30 2525 H 241.536 -1.40651 5.0529 0
M  V30 2526 H 243.01 -3.05497 4.59756 0
M  V30 2527 H 243.487 -3.28359 2.9168 0
M  V30 2528 H 244.093 -1.8747 3.81752 0
M  V30 2529 N 242.408 -1.52605 -0.393616 0
M  V30 2530 C 243.371 -1.76415 -1.46323 0
M  V30 2531 C 244.371 -0.634126 -1.47768 0
M  V30 2532 O 245.561 -0.902142 -1.4902 0
M  V30 2533 C 242.693 -1.8607 -2.85641 0
M  V30 2534 H 243.886 -2.71916 -1.26498 0
M  V30 2535 H 241.439 -1.43257 -0.625073 0
M  V30 2536 H 242.174 -0.925378 -3.10817 0
M  V30 2537 H 241.959 -2.68235 -2.85993 0
M  V30 2538 H 243.449 -2.06179 -3.63153 0
M  V30 2539 N 243.887 0.651787 -1.4349 0
M  V30 2540 C 244.835 1.78586 -1.49029 0
M  V30 2541 C 245.829 1.65448 -0.363767 0
M  V30 2542 O 247.035 1.71777 -0.537821 0
M  V30 2543 H 243.41 0.589236 -0.467231 0
M  V30 2544 H 245.381 1.71035 -2.44519 0
M  V30 2545 C 244.13 3.16851 -1.43181 0
M  V30 2546 H 243.453 3.27598 -2.29171 0
M  V30 2547 H 244.893 3.96156 -1.51118 0
M  V30 2548 C 243.352 3.36568 -0.149616 0
M  V30 2549 O 243.882 3.93885 0.788509 0
M  V30 2550 N 242.088 2.90539 -0.0593484 0
M  V30 2551 H 241.635 2.4408 -0.823575 0
M  V30 2552 H 241.593 3.04108 0.797853 0
M  V30 2553 N 245.365 1.30045 0.890287 0
M  V30 2554 C 246.275 1.17885 2.02831 0
M  V30 2555 C 247.291 0.0999609 1.73713 0
M  V30 2556 O 248.467 0.313867 1.98939 0
M  V30 2557 C 245.532 0.866079 3.35708 0
M  V30 2558 C 244.593 2.02979 3.78283 0
M  V30 2559 C 243.826 1.73184 5.0482 0
M  V30 2560 O 244.049 0.657237 5.66601 0
M  V30 2561 O 242.983 2.58267 5.43674 0
M  V30 2562 H 246.809 2.13474 2.16015 0
M  V30 2563 H 244.394 1.09587 1.01543 0
M  V30 2564 H 246.276 0.706623 4.15433 0
M  V30 2565 H 244.951 -0.0599443 3.23644 0
M  V30 2566 H 243.858 2.24454 2.99285 0
M  V30 2567 H 245.191 2.93734 3.94944 0
M  V30 2568 N 246.843 -1.10192 1.12674 0
M  V30 2569 C 247.773 -2.18652 0.819362 0
M  V30 2570 C 248.754 -1.68698 -0.217915 0
M  V30 2571 O 249.939 -1.94041 -0.0785581 0
M  V30 2572 C 247.069 -3.46202 0.27594 0
M  V30 2573 C 246.023 -4.09444 1.24656 0
M  V30 2574 C 245.349 -5.31725 0.563258 0
M  V30 2575 C 246.649 -4.52863 2.60217 0
M  V30 2576 H 248.343 -2.44622 1.72628 0
M  V30 2577 H 245.889 -1.17571 0.831451 0
M  V30 2578 H 247.842 -4.21372 0.0486149 0
M  V30 2579 H 246.566 -3.1973 -0.666331 0
M  V30 2580 H 245.225 -3.36284 1.45974 0
M  V30 2581 H 244.873 -5.0153 -0.384235 0
M  V30 2582 H 244.573 -5.74991 1.21075 0
M  V30 2583 H 246.097 -6.09624 0.34503 0
M  V30 2584 H 247.511 -5.19294 2.42913 0
M  V30 2585 H 245.908 -5.06986 3.21068 0
M  V30 2586 H 246.978 -3.65656 3.18471 0
M  V30 2587 N 248.321 -0.919034 -1.28029 0
M  V30 2588 C 249.598 -0.473668 -1.89778 0
M  V30 2589 C 249.978 1.04783 -1.83259 0
M  V30 2590 O 249.326 1.8982 -1.27202 0
M  V30 2591 C 249.536 -1.00998 -3.34066 0
M  V30 2592 C 250.884 -1.06525 -4.1102 0
M  V30 2593 O 251.908 -0.958996 -3.43048 0
M  V30 2594 O 250.767 -1.22776 -5.3253 0
M  V30 2595 H 247.861 -0.15098 -0.813101 0
M  V30 2596 H 250.407 -1.01016 -1.36359 0
M  V30 2597 H 249.179 -2.05392 -3.33061 0
M  V30 2598 H 248.802 -0.454626 -3.94992 0
M  V30 2599 N 249.799 1.42003 -0.683588 0
M  V30 2600 C 251.027 2.05746 -0.218182 0
M  V30 2601 C 251.442 1.51396 1.12804 0
M  V30 2602 O 250.799 0.657303 1.70252 0
M  V30 2603 C 250.85 3.61171 -0.154131 0
M  V30 2604 O 250.571 4.13508 -1.44716 0
M  V30 2605 C 252.072 4.42042 0.333713 0
M  V30 2606 H 249.292 0.662888 -0.10402 0
M  V30 2607 H 251.836 1.81987 -0.9328 0
M  V30 2608 H 249.991 3.84012 0.511231 0
M  V30 2609 H 250.405 5.07453 -1.32632 0
M  V30 2610 H 251.879 5.51028 0.327423 0
M  V30 2611 H 252.356 4.17269 1.37053 0
M  V30 2612 H 252.962 4.24239 -0.300222 0
M  V30 2613 N 251.277 0.427512 1.51691 0
M  V30 2614 C 252.24 -0.377132 2.26076 0
M  V30 2615 C 253.24 -0.958089 1.29141 0
M  V30 2616 O 254.43 -0.83408 1.52934 0
M  V30 2617 C 251.562 -1.53262 3.04506 0
M  V30 2618 H 252.755 0.27464 2.9864 0
M  V30 2619 H 250.308 0.180445 1.55255 0
M  V30 2620 H 251.043 -2.22072 2.36335 0
M  V30 2621 H 250.828 -1.12232 3.75694 0
M  V30 2622 H 252.318 -2.10135 3.60878 0
M  V30 2623 N 252.755 -1.56801 0.158532 0
M  V30 2624 C 254.171 -1.5837 -0.197774 0
M  V30 2625 C 254.371 -1.17334 -1.63814 0
M  V30 2626 O 253.427 -0.878988 -2.36707 0
M  V30 2627 C 254.74 -3.00615 0.0714459 0
M  V30 2628 C 256.288 -3.12999 0.00864533 0
M  V30 2629 C 256.763 -4.57313 0.250685 0
M  V30 2630 N 258.254 -4.62777 0.198014 0
M  V30 2631 C 258.989 -5.72271 0.359642 0
M  V30 2632 N 258.485 -6.90371 0.579625 0
M  V30 2633 N 260.278 -5.61318 0.296438 0
M  V30 2634 H 252.429 -1.81765 1.09887 0
M  V30 2635 H 254.692 -0.841849 0.435884 0
M  V30 2636 H 254.398 -3.35068 1.06874 0
M  V30 2637 H 254.272 -3.71683 -0.642757 0
M  V30 2638 H 256.659 -2.7838 -0.979217 0
M  V30 2639 H 256.74 -2.44393 0.755359 0
M  V30 2640 H 256.384 -4.92639 1.2357 0
M  V30 2641 H 256.314 -5.24061 -0.516489 0
M  V30 2642 H 258.805 -3.77885 0.0331115 0
M  V30 2643 H 259.118 -7.69689 0.69275 0
M  V30 2644 H 257.463 -6.92264 0.616087 0
M  V30 2645 H 260.654 -4.67932 0.125258 0
M  V30 2646 H 260.827 -6.46599 0.425831 0
M  V30 2647 N 254.233 0.115231 -1.57178 0
M  V30 2648 C 255.649 0.468877 -1.52557 0
M  V30 2649 C 255.849 1.81649 -0.872125 0
M  V30 2650 O 254.905 2.48347 -0.45606 0
M  V30 2651 C 256.218 0.4499 -2.97315 0
M  V30 2652 C 257.766 0.533185 -3.08425 0
M  V30 2653 C 258.241 0.54456 -4.54751 0
M  V30 2654 N 259.732 0.605892 -4.5922 0
M  V30 2655 C 260.467 0.636203 -5.6986 0
M  V30 2656 N 259.963 0.623931 -6.89985 0
M  V30 2657 N 261.756 0.679496 -5.57978 0
M  V30 2658 H 253.907 -0.767712 -1.9804 0
M  V30 2659 H 256.17 -0.283609 -0.904583 0
M  V30 2660 H 255.876 -0.472721 -3.48509 0
M  V30 2661 H 255.75 1.27632 -3.5495 0
M  V30 2662 H 258.137 1.44623 -2.57232 0
M  V30 2663 H 258.218 -0.320995 -2.53778 0
M  V30 2664 H 257.862 -0.364452 -5.06591 0
M  V30 2665 H 257.792 1.41568 -5.07214 0
M  V30 2666 H 260.283 0.621386 -3.72756 0
M  V30 2667 H 260.596 0.649787 -7.70063 0
M  V30 2668 H 258.941 0.591296 -6.9248 0
M  V30 2669 H 262.132 0.686472 -4.63039 0
M  V30 2670 H 262.305 0.69965 -6.44212 0
M  V30 2671 N 255.711 1.52812 0.385517 0
M  V30 2672 C 257.127 1.4214 0.725829 0
M  V30 2673 C 257.327 0.544589 1.94001 0
M  V30 2674 O 256.383 0.0193693 2.52493 0
M  V30 2675 C 257.696 2.85042 0.957668 0
M  V30 2676 C 259.244 2.94543 1.05892 0
M  V30 2677 C 259.719 4.38464 1.32337 0
M  V30 2678 N 261.21 4.41804 1.39151 0
M  V30 2679 C 261.945 5.5025 1.61285 0
M  V30 2680 N 261.441 6.68775 1.80866 0
M  V30 2681 N 263.234 5.37798 1.63492 0
M  V30 2682 H 255.385 2.08338 -0.413383 0
M  V30 2683 H 257.648 0.940016 -0.122775 0
M  V30 2684 H 257.354 3.51431 0.137568 0
M  V30 2685 H 257.228 3.27505 1.87137 0
M  V30 2686 H 259.615 2.28321 1.86959 0
M  V30 2687 H 259.696 2.55504 0.123057 0
M  V30 2688 H 259.34 5.05254 0.517793 0
M  V30 2689 H 259.27 4.75059 2.27214 0
M  V30 2690 H 261.761 3.56377 1.25713 0
M  V30 2691 H 262.074 7.47197 1.97271 0
M  V30 2692 H 260.419 6.71797 1.78083 0
M  V30 2693 H 263.61 4.44171 1.47749 0
M  V30 2694 H 263.783 6.22382 1.80402 0
M  V30 2695 N 257.189 -0.644168 1.43834 0
M  V30 2696 C 258.417 -1.43147 1.49387 0
M  V30 2697 C 258.832 -1.88452 0.114583 0
M  V30 2698 O 258.189 -1.60047 -0.876989 0
M  V30 2699 C 258.24 -2.66046 2.44748 0
M  V30 2700 O 257.961 -2.22633 3.77314 0
M  V30 2701 C 259.462 -3.59311 2.59635 0
M  V30 2702 H 256.682 -0.439447 0.507077 0
M  V30 2703 H 259.226 -0.78895 1.88669 0
M  V30 2704 H 257.381 -3.26418 2.08638 0
M  V30 2705 H 257.795 -3.02216 4.28679 0
M  V30 2706 H 259.269 -4.42187 3.30416 0
M  V30 2707 H 259.746 -4.07259 1.64427 0
M  V30 2708 H 260.352 -3.04816 2.96593 0
M  V30 2709 N 258.668 -1.30515 -0.883378 0
M  V30 2710 C 259.896 -1.22359 -1.66841 0
M  V30 2711 C 260.311 0.213296 -1.87591 0
M  V30 2712 O 259.668 1.14075 -1.42454 0
M  V30 2713 C 259.719 -1.95011 -3.04389 0
M  V30 2714 O 259.44 -3.3309 -2.84575 0
M  V30 2715 C 260.941 -1.93532 -3.98824 0
M  V30 2716 H 258.161 -0.423371 -0.520575 0
M  V30 2717 H 260.705 -1.72167 -1.10357 0
M  V30 2718 H 258.86 -1.48997 -3.57601 0
M  V30 2719 H 259.274 -3.69907 -3.71846 0
M  V30 2720 H 260.748 -2.48902 -4.92699 0
M  V30 2721 H 261.225 -0.914627 -4.29571 0
M  V30 2722 H 261.831 -2.39364 -3.51547 0
M  V30 2723 N 260.146 1.09593 -1.13257 0
M  V30 2724 C 261.394 1.81375 -0.891492 0
M  V30 2725 C 261.715 1.86049 0.584009 0
M  V30 2726 O 260.985 1.34481 1.42449 0
M  V30 2727 H 259.565 0.671708 -0.326828 0
M  V30 2728 H 262.227 1.3256 -1.42877 0
M  V30 2729 H 261.323 2.84612 -1.28071 0
M  V30 2730 N 261.624 0.925811 1.2754 0
M  V30 2731 C 262.849 0.580924 1.99098 0
M  V30 2732 C 263.274 -0.833555 1.68622 0
M  V30 2733 O 262.632 -1.55903 0.925422 0
M  V30 2734 C 262.68 0.811186 3.51358 0
M  V30 2735 O 261.784 -0.124129 4.12213 0
M  V30 2736 H 261.125 0.223873 0.625122 0
M  V30 2737 H 263.655 1.24455 1.62395 0
M  V30 2738 H 263.665 0.72601 4.01489 0
M  V30 2739 H 262.34 1.84227 3.72872 0
M  V30 2740 H 260.917 0.0108006 3.72898 0
M  V30 2741 N 263.102 -1.41638 0.69111 0
M  V30 2742 C 264.035 -2.28183 -0.0274913 0
M  V30 2743 C 265.013 -1.41984 -0.792424 0
M  V30 2744 O 266.197 -1.71415 -0.784169 0
M  V30 2745 C 263.324 -3.22135 -1.04628 0
M  V30 2746 C 262.37 -4.24848 -0.375037 0
M  V30 2747 S 263.203 -5.28231 0.879321 0
M  V30 2748 C 264.359 -6.25748 -0.137983 0
M  V30 2749 H 264.592 -2.88782 0.706553 0
M  V30 2750 H 262.125 -1.46709 0.481222 0
M  V30 2751 H 264.083 -3.76797 -1.62894 0
M  V30 2752 H 262.744 -2.6064 -1.75287 0
M  V30 2753 H 261.937 -4.90837 -1.14433 0
M  V30 2754 H 261.539 -3.73758 0.134434 0
M  V30 2755 H 263.831 -6.70188 -0.992659 0
M  V30 2756 H 264.774 -7.06417 0.487867 0
M  V30 2757 H 265.182 -5.62363 -0.490762 0
M  V30 2758 N 264.58 -0.43555 -1.51462 0
M  V30 2759 C 265.857 0.191364 -1.94662 0
M  V30 2760 C 266.237 1.60254 -1.37411 0
M  V30 2761 O 265.585 2.2152 -0.560458 0
M  V30 2762 C 265.795 0.17091 -3.48581 0
M  V30 2763 C 267.143 0.377357 -4.2292 0
M  V30 2764 O 268.167 0.249104 -3.55328 0
M  V30 2765 O 267.026 0.63247 -5.42828 0
M  V30 2766 H 264.12 0.130932 -0.816569 0
M  V30 2767 H 266.666 -0.4934 -1.62369 0
M  V30 2768 H 265.438 -0.815738 -3.82703 0
M  V30 2769 H 265.061 0.898659 -3.87311 0
M  V30 2770 N 266.058 1.56714 -0.166846 0
M  V30 2771 C 267.021 2.16539 0.751232 0
M  V30 2772 C 268.021 1.11228 1.16125 0
M  V30 2773 O 269.211 1.36765 1.07894 0
M  V30 2774 C 266.343 2.74462 2.02196 0
M  V30 2775 H 267.536 2.99013 0.230499 0
M  V30 2776 H 265.089 1.56081 0.0826982 0
M  V30 2777 H 265.824 1.95709 2.58589 0
M  V30 2778 H 265.609 3.51527 1.73698 0
M  V30 2779 H 267.099 3.20489 2.67725 0
M  V30 2780 N 267.536 -0.106894 1.57237 0
M  V30 2781 C 268.466 -1.13148 2.04254 0
M  V30 2782 C 269.447 -1.42476 0.929224 0
M  V30 2783 O 270.632 -1.52709 1.19973 0
M  V30 2784 C 267.762 -2.4545 2.45706 0
M  V30 2785 C 266.716 -2.30558 3.60592 0
M  V30 2786 C 266.042 -3.67931 3.87983 0
M  V30 2787 C 267.342 -1.75597 4.91897 0
M  V30 2788 H 269.036 -0.740374 2.90101 0
M  V30 2789 H 266.582 -0.354696 1.39563 0
M  V30 2790 H 268.535 -3.17389 2.77205 0
M  V30 2791 H 267.259 -2.86475 1.56843 0
M  V30 2792 H 265.918 -1.61067 3.29322 0
M  V30 2793 H 265.566 -4.06462 2.96306 0
M  V30 2794 H 265.266 -3.58817 4.65322 0
M  V30 2795 H 266.79 -4.41356 4.21945 0
M  V30 2796 H 268.204 -2.37364 5.21854 0
M  V30 2797 H 266.601 -1.77272 5.73319 0
M  V30 2798 H 267.671 -0.714451 4.79608 0
M  V30 2799 N 269.014 -1.53014 -0.377408 0
M  V30 2800 C 269.961 -1.78616 -1.46168 0
M  V30 2801 C 270.931 -0.629917 -1.53692 0
M  V30 2802 O 272.116 -0.870861 -1.69766 0
M  V30 2803 C 269.256 -1.97123 -2.8326 0
M  V30 2804 C 268.369 -3.24831 -2.84796 0
M  V30 2805 C 267.504 -3.33591 -4.13389 0
M  V30 2806 C 266.543 -4.55377 -4.09021 0
M  V30 2807 N 265.68 -4.61355 -5.29241 0
M  V30 2808 H 270.52 -2.71142 -1.23637 0
M  V30 2809 H 268.057 -1.34326 -0.599577 0
M  V30 2810 H 270.015 -2.05839 -3.62886 0
M  V30 2811 H 268.645 -1.07946 -3.04216 0
M  V30 2812 H 267.697 -3.25128 -1.97474 0
M  V30 2813 H 269.009 -4.14523 -2.77439 0
M  V30 2814 H 268.163 -3.41554 -5.01424 0
M  V30 2815 H 266.902 -2.41894 -4.23484 0
M  V30 2816 H 265.907 -4.47527 -3.19373 0
M  V30 2817 H 267.132 -5.48402 -4.00539 0
M  V30 2818 H 265.078 -3.72554 -5.39944 0
M  V30 2819 H 264.995 -5.44935 -5.24006 0
M  V30 2820 H 266.263 -4.73586 -6.19141 0
M  V30 2821 N 270.492 0.636531 -1.44174 0
M  V30 2822 C 271.455 1.73063 -1.50273 0
M  V30 2823 C 272.455 1.56113 -0.385397 0
M  V30 2824 O 273.645 1.61707 -0.64781 0
M  V30 2825 C 270.777 3.12096 -1.37145 0
M  V30 2826 H 271.97 1.69031 -2.47727 0
M  V30 2827 H 269.523 0.849706 -1.31186 0
M  V30 2828 H 270.258 3.21728 -0.407636 0
M  V30 2829 H 270.043 3.25805 -2.18159 0
M  V30 2830 H 271.533 3.91846 -1.44382 0
M  V30 2831 N 271.97 1.30982 0.876444 0
M  V30 2832 C 272.933 1.18054 1.96459 0
M  V30 2833 C 273.933 0.109399 1.60427 0
M  V30 2834 O 275.123 0.358173 1.70478 0
M  V30 2835 C 272.255 0.810616 3.31122 0
M  V30 2836 H 273.448 2.14735 2.09354 0
M  V30 2837 H 271.001 1.145 1.06392 0
M  V30 2838 H 271.736 -0.155322 3.23928 0
M  V30 2839 H 271.521 1.58481 3.58645 0
M  V30 2840 H 273.011 0.743876 4.10921 0
M  V30 2841 N 273.449 -1.08991 1.13837 0
M  V30 2842 C 274.697 -1.80899 0.901098 0
M  V30 2843 C 275.018 -1.86356 -0.574134 0
M  V30 2844 O 274.288 -1.35235 -1.41733 0
M  V30 2845 H 272.868 -0.669966 0.330386 0
M  V30 2846 H 275.53 -1.318 1.43578 0
M  V30 2847 H 274.626 -2.83929 1.29578 0
M  V30 2848 N 274.927 -0.932562 -1.27047 0
M  V30 2849 C 276.174 -0.575559 -1.94148 0
M  V30 2850 C 276.502 0.883984 -1.73251 0
M  V30 2851 O 275.757 1.64655 -1.0577 0
M  V30 2852 C 276.056 -0.853713 -3.47054 0
M  V30 2853 C 275.722 -2.29577 -3.88079 0
M  V30 2854 C 274.384 -2.68999 -3.9899 0
M  V30 2855 C 276.736 -3.23331 -4.08787 0
M  V30 2856 C 274.064 -4.01289 -4.28 0
M  V30 2857 C 276.416 -4.55207 -4.39282 0
M  V30 2858 C 275.08 -4.94457 -4.48407 0
M  V30 2859 H 274.35 -0.210612 -0.710439 0
M  V30 2860 H 276.997 -1.17744 -1.51025 0
M  V30 2861 H 275.302 -0.169204 -3.91434 0
M  V30 2862 H 276.999 -0.55639 -3.97121 0
M  V30 2863 H 273.589 -1.97994 -3.80127 0
M  V30 2864 H 277.773 -2.94074 -3.99793 0
M  V30 2865 H 273.029 -4.31374 -4.33275 0
M  V30 2866 H 277.203 -5.27852 -4.54252 0
M  V30 2867 H 274.83 -5.96994 -4.7064 0
M  V30 2868 N 276.405 1.4127 -0.698611 0
M  V30 2869 C 277.816 1.84187 -0.305289 0
M  V30 2870 C 278.167 1.58449 1.15708 0
M  V30 2871 O 277.292 1.05651 1.88856 0
M  V30 2872 C 277.887 3.3435 -0.547314 0
M  V30 2873 C 276.446 3.75826 -0.207878 0
M  V30 2874 C 275.593 2.64647 -0.828099 0
M  V30 2875 H 278.544 1.30778 -0.89904 0
M  V30 2876 H 278.565 3.8001 0.192998 0
M  V30 2877 H 278.077 3.53051 -1.61172 0
M  V30 2878 H 276.178 3.62725 0.852143 0
M  V30 2879 H 276.291 4.74462 -0.665021 0
M  V30 2880 H 274.655 2.53395 -0.257458 0
M  V30 2881 H 275.438 2.86165 -1.89643 0
M  V30 2882 N 277.883 0.443576 1.51229 0
M  V30 2883 C 278.793 -0.370721 2.31652 0
M  V30 2884 C 279.809 -1.02186 1.40833 0
M  V30 2885 O 280.985 -1.01586 1.73903 0
M  V30 2886 C 278.05 -1.45376 3.14749 0
M  V30 2887 C 277.111 -0.822099 4.21355 0
M  V30 2888 C 276.344 -1.85353 5.0048 0
M  V30 2889 O 276.567 -3.07656 4.80316 0
M  V30 2890 O 275.501 -1.4406 5.84406 0
M  V30 2891 H 279.327 0.286002 3.0235 0
M  V30 2892 H 276.912 0.20598 1.47973 0
M  V30 2893 H 278.794 -2.08173 3.66391 0
M  V30 2894 H 277.469 -2.09445 2.46809 0
M  V30 2895 H 276.376 -0.155909 3.73775 0
M  V30 2896 H 277.709 -0.224797 4.91686 0
M  V30 2897 N 279.361 -1.56624 0.175154 0
M  V30 2898 C 280.308 -2.18149 -0.753634 0
M  V30 2899 C 281.278 -1.12265 -1.22417 0
M  V30 2900 O 282.463 -1.40432 -1.29165 0
M  V30 2901 C 279.603 -2.82933 -1.97592 0
M  V30 2902 C 278.716 -4.03289 -1.5486 0
M  V30 2903 C 277.851 -4.55988 -2.72485 0
M  V30 2904 C 276.89 -5.68746 -2.26262 0
M  V30 2905 N 276.027 -6.15938 -3.36994 0
M  V30 2906 H 280.867 -2.9717 -0.222195 0
M  V30 2907 H 278.404 -1.46774 -0.0979422 0
M  V30 2908 H 280.362 -3.18653 -2.69288 0
M  V30 2909 H 278.992 -2.06509 -2.481 0
M  V30 2910 H 278.044 -3.73364 -0.728246 0
M  V30 2911 H 279.356 -4.849 -1.16933 0
M  V30 2912 H 278.51 -4.9391 -3.52332 0
M  V30 2913 H 277.249 -3.73443 -3.13674 0
M  V30 2914 H 276.254 -5.30372 -1.44863 0
M  V30 2915 H 277.479 -6.53095 -1.86127 0
M  V30 2916 H 275.425 -5.36321 -3.77751 0
M  V30 2917 H 275.342 -6.92548 -3.03172 0
M  V30 2918 H 276.61 -6.58511 -4.17114 0
M  V30 2919 N 280.839 0.0985539 -1.57292 0
M  V30 2920 C 281.771 1.14595 -1.98496 0
M  V30 2921 C 282.784 1.36512 -0.887031 0
M  V30 2922 O 283.973 1.35225 -1.16518 0
M  V30 2923 C 281.073 2.50216 -2.28572 0
M  V30 2924 C 280.246 2.48624 -3.59868 0
M  V30 2925 C 279.305 3.66146 -3.7792 0
M  V30 2926 O 278.331 3.48795 -4.49812 0
M  V30 2927 N 279.533 4.85496 -3.18235 0
M  V30 2928 H 282.298 0.795277 -2.88956 0
M  V30 2929 H 279.859 0.287579 -1.59325 0
M  V30 2930 H 281.851 3.27432 -2.37845 0
M  V30 2931 H 280.421 2.77387 -1.44136 0
M  V30 2932 H 279.641 1.56978 -3.61596 0
M  V30 2933 H 280.929 2.44635 -4.46129 0
M  V30 2934 H 280.327 5.02497 -2.59833 0
M  V30 2935 H 278.884 5.60317 -3.32999 0
M  V30 2936 N 282.317 1.53212 0.369288 0
M  V30 2937 C 283.566 1.68436 1.10961 0
M  V30 2938 C 283.879 0.440738 1.9057 0
M  V30 2939 O 285.085 0.473446 2.6734 0
M  V30 2940 C 283.541 2.97744 2.0218 0
M  V30 2941 C 283.149 4.29355 1.279 0
M  V30 2942 C 284.893 3.22334 2.76226 0
M  V30 2943 C 282.8 5.49755 2.17999 0
M  V30 2944 H 281.73 0.627568 0.41794 0
M  V30 2945 H 284.381 1.79713 0.370884 0
M  V30 2946 H 282.763 2.8026 2.79768 0
M  V30 2947 H 283.937 4.57458 0.554007 0
M  V30 2948 H 282.252 4.11179 0.657311 0
M  V30 2949 H 284.849 4.09471 3.43857 0
M  V30 2950 H 285.192 2.38238 3.41392 0
M  V30 2951 H 285.725 3.40475 2.05723 0
M  V30 2952 H 282.464 6.36318 1.57417 0
M  V30 2953 H 281.984 5.25937 2.88359 0
M  V30 2954 H 283.663 5.84401 2.77641 0
M  V30 2955 N 283.795 -0.628877 1.44509 0
M  V30 2956 C 285.025 -1.41349 1.50678 0
M  V30 2957 C 285.433 -1.88745 0.131075 0
M  V30 2958 O 284.776 -1.61592 -0.87371 0
M  V30 2959 C 284.838 -2.66608 2.41165 0
M  V30 2960 C 284.502 -2.40993 3.88293 0
M  V30 2961 C 285.499 -2.0268 4.78766 0
M  V30 2962 C 283.184 -2.54563 4.33016 0
M  V30 2963 C 285.178 -1.78269 6.11963 0
M  V30 2964 C 282.865 -2.29766 5.6626 0
M  V30 2965 C 283.863 -1.91678 6.55552 0
M  V30 2966 O 283.551 -1.67158 7.86329 0
M  V30 2967 H 283.283 -0.439851 0.51333 0
M  V30 2968 H 285.837 -0.776084 1.90174 0
M  V30 2969 H 284.067 -3.32994 1.96601 0
M  V30 2970 H 285.756 -3.28615 2.38259 0
M  V30 2971 H 286.522 -1.91751 4.45485 0
M  V30 2972 H 282.401 -2.83179 3.63773 0
M  V30 2973 H 285.945 -1.48465 6.81619 0
M  V30 2974 H 281.842 -2.40306 5.99102 0
M  V30 2975 H 282.61 -1.81386 7.98149 0
M  V30 2976 N 285.273 -1.31445 -0.869486 0
M  V30 2977 C 286.205 -1.14955 -1.98287 0
M  V30 2978 C 287.218 -0.0885037 -1.62559 0
M  V30 2979 O 288.407 -0.336044 -1.75308 0
M  V30 2980 C 285.507 -0.734255 -3.3085 0
M  V30 2981 C 284.68 -1.88042 -3.94917 0
M  V30 2982 C 283.739 -1.4511 -5.05796 0
M  V30 2983 O 282.765 -2.16082 -5.2659 0
M  V30 2984 N 283.967 -0.338763 -5.79511 0
M  V30 2985 H 286.732 -2.10856 -2.12979 0
M  V30 2986 H 284.293 -1.23786 -1.04349 0
M  V30 2987 H 286.285 -0.42975 -4.02412 0
M  V30 2988 H 284.855 0.133158 -3.12316 0
M  V30 2989 H 284.075 -2.35222 -3.1633 0
M  V30 2990 H 285.363 -2.6481 -4.34457 0
M  V30 2991 H 284.761 0.252274 -5.65137 0
M  V30 2992 H 283.318 -0.0937925 -6.51733 0
M  V30 2993 N 286.751 1.08385 -1.14413 0
M  V30 2994 C 287.997 1.81044 -0.913834 0
M  V30 2995 C 288.33 1.86004 0.558209 0
M  V30 2996 O 287.605 1.33606 1.4135 0
M  V30 2997 C 287.888 3.26648 -1.51569 0
M  V30 2998 C 287.741 3.29895 -3.0576 0
M  V30 2999 C 289.06 4.23629 -1.19273 0
M  V30 3000 H 286.179 0.65727 -0.333414 0
M  V30 3001 H 288.821 1.26896 -1.41412 0
M  V30 3002 H 286.971 3.72889 -1.09023 0
M  V30 3003 H 288.643 2.91977 -3.57137 0
M  V30 3004 H 286.886 2.69163 -3.40197 0
M  V30 3005 H 287.557 4.32516 -3.42977 0
M  V30 3006 H 290.033 3.85727 -1.56057 0
M  V30 3007 H 288.909 5.23822 -1.64017 0
M  V30 3008 H 289.17 4.41968 -0.108068 0
M  V30 3009 N 288.23 0.939286 1.26551 0
M  V30 3010 C 289.641 0.628782 1.75793 0
M  V30 3011 C 289.992 -0.856046 1.7654 0
M  V30 3012 O 289.117 -1.66994 1.3763 0
M  V30 3013 C 289.712 1.13465 3.19235 0
M  V30 3014 C 288.271 0.874601 3.66098 0
M  V30 3015 C 287.418 1.28667 2.45642 0
M  V30 3016 H 290.369 1.1178 1.12654 0
M  V30 3017 H 290.39 0.487609 3.77363 0
M  V30 3018 H 289.902 2.21535 3.1866 0
M  V30 3019 H 288.003 -0.191793 3.72106 0
M  V30 3020 H 288.116 1.50028 4.55004 0
M  V30 3021 H 286.48 0.705109 2.44745 0
M  V30 3022 H 287.263 2.37625 2.47769 0
M  V30 3023 N 289.708 -1.40897 0.706093 0
M  V30 3024 C 290.936 -2.05373 0.250887 0
M  V30 3025 C 291.351 -1.53172 -1.10381 0
M  V30 3026 O 290.708 -0.684305 -1.69185 0
M  V30 3027 C 290.759 -3.6088 0.211571 0
M  V30 3028 O 290.48 -4.11153 1.51276 0
M  V30 3029 C 291.981 -4.42517 -0.263346 0
M  V30 3030 H 289.201 -0.66115 0.114552 0
M  V30 3031 H 291.745 -1.80479 0.961635 0
M  V30 3032 H 289.9 -3.84777 -0.450073 0
M  V30 3033 H 290.314 -5.05279 1.40689 0
M  V30 3034 H 291.788 -5.51479 -0.239718 0
M  V30 3035 H 292.265 -4.19396 -1.30397 0
M  V30 3036 H 292.871 -4.23708 0.367677 0
M  V30 3037 N 291.186 -0.45159 -1.50991 0
M  V30 3038 C 292.133 0.352625 -2.2809 0
M  V30 3039 C 293.103 1.0044 -1.32291 0
M  V30 3040 O 294.288 1.02058 -1.6121 0
M  V30 3041 C 291.428 1.43983 -3.13629 0
M  V30 3042 C 290.541 0.804772 -4.24438 0
M  V30 3043 C 289.676 1.86822 -4.97263 0
M  V30 3044 C 288.715 1.21236 -5.99973 0
M  V30 3045 N 287.852 2.2178 -6.66152 0
M  V30 3046 H 292.692 -0.311186 -2.96371 0
M  V30 3047 H 290.229 -0.165308 -1.46168 0
M  V30 3048 H 292.187 2.08161 -3.61559 0
M  V30 3049 H 290.817 2.07307 -2.47434 0
M  V30 3050 H 289.869 0.0509129 -3.80366 0
M  V30 3051 H 291.181 0.286076 -4.97979 0
M  V30 3052 H 290.335 2.58628 -5.48813 0
M  V30 3053 H 289.074 2.42068 -4.23385 0
M  V30 3054 H 288.079 0.479828 -5.47702 0
M  V30 3055 H 289.304 0.667051 -6.75816 0
M  V30 3056 H 287.25 2.76079 -5.95077 0
M  V30 3057 H 287.167 1.74841 -7.35504 0
M  V30 3058 H 288.435 2.93026 -7.22327 0
M  V30 3059 N 292.664 1.56529 -0.183458 0
M  V30 3060 C 293.889 2.02064 0.467428 0
M  V30 3061 C 294.314 1.06282 1.55196 0
M  V30 3062 O 293.672 0.0443565 1.81246 0
M  V30 3063 C 293.72 3.46122 1.01153 0
M  V30 3064 O 292.824 3.53437 2.12499 0
M  V30 3065 H 292.165 0.654726 0.110588 0
M  V30 3066 H 294.695 2.02521 -0.290917 0
M  V30 3067 H 294.705 3.85676 1.33108 0
M  V30 3068 H 293.38 4.15331 0.217533 0
M  V30 3069 H 291.957 3.2575 1.81497 0
M  V30 3070 N 294.142 -0.090211 1.57342 0
M  V30 3071 C 295.09 -1.12792 2.03422 0
M  V30 3072 C 296.084 -1.41182 0.936166 0
M  V30 3073 O 297.29 -1.40805 1.12133 0
M  V30 3074 H 293.665 -0.380986 0.648347 0
M  V30 3075 H 295.636 -0.71299 2.89757 0
M  V30 3076 C 294.385 -2.43855 2.47851 0
M  V30 3077 H 293.708 -2.22855 3.31927 0
M  V30 3078 H 295.148 -3.14955 2.83865 0
M  V30 3079 C 293.607 -3.08503 1.3538 0
M  V30 3080 O 294.137 -3.95805 0.685641 0
M  V30 3081 N 292.343 -2.68831 1.10355 0
M  V30 3082 H 291.89 -1.97929 1.64869 0
M  V30 3083 H 291.848 -3.12412 0.353031 0
M  V30 3084 N 295.62 -1.53406 -0.361157 0
M  V30 3085 C 296.897 -1.60411 -1.11927 0
M  V30 3086 C 297.277 -0.414385 -2.06993 0
M  V30 3087 O 296.625 0.594976 -2.20618 0
M  V30 3088 C 296.835 -2.95652 -1.85448 0
M  V30 3089 C 298.183 -3.50386 -2.39823 0
M  V30 3090 O 299.207 -2.97711 -1.95568 0
M  V30 3091 O 298.066 -4.42482 -3.20737 0
M  V30 3092 H 295.16 -0.64811 -0.513695 0
M  V30 3093 H 297.706 -1.65749 -0.364065 0
M  V30 3094 H 296.478 -3.73682 -1.16091 0
M  V30 3095 H 296.101 -2.93825 -2.67866 0
M  V30 3096 N 297.098 0.621204 -1.44841 0
M  V30 3097 C 298.347 1.37658 -1.47422 0
M  V30 3098 C 298.66 1.95264 -0.114629 0
M  V30 3099 O 299.866 2.71494 -0.0180199 0
M  V30 3100 C 298.322 2.49285 -2.59586 0
M  V30 3101 C 297.93 1.98149 -4.01797 0
M  V30 3102 C 299.674 3.26409 -2.71399 0
M  V30 3103 C 297.581 3.07178 -5.05367 0
M  V30 3104 H 296.511 0.517344 -0.548517 0
M  V30 3105 H 299.162 0.667257 -1.70938 0
M  V30 3106 H 297.544 3.22839 -2.29328 0
M  V30 3107 H 298.718 1.31395 -4.41669 0
M  V30 3108 H 297.033 1.33812 -3.94314 0
M  V30 3109 H 299.63 4.07706 -3.45948 0
M  V30 3110 H 299.973 3.76535 -1.77559 0
M  V30 3111 H 300.506 2.5995 -3.01116 0
M  V30 3112 H 297.245 2.61985 -6.00869 0
M  V30 3113 H 296.765 3.72542 -4.70077 0
M  V30 3114 H 298.444 3.71789 -5.29511 0
M  V30 3115 N 298.576 1.31904 0.862503 0
M  V30 3116 C 299.987 1.19803 1.43193 0
M  V30 3117 C 300.338 -0.192567 1.95253 0
M  V30 3118 O 299.463 -1.09081 1.86896 0
M  V30 3119 C 300.058 2.16883 2.60283 0
M  V30 3120 C 298.617 2.08692 3.13248 0
M  V30 3121 C 297.764 2.05691 1.85975 0
M  V30 3122 H 300.715 1.43846 0.670365 0
M  V30 3123 H 300.736 1.76278 3.37204 0
M  V30 3124 H 300.248 3.18083 2.22363 0
M  V30 3125 H 298.349 1.10713 3.55771 0
M  V30 3126 H 298.462 2.9815 3.75025 0
M  V30 3127 H 296.826 1.50814 2.05249 0
M  V30 3128 H 297.609 3.08659 1.50282 0
M  V30 3129 N 300.054 -1.07777 1.14986 0
M  V30 3130 C 301.302 -1.79934 0.920235 0
M  V30 3131 C 301.623 -1.86955 -0.554336 0
M  V30 3132 O 300.893 -1.36731 -1.40291 0
M  V30 3133 H 299.473 -0.666424 0.337473 0
M  V30 3134 H 302.135 -1.3027 1.44968 0
M  V30 3135 H 301.231 -2.82539 1.32583 0
M  V30 3136 N 301.532 -0.945985 -1.26051 0
M  V30 3137 C 302.495 -0.463897 -2.24456 0
M  V30 3138 C 303.495 0.427655 -1.55009 0
M  V30 3139 O 304.685 0.226157 -1.72726 0
M  V30 3140 C 301.817 0.330812 -3.39291 0
M  V30 3141 H 303.01 -1.33357 -2.68619 0
M  V30 3142 H 300.563 -0.728416 -1.38289 0
M  V30 3143 H 301.298 1.21852 -3.00537 0
M  V30 3144 H 301.083 -0.308679 -3.90883 0
M  V30 3145 H 302.573 0.657865 -4.12386 0
M  V30 3146 N 303.011 1.40521 -0.713556 0
M  V30 3147 C 304.258 2.00923 -0.25219 0
M  V30 3148 C 304.586 1.56571 1.15395 0
M  V30 3149 O 303.841 0.775874 1.79663 0
M  V30 3150 C 304.14 3.56317 -0.278 0
M  V30 3151 C 303.806 4.20246 -1.63415 0
M  V30 3152 C 302.468 4.37422 -2.00538 0
M  V30 3153 C 304.82 4.55923 -2.52554 0
M  V30 3154 C 302.148 4.87558 -3.2635 0
M  V30 3155 C 304.5 5.07458 -3.77716 0
M  V30 3156 C 303.164 5.22843 -4.14959 0
M  V30 3157 H 302.434 0.735231 -0.0922829 0
M  V30 3158 H 305.081 1.68161 -0.916188 0
M  V30 3159 H 303.386 3.88976 0.469567 0
M  V30 3160 H 305.083 4.00883 0.0967819 0
M  V30 3161 H 301.673 4.07263 -1.33546 0
M  V30 3162 H 305.857 4.42291 -2.25149 0
M  V30 3163 H 301.113 4.97654 -3.55176 0
M  V30 3164 H 305.287 5.34041 -4.4696 0
M  V30 3165 H 302.914 5.61454 -5.12516 0
M  V30 3166 N 304.489 0.459591 1.5075 0
M  V30 3167 C 305.766 -0.160371 1.94941 0
M  V30 3168 C 306.146 -1.58048 1.39943 0
M  V30 3169 O 305.494 -2.206 0.595629 0
M  V30 3170 C 305.704 -0.115432 3.48809 0
M  V30 3171 C 307.052 -0.310026 4.23467 0
M  V30 3172 O 308.076 -0.192543 3.55679 0
M  V30 3173 O 306.935 -0.546031 5.43765 0
M  V30 3174 H 304.029 -0.117925 0.818549 0
M  V30 3175 H 306.575 0.519169 1.61563 0
M  V30 3176 H 305.347 0.87652 3.81357 0
M  V30 3177 H 304.97 -0.836928 3.88692 0
M  V30 3178 N 305.967 -1.56429 0.191757 0
M  V30 3179 C 306.93 -2.17707 -0.716688 0
M  V30 3180 C 307.93 -1.13061 -1.14341 0
M  V30 3181 O 309.12 -1.38464 -1.05704 0
M  V30 3182 C 306.252 -2.77644 -1.97804 0
M  V30 3183 H 307.445 -2.99342 -0.1829 0
M  V30 3184 H 304.998 -1.56193 -0.0578566 0
M  V30 3185 H 305.733 -1.99799 -2.55443 0
M  V30 3186 H 305.518 -3.54246 -1.68083 0
M  V30 3187 H 307.008 -3.24708 -2.62592 0
M  V30 3188 N 307.445 0.0818655 -1.57387 0
M  V30 3189 C 308.408 1.08265 -2.02018 0
M  V30 3190 C 309.408 1.32183 -0.915664 0
M  V30 3191 O 310.598 1.28073 -1.18081 0
M  V30 3192 C 307.73 2.42871 -2.39221 0
M  V30 3193 H 308.923 0.698204 -2.91659 0
M  V30 3194 H 306.476 0.327303 -1.52835 0
M  V30 3195 H 307.211 2.86167 -1.52575 0
M  V30 3196 H 306.996 2.26855 -3.19811 0
M  V30 3197 H 308.486 3.14826 -2.74362 0
M  V30 3198 N 308.923 1.53595 0.353017 0
M  V30 3199 C 309.871 1.81605 1.45335 0
M  V30 3200 C 310.865 0.685923 1.54892 0
M  V30 3201 O 312.071 0.869095 1.57628 0
M  V30 3202 H 308.446 0.575204 0.484401 0
M  V30 3203 H 310.417 2.73679 1.18921 0
M  V30 3204 C 309.166 2.03406 2.81995 0
M  V30 3205 H 308.489 2.89814 2.75405 0
M  V30 3206 H 309.929 2.26975 3.58132 0
M  V30 3207 C 308.388 0.816794 3.26849 0
M  V30 3208 O 308.918 0.0115856 4.01698 0
M  V30 3209 N 307.124 0.636682 2.8354 0
M  V30 3210 H 306.671 1.2931 2.22793 0
M  V30 3211 H 306.629 -0.176336 3.13905 0
M  V30 3212 N 310.401 -0.613514 1.45168 0
M  V30 3213 C 311.626 -1.40437 1.52618 0
M  V30 3214 C 312.051 -1.87438 0.157707 0
M  V30 3215 O 311.409 -1.59791 -0.856537 0
M  V30 3216 C 311.457 -2.58894 2.51011 0
M  V30 3217 O 310.561 -3.59326 2.02382 0
M  V30 3218 H 309.902 -0.419506 0.514695 0
M  V30 3219 H 312.432 -0.747215 1.90467 0
M  V30 3220 H 312.442 -3.06214 2.69624 0
M  V30 3221 H 311.117 -2.24032 3.50403 0
M  V30 3222 H 309.694 -3.18695 1.93618 0
M  V30 3223 N 311.879 -1.3236 -0.855495 0
M  V30 3224 C 312.812 -1.15559 -1.96777 0
M  V30 3225 C 313.79 -0.0552681 -1.62506 0
M  V30 3226 O 314.974 -0.214419 -1.87277 0
M  V30 3227 C 312.101 -0.768851 -3.29858 0
M  V30 3228 C 311.147 -1.87429 -3.83109 0
M  V30 3229 S 311.98 -3.48243 -4.06801 0
M  V30 3230 C 313.136 -3.11539 -5.42858 0
M  V30 3231 H 313.369 -2.09717 -2.10727 0
M  V30 3232 H 310.902 -1.17011 -1.00737 0
M  V30 3233 H 312.86 -0.55248 -4.06765 0
M  V30 3234 H 311.521 0.153857 -3.13723 0
M  V30 3235 H 310.714 -1.55667 -4.79358 0
M  V30 3236 H 310.316 -2.04647 -3.13042 0
M  V30 3237 H 312.608 -2.61331 -6.2507 0
M  V30 3238 H 313.551 -4.06806 -5.79582 0
M  V30 3239 H 313.959 -2.48582 -5.06821 0
M  V30 3240 N 313.357 1.07166 -1.15556 0
M  V30 3241 C 314.287 2.16403 -0.877046 0
M  V30 3242 C 315.268 1.69217 0.173111 0
M  V30 3243 O 316.453 1.94181 0.027084 0
M  V30 3244 C 313.583 3.45349 -0.367632 0
M  V30 3245 C 312.537 4.05995 -1.35468 0
M  V30 3246 C 311.863 5.30045 -0.704038 0
M  V30 3247 C 313.163 4.45804 -2.72132 0
M  V30 3248 H 314.857 2.39959 -1.79053 0
M  V30 3249 H 312.403 1.15325 -0.862331 0
M  V30 3250 H 314.356 4.21095 -0.160317 0
M  V30 3251 H 313.08 3.21385 0.581326 0
M  V30 3252 H 311.739 3.32296 -1.54839 0
M  V30 3253 H 311.387 5.02373 0.251128 0
M  V30 3254 H 311.087 5.71579 -1.36277 0
M  V30 3255 H 312.611 6.08495 -0.50654 0
M  V30 3256 H 314.025 5.12671 -2.56595 0
M  V30 3257 H 312.422 4.98296 -3.34397 0
M  V30 3258 H 313.492 3.57083 -3.28054 0
M  V30 3259 N 314.835 0.952656 1.25548 0
M  V30 3260 C 316.081 0.607272 1.93494 0
M  V30 3261 C 316.414 -0.853245 1.74452 0
M  V30 3262 O 315.689 -1.61194 1.08843 0
M  V30 3263 C 315.972 0.96435 3.46947 0
M  V30 3264 C 315.825 2.48045 3.75225 0
M  V30 3265 C 317.144 0.487987 4.37386 0
M  V30 3266 H 314.263 0.222096 0.702739 0
M  V30 3267 H 316.905 1.18895 1.48203 0
M  V30 3268 H 315.055 0.469361 3.85654 0
M  V30 3269 H 316.727 3.04905 3.46166 0
M  V30 3270 H 314.97 2.919 3.209 0
M  V30 3271 H 315.641 2.6808 4.82532 0
M  V30 3272 H 318.117 0.912558 4.0597 0
M  V30 3273 H 316.993 0.766547 5.43521 0
M  V30 3274 H 317.254 -0.612063 4.37843 0
M  V30 3275 N 316.313 -1.40141 0.720998 0
M  V30 3276 C 317.245 -2.29177 0.0324669 0
M  V30 3277 C 318.258 -1.46105 -0.718126 0
M  V30 3278 O 319.447 -1.69335 -0.564608 0
M  V30 3279 C 316.547 -3.24473 -0.978292 0
M  V30 3280 C 315.72 -4.36423 -0.292115 0
M  V30 3281 C 314.779 -5.12122 -1.20901 0
M  V30 3282 O 313.805 -5.64981 -0.691766 0
M  V30 3283 N 315.007 -5.21992 -2.53978 0
M  V30 3284 H 317.772 -2.88909 0.796984 0
M  V30 3285 H 315.333 -1.51569 0.569068 0
M  V30 3286 H 317.325 -3.71987 -1.59398 0
M  V30 3287 H 315.895 -2.65871 -1.64413 0
M  V30 3288 H 315.115 -3.90967 0.503847 0
M  V30 3289 H 316.403 -5.08467 0.183971 0
M  V30 3290 H 315.801 -4.8054 -2.98493 0
M  V30 3291 H 314.358 -5.72995 -3.10677 0
M  V30 3292 N 317.792 -0.46758 -1.50504 0
M  V30 3293 C 318.742 0.34698 -2.25344 0
M  V30 3294 C 319.726 0.964469 -1.2879 0
M  V30 3295 O 320.918 0.8776 -1.53711 0
M  V30 3296 C 318.047 1.43042 -3.1208 0
M  V30 3297 C 317.133 0.82084 -4.16081 0
M  V30 3298 N 317.524 -0.0567602 -5.05768 0
M  V30 3299 C 315.822 1.08517 -4.32597 0
M  V30 3300 C 316.523 -0.402343 -5.80307 0
M  V30 3301 N 315.499 0.221607 -5.43148 0
M  V30 3302 H 319.301 -0.329129 -2.92051 0
M  V30 3303 H 316.815 -0.281508 -1.59942 0
M  V30 3304 H 318.812 2.02712 -3.64299 0
M  V30 3305 H 317.472 2.10856 -2.46921 0
M  V30 3306 H 318.483 -0.425349 -5.1615 0
M  V30 3307 H 315.16 1.75855 -3.78657 0
M  V30 3308 H 316.55 -1.11834 -6.62528 0
M  V30 3309 N 319.27 1.56325 -0.20005 0
M  V30 3310 C 320.681 1.8408 0.31167 0
M  V30 3311 C 321.032 1.12087 1.61031 0
M  V30 3312 O 320.157 0.38332 2.12978 0
M  V30 3313 C 320.752 3.33932 0.57226 0
M  V30 3314 C 319.311 3.6208 1.02834 0
M  V30 3315 C 318.458 2.77186 0.079634 0
M  V30 3316 H 321.409 1.52939 -0.423729 0
M  V30 3317 H 321.43 3.52971 1.42096 0
M  V30 3318 H 320.942 3.86303 -0.37308 0
M  V30 3319 H 319.043 3.15147 1.98778 0
M  V30 3320 H 319.156 4.7023 0.917624 0
M  V30 3321 H 317.52 2.47951 0.582448 0
M  V30 3322 H 318.303 3.32347 -0.860238 0
M  V30 3323 N 320.748 -0.0735177 1.57428 0
M  V30 3324 C 321.658 -1.10547 2.06922 0
M  V30 3325 C 322.674 -1.42506 0.998402 0
M  V30 3326 O 323.85 -1.52717 1.31299 0
M  V30 3327 C 320.915 -2.40019 2.50184 0
M  V30 3328 C 319.976 -2.15046 3.71556 0
M  V30 3329 C 319.209 -3.38345 4.12745 0
M  V30 3330 O 319.432 -4.47399 3.53822 0
M  V30 3331 O 318.366 -3.2666 5.05546 0
M  V30 3332 H 322.192 -0.715013 2.95163 0
M  V30 3333 H 319.777 -0.287531 1.46607 0
M  V30 3334 H 321.659 -3.16218 2.78539 0
M  V30 3335 H 320.334 -2.78447 1.65072 0
M  V30 3336 H 319.241 -1.36558 3.48285 0
M  V30 3337 H 320.574 -1.81499 4.57514 0
M  V30 3338 N 322.226 -1.5378 -0.344866 0
M  V30 3339 C 323.472 -1.71216 -1.08687 0
M  V30 3340 C 323.805 -0.473281 -1.88345 0
M  V30 3341 O 323.08 0.52968 -1.87149 0
M  V30 3342 C 323.363 -2.97486 -2.02914 0
M  V30 3343 C 323.216 -4.31579 -1.26727 0
M  V30 3344 C 324.535 -3.19422 -3.0275 0
M  V30 3345 H 321.654 -0.62301 -0.393735 0
M  V30 3346 H 324.296 -1.8645 -0.365563 0
M  V30 3347 H 322.446 -2.84629 -2.64421 0
M  V30 3348 H 324.118 -4.56284 -0.67845 0
M  V30 3349 H 322.361 -4.30049 -0.569273 0
M  V30 3350 H 323.032 -5.16106 -1.95803 0
M  V30 3351 H 325.508 -3.316 -2.51357 0
M  V30 3352 H 324.384 -4.09169 -3.65885 0
M  V30 3353 H 324.645 -2.35656 -3.74057 0
M  V30 3354 N 323.704 0.605807 -1.45491 0
M  V30 3355 C 324.651 1.7164 -1.54299 0
M  V30 3356 C 325.621 1.61486 -0.388761 0
M  V30 3357 O 326.806 1.81039 -0.602445 0
M  V30 3358 C 323.946 3.09953 -1.51734 0
M  V30 3359 C 323.059 3.309 -2.77721 0
M  V30 3360 C 322.194 4.59329 -2.66816 0
M  V30 3361 C 321.233 4.7354 -3.87848 0
M  V30 3362 N 320.37 5.9327 -3.75467 0
M  V30 3363 H 325.21 1.63449 -2.49176 0
M  V30 3364 H 322.747 0.796957 -1.23641 0
M  V30 3365 H 324.705 3.89977 -1.48235 0
M  V30 3366 H 323.335 3.17098 -0.604068 0
M  V30 3367 H 322.387 2.44639 -2.913 0
M  V30 3368 H 323.699 3.37274 -3.67488 0
M  V30 3369 H 322.853 5.4755 -2.61292 0
M  V30 3370 H 321.592 4.55355 -1.74651 0
M  V30 3371 H 320.597 3.83741 -3.93729 0
M  V30 3372 H 321.822 4.79309 -4.81082 0
M  V30 3373 H 319.768 5.90338 -2.86072 0
M  V30 3374 H 319.685 6.00811 -4.5887 0
M  V30 3375 H 320.953 6.83984 -3.73879 0
M  V30 3376 N 325.182 1.32811 0.848464 0
M  V30 3377 C 326.132 1.18842 1.94578 0
M  V30 3378 C 327.116 0.0937517 1.60627 0
M  V30 3379 O 328.308 0.320887 1.74067 0
M  V30 3380 C 325.437 0.91999 3.30743 0
M  V30 3381 C 324.523 2.05665 3.70894 0
M  V30 3382 N 324.914 3.30579 3.8282 0
M  V30 3383 C 323.212 1.9612 4.00566 0
M  V30 3384 C 323.913 4.05067 4.17487 0
M  V30 3385 N 322.889 3.33419 4.2934 0
M  V30 3386 H 326.691 2.13536 2.0194 0
M  V30 3387 H 324.205 1.2468 1.0406 0
M  V30 3388 H 326.202 0.800859 4.09136 0
M  V30 3389 H 324.862 -0.0185076 3.24695 0
M  V30 3390 H 325.873 3.65441 3.66978 0
M  V30 3391 H 322.55 1.09871 4.02784 0
M  V30 3392 H 323.94 5.12815 4.34131 0
M  V30 3393 N 326.66 -1.06551 1.16123 0
M  V30 3394 C 327.906 -1.79719 0.952505 0
M  V30 3395 C 328.261 -1.85396 -0.514385 0
M  V30 3396 O 327.554 -1.33263 -1.37665 0
M  V30 3397 C 327.748 -3.23911 1.51052 0
M  V30 3398 C 327.577 -3.32284 3.03013 0
M  V30 3399 C 326.347 -3.42371 3.71632 0
M  V30 3400 C 328.545 -3.22363 4.00732 0
M  V30 3401 N 326.527 -3.39732 5.11327 0
M  V30 3402 C 327.898 -3.26937 5.26794 0
M  V30 3403 C 329.953 -3.0623 3.92591 0
M  V30 3404 C 328.656 -3.17035 6.45663 0
M  V30 3405 C 330.682 -2.97665 5.11028 0
M  V30 3406 C 330.044 -3.02858 6.35969 0
M  V30 3407 H 326.143 -0.670585 0.402293 0
M  V30 3408 H 328.727 -1.27125 1.4747 0
M  V30 3409 H 326.898 -3.74907 1.01484 0
M  V30 3410 H 328.63 -3.85242 1.2398 0
M  V30 3411 H 325.385 -3.47058 3.22254 0
M  V30 3412 H 325.809 -3.41919 5.84312 0
M  V30 3413 H 330.451 -3.01063 2.96852 0
M  V30 3414 H 328.169 -3.2096 7.41627 0
M  V30 3415 H 331.755 -2.86273 5.06497 0
M  V30 3416 H 330.635 -2.96286 7.26075 0
M  V30 3417 N 328.138 -0.959301 -1.25041 0
M  V30 3418 C 329.068 -0.501388 -2.28053 0
M  V30 3419 C 330.049 0.454673 -1.63911 0
M  V30 3420 O 331.234 0.352618 -1.90972 0
M  V30 3421 C 328.364 0.217224 -3.4662 0
M  V30 3422 C 327.318 -0.654034 -4.22973 0
M  V30 3423 C 326.644 0.195589 -5.34342 0
M  V30 3424 C 327.944 -1.93447 -4.85155 0
M  V30 3425 H 329.638 -1.36238 -2.66608 0
M  V30 3426 H 327.184 -0.656534 -1.28163 0
M  V30 3427 H 329.137 0.548732 -4.17812 0
M  V30 3428 H 327.861 1.1125 -3.07068 0
M  V30 3429 H 326.52 -0.968693 -3.5357 0
M  V30 3430 H 326.168 1.09076 -4.91031 0
M  V30 3431 H 325.868 -0.384091 -5.86343 0
M  V30 3432 H 327.392 0.521958 -6.08365 0
M  V30 3433 H 328.806 -1.66908 -5.48466 0
M  V30 3434 H 327.203 -2.46018 -5.47353 0
M  V30 3435 H 328.273 -2.63466 -4.07079 0
M  V30 3436 N 329.616 1.39756 -0.72842 0
M  V30 3437 C 330.865 1.99879 -0.270407 0
M  V30 3438 C 331.178 1.58449 1.14688 0
M  V30 3439 O 332.384 2.11362 1.70407 0
M  V30 3440 C 330.84 3.57292 -0.43252 0
M  V30 3441 C 330.448 4.07688 -1.85727 0
M  V30 3442 C 332.192 4.24485 -0.0359507 0
M  V30 3443 C 330.099 5.5765 -1.96928 0
M  V30 3444 H 329.029 0.747689 -0.0973472 0
M  V30 3445 H 331.68 1.59837 -0.901355 0
M  V30 3446 H 330.062 3.95097 0.267219 0
M  V30 3447 H 331.236 3.81231 -2.58843 0
M  V30 3448 H 329.551 3.53135 -2.20646 0
M  V30 3449 H 332.148 5.34609 -0.0987484 0
M  V30 3450 H 332.491 4.03915 1.00787 0
M  V30 3451 H 333.024 3.9183 -0.686604 0
M  V30 3452 H 329.763 5.8309 -2.99476 0
M  V30 3453 H 329.283 5.8593 -1.28241 0
M  V30 3454 H 330.962 6.22957 -1.74737 0
M  V30 3455 N 331.094 0.475555 1.50254 0
M  V30 3456 C 332.34 -0.0780073 2.0265 0
M  V30 3457 C 332.673 -1.38968 1.35652 0
M  V30 3458 O 331.948 -1.8839 0.483691 0
M  V30 3459 C 332.231 -0.257161 3.59181 0
M  V30 3460 C 332.084 1.07585 4.36744 0
M  V30 3461 C 333.403 -1.00965 4.28362 0
M  V30 3462 H 330.522 -0.0268758 0.73651 0
M  V30 3463 H 333.164 0.622015 1.7953 0
M  V30 3464 H 331.314 -0.853412 3.79011 0
M  V30 3465 H 332.986 1.70902 4.28474 0
M  V30 3466 H 331.229 1.6714 4.00308 0
M  V30 3467 H 331.9 0.904088 5.44546 0
M  V30 3468 H 334.376 -0.504214 4.13034 0
M  V30 3469 H 333.252 -1.10381 5.37687 0
M  V30 3470 H 333.513 -2.04731 3.91839 0
M  V30 3471 N 332.573 -1.56217 0.208337 0
M  V30 3472 C 333.821 -1.97558 -0.426076 0
M  V30 3473 C 334.142 -1.09683 -1.61229 0
M  V30 3474 O 333.412 -0.170956 -1.95153 0
M  V30 3475 H 331.992 -0.729575 -0.160405 0
M  V30 3476 H 334.654 -1.92606 0.298155 0
M  V30 3477 H 333.75 -3.02672 -0.761312 0
M  V30 3478 N 334.051 0.0651679 -1.57465 0
M  V30 3479 C 334.984 1.10876 -1.99453 0
M  V30 3480 C 335.962 1.37205 -0.872555 0
M  V30 3481 O 337.146 1.50468 -1.13542 0
M  V30 3482 C 334.273 2.45167 -2.3369 0
M  V30 3483 C 333.319 2.3493 -3.55964 0
M  V30 3484 S 334.152 1.73708 -5.06543 0
M  V30 3485 C 335.308 3.09563 -5.43987 0
M  V30 3486 H 335.541 0.750967 -2.87659 0
M  V30 3487 H 333.074 0.273933 -1.51951 0
M  V30 3488 H 335.032 3.22412 -2.54088 0
M  V30 3489 H 333.693 2.78105 -1.46001 0
M  V30 3490 H 332.886 3.3398 -3.77457 0
M  V30 3491 H 332.488 1.65823 -3.3523 0
M  V30 3492 H 334.78 4.05882 -5.42463 0
M  V30 3493 H 335.723 2.92843 -6.44708 0
M  V30 3494 H 336.131 3.10474 -4.71451 0
M  V30 3495 N 335.529 1.53961 0.336706 0
M  V30 3496 C 336.477 1.83136 1.43401 0
M  V30 3497 C 337.471 0.702313 1.54156 0
M  V30 3498 O 338.677 0.885765 1.56698 0
M  V30 3499 H 335.052 0.580309 0.478273 0
M  V30 3500 H 337.023 2.74925 1.16012 0
M  V30 3501 C 335.772 2.06385 2.79822 0
M  V30 3502 H 335.095 2.92718 2.72316 0
M  V30 3503 H 336.535 2.30761 3.55704 0
M  V30 3504 C 334.994 0.851414 3.25964 0
M  V30 3505 O 335.524 0.0541904 4.01663 0
M  V30 3506 N 333.73 0.66672 2.82848 0
M  V30 3507 H 333.277 1.31665 2.21409 0
M  V30 3508 H 333.235 -0.143032 3.14074 0
M  V30 3509 N 337.007 -0.598083 1.45811 0
M  V30 3510 C 338.284 -1.35777 1.40797 0
M  V30 3511 C 338.664 -2.10935 0.083462 0
M  V30 3512 O 338.012 -2.08505 -0.934763 0
M  V30 3513 C 338.222 -2.29666 2.62783 0
M  V30 3514 C 339.57 -2.91977 3.08277 0
M  V30 3515 O 340.594 -2.39984 2.63223 0
M  V30 3516 O 339.453 -3.86376 3.86491 0
M  V30 3517 H 336.547 -0.609291 0.55919 0
M  V30 3518 H 339.093 -0.620379 1.57954 0
M  V30 3519 H 337.865 -1.73454 3.50756 0
M  V30 3520 H 337.488 -3.1077 2.48008 0
M  V30 3521 N 338.485 -1.33259 -0.841409 0
M  V30 3522 C 339.71 -1.2775 -1.63385 0
M  V30 3523 C 340.135 0.149188 -1.87507 0
M  V30 3524 O 339.493 1.10498 -1.43736 0
M  V30 3525 C 339.541 -2.05571 -2.96265 0
M  V30 3526 O 338.645 -1.41257 -3.87453 0
M  V30 3527 H 337.986 -0.439627 -0.497618 0
M  V30 3528 H 340.516 -1.75782 -1.04699 0
M  V30 3529 H 340.526 -2.16241 -3.45982 0
M  V30 3530 H 339.201 -3.09309 -2.7803 0
M  V30 3531 H 337.778 -1.39217 -3.45938 0
M  V30 3532 N 339.963 1.05934 -1.16686 0
M  V30 3533 C 341.191 1.8249 -0.974929 0
M  V30 3534 C 341.606 1.82679 0.476861 0
M  V30 3535 O 340.963 1.2486 1.33103 0
M  V30 3536 C 341.014 3.28943 -1.49929 0
M  V30 3537 O 340.735 3.28886 -2.89423 0
M  V30 3538 C 342.236 4.22215 -1.35089 0
M  V30 3539 H 339.456 0.575295 -0.345365 0
M  V30 3540 H 342 1.33631 -1.548 0
M  V30 3541 H 340.155 3.751 -0.968423 0
M  V30 3542 H 340.569 4.20493 -3.13506 0
M  V30 3543 H 342.043 5.22987 -1.76603 0
M  V30 3544 H 342.52 4.38195 -0.296935 0
M  V30 3545 H 343.126 3.81907 -1.87155 0
M  V30 3546 N 341.441 0.965919 1.2453 0
M  V30 3547 C 342.687 0.62776 1.92839 0
M  V30 3548 C 343.02 -0.834694 1.75347 0
M  V30 3549 O 342.295 -1.60031 1.10546 0
M  V30 3550 C 342.578 1.00109 3.45905 0
M  V30 3551 C 342.431 2.52011 3.72573 0
M  V30 3552 C 343.75 0.53435 4.36844 0
M  V30 3553 H 340.869 0.229537 0.700344 0
M  V30 3554 H 343.511 1.2046 1.46933 0
M  V30 3555 H 341.661 0.510238 3.85135 0
M  V30 3556 H 343.333 3.08559 3.42912 0
M  V30 3557 H 341.576 2.95287 3.17786 0
M  V30 3558 H 342.247 2.73183 4.79661 0
M  V30 3559 H 344.723 0.955565 4.04979 0
M  V30 3560 H 343.599 0.824152 5.42678 0
M  V30 3561 H 343.86 -0.565589 4.38467 0
M  V30 3562 N 342.919 -1.39368 0.735821 0
M  V30 3563 C 343.849 -2.33234 0.111506 0
M  V30 3564 C 344.83 -1.53954 -0.723334 0
M  V30 3565 O 346.015 -1.82344 -0.668147 0
M  V30 3566 C 343.145 -3.38057 -0.795917 0
M  V30 3567 C 342.099 -4.2795 -0.065172 0
M  V30 3568 C 341.425 -5.23479 -1.08967 0
M  V30 3569 C 342.725 -5.10741 1.09273 0
M  V30 3570 H 344.419 -2.85692 0.895571 0
M  V30 3571 H 341.965 -1.37364 0.432109 0
M  V30 3572 H 343.918 -4.02675 -1.24221 0
M  V30 3573 H 342.642 -2.8404 -1.61211 0
M  V30 3574 H 341.301 -3.64813 0.361511 0
M  V30 3575 H 340.949 -4.65758 -1.89944 0
M  V30 3576 H 340.649 -5.84472 -0.605489 0
M  V30 3577 H 342.173 -5.90974 -1.53565 0
M  V30 3578 H 343.587 -5.68699 0.724841 0
M  V30 3579 H 341.984 -5.8088 1.50659 0
M  V30 3580 H 343.054 -4.45525 1.91404 0
M  V30 3581 N 344.397 -0.483516 -1.5 0
M  V30 3582 C 345.645 0.067027 -2.01989 0
M  V30 3583 C 345.966 1.3909 -1.36671 0
M  V30 3584 O 345.236 1.88978 -0.516152 0
M  V30 3585 H 343.816 0.0277606 -0.746484 0
M  V30 3586 H 346.478 -0.636773 -1.84204 0
M  V30 3587 H 345.574 0.209484 -3.11396 0
M  V30 3588 N 345.875 1.56104 -0.216619 0
M  V30 3589 C 347.123 1.97781 0.415593 0
M  V30 3590 C 347.444 1.10536 1.60645 0
M  V30 3591 O 346.714 0.181303 1.95059 0
M  V30 3592 H 345.294 0.730415 0.156534 0
M  V30 3593 H 347.956 1.92445 -0.308366 0
M  V30 3594 H 347.052 3.03072 0.74525 0
M  V30 3595 N 347.353 -0.0568162 1.57498 0
M  V30 3596 C 348.599 -0.75422 1.88253 0
M  V30 3597 C 348.932 -1.76461 0.810865 0
M  V30 3598 O 348.207 -1.93691 -0.177259 0
M  V30 3599 C 348.49 -1.44878 3.2967 0
M  V30 3600 C 348.343 -0.453789 4.47505 0
M  V30 3601 C 349.662 -2.38994 3.69554 0
M  V30 3602 H 346.781 -0.272724 0.684683 0
M  V30 3603 H 349.423 -0.0172113 1.89992 0
M  V30 3604 H 347.573 -2.077 3.28318 0
M  V30 3605 H 349.245 0.170371 4.60985 0
M  V30 3606 H 347.488 0.229552 4.33192 0
M  V30 3607 H 348.159 -0.977699 5.43273 0
M  V30 3608 H 350.635 -1.86239 3.72095 0
M  V30 3609 H 349.511 -2.84587 4.69363 0
M  V30 3610 H 349.772 -3.24461 3.00296 0
M  V30 3611 N 348.832 -1.54138 -0.328536 0
M  V30 3612 C 350.248 -1.44736 -0.672574 0
M  V30 3613 C 350.448 -0.616217 -1.91846 0
M  V30 3614 O 349.504 -0.113067 -2.52247 0
M  V30 3615 C 350.817 -2.884 -0.851217 0
M  V30 3616 C 352.365 -2.98271 -0.948877 0
M  V30 3617 C 352.84 -4.43074 -1.15973 0
M  V30 3618 N 354.331 -4.46665 -1.22658 0
M  V30 3619 C 355.066 -5.55857 -1.40751 0
M  V30 3620 N 354.562 -6.75026 -1.5592 0
M  V30 3621 N 356.355 -5.43495 -1.4342 0
M  V30 3622 H 348.506 -2.06661 0.490421 0
M  V30 3623 H 350.769 -0.934812 0.157579 0
M  V30 3624 H 350.475 -3.51699 -0.00704236 0
M  V30 3625 H 350.349 -3.34225 -1.74853 0
M  V30 3626 H 352.736 -2.35102 -1.78356 0
M  V30 3627 H 352.817 -2.55785 -0.0281435 0
M  V30 3628 H 352.461 -5.06827 -0.329915 0
M  V30 3629 H 352.391 -4.83165 -2.09426 0
M  V30 3630 H 354.882 -3.60797 -1.124 0
M  V30 3631 H 355.195 -7.54004 -1.69404 0
M  V30 3632 H 353.54 -6.77944 -1.53027 0
M  V30 3633 H 356.731 -4.49349 -1.31162 0
M  V30 3634 H 356.904 -6.28649 -1.57178 0
M  V30 3635 N 350.31 0.590341 -1.46126 0
M  V30 3636 C 351.273 1.68194 -1.55703 0
M  V30 3637 C 352.273 1.54808 -0.434868 0
M  V30 3638 O 353.463 1.59564 -0.698928 0
M  V30 3639 C 350.595 3.07575 -1.47005 0
M  V30 3640 H 351.788 1.61064 -2.52979 0
M  V30 3641 H 349.341 0.807541 -1.33823 0
M  V30 3642 H 350.076 3.20268 -0.509785 0
M  V30 3643 H 349.861 3.187 -2.28414 0
M  V30 3644 H 351.351 3.87055 -1.56776 0
M  V30 3645 N 351.788 1.33704 0.83433 0
M  V30 3646 C 353.016 1.28467 1.62185 0
M  V30 3647 C 353.431 -0.143526 1.88254 0
M  V30 3648 O 352.788 -1.08709 1.4659 0
M  V30 3649 C 352.839 2.06174 2.96942 0
M  V30 3650 O 352.56 3.43422 2.72016 0
M  V30 3651 C 354.061 2.08201 3.91366 0
M  V30 3652 H 351.281 0.4424 0.504503 0
M  V30 3653 H 353.825 1.76145 1.03891 0
M  V30 3654 H 351.98 1.62167 3.51825 0
M  V30 3655 H 352.394 3.83453 3.57861 0
M  V30 3656 H 353.868 2.67017 4.83121 0
M  V30 3657 H 354.345 1.07343 4.2588 0
M  V30 3658 H 354.951 2.52246 3.42421 0
M  V30 3659 N 353.266 -1.05314 1.17247 0
M  V30 3660 C 354.176 -2.16538 0.90268 0
M  V30 3661 C 355.192 -1.73523 -0.128707 0
M  V30 3662 O 356.368 -2.01337 0.0502701 0
M  V30 3663 C 353.433 -3.44167 0.418356 0
M  V30 3664 C 352.494 -4.01635 1.51618 0
M  V30 3665 C 351.727 -5.23171 1.05487 0
M  V30 3666 O 351.95 -5.70327 -0.0914715 0
M  V30 3667 O 350.884 -5.72848 1.8474 0
M  V30 3668 H 354.71 -2.42145 1.83302 0
M  V30 3669 H 352.295 -1.15037 0.953246 0
M  V30 3670 H 354.177 -4.21112 0.155726 0
M  V30 3671 H 352.852 -3.20063 -0.48385 0
M  V30 3672 H 351.759 -3.26135 1.83268 0
M  V30 3673 H 353.092 -4.30053 2.39405 0
M  V30 3674 N 354.744 -0.972509 -1.24016 0
M  V30 3675 C 355.992 -0.635776 -1.91839 0
M  V30 3676 C 356.313 0.832312 -1.76345 0
M  V30 3677 O 355.583 1.5946 -1.13795 0
M  V30 3678 H 354.163 -0.232157 -0.710009 0
M  V30 3679 H 356.825 -1.23462 -1.50809 0
M  V30 3680 H 355.921 -0.880545 -2.99421 0
M  V30 3681 N 356.222 1.38976 -0.743202 0
M  V30 3682 C 357.154 2.29096 -0.0689228 0
M  V30 3683 C 358.167 1.47229 0.694791 0
M  V30 3684 O 359.356 1.70212 0.537597 0
M  V30 3685 C 356.456 3.25988 0.926548 0
M  V30 3686 C 355.629 4.36833 0.222647 0
M  V30 3687 C 354.688 5.13981 1.12739 0
M  V30 3688 O 353.714 5.6601 0.601795 0
M  V30 3689 N 354.916 5.25966 2.45641 0
M  V30 3690 H 357.681 2.87604 -0.842846 0
M  V30 3691 H 355.242 1.50645 -0.593109 0
M  V30 3692 H 357.234 3.74476 1.5346 0
M  V30 3693 H 355.804 2.68453 1.60162 0
M  V30 3694 H 355.024 3.90116 -0.565983 0
M  V30 3695 H 356.312 5.0811 -0.264841 0
M  V30 3696 H 355.71 4.85228 2.9081 0
M  V30 3697 H 354.267 5.77865 3.01522 0
M  V30 3698 N 357.7 0.491464 1.49741 0
M  V30 3699 C 358.948 -0.0563141 2.02022 0
M  V30 3700 C 359.269 -1.38363 1.37407 0
M  V30 3701 O 358.539 -1.88702 0.526166 0
M  V30 3702 H 357.119 -0.0238014 0.746621 0
M  V30 3703 H 359.781 0.646533 1.83864 0
M  V30 3704 H 358.877 -0.192967 3.11503 0
M  V30 3705 N 359.178 -1.55987 0.224894 0
M  V30 3706 C 360.425 -1.9839 -0.4059 0
M  V30 3707 C 360.753 -1.11261 -1.59535 0
M  V30 3708 O 360.008 -0.158314 -1.95059 0
M  V30 3709 C 360.307 -3.46394 -0.880106 0
M  V30 3710 C 359.973 -4.5046 0.19918 0
M  V30 3711 C 358.635 -4.7864 0.495661 0
M  V30 3712 C 360.987 -5.12855 0.928939 0
M  V30 3713 C 358.315 -5.66497 1.52636 0
M  V30 3714 C 360.667 -6.01828 1.949 0
M  V30 3715 C 359.331 -6.28351 2.25236 0
M  V30 3716 H 358.601 -0.725961 -0.148529 0
M  V30 3717 H 361.248 -1.88668 0.328113 0
M  V30 3718 H 359.553 -3.53337 -1.69294 0
M  V30 3719 H 361.25 -3.76577 -1.37808 0
M  V30 3720 H 357.84 -4.28579 -0.0420526 0
M  V30 3721 H 362.024 -4.9115 0.713129 0
M  V30 3722 H 357.28 -5.8531 1.76698 0
M  V30 3723 H 361.454 -6.49225 2.51951 0
M  V30 3724 H 359.081 -6.96226 3.05244 0
M  V30 3725 N 360.656 0.0484629 -1.57525 0
M  V30 3726 C 361.603 1.05504 -2.05275 0
M  V30 3727 C 362.573 1.37084 -0.937927 0
M  V30 3728 O 363.758 1.47754 -1.2072 0
M  V30 3729 C 360.898 2.35676 -2.52093 0
M  V30 3730 C 360.011 2.10423 -3.77288 0
M  V30 3731 C 359.146 3.34327 -4.12794 0
M  V30 3732 C 358.185 3.04542 -5.30962 0
M  V30 3733 N 357.322 4.20841 -5.61994 0
M  V30 3734 H 362.162 0.640885 -2.91027 0
M  V30 3735 H 359.699 0.304854 -1.43906 0
M  V30 3736 H 361.657 3.11709 -2.77297 0
M  V30 3737 H 360.287 2.7485 -1.69285 0
M  V30 3738 H 359.339 1.24976 -3.59284 0
M  V30 3739 H 360.651 1.84438 -4.63448 0
M  V30 3740 H 359.805 4.1874 -4.39024 0
M  V30 3741 H 358.544 3.63408 -3.25247 0
M  V30 3742 H 357.549 2.18528 -5.04505 0
M  V30 3743 H 358.774 2.76758 -6.20146 0
M  V30 3744 H 356.72 4.4991 -4.77406 0
M  V30 3745 H 356.637 3.98212 -6.42622 0
M  V30 3746 H 357.905 5.06184 -5.92789 0
M  V30 3747 N 362.134 1.5431 0.320358 0
M  V30 3748 C 363.097 1.83195 1.3774 0
M  V30 3749 C 364.097 0.703906 1.44575 0
M  V30 3750 O 365.287 0.972214 1.44546 0
M  V30 3751 C 362.419 1.99487 2.76438 0
M  V30 3752 H 363.612 2.77642 1.1338 0
M  V30 3753 H 361.165 1.46076 0.556012 0
M  V30 3754 H 361.9 1.07262 3.06048 0
M  V30 3755 H 361.685 2.81575 2.7287 0
M  V30 3756 H 363.175 2.23271 3.52902 0
M  V30 3757 N 363.613 -0.582584 1.46437 0
M  V30 3758 C 364.576 -1.67366 1.56592 0
M  V30 3759 C 365.576 -1.54575 0.443072 0
M  V30 3760 O 366.766 -1.59191 0.707381 0
M  V30 3761 C 363.898 -3.06791 1.48634 0
M  V30 3762 H 365.091 -1.5972 2.5383 0
M  V30 3763 H 362.644 -0.800432 1.34249 0
M  V30 3764 H 363.379 -3.19993 0.526763 0
M  V30 3765 H 363.164 -3.17484 2.30101 0
M  V30 3766 H 364.654 -3.86218 1.58826 0
M  V30 3767 N 365.091 -1.34144 -0.827227 0
M  V30 3768 C 366.368 -1.16844 -1.56865 0
M  V30 3769 C 366.748 0.260654 -2.09485 0
M  V30 3770 O 366.096 1.26138 -1.9053 0
M  V30 3771 C 366.306 -2.21939 -2.6934 0
M  V30 3772 C 367.654 -2.56695 -3.3822 0
M  V30 3773 O 368.678 -2.20695 -2.79593 0
M  V30 3774 O 367.537 -3.18518 -4.44082 0
M  V30 3775 H 364.631 -0.452669 -0.692112 0
M  V30 3776 H 367.177 -1.45763 -0.868973 0
M  V30 3777 H 365.949 -3.17882 -2.28182 0
M  V30 3778 H 365.572 -1.94172 -3.46962 0
M  V30 3779 N 366.569 1.04691 -1.17803 0
M  V30 3780 C 367.818 1.77176 -0.963931 0
M  V30 3781 C 368.131 1.88888 0.508015 0
M  V30 3782 O 369.337 2.58164 0.840465 0
M  V30 3783 C 367.793 3.18518 -1.67555 0
M  V30 3784 C 367.401 3.14919 -3.18637 0
M  V30 3785 C 369.145 3.95424 -1.54402 0
M  V30 3786 C 367.052 4.51081 -3.82466 0
M  V30 3787 H 365.982 0.664116 -0.357023 0
M  V30 3788 H 368.633 1.17303 -1.4111 0
M  V30 3789 H 367.015 3.78748 -1.15613 0
M  V30 3790 H 368.189 2.64178 -3.77554 0
M  V30 3791 H 366.504 2.51512 -3.31859 0
M  V30 3792 H 369.101 4.96106 -1.99456 0
M  V30 3793 H 369.444 4.13343 -0.495329 0
M  V30 3794 H 369.977 3.41754 -2.0359 0
M  V30 3795 H 366.716 4.38368 -4.87354 0
M  V30 3796 H 366.236 5.01951 -3.28337 0
M  V30 3797 H 367.915 5.2001 -3.84965 0
M  V30 3798 N 368.047 0.979072 1.23499 0
M  V30 3799 C 369.296 0.642751 1.91185 0
M  V30 3800 C 369.609 -0.827253 1.77245 0
M  V30 3801 O 370.815 -1.27458 2.39722 0
M  V30 3802 C 369.271 1.09901 3.42709 0
M  V30 3803 C 368.879 2.59327 3.65313 0
M  V30 3804 C 370.623 0.836371 4.16179 0
M  V30 3805 C 368.53 2.98627 5.10467 0
M  V30 3806 H 367.46 0.236698 0.715884 0
M  V30 3807 H 370.111 1.1868 1.39955 0
M  V30 3808 H 368.493 0.48319 3.93041 0
M  V30 3809 H 369.667 3.26136 3.25533 0
M  V30 3810 H 367.982 2.83323 3.05151 0
M  V30 3811 H 370.579 1.10586 5.23139 0
M  V30 3812 H 370.922 -0.227509 4.15678 0
M  V30 3813 H 371.455 1.41371 3.71832 0
M  V30 3814 H 368.194 4.04133 5.16098 0
M  V30 3815 H 367.714 2.3651 5.51201 0
M  V30 3816 H 369.393 2.89159 5.78788 0
M  V30 3817 N 369.525 -1.3858 0.750561 0
M  V30 3818 C 370.773 -1.99789 0.30477 0
M  V30 3819 C 371.094 -1.59874 -1.11649 0
M  V30 3820 O 370.364 -0.85417 -1.76297 0
M  V30 3821 H 368.944 -0.738902 0.109694 0
M  V30 3822 H 371.606 -1.69391 0.963983 0
M  V30 3823 H 370.702 -3.09952 0.365499 0
M  V30 3824 N 371.003 -0.499398 -1.49478 0
M  V30 3825 C 372.252 0.0475259 -2.01644 0
M  V30 3826 C 372.565 1.38195 -1.38425 0
M  V30 3827 O 373.771 2.01547 -1.8191 0
M  V30 3828 C 372.227 0.135164 -3.59646 0
M  V30 3829 C 371.835 -1.19252 -4.31837 0
M  V30 3830 C 373.579 0.632538 -4.19761 0
M  V30 3831 C 371.486 -1.06713 -5.81693 0
M  V30 3832 H 370.416 0.0215349 -0.753692 0
M  V30 3833 H 373.067 -0.638577 -1.7203 0
M  V30 3834 H 371.449 0.885681 -3.85969 0
M  V30 3835 H 372.623 -1.9562 -4.17216 0
M  V30 3836 H 370.938 -1.62321 -3.83459 0
M  V30 3837 H 373.535 0.743833 -5.29501 0
M  V30 3838 H 373.878 1.63098 -3.83021 0
M  V30 3839 H 374.411 -0.0613987 -3.97753 0
M  V30 3840 H 371.15 -2.03979 -6.22955 0
M  V30 3841 H 370.67 -0.344307 -5.98811 0
M  V30 3842 H 372.349 -0.745208 -6.42694 0
M  V30 3843 N 372.481 1.55866 -0.233164 0
M  V30 3844 C 373.729 1.9821 0.394593 0
M  V30 3845 C 374.05 1.12234 1.59463 0
M  V30 3846 O 373.32 0.201981 1.94856 0
M  V30 3847 H 371.9 0.732034 0.148778 0
M  V30 3848 H 374.562 1.92107 -0.32876 0
M  V30 3849 H 373.658 3.03845 0.713063 0
M  V30 3850 N 373.959 -0.0401083 1.57549 0
M  V30 3851 C 375.208 -0.732108 1.87944 0
M  V30 3852 C 375.521 -1.77107 0.830206 0
M  V30 3853 O 376.727 -2.51488 1.02302 0
M  V30 3854 C 375.183 -1.35315 3.33494 0
M  V30 3855 C 374.791 -0.351105 4.46622 0
M  V30 3856 C 376.535 -2.02566 3.73051 0
M  V30 3857 C 374.442 -0.979859 5.83226 0
M  V30 3858 H 373.372 -0.277188 0.701201 0
M  V30 3859 H 376.023 0.0138501 1.83495 0
M  V30 3860 H 374.405 -2.14844 3.32653 0
M  V30 3861 H 375.579 0.416674 4.58912 0
M  V30 3862 H 373.894 0.218708 4.15825 0
M  V30 3863 H 376.491 -2.50441 4.72423 0
M  V30 3864 H 376.834 -2.83904 3.04474 0
M  V30 3865 H 377.367 -1.29827 3.76018 0
M  V30 3866 H 374.106 -0.206135 6.55176 0
M  V30 3867 H 373.626 -1.71774 5.74677 0
M  V30 3868 H 375.305 -1.49046 6.29599 0
M  V30 3869 N 375.437 -1.54477 -0.31217 0
M  V30 3870 C 376.385 -1.85395 -1.40469 0
M  V30 3871 C 377.379 -0.726749 -1.53019 0
M  V30 3872 O 378.585 -0.910582 -1.55269 0
M  V30 3873 H 374.96 -0.587845 -0.46898 0
M  V30 3874 H 376.931 -2.76736 -1.11623 0
M  V30 3875 C 375.68 -2.10811 -2.76503 0
M  V30 3876 H 375.003 -2.97014 -2.67625 0
M  V30 3877 H 376.443 -2.3639 -3.51988 0
M  V30 3878 C 374.902 -0.903165 -3.24568 0
M  V30 3879 O 375.432 -0.118085 -4.01526 0
M  V30 3880 N 373.638 -0.711634 -2.81752 0
M  V30 3881 H 373.185 -1.35171 -2.19286 0
M  V30 3882 H 373.143 0.0930473 -3.14262 0
M  V30 3883 N 376.915 0.57481 -1.46744 0
M  V30 3884 C 378.163 1.33009 -1.52161 0
M  V30 3885 C 378.484 1.94185 -0.178092 0
M  V30 3886 O 377.754 1.7899 0.796196 0
M  V30 3887 H 376.334 0.493873 -0.560445 0
M  V30 3888 H 378.996 0.672589 -1.82927 0
M  V30 3889 H 378.092 2.13273 -2.27862 0
M  V30 3890 N 378.394 1.34581 0.820102 0
M  V30 3891 C 379.64 1.27285 1.57881 0
M  V30 3892 C 379.973 -0.156137 1.93571 0
M  V30 3893 O 379.248 -1.10222 1.60254 0
M  V30 3894 C 379.531 2.16639 2.87645 0
M  V30 3895 C 379.384 3.68088 2.58517 0
M  V30 3896 C 380.703 2.05378 3.8924 0
M  V30 3897 H 377.822 0.463714 0.572833 0
M  V30 3898 H 380.464 1.64859 0.944539 0
M  V30 3899 H 378.614 1.84725 3.41773 0
M  V30 3900 H 380.286 4.10382 2.10676 0
M  V30 3901 H 378.529 3.89038 1.91917 0
M  V30 3902 H 379.2 4.2598 3.51063 0
M  V30 3903 H 381.676 2.33404 3.44473 0
M  V30 3904 H 380.552 2.7012 4.77835 0
M  V30 3905 H 380.813 1.0316 4.29896 0
M  V30 3906 N 379.872 -1.04064 1.18357 0
M  V30 3907 C 381.149 -1.74252 0.888581 0
M  V30 3908 C 381.529 -2.02138 -0.60856 0
M  V30 3909 O 380.877 -1.66656 -1.56327 0
M  V30 3910 C 381.087 -3.0277 1.73584 0
M  V30 3911 C 382.435 -3.76506 1.96286 0
M  V30 3912 O 383.459 -3.12668 1.70637 0
M  V30 3913 O 382.318 -4.91243 2.39464 0
M  V30 3914 H 379.412 -0.758271 0.330082 0
M  V30 3915 H 381.958 -1.1013 1.2911 0
M  V30 3916 H 380.73 -2.78299 2.75073 0
M  V30 3917 H 380.353 -3.74631 1.33183 0
M  V30 3918 N 381.35 -0.985608 -1.22978 0
M  V30 3919 C 382.313 -0.535071 -2.22867 0
M  V30 3920 C 383.313 0.378123 -1.56291 0
M  V30 3921 O 384.503 0.171092 -1.73358 0
M  V30 3922 C 381.635 0.222702 -3.40172 0
M  V30 3923 H 382.828 -1.41835 -2.6424 0
M  V30 3924 H 380.381 -0.772042 -1.35901 0
M  V30 3925 H 381.116 1.12229 -3.04262 0
M  V30 3926 H 380.901 -0.43288 -3.89703 0
M  V30 3927 H 382.391 0.526335 -4.1427 0
M  V30 3928 N 382.828 1.3818 -0.7579 0
M  V30 3929 C 384.074 2.00316 -0.316453 0
M  V30 3930 C 384.407 1.60026 1.10025 0
M  V30 3931 O 383.682 0.839835 1.75434 0
M  V30 3932 C 383.965 3.57349 -0.444245 0
M  V30 3933 C 383.818 4.07591 -1.90236 0
M  V30 3934 C 385.137 4.3981 0.1598 0
M  V30 3935 H 382.256 0.727741 -0.116459 0
M  V30 3936 H 384.898 1.6406 -0.958352 0
M  V30 3937 H 383.048 3.88365 0.102233 0
M  V30 3938 H 384.72 3.87199 -2.50748 0
M  V30 3939 H 382.963 3.60297 -2.41595 0
M  V30 3940 H 383.634 5.16677 -1.94291 0
M  V30 3941 H 386.11 4.14971 -0.306314 0
M  V30 3942 H 384.986 5.48885 0.0401675 0
M  V30 3943 H 385.247 4.24102 1.24859 0
M  V30 3944 N 384.306 0.507319 1.49211 0
M  V30 3945 C 385.531 -0.033725 2.07373 0
M  V30 3946 C 385.956 -1.29485 1.36437 0
M  V30 3947 O 385.314 -1.76294 0.423087 0
M  V30 3948 C 385.362 -0.263945 3.59633 0
M  V30 3949 O 384.466 -1.33737 3.90113 0
M  V30 3950 H 383.807 0.0290331 0.663365 0
M  V30 3951 H 386.337 0.708749 1.91932 0
M  V30 3952 H 386.347 -0.493536 4.05004 0
M  V30 3953 H 385.022 0.657424 4.10671 0
M  V30 3954 H 383.599 -1.09224 3.56545 0
M  V30 3955 N 385.784 -1.5574 0.241426 0
M  V30 3956 C 386.694 -2.2479 -0.671305 0
M  V30 3957 C 387.71 -1.26217 -1.19772 0
M  V30 3958 O 388.886 -1.59079 -1.23514 0
M  V30 3959 C 385.951 -2.92966 -1.85396 0
M  V30 3960 C 385.012 -4.06935 -1.36756 0
M  V30 3961 C 384.245 -4.71851 -2.49384 0
M  V30 3962 O 384.468 -4.35823 -3.67987 0
M  V30 3963 O 383.402 -5.60467 -2.19454 0
M  V30 3964 H 387.228 -3.0349 -0.112966 0
M  V30 3965 H 384.813 -1.49397 0.0101513 0
M  V30 3966 H 386.695 -3.35927 -2.54423 0
M  V30 3967 H 385.37 -2.17211 -2.40002 0
M  V30 3968 H 384.277 -3.68503 -0.644726 0
M  V30 3969 H 385.61 -4.84492 -0.867647 0
M  V30 3970 N 387.262 0.0317525 -1.57568 0
M  V30 3971 C 388.192 1.03274 -2.0942 0
M  V30 3972 C 389.173 1.3788 -0.996143 0
M  V30 3973 O 390.358 1.46811 -1.27122 0
M  V30 3974 C 387.488 2.33448 -2.57137 0
M  V30 3975 C 386.442 2.13091 -3.71182 0
M  V30 3976 C 385.768 3.49001 -4.05095 0
M  V30 3977 C 387.068 1.51928 -4.99715 0
M  V30 3978 H 388.762 0.60112 -2.93303 0
M  V30 3979 H 386.308 0.287705 -1.41097 0
M  V30 3980 H 388.261 3.03802 -2.92032 0
M  V30 3981 H 386.985 2.78665 -1.70333 0
M  V30 3982 H 385.644 1.45171 -3.36632 0
M  V30 3983 H 385.292 3.91862 -3.15362 0
M  V30 3984 H 384.992 3.36207 -4.81911 0
M  V30 3985 H 386.516 4.20721 -4.42522 0
M  V30 3986 H 387.93 2.12196 -5.32584 0
M  V30 3987 H 386.327 1.49716 -5.81124 0
M  V30 3988 H 387.397 0.484811 -4.8247 0
M  V30 3989 N 388.74 1.54641 0.303973 0
M  V30 3990 C 389.965 1.78092 1.06292 0
M  V30 3991 C 390.39 0.537342 1.80262 0
M  V30 3992 O 389.748 -0.511993 1.7392 0
M  V30 3993 C 389.796 2.98612 2.02147 0
M  V30 3994 O 388.9 2.71528 3.10397 0
M  V30 3995 H 388.241 0.589548 0.305497 0
M  V30 3996 H 390.771 2.01716 0.3423 0
M  V30 3997 H 390.781 3.265 2.44667 0
M  V30 3998 H 389.456 3.88785 1.47714 0
M  V30 3999 H 388.033 2.54648 2.72413 0
M  V30 4000 N 390.218 -0.567019 1.47046 0
M  V30 4001 C 391.165 -1.67489 1.58796 0
M  V30 4002 C 392.135 -1.60399 0.43144 0
M  V30 4003 O 393.32 -1.79378 0.650233 0
M  V30 4004 C 390.46 -3.05821 1.59899 0
M  V30 4005 C 389.573 -3.2342 2.86397 0
M  V30 4006 C 388.708 -4.52093 2.789 0
M  V30 4007 C 387.747 -4.6309 4.00267 0
M  V30 4008 N 386.884 -5.83106 3.91064 0
M  V30 4009 H 391.724 -1.56785 2.53422 0
M  V30 4010 H 389.261 -0.763896 1.2571 0
M  V30 4011 H 391.219 -3.8591 1.58522 0
M  V30 4012 H 389.849 -3.15384 0.687929 0
M  V30 4013 H 388.901 -2.3683 2.97684 0
M  V30 4014 H 390.213 -3.27412 3.76301 0
M  V30 4015 H 389.367 -5.4043 2.75718 0
M  V30 4016 H 388.106 -4.50565 1.86662 0
M  V30 4017 H 387.111 -3.73168 4.03765 0
M  V30 4018 H 388.336 -4.66386 4.93621 0
M  V30 4019 H 386.282 -5.82546 3.01623 0
M  V30 4020 H 386.199 -5.88434 4.74638 0
M  V30 4021 H 387.467 -6.73831 3.91882 0
M  V30 4022 N 391.696 -1.35014 -0.812953 0
M  V30 4023 C 392.659 -1.27292 -1.90602 0
M  V30 4024 C 393.659 -0.185817 -1.59723 0
M  V30 4025 O 394.849 -0.439102 -1.68575 0
M  V30 4026 C 391.981 -0.967676 -3.26877 0
M  V30 4027 H 393.174 -2.24479 -1.9887 0
M  V30 4028 H 390.727 -1.19446 -1.00808 0
M  V30 4029 H 391.462 0.0005954 -3.243 0
M  V30 4030 H 391.247 -1.75412 -3.50675 0
M  V30 4031 H 392.737 -0.939085 -4.06904 0
M  V30 4032 N 393.175 1.03435 -1.18907 0
M  V30 4033 C 394.107 2.1165 -0.879595 0
M  V30 4034 C 395.12 1.62316 0.125439 0
M  V30 4035 O 396.309 1.78201 -0.103245 0
M  V30 4036 C 393.409 3.37622 -0.294042 0
M  V30 4037 C 392.582 4.16166 -1.34629 0
M  V30 4038 C 391.641 5.20457 -0.775274 0
M  V30 4039 O 390.667 5.50379 -1.4516 0
M  V30 4040 N 391.869 5.78949 0.424126 0
M  V30 4041 H 394.634 2.38791 -1.81105 0
M  V30 4042 H 392.195 1.19681 -1.09032 0
M  V30 4043 H 394.187 4.04572 0.101679 0
M  V30 4044 H 392.757 3.07873 0.541575 0
M  V30 4045 H 391.977 3.44444 -1.91707 0
M  V30 4046 H 393.265 4.65432 -2.05549 0
M  V30 4047 H 392.663 5.56948 0.991209 0
M  V30 4048 H 391.22 6.47334 0.761691 0
M  V30 4049 N 394.653 0.992116 1.22453 0
M  V30 4050 C 395.616 0.546883 2.2258 0
M  V30 4051 C 396.616 -0.369829 1.56489 0
M  V30 4052 O 397.806 -0.161896 1.73446 0
M  V30 4053 C 394.938 -0.204659 3.40285 0
M  V30 4054 H 396.131 1.43234 2.63484 0
M  V30 4055 H 393.684 0.779239 1.3549 0
M  V30 4056 H 394.419 -1.10614 3.04853 0
M  V30 4057 H 394.204 0.45354 3.89468 0
M  V30 4058 H 395.694 -0.504358 4.14543 0
M  V30 4059 N 396.131 -1.37776 0.765217 0
M  V30 4060 C 397.359 -2.04124 0.337767 0
M  V30 4061 C 397.774 -1.57715 -1.03785 0
M  V30 4062 O 397.131 -0.755447 -1.6613 0
M  V30 4063 C 397.182 -3.59658 0.364442 0
M  V30 4064 O 396.903 -4.04367 1.68579 0
M  V30 4065 C 398.404 -4.43236 -0.0754221 0
M  V30 4066 H 395.624 -0.655696 0.142491 0
M  V30 4067 H 398.168 -1.76238 1.03732 0
M  V30 4068 H 396.323 -3.86339 -0.286471 0
M  V30 4069 H 396.737 -4.98857 1.61993 0
M  V30 4070 H 398.211 -5.52 -0.00560067 0
M  V30 4071 H 398.688 -4.2455 -1.12491 0
M  V30 4072 H 399.294 -4.21767 0.547055 0
M  V30 4073 N 397.609 -0.515225 -1.4894 0
M  V30 4074 C 398.857 0.0241671 -2.02086 0
M  V30 4075 C 399.178 1.3616 -1.3959 0
M  V30 4076 O 398.448 1.87841 -0.556121 0
M  V30 4077 H 397.028 0.0119203 -0.746905 0
M  V30 4078 H 399.69 -0.675702 -1.82812 0
M  V30 4079 H 398.786 0.143385 -3.1177 0
M  V30 4080 N 399.087 1.5561 -0.249682 0
M  V30 4081 C 400.334 1.99011 0.374287 0
M  V30 4082 C 400.662 1.13785 1.57744 0
M  V30 4083 O 399.917 0.189326 1.94782 0
M  V30 4084 C 400.216 3.4775 0.824887 0
M  V30 4085 C 399.882 4.50086 -0.270819 0
M  V30 4086 C 398.544 4.77791 -0.571746 0
M  V30 4087 C 400.896 5.11312 -1.01041 0
M  V30 4088 C 398.224 5.63997 -1.61629 0
M  V30 4089 C 400.576 5.98651 -2.0445 0
M  V30 4090 C 399.24 6.24688 -2.35204 0
M  V30 4091 H 398.51 0.728233 0.136961 0
M  V30 4092 H 401.157 1.88122 -0.358087 0
M  V30 4093 H 399.462 3.55985 1.63651 0
M  V30 4094 H 401.159 3.78721 1.31799 0
M  V30 4095 H 397.749 4.28592 -0.026136 0
M  V30 4096 H 401.933 4.89953 -0.791177 0
M  V30 4097 H 397.189 5.82425 -1.85988 0
M  V30 4098 H 401.363 6.45135 -2.62248 0
M  V30 4099 H 398.99 6.91281 -3.16282 0
M  V30 4100 N 400.565 -0.0233959 1.57583 0
M  V30 4101 C 401.795 -0.723631 1.93513 0
M  V30 4102 C 402.203 -1.69115 0.848333 0
M  V30 4103 O 401.546 -1.82781 -0.183484 0
M  V30 4104 C 401.608 -1.53075 3.25282 0
M  V30 4105 C 401.272 -0.727388 4.51174 0
M  V30 4106 C 402.269 -0.0251924 5.19894 0
M  V30 4107 C 399.954 -0.680256 4.97672 0
M  V30 4108 C 401.948 0.713374 6.33395 0
M  V30 4109 C 399.635 0.0620523 6.11068 0
M  V30 4110 C 400.633 0.757622 6.78785 0
M  V30 4111 O 400.321 1.48787 7.90011 0
M  V30 4112 H 400.053 -0.208051 0.643188 0
M  V30 4113 H 402.607 0.0167489 2.05393 0
M  V30 4114 H 400.837 -2.31508 3.09744 0
M  V30 4115 H 402.526 -2.11413 3.46496 0
M  V30 4116 H 403.292 -0.0526003 4.84971 0
M  V30 4117 H 399.171 -1.21116 4.44805 0
M  V30 4118 H 402.715 1.25683 6.86185 0
M  V30 4119 H 398.612 0.0913634 6.45435 0
M  V30 4120 H 399.38 1.40213 8.06401 0
M  V30 4121 N 402.043 -1.548 -0.295768 0
M  V30 4122 C 403.291 -1.73985 -1.02828 0
M  V30 4123 C 403.612 -0.531406 -1.87619 0
M  V30 4124 O 402.882 0.454221 -1.90561 0
M  V30 4125 H 401.462 -0.641556 -0.382642 0
M  V30 4126 H 404.124 -1.92163 -0.325489 0
M  V30 4127 H 403.22 -2.63129 -1.67838 0
M  V30 4128 N 403.521 0.559213 -1.47345 0
M  V30 4129 C 404.746 1.34676 -1.57725 0
M  V30 4130 C 405.171 1.86723 -0.227164 0
M  V30 4131 O 404.529 1.6286 0.796642 0
M  V30 4132 C 404.577 2.49399 -2.60447 0
M  V30 4133 O 403.681 3.51567 -2.15578 0
M  V30 4134 H 403.022 0.400115 -0.52991 0
M  V30 4135 H 405.552 0.676009 -1.93109 0
M  V30 4136 H 405.562 2.95996 -2.80803 0
M  V30 4137 H 404.237 2.10873 -3.58477 0
M  V30 4138 H 402.814 3.11289 -2.05313 0
M  V30 4139 N 404.999 1.35443 0.805782 0
M  V30 4140 C 405.929 1.31095 1.93226 0
M  V30 4141 C 406.91 0.185244 1.69088 0
M  V30 4142 O 408.095 0.380332 1.90439 0
M  V30 4143 C 405.225 1.08299 3.29983 0
M  V30 4144 C 404.179 2.17519 3.68605 0
M  V30 4145 C 403.505 1.79887 5.03532 0
M  V30 4146 C 404.805 3.5949 3.78898 0
M  V30 4147 H 406.499 2.25352 1.97122 0
M  V30 4148 H 404.045 1.0848 0.946996 0
M  V30 4149 H 405.998 1.03897 4.08391 0
M  V30 4150 H 404.722 0.104885 3.26432 0
M  V30 4151 H 403.381 2.2102 2.92482 0
M  V30 4152 H 403.029 0.80693 4.96485 0
M  V30 4153 H 402.729 2.53001 5.30344 0
M  V30 4154 H 404.253 1.77011 5.84379 0
M  V30 4155 H 405.667 3.58307 4.47536 0
M  V30 4156 H 404.064 4.31371 4.1718 0
M  V30 4157 H 405.134 3.95584 2.80431 0
M  V30 4158 N 406.477 -1.02803 1.19454 0
M  V30 4159 C 407.407 -2.12999 0.956758 0
M  V30 4160 C 408.388 -1.69743 -0.110188 0
M  V30 4161 O 409.573 -1.94148 0.0450038 0
M  V30 4162 C 406.703 -3.43746 0.495553 0
M  V30 4163 C 405.657 -4.00688 1.50443 0
M  V30 4164 C 404.983 -5.27067 0.900275 0
M  V30 4165 C 406.283 -4.35397 2.8849 0
M  V30 4166 H 407.977 -2.33148 1.87836 0
M  V30 4167 H 405.523 -1.12045 0.904539 0
M  V30 4168 H 407.476 -4.2021 0.316493 0
M  V30 4169 H 406.2 -3.23321 -0.461646 0
M  V30 4170 H 404.859 -3.2632 1.67065 0
M  V30 4171 H 404.507 -5.02959 -0.064503 0
M  V30 4172 H 404.207 -5.66127 1.57397 0
M  V30 4173 H 405.731 -6.06196 0.73203 0
M  V30 4174 H 407.145 -5.02795 2.75446 0
M  V30 4175 H 405.542 -4.85541 3.52661 0
M  V30 4176 H 406.612 -3.44662 3.41081 0
M  V30 4177 N 407.956 -0.998596 -1.21925 0
M  V30 4178 C 409.367 -0.711939 -1.72593 0
M  V30 4179 C 409.718 0.770842 -1.80423 0
M  V30 4180 O 408.843 1.60237 -1.4544 0
M  V30 4181 C 409.438 -1.28567 -3.13458 0
M  V30 4182 C 407.997 -1.04828 -3.61508 0
M  V30 4183 C 407.144 -1.4024 -2.39224 0
M  V30 4184 H 410.095 -1.17027 -1.07193 0
M  V30 4185 H 410.116 -0.667098 -3.74607 0
M  V30 4186 H 409.628 -2.36486 -3.07727 0
M  V30 4187 H 407.729 0.0140383 -3.72597 0
M  V30 4188 H 407.842 -1.71566 -4.47328 0
M  V30 4189 H 406.206 -0.821077 -2.41103 0
M  V30 4190 H 406.989 -2.49176 -2.36149 0
M  V30 4191 N 409.434 1.37368 -0.772513 0
M  V30 4192 C 410.659 2.0447 -0.347386 0
M  V30 4193 C 411.084 1.57882 1.0225 0
M  V30 4194 O 410.442 0.73941 1.65537 0
M  V30 4195 C 410.49 3.58369 -0.400479 0
M  V30 4196 O 409.594 4.0803 0.598789 0
M  V30 4197 H 408.935 0.646773 -0.15027 0
M  V30 4198 H 411.465 1.75667 -1.04892 0
M  V30 4199 H 411.475 4.07183 -0.258045 0
M  V30 4200 H 410.15 3.91633 -1.39986 0
M  V30 4201 H 408.727 3.70534 0.419411 0
M  V30 4202 N 410.912 0.523116 1.48665 0
M  V30 4203 C 412.323 0.0808997 1.86525 0
M  V30 4204 C 412.674 -1.33975 1.43336 0
M  V30 4205 O 411.799 -2.00221 0.821009 0
M  V30 4206 C 412.394 0.140037 3.3851 0
M  V30 4207 C 410.953 -0.246948 3.75589 0
M  V30 4208 C 410.1 0.502845 2.72703 0
M  V30 4209 H 413.051 0.734736 1.40667 0
M  V30 4210 H 413.072 -0.649945 3.74908 0
M  V30 4211 H 412.584 1.17412 3.69914 0
M  V30 4212 H 410.685 -1.28343 3.49798 0
M  V30 4213 H 410.798 0.0878859 4.79019 0
M  V30 4214 H 409.162 -0.0500581 2.54651 0
M  V30 4215 H 409.945 1.53743 3.0695 0
M  V30 4216 N 412.39 -1.55475 0.257931 0
M  V30 4217 C 413.667 -1.91155 -0.414629 0
M  V30 4218 C 414.047 -1.18008 -1.75035 0
M  V30 4219 O 413.395 -0.301193 -2.26506 0
M  V30 4220 C 413.605 -3.44283 -0.571859 0
M  V30 4221 C 414.953 -4.15744 -0.862678 0
M  V30 4222 O 415.977 -3.50083 -0.657314 0
M  V30 4223 O 414.836 -5.31909 -1.2544 0
M  V30 4224 H 411.93 -0.796016 -0.22425 0
M  V30 4225 H 414.476 -1.66976 0.302814 0
M  V30 4226 H 413.248 -3.89558 0.368844 0
M  V30 4227 H 412.871 -3.7436 -1.33943 0
M  V30 4228 N 413.868 0.0150385 -1.57593 0
M  V30 4229 C 415.114 0.704043 -1.90187 0
M  V30 4230 C 415.447 1.74249 -0.857366 0
M  V30 4231 O 414.722 1.94092 0.125843 0
M  V30 4232 C 415.005 1.36087 -3.33395 0
M  V30 4233 C 414.858 0.334981 -4.48551 0
M  V30 4234 C 416.177 2.29112 -3.7576 0
M  V30 4235 H 413.296 0.254475 -0.691673 0
M  V30 4236 H 415.938 -0.0331678 -1.89971 0
M  V30 4237 H 414.088 1.98922 -3.3371 0
M  V30 4238 H 415.76 -0.292534 -4.60372 0
M  V30 4239 H 414.003 -0.344325 -4.32431 0
M  V30 4240 H 414.674 0.833316 -5.45674 0
M  V30 4241 H 417.15 1.76308 -3.76902 0
M  V30 4242 H 416.026 2.72043 -4.76743 0
M  V30 4243 H 416.287 3.16385 -3.08793 0
M  V30 4244 N 415.346 1.54954 0.287554 0
M  V30 4245 C 416.296 1.8322 1.357 0
M  V30 4246 C 417.28 0.690152 1.45347 0
M  V30 4247 O 418.472 0.951137 1.49273 0
M  V30 4248 C 415.601 2.09481 2.71979 0
M  V30 4249 C 414.687 3.29906 2.66502 0
M  V30 4250 N 415.078 4.50154 2.30641 0
M  V30 4251 C 413.376 3.32203 2.97585 0
M  V30 4252 C 414.077 5.32209 2.34794 0
M  V30 4253 N 413.053 4.70258 2.72688 0
M  V30 4254 H 416.855 2.73746 1.0696 0
M  V30 4255 H 414.369 1.54635 0.496167 0
M  V30 4256 H 416.366 2.27882 3.49107 0
M  V30 4257 H 415.026 1.2023 3.0162 0
M  V30 4258 H 416.037 4.76515 2.02865 0
M  V30 4259 H 412.714 2.53101 3.32034 0
M  V30 4260 H 414.104 6.38321 2.09753 0
M  V30 4261 N 416.824 -0.551391 1.4764 0
M  V30 4262 C 418.072 -1.30572 1.54258 0
M  V30 4263 C 418.393 -1.93877 0.208963 0
M  V30 4264 O 417.663 -1.80234 -0.767619 0
M  V30 4265 H 416.243 -0.484894 0.568231 0
M  V30 4266 H 418.905 -0.643402 1.83974 0
M  V30 4267 H 418.001 -2.09621 2.31226 0
M  V30 4268 N 418.302 -1.35869 -0.798587 0
M  V30 4269 C 419.532 -1.32529 -1.58491 0
M  V30 4270 C 419.94 0.0975405 -1.88948 0
M  V30 4271 O 419.283 1.06224 -1.49874 0
M  V30 4272 C 419.345 -2.07247 -2.9375 0
M  V30 4273 C 419.009 -3.56391 -2.86068 0
M  V30 4274 C 420.006 -4.50824 -2.58947 0
M  V30 4275 C 417.691 -3.9915 -3.04933 0
M  V30 4276 C 419.685 -5.85993 -2.5078 0
M  V30 4277 C 417.372 -5.34413 -2.96389 0
M  V30 4278 C 418.37 -6.27646 -2.69349 0
M  V30 4279 O 418.058 -7.60426 -2.60782 0
M  V30 4280 H 417.79 -0.456529 -0.498556 0
M  V30 4281 H 420.344 -1.79425 -0.999799 0
M  V30 4282 H 418.574 -1.55001 -3.54276 0
M  V30 4283 H 420.263 -1.96883 -3.54954 0
M  V30 4284 H 421.029 -4.19104 -2.44084 0
M  V30 4285 H 416.908 -3.26961 -3.24989 0
M  V30 4286 H 420.452 -6.58735 -2.29595 0
M  V30 4287 H 416.349 -5.65743 -3.10813 0
M  V30 4288 H 417.117 -7.70444 -2.76331 0
M  V30 4289 N 419.78 1.02168 -1.19998 0
M  V30 4290 C 420.727 2.10601 -0.944228 0
M  V30 4291 C 421.697 1.65639 0.123664 0
M  V30 4292 O 422.882 1.9079 -0.0199941 0
M  V30 4293 C 420.022 3.41504 -0.496865 0
M  V30 4294 C 419.135 3.99973 -1.63234 0
M  V30 4295 C 418.27 5.18915 -1.13579 0
M  V30 4296 C 417.309 5.69456 -2.24468 0
M  V30 4297 N 416.446 6.79665 -1.76068 0
M  V30 4298 H 421.286 2.31814 -1.8726 0
M  V30 4299 H 418.823 1.13686 -0.933483 0
M  V30 4300 H 420.781 4.16626 -0.218843 0
M  V30 4301 H 419.411 3.2038 0.394508 0
M  V30 4302 H 418.463 3.21997 -2.0254 0
M  V30 4303 H 419.775 4.33492 -2.46752 0
M  V30 4304 H 418.929 6.01222 -0.813429 0
M  V30 4305 H 417.668 4.8695 -0.270434 0
M  V30 4306 H 416.673 4.85757 -2.57526 0
M  V30 4307 H 417.898 6.03459 -3.11472 0
M  V30 4308 H 415.844 6.49538 -0.918516 0
M  V30 4309 H 415.761 7.12349 -2.5317 0
M  V30 4310 H 417.029 7.65549 -1.46817 0
M  V30 4311 N 421.258 1.00505 1.21394 0
M  V30 4312 C 422.483 0.706367 1.95001 0
M  V30 4313 C 422.908 -0.72463 1.73582 0
M  V30 4314 O 422.266 -1.49702 1.0227 0
M  V30 4315 C 422.314 1.03299 3.45487 0
M  V30 4316 O 421.418 0.138275 4.12168 0
M  V30 4317 H 420.759 0.263175 0.609619 0
M  V30 4318 H 423.289 1.34531 1.54151 0
M  V30 4319 H 423.299 0.979872 3.96059 0
M  V30 4320 H 421.974 2.07567 3.60401 0
M  V30 4321 H 420.551 0.247928 3.72075 0
M  V30 4322 N 422.737 -1.36956 0.779787 0
M  V30 4323 C 423.962 -2.04283 0.358224 0
M  V30 4324 C 424.387 -1.58422 -1.01411 0
M  V30 4325 O 423.745 -0.748179 -1.65142 0
M  V30 4326 C 423.793 -3.58152 0.419479 0
M  V30 4327 O 422.897 -4.08342 -0.577142 0
M  V30 4328 H 422.238 -0.645967 0.153698 0
M  V30 4329 H 424.768 -1.75108 1.05822 0
M  V30 4330 H 424.778 -4.07041 0.279636 0
M  V30 4331 H 423.453 -3.90886 1.42061 0
M  V30 4332 H 422.03 -3.70751 -0.399755 0
M  V30 4333 N 424.215 -0.530993 -1.48385 0
M  V30 4334 C 425.125 0.23503 -2.3342 0
M  V30 4335 C 426.141 0.93801 -1.46552 0
M  V30 4336 O 427.317 0.912745 -1.7953 0
M  V30 4337 C 424.382 1.26778 -3.22689 0
M  V30 4338 C 423.443 0.575038 -4.25431 0
M  V30 4339 C 422.676 1.55858 -5.10435 0
M  V30 4340 O 422.899 2.79129 -4.97437 0
M  V30 4341 O 421.833 1.09742 -5.91811 0
M  V30 4342 H 425.659 -0.461794 -3.00169 0
M  V30 4343 H 423.244 -0.291903 -1.46521 0
M  V30 4344 H 425.126 1.86457 -3.77904 0
M  V30 4345 H 423.801 1.94699 -2.586 0
M  V30 4346 H 422.708 -0.0622782 -3.74048 0
M  V30 4347 H 424.041 -0.062253 -4.92161 0
M  V30 4348 N 425.693 1.55336 -0.266172 0
M  V30 4349 C 426.626 2.18256 0.666296 0
M  V30 4350 C 427.604 1.14064 1.1588 0
M  V30 4351 O 428.788 1.42546 1.23341 0
M  V30 4352 C 425.915 2.79867 1.90768 0
M  V30 4353 C 424.961 3.97283 1.55141 0
M  V30 4354 S 425.794 5.31694 0.637313 0
M  V30 4355 C 426.95 5.96769 1.88727 0
M  V30 4356 H 427.183 2.97008 0.131647 0
M  V30 4357 H 424.716 1.54317 -0.0504869 0
M  V30 4358 H 426.674 3.15996 2.62025 0
M  V30 4359 H 425.335 2.01025 2.41346 0
M  V30 4360 H 424.528 4.3905 2.4749 0
M  V30 4361 H 424.13 3.6253 0.919113 0
M  V30 4362 H 426.422 6.15458 2.83227 0
M  V30 4363 H 427.365 6.91752 1.51276 0
M  V30 4364 H 427.773 5.26034 2.04814 0
M  V30 4365 N 427.171 -0.0066808 1.57599 0
M  V30 4366 C 428.101 -0.999296 2.11036 0
M  V30 4367 C 429.082 -1.36278 1.01795 0
M  V30 4368 O 430.267 -1.4477 1.29442 0
M  V30 4369 C 427.397 -2.29328 2.60818 0
M  V30 4370 C 426.351 -2.07159 3.74525 0
M  V30 4371 C 425.677 -3.42512 4.10596 0
M  V30 4372 C 426.977 -1.43959 5.02069 0
M  V30 4373 H 428.671 -0.554382 2.94223 0
M  V30 4374 H 426.217 -0.265221 1.41536 0
M  V30 4375 H 428.17 -2.99117 2.96828 0
M  V30 4376 H 426.894 -2.7592 1.74745 0
M  V30 4377 H 425.553 -1.39797 3.38899 0
M  V30 4378 H 425.201 -3.86795 3.21556 0
M  V30 4379 H 424.901 -3.28498 4.87199 0
M  V30 4380 H 426.425 -4.13628 4.4916 0
M  V30 4381 H 427.839 -2.03696 5.35893 0
M  V30 4382 H 426.236 -1.40452 5.83432 0
M  V30 4383 H 427.306 -0.407992 4.83181 0
M  V30 4384 N 428.649 -1.55105 -0.279332 0
M  V30 4385 C 429.879 -1.7917 -1.02867 0
M  V30 4386 C 430.287 -0.56204 -1.80659 0
M  V30 4387 O 429.63 0.478266 -1.77365 0
M  V30 4388 C 429.692 -2.96061 -2.03932 0
M  V30 4389 C 429.356 -4.33341 -1.45137 0
M  V30 4390 C 430.353 -5.12565 -0.870266 0
M  V30 4391 C 428.038 -4.79987 -1.48048 0
M  V30 4392 C 430.032 -6.36565 -0.326097 0
M  V30 4393 C 427.719 -6.03944 -0.932443 0
M  V30 4394 C 428.717 -6.8207 -0.356247 0
M  V30 4395 O 428.405 -8.03691 0.183412 0
M  V30 4396 H 428.137 -0.600796 -0.309872 0
M  V30 4397 H 430.691 -2.02932 -0.317468 0
M  V30 4398 H 428.921 -2.67975 -2.78794 0
M  V30 4399 H 430.61 -3.07506 -2.64943 0
M  V30 4400 H 431.376 -4.77661 -0.840521 0
M  V30 4401 H 427.255 -4.1919 -1.91835 0
M  V30 4402 H 430.799 -6.97489 0.124286 0
M  V30 4403 H 426.696 -6.3833 -0.959407 0
M  V30 4404 H 427.464 -8.18468 0.0721681 0
M  V30 4405 N 430.127 0.543554 -1.4793 0
M  V30 4406 C 431.075 1.67039 -1.61866 0
M  V30 4407 C 432.069 1.62294 -0.48549 0
M  V30 4408 O 433.275 1.67315 -0.66376 0
M  V30 4409 H 429.65 0.552954 -0.509652 0
M  V30 4410 H 431.621 1.52426 -2.56533 0
M  V30 4411 C 430.37 3.05357 -1.6629 0
M  V30 4412 H 429.693 3.09696 -2.5284 0
M  V30 4413 H 431.133 3.83855 -1.80088 0
M  V30 4414 C 429.592 3.34531 -0.398861 0
M  V30 4415 O 430.122 3.98649 0.494162 0
M  V30 4416 N 428.328 2.89299 -0.2747 0
M  V30 4417 H 427.875 2.37298 -1.00236 0
M  V30 4418 H 427.833 3.09188 0.570075 0
M  V30 4419 N 431.605 1.3629 0.791371 0
M  V30 4420 C 432.851 1.31613 1.5508 0
M  V30 4421 C 433.206 -0.104372 1.92117 0
M  V30 4422 O 432.499 -1.05845 1.5971 0
M  V30 4423 C 432.693 2.17068 2.8393 0
M  V30 4424 C 432.522 3.67285 2.59484 0
M  V30 4425 C 431.292 4.36469 2.54604 0
M  V30 4426 C 433.49 4.60595 2.28816 0
M  V30 4427 N 431.472 5.7234 2.22036 0
M  V30 4428 C 432.843 5.847 2.06218 0
M  V30 4429 C 434.898 4.4918 2.14806 0
M  V30 4430 C 433.601 6.98671 1.71028 0
M  V30 4431 C 435.627 5.63017 1.81014 0
M  V30 4432 C 434.989 6.86159 1.59263 0
M  V30 4433 H 431.088 0.536878 0.568582 0
M  V30 4434 H 433.672 1.71323 0.925007 0
M  V30 4435 H 431.843 1.79605 3.44378 0
M  V30 4436 H 433.575 2.03795 3.49642 0
M  V30 4437 H 430.33 3.89249 2.69782 0
M  V30 4438 H 430.754 6.44093 2.08503 0
M  V30 4439 H 435.396 3.54564 2.30313 0
M  V30 4440 H 433.114 7.9324 1.54259 0
M  V30 4441 H 436.7 5.56146 1.70861 0
M  V30 4442 H 435.58 7.72753 1.335 0
M  V30 4443 N 433.083 -1.0153 1.20538 0
M  V30 4444 C 434.329 -1.75408 1.01783 0
M  V30 4445 C 434.662 -1.88943 -0.448814 0
M  V30 4446 O 433.937 -1.4162 -1.33319 0
M  V30 4447 C 434.22 -3.17255 1.70356 0
M  V30 4448 C 434.073 -3.11508 3.24473 0
M  V30 4449 C 435.392 -4.15955 1.43769 0
M  V30 4450 H 432.511 -0.636713 0.371167 0
M  V30 4451 H 435.153 -1.18436 1.4857 0
M  V30 4452 H 433.303 -3.65898 1.30578 0
M  V30 4453 H 434.975 -2.70658 3.73553 0
M  V30 4454 H 433.218 -2.4887 3.55311 0
M  V30 4455 H 433.889 -4.11784 3.67611 0
M  V30 4456 H 436.365 -3.75973 1.7828 0
M  V30 4457 H 435.241 -5.13368 1.94279 0
M  V30 4458 H 435.502 -4.40586 0.365564 0
M  V30 4459 N 434.561 -1.01147 -1.20859 0
M  V30 4460 C 435.524 -0.582224 -2.21682 0
M  V30 4461 C 436.524 0.344887 -1.57058 0
M  V30 4462 O 437.714 0.134281 -1.73682 0
M  V30 4463 C 434.846 0.150496 -3.40568 0
M  V30 4464 H 436.039 -1.47408 -2.61172 0
M  V30 4465 H 433.592 -0.800695 -1.34233 0
M  V30 4466 H 434.327 1.0575 -3.06574 0
M  V30 4467 H 434.112 -0.515444 -3.88697 0
M  V30 4468 H 435.602 0.438344 -4.15293 0
M  V30 4469 N 436.039 1.36541 -0.78704 0
M  V30 4470 C 436.986 2.30082 -0.181901 0
M  V30 4471 C 437.956 1.5186 0.672896 0
M  V30 4472 O 439.141 1.80374 0.622072 0
M  V30 4473 C 436.281 3.3835 0.679197 0
M  V30 4474 C 435.394 4.31565 -0.193882 0
M  V30 4475 C 434.529 5.26915 0.673364 0
M  V30 4476 C 433.568 6.11769 -0.201315 0
M  V30 4477 N 432.705 6.99315 0.624777 0
M  V30 4478 H 437.545 2.81248 -0.985064 0
M  V30 4479 H 435.082 1.38437 -0.497342 0
M  V30 4480 H 437.04 3.99767 1.19341 0
M  V30 4481 H 435.67 2.8851 1.44781 0
M  V30 4482 H 434.722 3.71323 -0.826044 0
M  V30 4483 H 436.034 4.91191 -0.867937 0
M  V30 4484 H 435.188 5.9361 1.25348 0
M  V30 4485 H 433.927 4.67737 1.38105 0
M  V30 4486 H 432.932 5.44039 -0.793849 0
M  V30 4487 H 434.157 6.73022 -0.906568 0
M  V30 4488 H 432.103 6.42648 1.3168 0
M  V30 4489 H 432.02 7.56 0.00835237 0
M  V30 4490 H 433.288 7.70382 1.18879 0
M  V30 4491 N 437.518 0.538854 1.48102 0
M  V30 4492 C 438.795 -0.0568108 1.95517 0
M  V30 4493 C 439.175 -1.50408 1.48124 0
M  V30 4494 O 438.523 -2.17133 0.711727 0
M  V30 4495 C 438.733 0.0696262 3.48931 0
M  V30 4496 C 440.081 -0.0851202 4.24515 0
M  V30 4497 O 441.105 -0.0037347 3.562 0
M  V30 4498 O 439.964 -0.257025 5.45895 0
M  V30 4499 H 437.058 -0.0743695 0.823649 0
M  V30 4500 H 439.604 0.604081 1.58584 0
M  V30 4501 H 438.376 1.07744 3.76174 0
M  V30 4502 H 437.999 -0.629714 3.92582 0
M  V30 4503 N 438.996 -1.55193 0.274407 0
M  V30 4504 C 440.242 -1.99877 -0.343086 0
M  V30 4505 C 440.575 -1.16256 -1.55558 0
M  V30 4506 O 439.85 -0.232462 -1.93106 0
M  V30 4507 C 440.133 -3.52706 -0.725965 0
M  V30 4508 C 439.986 -4.47081 0.493818 0
M  V30 4509 C 441.305 -4.11422 -1.56268 0
M  V30 4510 H 438.424 -0.726625 -0.123229 0
M  V30 4511 H 441.066 -1.86136 0.38121 0
M  V30 4512 H 439.216 -3.64546 -1.34307 0
M  V30 4513 H 440.888 -4.47186 1.13237 0
M  V30 4514 H 439.131 -4.1877 1.13201 0
M  V30 4515 H 439.802 -5.51699 0.18217 0
M  V30 4516 H 442.278 -4.02855 -1.04151 0
M  V30 4517 H 441.154 -5.18568 -1.79939 0
M  V30 4518 H 441.415 -3.61607 -2.54348 0
M  V30 4519 N 440.474 -0.00167713 -1.576 0
M  V30 4520 C 441.384 1.00548 -2.1196 0
M  V30 4521 C 442.4 1.3758 -1.06526 0
M  V30 4522 O 443.576 1.46278 -1.38436 0
M  V30 4523 C 440.641 2.27809 -2.6135 0
M  V30 4524 C 439.702 1.97074 -3.81393 0
M  V30 4525 C 438.935 3.18267 -4.28417 0
M  V30 4526 O 439.158 4.30009 -3.74765 0
M  V30 4527 O 438.092 3.02167 -5.20556 0
M  V30 4528 H 441.918 0.573373 -2.98238 0
M  V30 4529 H 439.503 0.217255 -1.47812 0
M  V30 4530 H 441.385 3.02568 -2.93309 0
M  V30 4531 H 440.06 2.70254 -1.78169 0
M  V30 4532 H 438.967 1.19785 -3.54404 0
M  V30 4533 H 440.3 1.59464 -4.65652 0
M  V30 4534 N 441.952 1.55251 0.271103 0
M  V30 4535 C 443.363 1.66635 0.842007 0
M  V30 4536 C 443.714 0.594631 1.86972 0
M  V30 4537 O 442.839 -0.263532 2.14789 0
M  V30 4538 C 443.434 3.02082 1.53401 0
M  V30 4539 C 441.993 3.15487 2.05293 0
M  V30 4540 C 441.14 2.62438 0.895631 0
M  V30 4541 H 444.091 1.58629 0.0474117 0
M  V30 4542 H 444.112 2.95176 2.40107 0
M  V30 4543 H 443.624 3.80062 0.785786 0
M  V30 4544 H 441.725 2.42284 2.83071 0
M  V30 4545 H 441.838 4.22075 2.26693 0
M  V30 4546 H 440.202 2.19644 1.28953 0
M  V30 4547 H 440.985 3.42923 0.160878 0
M  V30 4548 N 443.43 -0.535701 1.48216 0
M  V30 4549 C 444.841 -1.11769 1.49548 0
M  V30 4550 C 445.192 -1.94442 0.26207 0
M  V30 4551 O 444.317 -2.06987 -0.631287 0
M  V30 4552 C 444.912 -2.03367 2.70975 0
M  V30 4553 C 443.471 -2.56795 2.75196 0
M  V30 4554 C 442.618 -1.33631 2.42977 0
M  V30 4555 H 445.569 -0.321232 1.55415 0
M  V30 4556 H 445.59 -2.87569 2.49167 0
M  V30 4557 H 445.102 -1.43169 3.60727 0
M  V30 4558 H 443.203 -3.20731 1.89638 0
M  V30 4559 H 443.316 -2.9632 3.76472 0
M  V30 4560 H 441.68 -1.6502 1.94012 0
M  V30 4561 H 442.463 -0.75194 3.34964 0
M  V30 4562 N 444.908 -1.36708 -0.784132 0
M  V30 4563 C 445.855 -1.31466 -1.89698 0
M  V30 4564 C 446.825 -0.18239 -1.65096 0
M  V30 4565 O 448.01 -0.369762 -1.87183 0
M  V30 4566 C 445.15 -1.1151 -3.26588 0
M  V30 4567 C 444.263 -2.33859 -3.63227 0
M  V30 4568 C 443.398 -2.06873 -4.89262 0
M  V30 4569 C 442.437 -3.25154 -5.18595 0
M  V30 4570 N 441.574 -2.978 -6.35814 0
M  V30 4571 H 446.414 -2.26619 -1.93515 0
M  V30 4572 H 443.951 -1.12625 -0.946256 0
M  V30 4573 H 445.909 -0.979653 -4.05535 0
M  V30 4574 H 444.539 -0.200103 -3.22179 0
M  V30 4575 H 443.591 -2.58188 -2.79362 0
M  V30 4576 H 444.903 -3.22109 -3.8085 0
M  V30 4577 H 444.057 -1.90289 -5.76086 0
M  V30 4578 H 442.796 -1.15942 -4.73718 0
M  V30 4579 H 441.801 -3.42292 -4.30251 0
M  V30 4580 H 443.026 -4.1692 -5.36055 0
M  V30 4581 H 440.972 -2.09485 -6.21653 0
M  V30 4582 H 440.889 -3.7959 -6.53794 0
M  V30 4583 H 442.157 -2.84805 -7.25607 0
M  V30 4584 N 446.386 1.0089 -1.21074 0
M  V30 4585 C 447.633 1.74607 -1.0256 0
M  V30 4586 C 447.961 1.89426 0.44136 0
M  V30 4587 O 447.216 1.42266 1.34384 0
M  V30 4588 C 447.515 3.16335 -1.66334 0
M  V30 4589 C 447.181 3.21474 -3.16173 0
M  V30 4590 C 445.843 3.22583 -3.57062 0
M  V30 4591 C 448.195 3.19025 -4.12156 0
M  V30 4592 C 445.523 3.18925 -4.92446 0
M  V30 4593 C 447.875 3.16909 -5.47496 0
M  V30 4594 C 446.539 3.16326 -5.87787 0
M  V30 4595 H 445.809 0.638933 -0.375294 0
M  V30 4596 H 448.456 1.18274 -1.50611 0
M  V30 4597 H 446.761 3.75876 -1.10566 0
M  V30 4598 H 448.458 3.72083 -1.49516 0
M  V30 4599 H 445.048 3.2135 -2.83605 0
M  V30 4600 H 449.232 3.17332 -3.81595 0
M  V30 4601 H 444.488 3.16809 -5.22917 0
M  V30 4602 H 448.662 3.13968 -6.21609 0
M  V30 4603 H 446.289 3.13246 -6.92662 0
M  V30 4604 N 447.864 1.01787 1.20321 0
M  V30 4605 C 449.092 0.727194 1.937 0
M  V30 4606 C 449.507 -0.712305 1.74848 0
M  V30 4607 O 448.864 -1.48327 1.06327 0
M  V30 4608 C 448.915 1.05497 3.45764 0
M  V30 4609 O 448.636 2.43794 3.64 0
M  V30 4610 C 450.137 0.785534 4.36285 0
M  V30 4611 H 447.357 0.266939 0.615617 0
M  V30 4612 H 449.901 1.35939 1.52777 0
M  V30 4613 H 448.056 0.468158 3.84561 0
M  V30 4614 H 448.47 2.55656 4.57974 0
M  V30 4615 H 449.944 1.06495 5.4163 0
M  V30 4616 H 450.421 -0.280273 4.38305 0
M  V30 4617 H 451.027 1.35456 4.03152 0
M  V30 4618 N 449.342 -1.36122 0.79427 0
M  V30 4619 C 450.252 -2.33769 0.197296 0
M  V30 4620 C 451.268 -1.61276 -0.653153 0
M  V30 4621 O 452.444 -1.9323 -0.5678 0
M  V30 4622 C 449.509 -3.40474 -0.654098 0
M  V30 4623 C 448.57 -4.28759 0.215411 0
M  V30 4624 C 447.803 -5.30368 -0.595443 0
M  V30 4625 O 448.026 -5.40211 -1.83107 0
M  V30 4626 O 446.96 -6.019 0.00721351 0
M  V30 4627 H 450.786 -2.86597 1.00478 0
M  V30 4628 H 448.371 -1.38676 0.555818 0
M  V30 4629 H 450.253 -4.05703 -1.13944 0
M  V30 4630 H 448.928 -2.89937 -1.43938 0
M  V30 4631 H 447.835 -3.66554 0.747615 0
M  V30 4632 H 449.168 -4.82661 0.964332 0
M  V30 4633 N 450.82 -0.546701 -1.47814 0
M  V30 4634 C 452.066 -0.0187684 -2.02791 0
M  V30 4635 C 452.399 1.32338 -1.42128 0
M  V30 4636 O 451.674 1.85867 -0.573023 0
M  V30 4637 C 451.957 0.0854985 -3.59998 0
M  V30 4638 C 451.81 -1.283 -4.31114 0
M  V30 4639 C 453.129 0.80412 -4.32691 0
M  V30 4640 H 450.248 -0.0082946 -0.736953 0
M  V30 4641 H 452.89 -0.706962 -1.76358 0
M  V30 4642 H 451.04 0.671609 -3.82651 0
M  V30 4643 H 452.712 -1.91151 -4.19832 0
M  V30 4644 H 450.955 -1.86049 -3.91878 0
M  V30 4645 H 451.626 -1.16287 -5.39612 0
M  V30 4646 H 454.102 0.306576 -4.14969 0
M  V30 4647 H 452.978 0.846011 -5.42341 0
M  V30 4648 H 453.239 1.85802 -4.01161 0
M  V30 4649 N 452.299 1.55045 -0.282633 0
M  V30 4650 C 453.527 2.04168 0.33512 0
M  V30 4651 C 453.942 1.16071 1.48906 0
M  V30 4652 O 453.299 0.182391 1.81586 0
M  V30 4653 C 453.35 3.52332 0.808957 0
M  V30 4654 O 453.071 4.37078 -0.299038 0
M  V30 4655 C 454.572 4.17375 1.49375 0
M  V30 4656 H 451.792 0.666744 0.0754543 0
M  V30 4657 H 454.336 2.00205 -0.416918 0
M  V30 4658 H 452.491 3.56715 1.51106 0
M  V30 4659 H 452.905 5.24458 0.0665514 0
M  V30 4660 H 454.379 5.22627 1.77664 0
M  V30 4661 H 454.856 3.65999 2.42778 0
M  V30 4662 H 455.462 4.17016 0.835305 0
M  V30 4663 N 453.777 0.010035 1.57597 0
M  V30 4664 C 455.054 -0.710296 1.82248 0
M  V30 4665 C 455.434 -1.91426 0.889911 0
M  V30 4666 O 454.782 -2.28424 -0.0590292 0
M  V30 4667 C 454.992 -1.10655 3.30993 0
M  V30 4668 C 456.34 -1.50621 3.96987 0
M  V30 4669 O 457.364 -1.20007 3.35375 0
M  V30 4670 O 456.223 -2.07587 5.05539 0
M  V30 4671 H 453.317 -0.34673 0.750804 0
M  V30 4672 H 455.863 0.0362578 1.69661 0
M  V30 4673 H 454.635 -0.248826 3.90508 0
M  V30 4674 H 454.258 -1.91189 3.48615 0
M  V30 4675 N 455.255 -1.55392 -0.262866 0
M  V30 4676 C 456.501 -1.76737 -0.99458 0
M  V30 4677 C 456.834 -0.572453 -1.85571 0
M  V30 4678 O 456.109 0.429732 -1.89693 0
M  V30 4679 C 456.392 -3.07824 -1.8686 0
M  V30 4680 C 456.245 -4.3769 -1.03672 0
M  V30 4681 C 457.564 -3.35021 -2.85393 0
M  V30 4682 H 454.683 -0.643005 -0.360157 0
M  V30 4683 H 457.325 -1.88126 -0.266216 0
M  V30 4684 H 455.475 -2.98245 -2.48962 0
M  V30 4685 H 457.147 -4.59238 -0.43563 0
M  V30 4686 H 455.39 -4.32461 -0.340513 0
M  V30 4687 H 456.061 -5.25759 -1.6817 0
M  V30 4688 H 458.537 -3.44458 -2.33426 0
M  V30 4689 H 457.413 -4.27989 -3.43681 0
M  V30 4690 H 457.674 -2.55153 -3.61039 0
M  V30 4691 N 456.733 0.527833 -1.48498 0
M  V30 4692 C 457.979 1.28545 -1.56857 0
M  V30 4693 C 458.312 1.92678 -0.242651 0
M  V30 4694 O 457.587 1.79394 0.751545 0
M  V30 4695 C 457.87 2.37314 -2.70839 0
M  V30 4696 C 457.723 1.77858 -4.13142 0
M  V30 4697 C 459.042 3.39068 -2.80573 0
M  V30 4698 H 456.161 0.466006 -0.570971 0
M  V30 4699 H 458.803 0.587784 -1.8068 0
M  V30 4700 H 456.953 2.96821 -2.50658 0
M  V30 4701 H 458.625 1.22385 -4.44769 0
M  V30 4702 H 456.868 1.08383 -4.20042 0
M  V30 4703 H 457.539 2.56624 -4.88721 0
M  V30 4704 H 460.015 2.89518 -2.98862 0
M  V30 4705 H 458.891 4.12566 -3.6205 0
M  V30 4706 H 459.152 3.9975 -1.88818 0
M  V30 4707 N 458.211 1.37122 0.776871 0
M  V30 4708 C 459.141 1.35164 1.90402 0
M  V30 4709 C 460.122 0.221069 1.68657 0
M  V30 4710 O 461.307 0.420642 1.8959 0
M  V30 4711 C 458.437 1.15274 3.27611 0
M  V30 4712 C 457.391 2.25289 3.63908 0
M  V30 4713 C 456.717 1.90527 4.99603 0
M  V30 4714 C 458.017 3.67446 3.71188 0
M  V30 4715 H 459.711 2.29482 1.92297 0
M  V30 4716 H 457.257 1.10465 0.923773 0
M  V30 4717 H 459.21 1.12536 4.06096 0
M  V30 4718 H 457.934 0.174102 3.26136 0
M  V30 4719 H 456.593 2.27174 2.87728 0
M  V30 4720 H 456.241 0.91206 4.94662 0
M  V30 4721 H 455.941 2.64193 5.24858 0
M  V30 4722 H 457.465 1.89367 5.80493 0
M  V30 4723 H 458.879 3.67719 4.39836 0
M  V30 4724 H 457.276 4.40123 4.07936 0
M  V30 4725 H 458.346 4.01443 2.71977 0
M  V30 4726 N 459.689 -1.00246 1.21608 0
M  V30 4727 C 460.938 -1.73476 1.02902 0
M  V30 4728 C 461.251 -1.90643 -0.437561 0
M  V30 4729 O 462.457 -2.61105 -0.74407 0
M  V30 4730 C 460.913 -3.12079 1.79261 0
M  V30 4731 C 460.521 -3.02877 3.30106 0
M  V30 4732 C 462.265 -3.89421 1.68972 0
M  V30 4733 C 460.172 -4.36575 3.98944 0
M  V30 4734 H 459.102 -0.650408 0.381425 0
M  V30 4735 H 461.753 -1.11985 1.45367 0
M  V30 4736 H 460.135 -3.74196 1.2959 0
M  V30 4737 H 461.309 -2.49983 3.87098 0
M  V30 4738 H 459.624 -2.39022 3.40965 0
M  V30 4739 H 462.221 -4.88362 2.17731 0
M  V30 4740 H 462.564 -4.1122 0.648397 0
M  V30 4741 H 463.097 -3.33963 2.16133 0
M  V30 4742 H 459.836 -4.19978 5.03288 0
M  V30 4743 H 459.356 -4.8942 3.4674 0
M  V30 4744 H 461.035 -5.05364 4.04 0
M  V30 4745 N 461.167 -1.02423 -1.1978 0
M  V30 4746 C 462.395 -0.737456 -1.93311 0
M  V30 4747 C 462.81 0.703023 -1.75223 0
M  V30 4748 O 462.167 1.47761 -1.07112 0
M  V30 4749 C 462.218 -1.0733 -3.45199 0
M  V30 4750 O 461.939 -2.4572 -3.62702 0
M  V30 4751 C 463.44 -0.80866 -4.35862 0
M  V30 4752 H 460.66 -0.2702 -0.614193 0
M  V30 4753 H 463.204 -1.36747 -1.52054 0
M  V30 4754 H 461.359 -0.488545 -3.84307 0
M  V30 4755 H 461.773 -2.58081 -4.56612 0
M  V30 4756 H 463.247 -1.09365 -5.41057 0
M  V30 4757 H 463.724 0.257025 -4.38447 0
M  V30 4758 H 464.33 -1.37592 -4.02428 0
M  V30 4759 N 462.645 1.35699 -0.801477 0
M  V30 4760 C 464.061 1.52065 -0.484596 0
M  V30 4761 C 464.261 1.75215 0.995084 0
M  V30 4762 O 463.317 1.79061 1.78026 0
M  V30 4763 C 464.63 2.69908 -1.32552 0
M  V30 4764 C 466.178 2.83784 -1.32044 0
M  V30 4765 C 466.653 4.04646 -2.14536 0
M  V30 4766 N 468.144 4.11814 -2.12046 0
M  V30 4767 C 468.879 5.04437 -2.72636 0
M  V30 4768 N 468.375 6.02426 -3.42133 0
M  V30 4769 N 470.168 4.97144 -2.62305 0
M  V30 4770 H 462.319 1.18928 -1.75983 0
M  V30 4771 H 464.582 0.581455 -0.748741 0
M  V30 4772 H 464.288 2.59363 -2.37537 0
M  V30 4773 H 464.162 3.64376 -0.975181 0
M  V30 4774 H 466.549 2.93783 -0.27846 0
M  V30 4775 H 466.63 1.90188 -1.71062 0
M  V30 4776 H 466.274 3.95407 -3.18772 0
M  V30 4777 H 466.204 4.97413 -1.72882 0
M  V30 4778 H 468.695 3.41664 -1.61476 0
M  V30 4779 H 469.008 6.69688 -3.85666 0
M  V30 4780 H 467.353 6.02615 -3.46237 0
M  V30 4781 H 470.544 4.19546 -2.07603 0
M  V30 4782 H 470.717 5.69138 -3.09815 0
M  V30 4783 N 464.123 0.554532 1.47522 0
M  V30 4784 C 465.4 -0.0360704 1.95567 0
M  V30 4785 C 465.78 -1.48828 1.49711 0
M  V30 4786 O 465.128 -2.16366 0.734717 0
M  V30 4787 C 465.338 0.106631 3.48837 0
M  V30 4788 C 466.686 -0.0400899 4.24581 0
M  V30 4789 O 467.71 0.0340453 3.56184 0
M  V30 4790 O 466.569 -0.199111 5.46137 0
M  V30 4791 H 463.663 -0.0656294 0.824392 0
M  V30 4792 H 466.209 0.620867 1.57935 0
M  V30 4793 H 464.981 1.11727 3.7501 0
M  V30 4794 H 464.604 -0.58804 3.93227 0
M  V30 4795 N 465.601 -1.54893 0.290851 0
M  V30 4796 C 466.549 -2.24579 -0.605576 0
M  V30 4797 C 467.543 -1.24824 -1.14522 0
M  V30 4798 O 468.749 -1.42706 -1.09704 0
M  V30 4799 H 465.124 -0.720946 -0.213872 0
M  V30 4800 H 467.095 -2.984 0.0048173 0
M  V30 4801 C 465.844 -2.99224 -1.77088 0
M  V30 4802 H 465.167 -3.75782 -1.36484 0
M  V30 4803 H 466.607 -3.51281 -2.3744 0
M  V30 4804 C 465.066 -2.05602 -2.66888 0
M  V30 4805 O 465.596 -1.61745 -3.67698 0
M  V30 4806 N 463.802 -1.71771 -2.34399 0
M  V30 4807 H 463.349 -2.07633 -1.52468 0
M  V30 4808 H 463.307 -1.09403 -2.94751 0
M  V30 4809 N 467.08 -0.0183926 -1.57589 0
M  V30 4810 C 468.327 0.662562 -1.91354 0
M  V30 4811 C 468.655 1.72747 -0.893788 0
M  V30 4812 O 467.91 1.9545 0.0988509 0
M  V30 4813 C 468.209 1.32676 -3.31861 0
M  V30 4814 C 467.875 0.393267 -4.49182 0
M  V30 4815 C 466.537 0.136302 -4.81007 0
M  V30 4816 C 468.889 -0.248366 -5.20608 0
M  V30 4817 C 466.217 -0.770282 -5.81621 0
M  V30 4818 C 468.569 -1.14294 -6.22189 0
M  V30 4819 C 467.233 -1.4089 -6.52462 0
M  V30 4820 H 466.503 0.242448 -0.700214 0
M  V30 4821 H 469.15 -0.0778629 -1.91342 0
M  V30 4822 H 467.455 2.14168 -3.28084 0
M  V30 4823 H 469.152 1.86001 -3.55253 0
M  V30 4824 H 465.742 0.603723 -4.24327 0
M  V30 4825 H 469.926 -0.062883 -4.9626 0
M  V30 4826 H 465.182 -0.984154 -6.03427 0
M  V30 4827 H 469.356 -1.64637 -6.76659 0
M  V30 4828 H 466.983 -2.11306 -7.30242 0
M  V30 4829 N 468.558 1.5553 0.254621 0
M  V30 4830 C 469.505 1.89666 1.31512 0
M  V30 4831 C 470.475 0.750057 1.482 0
M  V30 4832 O 471.66 1.00301 1.62309 0
M  V30 4833 C 468.8 2.19009 2.667 0
M  V30 4834 C 467.913 3.46435 2.58083 0
M  V30 4835 C 467.048 3.65386 3.85573 0
M  V30 4836 C 466.087 4.8644 3.71541 0
M  V30 4837 N 465.224 5.01952 4.90906 0
M  V30 4838 H 470.064 2.80109 1.017 0
M  V30 4839 H 467.601 1.38666 0.490938 0
M  V30 4840 H 469.559 2.34025 3.45381 0
M  V30 4841 H 468.189 1.31779 2.94676 0
M  V30 4842 H 467.241 3.39792 1.71013 0
M  V30 4843 H 468.553 4.35258 2.43622 0
M  V30 4844 H 467.707 3.80319 4.72697 0
M  V30 4845 H 466.446 2.74781 4.02922 0
M  V30 4846 H 465.451 4.71491 2.82801 0
M  V30 4847 H 466.676 5.78497 3.55694 0
M  V30 4848 H 464.622 4.14283 5.08631 0
M  V30 4849 H 464.539 5.84851 4.79046 0
M  V30 4850 H 465.807 5.21289 5.7955 0
M  V30 4851 N 470.036 -0.519951 1.48776 0
M  V30 4852 C 470.946 -1.65025 1.66745 0
M  V30 4853 C 471.962 -1.6508 0.549954 0
M  V30 4854 O 473.138 -1.83848 0.822295 0
M  V30 4855 C 470.203 -3.0146 1.71238 0
M  V30 4856 C 469.264 -3.12182 2.94688 0
M  V30 4857 C 468.497 -4.42109 2.98958 0
M  V30 4858 O 468.72 -5.29799 2.1135 0
M  V30 4859 O 467.654 -4.57406 3.91233 0
M  V30 4860 H 471.48 -1.52801 2.62461 0
M  V30 4861 H 469.065 -0.694157 1.32294 0
M  V30 4862 H 470.947 -3.82584 1.76657 0
M  V30 4863 H 469.622 -3.13988 0.786975 0
M  V30 4864 H 468.529 -2.30316 2.94797 0
M  V30 4865 H 469.862 -3.04574 3.86646 0
M  V30 4866 N 471.514 -1.37532 -0.769588 0
M  V30 4867 C 472.424 -1.35668 -1.91393 0
M  V30 4868 C 473.44 -0.255954 -1.72107 0
M  V30 4869 O 474.616 -0.491704 -1.95305 0
M  V30 4870 C 471.681 -1.16481 -3.26547 0
M  V30 4871 C 470.742 -2.36212 -3.58472 0
M  V30 4872 C 469.975 -2.17932 -4.87177 0
M  V30 4873 O 470.198 -1.1647 -5.58382 0
M  V30 4874 O 469.132 -3.06167 -5.18214 0
M  V30 4875 H 472.958 -2.32055 -1.95918 0
M  V30 4876 H 470.543 -1.18284 -0.912641 0
M  V30 4877 H 472.425 -1.07778 -4.07384 0
M  V30 4878 H 471.1 -0.231687 -3.2287 0
M  V30 4879 H 470.007 -2.50488 -2.77861 0
M  V30 4880 H 471.34 -3.281 -3.66894 0
M  V30 4881 N 472.992 0.995999 -1.22138 0
M  V30 4882 C 473.922 2.10387 -1.01289 0
M  V30 4883 C 474.903 1.69975 0.0651454 0
M  V30 4884 O 476.088 1.9396 -0.0964628 0
M  V30 4885 C 473.218 3.42312 -0.586517 0
M  V30 4886 C 472.172 3.96558 -1.61014 0
M  V30 4887 C 471.498 5.24494 -1.0397 0
M  V30 4888 C 472.798 4.27595 -2.99933 0
M  V30 4889 H 474.492 2.28086 -1.93951 0
M  V30 4890 H 472.038 1.09607 -0.933928 0
M  V30 4891 H 473.991 4.19223 -0.427793 0
M  V30 4892 H 472.715 3.24431 0.375761 0
M  V30 4893 H 471.374 3.21776 -1.75658 0
M  V30 4894 H 471.022 5.02953 -0.0688703 0
M  V30 4895 H 470.722 5.61755 -1.72352 0
M  V30 4896 H 472.246 6.04042 -0.892494 0
M  V30 4897 H 473.66 4.95315 -2.8868 0
M  V30 4898 H 472.057 4.76021 -3.6541 0
M  V30 4899 H 473.127 3.35498 -3.50099 0
M  V30 4900 N 474.47 1.03057 1.19235 0
M  V30 4901 C 475.38 0.622922 2.26179 0
M  V30 4902 C 476.396 -0.346113 1.70523 0
M  V30 4903 O 477.572 -0.203572 2.00369 0
M  V30 4904 C 474.637 -0.0182063 3.46695 0
M  V30 4905 C 473.698 0.998546 4.17526 0
M  V30 4906 C 472.931 0.387917 5.32288 0
M  V30 4907 O 473.154 -0.808668 5.64639 0
M  V30 4908 O 472.088 1.1116 5.91546 0
M  V30 4909 H 475.914 1.51363 2.63292 0
M  V30 4910 H 473.499 0.800856 1.26122 0
M  V30 4911 H 475.381 -0.375606 4.19723 0
M  V30 4912 H 474.056 -0.882895 3.11427 0
M  V30 4913 H 472.963 1.40756 3.4661 0
M  V30 4914 H 474.296 1.83366 4.56769 0
M  V30 4915 N 475.948 -1.35272 0.808662 0
M  V30 4916 C 476.895 -2.29764 0.218482 0
M  V30 4917 C 477.865 -1.52911 -0.648652 0
M  V30 4918 O 479.05 -1.81341 -0.593297 0
M  V30 4919 C 476.19 -3.39388 -0.625282 0
M  V30 4920 C 475.303 -4.31202 0.262516 0
M  V30 4921 C 474.438 -5.27919 -0.589451 0
M  V30 4922 C 473.477 -6.11371 0.298617 0
M  V30 4923 N 472.614 -7.0022 -0.513443 0
M  V30 4924 H 477.454 -2.79645 1.02968 0
M  V30 4925 H 474.991 -1.37629 0.519303 0
M  V30 4926 H 476.949 -4.01615 -1.12966 0
M  V30 4927 H 475.579 -2.90777 -1.40173 0
M  V30 4928 H 474.631 -3.69962 0.885013 0
M  V30 4929 H 475.943 -4.89748 0.945971 0
M  V30 4930 H 475.097 -5.95529 -1.15888 0
M  V30 4931 H 473.836 -4.69875 -1.30647 0
M  V30 4932 H 472.841 -5.42707 0.880301 0
M  V30 4933 H 474.066 -6.71494 1.01352 0
M  V30 4934 H 472.012 -6.44662 -1.21439 0
M  V30 4935 H 471.929 -7.55917 0.111922 0
M  V30 4936 H 473.197 -7.72175 -1.06608 0
M  V30 4937 N 477.426 -0.562348 -1.47226 0
M  V30 4938 C 478.373 0.182461 -2.30078 0
M  V30 4939 C 479.343 0.903503 -1.39377 0
M  V30 4940 O 480.528 0.898188 -1.68337 0
M  V30 4941 C 477.668 1.20322 -3.23445 0
M  V30 4942 C 476.781 0.487717 -4.29238 0
M  V30 4943 C 475.916 1.49422 -5.09752 0
M  V30 4944 C 474.955 0.763976 -6.07314 0
M  V30 4945 N 474.092 1.71755 -6.80768 0
M  V30 4946 H 478.932 -0.530169 -2.93246 0
M  V30 4947 H 476.469 -0.273276 -1.44539 0
M  V30 4948 H 478.427 1.80768 -3.76004 0
M  V30 4949 H 477.057 1.88382 -2.6213 0
M  V30 4950 H 476.109 -0.231374 -3.79696 0
M  V30 4951 H 477.421 -0.0841003 -4.98729 0
M  V30 4952 H 476.575 2.17206 -5.66486 0
M  V30 4953 H 475.314 2.09995 -4.40174 0
M  V30 4954 H 474.319 0.0722344 -5.49753 0
M  V30 4955 H 475.544 0.16391 -6.78902 0
M  V30 4956 H 473.49 2.31177 -6.13916 0
M  V30 4957 H 473.407 1.19802 -7.46447 0
M  V30 4958 H 474.675 2.38638 -7.42073 0
M  V30 4959 N 478.904 1.54736 -0.299062 0
M  V30 4960 C 480.152 1.99706 0.31017 0
M  V30 4961 C 480.473 1.18896 1.54559 0
M  V30 4962 O 479.743 0.284445 1.93824 0
M  V30 4963 H 478.323 0.737686 0.117596 0
M  V30 4964 H 480.985 1.9054 -0.409943 0
M  V30 4965 H 480.081 3.06596 0.58355 0
M  V30 4966 N 480.382 0.0267497 1.57577 0
M  V30 4967 C 481.312 -0.954308 2.13108 0
M  V30 4968 C 482.293 -1.34088 1.04663 0
M  V30 4969 O 483.478 -1.41992 1.32484 0
M  V30 4970 C 480.608 -2.23744 2.65624 0
M  V30 4971 C 479.562 -1.99168 3.78835 0
M  V30 4972 C 478.888 -3.33726 4.17769 0
M  V30 4973 C 480.188 -1.33277 5.0501 0
M  V30 4974 H 481.882 -0.491848 2.95332 0
M  V30 4975 H 479.428 -0.23514 1.42067 0
M  V30 4976 H 481.381 -2.92754 3.03106 0
M  V30 4977 H 480.105 -2.72151 1.80558 0
M  V30 4978 H 478.764 -1.32577 3.41788 0
M  V30 4979 H 478.412 -3.79888 3.29688 0
M  V30 4980 H 478.112 -3.18089 4.94058 0
M  V30 4981 H 479.636 -4.04008 4.57832 0
M  V30 4982 H 481.05 -1.92283 5.40093 0
M  V30 4983 H 479.447 -1.28045 5.8628 0
M  V30 4984 H 480.517 -0.305411 4.83937 0
M  V30 4985 N 481.861 -1.55662 -0.24637 0
M  V30 4986 C 483.109 -1.77168 -0.972411 0
M  V30 4987 C 483.43 -0.590827 -1.85834 0
M  V30 4988 O 482.7 0.393365 -1.9191 0
M  V30 4989 H 481.28 -0.653405 -0.362038 0
M  V30 4990 H 483.942 -1.93101 -0.264189 0
M  V30 4991 H 483.038 -2.68335 -1.59382 0
M  V30 4992 N 483.339 0.512053 -1.4905 0
M  V30 4993 C 484.587 1.26436 -1.57665 0
M  V30 4994 C 484.908 1.93255 -0.260293 0
M  V30 4995 O 484.178 1.82206 0.719564 0
M  V30 4996 H 482.758 0.469658 -0.580888 0
M  V30 4997 H 485.42 0.594398 -1.85615 0
M  V30 4998 H 484.516 2.03417 -2.36702 0
M  V30 4999 N 484.817 1.37938 0.762283 0
M  V30 5000 C 485.764 1.34467 1.87583 0
M  V30 5001 C 486.734 0.208633 1.64785 0
M  V30 5002 O 487.919 0.399494 1.86571 0
M  V30 5003 C 485.059 1.16692 3.24772 0
M  V30 5004 C 484.172 2.39608 3.59461 0
M  V30 5005 C 483.307 2.14631 4.85908 0
M  V30 5006 C 482.346 3.33364 5.13357 0
M  V30 5007 N 481.483 3.07877 6.30996 0
M  V30 5008 H 486.323 2.29669 1.89885 0
M  V30 5009 H 483.86 1.14116 0.928219 0
M  V30 5010 H 485.818 1.04405 4.03925 0
M  V30 5011 H 484.448 0.251333 3.2182 0
M  V30 5012 H 483.5 2.626 2.75219 0
M  V30 5013 H 484.812 3.28128 3.75678 0
M  V30 5014 H 483.966 1.99429 5.72986 0
M  V30 5015 H 482.705 1.23463 4.71814 0
M  V30 5016 H 481.71 3.49094 4.24751 0
M  V30 5017 H 482.935 4.25395 5.29354 0
M  V30 5018 H 480.881 2.19348 6.18241 0
M  V30 5019 H 480.798 3.89944 6.47673 0
M  V30 5020 H 482.066 2.96313 7.20985 0
M  V30 5021 O 486.334 -0.902626 1.33921 0
M  V30 5022 H 487.025 -1.53762 1.178 0
M  V30 END ATOM
M  V30 BEGIN BOND
M  V30 END BOND
M  V30 END CTAB
M  END
$$$$
