drugbank_target|P08912 Muscarinic acetylcholine receptor M5 (DB00246; DB00342; DB00363; DB00376; DB00408; DB00458; DB00483; DB00496; DB00572; DB00622; DB00725; DB00747; DB00767; DB00835; DB00934; DB00940; DB01036; DB01069; DB01142; DB01151; DB01224; DB01238; DB01239; DB01403; DB01409; DB01591; DB05752; DB06702; DB08897; DB09076; DB09167; DB11181; DB11235; DB12278; DB13581; DB14185)
 OpenBabel12092119273D

  0  0  0     0  0            999 V3000
M  V30 BEGIN CTAB
M  V30 COUNTS 8523 8625 0 0 0
M  V30 BEGIN ATOM
M  V30 1 H -0.908 1.98254 -0.117106 0
M  V30 2 N 0 1.576 0 0
M  V30 3 C 0.933 2.03868 1.02534 0
M  V30 4 C 1.911 0.928543 1.3348 0
M  V30 5 O 3.095 1.19667 1.45644 0
M  V30 6 C 0.222 2.43627 2.35294 0
M  V30 7 C -0.732 3.65373 2.2001 0
M  V30 8 S 0.101 5.13292 1.52614 0
M  V30 9 C 1.257 5.56322 2.86805 0
M  V30 10 H 1.49 2.90518 0.631377 0
M  V30 11 H -0.977 1.52953 0.210867 0
M  V30 12 H 0.981 2.67203 3.11629 0
M  V30 13 H -0.358 1.57376 2.7183 0
M  V30 14 H -1.165 3.90944 3.18086 0
M  V30 15 H -1.563 3.418 1.51819 0
M  V30 16 H 0.729 5.58782 3.83104 0
M  V30 17 H 1.672 6.56266 2.65933 0
M  V30 18 H 2.08 4.83886 2.90714 0
M  V30 19 N 1.4781 -0.272755 1.55222 0
M  V30 20 C 2.3881 -1.35918 1.91216 0
M  V30 21 C 3.4041 -1.54026 0.809436 0
M  V30 22 O 4.5801 -1.68148 1.10852 0
M  V30 23 C 1.6451 -2.69834 2.17693 0
M  V30 24 C 0.7061 -2.6047 3.41253 0
M  V30 25 C -0.0609 -3.88 3.66458 0
M  V30 26 O 0.1621 -4.88693 2.94169 0
M  V30 27 O -0.9039 -3.88189 4.59992 0
M  V30 28 H 2.9221 -1.0839 2.83699 0
M  V30 29 H 0.5071 -0.471301 1.41771 0
M  V30 30 H 2.3891 -3.49017 2.36147 0
M  V30 31 H 1.0641 -2.97148 1.28392 0
M  V30 32 H -0.0289 -1.79663 3.28134 0
M  V30 33 H 1.3041 -2.38106 4.30774 0
M  V30 34 N 2.9562 -1.48159 -0.537278 0
M  V30 35 C 4.2042 -1.55497 -1.29094 0
M  V30 36 C 4.5252 -0.227454 -1.93669 0
M  V30 37 O 3.7952 0.750386 -1.80959 0
M  V30 38 H 2.3752 -0.572832 -0.47945 0
M  V30 39 H 5.0372 -1.84579 -0.625818 0
M  V30 40 H 4.1332 -2.33216 -2.07405 0
M  V30 41 N 4.4343 0.785586 -1.36625 0
M  V30 42 C 5.7113 1.53198 -1.21613 0
M  V30 43 C 6.0913 2.10187 0.196113 0
M  V30 44 O 5.4393 1.94318 1.20219 0
M  V30 45 C 5.6493 2.62388 -2.30116 0
M  V30 46 C 6.9973 3.30167 -2.66974 0
M  V30 47 O 8.0213 2.72674 -2.29188 0
M  V30 48 O 6.8803 4.34077 -3.32023 0
M  V30 49 H 3.9743 0.677865 -0.473738 0
M  V30 50 H 6.5203 0.823739 -1.48367 0
M  V30 51 H 5.2923 2.18299 -3.24748 0
M  V30 52 H 4.9153 3.40827 -2.0475 0
M  V30 53 N 5.9124 1.20967 1.01018 0
M  V30 54 C 7.1374 1.0503 1.78839 0
M  V30 55 C 7.5624 -0.395752 1.8389 0
M  V30 56 O 6.9204 -1.28529 1.27867 0
M  V30 57 C 6.9684 1.64602 3.2084 0
M  V30 58 O 6.0724 0.887988 4.02726 0
M  V30 59 H 5.4134 0.369987 0.551367 0
M  V30 60 H 7.9434 1.60399 1.27018 0
M  V30 61 H 7.9534 1.68607 3.71532 0
M  V30 62 H 6.6284 2.69841 3.16479 0
M  V30 63 H 5.2054 0.922648 3.61305 0
M  V30 64 N 7.3905 -1.2043 1.01659 0
M  V30 65 C 8.6205 -1.93496 0.724081 0
M  V30 66 C 9.0285 -1.74998 -0.71918 0
M  V30 67 O 8.3715 -1.06118 -1.49949 0
M  V30 68 C 8.4335 -3.45886 0.97994 0
M  V30 69 C 8.0975 -3.88145 2.41232 0
M  V30 70 C 9.0945 -3.93907 3.39313 0
M  V30 71 C 6.7795 -4.20134 2.75305 0
M  V30 72 C 8.7735 -4.31069 4.6953 0
M  V30 73 C 6.4605 -4.56971 4.05735 0
M  V30 74 C 7.4585 -4.62411 5.02658 0
M  V30 75 O 7.1465 -4.98403 6.30754 0
M  V30 76 H 6.8785 -0.621824 0.265162 0
M  V30 77 H 9.4325 -1.53867 1.36066 0
M  V30 78 H 7.6625 -3.85639 0.286198 0
M  V30 79 H 9.3515 -4.0018 0.679021 0
M  V30 80 H 10.1175 -3.69357 3.14325 0
M  V30 81 H 5.9965 -4.1509 2.00551 0
M  V30 82 H 9.5405 -4.3523 5.45179 0
M  V30 83 H 5.4375 -4.80977 4.30502 0
M  V30 84 H 6.2055 -5.16395 6.35042 0
M  V30 85 N 8.8686 -0.792821 -1.36206 0
M  V30 86 C 9.8186 -0.166598 -2.27391 0
M  V30 87 C 10.8026 0.651479 -1.47121 0
M  V30 88 O 11.9946 0.510994 -1.69463 0
M  V30 89 C 9.1236 0.695033 -3.36191 0
M  V30 90 C 8.2096 -0.132019 -4.23894 0
M  V30 91 N 8.6006 -1.18822 -4.91645 0
M  V30 92 C 6.8986 0.0885952 -4.45912 0
M  V30 93 C 7.5996 -1.69198 -5.56549 0
M  V30 94 N 6.5756 -1.00065 -5.34311 0
M  V30 95 H 10.3776 -0.974947 -2.77258 0
M  V30 96 H 7.8916 -0.632616 -1.49572 0
M  V30 97 H 9.8886 1.1596 -4.00448 0
M  V30 98 H 8.5486 1.50189 -2.87877 0
M  V30 99 H 9.5596 -1.57069 -4.93507 0
M  V30 100 H 6.2366 0.865688 -4.08426 0
M  V30 101 H 7.6266 -2.57395 -6.20643 0
M  V30 102 N 10.3467 1.47872 -0.545128 0
M  V30 103 C 11.2947 2.31533 0.222512 0
M  V30 104 C 12.2887 1.42177 0.920985 0
M  V30 105 O 13.4947 1.59005 0.843645 0
M  V30 106 H 9.8697 0.746519 0.0906278 0
M  V30 107 H 11.8407 2.94139 -0.50246 0
M  V30 108 C 10.5897 3.2457 1.24699 0
M  V30 109 H 9.9127 3.93283 0.718944 0
M  V30 110 H 11.3527 3.85963 1.75523 0
M  V30 111 C 9.8117 2.47237 2.28856 0
M  V30 112 O 10.3417 2.20808 3.35569 0
M  V30 113 N 8.5477 2.08461 2.02466 0
M  V30 114 H 8.0947 2.30155 1.157 0
M  V30 115 H 8.0527 1.57033 2.72375 0
M  V30 116 N 11.8248 0.280983 1.55075 0
M  V30 117 C 12.7878 -0.590896 2.21452 0
M  V30 118 C 13.7878 -1.07682 1.19421 0
M  V30 119 O 14.9778 -0.97605 1.44288 0
M  V30 120 C 12.1098 -1.81587 2.88511 0
M  V30 121 H 13.3028 -0.0112554 2.99898 0
M  V30 122 H 10.8558 0.0316438 1.56268 0
M  V30 123 H 11.5908 -2.43587 2.14093 0
M  V30 124 H 11.3758 -1.4753 3.63287 0
M  V30 125 H 12.8658 -2.43575 3.39206 0
M  V30 126 N 13.3029 -1.57598 0.00835791 0
M  V30 127 C 14.5309 -1.95214 -0.68549 0
M  V30 128 C 14.9459 -0.883706 -1.66841 0
M  V30 129 O 14.3029 0.136565 -1.81988 0
M  V30 130 C 14.3539 -3.32865 -1.41007 0
M  V30 131 O 14.0749 -4.35609 -0.466552 0
M  V30 132 C 15.5759 -3.84991 -2.19765 0
M  V30 133 H 12.7959 -0.643422 -0.190392 0
M  V30 134 H 15.3399 -2.04406 0.0619607 0
M  V30 135 H 13.4949 -3.24956 -2.10908 0
M  V30 136 H 13.9089 -5.15288 -0.978699 0
M  V30 137 H 15.3829 -4.8371 -2.65948 0
M  V30 138 H 15.8599 -3.18137 -3.02796 0
M  V30 139 H 16.4659 -3.96103 -1.54864 0
M  V30 140 N 14.781 0.264519 -1.55364 0
M  V30 141 C 16.009 1.013 -1.80405 0
M  V30 142 C 16.424 1.79618 -0.581622 0
M  V30 143 O 15.781 1.76879 0.449468 0
M  V30 144 C 15.832 1.96487 -3.03439 0
M  V30 145 O 15.553 1.21341 -4.20961 0
M  V30 146 C 17.054 2.83079 -3.41147 0
M  V30 147 H 14.274 0.298875 -0.600762 0
M  V30 148 H 16.818 0.292736 -2.02394 0
M  V30 149 H 14.973 2.63965 -2.83551 0
M  V30 150 H 15.387 1.85573 -4.90574 0
M  V30 151 H 16.861 3.4565 -4.30384 0
M  V30 152 H 17.338 3.53286 -2.60932 0
M  V30 153 H 17.944 2.2108 -3.63323 0
M  V30 154 N 16.2591 1.48442 0.529413 0
M  V30 155 C 17.5051 1.5672 1.28711 0
M  V30 156 C 17.8381 0.2406 1.92704 0
M  V30 157 O 17.1131 -0.753454 1.79313 0
M  V30 158 C 17.3961 2.70587 2.37603 0
M  V30 159 C 17.2491 4.12953 1.78297 0
M  V30 160 C 18.5681 2.80212 3.39366 0
M  V30 161 H 15.6871 0.570474 0.466613 0
M  V30 162 H 18.3291 1.80617 0.589706 0
M  V30 163 H 16.4791 2.50342 2.97088 0
M  V30 164 H 18.1511 4.44639 1.22858 0
M  V30 165 H 16.3941 4.19927 1.0883 0
M  V30 166 H 17.0651 4.88448 2.57144 0
M  V30 167 H 19.5411 2.98553 2.89836 0
M  V30 168 H 18.4171 3.61611 4.12951 0
M  V30 169 H 18.6781 1.88393 3.99951 0
M  V30 170 N 17.7372 -0.778329 1.37039 0
M  V30 171 C 18.6852 -1.91278 1.32345 0
M  V30 172 C 19.6792 -1.68051 0.213331 0
M  V30 173 O 20.8852 -1.75922 0.38098 0
M  V30 174 H 17.2602 -0.628909 0.412283 0
M  V30 175 H 19.2312 -1.92355 2.28127 0
M  V30 176 C 17.9802 -3.28455 1.14073 0
M  V30 177 H 17.3032 -3.46901 1.98746 0
M  V30 178 H 18.7432 -4.08152 1.14837 0
M  V30 179 C 17.2022 -3.36548 -0.154015 0
M  V30 180 O 17.7322 -3.85186 -1.13993 0
M  V30 181 N 15.9382 -2.89894 -0.202475 0
M  V30 182 H 15.4852 -2.50504 0.600476 0
M  V30 183 H 15.4432 -2.9569 -1.06841 0
M  V30 184 N 19.2153 -1.21501 -1.00376 0
M  V30 185 C 20.4633 -1.03095 -1.73827 0
M  V30 186 C 20.7843 0.436341 -1.90055 0
M  V30 187 O 20.0543 1.31466 -1.45236 0
M  V30 188 H 18.6343 -0.378487 -0.644016 0
M  V30 189 H 21.2963 -1.52831 -1.20949 0
M  V30 190 H 20.3923 -1.49991 -2.73695 0
M  V30 191 N 20.6934 1.19889 -1.02296 0
M  V30 192 C 21.9214 1.9339 -0.735399 0
M  V30 193 C 22.3364 1.75148 0.704887 0
M  V30 194 O 21.6934 1.06954 1.47875 0
M  V30 195 C 21.7444 3.45313 -1.06962 0
M  V30 196 O 21.4654 3.62964 -2.45334 0
M  V30 197 C 22.9664 4.35948 -0.804021 0
M  V30 198 H 20.1864 0.61448 -0.269546 0
M  V30 199 H 22.7304 1.522 -1.36585 0
M  V30 200 H 20.8854 3.84359 -0.484455 0
M  V30 201 H 21.2994 4.56886 -2.57595 0
M  V30 202 H 22.7734 5.41174 -1.0879 0
M  V30 203 H 23.2504 4.3842 0.261691 0
M  V30 204 H 23.8564 4.02574 -1.37164 0
M  V30 205 N 22.1715 0.800033 1.35784 0
M  V30 206 C 23.5825 0.439142 1.81462 0
M  V30 207 C 23.9335 -1.03813 1.66485 0
M  V30 208 O 23.0585 -1.80626 1.19177 0
M  V30 209 C 23.6535 0.790314 3.29453 0
M  V30 210 C 22.2125 0.482111 3.733 0
M  V30 211 C 21.3595 1.01938 2.57883 0
M  V30 212 H 24.3105 0.992254 1.23855 0
M  V30 213 H 24.3315 0.0853677 3.80404 0
M  V30 214 H 23.8435 1.86554 3.40322 0
M  V30 215 H 21.9445 -0.584652 3.67984 0
M  V30 216 H 22.0575 1.01015 4.6833 0
M  V30 217 H 20.4215 0.442043 2.50835 0
M  V30 218 H 21.2045 2.10059 2.71533 0
M  V30 219 N 23.6496 -1.47581 0.552962 0
M  V30 220 C 24.8956 -2.02782 0.0273648 0
M  V30 221 C 25.2286 -1.42687 -1.31734 0
M  V30 222 O 24.5036 -0.580897 -1.85623 0
M  V30 223 C 24.7866 -3.60031 -0.0702371 0
M  V30 224 C 24.6396 -4.30566 1.30126 0
M  V30 225 C 25.9586 -4.33028 -0.785771 0
M  V30 226 H 23.0776 -0.736912 0.0114185 0
M  V30 227 H 25.7196 -1.76056 0.714432 0
M  V30 228 H 23.8696 -3.82932 -0.655382 0
M  V30 229 H 25.5416 -4.19018 1.92929 0
M  V30 230 H 23.7846 -3.91086 1.87709 0
M  V30 231 H 24.4556 -5.39114 1.18573 0
M  V30 232 H 26.9316 -4.15095 -0.288982 0
M  V30 233 H 25.8076 -5.42695 -0.823013 0
M  V30 234 H 26.0686 -4.01945 -1.841 0
M  V30 235 N 25.1277 -0.289203 -1.54924 0
M  V30 236 C 26.0757 0.607966 -2.24514 0
M  V30 237 C 27.0697 1.14655 -1.24702 0
M  V30 238 O 28.2757 1.09856 -1.4259 0
M  V30 239 H 24.6507 0.21464 -0.720718 0
M  V30 240 H 26.6217 -0.00164182 -2.984 0
M  V30 241 C 25.3707 1.77406 -2.99036 0
M  V30 242 H 24.6937 1.36884 -3.75637 0
M  V30 243 H 26.1337 2.37814 -3.51028 0
M  V30 244 C 24.5927 2.67107 -2.05318 0
M  V30 245 O 25.1227 3.6787 -1.61353 0
M  V30 246 N 23.3287 2.34582 -1.71521 0
M  V30 247 H 22.8757 1.52688 -2.07471 0
M  V30 248 H 22.8337 2.94867 -1.0909 0
M  V30 249 N 26.6058 1.57591 -0.0167156 0
M  V30 250 C 27.5558 2.05953 0.978137 0
M  V30 251 C 28.5398 0.957532 1.29306 0
M  V30 252 O 29.7318 1.22119 1.28125 0
M  V30 253 C 26.8608 2.58006 2.26468 0
M  V30 254 C 25.9468 3.75113 1.97867 0
M  V30 255 N 26.3378 4.86187 1.39486 0
M  V30 256 C 24.6358 3.83363 2.27924 0
M  V30 257 C 25.3368 5.67502 1.27735 0
M  V30 258 N 24.3128 5.14023 1.76866 0
M  V30 259 H 28.1148 2.89236 0.521522 0
M  V30 260 H 25.6288 1.61301 0.188596 0
M  V30 261 H 27.6258 2.90937 2.98599 0
M  V30 262 H 26.2858 1.76148 2.72767 0
M  V30 263 H 27.2968 5.06695 1.07147 0
M  V30 264 H 23.9738 3.1239 2.76982 0
M  V30 265 H 25.3638 6.66791 0.826978 0
M  V30 266 N 28.0839 -0.256276 1.55502 0
M  V30 267 C 29.0159 -1.33981 1.85962 0
M  V30 268 C 30.0289 -1.44743 0.745212 0
M  V30 269 O 31.2179 -1.4626 1.02324 0
M  V30 270 C 28.3179 -2.7194 2.02242 0
M  V30 271 C 27.4909 -2.83562 3.33033 0
M  V30 272 C 26.5499 -4.02304 3.39172 0
M  V30 273 O 25.5759 -3.92273 4.12444 0
M  V30 274 N 26.7779 -5.15045 2.67784 0
M  V30 275 H 29.5429 -1.08191 2.7949 0
M  V30 276 H 27.1039 -0.446388 1.55624 0
M  V30 277 H 29.0959 -3.49697 2.03701 0
M  V30 278 H 27.6659 -2.90479 1.15502 0
M  V30 279 H 26.8859 -1.92555 3.43971 0
M  V30 280 H 28.1739 -2.88271 4.19258 0
M  V30 281 H 27.5719 -5.26085 2.07968 0
M  V30 282 H 26.1289 -5.90972 2.74947 0
M  V30 283 N 29.562 -1.4872 -0.521534 0
M  V30 284 C 30.973 -1.50607 -1.10337 0
M  V30 285 C 31.324 -0.280612 -1.94183 0
M  V30 286 O 30.449 0.611507 -2.0758 0
M  V30 287 C 31.044 -2.72903 -2.00772 0
M  V30 288 C 29.603 -2.77634 -2.54158 0
M  V30 289 C 28.75 -2.44241 -1.31307 0
M  V30 290 H 31.701 -1.55714 -0.306388 0
M  V30 291 H 31.722 -2.519 -2.85178 0
M  V30 292 H 31.234 -3.62077 -1.39721 0
M  V30 293 H 29.335 -1.92689 -3.18907 0
M  V30 294 H 29.448 -3.79283 -2.92714 0
M  V30 295 H 27.812 -1.95577 -1.63161 0
M  V30 296 H 28.595 -3.35666 -0.719943 0
M  V30 297 N 31.0401 0.771051 -1.3745 0
M  V30 298 C 31.9701 1.89827 -1.3597 0
M  V30 299 C 32.9511 1.68562 -0.228216 0
M  V30 300 O 34.1361 1.8941 -0.428675 0
M  V30 301 C 31.2661 3.2712 -1.16662 0
M  V30 302 C 30.2201 3.6295 -2.2683 0
M  V30 303 C 29.5461 4.98791 -1.92644 0
M  V30 304 C 30.8461 3.69627 -3.69017 0
M  V30 305 H 32.5401 1.91323 -2.30295 0
M  V30 306 H 30.0861 0.919082 -1.10855 0
M  V30 307 H 32.0391 4.05615 -1.14256 0
M  V30 308 H 30.7631 3.26059 -0.187926 0
M  V30 309 H 29.4221 2.86763 -2.28392 0
M  V30 310 H 29.0701 4.94271 -0.933021 0
M  V30 311 H 28.7701 5.23733 -2.66416 0
M  V30 312 H 30.2941 5.79685 -1.91826 0
M  V30 313 H 31.7081 4.38273 -3.69581 0
M  V30 314 H 30.1051 4.06067 -4.41848 0
M  V30 315 H 31.1751 2.70273 -4.02592 0
M  V30 316 N 32.5182 1.22032 0.997298 0
M  V30 317 C 33.4282 1.00271 2.12092 0
M  V30 318 C 34.4442 -0.047621 1.73935 0
M  V30 319 O 35.6202 0.144136 2.00884 0
M  V30 320 C 32.6852 0.578449 3.4184 0
M  V30 321 C 31.7462 1.70189 3.94125 0
M  V30 322 C 30.9792 1.29778 5.17681 0
M  V30 323 O 31.2022 0.174676 5.70132 0
M  V30 324 O 30.1362 2.11261 5.63607 0
M  V30 325 H 33.9622 1.94398 2.3333 0
M  V30 326 H 31.5472 1.00587 1.10465 0
M  V30 327 H 33.4292 0.351998 4.19927 0
M  V30 328 H 32.1042 -0.334019 3.21972 0
M  V30 329 H 31.0112 1.98282 3.1723 0
M  V30 330 H 32.3442 2.59206 4.18417 0
M  V30 331 N 33.9963 -1.19345 1.0293 0
M  V30 332 C 35.4123 -1.41069 0.746446 0
M  V30 333 C 35.6123 -1.90078 -0.668776 0
M  V30 334 O 34.6683 -2.0778 -1.4347 0
M  V30 335 C 35.9813 -2.42141 1.78292 0
M  V30 336 C 37.5293 -2.55887 1.80252 0
M  V30 337 C 38.0043 -3.60214 2.8286 0
M  V30 338 N 39.4953 -3.67711 2.81679 0
M  V30 339 C 40.2303 -4.48128 3.57727 0
M  V30 340 N 39.7263 -5.32248 4.43491 0
M  V30 341 N 41.5193 -4.42782 3.46267 0
M  V30 342 H 33.6703 -0.858536 1.94275 0
M  V30 343 H 35.9333 -0.439541 0.839945 0
M  V30 344 H 35.6393 -2.13155 2.79746 0
M  V30 345 H 35.5133 -3.41323 1.60557 0
M  V30 346 H 37.9003 -2.84196 0.794757 0
M  V30 347 H 37.9813 -1.56858 2.02062 0
M  V30 348 H 37.6253 -3.32647 3.83807 0
M  V30 349 H 37.5553 -4.58895 2.58307 0
M  V30 350 H 40.0463 -3.07634 2.19476 0
M  V30 351 H 40.3593 -5.90729 4.98256 0
M  V30 352 H 38.7043 -5.31707 4.47564 0
M  V30 353 H 41.8953 -3.76107 2.78677 0
M  V30 354 H 42.0683 -5.05215 4.05785 0
M  V30 355 N 35.4744 -0.807222 -1.35358 0
M  V30 356 C 36.4244 -0.190706 -2.27201 0
M  V30 357 C 37.4084 0.635838 -1.47804 0
M  V30 358 O 38.6004 0.492991 -1.69996 0
M  V30 359 C 35.7294 0.659337 -3.36909 0
M  V30 360 C 34.8154 -0.176971 -4.23731 0
M  V30 361 N 35.2064 -1.24029 -4.90357 0
M  V30 362 C 33.5044 0.0412953 -4.45981 0
M  V30 363 C 34.2054 -1.75092 -5.54723 0
M  V30 364 N 33.1814 -1.05727 -5.33219 0
M  V30 365 H 36.9834 -1.0043 -2.76208 0
M  V30 366 H 34.4974 -0.648445 -1.48892 0
M  V30 367 H 36.4944 1.11706 -4.01656 0
M  V30 368 H 35.1544 1.47127 -2.89454 0
M  V30 369 H 36.1654 -1.62295 -4.91814 0
M  V30 370 H 32.8424 0.82232 -4.09322 0
M  V30 371 H 34.2324 -2.63963 -6.17878 0
M  V30 372 N 36.9525 1.47285 -0.560781 0
M  V30 373 C 38.3685 1.58065 -0.22081 0
M  V30 374 C 38.5685 1.55892 1.27671 0
M  V30 375 O 37.6245 1.46422 2.0571 0
M  V30 376 C 38.9375 2.88418 -0.850625 0
M  V30 377 C 40.4855 3.02009 -0.822184 0
M  V30 378 C 40.9605 4.35066 -1.43113 0
M  V30 379 N 42.4515 4.41711 -1.39448 0
M  V30 380 C 43.1865 5.43237 -1.83525 0
M  V30 381 N 42.6825 6.51555 -2.35474 0
M  V30 382 N 44.4755 5.34304 -1.74574 0
M  V30 383 H 36.6265 1.46941 -1.53369 0
M  V30 384 H 38.8895 0.699558 -0.639783 0
M  V30 385 H 38.5955 2.95755 -1.9032 0
M  V30 386 H 38.4695 3.75612 -0.345773 0
M  V30 387 H 40.8565 2.94266 0.221714 0
M  V30 388 H 40.9375 2.16347 -1.36483 0
M  V30 389 H 40.5815 4.43565 -2.47412 0
M  V30 390 H 40.5115 5.19465 -0.863899 0
M  V30 391 H 43.0025 3.64027 -1.01452 0
M  V30 392 H 43.3155 7.25203 -2.67021 0
M  V30 393 H 41.6605 6.52435 -2.39487 0
M  V30 394 H 44.8515 4.48581 -1.33763 0
M  V30 395 H 45.0245 6.13288 -2.09242 0
M  V30 396 N 38.4306 0.297415 1.54768 0
M  V30 397 C 39.3606 -0.573494 2.26348 0
M  V30 398 C 40.3416 -1.14085 1.26169 0
M  V30 399 O 41.5266 -1.17086 1.54934 0
M  V30 400 C 38.6566 -1.74716 3.00153 0
M  V30 401 C 37.6106 -1.31032 4.07449 0
M  V30 402 C 36.9366 -2.56887 4.68949 0
M  V30 403 C 38.2366 -0.444183 5.20408 0
M  V30 404 H 39.9306 0.0235131 2.99391 0
M  V30 405 H 37.4766 0.0127488 1.43994 0
M  V30 406 H 39.4296 -2.3625 3.48947 0
M  V30 407 H 38.1536 -2.37035 2.24682 0
M  V30 408 H 36.8126 -0.718066 3.59499 0
M  V30 409 H 36.4606 -3.17512 3.90122 0
M  V30 410 H 36.1606 -2.2836 5.41411 0
M  V30 411 H 37.6846 -3.19229 5.20505 0
M  V30 412 H 39.0986 -0.9651 5.65118 0
M  V30 413 H 37.4956 -0.252846 5.99567 0
M  V30 414 H 38.5656 0.531609 4.81977 0
M  V30 415 N 39.9087 -1.5758 0.0250728 0
M  V30 416 C 41.1547 -1.92746 -0.649648 0
M  V30 417 C 41.5097 -0.901588 -1.69968 0
M  V30 418 O 40.8027 0.0829251 -1.9142 0
M  V30 419 C 40.9967 -3.32421 -1.31268 0
M  V30 420 C 40.8257 -4.48499 -0.328394 0
M  V30 421 C 39.5957 -5.05251 0.070284 0
M  V30 422 C 41.7937 -5.12618 0.415665 0
M  V30 423 N 39.7757 -6.04851 1.05016 0
M  V30 424 C 41.1467 -6.0728 1.24943 0
M  V30 425 C 43.2017 -4.95612 0.476803 0
M  V30 426 C 41.9047 -6.86766 2.1388 0
M  V30 427 C 43.9307 -5.75703 1.3535 0
M  V30 428 C 43.2927 -6.69978 2.17504 0
M  V30 429 H 39.3917 -0.753231 -0.210159 0
M  V30 430 H 41.9757 -1.94486 0.0912999 0
M  V30 431 H 40.1467 -3.31508 -2.02379 0
M  V30 432 H 41.8787 -3.54946 -1.94411 0
M  V30 433 H 38.6337 -4.72628 -0.303323 0
M  V30 434 H 39.0577 -6.5934 1.53622 0
M  V30 435 H 43.6997 -4.22554 -0.144105 0
M  V30 436 H 41.4177 -7.59132 2.77027 0
M  V30 437 H 45.0037 -5.64579 1.40504 0
M  V30 438 H 43.8837 -7.30873 2.84244 0
M  V30 439 N 41.3868 0.248026 -1.55636 0
M  V30 440 C 42.2968 1.32859 -1.93354 0
M  V30 441 C 43.3128 1.52719 -0.833838 0
M  V30 442 O 44.4888 1.66363 -1.13513 0
M  V30 443 C 41.5538 2.66337 -2.21958 0
M  V30 444 C 40.6148 2.55008 -3.45354 0
M  V30 445 C 39.8478 3.82121 -3.72584 0
M  V30 446 O 40.0708 4.83951 -3.01907 0
M  V30 447 O 39.0048 3.80822 -4.6611 0
M  V30 448 H 42.8308 1.03862 -2.85388 0
M  V30 449 H 40.4158 0.448686 -1.42503 0
M  V30 450 H 42.2978 3.45216 -2.4167 0
M  V30 451 H 40.9728 2.95068 -1.33103 0
M  V30 452 H 39.8798 1.7442 -3.30951 0
M  V30 453 H 41.2128 2.31222 -4.34508 0
M  V30 454 N 42.8649 1.48995 0.513639 0
M  V30 455 C 44.1109 1.58076 1.27042 0
M  V30 456 C 44.4439 0.261026 1.92438 0
M  V30 457 O 43.7189 -0.734393 1.80103 0
M  V30 458 C 44.0019 2.73091 2.34719 0
M  V30 459 C 43.8549 4.14821 1.73907 0
M  V30 460 C 45.1739 2.83796 3.36375 0
M  V30 461 H 42.2929 0.575391 0.460536 0
M  V30 462 H 44.9349 1.81232 0.570516 0
M  V30 463 H 43.0849 2.53479 2.94416 0
M  V30 464 H 44.7569 4.45917 1.18135 0
M  V30 465 H 42.9999 4.21058 1.0437 0
M  V30 466 H 43.6709 4.91147 2.51949 0
M  V30 467 H 46.1469 3.01611 2.86653 0
M  V30 468 H 45.0229 3.65971 4.09093 0
M  V30 469 H 45.2839 1.92624 3.9793 0
M  V30 470 N 44.343 -0.763751 1.37857 0
M  V30 471 C 45.592 -1.51789 1.32827 0
M  V30 472 C 45.905 -1.95426 -0.0823719 0
M  V30 473 O 47.111 -2.70298 -0.255172 0
M  V30 474 C 45.567 -2.74133 2.33193 0
M  V30 475 C 45.175 -2.37562 3.79827 0
M  V30 476 C 46.919 -3.52054 2.37188 0
M  V30 477 C 44.826 -3.56456 4.71904 0
M  V30 478 H 43.756 -0.569896 0.493695 0
M  V30 479 H 46.407 -0.835822 1.63359 0
M  V30 480 H 44.789 -3.4427 1.9569 0
M  V30 481 H 45.963 -1.75157 4.26212 0
M  V30 482 H 44.278 -1.72798 3.78853 0
M  V30 483 H 46.875 -4.40437 3.03182 0
M  V30 484 H 47.218 -3.92486 1.38782 0
M  V30 485 H 47.751 -2.88921 2.7344 0
M  V30 486 H 44.49 -3.21099 5.71468 0
M  V30 487 H 44.01 -4.17938 4.30218 0
M  V30 488 H 45.689 -4.23168 4.89426 0
M  V30 489 N 45.8211 -1.22559 -0.990812 0
M  V30 490 C 47.0491 -1.07779 -1.76611 0
M  V30 491 C 47.4641 0.371513 -1.85109 0
M  V30 492 O 46.8211 1.25737 -1.32274 0
M  V30 493 C 46.8721 -1.68512 -3.19822 0
M  V30 494 O 46.5931 -3.07774 -3.1178 0
M  V30 495 C 48.0941 -1.59035 -4.13791 0
M  V30 496 H 45.3141 -0.377729 -0.554583 0
M  V30 497 H 47.8581 -1.62195 -1.24551 0
M  V30 498 H 46.0131 -1.18154 -3.68942 0
M  V30 499 H 46.4271 -3.37062 -4.01858 0
M  V30 500 H 47.9011 -2.0625 -5.1202 0
M  V30 501 H 48.3781 -0.547273 -4.35777 0
M  V30 502 H 48.9841 -2.08709 -3.70568 0
M  V30 503 N 47.2992 1.18797 -1.03562 0
M  V30 504 C 48.5482 1.87978 -0.731235 0
M  V30 505 C 48.8612 1.80911 0.743671 0
M  V30 506 O 50.0672 2.45407 1.16137 0
M  V30 507 C 48.5232 3.3721 -1.25768 0
M  V30 508 C 48.1312 3.52818 -2.76085 0
M  V30 509 C 49.8752 4.11825 -1.0296 0
M  V30 510 C 47.7822 4.9598 -3.22114 0
M  V30 511 H 46.7122 0.704063 -0.269835 0
M  V30 512 H 49.3632 1.34266 -1.25079 0
M  V30 513 H 47.7452 3.90359 -0.666011 0
M  V30 514 H 48.9192 3.09965 -3.40966 0
M  V30 515 H 47.2342 2.91602 -2.97249 0
M  V30 516 H 49.8312 5.17411 -1.34869 0
M  V30 517 H 50.1742 4.16287 0.0333546 0
M  V30 518 H 50.7072 3.64833 -1.58562 0
M  V30 519 H 47.4462 4.96684 -4.27768 0
M  V30 520 H 46.9662 5.39569 -2.61965 0
M  V30 521 H 48.6452 5.6467 -3.15844 0
M  V30 522 N 48.7773 0.814389 1.34928 0
M  V30 523 C 49.7403 0.235759 2.27984 0
M  V30 524 C 50.7403 -0.581412 1.49921 0
M  V30 525 O 51.9303 -0.398758 1.69575 0
M  V30 526 C 49.0623 -0.670433 3.34242 0
M  V30 527 H 50.2553 1.05659 2.80671 0
M  V30 528 H 47.8083 0.585614 1.44915 0
M  V30 529 H 48.5433 -1.51466 2.86755 0
M  V30 530 H 48.3283 -0.0860822 3.92005 0
M  V30 531 H 49.8183 -1.06935 4.03676 0
M  V30 532 N 50.2554 -1.46986 0.568584 0
M  V30 533 C 51.2184 -2.28624 -0.162366 0
M  V30 534 C 52.2184 -1.37596 -0.832103 0
M  V30 535 O 53.4084 -1.60115 -0.68622 0
M  V30 536 C 50.5404 -3.17596 -1.23878 0
M  V30 537 H 51.7334 -2.94722 0.554899 0
M  V30 538 H 49.2864 -1.52863 0.325976 0
M  V30 539 H 50.0214 -2.56214 -1.98808 0
M  V30 540 H 49.8064 -3.846 -0.763219 0
M  V30 541 H 51.2964 -3.79078 -1.75185 0
M  V30 542 N 51.7335 -0.305618 -1.54608 0
M  V30 543 C 52.9795 0.302746 -2.00528 0
M  V30 544 C 53.3125 1.53184 -1.19367 0
M  V30 545 O 52.5875 1.92598 -0.271321 0
M  V30 546 C 52.8705 0.654756 -3.54097 0
M  V30 547 C 52.7235 -0.583793 -4.45995 0
M  V30 548 C 54.0425 1.47947 -4.14487 0
M  V30 549 H 51.1615 0.108564 -0.72896 0
M  V30 550 H 53.8035 -0.418634 -1.85331 0
M  V30 551 H 51.9535 1.26935 -3.67178 0
M  V30 552 H 53.6255 -1.22224 -4.44814 0
M  V30 553 H 51.8685 -1.21615 -4.16404 0
M  V30 554 H 52.5395 -0.293287 -5.5122 0
M  V30 555 H 55.0155 0.96013 -4.04871 0
M  V30 556 H 53.8915 1.69454 -5.22088 0
M  V30 557 H 54.1525 2.47011 -3.66658 0
M  V30 558 N 53.2116 1.57565 -0.0334293 0
M  V30 559 C 54.4396 1.9628 0.654347 0
M  V30 560 C 54.8546 0.910138 1.65414 0
M  V30 561 O 54.2116 -0.107595 1.82183 0
M  V30 562 C 54.2626 3.35067 1.35693 0
M  V30 563 O 53.9836 4.36296 0.397191 0
M  V30 564 C 55.4846 3.88439 2.13613 0
M  V30 565 H 52.7046 0.646369 0.180132 0
M  V30 566 H 55.2486 2.04282 -0.0944721 0
M  V30 567 H 53.4036 3.2827 2.05712 0
M  V30 568 H 53.8176 5.1678 0.896597 0
M  V30 569 H 55.2916 4.8788 2.58219 0
M  V30 570 H 55.7686 3.22914 2.97696 0
M  V30 571 H 56.3746 3.98516 1.48543 0
M  V30 572 N 54.6897 -0.239769 1.55765 0
M  V30 573 C 55.6527 -1.28038 1.90103 0
M  V30 574 C 56.6527 -1.40723 0.778055 0
M  V30 575 O 57.8427 -1.39301 1.04599 0
M  V30 576 C 54.9747 -2.65702 2.13577 0
M  V30 577 H 56.1677 -0.988048 2.83157 0
M  V30 578 H 53.7207 -0.479382 1.48767 0
M  V30 579 H 54.4557 -3.00063 1.23015 0
M  V30 580 H 54.2407 -2.57875 2.95369 0
M  V30 581 H 55.7307 -3.40828 2.41301 0
M  V30 582 N 56.1678 -1.49265 -0.50573 0
M  V30 583 C 57.4138 -1.58748 -1.26202 0
M  V30 584 C 57.7468 -0.271227 -1.92297 0
M  V30 585 O 57.0218 0.724831 -1.80489 0
M  V30 586 C 57.3048 -2.74332 -2.33268 0
M  V30 587 C 57.1578 -4.15737 -1.71705 0
M  V30 588 C 58.4768 -2.85576 -3.34865 0
M  V30 589 H 55.5958 -0.577826 -0.457478 0
M  V30 590 H 58.2378 -1.81532 -0.560897 0
M  V30 591 H 56.3878 -2.55036 -2.93068 0
M  V30 592 H 58.0598 -4.46537 -1.15769 0
M  V30 593 H 56.3028 -4.21605 -1.02135 0
M  V30 594 H 56.9738 -4.92477 -2.49341 0
M  V30 595 H 59.4498 -3.03127 -2.8505 0
M  V30 596 H 58.3258 -3.68135 -4.07146 0
M  V30 597 H 58.5868 -1.94732 -3.96903 0
M  V30 598 N 57.6459 0.756429 -1.3826 0
M  V30 599 C 58.8919 1.51772 -1.34511 0
M  V30 600 C 59.2249 1.94089 0.0656691 0
M  V30 601 O 58.4999 1.65221 1.02626 0
M  V30 602 C 58.7829 2.77226 -2.29821 0
M  V30 603 C 58.6359 2.41065 -3.79747 0
M  V30 604 C 59.9549 3.79236 -2.23312 0
M  V30 605 H 57.0739 0.550578 -0.489931 0
M  V30 606 H 59.7159 0.866607 -1.69086 0
M  V30 607 H 57.8659 3.32784 -2.00467 0
M  V30 608 H 59.5379 1.91303 -4.19763 0
M  V30 609 H 57.7809 1.7356 -3.97567 0
M  V30 610 H 58.4519 3.3081 -4.41892 0
M  V30 611 H 60.9279 3.3321 -2.49219 0
M  V30 612 H 59.8039 4.64714 -2.92116 0
M  V30 613 H 60.0649 4.24615 -1.23102 0
M  V30 614 N 59.124 1.23083 0.984299 0
M  V30 615 C 60.349 1.088 1.76571 0
M  V30 616 C 60.774 -0.356657 1.84688 0
M  V30 617 O 60.132 -1.25788 1.30565 0
M  V30 618 C 60.18 1.71371 3.17277 0
M  V30 619 O 59.284 0.973213 4.00752 0
M  V30 620 H 58.625 0.381599 0.543395 0
M  V30 621 H 61.155 1.63057 1.23587 0
M  V30 622 H 61.165 1.76449 3.67872 0
M  V30 623 H 59.84 2.76493 3.10684 0
M  V30 624 H 58.417 0.999078 3.59267 0
M  V30 625 N 60.6021 -1.18246 1.0419 0
M  V30 626 C 61.5321 -2.24127 0.654914 0
M  V30 627 C 62.5131 -1.66617 -0.342451 0
M  V30 628 O 63.6981 -1.92924 -0.222277 0
M  V30 629 C 60.8281 -3.47295 0.0183757 0
M  V30 630 C 59.7821 -4.17563 0.939414 0
M  V30 631 C 59.1081 -5.34438 0.167286 0
M  V30 632 C 60.4081 -4.70917 2.25908 0
M  V30 633 H 62.1021 -2.56753 1.54007 0
M  V30 634 H 59.6481 -1.23414 0.74195 0
M  V30 635 H 61.6011 -4.20572 -0.264082 0
M  V30 636 H 60.3251 -3.13907 -0.901664 0
M  V30 637 H 58.9841 -3.46186 1.20628 0
M  V30 638 H 58.6321 -4.97298 -0.7552 0
M  V30 639 H 58.3321 -5.82388 0.780901 0
M  V30 640 H 59.8561 -6.10504 -0.108125 0
M  V30 641 H 61.2701 -5.35882 2.03724 0
M  V30 642 H 59.6671 -5.29406 2.82577 0
M  V30 643 H 60.7371 -3.88272 2.9047 0
M  V30 644 N 62.0802 -0.821533 -1.34494 0
M  V30 645 C 63.3292 -0.405355 -1.97585 0
M  V30 646 C 63.6422 1.03677 -1.65863 0
M  V30 647 O 64.8482 1.55679 -2.22433 0
M  V30 648 C 63.3042 -0.673861 -3.53535 0
M  V30 649 C 62.9122 -2.12951 -3.94152 0
M  V30 650 C 64.6562 -0.32378 -4.23263 0
M  V30 651 C 62.5632 -2.34298 -5.43009 0
M  V30 652 H 61.4932 -0.147836 -0.739365 0
M  V30 653 H 64.1442 -1.00769 -1.53355 0
M  V30 654 H 62.5262 -0.00137554 -3.96 0
M  V30 655 H 63.7002 -2.84104 -3.62797 0
M  V30 656 H 62.0152 -2.44089 -3.37356 0
M  V30 657 H 64.6122 -0.461126 -5.32708 0
M  V30 658 H 64.9552 0.731586 -4.09821 0
M  V30 659 H 65.4882 -0.950786 -3.8627 0
M  V30 660 H 62.2272 -3.38335 -5.61435 0
M  V30 661 H 61.7472 -1.67687 -5.75883 0
M  V30 662 H 63.4262 -2.16588 -6.09671 0
M  V30 663 N 63.5583 1.46682 -0.576371 0
M  V30 664 C 64.7863 2.06798 -0.0649635 0
M  V30 665 C 65.2013 1.42612 1.23723 0
M  V30 666 O 64.5583 0.529203 1.74659 0
M  V30 667 C 64.6093 3.6132 0.114202 0
M  V30 668 O 64.3303 4.23104 -1.13644 0
M  V30 669 C 65.8313 4.38349 0.66069 0
M  V30 670 H 63.0513 0.668778 -0.0545616 0
M  V30 671 H 65.5953 1.88404 -0.795237 0
M  V30 672 H 63.7503 3.79162 0.794673 0
M  V30 673 H 64.1643 5.15894 -0.946253 0
M  V30 674 H 65.6383 5.47081 0.73526 0
M  V30 675 H 66.1153 4.05953 1.67627 0
M  V30 676 H 66.7213 4.25297 0.0152951 0
M  V30 677 N 65.0364 0.313813 1.54444 0
M  V30 678 C 66.2854 -0.292519 1.99568 0
M  V30 679 C 66.5984 -1.54011 1.20582 0
M  V30 680 O 67.8044 -2.22183 1.56035 0
M  V30 681 C 66.2604 -0.571752 3.55329 0
M  V30 682 C 65.8684 0.658229 4.43138 0
M  V30 683 C 67.6124 -1.13857 4.08946 0
M  V30 684 C 65.5194 0.351439 5.90355 0
M  V30 685 H 64.4494 -0.113079 0.745472 0
M  V30 686 H 67.1004 0.424518 1.78522 0
M  V30 687 H 65.4824 -1.34872 3.72325 0
M  V30 688 H 66.6564 1.43403 4.37918 0
M  V30 689 H 64.9714 1.14458 4.0036 0
M  V30 690 H 67.5684 -1.38257 5.16516 0
M  V30 691 H 67.9114 -2.08489 3.6033 0
M  V30 692 H 68.4444 -0.423015 3.95544 0
M  V30 693 H 65.1834 1.26667 6.43145 0
M  V30 694 H 64.7034 -0.386842 5.98551 0
M  V30 695 H 66.3824 -0.0423134 6.46986 0
M  V30 696 N 66.5145 -1.57545 0.0417849 0
M  V30 697 C 67.7605 -1.92601 -0.635021 0
M  V30 698 C 68.0935 -0.919627 -1.71045 0
M  V30 699 O 67.3685 0.0557892 -1.9442 0
M  V30 700 C 67.6515 -3.38085 -1.23979 0
M  V30 701 C 67.5045 -4.49467 -0.173057 0
M  V30 702 C 68.8235 -3.83776 -2.15416 0
M  V30 703 H 65.9425 -0.700397 -0.229374 0
M  V30 704 H 68.5845 -1.89728 0.101633 0
M  V30 705 H 66.7345 -3.40664 -1.86762 0
M  V30 706 H 68.4065 -4.59018 0.458312 0
M  V30 707 H 66.6495 -4.30909 0.499996 0
M  V30 708 H 67.3205 -5.48323 -0.636054 0
M  V30 709 H 69.7965 -3.83013 -1.62605 0
M  V30 710 H 68.6725 -4.8624 -2.54679 0
M  V30 711 H 68.9335 -3.19998 -3.05047 0
M  V30 712 N 67.9926 0.231505 -1.5589 0
M  V30 713 C 69.2406 0.955461 -1.78088 0
M  V30 714 C 69.5616 1.85262 -0.608533 0
M  V30 715 O 68.8316 1.92277 0.375035 0
M  V30 716 H 67.4116 0.355787 -0.656829 0
M  V30 717 H 70.0736 0.245751 -1.93344 0
M  V30 718 H 69.1696 1.56814 -2.69844 0
M  V30 719 N 69.4707 1.49531 0.497807 0
M  V30 720 C 70.4187 1.66926 1.61983 0
M  V30 721 C 71.4127 0.535167 1.60724 0
M  V30 722 O 72.6187 0.714896 1.65195 0
M  V30 723 H 68.9937 0.526415 0.537021 0
M  V30 724 H 70.9647 2.61098 1.44465 0
M  V30 725 C 69.7137 1.75602 3.00099 0
M  V30 726 H 69.0367 2.62244 3.01775 0
M  V30 727 H 70.4767 1.91807 3.78135 0
M  V30 728 C 68.9357 0.501543 3.33146 0
M  V30 729 O 69.4657 -0.371342 3.9998 0
M  V30 730 N 67.6717 0.363531 2.88317 0
M  V30 731 H 67.2187 1.07485 2.34104 0
M  V30 732 H 67.1767 -0.474728 3.10795 0
M  V30 733 N 70.9488 -0.749086 1.3866 0
M  V30 734 C 72.1948 -1.51056 1.35314 0
M  V30 735 C 72.5278 -1.94121 -0.0553751 0
M  V30 736 O 71.8028 -1.65763 -1.01749 0
M  V30 737 C 72.0858 -2.76003 2.31288 0
M  V30 738 C 71.9388 -2.39047 3.8102 0
M  V30 739 C 73.2578 -3.78046 2.2532 0
M  V30 740 H 70.3768 -0.547972 0.492844 0
M  V30 741 H 73.0188 -0.857628 1.69543 0
M  V30 742 H 71.1688 -3.31716 2.02229 0
M  V30 743 H 72.8408 -1.89074 4.20771 0
M  V30 744 H 71.0838 -1.71449 3.98482 0
M  V30 745 H 71.7548 -3.28462 4.4364 0
M  V30 746 H 74.2308 -3.31884 2.50983 0
M  V30 747 H 73.1068 -4.63159 2.94576 0
M  V30 748 H 73.3678 -4.23957 1.25352 0
M  V30 749 N 72.4269 -1.23603 -0.977757 0
M  V30 750 C 73.3569 -1.04401 -2.0886 0
M  V30 751 C 74.3379 0.0399052 -1.70053 0
M  V30 752 O 75.5229 -0.125246 -1.93796 0
M  V30 753 C 72.6529 -0.637269 -3.41403 0
M  V30 754 C 71.6069 -1.66883 -3.94124 0
M  V30 755 C 70.9329 -1.11745 -5.22893 0
M  V30 756 C 72.2329 -3.06247 -4.23096 0
M  V30 757 H 73.9269 -1.97316 -2.25182 0
M  V30 758 H 71.4729 -0.950096 -1.08209 0
M  V30 759 H 73.4259 -0.48998 -4.18542 0
M  V30 760 H 72.1499 0.327557 -3.24953 0
M  V30 761 H 70.8089 -1.80416 -3.19133 0
M  V30 762 H 70.4569 -0.143527 -5.02795 0
M  V30 763 H 70.1569 -1.80672 -5.59134 0
M  V30 764 H 71.6809 -0.982067 -6.02651 0
M  V30 765 H 73.0949 -2.96001 -4.90975 0
M  V30 766 H 71.4919 -3.72436 -4.70544 0
M  V30 767 H 72.5619 -3.55041 -3.30263 0
M  V30 768 N 73.905 1.17692 -1.04816 0
M  V30 769 C 75.151 1.88137 -0.75711 0
M  V30 770 C 75.484 1.80604 0.713841 0
M  V30 771 O 74.759 1.21146 1.52164 0
M  V30 772 C 75.042 3.38318 -1.2334 0
M  V30 773 C 74.895 3.54622 -2.76701 0
M  V30 774 C 76.214 4.32214 -0.829415 0
M  V30 775 H 73.333 0.683163 -0.27651 0
M  V30 776 H 75.975 1.38424 -1.30149 0
M  V30 777 H 74.125 3.80787 -0.770286 0
M  V30 778 H 75.797 3.21194 -3.31107 0
M  V30 779 H 74.04 2.97026 -3.16161 0
M  V30 780 H 74.711 4.60028 -3.05088 0
M  V30 781 H 77.187 3.97565 -1.22805 0
M  V30 782 H 76.063 5.35838 -1.19033 0
M  V30 783 H 76.324 4.41294 0.266891 0
M  V30 784 N 75.3831 0.828654 1.34056 0
M  V30 785 C 76.3161 0.199763 2.27324 0
M  V30 786 C 77.2941 -0.647168 1.49166 0
M  V30 787 O 78.4781 -0.609661 1.78369 0
M  V30 788 C 75.6051 -0.720455 3.30949 0
M  V30 789 C 74.6511 0.0496888 4.26471 0
M  V30 790 S 75.4841 1.40072 5.16856 0
M  V30 791 C 76.6401 0.485527 6.24014 0
M  V30 792 H 76.8731 0.990478 2.80316 0
M  V30 793 H 74.4061 0.624857 1.41191 0
M  V30 794 H 76.3641 -1.24581 3.91139 0
M  V30 795 H 75.0251 -1.48474 2.76793 0
M  V30 796 H 74.2181 -0.650104 4.9979 0
M  V30 797 H 73.8201 0.505779 3.70564 0
M  V30 798 H 76.1121 -0.320672 6.76741 0
M  V30 799 H 77.0551 1.18856 6.98054 0
M  V30 800 H 77.4631 0.0714109 5.64455 0
M  V30 801 N 76.8612 -1.46375 0.584142 0
M  V30 802 C 78.1102 -2.01585 0.0679741 0
M  V30 803 C 78.4232 -1.46109 -1.30045 0
M  V30 804 O 79.6292 -1.93148 -1.90804 0
M  V30 805 C 78.0852 -3.5983 0.0709207 0
M  V30 806 C 77.6932 -4.24303 1.43775 0
M  V30 807 C 79.4372 -4.22693 -0.391228 0
M  V30 808 C 77.3442 -5.74631 1.39834 0
M  V30 809 H 76.2742 -0.753689 0.0216421 0
M  V30 810 H 78.9252 -1.68093 0.736001 0
M  V30 811 H 77.3072 -3.90405 -0.663299 0
M  V30 812 H 78.4812 -4.05335 2.19181 0
M  V30 813 H 76.7962 -3.73539 1.84004 0
M  V30 814 H 79.3932 -5.3289 -0.439524 0
M  V30 815 H 79.7362 -3.91728 -1.40906 0
M  V30 816 H 80.2692 -3.96749 0.288974 0
M  V30 817 H 77.0082 -6.10258 2.39303 0
M  V30 818 H 76.5282 -5.95858 0.686505 0
M  V30 819 H 78.2072 -6.37375 1.11187 0
M  V30 820 N 78.3393 -0.321999 -1.54275 0
M  V30 821 C 79.5643 0.285791 -2.05422 0
M  V30 822 C 79.9893 1.45124 -1.19669 0
M  V30 823 O 79.3473 1.80132 -0.205441 0
M  V30 824 C 79.3953 0.69956 -3.53749 0
M  V30 825 O 78.4993 1.8021 -3.70942 0
M  V30 826 H 77.8403 0.0518962 -0.661969 0
M  V30 827 H 80.3703 -0.469954 -1.9913 0
M  V30 828 H 80.3803 0.982649 -3.9599 0
M  V30 829 H 79.0553 -0.152864 -4.15619 0
M  V30 830 H 77.6323 1.51794 -3.40607 0
M  V30 831 N 79.8174 1.5752 -0.0501392 0
M  V30 832 C 81.0644 1.9265 0.623874 0
M  V30 833 C 81.3924 0.928411 1.70912 0
M  V30 834 O 80.6474 -0.0594525 1.9561 0
M  V30 835 C 80.9464 3.34467 1.25963 0
M  V30 836 C 80.6124 4.49883 0.302689 0
M  V30 837 C 79.2744 4.81184 0.0393636 0
M  V30 838 C 81.6264 5.20002 -0.353205 0
M  V30 839 C 78.9544 5.79951 -0.887308 0
M  V30 840 C 81.3064 6.1976 -1.26806 0
M  V30 841 C 79.9704 6.49491 -1.54007 0
M  V30 842 H 79.2404 0.704957 0.228292 0
M  V30 843 H 81.8874 1.91146 -0.116398 0
M  V30 844 H 80.1924 3.32333 2.07514 0
M  V30 845 H 81.8894 3.58928 1.78806 0
M  V30 846 H 78.4794 4.25457 0.518109 0
M  V30 847 H 82.6634 4.96033 -0.162854 0
M  V30 848 H 77.9194 6.01322 -1.10553 0
M  V30 849 H 82.0934 6.73205 -1.78236 0
M  V30 850 H 79.7204 7.25837 -2.25976 0
M  V30 851 N 81.2955 -0.223234 1.56011 0
M  V30 852 C 82.2425 -1.27664 1.92277 0
M  V30 853 C 83.2125 -1.46659 0.779763 0
M  V30 854 O 84.3975 -1.60256 1.03551 0
M  V30 855 C 81.5375 -2.62234 2.24338 0
M  V30 856 C 80.6505 -2.51051 3.51564 0
M  V30 857 C 79.7855 -3.78133 3.7308 0
M  V30 858 C 78.8245 -3.61665 4.93827 0
M  V30 859 N 77.9615 -4.80693 5.11741 0
M  V30 860 H 82.8015 -0.960358 2.82101 0
M  V30 861 H 80.3385 -0.462901 1.39627 0
M  V30 862 H 82.2965 -3.40596 2.40936 0
M  V30 863 H 80.9265 -2.91961 1.3769 0
M  V30 864 H 79.9785 -1.64132 3.43169 0
M  V30 865 H 81.2905 -2.34803 4.40079 0
M  V30 866 H 80.4445 -4.64938 3.89766 0
M  V30 867 H 79.1835 -3.97304 2.82844 0
M  V30 868 H 78.1885 -2.73244 4.77093 0
M  V30 869 H 79.4135 -3.43966 5.85546 0
M  V30 870 H 77.3595 -5.00181 4.24446 0
M  V30 871 H 77.2765 -4.67165 5.94384 0
M  V30 872 H 78.5445 -5.6893 5.3286 0
M  V30 873 N 82.7736 -1.49793 -0.48987 0
M  V30 874 C 84.0196 -1.60078 -1.24511 0
M  V30 875 C 84.3526 -0.291608 -1.91998 0
M  V30 876 O 83.6276 0.705647 -1.81248 0
M  V30 877 C 83.9106 -2.76791 -2.30345 0
M  V30 878 C 83.7636 -4.17535 -1.67286 0
M  V30 879 C 85.0826 -2.89111 -3.31817 0
M  V30 880 H 82.2016 -0.582645 -0.451324 0
M  V30 881 H 84.8436 -1.82117 -0.541612 0
M  V30 882 H 82.9936 -2.5813 -2.90346 0
M  V30 883 H 84.6656 -4.4774 -1.11026 0
M  V30 884 H 82.9086 -4.22665 -0.976577 0
M  V30 885 H 83.5796 -4.95094 -2.44103 0
M  V30 886 H 86.0556 -3.06133 -2.81819 0
M  V30 887 H 84.9316 -3.72433 -4.03219 0
M  V30 888 H 85.1926 -1.9893 -3.94815 0
M  V30 889 N 84.2517 0.741722 -1.39055 0
M  V30 890 C 85.1997 1.87702 -1.3737 0
M  V30 891 C 86.1937 1.67427 -0.257812 0
M  V30 892 O 87.3997 1.7485 -0.427489 0
M  V30 893 H 83.7747 0.617757 -0.428812 0
M  V30 894 H 85.7457 1.86239 -2.33147 0
M  V30 895 C 84.4947 3.25315 -1.22741 0
M  V30 896 H 83.8177 3.41509 -2.07873 0
M  V30 897 H 85.2577 4.04964 -1.25618 0
M  V30 898 C 83.7167 3.36838 0.0647316 0
M  V30 899 O 84.2467 3.88073 1.03741 0
M  V30 900 N 82.4527 2.90329 0.125544 0
M  V30 901 H 81.9997 2.48823 -0.666682 0
M  V30 902 H 81.9577 2.98418 0.989639 0
M  V30 903 N 85.7298 1.2412 0.971189 0
M  V30 904 C 86.9548 1.10667 1.75407 0
M  V30 905 C 87.3798 -0.337048 1.85056 0
M  V30 906 O 86.7378 -1.24396 1.31892 0
M  V30 907 C 86.7858 1.74726 3.15441 0
M  V30 908 O 85.8898 1.01566 3.99697 0
M  V30 909 H 85.2308 0.387341 0.539317 0
M  V30 910 H 87.7608 1.64358 1.2185 0
M  V30 911 H 87.7708 1.80341 3.6598 0
M  V30 912 H 86.4458 2.79773 3.07734 0
M  V30 913 H 85.0228 1.03713 3.58187 0
M  V30 914 N 87.2079 -1.17134 1.05439 0
M  V30 915 C 88.1399 -2.2078 0.615539 0
M  V30 916 C 89.1529 -1.59584 -0.322001 0
M  V30 917 O 90.3419 -1.78133 -0.114344 0
M  V30 918 C 87.4419 -3.38691 -0.118938 0
M  V30 919 C 86.6149 -4.29454 0.829924 0
M  V30 920 C 85.6739 -5.26024 0.136258 0
M  V30 921 O 84.6999 -5.63952 0.77115 0
M  V30 922 N 85.9019 -5.69487 -1.1254 0
M  V30 923 H 88.6669 -2.59052 1.50705 0
M  V30 924 H 86.2279 -1.32058 0.936603 0
M  V30 925 H 88.2199 -4.00329 -0.593179 0
M  V30 926 H 86.7899 -2.98996 -0.91215 0
M  V30 927 H 86.0099 -3.65211 1.48373 0
M  V30 928 H 87.2979 -4.86984 1.47392 0
M  V30 929 H 86.6959 -5.4075 -1.6615 0
M  V30 930 H 85.2529 -6.33257 -1.54366 0
M  V30 931 N 88.686 -0.835752 -1.33615 0
M  V30 932 C 89.616 -0.281739 -2.31794 0
M  V30 933 C 90.597 0.608833 -1.58831 0
M  V30 934 O 91.782 0.533035 -1.86741 0
M  V30 935 C 88.912 0.546612 -3.42971 0
M  V30 936 C 87.866 -0.247904 -4.27281 0
M  V30 937 C 87.192 0.704001 -5.30045 0
M  V30 938 C 88.492 -1.46324 -5.01385 0
M  V30 939 H 90.186 -1.10206 -2.78379 0
M  V30 940 H 87.732 -0.531388 -1.33837 0
M  V30 941 H 89.685 0.944467 -4.1068 0
M  V30 942 H 88.409 1.40011 -2.95067 0
M  V30 943 H 87.068 -0.627281 -3.61194 0
M  V30 944 H 86.716 1.55381 -4.78399 0
M  V30 945 H 86.416 0.176524 -5.87335 0
M  V30 946 H 87.94 1.09944 -6.0062 0
M  V30 947 H 89.354 -1.13871 -5.61877 0
M  V30 948 H 87.751 -1.92728 -5.6831 0
M  V30 949 H 88.821 -2.23467 -4.30338 0
M  V30 950 N 90.1641 1.46063 -0.591896 0
M  V30 951 C 91.1111 2.30399 0.136069 0
M  V30 952 C 92.0811 1.41169 0.875238 0
M  V30 953 O 93.2661 1.70112 0.86409 0
M  V30 954 C 90.4061 3.25804 1.13781 0
M  V30 955 C 89.5191 4.30134 0.401137 0
M  V30 956 C 88.6541 5.12659 1.39121 0
M  V30 957 C 87.6931 6.0873 0.641462 0
M  V30 958 N 86.8301 6.8409 1.58004 0
M  V30 959 H 91.6701 2.92118 -0.589144 0
M  V30 960 H 89.2071 1.43959 -0.302342 0
M  V30 961 H 91.1651 3.79569 1.73156 0
M  V30 962 H 89.7951 2.65872 1.83062 0
M  V30 963 H 88.8471 3.79152 -0.307826 0
M  V30 964 H 90.1591 4.98458 -0.184565 0
M  V30 965 H 89.3131 5.70747 2.05749 0
M  V30 966 H 88.0521 4.44316 2.01084 0
M  V30 967 H 87.0571 5.49786 -0.0385419 0
M  V30 968 H 88.2821 6.79095 0.0270945 0
M  V30 969 H 86.2281 6.18449 2.18761 0
M  V30 970 H 86.1451 7.48709 1.04738 0
M  V30 971 H 87.4131 7.4673 2.23639 0
M  V30 972 N 91.6422 0.330177 1.54103 0
M  V30 973 C 92.8702 -0.272179 2.05102 0
M  V30 974 C 93.2852 -1.45267 1.20595 0
M  V30 975 O 92.6422 -1.8094 0.238144 0
M  V30 976 C 92.6932 -0.70023 3.54653 0
M  V30 977 O 92.4142 0.433301 4.35952 0
M  V30 978 C 93.9152 -1.3647 4.21771 0
M  V30 979 H 91.1352 -0.0549159 0.668749 0
M  V30 980 H 93.6792 0.478285 1.98828 0
M  V30 981 H 91.8342 -1.40066 3.61193 0
M  V30 982 H 92.2482 0.0947539 5.24414 0
M  V30 983 H 93.7222 -1.61509 5.27843 0
M  V30 984 H 94.1992 -2.31409 3.73292 0
M  V30 985 H 94.8052 -0.706675 4.19388 0
M  V30 986 N 93.1203 -1.57491 0.0584922 0
M  V30 987 C 94.3663 -1.93264 -0.614558 0
M  V30 988 C 94.6993 -0.937717 -1.7006 0
M  V30 989 O 93.9743 0.0351652 -1.94468 0
M  V30 990 C 94.2573 -3.3938 -1.20386 0
M  V30 991 C 94.1103 -4.49625 -0.125375 0
M  V30 992 C 95.4293 -3.86039 -2.11334 0
M  V30 993 H 92.5483 -0.702791 -0.221933 0
M  V30 994 H 95.1903 -1.8961 0.12175 0
M  V30 995 H 93.3403 -3.42626 -1.83139 0
M  V30 996 H 95.0123 -4.58506 0.506971 0
M  V30 997 H 93.2553 -4.30354 0.545672 0
M  V30 998 H 93.9263 -5.48967 -0.577861 0
M  V30 999 H 96.4023 -3.84716 -1.58534 0
M  V30 1000 H 95.2783 -4.88914 -2.49507 0
M  V30 1001 H 95.5393 -3.23215 -3.01636 0
M  V30 1002 N 94.5984 0.214957 -1.56127 0
M  V30 1003 C 95.5464 1.28601 -1.93816 0
M  V30 1004 C 96.5404 1.48175 -0.821016 0
M  V30 1005 O 97.7464 1.49271 -1.0059 0
M  V30 1006 H 94.1214 0.431302 -0.616022 0
M  V30 1007 H 96.0924 0.940991 -2.83175 0
M  V30 1008 C 94.8414 2.62779 -2.27689 0
M  V30 1009 H 94.1644 2.48527 -3.13168 0
M  V30 1010 H 95.6044 3.36517 -2.57939 0
M  V30 1011 C 94.0634 3.18285 -1.10436 0
M  V30 1012 O 94.5934 4.00002 -0.368945 0
M  V30 1013 N 92.7994 2.7675 -0.886433 0
M  V30 1014 H 92.3464 2.10404 -1.48619 0
M  V30 1015 H 92.3044 3.14229 -0.103656 0
M  V30 1016 N 96.0765 1.50051 0.48192 0
M  V30 1017 C 97.0245 1.68635 1.60203 0
M  V30 1018 C 98.0185 0.552184 1.60148 0
M  V30 1019 O 99.2245 0.732377 1.64427 0
M  V30 1020 H 95.5995 0.532081 0.531407 0
M  V30 1021 H 97.5705 2.62616 1.41688 0
M  V30 1022 C 96.3195 1.78775 2.9822 0
M  V30 1023 H 95.6425 2.6543 2.98976 0
M  V30 1024 H 97.0825 1.95806 3.7608 0
M  V30 1025 C 95.5415 0.536849 3.32595 0
M  V30 1026 O 96.0715 -0.328897 4.00351 0
M  V30 1027 N 94.2775 0.394091 2.87915 0
M  V30 1028 H 93.8245 1.09962 2.32951 0
M  V30 1029 H 93.7825 -0.441737 3.11281 0
M  V30 1030 N 97.5546 -0.734337 1.39446 0
M  V30 1031 C 98.7846 -1.52137 1.39778 0
M  V30 1032 C 99.1926 -1.89198 -0.00929312 0
M  V30 1033 O 98.5356 -1.54666 -0.991168 0
M  V30 1034 C 98.5976 -2.83762 2.20724 0
M  V30 1035 C 98.2616 -2.69131 3.69347 0
M  V30 1036 C 99.2586 -2.37635 4.62413 0
M  V30 1037 C 96.9436 -2.85982 4.1294 0
M  V30 1038 C 98.9376 -2.23172 5.97054 0
M  V30 1039 C 96.6246 -2.71137 5.47657 0
M  V30 1040 C 97.6226 -2.39777 6.39528 0
M  V30 1041 O 97.3106 -2.25026 7.71763 0
M  V30 1042 H 97.0426 -0.476717 0.479288 0
M  V30 1043 H 99.5966 -0.915012 1.83893 0
M  V30 1044 H 97.8266 -3.4666 1.71359 0
M  V30 1045 H 99.5156 -3.45383 2.13226 0
M  V30 1046 H 100.282 -2.24267 4.30034 0
M  V30 1047 H 96.1606 -3.09383 3.41765 0
M  V30 1048 H 99.7046 -1.98617 6.68728 0
M  V30 1049 H 95.6016 -2.84083 5.79626 0
M  V30 1050 H 96.3696 -2.40091 7.82495 0
M  V30 1051 N 99.0327 -1.24633 -0.964593 0
M  V30 1052 C 100.263 -1.11339 -1.74032 0
M  V30 1053 C 100.671 0.336593 -1.86182 0
M  V30 1054 O 100.014 1.24389 -1.35178 0
M  V30 1055 C 100.076 -1.68284 -3.1768 0
M  V30 1056 C 99.7397 -3.17196 -3.28992 0
M  V30 1057 C 100.737 -4.14308 -3.14078 0
M  V30 1058 C 98.4217 -3.57215 -3.53133 0
M  V30 1059 C 100.416 -5.4942 -3.23135 0
M  V30 1060 C 98.1027 -4.92468 -3.61827 0
M  V30 1061 C 99.1007 -5.8838 -3.46841 0
M  V30 1062 O 98.7887 -7.21173 -3.55197 0
M  V30 1063 H 98.5207 -0.389551 -0.552472 0
M  V30 1064 H 101.075 -1.65282 -1.21946 0
M  V30 1065 H 99.3047 -1.08777 -3.71085 0
M  V30 1066 H 100.994 -1.50234 -3.77074 0
M  V30 1067 H 101.76 -3.84731 -2.95308 0
M  V30 1068 H 97.6387 -2.83063 -3.63863 0
M  V30 1069 H 101.183 -6.24263 -3.11355 0
M  V30 1070 H 97.0797 -5.21714 -3.80111 0
M  V30 1071 H 97.8477 -7.29135 -3.71892 0
M  V30 1072 N 100.511 1.16574 -1.06058 0
M  V30 1073 C 101.441 2.23057 -0.690488 0
M  V30 1074 C 102.422 1.67141 0.315901 0
M  V30 1075 O 103.607 1.93253 0.191556 0
M  V30 1076 C 100.737 3.47222 -0.073625 0
M  V30 1077 C 99.6908 4.16016 -1.00573 0
M  V30 1078 C 99.0168 5.34104 -0.252289 0
M  V30 1079 C 100.317 4.67264 -2.33371 0
M  V30 1080 H 102.011 2.54271 -1.58072 0
M  V30 1081 H 99.5568 1.22218 -0.76149 0
M  V30 1082 H 101.51 4.20939 0.19714 0
M  V30 1083 H 100.234 3.15302 0.85161 0
M  V30 1084 H 98.8928 3.44223 -1.2612 0
M  V30 1085 H 98.5408 4.98437 0.675988 0
M  V30 1086 H 98.2408 5.81072 -0.873455 0
M  V30 1087 H 99.7648 6.10599 0.0109857 0
M  V30 1088 H 101.179 5.32573 -2.12223 0
M  V30 1089 H 99.5758 5.24843 -2.90963 0
M  V30 1090 H 100.646 3.83602 -2.96611 0
M  V30 1091 N 101.989 0.842826 1.3317 0
M  V30 1092 C 102.919 0.294028 2.31641 0
M  V30 1093 C 103.9 -0.600401 1.59151 0
M  V30 1094 O 105.085 -0.523124 1.87022 0
M  V30 1095 C 102.215 -0.528416 3.43257 0
M  V30 1096 C 101.169 0.27056 4.27144 0
M  V30 1097 C 100.495 -0.675881 5.30411 0
M  V30 1098 C 101.795 1.48981 5.00602 0
M  V30 1099 H 103.489 1.11681 2.77791 0
M  V30 1100 H 101.035 0.538478 1.33553 0
M  V30 1101 H 102.988 -0.922674 4.11175 0
M  V30 1102 H 101.712 -1.38445 2.95805 0
M  V30 1103 H 100.371 0.646427 3.60856 0
M  V30 1104 H 100.019 -1.52842 4.79216 0
M  V30 1105 H 99.7189 -0.145374 5.8742 0
M  V30 1106 H 101.243 -1.06757 6.01195 0
M  V30 1107 H 102.657 1.16849 5.61266 0
M  V30 1108 H 101.054 1.95739 5.6728 0
M  V30 1109 H 102.124 2.25746 4.29147 0
M  V30 1110 N 103.467 -1.45747 0.599634 0
M  V30 1111 C 104.692 -2.07178 0.0960198 0
M  V30 1112 C 105.117 -1.44268 -1.207 0
M  V30 1113 O 104.475 -0.532503 -1.73303 0
M  V30 1114 C 104.523 -3.60579 -0.0385348 0
M  V30 1115 O 103.627 -3.97713 -1.0908 0
M  V30 1116 H 102.968 -0.660251 0.0704593 0
M  V30 1117 H 105.498 -1.87124 0.827385 0
M  V30 1118 H 105.508 -4.07298 -0.239304 0
M  V30 1119 H 104.183 -4.05756 0.912947 0
M  V30 1120 H 102.76 -3.62678 -0.867135 0
M  V30 1121 N 104.945 -0.338344 -1.53925 0
M  V30 1122 C 105.875 0.51328 -2.27789 0
M  V30 1123 C 106.856 1.107 -1.29149 0
M  V30 1124 O 108.041 1.12937 -1.57984 0
M  V30 1125 C 105.171 1.66697 -3.04679 0
M  V30 1126 C 104.125 1.20183 -4.1078 0
M  V30 1127 C 103.451 2.44363 -4.75595 0
M  V30 1128 C 104.751 0.30605 -5.21403 0
M  V30 1129 H 106.445 -0.102883 -2.99223 0
M  V30 1130 H 103.991 -0.0509219 -1.4391 0
M  V30 1131 H 105.944 2.26915 -3.55088 0
M  V30 1132 H 104.668 2.30995 -2.30887 0
M  V30 1133 H 103.327 0.622499 -3.61276 0
M  V30 1134 H 102.975 3.07057 -3.98403 0
M  V30 1135 H 102.675 2.13925 -5.47275 0
M  V30 1136 H 104.199 3.05317 -5.28786 0
M  V30 1137 H 105.613 0.814929 -5.67478 0
M  V30 1138 H 104.01 0.0937929 -6.00027 0
M  V30 1139 H 105.08 -0.65921 -4.80398 0
M  V30 1140 N 106.423 1.57458 -0.0668435 0
M  V30 1141 C 107.386 2.11323 0.887422 0
M  V30 1142 C 108.386 1.03618 1.22964 0
M  V30 1143 O 109.576 1.29626 1.16373 0
M  V30 1144 C 106.708 2.61048 2.19242 0
M  V30 1145 H 107.901 2.96942 0.420194 0
M  V30 1146 H 105.454 1.55239 0.181793 0
M  V30 1147 H 106.189 1.78868 2.70512 0
M  V30 1148 H 105.974 3.39769 1.95702 0
M  V30 1149 H 107.464 3.02814 2.87565 0
M  V30 1150 N 107.901 -0.206675 1.56239 0
M  V30 1151 C 109.141 -0.93574 1.81723 0
M  V30 1152 C 109.505 -1.80927 0.642609 0
M  V30 1153 O 110.706 -2.57323 0.777081 0
M  V30 1154 C 108.977 -1.74012 3.12177 0
M  V30 1155 S 110.536 -2.52279 3.59028 0
M  V30 1156 H 107.354 -0.314065 0.637875 0
M  V30 1157 H 109.956 -0.200071 1.94474 0
M  V30 1158 H 108.66 -1.0888 3.95693 0
M  V30 1159 H 108.191 -2.51782 3.02274 0
M  V30 1160 H 110.206 -3.76209 3.23545 0
M  V30 1161 N 109.379 -1.50304 -0.473955 0
M  V30 1162 C 110.342 -1.6841 -1.55469 0
M  V30 1163 C 111.342 -0.554905 -1.50922 0
M  V30 1164 O 112.532 -0.821882 -1.53593 0
M  V30 1165 C 109.664 -1.70667 -2.95102 0
M  V30 1166 H 110.857 -2.64828 -1.40733 0
M  V30 1167 H 108.41 -1.39742 -0.700132 0
M  V30 1168 H 109.145 -0.75932 -3.15285 0
M  V30 1169 H 108.93 -2.52698 -2.9981 0
M  V30 1170 H 110.42 -1.8664 -3.73571 0
M  V30 1171 N 110.857 0.726932 -1.39834 0
M  V30 1172 C 112.134 1.47902 -1.28001 0
M  V30 1173 C 112.514 2.1083 0.106789 0
M  V30 1174 O 111.862 1.99242 1.11869 0
M  V30 1175 C 112.072 2.52392 -2.41038 0
M  V30 1176 C 113.42 3.18546 -2.80737 0
M  V30 1177 O 114.444 2.62708 -2.40547 0
M  V30 1178 O 113.303 4.19604 -3.50135 0
M  V30 1179 H 110.397 0.657163 -0.502062 0
M  V30 1180 H 112.943 0.760071 -1.51727 0
M  V30 1181 H 111.715 2.04329 -3.33715 0
M  V30 1182 H 111.338 3.31837 -2.19021 0
M  V30 1183 N 112.336 1.25143 0.95797 0
M  V30 1184 C 113.266 1.07711 2.07173 0
M  V30 1185 C 114.247 -0.0128462 1.70095 0
M  V30 1186 O 115.432 0.156061 1.93572 0
M  V30 1187 C 112.562 0.691503 3.40346 0
M  V30 1188 C 111.516 1.73132 3.9142 0
M  V30 1189 C 110.842 1.20049 5.21049 0
M  V30 1190 C 112.142 3.1294 4.1817 0
M  V30 1191 H 113.836 2.00873 2.22014 0
M  V30 1192 H 111.382 0.967191 1.06684 0
M  V30 1193 H 113.335 0.556505 4.17709 0
M  V30 1194 H 112.059 -0.275819 3.25433 0
M  V30 1195 H 110.718 1.8547 3.16222 0
M  V30 1196 H 110.366 0.223499 5.02503 0
M  V30 1197 H 110.066 1.89545 5.56189 0
M  V30 1198 H 111.59 1.07782 6.01012 0
M  V30 1199 H 113.004 3.03775 4.86203 0
M  V30 1200 H 111.401 3.79875 4.64559 0
M  V30 1201 H 112.471 3.6025 3.24573 0
M  V30 1202 N 113.814 -1.1601 1.06675 0
M  V30 1203 C 115.063 -1.85973 0.780818 0
M  V30 1204 C 115.376 -1.82819 -0.695444 0
M  V30 1205 O 116.582 -2.484 -1.09589 0
M  V30 1206 C 115.038 -3.33757 1.34665 0
M  V30 1207 C 114.646 -3.45374 2.85343 0
M  V30 1208 C 116.39 -4.0895 1.13843 0
M  V30 1209 C 114.297 -4.87266 3.35151 0
M  V30 1210 H 113.227 -0.696661 0.288407 0
M  V30 1211 H 115.878 -1.30903 1.28595 0
M  V30 1212 H 114.26 -3.88456 0.769274 0
M  V30 1213 H 115.434 -3.00816 3.49065 0
M  V30 1214 H 113.749 -2.83619 3.04876 0
M  V30 1215 H 116.346 -5.13654 1.4854 0
M  V30 1216 H 116.689 -4.16229 0.0770282 0
M  V30 1217 H 117.222 -3.605 1.68179 0
M  V30 1218 H 113.961 -4.85168 4.40786 0
M  V30 1219 H 113.481 -5.32433 2.76179 0
M  V30 1220 H 115.16 -5.56097 3.30704 0
M  V30 1221 N 115.292 -0.849877 -1.32721 0
M  V30 1222 C 116.541 -0.447175 -1.96681 0
M  V30 1223 C 116.854 1.00135 -1.68025 0
M  V30 1224 O 118.06 1.50926 -2.25685 0
M  V30 1225 C 116.516 -0.7487 -3.52026 0
M  V30 1226 C 116.124 -2.21264 -3.89546 0
M  V30 1227 C 117.868 -0.413487 -4.22481 0
M  V30 1228 C 115.775 -2.45763 -5.37917 0
M  V30 1229 H 114.705 -0.163486 -0.736063 0
M  V30 1230 H 117.356 -1.03999 -1.51183 0
M  V30 1231 H 115.738 -0.0853727 -3.95908 0
M  V30 1232 H 116.912 -2.91736 -3.56689 0
M  V30 1233 H 115.227 -2.5119 -3.32103 0
M  V30 1234 H 117.824 -0.574017 -5.3161 0
M  V30 1235 H 118.167 0.644492 -4.11281 0
M  V30 1236 H 118.7 -1.03251 -3.84167 0
M  V30 1237 H 115.439 -3.50168 -5.54132 0
M  V30 1238 H 114.959 -1.79864 -5.72197 0
M  V30 1239 H 116.638 -2.29471 -6.0494 0
M  V30 1240 N 116.77 1.45427 -0.607355 0
M  V30 1241 C 118.018 2.01841 -0.102253 0
M  V30 1242 C 118.339 1.47832 1.27164 0
M  V30 1243 O 117.609 0.672497 1.83995 0
M  V30 1244 H 116.189 0.746188 -0.0348101 0
M  V30 1245 H 118.851 1.78229 -0.7887 0
M  V30 1246 H 117.947 3.12057 -0.0518585 0
M  V30 1247 N 118.248 0.346503 1.53744 0
M  V30 1248 C 119.497 -0.250122 2.00143 0
M  V30 1249 C 119.81 -1.51418 1.23822 0
M  V30 1250 O 121.016 -2.18823 1.60713 0
M  V30 1251 C 119.472 -0.496252 3.56462 0
M  V30 1252 C 119.08 0.752077 4.41642 0
M  V30 1253 C 120.824 -1.05157 4.11269 0
M  V30 1254 C 118.731 0.476583 5.89477 0
M  V30 1255 H 117.661 -0.0972409 0.747703 0
M  V30 1256 H 120.312 0.46229 1.77581 0
M  V30 1257 H 118.694 -1.26944 3.75102 0
M  V30 1258 H 119.868 1.5266 4.34778 0
M  V30 1259 H 118.183 1.22925 3.97842 0
M  V30 1260 H 120.78 -1.27269 5.19333 0
M  V30 1261 H 121.123 -2.00799 3.64672 0
M  V30 1262 H 121.656 -0.339019 3.96353 0
M  V30 1263 H 118.395 1.4028 6.40314 0
M  V30 1264 H 117.915 -0.259794 5.99237 0
M  V30 1265 H 119.594 0.0949315 6.4693 0
M  V30 1266 N 119.726 -1.57421 0.075193 0
M  V30 1267 C 120.973 -1.93618 -0.593146 0
M  V30 1268 C 121.301 -0.955484 -1.69413 0
M  V30 1269 O 120.556 0.0283251 -1.9568 0
M  V30 1270 C 120.855 -3.36428 -1.20626 0
M  V30 1271 C 120.521 -4.50307 -0.231078 0
M  V30 1272 C 119.183 -4.81186 0.0371936 0
M  V30 1273 C 121.535 -5.19374 0.435888 0
M  V30 1274 C 118.863 -5.78466 0.979461 0
M  V30 1275 C 121.215 -6.17665 1.3665 0
M  V30 1276 C 119.879 -6.46958 1.6432 0
M  V30 1277 H 119.149 -0.708499 -0.217047 0
M  V30 1278 H 121.796 -1.90937 0.146793 0
M  V30 1279 H 120.101 -3.35592 -2.02201 0
M  V30 1280 H 121.798 -3.61727 -1.73073 0
M  V30 1281 H 118.388 -4.26227 -0.450357 0
M  V30 1282 H 122.572 -4.95711 0.241748 0
M  V30 1283 H 117.828 -5.99487 1.20106 0
M  V30 1284 H 122.002 -6.70284 1.88924 0
M  V30 1285 H 119.629 -7.2215 2.37494 0
M  V30 1286 N 121.204 0.198386 -1.56346 0
M  V30 1287 C 122.429 0.939682 -1.84891 0
M  V30 1288 C 122.854 1.76202 -0.658369 0
M  V30 1289 O 122.212 1.76993 0.392851 0
M  V30 1290 C 122.26 1.81428 -3.11635 0
M  V30 1291 O 121.364 2.91265 -2.91956 0
M  V30 1292 H 120.705 0.264807 -0.608912 0
M  V30 1293 H 123.235 0.204695 -2.03573 0
M  V30 1294 H 123.245 2.21958 -3.42343 0
M  V30 1295 H 121.92 1.21004 -3.97908 0
M  V30 1296 H 120.497 2.54514 -2.72538 0
M  V30 1297 N 122.682 1.50554 0.465978 0
M  V30 1298 C 123.615 1.64436 1.58227 0
M  V30 1299 C 124.593 0.492367 1.54966 0
M  V30 1300 O 125.777 0.712536 1.74514 0
M  V30 1301 C 122.904 1.63165 2.96808 0
M  V30 1302 C 121.95 2.83987 3.18204 0
M  V30 1303 S 122.783 4.45219 2.97557 0
M  V30 1304 C 123.939 4.46649 4.3847 0
M  V30 1305 H 124.172 2.58861 1.46213 0
M  V30 1306 H 121.705 1.3988 0.653678 0
M  V30 1307 H 123.663 1.63116 3.76701 0
M  V30 1308 H 122.324 0.69967 3.06208 0
M  V30 1309 H 121.517 2.79416 4.19455 0
M  V30 1310 H 121.119 2.81629 2.46092 0
M  V30 1311 H 123.411 4.20526 5.31191 0
M  V30 1312 H 124.354 5.48295 4.48082 0
M  V30 1313 H 124.762 3.76296 4.20787 0
M  V30 1314 N 124.16 -0.719506 1.40217 0
M  V30 1315 C 125.108 -1.85493 1.40339 0
M  V30 1316 C 126.102 -1.66995 0.284415 0
M  V30 1317 O 127.308 -1.74148 0.455252 0
M  V30 1318 H 123.683 -0.610857 0.438586 0
M  V30 1319 H 125.654 -1.82506 2.36081 0
M  V30 1320 C 124.403 -3.23321 1.27901 0
M  V30 1321 H 123.726 -3.38159 2.1328 0
M  V30 1322 H 125.166 -4.02914 1.32045 0
M  V30 1323 C 123.625 -3.36898 -0.0111355 0
M  V30 1324 O 124.155 -3.89674 -0.975538 0
M  V30 1325 N 122.361 -2.90492 -0.0793393 0
M  V30 1326 H 121.908 -2.47731 0.706183 0
M  V30 1327 H 121.866 -2.99955 -0.942038 0
M  V30 1328 N 125.638 -1.25649 -0.95132 0
M  V30 1329 C 126.568 -1.08808 -2.06599 0
M  V30 1330 C 127.549 0.00382547 -1.701 0
M  V30 1331 O 128.734 -0.166325 -1.93486 0
M  V30 1332 C 125.864 -0.709542 -3.39975 0
M  V30 1333 C 124.818 -1.75206 -3.90496 0
M  V30 1334 C 124.144 -1.22811 -5.20405 0
M  V30 1335 C 125.444 -3.15153 -4.16504 0
M  V30 1336 H 127.138 -2.02048 -2.20946 0
M  V30 1337 H 124.684 -0.972835 -1.06169 0
M  V30 1338 H 126.637 -0.578649 -4.17408 0
M  V30 1339 H 125.361 0.258556 -3.25575 0
M  V30 1340 H 124.02 -1.87145 -3.15234 0
M  V30 1341 H 123.668 -0.250145 -5.02378 0
M  V30 1342 H 123.368 -1.92492 -5.55176 0
M  V30 1343 H 124.892 -1.10968 -6.00432 0
M  V30 1344 H 126.306 -3.06349 -4.84586 0
M  V30 1345 H 124.703 -3.82333 -4.62538 0
M  V30 1346 H 125.773 -3.61966 -3.22658 0
M  V30 1347 N 127.117 1.15442 -1.07289 0
M  V30 1348 C 128.347 1.89821 -0.815576 0
M  V30 1349 C 128.755 1.7823 0.634867 0
M  V30 1350 O 128.098 1.13152 1.44715 0
M  V30 1351 C 128.16 3.40817 -1.14385 0
M  V30 1352 C 127.824 3.76193 -2.59476 0
M  V30 1353 C 128.821 3.77269 -3.57721 0
M  V30 1354 C 126.506 4.0652 -2.95037 0
M  V30 1355 C 128.5 4.08176 -4.89562 0
M  V30 1356 C 126.187 4.37092 -4.27076 0
M  V30 1357 C 127.185 4.37902 -5.24148 0
M  V30 1358 O 126.873 4.67741 -6.53815 0
M  V30 1359 H 126.605 0.608465 -0.294528 0
M  V30 1360 H 129.159 1.472 -1.43252 0
M  V30 1361 H 127.389 3.83835 -0.469865 0
M  V30 1362 H 129.078 3.96485 -0.869179 0
M  V30 1363 H 129.844 3.5394 -3.3159 0
M  V30 1364 H 125.723 4.05049 -2.20128 0
M  V30 1365 H 129.267 4.08723 -5.65324 0
M  V30 1366 H 125.164 4.59889 -4.5296 0
M  V30 1367 H 125.932 4.85509 -6.58957 0
M  V30 1368 N 128.595 0.856903 1.32268 0
M  V30 1369 C 129.823 0.475439 2.01363 0
M  V30 1370 C 130.238 -0.928486 1.64392 0
M  V30 1371 O 129.595 -1.60624 0.866387 0
M  V30 1372 C 129.646 0.607545 3.56358 0
M  V30 1373 O 129.367 1.95617 3.92002 0
M  V30 1374 C 130.868 0.225382 4.42727 0
M  V30 1375 H 128.088 0.186636 0.644521 0
M  V30 1376 H 130.632 1.15446 1.68797 0
M  V30 1377 H 128.787 -0.0237719 3.87393 0
M  V30 1378 H 129.201 1.95455 4.86721 0
M  V30 1379 H 130.675 0.368813 5.50767 0
M  V30 1380 H 131.152 -0.834369 4.31202 0
M  V30 1381 H 131.758 0.831864 4.17085 0
M  V30 1382 N 130.073 -1.45103 0.615059 0
M  V30 1383 C 131.301 -2.06553 0.11977 0
M  V30 1384 C 131.716 -1.45842 -1.19898 0
M  V30 1385 O 131.073 -0.575325 -1.73194 0
M  V30 1386 C 131.124 -3.61495 -0.018364 0
M  V30 1387 O 130.845 -4.19942 1.24822 0
M  V30 1388 C 132.346 -4.39947 -0.544237 0
M  V30 1389 H 129.566 -0.667096 0.0722739 0
M  V30 1390 H 132.11 -1.8623 0.84491 0
M  V30 1391 H 130.265 -3.81135 -0.693865 0
M  V30 1392 H 130.679 -5.13204 1.0827 0
M  V30 1393 H 132.153 -5.48838 -0.589953 0
M  V30 1394 H 132.63 -4.10255 -1.56805 0
M  V30 1395 H 133.236 -4.25188 0.0974703 0
M  V30 1396 N 131.551 -0.354651 -1.53558 0
M  V30 1397 C 132.781 0.239167 -2.05211 0
M  V30 1398 C 133.189 1.43879 -1.22863 0
M  V30 1399 O 132.532 1.81857 -0.259565 0
M  V30 1400 C 132.594 0.707251 -3.52474 0
M  V30 1401 C 132.258 -0.374212 -4.55465 0
M  V30 1402 C 133.255 -1.22054 -5.0537 0
M  V30 1403 C 130.94 -0.531323 -4.99482 0
M  V30 1404 C 132.934 -2.20942 -5.97882 0
M  V30 1405 C 130.621 -1.52358 -5.91802 0
M  V30 1406 C 131.619 -2.36108 -6.40892 0
M  V30 1407 O 131.307 -3.33643 -7.31394 0
M  V30 1408 H 131.039 0.0479716 -0.674296 0
M  V30 1409 H 133.593 -0.508121 -1.99016 0
M  V30 1410 H 131.823 1.50596 -3.56171 0
M  V30 1411 H 133.512 1.22285 -3.87042 0
M  V30 1412 H 134.278 -1.1103 -4.7212 0
M  V30 1413 H 130.157 0.110738 -4.60867 0
M  V30 1414 H 133.701 -2.86348 -6.36121 0
M  V30 1415 H 129.598 -1.63434 -6.24467 0
M  V30 1416 H 130.366 -3.29244 -7.4936 0
M  V30 1417 N 133.029 1.57378 -0.0835403 0
M  V30 1418 C 134.278 1.93106 0.582498 0
M  V30 1419 C 134.591 0.96651 1.70053 0
M  V30 1420 O 135.797 1.21705 2.42693 0
M  V30 1421 C 134.253 3.43076 1.08751 0
M  V30 1422 C 133.861 4.48 -0.000146404 0
M  V30 1423 C 135.605 3.87785 1.72694 0
M  V30 1424 C 133.512 5.89113 0.519568 0
M  V30 1425 H 132.442 0.720775 0.221358 0
M  V30 1426 H 135.093 1.82821 -0.157675 0
M  V30 1427 H 133.475 3.48474 1.88101 0
M  V30 1428 H 134.649 4.54233 -0.775199 0
M  V30 1429 H 132.964 4.1283 -0.54406 0
M  V30 1430 H 135.561 4.90604 2.1263 0
M  V30 1431 H 135.904 3.25796 2.59158 0
M  V30 1432 H 136.437 3.8504 0.999457 0
M  V30 1433 H 133.176 6.54775 -0.308186 0
M  V30 1434 H 132.696 5.86376 1.26188 0
M  V30 1435 H 134.375 6.39346 0.992237 0
M  V30 1436 N 134.507 -0.190092 1.56449 0
M  V30 1437 C 135.437 -1.23816 1.97969 0
M  V30 1438 C 136.418 -1.47201 0.852395 0
M  V30 1439 O 137.603 -1.58854 1.1171 0
M  V30 1440 C 134.733 -2.5813 2.3235 0
M  V30 1441 C 133.687 -2.49348 3.47864 0
M  V30 1442 C 133.013 -3.8798 3.67934 0
M  V30 1443 C 134.313 -2.01424 4.81898 0
M  V30 1444 H 136.007 -0.89311 2.85769 0
M  V30 1445 H 133.553 -0.428177 1.37487 0
M  V30 1446 H 135.506 -3.31637 2.59991 0
M  V30 1447 H 134.23 -2.94386 1.41438 0
M  V30 1448 H 132.889 -1.78297 3.20321 0
M  V30 1449 H 132.537 -4.21597 2.74344 0
M  V30 1450 H 132.237 -3.82978 4.45648 0
M  V30 1451 H 133.761 -4.63101 3.97957 0
M  V30 1452 H 135.175 -2.64693 5.08538 0
M  V30 1453 H 133.572 -2.07413 5.63116 0
M  V30 1454 H 134.642 -0.967677 4.75146 0
M  V30 1455 N 135.985 -1.50799 -0.457987 0
M  V30 1456 C 136.918 -1.65273 -1.57353 0
M  V30 1457 C 137.896 -0.500578 -1.54703 0
M  V30 1458 O 139.08 -0.721781 -1.74134 0
M  V30 1459 C 136.207 -1.64737 -2.95938 0
M  V30 1460 C 135.253 -2.8567 -3.16693 0
M  V30 1461 S 136.086 -4.46791 -2.95191 0
M  V30 1462 C 137.242 -4.48968 -4.36095 0
M  V30 1463 H 137.475 -2.59633 -1.44838 0
M  V30 1464 H 135.008 -1.40225 -0.64625 0
M  V30 1465 H 136.966 -1.65112 -3.7583 0
M  V30 1466 H 135.627 -0.715899 -3.05833 0
M  V30 1467 H 134.82 -2.81637 -4.17967 0
M  V30 1468 H 134.422 -2.8293 -2.44594 0
M  V30 1469 H 136.714 -4.23337 -5.28954 0
M  V30 1470 H 137.657 -5.50664 -4.45168 0
M  V30 1471 H 138.065 -3.78522 -4.18786 0
M  V30 1472 N 137.463 0.71206 -1.40597 0
M  V30 1473 C 138.711 1.46907 -1.38791 0
M  V30 1474 C 139.032 1.94998 0.00780391 0
M  V30 1475 O 138.302 1.70587 0.963174 0
M  V30 1476 H 136.882 0.545043 -0.51082 0
M  V30 1477 H 139.544 0.843882 -1.75683 0
M  V30 1478 H 138.64 2.34021 -2.06496 0
M  V30 1479 N 138.941 1.26152 0.944643 0
M  V30 1480 C 140.357 1.03189 1.21754 0
M  V30 1481 C 140.557 -0.245112 2.00004 0
M  V30 1482 O 139.613 -0.955176 2.33736 0
M  V30 1483 C 140.926 2.26119 1.98219 0
M  V30 1484 C 142.474 2.30984 2.11224 0
M  V30 1485 C 142.949 3.53597 2.91089 0
M  V30 1486 N 144.44 3.54053 2.98664 0
M  V30 1487 C 145.175 4.45593 3.60881 0
M  V30 1488 N 144.671 5.47416 4.24626 0
M  V30 1489 N 146.464 4.33252 3.58119 0
M  V30 1490 H 138.615 2.08177 0.421437 0
M  V30 1491 H 140.878 0.914723 0.248969 0
M  V30 1492 H 140.584 3.18984 1.48128 0
M  V30 1493 H 140.458 2.3009 2.98895 0
M  V30 1494 H 142.845 1.38635 2.60508 0
M  V30 1495 H 142.926 2.31026 1.09821 0
M  V30 1496 H 142.57 4.46273 2.42493 0
M  V30 1497 H 142.5 3.50802 3.92741 0
M  V30 1498 H 144.991 2.80403 2.53343 0
M  V30 1499 H 145.304 6.13459 4.69987 0
M  V30 1500 H 143.649 5.51278 4.23223 0
M  V30 1501 H 146.84 3.52924 3.0751 0
M  V30 1502 H 147.013 5.04786 4.06319 0
M  V30 1503 N 140.419 -1.14872 1.07899 0
M  V30 1504 C 141.665 -1.86289 0.81657 0
M  V30 1505 C 142.02 -1.8107 -0.65049 0
M  V30 1506 O 141.313 -1.22684 -1.47171 0
M  V30 1507 C 141.507 -3.34223 1.26609 0
M  V30 1508 C 141.336 -3.53846 2.77531 0
M  V30 1509 C 140.106 -3.68995 3.45212 0
M  V30 1510 C 142.304 -3.51201 3.75716 0
M  V30 1511 N 140.286 -3.76725 4.84718 0
M  V30 1512 C 141.657 -3.65112 5.01092 0
M  V30 1513 C 143.712 -3.34507 3.68794 0
M  V30 1514 C 142.415 -3.64056 6.20368 0
M  V30 1515 C 144.441 -3.34752 4.8754 0
M  V30 1516 C 143.803 -3.49199 6.11751 0
M  V30 1517 H 139.902 -0.698579 0.351443 0
M  V30 1518 H 142.486 -1.37713 1.37634 0
M  V30 1519 H 140.657 -3.81402 0.73395 0
M  V30 1520 H 142.389 -3.93377 0.95062 0
M  V30 1521 H 139.144 -3.70006 2.95622 0
M  V30 1522 H 139.568 -3.8432 5.5734 0
M  V30 1523 H 144.21 -3.22253 2.73702 0
M  V30 1524 H 141.928 -3.75087 7.15776 0
M  V30 1525 H 145.514 -3.23055 4.83866 0
M  V30 1526 H 144.394 -3.49328 7.02097 0
M  V30 1527 N 141.898 -0.863906 -1.31812 0
M  V30 1528 C 142.861 -0.320212 -2.26952 0
M  V30 1529 C 143.861 0.525369 -1.51975 0
M  V30 1530 O 145.051 0.335547 -1.70938 0
M  V30 1531 C 142.183 0.545919 -3.365 0
M  V30 1532 H 143.376 -1.16004 -2.76556 0
M  V30 1533 H 140.929 -0.638995 -1.42641 0
M  V30 1534 H 141.664 1.40718 -2.92179 0
M  V30 1535 H 141.449 -0.0594674 -3.92055 0
M  V30 1536 H 142.939 0.918796 -4.07367 0
M  V30 1537 N 143.376 1.44774 -0.622745 0
M  V30 1538 C 144.306 2.33382 0.0741861 0
M  V30 1539 C 145.287 1.47719 0.843387 0
M  V30 1540 O 146.472 1.76458 0.810934 0
M  V30 1541 C 143.602 3.30663 1.06204 0
M  V30 1542 C 142.556 4.26079 0.405037 0
M  V30 1543 C 141.882 5.13165 1.5022 0
M  V30 1544 C 143.182 5.1781 -0.683414 0
M  V30 1545 H 144.876 2.91905 -0.665713 0
M  V30 1546 H 142.422 1.40363 -0.321587 0
M  V30 1547 H 144.375 3.9153 1.55827 0
M  V30 1548 H 143.099 2.70331 1.83272 0
M  V30 1549 H 141.758 3.66532 -0.0704683 0
M  V30 1550 H 141.406 4.49191 2.26355 0
M  V30 1551 H 141.106 5.77812 1.06803 0
M  V30 1552 H 142.63 5.76902 2.00041 0
M  V30 1553 H 144.044 5.72661 -0.270631 0
M  V30 1554 H 142.441 5.91015 -1.04023 0
M  V30 1555 H 143.511 4.59326 -1.55395 0
M  V30 1556 N 144.854 0.36279 1.53368 0
M  V30 1557 C 146.102 -0.227326 2.00817 0
M  V30 1558 C 146.423 -1.49511 1.25186 0
M  V30 1559 O 145.693 -1.92482 0.364348 0
M  V30 1560 H 144.273 -0.0869923 0.741917 0
M  V30 1561 H 146.935 0.488381 1.88682 0
M  V30 1562 H 146.031 -0.456273 3.08747 0
M  V30 1563 N 146.332 -1.57332 0.0918853 0
M  V30 1564 C 147.557 -1.98995 -0.584442 0
M  V30 1565 C 147.982 -0.970528 -1.61128 0
M  V30 1566 O 147.34 0.0613904 -1.81196 0
M  V30 1567 C 147.388 -3.39636 -1.21161 0
M  V30 1568 O 146.492 -3.40447 -2.32744 0
M  V30 1569 H 145.833 -0.647165 -0.148572 0
M  V30 1570 H 148.363 -2.03873 0.172347 0
M  V30 1571 H 148.373 -3.7726 -1.55367 0
M  V30 1572 H 147.048 -4.13356 -0.459313 0
M  V30 1573 H 145.625 -3.14614 -2.0018 0
M  V30 1574 N 147.81 0.181792 -1.56548 0
M  V30 1575 C 148.74 1.22765 -1.98623 0
M  V30 1576 C 149.721 1.46747 -0.860189 0
M  V30 1577 O 150.906 1.58259 -1.12551 0
M  V30 1578 C 148.036 2.56894 -2.33715 0
M  V30 1579 C 146.99 2.475 -3.49182 0
M  V30 1580 C 146.316 3.86023 -3.69986 0
M  V30 1581 C 147.616 1.98866 -4.82959 0
M  V30 1582 H 149.31 0.877942 -2.86239 0
M  V30 1583 H 146.856 0.42088 -1.37712 0
M  V30 1584 H 148.809 3.30253 -2.61746 0
M  V30 1585 H 147.533 2.93632 -1.42997 0
M  V30 1586 H 146.192 1.76596 -3.21262 0
M  V30 1587 H 145.84 4.20136 -2.76576 0
M  V30 1588 H 145.54 3.80609 -4.47672 0
M  V30 1589 H 147.064 4.60984 -4.00407 0
M  V30 1590 H 148.478 2.61992 -5.09934 0
M  V30 1591 H 146.875 2.04424 -5.64208 0
M  V30 1592 H 147.945 0.942465 -4.75653 0
M  V30 1593 N 149.288 1.51039 0.449983 0
M  V30 1594 C 150.251 1.70863 1.5277 0
M  V30 1595 C 151.251 0.578846 1.5002 0
M  V30 1596 O 152.441 0.846213 1.52266 0
M  V30 1597 C 149.573 1.75341 2.9235 0
M  V30 1598 H 150.766 2.67034 1.36502 0
M  V30 1599 H 148.319 1.40838 0.677812 0
M  V30 1600 H 149.054 0.809383 3.14037 0
M  V30 1601 H 148.839 2.57436 2.95752 0
M  V30 1602 H 150.329 1.92559 3.70555 0
M  V30 1603 N 150.766 -0.704594 1.40972 0
M  V30 1604 C 152.006 -1.47691 1.41304 0
M  V30 1605 C 152.37 -1.91992 0.0178582 0
M  V30 1606 O 153.571 -2.68599 -0.103996 0
M  V30 1607 C 151.842 -2.66254 2.38419 0
M  V30 1608 S 153.401 -3.55516 2.57204 0
M  V30 1609 H 150.219 -0.504808 0.500689 0
M  V30 1610 H 152.821 -0.822962 1.77335 0
M  V30 1611 H 151.525 -2.31897 3.38603 0
M  V30 1612 H 151.056 -3.3655 2.03711 0
M  V30 1613 H 153.071 -4.61115 1.83268 0
M  V30 1614 N 152.244 -1.26651 -0.937939 0
M  V30 1615 C 153.521 -1.0313 -1.66204 0
M  V30 1616 C 153.901 0.437256 -2.06522 0
M  V30 1617 O 153.249 1.41831 -1.79154 0
M  V30 1618 C 153.459 -1.98314 -2.87181 0
M  V30 1619 C 154.807 -2.27107 -3.58758 0
M  V30 1620 O 155.831 -1.96205 -2.97291 0
M  V30 1621 O 154.69 -2.79736 -4.69479 0
M  V30 1622 H 151.784 -0.392384 -0.727986 0
M  V30 1623 H 154.33 -1.37874 -0.989382 0
M  V30 1624 H 153.102 -2.97399 -2.54302 0
M  V30 1625 H 152.725 -1.64068 -3.6217 0
M  V30 1626 N 153.722 1.14298 -1.08507 0
M  V30 1627 C 154.652 2.21542 -0.737646 0
M  V30 1628 C 155.633 1.67773 0.280377 0
M  V30 1629 O 156.818 1.93616 0.150521 0
M  V30 1630 C 153.948 3.46988 -0.147259 0
M  V30 1631 C 152.902 4.13789 -1.09374 0
M  V30 1632 C 152.228 5.33449 -0.365524 0
M  V30 1633 C 153.528 4.62208 -2.4323 0
M  V30 1634 H 155.222 2.5086 -1.6343 0
M  V30 1635 H 152.768 1.20576 -0.787243 0
M  V30 1636 H 154.721 4.21262 0.107808 0
M  V30 1637 H 153.445 3.17037 0.784538 0
M  V30 1638 H 152.104 3.4147 -1.33393 0
M  V30 1639 H 151.752 4.99759 0.57011 0
M  V30 1640 H 151.452 5.79088 -0.996512 0
M  V30 1641 H 152.976 6.10485 -0.118534 0
M  V30 1642 H 154.39 5.27952 -2.23472 0
M  V30 1643 H 152.787 5.18553 -3.02031 0
M  V30 1644 H 153.857 3.77224 -3.04681 0
M  V30 1645 N 155.201 0.870884 1.31352 0
M  V30 1646 C 156.447 0.492314 1.97352 0
M  V30 1647 C 156.802 -0.945174 1.67583 0
M  V30 1648 O 156.095 -1.65674 0.962423 0
M  V30 1649 C 156.289 0.687157 3.50732 0
M  V30 1650 C 156.118 2.14203 3.95407 0
M  V30 1651 C 154.888 2.78382 4.21701 0
M  V30 1652 C 157.086 3.1144 4.09279 0
M  V30 1653 N 155.068 4.14611 4.52737 0
M  V30 1654 C 156.439 4.32702 4.44037 0
M  V30 1655 C 158.494 3.07418 3.91661 0
M  V30 1656 C 157.197 5.50463 4.63015 0
M  V30 1657 C 159.223 4.24438 4.11833 0
M  V30 1658 C 158.585 5.44463 4.46923 0
M  V30 1659 H 154.684 0.229206 0.747655 0
M  V30 1660 H 157.268 1.12568 1.5886 0
M  V30 1661 H 155.439 0.083384 3.8831 0
M  V30 1662 H 157.171 0.276883 4.03752 0
M  V30 1663 H 153.926 2.29326 4.14375 0
M  V30 1664 H 154.35 4.84928 4.72413 0
M  V30 1665 H 158.992 2.15732 3.6362 0
M  V30 1666 H 156.71 6.42666 4.89904 0
M  V30 1667 H 160.296 4.2278 3.99685 0
M  V30 1668 H 159.176 6.33504 4.62214 0
M  V30 1669 N 156.679 -1.44442 0.630414 0
M  V30 1670 C 157.609 -2.33418 -0.0618083 0
M  V30 1671 C 158.59 -1.48165 -0.835541 0
M  V30 1672 O 159.775 -1.76886 -0.801564 0
M  V30 1673 C 156.905 -3.31222 -1.04449 0
M  V30 1674 C 155.859 -4.26288 -0.382436 0
M  V30 1675 C 155.185 -5.13954 -1.47497 0
M  V30 1676 C 156.485 -5.1744 0.710865 0
M  V30 1677 H 158.179 -2.91548 0.681184 0
M  V30 1678 H 155.725 -1.40191 0.329026 0
M  V30 1679 H 157.678 -3.92351 -1.53748 0
M  V30 1680 H 156.402 -2.71299 -1.81836 0
M  V30 1681 H 155.061 -3.6649 0.0899054 0
M  V30 1682 H 154.709 -4.50385 -2.2397 0
M  V30 1683 H 154.409 -5.7837 -1.03737 0
M  V30 1684 H 155.933 -5.77955 -1.96979 0
M  V30 1685 H 157.347 -5.72509 0.300996 0
M  V30 1686 H 155.744 -5.90455 1.07156 0
M  V30 1687 H 156.814 -4.58496 1.57829 0
M  V30 1688 N 158.157 -0.370918 -1.53173 0
M  V30 1689 C 159.12 0.460778 -2.24521 0
M  V30 1690 C 160.12 1.00536 -1.25496 0
M  V30 1691 O 161.31 0.890266 -1.49733 0
M  V30 1692 C 158.442 1.64457 -2.98608 0
M  V30 1693 H 159.635 -0.163613 -2.99453 0
M  V30 1694 H 157.188 -0.122699 -1.55818 0
M  V30 1695 H 157.923 2.30691 -2.2793 0
M  V30 1696 H 157.708 1.26099 -3.7127 0
M  V30 1697 H 159.198 2.23384 -3.5283 0
M  V30 1698 N 159.635 1.57281 -0.100228 0
M  V30 1699 C 160.565 2.17328 0.853857 0
M  V30 1700 C 161.546 1.10804 1.2906 0
M  V30 1701 O 162.731 1.38963 1.35657 0
M  V30 1702 C 159.861 2.75772 2.11109 0
M  V30 1703 C 158.815 3.87713 1.81279 0
M  V30 1704 C 158.141 4.32882 3.13874 0
M  V30 1705 C 159.441 5.10677 1.09574 0
M  V30 1706 H 161.135 2.97305 0.353545 0
M  V30 1707 H 158.681 1.43009 0.168612 0
M  V30 1708 H 160.634 3.16433 2.78296 0
M  V30 1709 H 159.358 1.93057 2.63432 0
M  V30 1710 H 158.017 3.476 1.16489 0
M  V30 1711 H 157.665 3.47051 3.64095 0
M  V30 1712 H 157.365 5.08358 2.94696 0
M  V30 1713 H 158.889 4.7618 3.82211 0
M  V30 1714 H 160.303 5.48474 1.66879 0
M  V30 1715 H 158.7 5.91615 1.00557 0
M  V30 1716 H 159.77 4.84835 0.0793299 0
M  V30 1717 N 161.113 -0.173488 1.56642 0
M  V30 1718 C 162.39 -0.917617 1.7274 0
M  V30 1719 C 162.77 -2.00484 0.661027 0
M  V30 1720 O 162.118 -2.26184 -0.32453 0
M  V30 1721 C 162.328 -1.48433 3.15862 0
M  V30 1722 C 163.676 -1.95809 3.76754 0
M  V30 1723 O 164.7 -1.58231 3.19126 0
M  V30 1724 O 163.559 -2.65024 4.77938 0
M  V30 1725 H 160.653 -0.431772 0.705338 0
M  V30 1726 H 163.199 -0.161487 1.6893 0
M  V30 1727 H 161.971 -0.701715 3.84957 0
M  V30 1728 H 161.594 -2.30471 3.23989 0
M  V30 1729 N 162.591 -1.51276 -0.441967 0
M  V30 1730 C 163.821 -1.67273 -1.21257 0
M  V30 1731 C 164.229 -0.367624 -1.85594 0
M  V30 1732 O 163.572 0.663349 -1.71305 0
M  V30 1733 C 163.634 -2.72807 -2.34129 0
M  V30 1734 C 163.298 -4.1554 -1.90198 0
M  V30 1735 C 164.295 -5.00471 -1.40801 0
M  V30 1736 C 161.98 -4.61616 -1.9803 0
M  V30 1737 C 163.974 -6.29536 -0.998174 0
M  V30 1738 C 161.661 -5.90679 -1.56658 0
M  V30 1739 C 162.659 -6.74466 -1.07633 0
M  V30 1740 O 162.347 -8.01116 -0.668459 0
M  V30 1741 H 162.079 -0.564614 -0.371734 0
M  V30 1742 H 164.633 -1.9843 -0.530521 0
M  V30 1743 H 162.863 -2.36954 -3.05597 0
M  V30 1744 H 164.552 -2.77729 -2.96009 0
M  V30 1745 H 165.318 -4.66079 -1.34148 0
M  V30 1746 H 161.197 -3.96526 -2.35135 0
M  V30 1747 H 164.741 -6.94885 -0.61482 0
M  V30 1748 H 160.638 -6.24586 -1.62979 0
M  V30 1749 H 161.406 -8.14633 -0.794722 0
M  V30 1750 N 164.069 0.697108 -1.41344 0
M  V30 1751 C 165.315 1.4593 -1.40827 0
M  V30 1752 C 165.648 1.94193 -0.0167098 0
M  V30 1753 O 164.923 1.69425 0.955263 0
M  V30 1754 C 165.206 2.67229 -2.41373 0
M  V30 1755 C 165.059 2.24741 -3.8963 0
M  V30 1756 C 166.378 3.69423 -2.39196 0
M  V30 1757 H 163.497 0.529303 -0.512842 0
M  V30 1758 H 166.139 0.794112 -1.72609 0
M  V30 1759 H 164.289 3.23982 -2.14401 0
M  V30 1760 H 165.961 1.73327 -4.27499 0
M  V30 1761 H 164.204 1.56542 -4.0457 0
M  V30 1762 H 164.875 3.1177 -4.55525 0
M  V30 1763 H 167.351 3.2234 -2.63128 0
M  V30 1764 H 166.227 4.51907 -3.11563 0
M  V30 1765 H 166.488 4.19012 -1.41001 0
M  V30 1766 N 165.547 1.27147 0.931209 0
M  V30 1767 C 166.51 1.09615 2.01289 0
M  V30 1768 C 167.51 0.0412581 1.60747 0
M  V30 1769 O 168.7 0.285545 1.71844 0
M  V30 1770 C 165.832 0.669447 3.34262 0
M  V30 1771 H 167.025 2.05662 2.18273 0
M  V30 1772 H 164.578 1.09885 1.11153 0
M  V30 1773 H 165.313 -0.292572 3.22978 0
M  V30 1774 H 165.098 1.43127 3.65044 0
M  V30 1775 H 166.588 0.568921 4.13706 0
M  V30 1776 N 167.025 -1.13721 1.09112 0
M  V30 1777 C 168.25 -1.89314 0.847053 0
M  V30 1778 C 168.675 -1.78416 -0.595774 0
M  V30 1779 O 168.033 -1.12942 -1.41823 0
M  V30 1780 C 168.081 -3.3701 1.28284 0
M  V30 1781 O 167.185 -4.10054 0.439267 0
M  V30 1782 H 166.526 -0.588745 0.307044 0
M  V30 1783 H 169.056 -1.43902 1.45442 0
M  V30 1784 H 169.066 -3.87834 1.26683 0
M  V30 1785 H 167.741 -3.4426 2.33363 0
M  V30 1786 H 166.318 -3.69266 0.519312 0
M  V30 1787 N 168.503 -0.877838 -1.30888 0
M  V30 1788 C 169.451 -0.328662 -2.30266 0
M  V30 1789 C 170.445 0.560496 -1.59859 0
M  V30 1790 O 171.651 0.445722 -1.74394 0
M  V30 1791 H 168.026 -0.0876142 -0.746879 0
M  V30 1792 H 169.997 -1.18061 -2.74051 0
M  V30 1793 C 168.746 0.448071 -3.44801 0
M  V30 1794 H 168.069 -0.226859 -3.99156 0
M  V30 1795 H 169.509 0.797541 -4.16432 0
M  V30 1796 C 167.968 1.64239 -2.94155 0
M  V30 1797 O 168.498 2.74175 -2.93583 0
M  V30 1798 N 166.704 1.47716 -2.50256 0
M  V30 1799 H 166.251 0.582821 -2.5092 0
M  V30 1800 H 166.209 2.27765 -2.16727 0
M  V30 1801 N 169.982 1.44106 -0.638065 0
M  V30 1802 C 170.945 2.29138 0.0531013 0
M  V30 1803 C 171.945 1.41409 0.765506 0
M  V30 1804 O 173.135 1.63206 0.609046 0
M  V30 1805 C 170.267 3.23144 1.08584 0
M  V30 1806 H 171.46 2.91739 -0.694883 0
M  V30 1807 H 169.013 1.51134 -0.398538 0
M  V30 1808 H 169.748 2.65408 1.86357 0
M  V30 1809 H 169.533 3.87804 0.578852 0
M  V30 1810 H 171.023 3.87004 1.56899 0
M  V30 1811 N 171.46 0.379036 1.52974 0
M  V30 1812 C 172.685 -0.209353 2.06341 0
M  V30 1813 C 173.11 -1.40583 1.24972 0
M  V30 1814 O 172.468 -1.79246 0.272155 0
M  V30 1815 C 172.516 -0.567786 3.56102 0
M  V30 1816 O 171.62 -1.66318 3.77375 0
M  V30 1817 H 170.961 -0.0272919 0.663439 0
M  V30 1818 H 173.491 0.543536 1.97248 0
M  V30 1819 H 173.501 -0.835003 3.99364 0
M  V30 1820 H 172.176 0.307013 4.14765 0
M  V30 1821 H 170.753 -1.39048 3.46006 0
M  V30 1822 N 172.938 -1.57226 0.108567 0
M  V30 1823 C 174.184 -1.95121 -0.552761 0
M  V30 1824 C 174.517 -0.991345 -1.66991 0
M  V30 1825 O 173.792 -0.0267211 -1.94482 0
M  V30 1826 C 174.075 -3.43039 -1.09528 0
M  V30 1827 C 173.928 -4.49797 0.0177332 0
M  V30 1828 C 175.247 -3.92567 -1.98945 0
M  V30 1829 H 172.366 -0.709496 -0.199461 0
M  V30 1830 H 175.008 -1.89126 0.182011 0
M  V30 1831 H 173.158 -3.48279 -1.72146 0
M  V30 1832 H 174.83 -4.56661 0.652584 0
M  V30 1833 H 173.073 -4.284 0.682309 0
M  V30 1834 H 173.744 -5.50528 -0.402919 0
M  V30 1835 H 176.22 -3.89565 -1.46214 0
M  V30 1836 H 175.096 -4.96605 -2.33827 0
M  V30 1837 H 175.357 -3.32648 -2.91201 0
M  V30 1838 N 174.416 0.165178 -1.56732 0
M  V30 1839 C 175.349 1.23336 -1.91998 0
M  V30 1840 C 176.327 1.42476 -0.783531 0
M  V30 1841 O 177.511 1.57384 -1.03743 0
M  V30 1842 C 174.638 2.59533 -2.17625 0
M  V30 1843 C 173.684 2.57093 -3.40302 0
M  V30 1844 S 174.517 2.05571 -4.9447 0
M  V30 1845 C 175.673 3.43532 -5.23198 0
M  V30 1846 H 175.906 0.932387 -2.82301 0
M  V30 1847 H 173.439 0.370013 -1.49901 0
M  V30 1848 H 175.397 3.37918 -2.3307 0
M  V30 1849 H 174.058 2.86827 -1.28019 0
M  V30 1850 H 173.251 3.57308 -3.55453 0
M  V30 1851 H 172.853 1.86806 -3.24005 0
M  V30 1852 H 175.145 4.39559 -5.15552 0
M  V30 1853 H 176.088 3.33251 -6.2478 0
M  V30 1854 H 176.496 3.39828 -4.50752 0
M  V30 1855 N 175.894 1.51508 0.433938 0
M  V30 1856 C 176.842 1.73646 1.54757 0
M  V30 1857 C 177.836 0.602854 1.5831 0
M  V30 1858 O 179.042 0.784318 1.62014 0
M  V30 1859 H 175.417 0.548718 0.51421 0
M  V30 1860 H 177.388 2.66991 1.33261 0
M  V30 1861 C 176.137 1.88172 2.92381 0
M  V30 1862 H 175.46 2.74808 2.90381 0
M  V30 1863 H 176.9 2.07672 3.6966 0
M  V30 1864 C 175.359 0.64239 3.30719 0
M  V30 1865 O 175.889 -0.201362 4.01195 0
M  V30 1866 N 174.095 0.485489 2.86516 0
M  V30 1867 H 173.642 1.17318 2.29334 0
M  V30 1868 H 173.6 -0.342482 3.12529 0
M  V30 1869 N 177.372 -0.689602 1.41712 0
M  V30 1870 C 178.302 -1.81577 1.46806 0
M  V30 1871 C 179.283 -1.66945 0.326105 0
M  V30 1872 O 180.468 -1.86588 0.538377 0
M  V30 1873 C 177.598 -3.19762 1.35535 0
M  V30 1874 C 176.552 -3.49107 2.47605 0
M  V30 1875 C 175.878 -4.86711 2.21397 0
M  V30 1876 C 177.178 -3.47483 3.89939 0
M  V30 1877 H 178.872 -1.7757 2.41058 0
M  V30 1878 H 176.418 -0.852887 1.16025 0
M  V30 1879 H 178.371 -3.98263 1.3771 0
M  V30 1880 H 177.095 -3.24409 0.377708 0
M  V30 1881 H 175.754 -2.72959 2.44722 0
M  V30 1882 H 175.402 -4.8799 1.21961 0
M  V30 1883 H 175.102 -5.0731 2.96497 0
M  V30 1884 H 176.626 -5.67515 2.25297 0
M  V30 1885 H 178.04 -4.1598 3.94505 0
M  V30 1886 H 176.437 -3.79615 4.64771 0
M  V30 1887 H 177.507 -2.46341 4.17665 0
M  V30 1888 N 178.85 -1.27639 -0.924453 0
M  V30 1889 C 179.78 -1.13166 -2.04244 0
M  V30 1890 C 180.761 -0.032256 -1.70069 0
M  V30 1891 O 181.946 -0.207328 -1.9309 0
M  V30 1892 C 179.076 -0.781496 -3.38393 0
M  V30 1893 C 178.03 -1.83449 -3.86692 0
M  V30 1894 C 177.356 -1.33822 -5.17683 0
M  V30 1895 C 178.656 -3.23917 -4.09726 0
M  V30 1896 H 180.35 -2.06689 -2.1661 0
M  V30 1897 H 177.896 -0.995136 -1.04082 0
M  V30 1898 H 179.849 -0.667057 -4.16087 0
M  V30 1899 H 178.573 0.189439 -3.2605 0
M  V30 1900 H 177.232 -1.93789 -3.11193 0
M  V30 1901 H 176.88 -0.35665 -5.01734 0
M  V30 1902 H 176.58 -2.04224 -5.50968 0
M  V30 1903 H 178.104 -1.23679 -5.97943 0
M  V30 1904 H 179.518 -3.16559 -4.77978 0
M  V30 1905 H 177.915 -3.92059 -4.54324 0
M  V30 1906 H 178.985 -3.68729 -3.14908 0
M  V30 1907 N 180.328 1.1314 -1.09713 0
M  V30 1908 C 181.574 1.84757 -0.836224 0
M  V30 1909 C 181.907 1.8347 0.636598 0
M  V30 1910 O 181.182 1.27491 1.46889 0
M  V30 1911 C 181.465 3.32782 -1.37578 0
M  V30 1912 C 181.318 3.42567 -2.91493 0
M  V30 1913 C 182.637 4.28307 -1.01198 0
M  V30 1914 H 179.756 0.67082 -0.305236 0
M  V30 1915 H 182.398 1.3278 -1.35903 0
M  V30 1916 H 180.548 3.77177 -0.931097 0
M  V30 1917 H 182.22 3.06862 -3.44432 0
M  V30 1918 H 180.463 2.83349 -3.28475 0
M  V30 1919 H 181.134 4.46674 -3.24324 0
M  V30 1920 H 183.61 3.91999 -1.39556 0
M  V30 1921 H 182.486 5.30307 -1.41653 0
M  V30 1922 H 182.747 4.42029 0.0794833 0
M  V30 1923 N 181.806 0.884767 1.30421 0
M  V30 1924 C 183.055 0.499164 1.95426 0
M  V30 1925 C 183.368 -0.95645 1.70621 0
M  V30 1926 O 184.574 -1.44889 2.29607 0
M  V30 1927 C 183.03 0.84177 3.49917 0
M  V30 1928 C 182.638 2.31514 3.83543 0
M  V30 1929 C 184.382 0.525355 4.21237 0
M  V30 1930 C 182.289 2.59939 5.31212 0
M  V30 1931 H 181.219 0.182944 0.73147 0
M  V30 1932 H 183.87 1.07971 1.48373 0
M  V30 1933 H 182.252 0.190311 3.95542 0
M  V30 1934 H 183.426 3.0109 3.48829 0
M  V30 1935 H 181.741 2.59907 3.25326 0
M  V30 1936 H 184.338 0.714762 5.29901 0
M  V30 1937 H 184.681 -0.535222 4.12845 0
M  V30 1938 H 185.214 1.134 3.81294 0
M  V30 1939 H 181.953 3.64736 5.44654 0
M  V30 1940 H 181.473 1.94972 5.67227 0
M  V30 1941 H 183.152 2.45429 5.98643 0
M  V30 1942 N 183.284 -1.43765 0.645699 0
M  V30 1943 C 184.509 -2.06767 0.161883 0
M  V30 1944 C 184.934 -1.48034 -1.16049 0
M  V30 1945 O 184.292 -0.587369 -1.71522 0
M  V30 1946 C 184.34 -3.60519 0.0762003 0
M  V30 1947 O 183.444 -4.00982 -0.963721 0
M  V30 1948 H 182.785 -0.657675 0.091429 0
M  V30 1949 H 185.315 -1.84397 0.886499 0
M  V30 1950 H 185.325 -4.07853 -0.109604 0
M  V30 1951 H 184 -4.02646 1.04157 0
M  V30 1952 H 182.577 -3.65253 -0.751312 0
M  V30 1953 N 184.763 -0.387143 -1.52771 0
M  V30 1954 C 186.01 0.195735 -2.01552 0
M  V30 1955 C 186.338 1.46995 -1.27369 0
M  V30 1956 O 185.593 1.92325 -0.361879 0
M  V30 1957 C 185.892 0.512209 -3.53711 0
M  V30 1958 C 185.558 -0.670202 -4.45891 0
M  V30 1959 C 184.22 -0.994586 -4.70809 0
M  V30 1960 C 186.572 -1.46134 -5.00294 0
M  V30 1961 C 183.9 -2.11169 -5.4738 0
M  V30 1962 C 186.252 -2.56903 -5.78086 0
M  V30 1963 C 184.916 -2.89852 -6.01284 0
M  V30 1964 H 184.186 0.0716246 -0.73753 0
M  V30 1965 H 186.833 -0.524046 -1.8419 0
M  V30 1966 H 185.138 1.31329 -3.69134 0
M  V30 1967 H 186.835 0.975804 -3.88946 0
M  V30 1968 H 183.425 -0.407366 -4.2666 0
M  V30 1969 H 187.609 -1.22397 -4.80971 0
M  V30 1970 H 182.865 -2.3707 -5.63567 0
M  V30 1971 H 187.039 -3.18608 -6.19243 0
M  V30 1972 H 184.666 -3.76533 -6.60399 0
M  V30 1973 N 186.241 1.57166 -0.116904 0
M  V30 1974 C 187.518 1.86645 0.585049 0
M  V30 1975 C 187.898 1.0177 1.84949 0
M  V30 1976 O 187.246 0.0960379 2.28298 0
M  V30 1977 C 187.456 3.37736 0.879507 0
M  V30 1978 C 188.804 4.06289 1.23348 0
M  V30 1979 O 189.828 3.42743 0.969836 0
M  V30 1980 O 188.687 5.18455 1.7282 0
M  V30 1981 H 185.781 0.772593 0.295007 0
M  V30 1982 H 188.327 1.69025 -0.151249 0
M  V30 1983 H 187.099 3.91296 -0.0166136 0
M  V30 1984 H 186.722 3.6078 1.67103 0
M  V30 1985 N 187.719 -0.156864 1.56817 0
M  V30 1986 C 189.135 -0.50916 1.5126 0
M  V30 1987 C 189.335 -1.83897 0.823658 0
M  V30 1988 O 188.391 -2.49469 0.390055 0
M  V30 1989 C 189.704 -0.52857 2.96018 0
M  V30 1990 C 191.252 -0.614771 3.06903 0
M  V30 1991 C 191.727 -0.664938 4.53147 0
M  V30 1992 N 193.218 -0.727433 4.57452 0
M  V30 1993 C 193.953 -0.787067 5.67973 0
M  V30 1994 N 193.449 -0.806649 6.88088 0
M  V30 1995 N 195.242 -0.827195 5.5598 0
M  V30 1996 H 187.393 0.714935 2.00006 0
M  V30 1997 H 189.656 0.259526 0.911784 0
M  V30 1998 H 189.362 0.380154 3.49639 0
M  V30 1999 H 189.236 -1.36998 3.51442 0
M  V30 2000 H 191.623 -1.51392 2.53307 0
M  V30 2001 H 191.704 0.253597 2.5454 0
M  V30 2002 H 191.348 0.230011 5.07379 0
M  V30 2003 H 191.278 -1.54966 5.03282 0
M  V30 2004 H 193.769 -0.719998 3.70978 0
M  V30 2005 H 194.082 -0.853727 7.6807 0
M  V30 2006 H 192.427 -0.774687 6.90669 0
M  V30 2007 H 195.618 -0.808998 4.61056 0
M  V30 2008 H 195.791 -0.870206 6.4213 0
M  V30 2009 N 189.197 -1.51736 -0.425897 0
M  V30 2010 C 190.427 -1.68549 -1.19476 0
M  V30 2011 C 190.835 -0.387288 -1.85194 0
M  V30 2012 O 190.178 0.645142 -1.71999 0
M  V30 2013 C 190.24 -2.75275 -2.31223 0
M  V30 2014 C 189.904 -4.17534 -1.8578 0
M  V30 2015 C 190.901 -5.01936 -1.35485 0
M  V30 2016 C 188.586 -4.6369 -1.93123 0
M  V30 2017 C 190.58 -6.30559 -0.931347 0
M  V30 2018 C 188.267 -5.92307 -1.50384 0
M  V30 2019 C 189.265 -6.75569 -1.00473 0
M  V30 2020 O 188.953 -8.0178 -0.583452 0
M  V30 2021 H 188.685 -0.568525 -0.365725 0
M  V30 2022 H 191.239 -1.98982 -0.509444 0
M  V30 2023 H 189.469 -2.40182 -3.03067 0
M  V30 2024 H 191.158 -2.80853 -2.93047 0
M  V30 2025 H 191.924 -4.67475 -1.29197 0
M  V30 2026 H 187.803 -3.98997 -2.30916 0
M  V30 2027 H 191.347 -6.95498 -0.541084 0
M  V30 2028 H 187.244 -6.2628 -1.56346 0
M  V30 2029 H 188.012 -8.1543 -0.708275 0
M  V30 2030 N 190.675 0.682077 -1.42076 0
M  V30 2031 C 191.922 1.44215 -1.42156 0
M  V30 2032 C 192.25 1.94468 -0.0354186 0
M  V30 2033 O 191.505 1.70816 0.955002 0
M  V30 2034 C 191.804 2.66036 -2.38662 0
M  V30 2035 C 191.47 2.34366 -3.85206 0
M  V30 2036 C 190.132 2.25439 -4.25124 0
M  V30 2037 C 192.484 2.08513 -4.77673 0
M  V30 2038 C 189.812 1.88775 -5.55501 0
M  V30 2039 C 192.164 1.73354 -6.08384 0
M  V30 2040 C 190.828 1.62933 -6.47309 0
M  V30 2041 H 190.098 0.527718 -0.520187 0
M  V30 2042 H 192.745 0.778387 -1.74967 0
M  V30 2043 H 191.05 3.3741 -1.99152 0
M  V30 2044 H 192.747 3.24205 -2.35991 0
M  V30 2045 H 189.337 2.42213 -3.53597 0
M  V30 2046 H 193.521 2.14346 -4.47626 0
M  V30 2047 H 188.777 1.7927 -5.84527 0
M  V30 2048 H 192.951 1.52373 -6.79526 0
M  V30 2049 H 190.578 1.34292 -7.48244 0
M  V30 2050 N 192.153 1.28127 0.917671 0
M  V30 2051 C 193.378 1.18007 1.70555 0
M  V30 2052 C 193.803 -0.258257 1.86319 0
M  V30 2053 O 193.161 -1.1869 1.37049 0
M  V30 2054 C 193.209 1.87948 3.07746 0
M  V30 2055 O 192.313 1.18427 3.9503 0
M  V30 2056 H 191.654 0.409867 0.522403 0
M  V30 2057 H 194.184 1.69379 1.1477 0
M  V30 2058 H 194.194 1.95701 3.58001 0
M  V30 2059 H 192.869 2.92573 2.95591 0
M  V30 2060 H 191.446 1.18811 3.53466 0
M  V30 2061 N 193.631 -1.12557 1.10312 0
M  V30 2062 C 194.88 -1.83395 0.839588 0
M  V30 2063 C 195.193 -1.84939 -0.636929 0
M  V30 2064 O 196.399 -2.51761 -1.01631 0
M  V30 2065 C 194.855 -3.29303 1.45215 0
M  V30 2066 C 194.463 -3.36122 2.96186 0
M  V30 2067 C 196.207 -4.05121 1.26796 0
M  V30 2068 C 194.114 -4.76357 3.50483 0
M  V30 2069 H 193.044 -0.687133 0.310425 0
M  V30 2070 H 195.695 -1.26746 1.32694 0
M  V30 2071 H 194.077 -3.85812 0.892469 0
M  V30 2072 H 195.251 -2.89559 3.58458 0
M  V30 2073 H 193.566 -2.73776 3.13745 0
M  V30 2074 H 196.163 -5.08668 1.64806 0
M  V30 2075 H 196.506 -4.15773 0.209409 0
M  V30 2076 H 197.039 -3.54967 1.79563 0
M  V30 2077 H 193.778 -4.70899 4.55998 0
M  V30 2078 H 193.298 -5.23377 2.92978 0
M  V30 2079 H 194.977 -5.45294 3.48228 0
M  V30 2080 N 195.109 -0.891671 -1.2995 0
M  V30 2081 C 196.337 -0.52866 -2.00032 0
M  V30 2082 C 196.752 0.884574 -1.66795 0
M  V30 2083 O 196.109 1.5827 -0.908669 0
M  V30 2084 C 196.16 -0.701814 -3.54622 0
M  V30 2085 O 195.881 -2.05942 -3.86678 0
M  V30 2086 C 197.382 -0.342683 -4.41973 0
M  V30 2087 H 194.602 -0.203659 -0.639347 0
M  V30 2088 H 197.146 -1.19881 -1.65677 0
M  V30 2089 H 195.301 -0.0789468 -3.8732 0
M  V30 2090 H 195.715 -2.08291 -4.81368 0
M  V30 2091 H 197.189 -0.514709 -5.49595 0
M  V30 2092 H 197.666 0.71975 -4.33262 0
M  V30 2093 H 198.272 -0.942154 -4.14733 0
M  V30 2094 N 196.587 1.43421 -0.653314 0
M  V30 2095 C 198.003 1.56341 -0.320886 0
M  V30 2096 C 198.203 1.63696 1.17499 0
M  V30 2097 O 197.259 1.59208 1.95982 0
M  V30 2098 C 198.572 2.82424 -1.03233 0
M  V30 2099 C 200.12 2.96168 -1.01259 0
M  V30 2100 C 200.595 4.25084 -1.70492 0
M  V30 2101 N 202.086 4.31948 -1.67257 0
M  V30 2102 C 202.821 5.30466 -2.17701 0
M  V30 2103 N 202.317 6.35261 -2.76434 0
M  V30 2104 N 204.11 5.2212 -2.082 0
M  V30 2105 H 196.261 1.3689 -1.62403 0
M  V30 2106 H 198.524 0.657455 -0.682977 0
M  V30 2107 H 198.23 2.83053 -2.08744 0
M  V30 2108 H 198.104 3.72653 -0.583948 0
M  V30 2109 H 200.491 2.9508 0.0341235 0
M  V30 2110 H 200.572 2.07229 -1.49966 0
M  V30 2111 H 200.216 4.26932 -2.7512 0
M  V30 2112 H 200.146 5.1292 -1.19251 0
M  V30 2113 H 202.637 3.56838 -1.24398 0
M  V30 2114 H 202.95 7.06754 -3.12601 0
M  V30 2115 H 201.295 6.35884 -2.80495 0
M  V30 2116 H 204.486 4.39166 -1.62021 0
M  V30 2117 H 204.659 5.98739 -2.47822 0
M  V30 2118 N 198.065 0.39524 1.52563 0
M  V30 2119 C 199.476 -0.0774719 1.86539 0
M  V30 2120 C 199.827 -1.45641 1.31466 0
M  V30 2121 O 198.952 -2.06459 0.648367 0
M  V30 2122 C 199.547 -0.147356 3.38479 0
M  V30 2123 C 198.106 -0.564373 3.72145 0
M  V30 2124 C 197.253 0.269919 2.75983 0
M  V30 2125 H 200.204 0.612876 1.46388 0
M  V30 2126 H 200.225 -0.965343 3.68051 0
M  V30 2127 H 199.737 0.856387 3.78534 0
M  V30 2128 H 197.838 -1.57527 3.37663 0
M  V30 2129 H 197.951 -0.318402 4.78041 0
M  V30 2130 H 196.315 -0.265696 2.5331 0
M  V30 2131 H 197.098 1.27175 3.18875 0
M  V30 2132 N 199.544 -1.57102 0.125237 0
M  V30 2133 C 200.474 -2.18659 -0.819174 0
M  V30 2134 C 201.455 -1.12843 -1.27281 0
M  V30 2135 O 202.64 -1.41104 -1.33429 0
M  V30 2136 C 199.77 -2.79096 -2.06695 0
M  V30 2137 C 198.724 -3.90548 -1.75088 0
M  V30 2138 C 198.05 -4.37821 -3.06948 0
M  V30 2139 C 199.35 -5.12356 -1.01435 0
M  V30 2140 H 201.044 -2.9783 -0.306202 0
M  V30 2141 H 198.59 -1.4326 -0.145839 0
M  V30 2142 H 200.543 -3.2082 -2.73226 0
M  V30 2143 H 199.267 -1.97223 -2.60328 0
M  V30 2144 H 197.926 -3.49409 -1.10944 0
M  V30 2145 H 197.574 -3.52799 -3.58527 0
M  V30 2146 H 197.274 -5.12982 -2.86571 0
M  V30 2147 H 198.798 -4.822 -3.74587 0
M  V30 2148 H 200.212 -5.5106 -1.58132 0
M  V30 2149 H 198.609 -5.9314 -0.911319 0
M  V30 2150 H 199.679 -4.849 -0.00218681 0
M  V30 2151 N 201.022 0.148545 -1.56898 0
M  V30 2152 C 202.25 0.876389 -1.87422 0
M  V30 2153 C 202.665 1.74809 -0.713256 0
M  V30 2154 O 202.022 1.79725 0.317025 0
M  V30 2155 C 202.073 1.73438 -3.17178 0
M  V30 2156 O 201.794 0.897809 -4.28802 0
M  V30 2157 C 203.295 2.56993 -3.61205 0
M  V30 2158 H 200.515 0.253489 -0.621277 0
M  V30 2159 H 203.059 0.141798 -2.04008 0
M  V30 2160 H 201.214 2.42205 -3.0235 0
M  V30 2161 H 201.628 1.48672 -5.02988 0
M  V30 2162 H 203.102 3.12773 -4.54838 0
M  V30 2163 H 203.579 3.32958 -2.86419 0
M  V30 2164 H 204.185 1.9352 -3.78722 0
M  V30 2165 N 202.5 1.5196 0.417844 0
M  V30 2166 C 203.73 1.69181 1.18581 0
M  V30 2167 C 204.138 0.397104 1.84986 0
M  V30 2168 O 203.481 -0.636011 1.72339 0
M  V30 2169 C 203.543 2.76497 2.29759 0
M  V30 2170 C 203.207 4.18514 1.83563 0
M  V30 2171 C 204.204 5.02648 1.32821 0
M  V30 2172 C 201.889 4.64708 1.90661 0
M  V30 2173 C 203.883 6.31044 0.897894 0
M  V30 2174 C 201.57 5.93096 1.47241 0
M  V30 2175 C 202.568 6.76093 0.968891 0
M  V30 2176 O 202.256 8.02078 0.540924 0
M  V30 2177 H 201.988 0.570457 0.362705 0
M  V30 2178 H 204.542 1.99249 0.498885 0
M  V30 2179 H 202.772 2.41786 3.01789 0
M  V30 2180 H 204.461 2.82403 2.91553 0
M  V30 2181 H 205.227 4.68154 1.26716 0
M  V30 2182 H 201.106 4.00216 2.28797 0
M  V30 2183 H 204.65 6.95776 0.504192 0
M  V30 2184 H 200.547 6.271 1.53022 0
M  V30 2185 H 201.315 8.15794 0.66502 0
M  V30 2186 N 203.978 -0.674533 1.42435 0
M  V30 2187 C 205.394 -0.98769 1.25367 0
M  V30 2188 C 205.594 -2.00879 0.158044 0
M  V30 2189 O 204.65 -2.48075 -0.470633 0
M  V30 2190 C 205.963 -1.49224 2.6106 0
M  V30 2191 C 207.511 -1.61 2.68417 0
M  V30 2192 C 207.986 -2.14852 4.04478 0
M  V30 2193 N 209.477 -2.22185 4.06434 0
M  V30 2194 C 210.212 -2.64928 5.08528 0
M  V30 2195 N 209.708 -3.07121 6.21006 0
M  V30 2196 N 211.501 -2.64679 4.95885 0
M  V30 2197 H 203.652 0.00152503 2.124 0
M  V30 2198 H 205.915 -0.0618434 0.945981 0
M  V30 2199 H 205.621 -0.816453 3.42092 0
M  V30 2200 H 205.495 -2.47094 2.84999 0
M  V30 2201 H 207.882 -2.27686 1.87732 0
M  V30 2202 H 207.963 -0.616195 2.48267 0
M  V30 2203 H 207.607 -1.48775 4.85622 0
M  V30 2204 H 207.537 -3.15024 4.2198 0
M  V30 2205 H 210.028 -1.92435 3.25234 0
M  V30 2206 H 210.341 -3.38423 6.94759 0
M  V30 2207 H 208.686 -3.04978 6.24511 0
M  V30 2208 H 211.877 -2.31078 4.07088 0
M  V30 2209 H 212.05 -2.9767 5.75584 0
M  V30 2210 N 205.456 -1.28612 -0.910864 0
M  V30 2211 C 206.419 -1.12803 -1.9952 0
M  V30 2212 C 207.419 -0.0668264 -1.60661 0
M  V30 2213 O 208.609 -0.312847 -1.71368 0
M  V30 2214 C 205.741 -0.72254 -3.33155 0
M  V30 2215 H 206.934 -2.09109 -2.14973 0
M  V30 2216 H 204.487 -1.11639 -1.09391 0
M  V30 2217 H 205.222 0.241152 -3.23402 0
M  V30 2218 H 205.007 -1.48916 -3.62721 0
M  V30 2219 H 206.497 -0.634666 -4.12749 0
M  V30 2220 N 206.934 1.1197 -1.10907 0
M  V30 2221 C 207.881 2.17846 -0.762345 0
M  V30 2222 C 208.851 1.63995 0.263599 0
M  V30 2223 O 210.036 1.90273 0.141773 0
M  V30 2224 C 207.176 3.44487 -0.205651 0
M  V30 2225 C 206.289 4.12369 -1.28748 0
M  V30 2226 C 205.424 5.26674 -0.691919 0
M  V30 2227 C 204.463 5.86431 -1.75399 0
M  V30 2228 N 203.6 6.92142 -1.17833 0
M  V30 2229 H 208.44 2.46851 -1.6694 0
M  V30 2230 H 205.977 1.21188 -0.833776 0
M  V30 2231 H 207.935 4.16981 0.135037 0
M  V30 2232 H 206.565 3.15884 0.664613 0
M  V30 2233 H 205.617 3.38003 -1.74522 0
M  V30 2234 H 206.929 4.52844 -2.09125 0
M  V30 2235 H 206.083 6.05953 -0.300963 0
M  V30 2236 H 204.822 4.8749 0.143232 0
M  V30 2237 H 203.827 5.05835 -2.15432 0
M  V30 2238 H 205.052 6.27685 -2.59208 0
M  V30 2239 H 202.998 6.54985 -0.364725 0
M  V30 2240 H 202.915 7.31242 -1.91887 0
M  V30 2241 H 204.183 7.75237 -0.81408 0
M  V30 2242 N 208.412 0.89855 1.29475 0
M  V30 2243 C 209.828 0.594483 1.48115 0
M  V30 2244 C 210.028 -0.86431 1.82022 0
M  V30 2245 O 209.084 -1.64457 1.91599 0
M  V30 2246 C 210.397 1.51932 2.59494 0
M  V30 2247 C 211.945 1.5244 2.7337 0
M  V30 2248 C 212.42 2.43548 3.87877 0
M  V30 2249 N 213.911 2.41589 3.95208 0
M  V30 2250 C 214.646 3.08789 4.83153 0
M  V30 2251 N 214.142 3.85265 5.75798 0
M  V30 2252 N 215.935 2.97952 4.76635 0
M  V30 2253 H 208.086 1.84207 1.05742 0
M  V30 2254 H 210.349 0.789251 0.525154 0
M  V30 2255 H 210.055 2.55865 2.41301 0
M  V30 2256 H 209.929 1.23899 3.56271 0
M  V30 2257 H 212.316 0.492518 2.90961 0
M  V30 2258 H 212.397 1.8451 1.77172 0
M  V30 2259 H 212.041 3.46829 3.71041 0
M  V30 2260 H 211.971 2.08788 4.83441 0
M  V30 2261 H 214.462 1.86025 3.28943 0
M  V30 2262 H 214.775 4.33598 6.39697 0
M  V30 2263 H 213.12 3.89371 5.75687 0
M  V30 2264 H 216.311 2.37723 4.03244 0
M  V30 2265 H 216.484 3.50599 5.44962 0
M  V30 2266 N 209.89 -1.43072 0.660911 0
M  V30 2267 C 211.118 -2.06067 0.185422 0
M  V30 2268 C 211.533 -1.49582 -1.15198 0
M  V30 2269 O 210.89 -0.630134 -1.71276 0
M  V30 2270 C 210.941 -3.61371 0.0966523 0
M  V30 2271 O 210.662 -4.15758 1.38119 0
M  V30 2272 C 212.163 -4.41455 -0.403996 0
M  V30 2273 H 209.383 -0.664459 0.0934604 0
M  V30 2274 H 211.927 -1.83447 0.90373 0
M  V30 2275 H 210.082 -3.8315 -0.572259 0
M  V30 2276 H 210.496 -5.09499 1.24542 0
M  V30 2277 H 211.97 -5.50437 -0.415045 0
M  V30 2278 H 212.447 -4.15036 -1.43674 0
M  V30 2279 H 213.053 -4.24663 0.232691 0
M  V30 2280 N 211.368 -0.403325 -1.52352 0
M  V30 2281 C 212.779 0.0675782 -1.86578 0
M  V30 2282 C 213.13 1.44941 -1.32236 0
M  V30 2283 O 212.255 2.06112 -0.659307 0
M  V30 2284 C 212.85 0.129404 -3.38553 0
M  V30 2285 C 211.409 0.544629 -3.72439 0
M  V30 2286 C 210.556 -0.284551 -2.75836 0
M  V30 2287 H 213.507 -0.620631 -1.46061 0
M  V30 2288 H 213.528 0.94581 -3.68558 0
M  V30 2289 H 213.04 -0.87645 -3.78074 0
M  V30 2290 H 211.141 1.55734 -3.38493 0
M  V30 2291 H 211.254 0.293046 -4.78203 0
M  V30 2292 H 209.618 0.252258 -2.53448 0
M  V30 2293 H 210.401 -1.28865 -3.18196 0
M  V30 2294 N 212.846 1.57033 -0.133567 0
M  V30 2295 C 213.793 2.16074 0.811208 0
M  V30 2296 C 214.763 1.08979 1.2535 0
M  V30 2297 O 215.948 1.36958 1.32843 0
M  V30 2298 C 213.088 2.77595 2.05024 0
M  V30 2299 C 212.201 3.99042 1.65498 0
M  V30 2300 C 211.336 4.48603 2.84479 0
M  V30 2301 C 210.375 5.62547 2.41262 0
M  V30 2302 N 209.512 6.06787 3.53206 0
M  V30 2303 H 214.352 2.96477 0.300906 0
M  V30 2304 H 211.889 1.46462 0.136822 0
M  V30 2305 H 213.847 3.11402 2.77642 0
M  V30 2306 H 212.477 1.99859 2.53488 0
M  V30 2307 H 211.529 3.71302 0.826981 0
M  V30 2308 H 212.841 4.81629 1.29748 0
M  V30 2309 H 211.995 4.84395 3.65303 0
M  V30 2310 H 210.734 3.64995 3.23465 0
M  V30 2311 H 209.739 5.26345 1.58874 0
M  V30 2312 H 210.964 6.47931 2.03377 0
M  V30 2313 H 208.91 5.26117 3.91838 0
M  V30 2314 H 208.827 6.84266 3.21427 0
M  V30 2315 H 210.095 6.4722 4.34427 0
M  V30 2316 N 214.325 -0.140222 1.56975 0
M  V30 2317 C 215.741 -0.493088 1.51792 0
M  V30 2318 C 215.941 -1.83013 0.843116 0
M  V30 2319 O 214.997 -2.49041 0.416493 0
M  V30 2320 C 216.31 -0.497144 2.96562 0
M  V30 2321 C 217.858 -0.582186 3.07538 0
M  V30 2322 C 218.333 -0.616838 4.53827 0
M  V30 2323 N 219.824 -0.678873 4.58198 0
M  V30 2324 C 220.559 -0.726782 5.68775 0
M  V30 2325 N 220.055 -0.733623 6.88905 0
M  V30 2326 N 221.848 -0.768179 5.56826 0
M  V30 2327 H 213.999 0.736108 1.99237 0
M  V30 2328 H 216.262 0.269182 0.90898 0
M  V30 2329 H 215.968 0.417217 3.49217 0
M  V30 2330 H 215.842 -1.33263 3.52875 0
M  V30 2331 H 218.229 -1.48697 2.54899 0
M  V30 2332 H 218.31 0.280581 2.54257 0
M  V30 2333 H 217.954 0.283812 5.07106 0
M  V30 2334 H 217.884 -1.49619 5.04898 0
M  V30 2335 H 220.375 -0.68061 3.7172 0
M  V30 2336 H 220.688 -0.772215 7.68932 0
M  V30 2337 H 219.033 -0.701389 6.91452 0
M  V30 2338 H 222.224 -0.760051 4.61888 0
M  V30 2339 H 222.397 -0.80205 6.43017 0
M  V30 2340 N 215.803 -1.52179 -0.40978 0
M  V30 2341 C 216.766 -1.74853 -1.48186 0
M  V30 2342 C 217.766 -0.618417 -1.48433 0
M  V30 2343 O 218.956 -0.886286 -1.49969 0
M  V30 2344 C 216.088 -1.8303 -2.87598 0
M  V30 2345 H 217.281 -2.70559 -1.29374 0
M  V30 2346 H 214.834 -1.42586 -0.640233 0
M  V30 2347 H 215.569 -0.89236 -3.11781 0
M  V30 2348 H 215.354 -2.65187 -2.88822 0
M  V30 2349 H 216.844 -2.02316 -3.65319 0
M  V30 2350 N 217.281 0.66697 -1.42791 0
M  V30 2351 C 218.529 1.42417 -1.43394 0
M  V30 2352 C 218.85 1.94925 -0.0542373 0
M  V30 2353 O 218.12 1.73564 0.908415 0
M  V30 2354 H 216.7 0.528515 -0.527902 0
M  V30 2355 H 219.362 0.787562 -1.78279 0
M  V30 2356 H 218.458 2.27333 -2.13837 0
M  V30 2357 N 218.759 1.29093 0.90403 0
M  V30 2358 C 220.008 1.16187 1.64874 0
M  V30 2359 C 220.321 -0.286742 1.93487 0
M  V30 2360 O 221.527 -0.537062 2.66135 0
M  V30 2361 C 219.983 2.03177 2.97064 0
M  V30 2362 C 219.591 3.52836 2.76062 0
M  V30 2363 C 221.335 1.98984 3.74974 0
M  V30 2364 C 219.242 4.31945 4.03952 0
M  V30 2365 H 218.172 0.431246 0.618501 0
M  V30 2366 H 220.823 1.53699 1.00243 0
M  V30 2367 H 219.205 1.5853 3.62883 0
M  V30 2368 H 220.379 4.05507 2.18863 0
M  V30 2369 H 218.694 3.58656 2.11553 0
M  V30 2370 H 221.291 2.55351 4.69787 0
M  V30 2371 H 221.634 0.968815 4.0487 0
M  V30 2372 H 222.167 2.41652 3.15989 0
M  V30 2373 H 218.906 5.34667 3.79225 0
M  V30 2374 H 218.426 3.84045 4.60727 0
M  V30 2375 H 220.105 4.42379 4.72133 0
M  V30 2376 N 220.237 -1.11381 1.11499 0
M  V30 2377 C 221.17 -2.16621 0.71769 0
M  V30 2378 C 222.148 -1.60058 -0.286413 0
M  V30 2379 O 223.332 -1.87613 -0.182689 0
M  V30 2380 C 220.459 -3.38646 0.0607265 0
M  V30 2381 C 219.505 -4.13874 1.03008 0
M  V30 2382 S 220.338 -4.70731 2.55289 0
M  V30 2383 C 221.494 -5.96079 1.90895 0
M  V30 2384 H 221.727 -2.49987 1.60915 0
M  V30 2385 H 219.26 -1.23015 0.933092 0
M  V30 2386 H 221.218 -4.09313 -0.311965 0
M  V30 2387 H 219.879 -3.03537 -0.807702 0
M  V30 2388 H 219.072 -5.01333 0.517853 0
M  V30 2389 H 218.674 -3.4897 1.34522 0
M  V30 2390 H 220.966 -6.65948 1.24577 0
M  V30 2391 H 221.909 -6.51946 2.76354 0
M  V30 2392 H 222.317 -5.47652 1.36885 0
M  V30 2393 N 221.715 -0.905404 -1.28997 0
M  V30 2394 C 222.964 -0.530191 -1.94607 0
M  V30 2395 C 223.277 0.929185 -1.72121 0
M  V30 2396 O 224.483 1.41218 -2.31883 0
M  V30 2397 C 222.939 -0.897333 -3.48534 0
M  V30 2398 C 222.547 -2.37587 -3.79811 0
M  V30 2399 C 224.291 -0.592304 -4.20347 0
M  V30 2400 C 222.198 -2.68357 -5.27009 0
M  V30 2401 H 221.128 -0.194558 -0.728466 0
M  V30 2402 H 223.779 -1.10318 -1.46636 0
M  V30 2403 H 222.161 -0.253214 -3.9519 0
M  V30 2404 H 223.335 -3.06602 -3.43994 0
M  V30 2405 H 221.65 -2.6505 -3.2115 0
M  V30 2406 H 224.247 -0.798975 -5.28697 0
M  V30 2407 H 224.59 0.469474 -4.13644 0
M  V30 2408 H 225.123 -1.19452 -3.79442 0
M  V30 2409 H 221.862 -3.73355 -5.38782 0
M  V30 2410 H 221.382 -2.03971 -5.64053 0
M  V30 2411 H 223.061 -2.54922 -5.94663 0
M  V30 2412 N 223.193 1.4272 -0.668489 0
M  V30 2413 C 224.441 2.01226 -0.187769 0
M  V30 2414 C 224.762 1.53092 1.2078 0
M  V30 2415 O 224.032 0.74993 1.80977 0
M  V30 2416 H 222.612 0.744041 -0.0664272 0
M  V30 2417 H 225.274 1.74723 -0.863583 0
M  V30 2418 H 224.37 3.11556 -0.184166 0
M  V30 2419 N 224.671 0.411399 1.52136 0
M  V30 2420 C 225.601 -0.404015 2.29978 0
M  V30 2421 C 226.582 -1.04412 1.34284 0
M  V30 2422 O 227.767 -1.0527 1.63192 0
M  V30 2423 C 224.897 -1.5197 3.12286 0
M  V30 2424 C 223.851 -1.00448 4.16046 0
M  V30 2425 C 223.177 -2.21393 4.86712 0
M  V30 2426 C 224.477 -0.0569336 5.22269 0
M  V30 2427 H 226.171 0.245529 2.98392 0
M  V30 2428 H 223.717 0.119525 1.43503 0
M  V30 2429 H 225.67 -2.09715 3.6551 0
M  V30 2430 H 224.394 -2.19716 2.41646 0
M  V30 2431 H 223.053 -0.449421 3.63835 0
M  V30 2432 H 222.701 -2.87699 4.12599 0
M  V30 2433 H 222.401 -1.87571 5.56858 0
M  V30 2434 H 223.925 -2.7974 5.4275 0
M  V30 2435 H 225.339 -0.54325 5.7072 0
M  V30 2436 H 223.736 0.192594 5.99791 0
M  V30 2437 H 224.806 0.887663 4.76706 0
M  V30 2438 N 226.149 -1.5696 0.141893 0
M  V30 2439 C 227.112 -2.15316 -0.785587 0
M  V30 2440 C 228.112 -1.09366 -1.1788 0
M  V30 2441 O 229.302 -1.35031 -1.10056 0
M  V30 2442 C 226.434 -2.71211 -2.06537 0
M  V30 2443 H 227.627 -2.98608 -0.278041 0
M  V30 2444 H 225.18 -1.5593 -0.107519 0
M  V30 2445 H 225.915 -1.91571 -2.6167 0
M  V30 2446 H 225.7 -3.4872 -1.79268 0
M  V30 2447 H 227.19 -3.16189 -2.72789 0
M  V30 2448 N 227.627 0.131896 -1.57047 0
M  V30 2449 C 228.873 0.838268 -1.85323 0
M  V30 2450 C 229.228 1.78098 -0.727937 0
M  V30 2451 O 228.521 1.89645 0.27304 0
M  V30 2452 C 228.715 1.63703 -3.17704 0
M  V30 2453 C 228.544 0.773167 -4.43004 0
M  V30 2454 C 227.314 0.432956 -5.03442 0
M  V30 2455 C 229.512 0.0966216 -5.14209 0
M  V30 2456 N 227.494 -0.442924 -6.123 0
M  V30 2457 C 228.865 -0.638778 -6.16701 0
M  V30 2458 C 230.92 0.018861 -4.97896 0
M  V30 2459 C 229.623 -1.44462 -7.04644 0
M  V30 2460 C 231.649 -0.773762 -5.86316 0
M  V30 2461 C 231.011 -1.4974 -6.883 0
M  V30 2462 H 227.11 0.284086 -0.728573 0
M  V30 2463 H 229.694 0.102731 -1.94429 0
M  V30 2464 H 227.865 2.3437 -3.09718 0
M  V30 2465 H 229.597 2.28774 -3.33833 0
M  V30 2466 H 226.352 0.772237 -4.67262 0
M  V30 2467 H 226.776 -0.872332 -6.71356 0
M  V30 2468 H 231.418 0.56397 -4.19022 0
M  V30 2469 H 229.136 -2.00093 -7.82936 0
M  V30 2470 H 232.722 -0.83612 -5.75761 0
M  V30 2471 H 231.602 -2.10087 -7.55535 0
M  V30 2472 N 229.106 1.52395 0.401703 0
M  V30 2473 C 230.036 1.79231 1.49661 0
M  V30 2474 C 231.017 0.643654 1.57452 0
M  V30 2475 O 232.202 0.889989 1.72606 0
M  V30 2476 C 229.332 1.94971 2.87409 0
M  V30 2477 C 228.286 3.10604 2.94465 0
M  V30 2478 C 227.612 3.11577 4.34538 0
M  V30 2479 C 228.912 4.49921 2.6527 0
M  V30 2480 H 230.606 2.70917 1.27454 0
M  V30 2481 H 228.152 1.30362 0.6117 0
M  V30 2482 H 230.105 2.12328 3.63999 0
M  V30 2483 H 228.829 0.999632 3.10926 0
M  V30 2484 H 227.488 2.93009 2.20321 0
M  V30 2485 H 227.136 2.14277 4.55076 0
M  V30 2486 H 226.836 3.89247 4.40183 0
M  V30 2487 H 228.36 3.31073 5.13053 0
M  V30 2488 H 229.774 4.67683 3.31581 0
M  V30 2489 H 228.171 5.29564 2.82281 0
M  V30 2490 H 229.241 4.57507 1.60671 0
M  V30 2491 N 230.584 -0.659388 1.43143 0
M  V30 2492 C 231.833 -1.41518 1.43721 0
M  V30 2493 C 232.146 -1.95499 0.0628176 0
M  V30 2494 O 233.352 -2.71446 -0.0539683 0
M  V30 2495 C 231.808 -2.5608 2.52885 0
M  V30 2496 C 231.416 -2.08733 3.96402 0
M  V30 2497 C 233.16 -3.3349 2.62649 0
M  V30 2498 C 231.067 -3.20469 4.97045 0
M  V30 2499 H 229.997 -0.531705 0.534608 0
M  V30 2500 H 232.648 -0.712343 1.69109 0
M  V30 2501 H 231.03 -3.28805 2.20688 0
M  V30 2502 H 232.204 -1.43059 4.3803 0
M  V30 2503 H 230.519 -1.44219 3.90627 0
M  V30 2504 H 233.116 -4.16734 3.35017 0
M  V30 2505 H 233.459 -3.8111 1.67513 0
M  V30 2506 H 233.992 -2.67842 2.94118 0
M  V30 2507 H 230.731 -2.77824 5.93712 0
M  V30 2508 H 230.251 -3.84874 4.60034 0
M  V30 2509 H 231.93 -3.85698 5.19467 0
M  V30 2510 N 232.062 -1.29571 -0.897171 0
M  V30 2511 C 233.287 -1.20705 -1.68656 0
M  V30 2512 C 233.712 0.228582 -1.86706 0
M  V30 2513 O 233.07 1.16494 -1.3892 0
M  V30 2514 C 233.118 -1.9282 -3.04717 0
M  V30 2515 O 232.222 -1.24697 -3.93096 0
M  V30 2516 H 231.563 -0.418126 -0.515816 0
M  V30 2517 H 234.093 -1.71183 -1.12061 0
M  V30 2518 H 234.103 -2.01372 -3.54843 0
M  V30 2519 H 232.778 -2.97239 -2.90899 0
M  V30 2520 H 231.355 -1.2442 -3.51531 0
M  V30 2521 N 233.54 1.10788 -1.12088 0
M  V30 2522 C 234.787 1.82671 -0.873931 0
M  V30 2523 C 235.115 1.85004 0.600311 0
M  V30 2524 O 234.37 1.30365 1.45957 0
M  V30 2525 C 234.669 3.29294 -1.38926 0
M  V30 2526 C 234.335 3.47113 -2.87791 0
M  V30 2527 C 232.997 3.51684 -3.28439 0
M  V30 2528 C 235.349 3.52808 -3.83635 0
M  V30 2529 C 232.677 3.59513 -4.63646 0
M  V30 2530 C 235.029 3.62169 -5.18668 0
M  V30 2531 C 233.693 3.65003 -5.58864 0
M  V30 2532 H 232.963 0.668441 -0.319794 0
M  V30 2533 H 235.61 1.30613 -1.40045 0
M  V30 2534 H 233.915 3.83894 -0.783122 0
M  V30 2535 H 235.612 3.83416 -1.17443 0
M  V30 2536 H 232.202 3.4423 -2.5535 0
M  V30 2537 H 236.386 3.4853 -3.53328 0
M  V30 2538 H 231.642 3.59987 -4.94185 0
M  V30 2539 H 235.816 3.6552 -5.92763 0
M  V30 2540 H 233.443 3.70822 -6.63623 0
M  V30 2541 N 235.018 0.912232 1.28515 0
M  V30 2542 C 236.267 0.540504 1.94323 0
M  V30 2543 C 236.58 -0.920044 1.72611 0
M  V30 2544 O 237.786 -1.39986 2.32629 0
M  V30 2545 C 236.242 0.915803 3.48053 0
M  V30 2546 C 235.85 2.39598 3.78546 0
M  V30 2547 C 237.594 0.614588 4.20027 0
M  V30 2548 C 235.501 2.71148 5.25578 0
M  V30 2549 H 234.431 0.198418 0.727424 0
M  V30 2550 H 237.082 1.11094 1.46049 0
M  V30 2551 H 235.464 0.274168 3.9505 0
M  V30 2552 H 236.638 3.08422 3.42364 0
M  V30 2553 H 234.953 2.66749 3.1974 0
M  V30 2554 H 237.55 0.827002 5.28266 0
M  V30 2555 H 237.893 -0.447531 4.13887 0
M  V30 2556 H 238.426 1.21462 3.78803 0
M  V30 2557 H 235.165 3.76207 5.36794 0
M  V30 2558 H 234.685 2.0696 5.62963 0
M  V30 2559 H 236.364 2.58072 5.93302 0
M  V30 2560 N 236.496 -1.42363 0.676048 0
M  V30 2561 C 237.426 -2.33497 0.0124832 0
M  V30 2562 C 238.407 -1.50748 -0.787981 0
M  V30 2563 O 239.592 -1.79346 -0.744884 0
M  V30 2564 C 236.722 -3.34377 -0.938582 0
M  V30 2565 C 235.676 -4.27289 -0.246622 0
M  V30 2566 C 235.002 -5.18386 -1.31071 0
M  V30 2567 C 236.302 -5.14916 0.875125 0
M  V30 2568 H 237.996 -2.89233 0.773593 0
M  V30 2569 H 235.542 -1.39073 0.37346 0
M  V30 2570 H 237.495 -3.97044 -1.41188 0
M  V30 2571 H 236.219 -2.76947 -1.73113 0
M  V30 2572 H 234.878 -3.66018 0.206456 0
M  V30 2573 H 234.526 -4.57282 -2.09528 0
M  V30 2574 H 234.226 -5.81378 -0.852839 0
M  V30 2575 H 235.75 -5.83929 -1.78492 0
M  V30 2576 H 237.164 -5.71262 0.482983 0
M  V30 2577 H 235.561 -5.86747 1.25887 0
M  V30 2578 H 236.631 -4.53242 1.72335 0
M  V30 2579 N 237.974 -0.419461 -1.51915 0
M  V30 2580 C 239.22 0.145505 -2.02879 0
M  V30 2581 C 239.575 1.41926 -1.29903 0
M  V30 2582 O 238.868 1.87383 -0.399782 0
M  V30 2583 C 239.062 0.437067 -3.54717 0
M  V30 2584 C 238.891 -0.806877 -4.42402 0
M  V30 2585 C 237.661 -1.33514 -4.87342 0
M  V30 2586 C 239.859 -1.68796 -4.85811 0
M  V30 2587 N 237.841 -2.53349 -5.59185 0
M  V30 2588 C 239.212 -2.73247 -5.56539 0
M  V30 2589 C 241.267 -1.70449 -4.67816 0
M  V30 2590 C 239.97 -3.79276 -6.11181 0
M  V30 2591 C 241.996 -2.75403 -5.23361 0
M  V30 2592 C 241.358 -3.78575 -5.9402 0
M  V30 2593 H 237.457 0.0145424 -0.781865 0
M  V30 2594 H 240.041 -0.576126 -1.85981 0
M  V30 2595 H 238.212 1.12774 -3.71667 0
M  V30 2596 H 239.944 0.99182 -3.92358 0
M  V30 2597 H 236.699 -0.891657 -4.65131 0
M  V30 2598 H 237.123 -3.14066 -5.99743 0
M  V30 2599 H 241.765 -0.920209 -4.12664 0
M  V30 2600 H 239.483 -4.58554 -6.65397 0
M  V30 2601 H 243.069 -2.77603 -5.113 0
M  V30 2602 H 241.949 -4.58453 -6.36231 0
M  V30 2603 N 239.452 1.56882 -0.150215 0
M  V30 2604 C 240.415 2.1573 0.774157 0
M  V30 2605 C 241.415 1.0999 1.17298 0
M  V30 2606 O 242.605 1.35613 1.09338 0
M  V30 2607 C 239.737 2.72302 2.05096 0
M  V30 2608 H 240.93 2.98752 0.262201 0
M  V30 2609 H 238.483 1.55985 0.099248 0
M  V30 2610 H 239.218 1.92956 2.6065 0
M  V30 2611 H 239.003 3.49665 1.77416 0
M  V30 2612 H 240.493 3.17632 2.71109 0
M  V30 2613 N 240.93 -0.123565 1.57115 0
M  V30 2614 C 242.341 -0.681198 1.73829 0
M  V30 2615 C 242.692 -1.80535 0.768214 0
M  V30 2616 O 241.817 -2.16317 -0.0599103 0
M  V30 2617 C 242.412 -1.24246 3.15196 0
M  V30 2618 C 240.971 -1.74643 3.33432 0
M  V30 2619 C 240.118 -0.644284 2.69711 0
M  V30 2620 H 243.069 0.102315 1.5837 0
M  V30 2621 H 243.09 -2.11216 3.16493 0
M  V30 2622 H 242.602 -0.424062 3.85776 0
M  V30 2623 H 240.703 -2.58974 2.67886 0
M  V30 2624 H 240.816 -1.85902 4.41562 0
M  V30 2625 H 239.18 -1.07676 2.3082 0
M  V30 2626 H 239.963 0.163058 3.42913 0
M  V30 2627 N 242.408 -1.52605 -0.393616 0
M  V30 2628 C 243.371 -1.76415 -1.46323 0
M  V30 2629 C 244.371 -0.634126 -1.47768 0
M  V30 2630 O 245.561 -0.902142 -1.4902 0
M  V30 2631 C 242.693 -1.8607 -2.85641 0
M  V30 2632 H 243.886 -2.71916 -1.26498 0
M  V30 2633 H 241.439 -1.43257 -0.625073 0
M  V30 2634 H 242.174 -0.925378 -3.10817 0
M  V30 2635 H 241.959 -2.68235 -2.85993 0
M  V30 2636 H 243.449 -2.06179 -3.63153 0
M  V30 2637 N 243.887 0.651787 -1.4349 0
M  V30 2638 C 245.136 1.40754 -1.44469 0
M  V30 2639 C 245.449 1.95463 -0.0731845 0
M  V30 2640 O 246.655 2.71471 0.0395721 0
M  V30 2641 C 245.111 2.54735 -2.5424 0
M  V30 2642 C 244.719 2.06628 -3.97504 0
M  V30 2643 C 246.463 3.32092 -2.64414 0
M  V30 2644 C 244.37 3.17829 -4.98737 0
M  V30 2645 H 243.3 0.528862 -0.53742 0
M  V30 2646 H 245.951 0.703365 -1.69485 0
M  V30 2647 H 244.333 3.2763 -2.22428 0
M  V30 2648 H 245.507 1.40734 -4.38783 0
M  V30 2649 H 243.822 1.42146 -3.91387 0
M  V30 2650 H 246.419 4.14952 -3.37223 0
M  V30 2651 H 246.762 3.80217 -1.69532 0
M  V30 2652 H 247.295 2.66279 -2.95534 0
M  V30 2653 H 244.034 2.74671 -5.95177 0
M  V30 2654 H 243.554 3.82429 -4.62069 0
M  V30 2655 H 245.233 3.82937 -5.21505 0
M  V30 2656 N 245.365 1.30045 0.890287 0
M  V30 2657 C 246.295 1.18541 2.01172 0
M  V30 2658 C 247.276 0.0773356 1.69924 0
M  V30 2659 O 248.461 0.25845 1.92473 0
M  V30 2660 C 245.591 0.870941 3.36202 0
M  V30 2661 C 244.545 1.93637 3.81692 0
M  V30 2662 C 243.871 1.475 5.13953 0
M  V30 2663 C 245.171 3.34666 4.00994 0
M  V30 2664 H 246.865 2.12359 2.11054 0
M  V30 2665 H 244.411 1.02238 1.01407 0
M  V30 2666 H 246.364 0.777141 4.14172 0
M  V30 2667 H 245.088 -0.102926 3.26438 0
M  V30 2668 H 243.747 2.01972 3.05946 0
M  V30 2669 H 243.395 0.489551 5.00612 0
M  V30 2670 H 243.095 2.1876 5.4536 0
M  V30 2671 H 244.619 1.39489 5.94454 0
M  V30 2672 H 246.033 3.2912 4.69417 0
M  V30 2673 H 244.43 4.03966 4.43769 0
M  V30 2674 H 245.5 3.76949 3.05021 0
M  V30 2675 N 246.843 -1.10192 1.12674 0
M  V30 2676 C 248.083 -1.83825 0.893736 0
M  V30 2677 C 248.447 -1.83341 -0.570082 0
M  V30 2678 O 249.648 -2.52553 -0.920354 0
M  V30 2679 C 247.919 -3.26405 1.45582 0
M  V30 2680 S 249.478 -4.17136 1.36171 0
M  V30 2681 H 246.296 -0.633732 0.322342 0
M  V30 2682 H 248.898 -1.32581 1.43675 0
M  V30 2683 H 247.602 -3.24329 2.51473 0
M  V30 2684 H 247.133 -3.82721 0.910405 0
M  V30 2685 H 249.148 -4.95069 0.334863 0
M  V30 2686 N 248.321 -0.919034 -1.28029 0
M  V30 2687 C 249.567 -0.565221 -1.95389 0
M  V30 2688 C 249.922 0.882325 -1.70976 0
M  V30 2689 O 249.215 1.61988 -1.02325 0
M  V30 2690 C 249.409 -0.816855 -3.4794 0
M  V30 2691 C 249.238 -2.28731 -3.87185 0
M  V30 2692 C 248.008 -2.93841 -4.11079 0
M  V30 2693 C 250.206 -3.26415 -3.97439 0
M  V30 2694 N 248.188 -4.31129 -4.37037 0
M  V30 2695 C 249.559 -4.48884 -4.27672 0
M  V30 2696 C 251.614 -3.21742 -3.79982 0
M  V30 2697 C 250.317 -5.67268 -4.42266 0
M  V30 2698 C 252.343 -4.39431 -3.95796 0
M  V30 2699 C 251.705 -5.60675 -4.26407 0
M  V30 2700 H 247.804 -0.256797 -0.738633 0
M  V30 2701 H 250.388 -1.18386 -1.54573 0
M  V30 2702 H 248.559 -0.227445 -3.87733 0
M  V30 2703 H 250.291 -0.426542 -4.02446 0
M  V30 2704 H 247.046 -2.44547 -4.05578 0
M  V30 2705 H 247.47 -5.02127 -4.5409 0
M  V30 2706 H 252.112 -2.29079 -3.55363 0
M  V30 2707 H 249.83 -6.60406 -4.65714 0
M  V30 2708 H 253.416 -4.37323 -3.83719 0
M  V30 2709 H 252.296 -6.50223 -4.38383 0
M  V30 2710 N 249.799 1.42003 -0.683588 0
M  V30 2711 C 250.731 2.29183 0.0283068 0
M  V30 2712 C 251.744 1.4415 0.756611 0
M  V30 2713 O 252.933 1.67779 0.609306 0
M  V30 2714 C 250.033 3.21765 1.06398 0
M  V30 2715 C 249.206 4.35496 0.407723 0
M  V30 2716 C 248.265 5.08737 1.34437 0
M  V30 2717 O 247.291 5.62948 0.841318 0
M  V30 2718 N 248.493 5.15075 2.67728 0
M  V30 2719 H 251.258 2.9092 -0.720105 0
M  V30 2720 H 248.819 1.53025 -0.528682 0
M  V30 2721 H 250.811 3.6763 1.69204 0
M  V30 2722 H 249.381 2.61418 1.71404 0
M  V30 2723 H 248.601 3.92165 -0.400012 0
M  V30 2724 H 249.889 5.08776 -0.0490956 0
M  V30 2725 H 249.287 4.72457 3.11129 0
M  V30 2726 H 247.844 5.64556 3.2576 0
M  V30 2727 N 251.277 0.427512 1.51691 0
M  V30 2728 C 252.507 -0.140986 2.06118 0
M  V30 2729 C 252.915 -1.37854 1.29588 0
M  V30 2730 O 252.258 -1.80411 0.346036 0
M  V30 2731 C 252.32 -0.538276 3.55447 0
M  V30 2732 C 251.984 0.591095 4.53161 0
M  V30 2733 C 252.981 1.46027 4.98971 0
M  V30 2734 C 250.666 0.769028 4.96378 0
M  V30 2735 C 252.66 2.49216 5.8666 0
M  V30 2736 C 250.347 1.80421 5.83859 0
M  V30 2737 C 251.345 2.66417 6.28897 0
M  V30 2738 O 251.033 3.68159 7.14643 0
M  V30 2739 H 250.765 -0.0157455 0.675817 0
M  V30 2740 H 253.319 0.602495 1.96365 0
M  V30 2741 H 251.549 -1.33432 3.6295 0
M  V30 2742 H 253.238 -1.0368 3.92435 0
M  V30 2743 H 254.004 1.33429 4.66285 0
M  V30 2744 H 249.883 0.109273 4.6087 0
M  V30 2745 H 253.427 3.16372 6.21735 0
M  V30 2746 H 249.324 1.93042 6.15959 0
M  V30 2747 H 250.092 3.64622 7.32798 0
M  V30 2748 N 252.755 -1.56801 0.158532 0
M  V30 2749 C 253.685 -2.20347 -0.772609 0
M  V30 2750 C 254.666 -1.15518 -1.24859 0
M  V30 2751 O 255.851 -1.43902 -1.30406 0
M  V30 2752 C 252.981 -2.83417 -2.00729 0
M  V30 2753 C 251.935 -3.94174 -1.66765 0
M  V30 2754 C 251.261 -4.44233 -2.97592 0
M  V30 2755 C 252.561 -5.14392 -0.905447 0
M  V30 2756 H 254.255 -2.98413 -0.242959 0
M  V30 2757 H 251.801 -1.43537 -0.115419 0
M  V30 2758 H 253.754 -3.26543 -2.6636 0
M  V30 2759 H 252.478 -2.02701 -2.56086 0
M  V30 2760 H 251.137 -3.51684 -1.03508 0
M  V30 2761 H 250.785 -3.60325 -3.50963 0
M  V30 2762 H 250.485 -5.18945 -2.75626 0
M  V30 2763 H 252.009 -4.90037 -3.64274 0
M  V30 2764 H 253.423 -5.5429 -1.46408 0
M  V30 2765 H 251.82 -5.9494 -0.7853 0
M  V30 2766 H 252.89 -4.84795 0.100668 0
M  V30 2767 N 254.233 0.115231 -1.57178 0
M  V30 2768 C 255.479 0.82357 -1.85325 0
M  V30 2769 C 255.812 1.79349 -0.744814 0
M  V30 2770 O 255.087 1.92899 0.249024 0
M  V30 2771 C 255.37 1.57014 -3.24066 0
M  V30 2772 C 255.223 0.619565 -4.45513 0
M  V30 2773 C 256.542 2.52545 -3.60429 0
M  V30 2774 H 253.661 0.297948 -0.674089 0
M  V30 2775 H 256.303 0.0877138 -1.89797 0
M  V30 2776 H 254.453 2.19742 -3.20383 0
M  V30 2777 H 256.125 0.000837639 -4.613 0
M  V30 2778 H 254.368 -0.0686174 -4.33746 0
M  V30 2779 H 255.039 1.17866 -5.3927 0
M  V30 2780 H 257.515 1.9992 -3.64926 0
M  V30 2781 H 256.391 3.01811 -4.58477 0
M  V30 2782 H 256.652 3.35383 -2.88047 0
M  V30 2783 N 255.711 1.52812 0.385517 0
M  V30 2784 C 256.959 1.67694 1.12797 0
M  V30 2785 C 257.28 0.421115 1.90399 0
M  V30 2786 O 256.55 -0.564551 1.87589 0
M  V30 2787 H 255.13 0.618155 0.419396 0
M  V30 2788 H 257.792 1.89938 0.436972 0
M  V30 2789 H 256.888 2.52896 1.82894 0
M  V30 2790 N 257.189 -0.644168 1.43834 0
M  V30 2791 C 258.136 -1.75671 1.49694 0
M  V30 2792 C 259.106 -1.6246 0.345809 0
M  V30 2793 O 260.291 -1.82573 0.554234 0
M  V30 2794 C 257.431 -3.13867 1.43463 0
M  V30 2795 C 256.544 -3.38147 2.6885 0
M  V30 2796 C 255.679 -4.66241 2.54544 0
M  V30 2797 C 254.718 -4.83657 3.75157 0
M  V30 2798 N 253.855 -6.03016 3.59605 0
M  V30 2799 H 258.695 -1.69998 2.44754 0
M  V30 2800 H 256.232 -0.829458 1.21484 0
M  V30 2801 H 258.19 -3.9377 1.37843 0
M  V30 2802 H 256.82 -3.18588 0.519783 0
M  V30 2803 H 255.872 -2.52276 2.84712 0
M  V30 2804 H 257.184 -3.46899 3.58417 0
M  V30 2805 H 256.338 -5.54285 2.46683 0
M  V30 2806 H 255.077 -4.59826 1.62516 0
M  V30 2807 H 254.082 -3.94046 3.83416 0
M  V30 2808 H 255.307 -4.91896 4.68204 0
M  V30 2809 H 253.253 -5.97715 2.7032 0
M  V30 2810 H 253.17 -6.12766 4.42779 0
M  V30 2811 H 254.438 -6.93657 3.55613 0
M  V30 2812 N 258.668 -1.30515 -0.883378 0
M  V30 2813 C 260.084 -1.08881 -1.16692 0
M  V30 2814 C 260.284 0.149409 -2.00945 0
M  V30 2815 O 259.34 0.84257 -2.38027 0
M  V30 2816 C 260.653 -2.35319 -1.87204 0
M  V30 2817 C 262.201 -2.40799 -1.99962 0
M  V30 2818 C 262.676 -3.67083 -2.73887 0
M  V30 2819 N 264.167 -3.679 -2.81432 0
M  V30 2820 C 264.902 -4.62303 -3.3921 0
M  V30 2821 N 264.398 -5.67052 -3.98025 0
M  V30 2822 N 266.191 -4.49845 -3.3704 0
M  V30 2823 H 258.342 -2.09951 -0.321633 0
M  V30 2824 H 260.605 -0.92556 -0.205043 0
M  V30 2825 H 260.311 -3.25689 -1.3274 0
M  V30 2826 H 260.185 -2.44089 -2.87577 0
M  V30 2827 H 262.572 -1.50907 -2.53597 0
M  V30 2828 H 262.653 -2.36003 -0.98673 0
M  V30 2829 H 262.297 -4.57334 -2.20925 0
M  V30 2830 H 262.227 -3.69141 -3.75556 0
M  V30 2831 H 264.718 -2.92171 -2.39676 0
M  V30 2832 H 265.031 -6.35184 -4.40183 0
M  V30 2833 H 263.376 -5.70842 -3.96439 0
M  V30 2834 H 266.567 -3.67194 -2.90321 0
M  V30 2835 H 266.74 -5.23597 -3.81772 0
M  V30 2836 N 260.146 1.09593 -1.13257 0
M  V30 2837 C 261.374 1.855 -0.916378 0
M  V30 2838 C 261.789 1.81069 0.534738 0
M  V30 2839 O 261.146 1.20562 1.37007 0
M  V30 2840 C 261.197 3.33546 -1.39388 0
M  V30 2841 O 260.918 3.37927 -2.78813 0
M  V30 2842 C 262.419 4.26299 -1.21588 0
M  V30 2843 H 259.639 0.585991 -0.326887 0
M  V30 2844 H 262.183 1.38488 -1.5047 0
M  V30 2845 H 260.338 3.77992 -0.848597 0
M  V30 2846 H 260.752 4.30254 -2.9997 0
M  V30 2847 H 262.226 5.28341 -1.59876 0
M  V30 2848 H 262.703 4.38918 -0.157376 0
M  V30 2849 H 263.309 3.87668 -1.7491 0
M  V30 2850 N 261.624 0.925811 1.2754 0
M  V30 2851 C 262.87 0.566092 1.94739 0
M  V30 2852 C 263.203 -0.890057 1.72603 0
M  V30 2853 O 262.478 -1.63467 1.05399 0
M  V30 2854 C 262.761 0.89054 3.48915 0
M  V30 2855 C 262.614 2.4003 3.80402 0
M  V30 2856 C 263.933 0.395101 4.38323 0
M  V30 2857 H 261.052 0.20714 0.707292 0
M  V30 2858 H 263.694 1.15725 1.50691 0
M  V30 2859 H 261.844 0.387452 3.86563 0
M  V30 2860 H 263.516 2.97494 3.52555 0
M  V30 2861 H 261.759 2.85028 3.2702 0
M  V30 2862 H 262.43 2.57785 4.8811 0
M  V30 2863 H 264.906 0.826241 4.07814 0
M  V30 2864 H 263.782 0.651086 5.45025 0
M  V30 2865 H 264.043 -0.704798 4.36446 0
M  V30 2866 N 263.102 -1.41638 0.69111 0
M  V30 2867 C 264.513 -1.84346 0.295517 0
M  V30 2868 C 264.864 -1.57833 -1.16547 0
M  V30 2869 O 263.989 -1.04648 -1.89414 0
M  V30 2870 C 264.584 -3.34636 0.529575 0
M  V30 2871 C 263.143 -3.7593 0.187944 0
M  V30 2872 C 262.29 -2.65082 0.814052 0
M  V30 2873 H 265.241 -1.31253 0.892092 0
M  V30 2874 H 265.262 -3.79903 -0.213148 0
M  V30 2875 H 264.774 -3.53901 1.59297 0
M  V30 2876 H 262.875 -3.62268 -0.871367 0
M  V30 2877 H 262.988 -4.74808 0.63985 0
M  V30 2878 H 261.352 -2.53528 0.244017 0
M  V30 2879 H 262.135 -2.87167 1.88123 0
M  V30 2880 N 264.58 -0.43555 -1.51462 0
M  V30 2881 C 265.51 0.367376 -2.30592 0
M  V30 2882 C 266.491 1.02263 -1.35928 0
M  V30 2883 O 267.676 1.02661 -1.64847 0
M  V30 2884 C 264.806 1.46983 -3.14664 0
M  V30 2885 C 263.76 0.938161 -4.17591 0
M  V30 2886 C 263.086 2.13622 -4.90173 0
M  V30 2887 C 264.386 -0.0261621 -5.22293 0
M  V30 2888 H 266.08 -0.292969 -2.97963 0
M  V30 2889 H 263.626 -0.14234 -1.43295 0
M  V30 2890 H 265.579 2.03873 -3.688 0
M  V30 2891 H 264.303 2.15843 -2.4511 0
M  V30 2892 H 262.962 0.391481 -3.64504 0
M  V30 2893 H 262.61 2.81098 -4.17124 0
M  V30 2894 H 262.31 1.78688 -5.59772 0
M  V30 2895 H 263.834 2.7107 -5.47132 0
M  V30 2896 H 265.248 0.452384 -5.71512 0
M  V30 2897 H 263.645 -0.287992 -5.99409 0
M  V30 2898 H 264.715 -0.963391 -4.75233 0
M  V30 2899 N 266.058 1.56714 -0.166846 0
M  V30 2900 C 267.335 1.88412 0.525373 0
M  V30 2901 C 267.715 1.07602 1.81618 0
M  V30 2902 O 267.063 0.168621 2.27877 0
M  V30 2903 C 267.273 3.40363 0.771613 0
M  V30 2904 C 268.621 4.10007 1.1036 0
M  V30 2905 O 269.645 3.45655 0.860304 0
M  V30 2906 O 268.504 5.2369 1.56239 0
M  V30 2907 H 265.598 0.781587 0.270278 0
M  V30 2908 H 268.144 1.68458 -0.204946 0
M  V30 2909 H 266.916 3.91046 -0.141093 0
M  V30 2910 H 266.539 3.65914 1.55541 0
M  V30 2911 N 267.536 -0.106894 1.57237 0
M  V30 2912 C 268.446 -1.14911 2.0453 0
M  V30 2913 C 269.462 -1.44592 0.96795 0
M  V30 2914 O 270.638 -1.55468 1.2803 0
M  V30 2915 C 267.703 -2.45272 2.45036 0
M  V30 2916 C 266.764 -2.22879 3.66911 0
M  V30 2917 C 265.997 -3.47024 4.05475 0
M  V30 2918 O 266.22 -4.54804 3.44252 0
M  V30 2919 O 265.154 -3.3731 4.98504 0
M  V30 2920 H 268.98 -0.777461 2.9358 0
M  V30 2921 H 266.565 -0.318563 1.45964 0
M  V30 2922 H 268.447 -3.22055 2.71769 0
M  V30 2923 H 267.122 -2.81886 1.59129 0
M  V30 2924 H 266.029 -1.43915 3.45311 0
M  V30 2925 H 267.362 -1.91163 4.53561 0
M  V30 2926 N 269.014 -1.53014 -0.377408 0
M  V30 2927 C 270.254 -1.70318 -1.1301 0
M  V30 2928 C 270.618 -0.439538 -1.86901 0
M  V30 2929 O 271.819 -0.489095 -2.64313 0
M  V30 2930 C 270.09 -2.91125 -2.07319 0
M  V30 2931 S 271.649 -3.29075 -2.90268 0
M  V30 2932 H 268.467 -0.599426 -0.382374 0
M  V30 2933 H 271.069 -1.91089 -0.412933 0
M  V30 2934 H 269.773 -3.81303 -1.51777 0
M  V30 2935 H 269.304 -2.7272 -2.83526 0
M  V30 2936 H 271.319 -2.80165 -4.09539 0
M  V30 2937 N 270.492 0.636531 -1.44174 0
M  V30 2938 C 271.424 1.7618 -1.46606 0
M  V30 2939 C 272.437 1.58768 -0.360091 0
M  V30 2940 O 273.626 1.67181 -0.625518 0
M  V30 2941 C 270.726 3.13833 -1.27915 0
M  V30 2942 C 269.899 3.57753 -2.51658 0
M  V30 2943 C 268.958 4.74265 -2.27945 0
M  V30 2944 O 267.984 4.82852 -3.01401 0
M  V30 2945 N 269.186 5.65604 -1.30662 0
M  V30 2946 H 271.951 1.74567 -2.43612 0
M  V30 2947 H 269.512 0.820924 -1.39544 0
M  V30 2948 H 271.504 3.8949 -1.09907 0
M  V30 2949 H 270.074 3.10121 -0.39293 0
M  V30 2950 H 269.294 2.72362 -2.84978 0
M  V30 2951 H 270.582 3.83847 -3.33974 0
M  V30 2952 H 269.98 5.61354 -0.699844 0
M  V30 2953 H 268.537 6.40913 -1.18634 0
M  V30 2954 N 271.97 1.30982 0.876444 0
M  V30 2955 C 273.219 1.19658 1.62373 0
M  V30 2956 C 273.532 -0.245636 1.94052 0
M  V30 2957 O 274.738 -0.48049 2.67214 0
M  V30 2958 C 273.194 2.09433 2.92687 0
M  V30 2959 C 272.802 3.58613 2.68516 0
M  V30 2960 C 274.546 2.06893 3.70669 0
M  V30 2961 C 272.453 4.40416 3.94699 0
M  V30 2962 H 271.383 0.444268 0.609214 0
M  V30 2963 H 274.034 1.55791 0.969605 0
M  V30 2964 H 272.416 1.66191 3.59439 0
M  V30 2965 H 273.59 4.10058 2.10212 0
M  V30 2966 H 271.905 3.63063 2.03898 0
M  V30 2967 H 274.502 2.65258 4.64265 0
M  V30 2968 H 274.845 1.05448 4.02724 0
M  V30 2969 H 275.378 2.48301 3.10792 0
M  V30 2970 H 272.117 5.42591 3.67798 0
M  V30 2971 H 271.637 3.93731 4.52477 0
M  V30 2972 H 273.316 4.52294 4.62644 0
M  V30 2973 N 273.449 -1.08991 1.13837 0
M  V30 2974 C 274.381 -2.15606 0.777612 0
M  V30 2975 C 275.394 -1.61533 -0.202739 0
M  V30 2976 O 276.583 -1.78491 0.0181055 0
M  V30 2977 C 273.683 -3.3864 0.132623 0
M  V30 2978 C 272.856 -4.22115 1.1462 0
M  V30 2979 C 271.915 -5.23564 0.526074 0
M  V30 2980 O 270.941 -5.56678 1.18735 0
M  V30 2981 N 272.143 -5.76266 -0.699866 0
M  V30 2982 H 274.908 -2.47159 1.69506 0
M  V30 2983 H 272.469 -1.24747 1.03198 0
M  V30 2984 H 274.461 -4.03626 -0.29459 0
M  V30 2985 H 273.031 -3.04938 -0.687849 0
M  V30 2986 H 272.251 -3.53199 1.75055 0
M  V30 2987 H 273.539 -4.74709 1.83109 0
M  V30 2988 H 272.937 -5.51585 -1.25581 0
M  V30 2989 H 271.494 -6.42963 -1.06968 0
M  V30 2990 N 274.927 -0.932562 -1.27047 0
M  V30 2991 C 276.174 -0.575559 -1.94148 0
M  V30 2992 C 276.502 0.883984 -1.73251 0
M  V30 2993 O 275.757 1.64655 -1.0577 0
M  V30 2994 C 276.056 -0.853713 -3.47054 0
M  V30 2995 C 275.722 -2.29577 -3.88079 0
M  V30 2996 C 274.384 -2.68999 -3.9899 0
M  V30 2997 C 276.736 -3.23331 -4.08787 0
M  V30 2998 C 274.064 -4.01289 -4.28 0
M  V30 2999 C 276.416 -4.55207 -4.39282 0
M  V30 3000 C 275.08 -4.94457 -4.48407 0
M  V30 3001 H 274.35 -0.210612 -0.710439 0
M  V30 3002 H 276.997 -1.17744 -1.51025 0
M  V30 3003 H 275.302 -0.169204 -3.91434 0
M  V30 3004 H 276.999 -0.55639 -3.97121 0
M  V30 3005 H 273.589 -1.97994 -3.80127 0
M  V30 3006 H 277.773 -2.94074 -3.99793 0
M  V30 3007 H 273.029 -4.31374 -4.33275 0
M  V30 3008 H 277.203 -5.27852 -4.54252 0
M  V30 3009 H 274.83 -5.96994 -4.7064 0
M  V30 3010 N 276.405 1.4127 -0.698611 0
M  V30 3011 C 277.335 2.33447 -0.049629 0
M  V30 3012 C 278.316 1.51982 0.763898 0
M  V30 3013 O 279.501 1.80509 0.716257 0
M  V30 3014 C 276.631 3.35828 0.885267 0
M  V30 3015 C 275.585 4.27627 0.178613 0
M  V30 3016 C 274.911 5.20406 1.22807 0
M  V30 3017 C 276.211 5.13459 -0.956933 0
M  V30 3018 H 277.905 2.87966 -0.81951 0
M  V30 3019 H 275.451 1.38461 -0.395538 0
M  V30 3020 H 277.404 3.9924 1.34854 0
M  V30 3021 H 276.128 2.79666 1.68685 0
M  V30 3022 H 274.787 3.65643 -0.26466 0
M  V30 3023 H 274.435 4.60558 2.02226 0
M  V30 3024 H 274.135 5.82661 0.760239 0
M  V30 3025 H 275.659 5.86695 1.69179 0
M  V30 3026 H 277.073 5.70421 -0.573805 0
M  V30 3027 H 275.47 5.8467 -1.35205 0
M  V30 3028 H 276.54 4.50443 -1.79524 0
M  V30 3029 N 277.883 0.443576 1.51229 0
M  V30 3030 C 279.108 -0.121648 2.07043 0
M  V30 3031 C 279.533 -1.35156 1.30823 0
M  V30 3032 O 278.891 -1.7793 0.347934 0
M  V30 3033 C 278.939 -0.41624 3.5819 0
M  V30 3034 O 278.043 -1.50163 3.8409 0
M  V30 3035 H 277.384 0.000871367 0.663999 0
M  V30 3036 H 279.914 0.626706 1.94765 0
M  V30 3037 H 279.924 -0.664867 4.02546 0
M  V30 3038 H 278.599 0.482653 4.1309 0
M  V30 3039 H 277.176 -1.24248 3.51592 0
M  V30 3040 N 279.361 -1.56624 0.175154 0
M  V30 3041 C 280.271 -2.21741 -0.766042 0
M  V30 3042 C 281.287 -1.21023 -1.25018 0
M  V30 3043 O 282.463 -1.53697 -1.3015 0
M  V30 3044 C 279.528 -2.84839 -1.97655 0
M  V30 3045 C 278.589 -4.00769 -1.53892 0
M  V30 3046 C 277.822 -4.60849 -2.69173 0
M  V30 3047 O 278.045 -4.19823 -3.86141 0
M  V30 3048 O 276.979 -5.50655 -2.43028 0
M  V30 3049 H 280.805 -3.02738 -0.241585 0
M  V30 3050 H 278.39 -1.49305 -0.053222 0
M  V30 3051 H 280.272 -3.24834 -2.68442 0
M  V30 3052 H 278.947 -2.06836 -2.48999 0
M  V30 3053 H 277.854 -3.65436 -0.80044 0
M  V30 3054 H 279.187 -4.80376 -1.07236 0
M  V30 3055 N 280.839 0.0985539 -1.57292 0
M  V30 3056 C 282.25 0.653457 -1.74891 0
M  V30 3057 C 282.601 1.7929 -0.796838 0
M  V30 3058 O 281.726 2.16385 0.0254886 0
M  V30 3059 C 282.321 1.19216 -3.17133 0
M  V30 3060 C 280.88 1.69316 -3.36168 0
M  V30 3061 C 280.027 0.601294 -2.70702 0
M  V30 3062 H 282.978 -0.127497 -1.58187 0
M  V30 3063 H 282.999 2.06154 -3.19814 0
M  V30 3064 H 282.511 0.362635 -3.86402 0
M  V30 3065 H 280.612 2.5468 -2.71972 0
M  V30 3066 H 280.725 1.78853 -4.44464 0
M  V30 3067 H 279.089 1.0399 -2.32504 0
M  V30 3068 H 279.872 -0.217592 -3.4261 0
M  V30 3069 N 282.317 1.53212 0.369288 0
M  V30 3070 C 283.545 1.73119 1.13303 0
M  V30 3071 C 283.96 0.458455 1.83149 0
M  V30 3072 O 283.317 -0.568403 1.73423 0
M  V30 3073 C 283.368 2.89413 2.16616 0
M  V30 3074 O 283.089 4.11761 1.49614 0
M  V30 3075 C 284.59 3.21161 3.05566 0
M  V30 3076 H 281.81 0.579107 0.338934 0
M  V30 3077 H 284.354 1.99942 0.429338 0
M  V30 3078 H 282.509 2.64994 2.82589 0
M  V30 3079 H 282.923 4.76858 2.18419 0
M  V30 3080 H 284.397 4.05949 3.74045 0
M  V30 3081 H 284.874 2.36369 3.70171 0
M  V30 3082 H 285.48 3.47492 2.45213 0
M  V30 3083 N 283.795 -0.628877 1.44509 0
M  V30 3084 C 285.044 -1.38437 1.4669 0
M  V30 3085 C 285.357 -1.95322 0.104272 0
M  V30 3086 O 286.563 -2.715 0.00362163 0
M  V30 3087 C 285.019 -2.50659 2.5826 0
M  V30 3088 C 284.627 -2.00277 4.0074 0
M  V30 3089 C 286.371 -3.27844 2.69664 0
M  V30 3090 C 284.278 -3.09854 5.0373 0
M  V30 3091 H 283.208 -0.520245 0.545766 0
M  V30 3092 H 285.859 -0.676313 1.70582 0
M  V30 3093 H 284.241 -3.2405 2.27612 0
M  V30 3094 H 285.415 -1.33736 4.40966 0
M  V30 3095 H 283.73 -1.35901 3.93599 0
M  V30 3096 H 286.327 -4.09534 3.43781 0
M  V30 3097 H 286.67 -3.77471 1.75559 0
M  V30 3098 H 287.203 -2.61543 2.99733 0
M  V30 3099 H 283.942 -2.65168 5.99472 0
M  V30 3100 H 283.462 -3.7503 4.68095 0
M  V30 3101 H 285.141 -3.74592 5.27532 0
M  V30 3102 N 285.273 -1.31445 -0.869486 0
M  V30 3103 C 286.501 -1.24122 -1.65534 0
M  V30 3104 C 286.916 0.193387 -1.87807 0
M  V30 3105 O 286.273 1.12557 -1.43656 0
M  V30 3106 C 286.324 -1.98229 -3.02304 0
M  V30 3107 O 286.045 -3.3609 -2.81026 0
M  V30 3108 C 287.546 -1.97751 -3.96749 0
M  V30 3109 H 284.766 -0.428868 -0.516055 0
M  V30 3110 H 287.31 -1.73328 -1.08525 0
M  V30 3111 H 285.465 -1.52782 -3.56001 0
M  V30 3112 H 285.879 -3.7383 -3.67902 0
M  V30 3113 H 287.353 -2.54114 -4.90031 0
M  V30 3114 H 287.83 -0.960137 -4.28577 0
M  V30 3115 H 288.436 -2.43079 -3.48988 0
M  V30 3116 N 286.751 1.08385 -1.14413 0
M  V30 3117 C 287.998 1.80776 -0.912482 0
M  V30 3118 C 288.326 1.86236 0.560934 0
M  V30 3119 O 287.581 1.33431 1.43159 0
M  V30 3120 C 287.88 3.26273 -1.45879 0
M  V30 3121 C 287.546 3.4093 -2.95089 0
M  V30 3122 C 286.208 3.44638 -3.35824 0
M  V30 3123 C 288.56 3.44591 -3.91033 0
M  V30 3124 C 285.888 3.49597 -4.71167 0
M  V30 3125 C 288.24 3.51086 -5.26233 0
M  V30 3126 C 286.904 3.53067 -5.6648 0
M  V30 3127 H 286.174 0.661507 -0.333901 0
M  V30 3128 H 288.821 1.27613 -1.42784 0
M  V30 3129 H 287.126 3.82146 -0.864376 0
M  V30 3130 H 288.823 3.80839 -1.2555 0
M  V30 3131 H 285.413 3.38736 -2.62594 0
M  V30 3132 H 289.597 3.40957 -3.60641 0
M  V30 3133 H 284.853 3.49424 -5.0171 0
M  V30 3134 H 289.027 3.52864 -6.00383 0
M  V30 3135 H 286.654 3.56662 -6.71339 0
M  V30 3136 N 288.23 0.939286 1.26551 0
M  V30 3137 C 289.478 0.58469 1.93457 0
M  V30 3138 C 289.799 -0.878774 1.74076 0
M  V30 3139 O 289.069 -1.62421 1.09528 0
M  V30 3140 H 287.649 0.21325 0.715914 0
M  V30 3141 H 290.311 1.1942 1.54029 0
M  V30 3142 H 289.407 0.800849 3.0165 0
M  V30 3143 N 289.708 -1.40897 0.706093 0
M  V30 3144 C 290.936 -2.05373 0.250887 0
M  V30 3145 C 291.351 -1.53172 -1.10381 0
M  V30 3146 O 290.708 -0.684305 -1.69185 0
M  V30 3147 C 290.759 -3.6088 0.211571 0
M  V30 3148 O 290.48 -4.11153 1.51276 0
M  V30 3149 C 291.981 -4.42517 -0.263346 0
M  V30 3150 H 289.201 -0.66115 0.114552 0
M  V30 3151 H 291.745 -1.80479 0.961635 0
M  V30 3152 H 289.9 -3.84777 -0.450073 0
M  V30 3153 H 290.314 -5.05279 1.40689 0
M  V30 3154 H 291.788 -5.51479 -0.239718 0
M  V30 3155 H 292.265 -4.19396 -1.30397 0
M  V30 3156 H 292.871 -4.23708 0.367677 0
M  V30 3157 N 291.186 -0.45159 -1.50991 0
M  V30 3158 C 292.149 0.341117 -2.26647 0
M  V30 3159 C 293.149 0.937422 -1.30649 0
M  V30 3160 O 294.339 0.809644 -1.54241 0
M  V30 3161 C 291.471 1.48398 -3.06905 0
M  V30 3162 H 292.664 -0.322117 -2.98165 0
M  V30 3163 H 290.217 -0.205122 -1.54948 0
M  V30 3164 H 290.952 2.18284 -2.39838 0
M  V30 3165 H 290.737 1.06241 -3.77432 0
M  V30 3166 H 292.227 2.04367 -3.64176 0
M  V30 3167 N 292.664 1.56529 -0.183458 0
M  V30 3168 C 293.913 1.96419 0.458511 0
M  V30 3169 C 294.226 1.0727 1.63562 0
M  V30 3170 O 295.432 1.36893 2.34462 0
M  V30 3171 C 293.888 3.49298 0.867122 0
M  V30 3172 C 293.496 4.47092 -0.285057 0
M  V30 3173 C 295.24 3.97983 1.47683 0
M  V30 3174 C 293.147 5.91225 0.143862 0
M  V30 3175 H 292.077 0.733394 0.175071 0
M  V30 3176 H 294.728 1.81448 -0.273624 0
M  V30 3177 H 293.11 3.59731 1.65559 0
M  V30 3178 H 294.284 4.48383 -1.0625 0
M  V30 3179 H 292.599 4.08535 -0.805503 0
M  V30 3180 H 295.196 5.03134 1.80999 0
M  V30 3181 H 295.539 3.41618 2.37914 0
M  V30 3182 H 296.072 3.90617 0.752562 0
M  V30 3183 H 292.811 6.5149 -0.723974 0
M  V30 3184 H 292.331 5.93214 0.886413 0
M  V30 3185 H 294.01 6.44362 0.583628 0
M  V30 3186 N 294.142 -0.090211 1.57342 0
M  V30 3187 C 295.105 -1.09335 2.01441 0
M  V30 3188 C 296.105 -1.32666 0.908641 0
M  V30 3189 O 297.295 -1.28697 1.174 0
M  V30 3190 C 294.427 -2.44136 2.3793 0
M  V30 3191 H 295.62 -0.713662 2.91285 0
M  V30 3192 H 293.173 -0.335404 1.52659 0
M  V30 3193 H 293.908 -2.86972 1.51055 0
M  V30 3194 H 293.693 -2.28548 3.18603 0
M  V30 3195 H 295.183 -3.16277 2.72688 0
M  V30 3196 N 295.62 -1.53406 -0.361157 0
M  V30 3197 C 296.583 -1.79479 -1.42548 0
M  V30 3198 C 297.583 -0.665327 -1.4639 0
M  V30 3199 O 298.773 -0.933549 -1.47073 0
M  V30 3200 C 295.905 -1.92087 -2.8163 0
M  V30 3201 H 297.098 -2.74538 -1.20701 0
M  V30 3202 H 294.651 -1.4455 -0.594546 0
M  V30 3203 H 295.386 -0.991099 -3.08784 0
M  V30 3204 H 295.171 -2.74241 -2.80239 0
M  V30 3205 H 296.661 -2.13836 -3.58697 0
M  V30 3206 N 297.098 0.621204 -1.44841 0
M  V30 3207 C 298.345 1.38055 -1.48145 0
M  V30 3208 C 298.673 1.94143 -0.117867 0
M  V30 3209 O 297.928 1.74713 0.881694 0
M  V30 3210 C 298.227 2.55675 -2.4973 0
M  V30 3211 C 297.893 2.17817 -3.94799 0
M  V30 3212 C 296.555 2.07205 -4.34303 0
M  V30 3213 C 298.907 1.88065 -4.86087 0
M  V30 3214 C 296.235 1.65045 -5.63007 0
M  V30 3215 C 298.587 1.47394 -6.15189 0
M  V30 3216 C 297.251 1.35331 -6.53637 0
M  V30 3217 H 296.521 0.505181 -0.542101 0
M  V30 3218 H 299.168 0.703477 -1.78111 0
M  V30 3219 H 297.473 3.2866 -2.13284 0
M  V30 3220 H 299.17 3.13904 -2.4953 0
M  V30 3221 H 295.76 2.26998 -3.63552 0
M  V30 3222 H 299.944 1.95168 -4.56315 0
M  V30 3223 H 295.2 1.54317 -5.91605 0
M  V30 3224 H 299.374 1.23415 -6.85377 0
M  V30 3225 H 297.001 1.02435 -7.53267 0
M  V30 3226 N 298.576 1.31904 0.862503 0
M  V30 3227 C 299.806 1.24817 1.64634 0
M  V30 3228 C 300.214 -0.187579 1.88268 0
M  V30 3229 O 299.557 -1.13253 1.44635 0
M  V30 3230 C 299.619 1.92996 3.03303 0
M  V30 3231 C 299.283 3.42336 3.02746 0
M  V30 3232 C 300.28 4.37956 2.80162 0
M  V30 3233 C 297.965 3.84147 3.2363 0
M  V30 3234 C 299.959 5.73361 2.78453 0
M  V30 3235 C 297.646 5.19663 3.21549 0
M  V30 3236 C 298.644 6.14081 2.98988 0
M  V30 3237 O 298.332 7.47118 2.96766 0
M  V30 3238 H 298.064 0.432222 0.519769 0
M  V30 3239 H 300.618 1.7445 1.08427 0
M  V30 3240 H 298.848 1.37922 3.61268 0
M  V30 3241 H 300.537 1.79723 3.63943 0
M  V30 3242 H 301.303 4.06981 2.63802 0
M  V30 3243 H 297.182 3.11083 3.40218 0
M  V30 3244 H 300.726 6.4703 2.60763 0
M  V30 3245 H 296.623 5.5027 3.37451 0
M  V30 3246 H 297.391 7.56382 3.12775 0
M  V30 3247 N 300.054 -1.07777 1.14986 0
M  V30 3248 C 301.303 -1.79669 0.916617 0
M  V30 3249 C 301.616 -1.87474 -0.557917 0
M  V30 3250 O 302.822 -2.55845 -0.908617 0
M  V30 3251 C 301.278 -3.22848 1.59051 0
M  V30 3252 C 300.886 -3.23257 3.10176 0
M  V30 3253 C 302.63 -3.99379 1.43864 0
M  V30 3254 C 300.537 -4.61063 3.70372 0
M  V30 3255 H 299.467 -0.673349 0.33929 0
M  V30 3256 H 302.118 -1.21003 1.37951 0
M  V30 3257 H 300.5 -3.8168 1.0553 0
M  V30 3258 H 301.674 -2.74095 3.70417 0
M  V30 3259 H 299.989 -2.60222 3.25074 0
M  V30 3260 H 302.586 -5.0122 1.86232 0
M  V30 3261 H 302.929 -4.14511 0.385564 0
M  V30 3262 H 303.462 -3.47032 1.94457 0
M  V30 3263 H 300.201 -4.51135 4.7556 0
M  V30 3264 H 299.721 -5.1048 3.14913 0
M  V30 3265 H 301.4 -5.30034 3.71043 0
M  V30 3266 N 301.532 -0.945985 -1.26051 0
M  V30 3267 C 302.943 -0.638096 -1.75457 0
M  V30 3268 C 303.294 0.846672 -1.76991 0
M  V30 3269 O 302.419 1.66262 -1.38513 0
M  V30 3270 C 303.014 -1.15157 -3.18629 0
M  V30 3271 C 301.573 -0.894004 -3.65629 0
M  V30 3272 C 300.72 -1.29967 -2.44957 0
M  V30 3273 H 303.671 -1.12376 -1.1206 0
M  V30 3274 H 303.692 -0.507615 -3.77099 0
M  V30 3275 H 303.204 -2.23222 -3.1748 0
M  V30 3276 H 301.305 0.172057 -3.72203 0
M  V30 3277 H 301.418 -1.52439 -4.54202 0
M  V30 3278 H 299.782 -0.718078 -2.44368 0
M  V30 3279 H 300.565 -2.38935 -2.46505 0
M  V30 3280 N 303.011 1.40521 -0.713556 0
M  V30 3281 C 304.257 2.01221 -0.252564 0
M  V30 3282 C 304.59 1.56444 1.1506 0
M  V30 3283 O 303.865 0.783597 1.78017 0
M  V30 3284 C 304.148 3.58582 -0.330332 0
M  V30 3285 C 304.001 4.13437 -1.77173 0
M  V30 3286 C 305.32 4.39079 0.299641 0
M  V30 3287 H 302.439 0.731077 -0.0932471 0
M  V30 3288 H 305.081 1.67026 -0.905673 0
M  V30 3289 H 303.231 3.87844 0.225737 0
M  V30 3290 H 304.903 3.9498 -2.38303 0
M  V30 3291 H 303.146 3.67801 -2.3001 0
M  V30 3292 H 303.817 5.22597 -1.77755 0
M  V30 3293 H 306.293 4.15735 -0.174139 0
M  V30 3294 H 305.169 5.4848 0.214771 0
M  V30 3295 H 305.43 4.19915 1.38288 0
M  V30 3296 N 304.489 0.459591 1.5075 0
M  V30 3297 C 305.714 -0.0996819 2.0716 0
M  V30 3298 C 306.139 -1.33761 1.32249 0
M  V30 3299 O 305.497 -1.77551 0.366786 0
M  V30 3300 C 305.545 -0.378226 3.58611 0
M  V30 3301 O 304.649 -1.46081 3.85661 0
M  V30 3302 H 303.99 0.00791392 0.663953 0
M  V30 3303 H 306.52 0.647329 1.9409 0
M  V30 3304 H 306.53 -0.622135 4.03229 0
M  V30 3305 H 305.205 0.526439 4.12555 0
M  V30 3306 H 303.782 -1.20511 3.5289 0
M  V30 3307 N 305.967 -1.56429 0.191757 0
M  V30 3308 C 307.213 -1.97777 -0.448554 0
M  V30 3309 C 307.546 -1.07847 -1.61501 0
M  V30 3310 O 306.821 -0.129774 -1.94067 0
M  V30 3311 C 307.104 -3.48362 -0.911906 0
M  V30 3312 C 306.957 -4.4907 0.256136 0
M  V30 3313 C 308.276 -4.02561 -1.77857 0
M  V30 3314 H 305.395 -0.719071 -0.161572 0
M  V30 3315 H 308.037 -1.87896 0.282007 0
M  V30 3316 H 306.187 -3.56914 -1.53442 0
M  V30 3317 H 307.859 -4.5256 0.893733 0
M  V30 3318 H 306.102 -4.24181 0.908436 0
M  V30 3319 H 306.773 -5.51889 -0.11053 0
M  V30 3320 H 309.249 -3.96767 -1.25359 0
M  V30 3321 H 308.125 -5.08301 -2.07174 0
M  V30 3322 H 308.386 -3.47616 -2.73158 0
M  V30 3323 N 307.445 0.0818655 -1.57387 0
M  V30 3324 C 308.378 1.12986 -1.98266 0
M  V30 3325 C 309.356 1.38123 -0.857954 0
M  V30 3326 O 310.54 1.51663 -1.1194 0
M  V30 3327 C 307.667 2.47632 -2.31076 0
M  V30 3328 C 306.713 2.38693 -3.53452 0
M  V30 3329 S 307.546 1.79071 -5.04672 0
M  V30 3330 C 308.702 3.15316 -5.40673 0
M  V30 3331 H 308.935 0.781435 -2.86846 0
M  V30 3332 H 306.468 0.290034 -1.51651 0
M  V30 3333 H 308.426 3.25089 -2.50654 0
M  V30 3334 H 307.087 2.79638 -1.43043 0
M  V30 3335 H 306.28 3.37964 -3.73893 0
M  V30 3336 H 305.882 1.69369 -3.33452 0
M  V30 3337 H 308.174 4.11613 -5.38127 0
M  V30 3338 H 309.117 2.99664 -6.41566 0
M  V30 3339 H 309.525 3.15457 -4.68132 0
M  V30 3340 N 308.923 1.53595 0.353017 0
M  V30 3341 C 310.151 1.74311 1.1146 0
M  V30 3342 C 310.566 0.477854 1.82653 0
M  V30 3343 O 309.923 -0.549977 1.74016 0
M  V30 3344 C 309.974 2.91694 2.13534 0
M  V30 3345 O 309.695 4.13325 1.45238 0
M  V30 3346 C 311.196 3.24384 3.02142 0
M  V30 3347 H 308.416 0.582669 0.332773 0
M  V30 3348 H 310.96 2.00386 0.408107 0
M  V30 3349 H 309.115 2.67977 2.79763 0
M  V30 3350 H 309.529 4.79148 2.13349 0
M  V30 3351 H 311.003 4.09893 3.69718 0
M  V30 3352 H 311.48 2.40282 3.67643 0
M  V30 3353 H 312.086 3.50073 2.41514 0
M  V30 3354 N 310.401 -0.613514 1.45168 0
M  V30 3355 C 311.65 -1.36874 1.4815 0
M  V30 3356 C 311.963 -1.952 0.124982 0
M  V30 3357 O 313.169 -2.71481 0.0324176 0
M  V30 3358 C 311.625 -2.47905 2.60904 0
M  V30 3359 C 311.233 -1.96016 4.02842 0
M  V30 3360 C 312.977 -3.24965 2.73126 0
M  V30 3361 C 310.884 -3.04494 5.06988 0
M  V30 3362 H 309.814 -0.514428 0.551253 0
M  V30 3363 H 312.465 -0.658182 1.7129 0
M  V30 3364 H 310.847 -3.21618 2.31037 0
M  V30 3365 H 312.021 -1.29051 4.4236 0
M  V30 3366 H 310.336 -1.31719 3.95018 0
M  V30 3367 H 312.933 -4.05865 3.48106 0
M  V30 3368 H 313.276 -3.75588 1.79553 0
M  V30 3369 H 313.809 -2.5835 3.0249 0
M  V30 3370 H 310.548 -2.58795 6.0225 0
M  V30 3371 H 310.068 -3.70044 4.72046 0
M  V30 3372 H 311.747 -3.68976 5.31475 0
M  V30 3373 N 311.879 -1.3236 -0.855495 0
M  V30 3374 C 312.809 -1.23833 -1.97958 0
M  V30 3375 C 313.79 -0.122361 -1.69659 0
M  V30 3376 O 314.975 -0.30939 -1.9172 0
M  V30 3377 C 312.105 -0.959772 -3.33775 0
M  V30 3378 C 311.059 -2.03689 -3.76424 0
M  V30 3379 C 310.385 -1.61075 -5.09862 0
M  V30 3380 C 311.685 -3.4518 -3.9198 0
M  V30 3381 H 313.379 -2.1788 -2.0535 0
M  V30 3382 H 310.925 -1.04891 -0.986605 0
M  V30 3383 H 312.878 -0.886678 -4.11966 0
M  V30 3384 H 311.602 0.0163404 -3.26596 0
M  V30 3385 H 310.261 -2.10012 -3.00484 0
M  V30 3386 H 309.909 -0.622107 -4.99138 0
M  V30 3387 H 309.609 -2.33143 -5.39368 0
M  V30 3388 H 311.133 -1.55201 -5.90546 0
M  V30 3389 H 312.547 -3.4145 -4.60526 0
M  V30 3390 H 310.944 -4.1559 -4.32903 0
M  V30 3391 H 312.014 -3.84903 -2.94919 0
M  V30 3392 N 313.357 1.07166 -1.15556 0
M  V30 3393 C 314.587 1.83248 -0.954133 0
M  V30 3394 C 314.995 1.82449 0.500911 0
M  V30 3395 O 314.338 1.23575 1.35923 0
M  V30 3396 C 314.4 3.31393 -1.39351 0
M  V30 3397 C 314.064 3.5591 -2.86666 0
M  V30 3398 C 315.061 3.49695 -3.8472 0
M  V30 3399 C 312.746 3.83515 -3.24379 0
M  V30 3400 C 314.74 3.70737 -5.18491 0
M  V30 3401 C 312.427 4.04209 -4.58321 0
M  V30 3402 C 313.425 3.97815 -5.55186 0
M  V30 3403 O 313.113 4.17954 -6.86709 0
M  V30 3404 H 312.845 0.584941 -0.338851 0
M  V30 3405 H 315.399 1.36169 -1.53777 0
M  V30 3406 H 313.629 3.79292 -0.75329 0
M  V30 3407 H 315.318 3.88945 -1.16089 0
M  V30 3408 H 316.084 3.28368 -3.56931 0
M  V30 3409 H 311.963 3.87605 -2.49567 0
M  V30 3410 H 315.507 3.65663 -5.94085 0
M  V30 3411 H 311.404 4.25023 -4.85825 0
M  V30 3412 H 312.172 4.35291 -6.93155 0
M  V30 3413 N 314.835 0.952656 1.25548 0
M  V30 3414 C 316.075 0.614013 1.9496 0
M  V30 3415 C 316.439 -0.833215 1.72978 0
M  V30 3416 O 317.64 -1.28135 2.36294 0
M  V30 3417 C 315.911 0.960562 3.4425 0
M  V30 3418 S 317.47 0.734195 4.32614 0
M  V30 3419 H 314.288 0.225754 0.674208 0
M  V30 3420 H 316.89 1.22641 1.52248 0
M  V30 3421 H 315.594 2.01103 3.57751 0
M  V30 3422 H 315.125 0.338336 3.91942 0
M  V30 3423 H 317.14 -0.395995 4.94617 0
M  V30 3424 N 316.313 -1.40141 0.720998 0
M  V30 3425 C 317.729 -1.54632 0.395113 0
M  V30 3426 C 317.929 -1.69115 -1.09555 0
M  V30 3427 O 316.985 -1.68377 -1.88163 0
M  V30 3428 C 318.298 -2.77177 1.1659 0
M  V30 3429 C 319.846 -2.91 1.15274 0
M  V30 3430 C 320.321 -4.16465 1.90579 0
M  V30 3431 N 321.812 -4.23476 1.87675 0
M  V30 3432 C 322.547 -5.19475 2.42762 0
M  V30 3433 N 322.043 -6.21348 3.06428 0
M  V30 3434 N 323.836 -5.11592 2.32874 0
M  V30 3435 H 315.987 -1.28986 1.68749 0
M  V30 3436 H 318.25 -0.62412 0.713567 0
M  V30 3437 H 317.956 -2.72771 2.22011 0
M  V30 3438 H 317.83 -3.69442 0.76108 0
M  V30 3439 H 320.217 -2.94907 0.106702 0
M  V30 3440 H 320.298 -1.99838 1.59682 0
M  V30 3441 H 319.942 -4.1332 2.95176 0
M  V30 3442 H 319.872 -5.06646 1.43587 0
M  V30 3443 H 322.363 -3.50497 1.41281 0
M  V30 3444 H 322.676 -6.91034 3.45965 0
M  V30 3445 H 321.021 -6.21777 3.10514 0
M  V30 3446 H 324.212 -4.30936 1.82789 0
M  V30 3447 H 324.385 -5.86233 2.76106 0
M  V30 3448 N 317.792 -0.46758 -1.50504 0
M  V30 3449 C 319.041 0.0902868 -2.01498 0
M  V30 3450 C 319.354 1.411 -1.35463 0
M  V30 3451 O 320.56 2.0536 -1.77594 0
M  V30 3452 C 319.016 0.21142 -3.59278 0
M  V30 3453 C 318.624 -1.10065 -4.34269 0
M  V30 3454 C 320.368 0.721433 -4.18325 0
M  V30 3455 C 318.275 -0.943505 -5.83825 0
M  V30 3456 H 317.205 0.037517 -0.753066 0
M  V30 3457 H 319.856 -0.601943 -1.73346 0
M  V30 3458 H 318.238 0.967352 -3.84003 0
M  V30 3459 H 319.412 -1.86726 -4.21272 0
M  V30 3460 H 317.727 -1.5415 -3.86816 0
M  V30 3461 H 320.324 0.85598 -5.27804 0
M  V30 3462 H 320.667 1.71186 -3.79475 0
M  V30 3463 H 321.2 0.0229843 -3.97793 0
M  V30 3464 H 317.939 -1.90719 -6.27141 0
M  V30 3465 H 317.459 -0.217213 -5.99407 0
M  V30 3466 H 319.138 -0.608715 -6.4413 0
M  V30 3467 N 319.27 1.56325 -0.20005 0
M  V30 3468 C 320.5 2.01811 0.442232 0
M  V30 3469 C 320.908 1.07932 1.55394 0
M  V30 3470 O 320.251 0.0772685 1.83537 0
M  V30 3471 C 320.313 3.43685 1.05457 0
M  V30 3472 C 319.977 4.56928 0.0809833 0
M  V30 3473 C 320.974 5.15009 -0.711471 0
M  V30 3474 C 318.659 5.0229 -0.0315364 0
M  V30 3475 C 320.653 6.16904 -1.60336 0
M  V30 3476 C 318.34 6.04028 -0.926981 0
M  V30 3477 C 319.338 6.6121 -1.71146 0
M  V30 3478 O 319.026 7.60971 -2.59189 0
M  V30 3479 H 318.758 0.666173 0.114848 0
M  V30 3480 H 321.312 2.03085 -0.307511 0
M  V30 3481 H 319.542 3.39413 1.85299 0
M  V30 3482 H 321.231 3.72948 1.60201 0
M  V30 3483 H 321.997 4.80827 -0.634873 0
M  V30 3484 H 317.876 4.57476 0.568902 0
M  V30 3485 H 321.42 6.61464 -2.21611 0
M  V30 3486 H 317.317 6.37634 -1.00468 0
M  V30 3487 H 318.085 7.7841 -2.53023 0
M  V30 3488 N 320.748 -0.0735177 1.57428 0
M  V30 3489 C 322.164 -0.428264 1.53747 0
M  V30 3490 C 322.364 -1.79272 0.91998 0
M  V30 3491 O 321.42 -2.47051 0.521745 0
M  V30 3492 C 322.733 -0.370914 2.98404 0
M  V30 3493 C 324.281 -0.451224 3.0973 0
M  V30 3494 C 324.756 -0.4238 4.56035 0
M  V30 3495 N 326.247 -0.483925 4.60665 0
M  V30 3496 C 326.982 -0.484891 5.71346 0
M  V30 3497 N 326.478 -0.440775 6.91396 0
M  V30 3498 N 328.271 -0.531319 5.59583 0
M  V30 3499 H 320.422 0.819949 1.95935 0
M  V30 3500 H 322.685 0.307493 0.896745 0
M  V30 3501 H 322.391 0.564956 3.47133 0
M  V30 3502 H 322.265 -1.18176 3.5821 0
M  V30 3503 H 324.652 -1.37752 2.60976 0
M  V30 3504 H 324.733 0.388167 2.52838 0
M  V30 3505 H 324.377 0.498638 5.05446 0
M  V30 3506 H 324.307 -1.2807 5.10789 0
M  V30 3507 H 326.798 -0.522338 3.74273 0
M  V30 3508 H 327.111 -0.44539 7.71515 0
M  V30 3509 H 325.456 -0.40749 6.93804 0
M  V30 3510 H 328.647 -0.563464 4.64696 0
M  V30 3511 H 328.82 -0.528603 6.4584 0
M  V30 3512 N 322.226 -1.5378 -0.344866 0
M  V30 3513 C 323.136 -1.84667 -1.4469 0
M  V30 3514 C 324.152 -0.736704 -1.57635 0
M  V30 3515 O 325.328 -1.02888 -1.73136 0
M  V30 3516 C 322.393 -2.04869 -2.79696 0
M  V30 3517 C 321.454 -3.28731 -2.76106 0
M  V30 3518 C 320.687 -3.4796 -4.04673 0
M  V30 3519 O 320.91 -2.71052 -5.01883 0
M  V30 3520 O 319.844 -4.41383 -4.09224 0
M  V30 3521 H 323.67 -2.78334 -1.21506 0
M  V30 3522 H 321.255 -1.39418 -0.536921 0
M  V30 3523 H 323.137 -2.19609 -3.59652 0
M  V30 3524 H 321.812 -1.14391 -3.02814 0
M  V30 3525 H 320.719 -3.19396 -1.94774 0
M  V30 3526 H 322.052 -4.19198 -2.57941 0
M  V30 3527 N 323.704 0.605807 -1.45491 0
M  V30 3528 C 324.932 1.39136 -1.5313 0
M  V30 3529 C 325.347 1.88082 -0.164507 0
M  V30 3530 O 324.704 1.62316 0.834247 0
M  V30 3531 C 324.755 2.59463 -2.51716 0
M  V30 3532 O 324.476 2.12551 -3.83084 0
M  V30 3533 C 325.977 3.52301 -2.6907 0
M  V30 3534 H 323.197 0.425849 -0.51855 0
M  V30 3535 H 325.741 0.73865 -1.90694 0
M  V30 3536 H 323.896 3.20772 -2.17219 0
M  V30 3537 H 324.31 2.90744 -4.36541 0
M  V30 3538 H 325.784 4.33271 -3.42024 0
M  V30 3539 H 326.261 4.02757 -1.75167 0
M  V30 3540 H 326.867 2.96845 -3.04571 0
M  V30 3541 N 325.182 1.32811 0.848464 0
M  V30 3542 C 326.092 1.24278 1.98978 0
M  V30 3543 C 327.108 0.155176 1.73307 0
M  V30 3544 O 328.284 0.376999 1.9784 0
M  V30 3545 C 325.349 0.972444 3.32783 0
M  V30 3546 C 324.41 2.14911 3.71634 0
M  V30 3547 C 323.643 1.89157 4.99054 0
M  V30 3548 O 323.866 0.837165 5.64223 0
M  V30 3549 O 322.8 2.75433 5.35183 0
M  V30 3550 H 326.626 2.20238 2.09115 0
M  V30 3551 H 324.211 1.12762 0.980052 0
M  V30 3552 H 326.093 0.838432 4.12975 0
M  V30 3553 H 324.768 0.043051 3.23671 0
M  V30 3554 H 323.675 2.33862 2.91992 0
M  V30 3555 H 325.008 3.06151 3.85399 0
M  V30 3556 N 326.66 -1.06551 1.16123 0
M  V30 3557 C 327.607 -2.13961 0.865414 0
M  V30 3558 C 328.577 -1.65066 -0.185055 0
M  V30 3559 O 329.762 -1.90732 -0.05083 0
M  V30 3560 C 326.902 -3.43113 0.369776 0
M  V30 3561 C 326.015 -4.05756 1.48276 0
M  V30 3562 C 325.15 -5.22773 0.942414 0
M  V30 3563 C 324.189 -5.77395 2.03179 0
M  V30 3564 N 323.326 -6.85731 1.50721 0
M  V30 3565 H 328.166 -2.38605 1.78527 0
M  V30 3566 H 325.703 -1.17072 0.890646 0
M  V30 3567 H 327.661 -4.17151 0.0640643 0
M  V30 3568 H 326.291 -3.18695 -0.513143 0
M  V30 3569 H 325.343 -3.29292 1.9045 0
M  V30 3570 H 326.655 -4.42351 2.30493 0
M  V30 3571 H 325.809 -6.03827 0.589729 0
M  V30 3572 H 324.548 -4.87618 0.0895191 0
M  V30 3573 H 323.553 -4.94981 2.3932 0
M  V30 3574 H 324.778 -6.14603 2.8886 0
M  V30 3575 H 322.724 -6.52499 0.676811 0
M  V30 3576 H 322.641 -7.21254 2.26557 0
M  V30 3577 H 323.909 -7.7047 1.18303 0
M  V30 3578 N 328.138 -0.959301 -1.25041 0
M  V30 3579 C 329.554 -0.664474 -1.4511 0
M  V30 3580 C 329.754 0.776481 -1.85938 0
M  V30 3581 O 328.81 1.55128 -1.99227 0
M  V30 3582 C 330.123 -1.64139 -2.5195 0
M  V30 3583 C 331.671 -1.65309 -2.65786 0
M  V30 3584 C 332.146 -2.61777 -3.75815 0
M  V30 3585 N 333.637 -2.60169 -3.83231 0
M  V30 3586 C 334.372 -3.31489 -4.6787 0
M  V30 3587 N 333.868 -4.12298 -5.56761 0
M  V30 3588 N 335.661 -3.20354 -4.61876 0
M  V30 3589 H 327.812 -1.89043 -0.968332 0
M  V30 3590 H 330.075 -0.813408 -0.4869 0
M  V30 3591 H 329.781 -2.67086 -2.28819 0
M  V30 3592 H 329.655 -1.40756 -3.49954 0
M  V30 3593 H 332.042 -0.630778 -2.8828 0
M  V30 3594 H 332.123 -1.92753 -1.68167 0
M  V30 3595 H 331.767 -3.64137 -3.54071 0
M  V30 3596 H 331.697 -2.31616 -4.72929 0
M  V30 3597 H 334.188 -2.01507 -3.19692 0
M  V30 3598 H 334.501 -4.63625 -6.18281 0
M  V30 3599 H 332.846 -4.16395 -5.56454 0
M  V30 3600 H 336.037 -2.56692 -3.91442 0
M  V30 3601 H 336.21 -3.76201 -5.27614 0
M  V30 3602 N 329.616 1.39756 -0.72842 0
M  V30 3603 C 330.844 2.04948 -0.283528 0
M  V30 3604 C 331.259 1.54908 1.0793 0
M  V30 3605 O 330.616 0.711135 1.68075 0
M  V30 3606 C 330.667 3.60498 -0.268957 0
M  V30 3607 O 330.388 4.08695 -1.57798 0
M  V30 3608 C 331.889 4.4288 0.192912 0
M  V30 3609 H 329.109 0.659243 -0.125056 0
M  V30 3610 H 331.653 1.78927 -0.990226 0
M  V30 3611 H 329.808 3.85444 0.388801 0
M  V30 3612 H 330.222 5.02977 -1.48709 0
M  V30 3613 H 331.696 5.51791 0.151952 0
M  V30 3614 H 332.173 4.21418 1.23708 0
M  V30 3615 H 332.779 4.23069 -0.435039 0
M  V30 3616 N 331.094 0.475555 1.50254 0
M  V30 3617 C 332.041 -0.316293 2.28622 0
M  V30 3618 C 333.011 -0.983227 1.33873 0
M  V30 3619 O 334.196 -0.994805 1.62814 0
M  V30 3620 C 331.336 -1.38975 3.1588 0
M  V30 3621 C 330.449 -0.737146 4.25664 0
M  V30 3622 C 329.584 -1.78887 5.00173 0
M  V30 3623 C 328.623 -1.11676 6.01826 0
M  V30 3624 N 327.76 -2.11154 6.69596 0
M  V30 3625 H 332.6 0.358297 2.95838 0
M  V30 3626 H 330.137 0.188541 1.45887 0
M  V30 3627 H 332.095 -2.02383 3.64825 0
M  V30 3628 H 330.725 -2.03344 2.50701 0
M  V30 3629 H 329.777 0.0096065 3.80399 0
M  V30 3630 H 331.089 -0.206816 4.98371 0
M  V30 3631 H 330.243 -2.49865 5.52859 0
M  V30 3632 H 328.982 -2.35302 4.27182 0
M  V30 3633 H 327.987 -0.392633 5.48396 0
M  V30 3634 H 329.212 -0.55945 6.76792 0
M  V30 3635 H 327.158 -2.66577 5.99394 0
M  V30 3636 H 327.075 -1.63118 7.38193 0
M  V30 3637 H 328.343 -2.81497 7.26897 0
M  V30 3638 N 332.573 -1.56217 0.208337 0
M  V30 3639 C 333.85 -1.89739 -0.475234 0
M  V30 3640 C 334.23 -1.1238 -1.78701 0
M  V30 3641 O 333.578 -0.228979 -2.2735 0
M  V30 3642 C 333.788 -3.42289 -0.681101 0
M  V30 3643 C 335.136 -4.12789 -0.994507 0
M  V30 3644 O 336.16 -3.47814 -0.768357 0
M  V30 3645 O 335.019 -5.27649 -1.42299 0
M  V30 3646 H 332.113 -0.788478 -0.249461 0
M  V30 3647 H 334.659 -1.67855 0.249538 0
M  V30 3648 H 333.431 -3.90534 0.244722 0
M  V30 3649 H 333.054 -3.69909 -1.45785 0
M  V30 3650 N 334.051 0.0651679 -1.57465 0
M  V30 3651 C 334.981 1.07693 -2.07182 0
M  V30 3652 C 335.962 1.39962 -0.966673 0
M  V30 3653 O 337.147 1.49475 -1.2398 0
M  V30 3654 C 334.277 2.3885 -2.52127 0
M  V30 3655 C 333.231 2.20917 -3.66579 0
M  V30 3656 C 332.557 3.57515 -3.97601 0
M  V30 3657 C 333.857 1.62493 -4.9638 0
M  V30 3658 H 335.551 0.663199 -2.91962 0
M  V30 3659 H 333.097 0.317569 -1.40455 0
M  V30 3660 H 335.05 3.09928 -2.85522 0
M  V30 3661 H 333.774 2.82215 -1.64384 0
M  V30 3662 H 332.433 1.52279 -3.33477 0
M  V30 3663 H 332.081 3.98463 -3.06979 0
M  V30 3664 H 331.781 3.46353 -4.74672 0
M  V30 3665 H 333.305 4.30013 -4.33499 0
M  V30 3666 H 334.719 2.23445 -5.27963 0
M  V30 3667 H 333.116 1.62009 -5.77818 0
M  V30 3668 H 334.186 0.587041 -4.81333 0
M  V30 3669 N 335.529 1.53961 0.336706 0
M  V30 3670 C 336.492 1.81724 1.39675 0
M  V30 3671 C 337.492 0.688532 1.45313 0
M  V30 3672 O 338.682 0.956829 1.45569 0
M  V30 3673 C 335.814 1.96543 2.78538 0
M  V30 3674 H 337.007 2.76424 1.16318 0
M  V30 3675 H 334.56 1.45478 0.571474 0
M  V30 3676 H 335.295 1.0401 3.07168 0
M  V30 3677 H 335.08 2.78665 2.75841 0
M  V30 3678 H 336.57 2.19516 3.5525 0
M  V30 3679 N 337.007 -0.598083 1.45811 0
M  V30 3680 C 338.284 -1.35777 1.40797 0
M  V30 3681 C 338.664 -2.10935 0.083462 0
M  V30 3682 O 338.012 -2.08505 -0.934763 0
M  V30 3683 C 338.222 -2.29666 2.62783 0
M  V30 3684 C 339.57 -2.91977 3.08277 0
M  V30 3685 O 340.594 -2.39984 2.63223 0
M  V30 3686 O 339.453 -3.86376 3.86491 0
M  V30 3687 H 336.547 -0.609291 0.55919 0
M  V30 3688 H 339.093 -0.620379 1.57954 0
M  V30 3689 H 337.865 -1.73454 3.50756 0
M  V30 3690 H 337.488 -3.1077 2.48008 0
M  V30 3691 N 338.485 -1.33259 -0.841409 0
M  V30 3692 C 339.415 -1.25926 -1.96634 0
M  V30 3693 C 340.396 -0.140349 -1.6952 0
M  V30 3694 O 341.581 -0.329707 -1.91381 0
M  V30 3695 C 338.711 -0.99512 -3.32738 0
M  V30 3696 C 337.665 -2.0767 -3.74242 0
M  V30 3697 C 336.991 -1.66474 -5.08125 0
M  V30 3698 C 338.291 -3.49318 -3.88297 0
M  V30 3699 H 339.985 -2.20046 -2.03027 0
M  V30 3700 H 337.531 -1.05931 -0.975425 0
M  V30 3701 H 339.484 -0.930323 -4.11002 0
M  V30 3702 H 338.208 -0.0183004 -3.26595 0
M  V30 3703 H 336.867 -2.13187 -2.98239 0
M  V30 3704 H 336.515 -0.675012 -4.9845 0
M  V30 3705 H 336.215 -2.3885 -5.36865 0
M  V30 3706 H 337.739 -1.61455 -5.88867 0
M  V30 3707 H 339.153 -3.46316 -4.56879 0
M  V30 3708 H 337.55 -4.20158 -4.28471 0
M  V30 3709 H 338.62 -3.8801 -2.9082 0
M  V30 3710 N 339.963 1.05934 -1.16686 0
M  V30 3711 C 340.895 2.13468 -0.834503 0
M  V30 3712 C 341.908 1.62013 0.15984 0
M  V30 3713 O 343.097 1.7838 -0.0654228 0
M  V30 3714 C 340.197 3.3817 -0.222361 0
M  V30 3715 C 339.37 4.18928 -1.25771 0
M  V30 3716 C 338.429 5.21985 -0.664703 0
M  V30 3717 O 337.455 5.53334 -1.33453 0
M  V30 3718 N 338.657 5.77919 0.546834 0
M  V30 3719 H 341.422 2.42578 -1.75999 0
M  V30 3720 H 338.983 1.21967 -1.06469 0
M  V30 3721 H 340.975 4.04266 0.187472 0
M  V30 3722 H 339.545 3.06655 0.606758 0
M  V30 3723 H 338.765 3.48433 -1.84358 0
M  V30 3724 H 340.053 4.69687 -1.95631 0
M  V30 3725 H 339.451 5.54721 1.10912 0
M  V30 3726 H 338.008 6.45573 0.898829 0
M  V30 3727 N 341.441 0.965919 1.2453 0
M  V30 3728 C 342.689 0.625593 1.92174 0
M  V30 3729 C 343.01 -0.841652 1.75901 0
M  V30 3730 O 342.28 -1.60061 1.12948 0
M  V30 3731 H 340.86 0.228388 0.71123 0
M  V30 3732 H 343.522 1.2266 1.51461 0
M  V30 3733 H 342.618 0.864653 2.99884 0
M  V30 3734 N 342.919 -1.39368 0.735821 0
M  V30 3735 C 344.144 -2.05319 0.293052 0
M  V30 3736 C 344.569 -1.55115 -1.064 0
M  V30 3737 O 343.927 -0.695261 -1.67439 0
M  V30 3738 C 343.975 -3.59305 0.305323 0
M  V30 3739 O 343.079 -4.06299 -0.706761 0
M  V30 3740 H 342.42 -0.650529 0.13307 0
M  V30 3741 H 344.95 -1.78386 1.00197 0
M  V30 3742 H 344.96 -4.07724 0.149997 0
M  V30 3743 H 343.635 -3.95207 1.29553 0
M  V30 3744 H 342.212 -3.69292 -0.517504 0
M  V30 3745 N 344.397 -0.483516 -1.5 0
M  V30 3746 C 345.674 0.129337 -1.95172 0
M  V30 3747 C 346.054 1.55802 -1.4244 0
M  V30 3748 O 345.402 2.19625 -0.630649 0
M  V30 3749 C 345.612 0.0599251 -3.48949 0
M  V30 3750 C 346.96 0.242617 -4.23906 0
M  V30 3751 O 347.984 0.135933 -3.55941 0
M  V30 3752 O 346.843 0.459454 -5.44565 0
M  V30 3753 H 343.937 0.104887 -0.820322 0
M  V30 3754 H 346.483 -0.544807 -1.60717 0
M  V30 3755 H 345.255 -0.937079 -3.79914 0
M  V30 3756 H 344.878 0.774984 -3.89974 0
M  V30 3757 N 345.875 1.56104 -0.216619 0
M  V30 3758 C 347.1 2.0301 0.424462 0
M  V30 3759 C 347.525 1.0955 1.52907 0
M  V30 3760 O 346.883 0.0827914 1.81111 0
M  V30 3761 C 346.931 3.4819 0.937883 0
M  V30 3762 O 346.035 3.57865 2.04955 0
M  V30 3763 H 345.376 0.656925 0.0966755 0
M  V30 3764 H 347.906 2.01859 -0.33381 0
M  V30 3765 H 347.916 3.88413 1.24897 0
M  V30 3766 H 346.591 4.15699 0.129387 0
M  V30 3767 H 345.168 3.29527 1.74546 0
M  V30 3768 N 347.353 -0.0568162 1.57498 0
M  V30 3769 C 348.599 -0.75422 1.88253 0
M  V30 3770 C 348.932 -1.76461 0.810865 0
M  V30 3771 O 348.207 -1.93691 -0.177259 0
M  V30 3772 C 348.49 -1.44878 3.2967 0
M  V30 3773 C 348.343 -0.453789 4.47505 0
M  V30 3774 C 349.662 -2.38994 3.69554 0
M  V30 3775 H 346.781 -0.272724 0.684683 0
M  V30 3776 H 349.423 -0.0172113 1.89992 0
M  V30 3777 H 347.573 -2.077 3.28318 0
M  V30 3778 H 349.245 0.170371 4.60985 0
M  V30 3779 H 347.488 0.229552 4.33192 0
M  V30 3780 H 348.159 -0.977699 5.43273 0
M  V30 3781 H 350.635 -1.86239 3.72095 0
M  V30 3782 H 349.511 -2.84587 4.69363 0
M  V30 3783 H 349.772 -3.24461 3.00296 0
M  V30 3784 N 348.832 -1.54138 -0.328536 0
M  V30 3785 C 350.06 -1.76062 -1.08673 0
M  V30 3786 C 350.475 -0.506852 -1.81869 0
M  V30 3787 O 349.832 0.522223 -1.74869 0
M  V30 3788 C 349.883 -2.95054 -2.08866 0
M  V30 3789 O 349.604 -4.15583 -1.38644 0
M  V30 3790 C 351.105 -3.2915 -2.96943 0
M  V30 3791 H 348.325 -0.587889 -0.323461 0
M  V30 3792 H 350.869 -2.0101 -0.376175 0
M  V30 3793 H 349.024 -2.72394 -2.75464 0
M  V30 3794 H 349.438 -4.82481 -2.05699 0
M  V30 3795 H 350.912 -4.15723 -3.63151 0
M  V30 3796 H 351.389 -2.461 -3.63774 0
M  V30 3797 H 351.995 -3.53871 -2.35914 0
M  V30 3798 N 350.31 0.590341 -1.46126 0
M  V30 3799 C 351.257 1.69994 -1.56111 0
M  V30 3800 C 352.227 1.61065 -0.405867 0
M  V30 3801 O 353.412 1.8039 -0.621613 0
M  V30 3802 C 350.552 3.08326 -1.55013 0
M  V30 3803 C 349.665 3.27936 -2.81215 0
M  V30 3804 C 348.8 4.56473 -2.71673 0
M  V30 3805 C 347.839 4.694 -3.92849 0
M  V30 3806 N 346.976 5.89254 -3.81738 0
M  V30 3807 H 351.816 1.60797 -2.50895 0
M  V30 3808 H 349.353 0.783799 -1.24479 0
M  V30 3809 H 351.311 3.88383 -1.52362 0
M  V30 3810 H 349.941 3.16439 -0.637667 0
M  V30 3811 H 348.993 2.41536 -2.93879 0
M  V30 3812 H 350.305 3.33357 -3.71045 0
M  V30 3813 H 349.459 5.44748 -2.67085 0
M  V30 3814 H 348.198 4.53477 -1.7947 0
M  V30 3815 H 347.203 3.79544 -3.97777 0
M  V30 3816 H 348.428 4.7418 -4.86138 0
M  V30 3817 H 346.374 5.87271 -2.92317 0
M  V30 3818 H 346.291 5.95911 -4.65217 0
M  V30 3819 H 347.559 6.79981 -3.81112 0
M  V30 3820 N 351.788 1.33704 0.83433 0
M  V30 3821 C 352.751 1.24244 1.92603 0
M  V30 3822 C 353.751 0.160383 1.59998 0
M  V30 3823 O 354.941 0.412228 1.69252 0
M  V30 3824 C 352.073 0.91555 3.28376 0
M  V30 3825 H 353.266 2.21287 2.02416 0
M  V30 3826 H 350.819 1.17827 1.02696 0
M  V30 3827 H 351.554 -0.0521886 3.24258 0
M  V30 3828 H 351.339 1.69811 3.53422 0
M  V30 3829 H 352.829 0.874231 4.08347 0
M  V30 3830 N 353.266 -1.05314 1.17247 0
M  V30 3831 C 354.176 -2.16538 0.90268 0
M  V30 3832 C 355.192 -1.73523 -0.128707 0
M  V30 3833 O 356.368 -2.01337 0.0502701 0
M  V30 3834 C 353.433 -3.44167 0.418356 0
M  V30 3835 C 352.494 -4.01635 1.51618 0
M  V30 3836 C 351.727 -5.23171 1.05487 0
M  V30 3837 O 351.95 -5.70327 -0.0914715 0
M  V30 3838 O 350.884 -5.72848 1.8474 0
M  V30 3839 H 354.71 -2.42145 1.83302 0
M  V30 3840 H 352.295 -1.15037 0.953246 0
M  V30 3841 H 354.177 -4.21112 0.155726 0
M  V30 3842 H 352.852 -3.20063 -0.48385 0
M  V30 3843 H 351.759 -3.26135 1.83268 0
M  V30 3844 H 353.092 -4.30053 2.39405 0
M  V30 3845 N 354.744 -0.972509 -1.24016 0
M  V30 3846 C 355.691 -0.505969 -2.25186 0
M  V30 3847 C 356.661 0.451009 -1.5986 0
M  V30 3848 O 357.846 0.360307 -1.87367 0
M  V30 3849 C 354.986 0.193089 -3.44559 0
M  V30 3850 C 354.099 -0.803222 -4.24467 0
M  V30 3851 C 353.234 -0.0797793 -5.3114 0
M  V30 3852 C 352.273 -1.06583 -6.02749 0
M  V30 3853 N 351.41 -0.372074 -7.01113 0
M  V30 3854 H 356.25 -1.37351 -2.64459 0
M  V30 3855 H 353.787 -0.688419 -1.29997 0
M  V30 3856 H 355.745 0.615125 -4.1264 0
M  V30 3857 H 354.375 1.02455 -3.06109 0
M  V30 3858 H 353.427 -1.34368 -3.55878 0
M  V30 3859 H 354.739 -1.55494 -4.73944 0
M  V30 3860 H 353.893 0.400015 -6.0538 0
M  V30 3861 H 352.632 0.704597 -4.82583 0
M  V30 3862 H 351.637 -1.55645 -5.27309 0
M  V30 3863 H 352.862 -1.85074 -6.53395 0
M  V30 3864 H 350.808 0.393238 -6.5482 0
M  V30 3865 H 350.725 -1.06258 -7.48495 0
M  V30 3866 H 351.993 0.0855932 -7.79453 0
M  V30 3867 N 356.222 1.38976 -0.743202 0
M  V30 3868 C 357.638 1.53984 -0.419664 0
M  V30 3869 C 357.838 1.70837 1.0685 0
M  V30 3870 O 356.894 1.7135 1.8546 0
M  V30 3871 C 358.207 2.75287 -1.20985 0
M  V30 3872 C 359.755 2.89129 -1.19889 0
M  V30 3873 C 360.23 4.13381 -1.97181 0
M  V30 3874 N 361.721 4.20437 -1.94389 0
M  V30 3875 C 362.456 5.15547 -2.50996 0
M  V30 3876 N 361.952 6.16395 -3.16274 0
M  V30 3877 N 363.745 5.07822 -2.40984 0
M  V30 3878 H 355.896 1.26285 -1.7078 0
M  V30 3879 H 358.159 0.612689 -0.723406 0
M  V30 3880 H 357.865 2.69204 -2.26323 0
M  V30 3881 H 357.739 3.68184 -0.819759 0
M  V30 3882 H 360.126 2.947 -0.153606 0
M  V30 3883 H 360.207 1.97272 -1.62841 0
M  V30 3884 H 359.851 4.08572 -3.01714 0
M  V30 3885 H 359.781 5.04298 -1.51629 0
M  V30 3886 H 362.272 3.48205 -1.46839 0
M  V30 3887 H 362.585 6.85443 -3.56915 0
M  V30 3888 H 360.93 6.16758 -3.20367 0
M  V30 3889 H 364.121 4.27973 -1.89622 0
M  V30 3890 H 364.294 5.81767 -2.85397 0
M  V30 3891 N 357.7 0.491464 1.49741 0
M  V30 3892 C 358.647 -0.292027 2.28945 0
M  V30 3893 C 359.617 -0.968973 1.34908 0
M  V30 3894 O 360.802 -0.97748 1.6386 0
M  V30 3895 C 357.942 -1.35617 3.17336 0
M  V30 3896 C 357.055 -0.691957 4.26422 0
M  V30 3897 C 356.19 -1.73572 5.02042 0
M  V30 3898 C 355.229 -1.05286 6.02977 0
M  V30 3899 N 354.366 -2.0404 6.71798 0
M  V30 3900 H 359.206 0.389654 2.95442 0
M  V30 3901 H 356.743 0.204003 1.45679 0
M  V30 3902 H 358.701 -1.98502 3.66951 0
M  V30 3903 H 357.331 -2.00674 2.52844 0
M  V30 3904 H 356.383 0.0499523 3.80367 0
M  V30 3905 H 357.695 -0.153946 4.98562 0
M  V30 3906 H 356.849 -2.43987 5.55478 0
M  V30 3907 H 355.588 -2.30757 4.29654 0
M  V30 3908 H 354.593 -0.334446 5.48782 0
M  V30 3909 H 355.818 -0.487636 6.77347 0
M  V30 3910 H 353.764 -2.60205 6.02187 0
M  V30 3911 H 353.681 -1.55279 7.39881 0
M  V30 3912 H 354.949 -2.73772 7.29842 0
M  V30 3913 N 359.178 -1.55987 0.224894 0
M  V30 3914 C 360.589 -1.84553 -0.282345 0
M  V30 3915 C 360.94 -1.14634 -1.59227 0
M  V30 3916 O 360.065 -0.417155 -2.12341 0
M  V30 3917 C 360.66 -3.348 -0.519062 0
M  V30 3918 C 359.219 -3.63671 -0.970604 0
M  V30 3919 C 358.366 -2.77277 -0.0355261 0
M  V30 3920 H 361.317 -1.52245 0.448006 0
M  V30 3921 H 361.338 -3.55187 -1.36463 0
M  V30 3922 H 360.85 -3.8566 0.43449 0
M  V30 3923 H 358.951 -3.1827 -1.9374 0
M  V30 3924 H 359.064 -4.71631 -0.842698 0
M  V30 3925 H 357.428 -2.48846 -0.542927 0
M  V30 3926 H 358.211 -3.30937 0.913003 0
M  V30 3927 N 360.656 0.0484629 -1.57525 0
M  V30 3928 C 361.619 1.03956 -2.04269 0
M  V30 3929 C 362.619 1.30211 -0.943496 0
M  V30 3930 O 363.809 1.25539 -1.20771 0
M  V30 3931 C 360.941 2.37742 -2.44319 0
M  V30 3932 H 362.134 0.636182 -2.93075 0
M  V30 3933 H 359.687 0.294811 -1.53494 0
M  V30 3934 H 360.422 2.82866 -1.5861 0
M  V30 3935 H 360.207 2.20021 -3.24551 0
M  V30 3936 H 361.697 3.08936 -2.80978 0
M  V30 3937 N 362.134 1.5431 0.320358 0
M  V30 3938 C 363.084 1.803 1.39556 0
M  V30 3939 C 364.068 0.659166 1.46778 0
M  V30 3940 O 365.26 0.91926 1.51257 0
M  V30 3941 C 362.389 2.03665 2.76361 0
M  V30 3942 C 361.475 3.24178 2.73439 0
M  V30 3943 N 361.866 4.4516 2.40137 0
M  V30 3944 C 360.164 3.25816 3.04565 0
M  V30 3945 C 360.865 5.27109 2.4603 0
M  V30 3946 N 359.841 4.64368 2.82601 0
M  V30 3947 H 363.643 2.71416 1.12742 0
M  V30 3948 H 361.157 1.53548 0.528856 0
M  V30 3949 H 363.154 2.20425 3.53862 0
M  V30 3950 H 361.814 1.13805 3.04103 0
M  V30 3951 H 362.825 4.72104 2.12927 0
M  V30 3952 H 359.502 2.46001 3.37328 0
M  V30 3953 H 360.892 6.33728 2.23246 0
M  V30 3954 N 363.613 -0.582584 1.46437 0
M  V30 3955 C 365.029 -0.905962 1.31394 0
M  V30 3956 C 365.229 -1.99468 0.285476 0
M  V30 3957 O 364.285 -2.50566 -0.311914 0
M  V30 3958 C 365.598 -1.3232 2.70022 0
M  V30 3959 C 367.146 -1.43604 2.78113 0
M  V30 3960 C 367.621 -1.88694 4.17323 0
M  V30 3961 N 369.112 -1.95887 4.19741 0
M  V30 3962 C 369.847 -2.32051 5.24347 0
M  V30 3963 N 369.343 -2.67006 6.39281 0
M  V30 3964 N 371.136 -2.32606 5.11713 0
M  V30 3965 H 363.287 0.1366 2.1196 0
M  V30 3966 H 365.55 -0.00155736 0.947999 0
M  V30 3967 H 365.256 -0.597242 3.46592 0
M  V30 3968 H 365.13 -2.28469 3.00136 0
M  V30 3969 H 367.517 -2.15286 2.01832 0
M  V30 3970 H 367.598 -0.457059 2.51684 0
M  V30 3971 H 367.242 -1.1759 4.941 0
M  V30 3972 H 367.172 -2.8755 4.4116 0
M  V30 3973 H 369.663 -1.71362 3.36814 0
M  V30 3974 H 369.976 -2.93554 7.14875 0
M  V30 3975 H 368.321 -2.64644 6.42642 0
M  V30 3976 H 371.512 -2.04721 4.2096 0
M  V30 3977 H 371.685 -2.60462 5.93349 0
M  V30 3978 N 365.091 -1.34144 -0.827227 0
M  V30 3979 C 366.054 -1.25264 -1.91942 0
M  V30 3980 C 367.054 -0.168866 -1.59911 0
M  V30 3981 O 368.244 -0.421198 -1.69031 0
M  V30 3982 C 365.376 -0.932952 -3.27885 0
M  V30 3983 H 366.569 -2.22357 -2.0124 0
M  V30 3984 H 364.122 -1.1837 -1.0207 0
M  V30 3985 H 364.857 0.0349917 -3.24281 0
M  V30 3986 H 364.642 -1.71682 -3.52516 0
M  V30 3987 H 366.132 -0.895874 -4.07877 0
M  V30 3988 N 366.569 1.04691 -1.17803 0
M  V30 3989 C 367.499 2.14494 -0.92275 0
M  V30 3990 C 368.48 1.69546 0.137179 0
M  V30 3991 O 369.665 1.94195 -0.0141108 0
M  V30 3992 C 366.795 3.44491 -0.440803 0
M  V30 3993 C 365.749 4.03031 -1.4405 0
M  V30 3994 C 365.075 5.28432 -0.81631 0
M  V30 3995 C 366.375 4.39932 -2.81527 0
M  V30 3996 H 368.069 2.36107 -1.84103 0
M  V30 3997 H 365.615 1.1347 -0.886599 0
M  V30 3998 H 367.568 4.2066 -0.249602 0
M  V30 3999 H 366.292 3.22546 0.513025 0
M  V30 4000 H 364.951 3.28937 -1.61853 0
M  V30 4001 H 364.599 5.02792 0.144511 0
M  V30 4002 H 364.299 5.68559 -1.48371 0
M  V30 4003 H 365.823 6.07284 -0.635496 0
M  V30 4004 H 367.237 5.07113 -2.67412 0
M  V30 4005 H 365.634 4.9109 -3.44892 0
M  V30 4006 H 366.704 3.50045 -3.35554 0
M  V30 4007 N 368.047 0.979072 1.23499 0
M  V30 4008 C 369.294 0.647219 1.91878 0
M  V30 4009 C 369.622 -0.819074 1.76413 0
M  V30 4010 O 368.877 -1.60616 1.11808 0
M  V30 4011 C 369.176 0.981932 3.43646 0
M  V30 4012 C 368.842 2.43822 3.79291 0
M  V30 4013 C 367.504 2.83622 3.88731 0
M  V30 4014 C 369.856 3.3828 3.96505 0
M  V30 4015 C 367.184 4.16897 4.12812 0
M  V30 4016 C 369.536 4.71197 4.22085 0
M  V30 4017 C 368.2 5.10758 4.29747 0
M  V30 4018 H 367.47 0.236834 0.702133 0
M  V30 4019 H 370.117 1.23268 1.46551 0
M  V30 4020 H 368.422 0.314365 3.90537 0
M  V30 4021 H 370.119 0.703395 3.94783 0
M  V30 4022 H 366.709 2.11966 3.72516 0
M  V30 4023 H 370.893 3.0871 3.88603 0
M  V30 4024 H 366.149 4.47157 4.16966 0
M  V30 4025 H 370.323 5.44348 4.34348 0
M  V30 4026 H 367.95 6.1405 4.48159 0
M  V30 4027 N 369.525 -1.3858 0.750561 0
M  V30 4028 C 370.941 -1.53759 0.427824 0
M  V30 4029 C 371.141 -1.71401 -1.05943 0
M  V30 4030 O 370.197 -1.72331 -1.84549 0
M  V30 4031 C 371.51 -2.74642 1.22443 0
M  V30 4032 C 373.058 -2.88489 1.2142 0
M  V30 4033 C 373.533 -4.12329 1.9937 0
M  V30 4034 N 375.024 -4.194 1.96616 0
M  V30 4035 C 375.759 -5.14209 2.53727 0
M  V30 4036 N 375.255 -6.14709 3.19539 0
M  V30 4037 N 377.048 -5.06537 2.43673 0
M  V30 4038 H 369.199 -1.25377 1.71447 0
M  V30 4039 H 371.462 -0.608844 0.726645 0
M  V30 4040 H 371.168 -2.68 2.27747 0
M  V30 4041 H 371.042 -3.67745 0.839273 0
M  V30 4042 H 373.429 -2.94614 0.169232 0
M  V30 4043 H 373.51 -1.96406 1.63885 0
M  V30 4044 H 373.154 -4.06966 3.03877 0
M  V30 4045 H 373.084 -5.03486 1.54302 0
M  V30 4046 H 375.575 -3.47421 1.48684 0
M  V30 4047 H 375.888 -6.8354 3.60545 0
M  V30 4048 H 374.233 -6.1505 3.23633 0
M  V30 4049 H 377.424 -4.26962 1.91889 0
M  V30 4050 H 377.597 -5.80245 2.88479 0
M  V30 4051 N 371.003 -0.499398 -1.49478 0
M  V30 4052 C 372.228 0.044722 -2.07352 0
M  V30 4053 C 372.653 1.30207 -1.35749 0
M  V30 4054 O 372.011 1.76516 -0.413732 0
M  V30 4055 C 372.059 0.283013 -3.59488 0
M  V30 4056 O 371.163 1.35804 -3.89398 0
M  V30 4057 H 370.504 -0.0255147 -0.66351 0
M  V30 4058 H 373.034 -0.698561 -1.92305 0
M  V30 4059 H 373.044 0.515007 -4.04737 0
M  V30 4060 H 371.719 -0.635636 -4.11014 0
M  V30 4061 H 370.296 1.11113 -3.55961 0
M  V30 4062 N 372.481 1.55866 -0.233164 0
M  V30 4063 C 373.721 2.00506 0.397078 0
M  V30 4064 C 374.085 1.1176 1.56121 0
M  V30 4065 O 375.286 1.45796 2.25825 0
M  V30 4066 C 373.557 3.4811 0.809601 0
M  V30 4067 S 375.116 4.14765 1.43231 0
M  V30 4068 H 371.934 0.699828 0.125547 0
M  V30 4069 H 374.536 1.92429 -0.345177 0
M  V30 4070 H 373.24 4.10373 -0.0471601 0
M  V30 4071 H 372.771 3.60085 1.58438 0
M  V30 4072 H 374.786 4.14914 2.7214 0
M  V30 4073 N 373.959 -0.0401083 1.57549 0
M  V30 4074 C 374.889 -1.04384 2.08869 0
M  V30 4075 C 375.87 -1.38407 0.988817 0
M  V30 4076 O 377.055 -1.47483 1.26342 0
M  V30 4077 C 374.185 -2.34808 2.55895 0
M  V30 4078 C 373.139 -2.15057 3.70047 0
M  V30 4079 C 372.465 -3.51145 4.03239 0
M  V30 4080 C 373.765 -1.54576 4.98902 0
M  V30 4081 H 375.459 -0.616666 2.92981 0
M  V30 4082 H 373.005 -0.295184 1.40942 0
M  V30 4083 H 374.958 -3.05346 2.90417 0
M  V30 4084 H 373.682 -2.79565 1.68853 0
M  V30 4085 H 372.341 -1.46954 3.35857 0
M  V30 4086 H 371.989 -3.93529 3.13279 0
M  V30 4087 H 371.689 -3.38758 4.80122 0
M  V30 4088 H 373.213 -4.23062 4.40285 0
M  V30 4089 H 374.627 -2.15017 5.31451 0
M  V30 4090 H 373.024 -1.52796 5.80322 0
M  V30 4091 H 374.094 -0.51039 4.82206 0
M  V30 4092 N 375.437 -1.54477 -0.31217 0
M  V30 4093 C 376.853 -1.45442 -0.657185 0
M  V30 4094 C 377.053 -0.63653 -1.91182 0
M  V30 4095 O 376.109 -0.139815 -2.52113 0
M  V30 4096 C 377.422 -2.89287 -0.82058 0
M  V30 4097 C 378.97 -2.9926 -0.917188 0
M  V30 4098 C 379.445 -4.44279 -1.11267 0
M  V30 4099 N 380.936 -4.4794 -1.17914 0
M  V30 4100 C 381.671 -5.57318 -1.34848 0
M  V30 4101 N 381.167 -6.76642 -1.48752 0
M  V30 4102 N 382.96 -5.44986 -1.37647 0
M  V30 4103 H 375.111 -2.06129 0.512313 0
M  V30 4104 H 377.374 -0.933088 0.167485 0
M  V30 4105 H 377.08 -3.51687 0.0302604 0
M  V30 4106 H 376.954 -3.36061 -1.71298 0
M  V30 4107 H 379.341 -2.36981 -1.75852 0
M  V30 4108 H 379.422 -2.558 -0.00101257 0
M  V30 4109 H 379.066 -5.07149 -0.27614 0
M  V30 4110 H 378.996 -4.85359 -2.04289 0
M  V30 4111 H 381.487 -3.61969 -1.08567 0
M  V30 4112 H 381.8 -7.55758 -1.61397 0
M  V30 4113 H 380.145 -6.79529 -1.45828 0
M  V30 4114 H 383.336 -4.50715 -1.26388 0
M  V30 4115 H 383.509 -6.3028 -1.50501 0
M  V30 4116 N 376.915 0.57481 -1.46744 0
M  V30 4117 C 378.155 1.34369 -1.54027 0
M  V30 4118 C 378.519 1.91051 -0.190642 0
M  V30 4119 O 379.72 2.68444 -0.138255 0
M  V30 4120 C 377.991 2.43706 -2.61423 0
M  V30 4121 S 379.55 3.30915 -2.88167 0
M  V30 4122 H 376.368 0.45768 -0.544105 0
M  V30 4123 H 378.97 0.659959 -1.84024 0
M  V30 4124 H 377.674 2.0047 -3.58106 0
M  V30 4125 H 377.205 3.16842 -2.33184 0
M  V30 4126 H 379.22 4.42742 -2.24039 0
M  V30 4127 N 378.394 1.34581 0.820102 0
M  V30 4128 C 379.805 1.24298 1.39309 0
M  V30 4129 C 380.156 -0.130351 1.95767 0
M  V30 4130 O 379.281 -1.0308 1.90272 0
M  V30 4131 C 379.876 2.25054 2.53251 0
M  V30 4132 C 378.435 2.18552 3.0645 0
M  V30 4133 C 377.582 2.11503 1.79337 0
M  V30 4134 H 380.533 1.45906 0.624262 0
M  V30 4135 H 380.554 1.86917 3.31425 0
M  V30 4136 H 380.066 3.24996 2.1213 0
M  V30 4137 H 378.167 1.21976 3.52069 0
M  V30 4138 H 378.28 3.0993 3.65349 0
M  V30 4139 H 376.644 1.57268 2.00347 0
M  V30 4140 H 377.427 3.13284 1.40386 0
M  V30 4141 N 379.872 -1.04064 1.18357 0
M  V30 4142 C 381.288 -1.2947 0.933258 0
M  V30 4143 C 381.488 -1.97466 -0.401169 0
M  V30 4144 O 380.544 -2.25528 -1.13549 0
M  V30 4145 C 381.857 -2.15337 2.09882 0
M  V30 4146 C 383.405 -2.28683 2.13712 0
M  V30 4147 C 383.88 -3.17917 3.29686 0
M  V30 4148 N 385.371 -3.25504 3.29547 0
M  V30 4149 C 386.106 -3.94706 4.15926 0
M  V30 4150 N 385.602 -4.66239 5.12439 0
M  V30 4151 N 387.395 -3.90986 4.0384 0
M  V30 4152 H 379.546 -0.583359 2.04232 0
M  V30 4153 H 381.809 -0.319921 0.892387 0
M  V30 4154 H 381.515 -1.72682 3.06389 0
M  V30 4155 H 381.389 -3.16015 2.05947 0
M  V30 4156 H 383.776 -2.70575 1.17784 0
M  V30 4157 H 383.857 -1.27596 2.21705 0
M  V30 4158 H 383.501 -2.76736 4.25887 0
M  V30 4159 H 383.431 -4.19036 3.1893 0
M  V30 4160 H 385.922 -2.74547 2.59677 0
M  V30 4161 H 386.235 -5.16638 5.74722 0
M  V30 4162 H 384.58 -4.65143 5.16398 0
M  V30 4163 H 387.771 -3.34234 3.27727 0
M  V30 4164 H 387.944 -4.44646 4.71375 0
M  V30 4165 N 381.35 -0.985608 -1.22978 0
M  V30 4166 C 382.761 -0.693593 -1.73338 0
M  V30 4167 C 383.112 0.789935 -1.79595 0
M  V30 4168 O 382.237 1.61771 -1.43733 0
M  V30 4169 C 382.832 -1.25235 -3.14804 0
M  V30 4170 C 381.391 -1.00987 -3.626 0
M  V30 4171 C 380.538 -1.37695 -2.40698 0
M  V30 4172 H 383.489 -1.15884 -1.08428 0
M  V30 4173 H 383.51 -0.627329 -3.75293 0
M  V30 4174 H 383.022 -2.33209 -3.10218 0
M  V30 4175 H 381.123 0.0535565 -3.72562 0
M  V30 4176 H 381.236 -1.66812 -4.49122 0
M  V30 4177 H 379.6 -0.795459 -2.4196 0
M  V30 4178 H 380.383 -2.46657 -2.38779 0
M  V30 4179 N 382.828 1.3818 -0.7579 0
M  V30 4180 C 384.056 2.04301 -0.326937 0
M  V30 4181 C 384.471 1.57163 1.0462 0
M  V30 4182 O 383.828 0.746626 1.66529 0
M  V30 4183 C 383.879 3.59846 -0.345363 0
M  V30 4184 O 383.6 4.05256 -1.66432 0
M  V30 4185 C 385.101 4.4319 0.098927 0
M  V30 4186 H 382.321 0.656443 -0.139012 0
M  V30 4187 H 384.865 1.76786 -1.02796 0
M  V30 4188 H 383.02 3.86182 0.306955 0
M  V30 4189 H 383.434 4.99709 -1.59345 0
M  V30 4190 H 384.908 5.51989 0.0348745 0
M  V30 4191 H 385.385 4.23947 1.14741 0
M  V30 4192 H 385.991 4.22051 -0.52468 0
M  V30 4193 N 384.306 0.507319 1.49211 0
M  V30 4194 C 385.236 -0.256939 2.32082 0
M  V30 4195 C 386.217 -0.956609 1.40652 0
M  V30 4196 O 387.402 -0.946788 1.69557 0
M  V30 4197 C 384.532 -1.31802 3.21318 0
M  V30 4198 C 383.486 -0.737855 4.21592 0
M  V30 4199 C 382.812 -1.89992 4.99807 0
M  V30 4200 C 384.112 0.275325 5.21574 0
M  V30 4201 H 385.806 0.434798 2.96226 0
M  V30 4202 H 383.352 0.210546 1.42452 0
M  V30 4203 H 385.305 -1.86045 3.78107 0
M  V30 4204 H 384.029 -2.03903 2.5513 0
M  V30 4205 H 382.688 -0.217126 3.65956 0
M  V30 4206 H 382.336 -2.60877 4.30061 0
M  V30 4207 H 382.036 -1.51777 5.6766 0
M  V30 4208 H 383.56 -2.44657 5.59442 0
M  V30 4209 H 384.974 -0.179193 5.7302 0
M  V30 4210 H 383.371 0.573649 5.97352 0
M  V30 4211 H 384.441 1.18903 4.70096 0
M  V30 4212 N 385.784 -1.5574 0.241426 0
M  V30 4213 C 386.747 -2.19877 -0.647063 0
M  V30 4214 C 387.747 -1.16642 -1.10686 0
M  V30 4215 O 388.937 -1.41757 -1.01245 0
M  V30 4216 C 386.069 -2.83797 -1.88871 0
M  V30 4217 H 387.262 -2.99772 -0.087574 0
M  V30 4218 H 384.815 -1.56298 -0.00813574 0
M  V30 4219 H 385.55 -2.07824 -2.48957 0
M  V30 4220 H 385.335 -3.59414 -1.56728 0
M  V30 4221 H 386.825 -3.32898 -2.52129 0
M  V30 4222 N 387.262 0.0317525 -1.57568 0
M  V30 4223 C 388.194 1.06073 -2.03178 0
M  V30 4224 C 389.207 1.32627 -0.944132 0
M  V30 4225 O 390.396 1.30162 -1.22148 0
M  V30 4226 C 387.496 2.40297 -2.38978 0
M  V30 4227 C 386.669 2.33137 -3.70089 0
M  V30 4228 C 385.728 3.49787 -3.9311 0
M  V30 4229 O 384.754 3.29403 -4.64201 0
M  V30 4230 N 385.956 4.71562 -3.38541 0
M  V30 4231 H 388.721 0.672006 -2.92069 0
M  V30 4232 H 386.282 0.219745 -1.60402 0
M  V30 4233 H 388.274 3.1705 -2.51518 0
M  V30 4234 H 386.844 2.71024 -1.55771 0
M  V30 4235 H 386.064 1.415 -3.67928 0
M  V30 4236 H 387.352 2.25493 -4.56104 0
M  V30 4237 H 386.75 4.91024 -2.80912 0
M  V30 4238 H 385.307 5.45689 -3.56464 0
M  V30 4239 N 388.74 1.54641 0.303973 0
M  V30 4240 C 390.156 1.45788 0.649463 0
M  V30 4241 C 390.356 0.64666 1.90842 0
M  V30 4242 O 389.412 0.153183 2.52035 0
M  V30 4243 C 390.725 2.89718 0.805227 0
M  V30 4244 C 392.273 2.99742 0.901305 0
M  V30 4245 C 392.748 4.44863 1.08909 0
M  V30 4246 N 394.239 4.48559 1.15536 0
M  V30 4247 C 394.974 5.58026 1.3189 0
M  V30 4248 N 394.47 6.77422 1.45161 0
M  V30 4249 N 396.263 5.45708 1.34755 0
M  V30 4250 H 388.414 2.05854 -0.523237 0
M  V30 4251 H 390.677 0.932186 -0.172431 0
M  V30 4252 H 390.383 3.51666 -0.0489108 0
M  V30 4253 H 390.257 3.36964 1.69513 0
M  V30 4254 H 392.644 2.3791 1.74593 0
M  V30 4255 H 392.725 2.55797 -0.0125531 0
M  V30 4256 H 392.369 5.07288 0.249241 0
M  V30 4257 H 392.299 4.86436 2.01713 0
M  V30 4258 H 394.79 3.6254 1.06646 0
M  V30 4259 H 395.103 7.56604 1.57387 0
M  V30 4260 H 393.448 6.80292 1.42223 0
M  V30 4261 H 396.639 4.51378 1.23996 0
M  V30 4262 H 396.812 6.3107 1.47157 0
M  V30 4263 N 390.218 -0.567019 1.47046 0
M  V30 4264 C 391.128 -1.70247 1.6141 0
M  V30 4265 C 392.144 -1.66746 0.497157 0
M  V30 4266 O 393.32 -1.86371 0.763389 0
M  V30 4267 C 390.385 -3.06756 1.61561 0
M  V30 4268 C 389.446 -3.21399 2.84607 0
M  V30 4269 C 388.679 -4.51396 2.84741 0
M  V30 4270 O 388.902 -5.36255 1.94388 0
M  V30 4271 O 387.836 -4.69621 3.76483 0
M  V30 4272 H 391.662 -1.61073 2.57467 0
M  V30 4273 H 389.247 -0.735894 1.30019 0
M  V30 4274 H 391.129 -3.8801 1.64396 0
M  V30 4275 H 389.804 -3.16333 0.686684 0
M  V30 4276 H 388.711 -2.39579 2.8732 0
M  V30 4277 H 390.044 -3.16721 3.76761 0
M  V30 4278 N 391.696 -1.35014 -0.812953 0
M  V30 4279 C 393.112 -1.14914 -1.10757 0
M  V30 4280 C 393.312 0.0426818 -2.01455 0
M  V30 4281 O 392.368 0.715212 -2.42159 0
M  V30 4282 C 393.681 -2.44911 -1.74468 0
M  V30 4283 C 395.229 -2.5106 -1.86917 0
M  V30 4284 C 395.704 -3.81085 -2.54044 0
M  V30 4285 N 397.195 -3.82301 -2.61535 0
M  V30 4286 C 397.93 -4.79634 -3.14227 0
M  V30 4287 N 397.426 -5.87353 -3.67407 0
M  V30 4288 N 399.219 -4.67078 -3.12721 0
M  V30 4289 H 391.37 -2.1136 -0.20989 0
M  V30 4290 H 393.633 -0.935128 -0.155692 0
M  V30 4291 H 393.339 -3.32267 -1.15289 0
M  V30 4292 H 393.213 -2.58989 -2.74234 0
M  V30 4293 H 395.6 -1.64137 -2.45241 0
M  V30 4294 H 395.681 -2.40901 -0.860242 0
M  V30 4295 H 395.325 -4.68402 -1.96372 0
M  V30 4296 H 395.255 -3.88529 -3.55461 0
M  V30 4297 H 397.746 -3.04465 -2.23851 0
M  V30 4298 H 398.059 -6.57624 -4.05894 0
M  V30 4299 H 396.404 -5.91054 -3.65623 0
M  V30 4300 H 399.595 -3.82067 -2.70449 0
M  V30 4301 H 399.768 -5.43098 -3.53481 0
M  V30 4302 N 393.175 1.03435 -1.18907 0
M  V30 4303 C 394.123 2.13703 -0.918353 0
M  V30 4304 C 395.117 1.68947 0.123767 0
M  V30 4305 O 396.323 1.79983 -0.0249701 0
M  V30 4306 H 392.698 0.698112 -0.279542 0
M  V30 4307 H 394.669 2.33731 -1.85506 0
M  V30 4308 C 393.418 3.44542 -0.467532 0
M  V30 4309 H 392.741 3.79394 -1.26095 0
M  V30 4310 H 394.181 4.22812 -0.317164 0
M  V30 4311 C 392.64 3.26829 0.817588 0
M  V30 4312 O 393.17 3.54975 1.88031 0
M  V30 4313 N 391.376 2.80139 0.772677 0
M  V30 4314 H 390.923 2.57434 -0.0923883 0
M  V30 4315 H 390.881 2.68668 1.63294 0
M  V30 4316 N 394.653 0.992116 1.22453 0
M  V30 4317 C 395.585 0.500024 2.23679 0
M  V30 4318 C 396.598 -0.404463 1.57696 0
M  V30 4319 O 397.787 -0.206722 1.77299 0
M  V30 4320 C 394.887 -0.294711 3.37616 0
M  V30 4321 C 394.06 0.605723 4.33186 0
M  V30 4322 C 393.119 -0.13717 5.26021 0
M  V30 4323 O 392.145 0.477164 5.67196 0
M  V30 4324 N 393.347 -1.4197 5.62872 0
M  V30 4325 H 396.112 1.37045 2.66531 0
M  V30 4326 H 393.673 0.866741 1.36745 0
M  V30 4327 H 395.665 -0.800329 3.96707 0
M  V30 4328 H 394.235 -1.06623 2.93854 0
M  V30 4329 H 393.455 1.29202 3.72425 0
M  V30 4330 H 394.743 1.21896 4.93983 0
M  V30 4331 H 394.141 -1.94015 5.31389 0
M  V30 4332 H 392.698 -1.87052 6.24383 0
M  V30 4333 N 396.131 -1.37776 0.765217 0
M  V30 4334 C 397.094 -2.28686 0.153416 0
M  V30 4335 C 398.094 -1.47727 -0.635081 0
M  V30 4336 O 399.284 -1.68027 -0.459632 0
M  V30 4337 C 396.416 -3.31608 -0.790495 0
M  V30 4338 H 397.609 -2.84297 0.954723 0
M  V30 4339 H 395.162 -1.46932 0.53299 0
M  V30 4340 H 395.897 -2.81109 -1.61705 0
M  V30 4341 H 395.682 -3.9144 -0.227348 0
M  V30 4342 H 397.172 -3.99559 -1.21419 0
M  V30 4343 N 397.609 -0.515225 -1.4894 0
M  V30 4344 C 398.834 0.022727 -2.07388 0
M  V30 4345 C 399.259 1.2876 -1.37122 0
M  V30 4346 O 398.617 1.76067 -0.432431 0
M  V30 4347 C 398.665 0.244869 -3.59768 0
M  V30 4348 O 397.769 1.31667 -3.90817 0
M  V30 4349 H 397.11 -0.0325506 -0.663202 0
M  V30 4350 H 399.64 -0.718918 -1.91553 0
M  V30 4351 H 399.65 0.47205 -4.0526 0
M  V30 4352 H 398.325 -0.679194 -4.10317 0
M  V30 4353 H 396.902 1.07331 -3.5712 0
M  V30 4354 N 399.087 1.5561 -0.249682 0
M  V30 4355 C 400.333 2.00044 0.367952 0
M  V30 4356 C 400.688 1.1349 1.55363 0
M  V30 4357 O 399.981 0.191079 1.90645 0
M  V30 4358 C 400.175 3.4775 0.824887 0
M  V30 4359 C 400.004 4.48596 -0.314973 0
M  V30 4360 C 398.774 4.99077 -0.790555 0
M  V30 4361 C 400.972 5.0144 -1.14291 0
M  V30 4362 N 398.954 5.83675 -1.90254 0
M  V30 4363 C 400.325 5.83236 -2.10322 0
M  V30 4364 C 402.38 4.83736 -1.17916 0
M  V30 4365 C 401.083 6.49217 -3.09692 0
M  V30 4366 C 403.109 5.50497 -2.16117 0
M  V30 4367 C 402.471 6.32084 -3.10884 0
M  V30 4368 H 398.57 0.775512 0.100522 0
M  V30 4369 H 401.154 1.91193 -0.367896 0
M  V30 4370 H 399.325 3.56994 1.53002 0
M  V30 4371 H 401.057 3.79056 1.4177 0
M  V30 4372 H 397.812 4.72119 -0.374218 0
M  V30 4373 H 398.236 6.30671 -2.46137 0
M  V30 4374 H 402.878 4.20286 -0.460352 0
M  V30 4375 H 400.596 7.11832 -3.8252 0
M  V30 4376 H 404.182 5.38752 -2.19631 0
M  V30 4377 H 403.062 6.82832 -3.8563 0
M  V30 4378 N 400.565 -0.0233959 1.57583 0
M  V30 4379 C 401.79 -0.728376 1.94189 0
M  V30 4380 C 402.215 -1.67793 0.850119 0
M  V30 4381 O 401.573 -1.80262 -0.19371 0
M  V30 4382 C 401.621 -1.45669 3.29868 0
M  V30 4383 O 400.725 -2.57013 3.22518 0
M  V30 4384 H 400.066 -0.195493 0.63457 0
M  V30 4385 H 402.596 0.0228214 2.04587 0
M  V30 4386 H 402.606 -1.82535 3.6489 0
M  V30 4387 H 401.281 -0.760314 4.08891 0
M  V30 4388 H 399.858 -2.22648 2.99136 0
M  V30 4389 N 402.043 -1.548 -0.295768 0
M  V30 4390 C 403.268 -1.78653 -1.05346 0
M  V30 4391 C 403.693 -0.546894 -1.79974 0
M  V30 4392 O 403.051 0.502763 -1.7419 0
M  V30 4393 C 403.099 -2.99679 -2.00561 0
M  V30 4394 O 402.203 -2.7317 -3.08953 0
M  V30 4395 H 401.544 -0.59116 -0.302367 0
M  V30 4396 H 404.074 -2.01895 -0.331598 0
M  V30 4397 H 404.084 -3.27793 -2.42932 0
M  V30 4398 H 402.759 -3.89562 -1.4565 0
M  V30 4399 H 401.336 -2.56089 -2.71059 0
M  V30 4400 N 403.521 0.559213 -1.47345 0
M  V30 4401 C 404.746 1.34676 -1.57725 0
M  V30 4402 C 405.171 1.86723 -0.227164 0
M  V30 4403 O 404.529 1.6286 0.796642 0
M  V30 4404 C 404.577 2.49399 -2.60447 0
M  V30 4405 O 403.681 3.51567 -2.15578 0
M  V30 4406 H 403.022 0.400115 -0.52991 0
M  V30 4407 H 405.552 0.676009 -1.93109 0
M  V30 4408 H 405.562 2.95996 -2.80803 0
M  V30 4409 H 404.237 2.10873 -3.58477 0
M  V30 4410 H 402.814 3.11289 -2.05313 0
M  V30 4411 N 404.999 1.35443 0.805782 0
M  V30 4412 C 406.415 1.15499 1.10146 0
M  V30 4413 C 406.615 -0.0319975 2.01475 0
M  V30 4414 O 405.671 -0.70236 2.42535 0
M  V30 4415 C 406.984 2.45833 1.73166 0
M  V30 4416 C 408.532 2.52047 1.85583 0
M  V30 4417 C 409.007 3.82427 2.52019 0
M  V30 4418 N 410.498 3.83682 2.59504 0
M  V30 4419 C 411.233 4.81294 3.11679 0
M  V30 4420 N 410.729 5.89294 3.64287 0
M  V30 4421 N 412.522 4.6873 3.1024 0
M  V30 4422 H 404.673 2.11469 0.198678 0
M  V30 4423 H 406.936 0.93594 0.150731 0
M  V30 4424 H 406.642 3.32874 1.13526 0
M  V30 4425 H 406.516 2.6044 2.72857 0
M  V30 4426 H 408.903 1.65435 2.44367 0
M  V30 4427 H 408.984 2.41354 0.847455 0
M  V30 4428 H 408.628 4.69437 1.93885 0
M  V30 4429 H 408.558 3.90409 3.53395 0
M  V30 4430 H 411.049 3.05648 2.22234 0
M  V30 4431 H 411.362 6.59768 4.02401 0
M  V30 4432 H 409.707 5.92985 3.62483 0
M  V30 4433 H 412.898 3.83496 2.68419 0
M  V30 4434 H 413.071 5.44965 3.50596 0
M  V30 4435 N 406.477 -1.02803 1.19454 0
M  V30 4436 C 407.893 -1.28473 0.946937 0
M  V30 4437 C 408.093 -1.97881 -0.380202 0
M  V30 4438 O 407.149 -2.26719 -1.11151 0
M  V30 4439 C 408.462 -2.13099 2.12154 0
M  V30 4440 C 410.01 -2.26404 2.16126 0
M  V30 4441 C 410.485 -3.14402 3.33039 0
M  V30 4442 N 411.976 -3.21991 3.32981 0
M  V30 4443 C 412.711 -3.90272 4.20089 0
M  V30 4444 N 412.207 -4.60777 5.17355 0
M  V30 4445 N 414 -3.8668 4.07964 0
M  V30 4446 H 406.151 -0.561665 2.04839 0
M  V30 4447 H 408.414 -0.310438 0.89573 0
M  V30 4448 H 408.12 -1.69422 3.08203 0
M  V30 4449 H 407.994 -3.13813 2.09287 0
M  V30 4450 H 410.381 -2.69311 1.20647 0
M  V30 4451 H 410.462 -1.25237 2.23045 0
M  V30 4452 H 410.106 -2.72204 4.28798 0
M  V30 4453 H 410.036 -4.1563 3.23356 0
M  V30 4454 H 412.527 -2.71778 2.62574 0
M  V30 4455 H 412.84 -5.10513 5.80169 0
M  V30 4456 H 411.185 -4.5964 5.21302 0
M  V30 4457 H 414.376 -3.30739 3.31254 0
M  V30 4458 H 414.549 -4.39621 4.76064 0
M  V30 4459 N 407.956 -0.998596 -1.21925 0
M  V30 4460 C 409.181 -0.696015 -1.95372 0
M  V30 4461 C 409.606 0.733826 -1.73195 0
M  V30 4462 O 408.964 1.50242 -1.01474 0
M  V30 4463 C 409.012 -1.01466 -3.4603 0
M  V30 4464 O 408.116 -0.116415 -4.12236 0
M  V30 4465 H 407.457 -0.259938 -0.611006 0
M  V30 4466 H 409.987 -1.33711 -1.54863 0
M  V30 4467 H 409.997 -0.958855 -3.96573 0
M  V30 4468 H 408.672 -2.05653 -3.61497 0
M  V30 4469 H 407.249 -0.228193 -3.72201 0
M  V30 4470 N 409.434 1.37368 -0.772513 0
M  V30 4471 C 410.662 2.03942 -0.348588 0
M  V30 4472 C 411.077 1.58264 1.02947 0
M  V30 4473 O 410.434 0.764246 1.65727 0
M  V30 4474 C 410.485 3.5946 -0.38351 0
M  V30 4475 O 410.206 4.03468 -1.70721 0
M  V30 4476 C 411.707 4.4327 0.0519152 0
M  V30 4477 H 408.927 0.654931 -0.145966 0
M  V30 4478 H 411.471 1.75686 -1.04665 0
M  V30 4479 H 409.626 3.86486 0.265978 0
M  V30 4480 H 410.04 4.97991 -1.64636 0
M  V30 4481 H 411.514 5.51995 -0.0236733 0
M  V30 4482 H 411.991 4.2514 1.10238 0
M  V30 4483 H 412.597 4.21471 -0.569415 0
M  V30 4484 N 410.912 0.523116 1.48665 0
M  V30 4485 C 412.137 -0.0117284 2.07397 0
M  V30 4486 C 412.562 -1.28031 1.37803 0
M  V30 4487 O 411.92 -1.75836 0.441762 0
M  V30 4488 C 411.968 -0.225786 3.59892 0
M  V30 4489 O 411.072 -1.29592 3.91509 0
M  V30 4490 H 410.413 0.0360673 0.66302 0
M  V30 4491 H 412.943 0.729066 1.9117 0
M  V30 4492 H 412.953 -0.450552 4.05505 0
M  V30 4493 H 411.628 0.700944 4.09951 0
M  V30 4494 H 410.205 -1.05436 3.57684 0
M  V30 4495 N 412.39 -1.55475 0.257931 0
M  V30 4496 C 413.618 -2.03609 -0.367559 0
M  V30 4497 C 414.033 -1.13687 -1.50734 0
M  V30 4498 O 413.39 -0.153479 -1.81853 0
M  V30 4499 C 413.441 -3.51001 -0.864908 0
M  V30 4500 O 413.162 -4.37499 0.229465 0
M  V30 4501 C 414.663 -4.14946 -1.55997 0
M  V30 4502 H 411.883 -0.665459 -0.0860521 0
M  V30 4503 H 414.427 -2.00843 0.385014 0
M  V30 4504 H 412.582 -3.54266 -1.56762 0
M  V30 4505 H 412.996 -5.24286 -0.14998 0
M  V30 4506 H 414.47 -5.19735 -1.85956 0
M  V30 4507 H 414.947 -3.6209 -2.4857 0
M  V30 4508 H 415.553 -4.15635 -0.901543 0
M  V30 4509 N 413.868 0.0150385 -1.57593 0
M  V30 4510 C 415.096 0.714395 -1.94175 0
M  V30 4511 C 415.511 1.68135 -0.858841 0
M  V30 4512 O 414.868 1.81766 0.163567 0
M  V30 4513 C 414.919 1.45933 -3.30735 0
M  V30 4514 O 414.64 0.531167 -4.34868 0
M  V30 4515 C 416.141 2.25456 -3.81686 0
M  V30 4516 H 413.361 0.199923 -0.640525 0
M  V30 4517 H 415.905 -0.0316096 -2.04476 0
M  V30 4518 H 414.06 2.15709 -3.21789 0
M  V30 4519 H 414.474 1.05509 -5.13778 0
M  V30 4520 H 415.948 2.731 -4.79709 0
M  V30 4521 H 416.425 3.07485 -3.13607 0
M  V30 4522 H 417.031 1.60727 -3.9376 0
M  V30 4523 N 415.346 1.54954 0.287554 0
M  V30 4524 C 416.594 1.74528 1.01904 0
M  V30 4525 C 416.915 0.541349 1.87335 0
M  V30 4526 O 416.185 -0.444108 1.908 0
M  V30 4527 H 414.765 0.643576 0.379235 0
M  V30 4528 H 417.427 1.92333 0.315294 0
M  V30 4529 H 416.523 2.64015 1.6644 0
M  V30 4530 N 416.824 -0.551391 1.4764 0
M  V30 4531 C 417.771 -1.65796 1.60563 0
M  V30 4532 C 418.741 -1.59932 0.448428 0
M  V30 4533 O 419.926 -1.78679 0.669222 0
M  V30 4534 C 417.066 -3.04108 1.63133 0
M  V30 4535 C 416.179 -3.20365 2.89811 0
M  V30 4536 C 415.314 -4.49109 2.8368 0
M  V30 4537 C 414.353 -4.58819 4.05156 0
M  V30 4538 N 413.49 -5.78926 3.97227 0
M  V30 4539 H 418.33 -1.54088 2.5507 0
M  V30 4540 H 415.867 -0.75052 1.26513 0
M  V30 4541 H 417.825 -3.84207 1.62606 0
M  V30 4542 H 416.455 -3.14637 0.721341 0
M  V30 4543 H 415.507 -2.33659 3.00179 0
M  V30 4544 H 416.819 -3.23402 3.79753 0
M  V30 4545 H 415.973 -5.37475 2.81434 0
M  V30 4546 H 414.712 -4.4856 1.91431 0
M  V30 4547 H 413.717 -3.68864 4.077 0
M  V30 4548 H 414.942 -4.61124 4.98539 0
M  V30 4549 H 412.888 -5.79314 3.07785 0
M  V30 4550 H 412.805 -5.83367 4.80853 0
M  V30 4551 H 414.073 -6.69637 3.99007 0
M  V30 4552 N 418.302 -1.35869 -0.798587 0
M  V30 4553 C 419.713 -1.26498 -1.37314 0
M  V30 4554 C 420.064 0.0991899 -1.95949 0
M  V30 4555 O 419.189 1.0004 -1.91888 0
M  V30 4556 C 419.784 -2.29054 -2.49639 0
M  V30 4557 C 418.343 -2.234 -3.02935 0
M  V30 4558 C 417.49 -2.14329 -1.75949 0
M  V30 4559 H 420.441 -1.46881 -0.600971 0
M  V30 4560 H 420.462 -1.92166 -3.28409 0
M  V30 4561 H 419.974 -3.2833 -2.06933 0
M  V30 4562 H 418.075 -1.27562 -3.50084 0
M  V30 4563 H 418.188 -3.15703 -3.60372 0
M  V30 4564 H 416.552 -1.60435 -1.9782 0
M  V30 4565 H 417.335 -3.15477 -1.35384 0
M  V30 4566 N 419.78 1.02168 -1.19998 0
M  V30 4567 C 421.005 1.79833 -1.03319 0
M  V30 4568 C 421.43 1.83504 0.413281 0
M  V30 4569 O 420.788 1.26635 1.29743 0
M  V30 4570 C 420.836 3.22396 -1.61533 0
M  V30 4571 O 419.94 4.03555 -0.849519 0
M  V30 4572 H 419.281 0.554872 -0.364709 0
M  V30 4573 H 421.811 1.28542 -1.59179 0
M  V30 4574 H 421.821 3.73124 -1.65054 0
M  V30 4575 H 420.496 3.19039 -2.66809 0
M  V30 4576 H 419.073 3.62169 -0.888129 0
M  V30 4577 N 421.258 1.00505 1.21394 0
M  V30 4578 C 422.19 0.52372 2.23136 0
M  V30 4579 C 423.203 -0.387714 1.58116 0
M  V30 4580 O 424.392 -0.187905 1.77508 0
M  V30 4581 C 421.492 -0.258885 3.3791 0
M  V30 4582 C 420.665 0.651634 4.32519 0
M  V30 4583 C 419.724 -0.0813705 5.26137 0
M  V30 4584 O 418.75 0.537295 5.66658 0
M  V30 4585 N 419.952 -1.35992 5.64346 0
M  V30 4586 H 422.717 1.39865 2.65062 0
M  V30 4587 H 420.278 0.881196 1.35818 0
M  V30 4588 H 422.27 -0.758208 3.97534 0
M  V30 4589 H 420.84 -1.035 2.94968 0
M  V30 4590 H 420.06 1.33145 3.71034 0
M  V30 4591 H 421.348 1.27129 4.92662 0
M  V30 4592 H 420.746 -1.88368 5.33417 0
M  V30 4593 H 419.303 -1.8042 6.26332 0
M  V30 4594 N 422.737 -1.36956 0.779787 0
M  V30 4595 C 423.7 -2.2851 0.177662 0
M  V30 4596 C 424.7 -1.48393 -0.619377 0
M  V30 4597 O 425.89 -1.68505 -0.441785 0
M  V30 4598 C 423.022 -3.32428 -0.755279 0
M  V30 4599 H 424.215 -2.83269 0.984823 0
M  V30 4600 H 421.768 -1.46358 0.548544 0
M  V30 4601 H 422.503 -2.82808 -1.58714 0
M  V30 4602 H 422.288 -3.91659 -0.185817 0
M  V30 4603 H 423.778 -4.00824 -1.17174 0
M  V30 4604 N 424.215 -0.530993 -1.48385 0
M  V30 4605 C 425.443 -0.00134122 -2.069 0
M  V30 4606 C 425.858 1.2805 -1.3874 0
M  V30 4607 O 425.215 1.76204 -0.475244 0
M  V30 4608 C 425.266 0.225256 -3.60798 0
M  V30 4609 O 424.987 -1.0058 -4.26398 0
M  V30 4610 C 426.488 0.795172 -4.3611 0
M  V30 4611 H 423.708 -0.0339704 -0.67014 0
M  V30 4612 H 426.252 -0.736926 -1.90761 0
M  V30 4613 H 424.407 0.910891 -3.76539 0
M  V30 4614 H 424.821 -0.787165 -5.1856 0
M  V30 4615 H 426.295 0.903143 -5.44562 0
M  V30 4616 H 426.772 1.80031 -4.00606 0
M  V30 4617 H 427.378 0.146069 -4.25049 0
M  V30 4618 N 425.693 1.55336 -0.266172 0
M  V30 4619 C 426.941 1.99003 0.35246 0
M  V30 4620 C 427.262 1.15591 1.57047 0
M  V30 4621 O 426.532 0.243268 1.94384 0
M  V30 4622 H 425.112 0.735025 0.133217 0
M  V30 4623 H 427.774 1.91367 -0.369434 0
M  V30 4624 H 426.87 3.05289 0.648453 0
M  V30 4625 N 427.171 -0.0066808 1.57599 0
M  V30 4626 C 428.582 -0.550379 1.78403 0
M  V30 4627 C 428.933 -1.74339 0.900014 0
M  V30 4628 O 428.058 -2.16166 0.100713 0
M  V30 4629 C 428.653 -1.00523 3.23544 0
M  V30 4630 C 427.212 -1.49428 3.45468 0
M  V30 4631 C 426.359 -0.442444 2.73748 0
M  V30 4632 H 429.31 0.219508 1.57175 0
M  V30 4633 H 429.331 -1.87157 3.31289 0
M  V30 4634 H 428.843 -0.136735 3.87859 0
M  V30 4635 H 426.944 -2.3839 2.86358 0
M  V30 4636 H 427.057 -1.52635 4.54136 0
M  V30 4637 H 425.421 -0.902578 2.38171 0
M  V30 4638 H 426.204 0.416973 3.40758 0
M  V30 4639 N 428.649 -1.55105 -0.279332 0
M  V30 4640 C 429.874 -1.7976 -1.03446 0
M  V30 4641 C 430.299 -0.565952 -1.79384 0
M  V30 4642 O 429.657 0.484259 -1.74713 0
M  V30 4643 C 429.705 -3.0179 -1.97371 0
M  V30 4644 O 428.809 -2.76432 -3.06038 0
M  V30 4645 H 428.15 -0.594334 -0.29608 0
M  V30 4646 H 430.68 -2.02235 -0.310165 0
M  V30 4647 H 430.69 -3.30351 -2.39441 0
M  V30 4648 H 429.365 -3.91085 -1.4151 0
M  V30 4649 H 427.942 -2.58949 -2.68328 0
M  V30 4650 N 430.127 0.543554 -1.4793 0
M  V30 4651 C 431.09 1.63156 -1.60975 0
M  V30 4652 C 432.09 1.53346 -0.483899 0
M  V30 4653 O 433.28 1.5726 -0.749339 0
M  V30 4654 C 430.412 3.02743 -1.56716 0
M  V30 4655 H 431.605 1.52934 -2.57975 0
M  V30 4656 H 429.158 0.764557 -1.36324 0
M  V30 4657 H 429.893 3.18484 -0.611418 0
M  V30 4658 H 429.678 3.11272 -2.38438 0
M  V30 4659 H 431.168 3.81871 -1.6901 0
M  V30 4660 N 431.605 1.3629 0.791371 0
M  V30 4661 C 432.553 1.30514 1.92533 0
M  V30 4662 C 433.547 0.197285 1.68247 0
M  V30 4663 O 434.753 0.364176 1.76278 0
M  V30 4664 H 431.128 0.406263 0.632815 0
M  V30 4665 H 433.099 2.26282 1.94523 0
M  V30 4666 C 431.848 1.10933 3.29529 0
M  V30 4667 H 431.171 1.95427 3.48781 0
M  V30 4668 H 432.611 1.10937 4.0923 0
M  V30 4669 C 431.07 -0.186123 3.36385 0
M  V30 4670 O 431.6 -1.17664 3.84081 0
M  V30 4671 N 429.806 -0.230128 2.89687 0
M  V30 4672 H 429.353 0.576545 2.51065 0
M  V30 4673 H 429.311 -1.09658 2.94657 0
M  V30 4674 N 433.083 -1.0153 1.20538 0
M  V30 4675 C 434.329 -1.75517 1.02787 0
M  V30 4676 C 434.684 -1.87411 -0.435289 0
M  V30 4677 O 433.977 -1.38982 -1.31889 0
M  V30 4678 C 434.171 -3.17213 1.64654 0
M  V30 4679 C 434 -3.19134 3.16834 0
M  V30 4680 C 432.77 -3.26301 3.85818 0
M  V30 4681 C 434.968 -3.05077 4.14044 0
M  V30 4682 N 432.95 -3.17739 5.25276 0
M  V30 4683 C 434.321 -3.04299 5.40187 0
M  V30 4684 C 436.376 -2.89303 4.05226 0
M  V30 4685 C 435.079 -2.89365 6.58529 0
M  V30 4686 C 437.105 -2.75723 5.23193 0
M  V30 4687 C 436.467 -2.75612 6.48242 0
M  V30 4688 H 432.566 -0.652919 0.430373 0
M  V30 4689 H 435.15 -1.20755 1.52729 0
M  V30 4690 H 433.321 -3.70266 1.17294 0
M  V30 4691 H 435.053 -3.79637 1.40208 0
M  V30 4692 H 431.808 -3.33078 3.36684 0
M  V30 4693 H 432.232 -3.16829 5.98288 0
M  V30 4694 H 436.874 -2.88201 3.09354 0
M  V30 4695 H 434.592 -2.89216 7.54573 0
M  V30 4696 H 438.178 -2.64533 5.18183 0
M  V30 4697 H 437.058 -2.65224 7.37988 0
M  V30 4698 N 434.561 -1.01147 -1.20859 0
M  V30 4699 C 435.524 -0.582224 -2.21682 0
M  V30 4700 C 436.524 0.344887 -1.57058 0
M  V30 4701 O 437.714 0.134281 -1.73682 0
M  V30 4702 C 434.846 0.150496 -3.40568 0
M  V30 4703 H 436.039 -1.47408 -2.61172 0
M  V30 4704 H 433.592 -0.800695 -1.34233 0
M  V30 4705 H 434.327 1.0575 -3.06574 0
M  V30 4706 H 434.112 -0.515444 -3.88697 0
M  V30 4707 H 435.602 0.438344 -4.15293 0
M  V30 4708 N 436.039 1.36541 -0.78704 0
M  V30 4709 C 436.986 2.30082 -0.181901 0
M  V30 4710 C 437.956 1.5186 0.672896 0
M  V30 4711 O 439.141 1.80374 0.622072 0
M  V30 4712 C 436.281 3.3835 0.679197 0
M  V30 4713 C 435.394 4.31565 -0.193882 0
M  V30 4714 C 434.529 5.26915 0.673364 0
M  V30 4715 C 433.568 6.11769 -0.201315 0
M  V30 4716 N 432.705 6.99315 0.624777 0
M  V30 4717 H 437.545 2.81248 -0.985064 0
M  V30 4718 H 435.082 1.38437 -0.497342 0
M  V30 4719 H 437.04 3.99767 1.19341 0
M  V30 4720 H 435.67 2.8851 1.44781 0
M  V30 4721 H 434.722 3.71323 -0.826044 0
M  V30 4722 H 436.034 4.91191 -0.867937 0
M  V30 4723 H 435.188 5.9361 1.25348 0
M  V30 4724 H 433.927 4.67737 1.38105 0
M  V30 4725 H 432.932 5.44039 -0.793849 0
M  V30 4726 H 434.157 6.73022 -0.906568 0
M  V30 4727 H 432.103 6.42648 1.3168 0
M  V30 4728 H 432.02 7.56 0.00835237 0
M  V30 4729 H 433.288 7.70382 1.18879 0
M  V30 4730 N 437.518 0.538854 1.48102 0
M  V30 4731 C 438.481 -0.208395 2.28251 0
M  V30 4732 C 439.481 -0.859656 1.35892 0
M  V30 4733 O 440.671 -0.71834 1.58699 0
M  V30 4734 C 437.803 -1.30252 3.15035 0
M  V30 4735 H 438.996 0.495407 2.9578 0
M  V30 4736 H 436.549 0.295112 1.53489 0
M  V30 4737 H 437.284 -2.0393 2.52157 0
M  V30 4738 H 437.069 -0.840551 3.82985 0
M  V30 4739 H 438.559 -1.82787 3.75471 0
M  V30 4740 N 438.996 -1.55193 0.274407 0
M  V30 4741 C 439.906 -2.26164 -0.623473 0
M  V30 4742 C 440.922 -1.28729 -1.17068 0
M  V30 4743 O 442.098 -1.61663 -1.20112 0
M  V30 4744 C 439.163 -2.96833 -1.7914 0
M  V30 4745 C 438.224 -4.09745 -1.28093 0
M  V30 4746 C 437.457 -4.77034 -2.3932 0
M  V30 4747 O 437.68 -4.4353 -3.5866 0
M  V30 4748 O 436.614 -5.64996 -2.07516 0
M  V30 4749 H 440.44 -3.03661 -0.0485661 0
M  V30 4750 H 438.025 -1.49341 0.0418382 0
M  V30 4751 H 439.907 -3.41248 -2.4724 0
M  V30 4752 H 438.582 -2.22253 -2.35341 0
M  V30 4753 H 437.489 -3.69787 -0.566416 0
M  V30 4754 H 438.822 -4.86224 -0.764683 0
M  V30 4755 N 440.474 -0.00167713 -1.576 0
M  V30 4756 C 441.406 1.0174 -2.05382 0
M  V30 4757 C 442.419 1.30595 -0.972052 0
M  V30 4758 O 443.608 1.27542 -1.24882 0
M  V30 4759 C 440.708 2.35174 -2.44022 0
M  V30 4760 C 439.881 2.25234 -3.74951 0
M  V30 4761 C 438.94 3.4137 -4.00441 0
M  V30 4762 O 437.966 3.19483 -4.71083 0
M  V30 4763 N 439.168 4.64275 -3.48467 0
M  V30 4764 H 441.933 0.609902 -2.93428 0
M  V30 4765 H 439.494 0.185672 -1.60832 0
M  V30 4766 H 441.486 3.11643 -2.58187 0
M  V30 4767 H 440.056 2.67659 -1.61485 0
M  V30 4768 H 439.276 1.33664 -3.70847 0
M  V30 4769 H 440.564 2.15767 -4.60784 0
M  V30 4770 H 439.962 4.84955 -2.91264 0
M  V30 4771 H 438.519 5.38005 -3.67959 0
M  V30 4772 N 441.952 1.55251 0.271103 0
M  V30 4773 C 442.882 1.9127 1.33933 0
M  V30 4774 C 443.863 0.77478 1.5143 0
M  V30 4775 O 445.048 1.03307 1.64442 0
M  V30 4776 C 442.178 2.18627 2.69851 0
M  V30 4777 C 441.132 3.34442 2.67081 0
M  V30 4778 C 440.458 3.47284 4.06569 0
M  V30 4779 C 441.758 4.70784 2.26185 0
M  V30 4780 H 443.452 2.80744 1.04035 0
M  V30 4781 H 440.998 1.35077 0.499017 0
M  V30 4782 H 442.951 2.42413 3.44694 0
M  V30 4783 H 441.675 1.25955 3.01335 0
M  V30 4784 H 440.334 3.10627 1.94695 0
M  V30 4785 H 439.982 2.52074 4.35279 0
M  V30 4786 H 439.682 4.25152 4.0561 0
M  V30 4787 H 441.206 3.73363 4.83148 0
M  V30 4788 H 442.62 4.94102 2.90751 0
M  V30 4789 H 441.017 5.51582 2.36384 0
M  V30 4790 H 442.087 4.69478 1.21319 0
M  V30 4791 N 443.43 -0.535701 1.48216 0
M  V30 4792 C 444.658 -1.31671 1.59594 0
M  V30 4793 C 445.073 -1.87083 0.254056 0
M  V30 4794 O 444.43 -1.66112 -0.755854 0
M  V30 4795 C 444.481 -2.47158 2.63809 0
M  V30 4796 O 444.202 -1.94032 3.92789 0
M  V30 4797 C 445.703 -3.39062 2.85573 0
M  V30 4798 H 442.923 -0.400623 0.538277 0
M  V30 4799 H 445.467 -0.646827 1.94001 0
M  V30 4800 H 443.622 -3.10043 2.32276 0
M  V30 4801 H 444.036 -2.69585 4.49916 0
M  V30 4802 H 445.51 -4.16459 3.62306 0
M  V30 4803 H 445.987 -3.93941 1.94184 0
M  V30 4804 H 446.593 -2.81975 3.18387 0
M  V30 4805 N 444.908 -1.36708 -0.784132 0
M  V30 4806 C 446.136 -1.34398 -1.57305 0
M  V30 4807 C 446.551 0.0735577 -1.88657 0
M  V30 4808 O 445.908 1.03193 -1.50524 0
M  V30 4809 C 445.959 -2.17053 -2.89085 0
M  V30 4810 O 445.68 -3.53281 -2.59083 0
M  V30 4811 C 447.181 -2.22583 -3.83369 0
M  V30 4812 H 444.401 -0.460819 -0.487736 0
M  V30 4813 H 446.945 -1.79879 -0.972819 0
M  V30 4814 H 445.1 -1.75113 -3.45564 0
M  V30 4815 H 445.514 -3.9647 -3.43383 0
M  V30 4816 H 446.988 -2.84763 -4.72878 0
M  V30 4817 H 447.465 -1.23075 -4.21603 0
M  V30 4818 H 448.071 -2.64781 -3.32823 0
M  V30 4819 N 446.386 1.0089 -1.21074 0
M  V30 4820 C 447.626 1.76142 -1.03699 0
M  V30 4821 C 447.99 1.87292 0.422587 0
M  V30 4822 O 449.191 2.59068 0.716752 0
M  V30 4823 C 447.462 3.13805 -1.7106 0
M  V30 4824 S 449.021 4.04996 -1.68889 0
M  V30 4825 H 445.839 0.606113 -0.371683 0
M  V30 4826 H 448.441 1.20744 -1.53756 0
M  V30 4827 H 447.145 3.0332 -2.76451 0
M  V30 4828 H 446.676 3.74276 -1.21166 0
M  V30 4829 H 448.691 4.90842 -0.727211 0
M  V30 4830 N 447.864 1.01787 1.20321 0
M  V30 4831 C 449.089 0.727009 1.9424 0
M  V30 4832 C 449.514 -0.706179 1.74341 0
M  V30 4833 O 448.872 -1.48609 1.03852 0
M  V30 4834 C 448.92 1.06958 3.44372 0
M  V30 4835 O 448.024 0.181983 4.11998 0
M  V30 4836 H 447.365 0.269626 0.606793 0
M  V30 4837 H 449.895 1.36158 1.52716 0
M  V30 4838 H 449.905 1.02182 3.94997 0
M  V30 4839 H 448.58 2.11378 3.58179 0
M  V30 4840 H 447.157 0.287378 3.71791 0
M  V30 4841 N 449.342 -1.36122 0.79427 0
M  V30 4842 C 450.567 -2.03891 0.379871 0
M  V30 4843 C 450.992 -1.59488 -0.997251 0
M  V30 4844 O 450.35 -0.765652 -1.64339 0
M  V30 4845 C 450.398 -3.57687 0.457442 0
M  V30 4846 O 449.502 -4.08931 -0.5338 0
M  V30 4847 H 448.843 -0.6443 0.160541 0
M  V30 4848 H 451.373 -1.73976 1.07673 0
M  V30 4849 H 451.383 -4.06721 0.322792 0
M  V30 4850 H 450.058 -3.89357 1.46199 0
M  V30 4851 H 448.635 -3.71154 -0.360409 0
M  V30 4852 N 450.82 -0.546701 -1.47814 0
M  V30 4853 C 452.05 -0.0232519 -2.06587 0
M  V30 4854 C 452.458 1.2712 -1.40133 0
M  V30 4855 O 451.801 1.77091 -0.488305 0
M  V30 4856 C 451.863 0.254117 -3.58601 0
M  V30 4857 C 451.527 -0.949331 -4.47031 0
M  V30 4858 C 452.524 -1.85216 -4.85789 0
M  V30 4859 C 450.209 -1.16104 -4.88697 0
M  V30 4860 C 452.203 -2.95047 -5.65001 0
M  V30 4861 C 449.89 -2.26247 -5.67676 0
M  V30 4862 C 450.888 -3.1555 -6.05737 0
M  V30 4863 O 450.576 -4.23784 -6.83127 0
M  V30 4864 H 450.308 -0.0380082 -0.674931 0
M  V30 4865 H 452.862 -0.756631 -1.90956 0
M  V30 4866 H 451.092 1.04168 -3.72406 0
M  V30 4867 H 452.781 0.72167 -3.99433 0
M  V30 4868 H 453.547 -1.70061 -4.54207 0
M  V30 4869 H 449.426 -0.475159 -4.58545 0
M  V30 4870 H 452.97 -3.64778 -5.94628 0
M  V30 4871 H 448.867 -2.41379 -5.98671 0
M  V30 4872 H 449.635 -4.21701 -7.01506 0
M  V30 4873 N 452.299 1.55045 -0.282633 0
M  V30 4874 C 453.71 1.85473 0.213655 0
M  V30 4875 C 454.061 1.20465 1.54863 0
M  V30 4876 O 453.186 0.495676 2.10647 0
M  V30 4877 C 453.781 3.36496 0.394445 0
M  V30 4878 C 452.34 3.67022 0.834961 0
M  V30 4879 C 451.487 2.77218 -0.0674081 0
M  V30 4880 H 454.438 1.50478 -0.504202 0
M  V30 4881 H 454.459 3.60007 1.23186 0
M  V30 4882 H 453.971 3.83782 -0.577326 0
M  V30 4883 H 452.072 3.25241 1.81794 0
M  V30 4884 H 452.185 4.74433 0.667075 0
M  V30 4885 H 450.549 2.5069 0.450196 0
M  V30 4886 H 451.332 3.2732 -1.0352 0
M  V30 4887 N 453.777 0.010035 1.57597 0
M  V30 4888 C 455.002 -0.687021 1.95691 0
M  V30 4889 C 455.427 -1.65952 0.885519 0
M  V30 4890 O 454.785 -1.80633 -0.15543 0
M  V30 4891 C 454.833 -1.3864 3.32884 0
M  V30 4892 O 453.937 -2.50115 3.27897 0
M  V30 4893 H 453.278 -0.181989 0.638573 0
M  V30 4894 H 455.808 0.0662122 2.04493 0
M  V30 4895 H 455.818 -1.74754 3.6868 0
M  V30 4896 H 454.493 -0.673411 4.10412 0
M  V30 4897 H 453.07 -2.16253 3.03791 0
M  V30 4898 N 455.255 -1.55392 -0.262866 0
M  V30 4899 C 456.48 -1.80847 -1.01533 0
M  V30 4900 C 456.905 -0.584946 -1.78774 0
M  V30 4901 O 456.263 0.465701 -1.75217 0
M  V30 4902 C 456.311 -3.03866 -1.94159 0
M  V30 4903 O 455.415 -2.79662 -3.03089 0
M  V30 4904 H 454.756 -0.597441 -0.289759 0
M  V30 4905 H 457.286 -2.02553 -0.288698 0
M  V30 4906 H 457.296 -3.32872 -2.35924 0
M  V30 4907 H 455.971 -3.92564 -1.37354 0
M  V30 4908 H 454.548 -2.61781 -2.65566 0
M  V30 4909 N 456.733 0.527833 -1.48498 0
M  V30 4910 C 457.643 1.65907 -1.65867 0
M  V30 4911 C 458.659 1.6537 -0.541192 0
M  V30 4912 O 459.835 1.84282 -0.812534 0
M  V30 4913 C 456.9 3.02364 -1.69637 0
M  V30 4914 C 455.961 3.1374 -2.93028 0
M  V30 4915 C 455.194 4.43688 -2.96609 0
M  V30 4916 O 455.417 5.30913 -2.08538 0
M  V30 4917 O 454.351 4.59475 -3.88802 0
M  V30 4918 H 458.177 1.5419 -2.61647 0
M  V30 4919 H 455.762 0.701163 -1.31924 0
M  V30 4920 H 457.644 3.83515 -1.74625 0
M  V30 4921 H 456.319 3.14401 -0.770312 0
M  V30 4922 H 455.226 2.31877 -2.93571 0
M  V30 4923 H 456.559 3.06621 -3.85026 0
M  V30 4924 N 458.211 1.37122 0.776871 0
M  V30 4925 C 459.488 1.22586 1.52421 0
M  V30 4926 C 459.868 -0.182726 2.10308 0
M  V30 4927 O 459.216 -1.18979 1.9508 0
M  V30 4928 C 459.426 2.31782 2.60918 0
M  V30 4929 C 460.774 2.69071 3.2846 0
M  V30 4930 O 461.798 2.3092 2.71209 0
M  V30 4931 O 460.657 3.3478 4.31954 0
M  V30 4932 H 457.751 0.478045 0.674835 0
M  V30 4933 H 460.297 1.48888 0.814275 0
M  V30 4934 H 459.069 3.26131 2.16227 0
M  V30 4935 H 458.692 2.06916 3.39517 0
M  V30 4936 N 459.689 -1.00246 1.21608 0
M  V30 4937 C 460.599 -2.12515 0.993709 0
M  V30 4938 C 461.615 -1.73913 -0.0549939 0
M  V30 4939 O 462.791 -2.00943 0.135619 0
M  V30 4940 C 459.856 -3.42083 0.563953 0
M  V30 4941 C 458.917 -3.94843 1.68516 0
M  V30 4942 C 458.15 -5.18226 1.27582 0
M  V30 4943 O 458.373 -5.70201 0.150506 0
M  V30 4944 O 457.307 -5.64497 2.0887 0
M  V30 4945 H 461.133 -2.34152 1.93407 0
M  V30 4946 H 458.718 -1.10891 1.00118 0
M  V30 4947 H 460.6 -4.20073 0.334194 0
M  V30 4948 H 459.275 -3.21828 -0.347665 0
M  V30 4949 H 458.182 -3.18068 1.96935 0
M  V30 4950 H 459.515 -4.19512 2.5743 0
M  V30 4951 N 461.167 -1.02423 -1.1978 0
M  V30 4952 C 462.444 -0.632802 -1.85081 0
M  V30 4953 C 462.824 0.888745 -1.9148 0
M  V30 4954 O 462.172 1.78357 -1.42832 0
M  V30 4955 C 462.382 -1.28947 -3.24305 0
M  V30 4956 C 463.73 -1.40976 -4.00513 0
M  V30 4957 O 464.754 -1.24628 -3.33686 0
M  V30 4958 O 463.613 -1.67467 -5.20209 0
M  V30 4959 H 460.707 -0.219348 -0.79738 0
M  V30 4960 H 463.253 -1.12209 -1.27307 0
M  V30 4961 H 462.025 -2.3288 -3.14456 0
M  V30 4962 H 461.648 -0.787748 -3.89718 0
M  V30 4963 N 462.645 1.35699 -0.801477 0
M  V30 4964 C 463.592 2.29876 -0.206294 0
M  V30 4965 C 464.562 1.52565 0.656752 0
M  V30 4966 O 465.747 1.81024 0.602906 0
M  V30 4967 C 462.887 3.39052 0.643272 0
M  V30 4968 C 462 4.31335 -0.239644 0
M  V30 4969 C 461.135 5.27599 0.61744 0
M  V30 4970 C 460.174 6.11521 -0.26619 0
M  V30 4971 N 459.311 6.99938 0.550571 0
M  V30 4972 H 464.151 2.80187 -1.01484 0
M  V30 4973 H 461.688 1.37902 -0.511997 0
M  V30 4974 H 463.646 4.0101 1.15094 0
M  V30 4975 H 462.276 2.9003 1.41713 0
M  V30 4976 H 461.328 3.70426 -0.865381 0
M  V30 4977 H 462.64 4.90243 -0.919985 0
M  V30 4978 H 461.794 5.94906 1.19045 0
M  V30 4979 H 460.533 4.69176 1.33137 0
M  V30 4980 H 459.538 5.43166 -0.851507 0
M  V30 4981 H 460.763 6.72022 -0.9779 0
M  V30 4982 H 458.709 6.44008 1.24856 0
M  V30 4983 H 458.626 7.55966 -0.071832 0
M  V30 4984 H 459.894 7.71599 1.10702 0
M  V30 4985 N 464.123 0.554532 1.47522 0
M  V30 4986 C 465.534 0.120446 1.86311 0
M  V30 4987 C 465.885 -1.30904 1.46145 0
M  V30 4988 O 465.01 -1.98434 0.863294 0
M  V30 4989 C 465.605 0.211808 3.38137 0
M  V30 4990 C 464.164 -0.167224 3.76028 0
M  V30 4991 C 463.311 0.560576 2.71575 0
M  V30 4992 H 466.262 0.764408 1.39077 0
M  V30 4993 H 466.283 -0.570275 3.76202 0
M  V30 4994 H 465.795 1.25232 3.6734 0
M  V30 4995 H 463.896 -1.20894 3.52442 0
M  V30 4996 H 464.009 0.189473 4.78725 0
M  V30 4997 H 462.373 0.00396836 2.547 0
M  V30 4998 H 463.156 1.60219 3.0362 0
M  V30 4999 N 465.601 -1.54893 0.290851 0
M  V30 5000 C 466.564 -2.21824 -0.576784 0
M  V30 5001 C 467.564 -1.20104 -1.06919 0
M  V30 5002 O 468.754 -1.44906 -0.966843 0
M  V30 5003 C 465.886 -2.89662 -1.79747 0
M  V30 5004 H 467.079 -2.99899 0.00784051 0
M  V30 5005 H 464.632 -1.56245 0.0415934 0
M  V30 5006 H 465.367 -2.15639 -2.42219 0
M  V30 5007 H 465.152 -3.64219 -1.45214 0
M  V30 5008 H 466.642 -3.4075 -2.4141 0
M  V30 5009 N 467.08 -0.0183926 -1.57589 0
M  V30 5010 C 468.308 0.673046 -1.95647 0
M  V30 5011 C 468.723 1.66275 -0.894312 0
M  V30 5012 O 468.08 1.82072 0.124975 0
M  V30 5013 C 468.131 1.38884 -3.33756 0
M  V30 5014 O 467.852 0.438806 -4.35897 0
M  V30 5015 C 469.353 2.1731 -3.86383 0
M  V30 5016 H 466.573 0.186292 -0.644621 0
M  V30 5017 H 469.117 -0.0749748 -2.04363 0
M  V30 5018 H 467.272 2.08835 -3.26293 0
M  V30 5019 H 467.686 0.945869 -5.15901 0
M  V30 5020 H 469.16 2.62863 -4.85394 0
M  V30 5021 H 469.637 3.00764 -3.20059 0
M  V30 5022 H 470.243 1.52339 -3.97081 0
M  V30 5023 N 468.558 1.5553 0.254621 0
M  V30 5024 C 469.835 1.6774 1.00611 0
M  V30 5025 C 470.215 0.555993 2.03647 0
M  V30 5026 O 469.563 -0.441583 2.24193 0
M  V30 5027 C 469.773 3.07725 1.6464 0
M  V30 5028 C 471.121 3.66074 2.15116 0
M  V30 5029 O 472.145 3.10476 1.74595 0
M  V30 5030 O 471.004 4.63526 2.89493 0
M  V30 5031 H 468.098 0.681958 0.467828 0
M  V30 5032 H 470.644 1.67863 0.24902 0
M  V30 5033 H 469.416 3.80792 0.900734 0
M  V30 5034 H 469.039 3.1158 2.46989 0
M  V30 5035 N 470.036 -0.519951 1.48776 0
M  V30 5036 C 471.447 -1.10177 1.50725 0
M  V30 5037 C 471.798 -1.94153 0.282678 0
M  V30 5038 O 470.923 -2.07645 -0.609298 0
M  V30 5039 C 471.518 -2.00482 2.73116 0
M  V30 5040 C 470.077 -2.53862 2.77905 0
M  V30 5041 C 469.224 -1.31047 2.44381 0
M  V30 5042 H 472.175 -0.30473 1.55747 0
M  V30 5043 H 472.196 -2.8491 2.52203 0
M  V30 5044 H 471.708 -1.39335 3.62225 0
M  V30 5045 H 469.809 -3.18702 1.93029 0
M  V30 5046 H 469.922 -2.9231 3.79594 0
M  V30 5047 H 468.286 -1.62953 1.95751 0
M  V30 5048 H 469.069 -0.71637 3.35743 0
M  V30 5049 N 471.514 -1.37532 -0.769588 0
M  V30 5050 C 472.76 -1.33057 -1.53048 0
M  V30 5051 C 473.093 0.0841865 -1.94017 0
M  V30 5052 O 472.368 1.04198 -1.64235 0
M  V30 5053 C 472.651 -2.27166 -2.79406 0
M  V30 5054 C 472.504 -3.77429 -2.44677 0
M  V30 5055 C 473.823 -2.19683 -3.81349 0
M  V30 5056 H 470.942 -0.484655 -0.555228 0
M  V30 5057 H 473.584 -1.68251 -0.882702 0
M  V30 5058 H 471.734 -1.97283 -3.34682 0
M  V30 5059 H 473.406 -4.17918 -1.953 0
M  V30 5060 H 471.649 -3.95892 -1.77346 0
M  V30 5061 H 472.32 -4.38716 -3.35011 0
M  V30 5062 H 474.796 -2.46029 -3.35573 0
M  V30 5063 H 473.672 -2.87668 -4.67481 0
M  V30 5064 H 473.933 -1.19045 -4.25771 0
M  V30 5065 N 472.992 0.995999 -1.22138 0
M  V30 5066 C 473.922 2.10387 -1.01289 0
M  V30 5067 C 474.903 1.69975 0.0651454 0
M  V30 5068 O 476.088 1.9396 -0.0964628 0
M  V30 5069 C 473.218 3.42312 -0.586517 0
M  V30 5070 C 472.172 3.96558 -1.61014 0
M  V30 5071 C 471.498 5.24494 -1.0397 0
M  V30 5072 C 472.798 4.27595 -2.99933 0
M  V30 5073 H 474.492 2.28086 -1.93951 0
M  V30 5074 H 472.038 1.09607 -0.933928 0
M  V30 5075 H 473.991 4.19223 -0.427793 0
M  V30 5076 H 472.715 3.24431 0.375761 0
M  V30 5077 H 471.374 3.21776 -1.75658 0
M  V30 5078 H 471.022 5.02953 -0.0688703 0
M  V30 5079 H 470.722 5.61755 -1.72352 0
M  V30 5080 H 472.246 6.04042 -0.892494 0
M  V30 5081 H 473.66 4.95315 -2.8868 0
M  V30 5082 H 472.057 4.76021 -3.6541 0
M  V30 5083 H 473.127 3.35498 -3.50099 0
M  V30 5084 N 474.47 1.03057 1.19235 0
M  V30 5085 C 475.402 0.570932 2.21975 0
M  V30 5086 C 476.415 -0.354088 1.58903 0
M  V30 5087 O 477.604 -0.150211 1.77867 0
M  V30 5088 C 474.704 -0.187152 3.38383 0
M  V30 5089 C 473.877 0.743231 4.31039 0
M  V30 5090 C 472.936 0.0302493 5.26191 0
M  V30 5091 O 471.962 0.657371 5.65391 0
M  V30 5092 N 473.164 -1.23991 5.67104 0
M  V30 5093 H 475.929 1.45456 2.62036 0
M  V30 5094 H 473.49 0.909807 1.33918 0
M  V30 5095 H 475.482 -0.673715 3.99053 0
M  V30 5096 H 474.052 -0.972205 2.97098 0
M  V30 5097 H 473.272 1.40985 3.68126 0
M  V30 5098 H 474.56 1.3755 4.89854 0
M  V30 5099 H 473.958 -1.77011 5.37293 0
M  V30 5100 H 472.515 -1.67093 6.30018 0
M  V30 5101 N 475.948 -1.35272 0.808662 0
M  V30 5102 C 477.194 -1.99003 0.390581 0
M  V30 5103 C 477.527 -1.63999 -1.0401 0
M  V30 5104 O 476.802 -0.904368 -1.72196 0
M  V30 5105 C 477.085 -3.55454 0.576566 0
M  V30 5106 C 476.938 -4.00249 2.05233 0
M  V30 5107 C 478.257 -4.401 0.00354277 0
M  V30 5108 H 475.376 -0.722917 0.143388 0
M  V30 5109 H 478.018 -1.6039 1.01858 0
M  V30 5110 H 476.168 -3.88477 0.0419766 0
M  V30 5111 H 477.84 -3.77626 2.64946 0
M  V30 5112 H 476.083 -3.51082 2.54801 0
M  V30 5113 H 476.754 -5.0911 2.13333 0
M  V30 5114 H 479.23 -4.13548 0.460117 0
M  V30 5115 H 478.106 -5.48656 0.163575 0
M  V30 5116 H 478.367 -4.28444 -1.09032 0
M  V30 5117 N 477.426 -0.562348 -1.47226 0
M  V30 5118 C 478.672 -0.0402761 -2.0276 0
M  V30 5119 C 479.005 1.30823 -1.43523 0
M  V30 5120 O 478.28 1.85249 -0.592705 0
M  V30 5121 C 478.563 0.047311 -3.60069 0
M  V30 5122 C 478.416 -1.32865 -4.29729 0
M  V30 5123 C 479.735 0.758182 -4.3352 0
M  V30 5124 H 476.854 -0.0161105 -0.736824 0
M  V30 5125 H 479.496 -0.725628 -1.75598 0
M  V30 5126 H 477.646 0.630986 -3.83342 0
M  V30 5127 H 479.318 -1.95593 -4.17781 0
M  V30 5128 H 477.561 -1.90195 -3.89882 0
M  V30 5129 H 478.232 -1.22004 -5.38349 0
M  V30 5130 H 480.708 0.262546 -4.15271 0
M  V30 5131 H 479.584 0.78844 -5.43208 0
M  V30 5132 H 479.845 1.81537 -4.03109 0
M  V30 5133 N 478.904 1.54736 -0.299062 0
M  V30 5134 C 480.134 2.04215 0.312992 0
M  V30 5135 C 480.542 1.17596 1.48215 0
M  V30 5136 O 479.885 0.193835 1.82674 0
M  V30 5137 C 479.947 3.49696 0.833862 0
M  V30 5138 C 479.611 4.56518 -0.20977 0
M  V30 5139 C 480.608 5.09442 -1.03756 0
M  V30 5140 C 478.293 5.01073 -0.35091 0
M  V30 5141 C 480.287 6.05459 -1.99244 0
M  V30 5142 C 477.974 5.9691 -1.30924 0
M  V30 5143 C 478.972 6.48987 -2.1285 0
M  V30 5144 O 478.66 7.42947 -3.07059 0
M  V30 5145 H 478.392 0.672128 0.0722494 0
M  V30 5146 H 480.946 2.00718 -0.436043 0
M  V30 5147 H 479.176 3.5051 1.63339 0
M  V30 5148 H 480.865 3.82381 1.36159 0
M  V30 5149 H 481.631 4.75816 -0.939376 0
M  V30 5150 H 477.51 4.60168 0.276813 0
M  V30 5151 H 481.054 6.46031 -2.63229 0
M  V30 5152 H 476.951 6.29953 -1.40815 0
M  V30 5153 H 477.719 7.60743 -3.02015 0
M  V30 5154 N 480.382 0.0267497 1.57577 0
M  V30 5155 C 481.329 -0.955894 2.10075 0
M  V30 5156 C 482.299 -1.32453 1.00226 0
M  V30 5157 O 483.484 -1.41826 1.27632 0
M  V30 5158 C 480.624 -2.2338 2.6305 0
M  V30 5159 C 479.737 -1.92183 3.86898 0
M  V30 5160 C 478.872 -3.14251 4.28275 0
M  V30 5161 C 477.911 -2.78862 5.44888 0
M  V30 5162 N 477.048 -3.93548 5.81433 0
M  V30 5163 H 481.888 -0.501303 2.93753 0
M  V30 5164 H 479.425 -0.235847 1.45197 0
M  V30 5165 H 481.383 -2.98124 2.91853 0
M  V30 5166 H 480.013 -2.6646 1.82205 0
M  V30 5167 H 479.065 -1.07692 3.64838 0
M  V30 5168 H 480.377 -1.62117 4.7172 0
M  V30 5169 H 479.531 -3.97317 4.58502 0
M  V30 5170 H 478.27 -3.47476 3.42215 0
M  V30 5171 H 477.275 -1.94208 5.14357 0
M  V30 5172 H 478.5 -2.46855 6.32645 0
M  V30 5173 H 476.446 -4.2662 4.98328 0
M  V30 5174 H 476.363 -3.67098 6.6089 0
M  V30 5175 H 477.631 -4.77325 6.16264 0
M  V30 5176 N 481.861 -1.55662 -0.24637 0
M  V30 5177 C 483.086 -1.81914 -0.996093 0
M  V30 5178 C 483.511 -0.603875 -1.78143 0
M  V30 5179 O 482.869 0.447091 -1.75701 0
M  V30 5180 C 482.917 -3.05908 -1.90925 0
M  V30 5181 O 482.021 -2.82861 -3.00105 0
M  V30 5182 H 481.362 -0.600481 -0.283406 0
M  V30 5183 H 483.892 -2.02848 -0.267199 0
M  V30 5184 H 483.902 -3.35356 -2.3238 0
M  V30 5185 H 482.577 -3.93999 -1.33183 0
M  V30 5186 H 481.154 -2.64583 -2.62775 0
M  V30 5187 N 483.339 0.512053 -1.4905 0
M  V30 5188 C 484.271 1.63121 -1.6101 0
M  V30 5189 C 485.284 1.55145 -0.493352 0
M  V30 5190 O 486.473 1.61278 -0.764955 0
M  V30 5191 C 483.573 3.01863 -1.54052 0
M  V30 5192 C 482.746 3.35138 -2.81072 0
M  V30 5193 C 481.805 4.5324 -2.67319 0
M  V30 5194 O 480.831 4.55571 -3.41238 0
M  V30 5195 N 482.033 5.52495 -1.78127 0
M  V30 5196 H 484.798 1.53292 -2.5753 0
M  V30 5197 H 482.359 0.699706 -1.45999 0
M  V30 5198 H 484.351 3.78774 -1.42521 0
M  V30 5199 H 482.921 3.05675 -0.654345 0
M  V30 5200 H 482.141 2.4723 -3.07036 0
M  V30 5201 H 483.429 3.54162 -3.65304 0
M  V30 5202 H 482.827 5.53403 -1.17308 0
M  V30 5203 H 481.384 6.28553 -1.72525 0
M  V30 5204 N 484.817 1.37938 0.762283 0
M  V30 5205 C 486.065 1.33404 1.51815 0
M  V30 5206 C 486.386 -0.0780975 1.94844 0
M  V30 5207 O 485.656 -1.02405 1.67003 0
M  V30 5208 H 484.236 0.490839 0.563104 0
M  V30 5209 H 486.898 1.72527 0.906669 0
M  V30 5210 H 485.994 1.97926 2.41313 0
M  V30 5211 N 486.295 -0.989507 1.22664 0
M  V30 5212 C 487.242 -2.08024 0.999733 0
M  V30 5213 C 488.212 -1.65909 -0.0797047 0
M  V30 5214 O 489.397 -1.90669 0.0705715 0
M  V30 5215 C 486.537 -3.40067 0.587234 0
M  V30 5216 C 485.65 -3.95505 1.73781 0
M  V30 5217 C 484.785 -5.15722 1.27297 0
M  V30 5218 C 483.824 -5.63305 2.39488 0
M  V30 5219 N 482.961 -6.74758 1.94026 0
M  V30 5220 H 487.801 -2.26768 1.9334 0
M  V30 5221 H 485.338 -1.11171 0.963297 0
M  V30 5222 H 487.296 -4.15899 0.329227 0
M  V30 5223 H 485.926 -3.21314 -0.309426 0
M  V30 5224 H 484.978 -3.16513 2.11006 0
M  V30 5225 H 486.29 -4.26797 2.58158 0
M  V30 5226 H 485.444 -5.98854 0.972546 0
M  V30 5227 H 484.183 -4.86061 0.399445 0
M  V30 5228 H 483.188 -4.78759 2.70315 0
M  V30 5229 H 484.413 -5.94988 3.27362 0
M  V30 5230 H 482.359 -6.46874 1.09041 0
M  V30 5231 H 482.276 -7.05386 2.71968 0
M  V30 5232 H 483.544 -7.61387 1.67062 0
M  V30 5233 N 487.773 -1.03688 -1.18687 0
M  V30 5234 C 488.683 -0.634908 -2.25845 0
M  V30 5235 C 489.699 0.337065 -1.70704 0
M  V30 5236 O 490.875 0.192943 -2.00474 0
M  V30 5237 C 487.94 -0.000180054 -3.467 0
M  V30 5238 C 487.001 -1.02067 -4.1699 0
M  V30 5239 C 486.234 -0.41614 -5.32075 0
M  V30 5240 O 486.457 0.778712 -5.65059 0
M  V30 5241 O 485.391 -1.14296 -5.90948 0
M  V30 5242 H 489.217 -1.52757 -2.62486 0
M  V30 5243 H 486.802 -0.807533 -1.25695 0
M  V30 5244 H 488.684 0.353342 -4.19916 0
M  V30 5245 H 487.359 0.866367 -3.11891 0
M  V30 5246 H 486.266 -1.42592 -3.45859 0
M  V30 5247 H 487.599 -1.85786 -4.5579 0
M  V30 5248 N 489.251 1.34841 -0.815825 0
M  V30 5249 C 490.476 2.03261 -0.41226 0
M  V30 5250 C 490.901 1.61055 0.971751 0
M  V30 5251 O 490.259 0.7917 1.63101 0
M  V30 5252 C 490.307 3.56914 -0.514289 0
M  V30 5253 O 489.411 4.09728 0.468675 0
M  V30 5254 H 488.752 0.641664 -0.170771 0
M  V30 5255 H 491.282 1.72241 -1.10427 0
M  V30 5256 H 491.292 4.06156 -0.387457 0
M  V30 5257 H 489.967 3.86982 -1.52375 0
M  V30 5258 H 488.544 3.71681 0.301316 0
M  V30 5259 N 490.729 0.570148 1.46925 0
M  V30 5260 C 492.14 0.1402 1.86173 0
M  V30 5261 C 492.491 -1.29347 1.47526 0
M  V30 5262 O 491.616 -1.97508 0.884292 0
M  V30 5263 C 492.211 0.247661 3.37894 0
M  V30 5264 C 490.77 -0.127332 3.76185 0
M  V30 5265 C 489.917 0.589349 2.70965 0
M  V30 5266 H 492.868 0.779117 1.38259 0
M  V30 5267 H 492.889 -0.530341 3.76786 0
M  V30 5268 H 492.401 1.29121 3.65991 0
M  V30 5269 H 490.502 -1.17149 3.53704 0
M  V30 5270 H 490.615 0.240238 4.78497 0
M  V30 5271 H 488.979 0.0309824 2.54681 0
M  V30 5272 H 489.762 1.6343 3.01903 0
M  V30 5273 N 492.207 -1.54576 0.307264 0
M  V30 5274 C 493.455 -1.99867 -0.299574 0
M  V30 5275 C 493.776 -1.19714 -1.53927 0
M  V30 5276 O 493.046 -0.29472 -1.9367 0
M  V30 5277 H 491.626 -0.738299 -0.113683 0
M  V30 5278 H 494.288 -1.9032 0.420042 0
M  V30 5279 H 493.384 -3.06901 -0.567283 0
M  V30 5280 N 493.685 -0.035106 -1.57561 0
M  V30 5281 C 494.595 0.960295 -2.14046 0
M  V30 5282 C 495.611 1.3529 -1.0942 0
M  V30 5283 O 496.787 1.43309 -1.41508 0
M  V30 5284 C 493.852 2.22214 -2.66124 0
M  V30 5285 C 492.913 1.8894 -3.85487 0
M  V30 5286 C 492.146 3.09109 -4.35072 0
M  V30 5287 O 492.369 4.21963 -3.83802 0
M  V30 5288 O 491.303 2.91058 -5.26848 0
M  V30 5289 H 495.129 0.509983 -2.99387 0
M  V30 5290 H 492.714 0.185853 -1.48239 0
M  V30 5291 H 494.596 2.96279 -2.99661 0
M  V30 5292 H 493.271 2.66414 -1.83862 0
M  V30 5293 H 492.178 1.12241 -3.56865 0
M  V30 5294 H 493.511 1.49551 -4.6893 0
M  V30 5295 N 495.163 1.55791 0.238111 0
M  V30 5296 C 496.073 1.94196 1.31625 0
M  V30 5297 C 497.089 0.843545 1.52185 0
M  V30 5298 O 498.265 1.1457 1.65637 0
M  V30 5299 C 495.33 2.2365 2.64918 0
M  V30 5300 C 494.391 3.46971 2.52804 0
M  V30 5301 C 493.624 3.7501 3.79741 0
M  V30 5302 O 493.847 3.04982 4.82019 0
M  V30 5303 O 492.781 4.68525 3.77846 0
M  V30 5304 H 496.607 2.86044 1.02043 0
M  V30 5305 H 494.192 1.42786 0.439603 0
M  V30 5306 H 496.074 2.43863 3.4367 0
M  V30 5307 H 494.749 1.34979 2.94215 0
M  V30 5308 H 493.656 3.32055 1.72309 0
M  V30 5309 H 494.989 4.35971 2.28451 0
M  V30 5310 N 496.642 -0.504142 1.49319 0
M  V30 5311 C 497.889 -1.25846 1.58647 0
M  V30 5312 C 498.217 -1.92592 0.27177 0
M  V30 5313 O 497.472 -1.81167 -0.74007 0
M  V30 5314 C 497.771 -2.35021 2.69258 0
M  V30 5315 C 497.437 -1.85755 4.1086 0
M  V30 5316 C 496.099 -1.72038 4.49395 0
M  V30 5317 C 498.451 -1.48844 4.99495 0
M  V30 5318 C 495.779 -1.19783 5.74342 0
M  V30 5319 C 498.131 -0.980422 6.24956 0
M  V30 5320 C 496.795 -0.829622 6.62324 0
M  V30 5321 H 496.065 -0.460505 0.580531 0
M  V30 5322 H 498.712 -0.559716 1.83138 0
M  V30 5323 H 497.017 -3.10672 2.38726 0
M  V30 5324 H 498.714 -2.93083 2.73685 0
M  V30 5325 H 495.304 -1.9739 3.80441 0
M  V30 5326 H 499.488 -1.5829 4.70381 0
M  V30 5327 H 494.744 -1.06817 6.01997 0
M  V30 5328 H 498.918 -0.685608 6.93017 0
M  V30 5329 H 496.545 -0.42253 7.59025 0
M  V30 5330 N 498.12 -1.38341 -0.754957 0
M  V30 5331 C 499.345 -1.37882 -1.5493 0
M  V30 5332 C 499.77 0.0296385 -1.88077 0
M  V30 5333 O 499.128 1.01133 -1.50472 0
M  V30 5334 C 499.176 -2.23996 -2.82592 0
M  V30 5335 O 498.28 -1.65612 -3.77686 0
M  V30 5336 H 497.621 -0.470384 -0.468652 0
M  V30 5337 H 500.151 -1.82084 -0.933082 0
M  V30 5338 H 500.161 -2.37806 -3.3153 0
M  V30 5339 H 498.836 -3.26365 -2.57796 0
M  V30 5340 H 497.413 -1.60936 -3.36384 0
M  V30 5341 N 499.598 0.982988 -1.23187 0
M  V30 5342 C 500.561 2.05649 -1.01198 0
M  V30 5343 C 501.561 1.6078 0.0252464 0
M  V30 5344 O 502.751 1.72878 -0.214243 0
M  V30 5345 C 499.883 3.36744 -0.530656 0
M  V30 5346 H 501.076 2.2659 -1.96461 0
M  V30 5347 H 498.629 1.15602 -1.05195 0
M  V30 5348 H 499.364 3.21492 0.425873 0
M  V30 5349 H 499.149 3.7065 -1.2791 0
M  V30 5350 H 500.639 4.15705 -0.397366 0
M  V30 5351 N 501.076 1.04316 1.18135 0
M  V30 5352 C 501.986 0.646876 2.25505 0
M  V30 5353 C 503.002 -0.328008 1.7088 0
M  V30 5354 O 504.178 -0.182309 2.00573 0
M  V30 5355 C 501.243 0.0185664 3.46695 0
M  V30 5356 C 500.304 1.04277 4.16443 0
M  V30 5357 C 499.537 0.444352 5.31847 0
M  V30 5358 O 499.76 -0.748735 5.65465 0
M  V30 5359 O 498.694 1.17428 5.90334 0
M  V30 5360 H 502.52 1.54147 2.61672 0
M  V30 5361 H 500.105 0.814188 1.25265 0
M  V30 5362 H 501.987 -0.331068 4.20097 0
M  V30 5363 H 500.662 -0.849814 3.12346 0
M  V30 5364 H 499.569 1.44425 3.45098 0
M  V30 5365 H 500.902 1.882 4.54798 0
M  V30 5366 N 502.554 -1.34406 0.822964 0
M  V30 5367 C 503.464 -2.33298 0.246838 0
M  V30 5368 C 504.48 -1.62625 -0.618797 0
M  V30 5369 O 505.656 -1.94391 -0.526685 0
M  V30 5370 C 502.721 -3.41785 -0.581731 0
M  V30 5371 C 501.782 -4.28206 0.306309 0
M  V30 5372 C 501.015 -5.31512 -0.48281 0
M  V30 5373 O 501.238 -5.43973 -1.71607 0
M  V30 5374 O 500.172 -6.01749 0.134884 0
M  V30 5375 H 503.998 -2.84401 1.06534 0
M  V30 5376 H 501.583 -1.37466 0.585108 0
M  V30 5377 H 503.465 -4.08028 -1.05313 0
M  V30 5378 H 502.14 -2.92925 -1.37756 0
M  V30 5379 H 501.047 -3.64885 0.825199 0
M  V30 5380 H 502.38 -4.80507 1.06649 0
M  V30 5381 N 504.032 -0.577932 -1.46621 0
M  V30 5382 C 505.26 -0.0671642 -2.06791 0
M  V30 5383 C 505.675 1.23571 -1.42743 0
M  V30 5384 O 505.032 1.74602 -0.531062 0
M  V30 5385 C 505.083 0.110357 -3.61332 0
M  V30 5386 O 504.804 -1.14095 -4.22982 0
M  V30 5387 C 506.305 0.656025 -4.38419 0
M  V30 5388 H 503.525 -0.0552732 -0.66872 0
M  V30 5389 H 506.069 -0.797242 -1.8832 0
M  V30 5390 H 504.224 0.790637 -3.79246 0
M  V30 5391 H 504.638 -0.951742 -5.15793 0
M  V30 5392 H 506.112 0.729438 -5.47159 0
M  V30 5393 H 506.589 1.67195 -4.06131 0
M  V30 5394 H 507.195 0.0107692 -4.25299 0
M  V30 5395 N 505.51 1.54411 -0.315457 0
M  V30 5396 C 506.42 2.27737 0.56329 0
M  V30 5397 C 507.436 1.31787 1.13614 0
M  V30 5398 O 508.612 1.64791 1.15784 0
M  V30 5399 C 505.677 3.01478 1.71207 0
M  V30 5400 C 504.738 4.12997 1.17185 0
M  V30 5401 C 503.971 4.83212 2.26588 0
M  V30 5402 O 504.194 4.52884 3.46775 0
M  V30 5403 O 503.128 5.70299 1.92463 0
M  V30 5404 H 506.954 3.03683 -0.0319614 0
M  V30 5405 H 504.539 1.49178 -0.0814188 0
M  V30 5406 H 506.421 3.47683 2.38106 0
M  V30 5407 H 505.096 2.28414 2.29366 0
M  V30 5408 H 504.003 3.71159 0.468174 0
M  V30 5409 H 505.336 4.8808 0.635501 0
M  V30 5410 N 506.988 0.0434614 1.5754 0
M  V30 5411 C 507.898 -0.94893 2.14552 0
M  V30 5412 C 508.914 -1.34707 1.10136 0
M  V30 5413 O 510.09 -1.42557 1.42266 0
M  V30 5414 C 507.155 -2.208 2.67298 0
M  V30 5415 C 506.216 -1.86893 3.86484 0
M  V30 5416 C 505.449 -3.06797 4.36705 0
M  V30 5417 O 505.672 -4.19921 3.86034 0
M  V30 5418 O 504.606 -2.8826 5.28384 0
M  V30 5419 H 508.432 -0.494099 2.99654 0
M  V30 5420 H 506.017 -0.177989 1.48336 0
M  V30 5421 H 507.899 -2.94686 3.01228 0
M  V30 5422 H 506.574 -2.65436 1.85272 0
M  V30 5423 H 505.481 -1.10347 3.57455 0
M  V30 5424 H 506.814 -1.47062 4.69716 0
M  V30 5425 N 508.466 -1.55915 -0.229846 0
M  V30 5426 C 509.694 -1.82617 -0.972562 0
M  V30 5427 C 510.109 -0.621488 -1.78278 0
M  V30 5428 O 509.466 0.409956 -1.77836 0
M  V30 5429 C 509.517 -3.0774 -1.89679 0
M  V30 5430 O 509.238 -4.23559 -1.11934 0
M  V30 5431 C 510.739 -3.47368 -2.75409 0
M  V30 5432 H 507.959 -0.60727 -0.285419 0
M  V30 5433 H 510.503 -2.02996 -0.247579 0
M  V30 5434 H 508.658 -2.89361 -2.57583 0
M  V30 5435 H 509.072 -4.94586 -1.74599 0
M  V30 5436 H 510.546 -4.37977 -3.35977 0
M  V30 5437 H 511.023 -2.68737 -3.47386 0
M  V30 5438 H 511.629 -3.68158 -2.12931 0
M  V30 5439 N 509.944 0.496216 -1.49584 0
M  V30 5440 C 511.191 1.25003 -1.59312 0
M  V30 5441 C 511.519 1.92445 -0.28198 0
M  V30 5442 O 510.774 1.81557 0.730452 0
M  V30 5443 C 511.073 2.3359 -2.705 0
M  V30 5444 C 510.739 1.83574 -4.11839 0
M  V30 5445 C 509.401 1.69653 -4.50302 0
M  V30 5446 C 511.753 1.46193 -5.00277 0
M  V30 5447 C 509.081 1.16736 -5.74969 0
M  V30 5448 C 511.433 0.947265 -6.25468 0
M  V30 5449 C 510.097 0.794485 -6.62755 0
M  V30 5450 H 509.367 0.45742 -0.582965 0
M  V30 5451 H 512.014 0.549996 -1.83432 0
M  V30 5452 H 510.319 3.09401 -2.40371 0
M  V30 5453 H 512.016 2.91627 -2.75235 0
M  V30 5454 H 508.606 1.9537 -3.81482 0
M  V30 5455 H 512.79 1.55793 -4.71214 0
M  V30 5456 H 508.046 1.03623 -6.02555 0
M  V30 5457 H 512.22 0.648846 -6.93371 0
M  V30 5458 H 509.847 0.382271 -7.59238 0
M  V30 5459 N 511.423 1.38739 0.74761 0
M  V30 5460 C 512.669 1.35475 1.50912 0
M  V30 5461 C 513.002 -0.0533093 1.94127 0
M  V30 5462 O 512.277 -1.01572 1.65871 0
M  V30 5463 C 512.56 2.31582 2.75757 0
M  V30 5464 C 512.413 3.81274 2.38642 0
M  V30 5465 C 513.732 2.25722 3.77806 0
M  V30 5466 H 510.851 0.493427 0.547447 0
M  V30 5467 H 513.493 1.69634 0.855823 0
M  V30 5468 H 511.643 2.02582 3.31501 0
M  V30 5469 H 513.315 4.20972 1.88626 0
M  V30 5470 H 511.558 3.98664 1.71025 0
M  V30 5471 H 512.229 4.4399 3.27989 0
M  V30 5472 H 514.705 2.51336 3.31616 0
M  V30 5473 H 513.581 2.95069 4.62845 0
M  V30 5474 H 513.842 1.25803 4.23823 0
M  V30 5475 N 512.901 -0.976442 1.23707 0
M  V30 5476 C 513.848 -2.06952 1.02174 0
M  V30 5477 C 514.818 -1.65984 -0.0621034 0
M  V30 5478 O 516.003 -1.90584 0.0907906 0
M  V30 5479 C 513.143 -3.39425 0.62327 0
M  V30 5480 C 512.256 -3.9364 1.77966 0
M  V30 5481 C 511.391 -5.14343 1.3276 0
M  V30 5482 C 510.43 -5.60733 2.45449 0
M  V30 5483 N 509.567 -6.72662 2.01172 0
M  V30 5484 H 514.407 -2.24704 1.95734 0
M  V30 5485 H 511.944 -1.10143 0.975034 0
M  V30 5486 H 513.902 -4.15526 0.37332 0
M  V30 5487 H 512.532 -3.21624 -0.275329 0
M  V30 5488 H 511.584 -3.14258 2.14351 0
M  V30 5489 H 512.896 -4.24035 2.62671 0
M  V30 5490 H 512.05 -5.97789 1.03601 0
M  V30 5491 H 510.789 -4.8561 0.450975 0
M  V30 5492 H 509.794 -4.75865 2.75378 0
M  V30 5493 H 511.019 -5.91483 3.33654 0
M  V30 5494 H 508.965 -6.45681 1.15895 0
M  V30 5495 H 508.882 -7.02462 2.79434 0
M  V30 5496 H 510.15 -7.59572 1.75129 0
M  V30 5497 N 514.379 -1.04941 -1.1758 0
M  V30 5498 C 515.342 -0.652456 -2.19717 0
M  V30 5499 C 516.342 0.294745 -1.58076 0
M  V30 5500 O 517.532 0.0789579 -1.74021 0
M  V30 5501 C 514.664 0.0420712 -3.40874 0
M  V30 5502 H 515.857 -1.55642 -2.5635 0
M  V30 5503 H 513.41 -0.842995 -1.31618 0
M  V30 5504 H 514.145 0.95943 -3.09783 0
M  V30 5505 H 513.93 -0.638844 -3.86861 0
M  V30 5506 H 515.42 0.306 -4.16477 0
M  V30 5507 N 515.857 1.33968 -0.830081 0
M  V30 5508 C 516.767 2.33164 -0.259207 0
M  V30 5509 C 517.783 1.62951 0.610164 0
M  V30 5510 O 518.959 1.94668 0.516369 0
M  V30 5511 C 516.024 3.42088 0.563598 0
M  V30 5512 C 515.085 4.28037 -0.329014 0
M  V30 5513 C 514.318 5.3176 0.454616 0
M  V30 5514 O 514.541 5.44876 1.6872 0
M  V30 5515 O 513.475 6.01669 -0.166794 0
M  V30 5516 H 517.301 2.83832 -1.08041 0
M  V30 5517 H 514.886 1.37154 -0.59239 0
M  V30 5518 H 516.768 4.08581 1.03147 0
M  V30 5519 H 515.443 2.93651 1.36201 0
M  V30 5520 H 514.35 3.64443 -0.844538 0
M  V30 5521 H 515.683 4.79934 -1.09196 0
M  V30 5522 N 517.335 0.585699 1.46312 0
M  V30 5523 C 518.563 0.0781299 2.06752 0
M  V30 5524 C 518.978 -1.22812 1.43396 0
M  V30 5525 O 518.335 -1.74318 0.540314 0
M  V30 5526 C 518.386 -0.0911927 3.61385 0
M  V30 5527 O 518.107 1.16336 4.22371 0
M  V30 5528 C 519.608 -0.632765 4.38761 0
M  V30 5529 H 516.828 0.0588188 0.668417 0
M  V30 5530 H 519.372 0.807218 1.87894 0
M  V30 5531 H 517.527 -0.770514 3.7966 0
M  V30 5532 H 517.941 0.979082 5.15281 0
M  V30 5533 H 519.415 -0.70041 5.47538 0
M  V30 5534 H 519.892 -1.65039 4.07012 0
M  V30 5535 H 520.498 0.0117856 4.25298 0
M  V30 5536 N 518.813 -1.54241 0.323641 0
M  V30 5537 C 519.723 -2.28033 -0.551205 0
M  V30 5538 C 520.739 -1.32388 -1.12913 0
M  V30 5539 O 521.915 -1.65403 -1.14908 0
M  V30 5540 C 518.98 -3.02382 -1.69606 0
M  V30 5541 C 518.041 -4.13612 -1.14993 0
M  V30 5542 C 517.274 -4.84407 -2.24022 0
M  V30 5543 O 517.497 -4.54716 -3.44368 0
M  V30 5544 O 516.431 -5.71312 -1.89436 0
M  V30 5545 H 520.257 -3.03662 0.048066 0
M  V30 5546 H 517.842 -1.49133 0.0893289 0
M  V30 5547 H 519.724 -3.48941 -2.36259 0
M  V30 5548 H 518.399 -2.29628 -2.28151 0
M  V30 5549 H 517.306 -3.71402 -0.448484 0
M  V30 5550 H 518.639 -4.8841 -0.609608 0
M  V30 5551 N 520.291 -0.0518155 -1.57515 0
M  V30 5552 C 521.238 0.922352 -2.11569 0
M  V30 5553 C 522.208 1.30842 -1.02321 0
M  V30 5554 O 523.393 1.39778 -1.29872 0
M  V30 5555 C 520.533 2.19167 -2.6657 0
M  V30 5556 C 519.646 1.86003 -3.89906 0
M  V30 5557 C 518.781 3.07398 -4.33221 0
M  V30 5558 C 517.82 2.70158 -5.49255 0
M  V30 5559 N 516.957 3.84248 -5.8762 0
M  V30 5560 H 521.797 0.454506 -2.94514 0
M  V30 5561 H 519.334 0.212718 -1.45554 0
M  V30 5562 H 521.292 2.93443 -2.96559 0
M  V30 5563 H 519.922 2.63528 -1.86421 0
M  V30 5564 H 518.974 1.01874 -3.66505 0
M  V30 5565 H 520.286 1.54592 -4.74239 0
M  V30 5566 H 519.44 3.89972 -4.64765 0
M  V30 5567 H 518.179 3.41988 -3.477 0
M  V30 5568 H 517.184 1.86001 -5.17382 0
M  V30 5569 H 518.409 2.36759 -6.36492 0
M  V30 5570 H 516.355 4.18638 -5.05053 0
M  V30 5571 H 516.272 3.56538 -6.66646 0
M  V30 5572 H 517.54 4.6746 -6.2378 0
M  V30 5573 N 521.769 1.56035 0.221574 0
M  V30 5574 C 522.994 1.83476 0.967026 0
M  V30 5575 C 523.419 0.632139 1.7716 0
M  V30 5576 O 522.777 -0.419082 1.7639 0
M  V30 5577 C 522.825 3.08907 1.86034 0
M  V30 5578 O 521.929 2.876 2.95567 0
M  V30 5579 H 521.27 0.604913 0.273817 0
M  V30 5580 H 523.8 2.03247 0.234893 0
M  V30 5581 H 523.81 3.3901 2.27016 0
M  V30 5582 H 522.485 3.96068 1.26898 0
M  V30 5583 H 521.062 2.6873 2.58532 0
M  V30 5584 N 523.247 -0.488276 1.49845 0
M  V30 5585 C 524.524 -1.24959 1.50481 0
M  V30 5586 C 524.904 -2.09735 0.239698 0
M  V30 5587 O 524.252 -2.14865 -0.777524 0
M  V30 5588 C 524.462 -2.0954 2.79095 0
M  V30 5589 C 525.81 -2.68305 3.29086 0
M  V30 5590 O 526.834 -2.19797 2.80299 0
M  V30 5591 O 525.693 -3.56643 4.14087 0
M  V30 5592 H 522.787 -0.566133 0.602845 0
M  V30 5593 H 525.333 -0.501504 1.6212 0
M  V30 5594 H 524.105 -1.46958 3.62656 0
M  V30 5595 H 523.728 -2.91517 2.70377 0
M  V30 5596 N 524.725 -1.39134 -0.740242 0
M  V30 5597 C 525.955 -1.39132 -1.52728 0
M  V30 5598 C 526.363 0.0173133 -1.89192 0
M  V30 5599 O 525.706 0.997715 -1.54244 0
M  V30 5600 C 525.768 -2.1952 -2.84695 0
M  V30 5601 C 525.432 -3.68203 -2.70695 0
M  V30 5602 C 526.429 -4.61401 -2.39593 0
M  V30 5603 C 524.114 -4.11724 -2.8773 0
M  V30 5604 C 526.108 -5.96102 -2.25701 0
M  V30 5605 C 523.795 -5.46503 -2.73456 0
M  V30 5606 C 524.793 -6.38506 -2.42486 0
M  V30 5607 O 524.481 -7.70803 -2.28295 0
M  V30 5608 H 524.213 -0.477263 -0.478744 0
M  V30 5609 H 526.767 -1.83504 -0.922799 0
M  V30 5610 H 524.997 -1.69888 -3.47383 0
M  V30 5611 H 526.686 -2.1176 -3.46284 0
M  V30 5612 H 527.452 -4.29079 -2.26088 0
M  V30 5613 H 523.331 -3.4045 -3.10829 0
M  V30 5614 H 526.875 -6.6788 -2.0145 0
M  V30 5615 H 522.772 -5.78417 -2.86538 0
M  V30 5616 H 523.54 -7.8147 -2.43405 0
M  V30 5617 N 526.204 0.969867 -1.24223 0
M  V30 5618 C 527.481 1.68774 -0.988664 0
M  V30 5619 C 527.861 2.05342 0.489673 0
M  V30 5620 O 527.209 1.75486 1.46345 0
M  V30 5621 C 527.419 2.92135 -1.90941 0
M  V30 5622 C 528.767 3.64422 -2.17903 0
M  V30 5623 O 529.791 3.02188 -1.88576 0
M  V30 5624 O 528.65 4.76446 -2.67697 0
M  V30 5625 H 525.744 0.737736 -0.37373 0
M  V30 5626 H 528.29 1.02415 -1.35312 0
M  V30 5627 H 527.062 2.61788 -2.90831 0
M  V30 5628 H 526.685 3.66228 -1.54798 0
M  V30 5629 N 527.682 1.05563 1.17022 0
M  V30 5630 C 528.91 0.78845 1.91288 0
M  V30 5631 C 529.325 -0.656318 1.77025 0
M  V30 5632 O 528.682 -1.44869 1.10992 0
M  V30 5633 C 528.733 1.16444 3.42232 0
M  V30 5634 O 528.454 2.5525 3.5606 0
M  V30 5635 C 529.955 0.923937 4.33565 0
M  V30 5636 H 527.175 0.286389 0.606813 0
M  V30 5637 H 529.719 1.4073 1.48375 0
M  V30 5638 H 527.874 0.590266 3.82877 0
M  V30 5639 H 528.288 2.70097 4.49609 0
M  V30 5640 H 529.762 1.23672 5.37968 0
M  V30 5641 H 530.239 -0.140688 4.38975 0
M  V30 5642 H 530.845 1.48214 3.98639 0
M  V30 5643 N 529.16 -1.33526 0.837174 0
M  V30 5644 C 530.571 -1.80182 0.489017 0
M  V30 5645 C 530.922 -1.69285 -0.991826 0
M  V30 5646 O 530.047 -1.24113 -1.77271 0
M  V30 5647 C 530.642 -3.27149 0.880866 0
M  V30 5648 C 529.201 -3.71828 0.584872 0
M  V30 5649 C 528.348 -2.54974 1.09011 0
M  V30 5650 H 531.299 -1.21071 1.02603 0
M  V30 5651 H 531.32 -3.80024 0.190239 0
M  V30 5652 H 530.832 -3.35048 1.95869 0
M  V30 5653 H 528.933 -3.69457 -0.48295 0
M  V30 5654 H 529.046 -4.65366 1.13892 0
M  V30 5655 H 527.41 -2.4952 0.511047 0
M  V30 5656 H 528.193 -2.65637 2.17467 0
M  V30 5657 N 530.638 -0.59345 -1.46 0
M  V30 5658 C 531.586 0.146268 -2.3214 0
M  V30 5659 C 532.58 0.873743 -1.45128 0
M  V30 5660 O 533.786 0.790912 -1.61693 0
M  V30 5661 H 530.161 0.0660349 -0.749095 0
M  V30 5662 H 532.132 -0.598895 -2.92328 0
M  V30 5663 C 530.881 1.1396 -3.28494 0
M  V30 5664 H 530.204 0.589252 -3.95434 0
M  V30 5665 H 531.644 1.62738 -3.91526 0
M  V30 5666 C 530.103 2.20604 -2.54628 0
M  V30 5667 O 530.633 3.28128 -2.31722 0
M  V30 5668 N 528.839 1.95502 -2.15005 0
M  V30 5669 H 528.386 1.0807 -2.33834 0
M  V30 5670 H 528.344 2.67064 -1.65904 0
M  V30 5671 N 532.116 1.54067 -0.331816 0
M  V30 5672 C 533.346 2.04833 0.269605 0
M  V30 5673 C 533.754 1.20714 1.45687 0
M  V30 5674 O 533.097 0.232539 1.82222 0
M  V30 5675 C 533.159 3.51386 0.759499 0
M  V30 5676 C 532.823 4.55971 -0.306557 0
M  V30 5677 C 533.82 5.07126 -1.14538 0
M  V30 5678 C 531.505 5.00216 -0.457116 0
M  V30 5679 C 533.499 6.01096 -2.12042 0
M  V30 5680 C 531.186 5.93999 -1.43556 0
M  V30 5681 C 532.184 6.44326 -2.26568 0
M  V30 5682 O 531.872 7.36267 -3.22749 0
M  V30 5683 H 531.604 0.673509 0.0579763 0
M  V30 5684 H 534.158 1.99748 -0.478521 0
M  V30 5685 H 532.388 3.53896 1.55867 0
M  V30 5686 H 534.077 3.85184 1.28017 0
M  V30 5687 H 534.843 4.73716 -1.04009 0
M  V30 5688 H 530.722 4.60652 0.179142 0
M  V30 5689 H 534.266 6.40302 -2.76873 0
M  V30 5690 H 530.163 6.26825 -1.54146 0
M  V30 5691 H 530.931 7.54165 -3.18083 0
M  V30 5692 N 533.594 0.0601682 1.57485 0
M  V30 5693 C 534.524 -0.90889 2.15085 0
M  V30 5694 C 535.505 -1.31838 1.07484 0
M  V30 5695 O 536.69 -1.3915 1.35466 0
M  V30 5696 C 533.82 -2.18059 2.7031 0
M  V30 5697 C 532.774 -1.91088 3.82974 0
M  V30 5698 C 532.1 -3.24789 4.24754 0
M  V30 5699 C 533.4 -1.22535 5.07723 0
M  V30 5700 H 535.094 -0.429093 2.96309 0
M  V30 5701 H 532.64 -0.204952 1.42534 0
M  V30 5702 H 534.593 -2.86258 3.09248 0
M  V30 5703 H 533.317 -2.6826 1.8629 0
M  V30 5704 H 531.976 -1.25297 3.44523 0
M  V30 5705 H 531.624 -3.72809 3.37672 0
M  V30 5706 H 531.324 -3.07538 5.00694 0
M  V30 5707 H 532.848 -3.94205 4.66299 0
M  V30 5708 H 534.262 -1.80783 5.4405 0
M  V30 5709 H 532.659 -1.1558 5.88864 0
M  V30 5710 H 533.729 -0.202692 4.84476 0
M  V30 5711 N 535.072 -1.5615 -0.213296 0
M  V30 5712 C 536.002 -1.96109 -1.26742 0
M  V30 5713 C 536.983 -0.830448 -1.48451 0
M  V30 5714 O 538.168 -1.09339 -1.60495 0
M  V30 5715 C 535.298 -2.28492 -2.61551 0
M  V30 5716 C 534.252 -3.44124 -2.54485 0
M  V30 5717 C 533.578 -3.62134 -3.93399 0
M  V30 5718 C 534.878 -4.78855 -2.08556 0
M  V30 5719 H 536.572 -2.84412 -0.935434 0
M  V30 5720 H 534.118 -1.36836 -0.44854 0
M  V30 5721 H 536.071 -2.55039 -3.3546 0
M  V30 5722 H 534.795 -1.37052 -2.96453 0
M  V30 5723 H 533.454 -3.17639 -1.83033 0
M  V30 5724 H 533.102 -2.68055 -4.25623 0
M  V30 5725 H 532.802 -4.39913 -3.89551 0
M  V30 5726 H 534.326 -3.91038 -4.68958 0
M  V30 5727 H 535.74 -5.04552 -2.72213 0
M  V30 5728 H 534.137 -5.59975 -2.1575 0
M  V30 5729 H 535.207 -4.73657 -1.03811 0
M  V30 5730 N 536.55 0.480323 -1.50102 0
M  V30 5731 C 537.775 1.26126 -1.64642 0
M  V30 5732 C 538.2 1.85257 -0.325823 0
M  V30 5733 O 537.558 1.66854 0.709194 0
M  V30 5734 C 537.606 2.35243 -2.73301 0
M  V30 5735 O 536.71 3.39646 -2.33911 0
M  V30 5736 H 536.051 0.371463 -0.550374 0
M  V30 5737 H 538.581 0.572696 -1.96421 0
M  V30 5738 H 538.591 2.80695 -2.96098 0
M  V30 5739 H 537.266 1.91574 -3.6915 0
M  V30 5740 H 535.843 2.99969 -2.21525 0
M  V30 5741 N 538.028 1.39524 0.732853 0
M  V30 5742 C 539.439 1.32905 1.31122 0
M  V30 5743 C 539.79 -0.00558708 1.96199 0
M  V30 5744 O 538.915 -0.907706 1.96443 0
M  V30 5745 C 539.51 2.40704 2.38426 0
M  V30 5746 C 538.069 2.37599 2.91931 0
M  V30 5747 C 537.216 2.2248 1.65523 0
M  V30 5748 H 540.167 1.49581 0.530207 0
M  V30 5749 H 540.188 2.07616 3.18867 0
M  V30 5750 H 539.7 3.37829 1.91033 0
M  V30 5751 H 537.801 1.44119 3.43599 0
M  V30 5752 H 537.914 3.32538 3.44899 0
M  V30 5753 H 536.278 1.69691 1.8994 0
M  V30 5754 H 537.061 3.21577 1.20178 0
M  V30 5755 N 539.506 -0.963266 1.24736 0
M  V30 5756 C 540.469 -2.04013 1.04457 0
M  V30 5757 C 541.469 -1.608 0.000335555 0
M  V30 5758 O 542.659 -1.72515 0.241719 0
M  V30 5759 C 539.791 -3.35858 0.584162 0
M  V30 5760 H 540.984 -2.23436 2.00041 0
M  V30 5761 H 538.537 -1.13914 1.07021 0
M  V30 5762 H 539.272 -3.22128 -0.374673 0
M  V30 5763 H 539.057 -3.68568 1.3379 0
M  V30 5764 H 540.547 -4.1502 0.463451 0
M  V30 5765 N 540.985 -1.06182 -1.16461 0
M  V30 5766 C 541.948 -0.675723 -2.19013 0
M  V30 5767 C 542.948 0.277963 -1.58379 0
M  V30 5768 O 544.138 0.0604962 -1.74095 0
M  V30 5769 C 541.27 0.00591459 -3.40899 0
M  V30 5770 H 542.463 -1.58353 -2.54685 0
M  V30 5771 H 540.016 -0.856908 -1.30716 0
M  V30 5772 H 540.751 0.92652 -3.10783 0
M  V30 5773 H 540.536 -0.67984 -3.86161 0
M  V30 5774 H 542.026 0.26181 -4.16778 0
M  V30 5775 N 542.463 1.3308 -0.844243 0
M  V30 5776 C 543.426 2.27403 -0.286485 0
M  V30 5777 C 544.426 1.51179 0.547872 0
M  V30 5778 O 545.616 1.70421 0.360886 0
M  V30 5779 C 542.748 3.35653 0.595813 0
M  V30 5780 H 543.941 2.78248 -1.11885 0
M  V30 5781 H 541.494 1.43574 -0.617749 0
M  V30 5782 H 542.229 2.90058 1.4504 0
M  V30 5783 H 542.014 3.921 -0.00125994 0
M  V30 5784 H 543.504 4.05958 0.979168 0
M  V30 5785 N 543.941 0.601185 1.45683 0
M  V30 5786 C 544.891 -0.142686 2.27553 0
M  V30 5787 C 545.875 -0.844598 1.3695 0
M  V30 5788 O 547.067 -0.735644 1.60988 0
M  V30 5789 C 544.196 -1.14364 3.23691 0
M  V30 5790 C 543.282 -0.442894 4.21781 0
M  V30 5791 N 543.673 0.51189 5.03203 0
M  V30 5792 C 541.971 -0.691277 4.4061 0
M  V30 5793 C 542.672 0.92318 5.74328 0
M  V30 5794 N 541.648 0.268308 5.42937 0
M  V30 5795 H 545.45 0.590736 2.87902 0
M  V30 5796 H 542.964 0.424365 1.56757 0
M  V30 5797 H 544.961 -1.6909 3.8107 0
M  V30 5798 H 543.621 -1.87768 2.64902 0
M  V30 5799 H 544.632 0.888329 5.10225 0
M  V30 5800 H 541.309 -1.41049 3.92952 0
M  V30 5801 H 542.699 1.71029 6.49768 0
M  V30 5802 N 545.419 -1.53889 0.339982 0
M  V30 5803 C 546.835 -1.59595 -0.0120752 0
M  V30 5804 C 547.035 -1.35605 -1.49042 0
M  V30 5805 O 546.091 -1.14856 -2.24865 0
M  V30 5806 C 547.404 -2.9774 0.420898 0
M  V30 5807 C 548.952 -3.1077 0.37294 0
M  V30 5808 C 549.427 -4.51286 0.781327 0
M  V30 5809 N 550.918 -4.57325 0.735374 0
M  V30 5810 C 551.653 -5.64194 1.02336 0
M  V30 5811 N 551.149 -6.7893 1.37933 0
M  V30 5812 N 552.942 -5.54051 0.947838 0
M  V30 5813 H 545.093 -1.67738 1.30299 0
M  V30 5814 H 547.356 -0.785385 0.530918 0
M  V30 5815 H 547.062 -3.20349 1.45152 0
M  V30 5816 H 546.936 -3.76639 -0.205721 0
M  V30 5817 H 549.323 -2.87886 -0.648505 0
M  V30 5818 H 549.404 -2.33939 1.03472 0
M  V30 5819 H 549.048 -4.74905 1.80077 0
M  V30 5820 H 548.978 -5.26511 0.0970679 0
M  V30 5821 H 551.469 -3.74931 0.472773 0
M  V30 5822 H 551.782 -7.56392 1.58402 0
M  V30 5823 H 550.127 -6.80386 1.41774 0
M  V30 5824 H 553.318 -4.63293 0.669115 0
M  V30 5825 H 553.491 -6.37246 1.17563 0
M  V30 5826 N 546.897 -0.0685191 -1.57451 0
M  V30 5827 C 548.308 0.464634 -1.80826 0
M  V30 5828 C 548.659 1.69847 -0.982169 0
M  V30 5829 O 547.784 2.15439 -0.203734 0
M  V30 5830 C 548.379 0.849721 -3.27971 0
M  V30 5831 C 546.938 1.32776 -3.52204 0
M  V30 5832 C 546.085 0.311332 -2.75547 0
M  V30 5833 H 549.036 -0.294248 -1.55948 0
M  V30 5834 H 549.057 1.71138 -3.39841 0
M  V30 5835 H 548.569 -0.0484736 -3.8807 0
M  V30 5836 H 546.67 2.24456 -2.97406 0
M  V30 5837 H 546.783 1.30794 -4.60901 0
M  V30 5838 H 545.147 0.787915 -2.42206 0
M  V30 5839 H 545.93 -0.579078 -3.38381 0
M  V30 5840 N 548.375 1.56261 0.205012 0
M  V30 5841 C 549.322 1.93754 1.25411 0
M  V30 5842 C 550.292 0.796826 1.45739 0
M  V30 5843 O 551.477 1.05414 1.59036 0
M  V30 5844 C 548.617 2.27383 2.59598 0
M  V30 5845 C 547.73 3.5447 2.46931 0
M  V30 5846 C 546.865 3.77468 3.73753 0
M  V30 5847 C 545.904 4.98014 3.55877 0
M  V30 5848 N 545.041 5.17316 4.74688 0
M  V30 5849 H 549.881 2.83203 0.92737 0
M  V30 5850 H 547.418 1.40158 0.446574 0
M  V30 5851 H 549.376 2.44895 3.37761 0
M  V30 5852 H 548.006 1.41088 2.90335 0
M  V30 5853 H 547.058 3.45061 1.60116 0
M  V30 5854 H 548.37 4.42789 2.29651 0
M  V30 5855 H 547.524 3.95165 4.60358 0
M  V30 5856 H 546.263 2.87461 3.93976 0
M  V30 5857 H 545.268 4.80249 2.67657 0
M  V30 5858 H 546.493 5.8952 3.37109 0
M  V30 5859 H 544.439 4.30255 4.95194 0
M  V30 5860 H 544.356 5.99796 4.60197 0
M  V30 5861 H 545.624 5.39463 5.62672 0
M  V30 5862 N 549.853 -0.472356 1.50355 0
M  V30 5863 C 551.078 -1.25251 1.65309 0
M  V30 5864 C 551.503 -1.85081 0.335643 0
M  V30 5865 O 550.861 -1.67227 -0.700335 0
M  V30 5866 C 550.909 -2.3379 2.74544 0
M  V30 5867 O 550.013 -3.38401 2.35709 0
M  V30 5868 H 549.354 -0.368539 0.552336 0
M  V30 5869 H 551.884 -0.562271 1.96722 0
M  V30 5870 H 551.894 -2.79121 2.97583 0
M  V30 5871 H 550.569 -1.89614 3.70161 0
M  V30 5872 H 549.146 -2.9879 2.23112 0
M  V30 5873 N 551.331 -1.39911 -0.725443 0
M  V30 5874 C 552.263 -1.35301 -1.85003 0
M  V30 5875 C 553.276 -0.260102 -1.60709 0
M  V30 5876 O 554.465 -0.519749 -1.70766 0
M  V30 5877 C 551.565 -1.08039 -3.21218 0
M  V30 5878 C 550.738 -2.28793 -3.7279 0
M  V30 5879 C 549.797 -1.97841 -4.87591 0
M  V30 5880 O 548.823 -2.70616 -5.00755 0
M  V30 5881 N 550.025 -0.950367 -5.72668 0
M  V30 5882 H 552.79 -2.32218 -1.89459 0
M  V30 5883 H 550.351 -1.34137 -0.90658 0
M  V30 5884 H 552.343 -0.853354 -3.95601 0
M  V30 5885 H 550.913 -0.198229 -3.11971 0
M  V30 5886 H 550.133 -2.67388 -2.8965 0
M  V30 5887 H 551.421 -3.09317 -4.03981 0
M  V30 5888 H 550.819 -0.347436 -5.64632 0
M  V30 5889 H 549.376 -0.783232 -6.47077 0
M  V30 5890 N 552.809 0.956637 -1.25245 0
M  V30 5891 C 553.756 2.053 -1.05454 0
M  V30 5892 C 554.726 1.66062 0.0356889 0
M  V30 5893 O 555.911 1.90415 -0.121099 0
M  V30 5894 C 553.051 3.38391 -0.677191 0
M  V30 5895 C 552.164 3.90758 -1.84206 0
M  V30 5896 C 551.299 5.12165 -1.40926 0
M  V30 5897 C 550.338 5.56757 -2.54338 0
M  V30 5898 N 549.475 6.69376 -2.11848 0
M  V30 5899 H 554.315 2.21562 -1.99284 0
M  V30 5900 H 551.852 1.08578 -0.992434 0
M  V30 5901 H 553.81 4.1488 -0.43938 0
M  V30 5902 H 552.44 3.22021 0.224127 0
M  V30 5903 H 551.492 3.10808 -2.19323 0
M  V30 5904 H 552.804 4.19802 -2.69383 0
M  V30 5905 H 551.958 5.96065 -1.13098 0
M  V30 5906 H 550.697 4.84832 -0.528175 0
M  V30 5907 H 549.702 4.71423 -2.82913 0
M  V30 5908 H 550.927 5.861 -3.43022 0
M  V30 5909 H 548.873 6.43756 -1.26153 0
M  V30 5910 H 548.79 6.97927 -2.90574 0
M  V30 5911 H 550.058 7.5669 -1.87191 0
M  V30 5912 N 554.287 1.06798 1.15896 0
M  V30 5913 C 555.527 0.797041 1.8822 0
M  V30 5914 C 555.891 -0.664549 1.80133 0
M  V30 5915 O 557.092 -1.0503 2.47431 0
M  V30 5916 C 555.363 1.28431 3.33527 0
M  V30 5917 S 556.922 1.14319 4.23647 0
M  V30 5918 H 553.74 0.288988 0.649621 0
M  V30 5919 H 556.342 1.36594 1.39865 0
M  V30 5920 H 555.046 2.34286 3.36954 0
M  V30 5921 H 554.577 0.710371 3.86933 0
M  V30 5922 H 556.592 0.0772467 4.9614 0
M  V30 5923 N 555.766 -1.3263 0.851289 0
M  V30 5924 C 557.012 -1.9766 0.453694 0
M  V30 5925 C 557.345 -1.67225 -0.987396 0
M  V30 5926 O 556.62 -0.958693 -1.69232 0
M  V30 5927 C 556.903 -3.5344 0.68936 0
M  V30 5928 C 556.756 -3.93517 2.17862 0
M  V30 5929 C 558.075 -4.39866 0.143555 0
M  V30 5930 H 555.194 -0.717989 0.166314 0
M  V30 5931 H 557.836 -1.57068 1.06909 0
M  V30 5932 H 555.986 -3.88147 0.165546 0
M  V30 5933 H 557.658 -3.69006 2.76826 0
M  V30 5934 H 555.901 -3.42798 2.65841 0
M  V30 5935 H 556.572 -5.02065 2.29422 0
M  V30 5936 H 559.048 -4.11875 0.591451 0
M  V30 5937 H 557.924 -5.47858 0.338043 0
M  V30 5938 H 558.185 -4.31696 -0.953466 0
M  V30 5939 N 557.244 -0.608902 -1.45362 0
M  V30 5940 C 558.207 0.0992563 -2.28985 0
M  V30 5941 C 559.207 0.793841 -1.39838 0
M  V30 5942 O 560.397 0.641804 -1.61946 0
M  V30 5943 C 557.529 1.15073 -3.20891 0
M  V30 5944 H 558.722 -0.635964 -2.93079 0
M  V30 5945 H 556.275 -0.368007 -1.51906 0
M  V30 5946 H 557.01 1.91667 -2.616 0
M  V30 5947 H 556.795 0.656867 -3.86559 0
M  V30 5948 H 558.285 1.64665 -3.83765 0
M  V30 5949 N 558.722 1.53707 -0.348139 0
M  V30 5950 C 559.952 2.05108 0.247864 0
M  V30 5951 C 560.36 1.22252 1.44399 0
M  V30 5952 O 559.703 0.251853 1.81965 0
M  V30 5953 C 559.765 3.52171 0.722187 0
M  V30 5954 C 559.429 4.5562 -0.354902 0
M  V30 5955 C 560.426 5.05883 -1.19911 0
M  V30 5956 C 558.111 4.99703 -0.510145 0
M  V30 5957 C 560.105 5.98814 -2.18406 0
M  V30 5958 C 557.792 5.92443 -1.49848 0
M  V30 5959 C 558.79 6.41887 -2.33389 0
M  V30 5960 O 558.478 7.32802 -3.3054 0
M  V30 5961 H 558.21 0.674086 0.0508296 0
M  V30 5962 H 560.764 1.99229 -0.49968 0
M  V30 5963 H 558.994 3.55529 1.52105 0
M  V30 5964 H 560.683 3.8652 1.23925 0
M  V30 5965 H 561.449 4.72586 -1.09028 0
M  V30 5966 H 557.328 4.60816 0.130274 0
M  V30 5967 H 560.872 6.3733 -2.83649 0
M  V30 5968 H 556.769 6.25155 -1.60786 0
M  V30 5969 H 557.537 7.50749 -3.26064 0
M  V30 5970 N 560.2 0.0768682 1.57412 0
M  V30 5971 C 561.147 -0.888577 2.13009 0
M  V30 5972 C 562.117 -1.29198 1.0439 0
M  V30 5973 O 563.302 -1.37694 1.3208 0
M  V30 5974 C 560.442 -2.14899 2.70023 0
M  V30 5975 C 559.555 -1.79777 3.92816 0
M  V30 5976 C 558.69 -3.00467 4.38056 0
M  V30 5977 C 557.729 -2.61385 5.53484 0
M  V30 5978 N 556.866 -3.74851 5.93659 0
M  V30 5979 H 561.706 -0.407593 2.95199 0
M  V30 5980 H 559.243 -0.189534 1.45874 0
M  V30 5981 H 561.201 -2.88688 3.0119 0
M  V30 5982 H 559.831 -2.60529 1.9059 0
M  V30 5983 H 558.883 -0.960301 3.68079 0
M  V30 5984 H 560.195 -1.47027 4.76639 0
M  V30 5985 H 559.349 -3.82529 4.7091 0
M  V30 5986 H 558.088 -3.36413 3.53097 0
M  V30 5987 H 557.093 -1.77746 5.20275 0
M  V30 5988 H 558.318 -2.26603 6.40178 0
M  V30 5989 H 556.264 -4.1055 5.11649 0
M  V30 5990 H 556.181 -3.45887 6.72234 0
M  V30 5991 H 557.449 -4.57477 6.31138 0
M  V30 5992 N 561.678 -1.56367 -0.196722 0
M  V30 5993 C 562.925 -1.80529 -0.917366 0
M  V30 5994 C 563.253 -0.649817 -1.83324 0
M  V30 5995 O 562.508 0.36451 -1.92275 0
M  V30 5996 C 562.807 -3.10663 -1.767 0
M  V30 5997 C 562.473 -4.3962 -1.00225 0
M  V30 5998 C 561.135 -4.74653 -0.791095 0
M  V30 5999 C 563.487 -5.1913 -0.464035 0
M  V30 6000 C 560.815 -5.86692 -0.0302155 0
M  V30 6001 C 563.167 -6.31964 0.283625 0
M  V30 6002 C 561.831 -6.65581 0.505813 0
M  V30 6003 H 561.101 -0.660602 -0.335688 0
M  V30 6004 H 563.748 -1.90615 -0.183844 0
M  V30 6005 H 562.053 -2.95807 -2.56915 0
M  V30 6006 H 563.75 -3.26563 -2.32718 0
M  V30 6007 H 560.34 -4.12127 -1.17684 0
M  V30 6008 H 564.524 -4.9248 -0.614575 0
M  V30 6009 H 559.78 -6.11211 0.151917 0
M  V30 6010 H 563.954 -6.92791 0.708057 0
M  V30 6011 H 561.581 -7.52239 1.0973 0
M  V30 6012 N 563.156 0.464375 -1.50603 0
M  V30 6013 C 564.572 0.798684 -1.38178 0
M  V30 6014 C 564.772 1.96568 -0.44308 0
M  V30 6015 O 563.828 2.52252 0.111814 0
M  V30 6016 C 565.141 1.10444 -2.79683 0
M  V30 6017 C 566.689 1.2105 -2.88645 0
M  V30 6018 C 567.164 1.54934 -4.30998 0
M  V30 6019 N 568.655 1.61913 -4.3398 0
M  V30 6020 C 569.39 1.8965 -5.41129 0
M  V30 6021 N 568.886 2.15361 -6.58477 0
M  V30 6022 N 570.679 1.91207 -5.28579 0
M  V30 6023 H 562.83 -0.304603 -2.10204 0
M  V30 6024 H 565.093 -0.0737804 -0.945125 0
M  V30 6025 H 564.799 0.319934 -3.50242 0
M  V30 6026 H 564.673 2.03896 -3.17342 0
M  V30 6027 H 567.06 1.98567 -2.18301 0
M  V30 6028 H 567.141 0.255613 -2.5452 0
M  V30 6029 H 566.785 0.779549 -5.01882 0
M  V30 6030 H 566.715 2.51584 -4.62615 0
M  V30 6031 H 569.206 1.44055 -3.49366 0
M  V30 6032 H 569.519 2.35818 -7.35941 0
M  V30 6033 H 567.864 2.1274 -6.6164 0
M  V30 6034 H 571.055 1.70622 -4.35897 0
M  V30 6035 H 571.228 2.12488 -6.12171 0
M  V30 6036 N 564.634 1.40294 0.718013 0
M  V30 6037 C 565.564 1.43118 1.84498 0
M  V30 6038 C 566.545 0.292403 1.67568 0
M  V30 6039 O 567.73 0.500675 1.87635 0
M  V30 6040 C 564.86 1.29065 3.22427 0
M  V30 6041 C 563.814 2.40521 3.54025 0
M  V30 6042 C 563.14 2.11546 4.91073 0
M  V30 6043 C 564.44 3.82859 3.55269 0
M  V30 6044 H 566.134 2.37432 1.82391 0
M  V30 6045 H 563.68 1.14283 0.87609 0
M  V30 6046 H 565.633 1.29658 4.00957 0
M  V30 6047 H 564.357 0.312271 3.25104 0
M  V30 6048 H 563.016 2.39173 2.77834 0
M  V30 6049 H 562.664 1.12104 4.90348 0
M  V30 6050 H 562.364 2.86216 5.1318 0
M  V30 6051 H 563.888 2.13817 5.71939 0
M  V30 6052 H 565.302 3.86044 4.23843 0
M  V30 6053 H 563.699 4.57029 3.88902 0
M  V30 6054 H 564.769 4.12617 2.54706 0
M  V30 6055 N 566.112 -0.949982 1.2575 0
M  V30 6056 C 567.358 -1.69766 1.10938 0
M  V30 6057 C 567.691 -1.91056 -0.348028 0
M  V30 6058 O 566.966 -1.48488 -1.25625 0
M  V30 6059 C 567.249 -3.07779 1.86933 0
M  V30 6060 C 567.102 -2.9387 3.4053 0
M  V30 6061 C 568.421 -4.07749 1.65616 0
M  V30 6062 H 565.54 -0.616144 0.404396 0
M  V30 6063 H 568.182 -1.10394 1.54639 0
M  V30 6064 H 566.332 -3.58462 1.4979 0
M  V30 6065 H 568.004 -2.50476 3.87375 0
M  V30 6066 H 566.247 -2.29686 3.68004 0
M  V30 6067 H 566.918 -3.91719 3.88922 0
M  V30 6068 H 569.394 -3.65994 1.97959 0
M  V30 6069 H 568.27 -5.02348 2.21218 0
M  V30 6070 H 568.531 -4.38029 0.598595 0
M  V30 6071 N 567.59 -1.07411 -1.15328 0
M  V30 6072 C 568.836 -0.798831 -1.86404 0
M  V30 6073 C 569.169 0.673433 -1.8215 0
M  V30 6074 O 568.444 1.49428 -1.24505 0
M  V30 6075 C 568.727 -1.30846 -3.35487 0
M  V30 6076 C 568.58 -2.84532 -3.4837 0
M  V30 6077 C 569.899 -0.925486 -4.30259 0
M  V30 6078 H 567.018 -0.291659 -0.676834 0
M  V30 6079 H 569.66 -1.332 -1.35491 0
M  V30 6080 H 567.81 -0.854916 -3.78977 0
M  V30 6081 H 569.482 -3.3818 -3.13739 0
M  V30 6082 H 567.725 -3.22699 -2.8991 0
M  V30 6083 H 568.396 -3.15259 -4.53118 0
M  V30 6084 H 570.872 -1.3163 -3.94731 0
M  V30 6085 H 569.748 -1.3094 -5.33053 0
M  V30 6086 H 570.009 0.168525 -4.41779 0
M  V30 6087 N 569.068 1.32177 -0.85831 0
M  V30 6088 C 570.015 2.28794 -0.303607 0
M  V30 6089 C 570.985 1.55213 0.591453 0
M  V30 6090 O 572.17 1.83418 0.525585 0
M  V30 6091 C 569.31 3.41475 0.49889 0
M  V30 6092 C 568.423 4.2993 -0.422373 0
M  V30 6093 C 567.558 5.29743 0.393111 0
M  V30 6094 C 566.597 6.09842 -0.525317 0
M  V30 6095 N 565.734 7.01643 0.253208 0
M  V30 6096 H 570.574 2.75631 -1.13276 0
M  V30 6097 H 568.111 1.35606 -0.570026 0
M  V30 6098 H 570.069 4.05531 0.979826 0
M  V30 6099 H 568.699 2.95779 1.29284 0
M  V30 6100 H 567.751 3.66422 -1.02171 0
M  V30 6101 H 569.063 4.85899 -1.12709 0
M  V30 6102 H 568.217 5.9942 0.937056 0
M  V30 6103 H 566.956 4.744 1.13117 0
M  V30 6104 H 565.961 5.39066 -1.08112 0
M  V30 6105 H 567.186 6.6727 -1.26205 0
M  V30 6106 H 565.132 6.48725 0.974295 0
M  V30 6107 H 565.049 7.54981 -0.392398 0
M  V30 6108 H 566.317 7.756 0.778761 0
M  V30 6109 N 570.547 0.616602 1.45037 0
M  V30 6110 C 571.51 -0.0871112 2.29034 0
M  V30 6111 C 572.51 -0.786414 1.40258 0
M  V30 6112 O 573.7 -0.633207 1.62284 0
M  V30 6113 C 570.832 -1.13369 3.21497 0
M  V30 6114 H 572.025 0.651497 2.92738 0
M  V30 6115 H 569.578 0.376058 1.51709 0
M  V30 6116 H 570.313 -1.90277 2.62612 0
M  V30 6117 H 570.098 -0.636358 3.86902 0
M  V30 6118 H 571.588 -1.62627 3.84633 0
M  V30 6119 N 572.025 -1.5352 0.356285 0
M  V30 6120 C 573.302 -1.93405 -0.292223 0
M  V30 6121 C 573.682 -1.28901 -1.67176 0
M  V30 6122 O 573.03 -0.444632 -2.24132 0
M  V30 6123 C 573.24 -3.47223 -0.35175 0
M  V30 6124 C 574.588 -4.20389 -0.596534 0
M  V30 6125 O 575.612 -3.53554 -0.433344 0
M  V30 6126 O 574.471 -5.3881 -0.913589 0
M  V30 6127 H 571.565 -0.808666 -0.173172 0
M  V30 6128 H 574.111 -1.64713 0.408391 0
M  V30 6129 H 572.883 -3.86423 0.615841 0
M  V30 6130 H 572.506 -3.8212 -1.09864 0
M  V30 6131 N 573.503 -0.0852151 -1.57369 0
M  V30 6132 C 574.751 0.579658 -1.93609 0
M  V30 6133 C 575.072 1.69332 -0.967043 0
M  V30 6134 O 574.342 1.95892 -0.0174215 0
M  V30 6135 H 572.922 0.217113 -0.714752 0
M  V30 6136 H 575.584 -0.146226 -1.94351 0
M  V30 6137 H 574.68 0.996276 -2.95771 0
M  V30 6138 N 574.981 1.5647 0.188427 0
M  V30 6139 C 575.929 1.95971 1.25293 0
M  V30 6140 C 576.923 0.846047 1.4676 0
M  V30 6141 O 578.129 1.03109 1.47542 0
M  V30 6142 H 574.504 0.623253 0.420784 0
M  V30 6143 H 576.475 2.84731 0.892792 0
M  V30 6144 C 575.224 2.32116 2.58877 0
M  V30 6145 H 574.547 3.17341 2.43176 0
M  V30 6146 H 575.987 2.63613 3.3209 0
M  V30 6147 C 574.446 1.15823 3.16365 0
M  V30 6148 O 574.976 0.436785 3.99318 0
M  V30 6149 N 573.182 0.933278 2.75206 0
M  V30 6150 H 572.729 1.52169 2.07852 0
M  V30 6151 H 572.687 0.156976 3.14008 0
M  V30 6152 N 576.459 -0.456382 1.50847 0
M  V30 6153 C 577.391 -1.57033 1.66953 0
M  V30 6154 C 578.404 -1.53207 0.550593 0
M  V30 6155 O 579.593 -1.58328 0.824285 0
M  V30 6156 C 576.693 -2.95937 1.65149 0
M  V30 6157 C 575.866 -3.24475 2.93317 0
M  V30 6158 C 574.925 -4.43007 2.83957 0
M  V30 6159 O 573.951 -4.42592 3.57912 0
M  V30 6160 N 575.153 -5.45503 1.9851 0
M  V30 6161 H 577.918 -1.43629 2.63042 0
M  V30 6162 H 575.479 -0.645037 1.48495 0
M  V30 6163 H 577.471 -3.73224 1.56481 0
M  V30 6164 H 576.041 -3.03036 0.767343 0
M  V30 6165 H 575.261 -2.35664 3.16 0
M  V30 6166 H 576.549 -3.4036 3.78196 0
M  V30 6167 H 575.947 -5.48668 1.37766 0
M  V30 6168 H 574.504 -6.21716 1.95735 0
M  V30 6169 N 577.937 -1.40673 -0.710563 0
M  V30 6170 C 578.847 -1.43663 -1.85467 0
M  V30 6171 C 579.863 -0.328721 -1.70867 0
M  V30 6172 O 581.039 -0.574098 -1.93044 0
M  V30 6173 C 578.104 -1.30226 -3.21313 0
M  V30 6174 C 577.165 -2.51204 -3.48131 0
M  V30 6175 C 576.398 -2.38398 -4.77495 0
M  V30 6176 O 576.621 -1.40048 -5.5294 0
M  V30 6177 O 575.555 -3.2787 -5.04762 0
M  V30 6178 H 579.381 -2.40156 -1.859 0
M  V30 6179 H 576.966 -1.22049 -0.861652 0
M  V30 6180 H 578.848 -1.2496 -4.02446 0
M  V30 6181 H 577.523 -0.368419 -3.21597 0
M  V30 6182 H 576.43 -2.62048 -2.66987 0
M  V30 6183 H 577.763 -3.43366 -3.52648 0
M  V30 6184 N 579.415 0.9433 -1.26252 0
M  V30 6185 C 580.643 1.72367 -1.14443 0
M  V30 6186 C 581.058 1.86392 0.300572 0
M  V30 6187 O 580.415 1.36978 1.20596 0
M  V30 6188 C 580.466 3.13155 -1.806 0
M  V30 6189 O 580.187 2.99803 -3.19452 0
M  V30 6190 C 581.688 4.07417 -1.74717 0
M  V30 6191 H 578.908 0.539758 -0.398626 0
M  V30 6192 H 581.452 1.18268 -1.66832 0
M  V30 6193 H 579.607 3.64162 -1.32154 0
M  V30 6194 H 580.021 3.88697 -3.52158 0
M  V30 6195 H 581.495 5.03773 -2.25647 0
M  V30 6196 H 581.972 4.3337 -0.713244 0
M  V30 6197 H 582.578 3.6233 -2.22704 0
M  V30 6198 N 580.893 1.08022 1.14757 0
M  V30 6199 C 581.841 0.701088 2.21783 0
M  V30 6200 C 582.835 -0.291311 1.66876 0
M  V30 6201 O 584.041 -0.154296 1.79337 0
M  V30 6202 H 580.416 0.208668 0.722469 0
M  V30 6203 H 582.387 1.61321 2.51034 0
M  V30 6204 C 581.136 0.122278 3.47485 0
M  V30 6205 H 580.459 0.877065 3.90061 0
M  V30 6206 H 581.899 -0.105248 4.23869 0
M  V30 6207 C 580.358 -1.13883 3.17068 0
M  V30 6208 O 580.888 -2.22429 3.34497 0
M  V30 6209 N 579.094 -1.04767 2.71058 0
M  V30 6210 H 578.641 -0.164302 2.57075 0
M  V30 6211 H 578.599 -1.89224 2.51081 0
M  V30 6212 N 582.371 -1.3172 0.865308 0
M  V30 6213 C 583.319 -2.30569 0.306674 0
M  V30 6214 C 584.313 -1.59317 -0.575724 0
M  V30 6215 O 585.519 -1.73961 -0.462343 0
M  V30 6216 H 581.894 -0.747681 0.0804834 0
M  V30 6217 H 583.865 -2.75165 1.15441 0
M  V30 6218 C 582.614 -3.44358 -0.480952 0
M  V30 6219 H 581.937 -3.99354 0.18876 0
M  V30 6220 H 583.377 -4.15652 -0.837241 0
M  V30 6221 C 581.836 -2.92574 -1.67039 0
M  V30 6222 O 582.366 -2.90954 -2.76964 0
M  V30 6223 N 580.572 -2.48835 -1.50097 0
M  V30 6224 H 580.119 -2.50353 -0.606738 0
M  V30 6225 H 580.077 -2.14543 -2.29823 0
M  V30 6226 N 583.85 -0.624285 -1.44708 0
M  V30 6227 C 585.098 -0.125802 -2.01708 0
M  V30 6228 C 585.418 1.2543 -1.49306 0
M  V30 6229 O 584.689 1.83198 -0.693924 0
M  V30 6230 H 583.269 -0.0435161 -0.745731 0
M  V30 6231 H 585.931 -0.809446 -1.77296 0
M  V30 6232 H 585.027 -0.0882734 -3.11975 0
M  V30 6233 N 585.328 1.53329 -0.364422 0
M  V30 6234 C 586.568 2.0315 0.22572 0
M  V30 6235 C 586.932 1.24589 1.46087 0
M  V30 6236 O 588.133 1.64411 2.12656 0
M  V30 6237 C 586.404 3.53718 0.511663 0
M  V30 6238 S 587.963 4.25412 1.07564 0
M  V30 6239 H 584.781 0.70795 0.0657843 0
M  V30 6240 H 587.383 1.88811 -0.507019 0
M  V30 6241 H 586.087 4.08497 -0.394784 0
M  V30 6242 H 585.618 3.72217 1.27351 0
M  V30 6243 H 587.633 4.36486 2.35997 0
M  V30 6244 N 586.806 0.0935595 1.57322 0
M  V30 6245 C 587.756 -0.876521 2.10478 0
M  V30 6246 C 588.74 -1.24482 1.01946 0
M  V30 6247 O 589.932 -1.22016 1.28223 0
M  V30 6248 C 587.061 -2.13615 2.68745 0
M  V30 6249 C 586.147 -1.79335 3.84317 0
M  V30 6250 N 586.538 -1.15606 4.92411 0
M  V30 6251 C 584.836 -2.08954 3.94023 0
M  V30 6252 C 585.537 -0.999036 5.73057 0
M  V30 6253 N 584.513 -1.51585 5.22037 0
M  V30 6254 H 588.315 -0.379829 2.91435 0
M  V30 6255 H 585.829 -0.109699 1.62029 0
M  V30 6256 H 587.826 -2.84053 3.05155 0
M  V30 6257 H 586.486 -2.63851 1.89242 0
M  V30 6258 H 587.497 -0.823063 5.11318 0
M  V30 6259 H 584.174 -2.61416 3.25527 0
M  V30 6260 H 585.564 -0.500772 6.70031 0
M  V30 6261 N 588.284 -1.56567 -0.180126 0
M  V30 6262 C 589.231 -1.95725 -1.22313 0
M  V30 6263 C 590.201 -0.819911 -1.44453 0
M  V30 6264 O 591.386 -1.07931 -1.57339 0
M  V30 6265 C 588.526 -2.31484 -2.55947 0
M  V30 6266 C 587.639 -3.58354 -2.4126 0
M  V30 6267 C 586.774 -3.83366 -3.67701 0
M  V30 6268 C 585.813 -5.03612 -3.47909 0
M  V30 6269 N 584.95 -5.24802 -4.66398 0
M  V30 6270 H 589.79 -2.84642 -0.882198 0
M  V30 6271 H 587.327 -1.4085 -0.42422 0
M  V30 6272 H 589.285 -2.50237 -3.33822 0
M  V30 6273 H 587.915 -1.45689 -2.88053 0
M  V30 6274 H 586.967 -3.47565 -1.54606 0
M  V30 6275 H 588.279 -4.46386 -2.22577 0
M  V30 6276 H 587.433 -4.02439 -4.54013 0
M  V30 6277 H 586.172 -2.93692 -3.89353 0
M  V30 6278 H 585.177 -4.84447 -2.59983 0
M  V30 6279 H 586.402 -5.94809 -3.27688 0
M  V30 6280 H 584.348 -4.38079 -4.88286 0
M  V30 6281 H 584.265 -6.07041 -4.50596 0
M  V30 6282 H 585.533 -5.48346 -5.54019 0
M  V30 6283 N 589.762 0.448376 -1.51087 0
M  V30 6284 C 591.008 1.20049 -1.6345 0
M  V30 6285 C 591.341 1.91121 -0.344444 0
M  V30 6286 O 590.616 1.83125 0.655396 0
M  V30 6287 C 590.899 2.22624 -2.83038 0
M  V30 6288 C 590.752 1.55708 -4.21989 0
M  V30 6289 C 592.071 3.23718 -2.98152 0
M  V30 6290 H 589.19 0.435085 -0.59487 0
M  V30 6291 H 591.832 0.491183 -1.83541 0
M  V30 6292 H 589.982 2.83117 -2.66039 0
M  V30 6293 H 591.654 0.986367 -4.50631 0
M  V30 6294 H 589.897 0.859647 -4.25197 0
M  V30 6295 H 590.568 2.30357 -5.01637 0
M  V30 6296 H 593.044 2.73269 -3.13788 0
M  V30 6297 H 591.92 3.92795 -3.83411 0
M  V30 6298 H 592.181 3.89179 -2.09743 0
M  V30 6299 N 591.24 1.41047 0.703093 0
M  V30 6300 C 592.187 1.42302 1.81711 0
M  V30 6301 C 593.157 0.278336 1.63751 0
M  V30 6302 O 594.342 0.478266 1.84709 0
M  V30 6303 C 591.482 1.30362 3.19531 0
M  V30 6304 C 590.595 2.54638 3.48975 0
M  V30 6305 C 589.73 2.35047 4.76368 0
M  V30 6306 C 588.769 3.54837 4.98756 0
M  V30 6307 N 587.906 3.34363 6.1737 0
M  V30 6308 H 592.746 2.37516 1.79973 0
M  V30 6309 H 590.283 1.1795 0.878983 0
M  V30 6310 H 592.241 1.21443 3.99134 0
M  V30 6311 H 590.871 0.387602 3.20464 0
M  V30 6312 H 589.923 2.74037 2.63833 0
M  V30 6313 H 591.235 3.43766 3.61423 0
M  V30 6314 H 590.389 2.23552 5.64012 0
M  V30 6315 H 589.128 1.43363 4.66153 0
M  V30 6316 H 588.133 3.66795 4.09563 0
M  V30 6317 H 589.358 4.47464 5.10835 0
M  V30 6318 H 587.304 2.45373 6.08382 0
M  V30 6319 H 587.221 4.17063 6.30551 0
M  V30 6320 H 588.489 3.26626 7.07768 0
M  V30 6321 N 592.718 -0.936591 1.26751 0
M  V30 6322 C 593.967 -1.67778 1.11953 0
M  V30 6323 C 594.28 -1.92694 -0.33589 0
M  V30 6324 O 595.486 -2.64682 -0.604618 0
M  V30 6325 C 593.942 -3.02138 1.95551 0
M  V30 6326 C 593.55 -2.84953 3.45696 0
M  V30 6327 C 595.294 -3.79917 1.89377 0
M  V30 6328 C 593.201 -4.14814 4.21525 0
M  V30 6329 H 592.131 -0.629275 0.415366 0
M  V30 6330 H 594.782 -1.04122 1.51099 0
M  V30 6331 H 593.164 -3.668 1.49243 0
M  V30 6332 H 594.338 -2.29112 3.99805 0
M  V30 6333 H 592.653 -2.20612 3.53156 0
M  V30 6334 H 595.25 -4.76134 2.43312 0
M  V30 6335 H 595.593 -4.07204 0.865464 0
M  V30 6336 H 596.126 -3.22037 2.33532 0
M  V30 6337 H 592.865 -3.92709 5.24843 0
M  V30 6338 H 592.385 -4.70352 3.72195 0
M  V30 6339 H 594.064 -4.83239 4.3022 0
M  V30 6340 N 594.196 -1.08629 -1.14182 0
M  V30 6341 C 595.129 -0.662329 -2.18377 0
M  V30 6342 C 596.107 0.327054 -1.59277 0
M  V30 6343 O 597.291 0.230376 -1.87087 0
M  V30 6344 C 594.418 0.0254765 -3.3869 0
M  V30 6345 C 593.464 -0.924414 -4.16361 0
M  V30 6346 S 594.297 -2.43226 -4.77076 0
M  V30 6347 C 595.453 -1.75663 -6.00744 0
M  V30 6348 H 595.686 -1.54501 -2.54001 0
M  V30 6349 H 593.219 -0.901484 -1.2535 0
M  V30 6350 H 595.177 0.416032 -4.08386 0
M  V30 6351 H 593.838 0.884689 -3.01384 0
M  V30 6352 H 593.031 -0.390099 -5.02488 0
M  V30 6353 H 592.633 -1.25598 -3.5228 0
M  V30 6354 H 594.925 -1.07589 -6.68903 0
M  V30 6355 H 595.868 -2.59673 -6.58768 0
M  V30 6356 H 596.276 -1.22903 -5.50958 0
M  V30 6357 N 595.674 1.31259 -0.872281 0
M  V30 6358 C 597.085 1.78822 -0.536617 0
M  V30 6359 C 597.436 1.71855 0.946594 0
M  V30 6360 O 596.561 1.28769 1.73918 0
M  V30 6361 C 597.156 3.24698 -0.967294 0
M  V30 6362 C 595.715 3.70147 -0.683251 0
M  V30 6363 C 594.862 2.51994 -1.15733 0
M  V30 6364 H 597.813 1.18308 -1.05777 0
M  V30 6365 H 597.834 3.79386 -0.290929 0
M  V30 6366 H 597.346 3.29737 -2.04683 0
M  V30 6367 H 595.447 3.70607 0.384825 0
M  V30 6368 H 595.56 4.62183 -1.2619 0
M  V30 6369 H 593.924 2.48078 -0.577024 0
M  V30 6370 H 594.707 2.59778 -2.24434 0
M  V30 6371 N 597.152 0.631951 1.44375 0
M  V30 6372 C 598.392 0.14009 2.03919 0
M  V30 6373 C 598.756 -1.21534 1.48639 0
M  V30 6374 O 599.957 -1.79936 1.99691 0
M  V30 6375 C 598.228 0.127174 3.57174 0
M  V30 6376 S 599.787 -0.299946 4.37774 0
M  V30 6377 H 596.605 0.0614891 0.708336 0
M  V30 6378 H 599.207 0.835524 1.76746 0
M  V30 6379 H 597.911 1.11676 3.94913 0
M  V30 6380 H 597.442 -0.589482 3.88958 0
M  V30 6381 H 599.457 -1.54396 4.71568 0
M  V30 6382 N 598.631 -1.53133 0.372548 0
M  V30 6383 C 600.042 -1.86404 -0.105155 0
M  V30 6384 C 600.393 -1.29289 -1.47576 0
M  V30 6385 O 599.518 -0.617646 -2.07398 0
M  V30 6386 C 600.113 -3.38223 -0.197588 0
M  V30 6387 C 598.672 -3.71266 -0.619556 0
M  V30 6388 C 597.819 -2.76353 0.228919 0
M  V30 6389 H 600.77 -1.47282 0.591077 0
M  V30 6390 H 600.791 -3.66577 -1.01987 0
M  V30 6391 H 600.303 -3.79763 0.800099 0
M  V30 6392 H 598.404 -3.35287 -1.62522 0
M  V30 6393 H 598.517 -4.77515 -0.389332 0
M  V30 6394 H 596.881 -2.52888 -0.303271 0
M  V30 6395 H 597.664 -3.20728 1.22428 0
M  V30 6396 N 600.109 -0.101901 -1.5727 0
M  V30 6397 C 601.356 0.560197 -1.94597 0
M  V30 6398 C 601.684 1.67767 -0.984101 0
M  V30 6399 O 600.939 1.95699 -0.00489193 0
M  V30 6400 C 601.238 1.14898 -3.38427 0
M  V30 6401 C 600.904 0.154613 -4.50635 0
M  V30 6402 C 599.566 -0.118861 -4.81053 0
M  V30 6403 C 601.918 -0.523979 -5.18559 0
M  V30 6404 C 599.246 -1.0775 -5.76721 0
M  V30 6405 C 601.598 -1.47114 -6.15256 0
M  V30 6406 C 600.262 -1.75278 -6.44076 0
M  V30 6407 H 599.532 0.204991 -0.712081 0
M  V30 6408 H 602.179 -0.17918 -1.9066 0
M  V30 6409 H 600.484 1.96476 -3.38976 0
M  V30 6410 H 602.181 1.66909 -3.64613 0
M  V30 6411 H 598.771 0.377948 -4.2693 0
M  V30 6412 H 602.955 -0.325851 -4.95229 0
M  V30 6413 H 598.211 -1.30263 -5.97362 0
M  V30 6414 H 602.385 -2.00274 -6.66981 0
M  V30 6415 H 600.012 -2.49717 -7.18015 0
M  V30 6416 N 601.587 1.56661 0.17182 0
M  V30 6417 C 602.998 1.71652 0.734329 0
M  V30 6418 C 603.349 0.712335 1.82812 0
M  V30 6419 O 602.474 -0.126401 2.16031 0
M  V30 6420 C 603.069 3.11226 1.3388 0
M  V30 6421 C 601.628 3.27904 1.84813 0
M  V30 6422 C 600.775 2.67603 0.726917 0
M  V30 6423 H 603.726 1.5861 -0.0535665 0
M  V30 6424 H 603.747 3.09849 2.20849 0
M  V30 6425 H 603.259 3.8429 0.54249 0
M  V30 6426 H 601.36 2.59796 2.6709 0
M  V30 6427 H 601.473 4.35637 1.99392 0
M  V30 6428 H 599.837 2.274 1.14723 0
M  V30 6429 H 600.62 3.43252 -0.0575334 0
M  V30 6430 N 603.065 -0.440357 1.51323 0
M  V30 6431 C 604.311 -1.19181 1.64085 0
M  V30 6432 C 604.644 -1.90936 0.354575 0
M  V30 6433 O 603.919 -1.8347 -0.645675 0
M  V30 6434 C 604.202 -2.2112 2.84215 0
M  V30 6435 C 604.055 -1.53468 4.22809 0
M  V30 6436 C 605.374 -3.22133 2.99864 0
M  V30 6437 H 602.493 -0.431924 0.597169 0
M  V30 6438 H 605.135 -0.481443 1.83799 0
M  V30 6439 H 603.285 -2.81703 2.67537 0
M  V30 6440 H 604.957 -0.962455 4.51148 0
M  V30 6441 H 603.2 -0.837086 4.25647 0
M  V30 6442 H 603.871 -2.27694 5.02852 0
M  V30 6443 H 606.347 -2.71601 3.15233 0
M  V30 6444 H 605.223 -3.90756 3.85488 0
M  V30 6445 H 605.484 -3.88061 2.11804 0
M  V30 6446 N 604.543 -1.41418 -0.695603 0
M  V30 6447 C 605.506 -1.42988 -1.79129 0
M  V30 6448 C 606.506 -0.320514 -1.57573 0
M  V30 6449 O 607.696 -0.58039 -1.64247 0
M  V30 6450 C 604.828 -1.24122 -3.175 0
M  V30 6451 H 606.021 -2.40526 -1.7913 0
M  V30 6452 H 603.574 -1.2756 -0.903225 0
M  V30 6453 H 604.309 -0.274253 -3.23138 0
M  V30 6454 H 604.094 -2.045 -3.34547 0
M  V30 6455 H 605.584 -1.28056 -3.97481 0
M  V30 6456 N 606.021 0.929856 -1.27246 0
M  V30 6457 C 606.968 2.03017 -1.09785 0
M  V30 6458 C 607.938 1.661 0.000456744 0
M  V30 6459 O 609.123 1.90116 -0.161462 0
M  V30 6460 C 606.263 3.36878 -0.748816 0
M  V30 6461 C 605.376 3.86763 -1.92453 0
M  V30 6462 C 604.511 5.09061 -1.51758 0
M  V30 6463 C 603.55 5.51237 -2.66091 0
M  V30 6464 N 602.687 6.64732 -2.25999 0
M  V30 6465 H 607.527 2.17285 -2.03939 0
M  V30 6466 H 605.064 1.06448 -1.01524 0
M  V30 6467 H 607.022 4.13855 -0.527283 0
M  V30 6468 H 605.652 3.22424 0.155771 0
M  V30 6469 H 604.704 3.06086 -2.25867 0
M  V30 6470 H 606.016 4.13994 -2.78227 0
M  V30 6471 H 605.17 5.93532 -1.25716 0
M  V30 6472 H 603.909 4.83602 -0.630896 0
M  V30 6473 H 602.914 4.65316 -2.92849 0
M  V30 6474 H 604.139 5.78692 -3.55377 0
M  V30 6475 H 602.085 6.40935 -1.3978 0
M  V30 6476 H 602.002 6.91607 -3.05313 0
M  V30 6477 H 603.27 7.52549 -2.03199 0
M  V30 6478 N 607.499 1.09233 1.13605 0
M  V30 6479 C 608.409 0.741939 2.22559 0
M  V30 6480 C 609.425 -0.255236 1.72118 0
M  V30 6481 O 610.601 -0.0970747 2.01166 0
M  V30 6482 C 607.666 0.165595 3.46304 0
M  V30 6483 C 606.727 1.21846 4.11645 0
M  V30 6484 C 605.96 0.669526 5.29484 0
M  V30 6485 O 606.183 -0.508228 5.68131 0
M  V30 6486 O 605.117 1.42361 5.84822 0
M  V30 6487 H 608.943 1.65107 2.54899 0
M  V30 6488 H 606.528 0.866584 1.21699 0
M  V30 6489 H 608.41 -0.152592 4.21124 0
M  V30 6490 H 607.085 -0.716573 3.15669 0
M  V30 6491 H 605.992 1.58931 3.38662 0
M  V30 6492 H 607.325 2.07321 4.46407 0
M  V30 6493 N 608.977 -1.30795 0.87923 0
M  V30 6494 C 610.388 -1.78535 0.546093 0
M  V30 6495 C 610.739 -1.72354 -0.937467 0
M  V30 6496 O 609.864 -1.2969 -1.73233 0
M  V30 6497 C 610.459 -3.24181 0.9845 0
M  V30 6498 C 609.018 -3.69779 0.702871 0
M  V30 6499 C 608.165 -2.51377 1.17068 0
M  V30 6500 H 611.116 -1.17746 1.06403 0
M  V30 6501 H 611.137 -3.79227 0.311045 0
M  V30 6502 H 610.649 -3.28647 2.06429 0
M  V30 6503 H 608.75 -3.70806 -0.365166 0
M  V30 6504 H 608.863 -4.61507 1.28639 0
M  V30 6505 H 607.227 -2.47768 0.590172 0
M  V30 6506 H 608.01 -2.58584 2.25808 0
M  V30 6507 N 610.455 -0.639598 -1.44038 0
M  V30 6508 C 611.68 -0.153117 -2.06834 0
M  V30 6509 C 612.105 1.16676 -1.47541 0
M  V30 6510 O 611.463 1.71769 -0.580093 0
M  V30 6511 C 611.511 -0.0609169 -3.60549 0
M  V30 6512 O 610.615 0.98071 -4.00569 0
M  V30 6513 H 609.956 -0.0886402 -0.658057 0
M  V30 6514 H 612.486 -0.878674 -1.84771 0
M  V30 6515 H 612.496 0.126892 -4.07803 0
M  V30 6516 H 611.171 -1.0245 -4.03084 0
M  V30 6517 H 609.748 0.766789 -3.64931 0
M  V30 6518 N 611.933 1.52934 -0.380664 0
M  V30 6519 C 613.161 2.05886 0.204599 0
M  V30 6520 C 613.576 1.25305 1.41223 0
M  V30 6521 O 612.933 0.297504 1.80059 0
M  V30 6522 C 612.984 3.56764 0.583249 0
M  V30 6523 O 612.705 4.34292 -0.576398 0
M  V30 6524 C 614.206 4.2603 1.2253 0
M  V30 6525 H 611.426 0.670193 0.0328991 0
M  V30 6526 H 613.97 1.97148 -0.543397 0
M  V30 6527 H 612.125 3.65603 1.28115 0
M  V30 6528 H 612.539 5.23819 -0.267119 0
M  V30 6529 H 614.013 5.32868 1.44068 0
M  V30 6530 H 614.49 3.80698 2.19011 0
M  V30 6531 H 615.096 4.21485 0.568407 0
M  V30 6532 N 613.412 0.11024 1.57214 0
M  V30 6533 C 614.359 -0.843195 2.14846 0
M  V30 6534 C 615.329 -1.26954 1.07107 0
M  V30 6535 O 616.514 -1.34861 1.34971 0
M  V30 6536 C 613.654 -2.09123 2.74521 0
M  V30 6537 C 612.767 -1.71404 3.96541 0
M  V30 6538 C 611.902 -2.91107 4.44331 0
M  V30 6539 C 610.941 -2.49586 5.58903 0
M  V30 6540 N 610.078 -3.62175 6.01477 0
M  V30 6541 H 614.918 -0.344886 2.95998 0
M  V30 6542 H 612.455 -0.15855 1.46243 0
M  V30 6543 H 614.413 -2.82234 3.07246 0
M  V30 6544 H 613.043 -2.56427 1.96074 0
M  V30 6545 H 612.095 -0.88201 3.70033 0
M  V30 6546 H 613.407 -1.36884 4.7965 0
M  V30 6547 H 612.561 -3.72454 4.78919 0
M  V30 6548 H 611.3 -3.28848 3.60153 0
M  V30 6549 H 610.305 -1.6667 5.23929 0
M  V30 6550 H 611.53 -2.12973 6.4484 0
M  V30 6551 H 609.476 -3.99605 5.20242 0
M  V30 6552 H 609.393 -3.3155 6.79419 0
M  V30 6553 H 610.661 -4.43987 6.407 0
M  V30 6554 N 614.89 -1.56749 -0.16351 0
M  V30 6555 C 616.138 -1.82074 -0.87713 0
M  V30 6556 C 616.459 -0.688503 -1.82441 0
M  V30 6557 O 615.729 0.291085 -1.93725 0
M  V30 6558 H 614.309 -0.671677 -0.326893 0
M  V30 6559 H 616.971 -1.9423 -0.161459 0
M  V30 6560 H 616.067 -2.76407 -1.44934 0
M  V30 6561 N 616.368 0.432326 -1.51554 0
M  V30 6562 C 617.298 1.53242 -1.76179 0
M  V30 6563 C 618.279 1.58717 -0.611801 0
M  V30 6564 O 619.464 1.74364 -0.855033 0
M  V30 6565 C 616.594 2.91278 -1.89141 0
M  V30 6566 C 615.548 3.00663 -3.04608 0
M  V30 6567 C 614.874 4.40728 -3.02759 0
M  V30 6568 C 616.174 2.74281 -4.44485 0
M  V30 6569 H 617.868 1.32886 -2.68294 0
M  V30 6570 H 615.414 0.637841 -1.29103 0
M  V30 6571 H 617.367 3.68203 -2.04951 0
M  V30 6572 H 616.091 3.12877 -0.936785 0
M  V30 6573 H 614.75 2.26179 -2.88511 0
M  V30 6574 H 614.398 4.59301 -2.05065 0
M  V30 6575 H 614.098 4.47936 -3.80299 0
M  V30 6576 H 615.622 5.19619 -3.20669 0
M  V30 6577 H 617.036 3.40936 -4.60907 0
M  V30 6578 H 615.433 2.92893 -5.23769 0
M  V30 6579 H 616.503 1.69856 -4.54177 0
M  V30 6580 N 617.846 1.41785 0.688094 0
M  V30 6581 C 618.794 1.44436 1.82321 0
M  V30 6582 C 619.788 0.321544 1.6632 0
M  V30 6583 O 620.994 0.493931 1.73091 0
M  V30 6584 H 617.369 0.452084 0.600936 0
M  V30 6585 H 619.34 2.40087 1.77202 0
M  V30 6586 C 618.089 1.35071 3.20392 0
M  V30 6587 H 617.412 2.2076 3.33324 0
M  V30 6588 H 618.852 1.40988 3.99873 0
M  V30 6589 C 617.311 0.0639127 3.36839 0
M  V30 6590 O 617.841 -0.888495 3.91751 0
M  V30 6591 N 616.047 -0.0146114 2.90596 0
M  V30 6592 H 615.594 0.761191 2.46097 0
M  V30 6593 H 615.552 -0.874988 3.01979 0
M  V30 6594 N 619.324 -0.923095 1.27737 0
M  V30 6595 C 620.735 -1.48626 1.12993 0
M  V30 6596 C 621.086 -1.94142 -0.283439 0
M  V30 6597 O 620.211 -1.81605 -1.17681 0
M  V30 6598 C 620.806 -2.70117 2.04505 0
M  V30 6599 C 619.365 -3.22642 1.93853 0
M  V30 6600 C 618.512 -1.95368 1.96791 0
M  V30 6601 H 621.463 -0.736737 1.40563 0
M  V30 6602 H 621.484 -3.4506 1.60356 0
M  V30 6603 H 620.996 -2.36959 3.07363 0
M  V30 6604 H 619.097 -3.60549 0.939968 0
M  V30 6605 H 619.21 -3.88525 2.80331 0
M  V30 6606 H 617.574 -2.12061 1.41076 0
M  V30 6607 H 618.357 -1.64517 3.01312 0
M  V30 6608 N 620.802 -1.09834 -1.13024 0
M  V30 6609 C 621.75 -0.736283 -2.20639 0
M  V30 6610 C 622.744 0.264725 -1.67319 0
M  V30 6611 O 623.95 0.125745 -1.7956 0
M  V30 6612 H 620.325 -0.220136 -0.719058 0
M  V30 6613 H 622.296 -1.65295 -2.48436 0
M  V30 6614 C 621.045 -0.177544 -3.47246 0
M  V30 6615 H 620.368 -0.939009 -3.88616 0
M  V30 6616 H 621.808 0.0378007 -4.23983 0
M  V30 6617 C 620.267 1.08824 -3.1884 0
M  V30 6618 O 620.797 2.1708 -3.37993 0
M  V30 6619 N 619.003 1.00442 -2.7269 0
M  V30 6620 H 618.55 0.123383 -2.57304 0
M  V30 6621 H 618.508 1.85206 -2.5406 0
M  V30 6622 N 622.28 1.30327 -0.886154 0
M  V30 6623 C 623.691 1.78243 -0.555554 0
M  V30 6624 C 624.042 1.72849 0.928314 0
M  V30 6625 O 623.167 1.30607 1.72542 0
M  V30 6626 C 623.762 3.23654 -1.00168 0
M  V30 6627 C 622.321 3.69401 -0.722471 0
M  V30 6628 C 621.468 2.50753 -1.18399 0
M  V30 6629 H 624.419 1.1718 -1.07026 0
M  V30 6630 H 624.44 3.79056 -0.331152 0
M  V30 6631 H 623.952 3.27548 -2.08169 0
M  V30 6632 H 622.053 3.70995 0.345496 0
M  V30 6633 H 622.166 4.60818 -1.31085 0
M  V30 6634 H 620.53 2.47452 -0.603303 0
M  V30 6635 H 621.313 2.57383 -2.27176 0
M  V30 6636 N 623.758 0.647228 1.43697 0
M  V30 6637 C 624.983 0.164083 2.0675 0
M  V30 6638 C 625.408 -1.15892 1.48158 0
M  V30 6639 O 624.766 -1.71459 0.589194 0
M  V30 6640 C 624.814 0.0800368 3.60511 0
M  V30 6641 O 623.918 -0.959453 4.01084 0
M  V30 6642 H 623.259 0.0921288 0.657578 0
M  V30 6643 H 625.789 0.88846 1.84303 0
M  V30 6644 H 625.799 -0.105263 4.07864 0
M  V30 6645 H 624.474 1.04586 4.02535 0
M  V30 6646 H 623.051 -0.747425 3.65333 0
M  V30 6647 N 625.236 -1.5273 0.388769 0
M  V30 6648 C 626.186 -2.23238 -0.463567 0
M  V30 6649 C 627.17 -1.23606 -1.03007 0
M  V30 6650 O 628.362 -1.48945 -0.956261 0
M  V30 6651 C 625.491 -3.04228 -1.5906 0
M  V30 6652 C 624.577 -4.11255 -1.03587 0
M  V30 6653 N 624.968 -5.0538 -0.206038 0
M  V30 6654 C 623.266 -4.26376 -1.30841 0
M  V30 6655 C 623.967 -5.81613 0.100359 0
M  V30 6656 N 622.943 -5.41264 -0.503447 0
M  V30 6657 H 626.745 -2.93367 0.176978 0
M  V30 6658 H 624.259 -1.61188 0.198046 0
M  V30 6659 H 626.256 -3.53277 -2.21362 0
M  V30 6660 H 624.916 -2.35634 -2.23398 0
M  V30 6661 H 625.927 -5.17663 0.156659 0
M  V30 6662 H 622.604 -3.69011 -1.95287 0
M  V30 6663 H 623.994 -6.67442 0.772676 0
M  V30 6664 N 626.714 -0.118576 -1.57153 0
M  V30 6665 C 627.646 0.862247 -2.12363 0
M  V30 6666 C 628.659 1.23025 -1.06625 0
M  V30 6667 O 629.848 1.17927 -1.33998 0
M  V30 6668 C 626.948 2.16425 -2.60794 0
M  V30 6669 C 626.121 1.96801 -3.90626 0
M  V30 6670 C 625.18 3.10726 -4.2466 0
M  V30 6671 O 624.206 2.83659 -4.93484 0
M  V30 6672 N 625.408 4.37147 -3.81946 0
M  V30 6673 H 628.173 0.390564 -2.97144 0
M  V30 6674 H 625.734 0.0658591 -1.61766 0
M  V30 6675 H 627.726 2.91633 -2.80593 0
M  V30 6676 H 626.296 2.54943 -1.80895 0
M  V30 6677 H 625.516 1.05787 -3.7974 0
M  V30 6678 H 626.804 1.80993 -4.7552 0
M  V30 6679 H 626.202 4.62014 -3.26435 0
M  V30 6680 H 624.759 5.09229 -4.06853 0
M  V30 6681 N 628.193 1.56834 0.155195 0
M  V30 6682 C 629.126 1.9278 1.22111 0
M  V30 6683 C 630.104 0.792588 1.41975 0
M  V30 6684 O 631.288 1.04743 1.5672 0
M  V30 6685 C 628.415 2.19273 2.58142 0
M  V30 6686 C 627.461 3.41932 2.54921 0
M  V30 6687 S 628.294 4.95769 2.02418 0
M  V30 6688 C 629.45 5.25375 3.40194 0
M  V30 6689 H 629.683 2.82889 0.914393 0
M  V30 6690 H 627.216 1.50133 0.360461 0
M  V30 6691 H 629.174 2.35217 3.36427 0
M  V30 6692 H 627.835 1.29843 2.86007 0
M  V30 6693 H 627.028 3.57721 3.55038 0
M  V30 6694 H 626.63 3.25188 1.8474 0
M  V30 6695 H 628.922 5.1834 4.36268 0
M  V30 6696 H 629.865 6.26889 3.29266 0
M  V30 6697 H 630.273 4.52906 3.36951 0
M  V30 6698 N 629.671 -0.424282 1.51781 0
M  V30 6699 C 630.899 -1.1947 1.68921 0
M  V30 6700 C 631.314 -1.84683 0.39213 0
M  V30 6701 O 630.671 -1.71261 -0.630554 0
M  V30 6702 C 630.722 -2.26909 2.81416 0
M  V30 6703 O 630.443 -1.64361 4.061 0
M  V30 6704 C 631.944 -3.16945 3.09937 0
M  V30 6705 H 629.164 -0.359591 0.566511 0
M  V30 6706 H 631.708 -0.501139 1.98265 0
M  V30 6707 H 629.863 -2.91959 2.54635 0
M  V30 6708 H 630.277 -2.35468 4.68674 0
M  V30 6709 H 631.751 -3.88437 3.922 0
M  V30 6710 H 632.228 -3.78451 2.22871 0
M  V30 6711 H 632.834 -2.57581 3.38426 0
M  V30 6712 N 631.149 -1.42148 -0.680565 0
M  V30 6713 C 632.096 -1.45175 -1.79424 0
M  V30 6714 C 633.066 -0.304352 -1.63288 0
M  V30 6715 O 634.251 -0.507591 -1.83924 0
M  V30 6716 C 631.391 -1.35429 -3.17416 0
M  V30 6717 C 630.504 -2.60158 -3.4488 0
M  V30 6718 C 629.639 -2.42596 -4.72568 0
M  V30 6719 C 628.678 -3.62727 -4.93047 0
M  V30 6720 N 627.815 -3.44143 -6.11973 0
M  V30 6721 H 632.655 -2.40349 -1.76172 0
M  V30 6722 H 630.192 -1.19334 -0.860107 0
M  V30 6723 H 632.15 -1.27777 -3.97151 0
M  V30 6724 H 630.78 -0.438536 -3.19807 0
M  V30 6725 H 629.832 -2.78199 -2.5944 0
M  V30 6726 H 631.144 -3.49473 -3.55908 0
M  V30 6727 H 630.298 -2.32497 -5.60384 0
M  V30 6728 H 629.037 -1.50761 -4.63813 0
M  V30 6729 H 628.042 -3.73264 -4.03676 0
M  V30 6730 H 629.267 -4.55534 -5.03652 0
M  V30 6731 H 627.213 -2.5502 -6.04401 0
M  V30 6732 H 627.13 -4.27041 -6.23836 0
M  V30 6733 H 628.398 -3.37845 -7.02482 0
M  V30 6734 N 632.627 0.916307 -1.28225 0
M  V30 6735 C 634.043 1.19425 -1.05876 0
M  V30 6736 C 634.243 2.005 0.2005 0
M  V30 6737 O 633.299 2.35806 0.902873 0
M  V30 6738 C 634.612 1.93133 -2.30478 0
M  V30 6739 C 636.16 2.06026 -2.35632 0
M  V30 6740 C 636.635 2.83141 -3.59994 0
M  V30 6741 N 638.126 2.90704 -3.60618 0
M  V30 6742 C 638.861 3.50865 -4.53521 0
M  V30 6743 N 638.357 4.12327 -5.56739 0
M  V30 6744 N 640.15 3.48379 -4.41122 0
M  V30 6745 H 632.301 0.37496 -2.09064 0
M  V30 6746 H 634.564 0.228531 -0.920042 0
M  V30 6747 H 634.27 1.40985 -3.22205 0
M  V30 6748 H 634.144 2.93696 -2.36691 0
M  V30 6749 H 636.531 2.57355 -1.44404 0
M  V30 6750 H 636.612 1.04647 -2.33415 0
M  V30 6751 H 636.256 2.32492 -4.51564 0
M  V30 6752 H 636.186 3.84829 -3.59464 0
M  V30 6753 H 638.677 2.47034 -2.85977 0
M  V30 6754 H 638.99 4.56205 -6.23776 0
M  V30 6755 H 637.335 4.10839 -5.60568 0
M  V30 6756 H 640.526 2.99572 -3.59686 0
M  V30 6757 H 640.699 3.94974 -5.13712 0
M  V30 6758 N 634.105 1.10431 1.1244 0
M  V30 6759 C 635.052 0.753103 2.18167 0
M  V30 6760 C 636.022 -0.270549 1.63882 0
M  V30 6761 O 637.207 -0.149837 1.90211 0
M  V30 6762 C 634.347 0.191046 3.44571 0
M  V30 6763 C 633.46 1.26999 4.12911 0
M  V30 6764 C 632.595 0.669586 5.26963 0
M  V30 6765 C 631.634 1.72912 5.87169 0
M  V30 6766 N 630.771 1.14898 6.92635 0
M  V30 6767 H 635.611 1.65892 2.47556 0
M  V30 6768 H 633.148 0.828631 1.21541 0
M  V30 6769 H 635.106 -0.152712 4.1692 0
M  V30 6770 H 633.736 -0.677997 3.15599 0
M  V30 6771 H 632.788 1.73087 3.3874 0
M  V30 6772 H 634.1 2.07204 4.53727 0
M  V30 6773 H 633.254 0.275274 6.06075 0
M  V30 6774 H 631.993 -0.163895 4.87425 0
M  V30 6775 H 630.998 2.13286 5.06744 0
M  V30 6776 H 632.223 2.56544 6.28778 0
M  V30 6777 H 630.169 0.336956 6.55134 0
M  V30 6778 H 630.086 1.88786 7.32049 0
M  V30 6779 H 631.354 0.78121 7.75576 0
M  V30 6780 N 635.583 -1.29855 0.893053 0
M  V30 6781 C 636.999 -1.48366 0.588199 0
M  V30 6782 C 637.199 -1.81654 -0.872018 0
M  V30 6783 O 636.255 -1.909 -1.65268 0
M  V30 6784 C 637.568 -2.60136 1.5083 0
M  V30 6785 C 639.116 -2.74014 1.51279 0
M  V30 6786 C 639.591 -3.88905 2.41902 0
M  V30 6787 N 641.082 -3.96228 2.39911 0
M  V30 6788 C 641.817 -4.84458 3.06738 0
M  V30 6789 N 641.313 -5.77426 3.8282 0
M  V30 6790 N 643.106 -4.77894 2.95929 0
M  V30 6791 H 635.257 -1.06522 1.83757 0
M  V30 6792 H 637.52 -0.528495 0.787018 0
M  V30 6793 H 637.226 -2.42383 2.54839 0
M  V30 6794 H 637.1 -3.56793 1.22388 0
M  V30 6795 H 639.487 -2.91167 0.480179 0
M  V30 6796 H 639.568 -1.77952 1.83757 0
M  V30 6797 H 639.212 -3.72508 3.45253 0
M  V30 6798 H 639.142 -4.84322 2.06737 0
M  V30 6799 H 641.633 -3.29728 1.84629 0
M  V30 6800 H 641.946 -6.41529 4.30883 0
M  V30 6801 H 640.291 -5.77332 3.86927 0
M  V30 6802 H 643.482 -4.04248 2.36012 0
M  V30 6803 H 643.655 -5.46444 3.48286 0
M  V30 6804 N 637.061 -0.65484 -1.43351 0
M  V30 6805 C 638.307 -0.169142 -2.02093 0
M  V30 6806 C 638.64 1.21431 -1.51553 0
M  V30 6807 O 637.915 1.81105 -0.709317 0
M  V30 6808 C 638.198 -0.181775 -3.59641 0
M  V30 6809 C 638.051 -1.59926 -4.20409 0
M  V30 6810 C 639.37 0.480945 -4.37464 0
M  V30 6811 H 636.489 -0.0629371 -0.734308 0
M  V30 6812 H 639.131 -0.835833 -1.70628 0
M  V30 6813 H 637.281 0.385918 -3.86578 0
M  V30 6814 H 638.953 -2.21766 -4.04497 0
M  V30 6815 H 637.196 -2.14605 -3.76998 0
M  V30 6816 H 637.867 -1.55994 -5.295 0
M  V30 6817 H 640.343 -0.00208273 -4.161 0
M  V30 6818 H 639.219 0.441384 -5.47122 0
M  V30 6819 H 639.48 1.55533 -4.13838 0
M  V30 6820 N 638.539 1.52521 -0.396863 0
M  V30 6821 C 639.785 2.01971 0.183169 0
M  V30 6822 C 640.118 1.2825 1.45827 0
M  V30 6823 O 639.393 0.385179 1.90648 0
M  V30 6824 C 639.676 3.5736 0.443391 0
M  V30 6825 C 639.529 4.41743 -0.84753 0
M  V30 6826 C 640.848 4.22539 1.2308 0
M  V30 6827 H 637.967 0.734119 0.0650976 0
M  V30 6828 H 640.609 1.82519 -0.527918 0
M  V30 6829 H 638.759 3.74066 1.04914 0
M  V30 6830 H 640.431 4.36773 -1.48414 0
M  V30 6831 H 638.674 4.0845 -1.4612 0
M  V30 6832 H 639.345 5.48507 -0.620003 0
M  V30 6833 H 641.821 4.09857 0.718084 0
M  V30 6834 H 640.697 5.31227 1.38162 0
M  V30 6835 H 640.958 3.80675 2.24808 0
M  V30 6836 N 640.017 0.126909 1.57088 0
M  V30 6837 C 640.947 -0.816847 2.18746 0
M  V30 6838 C 641.928 -1.27161 1.12979 0
M  V30 6839 O 643.113 -1.33279 1.41246 0
M  V30 6840 C 640.243 -2.06398 2.79315 0
M  V30 6841 C 639.197 -1.74673 3.90735 0
M  V30 6842 C 638.523 -3.06482 4.38147 0
M  V30 6843 C 639.823 -1.0089 5.12463 0
M  V30 6844 H 641.517 -0.303032 2.97863 0
M  V30 6845 H 639.063 -0.144314 1.43275 0
M  V30 6846 H 641.016 -2.72885 3.2111 0
M  V30 6847 H 639.74 -2.60118 1.975 0
M  V30 6848 H 638.399 -1.10572 3.49527 0
M  V30 6849 H 638.047 -3.58152 3.5318 0
M  V30 6850 H 637.747 -2.86025 5.13287 0
M  V30 6851 H 639.271 -3.74073 4.82599 0
M  V30 6852 H 640.685 -1.57546 5.51228 0
M  V30 6853 H 639.082 -0.905006 5.93237 0
M  V30 6854 H 640.152 0.00297335 4.849 0
M  V30 6855 N 641.495 -1.56914 -0.146875 0
M  V30 6856 C 642.741 -1.83628 -0.860741 0
M  V30 6857 C 643.074 -0.708528 -1.80813 0
M  V30 6858 O 642.349 0.287838 -1.92358 0
M  V30 6859 C 642.632 -3.20836 -1.63511 0
M  V30 6860 C 642.485 -4.44174 -0.709199 0
M  V30 6861 C 643.804 -3.55268 -2.59756 0
M  V30 6862 H 640.923 -0.667949 -0.311468 0
M  V30 6863 H 643.565 -1.89582 -0.125936 0
M  V30 6864 H 641.715 -3.15891 -2.26153 0
M  V30 6865 H 643.387 -4.61205 -0.0937781 0
M  V30 6866 H 641.63 -4.33796 -0.0187856 0
M  V30 6867 H 642.301 -5.36785 -1.28707 0
M  V30 6868 H 644.777 -3.60824 -2.07232 0
M  V30 6869 H 643.653 -4.52303 -3.10987 0
M  V30 6870 H 643.914 -2.81231 -3.41118 0
M  V30 6871 N 642.974 0.416227 -1.52004 0
M  V30 6872 C 643.921 1.50666 -1.74838 0
M  V30 6873 C 644.891 1.55245 -0.590599 0
M  V30 6874 O 646.076 1.71928 -0.827374 0
M  V30 6875 C 643.216 2.88185 -1.89851 0
M  V30 6876 C 642.329 2.92971 -3.17478 0
M  V30 6877 C 641.464 4.21745 -3.22962 0
M  V30 6878 C 640.503 4.20478 -4.4482 0
M  V30 6879 N 639.64 5.40811 -4.47736 0
M  V30 6880 H 644.48 1.30498 -2.67907 0
M  V30 6881 H 642.017 0.633568 -1.32757 0
M  V30 6882 H 643.975 3.68007 -1.96537 0
M  V30 6883 H 642.605 3.06865 -1.00169 0
M  V30 6884 H 641.657 2.05684 -3.19997 0
M  V30 6885 H 642.969 2.87899 -4.07328 0
M  V30 6886 H 642.123 5.09954 -3.28682 0
M  V30 6887 H 640.862 4.29503 -2.31038 0
M  V30 6888 H 639.867 3.30659 -4.39254 0
M  V30 6889 H 641.092 4.14366 -5.38031 0
M  V30 6890 H 639.038 5.4925 -3.58692 0
M  V30 6891 H 638.955 5.37705 -5.31422 0
M  V30 6892 H 640.223 6.30993 -4.57676 0
M  V30 6893 N 644.452 1.42507 0.673017 0
M  V30 6894 C 645.362 1.4853 1.81593 0
M  V30 6895 C 646.378 0.373907 1.69935 0
M  V30 6896 O 647.554 0.625078 1.91454 0
M  V30 6897 C 644.619 1.387 3.17747 0
M  V30 6898 C 643.68 2.60346 3.41348 0
M  V30 6899 C 642.913 2.50975 4.71007 0
M  V30 6900 O 643.136 1.54659 5.49033 0
M  V30 6901 O 642.07 3.41138 4.95892 0
M  V30 6902 H 645.896 2.45001 1.79467 0
M  V30 6903 H 643.481 1.2429 0.82899 0
M  V30 6904 H 645.363 1.35586 3.98992 0
M  V30 6905 H 644.038 0.453555 3.20507 0
M  V30 6906 H 642.945 2.69034 2.59945 0
M  V30 6907 H 644.278 3.52595 3.43421 0
M  V30 6908 N 645.93 -0.909495 1.28709 0
M  V30 6909 C 647.346 -1.18862 1.06508 0
M  V30 6910 C 647.546 -2.00604 -0.189864 0
M  V30 6911 O 646.602 -2.36281 -0.890355 0
M  V30 6912 C 647.915 -1.91908 2.31499 0
M  V30 6913 C 649.463 -2.04773 2.36721 0
M  V30 6914 C 649.938 -2.81228 3.6149 0
M  V30 6915 N 651.429 -2.88787 3.62155 0
M  V30 6916 C 652.164 -3.48455 4.55375 0
M  V30 6917 N 651.66 -4.09369 5.58918 0
M  V30 6918 N 653.453 -3.46035 4.42963 0
M  V30 6919 H 645.604 -0.363867 2.0926 0
M  V30 6920 H 647.867 -0.223649 0.921241 0
M  V30 6921 H 647.573 -1.39275 3.22948 0
M  V30 6922 H 647.447 -2.92436 2.38245 0
M  V30 6923 H 649.834 -2.56585 1.45767 0
M  V30 6924 H 649.915 -1.03408 2.33967 0
M  V30 6925 H 649.559 -2.30094 4.5279 0
M  V30 6926 H 649.489 -3.82917 3.61499 0
M  V30 6927 H 651.98 -2.45514 2.87283 0
M  V30 6928 H 652.293 -4.52891 6.26187 0
M  V30 6929 H 650.638 -4.0786 5.62739 0
M  V30 6930 H 653.829 -2.9766 3.6127 0
M  V30 6931 H 654.002 -3.92244 5.15799 0
M  V30 6932 N 647.408 -1.11026 -1.11852 0
M  V30 6933 C 648.355 -0.764662 -2.17765 0
M  V30 6934 C 649.325 0.261854 -1.64023 0
M  V30 6935 O 650.51 0.139748 -1.90288 0
M  V30 6936 C 647.65 -0.209317 -3.44465 0
M  V30 6937 C 646.763 -1.29187 -4.12231 0
M  V30 6938 C 645.898 -0.697523 -5.266 0
M  V30 6939 C 644.937 -1.76023 -5.86244 0
M  V30 6940 N 644.074 -1.18569 -6.92016 0
M  V30 6941 H 648.914 -1.67202 -2.46673 0
M  V30 6942 H 646.451 -0.835065 -1.21099 0
M  V30 6943 H 648.409 0.130599 -4.16996 0
M  V30 6944 H 647.039 0.661251 -3.15955 0
M  V30 6945 H 646.091 -1.74881 -3.37818 0
M  V30 6946 H 647.403 -2.09607 -4.52622 0
M  V30 6947 H 646.557 -0.307412 -6.05921 0
M  V30 6948 H 645.296 0.138044 -4.87505 0
M  V30 6949 H 644.301 -2.1597 -5.05606 0
M  V30 6950 H 645.526 -2.59875 -6.27409 0
M  V30 6951 H 643.472 -0.371695 -6.54946 0
M  V30 6952 H 643.389 -1.92666 -7.31038 0
M  V30 6953 H 644.657 -0.82233 -7.7515 0
M  V30 6954 N 648.886 1.2938 -0.899927 0
M  V30 6955 C 649.849 2.25983 -0.382677 0
M  V30 6956 C 650.849 1.53366 0.483259 0
M  V30 6957 O 652.039 1.71798 0.28828 0
M  V30 6958 C 649.171 3.37878 0.452915 0
M  V30 6959 H 650.364 2.73252 -1.23586 0
M  V30 6960 H 647.917 1.40825 -0.678088 0
M  V30 6961 H 648.652 2.95949 1.32608 0
M  V30 6962 H 648.437 3.91742 -0.167562 0
M  V30 6963 H 649.927 4.09746 0.806107 0
M  V30 6964 N 650.364 0.662433 1.43002 0
M  V30 6965 C 651.327 -0.0142016 2.29196 0
M  V30 6966 C 652.327 -0.741394 1.42688 0
M  V30 6967 O 653.517 -0.581257 1.64216 0
M  V30 6968 C 650.649 -1.03084 3.24941 0
M  V30 6969 H 651.842 0.7443 2.90517 0
M  V30 6970 H 649.395 0.424133 1.50435 0
M  V30 6971 H 650.13 -1.81826 2.68533 0
M  V30 6972 H 649.915 -0.512946 3.8873 0
M  V30 6973 H 651.405 -1.50308 3.89612 0
M  V30 6974 N 651.842 -1.52309 0.404946 0
M  V30 6975 C 652.774 -2.24579 -0.45791 0
M  V30 6976 C 653.787 -1.2739 -1.01369 0
M  V30 6977 O 654.976 -1.53363 -0.91335 0
M  V30 6978 C 652.076 -2.9608 -1.64893 0
M  V30 6979 C 651.249 -4.20106 -1.21777 0
M  V30 6980 C 650.308 -4.74468 -2.27523 0
M  V30 6981 O 649.334 -5.37157 -1.88285 0
M  V30 6982 N 650.536 -4.55678 -3.59635 0
M  V30 6983 H 653.301 -2.99265 0.161341 0
M  V30 6984 H 650.862 -1.60228 0.232107 0
M  V30 6985 H 652.854 -3.29344 -2.35191 0
M  V30 6986 H 651.424 -2.24606 -2.17419 0
M  V30 6987 H 650.644 -3.92704 -0.343071 0
M  V30 6988 H 651.932 -5.00658 -0.906596 0
M  V30 6989 H 651.33 -4.05673 -3.94266 0
M  V30 6990 H 649.887 -4.9339 -4.25922 0
M  V30 6991 N 653.32 -0.135238 -1.57019 0
M  V30 6992 C 654.548 0.526066 -2.001 0
M  V30 6993 C 654.963 1.59184 -1.01519 0
M  V30 6994 O 654.32 1.82497 -0.0104258 0
M  V30 6995 C 654.371 1.13744 -3.43139 0
M  V30 6996 O 654.092 0.114259 -4.37951 0
M  V30 6997 C 655.593 1.8805 -4.01438 0
M  V30 6998 H 652.813 0.137962 -0.656664 0
M  V30 6999 H 655.357 -0.226359 -2.03243 0
M  V30 7000 H 653.512 1.84056 -3.40885 0
M  V30 7001 H 653.926 0.56058 -5.21496 0
M  V30 7002 H 655.4 2.26133 -5.03555 0
M  V30 7003 H 655.877 2.76194 -3.41487 0
M  V30 7004 H 656.483 1.22464 -4.07287 0
M  V30 7005 N 654.798 1.5699 0.138552 0
M  V30 7006 C 655.728 2.01933 1.17241 0
M  V30 7007 C 656.709 0.90033 1.44319 0
M  V30 7008 O 657.894 1.16872 1.55095 0
M  V30 7009 C 655.024 2.40711 2.50351 0
M  V30 7010 C 653.978 3.55874 2.37776 0
M  V30 7011 C 653.304 3.80491 3.75674 0
M  V30 7012 C 654.604 4.8826 1.85472 0
M  V30 7013 H 656.298 2.88551 0.798672 0
M  V30 7014 H 653.844 1.3882 0.382743 0
M  V30 7015 H 655.797 2.70754 3.22909 0
M  V30 7016 H 654.521 1.5104 2.89576 0
M  V30 7017 H 653.18 3.2601 1.67669 0
M  V30 7018 H 652.828 2.88057 4.12349 0
M  V30 7019 H 652.528 4.57998 3.68119 0
M  V30 7020 H 654.052 4.12967 4.49767 0
M  V30 7021 H 655.466 5.16965 2.4783 0
M  V30 7022 H 653.863 5.69631 1.88787 0
M  V30 7023 H 654.933 4.78071 0.810935 0
M  V30 7024 N 656.276 -0.40816 1.52223 0
M  V30 7025 C 657.501 -1.18127 1.70472 0
M  V30 7026 C 657.926 -1.83491 0.41384 0
M  V30 7027 O 657.284 -1.70047 -0.628778 0
M  V30 7028 C 657.332 -2.21935 2.84213 0
M  V30 7029 O 656.436 -3.28099 2.4985 0
M  V30 7030 H 655.777 -0.344781 0.56747 0
M  V30 7031 H 658.307 -0.478328 1.9893 0
M  V30 7032 H 658.317 -2.66248 3.09153 0
M  V30 7033 H 656.992 -1.73744 3.7787 0
M  V30 7034 H 655.569 -2.89058 2.35584 0
M  V30 7035 N 657.755 -1.42862 -0.66545 0
M  V30 7036 C 658.718 -1.46756 -1.76055 0
M  V30 7037 C 659.718 -0.353866 -1.56858 0
M  V30 7038 O 660.908 -0.615099 -1.62979 0
M  V30 7039 C 658.04 -1.30829 -3.14796 0
M  V30 7040 H 659.233 -2.44271 -1.73987 0
M  V30 7041 H 656.786 -1.29447 -0.875965 0
M  V30 7042 H 657.521 -0.342733 -3.22484 0
M  V30 7043 H 657.306 -2.11551 -3.30134 0
M  V30 7044 H 658.796 -1.36458 -3.94676 0
M  V30 7045 N 659.233 0.902656 -1.29189 0
M  V30 7046 C 660.482 1.6475 -1.16362 0
M  V30 7047 C 660.795 1.93517 0.284682 0
M  V30 7048 O 662.001 2.66192 0.534229 0
M  V30 7049 C 660.457 2.96848 -2.03493 0
M  V30 7050 C 660.065 2.75687 -3.5313 0
M  V30 7051 C 661.809 3.74762 -1.99383 0
M  V30 7052 C 659.716 4.03492 -4.32375 0
M  V30 7053 H 658.646 0.618041 -0.431904 0
M  V30 7054 H 661.297 1.0008 -1.53806 0
M  V30 7055 H 659.679 3.62715 -1.58916 0
M  V30 7056 H 660.853 2.18431 -4.05739 0
M  V30 7057 H 659.168 2.11171 -3.58881 0
M  V30 7058 H 661.765 4.69515 -2.5585 0
M  V30 7059 H 662.108 4.04767 -0.973123 0
M  V30 7060 H 662.641 3.15732 -2.41988 0
M  V30 7061 H 659.38 3.78656 -5.3507 0
M  V30 7062 H 658.9 4.60318 -3.84535 0
M  V30 7063 H 660.579 4.71662 -4.42881 0
M  V30 7064 N 660.711 1.11618 1.11262 0
M  V30 7065 C 661.641 0.79846 2.19424 0
M  V30 7066 C 662.622 -0.234003 1.68483 0
M  V30 7067 O 663.807 -0.0970704 1.93957 0
M  V30 7068 C 660.937 0.242892 3.4645 0
M  V30 7069 C 659.891 1.20744 4.10615 0
M  V30 7070 C 659.217 0.512494 5.32238 0
M  V30 7071 C 660.517 2.55884 4.55325 0
M  V30 7072 H 662.211 1.70286 2.46258 0
M  V30 7073 H 659.757 0.820195 1.18359 0
M  V30 7074 H 661.71 0.00840447 4.21399 0
M  V30 7075 H 660.434 -0.696811 3.1908 0
M  V30 7076 H 659.093 1.42759 3.37662 0
M  V30 7077 H 658.741 -0.432075 5.01141 0
M  V30 7078 H 658.441 1.15583 5.7612 0
M  V30 7079 H 659.965 0.286842 6.09926 0
M  V30 7080 H 661.379 2.37946 5.21588 0
M  V30 7081 H 659.776 3.16216 5.10027 0
M  V30 7082 H 660.846 3.14968 3.68678 0
M  V30 7083 N 662.189 -1.289 0.906776 0
M  V30 7084 C 663.119 -2.29932 0.406659 0
M  V30 7085 C 664.1 -1.6189 -0.522061 0
M  V30 7086 O 665.285 -1.8935 -0.431283 0
M  V30 7087 C 662.415 -3.45425 -0.360366 0
M  V30 7088 C 661.369 -4.25316 0.478574 0
M  V30 7089 C 660.695 -5.33076 -0.416373 0
M  V30 7090 C 661.995 -4.92739 1.7322 0
M  V30 7091 H 663.689 -2.72013 1.25097 0
M  V30 7092 H 661.235 -1.30768 0.602977 0
M  V30 7093 H 663.188 -4.15186 -0.721029 0
M  V30 7094 H 661.912 -3.02206 -1.23852 0
M  V30 7095 H 660.571 -3.57273 0.821662 0
M  V30 7096 H 660.219 -4.86101 -1.29287 0
M  V30 7097 H 659.919 -5.8743 0.141309 0
M  V30 7098 H 661.443 -6.05686 -0.773072 0
M  V30 7099 H 662.857 -5.54898 1.44086 0
M  V30 7100 H 661.254 -5.57057 2.23175 0
M  V30 7101 H 662.324 -4.17625 2.46408 0
M  V30 7102 N 663.667 -0.670007 -1.42649 0
M  V30 7103 C 664.63 0.00204659 -2.292 0
M  V30 7104 C 665.63 0.733817 -1.4308 0
M  V30 7105 O 666.82 0.57254 -1.64522 0
M  V30 7106 C 663.952 1.01359 -3.25483 0
M  V30 7107 H 665.145 -0.759696 -2.90118 0
M  V30 7108 H 662.698 -0.432105 -1.50208 0
M  V30 7109 H 663.433 1.80399 -2.69493 0
M  V30 7110 H 663.218 0.492323 -3.88997 0
M  V30 7111 H 664.708 1.4824 -3.90403 0
M  V30 7112 N 665.145 1.52092 -0.413018 0
M  V30 7113 C 666.392 2.01855 0.161497 0
M  V30 7114 C 666.72 1.29845 1.44812 0
M  V30 7115 O 665.975 0.394471 1.91683 0
M  V30 7116 C 666.274 3.54529 0.4521 0
M  V30 7117 C 665.94 4.4469 -0.745788 0
M  V30 7118 C 664.602 4.69053 -1.07435 0
M  V30 7119 C 666.954 4.97742 -1.54604 0
M  V30 7120 C 664.282 5.43717 -2.20429 0
M  V30 7121 C 666.634 5.73642 -2.66678 0
M  V30 7122 C 665.298 5.96277 -3.00016 0
M  V30 7123 H 664.568 0.73864 0.0590961 0
M  V30 7124 H 667.215 1.83274 -0.555234 0
M  V30 7125 H 665.52 3.7131 1.25045 0
M  V30 7126 H 667.217 3.90546 0.909647 0
M  V30 7127 H 663.807 4.25907 -0.479725 0
M  V30 7128 H 667.991 4.78824 -1.30543 0
M  V30 7129 H 663.247 5.59462 -2.46602 0
M  V30 7130 H 667.421 6.13746 -3.29072 0
M  V30 7131 H 665.048 6.53913 -3.87688 0
M  V30 7132 N 666.623 0.143563 1.56945 0
M  V30 7133 C 667.872 -0.50835 1.95189 0
M  V30 7134 C 668.185 -1.66239 1.03073 0
M  V30 7135 O 669.391 -2.3787 1.30882 0
M  V30 7136 C 667.847 -0.955735 3.46978 0
M  V30 7137 C 667.455 0.171183 4.47673 0
M  V30 7138 C 669.199 -1.57763 3.94095 0
M  V30 7139 C 667.106 -0.294279 5.90667 0
M  V30 7140 H 666.036 -0.193679 0.728701 0
M  V30 7141 H 668.687 0.227357 1.82086 0
M  V30 7142 H 667.069 -1.7466 3.55401 0
M  V30 7143 H 668.243 0.948049 4.50942 0
M  V30 7144 H 666.558 0.701273 4.10452 0
M  V30 7145 H 669.155 -1.93745 4.98364 0
M  V30 7146 H 669.498 -2.46531 3.35452 0
M  V30 7147 H 670.031 -0.851728 3.88575 0
M  V30 7148 H 666.77 0.557939 6.53121 0
M  V30 7149 H 666.29 -1.0371 5.90766 0
M  V30 7150 H 667.969 -0.747426 6.42668 0
M  V30 7151 N 668.101 -1.57061 -0.130224 0
M  V30 7152 C 669.35 -1.83446 -0.838488 0
M  V30 7153 C 669.663 -0.727468 -1.81569 0
M  V30 7154 O 670.869 -0.877394 -2.56932 0
M  V30 7155 C 669.325 -3.25201 -1.54182 0
M  V30 7156 C 668.933 -4.4388 -0.606178 0
M  V30 7157 C 670.677 -3.60844 -2.23588 0
M  V30 7158 C 668.584 -5.76661 -1.31209 0
M  V30 7159 H 667.514 -0.684185 -0.316871 0
M  V30 7160 H 670.165 -1.83273 -0.0912059 0
M  V30 7161 H 668.547 -3.1981 -2.33533 0
M  V30 7162 H 669.721 -4.60545 0.153308 0
M  V30 7163 H 668.036 -4.16395 -0.0196705 0
M  V30 7164 H 670.633 -4.57313 -2.77072 0
M  V30 7165 H 670.976 -2.87724 -3.00867 0
M  V30 7166 H 671.509 -3.67971 -1.51137 0
M  V30 7167 H 668.248 -6.52922 -0.580823 0
M  V30 7168 H 667.768 -5.63902 -2.04387 0
M  V30 7169 H 669.447 -6.20035 -1.8484 0
M  V30 7170 N 669.579 0.400081 -1.52437 0
M  V30 7171 C 670.807 1.16768 -1.70801 0
M  V30 7172 C 671.222 1.84036 -0.421462 0
M  V30 7173 O 670.579 1.72242 0.603228 0
M  V30 7174 C 670.63 2.22403 -2.8499 0
M  V30 7175 O 670.351 1.57879 -4.08663 0
M  V30 7176 C 671.852 3.11974 -3.1494 0
M  V30 7177 H 669.072 0.350533 -0.57216 0
M  V30 7178 H 671.616 0.469534 -1.99037 0
M  V30 7179 H 669.771 2.87871 -2.59247 0
M  V30 7180 H 670.185 2.27982 -4.7236 0
M  V30 7181 H 671.659 3.82148 -3.9833 0
M  V30 7182 H 672.136 3.74858 -2.28863 0
M  V30 7183 H 672.742 2.52165 -3.42481 0
M  V30 7184 N 671.057 1.43213 0.657864 0
M  V30 7185 C 672.303 1.45795 1.41829 0
M  V30 7186 C 672.658 0.0792176 1.92237 0
M  V30 7187 O 671.951 -0.901406 1.69072 0
M  V30 7188 C 672.145 2.43143 2.61947 0
M  V30 7189 C 671.974 3.90345 2.23295 0
M  V30 7190 C 670.744 4.58749 2.11843 0
M  V30 7191 C 672.942 4.80308 1.83873 0
M  V30 7192 N 670.924 5.90898 1.66473 0
M  V30 7193 C 672.295 6.01693 1.49549 0
M  V30 7194 C 674.35 4.67609 1.71015 0
M  V30 7195 C 673.053 7.11792 1.03657 0
M  V30 7196 C 675.079 5.77707 1.26527 0
M  V30 7197 C 674.441 6.98215 0.931379 0
M  V30 7198 H 670.54 0.588628 0.514822 0
M  V30 7199 H 673.124 1.7936 0.7575 0
M  V30 7200 H 671.295 2.11612 3.25692 0
M  V30 7201 H 673.027 2.36193 3.28626 0
M  V30 7202 H 669.782 4.1319 2.31453 0
M  V30 7203 H 670.206 6.61034 1.46163 0
M  V30 7204 H 674.848 3.74902 1.95469 0
M  V30 7205 H 672.566 8.04332 0.779502 0
M  V30 7206 H 676.152 5.69899 1.17074 0
M  V30 7207 H 675.032 7.81959 0.592379 0
M  V30 7208 N 672.536 -0.895792 1.29666 0
M  V30 7209 C 673.764 -1.68001 1.20761 0
M  V30 7210 C 674.179 -1.87379 -0.231187 0
M  V30 7211 O 673.536 -1.41359 -1.15429 0
M  V30 7212 C 673.587 -3.06236 1.92098 0
M  V30 7213 O 673.308 -2.8774 3.30359 0
M  V30 7214 C 674.809 -4.00652 1.89717 0
M  V30 7215 H 672.029 -0.524591 0.418384 0
M  V30 7216 H 674.573 -1.11995 1.71106 0
M  V30 7217 H 672.728 -3.59007 1.45578 0
M  V30 7218 H 673.142 -3.75359 3.66342 0
M  V30 7219 H 674.616 -4.95051 2.44189 0
M  V30 7220 H 675.093 -4.30424 0.873595 0
M  V30 7221 H 675.699 -3.53815 2.35998 0
M  V30 7222 N 674.014 -1.12206 -1.10668 0
M  V30 7223 C 675.425 -0.890657 -1.64086 0
M  V30 7224 C 675.776 0.575502 -1.8757 0
M  V30 7225 O 674.901 1.4394 -1.61587 0
M  V30 7226 C 675.496 -1.61029 -2.98085 0
M  V30 7227 C 674.055 -1.4251 -3.48379 0
M  V30 7228 C 673.202 -1.64778 -2.23033 0
M  V30 7229 H 676.153 -1.27718 -0.94201 0
M  V30 7230 H 676.174 -1.05993 -3.65439 0
M  V30 7231 H 675.686 -2.67735 -2.80962 0
M  V30 7232 H 673.787 -0.380497 -3.70652 0
M  V30 7233 H 673.9 -2.17959 -4.26651 0
M  V30 7234 H 672.264 -1.07171 -2.31055 0
M  V30 7235 H 673.047 -2.72776 -2.08443 0
M  V30 7236 N 675.492 1.28418 -0.913599 0
M  V30 7237 C 676.722 1.98817 -0.56172 0
M  V30 7238 C 677.13 1.68457 0.861321 0
M  V30 7239 O 676.473 0.933653 1.58204 0
M  V30 7240 C 676.535 3.52801 -0.690785 0
M  V30 7241 C 676.199 4.0675 -2.08334 0
M  V30 7242 C 677.196 4.20597 -3.05604 0
M  V30 7243 C 674.881 4.41445 -2.39648 0
M  V30 7244 C 676.875 4.68392 -4.32305 0
M  V30 7245 C 674.562 4.88934 -3.66588 0
M  V30 7246 C 675.56 5.02364 -4.6273 0
M  V30 7247 O 675.248 5.48817 -5.87414 0
M  V30 7248 H 674.98 0.641608 -0.212874 0
M  V30 7249 H 677.534 1.64584 -1.22887 0
M  V30 7250 H 675.764 3.86686 0.0334336 0
M  V30 7251 H 677.453 4.04422 -0.346031 0
M  V30 7252 H 678.219 3.94067 -2.8273 0
M  V30 7253 H 674.098 4.30242 -1.65567 0
M  V30 7254 H 677.642 4.7879 -5.07352 0
M  V30 7255 H 673.539 5.14904 -3.89287 0
M  V30 7256 H 674.307 5.67103 -5.90201 0
M  V30 7257 N 676.97 0.677563 1.42291 0
M  V30 7258 C 677.918 -0.0106755 2.32598 0
M  V30 7259 C 678.912 -0.787643 1.49975 0
M  V30 7260 O 680.118 -0.695295 1.66029 0
M  V30 7261 H 676.493 -0.0222482 0.751671 0
M  V30 7262 H 678.464 0.768312 2.88339 0
M  V30 7263 C 677.213 -0.946142 3.3458 0
M  V30 7264 H 676.536 -0.357701 3.98197 0
M  V30 7265 H 677.976 -1.39634 4.00348 0
M  V30 7266 C 676.435 -2.05383 2.67057 0
M  V30 7267 O 676.965 -3.1406 2.50458 0
M  V30 7268 N 675.171 -1.82635 2.26038 0
M  V30 7269 H 674.718 -0.942534 2.39737 0
M  V30 7270 H 674.676 -2.56937 1.81192 0
M  V30 7271 N 678.448 -1.51871 0.421078 0
M  V30 7272 C 679.697 -2.01125 -0.152206 0
M  V30 7273 C 680.01 -1.3106 -1.45199 0
M  V30 7274 O 681.216 -1.71195 -2.10724 0
M  V30 7275 C 679.672 -3.58458 -0.3218 0
M  V30 7276 C 679.28 -4.37448 0.96659 0
M  V30 7277 C 681.024 -4.15908 -0.84973 0
M  V30 7278 C 678.931 -5.86451 0.763529 0
M  V30 7279 H 677.861 -0.751556 -0.0606565 0
M  V30 7280 H 680.512 -1.75115 0.548354 0
M  V30 7281 H 678.894 -3.80847 -1.08498 0
M  V30 7282 H 680.068 -4.26814 1.73684 0
M  V30 7283 H 678.383 -3.91373 1.42183 0
M  V30 7284 H 680.98 -5.24922 -1.01788 0
M  V30 7285 H 681.323 -3.74031 -1.82774 0
M  V30 7286 H 681.856 -3.97535 -0.145297 0
M  V30 7287 H 678.595 -6.3271 1.71344 0
M  V30 7288 H 678.115 -5.99791 0.0327889 0
M  V30 7289 H 679.794 -6.45697 0.410354 0
M  V30 7290 N 679.926 -0.151884 -1.56866 0
M  V30 7291 C 680.859 0.824094 -2.128 0
M  V30 7292 C 681.837 1.2391 -1.05286 0
M  V30 7293 O 683.021 1.33433 -1.33146 0
M  V30 7294 C 680.148 2.1072 -2.65169 0
M  V30 7295 C 679.194 1.83774 -3.84876 0
M  V30 7296 S 680.027 1.02436 -5.25611 0
M  V30 7297 C 681.183 2.31855 -5.81373 0
M  V30 7298 H 681.416 0.348456 -2.95251 0
M  V30 7299 H 678.949 0.0624794 -1.54274 0
M  V30 7300 H 680.907 2.84428 -2.95992 0
M  V30 7301 H 679.568 2.55398 -1.8284 0
M  V30 7302 H 678.761 2.78929 -4.19779 0
M  V30 7303 H 678.363 1.18172 -3.5484 0
M  V30 7304 H 680.655 3.27469 -5.93102 0
M  V30 7305 H 681.598 2.01449 -6.7884 0
M  V30 7306 H 682.006 2.42727 -5.09651 0
M  V30 7307 N 681.404 1.57128 0.121893 0
M  V30 7308 C 682.65 1.84974 0.831418 0
M  V30 7309 C 682.983 0.737204 1.79663 0
M  V30 7310 O 682.258 -0.257199 1.92792 0
M  V30 7311 C 682.541 3.23397 1.58386 0
M  V30 7312 C 682.394 4.45246 0.638445 0
M  V30 7313 C 683.713 3.59355 2.54071 0
M  V30 7314 H 680.832 0.67282 0.300803 0
M  V30 7315 H 683.474 1.89759 0.0957587 0
M  V30 7316 H 681.624 3.19449 2.21098 0
M  V30 7317 H 683.296 4.61295 0.0203925 0
M  V30 7318 H 681.539 4.33771 -0.05023 0
M  V30 7319 H 682.21 5.38765 1.20151 0
M  V30 7320 H 684.686 3.64075 2.01465 0
M  V30 7321 H 683.562 4.57193 3.03752 0
M  V30 7322 H 683.823 2.86622 3.36601 0
M  V30 7323 N 682.882 -0.391992 1.52647 0
M  V30 7324 C 683.812 -1.48517 1.8018 0
M  V30 7325 C 684.793 -1.57039 0.653667 0
M  V30 7326 O 685.978 -1.72036 0.900962 0
M  V30 7327 C 683.108 -2.86161 1.96797 0
M  V30 7328 C 682.062 -2.92481 3.12472 0
M  V30 7329 C 681.388 -4.32546 3.14338 0
M  V30 7330 C 682.688 -2.624 4.51601 0
M  V30 7331 H 684.382 -1.25726 2.71723 0
M  V30 7332 H 681.928 -0.603387 1.30749 0
M  V30 7333 H 683.881 -3.62639 2.14641 0
M  V30 7334 H 682.605 -3.10283 1.01941 0
M  V30 7335 H 681.264 -2.18451 2.94406 0
M  V30 7336 H 680.912 -4.53703 2.1717 0
M  V30 7337 H 680.612 -4.37695 3.92042 0
M  V30 7338 H 682.136 -5.10934 3.34333 0
M  V30 7339 H 683.55 -3.28596 4.69785 0
M  V30 7340 H 681.947 -2.78903 5.3135 0
M  V30 7341 H 683.017 -1.57754 4.58521 0
M  V30 7342 N 684.36 -1.4356 -0.65026 0
M  V30 7343 C 685.606 -1.45549 -1.41221 0
M  V30 7344 C 685.939 -0.0805472 -1.94033 0
M  V30 7345 O 685.214 0.899043 -1.72475 0
M  V30 7346 C 685.497 -2.50028 -2.59148 0
M  V30 7347 C 685.35 -3.96808 -2.1181 0
M  V30 7348 C 686.669 -2.51212 -3.61359 0
M  V30 7349 H 683.788 -0.529967 -0.512156 0
M  V30 7350 H 686.43 -1.75127 -0.736933 0
M  V30 7351 H 684.58 -2.24937 -3.16758 0
M  V30 7352 H 686.252 -4.32966 -1.59178 0
M  V30 7353 H 684.495 -4.09498 -1.43156 0
M  V30 7354 H 685.166 -4.6553 -2.96625 0
M  V30 7355 H 687.642 -2.73583 -3.13515 0
M  V30 7356 H 686.518 -3.26252 -4.41419 0
M  V30 7357 H 686.779 -1.54701 -4.1415 0
M  V30 7358 N 685.838 0.888903 -1.30139 0
M  V30 7359 C 687.063 1.67884 -1.21777 0
M  V30 7360 C 687.488 1.86848 0.216689 0
M  V30 7361 O 686.846 1.39659 1.15608 0
M  V30 7362 C 686.894 3.03483 -1.94757 0
M  V30 7363 O 685.998 3.92294 -1.27198 0
M  V30 7364 H 685.339 0.513144 -0.421402 0
M  V30 7365 H 687.869 1.10968 -1.71893 0
M  V30 7366 H 687.879 3.53553 -2.03627 0
M  V30 7367 H 686.554 2.89 -2.99085 0
M  V30 7368 H 685.131 3.50732 -1.26655 0
M  V30 7369 N 687.317 1.12792 1.10072 0
M  V30 7370 C 688.545 0.908506 1.85886 0
M  V30 7371 C 688.96 -0.542408 1.80841 0
M  V30 7372 O 688.317 -1.37517 1.1998 0
M  V30 7373 C 688.368 1.37973 3.34134 0
M  V30 7374 O 688.089 2.77378 3.39106 0
M  V30 7375 C 689.59 1.1978 4.26811 0
M  V30 7376 H 686.81 0.3244 0.587372 0
M  V30 7377 H 689.354 1.49882 1.39125 0
M  V30 7378 H 687.509 0.832566 3.78348 0
M  V30 7379 H 687.923 2.98144 4.31521 0
M  V30 7380 H 689.397 1.57635 5.29014 0
M  V30 7381 H 689.874 0.138768 4.38981 0
M  V30 7382 H 690.48 1.73266 3.88406 0
M  V30 7383 N 688.795 -1.27931 0.920396 0
M  V30 7384 C 690.042 -1.94689 0.557007 0
M  V30 7385 C 690.37 -1.724 -0.900476 0
M  V30 7386 O 689.625 -1.04194 -1.65657 0
M  V30 7387 C 689.924 -3.47853 0.820558 0
M  V30 7388 C 689.59 -3.90252 2.25863 0
M  V30 7389 C 688.252 -4.01539 2.65179 0
M  V30 7390 C 690.604 -4.11853 3.19415 0
M  V30 7391 C 687.932 -4.3181 3.97187 0
M  V30 7392 C 690.284 -4.43606 4.50995 0
M  V30 7393 C 688.948 -4.53105 4.90155 0
M  V30 7394 H 688.218 -0.712416 0.203823 0
M  V30 7395 H 690.865 -1.52142 1.16298 0
M  V30 7396 H 689.17 -3.91578 0.131844 0
M  V30 7397 H 690.867 -3.97634 0.51847 0
M  V30 7398 H 687.457 -3.81999 1.94358 0
M  V30 7399 H 691.641 -4.0258 2.90246 0
M  V30 7400 H 686.897 -4.37371 4.2722 0
M  V30 7401 H 691.071 -4.59268 5.23494 0
M  V30 7402 H 688.698 -4.76315 5.92476 0
M  V30 7403 N 690.273 -0.685099 -1.4193 0
M  V30 7404 C 691.513 -0.215676 -2.03259 0
M  V30 7405 C 691.877 1.15934 -1.53047 0
M  V30 7406 O 693.078 1.72401 -2.06231 0
M  V30 7407 C 691.349 -0.259649 -3.56456 0
M  V30 7408 S 692.908 0.137262 -4.38585 0
M  V30 7409 H 689.726 -0.0877362 -0.705566 0
M  V30 7410 H 692.328 -0.900547 -1.73523 0
M  V30 7411 H 691.032 -1.26256 -3.90497 0
M  V30 7412 H 690.563 0.444716 -3.90878 0
M  V30 7413 H 692.578 1.36787 -4.76973 0
M  V30 7414 N 691.751 1.51645 -0.429126 0
M  V30 7415 C 693.028 1.94579 0.199614 0
M  V30 7416 C 693.408 1.3673 1.60836 0
M  V30 7417 O 692.756 0.551062 2.21756 0
M  V30 7418 C 692.966 3.48506 0.185685 0
M  V30 7419 C 694.314 4.22756 0.395282 0
M  V30 7420 O 695.338 3.55219 0.264165 0
M  V30 7421 O 694.197 5.42555 0.655475 0
M  V30 7422 H 691.291 0.816007 0.134393 0
M  V30 7423 H 693.837 1.62577 -0.486513 0
M  V30 7424 H 692.609 3.83045 -0.799508 0
M  V30 7425 H 692.232 3.86927 0.91507 0
M  V30 7426 N 693.229 0.160201 1.56784 0
M  V30 7427 C 694.176 -0.774416 2.1742 0
M  V30 7428 C 695.146 -1.23483 1.11091 0
M  V30 7429 O 696.331 -1.30499 1.39193 0
M  V30 7430 C 693.471 -2.00283 2.81035 0
M  V30 7431 C 692.584 -1.58701 4.01793 0
M  V30 7432 C 691.719 -2.76824 4.53367 0
M  V30 7433 C 690.758 -2.31679 5.66561 0
M  V30 7434 N 689.895 -3.42856 6.12694 0
M  V30 7435 H 694.735 -0.250542 2.96945 0
M  V30 7436 H 692.272 -0.111943 1.46673 0
M  V30 7437 H 694.23 -2.72316 3.16069 0
M  V30 7438 H 692.86 -2.5006 2.04132 0
M  V30 7439 H 691.912 -0.76384 3.72652 0
M  V30 7440 H 693.224 -1.21555 4.83762 0
M  V30 7441 H 692.378 -3.57029 4.90525 0
M  V30 7442 H 691.117 -3.17223 3.70433 0
M  V30 7443 H 690.122 -1.49917 5.28966 0
M  V30 7444 H 691.347 -1.9235 6.5129 0
M  V30 7445 H 689.293 -3.82852 5.32692 0
M  V30 7446 H 689.21 -3.09767 6.89624 0
M  V30 7447 H 690.478 -4.23379 6.545 0
M  V30 7448 N 694.707 -1.5719 -0.113559 0
M  V30 7449 C 695.947 -1.86958 -0.82621 0
M  V30 7450 C 696.311 -0.748884 -1.76793 0
M  V30 7451 O 697.512 -0.92847 -2.52256 0
M  V30 7452 C 695.783 -3.21957 -1.55173 0
M  V30 7453 S 697.342 -3.73371 -2.3052 0
M  V30 7454 H 694.16 -0.655394 -0.275643 0
M  V30 7455 H 696.762 -1.95318 -0.0842684 0
M  V30 7456 H 695.466 -4.01459 -0.851977 0
M  V30 7457 H 694.997 -3.16688 -2.33393 0
M  V30 7458 H 697.012 -3.45308 -3.56338 0
M  V30 7459 N 696.185 0.383891 -1.52853 0
M  V30 7460 C 697.431 1.13009 -1.68395 0
M  V30 7461 C 697.764 1.89488 -0.425195 0
M  V30 7462 O 697.039 1.8574 0.577136 0
M  V30 7463 C 697.322 2.10419 -2.92226 0
M  V30 7464 C 697.175 1.3767 -4.28214 0
M  V30 7465 C 698.494 3.10781 -3.11614 0
M  V30 7466 H 695.613 0.409463 -0.612788 0
M  V30 7467 H 698.255 0.412895 -1.85459 0
M  V30 7468 H 696.405 2.71579 -2.77808 0
M  V30 7469 H 698.077 0.794352 -4.54409 0
M  V30 7470 H 696.32 0.678533 -4.2846 0
M  V30 7471 H 696.991 2.08874 -5.10956 0
M  V30 7472 H 699.467 2.59715 -3.25096 0
M  V30 7473 H 698.343 3.76179 -3.99725 0
M  V30 7474 H 698.604 3.79933 -2.2606 0
M  V30 7475 N 697.663 1.43903 0.642637 0
M  V30 7476 C 699.074 1.40975 1.22404 0
M  V30 7477 C 699.425 0.1192 1.95838 0
M  V30 7478 O 698.55 -0.780939 2.01818 0
M  V30 7479 C 699.145 2.5538 2.22636 0
M  V30 7480 C 697.704 2.55684 2.76229 0
M  V30 7481 C 696.851 2.32556 1.51039 0
M  V30 7482 H 699.802 1.5265 0.434006 0
M  V30 7483 H 699.823 2.27474 3.05017 0
M  V30 7484 H 699.335 3.49294 1.69161 0
M  V30 7485 H 697.436 1.65679 3.33738 0
M  V30 7486 H 697.549 3.53799 3.23053 0
M  V30 7487 H 695.913 1.81427 1.78764 0
M  V30 7488 H 696.696 3.28569 0.99484 0
M  V30 7489 N 699.141 -0.881989 1.30609 0
M  V30 7490 C 700.387 -1.63647 1.19781 0
M  V30 7491 C 700.72 -1.92632 -0.246265 0
M  V30 7492 O 699.995 -1.54938 -1.17577 0
M  V30 7493 C 700.278 -2.97437 2.02985 0
M  V30 7494 C 700.131 -2.75406 3.55628 0
M  V30 7495 C 701.45 -3.98397 1.86997 0
M  V30 7496 H 698.569 -0.593841 0.436488 0
M  V30 7497 H 701.211 -1.02041 1.60273 0
M  V30 7498 H 699.361 -3.50018 1.68581 0
M  V30 7499 H 701.033 -2.2959 4.00107 0
M  V30 7500 H 699.276 -2.09856 3.79662 0
M  V30 7501 H 699.947 -3.70552 4.09139 0
M  V30 7502 H 702.423 -3.54986 2.17081 0
M  V30 7503 H 701.299 -4.89916 2.47536 0
M  V30 7504 H 701.56 -4.3424 0.829943 0
M  V30 7505 N 700.619 -1.13374 -1.09472 0
M  V30 7506 C 701.847 -0.918351 -1.85402 0
M  V30 7507 C 702.262 0.53281 -1.81126 0
M  V30 7508 O 701.619 1.36879 -1.20708 0
M  V30 7509 C 701.67 -1.39743 -3.33398 0
M  V30 7510 O 701.391 -2.79172 -3.37631 0
M  V30 7511 C 702.892 -1.22042 -4.2617 0
M  V30 7512 H 700.112 -0.327511 -0.585643 0
M  V30 7513 H 702.656 -1.50617 -1.38328 0
M  V30 7514 H 700.811 -0.852619 -3.77901 0
M  V30 7515 H 701.225 -3.00428 -4.29934 0
M  V30 7516 H 702.699 -1.60438 -5.2817 0
M  V30 7517 H 703.176 -0.162047 -4.38901 0
M  V30 7518 H 703.782 -1.75323 -3.87482 0
M  V30 7519 N 702.098 1.27442 -0.927168 0
M  V30 7520 C 703.028 2.29256 -0.443188 0
M  V30 7521 C 704.009 1.62701 0.49624 0
M  V30 7522 O 705.194 1.90013 0.401105 0
M  V30 7523 C 702.324 3.45955 0.305366 0
M  V30 7524 C 701.278 4.24501 -0.546178 0
M  V30 7525 C 700.604 5.33671 0.331512 0
M  V30 7526 C 701.904 4.89921 -1.81037 0
M  V30 7527 H 703.598 2.69988 -1.29409 0
M  V30 7528 H 701.144 1.29792 -0.623705 0
M  V30 7529 H 703.097 4.1628 0.654885 0
M  V30 7530 H 701.821 3.04138 1.19029 0
M  V30 7531 H 700.48 3.55921 -0.878398 0
M  V30 7532 H 700.128 4.88096 1.21537 0
M  V30 7533 H 699.828 5.87131 -0.234746 0
M  V30 7534 H 701.352 6.0684 0.676614 0
M  V30 7535 H 702.766 5.52536 -1.52895 0
M  V30 7536 H 701.163 5.53436 -2.32009 0
M  V30 7537 H 702.233 4.13652 -2.53021 0
M  V30 7538 N 703.576 0.692616 1.41565 0
M  V30 7539 C 704.822 0.231408 2.02079 0
M  V30 7540 C 705.177 -1.15514 1.53864 0
M  V30 7541 O 704.47 -1.76786 0.73873 0
M  V30 7542 C 704.664 0.225073 3.56691 0
M  V30 7543 C 704.493 1.60947 4.19912 0
M  V30 7544 C 703.263 2.2116 4.54331 0
M  V30 7545 C 705.461 2.55553 4.46315 0
M  V30 7546 N 703.443 3.52195 5.02824 0
M  V30 7547 C 704.814 3.71263 4.96552 0
M  V30 7548 C 706.869 2.53857 4.28323 0
M  V30 7549 C 705.572 4.85555 5.30687 0
M  V30 7550 C 707.598 3.67259 4.63546 0
M  V30 7551 C 706.96 4.81699 5.13951 0
M  V30 7552 H 703.059 0.130001 0.771119 0
M  V30 7553 H 705.643 0.909459 1.72154 0
M  V30 7554 H 703.814 -0.422453 3.86096 0
M  V30 7555 H 705.546 -0.250685 4.03923 0
M  V30 7556 H 702.301 1.73474 4.40685 0
M  V30 7557 H 702.725 4.19354 5.3148 0
M  V30 7558 H 707.367 1.66598 3.88594 0
M  V30 7559 H 705.085 5.73477 5.69341 0
M  V30 7560 H 708.671 3.67195 4.51286 0
M  V30 7561 H 707.551 5.67995 5.40695 0
M  V30 7562 N 705.054 -1.51416 0.437162 0
M  V30 7563 C 706.004 -2.24599 -0.392311 0
M  V30 7564 C 706.988 -1.2682 -0.990221 0
M  V30 7565 O 708.18 -1.51912 -0.908391 0
M  V30 7566 C 705.309 -3.09134 -1.49301 0
M  V30 7567 C 704.395 -4.14342 -0.904503 0
M  V30 7568 N 704.786 -5.0578 -0.0451511 0
M  V30 7569 C 703.084 -4.30323 -1.1721 0
M  V30 7570 C 703.785 -5.81 0.285344 0
M  V30 7571 N 702.761 -5.42591 -0.330993 0
M  V30 7572 H 706.563 -2.92655 0.270221 0
M  V30 7573 H 704.077 -1.60476 0.249226 0
M  V30 7574 H 706.074 -3.6014 -2.10011 0
M  V30 7575 H 704.734 -2.42622 -2.15788 0
M  V30 7576 H 705.745 -5.16903 0.321271 0
M  V30 7577 H 702.422 -3.75037 -1.83448 0
M  V30 7578 H 703.812 -6.64646 0.984626 0
M  V30 7579 N 706.532 -0.168513 -1.56696 0
M  V30 7580 C 707.462 0.758563 -2.20835 0
M  V30 7581 C 708.443 1.24121 -1.1631 0
M  V30 7582 O 709.628 1.29487 -1.4473 0
M  V30 7583 C 706.758 1.9892 -2.8469 0
M  V30 7584 C 705.712 1.64252 -3.95228 0
M  V30 7585 C 705.038 2.94757 -4.46119 0
M  V30 7586 C 706.338 0.872675 -5.14958 0
M  V30 7587 H 708.032 0.223953 -2.98561 0
M  V30 7588 H 705.578 0.106277 -1.43607 0
M  V30 7589 H 707.531 2.64275 -3.28233 0
M  V30 7590 H 706.255 2.5479 -2.04327 0
M  V30 7591 H 704.914 1.01266 -3.52336 0
M  V30 7592 H 704.562 3.48662 -3.62552 0
M  V30 7593 H 704.262 2.72316 -5.2069 0
M  V30 7594 H 705.786 3.61147 -4.92347 0
M  V30 7595 H 707.2 1.42875 -5.55211 0
M  V30 7596 H 705.597 0.747402 -5.95428 0
M  V30 7597 H 706.667 -0.131535 -4.84722 0
M  V30 7598 N 708.01 1.57248 0.105221 0
M  V30 7599 C 709.258 1.85204 0.808951 0
M  V30 7600 C 709.579 0.75574 1.7976 0
M  V30 7601 O 708.849 -0.218984 1.94672 0
M  V30 7602 H 707.429 0.683346 0.301739 0
M  V30 7603 H 710.091 1.94695 0.0892605 0
M  V30 7604 H 709.187 2.81595 1.34575 0
M  V30 7605 N 709.488 -0.375779 1.53054 0
M  V30 7606 C 710.718 -1.1387 1.72386 0
M  V30 7607 C 711.126 -1.8382 0.447966 0
M  V30 7608 O 710.469 -1.74027 -0.588244 0
M  V30 7609 C 710.531 -2.22047 2.82728 0
M  V30 7610 C 710.195 -1.71951 4.23417 0
M  V30 7611 C 711.192 -1.18909 5.06119 0
M  V30 7612 C 708.877 -1.77773 4.69789 0
M  V30 7613 C 710.871 -0.723529 6.3328 0
M  V30 7614 C 708.558 -1.30829 5.96931 0
M  V30 7615 C 709.556 -0.782077 6.78508 0
M  V30 7616 O 709.244 -0.319529 8.03265 0
M  V30 7617 H 708.976 -0.346835 0.580242 0
M  V30 7618 H 711.53 -0.443748 2.00549 0
M  V30 7619 H 709.76 -2.95006 2.50017 0
M  V30 7620 H 711.449 -2.83654 2.90336 0
M  V30 7621 H 712.215 -1.13758 4.7147 0
M  V30 7622 H 708.094 -2.17673 4.06373 0
M  V30 7623 H 711.638 -0.312126 6.96901 0
M  V30 7624 H 707.535 -1.3567 6.31081 0
M  V30 7625 H 708.303 -0.439796 8.17318 0
M  V30 7626 N 710.966 -1.44241 -0.634997 0
M  V30 7627 C 712.212 -1.48033 -1.39492 0
M  V30 7628 C 712.567 -0.109791 -1.92086 0
M  V30 7629 O 711.86 0.874394 -1.70484 0
M  V30 7630 C 712.054 -2.47279 -2.58046 0
M  V30 7631 C 711.883 -3.93848 -2.17057 0
M  V30 7632 C 710.653 -4.62061 -2.04518 0
M  V30 7633 C 712.851 -4.83172 -1.76208 0
M  V30 7634 N 710.833 -5.93471 -1.57051 0
M  V30 7635 C 712.204 -6.03996 -1.39958 0
M  V30 7636 C 714.259 -4.70271 -1.63554 0
M  V30 7637 C 712.962 -7.13351 -0.923196 0
M  V30 7638 C 714.988 -5.79646 -1.1732 0
M  V30 7639 C 714.35 -6.99609 -0.820181 0
M  V30 7640 H 710.449 -0.596743 -0.505392 0
M  V30 7641 H 713.033 -1.80542 -0.72887 0
M  V30 7642 H 711.204 -2.16766 -3.22284 0
M  V30 7643 H 712.936 -2.41391 -3.24827 0
M  V30 7644 H 709.691 -4.1682 -2.24851 0
M  V30 7645 H 710.115 -6.63275 -1.35628 0
M  V30 7646 H 714.757 -3.77964 -1.8948 0
M  V30 7647 H 712.475 -8.0547 -0.651441 0
M  V30 7648 H 716.061 -5.71689 -1.07993 0
M  V30 7649 H 714.941 -7.82803 -0.467901 0
M  V30 7650 N 712.444 0.87505 -1.31075 0
M  V30 7651 C 713.374 1.99775 -1.20881 0
M  V30 7652 C 714.355 1.69822 -0.0971612 0
M  V30 7653 O 715.54 1.92158 -0.280895 0
M  V30 7654 C 712.67 3.35163 -0.910118 0
M  V30 7655 C 711.624 3.79406 -1.98078 0
M  V30 7656 C 710.95 5.12197 -1.53488 0
M  V30 7657 C 712.25 3.97061 -3.39323 0
M  V30 7658 H 713.944 2.08562 -2.14808 0
M  V30 7659 H 711.49 1.00207 -1.03415 0
M  V30 7660 H 713.443 4.13237 -0.825423 0
M  V30 7661 H 712.167 3.26536 0.064822 0
M  V30 7662 H 710.826 3.03568 -2.05528 0
M  V30 7663 H 710.474 5.00007 -0.547941 0
M  V30 7664 H 710.174 5.4277 -2.2511 0
M  V30 7665 H 711.698 5.92785 -1.46417 0
M  V30 7666 H 713.112 4.65545 -3.34576 0
M  V30 7667 H 711.509 4.39025 -4.09118 0
M  V30 7668 H 712.579 3.00601 -3.80483 0
M  V30 7669 N 713.922 1.13953 1.08869 0
M  V30 7670 C 715.162 0.915128 1.8277 0
M  V30 7671 C 715.526 -0.548647 1.83994 0
M  V30 7672 O 716.727 -0.890817 2.5361 0
M  V30 7673 C 714.998 1.49382 3.24684 0
M  V30 7674 S 716.557 1.4103 4.15519 0
M  V30 7675 H 713.375 0.329716 0.629927 0
M  V30 7676 H 715.977 1.45213 1.30895 0
M  V30 7677 H 714.681 2.55241 3.21372 0
M  V30 7678 H 714.212 0.955008 3.81632 0
M  V30 7679 H 716.227 0.392617 4.94644 0
M  V30 7680 N 715.4 -1.26948 0.933913 0
M  V30 7681 C 716.63 -1.97898 0.593279 0
M  V30 7682 C 717.038 -1.69806 -0.834412 0
M  V30 7683 O 716.381 -0.958704 -1.56699 0
M  V30 7684 C 716.443 -3.51657 0.746825 0
M  V30 7685 C 716.107 -4.03384 2.14779 0
M  V30 7686 C 717.104 -4.15682 3.12257 0
M  V30 7687 C 714.789 -4.37577 2.46641 0
M  V30 7688 C 716.783 -4.61455 4.39702 0
M  V30 7689 C 714.47 -4.8304 3.7432 0
M  V30 7690 C 715.468 -4.94939 4.70664 0
M  V30 7691 O 715.156 -5.39403 5.96071 0
M  V30 7692 H 714.888 -0.63814 0.223055 0
M  V30 7693 H 717.442 -1.62608 1.2549 0
M  V30 7694 H 715.672 -3.8669 0.0280889 0
M  V30 7695 H 717.361 -4.03821 0.410328 0
M  V30 7696 H 718.127 -3.89519 2.88964 0
M  V30 7697 H 714.006 -4.27554 1.72391 0
M  V30 7698 H 717.55 -4.70658 5.14905 0
M  V30 7699 H 713.447 -5.08646 3.97429 0
M  V30 7700 H 714.215 -5.57641 5.99148 0
M  V30 7701 N 716.879 -0.700114 -1.41195 0
M  V30 7702 C 718.125 -0.233351 -2.01453 0
M  V30 7703 C 718.458 1.16548 -1.55339 0
M  V30 7704 O 717.733 1.78756 -0.766575 0
M  V30 7705 C 718.016 -0.2961 -3.58881 0
M  V30 7706 C 717.869 -1.7322 -4.15108 0
M  V30 7707 C 719.188 0.341525 -4.38773 0
M  V30 7708 H 716.307 -0.0862667 -0.731934 0
M  V30 7709 H 718.949 -0.889693 -1.67882 0
M  V30 7710 H 717.099 0.262736 -3.87611 0
M  V30 7711 H 718.771 -2.34523 -3.97236 0
M  V30 7712 H 717.014 -2.2649 -3.69979 0
M  V30 7713 H 717.685 -1.7276 -5.24269 0
M  V30 7714 H 720.161 -0.134461 -4.15883 0
M  V30 7715 H 719.037 0.267098 -5.4825 0
M  V30 7716 H 719.298 1.42289 -4.18577 0
M  V30 7717 N 718.357 1.51182 -0.445186 0
M  V30 7718 C 719.305 2.29531 0.376597 0
M  V30 7719 C 720.299 1.35711 1.01385 0
M  V30 7720 O 721.505 1.53018 0.947922 0
M  V30 7721 H 717.88 0.738803 0.140267 0
M  V30 7722 H 719.851 2.96838 -0.304958 0
M  V30 7723 C 718.6 3.1552 1.4609 0
M  V30 7724 H 717.923 3.87605 0.979912 0
M  V30 7725 H 719.363 3.73384 2.009 0
M  V30 7726 C 717.822 2.31406 2.44852 0
M  V30 7727 O 718.352 1.97912 3.49562 0
M  V30 7728 N 716.558 1.94478 2.15932 0
M  V30 7729 H 716.105 2.21917 1.30808 0
M  V30 7730 H 716.063 1.38498 2.82251 0
M  V30 7731 N 719.835 0.176821 1.56605 0
M  V30 7732 C 721.06 -0.47599 2.01864 0
M  V30 7733 C 721.485 -1.55645 1.05623 0
M  V30 7734 O 720.843 -1.81263 0.0366729 0
M  V30 7735 C 720.891 -1.02619 3.4569 0
M  V30 7736 O 719.995 -2.13996 3.52533 0
M  V30 7737 H 719.336 -0.113363 0.654251 0
M  V30 7738 H 721.866 0.28233 2.02643 0
M  V30 7739 H 721.876 -1.34742 3.85109 0
M  V30 7740 H 720.551 -0.235138 4.15235 0
M  V30 7741 H 719.128 -1.82876 3.24978 0
M  V30 7742 N 721.313 -1.57302 -0.09688 0
M  V30 7743 C 722.541 -1.90202 -0.814295 0
M  V30 7744 C 722.956 -0.770344 -1.72369 0
M  V30 7745 O 722.313 0.257764 -1.8067 0
M  V30 7746 C 722.364 -3.22708 -1.62916 0
M  V30 7747 O 722.085 -4.31522 -0.756343 0
M  V30 7748 C 723.586 -3.69459 -2.44979 0
M  V30 7749 H 720.806 -0.629275 -0.232925 0
M  V30 7750 H 723.35 -2.04364 -0.0746482 0
M  V30 7751 H 721.505 -3.1015 -2.32133 0
M  V30 7752 H 721.919 -5.07604 -1.32054 0
M  V30 7753 H 723.393 -4.64875 -2.9765 0
M  V30 7754 H 723.87 -2.97211 -3.23361 0
M  V30 7755 H 724.476 -3.84879 -1.80964 0
M  V30 7756 N 722.791 0.367657 -1.53252 0
M  V30 7757 C 724.037 1.11216 -1.69584 0
M  V30 7758 C 724.37 1.89026 -0.445269 0
M  V30 7759 O 723.645 1.86342 0.557404 0
M  V30 7760 C 723.928 2.07308 -2.94441 0
M  V30 7761 C 723.781 1.3312 -4.2965 0
M  V30 7762 C 725.1 3.07459 -3.14892 0
M  V30 7763 H 722.219 0.40294 -0.617096 0
M  V30 7764 H 724.861 0.393201 -1.85887 0
M  V30 7765 H 723.011 2.68617 -2.80673 0
M  V30 7766 H 724.683 0.746111 -4.55226 0
M  V30 7767 H 722.926 0.633051 -4.29156 0
M  V30 7768 H 723.597 2.03443 -5.13142 0
M  V30 7769 H 726.073 2.56252 -3.27832 0
M  V30 7770 H 724.949 3.71919 -4.03693 0
M  V30 7771 H 725.21 3.77514 -2.30077 0
M  V30 7772 N 724.269 1.44576 0.627338 0
M  V30 7773 C 725.217 1.52039 1.76031 0
M  V30 7774 C 726.211 0.391796 1.64807 0
M  V30 7775 O 727.417 0.5669 1.7084 0
M  V30 7776 H 723.792 0.477165 0.581221 0
M  V30 7777 H 725.763 2.47387 1.6686 0
M  V30 7778 C 724.512 1.48539 3.14375 0
M  V30 7779 H 723.835 2.34699 3.23661 0
M  V30 7780 H 725.275 1.57821 3.93534 0
M  V30 7781 C 723.734 0.20672 3.36265 0
M  V30 7782 O 724.264 -0.72154 3.95167 0
M  V30 7783 N 722.47 0.108654 2.90397 0
M  V30 7784 H 722.017 0.864884 2.42647 0
M  V30 7785 H 721.975 -0.746121 3.05418 0
M  V30 7786 N 725.747 -0.868086 1.31537 0
M  V30 7787 C 727.158 -1.437 1.19195 0
M  V30 7788 C 727.509 -1.95169 -0.200842 0
M  V30 7789 O 726.634 -1.86432 -1.09872 0
M  V30 7790 C 727.229 -2.612 2.15778 0
M  V30 7791 C 725.788 -3.1413 2.07363 0
M  V30 7792 C 724.935 -1.86845 2.049 0
M  V30 7793 H 727.886 -0.676457 1.43561 0
M  V30 7794 H 727.907 -3.37948 1.74847 0
M  V30 7795 H 727.419 -2.23709 3.17137 0
M  V30 7796 H 725.52 -3.56238 1.09204 0
M  V30 7797 H 725.633 -3.76285 2.96557 0
M  V30 7798 H 723.997 -2.05886 1.49943 0
M  V30 7799 H 724.78 -1.51589 3.08019 0
M  V30 7800 N 727.225 -1.14528 -1.08264 0
M  V30 7801 C 728.474 -0.908992 -1.80056 0
M  V30 7802 C 728.787 0.565859 -1.87236 0
M  V30 7803 O 729.993 0.919454 -2.55457 0
M  V30 7804 C 728.449 -1.57681 -3.23519 0
M  V30 7805 C 728.057 -3.08803 -3.24569 0
M  V30 7806 C 729.801 -1.4217 -3.99985 0
M  V30 7807 C 727.708 -3.68414 -4.62629 0
M  V30 7808 H 726.638 -0.336432 -0.674781 0
M  V30 7809 H 729.289 -1.37437 -1.21587 0
M  V30 7810 H 727.671 -1.03911 -3.82124 0
M  V30 7811 H 728.845 -3.69252 -2.75663 0
M  V30 7812 H 727.16 -3.23968 -2.61598 0
M  V30 7813 H 729.757 -1.84106 -5.02005 0
M  V30 7814 H 730.1 -0.367989 -4.1467 0
M  V30 7815 H 730.633 -1.92984 -3.47853 0
M  V30 7816 H 727.372 -4.73644 -4.53147 0
M  V30 7817 H 726.892 -3.12746 -5.11811 0
M  V30 7818 H 728.571 -3.68793 -5.31602 0
M  V30 7819 N 728.703 1.26451 -0.940633 0
M  V30 7820 C 729.943 1.95537 -0.595381 0
M  V30 7821 C 730.307 1.72175 0.849683 0
M  V30 7822 O 731.508 2.3506 1.30384 0
M  V30 7823 C 729.779 3.45151 -0.927669 0
M  V30 7824 S 731.338 4.33295 -0.69288 0
M  V30 7825 H 728.156 0.676331 -0.219311 0
M  V30 7826 H 730.758 1.53411 -1.21183 0
M  V30 7827 H 729.462 3.59654 -1.9768 0
M  V30 7828 H 728.993 3.92247 -0.300921 0
M  V30 7829 H 731.008 4.94217 0.443175 0
M  V30 7830 N 730.181 0.707592 1.40822 0
M  V30 7831 C 731.411 0.252706 2.05049 0
M  V30 7832 C 731.819 -1.10758 1.53393 0
M  V30 7833 O 731.162 -1.70567 0.682097 0
M  V30 7834 C 731.224 0.146001 3.59203 0
M  V30 7835 C 730.888 1.44027 4.33711 0
M  V30 7836 C 731.885 2.38058 4.62195 0
M  V30 7837 C 729.57 1.69698 4.72766 0
M  V30 7838 C 731.564 3.56013 5.28709 0
M  V30 7839 C 729.251 2.87936 5.39014 0
M  V30 7840 C 730.249 3.80915 5.66915 0
M  V30 7841 O 729.937 4.9708 6.31796 0
M  V30 7842 H 729.669 0.112784 0.666525 0
M  V30 7843 H 732.223 0.96417 1.81364 0
M  V30 7844 H 730.453 -0.621338 3.81676 0
M  V30 7845 H 732.142 -0.273275 4.04979 0
M  V30 7846 H 732.908 2.19487 4.32493 0
M  V30 7847 H 728.787 0.981835 4.50423 0
M  V30 7848 H 732.331 4.28604 5.50404 0
M  V30 7849 H 728.228 3.06419 5.68135 0
M  V30 7850 H 728.996 4.97053 6.50293 0
M  V30 7851 N 731.66 -1.50943 0.453197 0
M  V30 7852 C 732.623 -2.26684 -0.338705 0
M  V30 7853 C 733.623 -1.30748 -0.936032 0
M  V30 7854 O 734.813 -1.54327 -0.808002 0
M  V30 7855 C 731.945 -3.07063 -1.48071 0
M  V30 7856 H 733.138 -2.98131 0.325289 0
M  V30 7857 H 730.691 -1.54926 0.206771 0
M  V30 7858 H 731.426 -2.4007 -2.18029 0
M  V30 7859 H 731.211 -3.77545 -1.0584 0
M  V30 7860 H 732.701 -3.64393 -2.0398 0
M  V30 7861 N 733.138 -0.185124 -1.56509 0
M  V30 7862 C 734.068 0.735098 -2.21627 0
M  V30 7863 C 735.049 1.2288 -1.1762 0
M  V30 7864 O 736.234 1.27945 -1.46095 0
M  V30 7865 C 733.364 1.95889 -2.86783 0
M  V30 7866 C 732.318 1.6005 -3.96948 0
M  V30 7867 C 731.644 2.90009 -4.4922 0
M  V30 7868 C 732.944 0.818008 -5.15855 0
M  V30 7869 H 734.638 0.192274 -2.98782 0
M  V30 7870 H 732.184 0.0910393 -1.43712 0
M  V30 7871 H 734.137 2.60779 -3.31017 0
M  V30 7872 H 732.861 2.52608 -2.07018 0
M  V30 7873 H 731.52 0.975237 -3.5339 0
M  V30 7874 H 731.168 3.44797 -3.6623 0
M  V30 7875 H 730.868 2.66778 -5.23549 0
M  V30 7876 H 732.392 3.55904 -4.9615 0
M  V30 7877 H 733.806 1.36979 -5.56695 0
M  V30 7878 H 732.203 0.684207 -5.96187 0
M  V30 7879 H 733.273 -0.182939 -4.84555 0
M  V30 7880 N 734.616 1.57351 0.0885366 0
M  V30 7881 C 735.856 1.88248 0.796362 0
M  V30 7882 C 736.22 0.776915 1.75579 0
M  V30 7883 O 737.421 0.968485 2.50747 0
M  V30 7884 C 735.692 3.24385 1.50031 0
M  V30 7885 S 737.251 3.76991 2.24551 0
M  V30 7886 H 734.069 0.659697 0.265181 0
M  V30 7887 H 736.671 1.95428 0.0531843 0
M  V30 7888 H 735.375 4.02764 0.788 0
M  V30 7889 H 734.906 3.20361 2.28325 0
M  V30 7890 H 736.921 3.50933 3.508 0
M  V30 7891 N 736.094 -0.359525 1.53444 0
M  V30 7892 C 737.042 -1.46104 1.80987 0
M  V30 7893 C 738.036 -1.55181 0.679351 0
M  V30 7894 O 739.242 -1.57995 0.862405 0
M  V30 7895 H 735.617 -0.486835 0.573145 0
M  V30 7896 H 737.588 -1.2008 2.73173 0
M  V30 7897 C 736.337 -2.82855 2.02208 0
M  V30 7898 H 735.66 -2.76631 2.88644 0
M  V30 7899 H 737.1 -3.59091 2.25455 0
M  V30 7900 C 735.559 -3.27192 0.802931 0
M  V30 7901 O 736.089 -4.017 -0.00544286 0
M  V30 7902 N 734.295 -2.83807 0.624657 0
M  V30 7903 H 733.842 -2.23339 1.28364 0
M  V30 7904 H 733.8 -3.13828 -0.189641 0
M  V30 7905 N 737.572 -1.44907 -0.619662 0
M  V30 7906 C 738.988 -1.29046 -0.939107 0
M  V30 7907 C 739.188 -0.23462 -2.00129 0
M  V30 7908 O 738.244 0.37558 -2.49691 0
M  V30 7909 C 739.557 -2.66567 -1.39149 0
M  V30 7910 C 741.105 -2.74368 -1.50635 0
M  V30 7911 C 741.58 -4.12386 -1.99253 0
M  V30 7912 N 743.071 -4.1462 -2.06506 0
M  V30 7913 C 743.806 -5.18272 -2.4532 0
M  V30 7914 N 743.302 -6.32278 -2.83189 0
M  V30 7915 N 745.095 -5.05628 -2.45554 0
M  V30 7916 H 737.246 -2.12239 0.0826135 0
M  V30 7917 H 739.509 -0.947652 -0.0256829 0
M  V30 7918 H 739.215 -3.4496 -0.685254 0
M  V30 7919 H 739.089 -2.94224 -2.36034 0
M  V30 7920 H 741.476 -1.96287 -2.20353 0
M  V30 7921 H 741.557 -2.50439 -0.520963 0
M  V30 7922 H 741.201 -4.90947 -1.30127 0
M  V30 7923 H 741.131 -4.33699 -2.98684 0
M  V30 7924 H 743.622 -3.32343 -1.79878 0
M  V30 7925 H 743.935 -7.07172 -3.11652 0
M  V30 7926 H 742.28 -6.35699 -2.80913 0
M  V30 7927 H 745.471 -4.15613 -2.15367 0
M  V30 7928 H 745.644 -5.86529 -2.75478 0
M  V30 7929 N 739.05 0.861098 -1.31996 0
M  V30 7930 C 740.278 1.6474 -1.25173 0
M  V30 7931 C 740.693 1.87926 0.181425 0
M  V30 7932 O 740.05 1.4437 1.1164 0
M  V30 7933 C 740.101 3.01036 -2.0015 0
M  V30 7934 O 739.822 2.7888 -3.37872 0
M  V30 7935 C 741.323 3.95481 -2.00273 0
M  V30 7936 H 738.543 0.513314 -0.432146 0
M  V30 7937 H 741.087 1.07419 -1.74016 0
M  V30 7938 H 739.242 3.55021 -1.55046 0
M  V30 7939 H 739.656 3.65514 -3.76165 0
M  V30 7940 H 741.13 4.88403 -2.57229 0
M  V30 7941 H 741.607 4.27957 -0.987407 0
M  V30 7942 H 742.213 3.47433 -2.45296 0
M  V30 7943 N 740.528 1.15101 1.07655 0
M  V30 7944 C 741.775 0.923974 1.80191 0
M  V30 7945 C 742.103 -0.549065 1.86589 0
M  V30 7946 O 741.358 -1.42307 1.3434 0
M  V30 7947 C 741.657 1.47954 3.25337 0
M  V30 7948 C 741.323 2.97253 3.39044 0
M  V30 7949 C 739.985 3.38012 3.42493 0
M  V30 7950 C 742.337 3.93219 3.42094 0
M  V30 7951 C 739.665 4.73384 3.4659 0
M  V30 7952 C 742.017 5.28458 3.47728 0
M  V30 7953 C 740.681 5.68717 3.49453 0
M  V30 7954 H 739.951 0.338106 0.659367 0
M  V30 7955 H 742.598 1.43594 1.26701 0
M  V30 7956 H 740.903 0.888691 3.81588 0
M  V30 7957 H 742.6 1.27972 3.80032 0
M  V30 7958 H 739.19 2.64746 3.37057 0
M  V30 7959 H 743.374 3.62805 3.38654 0
M  V30 7960 H 738.63 5.03925 3.46222 0
M  V30 7961 H 742.804 6.02618 3.49034 0
M  V30 7962 H 740.431 6.73596 3.5238 0
M  V30 7963 N 742.006 -1.2595 0.947325 0
M  V30 7964 C 743.422 -1.45737 0.650597 0
M  V30 7965 C 743.622 -1.85189 -0.794188 0
M  V30 7966 O 742.678 -1.97738 -1.57022 0
M  V30 7967 C 743.991 -2.53505 1.61728 0
M  V30 7968 C 745.539 -2.67351 1.62765 0
M  V30 7969 C 746.014 -3.78296 2.58179 0
M  V30 7970 N 747.505 -3.85696 2.56501 0
M  V30 7971 C 748.24 -4.71012 3.2701 0
M  V30 7972 N 747.736 -5.60669 4.06966 0
M  V30 7973 N 749.529 -4.64912 3.15932 0
M  V30 7974 H 741.68 -0.986327 1.8811 0
M  V30 7975 H 743.943 -0.494639 0.808725 0
M  V30 7976 H 743.649 -2.31357 2.6489 0
M  V30 7977 H 743.523 -3.51281 1.3741 0
M  V30 7978 H 745.91 -2.88869 0.603241 0
M  V30 7979 H 745.991 -1.69998 1.91139 0
M  V30 7980 H 745.635 -3.5753 3.60742 0
M  V30 7981 H 745.565 -4.75117 2.27093 0
M  V30 7982 H 748.056 -3.21601 1.98447 0
M  V30 7983 H 748.369 -6.22677 4.57704 0
M  V30 7984 H 746.714 -5.60402 4.11066 0
M  V30 7985 H 749.905 -3.93874 2.52945 0
M  V30 7986 H 750.078 -5.3118 3.71149 0
M  V30 7987 N 743.484 -0.715051 -1.40445 0
M  V30 7988 C 744.431 -0.0621393 -2.30716 0
M  V30 7989 C 745.401 0.750871 -1.48159 0
M  V30 7990 O 746.586 0.714928 -1.76899 0
M  V30 7991 C 743.726 0.854036 -3.34365 0
M  V30 7992 C 742.839 0.0305565 -4.31989 0
M  V30 7993 C 741.974 0.946162 -5.22706 0
M  V30 7994 C 741.013 0.116741 -6.11989 0
M  V30 7995 N 740.15 0.987194 -6.95125 0
M  V30 7996 H 744.99 -0.83764 -2.85985 0
M  V30 7997 H 742.527 -0.424759 -1.40834 0
M  V30 7998 H 744.485 1.39946 -3.93028 0
M  V30 7999 H 743.115 1.59572 -2.806 0
M  V30 8000 H 742.167 -0.632044 -3.75112 0
M  V30 8001 H 743.479 -0.611615 -4.95036 0
M  V30 8002 H 742.633 1.56014 -5.86297 0
M  V30 8003 H 741.372 1.62216 -4.59932 0
M  V30 8004 H 740.377 -0.510176 -5.47428 0
M  V30 8005 H 741.602 -0.555742 -6.76822 0
M  V30 8006 H 739.548 1.64885 -6.3494 0
M  V30 8007 H 739.465 0.401046 -7.54936 0
M  V30 8008 H 740.733 1.58737 -7.63166 0
M  V30 8009 N 744.962 1.50701 -0.461195 0
M  V30 8010 C 746.19 2.06681 0.0951756 0
M  V30 8011 C 746.605 1.32615 1.34382 0
M  V30 8012 O 745.962 0.392531 1.78229 0
M  V30 8013 C 746.013 3.59354 0.393316 0
M  V30 8014 O 745.734 4.30626 -0.805797 0
M  V30 8015 C 747.235 4.31926 0.997744 0
M  V30 8016 H 744.455 0.670995 -0.00267259 0
M  V30 8017 H 746.999 1.93991 -0.647137 0
M  V30 8018 H 745.154 3.7188 1.08555 0
M  V30 8019 H 745.568 5.21667 -0.544409 0
M  V30 8020 H 747.042 5.39756 1.15619 0
M  V30 8021 H 747.519 3.91772 1.98523 0
M  V30 8022 H 748.125 4.23905 0.344188 0
M  V30 8023 N 746.441 0.193421 1.56409 0
M  V30 8024 C 747.688 -0.445789 1.97532 0
M  V30 8025 C 748.016 -1.61744 1.08024 0
M  V30 8026 O 747.271 -1.95338 0.118982 0
M  V30 8027 C 747.57 -0.949718 3.44551 0
M  V30 8028 C 747.236 0.108383 4.5077 0
M  V30 8029 C 745.898 0.399126 4.79542 0
M  V30 8030 C 748.25 0.825423 5.14622 0
M  V30 8031 C 745.578 1.41192 5.69457 0
M  V30 8032 C 747.93 1.82735 6.05632 0
M  V30 8033 C 746.594 2.12531 6.32761 0
M  V30 8034 H 745.864 -0.163126 0.722822 0
M  V30 8035 H 748.511 0.290035 1.89291 0
M  V30 8036 H 746.816 -1.76378 3.49854 0
M  V30 8037 H 748.513 -1.45367 3.73724 0
M  V30 8038 H 745.103 -0.128392 4.28408 0
M  V30 8039 H 749.287 0.61403 4.92487 0
M  V30 8040 H 744.543 1.6487 5.88751 0
M  V30 8041 H 748.717 2.3882 6.5417 0
M  V30 8042 H 746.344 2.91155 7.02234 0
M  V30 8043 N 747.919 -1.57396 -0.0801906 0
M  V30 8044 C 748.866 -2.03107 -1.09618 0
M  V30 8045 C 749.836 -0.910118 -1.38946 0
M  V30 8046 O 751.021 -1.17719 -1.50156 0
M  V30 8047 C 748.161 -2.47293 -2.40708 0
M  V30 8048 C 747.274 -3.72972 -2.17982 0
M  V30 8049 C 746.409 -4.05975 -3.42576 0
M  V30 8050 C 745.448 -5.24719 -3.15177 0
M  V30 8051 N 744.585 -5.53401 -4.32078 0
M  V30 8052 H 749.425 -2.89677 -0.69939 0
M  V30 8053 H 746.962 -1.43263 -0.333785 0
M  V30 8054 H 748.92 -2.7096 -3.17232 0
M  V30 8055 H 747.55 -1.63713 -2.78205 0
M  V30 8056 H 746.602 -3.56693 -1.32189 0
M  V30 8057 H 747.914 -4.59638 -1.93738 0
M  V30 8058 H 747.068 -4.30498 -4.275 0
M  V30 8059 H 745.807 -3.17859 -3.69887 0
M  V30 8060 H 744.812 -5 -2.28648 0
M  V30 8061 H 746.037 -6.14445 -2.89197 0
M  V30 8062 H 743.983 -4.68245 -4.59437 0
M  V30 8063 H 743.9 -6.34469 -4.11078 0
M  V30 8064 H 745.168 -5.8247 -5.18024 0
M  V30 8065 N 749.397 0.351382 -1.53633 0
M  V30 8066 C 750.33 1.45407 -1.75875 0
M  V30 8067 C 751.308 1.50822 -0.607566 0
M  V30 8068 O 752.492 1.68658 -0.841818 0
M  V30 8069 C 749.619 2.8369 -1.85034 0
M  V30 8070 C 748.665 2.95935 -3.07123 0
M  V30 8071 S 749.498 2.63215 -4.66345 0
M  V30 8072 C 750.654 4.03622 -4.78373 0
M  V30 8073 H 750.887 1.26322 -2.69128 0
M  V30 8074 H 748.42 0.546581 -1.44402 0
M  V30 8075 H 750.378 3.6336 -1.90996 0
M  V30 8076 H 749.039 3.00076 -0.928074 0
M  V30 8077 H 748.232 3.97243 -3.10183 0
M  V30 8078 H 747.834 2.24205 -2.99346 0
M  V30 8079 H 750.126 4.98046 -4.593 0
M  V30 8080 H 751.069 4.05559 -5.80454 0
M  V30 8081 H 751.477 3.91282 -4.06889 0
M  V30 8082 N 750.875 1.45233 0.611969 0
M  V30 8083 C 751.805 1.5641 1.73373 0
M  V30 8084 C 752.786 0.415896 1.64937 0
M  V30 8085 O 753.971 0.638478 1.83404 0
M  V30 8086 C 751.101 1.52627 3.11965 0
M  V30 8087 C 750.055 2.66119 3.35208 0
M  V30 8088 C 749.381 2.4739 4.74028 0
M  V30 8089 C 750.681 4.08157 3.25891 0
M  V30 8090 H 752.375 2.50307 1.64277 0
M  V30 8091 H 749.921 1.20467 0.788904 0
M  V30 8092 H 751.874 1.59043 3.90235 0
M  V30 8093 H 750.598 0.552564 3.21892 0
M  V30 8094 H 749.257 2.59123 2.59327 0
M  V30 8095 H 748.905 1.48168 4.80682 0
M  V30 8096 H 748.605 3.23494 4.90536 0
M  V30 8097 H 750.129 2.55653 5.54503 0
M  V30 8098 H 751.543 4.1642 3.9404 0
M  V30 8099 H 749.94 4.84617 3.5393 0
M  V30 8100 H 751.01 4.30374 2.23397 0
M  V30 8101 N 752.353 -0.854086 1.3245 0
M  V30 8102 C 753.283 -1.97827 1.24044 0
M  V30 8103 C 754.264 -1.69646 0.124166 0
M  V30 8104 O 755.449 -1.91687 0.31143 0
M  V30 8105 C 752.579 -3.33673 0.963324 0
M  V30 8106 C 751.533 -3.76207 2.04089 0
M  V30 8107 C 750.859 -5.0969 1.61618 0
M  V30 8108 C 752.159 -3.91612 3.45597 0
M  V30 8109 H 753.853 -2.05118 2.18099 0
M  V30 8110 H 751.399 -0.985489 1.04996 0
M  V30 8111 H 753.352 -4.11871 0.891061 0
M  V30 8112 H 752.076 -3.26597 -0.0128649 0
M  V30 8113 H 750.735 -3.0026 2.10332 0
M  V30 8114 H 750.383 -4.99072 0.627418 0
M  V30 8115 H 750.083 -5.3912 2.33717 0
M  V30 8116 H 751.607 -5.90381 1.55829 0
M  V30 8117 H 753.021 -4.60163 3.4194 0
M  V30 8118 H 751.418 -4.3246 4.16051 0
M  V30 8119 H 752.488 -2.9451 3.85217 0
M  V30 8120 N 753.831 -1.1567 -1.07043 0
M  V30 8121 C 754.761 -0.879348 -2.16309 0
M  V30 8122 C 755.742 0.171311 -1.69235 0
M  V30 8123 O 756.927 0.0250175 -1.94184 0
M  V30 8124 C 754.057 -0.371307 -3.45309 0
M  V30 8125 C 753.011 -1.359 -4.05851 0
M  V30 8126 C 752.337 -0.709678 -5.29969 0
M  V30 8127 C 753.637 -2.72606 -4.45514 0
M  V30 8128 H 755.331 -1.79308 -2.39768 0
M  V30 8129 H 752.877 -0.863558 -1.15233 0
M  V30 8130 H 754.83 -0.164798 -4.21078 0
M  V30 8131 H 753.554 0.577906 -3.21446 0
M  V30 8132 H 752.213 -1.55193 -3.32131 0
M  V30 8133 H 751.861 0.245782 -5.02399 0
M  V30 8134 H 751.561 -1.36886 -5.71433 0
M  V30 8135 H 753.085 -0.513015 -6.08441 0
M  V30 8136 H 754.499 -2.57141 -5.12398 0
M  V30 8137 H 752.896 -3.34927 -4.97939 0
M  V30 8138 H 753.966 -3.28434 -3.56734 0
M  V30 8139 N 755.309 1.25446 -0.953992 0
M  V30 8140 C 756.549 1.94894 -0.616087 0
M  V30 8141 C 756.913 1.73067 0.831374 0
M  V30 8142 O 758.114 2.3643 1.27884 0
M  V30 8143 C 756.385 3.44147 -0.964225 0
M  V30 8144 S 757.944 4.32536 -0.738798 0
M  V30 8145 H 754.762 0.673967 -0.226472 0
M  V30 8146 H 757.364 1.52117 -1.22803 0
M  V30 8147 H 756.068 3.57537 -2.01484 0
M  V30 8148 H 755.599 3.91906 -0.342507 0
M  V30 8149 H 757.614 4.94659 0.390732 0
M  V30 8150 N 756.787 0.722489 1.40064 0
M  V30 8151 C 758.203 0.396758 1.5459 0
M  V30 8152 C 758.403 -1.09375 1.69232 0
M  V30 8153 O 757.459 -1.87984 1.68578 0
M  V30 8154 C 758.772 1.16885 2.77053 0
M  V30 8155 C 760.32 1.15583 2.90877 0
M  V30 8156 C 760.795 1.91023 4.16262 0
M  V30 8157 N 762.286 1.88126 4.23276 0
M  V30 8158 C 763.021 2.43315 5.19216 0
M  V30 8159 N 762.517 3.07089 6.21022 0
M  V30 8160 N 764.31 2.33418 5.11344 0
M  V30 8161 H 756.461 1.68887 1.28806 0
M  V30 8162 H 758.724 0.714231 0.62336 0
M  V30 8163 H 758.43 2.22301 2.72534 0
M  V30 8164 H 758.304 0.765011 3.69361 0
M  V30 8165 H 760.691 0.10984 2.94896 0
M  V30 8166 H 760.772 1.59895 1.99668 0
M  V30 8167 H 760.416 2.95616 4.13006 0
M  V30 8168 H 760.346 1.44126 5.06493 0
M  V30 8169 H 762.837 1.41654 3.50346 0
M  V30 8170 H 763.15 3.467 6.90666 0
M  V30 8171 H 761.495 3.11175 6.21446 0
M  V30 8172 H 764.686 1.83248 4.30741 0
M  V30 8173 H 764.859 2.7673 5.85939 0
M  V30 8174 N 758.265 -1.50454 0.469181 0
M  V30 8175 C 759.511 -2.03248 -0.0787241 0
M  V30 8176 C 759.866 -1.34499 -1.37578 0
M  V30 8177 O 759.159 -0.461173 -1.85967 0
M  V30 8178 C 759.353 -3.55963 -0.320207 0
M  V30 8179 C 759.182 -4.3951 0.951893 0
M  V30 8180 C 757.952 -4.82689 1.49465 0
M  V30 8181 C 760.15 -4.79999 1.84677 0
M  V30 8182 N 758.132 -5.50553 2.71597 0
M  V30 8183 C 759.503 -5.47254 2.91398 0
M  V30 8184 C 761.558 -4.61959 1.85738 0
M  V30 8185 C 760.261 -5.98381 3.99166 0
M  V30 8186 C 762.287 -5.14024 2.92461 0
M  V30 8187 C 761.649 -5.81253 3.97901 0
M  V30 8188 H 757.748 -0.78192 0.0111715 0
M  V30 8189 H 760.332 -1.83986 0.636961 0
M  V30 8190 H 758.503 -3.75174 -1.00493 0
M  V30 8191 H 760.235 -3.95407 -0.862285 0
M  V30 8192 H 756.99 -4.61948 1.0441 0
M  V30 8193 H 757.414 -5.89093 3.33615 0
M  V30 8194 H 762.056 -4.09416 1.05539 0
M  V30 8195 H 759.774 -6.49961 4.80183 0
M  V30 8196 H 763.36 -5.01897 2.94263 0
M  V30 8197 H 762.24 -6.20814 4.79123 0
M  V30 8198 N 759.743 -0.201713 -1.56304 0
M  V30 8199 C 760.69 0.716499 -2.19397 0
M  V30 8200 C 761.66 1.20494 -1.14326 0
M  V30 8201 O 762.845 1.26763 -1.42604 0
M  V30 8202 C 759.985 1.92762 -2.86246 0
M  V30 8203 C 759.098 1.47993 -4.0586 0
M  V30 8204 C 758.233 2.64706 -4.60547 0
M  V30 8205 C 757.272 2.16576 -5.72504 0
M  V30 8206 N 756.409 3.26491 -6.21569 0
M  V30 8207 H 761.249 0.171724 -2.97505 0
M  V30 8208 H 758.786 0.073016 -1.46919 0
M  V30 8209 H 760.744 2.6384 -3.23178 0
M  V30 8210 H 759.374 2.44559 -2.10691 0
M  V30 8211 H 758.426 0.66477 -3.74546 0
M  V30 8212 H 759.738 1.08686 -4.86815 0
M  V30 8213 H 758.892 3.43898 -4.99819 0
M  V30 8214 H 757.631 3.0729 -3.78713 0
M  V30 8215 H 756.636 1.3584 -5.32755 0
M  V30 8216 H 757.861 1.75015 -6.56161 0
M  V30 8217 H 755.807 3.68594 -5.42655 0
M  V30 8218 H 755.724 2.91374 -6.97594 0
M  V30 8219 H 756.992 4.05877 -6.65495 0
M  V30 8220 N 761.222 1.57436 0.0718424 0
M  V30 8221 C 762.169 2.03686 1.08539 0
M  V30 8222 C 763.139 0.917474 1.38462 0
M  V30 8223 O 764.324 1.18513 1.4953 0
M  V30 8224 C 761.464 2.48566 2.39393 0
M  V30 8225 C 760.577 3.74122 2.16001 0
M  V30 8226 C 759.712 4.07786 3.40418 0
M  V30 8227 C 758.751 5.26383 3.1239 0
M  V30 8228 N 757.888 5.55685 4.29138 0
M  V30 8229 H 762.728 2.90043 0.684018 0
M  V30 8230 H 760.265 1.43438 0.326183 0
M  V30 8231 H 762.223 2.72639 3.15791 0
M  V30 8232 H 760.853 1.65186 2.77333 0
M  V30 8233 H 759.905 3.57389 1.30296 0
M  V30 8234 H 761.217 4.60659 1.91298 0
M  V30 8235 H 760.371 4.32759 4.25211 0
M  V30 8236 H 759.11 3.19817 3.68197 0
M  V30 8237 H 758.115 5.01206 2.25993 0
M  V30 8238 H 759.34 6.1597 2.85934 0
M  V30 8239 H 757.286 4.70675 4.56948 0
M  V30 8240 H 757.203 6.3664 4.07708 0
M  V30 8241 H 758.471 5.85209 5.14928 0
M  V30 8242 N 762.7 -0.34323 1.53817 0
M  V30 8243 C 763.647 -1.42153 1.81827 0
M  V30 8244 C 764.617 -1.52251 0.663996 0
M  V30 8245 O 765.802 -1.67784 0.908461 0
M  V30 8246 C 762.942 -2.78799 2.03384 0
M  V30 8247 C 762.055 -2.7749 3.31094 0
M  V30 8248 C 761.19 -4.05856 3.42717 0
M  V30 8249 C 760.229 -3.98776 4.64375 0
M  V30 8250 N 759.366 -5.18833 4.73029 0
M  V30 8251 H 764.206 -1.17567 2.73829 0
M  V30 8252 H 761.743 -0.569506 1.35628 0
M  V30 8253 H 763.701 -3.58211 2.13872 0
M  V30 8254 H 762.331 -3.01736 1.14696 0
M  V30 8255 H 761.383 -1.90182 3.29446 0
M  V30 8256 H 762.695 -2.68137 4.206 0
M  V30 8257 H 761.849 -4.93691 3.52638 0
M  V30 8258 H 760.588 -4.1799 2.51267 0
M  V30 8259 H 759.593 -3.09325 4.5453 0
M  V30 8260 H 760.818 -3.88224 5.57189 0
M  V30 8261 H 758.764 -5.31511 3.84489 0
M  V30 8262 H 758.681 -5.11737 5.56472 0
M  V30 8263 H 759.949 -6.08439 4.87261 0
M  V30 8264 N 764.178 -1.45556 -0.604258 0
M  V30 8265 C 765.125 -1.54482 -1.71476 0
M  V30 8266 C 766.095 -0.390479 -1.61445 0
M  V30 8267 O 767.28 -0.604371 -1.80975 0
M  V30 8268 C 764.42 -1.52064 -3.09791 0
M  V30 8269 C 763.533 -2.78073 -3.30604 0
M  V30 8270 C 762.668 -2.67304 -4.59044 0
M  V30 8271 C 761.707 -3.88352 -4.73127 0
M  V30 8272 N 760.844 -3.76098 -5.9287 0
M  V30 8273 H 765.684 -2.49349 -1.63184 0
M  V30 8274 H 763.221 -1.23725 -0.795641 0
M  V30 8275 H 765.179 -1.48649 -3.89819 0
M  V30 8276 H 763.809 -0.607442 -3.17033 0
M  V30 8277 H 762.861 -2.91561 -2.44329 0
M  V30 8278 H 764.173 -3.67847 -3.36883 0
M  V30 8279 H 763.327 -2.61875 -5.47272 0
M  V30 8280 H 762.066 -1.75135 -4.55169 0
M  V30 8281 H 761.071 -3.94137 -3.83322 0
M  V30 8282 H 762.296 -4.81591 -4.78797 0
M  V30 8283 H 760.242 -2.867 -5.90033 0
M  V30 8284 H 760.159 -4.59509 -6.00323 0
M  V30 8285 H 761.427 -3.74607 -6.83586 0
M  V30 8286 N 765.656 0.84705 -1.32902 0
M  V30 8287 C 766.902 1.60414 -1.24078 0
M  V30 8288 C 767.235 1.93217 0.195105 0
M  V30 8289 O 766.51 1.58001 1.13428 0
M  V30 8290 C 766.793 2.91951 -2.108 0
M  V30 8291 C 766.646 2.6588 -3.62805 0
M  V30 8292 C 767.965 3.93299 -1.97494 0
M  V30 8293 H 765.084 0.58206 -0.452079 0
M  V30 8294 H 767.726 0.977562 -1.62922 0
M  V30 8295 H 765.876 3.45425 -1.77802 0
M  V30 8296 H 767.548 2.18902 -4.06054 0
M  V30 8297 H 765.791 1.99716 -3.85092 0
M  V30 8298 H 766.462 3.59574 -4.1882 0
M  V30 8299 H 768.938 3.49105 -2.26417 0
M  V30 8300 H 767.814 4.8318 -2.60438 0
M  V30 8301 H 768.075 4.31887 -0.944782 0
M  V30 8302 N 767.134 1.16236 1.06428 0
M  V30 8303 C 768.044 0.881976 2.1739 0
M  V30 8304 C 769.06 -0.145259 1.73393 0
M  V30 8305 O 770.236 0.0310558 2.01376 0
M  V30 8306 C 767.301 0.385496 3.4455 0
M  V30 8307 C 766.362 1.47779 4.03063 0
M  V30 8308 C 765.595 1.0049 5.24154 0
M  V30 8309 O 765.818 -0.145889 5.70213 0
M  V30 8310 O 764.752 1.79265 5.74585 0
M  V30 8311 H 768.578 1.80983 2.43883 0
M  V30 8312 H 766.163 0.942226 1.15942 0
M  V30 8313 H 768.045 0.115536 4.21242 0
M  V30 8314 H 766.72 -0.514369 3.19587 0
M  V30 8315 H 765.627 1.80147 3.27869 0
M  V30 8316 H 766.96 2.35291 4.32318 0
M  V30 8317 N 768.612 -1.24939 0.960631 0
M  V30 8318 C 769.522 -2.29374 0.492435 0
M  V30 8319 C 770.538 -1.68262 -0.443154 0
M  V30 8320 O 771.714 -1.98875 -0.31793 0
M  V30 8321 C 768.779 -3.46023 -0.216626 0
M  V30 8322 C 767.84 -4.22557 0.757915 0
M  V30 8323 C 767.073 -5.33636 0.0825969 0
M  V30 8324 O 767.296 -5.59084 -1.13054 0
M  V30 8325 O 766.23 -5.96939 0.771177 0
M  V30 8326 H 770.056 -2.71525 1.36044 0
M  V30 8327 H 767.641 -1.30499 0.72735 0
M  V30 8328 H 769.523 -4.16885 -0.615241 0
M  V30 8329 H 768.198 -3.05862 -1.05971 0
M  V30 8330 H 767.105 -3.54099 1.20685 0
M  V30 8331 H 768.438 -4.66516 1.5692 0
M  V30 8332 N 770.09 -0.729906 -1.39679 0
M  V30 8333 C 771.037 -0.0866063 -2.30637 0
M  V30 8334 C 772.007 0.735115 -1.48947 0
M  V30 8335 O 773.192 0.696125 -1.77648 0
M  V30 8336 C 770.332 0.818524 -3.35252 0
M  V30 8337 C 769.445 -0.0152635 -4.31997 0
M  V30 8338 C 768.58 0.890669 -5.2368 0
M  V30 8339 C 767.619 0.0518246 -6.12078 0
M  V30 8340 N 766.756 0.913411 -6.96133 0
M  V30 8341 H 771.596 -0.867925 -2.85081 0
M  V30 8342 H 769.133 -0.439673 -1.40376 0
M  V30 8343 H 771.091 1.3577 -3.9449 0
M  V30 8344 H 769.721 1.56587 -2.82277 0
M  V30 8345 H 768.773 -0.671794 -3.74421 0
M  V30 8346 H 770.085 -0.664086 -4.9436 0
M  V30 8347 H 769.239 1.49787 -5.87919 0
M  V30 8348 H 767.978 1.57328 -4.61627 0
M  V30 8349 H 766.983 -0.568209 -5.46856 0
M  V30 8350 H 768.208 -0.627497 -6.76195 0
M  V30 8351 H 766.154 1.58141 -6.36653 0
M  V30 8352 H 766.071 0.320952 -7.55318 0
M  V30 8353 H 767.339 1.50633 -7.64807 0
M  V30 8354 N 771.568 1.50203 -0.477153 0
M  V30 8355 C 772.498 2.31517 0.303646 0
M  V30 8356 C 773.479 1.38696 0.984753 0
M  V30 8357 O 774.664 1.67615 0.980758 0
M  V30 8358 C 771.794 3.18598 1.38249 0
M  V30 8359 C 770.748 4.2002 0.822645 0
M  V30 8360 C 770.074 4.95878 2.00024 0
M  V30 8361 C 771.374 5.22023 -0.170185 0
M  V30 8362 H 773.068 2.97042 -0.375027 0
M  V30 8363 H 770.614 1.42848 -0.181802 0
M  V30 8364 H 772.567 3.74282 1.93625 0
M  V30 8365 H 771.291 2.5097 2.09002 0
M  V30 8366 H 769.95 3.65445 0.290813 0
M  V30 8367 H 769.598 4.24717 2.69489 0
M  V30 8368 H 769.298 5.64487 1.63183 0
M  V30 8369 H 770.822 5.54399 2.55878 0
M  V30 8370 H 772.236 5.72543 0.294606 0
M  V30 8371 H 770.633 5.98386 -0.453181 0
M  V30 8372 H 771.703 4.72396 -1.09408 0
M  V30 8373 N 773.046 0.209999 1.56195 0
M  V30 8374 C 774.276 -0.429373 2.02089 0
M  V30 8375 C 774.684 -1.54703 1.0892 0
M  V30 8376 O 774.027 -1.83485 0.0889535 0
M  V30 8377 C 774.089 -1.03266 3.44349 0
M  V30 8378 C 773.753 -0.0518873 4.56971 0
M  V30 8379 C 774.75 0.744249 5.14545 0
M  V30 8380 C 772.435 0.0635185 5.0226 0
M  V30 8381 C 774.429 1.64261 6.15871 0
M  V30 8382 C 772.116 0.965423 6.03426 0
M  V30 8383 C 773.114 1.75352 6.60106 0
M  V30 8384 O 772.802 2.64029 7.59305 0
M  V30 8385 H 772.534 -0.110604 0.66689 0
M  V30 8386 H 775.088 0.320436 2.02885 0
M  V30 8387 H 773.318 -1.83134 3.40586 0
M  V30 8388 H 775.007 -1.57823 3.73961 0
M  V30 8389 H 775.773 0.665476 4.80413 0
M  V30 8390 H 771.652 -0.539762 4.57829 0
M  V30 8391 H 775.196 2.25819 6.60039 0
M  V30 8392 H 771.093 1.04526 6.36981 0
M  V30 8393 H 771.861 2.57974 7.76783 0
M  V30 8394 N 774.524 -1.57472 -0.0634922 0
M  V30 8395 C 775.77 -1.88792 -0.756903 0
M  V30 8396 C 776.125 -0.804679 -1.74765 0
M  V30 8397 O 775.418 0.19033 -1.90652 0
M  V30 8398 C 775.612 -3.24521 -1.49736 0
M  V30 8399 C 775.441 -4.45946 -0.579833 0
M  V30 8400 C 774.211 -5.04848 -0.213667 0
M  V30 8401 C 776.409 -5.14143 0.12703 0
M  V30 8402 N 774.391 -6.09795 0.708712 0
M  V30 8403 C 775.762 -6.1334 0.906295 0
M  V30 8404 C 777.817 -4.97508 0.197625 0
M  V30 8405 C 776.52 -6.97697 1.74961 0
M  V30 8406 C 778.546 -5.82398 1.02794 0
M  V30 8407 C 777.908 -6.81139 1.79523 0
M  V30 8408 H 774.007 -0.740235 -0.252142 0
M  V30 8409 H 776.591 -1.94692 -0.0181026 0
M  V30 8410 H 774.762 -3.19615 -2.20683 0
M  V30 8411 H 776.494 -3.43464 -2.14044 0
M  V30 8412 H 773.249 -4.70177 -0.568357 0
M  V30 8413 H 773.673 -6.66929 1.16339 0
M  V30 8414 H 778.315 -4.21077 -0.381261 0
M  V30 8415 H 776.033 -7.73496 2.33943 0
M  V30 8416 H 779.619 -5.71581 1.08565 0
M  V30 8417 H 778.499 -7.45687 2.42736 0
M  V30 8418 N 776.003 0.335068 -1.53997 0
M  V30 8419 C 776.935 1.4327 -1.78903 0
M  V30 8420 C 777.948 1.48347 -0.670598 0
M  V30 8421 O 779.137 1.51277 -0.947494 0
M  V30 8422 C 776.237 2.81878 -1.88144 0
M  V30 8423 C 775.41 3.00141 -3.18174 0
M  V30 8424 C 774.469 4.19041 -3.18263 0
M  V30 8425 O 773.495 4.12751 -3.9195 0
M  V30 8426 N 774.697 5.28004 -2.41231 0
M  V30 8427 H 777.462 1.22272 -2.73623 0
M  V30 8428 H 775.023 0.524996 -1.53152 0
M  V30 8429 H 777.015 3.59609 -1.85644 0
M  V30 8430 H 775.585 2.9598 -1.00572 0
M  V30 8431 H 774.805 2.09808 -3.33728 0
M  V30 8432 H 776.093 3.0923 -4.04047 0
M  V30 8433 H 775.491 5.35986 -1.8093 0
M  V30 8434 H 774.048 6.04196 -2.44521 0
M  V30 8435 N 777.481 1.45874 0.596531 0
M  V30 8436 C 778.729 1.5017 1.35253 0
M  V30 8437 C 779.05 0.149246 1.94428 0
M  V30 8438 O 778.32 -0.82268 1.77789 0
M  V30 8439 H 776.9 0.553052 0.502138 0
M  V30 8440 H 779.562 1.81908 0.699671 0
M  V30 8441 H 778.658 2.24671 2.16632 0
M  V30 8442 N 778.959 -0.83999 1.33349 0
M  V30 8443 C 779.907 -1.97113 1.23488 0
M  V30 8444 C 780.901 -1.68849 0.136503 0
M  V30 8445 O 782.107 -1.77476 0.300389 0
M  V30 8446 H 778.482 -0.647049 0.383185 0
M  V30 8447 H 780.453 -2.02554 2.19122 0
M  V30 8448 C 779.202 -3.33314 0.989815 0
M  V30 8449 H 778.525 -3.556 1.82726 0
M  V30 8450 H 779.965 -4.12963 0.961123 0
M  V30 8451 C 778.424 -3.35496 -0.307272 0
M  V30 8452 O 778.954 -3.79589 -1.31434 0
M  V30 8453 N 777.16 -2.88669 -0.334414 0
M  V30 8454 H 776.707 -2.5298 0.485659 0
M  V30 8455 H 776.665 -2.90512 -1.20209 0
M  V30 8456 N 780.437 -1.16799 -1.0581 0
M  V30 8457 C 781.662 -0.977402 -1.82925 0
M  V30 8458 C 782.087 0.469514 -1.82146 0
M  V30 8459 O 781.445 1.33576 -1.22585 0
M  V30 8460 C 781.493 -1.51543 -3.27211 0
M  V30 8461 O 780.597 -0.725021 -4.05977 0
M  V30 8462 H 779.938 -0.347474 -0.565825 0
M  V30 8463 H 782.468 -1.55151 -1.33376 0
M  V30 8464 H 782.478 -1.53502 -3.78023 0
M  V30 8465 H 781.153 -2.56872 -3.27093 0
M  V30 8466 H 779.73 -0.77634 -3.64729 0
M  V30 8467 N 781.915 1.24427 -0.967243 0
M  V30 8468 C 782.862 2.25398 -0.496419 0
M  V30 8469 C 783.832 1.59667 0.457781 0
M  V30 8470 O 785.017 1.87213 0.368246 0
M  V30 8471 C 782.157 3.44474 0.207693 0
M  V30 8472 C 781.27 4.24804 -0.785221 0
M  V30 8473 C 780.405 5.31169 -0.0572631 0
M  V30 8474 C 779.444 6.03195 -1.04027 0
M  V30 8475 N 778.581 7.01265 -0.34235 0
M  V30 8476 H 783.421 2.65039 -1.36229 0
M  V30 8477 H 780.958 1.30288 -0.682902 0
M  V30 8478 H 782.916 4.12376 0.632612 0
M  V30 8479 H 781.546 3.05672 1.03752 0
M  V30 8480 H 780.598 3.56445 -1.32858 0
M  V30 8481 H 781.91 4.74599 -1.53483 0
M  V30 8482 H 781.064 6.05205 0.425674 0
M  V30 8483 H 779.803 4.8228 0.725047 0
M  V30 8484 H 778.808 5.27964 -1.53409 0
M  V30 8485 H 780.033 6.54173 -1.82302 0
M  V30 8486 H 777.979 6.54648 0.420993 0
M  V30 8487 H 777.896 7.48939 -1.03084 0
M  V30 8488 H 779.164 7.7941 0.118634 0
M  V30 8489 N 783.393 0.737304 1.3929 0
M  V30 8490 C 784.323 0.113988 2.33222 0
M  V30 8491 C 785.304 -0.721695 1.54031 0
M  V30 8492 O 786.489 -0.666206 1.82415 0
M  V30 8493 C 783.619 -0.792319 3.38141 0
M  V30 8494 C 782.573 -0.0606178 4.27957 0
M  V30 8495 C 781.899 -1.08409 5.23595 0
M  V30 8496 C 783.199 1.09817 5.10625 0
M  V30 8497 H 784.893 0.898611 2.85596 0
M  V30 8498 H 782.439 0.433571 1.37318 0
M  V30 8499 H 784.392 -1.23793 4.02807 0
M  V30 8500 H 783.116 -1.60908 2.84211 0
M  V30 8501 H 781.775 0.365393 3.64775 0
M  V30 8502 H 781.423 -1.89449 4.6596 0
M  V30 8503 H 781.123 -0.599269 5.84536 0
M  V30 8504 H 782.647 -1.52936 5.91137 0
M  V30 8505 H 784.061 0.730892 5.68622 0
M  V30 8506 H 782.458 1.51278 5.80719 0
M  V30 8507 H 783.528 1.91878 4.45321 0
M  V30 8508 N 784.871 -1.49948 0.485112 0
M  V30 8509 C 786.282 -1.8667 0.0334041 0
M  V30 8510 C 786.633 -1.3988 -1.37579 0
M  V30 8511 O 785.758 -0.769788 -2.02245 0
M  V30 8512 C 786.353 -3.38757 0.0538426 0
M  V30 8513 C 784.912 -3.74839 -0.342453 0
M  V30 8514 C 784.059 -2.73894 0.433281 0
M  V30 8515 H 787.01 -1.42492 0.698699 0
M  V30 8516 H 787.031 -3.73132 -0.745146 0
M  V30 8517 H 786.543 -3.72782 1.07959 0
M  V30 8518 H 784.644 -3.46419 -1.37203 0
M  V30 8519 H 784.757 -4.79088 -0.0340503 0
M  V30 8520 H 783.121 -2.54441 -0.114849 0
M  V30 8521 H 783.904 -3.10763 1.45881 0
M  V30 8522 O 786.388 -0.359827 -1.5744 0
M  V30 8523 H 787.079 0.192049 -1.92746 0
M  V30 END ATOM
M  V30 BEGIN BOND
M  V30 END BOND
M  V30 END CTAB
M  END
$$$$
