drugbank_target|P15034 Xaa-Pro aminopeptidase (DB04092)
 OpenBabel12092119573D

  0  0  0     0  0            999 V3000
M  V30 BEGIN CTAB
M  V30 COUNTS 6945 7017 0 0 0
M  V30 BEGIN ATOM
M  V30 1 H -0.908 1.98254 -0.117106 0
M  V30 2 N 0 1.576 0 0
M  V30 3 C 0.933 2.03868 1.02534 0
M  V30 4 C 1.911 0.928543 1.3348 0
M  V30 5 O 3.095 1.19667 1.45644 0
M  V30 6 C 0.222 2.43627 2.35294 0
M  V30 7 C -0.732 3.65373 2.2001 0
M  V30 8 S 0.101 5.13292 1.52614 0
M  V30 9 C 1.257 5.56322 2.86805 0
M  V30 10 H 1.49 2.90518 0.631377 0
M  V30 11 H -0.977 1.52953 0.210867 0
M  V30 12 H 0.981 2.67203 3.11629 0
M  V30 13 H -0.358 1.57376 2.7183 0
M  V30 14 H -1.165 3.90944 3.18086 0
M  V30 15 H -1.563 3.418 1.51819 0
M  V30 16 H 0.729 5.58782 3.83104 0
M  V30 17 H 1.672 6.56266 2.65933 0
M  V30 18 H 2.08 4.83886 2.90714 0
M  V30 19 N 1.4781 -0.272755 1.55222 0
M  V30 20 C 2.7031 -1.02683 1.80197 0
M  V30 21 C 3.1281 -1.79142 0.573551 0
M  V30 22 O 2.4861 -1.74917 -0.476849 0
M  V30 23 C 2.5341 -1.9609 3.02624 0
M  V30 24 O 1.6381 -3.04863 2.77727 0
M  V30 25 H 0.9791 -0.293557 0.595584 0
M  V30 26 H 3.5091 -0.30159 2.02365 0
M  V30 27 H 3.5191 -2.38039 3.31363 0
M  V30 28 H 2.1941 -1.39851 3.91682 0
M  V30 29 H 0.7711 -2.67228 2.60084 0
M  V30 30 N 2.9562 -1.48159 -0.537278 0
M  V30 31 C 3.8662 -1.64807 -1.6696 0
M  V30 32 C 4.8822 -0.530651 -1.65711 0
M  V30 33 O 6.0582 -0.800784 -1.84796 0
M  V30 34 C 3.1232 -1.67708 -3.03438 0
M  V30 35 C 2.1842 -2.91025 -3.156 0
M  V30 36 C 1.4172 -2.93778 -4.45567 0
M  V30 37 O 1.6402 -2.05153 -5.3223 0
M  V30 38 O 0.5742 -3.85868 -4.61941 0
M  V30 39 H 4.4002 -2.6066 -1.55853 0
M  V30 40 H 1.9852 -1.31475 -0.709549 0
M  V30 41 H 3.8672 -1.7218 -3.84619 0
M  V30 42 H 2.5422 -0.750278 -3.14885 0
M  V30 43 H 1.4492 -2.92089 -2.33741 0
M  V30 44 H 2.7822 -3.83065 -3.09066 0
M  V30 45 N 4.4343 0.785586 -1.36625 0
M  V30 46 C 5.6833 1.53883 -1.30396 0
M  V30 47 C 5.9963 1.95271 0.113452 0
M  V30 48 O 7.2023 2.69858 0.298142 0
M  V30 49 C 5.6583 2.77808 -2.28802 0
M  V30 50 C 5.2663 2.43574 -3.75999 0
M  V30 51 C 7.0103 3.55783 -2.31558 0
M  V30 52 C 4.9173 3.63919 -4.66173 0
M  V30 53 H 3.8473 0.577678 -0.484566 0
M  V30 54 H 6.4983 0.861705 -1.62009 0
M  V30 55 H 4.8803 3.47339 -1.90188 0
M  V30 56 H 6.0543 1.81916 -4.23371 0
M  V30 57 H 4.3693 1.78803 -3.76056 0
M  V30 58 H 6.9663 4.45205 -2.96137 0
M  V30 59 H 7.3093 3.94644 -1.3252 0
M  V30 60 H 7.8423 2.93235 -2.68809 0
M  V30 61 H 4.5813 3.3015 -5.66287 0
M  V30 62 H 4.1013 4.2473 -4.23515 0
M  V30 63 H 5.7803 4.30901 -4.82632 0
M  V30 64 N 5.9124 1.20967 1.01018 0
M  V30 65 C 7.1374 1.0503 1.78839 0
M  V30 66 C 7.5624 -0.395752 1.8389 0
M  V30 67 O 6.9204 -1.28529 1.27867 0
M  V30 68 C 6.9684 1.64602 3.2084 0
M  V30 69 O 6.0724 0.887988 4.02726 0
M  V30 70 H 5.4134 0.369987 0.551367 0
M  V30 71 H 7.9434 1.60399 1.27018 0
M  V30 72 H 7.9534 1.68607 3.71532 0
M  V30 73 H 6.6284 2.69841 3.16479 0
M  V30 74 H 5.2054 0.922648 3.61305 0
M  V30 75 N 7.3905 -1.2043 1.01659 0
M  V30 76 C 8.8065 -1.41852 0.731442 0
M  V30 77 C 9.0065 -1.89358 -0.688898 0
M  V30 78 O 8.0625 -2.06247 -1.45666 0
M  V30 79 C 9.3755 -2.44019 1.75714 0
M  V30 80 C 10.9235 -2.57785 1.77527 0
M  V30 81 C 11.3985 -3.63194 2.79023 0
M  V30 82 N 12.8895 -3.70678 2.77763 0
M  V30 83 C 13.6245 -4.51897 3.52954 0
M  V30 84 N 13.1205 -5.36921 4.37821 0
M  V30 85 N 14.9135 -4.4643 3.41551 0
M  V30 86 H 7.0645 -0.879093 1.93354 0
M  V30 87 H 9.3275 -0.448425 0.835236 0
M  V30 88 H 9.0335 -2.1611 2.77469 0
M  V30 89 H 8.9075 -3.43007 1.56927 0
M  V30 90 H 11.2945 -2.85023 0.764569 0
M  V30 91 H 11.3755 -1.58992 2.00387 0
M  V30 92 H 11.0195 -3.36699 3.80258 0
M  V30 93 H 10.9495 -4.61609 2.53425 0
M  V30 94 H 13.4405 -3.09944 2.16201 0
M  V30 95 H 13.7535 -5.95981 4.91962 0
M  V30 96 H 12.0985 -5.36424 4.41899 0
M  V30 97 H 15.2895 -3.79042 2.74672 0
M  V30 98 H 15.4625 -5.09491 4.00404 0
M  V30 99 N 8.8686 -0.792821 -1.36206 0
M  V30 100 C 9.8006 -0.151469 -2.28699 0
M  V30 101 C 10.8136 0.641262 -1.49638 0
M  V30 102 O 12.0026 0.475885 -1.72039 0
M  V30 103 C 9.1026 0.808424 -3.29117 0
M  V30 104 C 8.2756 0.0650202 -4.37352 0
M  V30 105 C 7.3346 0.941358 -5.17711 0
M  V30 106 O 6.3606 0.397352 -5.67811 0
M  V30 107 N 7.5626 2.2652 -5.3448 0
M  V30 108 H 10.3276 -0.945982 -2.84379 0
M  V30 109 H 7.8886 -0.647032 -1.48409 0
M  V30 110 H 9.8806 1.3986 -3.79765 0
M  V30 111 H 8.4506 1.5038 -2.74052 0
M  V30 112 H 7.6706 -0.706255 -3.87822 0
M  V30 113 H 8.9586 -0.447847 -5.06825 0
M  V30 114 H 8.3566 2.73128 -4.95396 0
M  V30 115 H 6.9136 2.80493 -5.88359 0
M  V30 116 N 10.3467 1.47872 -0.545128 0
M  V30 117 C 11.2567 2.33633 0.212746 0
M  V30 118 C 12.2727 1.4744 0.923983 0
M  V30 119 O 13.4487 1.80393 0.895572 0
M  V30 120 C 10.5137 3.23884 1.23693 0
M  V30 121 C 9.5747 4.25961 0.534417 0
M  V30 122 C 8.8077 5.11899 1.5098 0
M  V30 123 O 9.0307 5.00077 2.7437 0
M  V30 124 O 7.9647 5.92831 1.0409 0
M  V30 125 H 11.7907 2.99714 -0.490416 0
M  V30 126 H 9.3757 1.46235 -0.305871 0
M  V30 127 H 11.2577 3.79666 1.82843 0
M  V30 128 H 9.9327 2.60446 1.92222 0
M  V30 129 H 8.8397 3.73972 -0.0979679 0
M  V30 130 H 10.1727 4.92079 -0.109213 0
M  V30 131 N 11.8248 0.280983 1.55075 0
M  V30 132 C 13.0718 -0.334115 1.99725 0
M  V30 133 C 13.3998 -1.5542 1.1694 0
M  V30 134 O 12.6548 -1.94361 0.228531 0
M  V30 135 C 12.9538 -0.754656 3.49342 0
M  V30 136 C 12.6198 0.361445 4.49449 0
M  V30 137 C 11.2818 0.667893 4.76542 0
M  V30 138 C 13.6338 1.11322 5.09173 0
M  V30 139 C 10.9618 1.7296 5.60626 0
M  V30 140 C 13.3138 2.1647 5.9441 0
M  V30 141 C 11.9778 2.47742 6.19822 0
M  V30 142 H 11.2478 -0.122261 0.730844 0
M  V30 143 H 13.8948 0.395917 1.87363 0
M  V30 144 H 12.1998 -1.56446 3.5921 0
M  V30 145 H 13.8968 -1.24142 3.813 0
M  V30 146 H 10.4868 0.112481 4.28452 0
M  V30 147 H 14.6708 0.88973 4.8826 0
M  V30 148 H 9.9268 1.97684 5.78559 0
M  V30 149 H 14.1008 2.75193 6.3972 0
M  V30 150 H 11.7278 3.30145 6.84769 0
M  V30 151 N 13.3029 -1.57598 0.00835791 0
M  V30 152 C 14.2349 -2.05811 -1.00868 0
M  V30 153 C 15.2479 -0.977579 -1.30182 0
M  V30 154 O 16.4369 -1.25421 -1.27011 0
M  V30 155 C 13.5369 -2.45016 -2.34137 0
M  V30 156 C 12.7099 -3.75903 -2.23643 0
M  V30 157 C 11.7689 -4.01884 -3.3967 0
M  V30 158 O 10.7949 -4.72433 -3.17483 0
M  V30 159 N 11.9969 -3.50432 -4.62793 0
M  V30 160 H 14.7619 -2.93684 -0.597458 0
M  V30 161 H 12.3229 -1.60909 -0.178852 0
M  V30 162 H 14.3149 -2.59506 -3.10546 0
M  V30 163 H 12.8849 -1.62618 -2.66972 0
M  V30 164 H 12.1049 -3.7141 -1.32091 0
M  V30 165 H 13.3929 -4.61695 -2.13812 0
M  V30 166 H 12.7909 -2.93317 -4.83716 0
M  V30 167 H 11.3479 -3.70236 -5.3644 0
M  V30 168 N 14.781 0.264519 -1.55364 0
M  V30 169 C 16.197 0.61215 -1.47394 0
M  V30 170 C 16.397 1.89134 -0.695018 0
M  V30 171 O 15.453 2.51563 -0.217275 0
M  V30 172 C 16.766 0.731235 -2.91674 0
M  V30 173 C 18.314 0.82473 -3.01939 0
M  V30 174 C 18.789 0.975522 -4.4749 0
M  V30 175 N 20.28 1.04083 -4.51354 0
M  V30 176 C 21.015 1.17646 -5.61201 0
M  V30 177 N 20.511 1.27874 -6.80896 0
M  V30 178 N 22.304 1.20823 -5.48961 0
M  V30 179 H 14.455 -0.575456 -2.04456 0
M  V30 180 H 16.718 -0.196099 -0.927496 0
M  V30 181 H 16.424 -0.138392 -3.51428 0
M  V30 182 H 16.298 1.60883 -3.41169 0
M  V30 183 H 18.685 1.68482 -2.42276 0
M  V30 184 H 18.766 -0.0776479 -2.55682 0
M  V30 185 H 18.41 0.120058 -5.07758 0
M  V30 186 H 18.34 1.89268 -4.91412 0
M  V30 187 H 20.831 0.973846 -3.65136 0
M  V30 188 H 21.144 1.38081 -7.60364 0
M  V30 189 H 19.489 1.24863 -6.83692 0
M  V30 190 H 22.68 1.12469 -4.54388 0
M  V30 191 H 22.853 1.31049 -6.3461 0
M  V30 192 N 16.2591 1.48442 0.529413 0
M  V30 193 C 17.6751 1.34575 0.858004 0
M  V30 194 C 17.8751 0.3572 1.98309 0
M  V30 195 O 16.9311 -0.221379 2.51528 0
M  V30 196 C 18.2441 2.74617 1.22499 0
M  V30 197 C 19.7921 2.83109 1.33484 0
M  V30 198 C 20.2671 4.23854 1.73526 0
M  V30 199 N 21.7581 4.2653 1.80628 0
M  V30 200 C 22.4931 5.32372 2.12997 0
M  V30 201 N 21.9891 6.48491 2.43786 0
M  V30 202 N 23.7821 5.19766 2.14008 0
M  V30 203 H 15.9331 2.1133 -0.212925 0
M  V30 204 H 18.1961 0.947439 -0.0326199 0
M  V30 205 H 17.9021 3.4852 0.471905 0
M  V30 206 H 17.7761 3.08177 2.17501 0
M  V30 207 H 20.1631 2.09462 2.0787 0
M  V30 208 H 20.2441 2.53168 0.366027 0
M  V30 209 H 19.8881 4.98018 0.997013 0
M  V30 210 H 19.8181 4.5124 2.71459 0
M  V30 211 H 22.3091 3.42772 1.59108 0
M  V30 212 H 22.6221 7.24993 2.67592 0
M  V30 213 H 20.9671 6.51765 2.41304 0
M  V30 214 H 24.1581 4.28066 1.89412 0
M  V30 215 H 24.3311 6.02354 2.38902 0
M  V30 216 N 17.7372 -0.778329 1.37039 0
M  V30 217 C 19.1532 -1.07796 1.17695 0
M  V30 218 C 19.3532 -2.01498 0.00860115 0
M  V30 219 O 18.4092 -2.43901 -0.653352 0
M  V30 220 C 19.7222 -1.68178 2.49272 0
M  V30 221 C 21.2702 -1.80467 2.55735 0
M  V30 222 C 21.7452 -2.44263 3.87427 0
M  V30 223 N 23.2362 -2.51721 3.88833 0
M  V30 224 C 23.9712 -3.01919 4.87476 0
M  V30 225 N 23.4672 -3.5234 5.96513 0
M  V30 226 N 25.2602 -3.00733 4.74885 0
M  V30 227 H 17.4112 -0.156032 2.11826 0
M  V30 228 H 19.6742 -0.131844 0.938787 0
M  V30 229 H 19.3802 -1.06796 3.35093 0
M  V30 230 H 19.2542 -2.67554 2.65885 0
M  V30 231 H 21.6412 -2.40984 1.70325 0
M  V30 232 H 21.7222 -0.798656 2.43013 0
M  V30 233 H 21.3662 -1.84388 4.73248 0
M  V30 234 H 21.2962 -3.45458 3.9745 0
M  V30 235 H 23.7872 -2.1603 3.10063 0
M  V30 236 H 24.1002 -3.89027 6.67741 0
M  V30 237 H 22.4452 -3.50462 6.00168 0
M  V30 238 H 25.6362 -2.60638 3.88826 0
M  V30 239 H 25.8092 -3.39545 5.51918 0
M  V30 240 N 19.2153 -1.21501 -1.00376 0
M  V30 241 C 20.1473 -0.933174 -2.09343 0
M  V30 242 C 21.1603 0.0840896 -1.62583 0
M  V30 243 O 22.3493 -0.148563 -1.77881 0
M  V30 244 C 19.4493 -0.379869 -3.36764 0
M  V30 245 C 18.6223 -1.45176 -4.12605 0
M  V30 246 C 17.6813 -0.907476 -5.18316 0
M  V30 247 O 16.7073 -1.5912 -5.46507 0
M  V30 248 N 17.9093 0.276649 -5.7984 0
M  V30 249 H 20.6743 -1.87124 -2.34104 0
M  V30 250 H 18.2353 -1.12043 -1.16867 0
M  V30 251 H 20.2273 -0.00131488 -4.047 0
M  V30 252 H 18.7973 0.463048 -3.09151 0
M  V30 253 H 18.0173 -2.00411 -3.39454 0
M  V30 254 H 19.3053 -2.17328 -4.6005 0
M  V30 255 H 18.7033 0.849147 -5.59291 0
M  V30 256 H 17.2603 0.596702 -6.49063 0
M  V30 257 N 20.6934 1.19889 -1.02296 0
M  V30 258 C 21.6564 2.21116 -0.603351 0
M  V30 259 C 22.6564 1.5738 0.329884 0
M  V30 260 O 23.8464 1.73802 0.117702 0
M  V30 261 C 20.9784 3.40696 0.117992 0
M  V30 262 H 22.1714 2.59754 -1.49893 0
M  V30 263 H 19.7244 1.33463 -0.813468 0
M  V30 264 H 20.4594 3.07569 1.0282 0
M  V30 265 H 20.2444 3.88188 -0.552511 0
M  V30 266 H 21.7344 4.15692 0.398696 0
M  V30 267 N 22.1715 0.800033 1.35784 0
M  V30 268 C 23.1015 0.220184 2.3246 0
M  V30 269 C 24.0825 -0.65073 1.57161 0
M  V30 270 O 25.2675 -0.582359 1.85263 0
M  V30 271 C 22.3975 -0.637353 3.41402 0
M  V30 272 C 21.3515 0.134531 4.27789 0
M  V30 273 C 20.6775 -0.844285 5.27992 0
M  V30 274 C 21.9775 1.32979 5.05088 0
M  V30 275 H 23.6715 1.02787 2.81203 0
M  V30 276 H 21.2175 0.495717 1.35199 0
M  V30 277 H 23.1705 -1.05302 4.08031 0
M  V30 278 H 21.8945 -1.47785 2.91251 0
M  V30 279 H 20.5535 0.531296 3.6273 0
M  V30 280 H 20.2015 -1.68011 4.74111 0
M  V30 281 H 19.9015 -0.332184 5.8666 0
M  V30 282 H 21.4255 -1.2583 5.97494 0
M  V30 283 H 22.8395 0.98934 5.64699 0
M  V30 284 H 21.2365 1.77593 5.7322 0
M  V30 285 H 22.3065 2.11978 4.36111 0
M  V30 286 N 23.6496 -1.47581 0.552962 0
M  V30 287 C 24.8956 -2.02782 0.0273648 0
M  V30 288 C 25.2286 -1.42687 -1.31734 0
M  V30 289 O 24.5036 -0.580897 -1.85623 0
M  V30 290 C 24.7866 -3.60031 -0.0702371 0
M  V30 291 C 24.6396 -4.30566 1.30126 0
M  V30 292 C 25.9586 -4.33028 -0.785771 0
M  V30 293 H 23.0776 -0.736912 0.0114185 0
M  V30 294 H 25.7196 -1.76056 0.714432 0
M  V30 295 H 23.8696 -3.82932 -0.655382 0
M  V30 296 H 25.5416 -4.19018 1.92929 0
M  V30 297 H 23.7846 -3.91086 1.87709 0
M  V30 298 H 24.4556 -5.39114 1.18573 0
M  V30 299 H 26.9316 -4.15095 -0.288982 0
M  V30 300 H 25.8076 -5.42695 -0.823013 0
M  V30 301 H 26.0686 -4.01945 -1.841 0
M  V30 302 N 25.1277 -0.289203 -1.54924 0
M  V30 303 C 26.0377 0.601863 -2.26748 0
M  V30 304 C 27.0537 1.15834 -1.2984 0
M  V30 305 O 28.2297 1.18564 -1.62802 0
M  V30 306 C 25.2947 1.76299 -2.98529 0
M  V30 307 C 24.3557 1.24178 -4.10948 0
M  V30 308 C 23.5887 2.34757 -4.79296 0
M  V30 309 O 23.8117 3.54411 -4.46933 0
M  V30 310 O 22.7457 2.02115 -5.66951 0
M  V30 311 H 26.5717 0.0195879 -3.03694 0
M  V30 312 H 24.1567 -0.0560868 -1.49295 0
M  V30 313 H 26.0387 2.43973 -3.43592 0
M  V30 314 H 24.7137 2.33209 -2.24488 0
M  V30 315 H 23.6207 0.531104 -3.70311 0
M  V30 316 H 24.9537 0.718252 -4.86931 0
M  V30 317 N 26.6058 1.57591 -0.0167156 0
M  V30 318 C 27.5378 2.06343 0.997753 0
M  V30 319 C 28.5508 0.984469 1.29661 0
M  V30 320 O 29.7398 1.26093 1.26344 0
M  V30 321 C 26.8398 2.46255 2.32834 0
M  V30 322 C 26.0128 3.77083 2.21646 0
M  V30 323 C 25.0718 4.0368 3.37534 0
M  V30 324 O 24.0978 4.7411 3.14973 0
M  V30 325 N 25.2998 3.52881 4.60929 0
M  V30 326 H 28.0648 2.93997 0.581875 0
M  V30 327 H 25.6258 1.61002 0.170316 0
M  V30 328 H 27.6178 2.61149 3.09166 0
M  V30 329 H 26.1878 1.64032 2.66106 0
M  V30 330 H 25.4078 3.72106 1.30119 0
M  V30 331 H 26.6958 4.62822 2.11361 0
M  V30 332 H 26.0938 2.95878 4.82154 0
M  V30 333 H 24.6508 3.73076 5.34469 0
M  V30 334 N 28.0839 -0.256276 1.55502 0
M  V30 335 C 29.0169 -1.34321 1.84481 0
M  V30 336 C 29.9949 -1.46802 0.699131 0
M  V30 337 O 31.1789 -1.63165 0.943904 0
M  V30 338 C 28.3059 -2.71779 2.02123 0
M  V30 339 C 27.3519 -2.76496 3.24734 0
M  V30 340 S 28.1849 -2.3405 4.81644 0
M  V30 341 C 29.3409 -3.73452 5.02279 0
M  V30 342 H 29.5739 -1.09539 2.76385 0
M  V30 343 H 27.1069 -0.45678 1.47489 0
M  V30 344 H 29.0649 -3.50932 2.12972 0
M  V30 345 H 27.7259 -2.93803 1.11078 0
M  V30 346 H 26.9189 -3.77424 3.34016 0
M  V30 347 H 26.5209 -2.05379 3.12563 0
M  V30 348 H 28.8129 -4.6887 4.89047 0
M  V30 349 H 29.7559 -3.6911 6.04287 0
M  V30 350 H 30.1639 -3.6553 4.30172 0
M  V30 351 N 29.562 -1.4872 -0.521534 0
M  V30 352 C 30.494 -1.59968 -1.64143 0
M  V30 353 C 31.507 -0.483463 -1.55456 0
M  V30 354 O 32.696 -0.75467 -1.61762 0
M  V30 355 C 29.796 -1.52127 -3.02838 0
M  V30 356 C 28.969 -2.78932 -3.36921 0
M  V30 357 C 28.028 -2.64428 -4.54933 0
M  V30 358 O 27.054 -3.38331 -4.57735 0
M  V30 359 N 28.256 -1.74606 -5.53618 0
M  V30 360 H 31.021 -2.56548 -1.54929 0
M  V30 361 H 28.582 -1.45551 -0.708988 0
M  V30 362 H 30.574 -1.40106 -3.79674 0
M  V30 363 H 29.144 -0.634868 -3.06085 0
M  V30 364 H 28.364 -3.05455 -2.4918 0
M  V30 365 H 29.652 -3.63041 -3.56481 0
M  V30 366 H 29.05 -1.13782 -5.54139 0
M  V30 367 H 27.607 -1.6852 -6.29638 0
M  V30 368 N 31.0401 0.771051 -1.3745 0
M  V30 369 C 32.4511 1.34737 -1.29239 0
M  V30 370 C 32.8021 1.96109 0.0596908 0
M  V30 371 O 31.9271 1.93865 0.961534 0
M  V30 372 C 32.5221 2.44973 -2.34037 0
M  V30 373 C 31.0811 2.98372 -2.29458 0
M  V30 374 C 30.2281 1.71595 -2.17831 0
M  V30 375 H 33.1791 0.571256 -1.48062 0
M  V30 376 H 33.2001 3.24471 -1.98744 0
M  V30 377 H 32.7121 2.00276 -3.32432 0
M  V30 378 H 30.8131 3.47443 -1.34589 0
M  V30 379 H 30.9261 3.53939 -3.229 0
M  V30 380 H 29.2901 1.94547 -1.64388 0
M  V30 381 H 30.0731 1.29001 -3.18141 0
M  V30 382 N 32.5182 1.22032 0.997298 0
M  V30 383 C 33.7662 1.04016 1.73278 0
M  V30 384 C 34.0872 -0.426255 1.90284 0
M  V30 385 O 33.3572 -1.30694 1.45931 0
M  V30 386 H 31.9372 0.381897 0.642 0
M  V30 387 H 34.5992 1.5347 1.20137 0
M  V30 388 H 33.6952 1.51441 2.72896 0
M  V30 389 N 33.9963 -1.19345 1.0293 0
M  V30 390 C 35.2213 -1.93538 0.745511 0
M  V30 391 C 35.6463 -1.75007 -0.689511 0
M  V30 392 O 35.0043 -1.05265 -1.47611 0
M  V30 393 C 35.0523 -3.43336 1.10239 0
M  V30 394 O 34.1563 -4.11806 0.221289 0
M  V30 395 H 33.4973 -0.604193 0.275404 0
M  V30 396 H 36.0273 -1.5141 1.37609 0
M  V30 397 H 36.0373 -3.94004 1.05947 0
M  V30 398 H 34.7123 -3.56146 2.14786 0
M  V30 399 H 33.2893 -3.715 0.322842 0
M  V30 400 N 35.4744 -0.807222 -1.35358 0
M  V30 401 C 36.4374 -0.223665 -2.28106 0
M  V30 402 C 37.4374 0.589354 -1.4961 0
M  V30 403 O 38.6274 0.407745 -1.69361 0
M  V30 404 C 35.7594 0.688149 -3.33882 0
M  V30 405 H 36.9524 -1.04169 -2.81227 0
M  V30 406 H 34.5054 -0.577921 -1.45223 0
M  V30 407 H 35.2404 1.52984 -2.85948 0
M  V30 408 H 35.0254 0.10687 -3.91954 0
M  V30 409 H 36.5154 1.09075 -4.03104 0
M  V30 410 N 36.9525 1.47285 -0.560781 0
M  V30 411 C 37.9155 2.28535 0.174488 0
M  V30 412 C 38.9155 1.37153 0.839388 0
M  V30 413 O 40.1055 1.59748 0.694702 0
M  V30 414 C 37.2375 3.16934 1.25561 0
M  V30 415 H 38.4305 2.95012 -0.539262 0
M  V30 416 H 35.9835 1.53034 -0.317865 0
M  V30 417 H 36.7185 2.55157 2.00164 0
M  V30 418 H 36.5035 3.8419 0.783604 0
M  V30 419 H 37.9935 3.78143 1.77193 0
M  V30 420 N 38.4306 0.297415 1.54768 0
M  V30 421 C 39.3606 -0.573494 2.26348 0
M  V30 422 C 40.3416 -1.14085 1.26169 0
M  V30 423 O 41.5266 -1.17086 1.54934 0
M  V30 424 C 38.6566 -1.74716 3.00153 0
M  V30 425 C 37.6106 -1.31032 4.07449 0
M  V30 426 C 36.9366 -2.56887 4.68949 0
M  V30 427 C 38.2366 -0.444183 5.20408 0
M  V30 428 H 39.9306 0.0235131 2.99391 0
M  V30 429 H 37.4766 0.0127488 1.43994 0
M  V30 430 H 39.4296 -2.3625 3.48947 0
M  V30 431 H 38.1536 -2.37035 2.24682 0
M  V30 432 H 36.8126 -0.718066 3.59499 0
M  V30 433 H 36.4606 -3.17512 3.90122 0
M  V30 434 H 36.1606 -2.2836 5.41411 0
M  V30 435 H 37.6846 -3.19229 5.20505 0
M  V30 436 H 39.0986 -0.9651 5.65118 0
M  V30 437 H 37.4956 -0.252846 5.99567 0
M  V30 438 H 38.5656 0.531609 4.81977 0
M  V30 439 N 39.9087 -1.5758 0.0250728 0
M  V30 440 C 41.1577 -1.90811 -0.653767 0
M  V30 441 C 41.4707 -0.90273 -1.73523 0
M  V30 442 O 42.6767 -1.12614 -2.47043 0
M  V30 443 C 41.1327 -3.38804 -1.21409 0
M  V30 444 C 40.7407 -4.47692 -0.166126 0
M  V30 445 C 42.4847 -3.81108 -1.86967 0
M  V30 446 C 40.3917 -5.86779 -0.737856 0
M  V30 447 H 39.3217 -0.712063 -0.247956 0
M  V30 448 H 41.9727 -1.83281 0.0897137 0
M  V30 449 H 40.3547 -3.41252 -2.00905 0
M  V30 450 H 41.5287 -4.56797 0.606079 0
M  V30 451 H 39.8437 -4.14565 0.390466 0
M  V30 452 H 42.4407 -4.82375 -2.30692 0
M  V30 453 H 42.7837 -3.15953 -2.71071 0
M  V30 454 H 43.3167 -3.81065 -1.14167 0
M  V30 455 H 40.0557 -6.55468 0.0649577 0
M  V30 456 H 39.5757 -5.81288 -1.47864 0
M  V30 457 H 41.2547 -6.35223 -1.22884 0
M  V30 458 N 41.3868 0.248026 -1.55636 0
M  V30 459 C 42.6338 0.976224 -1.77415 0
M  V30 460 C 42.9618 1.85361 -0.589193 0
M  V30 461 O 42.2168 1.90973 0.427529 0
M  V30 462 C 42.5158 1.86819 -3.04686 0
M  V30 463 C 42.1818 1.14625 -4.36087 0
M  V30 464 C 40.8438 0.946723 -4.71795 0
M  V30 465 C 43.1958 0.634463 -5.17324 0
M  V30 466 C 40.5238 0.223091 -5.86276 0
M  V30 467 C 42.8758 -0.0756959 -6.32555 0
M  V30 468 C 41.5398 -0.286711 -6.66884 0
M  V30 469 H 40.8098 0.357226 -0.649208 0
M  V30 470 H 43.4568 0.246415 -1.89908 0
M  V30 471 H 41.7618 2.66502 -2.872 0
M  V30 472 H 43.4588 2.43329 -3.18735 0
M  V30 473 H 40.0488 1.3117 -4.08035 0
M  V30 474 H 44.2328 0.77616 -4.90193 0
M  V30 475 H 39.4888 0.0491185 -6.1138 0
M  V30 476 H 43.6628 -0.479899 -6.94745 0
M  V30 477 H 41.2898 -0.849389 -7.5544 0
M  V30 478 N 42.8649 1.48995 0.513639 0
M  V30 479 C 43.8279 1.64229 1.59879 0
M  V30 480 C 44.8279 0.514696 1.5234 0
M  V30 481 O 46.0179 0.78087 1.55718 0
M  V30 482 C 43.1499 1.62783 2.99524 0
M  V30 483 H 44.3429 2.61004 1.47705 0
M  V30 484 H 41.8959 1.37837 0.736936 0
M  V30 485 H 42.6309 0.675461 3.17188 0
M  V30 486 H 42.4159 2.4466 3.06404 0
M  V30 487 H 43.9059 1.76669 3.78388 0
M  V30 488 N 44.343 -0.763751 1.37857 0
M  V30 489 C 45.306 -1.85889 1.34081 0
M  V30 490 C 46.306 -1.58949 0.243277 0
M  V30 491 O 47.496 -1.66882 0.499589 0
M  V30 492 C 44.628 -3.23176 1.08489 0
M  V30 493 H 45.821 -1.90648 2.31502 0
M  V30 494 H 43.374 -0.964367 1.23003 0
M  V30 495 H 44.109 -3.24091 0.116318 0
M  V30 496 H 43.894 -3.44124 1.8794 0
M  V30 497 H 45.384 -4.03254 1.08517 0
M  V30 498 N 45.8211 -1.22559 -0.990812 0
M  V30 499 C 47.2321 -1.04791 -1.54518 0
M  V30 500 C 47.5831 0.387998 -1.92325 0
M  V30 501 O 46.7081 1.27328 -1.74976 0
M  V30 502 C 47.3031 -1.896 -2.80779 0
M  V30 503 C 45.8621 -1.76124 -3.32652 0
M  V30 504 C 45.0091 -1.8594 -2.05722 0
M  V30 505 H 47.9601 -1.36374 -0.811662 0
M  V30 506 H 47.9811 -1.41464 -3.53225 0
M  V30 507 H 47.4931 -2.94101 -2.53231 0
M  V30 508 H 45.5941 -0.743643 -3.65104 0
M  V30 509 H 45.7071 -2.58913 -4.03114 0
M  V30 510 H 44.0711 -1.29403 -2.19379 0
M  V30 511 H 44.8541 -2.91976 -1.80568 0
M  V30 512 N 47.2992 1.18797 -1.03562 0
M  V30 513 C 48.2092 2.25913 -0.632505 0
M  V30 514 C 49.2252 1.70668 0.338882 0
M  V30 515 O 50.4012 2.00453 0.195076 0
M  V30 516 C 47.4662 3.467 0.00350942 0
M  V30 517 C 46.5272 4.17098 -1.01624 0
M  V30 518 C 45.7602 5.32119 -0.410478 0
M  V30 519 O 45.9832 5.64976 0.784725 0
M  V30 520 O 44.9172 5.9107 -1.13667 0
M  V30 521 H 48.7432 2.62648 -1.52478 0
M  V30 522 H 46.3282 1.25781 -0.806195 0
M  V30 523 H 48.2102 4.19878 0.35781 0
M  V30 524 H 46.8852 3.11798 0.869686 0
M  V30 525 H 45.7922 3.4601 -1.42224 0
M  V30 526 H 47.1252 4.55987 -1.85301 0
M  V30 527 N 48.7773 0.814389 1.34928 0
M  V30 528 C 50.0233 0.399013 1.98836 0
M  V30 529 C 50.3563 -1.03314 1.64438 0
M  V30 530 O 49.6313 -1.71811 0.911659 0
M  V30 531 C 49.9143 0.591629 3.55207 0
M  V30 532 C 49.7673 2.06928 3.99376 0
M  V30 533 C 51.0863 0.022199 4.40094 0
M  V30 534 H 48.2053 0.146451 0.722303 0
M  V30 535 H 50.8473 1.02537 1.59957 0
M  V30 536 H 48.9973 0.0584441 3.88456 0
M  V30 537 H 50.6693 2.66544 3.76499 0
M  V30 538 H 48.9123 2.56287 3.49999 0
M  V30 539 H 49.5833 2.1549 5.08201 0
M  V30 540 H 52.0593 0.477643 4.13349 0
M  V30 541 H 50.9353 0.186832 5.48582 0
M  V30 542 H 51.1963 -1.07215 4.28902 0
M  V30 543 N 50.2554 -1.46986 0.568584 0
M  V30 544 C 51.4834 -2.0683 0.0539956 0
M  V30 545 C 51.8984 -1.41953 -1.24478 0
M  V30 546 O 51.2554 -0.519933 -1.74937 0
M  V30 547 C 51.3064 -3.61254 -0.133362 0
M  V30 548 O 51.0274 -4.237 1.11399 0
M  V30 549 C 52.5284 -4.37992 -0.683927 0
M  V30 550 H 49.7484 -0.669058 0.0510141 0
M  V30 551 H 52.2924 -1.88824 0.785234 0
M  V30 552 H 50.4474 -3.78735 -0.81477 0
M  V30 553 H 50.8614 -5.16388 0.91888 0
M  V30 554 H 52.3354 -5.46684 -0.764263 0
M  V30 555 H 52.8124 -4.05058 -1.69778 0
M  V30 556 H 53.4184 -4.25283 -0.0378494 0
M  V30 557 N 51.7335 -0.305618 -1.54608 0
M  V30 558 C 53.1495 0.0476228 -1.59529 0
M  V30 559 C 53.3495 1.52025 -1.32252 0
M  V30 560 O 52.4055 2.27368 -1.09818 0
M  V30 561 C 53.7185 -0.354471 -2.98603 0
M  V30 562 C 55.2665 -0.303622 -3.11524 0
M  V30 563 C 55.7415 -0.680608 -4.52915 0
M  V30 564 N 57.2325 -0.63332 -4.5885 0
M  V30 565 C 57.9675 -0.897432 -5.66334 0
M  V30 566 N 57.4635 -1.22775 -6.81834 0
M  V30 567 N 59.2565 -0.824186 -5.56025 0
M  V30 568 H 51.4075 -1.2653 -1.70599 0
M  V30 569 H 53.6705 -0.513291 -0.797017 0
M  V30 570 H 53.3765 -1.3798 -3.23503 0
M  V30 571 H 53.2505 0.289568 -3.76087 0
M  V30 572 H 55.6375 0.712472 -2.8637 0
M  V30 573 H 55.7185 -0.982348 -2.36185 0
M  V30 574 H 55.3625 -1.69453 -4.78799 0
M  V30 575 H 55.2925 0.0202385 -5.26596 0
M  V30 576 H 57.7835 -0.389138 -3.75891 0
M  V30 577 H 58.0965 -1.41513 -7.59733 0
M  V30 578 H 56.4415 -1.26583 -6.83375 0
M  V30 579 H 59.6325 -0.565748 -4.64669 0
M  V30 580 H 59.8055 -1.03338 -6.39707 0
M  V30 581 N 53.2116 1.57565 -0.0334293 0
M  V30 582 C 54.4366 1.96689 0.657895 0
M  V30 583 C 54.8616 0.910057 1.64619 0
M  V30 584 O 54.2196 -0.128598 1.80843 0
M  V30 585 C 54.2676 3.34905 1.33683 0
M  V30 586 O 53.3716 3.31574 2.45219 0
M  V30 587 H 52.7126 0.641205 0.172489 0
M  V30 588 H 55.2426 2.04372 -0.0965621 0
M  V30 589 H 55.2526 3.71234 1.69262 0
M  V30 590 H 53.9276 4.11366 0.612411 0
M  V30 591 H 52.5046 3.06968 2.11719 0
M  V30 592 N 54.6897 -0.239769 1.55765 0
M  V30 593 C 55.6527 -1.28038 1.90103 0
M  V30 594 C 56.6527 -1.40723 0.778055 0
M  V30 595 O 57.8427 -1.39301 1.04599 0
M  V30 596 C 54.9747 -2.65702 2.13577 0
M  V30 597 H 56.1677 -0.988048 2.83157 0
M  V30 598 H 53.7207 -0.479382 1.48767 0
M  V30 599 H 54.4557 -3.00063 1.23015 0
M  V30 600 H 54.2407 -2.57875 2.95369 0
M  V30 601 H 55.7307 -3.40828 2.41301 0
M  V30 602 N 56.1678 -1.49265 -0.50573 0
M  V30 603 C 57.4448 -1.49012 -1.26707 0
M  V30 604 C 57.8248 -0.215205 -2.1 0
M  V30 605 O 57.1728 0.802547 -2.13943 0
M  V30 606 C 57.3828 -2.7663 -2.12783 0
M  V30 607 C 58.7308 -3.25932 -2.72127 0
M  V30 608 O 59.7548 -2.77715 -2.23054 0
M  V30 609 O 58.6138 -4.09897 -3.61451 0
M  V30 610 H 55.7078 -0.596197 -0.57313 0
M  V30 611 H 58.2538 -1.61524 -0.52039 0
M  V30 612 H 57.0258 -3.60916 -1.5118 0
M  V30 613 H 56.6488 -2.66956 -2.94653 0
M  V30 614 N 57.6459 0.756429 -1.3826 0
M  V30 615 C 58.8709 1.55077 -1.37717 0
M  V30 616 C 59.2959 1.88073 0.03164 0
M  V30 617 O 58.6539 1.50364 1.01293 0
M  V30 618 C 58.7019 2.8283 -2.23695 0
M  V30 619 O 57.8059 3.77862 -1.6521 0
M  V30 620 H 57.1469 0.469152 -0.469885 0
M  V30 621 H 59.6769 0.935019 -1.81985 0
M  V30 622 H 59.6869 3.31783 -2.37453 0
M  V30 623 H 58.3619 2.58144 -3.2609 0
M  V30 624 H 56.9389 3.36555 -1.60578 0
M  V30 625 N 59.124 1.23083 0.984299 0
M  V30 626 C 60.034 1.02515 2.11016 0
M  V30 627 C 61.05 -0.0291702 1.73976 0
M  V30 628 O 62.226 0.165434 2.00719 0
M  V30 629 C 59.291 0.614673 3.41208 0
M  V30 630 C 58.352 1.74359 3.92297 0
M  V30 631 C 57.585 1.35261 5.16275 0
M  V30 632 O 57.808 0.235136 5.69915 0
M  V30 633 O 56.742 2.17227 5.61334 0
M  V30 634 H 60.568 1.96862 2.31255 0
M  V30 635 H 58.153 1.01753 1.09392 0
M  V30 636 H 60.035 0.396518 4.1953 0
M  V30 637 H 58.71 -0.299851 3.22308 0
M  V30 638 H 57.617 2.01635 3.1511 0
M  V30 639 H 58.95 2.63629 4.15645 0
M  V30 640 N 60.6021 -1.18246 1.0419 0
M  V30 641 C 61.8321 -1.91916 0.764961 0
M  V30 642 C 62.2401 -1.76485 -0.681898 0
M  V30 643 O 61.5831 -1.09275 -1.47664 0
M  V30 644 C 61.6451 -3.4373 1.05309 0
M  V30 645 C 61.3091 -3.8294 2.4941 0
M  V30 646 C 62.3061 -3.86621 3.47592 0
M  V30 647 C 59.9911 -4.142 2.84155 0
M  V30 648 C 61.9851 -4.21013 4.78568 0
M  V30 649 C 59.6721 -4.48262 4.15337 0
M  V30 650 C 60.6701 -4.51645 5.12353 0
M  V30 651 O 60.3581 -4.84911 6.41183 0
M  V30 652 H 60.0901 -0.61606 0.278292 0
M  V30 653 H 62.6441 -1.50947 1.39299 0
M  V30 654 H 60.8741 -3.84946 0.367933 0
M  V30 655 H 62.5631 -3.9865 0.763752 0
M  V30 656 H 63.3291 -3.62607 3.22089 0
M  V30 657 H 59.2081 -4.10743 2.09311 0
M  V30 658 H 62.7521 -4.23568 5.54289 0
M  V30 659 H 58.6491 -4.71737 4.40607 0
M  V30 660 H 59.4171 -5.02809 6.45852 0
M  V30 661 N 62.0802 -0.821533 -1.34494 0
M  V30 662 C 63.4912 -0.467956 -1.8074 0
M  V30 663 C 63.8422 1.01151 -1.68116 0
M  V30 664 O 62.9672 1.78707 -1.22036 0
M  V30 665 C 63.5622 -0.842627 -3.28154 0
M  V30 666 C 62.1212 -0.541439 -3.72485 0
M  V30 667 C 61.2682 -1.06028 -2.56229 0
M  V30 668 H 64.2192 -1.01183 -1.22261 0
M  V30 669 H 64.2402 -0.145876 -3.8022 0
M  V30 670 H 63.7522 -1.91945 -3.37311 0
M  V30 671 H 61.8532 0.526034 -3.68868 0
M  V30 672 H 61.9662 -1.08453 -4.66663 0
M  V30 673 H 60.3302 -0.481892 -2.501 0
M  V30 674 H 61.1132 -2.14352 -2.68157 0
M  V30 675 N 63.5583 1.46682 -0.576371 0
M  V30 676 C 64.7883 2.06498 -0.0648694 0
M  V30 677 C 65.1963 1.42665 1.24271 0
M  V30 678 O 64.5393 0.523886 1.76071 0
M  V30 679 C 64.6013 3.5904 0.181816 0
M  V30 680 C 64.2653 4.45028 -1.0392 0
M  V30 681 C 65.2623 4.81959 -1.94966 0
M  V30 682 C 62.9473 4.86259 -1.25927 0
M  V30 683 C 64.9413 5.58942 -3.06371 0
M  V30 684 C 62.6283 5.63002 -2.37638 0
M  V30 685 C 63.6263 5.99257 -3.2769 0
M  V30 686 O 63.3143 6.7445 -4.37461 0
M  V30 687 H 63.0463 0.674028 -0.0515987 0
M  V30 688 H 65.6003 1.89393 -0.794951 0
M  V30 689 H 63.8303 3.74429 0.966436 0
M  V30 690 H 65.5193 4.00806 0.641047 0
M  V30 691 H 66.2853 4.50689 -1.79177 0
M  V30 692 H 62.1643 4.57494 -0.567448 0
M  V30 693 H 65.7083 5.87158 -3.76684 0
M  V30 694 H 61.6053 5.93686 -2.53392 0
M  V30 695 H 62.3733 6.92867 -4.35749 0
M  V30 696 N 65.0364 0.313813 1.54444 0
M  V30 697 C 66.4524 -0.0391619 1.59552 0
M  V30 698 C 66.6524 -1.51322 1.33056 0
M  V30 699 O 65.7084 -2.26782 1.11022 0
M  V30 700 C 67.0214 0.370302 2.98411 0
M  V30 701 C 68.5694 0.320139 3.11358 0
M  V30 702 C 69.0444 0.704617 4.52547 0
M  V30 703 N 70.5354 0.657645 4.58508 0
M  V30 704 C 71.2704 0.927453 5.6585 0
M  V30 705 N 70.7664 1.26389 6.81174 0
M  V30 706 N 72.5594 0.853662 5.5558 0
M  V30 707 H 64.7104 1.27433 1.69925 0
M  V30 708 H 66.9734 0.517511 0.794284 0
M  V30 709 H 66.6794 1.39694 3.22767 0
M  V30 710 H 66.5534 -0.269619 3.76235 0
M  V30 711 H 68.9404 -0.697275 2.86744 0
M  V30 712 H 69.0214 0.99486 2.35661 0
M  V30 713 H 68.6654 1.7199 4.77893 0
M  V30 714 H 68.5954 0.00768843 5.26599 0
M  V30 715 H 71.0864 0.409067 3.75679 0
M  V30 716 H 71.3994 1.4554 7.58972 0
M  V30 717 H 69.7444 1.30206 6.82694 0
M  V30 718 H 72.9354 0.590383 4.64362 0
M  V30 719 H 73.1084 1.0673 6.3915 0
M  V30 720 N 66.5145 -1.57545 0.0417849 0
M  V30 721 C 67.4465 -2.07904 -0.964799 0
M  V30 722 C 68.4595 -1.00497 -1.28079 0
M  V30 723 O 69.6485 -1.28087 -1.24322 0
M  V30 724 C 66.7485 -2.49928 -2.28887 0
M  V30 725 C 65.9215 -3.80562 -2.15619 0
M  V30 726 C 64.9805 -4.08999 -3.31069 0
M  V30 727 O 64.0065 -4.79061 -3.0739 0
M  V30 728 N 65.2085 -3.6017 -4.55256 0
M  V30 729 H 67.9735 -2.94886 -0.535029 0
M  V30 730 H 65.5345 -1.61252 -0.144681 0
M  V30 731 H 67.5265 -2.66034 -3.04972 0
M  V30 732 H 66.0965 -1.68245 -2.63463 0
M  V30 733 H 65.3165 -3.74129 -1.24183 0
M  V30 734 H 66.6045 -4.66126 -2.03971 0
M  V30 735 H 66.0025 -3.03512 -4.77386 0
M  V30 736 H 64.5595 -3.81532 -5.28466 0
M  V30 737 N 67.9926 0.231505 -1.5589 0
M  V30 738 C 68.9406 1.30649 -1.92441 0
M  V30 739 C 69.9346 1.49037 -0.805254 0
M  V30 740 O 71.1406 1.50329 -0.990007 0
M  V30 741 H 67.5156 0.437812 -0.611412 0
M  V30 742 H 69.4866 0.970973 -2.82161 0
M  V30 743 C 68.2356 2.65179 -2.24889 0
M  V30 744 H 67.5586 2.51835 -3.10514 0
M  V30 745 H 68.9986 3.39234 -2.54355 0
M  V30 746 C 67.4576 3.19439 -1.07054 0
M  V30 747 O 67.9876 4.00371 -0.326499 0
M  V30 748 N 66.1936 2.77675 -0.85703 0
M  V30 749 H 65.7406 2.11969 -1.46379 0
M  V30 750 H 65.6986 3.14321 -0.0703223 0
M  V30 751 N 69.4707 1.49531 0.497807 0
M  V30 752 C 70.6957 1.63159 1.28039 0
M  V30 753 C 71.1207 0.30418 1.85624 0
M  V30 754 O 70.4787 -0.728618 1.66015 0
M  V30 755 C 70.5267 2.70537 2.38416 0
M  V30 756 O 69.6307 2.29931 3.42353 0
M  V30 757 H 68.9717 0.546001 0.377861 0
M  V30 758 H 71.5017 1.9574 0.59558 0
M  V30 759 H 71.5117 2.92802 2.84132 0
M  V30 760 H 70.1867 3.6689 1.95869 0
M  V30 761 H 68.7637 2.18009 3.02533 0
M  V30 762 N 70.9488 -0.749086 1.3866 0
M  V30 763 C 72.2258 -1.4992 1.25632 0
M  V30 764 C 72.6058 -2.10633 -0.140317 0
M  V30 765 O 71.9538 -1.97437 -1.15025 0
M  V30 766 C 72.1638 -2.56195 2.36992 0
M  V30 767 C 73.5118 -3.22972 2.75634 0
M  V30 768 O 74.5358 -2.66502 2.36337 0
M  V30 769 O 73.3948 -4.25122 3.43415 0
M  V30 770 H 70.4888 -0.665067 0.491544 0
M  V30 771 H 73.0348 -0.784113 1.50498 0
M  V30 772 H 71.8068 -2.09612 3.30422 0
M  V30 773 H 71.4298 -3.35279 2.13714 0
M  V30 774 N 72.4269 -1.23603 -0.977757 0
M  V30 775 C 73.6739 -1.06971 -1.71941 0
M  V30 776 C 74.0019 0.393009 -1.90488 0
M  V30 777 O 73.2569 1.30719 -1.4564 0
M  V30 778 C 73.5559 -1.7433 -3.11999 0
M  V30 779 C 73.2219 -3.24252 -3.13323 0
M  V30 780 C 71.8839 -3.65156 -3.13392 0
M  V30 781 C 74.2359 -4.20141 -3.08433 0
M  V30 782 C 71.5639 -5.00403 -3.0629 0
M  V30 783 C 73.9159 -5.55384 -3.02873 0
M  V30 784 C 72.5799 -5.95647 -3.01265 0
M  V30 785 H 71.8499 -0.391433 -0.629175 0
M  V30 786 H 74.4969 -1.53572 -1.14403 0
M  V30 787 H 72.8019 -1.20096 -3.7294 0
M  V30 788 H 74.4989 -1.58936 -3.68158 0
M  V30 789 H 71.0889 -2.91692 -3.14029 0
M  V30 790 H 75.2729 -3.89547 -3.07517 0
M  V30 791 H 70.5289 -5.3081 -3.03399 0
M  V30 792 H 74.7029 -6.29398 -2.98046 0
M  V30 793 H 72.3299 -7.0041 -2.95516 0
M  V30 794 N 73.905 1.17692 -1.04816 0
M  V30 795 C 75.151 1.88389 -0.766892 0
M  V30 796 C 75.506 1.79282 0.698269 0
M  V30 797 O 74.799 1.18739 1.50372 0
M  V30 798 C 74.993 3.37462 -1.17703 0
M  V30 799 C 74.822 3.6108 -2.68051 0
M  V30 800 C 73.592 3.78018 -3.35307 0
M  V30 801 C 75.79 3.61039 -3.66273 0
M  V30 802 N 73.772 3.89444 -4.74559 0
M  V30 803 C 75.143 3.78269 -4.91235 0
M  V30 804 C 77.198 3.44168 -3.59796 0
M  V30 805 C 75.901 3.80376 -6.10497 0
M  V30 806 C 77.927 3.4756 -4.78493 0
M  V30 807 C 77.289 3.65295 -6.02278 0
M  V30 808 H 73.388 0.707651 -0.332798 0
M  V30 809 H 75.972 1.41314 -1.33934 0
M  V30 810 H 74.143 3.83214 -0.63257 0
M  V30 811 H 75.875 3.95759 -0.845989 0
M  V30 812 H 72.63 3.77714 -2.85708 0
M  V30 813 H 73.054 3.98962 -5.46954 0
M  V30 814 H 77.696 3.29396 -2.65062 0
M  V30 815 H 75.414 3.93933 -7.05579 0
M  V30 816 H 79 3.3577 -4.75131 0
M  V30 817 H 77.88 3.6782 -6.92588 0
M  V30 818 N 75.3831 0.828654 1.34056 0
M  V30 819 C 76.6131 0.431993 2.02033 0
M  V30 820 C 77.0211 -0.96844 1.62536 0
M  V30 821 O 76.3641 -1.6391 0.829408 0
M  V30 822 C 76.4261 0.461224 3.56529 0
M  V30 823 C 76.0901 1.81599 4.1937 0
M  V30 824 C 77.0871 2.7777 4.39477 0
M  V30 825 C 74.7721 2.10604 4.56017 0
M  V30 826 C 76.7661 4.01115 4.95364 0
M  V30 827 C 74.4531 3.34207 5.11614 0
M  V30 828 C 75.4511 4.2928 5.31232 0
M  V30 829 O 75.1391 5.50699 5.8565 0
M  V30 830 H 74.8711 0.170943 0.654029 0
M  V30 831 H 77.4251 1.11988 1.72185 0
M  V30 832 H 75.6551 -0.283388 3.8566 0
M  V30 833 H 77.3441 0.0838149 4.05813 0
M  V30 834 H 78.1101 2.56659 4.11523 0
M  V30 835 H 73.9891 1.37402 4.40047 0
M  V30 836 H 77.5331 4.75333 5.10592 0
M  V30 837 H 73.4301 3.55179 5.38997 0
M  V30 838 H 74.1981 5.52298 6.04077 0
M  V30 839 N 76.8612 -1.46375 0.584142 0
M  V30 840 C 78.1082 -2.02378 0.0702675 0
M  V30 841 C 78.4362 -1.45545 -1.29023 0
M  V30 842 O 77.6912 -0.610967 -1.85918 0
M  V30 843 C 77.9902 -3.57373 -0.0439342 0
M  V30 844 C 77.6562 -4.33252 1.24915 0
M  V30 845 C 76.3182 -4.53701 1.60341 0
M  V30 846 C 78.6702 -4.7681 2.1048 0
M  V30 847 C 75.9982 -5.1496 2.81128 0
M  V30 848 C 78.3502 -5.39404 3.30494 0
M  V30 849 C 77.0142 -5.5808 3.66201 0
M  V30 850 H 76.2842 -0.740554 0.0257127 0
M  V30 851 H 78.9312 -1.75727 0.761065 0
M  V30 852 H 77.2362 -3.83169 -0.817869 0
M  V30 853 H 78.9332 -3.98384 -0.457318 0
M  V30 854 H 75.5232 -4.17633 0.963364 0
M  V30 855 H 79.7072 -4.60766 1.84414 0
M  V30 856 H 74.9632 -5.27611 3.08928 0
M  V30 857 H 79.1372 -5.72114 3.97063 0
M  V30 858 H 76.7642 -6.05318 4.59885 0
M  V30 859 N 78.3393 -0.321999 -1.54275 0
M  V30 860 C 79.5673 0.283052 -2.04955 0
M  V30 861 C 79.9823 1.45904 -1.19823 0
M  V30 862 O 79.3393 1.81063 -0.228545 0
M  V30 863 C 79.3903 0.719028 -3.54277 0
M  V30 864 O 79.1113 -0.410175 -4.36176 0
M  V30 865 C 80.6123 1.38705 -4.21041 0
M  V30 866 H 77.8323 0.0584616 -0.668448 0
M  V30 867 H 80.3763 -0.467734 -1.99079 0
M  V30 868 H 78.5313 1.41979 -3.60445 0
M  V30 869 H 78.9453 -0.0669416 -5.24457 0
M  V30 870 H 80.4193 1.64306 -5.2698 0
M  V30 871 H 80.8963 2.33385 -3.72059 0
M  V30 872 H 81.5023 0.728906 -4.19007 0
M  V30 873 N 79.8174 1.5752 -0.0501392 0
M  V30 874 C 81.0654 1.9227 0.622642 0
M  V30 875 C 81.3864 0.929083 1.71444 0
M  V30 876 O 80.6564 -0.0262186 1.95882 0
M  V30 877 H 79.2364 0.709739 0.232981 0
M  V30 878 H 81.8984 1.94628 -0.102898 0
M  V30 879 H 80.9944 2.93479 1.06191 0
M  V30 880 N 81.2955 -0.223234 1.56011 0
M  V30 881 C 82.5425 -0.947875 1.78946 0
M  V30 882 C 82.8705 -1.844 0.618608 0
M  V30 883 O 82.1255 -1.91629 -0.397093 0
M  V30 884 C 82.4245 -1.81948 3.0762 0
M  V30 885 C 82.0905 -1.07672 4.37856 0
M  V30 886 C 80.7525 -0.871544 4.73242 0
M  V30 887 C 83.1045 -0.552081 5.18268 0
M  V30 888 C 80.4325 -0.129791 5.86556 0
M  V30 889 C 82.7845 0.17632 6.32354 0
M  V30 890 C 81.4485 0.39277 6.66343 0
M  V30 891 H 80.7185 -0.346852 0.654809 0
M  V30 892 H 83.3655 -0.216171 1.90276 0
M  V30 893 H 81.6705 -2.61899 2.91404 0
M  V30 894 H 83.3675 -2.38227 3.22566 0
M  V30 895 H 79.9575 -1.24662 4.1007 0
M  V30 896 H 84.1415 -0.698076 4.91366 0
M  V30 897 H 79.3975 0.048153 6.11381 0
M  V30 898 H 83.5715 0.590367 6.93893 0
M  V30 899 H 81.1985 0.969466 7.53993 0
M  V30 900 N 82.7736 -1.49793 -0.48987 0
M  V30 901 C 83.7216 -1.67783 -1.61095 0
M  V30 902 C 84.7156 -0.543683 -1.60438 0
M  V30 903 O 85.9216 -0.723647 -1.64813 0
M  V30 904 H 82.2966 -0.529255 -0.534222 0
M  V30 905 H 84.2676 -2.61861 -1.43078 0
M  V30 906 C 83.0166 -1.77191 -2.99164 0
M  V30 907 H 82.3396 -2.63841 -3.0038 0
M  V30 908 H 83.7796 -1.93809 -3.77113 0
M  V30 909 C 82.2386 -0.519203 -3.32875 0
M  V30 910 O 82.7686 0.350124 -4.00171 0
M  V30 911 N 80.9746 -0.378816 -2.8812 0
M  V30 912 H 80.5216 -1.08725 -2.33531 0
M  V30 913 H 80.4796 0.458239 -3.11043 0
M  V30 914 N 84.2517 0.741722 -1.39055 0
M  V30 915 C 85.1617 1.88621 -1.39496 0
M  V30 916 C 86.1777 1.71557 -0.290578 0
M  V30 917 O 87.3537 1.94275 -0.530954 0
M  V30 918 C 84.4187 3.24134 -1.23037 0
M  V30 919 C 83.4797 3.5364 -2.43387 0
M  V30 920 C 82.7127 4.82687 -2.27703 0
M  V30 921 O 82.9357 5.55922 -1.27696 0
M  V30 922 O 81.8697 5.1194 -3.16545 0
M  V30 923 H 85.6957 1.91203 -2.35956 0
M  V30 924 H 83.2807 0.888625 -1.20099 0
M  V30 925 H 85.1627 4.0513 -1.15964 0
M  V30 926 H 83.8377 3.22337 -0.296691 0
M  V30 927 H 82.7447 2.72758 -2.56035 0
M  V30 928 H 84.0777 3.60209 -3.35425 0
M  V30 929 N 85.7298 1.2412 0.971189 0
M  V30 930 C 87.1408 1.07236 1.52831 0
M  V30 931 C 87.4918 -0.357352 1.92918 0
M  V30 932 O 86.6168 -1.24528 1.76979 0
M  V30 933 C 87.2118 1.94043 2.77728 0
M  V30 934 C 85.7708 1.81394 3.29808 0
M  V30 935 C 84.9178 1.89189 2.02738 0
M  V30 936 H 87.8688 1.37648 0.789864 0
M  V30 937 H 87.8898 1.47066 3.5093 0
M  V30 938 H 87.4018 2.98093 2.4852 0
M  V30 939 H 85.5028 0.801634 3.63874 0
M  V30 940 H 85.6158 2.65294 3.98944 0
M  V30 941 H 83.9798 1.32877 2.17292 0
M  V30 942 H 84.7628 2.94812 1.759 0
M  V30 943 N 87.2079 -1.17134 1.05439 0
M  V30 944 C 88.1179 -2.24878 0.668365 0
M  V30 945 C 89.1339 -1.71186 -0.311687 0
M  V30 946 O 90.3099 -2.00738 -0.163161 0
M  V30 947 C 87.3749 -3.46662 0.051648 0
M  V30 948 C 86.4359 -4.15429 1.08246 0
M  V30 949 C 85.6689 -5.31399 0.495082 0
M  V30 950 O 85.8919 -5.66153 -0.694743 0
M  V30 951 O 84.8259 -5.89187 1.23056 0
M  V30 952 H 88.6519 -2.60189 1.56637 0
M  V30 953 H 86.2369 -1.24482 0.826104 0
M  V30 954 H 88.1189 -4.20394 -0.290966 0
M  V30 955 H 86.7939 -3.13142 -0.819971 0
M  V30 956 H 85.7009 -3.43704 1.47711 0
M  V30 957 H 87.0339 -4.52982 1.92532 0
M  V30 958 N 88.686 -0.835752 -1.33615 0
M  V30 959 C 89.649 -0.272 -2.2758 0
M  V30 960 C 90.649 0.557487 -1.50827 0
M  V30 961 O 91.839 0.37173 -1.70188 0
M  V30 962 C 88.971 0.617173 -3.35267 0
M  V30 963 H 90.164 -1.10111 -2.78954 0
M  V30 964 H 87.717 -0.608594 -1.43965 0
M  V30 965 H 88.452 1.46884 -2.89129 0
M  V30 966 H 88.237 0.0237066 -3.92093 0
M  V30 967 H 89.727 1.005 -4.05326 0
M  V30 968 N 90.1641 1.46063 -0.591896 0
M  V30 969 C 91.4101 2.02638 -0.0811191 0
M  V30 970 C 91.7431 1.4613 1.27905 0
M  V30 971 O 91.0181 0.629908 1.84017 0
M  V30 972 C 91.3011 3.60091 -0.0252436 0
M  V30 973 C 91.1541 4.26965 -1.41496 0
M  V30 974 C 92.4731 4.3496 0.670685 0
M  V30 975 H 89.5921 0.73635 -0.0309524 0
M  V30 976 H 92.2341 1.741 -0.760859 0
M  V30 977 H 90.3841 3.84535 0.553624 0
M  V30 978 H 92.0561 4.13756 -2.0397 0
M  V30 979 H 90.2991 3.85971 -1.98011 0
M  V30 980 H 90.9701 5.35781 -1.32825 0
M  V30 981 H 93.4461 4.15716 0.178825 0
M  V30 982 H 92.3221 5.44686 0.678837 0
M  V30 983 H 92.5831 4.06685 1.73379 0
M  V30 984 N 91.6422 0.330177 1.54103 0
M  V30 985 C 92.5722 -0.525353 2.27513 0
M  V30 986 C 93.5532 -1.11383 1.2856 0
M  V30 987 O 94.7382 -1.13773 1.57383 0
M  V30 988 C 91.8682 -1.6831 3.03791 0
M  V30 989 C 90.8222 -1.2236 4.10137 0
M  V30 990 C 90.1482 -2.46882 4.74293 0
M  V30 991 C 91.4482 -0.333697 5.21233 0
M  V30 992 H 93.1422 0.087013 2.99274 0
M  V30 993 H 90.6882 0.0432893 1.43935 0
M  V30 994 H 92.6412 -2.28795 3.5388 0
M  V30 995 H 91.3652 -2.32216 2.29659 0
M  V30 996 H 90.0242 -0.64165 3.60941 0
M  V30 997 H 89.6722 -3.09165 3.96769 0
M  V30 998 H 89.3722 -2.16825 5.46133 0
M  V30 999 H 90.8962 -3.08117 5.27159 0
M  V30 1000 H 92.3102 -0.845013 5.67038 0
M  V30 1001 H 90.7072 -0.125612 5.99969 0
M  V30 1002 H 91.7772 0.633724 4.80741 0
M  V30 1003 N 93.1203 -1.57491 0.0584922 0
M  V30 1004 C 94.3663 -1.93264 -0.614558 0
M  V30 1005 C 94.6993 -0.937717 -1.7006 0
M  V30 1006 O 93.9743 0.0351652 -1.94468 0
M  V30 1007 C 94.2573 -3.3938 -1.20386 0
M  V30 1008 C 94.1103 -4.49625 -0.125375 0
M  V30 1009 C 95.4293 -3.86039 -2.11334 0
M  V30 1010 H 92.5483 -0.702791 -0.221933 0
M  V30 1011 H 95.1903 -1.8961 0.12175 0
M  V30 1012 H 93.3403 -3.42626 -1.83139 0
M  V30 1013 H 95.0123 -4.58506 0.506971 0
M  V30 1014 H 93.2553 -4.30354 0.545672 0
M  V30 1015 H 93.9263 -5.48967 -0.577861 0
M  V30 1016 H 96.4023 -3.84716 -1.58534 0
M  V30 1017 H 95.2783 -4.88914 -2.49507 0
M  V30 1018 H 95.5393 -3.23215 -3.01636 0
M  V30 1019 N 94.5984 0.214957 -1.56127 0
M  V30 1020 C 95.5284 1.2695 -1.95974 0
M  V30 1021 C 96.5094 1.48539 -0.828868 0
M  V30 1022 O 97.6944 1.60611 -1.09168 0
M  V30 1023 C 94.8244 2.61794 -2.28214 0
M  V30 1024 C 93.7784 2.54851 -3.43853 0
M  V30 1025 C 93.1044 3.93785 -3.61715 0
M  V30 1026 C 94.4044 2.09065 -4.78632 0
M  V30 1027 H 96.0984 0.93846 -2.84312 0
M  V30 1028 H 93.6444 0.449996 -1.36788 0
M  V30 1029 H 95.5974 3.35731 -2.54682 0
M  V30 1030 H 94.3214 2.96599 -1.36736 0
M  V30 1031 H 92.9804 1.8337 -3.17444 0
M  V30 1032 H 92.6284 4.25908 -2.67602 0
M  V30 1033 H 92.3284 3.90019 -4.39498 0
M  V30 1034 H 93.8524 4.69374 -3.90539 0
M  V30 1035 H 95.2664 2.7275 -5.04262 0
M  V30 1036 H 93.6634 2.16346 -5.59745 0
M  V30 1037 H 94.7334 1.04315 -4.73547 0
M  V30 1038 N 96.0765 1.50051 0.48192 0
M  V30 1039 C 97.3255 1.59741 1.23149 0
M  V30 1040 C 97.6385 0.298163 1.93314 0
M  V30 1041 O 98.8445 0.273835 2.70116 0
M  V30 1042 C 97.3005 2.81926 2.23708 0
M  V30 1043 C 96.9085 4.18685 1.59396 0
M  V30 1044 C 98.6525 3.00956 2.99375 0
M  V30 1045 C 96.5595 5.3207 2.58178 0
M  V30 1046 H 95.4895 0.594838 0.46334 0
M  V30 1047 H 98.1405 1.76467 0.503169 0
M  V30 1048 H 96.5225 2.58736 2.99786 0
M  V30 1049 H 97.6965 4.52088 0.891811 0
M  V30 1050 H 96.0115 4.05171 0.960503 0
M  V30 1051 H 98.6085 3.82836 3.73283 0
M  V30 1052 H 98.9515 2.12258 3.58123 0
M  V30 1053 H 99.4845 3.24277 2.30411 0
M  V30 1054 H 96.2235 6.22888 2.04184 0
M  V30 1055 H 95.7435 5.03098 3.26577 0
M  V30 1056 H 97.4225 5.62196 3.20225 0
M  V30 1057 N 97.5546 -0.734337 1.39446 0
M  V30 1058 C 98.5016 -1.84835 1.38219 0
M  V30 1059 C 99.4716 -1.64331 0.24179 0
M  V30 1060 O 100.657 -1.85728 0.437002 0
M  V30 1061 C 97.7966 -3.22355 1.23212 0
M  V30 1062 C 96.9096 -3.5456 2.46801 0
M  V30 1063 C 96.0446 -4.81485 2.24377 0
M  V30 1064 C 95.0836 -5.06536 3.43639 0
M  V30 1065 N 94.2206 -6.24665 3.20528 0
M  V30 1066 H 99.0606 -1.85219 2.33448 0
M  V30 1067 H 96.5976 -0.905039 1.15963 0
M  V30 1068 H 98.5556 -4.0174 1.12522 0
M  V30 1069 H 97.1856 -3.21248 0.316121 0
M  V30 1070 H 96.2376 -2.69872 2.68092 0
M  V30 1071 H 97.5496 -3.6899 3.3563 0
M  V30 1072 H 96.7036 -5.68852 2.10933 0
M  V30 1073 H 95.4426 -4.6923 1.32944 0
M  V30 1074 H 94.4476 -4.17632 3.5758 0
M  V30 1075 H 95.6726 -5.20676 4.35974 0
M  V30 1076 H 93.6186 -6.13696 2.3176 0
M  V30 1077 H 93.5356 -6.39685 4.02913 0
M  V30 1078 H 94.8036 -7.14868 3.10779 0
M  V30 1079 N 99.0327 -1.24633 -0.964593 0
M  V30 1080 C 100.258 -1.11596 -1.74818 0
M  V30 1081 C 100.683 0.32723 -1.85232 0
M  V30 1082 O 100.041 1.23695 -1.32549 0
M  V30 1083 C 100.089 -1.76397 -3.1451 0
M  V30 1084 O 99.1927 -1.03685 -3.99153 0
M  V30 1085 H 98.5337 -0.390196 -0.537255 0
M  V30 1086 H 101.064 -1.65002 -1.20977 0
M  V30 1087 H 101.074 -1.8228 -3.65018 0
M  V30 1088 H 99.7487 -2.81401 -3.06246 0
M  V30 1089 H 98.3257 -1.05611 -3.57632 0
M  V30 1090 N 100.511 1.16574 -1.06058 0
M  V30 1091 C 101.788 1.83048 -0.689416 0
M  V30 1092 C 102.168 1.94122 0.829443 0
M  V30 1093 O 101.516 1.48249 1.7388 0
M  V30 1094 C 101.726 3.20186 -1.38859 0
M  V30 1095 C 103.074 3.95989 -1.53226 0
M  V30 1096 O 104.098 3.29696 -1.3483 0
M  V30 1097 O 102.957 5.14813 -1.83384 0
M  V30 1098 H 100.051 0.790258 -0.243764 0
M  V30 1099 H 102.597 1.23797 -1.16071 0
M  V30 1100 H 101.369 3.07146 -2.4244 0
M  V30 1101 H 100.992 3.87112 -0.907216 0
M  V30 1102 N 101.989 0.842826 1.3317 0
M  V30 1103 C 103.266 0.362216 1.92217 0
M  V30 1104 C 103.646 -1.15289 1.76838 0
M  V30 1105 O 102.994 -1.96914 1.15919 0
M  V30 1106 C 103.204 0.813495 3.39387 0
M  V30 1107 C 104.552 0.823804 4.16532 0
M  V30 1108 O 105.576 0.757358 3.48055 0
M  V30 1109 O 104.435 0.915193 5.38782 0
M  V30 1110 H 101.529 0.103317 0.820521 0
M  V30 1111 H 104.075 0.928942 1.42017 0
M  V30 1112 H 102.847 1.85624 3.4447 0
M  V30 1113 H 102.47 0.223561 3.96971 0
M  V30 1114 N 103.467 -1.45747 0.599634 0
M  V30 1115 C 104.695 -2.06668 0.0978551 0
M  V30 1116 C 105.11 -1.44562 -1.21439 0
M  V30 1117 O 104.467 -0.556923 -1.73795 0
M  V30 1118 C 104.518 -3.61456 -0.0567044 0
M  V30 1119 O 104.239 -4.21242 1.20361 0
M  V30 1120 C 105.74 -4.39345 -0.590869 0
M  V30 1121 H 102.96 -0.667825 0.0651943 0
M  V30 1122 H 105.504 -1.87115 0.82511 0
M  V30 1123 H 103.659 -3.80378 -0.734251 0
M  V30 1124 H 104.073 -5.14323 1.02821 0
M  V30 1125 H 105.547 -5.48182 -0.648131 0
M  V30 1126 H 106.024 -4.08568 -1.61147 0
M  V30 1127 H 106.63 -4.25268 0.0523679 0
M  V30 1128 N 104.945 -0.338344 -1.53925 0
M  V30 1129 C 105.895 0.536712 -2.21593 0
M  V30 1130 C 106.879 1.07015 -1.20153 0
M  V30 1131 O 108.071 1.00471 -1.45721 0
M  V30 1132 C 105.2 1.68977 -2.98834 0
M  V30 1133 C 104.286 1.17052 -4.07627 0
M  V30 1134 N 104.677 0.372085 -5.0443 0
M  V30 1135 C 102.975 1.44789 -4.21844 0
M  V30 1136 C 103.676 0.0909171 -5.81629 0
M  V30 1137 N 102.652 0.681131 -5.39316 0
M  V30 1138 H 106.454 -0.0804298 -2.9379 0
M  V30 1139 H 103.968 -0.144943 -1.61752 0
M  V30 1140 H 105.965 2.32857 -3.45808 0
M  V30 1141 H 104.625 2.31024 -2.28162 0
M  V30 1142 H 105.636 0.0136217 -5.17898 0
M  V30 1143 H 102.313 2.07313 -3.62391 0
M  V30 1144 H 103.703 -0.552817 -6.69622 0
M  V30 1145 N 106.423 1.57458 -0.0668435 0
M  V30 1146 C 107.371 2.13639 0.919851 0
M  V30 1147 C 108.365 1.07204 1.31163 0
M  V30 1148 O 109.571 1.25591 1.28945 0
M  V30 1149 H 105.946 0.683048 0.314562 0
M  V30 1150 H 107.917 2.95415 0.421047 0
M  V30 1151 C 106.666 2.70892 2.17975 0
M  V30 1152 H 105.989 3.5246 1.88711 0
M  V30 1153 H 107.429 3.13803 2.85138 0
M  V30 1154 C 105.888 1.65414 2.93496 0
M  V30 1155 O 106.418 1.07619 3.87015 0
M  V30 1156 N 104.624 1.36564 2.56512 0
M  V30 1157 H 104.171 1.83751 1.80536 0
M  V30 1158 H 104.129 0.66223 3.07347 0
M  V30 1159 N 107.901 -0.206675 1.56239 0
M  V30 1160 C 108.851 -1.26 1.90021 0
M  V30 1161 C 109.835 -1.41566 0.764721 0
M  V30 1162 O 111.027 -1.44131 1.02739 0
M  V30 1163 C 108.156 -2.6073 2.23326 0
M  V30 1164 C 107.242 -2.49005 3.43304 0
M  V30 1165 N 107.633 -2.06946 4.61527 0
M  V30 1166 C 105.931 -2.79927 3.47213 0
M  V30 1167 C 106.632 -2.06832 5.43687 0
M  V30 1168 N 105.608 -2.47892 4.83788 0
M  V30 1169 H 109.41 -0.925955 2.78932 0
M  V30 1170 H 106.924 -0.415172 1.57003 0
M  V30 1171 H 108.921 -3.36798 2.45708 0
M  V30 1172 H 107.581 -2.94968 1.35735 0
M  V30 1173 H 108.592 -1.77839 4.86409 0
M  V30 1174 H 105.269 -3.18438 2.70006 0
M  V30 1175 H 106.659 -1.76312 6.48354 0
M  V30 1176 N 109.379 -1.50304 -0.473955 0
M  V30 1177 C 110.604 -1.65175 -1.25427 0
M  V30 1178 C 111.029 -0.333673 -1.85117 0
M  V30 1179 O 110.387 0.702114 -1.67153 0
M  V30 1180 C 110.435 -2.74295 -2.34082 0
M  V30 1181 O 109.539 -2.35349 -3.38651 0
M  V30 1182 H 108.88 -0.551944 -0.369126 0
M  V30 1183 H 111.41 -1.96662 -0.564364 0
M  V30 1184 H 111.42 -2.97285 -2.79438 0
M  V30 1185 H 110.095 -3.69959 -1.90008 0
M  V30 1186 H 108.672 -2.22794 -2.99027 0
M  V30 1187 N 110.857 0.726932 -1.39834 0
M  V30 1188 C 112.103 1.48884 -1.377 0
M  V30 1189 C 112.436 1.94185 0.0244852 0
M  V30 1190 O 111.711 1.67361 0.990986 0
M  V30 1191 C 111.994 2.72288 -2.3565 0
M  V30 1192 C 111.847 2.32956 -3.84775 0
M  V30 1193 C 113.166 3.74414 -2.31306 0
M  V30 1194 H 110.285 0.540062 -0.5015 0
M  V30 1195 H 112.927 0.830547 -1.70886 0
M  V30 1196 H 111.077 3.28457 -2.07481 0
M  V30 1197 H 112.749 1.82356 -4.23726 0
M  V30 1198 H 110.992 1.65088 -4.01159 0
M  V30 1199 H 111.663 3.21362 -4.4881 0
M  V30 1200 H 114.139 3.27849 -2.56231 0
M  V30 1201 H 113.015 4.58414 -3.01907 0
M  V30 1202 H 113.276 4.21909 -1.32081 0
M  V30 1203 N 112.336 1.25143 0.95797 0
M  V30 1204 C 113.266 1.07711 2.07173 0
M  V30 1205 C 114.247 -0.0128462 1.70095 0
M  V30 1206 O 115.432 0.156061 1.93572 0
M  V30 1207 C 112.562 0.691503 3.40346 0
M  V30 1208 C 111.516 1.73132 3.9142 0
M  V30 1209 C 110.842 1.20049 5.21049 0
M  V30 1210 C 112.142 3.1294 4.1817 0
M  V30 1211 H 113.836 2.00873 2.22014 0
M  V30 1212 H 111.382 0.967191 1.06684 0
M  V30 1213 H 113.335 0.556505 4.17709 0
M  V30 1214 H 112.059 -0.275819 3.25433 0
M  V30 1215 H 110.718 1.8547 3.16222 0
M  V30 1216 H 110.366 0.223499 5.02503 0
M  V30 1217 H 110.066 1.89545 5.56189 0
M  V30 1218 H 111.59 1.07782 6.01012 0
M  V30 1219 H 113.004 3.03775 4.86203 0
M  V30 1220 H 111.401 3.79875 4.64559 0
M  V30 1221 H 112.471 3.6025 3.24573 0
M  V30 1222 N 113.814 -1.1601 1.06675 0
M  V30 1223 C 115.061 -1.86633 0.785781 0
M  V30 1224 C 115.389 -1.81929 -0.687896 0
M  V30 1225 O 114.644 -1.23253 -1.52011 0
M  V30 1226 C 114.943 -3.35547 1.23057 0
M  V30 1227 C 114.609 -3.60448 2.70902 0
M  V30 1228 C 113.271 -3.66954 3.11285 0
M  V30 1229 C 115.623 -3.7071 3.66365 0
M  V30 1230 C 112.951 -3.81225 4.45965 0
M  V30 1231 C 115.303 -3.86503 5.00797 0
M  V30 1232 C 113.967 -3.91252 5.40813 0
M  V30 1233 H 113.237 -0.682937 0.287538 0
M  V30 1234 H 115.884 -1.37146 1.33654 0
M  V30 1235 H 114.189 -3.87193 0.59907 0
M  V30 1236 H 115.886 -3.88583 0.990163 0
M  V30 1237 H 112.476 -3.56021 2.38636 0
M  V30 1238 H 116.66 -3.64991 3.36296 0
M  V30 1239 H 111.916 -3.83155 4.76447 0
M  V30 1240 H 116.09 -3.93385 5.74649 0
M  V30 1241 H 113.717 -4.02062 6.45174 0
M  V30 1242 N 115.292 -0.849877 -1.32721 0
M  V30 1243 C 116.24 -0.279745 -2.30912 0
M  V30 1244 C 117.234 0.594278 -1.58634 0
M  V30 1245 O 118.44 0.482613 -1.73409 0
M  V30 1246 H 114.815 -0.0717521 -0.748569 0
M  V30 1247 H 116.786 -1.12222 -2.76494 0
M  V30 1248 C 115.535 0.521108 -3.43773 0
M  V30 1249 H 114.858 -0.142141 -3.99547 0
M  V30 1250 H 116.298 0.885693 -4.14646 0
M  V30 1251 C 114.757 1.70442 -2.90605 0
M  V30 1252 O 115.287 2.8034 -2.87702 0
M  V30 1253 N 113.493 1.52991 -2.47067 0
M  V30 1254 H 113.04 0.635914 -2.49628 0
M  V30 1255 H 112.998 2.32311 -2.11847 0
M  V30 1256 N 116.77 1.45427 -0.607355 0
M  V30 1257 C 118.186 1.57283 -0.270985 0
M  V30 1258 C 118.386 1.59875 1.22647 0
M  V30 1259 O 117.442 1.52893 2.00948 0
M  V30 1260 C 118.755 2.85566 -0.941952 0
M  V30 1261 C 120.303 2.9924 -0.917849 0
M  V30 1262 C 120.778 4.30293 -1.56882 0
M  V30 1263 N 122.269 4.37051 -1.5343 0
M  V30 1264 C 123.004 5.37123 -2.00715 0
M  V30 1265 N 122.5 6.43734 -2.56084 0
M  V30 1266 N 124.293 5.28479 -1.91484 0
M  V30 1267 H 116.444 1.41988 -1.57966 0
M  V30 1268 H 118.707 0.67885 -0.661715 0
M  V30 1269 H 118.413 2.8955 -1.99633 0
M  V30 1270 H 118.287 3.74322 -0.465096 0
M  V30 1271 H 120.674 2.94822 0.127984 0
M  V30 1272 H 120.755 2.11895 -1.43297 0
M  V30 1273 H 120.399 4.35469 -2.61398 0
M  V30 1274 H 120.329 5.16454 -1.02873 0
M  V30 1275 H 122.82 3.60615 -1.12982 0
M  V30 1276 H 123.133 7.16341 -2.89958 0
M  V30 1277 H 121.478 6.44485 -2.60122 0
M  V30 1278 H 124.669 4.44098 -1.47967 0
M  V30 1279 H 124.842 6.0632 -2.28648 0
M  V30 1280 N 118.248 0.346503 1.53744 0
M  V30 1281 C 119.494 -0.249473 2.0126 0
M  V30 1282 C 119.827 -1.49965 1.23386 0
M  V30 1283 O 119.102 -1.91811 0.32229 0
M  V30 1284 C 119.385 -0.560643 3.55709 0
M  V30 1285 C 119.238 0.701836 4.44291 0
M  V30 1286 C 120.557 -1.36905 4.18264 0
M  V30 1287 H 117.676 -0.0891987 0.731582 0
M  V30 1288 H 120.318 0.467624 1.84156 0
M  V30 1289 H 118.468 -1.17156 3.70414 0
M  V30 1290 H 120.14 1.33974 4.41417 0
M  V30 1291 H 118.383 1.32612 4.13033 0
M  V30 1292 H 119.054 0.43933 5.50249 0
M  V30 1293 H 121.53 -0.852448 4.07275 0
M  V30 1294 H 120.406 -1.55553 5.26398 0
M  V30 1295 H 120.667 -2.37203 3.73078 0
M  V30 1296 N 119.726 -1.57421 0.075193 0
M  V30 1297 C 121.142 -1.57099 -0.281444 0
M  V30 1298 C 121.342 -1.08486 -1.69803 0
M  V30 1299 O 120.398 -0.752279 -2.41033 0
M  V30 1300 C 121.711 -3.00571 -0.0880041 0
M  V30 1301 C 123.259 -3.12605 -0.157281 0
M  V30 1302 C 123.734 -4.57999 0.0079207 0
M  V30 1303 N 125.225 -4.63176 -0.0475725 0
M  V30 1304 C 125.96 -5.73373 0.0557876 0
M  V30 1305 N 125.456 -6.92473 0.21286 0
M  V30 1306 N 127.249 -5.621 -0.00152098 0
M  V30 1307 H 119.4 -1.87335 1.00098 0
M  V30 1308 H 121.663 -0.86377 0.390646 0
M  V30 1309 H 121.369 -3.40262 0.889629 0
M  V30 1310 H 121.243 -3.67754 -0.838875 0
M  V30 1311 H 123.63 -2.72798 -1.1254 0
M  V30 1312 H 123.711 -2.48053 0.62475 0
M  V30 1313 H 123.355 -4.98496 0.972824 0
M  V30 1314 H 123.285 -5.20586 -0.793556 0
M  V30 1315 H 125.776 -3.7753 -0.167244 0
M  V30 1316 H 126.089 -7.72279 0.283781 0
M  V30 1317 H 124.434 -6.94556 0.248267 0
M  V30 1318 H 127.625 -4.67938 -0.122958 0
M  V30 1319 H 127.798 -6.47948 0.0824844 0
M  V30 1320 N 121.204 0.198386 -1.56346 0
M  V30 1321 C 122.481 0.944982 -1.71258 0
M  V30 1322 C 122.861 2.0151 -0.629048 0
M  V30 1323 O 122.209 2.25639 0.360473 0
M  V30 1324 C 122.419 1.5344 -3.1346 0
M  V30 1325 C 123.767 2.01778 -3.73591 0
M  V30 1326 O 124.791 1.63288 -3.16568 0
M  V30 1327 O 123.65 2.72594 -4.73661 0
M  V30 1328 H 120.744 0.442939 -0.69838 0
M  V30 1329 H 123.29 0.188342 -1.68652 0
M  V30 1330 H 122.062 0.762869 -3.83792 0
M  V30 1331 H 121.685 2.35596 -3.20282 0
M  V30 1332 N 122.682 1.50554 0.465978 0
M  V30 1333 C 123.612 1.72722 1.57128 0
M  V30 1334 C 124.593 0.576294 1.6004 0
M  V30 1335 O 125.778 0.81598 1.76225 0
M  V30 1336 C 122.908 1.82605 2.95419 0
M  V30 1337 C 121.862 2.97835 3.07373 0
M  V30 1338 C 121.188 2.92867 4.47363 0
M  V30 1339 C 122.488 4.38265 2.84114 0
M  V30 1340 H 124.182 2.65267 1.38829 0
M  V30 1341 H 121.728 1.2765 0.666441 0
M  V30 1342 H 123.681 1.96698 3.72677 0
M  V30 1343 H 122.405 0.866858 3.14886 0
M  V30 1344 H 121.064 2.83401 2.3255 0
M  V30 1345 H 120.712 1.94783 4.63755 0
M  V30 1346 H 120.412 3.70227 4.56296 0
M  V30 1347 H 121.936 3.09015 5.26633 0
M  V30 1348 H 123.35 4.53198 3.51118 0
M  V30 1349 H 121.747 5.17115 3.04487 0
M  V30 1350 H 122.817 4.50281 1.7993 0
M  V30 1351 N 124.16 -0.719506 1.40217 0
M  V30 1352 C 125.388 -1.50864 1.41589 0
M  V30 1353 C 125.803 -1.88794 0.0145275 0
M  V30 1354 O 125.16 -1.55174 -0.960594 0
M  V30 1355 C 125.211 -2.78646 2.30302 0
M  V30 1356 O 124.932 -2.42321 3.64983 0
M  V30 1357 C 126.433 -3.72569 2.40224 0
M  V30 1358 H 123.653 -0.465709 0.48307 0
M  V30 1359 H 126.197 -0.88785 1.84221 0
M  V30 1360 H 124.352 -3.37019 1.91042 0
M  V30 1361 H 124.766 -3.24514 4.12057 0
M  V30 1362 H 126.24 -4.5908 3.06512 0
M  V30 1363 H 126.717 -4.15403 1.42608 0
M  V30 1364 H 127.323 -3.20109 2.80019 0
M  V30 1365 N 125.638 -1.25649 -0.95132 0
M  V30 1366 C 126.601 -1.06399 -2.03007 0
M  V30 1367 C 127.601 -0.0156794 -1.60792 0
M  V30 1368 O 128.791 -0.25817 -1.72276 0
M  V30 1369 C 125.923 -0.616184 -3.35285 0
M  V30 1370 H 127.116 -2.02164 -2.21517 0
M  V30 1371 H 124.669 -1.08103 -1.12887 0
M  V30 1372 H 125.404 0.343917 -3.22471 0
M  V30 1373 H 125.189 -1.37301 -3.67275 0
M  V30 1374 H 126.679 -0.503032 -4.14559 0
M  V30 1375 N 127.117 1.15442 -1.07289 0
M  V30 1376 C 128.027 2.23786 -0.704057 0
M  V30 1377 C 129.043 1.7166 0.284413 0
M  V30 1378 O 130.219 2.00972 0.131205 0
M  V30 1379 C 127.284 3.46535 -0.106792 0
M  V30 1380 C 126.345 4.13654 -1.14842 0
M  V30 1381 C 125.578 5.30544 -0.57956 0
M  V30 1382 O 125.801 5.67187 0.604585 0
M  V30 1383 O 124.735 5.87154 -1.32414 0
M  V30 1384 H 128.561 2.57664 -1.60757 0
M  V30 1385 H 126.146 1.23152 -0.845803 0
M  V30 1386 H 128.028 4.20804 0.224048 0
M  V30 1387 H 126.703 3.14407 0.770049 0
M  V30 1388 H 125.61 3.4131 -1.5316 0
M  V30 1389 H 126.943 4.49861 -1.99714 0
M  V30 1390 N 128.595 0.856903 1.32268 0
M  V30 1391 C 129.844 0.457599 1.96441 0
M  V30 1392 C 130.157 -0.992426 1.68553 0
M  V30 1393 O 131.363 -1.49727 2.26482 0
M  V30 1394 C 129.819 0.767358 3.51624 0
M  V30 1395 C 129.427 2.23326 3.88367 0
M  V30 1396 C 131.171 0.435887 4.22256 0
M  V30 1397 C 129.078 2.48613 5.36606 0
M  V30 1398 H 128.008 0.167387 0.735185 0
M  V30 1399 H 130.659 1.048 1.5063 0
M  V30 1400 H 129.041 0.106367 3.95857 0
M  V30 1401 H 130.215 2.93623 3.55137 0
M  V30 1402 H 128.53 2.52948 3.30766 0
M  V30 1403 H 131.127 0.602202 5.31298 0
M  V30 1404 H 131.47 -0.622672 4.11617 0
M  V30 1405 H 132.003 1.05286 3.83614 0
M  V30 1406 H 128.742 3.53101 5.52268 0
M  V30 1407 H 128.262 1.82896 5.71235 0
M  V30 1408 H 129.941 2.32676 6.03714 0
M  V30 1409 N 130.073 -1.45103 0.615059 0
M  V30 1410 C 131.319 -2.03035 0.121804 0
M  V30 1411 C 131.674 -1.47393 -1.23665 0
M  V30 1412 O 130.967 -0.642061 -1.80522 0
M  V30 1413 C 131.161 -3.57386 0.0318797 0
M  V30 1414 C 130.99 -4.28 1.38007 0
M  V30 1415 C 129.76 -4.65624 1.9627 0
M  V30 1416 C 131.958 -4.5948 2.31047 0
M  V30 1417 N 129.94 -5.21132 3.24492 0
M  V30 1418 C 131.311 -5.159 3.43872 0
M  V30 1419 C 133.366 -4.41423 2.30326 0
M  V30 1420 C 132.069 -5.56165 4.5615 0
M  V30 1421 C 134.095 -4.82726 3.41658 0
M  V30 1422 C 133.457 -5.39245 4.53205 0
M  V30 1423 H 129.556 -0.77702 0.0881159 0
M  V30 1424 H 132.14 -1.76819 0.815044 0
M  V30 1425 H 130.311 -3.83247 -0.630599 0
M  V30 1426 H 132.043 -4.01976 -0.468721 0
M  V30 1427 H 128.798 -4.49421 1.49392 0
M  V30 1428 H 129.222 -5.53377 3.90004 0
M  V30 1429 H 133.864 -3.97033 1.45343 0
M  V30 1430 H 131.582 -5.99517 5.41854 0
M  V30 1431 H 135.168 -4.7048 3.42257 0
M  V30 1432 H 134.048 -5.70616 5.37929 0
M  V30 1433 N 131.551 -0.354651 -1.53558 0
M  V30 1434 C 132.798 0.238443 -2.01091 0
M  V30 1435 C 133.126 1.49663 -1.24222 0
M  V30 1436 O 132.381 1.93049 -0.321003 0
M  V30 1437 C 132.68 0.587121 -3.52545 0
M  V30 1438 C 132.346 -0.575472 -4.47213 0
M  V30 1439 C 131.008 -0.894497 -4.72813 0
M  V30 1440 C 133.36 -1.35489 -5.03281 0
M  V30 1441 C 130.688 -1.99511 -5.51736 0
M  V30 1442 C 133.04 -2.44583 -5.83405 0
M  V30 1443 C 131.704 -2.77033 -6.07296 0
M  V30 1444 H 130.974 0.0872526 -0.735845 0
M  V30 1445 H 133.621 -0.484859 -1.8526 0
M  V30 1446 H 131.926 1.39129 -3.66265 0
M  V30 1447 H 133.623 1.05809 -3.86789 0
M  V30 1448 H 130.213 -0.316774 -4.27428 0
M  V30 1449 H 134.397 -1.12167 -4.83459 0
M  V30 1450 H 129.653 -2.25063 -5.68469 0
M  V30 1451 H 133.827 -3.05401 -6.25862 0
M  V30 1452 H 131.454 -3.6244 -6.68237 0
M  V30 1453 N 133.029 1.57378 -0.0835403 0
M  V30 1454 C 134.277 1.93547 0.581718 0
M  V30 1455 C 134.598 0.96524 1.69435 0
M  V30 1456 O 133.868 0.0153369 1.95894 0
M  V30 1457 H 132.448 0.714521 0.217874 0
M  V30 1458 H 135.11 1.94366 -0.144158 0
M  V30 1459 H 134.206 2.95665 0.999423 0
M  V30 1460 N 134.507 -0.190092 1.56449 0
M  V30 1461 C 135.923 -0.54113 1.50146 0
M  V30 1462 C 136.123 -1.85603 0.784465 0
M  V30 1463 O 135.179 -2.5024 0.337051 0
M  V30 1464 C 136.492 -0.591241 2.9483 0
M  V30 1465 C 138.04 -0.679732 3.0553 0
M  V30 1466 C 138.515 -0.760908 4.51635 0
M  V30 1467 N 140.006 -0.824302 4.55806 0
M  V30 1468 C 140.741 -0.907365 5.66175 0
M  V30 1469 N 140.237 -0.952422 6.86222 0
M  V30 1470 N 142.03 -0.94494 5.541 0
M  V30 1471 H 134.181 0.67235 2.01478 0
M  V30 1472 H 136.444 0.240127 0.917084 0
M  V30 1473 H 136.15 0.305905 3.50367 0
M  V30 1474 H 136.024 -1.44422 3.48457 0
M  V30 1475 H 138.411 -1.56731 2.50039 0
M  V30 1476 H 138.492 0.199549 2.5502 0
M  V30 1477 H 138.136 0.122336 5.07753 0
M  V30 1478 H 138.066 -1.65606 4.99882 0
M  V30 1479 H 140.557 -0.798526 3.69367 0
M  V30 1480 H 140.87 -1.01645 7.66086 0
M  V30 1481 H 139.215 -0.921014 6.8887 0
M  V30 1482 H 142.406 -0.906612 4.59236 0
M  V30 1483 H 142.579 -1.00622 6.4014 0
M  V30 1484 N 135.985 -1.50799 -0.457987 0
M  V30 1485 C 137.401 -1.38515 -0.792819 0
M  V30 1486 C 137.601 -0.451409 -1.96379 0
M  V30 1487 O 136.657 0.10112 -2.52297 0
M  V30 1488 C 137.97 -2.80149 -1.09258 0
M  V30 1489 C 139.518 -2.89156 -1.19825 0
M  V30 1490 C 139.993 -4.31651 -1.53106 0
M  V30 1491 N 141.484 -4.34662 -1.60072 0
M  V30 1492 C 142.219 -5.41928 -1.87354 0
M  V30 1493 N 141.715 -6.59384 -2.12568 0
M  V30 1494 N 143.508 -5.29385 -1.88965 0
M  V30 1495 H 135.659 -2.10073 0.313511 0
M  V30 1496 H 137.922 -0.944803 0.0777862 0
M  V30 1497 H 137.628 -3.50374 -0.305084 0
M  V30 1498 H 137.502 -3.18204 -2.02549 0
M  V30 1499 H 139.889 -2.19141 -1.97639 0
M  V30 1500 H 139.97 -2.54626 -0.244821 0
M  V30 1501 H 139.614 -5.02208 -0.758266 0
M  V30 1502 H 139.544 -4.63678 -2.49621 0
M  V30 1503 H 142.035 -3.49973 -1.42573 0
M  V30 1504 H 142.348 -7.36934 -2.32696 0
M  V30 1505 H 140.693 -6.62535 -2.09933 0
M  V30 1506 H 143.884 -4.36616 -1.68772 0
M  V30 1507 H 144.057 -6.13066 -2.09891 0
M  V30 1508 N 137.463 0.71206 -1.40597 0
M  V30 1509 C 138.393 1.83889 -1.43899 0
M  V30 1510 C 139.374 1.67442 -0.299504 0
M  V30 1511 O 140.559 1.87421 -0.508624 0
M  V30 1512 C 137.689 3.21877 -1.30431 0
M  V30 1513 C 136.643 3.53002 -2.42019 0
M  V30 1514 C 135.969 4.90172 -2.13626 0
M  V30 1515 C 137.269 3.53643 -3.84362 0
M  V30 1516 H 138.963 1.81383 -2.38203 0
M  V30 1517 H 136.509 0.871237 -1.14654 0
M  V30 1518 H 138.462 4.00404 -1.31357 0
M  V30 1519 H 137.186 3.24968 -0.326049 0
M  V30 1520 H 135.845 2.76818 -2.40349 0
M  V30 1521 H 135.493 4.89869 -1.14182 0
M  V30 1522 H 135.193 5.11962 -2.88389 0
M  V30 1523 H 136.717 5.71028 -2.1624 0
M  V30 1524 H 138.131 4.22203 -3.87837 0
M  V30 1525 H 136.528 3.86961 -4.58673 0
M  V30 1526 H 137.598 2.52954 -4.13693 0
M  V30 1527 N 138.941 1.26152 0.944643 0
M  V30 1528 C 140.189 1.11271 1.6871 0
M  V30 1529 C 140.51 -0.345166 1.91921 0
M  V30 1530 O 139.78 -1.24387 1.51343 0
M  V30 1531 H 138.36 0.408783 0.625224 0
M  V30 1532 H 141.022 1.58427 1.1352 0
M  V30 1533 H 140.118 1.62879 2.66227 0
M  V30 1534 N 140.419 -1.14872 1.07899 0
M  V30 1535 C 141.351 -2.19425 0.662231 0
M  V30 1536 C 142.364 -1.60231 -0.288079 0
M  V30 1537 O 143.553 -1.78336 -0.076534 0
M  V30 1538 C 140.653 -3.38867 -0.0470695 0
M  V30 1539 C 139.826 -4.27597 0.920831 0
M  V30 1540 C 138.885 -5.25616 0.247805 0
M  V30 1541 O 137.911 -5.62189 0.890599 0
M  V30 1542 N 139.113 -5.71746 -1.00435 0
M  V30 1543 H 141.878 -2.55797 1.56166 0
M  V30 1544 H 139.439 -1.30042 0.964404 0
M  V30 1545 H 141.431 -4.01497 -0.50813 0
M  V30 1546 H 140.001 -3.00864 -0.848523 0
M  V30 1547 H 139.221 -3.61982 1.56087 0
M  V30 1548 H 140.509 -4.83748 1.57688 0
M  V30 1549 H 139.907 -5.44153 -1.54642 0
M  V30 1550 H 138.464 -6.36389 -1.40899 0
M  V30 1551 N 141.898 -0.863906 -1.31812 0
M  V30 1552 C 143.175 -0.39275 -1.91616 0
M  V30 1553 C 143.555 1.12461 -1.7865 0
M  V30 1554 O 142.903 1.95045 -1.19037 0
M  V30 1555 C 143.113 -0.867385 -3.38049 0
M  V30 1556 C 144.461 -0.889966 -4.15168 0
M  V30 1557 O 145.485 -0.812635 -3.46806 0
M  V30 1558 O 144.344 -1.00079 -5.37258 0
M  V30 1559 H 141.438 -0.116358 -0.818773 0
M  V30 1560 H 143.984 -0.951418 -1.40521 0
M  V30 1561 H 142.756 -1.91081 -3.41473 0
M  V30 1562 H 142.379 -0.286687 -3.96565 0
M  V30 1563 N 143.376 1.44774 -0.622745 0
M  V30 1564 C 144.339 2.29069 0.0774015 0
M  V30 1565 C 145.339 1.4059 0.780461 0
M  V30 1566 O 146.529 1.62551 0.626322 0
M  V30 1567 C 143.661 3.21974 1.12006 0
M  V30 1568 H 144.854 2.92459 -0.663901 0
M  V30 1569 H 142.407 1.51548 -0.382486 0
M  V30 1570 H 143.142 2.63417 1.89162 0
M  V30 1571 H 142.927 3.87168 0.619951 0
M  V30 1572 H 144.417 3.85318 1.60995 0
M  V30 1573 N 144.854 0.36279 1.53368 0
M  V30 1574 C 145.817 -0.472679 2.24273 0
M  V30 1575 C 146.817 -1.012 1.24961 0
M  V30 1576 O 148.007 -0.898194 1.49259 0
M  V30 1577 C 145.139 -1.66039 2.97731 0
M  V30 1578 H 146.332 0.14773 2.99536 0
M  V30 1579 H 143.885 0.114434 1.55881 0
M  V30 1580 H 144.62 -2.31896 2.26704 0
M  V30 1581 H 144.405 -1.28066 3.70596 0
M  V30 1582 H 145.895 -2.25252 3.51641 0
M  V30 1583 N 146.332 -1.57332 0.0918853 0
M  V30 1584 C 147.743 -1.81496 -0.437739 0
M  V30 1585 C 148.094 -1.00727 -1.6837 0
M  V30 1586 O 147.219 -0.235694 -2.15113 0
M  V30 1587 C 147.814 -3.29197 -0.800939 0
M  V30 1588 C 146.373 -3.54136 -1.27532 0
M  V30 1589 C 145.52 -2.75979 -0.270392 0
M  V30 1590 H 148.471 -1.55494 0.317366 0
M  V30 1591 H 148.492 -3.42344 -1.66074 0
M  V30 1592 H 148.004 -3.87955 0.106078 0
M  V30 1593 H 146.105 -3.00705 -2.20016 0
M  V30 1594 H 146.218 -4.62792 -1.23938 0
M  V30 1595 H 144.582 -2.43349 -0.751872 0
M  V30 1596 H 145.365 -3.37484 0.629248 0
M  V30 1597 N 147.81 0.181792 -1.56548 0
M  V30 1598 C 148.72 1.24538 -1.98815 0
M  V30 1599 C 149.736 1.49045 -0.897861 0
M  V30 1600 O 150.912 1.61399 -1.20467 0
M  V30 1601 C 147.977 2.56683 -2.33055 0
M  V30 1602 C 147.038 2.40131 -3.55859 0
M  V30 1603 C 146.271 3.65975 -3.88456 0
M  V30 1604 O 146.494 4.70711 -3.22161 0
M  V30 1605 O 145.428 3.6071 -4.81842 0
M  V30 1606 H 149.254 0.916647 -2.89536 0
M  V30 1607 H 146.839 0.387842 -1.44278 0
M  V30 1608 H 148.721 3.34655 -2.56094 0
M  V30 1609 H 147.396 2.89157 -1.45498 0
M  V30 1610 H 146.303 1.60226 -3.38051 0
M  V30 1611 H 147.636 2.12585 -4.43924 0
M  V30 1612 N 149.288 1.51039 0.449983 0
M  V30 1613 C 150.235 1.71439 1.54523 0
M  V30 1614 C 151.205 0.555871 1.56522 0
M  V30 1615 O 152.39 0.788871 1.73728 0
M  V30 1616 C 149.53 1.83384 2.92343 0
M  V30 1617 C 148.643 3.10873 2.9997 0
M  V30 1618 C 147.778 3.13488 4.28834 0
M  V30 1619 C 146.817 4.35343 4.30282 0
M  V30 1620 N 145.954 4.35579 5.5065 0
M  V30 1621 H 150.794 2.64934 1.36433 0
M  V30 1622 H 148.331 1.31312 0.662982 0
M  V30 1623 H 150.289 1.88291 3.72293 0
M  V30 1624 H 148.919 0.933086 3.0902 0
M  V30 1625 H 147.971 3.15336 2.12761 0
M  V30 1626 H 149.283 4.00814 2.96901 0
M  V30 1627 H 148.437 3.17241 5.17149 0
M  V30 1628 H 147.176 2.21414 4.34543 0
M  V30 1629 H 146.181 4.3178 3.40362 0
M  V30 1630 H 147.406 5.28668 4.26248 0
M  V30 1631 H 145.352 3.46369 5.57104 0
M  V30 1632 H 145.269 5.19313 5.49409 0
M  V30 1633 H 146.537 4.43507 6.41032 0
M  V30 1634 N 150.766 -0.704594 1.40972 0
M  V30 1635 C 151.696 -1.83124 1.44872 0
M  V30 1636 C 152.677 -1.67281 0.30838 0
M  V30 1637 O 153.862 -1.87149 0.518556 0
M  V30 1638 C 150.992 -3.21181 1.32136 0
M  V30 1639 C 149.946 -3.51714 2.43888 0
M  V30 1640 C 149.272 -4.89032 2.16222 0
M  V30 1641 C 150.572 -3.516 3.86232 0
M  V30 1642 H 152.266 -1.80117 2.39161 0
M  V30 1643 H 149.812 -0.865145 1.15114 0
M  V30 1644 H 151.765 -3.99702 1.33479 0
M  V30 1645 H 150.489 -3.24791 0.343279 0
M  V30 1646 H 149.148 -2.75539 2.41813 0
M  V30 1647 H 148.796 -4.89256 1.16778 0
M  V30 1648 H 148.496 -5.10426 2.911 0
M  V30 1649 H 150.02 -5.69873 2.19265 0
M  V30 1650 H 151.434 -4.2014 3.9007 0
M  V30 1651 H 149.831 -3.84523 4.60719 0
M  V30 1652 H 150.901 -2.50757 4.15029 0
M  V30 1653 N 152.244 -1.26651 -0.937939 0
M  V30 1654 C 153.492 -1.12165 -1.68118 0
M  V30 1655 C 153.813 0.334983 -1.92101 0
M  V30 1656 O 153.083 1.23583 -1.52 0
M  V30 1657 H 151.663 -0.412093 -0.623048 0
M  V30 1658 H 154.325 -1.59027 -1.12678 0
M  V30 1659 H 153.421 -1.64289 -2.6536 0
M  V30 1660 N 153.722 1.14298 -1.08507 0
M  V30 1661 C 154.968 1.85633 -0.816581 0
M  V30 1662 C 155.301 1.82784 0.656021 0
M  V30 1663 O 154.576 1.25926 1.48233 0
M  V30 1664 C 154.859 3.34223 -1.34041 0
M  V30 1665 C 154.712 3.45639 -2.87843 0
M  V30 1666 C 156.031 4.29356 -0.9665 0
M  V30 1667 H 153.15 0.67402 -0.298104 0
M  V30 1668 H 155.792 1.34214 -1.34487 0
M  V30 1669 H 153.942 3.78144 -0.89104 0
M  V30 1670 H 155.614 3.10498 -3.41158 0
M  V30 1671 H 153.857 2.86817 -3.25451 0
M  V30 1672 H 154.528 4.50089 -3.19569 0
M  V30 1673 H 157.004 3.93457 -1.35391 0
M  V30 1674 H 155.88 5.3178 -1.3602 0
M  V30 1675 H 156.141 4.41919 0.126362 0
M  V30 1676 N 155.201 0.870884 1.31352 0
M  V30 1677 C 156.478 0.402907 1.91405 0
M  V30 1678 C 156.858 -1.11512 1.79244 0
M  V30 1679 O 156.206 -1.94411 1.2007 0
M  V30 1680 C 156.416 0.885301 3.37585 0
M  V30 1681 C 157.764 0.911971 4.14691 0
M  V30 1682 O 158.788 0.831016 3.46371 0
M  V30 1683 O 157.647 1.02927 5.3672 0
M  V30 1684 H 154.741 0.120698 0.818145 0
M  V30 1685 H 157.287 0.958857 1.40014 0
M  V30 1686 H 156.059 1.92889 3.40455 0
M  V30 1687 H 155.682 0.307714 3.96407 0
M  V30 1688 N 156.679 -1.44442 0.630414 0
M  V30 1689 C 158.095 -1.56832 0.295973 0
M  V30 1690 C 158.295 -1.61806 -1.20088 0
M  V30 1691 O 157.351 -1.5607 -1.9849 0
M  V30 1692 C 158.664 -2.84031 0.987264 0
M  V30 1693 C 160.212 -2.97742 0.96534 0
M  V30 1694 C 160.687 -4.27743 1.63708 0
M  V30 1695 N 162.178 -4.34555 1.60364 0
M  V30 1696 C 162.913 -5.33862 2.09234 0
M  V30 1697 N 162.409 -6.39578 2.66292 0
M  V30 1698 N 164.202 -5.25366 1.99867 0
M  V30 1699 H 156.353 -1.39457 1.60205 0
M  V30 1700 H 158.616 -0.668237 0.672431 0
M  V30 1701 H 158.322 -2.86338 2.04215 0
M  V30 1702 H 158.196 -3.73534 0.524588 0
M  V30 1703 H 160.583 -2.94989 -0.0810639 0
M  V30 1704 H 160.664 -2.09589 1.4665 0
M  V30 1705 H 160.308 -4.31255 2.68293 0
M  V30 1706 H 160.238 -5.14752 1.11076 0
M  V30 1707 H 162.729 -3.58772 1.18705 0
M  V30 1708 H 163.042 -7.11637 3.01317 0
M  V30 1709 H 161.387 -6.40265 2.70343 0
M  V30 1710 H 164.578 -4.41688 1.55013 0
M  V30 1711 H 164.751 -6.02606 2.38265 0
M  V30 1712 N 158.157 -0.370918 -1.53173 0
M  V30 1713 C 159.12 0.460778 -2.24521 0
M  V30 1714 C 160.12 1.00536 -1.25496 0
M  V30 1715 O 161.31 0.890266 -1.49733 0
M  V30 1716 C 158.442 1.64457 -2.98608 0
M  V30 1717 H 159.635 -0.163613 -2.99453 0
M  V30 1718 H 157.188 -0.122699 -1.55818 0
M  V30 1719 H 157.923 2.30691 -2.2793 0
M  V30 1720 H 157.708 1.26099 -3.7127 0
M  V30 1721 H 159.198 2.23384 -3.5283 0
M  V30 1722 N 159.635 1.57281 -0.100228 0
M  V30 1723 C 160.565 2.17328 0.853857 0
M  V30 1724 C 161.546 1.10804 1.2906 0
M  V30 1725 O 162.731 1.38963 1.35657 0
M  V30 1726 C 159.861 2.75772 2.11109 0
M  V30 1727 C 158.815 3.87713 1.81279 0
M  V30 1728 C 158.141 4.32882 3.13874 0
M  V30 1729 C 159.441 5.10677 1.09574 0
M  V30 1730 H 161.135 2.97305 0.353545 0
M  V30 1731 H 158.681 1.43009 0.168612 0
M  V30 1732 H 160.634 3.16433 2.78296 0
M  V30 1733 H 159.358 1.93057 2.63432 0
M  V30 1734 H 158.017 3.476 1.16489 0
M  V30 1735 H 157.665 3.47051 3.64095 0
M  V30 1736 H 157.365 5.08358 2.94696 0
M  V30 1737 H 158.889 4.7618 3.82211 0
M  V30 1738 H 160.303 5.48474 1.66879 0
M  V30 1739 H 158.7 5.91615 1.00557 0
M  V30 1740 H 159.77 4.84835 0.0793299 0
M  V30 1741 N 161.113 -0.173488 1.56642 0
M  V30 1742 C 162.076 -1.19859 1.95362 0
M  V30 1743 C 163.076 -1.37296 0.83704 0
M  V30 1744 O 164.266 -1.34739 1.10413 0
M  V30 1745 C 161.398 -2.56405 2.24654 0
M  V30 1746 H 162.591 -0.867062 2.87092 0
M  V30 1747 H 160.144 -0.415853 1.50666 0
M  V30 1748 H 160.879 -2.94576 1.35631 0
M  V30 1749 H 160.664 -2.45115 3.06041 0
M  V30 1750 H 162.154 -3.30287 2.5554 0
M  V30 1751 N 162.591 -1.51276 -0.441967 0
M  V30 1752 C 163.838 -1.63715 -1.19179 0
M  V30 1753 C 164.166 -0.351175 -1.91303 0
M  V30 1754 O 163.421 0.664524 -1.84072 0
M  V30 1755 C 163.72 -2.78746 -2.23686 0
M  V30 1756 C 163.386 -4.18189 -1.68607 0
M  V30 1757 C 162.048 -4.56125 -1.53308 0
M  V30 1758 C 164.4 -5.05222 -1.28062 0
M  V30 1759 C 161.728 -5.78804 -0.959317 0
M  V30 1760 C 164.08 -6.28476 -0.721162 0
M  V30 1761 C 162.744 -6.65188 -0.55504 0
M  V30 1762 H 162.014 -0.599076 -0.436106 0
M  V30 1763 H 164.661 -1.85296 -0.48351 0
M  V30 1764 H 162.966 -2.51369 -3.00535 0
M  V30 1765 H 164.663 -2.8557 -2.81515 0
M  V30 1766 H 161.253 -3.88277 -1.8149 0
M  V30 1767 H 165.437 -4.76524 -1.38704 0
M  V30 1768 H 160.693 -6.05899 -0.81833 0
M  V30 1769 H 164.867 -6.95259 -0.398458 0
M  V30 1770 H 162.494 -7.60123 -0.108311 0
M  V30 1771 N 164.069 0.697108 -1.41344 0
M  V30 1772 C 165.294 1.49096 -1.44171 0
M  V30 1773 C 165.719 1.88038 -0.0481568 0
M  V30 1774 O 165.077 1.54525 0.948243 0
M  V30 1775 C 165.125 2.73088 -2.3549 0
M  V30 1776 O 164.229 3.70514 -1.81088 0
M  V30 1777 H 163.57 0.448801 -0.489361 0
M  V30 1778 H 166.1 0.856992 -1.85787 0
M  V30 1779 H 166.11 3.21413 -2.51312 0
M  V30 1780 H 164.785 2.44081 -3.36745 0
M  V30 1781 H 163.362 3.29441 -1.74708 0
M  V30 1782 N 165.547 1.27147 0.931209 0
M  V30 1783 C 166.457 1.11372 2.06478 0
M  V30 1784 C 167.473 0.044645 1.73943 0
M  V30 1785 O 168.649 0.250417 1.99837 0
M  V30 1786 C 165.714 0.758838 3.38294 0
M  V30 1787 C 164.775 1.90841 3.84549 0
M  V30 1788 C 164.008 1.57036 5.10074 0
M  V30 1789 O 164.231 0.476645 5.68405 0
M  V30 1790 O 163.165 2.40839 5.51616 0
M  V30 1791 H 166.991 2.06493 2.22698 0
M  V30 1792 H 164.576 1.06301 1.04978 0
M  V30 1793 H 166.458 0.574098 4.17471 0
M  V30 1794 H 165.133 -0.162879 3.2329 0
M  V30 1795 H 164.04 2.14819 3.06274 0
M  V30 1796 H 165.373 2.81021 4.04089 0
M  V30 1797 N 167.025 -1.13721 1.09112 0
M  V30 1798 C 168.274 -1.84275 0.82009 0
M  V30 1799 C 168.587 -1.84253 -0.656509 0
M  V30 1800 O 169.793 -2.50668 -1.04296 0
M  V30 1801 C 168.249 -3.30825 1.41714 0
M  V30 1802 C 167.857 -3.39244 2.92605 0
M  V30 1803 C 169.601 -4.06443 1.22492 0
M  V30 1804 C 167.508 -4.80047 3.45411 0
M  V30 1805 H 166.438 -0.690387 0.30312 0
M  V30 1806 H 169.089 -1.28146 1.31343 0
M  V30 1807 H 167.471 -3.86737 0.851498 0
M  V30 1808 H 168.645 -2.93344 3.55367 0
M  V30 1809 H 166.96 -2.77088 3.10823 0
M  V30 1810 H 169.557 -5.10387 1.59402 0
M  V30 1811 H 169.9 -4.15972 0.165299 0
M  V30 1812 H 170.433 -3.56852 1.75788 0
M  V30 1813 H 167.172 -4.75709 4.50978 0
M  V30 1814 H 166.692 -5.26455 2.87411 0
M  V30 1815 H 168.371 -5.48957 3.42425 0
M  V30 1816 N 168.503 -0.877838 -1.30888 0
M  V30 1817 C 169.451 -0.328662 -2.30266 0
M  V30 1818 C 170.445 0.560496 -1.59859 0
M  V30 1819 O 171.651 0.445722 -1.74394 0
M  V30 1820 H 168.026 -0.0876142 -0.746879 0
M  V30 1821 H 169.997 -1.18061 -2.74051 0
M  V30 1822 C 168.746 0.448071 -3.44801 0
M  V30 1823 H 168.069 -0.226859 -3.99156 0
M  V30 1824 H 169.509 0.797541 -4.16432 0
M  V30 1825 C 167.968 1.64239 -2.94155 0
M  V30 1826 O 168.498 2.74175 -2.93583 0
M  V30 1827 N 166.704 1.47716 -2.50256 0
M  V30 1828 H 166.251 0.582821 -2.5092 0
M  V30 1829 H 166.209 2.27765 -2.16727 0
M  V30 1830 N 169.982 1.44106 -0.638065 0
M  V30 1831 C 170.914 2.28976 0.101205 0
M  V30 1832 C 171.927 1.4167 0.802088 0
M  V30 1833 O 173.116 1.65755 0.662375 0
M  V30 1834 C 170.216 3.18217 1.16581 0
M  V30 1835 C 169.389 4.33978 0.546066 0
M  V30 1836 C 168.448 5.04202 1.50554 0
M  V30 1837 O 167.474 5.59986 1.01999 0
M  V30 1838 N 168.676 5.06296 2.8398 0
M  V30 1839 H 171.441 2.93064 -0.627186 0
M  V30 1840 H 169.002 1.54629 -0.479731 0
M  V30 1841 H 170.994 3.62061 1.80815 0
M  V30 1842 H 169.564 2.55833 1.79634 0
M  V30 1843 H 168.784 3.93239 -0.275046 0
M  V30 1844 H 170.072 5.08675 0.112793 0
M  V30 1845 H 169.47 4.62319 3.26002 0
M  V30 1846 H 168.027 5.53907 3.43556 0
M  V30 1847 N 171.46 0.379036 1.52974 0
M  V30 1848 C 172.392 -0.495963 2.2377 0
M  V30 1849 C 173.405 -1.03517 1.25651 0
M  V30 1850 O 174.594 -0.939249 1.51791 0
M  V30 1851 C 171.694 -1.69894 2.93239 0
M  V30 1852 C 170.867 -1.2889 4.17979 0
M  V30 1853 C 169.926 -2.35543 4.70538 0
M  V30 1854 O 168.952 -1.97375 5.33883 0
M  V30 1855 N 170.154 -3.67318 4.49508 0
M  V30 1856 H 172.919 0.110523 2.99496 0
M  V30 1857 H 170.48 0.204878 1.60598 0
M  V30 1858 H 172.472 -2.40747 3.25304 0
M  V30 1859 H 171.042 -2.212 2.20883 0
M  V30 1860 H 170.262 -0.409676 3.92065 0
M  V30 1861 H 171.55 -0.991443 4.99047 0
M  V30 1862 H 170.948 -4.01095 3.98923 0
M  V30 1863 H 169.505 -4.34235 4.8609 0
M  V30 1864 N 172.938 -1.57226 0.108567 0
M  V30 1865 C 173.868 -2.17778 -0.84232 0
M  V30 1866 C 174.849 -1.11487 -1.2847 0
M  V30 1867 O 176.034 -1.39681 -1.34918 0
M  V30 1868 C 173.164 -2.76888 -2.09644 0
M  V30 1869 C 172.118 -3.88669 -1.79221 0
M  V30 1870 C 171.444 -4.34541 -3.11574 0
M  V30 1871 C 172.744 -5.11251 -1.06864 0
M  V30 1872 H 174.438 -2.97489 -0.337774 0
M  V30 1873 H 171.984 -1.43097 -0.161025 0
M  V30 1874 H 173.937 -3.17904 -2.76614 0
M  V30 1875 H 172.661 -1.94451 -2.62405 0
M  V30 1876 H 171.32 -3.48213 -1.14644 0
M  V30 1877 H 170.968 -3.48977 -3.62249 0
M  V30 1878 H 170.668 -5.09914 -2.91996 0
M  V30 1879 H 172.192 -4.782 -3.7968 0
M  V30 1880 H 173.606 -5.49352 -1.63968 0
M  V30 1881 H 172.003 -5.9214 -0.974178 0
M  V30 1882 H 173.073 -4.8487 -0.0536168 0
M  V30 1883 N 174.416 0.165178 -1.56732 0
M  V30 1884 C 175.646 0.894919 -1.86212 0
M  V30 1885 C 176.054 1.76066 -0.692627 0
M  V30 1886 O 175.397 1.80387 0.347303 0
M  V30 1887 C 175.459 1.8174 -3.10179 0
M  V30 1888 C 175.123 1.13064 -4.42793 0
M  V30 1889 C 176.12 0.493169 -5.17556 0
M  V30 1890 C 173.805 1.12556 -4.89527 0
M  V30 1891 C 175.799 -0.140209 -6.37246 0
M  V30 1892 C 173.486 0.488366 -6.09145 0
M  V30 1893 C 174.484 -0.143411 -6.82849 0
M  V30 1894 O 174.172 -0.77055 -8.00199 0
M  V30 1895 H 173.904 0.265114 -0.621844 0
M  V30 1896 H 176.458 0.168242 -2.0471 0
M  V30 1897 H 174.688 2.58455 -2.87642 0
M  V30 1898 H 176.377 2.4175 -3.26055 0
M  V30 1899 H 177.143 0.489023 -4.82528 0
M  V30 1900 H 173.022 1.60672 -4.32094 0
M  V30 1901 H 176.566 -0.633932 -6.94714 0
M  V30 1902 H 172.463 0.490116 -6.43637 0
M  V30 1903 H 173.231 -0.670408 -8.1575 0
M  V30 1904 N 175.894 1.51508 0.433938 0
M  V30 1905 C 176.826 1.69266 1.54537 0
M  V30 1906 C 177.839 0.573276 1.52373 0
M  V30 1907 O 179.028 0.847698 1.57087 0
M  V30 1908 C 176.128 1.69524 2.93453 0
M  V30 1909 C 175.301 2.98101 3.20085 0
M  V30 1910 C 174.36 2.90502 4.38742 0
M  V30 1911 O 173.386 3.64442 4.3723 0
M  V30 1912 N 174.588 2.06586 5.42496 0
M  V30 1913 H 177.353 2.65145 1.39708 0
M  V30 1914 H 174.914 1.49437 0.622922 0
M  V30 1915 H 176.906 1.62004 3.70859 0
M  V30 1916 H 175.476 0.812245 3.01863 0
M  V30 1917 H 174.696 3.19464 2.30947 0
M  V30 1918 H 175.984 3.83207 3.34708 0
M  V30 1919 H 175.382 1.45896 5.46563 0
M  V30 1920 H 173.939 2.04943 6.18742 0
M  V30 1921 N 177.372 -0.689602 1.41712 0
M  V30 1922 C 178.302 -1.81577 1.46806 0
M  V30 1923 C 179.283 -1.66945 0.326105 0
M  V30 1924 O 180.468 -1.86588 0.538377 0
M  V30 1925 C 177.598 -3.19762 1.35535 0
M  V30 1926 C 176.552 -3.49107 2.47605 0
M  V30 1927 C 175.878 -4.86711 2.21397 0
M  V30 1928 C 177.178 -3.47483 3.89939 0
M  V30 1929 H 178.872 -1.7757 2.41058 0
M  V30 1930 H 176.418 -0.852887 1.16025 0
M  V30 1931 H 178.371 -3.98263 1.3771 0
M  V30 1932 H 177.095 -3.24409 0.377708 0
M  V30 1933 H 175.754 -2.72959 2.44722 0
M  V30 1934 H 175.402 -4.8799 1.21961 0
M  V30 1935 H 175.102 -5.0731 2.96497 0
M  V30 1936 H 176.626 -5.67515 2.25297 0
M  V30 1937 H 178.04 -4.1598 3.94505 0
M  V30 1938 H 176.437 -3.79615 4.64771 0
M  V30 1939 H 177.507 -2.46341 4.17665 0
M  V30 1940 N 178.85 -1.27639 -0.924453 0
M  V30 1941 C 179.78 -1.13166 -2.04244 0
M  V30 1942 C 180.761 -0.032256 -1.70069 0
M  V30 1943 O 181.946 -0.207328 -1.9309 0
M  V30 1944 C 179.076 -0.781496 -3.38393 0
M  V30 1945 C 178.03 -1.83449 -3.86692 0
M  V30 1946 C 177.356 -1.33822 -5.17683 0
M  V30 1947 C 178.656 -3.23917 -4.09726 0
M  V30 1948 H 180.35 -2.06689 -2.1661 0
M  V30 1949 H 177.896 -0.995136 -1.04082 0
M  V30 1950 H 179.849 -0.667057 -4.16087 0
M  V30 1951 H 178.573 0.189439 -3.2605 0
M  V30 1952 H 177.232 -1.93789 -3.11193 0
M  V30 1953 H 176.88 -0.35665 -5.01734 0
M  V30 1954 H 176.58 -2.04224 -5.50968 0
M  V30 1955 H 178.104 -1.23679 -5.97943 0
M  V30 1956 H 179.518 -3.16559 -4.77978 0
M  V30 1957 H 177.915 -3.92059 -4.54324 0
M  V30 1958 H 178.985 -3.68729 -3.14908 0
M  V30 1959 N 180.328 1.1314 -1.09713 0
M  V30 1960 C 181.276 2.20717 -0.733934 0
M  V30 1961 C 182.27 1.6729 0.266506 0
M  V30 1962 O 183.476 1.79547 0.127656 0
M  V30 1963 H 179.851 0.719292 -0.21937 0
M  V30 1964 H 181.822 2.48611 -1.6503 0
M  V30 1965 C 180.571 3.47265 -0.173849 0
M  V30 1966 H 179.894 3.88716 -0.934873 0
M  V30 1967 H 181.334 4.23979 0.0423126 0
M  V30 1968 C 179.793 3.18724 1.09164 0
M  V30 1969 O 180.323 3.37762 2.17439 0
M  V30 1970 N 178.529 2.72583 1.00732 0
M  V30 1971 H 178.076 2.57291 0.126121 0
M  V30 1972 H 178.034 2.53862 1.85476 0
M  V30 1973 N 181.806 0.884767 1.30421 0
M  V30 1974 C 183.054 0.502112 1.95763 0
M  V30 1975 C 183.375 -0.951815 1.70192 0
M  V30 1976 O 182.645 -1.6692 1.0254 0
M  V30 1977 H 181.225 0.182694 0.724315 0
M  V30 1978 H 183.887 1.1278 1.58955 0
M  V30 1979 H 182.983 0.672188 3.04775 0
M  V30 1980 N 183.284 -1.43765 0.645699 0
M  V30 1981 C 184.214 -2.33471 -0.0370477 0
M  V30 1982 C 185.195 -1.49042 -0.819779 0
M  V30 1983 O 186.38 -1.77726 -0.782758 0
M  V30 1984 C 183.51 -3.32311 -1.0093 0
M  V30 1985 C 182.464 -4.2667 -0.337201 0
M  V30 1986 C 181.79 -5.1549 -1.42037 0
M  V30 1987 C 183.09 -5.16657 0.765706 0
M  V30 1988 H 184.784 -2.90809 0.712069 0
M  V30 1989 H 182.33 -1.39834 0.343876 0
M  V30 1990 H 184.283 -3.9396 -1.49578 0
M  V30 1991 H 183.007 -2.73213 -1.78948 0
M  V30 1992 H 181.666 -3.66374 0.128771 0
M  V30 1993 H 181.314 -4.52735 -2.1918 0
M  V30 1994 H 181.014 -5.79438 -0.975966 0
M  V30 1995 H 182.538 -5.80012 -1.90838 0
M  V30 1996 H 183.952 -5.72158 0.361702 0
M  V30 1997 H 182.349 -5.89286 1.13413 0
M  V30 1998 H 183.419 -4.56796 1.62683 0
M  V30 1999 N 184.763 -0.387143 -1.52771 0
M  V30 2000 C 186.04 0.253197 -1.93954 0
M  V30 2001 C 186.42 1.64545 -1.32243 0
M  V30 2002 O 185.768 2.23191 -0.489699 0
M  V30 2003 C 185.978 0.281722 -3.47861 0
M  V30 2004 C 187.326 0.511715 -4.21505 0
M  V30 2005 O 188.35 0.362023 -3.54356 0
M  V30 2006 O 187.209 0.804847 -5.40541 0
M  V30 2007 H 184.303 0.156845 -0.811991 0
M  V30 2008 H 186.849 -0.441494 -1.63856 0
M  V30 2009 H 185.621 -0.693571 -3.85104 0
M  V30 2010 H 185.244 1.02142 -3.84256 0
M  V30 2011 N 186.241 1.57166 -0.116904 0
M  V30 2012 C 187.487 1.95412 0.542405 0
M  V30 2013 C 187.82 1.00019 1.66463 0
M  V30 2014 O 187.095 0.0370346 1.94465 0
M  V30 2015 C 187.378 3.43615 1.07708 0
M  V30 2016 C 187.231 4.49781 -0.0415868 0
M  V30 2017 C 188.55 3.93616 1.96861 0
M  V30 2018 H 185.669 0.710543 0.195696 0
M  V30 2019 H 188.311 1.89027 -0.192038 0
M  V30 2020 H 186.461 3.49187 1.70296 0
M  V30 2021 H 188.133 4.56308 -0.676793 0
M  V30 2022 H 186.376 4.28033 -0.705019 0
M  V30 2023 H 187.047 5.50733 0.373717 0
M  V30 2024 H 189.523 3.90335 1.44146 0
M  V30 2025 H 188.399 4.97838 2.3119 0
M  V30 2026 H 188.66 3.34188 2.89432 0
M  V30 2027 N 187.719 -0.156864 1.56817 0
M  V30 2028 C 188.965 -0.872416 1.83076 0
M  V30 2029 C 189.298 -1.81261 0.697001 0
M  V30 2030 O 188.573 -1.92171 -0.30008 0
M  V30 2031 C 188.856 -1.65551 3.19789 0
M  V30 2032 C 188.709 -0.737467 4.43713 0
M  V30 2033 C 190.028 -2.62012 3.53606 0
M  V30 2034 H 187.147 -0.315715 0.665953 0
M  V30 2035 H 189.789 -0.138004 1.89498 0
M  V30 2036 H 187.939 -2.28159 3.14445 0
M  V30 2037 H 189.611 -0.123143 4.61136 0
M  V30 2038 H 187.854 -0.0464067 4.33775 0
M  V30 2039 H 188.525 -1.32122 5.35955 0
M  V30 2040 H 191.001 -2.09525 3.59497 0
M  V30 2041 H 189.877 -3.13861 4.50314 0
M  V30 2042 H 190.138 -3.42902 2.79053 0
M  V30 2043 N 189.197 -1.51736 -0.425897 0
M  V30 2044 C 190.427 -1.68549 -1.19476 0
M  V30 2045 C 190.835 -0.387288 -1.85194 0
M  V30 2046 O 190.178 0.645142 -1.71999 0
M  V30 2047 C 190.24 -2.75275 -2.31223 0
M  V30 2048 C 189.904 -4.17534 -1.8578 0
M  V30 2049 C 190.901 -5.01936 -1.35485 0
M  V30 2050 C 188.586 -4.6369 -1.93123 0
M  V30 2051 C 190.58 -6.30559 -0.931347 0
M  V30 2052 C 188.267 -5.92307 -1.50384 0
M  V30 2053 C 189.265 -6.75569 -1.00473 0
M  V30 2054 O 188.953 -8.0178 -0.583452 0
M  V30 2055 H 188.685 -0.568525 -0.365725 0
M  V30 2056 H 191.239 -1.98982 -0.509444 0
M  V30 2057 H 189.469 -2.40182 -3.03067 0
M  V30 2058 H 191.158 -2.80853 -2.93047 0
M  V30 2059 H 191.924 -4.67475 -1.29197 0
M  V30 2060 H 187.803 -3.98997 -2.30916 0
M  V30 2061 H 191.347 -6.95498 -0.541084 0
M  V30 2062 H 187.244 -6.2628 -1.56346 0
M  V30 2063 H 188.012 -8.1543 -0.708275 0
M  V30 2064 N 190.675 0.682077 -1.42076 0
M  V30 2065 C 191.625 1.78823 -1.41444 0
M  V30 2066 C 192.609 1.58323 -0.28681 0
M  V30 2067 O 193.801 1.68926 -0.528498 0
M  V30 2068 C 190.93 3.17232 -1.3122 0
M  V30 2069 C 190.016 3.4338 -2.489 0
M  V30 2070 N 190.407 3.40152 -3.7434 0
M  V30 2071 C 188.705 3.73986 -2.43003 0
M  V30 2072 C 189.406 3.65581 -4.52466 0
M  V30 2073 N 188.382 3.85989 -3.8277 0
M  V30 2074 H 192.184 1.7471 -2.36334 0
M  V30 2075 H 189.698 0.882622 -1.36321 0
M  V30 2076 H 191.695 3.96489 -1.2885 0
M  V30 2077 H 190.355 3.22547 -0.373263 0
M  V30 2078 H 191.366 3.20221 -4.07037 0
M  V30 2079 H 188.043 3.86591 -1.57651 0
M  V30 2080 H 189.433 3.69108 -5.61435 0
M  V30 2081 N 192.153 1.28127 0.917671 0
M  V30 2082 C 193.116 1.11744 2.00115 0
M  V30 2083 C 194.116 0.0583052 1.60694 0
M  V30 2084 O 195.306 0.303755 1.71531 0
M  V30 2085 C 192.438 0.704862 3.33533 0
M  V30 2086 H 193.631 2.07966 2.16079 0
M  V30 2087 H 191.184 1.11058 1.09981 0
M  V30 2088 H 191.919 -0.258299 3.2327 0
M  V30 2089 H 191.704 1.4699 3.63505 0
M  V30 2090 H 193.194 0.612768 4.1308 0
M  V30 2091 N 193.631 -1.12557 1.10312 0
M  V30 2092 C 194.563 -2.17971 0.708625 0
M  V30 2093 C 195.576 -1.60806 -0.254027 0
M  V30 2094 O 196.765 -1.78458 -0.0386891 0
M  V30 2095 C 193.865 -3.38891 0.0248198 0
M  V30 2096 C 193.038 -4.25548 1.01132 0
M  V30 2097 C 192.097 -5.24972 0.35924 0
M  V30 2098 O 191.123 -5.60174 1.00965 0
M  V30 2099 N 192.325 -5.73747 -0.882847 0
M  V30 2100 H 195.09 -2.52427 1.61557 0
M  V30 2101 H 192.651 -1.27967 0.991771 0
M  V30 2102 H 194.643 -4.02485 -0.422852 0
M  V30 2103 H 193.213 -3.02596 -0.784514 0
M  V30 2104 H 192.433 -3.58589 1.6373 0
M  V30 2105 H 193.721 -4.80294 1.67914 0
M  V30 2106 H 193.119 -5.4731 -1.43065 0
M  V30 2107 H 191.676 -6.39234 -1.27369 0
M  V30 2108 N 195.109 -0.891671 -1.2995 0
M  V30 2109 C 196.357 -0.512486 -1.95494 0
M  V30 2110 C 196.678 0.942776 -1.70695 0
M  V30 2111 O 195.948 1.66374 -1.03424 0
M  V30 2112 H 194.528 -0.186533 -0.723336 0
M  V30 2113 H 197.19 -1.13621 -1.58355 0
M  V30 2114 H 196.286 -0.688342 -3.04415 0
M  V30 2115 N 196.587 1.43421 -0.653314 0
M  V30 2116 C 197.497 2.34568 0.0388565 0
M  V30 2117 C 198.513 1.53888 0.81207 0
M  V30 2118 O 199.689 1.86539 0.759294 0
M  V30 2119 C 196.754 3.32167 0.993269 0
M  V30 2120 C 195.815 4.28751 0.216977 0
M  V30 2121 C 195.048 5.21688 1.12593 0
M  V30 2122 O 195.271 5.19052 2.36519 0
M  V30 2123 O 194.205 5.98919 0.598284 0
M  V30 2124 H 198.031 2.95251 -0.711386 0
M  V30 2125 H 195.616 1.43564 -0.413502 0
M  V30 2126 H 197.498 3.92183 1.54176 0
M  V30 2127 H 196.173 2.73987 1.72374 0
M  V30 2128 H 195.08 3.72215 -0.375101 0
M  V30 2129 H 196.413 4.89913 -0.473924 0
M  V30 2130 N 198.065 0.39524 1.52563 0
M  V30 2131 C 199.295 -0.184675 2.05773 0
M  V30 2132 C 199.703 -1.40571 1.26635 0
M  V30 2133 O 199.046 -1.81105 0.30769 0
M  V30 2134 C 199.108 -0.613551 3.54226 0
M  V30 2135 C 198.772 0.49484 4.54313 0
M  V30 2136 C 199.769 1.3541 5.01956 0
M  V30 2137 C 197.454 0.663565 4.97898 0
M  V30 2138 C 199.448 2.36716 5.91814 0
M  V30 2139 C 197.135 1.67996 5.87555 0
M  V30 2140 C 198.133 2.53017 6.34406 0
M  V30 2141 O 197.821 3.52917 7.22291 0
M  V30 2142 H 197.553 -0.030077 0.675331 0
M  V30 2143 H 200.107 0.560708 1.97599 0
M  V30 2144 H 198.337 -1.411 3.60038 0
M  V30 2145 H 200.026 -1.11981 3.90148 0
M  V30 2146 H 200.792 1.23509 4.6901 0
M  V30 2147 H 196.671 0.0114913 4.60999 0
M  V30 2148 H 200.215 3.03113 6.28306 0
M  V30 2149 H 196.112 1.79933 6.19915 0
M  V30 2150 H 196.88 3.48996 7.40367 0
M  V30 2151 N 199.544 -1.57102 0.125237 0
M  V30 2152 C 200.507 -2.14471 -0.80838 0
M  V30 2153 C 201.507 -1.0811 -1.19033 0
M  V30 2154 O 202.697 -1.33856 -1.11482 0
M  V30 2155 C 199.829 -2.69005 -2.09402 0
M  V30 2156 H 201.022 -2.98297 -0.309696 0
M  V30 2157 H 198.575 -1.55807 -0.124051 0
M  V30 2158 H 199.31 -1.88785 -2.63687 0
M  V30 2159 H 199.095 -3.46799 -1.82957 0
M  V30 2160 H 200.585 -3.13278 -2.76128 0
M  V30 2161 N 201.022 0.148545 -1.56898 0
M  V30 2162 C 202.252 0.875118 -1.8715 0
M  V30 2163 C 202.66 1.75322 -0.711262 0
M  V30 2164 O 202.003 1.80745 0.328151 0
M  V30 2165 C 202.065 1.7844 -3.12089 0
M  V30 2166 C 201.729 1.08361 -4.43967 0
M  V30 2167 C 202.726 0.438247 -5.1805 0
M  V30 2168 C 200.411 1.07358 -4.90693 0
M  V30 2169 C 202.405 -0.20779 -6.37061 0
M  V30 2170 C 200.092 0.42373 -6.09629 0
M  V30 2171 C 201.09 -0.215829 -6.82659 0
M  V30 2172 O 200.778 -0.855378 -7.99336 0
M  V30 2173 H 200.51 0.258504 -0.624621 0
M  V30 2174 H 203.064 0.14652 -2.04877 0
M  V30 2175 H 201.294 2.55389 -2.90367 0
M  V30 2176 H 202.983 2.38279 -3.286 0
M  V30 2177 H 203.749 0.437817 -4.8302 0
M  V30 2178 H 199.628 1.5608 -4.33774 0
M  V30 2179 H 203.172 -0.70758 -6.94002 0
M  V30 2180 H 199.069 0.421822 -6.4412 0
M  V30 2181 H 199.837 -0.756892 -8.14993 0
M  V30 2182 N 202.5 1.5196 0.417844 0
M  V30 2183 C 203.463 1.74065 1.49111 0
M  V30 2184 C 204.463 0.610537 1.48758 0
M  V30 2185 O 205.653 0.87832 1.50437 0
M  V30 2186 C 202.785 1.81502 2.88565 0
M  V30 2187 H 203.978 2.69869 1.30807 0
M  V30 2188 H 201.531 1.42244 0.647785 0
M  V30 2189 H 202.266 0.875813 3.1225 0
M  V30 2190 H 202.051 2.63651 2.90225 0
M  V30 2191 H 203.541 2.00376 3.66387 0
M  V30 2192 N 203.978 -0.674533 1.42435 0
M  V30 2193 C 205.255 -1.4305 1.33402 0
M  V30 2194 C 205.635 -2.11081 -0.0284674 0
M  V30 2195 O 204.983 -2.03257 -1.04397 0
M  V30 2196 C 205.193 -2.43272 2.50239 0
M  V30 2197 C 206.541 -3.07907 2.92367 0
M  V30 2198 O 207.565 -2.53599 2.50132 0
M  V30 2199 O 206.424 -4.0632 3.65467 0
M  V30 2200 H 203.518 -0.638076 0.526106 0
M  V30 2201 H 206.064 -0.703235 1.54443 0
M  V30 2202 H 204.836 -1.91803 3.41068 0
M  V30 2203 H 204.459 -3.23479 2.31186 0
M  V30 2204 N 205.456 -1.28612 -0.910864 0
M  V30 2205 C 206.702 -1.16106 -1.66274 0
M  V30 2206 C 207.035 0.289113 -1.92036 0
M  V30 2207 O 206.31 1.21 -1.52281 0
M  V30 2208 C 206.593 -1.96309 -3.01885 0
M  V30 2209 C 206.446 -3.49405 -2.8326 0
M  V30 2210 C 207.765 -1.78076 -4.02463 0
M  V30 2211 H 204.884 -0.423152 -0.603417 0
M  V30 2212 H 207.526 -1.57961 -1.05586 0
M  V30 2213 H 205.676 -1.60742 -3.53687 0
M  V30 2214 H 207.348 -3.94894 -2.38446 0
M  V30 2215 H 205.591 -3.74893 -2.18261 0
M  V30 2216 H 206.262 -4.00784 -3.79574 0
M  V30 2217 H 208.738 -2.0912 -3.59733 0
M  V30 2218 H 207.614 -2.36561 -4.95308 0
M  V30 2219 H 207.875 -0.733008 -4.35981 0
M  V30 2220 N 206.934 1.1197 -1.10907 0
M  V30 2221 C 208.183 1.82947 -0.849302 0
M  V30 2222 C 208.496 1.85275 0.627112 0
M  V30 2223 O 209.702 2.52296 1.00295 0
M  V30 2224 C 208.158 3.28529 -1.46959 0
M  V30 2225 C 207.766 3.34546 -2.97965 0
M  V30 2226 C 209.51 4.04443 -1.28942 0
M  V30 2227 C 207.417 4.74491 -3.53004 0
M  V30 2228 H 206.347 0.685477 -0.314065 0
M  V30 2229 H 208.998 1.2604 -1.33365 0
M  V30 2230 H 207.38 3.85333 -0.912917 0
M  V30 2231 H 208.554 2.87654 -3.59989 0
M  V30 2232 H 206.869 2.72108 -3.15192 0
M  V30 2233 H 209.466 5.07787 -1.67502 0
M  V30 2234 H 209.809 4.15656 -0.231456 0
M  V30 2235 H 210.342 3.5401 -1.81443 0
M  V30 2236 H 207.081 4.68474 -4.58489 0
M  V30 2237 H 206.601 5.21816 -2.9575 0
M  V30 2238 H 208.28 5.4344 -3.51115 0
M  V30 2239 N 208.412 0.89855 1.29475 0
M  V30 2240 C 209.658 0.524658 1.95896 0
M  V30 2241 C 209.991 -0.926468 1.70676 0
M  V30 2242 O 209.266 -1.65665 1.01908 0
M  V30 2243 C 209.549 0.81633 3.50725 0
M  V30 2244 C 209.402 2.31907 3.85408 0
M  V30 2245 C 210.721 0.302038 4.39062 0
M  V30 2246 H 207.84 0.19209 0.711527 0
M  V30 2247 H 210.482 1.12502 1.53112 0
M  V30 2248 H 208.632 0.305369 3.87298 0
M  V30 2249 H 210.304 2.89949 3.58786 0
M  V30 2250 H 208.547 2.78027 3.32992 0
M  V30 2251 H 209.218 2.47373 4.93468 0
M  V30 2252 H 211.694 0.739551 4.09475 0
M  V30 2253 H 210.57 0.535331 5.46283 0
M  V30 2254 H 210.831 -0.797216 4.34853 0
M  V30 2255 N 209.89 -1.43072 0.660911 0
M  V30 2256 C 210.838 -2.32569 -0.0378199 0
M  V30 2257 C 211.832 -1.49046 -0.805092 0
M  V30 2258 O 213.038 -1.65206 -0.714624 0
M  V30 2259 H 209.413 -0.75136 -0.031019 0
M  V30 2260 H 211.384 -2.89216 0.734609 0
M  V30 2261 C 210.133 -3.33453 -0.985124 0
M  V30 2262 H 209.456 -3.97752 -0.404147 0
M  V30 2263 H 210.896 -3.98691 -1.44297 0
M  V30 2264 C 209.355 -2.64642 -2.08486 0
M  V30 2265 O 209.885 -2.46776 -3.16961 0
M  V30 2266 N 208.091 -2.23891 -1.8526 0
M  V30 2267 H 207.638 -2.38621 -0.970449 0
M  V30 2268 H 207.596 -1.78181 -2.59034 0
M  V30 2269 N 211.368 -0.403325 -1.52352 0
M  V30 2270 C 212.593 0.176499 -2.06648 0
M  V30 2271 C 213.018 1.38577 -1.27193 0
M  V30 2272 O 212.376 1.7879 -0.300637 0
M  V30 2273 C 212.424 0.511061 -3.5696 0
M  V30 2274 O 211.528 1.60294 -3.79973 0
M  V30 2275 H 210.869 0.0167337 -0.663789 0
M  V30 2276 H 213.399 -0.574848 -1.96359 0
M  V30 2277 H 213.409 0.771362 -4.00642 0
M  V30 2278 H 212.084 -0.37296 -4.14224 0
M  V30 2279 H 210.661 1.33526 -3.48174 0
M  V30 2280 N 212.846 1.57033 -0.133567 0
M  V30 2281 C 213.809 2.14897 0.796995 0
M  V30 2282 C 214.809 1.0874 1.18458 0
M  V30 2283 O 215.999 1.34446 1.1077 0
M  V30 2284 C 213.131 2.70112 2.07973 0
M  V30 2285 H 214.324 2.98457 0.293873 0
M  V30 2286 H 211.877 1.55871 0.115787 0
M  V30 2287 H 212.612 1.9018 2.62682 0
M  V30 2288 H 212.397 3.47764 1.81115 0
M  V30 2289 H 213.887 3.14738 2.74462 0
M  V30 2290 N 214.325 -0.140222 1.56975 0
M  V30 2291 C 215.255 -1.17456 2.01808 0
M  V30 2292 C 216.236 -1.44415 0.898794 0
M  V30 2293 O 217.421 -1.5522 1.16707 0
M  V30 2294 C 214.551 -2.50607 2.40444 0
M  V30 2295 C 213.505 -2.38155 3.55621 0
M  V30 2296 C 212.831 -3.76078 3.80091 0
M  V30 2297 C 214.131 -1.85991 4.88062 0
M  V30 2298 H 215.825 -0.801743 2.88466 0
M  V30 2299 H 213.371 -0.38422 1.38779 0
M  V30 2300 H 215.324 -3.23197 2.7041 0
M  V30 2301 H 214.048 -2.89737 1.50732 0
M  V30 2302 H 212.707 -1.68016 3.25832 0
M  V30 2303 H 212.355 -4.12656 2.87618 0
M  V30 2304 H 212.055 -3.68606 4.57606 0
M  V30 2305 H 213.579 -4.50206 4.12488 0
M  V30 2306 H 214.993 -2.4838 5.16701 0
M  V30 2307 H 213.39 -1.89393 5.6943 0
M  V30 2308 H 214.46 -0.816023 4.77984 0
M  V30 2309 N 215.803 -1.52179 -0.40978 0
M  V30 2310 C 216.713 -1.78364 -1.52392 0
M  V30 2311 C 217.729 -0.669183 -1.60617 0
M  V30 2312 O 218.905 -0.954518 -1.77344 0
M  V30 2313 C 215.97 -1.92822 -2.88133 0
M  V30 2314 C 215.031 -3.16725 -2.898 0
M  V30 2315 C 214.264 -3.30483 -4.19067 0
M  V30 2316 O 214.487 -2.49522 -5.12928 0
M  V30 2317 O 213.421 -4.2363 -4.27576 0
M  V30 2318 H 217.247 -2.72931 -1.33201 0
M  V30 2319 H 214.832 -1.37016 -0.59557 0
M  V30 2320 H 216.714 -2.04157 -3.68643 0
M  V30 2321 H 215.389 -1.01444 -3.07393 0
M  V30 2322 H 214.296 -3.10848 -2.08146 0
M  V30 2323 H 215.629 -4.07881 -2.75489 0
M  V30 2324 N 217.281 0.66697 -1.42791 0
M  V30 2325 C 218.228 1.7803 -1.4688 0
M  V30 2326 C 219.198 1.6299 -0.319919 0
M  V30 2327 O 220.383 1.83432 -0.525118 0
M  V30 2328 C 217.523 3.1611 -1.38451 0
M  V30 2329 C 216.636 3.42381 -2.63437 0
M  V30 2330 C 215.771 4.70232 -2.47094 0
M  V30 2331 C 214.81 4.89564 -3.67415 0
M  V30 2332 N 213.947 6.08661 -3.49966 0
M  V30 2333 H 218.787 1.7387 -2.42019 0
M  V30 2334 H 216.324 0.84868 -1.20149 0
M  V30 2335 H 218.282 3.95914 -1.31561 0
M  V30 2336 H 216.912 3.19374 -0.469033 0
M  V30 2337 H 215.964 2.56774 -2.80662 0
M  V30 2338 H 217.276 3.52557 -3.52853 0
M  V30 2339 H 216.43 5.5814 -2.37834 0
M  V30 2340 H 215.169 4.62353 -1.5518 0
M  V30 2341 H 214.174 4.00096 -3.77099 0
M  V30 2342 H 215.399 4.99282 -4.6032 0
M  V30 2343 H 213.345 6.0194 -2.60776 0
M  V30 2344 H 213.262 6.19733 -4.32975 0
M  V30 2345 H 214.53 6.99226 -3.44532 0
M  V30 2346 N 218.759 1.29093 0.90403 0
M  V30 2347 C 219.689 1.16401 2.02418 0
M  V30 2348 C 220.67 0.0593085 1.69997 0
M  V30 2349 O 221.855 0.238021 1.92736 0
M  V30 2350 C 218.985 0.835233 3.37107 0
M  V30 2351 C 217.939 1.89578 3.83724 0
M  V30 2352 C 217.265 1.42041 5.15489 0
M  V30 2353 C 218.565 3.30394 4.04521 0
M  V30 2354 H 220.259 2.10109 2.13295 0
M  V30 2355 H 217.805 1.01157 1.02486 0
M  V30 2356 H 219.758 0.733169 4.14973 0
M  V30 2357 H 218.482 -0.137543 3.2631 0
M  V30 2358 H 217.141 1.98715 3.08071 0
M  V30 2359 H 216.789 0.436426 5.01103 0
M  V30 2360 H 216.489 2.12964 5.4765 0
M  V30 2361 H 218.013 1.33176 5.959 0
M  V30 2362 H 219.427 3.24123 4.72882 0
M  V30 2363 H 217.824 3.99237 4.48029 0
M  V30 2364 H 218.894 3.73692 3.09002 0
M  V30 2365 N 220.237 -1.11381 1.11499 0
M  V30 2366 C 221.653 -1.35143 0.849031 0
M  V30 2367 C 221.853 -1.94515 -0.525938 0
M  V30 2368 O 220.909 -2.1785 -1.27662 0
M  V30 2369 C 222.222 -2.28249 1.95762 0
M  V30 2370 C 223.77 -2.41812 1.98736 0
M  V30 2371 C 224.245 -3.3824 3.088 0
M  V30 2372 N 225.736 -3.45803 3.08179 0
M  V30 2373 C 226.471 -4.20358 3.89982 0
M  V30 2374 N 225.967 -4.97884 4.8175 0
M  V30 2375 N 227.76 -4.15877 3.78157 0
M  V30 2376 H 219.911 -0.712062 2.00109 0
M  V30 2377 H 222.174 -0.376025 0.870235 0
M  V30 2378 H 221.88 -1.91817 2.94787 0
M  V30 2379 H 221.754 -3.28473 1.85433 0
M  V30 2380 H 224.141 -2.77518 1.00338 0
M  V30 2381 H 224.222 -1.41437 2.13141 0
M  V30 2382 H 223.866 -3.03261 4.07425 0
M  V30 2383 H 223.796 -4.38471 2.91635 0
M  V30 2384 H 226.287 -2.90506 2.41691 0
M  V30 2385 H 226.6 -5.52142 5.40702 0
M  V30 2386 H 224.945 -4.97043 4.85771 0
M  V30 2387 H 228.136 -3.544 3.05808 0
M  V30 2388 H 228.309 -4.73723 4.42143 0
M  V30 2389 N 221.715 -0.905404 -1.28997 0
M  V30 2390 C 222.662 -0.385892 -2.27551 0
M  V30 2391 C 223.632 0.535113 -1.57244 0
M  V30 2392 O 224.817 0.459119 -1.85194 0
M  V30 2393 C 221.957 0.375461 -3.43051 0
M  V30 2394 C 221.07 -0.577092 -4.28128 0
M  V30 2395 C 220.205 0.201879 -5.30816 0
M  V30 2396 C 219.244 -0.744829 -6.07551 0
M  V30 2397 N 218.381 9.42587e-05 -7.021 0
M  V30 2398 H 223.221 -1.23139 -2.71368 0
M  V30 2399 H 220.758 -0.618542 -1.33463 0
M  V30 2400 H 222.716 0.832992 -4.088 0
M  V30 2401 H 221.346 1.18537 -3.00248 0
M  V30 2402 H 220.398 -1.15315 -3.62501 0
M  V30 2403 H 221.71 -1.30152 -4.8152 0
M  V30 2404 H 220.864 0.720351 -6.02408 0
M  V30 2405 H 219.603 0.959413 -4.7817 0
M  V30 2406 H 218.608 -1.27475 -5.34818 0
M  V30 2407 H 219.833 -1.50178 -6.62286 0
M  V30 2408 H 217.779 0.739791 -6.51815 0
M  V30 2409 H 217.696 -0.664321 -7.53076 0
M  V30 2410 H 218.964 0.498644 -7.77903 0
M  V30 2411 N 223.193 1.4272 -0.668489 0
M  V30 2412 C 224.441 2.01226 -0.187769 0
M  V30 2413 C 224.762 1.53092 1.2078 0
M  V30 2414 O 224.032 0.74993 1.80977 0
M  V30 2415 H 222.612 0.744041 -0.0664272 0
M  V30 2416 H 225.274 1.74723 -0.863583 0
M  V30 2417 H 224.37 3.11556 -0.184166 0
M  V30 2418 N 224.671 0.411399 1.52136 0
M  V30 2419 C 225.896 -0.165538 2.06738 0
M  V30 2420 C 226.321 -1.379 1.27926 0
M  V30 2421 O 225.679 -1.78628 0.310114 0
M  V30 2422 C 225.727 -0.492124 3.57226 0
M  V30 2423 O 224.831 -1.58276 3.80818 0
M  V30 2424 H 224.172 -0.0132132 0.663869 0
M  V30 2425 H 226.702 0.585253 1.96051 0
M  V30 2426 H 226.712 -0.750104 4.01045 0
M  V30 2427 H 225.387 0.394922 4.14021 0
M  V30 2428 H 223.964 -1.31677 3.48877 0
M  V30 2429 N 226.149 -1.5696 0.141893 0
M  V30 2430 C 227.565 -1.58151 -0.21456 0
M  V30 2431 C 227.765 -1.1559 -1.65049 0
M  V30 2432 O 226.821 -0.853832 -2.37626 0
M  V30 2433 C 228.134 -3.00674 0.0395576 0
M  V30 2434 C 229.682 -3.1299 -0.0245529 0
M  V30 2435 C 230.157 -4.57554 0.202167 0
M  V30 2436 N 231.648 -4.62961 0.148919 0
M  V30 2437 C 232.383 -5.7262 0.298924 0
M  V30 2438 N 231.879 -6.90947 0.50637 0
M  V30 2439 N 233.672 -5.61601 0.236886 0
M  V30 2440 H 225.823 -1.8292 1.07953 0
M  V30 2441 H 228.086 -0.846425 0.42693 0
M  V30 2442 H 227.792 -3.36183 1.03315 0
M  V30 2443 H 227.666 -3.70981 -0.682143 0
M  V30 2444 H 230.053 -2.77326 -1.00869 0
M  V30 2445 H 230.134 -2.4518 0.729396 0
M  V30 2446 H 229.778 -4.93922 1.18338 0
M  V30 2447 H 229.708 -5.23484 -0.572044 0
M  V30 2448 H 232.199 -3.77899 -0.00697015 0
M  V30 2449 H 232.512 -7.7038 0.611076 0
M  V30 2450 H 230.857 -6.92878 0.542628 0
M  V30 2451 H 234.048 -4.68039 0.0756209 0
M  V30 2452 H 234.221 -6.47015 0.357227 0
M  V30 2453 N 227.627 0.131896 -1.57047 0
M  V30 2454 C 228.559 1.1878 -1.9602 0
M  V30 2455 C 229.572 1.38363 -0.857875 0
M  V30 2456 O 230.761 1.37666 -1.13623 0
M  V30 2457 C 227.861 2.55008 -2.23213 0
M  V30 2458 C 227.034 2.56201 -3.54513 0
M  V30 2459 C 226.093 3.7408 -3.70069 0
M  V30 2460 O 225.119 3.58258 -4.42312 0
M  V30 2461 N 226.321 4.92137 -3.07866 0
M  V30 2462 H 229.086 0.85639 -2.87204 0
M  V30 2463 H 226.647 0.321309 -1.5868 0
M  V30 2464 H 228.639 3.32404 -2.30846 0
M  V30 2465 H 227.209 2.80382 -1.3822 0
M  V30 2466 H 226.429 1.64613 -3.58185 0
M  V30 2467 H 227.717 2.54043 -4.4084 0
M  V30 2468 H 227.115 5.07895 -2.49116 0
M  V30 2469 H 225.672 5.67254 -3.21039 0
M  V30 2470 N 229.106 1.52395 0.401703 0
M  V30 2471 C 230.054 1.7689 1.51039 0
M  V30 2472 C 231.048 0.636298 1.56996 0
M  V30 2473 O 232.254 0.818507 1.60314 0
M  V30 2474 H 228.629 0.559502 0.502456 0
M  V30 2475 H 230.6 2.69757 1.27568 0
M  V30 2476 C 229.349 1.94331 2.88324 0
M  V30 2477 H 228.672 2.80905 2.84486 0
M  V30 2478 H 230.112 2.15466 3.65172 0
M  V30 2479 C 228.571 0.712396 3.29282 0
M  V30 2480 O 229.101 -0.116218 4.01532 0
M  V30 2481 N 227.307 0.546154 2.85422 0
M  V30 2482 H 226.854 1.22156 2.26794 0
M  V30 2483 H 226.812 -0.276113 3.13185 0
M  V30 2484 N 230.584 -0.659388 1.43143 0
M  V30 2485 C 231.514 -1.78422 1.50625 0
M  V30 2486 C 232.495 -1.66216 0.361443 0
M  V30 2487 O 233.68 -1.85404 0.577834 0
M  V30 2488 C 230.81 -3.16815 1.42287 0
M  V30 2489 C 229.764 -3.43777 2.54954 0
M  V30 2490 C 229.09 -4.81905 2.31671 0
M  V30 2491 C 230.39 -3.39134 3.97222 0
M  V30 2492 H 232.084 -1.72417 2.44771 0
M  V30 2493 H 229.63 -0.828084 1.17808 0
M  V30 2494 H 231.583 -3.95253 1.46127 0
M  V30 2495 H 230.307 -3.23534 0.446435 0
M  V30 2496 H 228.966 -2.67707 2.50457 0
M  V30 2497 H 228.614 -4.85294 1.32284 0
M  V30 2498 H 228.314 -5.00906 3.07192 0
M  V30 2499 H 229.838 -5.62609 2.37284 0
M  V30 2500 H 231.252 -4.07518 4.03239 0
M  V30 2501 H 229.649 -3.69671 4.72719 0
M  V30 2502 H 230.719 -2.37426 4.22797 0
M  V30 2503 N 232.062 -1.29571 -0.897171 0
M  V30 2504 C 233.29 -1.20583 -1.68129 0
M  V30 2505 C 233.705 0.233181 -1.87354 0
M  V30 2506 O 233.062 1.15579 -1.41236 0
M  V30 2507 C 233.113 -1.91772 -3.06441 0
M  V30 2508 O 232.834 -3.30053 -2.88091 0
M  V30 2509 C 234.335 -1.89291 -4.00854 0
M  V30 2510 H 231.555 -0.417826 -0.525036 0
M  V30 2511 H 234.099 -1.70987 -1.12177 0
M  V30 2512 H 232.254 -1.45196 -3.59161 0
M  V30 2513 H 232.668 -3.65942 -3.75748 0
M  V30 2514 H 234.142 -2.43662 -4.95311 0
M  V30 2515 H 234.619 -0.869014 -4.30517 0
M  V30 2516 H 235.225 -2.35622 -3.54066 0
M  V30 2517 N 233.54 1.10788 -1.12088 0
M  V30 2518 C 234.503 2.15207 -0.788577 0
M  V30 2519 C 235.503 1.59609 0.195317 0
M  V30 2520 O 236.693 1.74174 -0.0300193 0
M  V30 2521 C 233.825 3.4047 -0.171174 0
M  V30 2522 H 235.018 2.46116 -1.71368 0
M  V30 2523 H 232.571 1.26089 -0.923652 0
M  V30 2524 H 233.306 3.15176 0.763832 0
M  V30 2525 H 233.091 3.82109 -0.879514 0
M  V30 2526 H 234.581 4.17576 0.04496 0
M  V30 2527 N 235.018 0.912232 1.28515 0
M  V30 2528 C 236.429 0.591352 1.77087 0
M  V30 2529 C 236.78 -0.8933 1.74684 0
M  V30 2530 O 235.905 -1.69876 1.34056 0
M  V30 2531 C 236.5 1.06668 3.2157 0
M  V30 2532 C 235.059 0.79675 3.67871 0
M  V30 2533 C 234.206 1.23427 2.48316 0
M  V30 2534 H 237.157 1.09365 1.15 0
M  V30 2535 H 237.178 0.407455 3.78312 0
M  V30 2536 H 236.69 2.14726 3.23287 0
M  V30 2537 H 234.791 -0.270679 3.71616 0
M  V30 2538 H 234.904 1.40343 4.58084 0
M  V30 2539 H 233.268 0.653036 2.46186 0
M  V30 2540 H 234.051 2.32316 2.52753 0
M  V30 2541 N 236.496 -1.42363 0.676048 0
M  V30 2542 C 237.459 -2.29199 0.00766941 0
M  V30 2543 C 238.459 -1.43389 -0.727745 0
M  V30 2544 O 239.649 -1.64764 -0.56556 0
M  V30 2545 C 236.781 -3.2591 -0.999785 0
M  V30 2546 H 237.974 -2.89794 0.771988 0
M  V30 2547 H 235.527 -1.50024 0.438468 0
M  V30 2548 H 236.262 -2.70256 -1.79255 0
M  V30 2549 H 236.047 -3.89202 -0.475829 0
M  V30 2550 H 237.537 -3.91028 -1.46583 0
M  V30 2551 N 237.974 -0.419461 -1.51915 0
M  V30 2552 C 239.202 0.152136 -2.0634 0
M  V30 2553 C 239.617 1.37988 -1.28859 0
M  V30 2554 O 238.974 1.79243 -0.343232 0
M  V30 2555 C 239.025 0.492266 -3.58133 0
M  V30 2556 O 238.746 -0.686736 -4.32684 0
M  V30 2557 C 240.247 1.11648 -4.2901 0
M  V30 2558 H 237.467 0.0158325 -0.670813 0
M  V30 2559 H 240.011 -0.593394 -1.95702 0
M  V30 2560 H 238.166 1.18769 -3.68745 0
M  V30 2561 H 238.58 -0.400341 -5.2297 0
M  V30 2562 H 240.054 1.3046 -5.36362 0
M  V30 2563 H 240.531 2.09251 -3.86148 0
M  V30 2564 H 241.137 0.460958 -4.22795 0
M  V30 2565 N 239.452 1.56882 -0.150215 0
M  V30 2566 C 240.385 2.12712 0.826358 0
M  V30 2567 C 241.363 1.05154 1.24022 0
M  V30 2568 O 242.547 1.33004 1.33575 0
M  V30 2569 C 239.674 2.64945 2.11002 0
M  V30 2570 C 238.72 3.8468 1.84183 0
M  V30 2571 S 239.553 5.25502 1.02995 0
M  V30 2572 C 240.709 5.81125 2.32474 0
M  V30 2573 H 240.942 2.95214 0.351598 0
M  V30 2574 H 238.475 1.54267 0.0641211 0
M  V30 2575 H 240.433 2.95689 2.84742 0
M  V30 2576 H 239.094 1.82568 2.55593 0
M  V30 2577 H 238.287 4.19482 2.79375 0
M  V30 2578 H 237.889 3.54714 1.1855 0
M  V30 2579 H 240.181 5.92753 3.281 0
M  V30 2580 H 241.124 6.78625 2.02171 0
M  V30 2581 H 241.532 5.09392 2.43269 0
M  V30 2582 N 240.93 -0.123565 1.57115 0
M  V30 2583 C 242.179 -0.830704 1.83799 0
M  V30 2584 C 242.492 -1.81259 0.735158 0
M  V30 2585 O 243.698 -2.56558 0.888278 0
M  V30 2586 C 242.154 -1.52802 3.25852 0
M  V30 2587 C 241.762 -0.587356 4.44133 0
M  V30 2588 C 243.506 -2.22056 3.61789 0
M  V30 2589 C 241.413 -1.28764 5.77212 0
M  V30 2590 H 240.343 -0.313967 0.685522 0
M  V30 2591 H 242.994 -0.0834359 1.8331 0
M  V30 2592 H 241.376 -2.32175 3.20797 0
M  V30 2593 H 242.55 0.172829 4.60476 0
M  V30 2594 H 240.865 -0.00201892 4.164 0
M  V30 2595 H 243.462 -2.75131 4.58483 0
M  V30 2596 H 243.805 -2.99644 2.88997 0
M  V30 2597 H 244.338 -1.49576 3.68608 0
M  V30 2598 H 241.077 -0.55314 6.53162 0
M  V30 2599 H 240.597 -2.01995 5.64764 0
M  V30 2600 H 242.276 -1.8221 6.20813 0
M  V30 2601 N 242.408 -1.52605 -0.393616 0
M  V30 2602 C 243.685 -1.58001 -1.15304 0
M  V30 2603 C 244.065 -0.370385 -2.07825 0
M  V30 2604 O 243.413 0.641638 -2.19306 0
M  V30 2605 C 243.623 -2.91652 -1.91677 0
M  V30 2606 C 244.971 -3.4522 -2.47201 0
M  V30 2607 O 245.995 -2.93495 -2.01839 0
M  V30 2608 O 244.854 -4.35579 -3.3005 0
M  V30 2609 H 241.948 -0.637068 -0.527327 0
M  V30 2610 H 244.494 -1.64939 -0.399141 0
M  V30 2611 H 243.266 -3.71136 -1.23992 0
M  V30 2612 H 242.889 -2.88077 -2.74039 0
M  V30 2613 N 243.887 0.651787 -1.4349 0
M  V30 2614 C 245.133 1.4121 -1.46395 0
M  V30 2615 C 245.488 1.92202 -0.087366 0
M  V30 2616 O 244.781 1.69452 0.894231 0
M  V30 2617 C 244.975 2.60914 -2.44251 0
M  V30 2618 C 244.804 2.21639 -3.91288 0
M  V30 2619 C 243.574 2.09897 -4.59643 0
M  V30 2620 C 245.772 1.81835 -4.81083 0
M  V30 2621 N 243.754 1.63967 -5.91598 0
M  V30 2622 C 245.125 1.46998 -6.02322 0
M  V30 2623 C 247.18 1.69031 -4.6833 0
M  V30 2624 C 245.883 1.00638 -7.12225 0
M  V30 2625 C 247.909 1.24077 -5.78238 0
M  V30 2626 C 247.271 0.901772 -6.98604 0
M  V30 2627 H 243.37 0.512322 -0.590805 0
M  V30 2628 H 245.954 0.74989 -1.7968 0
M  V30 2629 H 244.125 3.24792 -2.1299 0
M  V30 2630 H 245.857 3.27622 -2.37584 0
M  V30 2631 H 242.612 2.297 -4.14168 0
M  V30 2632 H 243.036 1.43359 -6.61647 0
M  V30 2633 H 247.678 1.93878 -3.75727 0
M  V30 2634 H 245.396 0.745399 -8.04655 0
M  V30 2635 H 248.982 1.14657 -5.7039 0
M  V30 2636 H 247.862 0.559226 -7.82203 0
M  V30 2637 N 245.365 1.30045 0.890287 0
M  V30 2638 C 246.781 1.08261 1.17268 0
M  V30 2639 C 246.981 -0.160063 2.00863 0
M  V30 2640 O 246.037 -0.855181 2.37577 0
M  V30 2641 C 247.35 2.34323 1.8845 0
M  V30 2642 C 248.898 2.39735 2.01237 0
M  V30 2643 C 249.373 3.65625 2.7583 0
M  V30 2644 N 250.864 3.66402 2.83379 0
M  V30 2645 C 251.599 4.60498 3.41657 0
M  V30 2646 N 251.095 5.64933 4.01026 0
M  V30 2647 N 252.888 4.48051 3.39421 0
M  V30 2648 H 245.039 2.09777 0.332762 0
M  V30 2649 H 247.302 0.92446 0.209948 0
M  V30 2650 H 247.008 3.2498 1.34465 0
M  V30 2651 H 246.882 2.4256 2.88867 0
M  V30 2652 H 249.269 1.4956 2.54393 0
M  V30 2653 H 249.35 2.35476 0.999232 0
M  V30 2654 H 248.994 4.56156 2.23347 0
M  V30 2655 H 248.924 3.67144 3.77509 0
M  V30 2656 H 251.415 2.90896 2.41222 0
M  V30 2657 H 251.728 6.32841 4.43545 0
M  V30 2658 H 250.073 5.68732 3.99461 0
M  V30 2659 H 253.264 3.65649 2.92264 0
M  V30 2660 H 253.437 5.21565 3.84544 0
M  V30 2661 N 246.843 -1.10192 1.12674 0
M  V30 2662 C 248.254 -1.63707 0.897604 0
M  V30 2663 C 248.605 -1.87812 -0.567546 0
M  V30 2664 O 247.73 -1.62196 -1.43253 0
M  V30 2665 C 248.325 -2.974 1.62292 0
M  V30 2666 C 246.884 -3.47772 1.43986 0
M  V30 2667 C 246.031 -2.22332 1.65722 0
M  V30 2668 H 248.982 -0.936587 1.28116 0
M  V30 2669 H 249.003 -3.64986 1.07541 0
M  V30 2670 H 248.515 -2.79824 2.68924 0
M  V30 2671 H 246.616 -3.70487 0.396206 0
M  V30 2672 H 246.729 -4.25723 2.19765 0
M  V30 2673 H 245.093 -2.30599 1.08149 0
M  V30 2674 H 245.876 -2.07285 2.73657 0
M  V30 2675 N 248.321 -0.919034 -1.28029 0
M  V30 2676 C 249.567 -0.555757 -1.95036 0
M  V30 2677 C 249.9 0.899198 -1.72128 0
M  V30 2678 O 249.175 1.64023 -1.04531 0
M  V30 2679 C 249.458 -0.872024 -3.49382 0
M  V30 2680 C 249.311 -2.3801 -3.81669 0
M  V30 2681 C 250.63 -0.37185 -4.38526 0
M  V30 2682 H 247.749 -0.203386 -0.708381 0
M  V30 2683 H 250.391 -1.14924 -1.51303 0
M  V30 2684 H 248.541 -0.366946 -3.86763 0
M  V30 2685 H 250.213 -2.9562 -3.54128 0
M  V30 2686 H 248.456 -2.83289 -3.28526 0
M  V30 2687 H 249.127 -2.55192 -4.8947 0
M  V30 2688 H 251.603 -0.804602 -4.08247 0
M  V30 2689 H 250.479 -0.622173 -5.45362 0
M  V30 2690 H 250.74 0.727934 -4.36066 0
M  V30 2691 N 249.799 1.42003 -0.683588 0
M  V30 2692 C 251.045 2.01712 -0.209825 0
M  V30 2693 C 251.378 1.53968 1.18353 0
M  V30 2694 O 250.653 0.745661 1.79639 0
M  V30 2695 C 250.936 3.59202 -0.254197 0
M  V30 2696 C 250.789 4.17102 -1.68363 0
M  V30 2697 C 252.108 4.38344 0.392709 0
M  V30 2698 H 249.227 0.732891 -0.0777189 0
M  V30 2699 H 251.869 1.68909 -0.87004 0
M  V30 2700 H 250.019 3.87278 0.307954 0
M  V30 2701 H 251.691 3.99946 -2.29871 0
M  V30 2702 H 249.934 3.72597 -2.22157 0
M  V30 2703 H 250.605 5.26249 -1.6663 0
M  V30 2704 H 253.081 4.16011 -0.0859162 0
M  V30 2705 H 251.957 5.47901 0.331063 0
M  V30 2706 H 252.218 4.16887 1.47164 0
M  V30 2707 N 251.277 0.427512 1.51691 0
M  V30 2708 C 252.227 -0.406604 2.24345 0
M  V30 2709 C 253.211 -0.998276 1.26187 0
M  V30 2710 O 254.403 -0.918045 1.51331 0
M  V30 2711 C 251.532 -1.51266 3.08177 0
M  V30 2712 C 250.618 -0.930868 4.13758 0
M  V30 2713 N 251.009 -0.0773552 5.05741 0
M  V30 2714 C 249.307 -1.19948 4.29568 0
M  V30 2715 C 250.008 0.248344 5.8117 0
M  V30 2716 N 248.984 -0.365535 5.4237 0
M  V30 2717 H 252.786 0.251581 2.92821 0
M  V30 2718 H 250.3 0.239003 1.60632 0
M  V30 2719 H 252.297 -2.123 3.58796 0
M  V30 2720 H 250.957 -2.17328 2.41244 0
M  V30 2721 H 251.968 0.288351 5.17097 0
M  V30 2722 H 248.645 -1.85832 3.73862 0
M  V30 2723 H 250.035 0.942286 6.6526 0
M  V30 2724 N 252.755 -1.56801 0.158532 0
M  V30 2725 C 253.665 -2.20916 -0.789518 0
M  V30 2726 C 254.681 -1.1969 -1.26294 0
M  V30 2727 O 255.857 -1.52308 -1.31773 0
M  V30 2728 C 252.922 -2.82727 -2.00665 0
M  V30 2729 C 251.983 -3.99114 -1.58134 0
M  V30 2730 C 251.216 -4.57968 -2.74045 0
M  V30 2731 O 251.439 -4.15704 -3.90572 0
M  V30 2732 O 250.373 -5.48047 -2.48855 0
M  V30 2733 H 254.199 -3.02464 -0.273681 0
M  V30 2734 H 251.784 -1.4924 -0.0690548 0
M  V30 2735 H 253.666 -3.21968 -2.71872 0
M  V30 2736 H 252.341 -2.04184 -2.51179 0
M  V30 2737 H 251.248 -3.64567 -0.839155 0
M  V30 2738 H 252.581 -4.79212 -1.12325 0
M  V30 2739 N 254.233 0.115231 -1.57178 0
M  V30 2740 C 255.166 1.17166 -1.95825 0
M  V30 2741 C 256.144 1.39912 -0.828463 0
M  V30 2742 O 257.328 1.54004 -1.08697 0
M  V30 2743 C 254.455 2.52478 -2.25771 0
M  V30 2744 C 253.501 2.46136 -3.48309 0
M  V30 2745 S 254.334 1.89736 -5.0076 0
M  V30 2746 C 255.49 3.26713 -5.33863 0
M  V30 2747 H 255.723 0.842103 -2.85124 0
M  V30 2748 H 253.256 0.322136 -1.51002 0
M  V30 2749 H 255.214 3.30332 -2.43702 0
M  V30 2750 H 253.875 2.82609 -1.37079 0
M  V30 2751 H 253.068 3.45819 -3.66641 0
M  V30 2752 H 252.67 1.76404 -3.29784 0
M  V30 2753 H 254.962 4.22935 -5.29275 0
M  V30 2754 H 255.905 3.13205 -6.35065 0
M  V30 2755 H 256.313 3.25316 -4.61335 0
M  V30 2756 N 255.711 1.52812 0.385517 0
M  V30 2757 C 257.127 1.4214 0.725829 0
M  V30 2758 C 257.327 0.544589 1.94001 0
M  V30 2759 O 256.383 0.0193693 2.52493 0
M  V30 2760 C 257.696 2.85042 0.957668 0
M  V30 2761 C 259.244 2.94543 1.05892 0
M  V30 2762 C 259.719 4.38464 1.32337 0
M  V30 2763 N 261.21 4.41804 1.39151 0
M  V30 2764 C 261.945 5.5025 1.61285 0
M  V30 2765 N 261.441 6.68775 1.80866 0
M  V30 2766 N 263.234 5.37798 1.63492 0
M  V30 2767 H 255.385 2.08338 -0.413383 0
M  V30 2768 H 257.648 0.940016 -0.122775 0
M  V30 2769 H 257.354 3.51431 0.137568 0
M  V30 2770 H 257.228 3.27505 1.87137 0
M  V30 2771 H 259.615 2.28321 1.86959 0
M  V30 2772 H 259.696 2.55504 0.123057 0
M  V30 2773 H 259.34 5.05254 0.517793 0
M  V30 2774 H 259.27 4.75059 2.27214 0
M  V30 2775 H 261.761 3.56377 1.25713 0
M  V30 2776 H 262.074 7.47197 1.97271 0
M  V30 2777 H 260.419 6.71797 1.78083 0
M  V30 2778 H 263.61 4.44171 1.47749 0
M  V30 2779 H 263.783 6.22382 1.80402 0
M  V30 2780 N 257.189 -0.644168 1.43834 0
M  V30 2781 C 258.119 -1.76814 1.52509 0
M  V30 2782 C 259.1 -1.65823 0.379052 0
M  V30 2783 O 260.285 -1.84781 0.597466 0
M  V30 2784 C 257.415 -3.15288 1.4564 0
M  V30 2785 C 256.369 -3.41053 2.58586 0
M  V30 2786 C 255.695 -4.79421 2.36769 0
M  V30 2787 C 256.995 -3.34902 4.00797 0
M  V30 2788 H 258.689 -1.69812 2.46586 0
M  V30 2789 H 256.235 -0.815542 1.1868 0
M  V30 2790 H 258.188 -3.93681 1.50311 0
M  V30 2791 H 256.912 -3.23043 0.480725 0
M  V30 2792 H 255.571 -2.65035 2.53282 0
M  V30 2793 H 255.219 -4.83863 1.37424 0
M  V30 2794 H 254.919 -4.9762 3.12487 0
M  V30 2795 H 256.443 -5.6006 2.43238 0
M  V30 2796 H 257.857 -4.03218 4.07539 0
M  V30 2797 H 256.254 -3.64637 4.76613 0
M  V30 2798 H 257.324 -2.32928 4.25291 0
M  V30 2799 N 258.668 -1.30515 -0.883378 0
M  V30 2800 C 259.915 -1.1943 -1.63532 0
M  V30 2801 C 260.243 0.250627 -1.92878 0
M  V30 2802 O 259.498 1.19556 -1.54935 0
M  V30 2803 C 259.797 -1.96994 -2.98209 0
M  V30 2804 C 259.463 -3.466 -2.88408 0
M  V30 2805 C 258.125 -3.87397 -2.85442 0
M  V30 2806 C 260.477 -4.41863 -2.76418 0
M  V30 2807 C 257.805 -5.21745 -2.68327 0
M  V30 2808 C 260.157 -5.7632 -2.60841 0
M  V30 2809 C 258.821 -6.16354 -2.56251 0
M  V30 2810 H 258.091 -0.437025 -0.598406 0
M  V30 2811 H 260.738 -1.61635 -1.02696 0
M  V30 2812 H 259.043 -1.47429 -3.63004 0
M  V30 2813 H 260.74 -1.85808 -3.55354 0
M  V30 2814 H 257.33 -3.14182 -2.91527 0
M  V30 2815 H 261.514 -4.11285 -2.77775 0
M  V30 2816 H 256.77 -5.51853 -2.63189 0
M  V30 2817 H 260.944 -6.49772 -2.50538 0
M  V30 2818 H 258.571 -7.20401 -2.42748 0
M  V30 2819 N 260.146 1.09593 -1.13257 0
M  V30 2820 C 261.093 2.1618 -0.808381 0
M  V30 2821 C 262.063 1.64517 0.228754 0
M  V30 2822 O 263.248 1.9053 0.101381 0
M  V30 2823 C 260.388 3.43973 -0.278675 0
M  V30 2824 C 259.501 4.09545 -1.37466 0
M  V30 2825 C 258.636 5.25088 -0.803479 0
M  V30 2826 C 257.675 5.82579 -1.87799 0
M  V30 2827 N 256.812 6.89486 -1.32488 0
M  V30 2828 H 261.652 2.43254 -1.72138 0
M  V30 2829 H 259.189 1.19392 -0.859294 0
M  V30 2830 H 261.147 4.17174 0.0465583 0
M  V30 2831 H 259.777 3.17223 0.597459 0
M  V30 2832 H 258.829 3.34226 -1.81652 0
M  V30 2833 H 260.141 4.48307 -2.18684 0
M  V30 2834 H 259.295 6.05178 -0.429427 0
M  V30 2835 H 258.034 4.87684 0.0397956 0
M  V30 2836 H 257.039 5.01152 -2.26113 0
M  V30 2837 H 258.264 6.22045 -2.72463 0
M  V30 2838 H 256.21 6.54064 -0.503575 0
M  V30 2839 H 256.127 7.27007 -2.07355 0
M  V30 2840 H 257.395 7.73336 -0.978336 0
M  V30 2841 N 261.624 0.925811 1.2754 0
M  V30 2842 C 262.849 0.580924 1.99098 0
M  V30 2843 C 263.274 -0.833555 1.68622 0
M  V30 2844 O 262.632 -1.55903 0.925422 0
M  V30 2845 C 262.68 0.811186 3.51358 0
M  V30 2846 O 261.784 -0.124129 4.12213 0
M  V30 2847 H 261.125 0.223873 0.625122 0
M  V30 2848 H 263.655 1.24455 1.62395 0
M  V30 2849 H 263.665 0.72601 4.01489 0
M  V30 2850 H 262.34 1.84227 3.72872 0
M  V30 2851 H 260.917 0.0108006 3.72898 0
M  V30 2852 N 263.102 -1.41638 0.69111 0
M  V30 2853 C 264.513 -1.84346 0.295517 0
M  V30 2854 C 264.864 -1.57833 -1.16547 0
M  V30 2855 O 263.989 -1.04648 -1.89414 0
M  V30 2856 C 264.584 -3.34636 0.529575 0
M  V30 2857 C 263.143 -3.7593 0.187944 0
M  V30 2858 C 262.29 -2.65082 0.814052 0
M  V30 2859 H 265.241 -1.31253 0.892092 0
M  V30 2860 H 265.262 -3.79903 -0.213148 0
M  V30 2861 H 264.774 -3.53901 1.59297 0
M  V30 2862 H 262.875 -3.62268 -0.871367 0
M  V30 2863 H 262.988 -4.74808 0.63985 0
M  V30 2864 H 261.352 -2.53528 0.244017 0
M  V30 2865 H 262.135 -2.87167 1.88123 0
M  V30 2866 N 264.58 -0.43555 -1.51462 0
M  V30 2867 C 265.49 0.383001 -2.31453 0
M  V30 2868 C 266.506 1.02931 -1.4029 0
M  V30 2869 O 267.682 1.02507 -1.73362 0
M  V30 2870 C 264.747 1.47043 -3.13973 0
M  V30 2871 C 263.808 0.844433 -4.20913 0
M  V30 2872 C 263.041 1.88004 -4.9949 0
M  V30 2873 O 263.264 3.10199 -4.78678 0
M  V30 2874 O 262.198 1.47157 -5.83634 0
M  V30 2875 H 266.024 -0.269964 -3.02498 0
M  V30 2876 H 263.609 -0.19813 -1.4808 0
M  V30 2877 H 265.491 2.10113 -3.65281 0
M  V30 2878 H 264.166 2.10751 -2.45695 0
M  V30 2879 H 263.073 0.175729 -3.73687 0
M  V30 2880 H 264.406 0.250869 -4.9156 0
M  V30 2881 N 266.058 1.56714 -0.166846 0
M  V30 2882 C 266.968 2.21331 0.777791 0
M  V30 2883 C 267.984 1.20358 1.25658 0
M  V30 2884 O 269.16 1.53005 1.30964 0
M  V30 2885 C 266.225 2.83787 1.99163 0
M  V30 2886 C 265.286 3.99947 1.56016 0
M  V30 2887 C 264.519 4.59415 2.71613 0
M  V30 2888 O 264.742 4.17769 3.88362 0
M  V30 2889 O 263.676 5.49359 2.45945 0
M  V30 2890 H 267.502 3.02605 0.257636 0
M  V30 2891 H 265.087 1.49275 0.0611393 0
M  V30 2892 H 266.969 3.23405 2.70161 0
M  V30 2893 H 265.644 2.05513 2.50092 0
M  V30 2894 H 264.551 3.65007 0.819809 0
M  V30 2895 H 265.884 4.79801 1.09782 0
M  V30 2896 N 267.536 -0.106894 1.57237 0
M  V30 2897 C 268.785 -0.811163 1.8467 0
M  V30 2898 C 269.098 -1.80469 0.754342 0
M  V30 2899 O 270.304 -2.55601 0.915439 0
M  V30 2900 C 268.76 -1.49337 3.27454 0
M  V30 2901 C 268.368 -0.540217 4.44731 0
M  V30 2902 C 270.112 -2.18206 3.64124 0
M  V30 2903 C 268.019 -1.22634 5.78545 0
M  V30 2904 H 266.949 -0.306679 0.688813 0
M  V30 2905 H 269.6 -0.0639887 1.83388 0
M  V30 2906 H 267.982 -2.2876 3.23241 0
M  V30 2907 H 269.156 0.221659 4.60267 0
M  V30 2908 H 267.471 0.042146 4.16379 0
M  V30 2909 H 270.068 -2.70253 4.61376 0
M  V30 2910 H 270.411 -2.96562 2.92158 0
M  V30 2911 H 270.944 -1.45658 3.70174 0
M  V30 2912 H 267.683 -0.483832 6.53712 0
M  V30 2913 H 267.203 -1.95993 5.66874 0
M  V30 2914 H 268.882 -1.75615 6.2271 0
M  V30 2915 N 269.014 -1.53014 -0.377408 0
M  V30 2916 C 269.977 -1.77957 -1.44444 0
M  V30 2917 C 270.977 -0.649763 -1.47087 0
M  V30 2918 O 272.167 -0.917897 -1.48055 0
M  V30 2919 C 269.299 -1.89089 -2.83651 0
M  V30 2920 H 270.492 -2.73243 -1.23606 0
M  V30 2921 H 268.045 -1.43912 -0.609844 0
M  V30 2922 H 268.78 -0.958293 -3.09818 0
M  V30 2923 H 268.565 -2.71254 -2.83132 0
M  V30 2924 H 270.055 -2.1002 -3.60945 0
M  V30 2925 N 270.492 0.636531 -1.44174 0
M  V30 2926 C 271.738 1.39826 -1.4689 0
M  V30 2927 C 272.071 1.93947 -0.0990585 0
M  V30 2928 O 271.346 1.73325 0.882544 0
M  V30 2929 C 271.629 2.56751 -2.5249 0
M  V30 2930 C 271.482 2.08014 -3.98811 0
M  V30 2931 C 272.801 3.58946 -2.54649 0
M  V30 2932 H 269.92 0.507075 -0.53483 0
M  V30 2933 H 272.562 0.720188 -1.75822 0
M  V30 2934 H 270.712 3.14597 -2.2795 0
M  V30 2935 H 272.384 1.5504 -4.34466 0
M  V30 2936 H 270.627 1.39242 -4.10846 0
M  V30 2937 H 271.298 2.92169 -4.68339 0
M  V30 2938 H 273.774 3.1089 -2.76563 0
M  V30 2939 H 272.65 4.38286 -3.3045 0
M  V30 2940 H 272.911 4.12655 -1.58646 0
M  V30 2941 N 271.97 1.30982 0.876444 0
M  V30 2942 C 272.9 1.20668 1.99903 0
M  V30 2943 C 273.881 0.095354 1.69833 0
M  V30 2944 O 275.066 0.27885 1.92188 0
M  V30 2945 C 272.196 0.90655 3.3526 0
M  V30 2946 C 271.15 1.97675 3.79617 0
M  V30 2947 C 270.476 1.52943 5.1236 0
M  V30 2948 C 271.776 3.389 3.97422 0
M  V30 2949 H 273.47 2.14586 2.0879 0
M  V30 2950 H 271.016 1.03308 1.00317 0
M  V30 2951 H 272.969 0.821025 4.13324 0
M  V30 2952 H 271.693 -0.0682969 3.26529 0
M  V30 2953 H 270.352 2.05205 3.03787 0
M  V30 2954 H 270 0.54262 5.00065 0
M  V30 2955 H 269.7 2.24532 5.43009 0
M  V30 2956 H 271.224 1.45786 5.92941 0
M  V30 2957 H 272.638 3.34081 4.659 0
M  V30 2958 H 271.035 4.0865 4.3946 0
M  V30 2959 H 272.105 3.80163 3.01006 0
M  V30 2960 N 273.449 -1.08991 1.13837 0
M  V30 2961 C 274.865 -1.33312 0.877506 0
M  V30 2962 C 275.065 -1.95587 -0.48456 0
M  V30 2963 O 274.121 -2.20509 -1.23013 0
M  V30 2964 C 275.434 -2.24045 2.0056 0
M  V30 2965 C 276.982 -2.37542 2.03821 0
M  V30 2966 C 277.457 -3.31614 3.15905 0
M  V30 2967 N 278.948 -3.39189 3.15445 0
M  V30 2968 C 279.683 -4.11992 3.98811 0
M  V30 2969 N 279.179 -4.87553 4.92203 0
M  V30 2970 N 280.972 -4.07762 3.86894 0
M  V30 2971 H 273.123 -0.669456 2.01574 0
M  V30 2972 H 275.386 -0.357482 0.878015 0
M  V30 2973 H 275.092 -1.85521 2.98789 0
M  V30 2974 H 274.966 -3.24466 1.92359 0
M  V30 2975 H 277.353 -2.75327 1.06202 0
M  V30 2976 H 277.434 -1.36884 2.16093 0
M  V30 2977 H 277.078 -2.94551 4.13766 0
M  V30 2978 H 277.008 -4.32186 3.0087 0
M  V30 2979 H 279.499 -2.85314 2.47799 0
M  V30 2980 H 279.812 -5.40549 5.52292 0
M  V30 2981 H 278.157 -4.86627 4.96205 0
M  V30 2982 H 281.348 -3.47833 3.13257 0
M  V30 2983 H 281.521 -4.64238 4.52092 0
M  V30 2984 N 274.927 -0.932562 -1.27047 0
M  V30 2985 C 276.343 -0.633544 -1.46487 0
M  V30 2986 C 276.543 0.815746 -1.84249 0
M  V30 2987 O 275.599 1.59319 -1.95892 0
M  V30 2988 C 276.912 -1.58758 -2.55375 0
M  V30 2989 C 278.46 -1.59634 -2.69232 0
M  V30 2990 C 278.935 -2.53747 -3.81283 0
M  V30 2991 N 280.426 -2.51982 -3.88664 0
M  V30 2992 C 281.161 -3.21491 -4.74796 0
M  V30 2993 N 280.657 -4.00395 -5.65381 0
M  V30 2994 N 282.45 -3.10485 -4.68568 0
M  V30 2995 H 274.601 -1.86946 -1.00821 0
M  V30 2996 H 276.864 -0.802897 -0.504044 0
M  V30 2997 H 276.57 -2.62172 -2.34432 0
M  V30 2998 H 276.444 -1.33301 -3.52861 0
M  V30 2999 H 278.831 -0.569488 -2.89553 0
M  V30 3000 H 278.912 -1.89142 -1.72218 0
M  V30 3001 H 278.556 -3.56545 -3.61715 0
M  V30 3002 H 278.486 -2.21532 -4.77735 0
M  V30 3003 H 280.977 -1.94681 -3.23895 0
M  V30 3004 H 281.29 -4.50406 -6.27976 0
M  V30 3005 H 279.635 -4.04498 -5.65161 0
M  V30 3006 H 282.826 -2.48331 -3.96799 0
M  V30 3007 H 282.999 -3.64925 -5.35475 0
M  V30 3008 N 276.405 1.4127 -0.698611 0
M  V30 3009 C 277.368 2.29158 -0.044132 0
M  V30 3010 C 278.368 1.44529 0.704841 0
M  V30 3011 O 279.558 1.65643 0.539276 0
M  V30 3012 C 276.69 3.27459 0.947809 0
M  V30 3013 H 277.883 2.88529 -0.817994 0
M  V30 3014 H 275.436 1.49307 -0.46228 0
M  V30 3015 H 276.171 2.73073 1.74933 0
M  V30 3016 H 275.956 3.8991 0.41385 0
M  V30 3017 H 277.446 3.93311 1.40344 0
M  V30 3018 N 277.883 0.443576 1.51229 0
M  V30 3019 C 279.131 -0.120557 2.0174 0
M  V30 3020 C 279.452 -1.42665 1.32935 0
M  V30 3021 O 278.722 -1.9028 0.465866 0
M  V30 3022 H 277.302 -0.0475426 0.745486 0
M  V30 3023 H 279.964 0.587711 1.85828 0
M  V30 3024 H 279.06 -0.291972 3.10731 0
M  V30 3025 N 279.361 -1.56624 0.175154 0
M  V30 3026 C 280.271 -2.21741 -0.766042 0
M  V30 3027 C 281.287 -1.21023 -1.25018 0
M  V30 3028 O 282.463 -1.53697 -1.3015 0
M  V30 3029 C 279.528 -2.84839 -1.97655 0
M  V30 3030 C 278.589 -4.00769 -1.53892 0
M  V30 3031 C 277.822 -4.60849 -2.69173 0
M  V30 3032 O 278.045 -4.19823 -3.86141 0
M  V30 3033 O 276.979 -5.50655 -2.43028 0
M  V30 3034 H 280.805 -3.02738 -0.241585 0
M  V30 3035 H 278.39 -1.49305 -0.053222 0
M  V30 3036 H 280.272 -3.24834 -2.68442 0
M  V30 3037 H 278.947 -2.06836 -2.48999 0
M  V30 3038 H 277.854 -3.65436 -0.80044 0
M  V30 3039 H 279.187 -4.80376 -1.07236 0
M  V30 3040 N 280.839 0.0985539 -1.57292 0
M  V30 3041 C 282.088 0.801358 -1.85098 0
M  V30 3042 C 282.401 1.80066 -0.763902 0
M  V30 3043 O 283.607 2.55112 -0.928981 0
M  V30 3044 C 282.063 1.47599 -3.28242 0
M  V30 3045 C 281.671 0.516624 -4.45011 0
M  V30 3046 C 283.415 2.16272 -3.65276 0
M  V30 3047 C 281.322 1.19564 -5.79188 0
M  V30 3048 H 280.252 0.303022 -0.69043 0
M  V30 3049 H 282.903 0.0542623 -1.8342 0
M  V30 3050 H 281.285 2.27042 -3.2445 0
M  V30 3051 H 282.459 -0.246065 -4.60143 0
M  V30 3052 H 280.774 -0.064227 -4.1635 0
M  V30 3053 H 283.371 2.67802 -4.62803 0
M  V30 3054 H 283.714 2.95009 -2.93727 0
M  V30 3055 H 284.247 1.43693 -3.70941 0
M  V30 3056 H 280.986 0.449157 -6.53959 0
M  V30 3057 H 280.506 1.92984 -5.67906 0
M  V30 3058 H 282.185 1.7231 -6.23633 0
M  V30 3059 N 282.317 1.53212 0.369288 0
M  V30 3060 C 283.545 1.73119 1.13303 0
M  V30 3061 C 283.96 0.458455 1.83149 0
M  V30 3062 O 283.317 -0.568403 1.73423 0
M  V30 3063 C 283.368 2.89413 2.16616 0
M  V30 3064 O 283.089 4.11761 1.49614 0
M  V30 3065 C 284.59 3.21161 3.05566 0
M  V30 3066 H 281.81 0.579107 0.338934 0
M  V30 3067 H 284.354 1.99942 0.429338 0
M  V30 3068 H 282.509 2.64994 2.82589 0
M  V30 3069 H 282.923 4.76858 2.18419 0
M  V30 3070 H 284.397 4.05949 3.74045 0
M  V30 3071 H 284.874 2.36369 3.70171 0
M  V30 3072 H 285.48 3.47492 2.45213 0
M  V30 3073 N 283.795 -0.628877 1.44509 0
M  V30 3074 C 284.758 -1.72263 1.51188 0
M  V30 3075 C 285.758 -1.55907 0.39367 0
M  V30 3076 O 286.948 -1.61361 0.656377 0
M  V30 3077 C 284.08 -3.11365 1.38798 0
M  V30 3078 H 285.273 -1.67714 2.4862 0
M  V30 3079 H 282.826 -0.842737 1.31634 0
M  V30 3080 H 283.561 -3.21507 0.424693 0
M  V30 3081 H 283.346 -3.24644 2.19884 0
M  V30 3082 H 284.836 -3.91075 1.46458 0
M  V30 3083 N 285.273 -1.31445 -0.869486 0
M  V30 3084 C 286.206 -1.13465 -1.97992 0
M  V30 3085 C 287.184 -0.0380291 -1.62556 0
M  V30 3086 O 288.368 -0.194544 -1.87493 0
M  V30 3087 C 285.495 -0.733822 -3.30655 0
M  V30 3088 C 284.541 -1.83356 -3.85075 0
M  V30 3089 S 285.374 -3.43909 -4.10472 0
M  V30 3090 C 286.53 -3.05763 -5.46132 0
M  V30 3091 H 286.763 -2.07471 -2.1294 0
M  V30 3092 H 284.296 -1.15936 -1.01972 0
M  V30 3093 H 286.254 -0.509306 -4.07328 0
M  V30 3094 H 284.915 0.187123 -3.13542 0
M  V30 3095 H 284.108 -1.50574 -4.80982 0
M  V30 3096 H 283.71 -2.01315 -3.15195 0
M  V30 3097 H 286.002 -2.54686 -6.27807 0
M  V30 3098 H 286.945 -4.00635 -5.83864 0
M  V30 3099 H 287.353 -2.43192 -5.09429 0
M  V30 3100 N 286.751 1.08385 -1.14413 0
M  V30 3101 C 287.714 2.13486 -0.834048 0
M  V30 3102 C 288.714 1.59988 0.161418 0
M  V30 3103 O 289.904 1.74071 -0.0669575 0
M  V30 3104 C 287.036 3.4003 -0.243354 0
M  V30 3105 H 288.229 2.42425 -1.7655 0
M  V30 3106 H 285.782 1.24101 -0.950189 0
M  V30 3107 H 286.517 3.16726 0.696807 0
M  V30 3108 H 286.302 3.80157 -0.960367 0
M  V30 3109 H 287.792 4.17577 -0.0436242 0
M  V30 3110 N 288.23 0.939286 1.26551 0
M  V30 3111 C 289.18 0.418284 2.2413 0
M  V30 3112 C 290.164 -0.483935 1.5345 0
M  V30 3113 O 291.356 -0.319489 1.74093 0
M  V30 3114 C 288.485 -0.31709 3.41832 0
M  V30 3115 C 287.571 0.602311 4.19801 0
M  V30 3116 N 287.962 1.72726 4.75394 0
M  V30 3117 C 286.26 0.407534 4.44134 0
M  V30 3118 C 286.961 2.30004 5.34297 0
M  V30 3119 N 285.937 1.58828 5.1988 0
M  V30 3120 H 289.739 1.27705 2.64705 0
M  V30 3121 H 287.253 0.794929 1.41614 0
M  V30 3122 H 289.25 -0.707364 4.10855 0
M  V30 3123 H 287.91 -1.17264 3.02786 0
M  V30 3124 H 288.921 2.10944 4.72994 0
M  V30 3125 H 285.598 -0.406406 4.15517 0
M  V30 3126 H 286.988 3.24778 5.88191 0
M  V30 3127 N 289.708 -1.40897 0.706093 0
M  V30 3128 C 290.936 -2.05373 0.250887 0
M  V30 3129 C 291.351 -1.53172 -1.10381 0
M  V30 3130 O 290.708 -0.684305 -1.69185 0
M  V30 3131 C 290.759 -3.6088 0.211571 0
M  V30 3132 O 290.48 -4.11153 1.51276 0
M  V30 3133 C 291.981 -4.42517 -0.263346 0
M  V30 3134 H 289.201 -0.66115 0.114552 0
M  V30 3135 H 291.745 -1.80479 0.961635 0
M  V30 3136 H 289.9 -3.84777 -0.450073 0
M  V30 3137 H 290.314 -5.05279 1.40689 0
M  V30 3138 H 291.788 -5.51479 -0.239718 0
M  V30 3139 H 292.265 -4.19396 -1.30397 0
M  V30 3140 H 292.871 -4.23708 0.367677 0
M  V30 3141 N 291.186 -0.45159 -1.50991 0
M  V30 3142 C 292.602 -0.104647 -1.59257 0
M  V30 3143 C 292.802 1.38728 -1.4614 0
M  V30 3144 O 291.858 2.15866 -1.30989 0
M  V30 3145 C 293.171 -0.637468 -2.93865 0
M  V30 3146 C 294.719 -0.599166 -3.07212 0
M  V30 3147 C 295.194 -1.1092 -4.44366 0
M  V30 3148 N 296.685 -1.06778 -4.50725 0
M  V30 3149 C 297.42 -1.43314 -5.55201 0
M  V30 3150 N 296.916 -1.87204 -6.67028 0
M  V30 3151 N 298.709 -1.3504 -5.45638 0
M  V30 3152 H 290.86 -1.42214 -1.57762 0
M  V30 3153 H 293.123 -0.586921 -0.744465 0
M  V30 3154 H 292.829 -1.68187 -3.08879 0
M  V30 3155 H 292.703 -0.0702139 -3.77135 0
M  V30 3156 H 295.09 0.436277 -2.91857 0
M  V30 3157 H 295.171 -1.20299 -2.25747 0
M  V30 3158 H 294.815 -2.14318 -4.60467 0
M  V30 3159 H 294.745 -0.481773 -5.24392 0
M  V30 3160 H 297.236 -0.745643 -3.70471 0
M  V30 3161 H 297.549 -2.13282 -7.42786 0
M  V30 3162 H 295.894 -1.91142 -6.68199 0
M  V30 3163 H 299.085 -1.00607 -4.57161 0
M  V30 3164 H 299.258 -1.63841 -6.26945 0
M  V30 3165 N 292.664 1.56529 -0.183458 0
M  V30 3166 C 293.627 2.17324 0.728223 0
M  V30 3167 C 294.627 1.12453 1.14939 0
M  V30 3168 O 295.817 1.37902 1.06437 0
M  V30 3169 C 292.949 2.76591 1.99274 0
M  V30 3170 H 294.142 2.99241 0.198772 0
M  V30 3171 H 291.695 1.5616 0.0661391 0
M  V30 3172 H 292.43 1.98441 2.56499 0
M  V30 3173 H 292.215 3.5335 1.69959 0
M  V30 3174 H 293.705 3.23311 2.6431 0
M  V30 3175 N 294.142 -0.090211 1.57342 0
M  V30 3176 C 295.075 -1.14035 1.97664 0
M  V30 3177 C 296.053 -1.38576 0.850616 0
M  V30 3178 O 297.237 -1.52255 1.11134 0
M  V30 3179 C 294.364 -2.48854 2.2976 0
M  V30 3180 C 293.41 -2.40564 3.52181 0
M  V30 3181 S 294.243 -1.81745 5.03715 0
M  V30 3182 C 295.399 -3.18178 5.38993 0
M  V30 3183 H 295.632 -0.796636 2.86428 0
M  V30 3184 H 293.165 -0.298072 1.51496 0
M  V30 3185 H 295.123 -3.26413 2.48927 0
M  V30 3186 H 293.784 -2.80393 1.41558 0
M  V30 3187 H 292.977 -3.39942 3.72096 0
M  V30 3188 H 292.579 -1.71135 3.32549 0
M  V30 3189 H 294.871 -4.14461 5.35937 0
M  V30 3190 H 295.814 -3.03062 6.39968 0
M  V30 3191 H 296.222 -3.17935 4.66452 0
M  V30 3192 N 295.62 -1.53406 -0.361157 0
M  V30 3193 C 296.53 -1.83122 -1.4664 0
M  V30 3194 C 297.546 -0.719943 -1.58407 0
M  V30 3195 O 298.722 -1.01046 -1.74218 0
M  V30 3196 C 295.787 -2.01891 -2.81853 0
M  V30 3197 C 294.848 -3.25784 -2.79577 0
M  V30 3198 C 294.081 -3.43648 -4.0834 0
M  V30 3199 O 294.304 -2.65714 -5.0473 0
M  V30 3200 O 293.238 -4.37018 -4.13883 0
M  V30 3201 H 297.064 -2.7703 -1.24451 0
M  V30 3202 H 294.649 -1.38841 -0.551678 0
M  V30 3203 H 296.531 -2.15782 -3.61962 0
M  V30 3204 H 295.206 -1.11173 -3.0401 0
M  V30 3205 H 294.113 -3.17312 -1.98151 0
M  V30 3206 H 295.446 -4.16439 -2.62373 0
M  V30 3207 N 297.098 0.621204 -1.44841 0
M  V30 3208 C 298.045 1.73267 -1.5247 0
M  V30 3209 C 299.015 1.6189 -0.371611 0
M  V30 3210 O 300.2 1.81668 -0.58321 0
M  V30 3211 C 297.34 3.11545 -1.48438 0
M  V30 3212 C 296.453 3.33827 -2.74196 0
M  V30 3213 C 295.588 4.62133 -2.61929 0
M  V30 3214 C 294.627 4.77627 -3.82804 0
M  V30 3215 N 293.764 5.97219 -3.69153 0
M  V30 3216 H 298.604 1.66082 -2.47428 0
M  V30 3217 H 296.141 0.810026 -1.22788 0
M  V30 3218 H 298.099 3.91528 -1.4409 0
M  V30 3219 H 296.729 3.1772 -0.570402 0
M  V30 3220 H 295.781 2.47715 -2.88689 0
M  V30 3221 H 297.093 3.41153 -3.6389 0
M  V30 3222 H 296.247 5.50291 -2.5547 0
M  V30 3223 H 294.986 4.57182 -1.69811 0
M  V30 3224 H 293.991 3.87896 -3.89637 0
M  V30 3225 H 295.216 4.84385 -4.75971 0
M  V30 3226 H 293.162 5.93339 -2.79794 0
M  V30 3227 H 293.079 6.05644 -4.52472 0
M  V30 3228 H 294.347 6.87912 -3.66603 0
M  V30 3229 N 298.576 1.31904 0.862503 0
M  V30 3230 C 299.816 1.23324 1.63004 0
M  V30 3231 C 300.18 -0.203724 1.90916 0
M  V30 3232 O 301.381 -0.413132 2.65606 0
M  V30 3233 C 299.652 2.06116 2.91978 0
M  V30 3234 S 301.211 2.14478 3.82812 0
M  V30 3235 H 298.029 0.439117 0.559193 0
M  V30 3236 H 300.631 1.66658 1.02202 0
M  V30 3237 H 299.335 3.09593 2.69407 0
M  V30 3238 H 298.866 1.6353 3.57801 0
M  V30 3239 H 300.881 1.28855 4.79177 0
M  V30 3240 N 300.054 -1.07777 1.14986 0
M  V30 3241 C 301.47 -1.32373 0.891596 0
M  V30 3242 C 301.67 -1.9609 -0.463788 0
M  V30 3243 O 300.726 -2.21801 -1.20667 0
M  V30 3244 C 302.039 -2.21905 2.02925 0
M  V30 3245 C 303.587 -2.35367 2.06329 0
M  V30 3246 C 304.062 -3.28245 3.19405 0
M  V30 3247 N 305.553 -3.35824 3.19024 0
M  V30 3248 C 306.288 -4.07739 4.03158 0
M  V30 3249 N 305.784 -4.82306 4.97346 0
M  V30 3250 N 307.577 -4.03635 3.91197 0
M  V30 3251 H 299.728 -0.648039 2.02273 0
M  V30 3252 H 301.991 -0.348149 0.881757 0
M  V30 3253 H 301.697 -1.82342 3.0074 0
M  V30 3254 H 301.571 -3.22407 1.95789 0
M  V30 3255 H 303.958 -2.74186 1.09116 0
M  V30 3256 H 304.039 -1.34585 2.17533 0
M  V30 3257 H 303.683 -2.90146 4.16867 0
M  V30 3258 H 303.613 -4.28971 3.05437 0
M  V30 3259 H 306.104 -2.8267 2.50811 0
M  V30 3260 H 306.417 -5.34661 5.57994 0
M  V30 3261 H 304.762 -4.81337 5.01338 0
M  V30 3262 H 307.953 -3.44491 3.16928 0
M  V30 3263 H 308.126 -4.59417 4.5699 0
M  V30 3264 N 301.532 -0.945985 -1.26051 0
M  V30 3265 C 302.943 -0.638096 -1.75457 0
M  V30 3266 C 303.294 0.846672 -1.76991 0
M  V30 3267 O 302.419 1.66262 -1.38513 0
M  V30 3268 C 303.014 -1.15157 -3.18629 0
M  V30 3269 C 301.573 -0.894004 -3.65629 0
M  V30 3270 C 300.72 -1.29967 -2.44957 0
M  V30 3271 H 303.671 -1.12376 -1.1206 0
M  V30 3272 H 303.692 -0.507615 -3.77099 0
M  V30 3273 H 303.204 -2.23222 -3.1748 0
M  V30 3274 H 301.305 0.172057 -3.72203 0
M  V30 3275 H 301.418 -1.52439 -4.54202 0
M  V30 3276 H 299.782 -0.718078 -2.44368 0
M  V30 3277 H 300.565 -2.38935 -2.46505 0
M  V30 3278 N 303.011 1.40521 -0.713556 0
M  V30 3279 C 304.259 2.00527 -0.251692 0
M  V30 3280 C 304.58 1.56857 1.15848 0
M  V30 3281 O 303.85 0.807127 1.785 0
M  V30 3282 H 302.43 0.741551 -0.0900646 0
M  V30 3283 H 305.092 1.71887 -0.918733 0
M  V30 3284 H 304.188 3.10813 -0.283192 0
M  V30 3285 N 304.489 0.459591 1.5075 0
M  V30 3286 C 305.422 -0.386257 2.24907 0
M  V30 3287 C 306.4 -1.006 1.27744 0
M  V30 3288 O 307.584 -1.04416 1.56938 0
M  V30 3289 C 304.711 -1.54021 3.01654 0
M  V30 3290 C 303.757 -1.03898 4.13651 0
M  V30 3291 S 304.59 0.0370501 5.35487 0
M  V30 3292 C 305.746 -1.12105 6.15779 0
M  V30 3293 H 305.979 0.243272 2.96303 0
M  V30 3294 H 303.512 0.244339 1.52454 0
M  V30 3295 H 305.47 -2.20163 3.46466 0
M  V30 3296 H 304.131 -2.14121 2.29806 0
M  V30 3297 H 303.324 -1.90254 4.66711 0
M  V30 3298 H 302.926 -0.45545 3.71216 0
M  V30 3299 H 305.218 -2.03501 6.46215 0
M  V30 3300 H 306.161 -0.62995 7.05292 0
M  V30 3301 H 306.569 -1.36967 5.47631 0
M  V30 3302 N 305.967 -1.56429 0.191757 0
M  V30 3303 C 307.214 -1.97485 -0.447891 0
M  V30 3304 C 307.542 -1.07852 -1.61859 0
M  V30 3305 O 306.797 -0.116903 -1.95351 0
M  V30 3306 C 307.096 -3.44449 -0.953384 0
M  V30 3307 C 306.762 -4.50781 0.103586 0
M  V30 3308 C 305.424 -4.79584 0.394023 0
M  V30 3309 C 307.776 -5.1471 0.819946 0
M  V30 3310 C 305.104 -5.69607 1.40585 0
M  V30 3311 C 307.456 -6.05827 1.8209 0
M  V30 3312 C 306.12 -6.32987 2.11857 0
M  V30 3313 H 305.39 -0.722648 -0.163895 0
M  V30 3314 H 308.037 -1.89322 0.28802 0
M  V30 3315 H 306.342 -3.49666 -1.76751 0
M  V30 3316 H 308.039 -3.73569 -1.45765 0
M  V30 3317 H 304.629 -4.28394 -0.132951 0
M  V30 3318 H 308.813 -4.92552 0.608789 0
M  V30 3319 H 304.069 -5.88926 1.64243 0
M  V30 3320 H 308.243 -6.54424 2.38123 0
M  V30 3321 H 305.87 -7.02544 2.90407 0
M  V30 3322 N 307.445 0.0818655 -1.57387 0
M  V30 3323 C 308.355 1.11642 -2.06333 0
M  V30 3324 C 309.371 1.43033 -0.99083 0
M  V30 3325 O 310.547 1.53411 -1.30488 0
M  V30 3326 C 307.612 2.41342 -2.48907 0
M  V30 3327 C 306.673 2.17014 -3.7041 0
M  V30 3328 C 305.906 3.4053 -4.10944 0
M  V30 3329 O 306.129 4.4927 -3.51444 0
M  V30 3330 O 305.063 3.29336 -5.03807 0
M  V30 3331 H 308.889 0.730657 -2.9478 0
M  V30 3332 H 306.474 0.295301 -1.46452 0
M  V30 3333 H 308.356 3.17691 -2.76858 0
M  V30 3334 H 307.031 2.79319 -1.63593 0
M  V30 3335 H 305.938 1.38403 -3.47556 0
M  V30 3336 H 307.271 1.83923 -4.56545 0
M  V30 3337 N 308.923 1.53595 0.353017 0
M  V30 3338 C 310.153 1.74058 1.11299 0
M  V30 3339 C 310.561 0.475205 1.83135 0
M  V30 3340 O 309.904 -0.562344 1.74881 0
M  V30 3341 C 309.966 2.85994 2.17825 0
M  V30 3342 C 309.63 4.25923 1.65647 0
M  V30 3343 C 310.627 5.07829 1.11383 0
M  V30 3344 C 308.312 4.72377 1.7078 0
M  V30 3345 C 310.306 6.34285 0.629439 0
M  V30 3346 C 307.993 5.98808 1.21953 0
M  V30 3347 C 308.991 6.79594 0.681265 0
M  V30 3348 O 308.679 8.03651 0.200248 0
M  V30 3349 H 308.411 0.585327 0.338183 0
M  V30 3350 H 310.965 2.01186 0.413927 0
M  V30 3351 H 309.195 2.54368 2.91262 0
M  V30 3352 H 310.884 2.94515 2.79313 0
M  V30 3353 H 311.65 4.73107 1.06746 0
M  V30 3354 H 307.529 4.0956 2.11617 0
M  V30 3355 H 311.073 6.97288 0.208636 0
M  V30 3356 H 306.97 6.33026 1.26287 0
M  V30 3357 H 307.738 8.1788 0.318416 0
M  V30 3358 N 310.401 -0.613514 1.45168 0
M  V30 3359 C 311.351 -1.71871 1.49815 0
M  V30 3360 C 312.335 -1.56774 0.362021 0
M  V30 3361 O 313.527 -1.66212 0.608493 0
M  V30 3362 C 310.656 -3.1061 1.46207 0
M  V30 3363 C 309.742 -3.31114 2.64999 0
M  V30 3364 N 310.133 -3.21904 3.90143 0
M  V30 3365 C 308.431 -3.61966 2.6057 0
M  V30 3366 C 309.132 -3.43577 4.69393 0
M  V30 3367 N 308.108 -3.67287 4.00751 0
M  V30 3368 H 311.91 -1.63235 2.444 0
M  V30 3369 H 309.424 -0.816577 1.40377 0
M  V30 3370 H 311.421 -3.8989 1.4762 0
M  V30 3371 H 310.081 -3.20399 0.52673 0
M  V30 3372 H 311.092 -3.00436 4.21852 0
M  V30 3373 H 307.769 -3.78629 1.75916 0
M  V30 3374 H 309.159 -3.41901 5.78406 0
M  V30 3375 N 311.879 -1.3236 -0.855495 0
M  V30 3376 C 312.809 -1.23833 -1.97958 0
M  V30 3377 C 313.79 -0.122361 -1.69659 0
M  V30 3378 O 314.975 -0.30939 -1.9172 0
M  V30 3379 C 312.105 -0.959772 -3.33775 0
M  V30 3380 C 311.059 -2.03689 -3.76424 0
M  V30 3381 C 310.385 -1.61075 -5.09862 0
M  V30 3382 C 311.685 -3.4518 -3.9198 0
M  V30 3383 H 313.379 -2.1788 -2.0535 0
M  V30 3384 H 310.925 -1.04891 -0.986605 0
M  V30 3385 H 312.878 -0.886678 -4.11966 0
M  V30 3386 H 311.602 0.0163404 -3.26596 0
M  V30 3387 H 310.261 -2.10012 -3.00484 0
M  V30 3388 H 309.909 -0.622107 -4.99138 0
M  V30 3389 H 309.609 -2.33143 -5.39368 0
M  V30 3390 H 311.133 -1.55201 -5.90546 0
M  V30 3391 H 312.547 -3.4145 -4.60526 0
M  V30 3392 H 310.944 -4.1559 -4.32903 0
M  V30 3393 H 312.014 -3.84903 -2.94919 0
M  V30 3394 N 313.357 1.07166 -1.15556 0
M  V30 3395 C 314.267 2.17947 -0.868116 0
M  V30 3396 C 315.283 1.73297 0.156297 0
M  V30 3397 O 316.459 2.01392 -0.0182327 0
M  V30 3398 C 313.524 3.44789 -0.36355 0
M  V30 3399 C 312.585 4.03996 -1.45209 0
M  V30 3400 C 311.818 5.24783 -0.971508 0
M  V30 3401 O 312.041 5.70109 0.182194 0
M  V30 3402 O 310.975 5.75715 -1.75603 0
M  V30 3403 H 314.801 2.4503 -1.79427 0
M  V30 3404 H 312.386 1.16539 -0.934824 0
M  V30 3405 H 314.268 4.21307 -0.0887113 0
M  V30 3406 H 312.943 3.19253 0.534708 0
M  V30 3407 H 311.85 3.29009 -1.78056 0
M  V30 3408 H 313.183 4.33808 -2.32533 0
M  V30 3409 N 314.835 0.952656 1.25548 0
M  V30 3410 C 316.083 0.605176 1.92826 0
M  V30 3411 C 316.404 -0.860261 1.74999 0
M  V30 3412 O 315.674 -1.6125 1.11244 0
M  V30 3413 H 314.254 0.220832 0.713612 0
M  V30 3414 H 316.916 1.21047 1.52754 0
M  V30 3415 H 316.012 0.832798 3.00784 0
M  V30 3416 N 316.313 -1.40141 0.720998 0
M  V30 3417 C 317.223 -2.34486 0.0731031 0
M  V30 3418 C 318.239 -1.57587 -0.737723 0
M  V30 3419 O 319.415 -1.89949 -0.669429 0
M  V30 3420 C 316.48 -3.36528 -0.833656 0
M  V30 3421 C 315.541 -4.29298 -0.0121673 0
M  V30 3422 C 314.774 -5.26466 -0.875742 0
M  V30 3423 O 314.997 -5.29745 -2.11485 0
M  V30 3424 O 313.931 -6.01092 -0.31185 0
M  V30 3425 H 317.757 -2.9152 0.851444 0
M  V30 3426 H 315.342 -1.41427 0.481527 0
M  V30 3427 H 317.224 -3.99093 -1.35289 0
M  V30 3428 H 315.899 -2.81899 -1.59105 0
M  V30 3429 H 314.806 -3.70001 0.552262 0
M  V30 3430 H 316.139 -4.87094 0.707129 0
M  V30 3431 N 317.792 -0.46758 -1.50504 0
M  V30 3432 C 319.041 0.0902868 -2.01498 0
M  V30 3433 C 319.354 1.411 -1.35463 0
M  V30 3434 O 320.56 2.0536 -1.77594 0
M  V30 3435 C 319.016 0.21142 -3.59278 0
M  V30 3436 C 318.624 -1.10065 -4.34269 0
M  V30 3437 C 320.368 0.721433 -4.18325 0
M  V30 3438 C 318.275 -0.943505 -5.83825 0
M  V30 3439 H 317.205 0.037517 -0.753066 0
M  V30 3440 H 319.856 -0.601943 -1.73346 0
M  V30 3441 H 318.238 0.967352 -3.84003 0
M  V30 3442 H 319.412 -1.86726 -4.21272 0
M  V30 3443 H 317.727 -1.5415 -3.86816 0
M  V30 3444 H 320.324 0.85598 -5.27804 0
M  V30 3445 H 320.667 1.71186 -3.79475 0
M  V30 3446 H 321.2 0.0229843 -3.97793 0
M  V30 3447 H 317.939 -1.90719 -6.27141 0
M  V30 3448 H 317.459 -0.217213 -5.99407 0
M  V30 3449 H 319.138 -0.608715 -6.4413 0
M  V30 3450 N 319.27 1.56325 -0.20005 0
M  V30 3451 C 320.22 2.15939 0.731743 0
M  V30 3452 C 321.204 1.10154 1.17281 0
M  V30 3453 O 322.396 1.36203 1.13038 0
M  V30 3454 C 319.525 2.82614 1.94895 0
M  V30 3455 C 318.611 3.95596 1.52855 0
M  V30 3456 N 319.002 4.99118 0.819418 0
M  V30 3457 C 317.3 4.07288 1.81748 0
M  V30 3458 C 318.001 5.78513 0.608053 0
M  V30 3459 N 316.977 5.31117 1.15828 0
M  V30 3460 H 320.779 2.9334 0.181285 0
M  V30 3461 H 318.293 1.624 -0.000452172 0
M  V30 3462 H 320.29 3.23718 2.62702 0
M  V30 3463 H 318.95 2.06702 2.50408 0
M  V30 3464 H 319.961 5.15723 0.47436 0
M  V30 3465 H 316.638 3.42509 2.38734 0
M  V30 3466 H 318.028 6.71885 0.0451619 0
M  V30 3467 N 320.748 -0.0735177 1.57428 0
M  V30 3468 C 321.698 -1.09442 2.00016 0
M  V30 3469 C 322.682 -1.34575 0.881947 0
M  V30 3470 O 323.874 -1.34905 1.14585 0
M  V30 3471 C 321.003 -2.40865 2.4462 0
M  V30 3472 C 320.089 -2.19014 3.63172 0
M  V30 3473 N 320.48 -1.67087 4.77405 0
M  V30 3474 C 318.778 -2.49494 3.69688 0
M  V30 3475 C 319.479 -1.6001 5.5926 0
M  V30 3476 N 318.455 -2.05999 5.03056 0
M  V30 3477 H 322.257 -0.686227 2.85776 0
M  V30 3478 H 319.771 -0.280617 1.59957 0
M  V30 3479 H 321.768 -3.14763 2.73368 0
M  V30 3480 H 320.428 -2.82403 1.60246 0
M  V30 3481 H 321.439 -1.35975 4.99731 0
M  V30 3482 H 318.116 -2.94409 2.96023 0
M  V30 3483 H 319.506 -1.2073 6.60964 0
M  V30 3484 N 322.226 -1.5378 -0.344866 0
M  V30 3485 C 323.136 -1.84667 -1.4469 0
M  V30 3486 C 324.152 -0.736704 -1.57635 0
M  V30 3487 O 325.328 -1.02888 -1.73136 0
M  V30 3488 C 322.393 -2.04869 -2.79696 0
M  V30 3489 C 321.454 -3.28731 -2.76106 0
M  V30 3490 C 320.687 -3.4796 -4.04673 0
M  V30 3491 O 320.91 -2.71052 -5.01883 0
M  V30 3492 O 319.844 -4.41383 -4.09224 0
M  V30 3493 H 323.67 -2.78334 -1.21506 0
M  V30 3494 H 321.255 -1.39418 -0.536921 0
M  V30 3495 H 323.137 -2.19609 -3.59652 0
M  V30 3496 H 321.812 -1.14391 -3.02814 0
M  V30 3497 H 320.719 -3.19396 -1.94774 0
M  V30 3498 H 322.052 -4.19198 -2.57941 0
M  V30 3499 N 323.704 0.605807 -1.45491 0
M  V30 3500 C 324.951 1.36476 -1.49601 0
M  V30 3501 C 325.279 1.94007 -0.138452 0
M  V30 3502 O 324.534 1.75638 0.863114 0
M  V30 3503 C 324.833 2.53012 -2.52428 0
M  V30 3504 C 324.499 2.13617 -3.97087 0
M  V30 3505 C 323.161 2.02587 -4.36477 0
M  V30 3506 C 325.513 1.82899 -4.88055 0
M  V30 3507 C 322.841 1.59064 -5.64726 0
M  V30 3508 C 325.193 1.40861 -6.16718 0
M  V30 3509 C 323.857 1.28391 -6.55036 0
M  V30 3510 H 323.127 0.499402 -0.547429 0
M  V30 3511 H 325.774 0.684546 -1.78847 0
M  V30 3512 H 324.079 3.26379 -2.16758 0
M  V30 3513 H 325.776 3.1124 -2.52845 0
M  V30 3514 H 322.366 2.23129 -3.65939 0
M  V30 3515 H 326.55 1.90317 -4.58359 0
M  V30 3516 H 321.806 1.48034 -5.93208 0
M  V30 3517 H 325.98 1.16138 -6.86648 0
M  V30 3518 H 323.607 0.944403 -7.54311 0
M  V30 3519 N 325.182 1.32811 0.848464 0
M  V30 3520 C 326.13 1.22231 1.97895 0
M  V30 3521 C 327.124 0.125749 1.68933 0
M  V30 3522 O 328.33 0.289083 1.77663 0
M  V30 3523 H 324.705 0.379058 0.649476 0
M  V30 3524 H 326.676 2.17828 2.03945 0
M  V30 3525 C 325.425 0.968572 3.33937 0
M  V30 3526 H 324.748 1.80458 3.56756 0
M  V30 3527 H 326.188 0.934808 4.13567 0
M  V30 3528 C 324.647 -0.328628 3.35293 0
M  V30 3529 O 325.177 -1.33848 3.78745 0
M  V30 3530 N 323.383 -0.352788 2.88451 0
M  V30 3531 H 322.93 0.469541 2.53285 0
M  V30 3532 H 322.888 -1.22057 2.89741 0
M  V30 3533 N 326.66 -1.06551 1.16123 0
M  V30 3534 C 328.076 -1.3142 0.905585 0
M  V30 3535 C 328.276 -1.96571 -0.442964 0
M  V30 3536 O 327.332 -2.23068 -1.18308 0
M  V30 3537 C 328.645 -2.19741 2.05267 0
M  V30 3538 C 330.193 -2.33165 2.08813 0
M  V30 3539 C 330.668 -3.24838 3.22868 0
M  V30 3540 N 332.159 -3.32421 3.22568 0
M  V30 3541 C 332.894 -4.0344 4.0746 0
M  V30 3542 N 332.39 -4.77003 5.02434 0
M  V30 3543 N 334.183 -3.99464 3.95456 0
M  V30 3544 H 326.334 -0.626548 2.02949 0
M  V30 3545 H 328.597 -0.338777 0.8854 0
M  V30 3546 H 328.303 -1.79142 3.02657 0
M  V30 3547 H 328.177 -3.20313 1.99198 0
M  V30 3548 H 330.564 -2.73013 1.12018 0
M  V30 3549 H 330.645 -1.3227 2.18948 0
M  V30 3550 H 330.289 -2.85708 4.19921 0
M  V30 3551 H 330.219 -4.25707 3.0997 0
M  V30 3552 H 332.71 -2.79994 2.53795 0
M  V30 3553 H 333.023 -5.28712 5.63634 0
M  V30 3554 H 331.368 -4.75992 5.06415 0
M  V30 3555 H 334.559 -3.4111 3.20564 0
M  V30 3556 H 334.732 -4.54544 4.61837 0
M  V30 3557 N 328.138 -0.959301 -1.25041 0
M  V30 3558 C 329.088 -0.453888 -2.23436 0
M  V30 3559 C 330.072 0.459461 -1.542 0
M  V30 3560 O 331.264 0.291752 -1.74579 0
M  V30 3561 C 328.393 0.262667 -3.42294 0
M  V30 3562 C 327.479 -0.669022 -4.1879 0
M  V30 3563 N 327.87 -1.80267 -4.72586 0
M  V30 3564 C 326.168 -0.47814 -4.4343 0
M  V30 3565 C 326.869 -2.38475 -5.3057 0
M  V30 3566 N 325.845 -1.67078 -5.17287 0
M  V30 3567 H 329.647 -1.319 -2.6264 0
M  V30 3568 H 327.161 -0.817358 -1.40332 0
M  V30 3569 H 329.158 0.641911 -4.11929 0
M  V30 3570 H 327.818 1.12432 -3.04613 0
M  V30 3571 H 328.829 -2.18442 -4.69578 0
M  V30 3572 H 325.506 0.340249 -4.16111 0
M  V30 3573 H 326.896 -3.34094 -5.8295 0
M  V30 3574 N 329.616 1.39756 -0.72842 0
M  V30 3575 C 330.864 2.00248 -0.272946 0
M  V30 3576 C 331.185 1.58077 1.14178 0
M  V30 3577 O 330.455 0.826014 1.77634 0
M  V30 3578 H 329.035 0.740554 -0.0979247 0
M  V30 3579 H 331.697 1.70903 -0.936912 0
M  V30 3580 H 330.793 3.10495 -0.316142 0
M  V30 3581 N 331.094 0.475555 1.50254 0
M  V30 3582 C 332.057 -0.305016 2.27161 0
M  V30 3583 C 333.057 -0.916519 1.32123 0
M  V30 3584 O 334.247 -0.785003 1.5551 0
M  V30 3585 C 331.379 -1.43496 3.09227 0
M  V30 3586 H 332.572 0.369511 2.97615 0
M  V30 3587 H 330.125 0.229747 1.54602 0
M  V30 3588 H 330.86 -2.14441 2.43281 0
M  V30 3589 H 330.645 -1.00223 3.79075 0
M  V30 3590 H 332.135 -1.98548 3.67381 0
M  V30 3591 N 332.573 -1.56217 0.208337 0
M  V30 3592 C 333.989 -1.58919 -0.14729 0
M  V30 3593 C 334.189 -1.22486 -1.59998 0
M  V30 3594 O 333.245 -0.953849 -2.3379 0
M  V30 3595 C 334.558 -3.00236 0.167048 0
M  V30 3596 C 336.106 -3.12813 0.108219 0
M  V30 3597 C 336.581 -4.56284 0.396049 0
M  V30 3598 N 338.072 -4.61912 0.345142 0
M  V30 3599 C 338.807 -5.70837 0.541523 0
M  V30 3600 N 338.303 -6.88178 0.798968 0
M  V30 3601 N 340.096 -5.60091 0.474867 0
M  V30 3602 H 332.247 -1.78177 1.15614 0
M  V30 3603 H 334.51 -0.827555 0.462446 0
M  V30 3604 H 334.216 -3.31499 1.1748 0
M  V30 3605 H 334.09 -3.7354 -0.524184 0
M  V30 3606 H 336.477 -2.81354 -0.890157 0
M  V30 3607 H 336.558 -2.41866 0.832729 0
M  V30 3608 H 336.202 -4.88458 1.3918 0
M  V30 3609 H 336.132 -5.25439 -0.349502 0
M  V30 3610 H 338.623 -3.77589 0.153316 0
M  V30 3611 H 338.936 -7.67095 0.93727 0
M  V30 3612 H 337.281 -6.89953 0.836013 0
M  V30 3613 H 340.472 -4.67297 0.274064 0
M  V30 3614 H 340.645 -6.44917 0.631326 0
M  V30 3615 N 334.051 0.0651679 -1.57465 0
M  V30 3616 C 335.281 0.774683 -1.91526 0
M  V30 3617 C 335.689 1.71305 -0.803196 0
M  V30 3618 O 335.032 1.82231 0.231881 0
M  V30 3619 C 335.094 1.61645 -3.21109 0
M  V30 3620 C 334.758 0.846753 -4.49087 0
M  V30 3621 C 335.755 0.163024 -5.19644 0
M  V30 3622 C 333.44 0.811966 -4.95694 0
M  V30 3623 C 335.434 -0.54519 -6.35064 0
M  V30 3624 C 333.121 0.0999836 -6.11018 0
M  V30 3625 C 334.119 -0.577388 -6.80555 0
M  V30 3626 O 333.807 -1.27789 -7.93678 0
M  V30 3627 H 333.539 0.225031 -0.637446 0
M  V30 3628 H 336.093 0.0377134 -2.05365 0
M  V30 3629 H 334.323 2.39638 -3.03497 0
M  V30 3630 H 336.012 2.20525 -3.40769 0
M  V30 3631 H 336.778 0.181163 -4.84662 0
M  V30 3632 H 332.657 1.32867 -4.41438 0
M  V30 3633 H 336.201 -1.07446 -6.89276 0
M  V30 3634 H 332.098 0.0797945 -6.45451 0
M  V30 3635 H 332.866 -1.18784 -8.09835 0
M  V30 3636 N 335.529 1.53961 0.336706 0
M  V30 3637 C 336.94 1.62914 0.911925 0
M  V30 3638 C 337.291 0.514795 1.89326 0
M  V30 3639 O 336.416 -0.354395 2.13478 0
M  V30 3640 C 337.011 2.95304 1.66076 0
M  V30 3641 C 335.57 3.06496 2.18489 0
M  V30 3642 C 334.717 2.58403 1.00613 0
M  V30 3643 H 337.668 1.58285 0.114649 0
M  V30 3644 H 337.689 2.84727 2.5241 0
M  V30 3645 H 337.201 3.76387 0.946276 0
M  V30 3646 H 335.302 2.3006 2.93092 0
M  V30 3647 H 335.415 4.1208 2.44391 0
M  V30 3648 H 333.779 2.13977 1.38152 0
M  V30 3649 H 334.562 3.41932 0.306179 0
M  V30 3650 N 337.007 -0.598083 1.45811 0
M  V30 3651 C 338.232 -1.3881 1.54099 0
M  V30 3652 C 338.657 -1.8726 0.177578 0
M  V30 3653 O 338.015 -1.6069 -0.839541 0
M  V30 3654 C 338.063 -2.56217 2.53743 0
M  V30 3655 O 337.167 -3.5716 2.06182 0
M  V30 3656 H 336.508 -0.414024 0.519115 0
M  V30 3657 H 339.038 -0.726971 1.91249 0
M  V30 3658 H 339.048 -3.03337 2.72856 0
M  V30 3659 H 337.723 -2.20303 3.5276 0
M  V30 3660 H 336.3 -3.16624 1.96987 0
M  V30 3661 N 338.485 -1.33259 -0.841409 0
M  V30 3662 C 339.715 -1.2742 -1.62628 0
M  V30 3663 C 340.123 0.157604 -1.88542 0
M  V30 3664 O 339.466 1.10938 -1.46419 0
M  V30 3665 C 339.528 -1.97797 -3.00194 0
M  V30 3666 C 339.192 -3.47109 -2.97261 0
M  V30 3667 C 340.189 -4.42358 -2.73159 0
M  V30 3668 C 337.874 -3.89247 -3.17478 0
M  V30 3669 C 339.868 -5.77718 -2.69296 0
M  V30 3670 C 337.555 -5.24713 -3.13241 0
M  V30 3671 C 338.553 -6.1876 -2.89181 0
M  V30 3672 O 338.241 -7.51745 -2.84843 0
M  V30 3673 H 337.973 -0.440436 -0.512827 0
M  V30 3674 H 340.527 -1.76153 -1.05638 0
M  V30 3675 H 338.757 -1.43652 -3.59028 0
M  V30 3676 H 340.446 -1.8549 -3.61038 0
M  V30 3677 H 341.212 -4.11127 -2.57294 0
M  V30 3678 H 337.091 -3.16456 -3.35226 0
M  V30 3679 H 340.635 -6.51097 -2.50436 0
M  V30 3680 H 336.532 -5.55569 -3.28654 0
M  V30 3681 H 337.3 -7.61262 -3.00702 0
M  V30 3682 N 339.963 1.05934 -1.16686 0
M  V30 3683 C 340.911 2.15603 -0.872817 0
M  V30 3684 C 341.905 1.68647 0.159576 0
M  V30 3685 O 343.111 1.79995 0.0132125 0
M  V30 3686 H 339.486 0.703885 -0.264671 0
M  V30 3687 H 341.457 2.37613 -1.80507 0
M  V30 3688 C 340.206 3.45457 -0.394344 0
M  V30 3689 H 339.529 3.81984 -1.18019 0
M  V30 3690 H 340.969 4.2339 -0.227408 0
M  V30 3691 C 339.428 3.25021 0.88673 0
M  V30 3692 O 339.958 3.50906 1.95519 0
M  V30 3693 N 338.164 2.78437 0.831925 0
M  V30 3694 H 337.711 2.57572 -0.0377619 0
M  V30 3695 H 337.669 2.65144 1.68956 0
M  V30 3696 N 341.441 0.965919 1.2453 0
M  V30 3697 C 342.669 0.644385 1.96609 0
M  V30 3698 C 343.084 -0.785823 1.71669 0
M  V30 3699 O 342.441 -1.52703 0.999399 0
M  V30 3700 C 342.492 0.907375 3.49927 0
M  V30 3701 O 342.213 2.28136 3.74013 0
M  V30 3702 C 343.714 0.599784 4.39224 0
M  V30 3703 H 340.934 0.240588 0.626385 0
M  V30 3704 H 343.478 1.29337 1.58405 0
M  V30 3705 H 341.633 0.304631 3.862 0
M  V30 3706 H 342.047 2.36002 4.68405 0
M  V30 3707 H 343.521 0.834263 5.45659 0
M  V30 3708 H 343.998 -0.465921 4.36722 0
M  V30 3709 H 344.604 1.18235 4.08535 0
M  V30 3710 N 342.919 -1.39368 0.735821 0
M  V30 3711 C 344.168 -1.99733 0.281004 0
M  V30 3712 C 344.481 -1.59055 -1.13846 0
M  V30 3713 O 345.687 -2.12262 -1.69284 0
M  V30 3714 C 344.143 -3.57057 0.451462 0
M  V30 3715 C 343.751 -4.06697 1.87886 0
M  V30 3716 C 345.495 -4.2446 0.0584616 0
M  V30 3717 C 343.402 -5.56598 1.99883 0
M  V30 3718 H 342.332 -0.747163 0.101311 0
M  V30 3719 H 344.983 -1.59357 0.909819 0
M  V30 3720 H 343.365 -3.95234 -0.246263 0
M  V30 3721 H 344.539 -3.79853 2.60861 0
M  V30 3722 H 342.854 -3.5196 2.22515 0
M  V30 3723 H 345.451 -5.34549 0.127099 0
M  V30 3724 H 345.794 -4.04444 -0.986433 0
M  V30 3725 H 346.327 -3.9146 0.707374 0
M  V30 3726 H 343.066 -5.81494 3.02564 0
M  V30 3727 H 342.586 -5.85242 1.31346 0
M  V30 3728 H 344.265 -6.22022 1.78039 0
M  V30 3729 N 344.397 -0.483516 -1.5 0
M  V30 3730 C 345.643 0.0672592 -2.02688 0
M  V30 3731 C 345.976 1.38247 -1.36387 0
M  V30 3732 O 345.251 1.88131 -0.493675 0
M  V30 3733 C 345.534 0.238109 -3.59312 0
M  V30 3734 C 345.387 -1.099 -4.36168 0
M  V30 3735 C 346.706 0.986916 -4.28892 0
M  V30 3736 H 343.825 0.0229696 -0.736642 0
M  V30 3737 H 346.467 -0.631527 -1.79197 0
M  V30 3738 H 344.617 0.8333 -3.79458 0
M  V30 3739 H 346.289 -1.73172 -4.27562 0
M  V30 3740 H 344.532 -1.69261 -3.99416 0
M  V30 3741 H 345.203 -0.932954 -5.44059 0
M  V30 3742 H 347.679 0.482302 -4.13295 0
M  V30 3743 H 346.555 1.07527 -5.38265 0
M  V30 3744 H 346.816 2.0265 -3.92919 0
M  V30 3745 N 345.875 1.56104 -0.216619 0
M  V30 3746 C 347.123 1.97781 0.415593 0
M  V30 3747 C 347.444 1.10536 1.60645 0
M  V30 3748 O 346.714 0.181303 1.95059 0
M  V30 3749 H 345.294 0.730415 0.156534 0
M  V30 3750 H 347.956 1.92445 -0.308366 0
M  V30 3751 H 347.052 3.03072 0.74525 0
M  V30 3752 N 347.353 -0.0568162 1.57498 0
M  V30 3753 C 348.578 -0.769402 1.92601 0
M  V30 3754 C 349.003 -1.69559 0.814336 0
M  V30 3755 O 348.361 -1.79811 -0.231903 0
M  V30 3756 C 348.409 -1.52634 3.26704 0
M  V30 3757 O 347.513 -2.63797 3.16994 0
M  V30 3758 H 346.854 -0.208909 0.63028 0
M  V30 3759 H 349.384 -0.0205798 2.0459 0
M  V30 3760 H 349.394 -1.90234 3.60936 0
M  V30 3761 H 348.069 -0.846875 4.07186 0
M  V30 3762 H 346.646 -2.28943 2.94346 0
M  V30 3763 N 348.832 -1.54138 -0.328536 0
M  V30 3764 C 350.08 -1.71765 -1.06496 0
M  V30 3765 C 350.401 -0.49149 -1.88704 0
M  V30 3766 O 349.671 0.494539 -1.89555 0
M  V30 3767 H 348.251 -0.633295 -0.396164 0
M  V30 3768 H 350.913 -1.91429 -0.366176 0
M  V30 3769 H 350.009 -2.5951 -1.73381 0
M  V30 3770 N 350.31 0.590341 -1.46126 0
M  V30 3771 C 351.22 1.72793 -1.58681 0
M  V30 3772 C 352.236 1.67516 -0.470566 0
M  V30 3773 O 353.412 1.87562 -0.733642 0
M  V30 3774 C 350.477 3.09287 -1.5666 0
M  V30 3775 C 349.538 3.25886 -2.79458 0
M  V30 3776 C 348.771 4.55869 -2.77524 0
M  V30 3777 O 348.994 5.3928 -1.85832 0
M  V30 3778 O 347.928 4.75552 -3.68964 0
M  V30 3779 H 351.754 1.65149 -2.54872 0
M  V30 3780 H 349.339 0.756486 -1.28832 0
M  V30 3781 H 351.221 3.90577 -1.58202 0
M  V30 3782 H 349.896 3.17385 -0.636271 0
M  V30 3783 H 348.803 2.44119 -2.83472 0
M  V30 3784 H 350.136 3.22675 -3.71674 0
M  V30 3785 N 351.788 1.33704 0.83433 0
M  V30 3786 C 352.736 1.24323 1.96587 0
M  V30 3787 C 353.73 0.143659 1.6879 0
M  V30 3788 O 354.936 0.30791 1.77347 0
M  V30 3789 H 351.311 0.385925 0.645419 0
M  V30 3790 H 353.282 2.19978 2.01624 0
M  V30 3791 C 352.031 1.00394 3.32891 0
M  V30 3792 H 351.354 1.84231 3.54822 0
M  V30 3793 H 352.794 0.97862 4.12552 0
M  V30 3794 C 351.253 -0.293047 3.35623 0
M  V30 3795 O 351.783 -1.29823 3.80143 0
M  V30 3796 N 349.989 -0.322174 2.88809 0
M  V30 3797 H 349.536 0.496379 2.52772 0
M  V30 3798 H 349.494 -1.18977 2.91019 0
M  V30 3799 N 353.266 -1.05314 1.17247 0
M  V30 3800 C 354.514 -1.77941 0.958194 0
M  V30 3801 C 354.835 -1.88089 -0.514556 0
M  V30 3802 O 354.105 -1.39676 -1.37359 0
M  V30 3803 H 352.685 -0.659116 0.351533 0
M  V30 3804 H 355.347 -1.27166 1.47699 0
M  V30 3805 H 354.443 -2.79663 1.38546 0
M  V30 3806 N 354.744 -0.972509 -1.24016 0
M  V30 3807 C 355.984 -0.644951 -1.93958 0
M  V30 3808 C 356.348 0.80559 -1.74282 0
M  V30 3809 O 357.549 1.2436 -2.38302 0
M  V30 3810 C 355.82 -1.01521 -3.42678 0
M  V30 3811 S 357.379 -0.802927 -4.31391 0
M  V30 3812 H 354.197 -0.236452 -0.670531 0
M  V30 3813 H 356.799 -1.25048 -1.50277 0
M  V30 3814 H 355.503 -2.06769 -3.54506 0
M  V30 3815 H 355.034 -0.400648 -3.91355 0
M  V30 3816 H 357.049 0.317256 -4.95185 0
M  V30 3817 N 356.222 1.38976 -0.743202 0
M  V30 3818 C 357.471 1.99581 -0.291592 0
M  V30 3819 C 357.784 1.59656 1.13001 0
M  V30 3820 O 358.99 2.13157 1.68156 0
M  V30 3821 C 357.446 3.56813 -0.470391 0
M  V30 3822 C 357.054 4.05695 -1.90041 0
M  V30 3823 C 358.798 4.24423 -0.0809709 0
M  V30 3824 C 356.705 5.5553 -2.02832 0
M  V30 3825 H 355.635 0.746615 -0.105272 0
M  V30 3826 H 358.286 1.58872 -0.918258 0
M  V30 3827 H 356.668 3.95359 0.225299 0
M  V30 3828 H 357.842 3.78464 -2.62872 0
M  V30 3829 H 356.157 3.50775 -2.24379 0
M  V30 3830 H 358.754 5.34474 -0.155445 0
M  V30 3831 H 359.097 4.04962 0.96497 0
M  V30 3832 H 359.63 3.9108 -0.728124 0
M  V30 3833 H 356.369 5.79881 -3.05643 0
M  V30 3834 H 355.889 5.84537 -1.34448 0
M  V30 3835 H 357.568 6.21069 -1.81335 0
M  V30 3836 N 357.7 0.491464 1.49741 0
M  V30 3837 C 358.63 -0.28154 2.31796 0
M  V30 3838 C 359.611 -0.971473 1.3963 0
M  V30 3839 O 360.796 -0.964719 1.68543 0
M  V30 3840 C 357.926 -1.35203 3.19902 0
M  V30 3841 C 356.88 -0.782529 4.20786 0
M  V30 3842 C 356.206 -1.95283 4.97764 0
M  V30 3843 C 357.506 0.21999 5.21837 0
M  V30 3844 H 359.2 0.403355 2.96671 0
M  V30 3845 H 356.746 0.195425 1.42668 0
M  V30 3846 H 358.699 -1.90045 3.76113 0
M  V30 3847 H 357.423 -2.06598 2.52953 0
M  V30 3848 H 356.082 -0.255928 3.65706 0
M  V30 3849 H 355.73 -2.65423 4.2727 0
M  V30 3850 H 355.43 -1.57789 5.66018 0
M  V30 3851 H 356.954 -2.50577 5.56816 0
M  V30 3852 H 358.368 -0.23996 5.72798 0
M  V30 3853 H 356.765 0.51026 5.97927 0
M  V30 3854 H 357.835 1.13911 4.7133 0
M  V30 3855 N 359.178 -1.55987 0.224894 0
M  V30 3856 C 360.128 -2.17076 -0.697296 0
M  V30 3857 C 361.112 -1.12006 -1.15514 0
M  V30 3858 O 362.304 -1.37985 -1.10857 0
M  V30 3859 C 359.433 -2.85679 -1.90374 0
M  V30 3860 C 358.519 -3.97977 -1.46543 0
M  V30 3861 N 358.91 -5.00359 -0.739909 0
M  V30 3862 C 357.208 -4.10128 -1.75245 0
M  V30 3863 C 357.909 -5.79407 -0.515939 0
M  V30 3864 N 356.885 -5.32892 -1.07364 0
M  V30 3865 H 360.687 -2.93592 -0.134594 0
M  V30 3866 H 358.201 -1.62379 0.0262885 0
M  V30 3867 H 360.198 -3.27857 -2.57518 0
M  V30 3868 H 358.858 -2.1066 -2.47088 0
M  V30 3869 H 359.869 -5.16412 -0.392253 0
M  V30 3870 H 356.546 -3.46263 -2.33255 0
M  V30 3871 H 357.936 -6.71872 0.0617349 0
M  V30 3872 N 360.656 0.0484629 -1.57525 0
M  V30 3873 C 361.886 0.754326 -1.92337 0
M  V30 3874 C 362.294 1.70443 -0.82132 0
M  V30 3875 O 361.637 1.82466 0.21254 0
M  V30 3876 C 361.699 1.58231 -3.22805 0
M  V30 3877 C 361.363 0.799074 -4.4996 0
M  V30 3878 C 362.36 0.1079 -5.19788 0
M  V30 3879 C 360.045 0.759345 -4.96527 0
M  V30 3880 C 362.039 -0.612516 -6.3445 0
M  V30 3881 C 359.726 0.0351713 -6.1109 0
M  V30 3882 C 360.724 -0.649537 -6.79904 0
M  V30 3883 O 360.412 -1.36199 -7.92278 0
M  V30 3884 H 360.144 0.218257 -0.639797 0
M  V30 3885 H 362.698 0.0159295 -2.05394 0
M  V30 3886 H 360.928 2.36406 -3.06021 0
M  V30 3887 H 362.617 2.16898 -3.43089 0
M  V30 3888 H 363.383 0.129748 -4.84826 0
M  V30 3889 H 359.262 1.28177 -4.42822 0
M  V30 3890 H 362.806 -1.14751 -6.88097 0
M  V30 3891 H 358.703 0.0113314 -6.45499 0
M  V30 3892 H 359.471 -1.27366 -8.0853 0
M  V30 3893 N 362.134 1.5431 0.320358 0
M  V30 3894 C 363.362 1.76636 1.07738 0
M  V30 3895 C 363.777 0.51649 1.81598 0
M  V30 3896 O 363.134 -0.512942 1.75143 0
M  V30 3897 C 363.185 2.96158 2.07299 0
M  V30 3898 O 362.906 4.16313 1.36438 0
M  V30 3899 C 364.407 3.3072 2.95193 0
M  V30 3900 H 361.627 0.589597 0.320339 0
M  V30 3901 H 364.171 2.01207 0.36551 0
M  V30 3902 H 362.326 2.73851 2.74016 0
M  V30 3903 H 362.74 4.83565 2.03138 0
M  V30 3904 H 364.214 4.17643 3.60941 0
M  V30 3905 H 364.691 2.48026 3.62463 0
M  V30 3906 H 365.297 3.55117 2.34034 0
M  V30 3907 N 363.613 -0.582584 1.46437 0
M  V30 3908 C 364.523 -1.71949 1.59595 0
M  V30 3909 C 365.539 -1.67264 0.479443 0
M  V30 3910 O 366.715 -1.87171 0.743579 0
M  V30 3911 C 363.78 -3.08452 1.58298 0
M  V30 3912 C 362.841 -3.244 2.81182 0
M  V30 3913 C 362.074 -4.54391 2.79937 0
M  V30 3914 O 362.297 -5.38287 1.8869 0
M  V30 3915 O 361.231 -4.73588 3.71481 0
M  V30 3916 H 365.057 -1.63795 2.55744 0
M  V30 3917 H 362.642 -0.749643 1.29231 0
M  V30 3918 H 364.524 -3.89732 1.60271 0
M  V30 3919 H 363.199 -3.17043 0.653094 0
M  V30 3920 H 362.106 -2.42613 2.84763 0
M  V30 3921 H 363.439 -3.20699 3.7338 0
M  V30 3922 N 365.091 -1.34144 -0.827227 0
M  V30 3923 C 366.039 -1.25364 -1.95925 0
M  V30 3924 C 367.033 -0.152608 -1.68711 0
M  V30 3925 O 368.239 -0.317311 -1.77181 0
M  V30 3926 H 364.614 -0.389342 -0.643364 0
M  V30 3927 H 366.585 -2.21045 -2.00454 0
M  V30 3928 C 365.334 -1.02158 -3.32354 0
M  V30 3929 H 364.657 -1.86111 -3.5384 0
M  V30 3930 H 366.097 -1.00048 -4.12027 0
M  V30 3931 C 364.556 0.275244 -3.35774 0
M  V30 3932 O 365.086 1.27806 -3.80826 0
M  V30 3933 N 363.292 0.306853 -2.88975 0
M  V30 3934 H 362.839 -0.509777 -2.52506 0
M  V30 3935 H 362.797 1.17432 -2.91646 0
M  V30 3936 N 366.569 1.04691 -1.17803 0
M  V30 3937 C 367.479 2.16057 -0.914151 0
M  V30 3938 C 368.495 1.73589 0.119503 0
M  V30 3939 O 369.671 2.01308 -0.0609468 0
M  V30 3940 C 366.736 3.4394 -0.436603 0
M  V30 3941 C 365.797 4.00825 -1.53746 0
M  V30 3942 C 365.03 5.22604 -1.0826 0
M  V30 3943 O 365.253 5.70367 0.0612244 0
M  V30 3944 O 364.187 5.7186 -1.87775 0
M  V30 3945 H 368.013 2.41169 -1.84584 0
M  V30 3946 H 365.598 1.1453 -0.959334 0
M  V30 3947 H 367.48 4.21024 -0.178057 0
M  V30 3948 H 366.155 3.20316 0.466869 0
M  V30 3949 H 365.062 3.25158 -1.84995 0
M  V30 3950 H 366.395 4.28778 -2.41683 0
M  V30 3951 N 368.047 0.979072 1.23499 0
M  V30 3952 C 369.287 0.655228 1.93613 0
M  V30 3953 C 369.651 -0.796336 1.74707 0
M  V30 3954 O 370.852 -1.23094 2.38959 0
M  V30 3955 C 369.123 1.03337 3.42135 0
M  V30 3956 S 370.682 0.825793 4.3096 0
M  V30 3957 H 367.5 0.240004 0.669267 0
M  V30 3958 H 370.102 1.25843 1.49612 0
M  V30 3959 H 368.806 2.08646 3.53405 0
M  V30 3960 H 368.337 0.421397 3.91137 0
M  V30 3961 H 370.352 -0.290991 4.95346 0
M  V30 3962 N 369.525 -1.3858 0.750561 0
M  V30 3963 C 370.435 -2.34278 0.122825 0
M  V30 3964 C 371.451 -1.59116 -0.704131 0
M  V30 3965 O 372.627 -1.91326 -0.628987 0
M  V30 3966 C 369.692 -3.38221 -0.762086 0
M  V30 3967 C 368.753 -4.29227 0.078896 0
M  V30 3968 C 367.986 -5.28205 -0.763874 0
M  V30 3969 O 368.209 -5.34112 -2.00201 0
M  V30 3970 O 367.143 -6.01618 -0.18428 0
M  V30 3971 H 370.969 -2.89649 0.913088 0
M  V30 3972 H 368.554 -1.40374 0.511417 0
M  V30 3973 H 370.436 -4.01872 -1.26793 0
M  V30 3974 H 369.111 -2.85211 -1.5309 0
M  V30 3975 H 368.018 -3.68747 0.630621 0
M  V30 3976 H 369.351 -4.85484 0.810289 0
M  V30 3977 N 371.003 -0.499398 -1.49478 0
M  V30 3978 C 371.936 0.326491 -2.25852 0
M  V30 3979 C 372.914 0.971776 -1.30366 0
M  V30 3980 O 374.098 1.00219 -1.59651 0
M  V30 3981 C 371.225 1.45969 -3.05632 0
M  V30 3982 C 370.271 0.928938 -4.16261 0
M  V30 3983 S 371.104 -0.179012 -5.35201 0
M  V30 3984 C 372.26 0.957389 -6.18534 0
M  V30 3985 H 372.493 -0.321746 -2.95554 0
M  V30 3986 H 370.026 -0.284674 -1.51753 0
M  V30 3987 H 371.984 2.109 -3.52181 0
M  V30 3988 H 370.645 2.07953 -2.35402 0
M  V30 3989 H 369.838 1.77813 -4.71592 0
M  V30 3990 H 369.44 0.356869 -3.72293 0
M  V30 3991 H 371.732 1.86296 -6.51383 0
M  V30 3992 H 372.675 0.442733 -7.06715 0
M  V30 3993 H 373.083 1.224 -5.5107 0
M  V30 3994 N 372.481 1.55866 -0.233164 0
M  V30 3995 C 373.897 1.59133 0.121988 0
M  V30 3996 C 374.097 1.25016 1.58029 0
M  V30 3997 O 373.153 0.990922 2.32243 0
M  V30 3998 C 374.466 2.99932 -0.214792 0
M  V30 3999 C 376.014 3.12601 -0.157971 0
M  V30 4000 C 376.489 4.55597 -0.46859 0
M  V30 4001 N 377.98 4.61305 -0.418585 0
M  V30 4002 C 378.715 5.69903 -0.63227 0
M  V30 4003 N 378.211 6.86819 -0.90835 0
M  V30 4004 N 380.004 5.59264 -0.563913 0
M  V30 4005 H 372.155 1.76315 -1.18434 0
M  V30 4006 H 374.418 0.820093 -0.475553 0
M  V30 4007 H 374.124 3.29588 -1.22739 0
M  V30 4008 H 373.998 3.74327 0.464691 0
M  V30 4009 H 376.385 2.82735 0.845283 0
M  V30 4010 H 376.466 2.40511 -0.871102 0
M  V30 4011 H 376.11 4.86182 -1.46934 0
M  V30 4012 H 376.04 5.25928 0.265865 0
M  V30 4013 H 378.531 3.77297 -0.213368 0
M  V30 4014 H 378.844 7.65507 -1.05919 0
M  V30 4015 H 377.189 6.88536 -0.945673 0
M  V30 4016 H 380.38 4.66802 -0.348372 0
M  V30 4017 H 380.553 6.43831 -0.733847 0
M  V30 4018 N 373.959 -0.0401083 1.57549 0
M  V30 4019 C 375.236 -0.767917 1.79896 0
M  V30 4020 C 375.616 -1.9416 0.82856 0
M  V30 4021 O 374.964 -2.2812 -0.131671 0
M  V30 4022 C 375.174 -1.2113 3.27305 0
M  V30 4023 C 376.522 -1.63175 3.91994 0
M  V30 4024 O 377.546 -1.30616 3.31388 0
M  V30 4025 O 376.405 -2.23565 4.98679 0
M  V30 4026 H 373.499 -0.370441 0.739393 0
M  V30 4027 H 376.045 -0.017737 1.69691 0
M  V30 4028 H 374.817 -0.372937 3.89519 0
M  V30 4029 H 374.44 -2.02183 3.42356 0
M  V30 4030 N 375.437 -1.54477 -0.31217 0
M  V30 4031 C 376.685 -1.72884 -1.04668 0
M  V30 4032 C 377.006 -0.511477 -1.88173 0
M  V30 4033 O 376.276 0.474407 -1.90069 0
M  V30 4034 H 374.856 -0.637461 -0.389425 0
M  V30 4035 H 377.518 -1.91807 -0.345852 0
M  V30 4036 H 376.614 -2.61334 -1.70619 0
M  V30 4037 N 376.915 0.57481 -1.46744 0
M  V30 4038 C 378.192 1.3352 -1.4294 0
M  V30 4039 C 378.572 2.10775 -0.117009 0
M  V30 4040 O 377.92 2.09966 0.901474 0
M  V30 4041 C 378.13 2.25456 -2.66403 0
M  V30 4042 C 379.478 2.87035 -3.12883 0
M  V30 4043 O 380.502 2.35766 -2.67007 0
M  V30 4044 O 379.361 3.80179 -3.92589 0
M  V30 4045 H 376.455 0.600318 -0.568812 0
M  V30 4046 H 379.001 0.595171 -1.58921 0
M  V30 4047 H 377.773 1.67851 -3.53471 0
M  V30 4048 H 377.396 3.06785 -2.52921 0
M  V30 4049 N 378.394 1.34581 0.820102 0
M  V30 4050 C 379.324 1.29038 1.94606 0
M  V30 4051 C 380.305 0.1673 1.69275 0
M  V30 4052 O 381.49 0.360112 1.90832 0
M  V30 4053 C 378.62 1.04793 3.31113 0
M  V30 4054 C 377.574 2.13597 3.70891 0
M  V30 4055 C 376.9 1.74537 5.05412 0
M  V30 4056 C 378.2 3.55451 3.8269 0
M  V30 4057 H 379.894 2.23248 1.99501 0
M  V30 4058 H 377.44 1.0747 0.958449 0
M  V30 4059 H 379.393 0.995592 4.0947 0
M  V30 4060 H 378.117 0.0702565 3.26524 0
M  V30 4061 H 376.776 2.17905 2.9481 0
M  V30 4062 H 376.424 0.754226 4.97313 0
M  V30 4063 H 376.124 2.47361 5.32997 0
M  V30 4064 H 377.648 1.70803 5.86224 0
M  V30 4065 H 379.062 3.5354 4.51312 0
M  V30 4066 H 377.459 4.26922 4.21732 0
M  V30 4067 H 378.529 3.92587 2.84611 0
M  V30 4068 N 379.872 -1.04064 1.18357 0
M  V30 4069 C 381.118 -1.77528 0.980397 0
M  V30 4070 C 381.451 -1.87948 -0.48879 0
M  V30 4071 O 380.726 -1.3876 -1.36293 0
M  V30 4072 C 381.009 -3.20797 1.63588 0
M  V30 4073 C 380.862 -3.1832 3.17793 0
M  V30 4074 C 382.181 -4.18911 1.34914 0
M  V30 4075 H 379.3 -0.644443 0.357578 0
M  V30 4076 H 381.942 -1.2156 1.46024 0
M  V30 4077 H 380.092 -3.68586 1.22788 0
M  V30 4078 H 381.764 -2.78521 3.67728 0
M  V30 4079 H 380.007 -2.56351 3.49952 0
M  V30 4080 H 380.678 -4.19489 3.58794 0
M  V30 4081 H 383.154 -3.7967 1.70265 0
M  V30 4082 H 382.03 -5.17374 1.83346 0
M  V30 4083 H 382.291 -4.41262 0.272027 0
M  V30 4084 N 381.35 -0.985608 -1.22978 0
M  V30 4085 C 382.28 -0.549649 -2.26939 0
M  V30 4086 C 383.261 0.419803 -1.64838 0
M  V30 4087 O 384.446 0.31203 -1.91677 0
M  V30 4088 C 381.576 0.143652 -3.47003 0
M  V30 4089 C 380.53 -0.743606 -4.21491 0
M  V30 4090 C 379.856 0.0822027 -5.34637 0
M  V30 4091 C 381.156 -2.03694 -4.80943 0
M  V30 4092 H 382.85 -1.41862 -2.63658 0
M  V30 4093 H 380.396 -0.683571 -1.26741 0
M  V30 4094 H 382.349 0.459985 -4.18882 0
M  V30 4095 H 381.073 1.04711 -3.09359 0
M  V30 4096 H 379.732 -1.04347 -3.51436 0
M  V30 4097 H 379.38 0.986359 -4.93234 0
M  V30 4098 H 379.08 -0.508377 -5.85397 0
M  V30 4099 H 380.604 0.392797 -6.09335 0
M  V30 4100 H 382.018 -1.78504 -5.44802 0
M  V30 4101 H 380.415 -2.57573 -5.42011 0
M  V30 4102 H 381.485 -2.72042 -4.01399 0
M  V30 4103 N 382.828 1.3818 -0.7579 0
M  V30 4104 C 384.077 1.99261 -0.312744 0
M  V30 4105 C 384.39 1.60846 1.11301 0
M  V30 4106 O 385.596 2.14929 1.65885 0
M  V30 4107 C 384.052 3.56294 -0.50821 0
M  V30 4108 C 383.66 4.03657 -1.94333 0
M  V30 4109 C 385.404 4.24313 -0.125982 0
M  V30 4110 C 383.311 5.53347 -2.08712 0
M  V30 4111 H 382.241 0.745456 -0.113185 0
M  V30 4112 H 384.892 1.57889 -0.935056 0
M  V30 4113 H 383.274 3.95575 0.183353 0
M  V30 4114 H 384.448 3.75655 -2.66871 0
M  V30 4115 H 382.763 3.48376 -2.28086 0
M  V30 4116 H 385.36 5.34279 -0.212125 0
M  V30 4117 H 385.703 4.05962 0.921964 0
M  V30 4118 H 386.236 3.90285 -0.769563 0
M  V30 4119 H 382.975 5.76607 -3.11777 0
M  V30 4120 H 382.495 5.83078 -1.4064 0
M  V30 4121 H 384.174 6.19111 -1.87912 0
M  V30 4122 N 384.306 0.507319 1.49211 0
M  V30 4123 C 385.583 -0.0982702 1.95353 0
M  V30 4124 C 385.963 -1.53516 1.449 0
M  V30 4125 O 385.311 -2.18594 0.66551 0
M  V30 4126 C 385.521 -0.00440283 3.49 0
M  V30 4127 C 386.869 -0.175147 4.24239 0
M  V30 4128 O 387.893 -0.0792891 3.56112 0
M  V30 4129 O 386.752 -0.37276 5.45227 0
M  V30 4130 H 383.846 -0.0918236 0.821887 0
M  V30 4131 H 386.392 0.570307 1.5983 0
M  V30 4132 H 385.164 0.997402 3.78375 0
M  V30 4133 H 384.787 -0.712845 3.91158 0
M  V30 4134 N 385.784 -1.5574 0.241426 0
M  V30 4135 C 386.747 -2.19877 -0.647063 0
M  V30 4136 C 387.747 -1.16642 -1.10686 0
M  V30 4137 O 388.937 -1.41757 -1.01245 0
M  V30 4138 C 386.069 -2.83797 -1.88871 0
M  V30 4139 H 387.262 -2.99772 -0.087574 0
M  V30 4140 H 384.815 -1.56298 -0.00813574 0
M  V30 4141 H 385.55 -2.07824 -2.48957 0
M  V30 4142 H 385.335 -3.59414 -1.56728 0
M  V30 4143 H 386.825 -3.32898 -2.52129 0
M  V30 4144 N 387.262 0.0317525 -1.57568 0
M  V30 4145 C 388.51 0.721676 -1.88776 0
M  V30 4146 C 388.831 1.76039 -0.838772 0
M  V30 4147 O 388.101 1.95482 0.127935 0
M  V30 4148 H 386.681 0.269534 -0.696678 0
M  V30 4149 H 389.343 -0.00165879 -1.949 0
M  V30 4150 H 388.439 1.21293 -2.87566 0
M  V30 4151 N 388.74 1.54641 0.303973 0
M  V30 4152 C 389.98 1.75516 1.04755 0
M  V30 4153 C 390.344 0.528211 1.84591 0
M  V30 4154 O 391.545 0.614645 2.61678 0
M  V30 4155 C 389.816 3.00685 1.93193 0
M  V30 4156 S 391.375 3.42549 2.74237 0
M  V30 4157 H 388.193 0.616987 0.353339 0
M  V30 4158 H 390.795 1.92842 0.321292 0
M  V30 4159 H 389.499 3.8811 1.33411 0
M  V30 4160 H 389.03 2.85937 2.70191 0
M  V30 4161 H 391.045 2.99386 3.95705 0
M  V30 4162 N 390.218 -0.567019 1.47046 0
M  V30 4163 C 391.128 -1.70247 1.6141 0
M  V30 4164 C 392.144 -1.66746 0.497157 0
M  V30 4165 O 393.32 -1.86371 0.763389 0
M  V30 4166 C 390.385 -3.06756 1.61561 0
M  V30 4167 C 389.446 -3.21399 2.84607 0
M  V30 4168 C 388.679 -4.51396 2.84741 0
M  V30 4169 O 388.902 -5.36255 1.94388 0
M  V30 4170 O 387.836 -4.69621 3.76483 0
M  V30 4171 H 391.662 -1.61073 2.57467 0
M  V30 4172 H 389.247 -0.735894 1.30019 0
M  V30 4173 H 391.129 -3.8801 1.64396 0
M  V30 4174 H 389.804 -3.16333 0.686684 0
M  V30 4175 H 388.711 -2.39579 2.8732 0
M  V30 4176 H 390.044 -3.16721 3.76761 0
M  V30 4177 N 391.696 -1.35014 -0.812953 0
M  V30 4178 C 392.926 -1.30841 -1.59888 0
M  V30 4179 C 393.334 0.117576 -1.88834 0
M  V30 4180 O 392.677 1.07807 -1.48739 0
M  V30 4181 C 392.739 -2.0412 -2.95931 0
M  V30 4182 C 392.403 -3.53336 -2.89832 0
M  V30 4183 C 393.4 -4.48052 -2.63714 0
M  V30 4184 C 391.085 -3.95894 -3.0915 0
M  V30 4185 C 393.079 -5.833 -2.56982 0
M  V30 4186 C 390.766 -5.31239 -3.0204 0
M  V30 4187 C 391.764 -6.24754 -2.75991 0
M  V30 4188 O 391.452 -7.57617 -2.68833 0
M  V30 4189 H 391.184 -0.451215 -0.50337 0
M  V30 4190 H 393.738 -1.78354 -1.01877 0
M  V30 4191 H 391.968 -1.51235 -3.559 0
M  V30 4192 H 393.657 -1.93107 -3.57022 0
M  V30 4193 H 394.423 -4.16492 -2.48515 0
M  V30 4194 H 390.302 -3.23495 -3.28438 0
M  V30 4195 H 393.846 -6.56263 -2.36569 0
M  V30 4196 H 389.743 -5.62415 -3.16796 0
M  V30 4197 H 390.511 -7.67469 -2.84487 0
M  V30 4198 N 393.175 1.03435 -1.18907 0
M  V30 4199 C 394.122 2.11591 -0.921837 0
M  V30 4200 C 395.092 1.65499 0.141226 0
M  V30 4201 O 396.277 1.908 0.000242829 0
M  V30 4202 C 393.417 3.42012 -0.460616 0
M  V30 4203 C 392.53 4.01682 -1.58982 0
M  V30 4204 C 391.665 5.20091 -1.08069 0
M  V30 4205 C 390.704 5.71805 -2.18416 0
M  V30 4206 N 389.841 6.81494 -1.68849 0
M  V30 4207 H 394.681 2.33787 -1.8479 0
M  V30 4208 H 392.218 1.1467 -0.921373 0
M  V30 4209 H 394.176 4.16834 -0.174642 0
M  V30 4210 H 392.806 3.19944 0.428467 0
M  V30 4211 H 391.858 3.24127 -1.99113 0
M  V30 4212 H 393.17 4.36084 -2.4214 0
M  V30 4213 H 392.324 6.02051 -0.749615 0
M  V30 4214 H 391.063 4.87209 -0.218771 0
M  V30 4215 H 390.068 4.88461 -2.5236 0
M  V30 4216 H 391.293 6.06728 -3.05054 0
M  V30 4217 H 389.239 6.50475 -0.849572 0
M  V30 4218 H 389.156 7.14994 -2.45601 0
M  V30 4219 H 390.424 7.67063 -1.38689 0
M  V30 4220 N 394.653 0.992116 1.22453 0
M  V30 4221 C 395.901 0.666215 1.90804 0
M  V30 4222 C 396.222 -0.804152 1.77647 0
M  V30 4223 O 395.492 -1.57629 1.16318 0
M  V30 4224 H 394.072 0.243423 0.706225 0
M  V30 4225 H 396.734 1.25845 1.48825 0
M  V30 4226 H 395.83 0.928069 2.97982 0
M  V30 4227 N 396.131 -1.37776 0.765217 0
M  V30 4228 C 397.361 -2.03828 0.337277 0
M  V30 4229 C 397.769 -1.57841 -1.04321 0
M  V30 4230 O 397.112 -0.752043 -1.67601 0
M  V30 4231 C 397.174 -3.58292 0.294407 0
M  V30 4232 C 396.838 -4.27384 1.61838 0
M  V30 4233 C 397.835 -4.51956 2.56967 0
M  V30 4234 C 395.52 -4.65345 1.89102 0
M  V30 4235 C 397.514 -5.13536 3.77571 0
M  V30 4236 C 395.201 -5.26647 3.09978 0
M  V30 4237 C 396.199 -5.50679 4.04032 0
M  V30 4238 O 395.887 -6.10702 5.2278 0
M  V30 4239 H 395.619 -0.661292 0.140248 0
M  V30 4240 H 398.173 -1.77222 1.03834 0
M  V30 4241 H 396.403 -3.83918 -0.462983 0
M  V30 4242 H 398.092 -4.05763 -0.105581 0
M  V30 4243 H 398.858 -4.23048 2.37183 0
M  V30 4244 H 394.737 -4.45978 1.16725 0
M  V30 4245 H 398.281 -5.3221 4.50997 0
M  V30 4246 H 394.178 -5.54979 3.29649 0
M  V30 4247 H 394.946 -6.29183 5.23517 0
M  V30 4248 N 397.609 -0.515225 -1.4894 0
M  V30 4249 C 398.572 0.244681 -2.2789 0
M  V30 4250 C 399.572 0.881166 -1.34507 0
M  V30 4251 O 400.762 0.743497 -1.57537 0
M  V30 4252 C 397.894 1.35247 -3.12923 0
M  V30 4253 H 399.087 -0.448289 -2.96531 0
M  V30 4254 H 396.64 -0.270656 -1.53939 0
M  V30 4255 H 397.375 2.07916 -2.48881 0
M  V30 4256 H 397.16 0.901374 -3.81599 0
M  V30 4257 H 398.65 1.88737 -3.72516 0
M  V30 4258 N 399.087 1.5561 -0.249682 0
M  V30 4259 C 400.335 1.98618 0.373548 0
M  V30 4260 C 400.656 1.13919 1.58264 0
M  V30 4261 O 399.926 0.222637 1.94631 0
M  V30 4262 H 398.506 0.733571 0.141006 0
M  V30 4263 H 401.168 1.91748 -0.349117 0
M  V30 4264 H 400.264 3.04584 0.680796 0
M  V30 4265 N 400.565 -0.0233959 1.57583 0
M  V30 4266 C 401.842 -0.748794 1.807 0
M  V30 4267 C 402.222 -1.9327 0.849106 0
M  V30 4268 O 401.57 -2.28247 -0.107468 0
M  V30 4269 C 401.78 -1.17651 3.28571 0
M  V30 4270 C 403.128 -1.59008 3.93702 0
M  V30 4271 O 404.152 -1.27094 3.32755 0
M  V30 4272 O 403.011 -2.18264 5.01022 0
M  V30 4273 H 400.105 -0.362578 0.743281 0
M  V30 4274 H 402.651 0.000261958 1.697 0
M  V30 4275 H 401.423 -0.331603 3.89892 0
M  V30 4276 H 401.046 -1.98541 3.44481 0
M  V30 4277 N 402.043 -1.548 -0.295768 0
M  V30 4278 C 403.292 -1.73538 -1.02798 0
M  V30 4279 C 403.605 -0.531159 -1.8825 0
M  V30 4280 O 404.811 -0.600458 -2.64777 0
M  V30 4281 C 403.267 -3.07051 -1.87744 0
M  V30 4282 C 402.875 -4.34968 -1.07269 0
M  V30 4283 C 404.619 -3.35146 -2.60533 0
M  V30 4284 C 402.526 -5.5953 -1.91521 0
M  V30 4285 H 401.456 -0.646794 -0.387522 0
M  V30 4286 H 404.107 -1.81278 -0.284718 0
M  V30 4287 H 402.489 -2.93289 -2.66078 0
M  V30 4288 H 403.663 -4.5958 -0.335117 0
M  V30 4289 H 401.978 -4.13847 -0.460384 0
M  V30 4290 H 404.575 -4.2541 -3.23929 0
M  V30 4291 H 404.918 -2.54255 -3.29636 0
M  V30 4292 H 405.451 -3.49902 -1.89244 0
M  V30 4293 H 402.19 -6.43103 -1.26878 0
M  V30 4294 H 401.71 -5.39096 -2.62937 0
M  V30 4295 H 403.389 -5.96982 -2.49442 0
M  V30 4296 N 403.521 0.559213 -1.47345 0
M  V30 4297 C 404.749 1.34194 -1.57479 0
M  V30 4298 C 405.164 1.87463 -0.224261 0
M  V30 4299 O 404.521 1.64888 0.782185 0
M  V30 4300 C 404.572 2.51324 -2.59843 0
M  V30 4301 O 404.293 2.00256 -3.89653 0
M  V30 4302 C 405.794 3.43563 -2.80142 0
M  V30 4303 H 403.014 0.409136 -0.531835 0
M  V30 4304 H 405.558 0.677609 -1.92947 0
M  V30 4305 H 403.713 3.13699 -2.27314 0
M  V30 4306 H 404.127 2.76708 -4.4557 0
M  V30 4307 H 405.601 4.2217 -3.55635 0
M  V30 4308 H 406.078 3.9698 -1.87892 0
M  V30 4309 H 406.684 2.87005 -3.1386 0
M  V30 4310 N 404.999 1.35443 0.805782 0
M  V30 4311 C 406.415 1.15499 1.10146 0
M  V30 4312 C 406.615 -0.0319975 2.01475 0
M  V30 4313 O 405.671 -0.70236 2.42535 0
M  V30 4314 C 406.984 2.45833 1.73166 0
M  V30 4315 C 408.532 2.52047 1.85583 0
M  V30 4316 C 409.007 3.82427 2.52019 0
M  V30 4317 N 410.498 3.83682 2.59504 0
M  V30 4318 C 411.233 4.81294 3.11679 0
M  V30 4319 N 410.729 5.89294 3.64287 0
M  V30 4320 N 412.522 4.6873 3.1024 0
M  V30 4321 H 404.673 2.11469 0.198678 0
M  V30 4322 H 406.936 0.93594 0.150731 0
M  V30 4323 H 406.642 3.32874 1.13526 0
M  V30 4324 H 406.516 2.6044 2.72857 0
M  V30 4325 H 408.903 1.65435 2.44367 0
M  V30 4326 H 408.984 2.41354 0.847455 0
M  V30 4327 H 408.628 4.69437 1.93885 0
M  V30 4328 H 408.558 3.90409 3.53395 0
M  V30 4329 H 411.049 3.05648 2.22234 0
M  V30 4330 H 411.362 6.59768 4.02401 0
M  V30 4331 H 409.707 5.92985 3.62483 0
M  V30 4332 H 412.898 3.83496 2.68419 0
M  V30 4333 H 413.071 5.44965 3.50596 0
M  V30 4334 N 406.477 -1.02803 1.19454 0
M  V30 4335 C 407.705 -1.79841 1.02297 0
M  V30 4336 C 408.12 -1.83879 -0.428259 0
M  V30 4337 O 407.477 -1.28345 -1.29745 0
M  V30 4338 C 407.528 -3.24852 1.58598 0
M  V30 4339 O 407.249 -3.21097 2.98041 0
M  V30 4340 C 408.75 -4.18485 1.46236 0
M  V30 4341 H 405.97 -0.565936 0.360496 0
M  V30 4342 H 408.514 -1.2948 1.58288 0
M  V30 4343 H 406.669 -3.72401 1.06753 0
M  V30 4344 H 407.083 -4.12033 3.24545 0
M  V30 4345 H 408.557 -5.18121 1.90407 0
M  V30 4346 H 409.034 -4.37254 0.41301 0
M  V30 4347 H 409.64 -3.76811 1.97215 0
M  V30 4348 N 407.956 -0.998596 -1.21925 0
M  V30 4349 C 409.203 -0.677663 -1.90824 0
M  V30 4350 C 409.531 0.790905 -1.77693 0
M  V30 4351 O 408.786 1.58817 -1.14349 0
M  V30 4352 C 409.085 -1.03648 -3.42041 0
M  V30 4353 C 408.751 -2.49825 -3.75364 0
M  V30 4354 C 407.413 -2.8977 -3.8417 0
M  V30 4355 C 409.765 -3.44545 -3.91073 0
M  V30 4356 C 407.093 -4.23412 -4.06127 0
M  V30 4357 C 409.445 -4.77853 -4.14535 0
M  V30 4358 C 408.109 -5.17531 -4.21566 0
M  V30 4359 H 407.379 -0.247975 -0.698276 0
M  V30 4360 H 410.026 -1.25584 -1.44571 0
M  V30 4361 H 408.331 -0.376457 -3.89987 0
M  V30 4362 H 410.028 -0.766113 -3.93614 0
M  V30 4363 H 406.618 -2.17866 -3.69097 0
M  V30 4364 H 410.802 -3.14853 -3.83642 0
M  V30 4365 H 406.058 -4.53734 -4.09799 0
M  V30 4366 H 410.232 -5.51189 -4.25633 0
M  V30 4367 H 407.859 -6.21102 -4.38333 0
M  V30 4368 N 409.434 1.37368 -0.772513 0
M  V30 4369 C 410.845 1.8231 -0.402493 0
M  V30 4370 C 411.196 1.6436 1.07146 0
M  V30 4371 O 410.321 1.15514 1.82991 0
M  V30 4372 C 410.916 3.30979 -0.723776 0
M  V30 4373 C 409.475 3.74195 -0.406802 0
M  V30 4374 C 408.622 2.59885 -0.967218 0
M  V30 4375 H 411.573 1.25829 -0.967099 0
M  V30 4376 H 411.594 3.80499 -0.00870832 0
M  V30 4377 H 411.106 3.44011 -1.7966 0
M  V30 4378 H 409.207 3.66732 0.658673 0
M  V30 4379 H 409.32 4.7027 -0.915588 0
M  V30 4380 H 407.684 2.51674 -0.391416 0
M  V30 4381 H 408.467 2.7571 -2.04546 0
M  V30 4382 N 410.912 0.523116 1.48665 0
M  V30 4383 C 412.158 -0.0134963 2.02796 0
M  V30 4384 C 412.491 -1.34582 1.40004 0
M  V30 4385 O 411.766 -1.86756 0.543381 0
M  V30 4386 C 412.049 -0.14276 3.59817 0
M  V30 4387 C 411.902 1.21425 4.331 0
M  V30 4388 C 413.221 -0.872856 4.31357 0
M  V30 4389 H 410.34 -0.00343074 0.736992 0
M  V30 4390 H 412.982 0.678816 1.7746 0
M  V30 4391 H 411.132 -0.732401 3.81534 0
M  V30 4392 H 412.804 1.84447 4.2282 0
M  V30 4393 H 411.047 1.79791 3.94788 0
M  V30 4394 H 411.718 1.07687 5.41394 0
M  V30 4395 H 414.194 -0.372555 4.14429 0
M  V30 4396 H 413.07 -0.932185 5.40927 0
M  V30 4397 H 413.331 -1.92161 3.98154 0
M  V30 4398 N 412.39 -1.55475 0.257931 0
M  V30 4399 C 413.338 -2.23244 -0.653076 0
M  V30 4400 C 414.332 -1.22366 -1.17144 0
M  V30 4401 O 415.538 -1.40347 -1.12706 0
M  V30 4402 H 411.913 -0.716247 -0.229117 0
M  V30 4403 H 413.884 -2.98343 -0.0584788 0
M  V30 4404 C 412.633 -2.95401 -1.83395 0
M  V30 4405 H 411.956 -3.72802 -1.44424 0
M  V30 4406 H 413.396 -3.46165 -2.44838 0
M  V30 4407 C 411.855 -1.99895 -2.71189 0
M  V30 4408 O 412.385 -1.53909 -3.71046 0
M  V30 4409 N 410.591 -1.6676 -2.3799 0
M  V30 4410 H 410.138 -2.04352 -1.56837 0
M  V30 4411 H 410.096 -1.03127 -2.97005 0
M  V30 4412 N 413.868 0.0150385 -1.57593 0
M  V30 4413 C 415.116 0.701613 -1.8953 0
M  V30 4414 C 415.437 1.75139 -0.857396 0
M  V30 4415 O 414.707 1.95607 0.107194 0
M  V30 4416 H 413.287 0.26213 -0.699498 0
M  V30 4417 H 415.949 -0.0223304 -1.94887 0
M  V30 4418 H 415.045 1.18236 -2.88837 0
M  V30 4419 N 415.346 1.54954 0.287554 0
M  V30 4420 C 416.293 1.86834 1.35505 0
M  V30 4421 C 417.263 0.718452 1.49758 0
M  V30 4422 O 418.448 0.968358 1.644 0
M  V30 4423 C 415.588 2.13303 2.71286 0
M  V30 4424 C 414.701 3.40883 2.65373 0
M  V30 4425 C 413.836 3.57125 3.93236 0
M  V30 4426 C 412.875 4.78449 3.81776 0
M  V30 4427 N 412.012 4.91426 5.01443 0
M  V30 4428 H 416.852 2.77889 1.07619 0
M  V30 4429 H 414.389 1.37593 0.520241 0
M  V30 4430 H 416.347 2.26646 3.50267 0
M  V30 4431 H 414.977 1.25499 2.97405 0
M  V30 4432 H 414.029 3.36088 1.78182 0
M  V30 4433 H 415.341 4.29993 2.52799 0
M  V30 4434 H 414.495 3.70207 4.80658 0
M  V30 4435 H 413.234 2.66173 4.0866 0
M  V30 4436 H 412.239 4.65386 2.92738 0
M  V30 4437 H 413.464 5.70822 3.67884 0
M  V30 4438 H 411.41 4.03401 5.17304 0
M  V30 4439 H 411.327 5.74559 4.91343 0
M  V30 4440 H 412.595 5.08879 5.90477 0
M  V30 4441 N 416.824 -0.551391 1.4764 0
M  V30 4442 C 418.071 -1.3083 1.54563 0
M  V30 4443 C 418.399 -1.93359 0.210361 0
M  V30 4444 O 417.654 -1.78721 -0.797332 0
M  V30 4445 C 417.953 -2.43469 2.61644 0
M  V30 4446 C 417.619 -1.98732 4.04742 0
M  V30 4447 C 416.281 -1.86248 4.43695 0
M  V30 4448 C 418.633 -1.64659 4.94507 0
M  V30 4449 C 415.961 -1.37995 5.70241 0
M  V30 4450 C 418.313 -1.17875 6.21521 0
M  V30 4451 C 416.977 -1.03992 6.5935 0
M  V30 4452 H 416.247 -0.478741 0.565587 0
M  V30 4453 H 418.894 -0.617697 1.81264 0
M  V30 4454 H 417.199 -3.18109 2.28722 0
M  V30 4455 H 418.896 -3.01642 2.64222 0
M  V30 4456 H 415.486 -2.09393 3.73968 0
M  V30 4457 H 419.67 -1.73174 4.65107 0
M  V30 4458 H 414.926 -1.25915 5.98294 0
M  V30 4459 H 419.1 -0.905739 6.90485 0
M  V30 4460 H 416.727 -0.663794 7.57296 0
M  V30 4461 N 418.302 -1.35869 -0.798587 0
M  V30 4462 C 419.53 -1.32722 -1.58722 0
M  V30 4463 C 419.945 0.0935631 -1.88568 0
M  V30 4464 O 419.302 1.04784 -1.49421 0
M  V30 4465 C 419.353 -2.13974 -2.91371 0
M  V30 4466 O 419.074 -3.50514 -2.62815 0
M  V30 4467 C 420.575 -2.18504 -3.85708 0
M  V30 4468 H 417.795 -0.45562 -0.492596 0
M  V30 4469 H 420.339 -1.78837 -0.991843 0
M  V30 4470 H 418.494 -1.71438 -3.47402 0
M  V30 4471 H 418.908 -3.92806 -3.47568 0
M  V30 4472 H 420.382 -2.79732 -4.75872 0
M  V30 4473 H 420.859 -1.18597 -4.22885 0
M  V30 4474 H 421.465 -2.61236 -3.35612 0
M  V30 4475 N 419.78 1.02168 -1.19998 0
M  V30 4476 C 420.712 2.10705 -0.901994 0
M  V30 4477 C 421.725 1.6244 0.108216 0
M  V30 4478 O 422.914 1.78082 -0.12214 0
M  V30 4479 C 420.014 3.37291 -0.329834 0
M  V30 4480 C 419.187 4.14714 -1.39035 0
M  V30 4481 C 418.246 5.19606 -0.830432 0
M  V30 4482 O 417.272 5.48809 -1.50989 0
M  V30 4483 N 418.474 5.79366 0.362696 0
M  V30 4484 H 421.239 2.36856 -1.83628 0
M  V30 4485 H 418.8 1.18518 -1.10296 0
M  V30 4486 H 420.792 4.04657 0.0587633 0
M  V30 4487 H 419.362 3.0843 0.508891 0
M  V30 4488 H 418.582 3.42392 -1.9535 0
M  V30 4489 H 419.87 4.63226 -2.10474 0
M  V30 4490 H 419.268 5.57968 0.932081 0
M  V30 4491 H 417.825 6.48106 0.69299 0
M  V30 4492 N 421.258 1.00505 1.21394 0
M  V30 4493 C 422.221 0.570459 2.21987 0
M  V30 4494 C 423.221 -0.353211 1.56873 0
M  V30 4495 O 424.411 -0.14349 1.73608 0
M  V30 4496 C 421.543 -0.168555 3.40483 0
M  V30 4497 H 422.736 1.46021 2.6195 0
M  V30 4498 H 420.289 0.793565 1.34656 0
M  V30 4499 H 421.024 -1.07374 3.06009 0
M  V30 4500 H 420.809 0.494823 3.88965 0
M  V30 4501 H 422.299 -0.460362 4.15055 0
M  V30 4502 N 422.737 -1.36956 0.779787 0
M  V30 4503 C 423.669 -2.28833 0.129639 0
M  V30 4504 C 424.682 -1.4902 -0.655511 0
M  V30 4505 O 425.871 -1.71578 -0.492279 0
M  V30 4506 C 422.971 -3.2833 -0.839792 0
M  V30 4507 C 422.144 -4.3727 -0.10675 0
M  V30 4508 C 421.203 -5.16789 -0.990717 0
M  V30 4509 O 420.229 -5.67406 -0.451516 0
M  V30 4510 N 421.431 -5.32294 -2.3161 0
M  V30 4511 H 424.196 -2.85268 0.918803 0
M  V30 4512 H 421.757 -1.49019 0.632841 0
M  V30 4513 H 423.749 -3.78413 -1.43477 0
M  V30 4514 H 422.319 -2.72605 -1.52988 0
M  V30 4515 H 421.539 -3.88478 0.669216 0
M  V30 4516 H 422.827 -5.07229 0.399464 0
M  V30 4517 H 422.225 -4.92768 -2.77843 0
M  V30 4518 H 420.782 -5.85656 -2.86095 0
M  V30 4519 N 424.215 -0.530993 -1.48385 0
M  V30 4520 C 425.631 -0.188919 -1.58478 0
M  V30 4521 C 425.831 1.30786 -1.53288 0
M  V30 4522 O 424.887 2.08619 -1.42248 0
M  V30 4523 C 426.2 -0.792343 -2.90073 0
M  V30 4524 C 427.748 -0.76117 -3.03604 0
M  V30 4525 C 428.223 -1.34319 -4.37861 0
M  V30 4526 N 429.714 -1.3052 -4.44431 0
M  V30 4527 C 430.449 -1.72543 -5.46824 0
M  V30 4528 N 429.945 -2.22299 -6.56167 0
M  V30 4529 N 431.738 -1.63773 -5.37712 0
M  V30 4530 H 423.889 -1.50377 -1.50002 0
M  V30 4531 H 426.152 -0.625559 -0.712306 0
M  V30 4532 H 425.858 -1.84323 -2.99529 0
M  V30 4533 H 425.732 -0.270026 -3.76232 0
M  V30 4534 H 428.119 0.280957 -2.93759 0
M  V30 4535 H 428.2 -1.32097 -2.19053 0
M  V30 4536 H 427.844 -2.38425 -4.4846 0
M  V30 4537 H 427.774 -0.759064 -5.21101 0
M  V30 4538 H 430.265 -0.940973 -3.65997 0
M  V30 4539 H 430.578 -2.52356 -7.30436 0
M  V30 4540 H 428.923 -2.26293 -6.57127 0
M  V30 4541 H 432.114 -1.24698 -4.51185 0
M  V30 4542 H 432.287 -1.96844 -6.17379 0
M  V30 4543 N 425.693 1.55336 -0.266172 0
M  V30 4544 C 426.603 2.2583 0.635458 0
M  V30 4545 C 427.619 1.28106 1.17749 0
M  V30 4546 O 428.795 1.61024 1.20968 0
M  V30 4547 C 425.86 2.95879 1.80712 0
M  V30 4548 C 424.921 4.09059 1.30265 0
M  V30 4549 C 424.154 4.75759 2.41846 0
M  V30 4550 O 424.377 4.41622 3.61007 0
M  V30 4551 O 423.311 5.63888 2.1051 0
M  V30 4552 H 427.137 3.03631 0.0646693 0
M  V30 4553 H 424.722 1.49361 -0.0339177 0
M  V30 4554 H 426.604 3.39932 2.49047 0
M  V30 4555 H 425.279 2.21002 2.36516 0
M  V30 4556 H 424.186 3.69482 0.586019 0
M  V30 4557 H 425.519 4.85811 0.790458 0
M  V30 4558 N 427.171 -0.0066808 1.57599 0
M  V30 4559 C 428.42 -0.692078 1.89455 0
M  V30 4560 C 428.733 -1.75306 0.867586 0
M  V30 4561 O 429.939 -2.49262 1.07614 0
M  V30 4562 C 428.395 -1.2821 3.36289 0
M  V30 4563 C 428.003 -0.256291 4.47266 0
M  V30 4564 C 429.747 -1.94608 3.77264 0
M  V30 4565 C 427.654 -0.855927 5.85173 0
M  V30 4566 H 426.584 -0.262252 0.706923 0
M  V30 4567 H 429.235 0.052769 1.83424 0
M  V30 4568 H 427.617 -2.0774 3.37135 0
M  V30 4569 H 428.791 0.513923 4.57925 0
M  V30 4570 H 427.106 0.306862 4.15268 0
M  V30 4571 H 429.703 -2.40364 4.77629 0
M  V30 4572 H 430.046 -2.77382 3.10427 0
M  V30 4573 H 430.579 -1.21822 3.78688 0
M  V30 4574 H 427.318 -0.0671161 6.55466 0
M  V30 4575 H 426.838 -1.59546 5.78191 0
M  V30 4576 H 428.517 -1.35658 6.32618 0
M  V30 4577 N 428.649 -1.55105 -0.279332 0
M  V30 4578 C 429.879 -1.7917 -1.02867 0
M  V30 4579 C 430.287 -0.56204 -1.80659 0
M  V30 4580 O 429.63 0.478266 -1.77365 0
M  V30 4581 C 429.692 -2.96061 -2.03932 0
M  V30 4582 C 429.356 -4.33341 -1.45137 0
M  V30 4583 C 430.353 -5.12565 -0.870266 0
M  V30 4584 C 428.038 -4.79987 -1.48048 0
M  V30 4585 C 430.032 -6.36565 -0.326097 0
M  V30 4586 C 427.719 -6.03944 -0.932443 0
M  V30 4587 C 428.717 -6.8207 -0.356247 0
M  V30 4588 O 428.405 -8.03691 0.183412 0
M  V30 4589 H 428.137 -0.600796 -0.309872 0
M  V30 4590 H 430.691 -2.02932 -0.317468 0
M  V30 4591 H 428.921 -2.67975 -2.78794 0
M  V30 4592 H 430.61 -3.07506 -2.64943 0
M  V30 4593 H 431.376 -4.77661 -0.840521 0
M  V30 4594 H 427.255 -4.1919 -1.91835 0
M  V30 4595 H 430.799 -6.97489 0.124286 0
M  V30 4596 H 426.696 -6.3833 -0.959407 0
M  V30 4597 H 427.464 -8.18468 0.0721681 0
M  V30 4598 N 430.127 0.543554 -1.4793 0
M  V30 4599 C 431.404 1.30458 -1.4574 0
M  V30 4600 C 431.784 2.1048 -0.161692 0
M  V30 4601 O 431.132 2.11831 0.856734 0
M  V30 4602 C 431.342 2.19754 -2.71126 0
M  V30 4603 C 432.69 2.80334 -3.18901 0
M  V30 4604 O 433.714 2.30049 -2.71948 0
M  V30 4605 O 432.573 3.71766 -4.00565 0
M  V30 4606 H 429.667 0.588117 -0.581418 0
M  V30 4607 H 432.213 0.561328 -1.60147 0
M  V30 4608 H 430.985 1.60316 -3.56952 0
M  V30 4609 H 430.608 3.01351 -2.59371 0
M  V30 4610 N 431.605 1.3629 0.791371 0
M  V30 4611 C 432.854 1.29742 1.54434 0
M  V30 4612 C 433.167 -0.121729 1.95221 0
M  V30 4613 O 434.373 -0.309579 2.69729 0
M  V30 4614 C 432.829 2.27623 2.78776 0
M  V30 4615 C 432.437 3.74963 2.45166 0
M  V30 4616 C 434.181 2.30047 3.56761 0
M  V30 4617 C 432.088 4.64626 3.65891 0
M  V30 4618 H 431.018 0.482113 0.579727 0
M  V30 4619 H 433.669 1.61642 0.868565 0
M  V30 4620 H 432.051 1.88714 3.48142 0
M  V30 4621 H 433.225 4.22596 1.83709 0
M  V30 4622 H 431.54 3.75295 1.80396 0
M  V30 4623 H 434.137 2.94247 4.46456 0
M  V30 4624 H 434.48 1.30846 3.95203 0
M  V30 4625 H 435.013 2.67563 2.94372 0
M  V30 4626 H 431.752 5.64883 3.32547 0
M  V30 4627 H 431.272 4.2171 4.26521 0
M  V30 4628 H 432.951 4.80801 4.32943 0
M  V30 4629 N 433.083 -1.0153 1.20538 0
M  V30 4630 C 434.329 -1.75408 1.01783 0
M  V30 4631 C 434.662 -1.88943 -0.448814 0
M  V30 4632 O 433.937 -1.4162 -1.33319 0
M  V30 4633 C 434.22 -3.17255 1.70356 0
M  V30 4634 C 434.073 -3.11508 3.24473 0
M  V30 4635 C 435.392 -4.15955 1.43769 0
M  V30 4636 H 432.511 -0.636713 0.371167 0
M  V30 4637 H 435.153 -1.18436 1.4857 0
M  V30 4638 H 433.303 -3.65898 1.30578 0
M  V30 4639 H 434.975 -2.70658 3.73553 0
M  V30 4640 H 433.218 -2.4887 3.55311 0
M  V30 4641 H 433.889 -4.11784 3.67611 0
M  V30 4642 H 436.365 -3.75973 1.7828 0
M  V30 4643 H 435.241 -5.13368 1.94279 0
M  V30 4644 H 435.502 -4.40586 0.365564 0
M  V30 4645 N 434.561 -1.01147 -1.20859 0
M  V30 4646 C 435.491 -0.597663 -2.25722 0
M  V30 4647 C 436.472 0.384744 -1.65692 0
M  V30 4648 O 437.657 0.271303 -1.92296 0
M  V30 4649 C 434.787 0.0700149 -3.47229 0
M  V30 4650 C 433.741 -0.832843 -4.19819 0
M  V30 4651 C 433.067 -0.0312202 -5.34691 0
M  V30 4652 C 434.367 -2.1385 -4.76514 0
M  V30 4653 H 436.061 -1.47423 -2.60589 0
M  V30 4654 H 433.607 -0.710301 -1.25263 0
M  V30 4655 H 435.56 0.37103 -4.19763 0
M  V30 4656 H 434.284 0.981259 -3.11511 0
M  V30 4657 H 432.943 -1.11778 -3.49144 0
M  V30 4658 H 432.591 0.881515 -4.95215 0
M  V30 4659 H 432.291 -0.632434 -5.84187 0
M  V30 4660 H 433.815 0.26346 -6.10031 0
M  V30 4661 H 435.229 -1.9002 -5.40893 0
M  V30 4662 H 433.626 -2.69012 -5.36426 0
M  V30 4663 H 434.696 -2.80495 -3.95538 0
M  V30 4664 N 436.039 1.36541 -0.78704 0
M  V30 4665 C 436.949 2.3387 -0.184896 0
M  V30 4666 C 437.965 1.60927 0.661697 0
M  V30 4667 O 439.141 1.92927 0.57804 0
M  V30 4668 C 436.206 3.40122 0.672145 0
M  V30 4669 C 435.267 4.28867 -0.19267 0
M  V30 4670 C 434.5 5.30045 0.623561 0
M  V30 4671 O 434.723 5.39232 1.8597 0
M  V30 4672 O 433.657 6.01895 0.0247068 0
M  V30 4673 H 437.483 2.87126 -0.989562 0
M  V30 4674 H 435.068 1.38969 -0.548455 0
M  V30 4675 H 436.95 4.05093 1.16094 0
M  V30 4676 H 435.625 2.89169 1.45474 0
M  V30 4677 H 434.532 3.66945 -0.728166 0
M  V30 4678 H 435.865 4.83165 -0.938722 0
M  V30 4679 N 437.518 0.538854 1.48102 0
M  V30 4680 C 438.743 0.0102694 2.07397 0
M  V30 4681 C 439.168 -1.26562 1.39153 0
M  V30 4682 O 438.526 -1.75357 0.460387 0
M  V30 4683 C 438.574 -0.187602 3.60112 0
M  V30 4684 O 437.678 -1.25432 3.92862 0
M  V30 4685 H 437.019 0.0430975 0.6626 0
M  V30 4686 H 439.549 0.749301 1.90385 0
M  V30 4687 H 439.559 -0.407517 4.0596 0
M  V30 4688 H 438.234 0.744386 4.09184 0
M  V30 4689 H 436.811 -1.01636 3.58782 0
M  V30 4690 N 438.996 -1.55193 0.274407 0
M  V30 4691 C 439.926 -2.25471 -0.607032 0
M  V30 4692 C 440.907 -1.24461 -1.15946 0
M  V30 4693 O 442.092 -1.53179 -1.19373 0
M  V30 4694 C 439.222 -2.97526 -1.79153 0
M  V30 4695 C 438.176 -4.05459 -1.37067 0
M  V30 4696 C 437.502 -4.65084 -2.6382 0
M  V30 4697 C 438.802 -5.19691 -0.521389 0
M  V30 4698 H 440.496 -2.99393 -0.0209343 0
M  V30 4699 H 438.042 -1.43997 -0.00862866 0
M  V30 4700 H 439.995 -3.45402 -2.41404 0
M  V30 4701 H 438.719 -2.21138 -2.40344 0
M  V30 4702 H 437.378 -3.58393 -0.771355 0
M  V30 4703 H 437.026 -3.85365 -3.23268 0
M  V30 4704 H 436.726 -5.37961 -2.36372 0
M  V30 4705 H 438.25 -5.15708 -3.26921 0
M  V30 4706 H 439.664 -5.63623 -1.04889 0
M  V30 4707 H 438.061 -5.99126 -0.341825 0
M  V30 4708 H 439.131 -4.82713 0.46 0
M  V30 4709 N 440.474 -0.00167713 -1.576 0
M  V30 4710 C 441.384 1.00548 -2.1196 0
M  V30 4711 C 442.4 1.3758 -1.06526 0
M  V30 4712 O 443.576 1.46278 -1.38436 0
M  V30 4713 C 440.641 2.27809 -2.6135 0
M  V30 4714 C 439.702 1.97074 -3.81393 0
M  V30 4715 C 438.935 3.18267 -4.28417 0
M  V30 4716 O 439.158 4.30009 -3.74765 0
M  V30 4717 O 438.092 3.02167 -5.20556 0
M  V30 4718 H 441.918 0.573373 -2.98238 0
M  V30 4719 H 439.503 0.217255 -1.47812 0
M  V30 4720 H 441.385 3.02568 -2.93309 0
M  V30 4721 H 440.06 2.70254 -1.78169 0
M  V30 4722 H 438.967 1.19785 -3.54404 0
M  V30 4723 H 440.3 1.59464 -4.65652 0
M  V30 4724 N 441.952 1.55251 0.271103 0
M  V30 4725 C 443.18 1.79974 1.02064 0
M  V30 4726 C 443.595 0.574003 1.79863 0
M  V30 4727 O 442.952 -0.456962 1.76686 0
M  V30 4728 C 443.003 3.02603 1.97772 0
M  V30 4729 O 442.724 4.20443 1.23124 0
M  V30 4730 C 444.225 3.39944 2.84522 0
M  V30 4731 H 441.445 0.599489 0.301419 0
M  V30 4732 H 443.989 2.02268 0.301313 0
M  V30 4733 H 442.144 2.8243 2.65165 0
M  V30 4734 H 442.558 4.89783 1.87651 0
M  V30 4735 H 444.032 4.28915 3.47471 0
M  V30 4736 H 444.509 2.59432 3.54389 0
M  V30 4737 H 445.115 3.62383 2.22618 0
M  V30 4738 N 443.43 -0.535701 1.48216 0
M  V30 4739 C 444.655 -1.32149 1.59848 0
M  V30 4740 C 445.08 -1.86338 0.256842 0
M  V30 4741 O 444.438 -1.64107 -0.770632 0
M  V30 4742 C 444.486 -2.45224 2.64381 0
M  V30 4743 O 443.59 -3.48093 2.21144 0
M  V30 4744 H 442.931 -0.391634 0.536208 0
M  V30 4745 H 445.461 -0.645202 1.94161 0
M  V30 4746 H 445.471 -2.91491 2.85476 0
M  V30 4747 H 444.146 -2.05143 3.61786 0
M  V30 4748 H 442.723 -3.07984 2.10239 0
M  V30 4749 N 444.908 -1.36708 -0.784132 0
M  V30 4750 C 445.838 -1.34153 -1.91116 0
M  V30 4751 C 446.819 -0.212121 -1.68772 0
M  V30 4752 O 448.004 -0.410581 -1.8981 0
M  V30 4753 C 445.134 -1.13535 -3.28218 0
M  V30 4754 C 444.088 -2.23356 -3.65097 0
M  V30 4755 C 443.414 -1.87875 -5.00607 0
M  V30 4756 C 444.714 -3.65473 -3.73131 0
M  V30 4757 H 446.408 -2.28459 -1.93512 0
M  V30 4758 H 443.954 -1.09973 -0.929618 0
M  V30 4759 H 445.907 -1.10381 -4.06687 0
M  V30 4760 H 444.631 -0.156804 -3.26223 0
M  V30 4761 H 443.29 -2.25645 -2.88929 0
M  V30 4762 H 442.938 -0.885814 -4.95139 0
M  V30 4763 H 442.638 -2.61406 -5.26252 0
M  V30 4764 H 444.162 -1.86286 -5.81489 0
M  V30 4765 H 445.576 -3.65382 -4.41779 0
M  V30 4766 H 443.973 -4.37953 -4.10265 0
M  V30 4767 H 445.043 -3.99995 -2.74102 0
M  V30 4768 N 446.386 1.0089 -1.21074 0
M  V30 4769 C 447.802 1.2695 -0.967257 0
M  V30 4770 C 448.002 1.9846 0.348673 0
M  V30 4771 O 447.058 2.28459 1.0753 0
M  V30 4772 C 448.371 2.09697 -2.15517 0
M  V30 4773 C 449.919 2.22937 -2.197 0
M  V30 4774 C 450.394 3.09064 -3.37999 0
M  V30 4775 N 451.885 3.16653 -3.38061 0
M  V30 4776 C 452.62 3.8354 -4.26245 0
M  V30 4777 N 452.116 4.52488 -5.2462 0
M  V30 4778 N 453.909 3.80141 -4.14064 0
M  V30 4779 H 446.06 0.529005 -2.05707 0
M  V30 4780 H 448.323 0.296148 -0.900556 0
M  V30 4781 H 448.029 1.64497 -3.10859 0
M  V30 4782 H 447.903 3.10444 -2.14253 0
M  V30 4783 H 450.29 2.67357 -1.24916 0
M  V30 4784 H 450.371 1.21673 -2.2501 0
M  V30 4785 H 450.015 2.65347 -4.33074 0
M  V30 4786 H 449.945 4.10433 -3.29928 0
M  V30 4787 H 452.436 2.67566 -2.66865 0
M  V30 4788 H 452.749 5.01219 -5.88217 0
M  V30 4789 H 451.094 4.51288 -5.28549 0
M  V30 4790 H 454.285 3.25427 -3.36474 0
M  V30 4791 H 454.458 4.31992 -4.82998 0
M  V30 4792 N 447.864 1.01787 1.20321 0
M  V30 4793 C 448.794 0.609625 2.25401 0
M  V30 4794 C 449.775 -0.375951 1.65893 0
M  V30 4795 O 450.96 -0.261101 1.92437 0
M  V30 4796 C 448.09 -0.0515995 3.47262 0
M  V30 4797 C 447.044 0.855095 4.19371 0
M  V30 4798 C 446.37 0.0595757 5.34667 0
M  V30 4799 C 447.67 2.16374 4.75373 0
M  V30 4800 H 449.364 1.48803 2.59804 0
M  V30 4801 H 446.91 0.716934 1.24884 0
M  V30 4802 H 448.863 -0.348764 4.19954 0
M  V30 4803 H 447.587 -0.964726 3.12027 0
M  V30 4804 H 446.246 1.13628 3.48546 0
M  V30 4805 H 445.894 -0.85524 4.95676 0
M  V30 4806 H 445.594 0.663406 5.83843 0
M  V30 4807 H 447.118 -0.231105 6.10162 0
M  V30 4808 H 448.532 1.92885 5.39878 0
M  V30 4809 H 446.929 2.71853 5.34991 0
M  V30 4810 H 447.999 2.82589 3.94045 0
M  V30 4811 N 449.342 -1.36122 0.79427 0
M  V30 4812 C 450.572 -2.03067 0.380437 0
M  V30 4813 C 450.98 -1.60018 -1.00949 0
M  V30 4814 O 450.323 -0.787425 -1.65968 0
M  V30 4815 C 450.385 -3.57587 0.37034 0
M  V30 4816 C 450.049 -4.23855 1.70867 0
M  V30 4817 C 451.046 -4.46404 2.66496 0
M  V30 4818 C 448.731 -4.61229 1.9893 0
M  V30 4819 C 450.725 -5.05412 3.88378 0
M  V30 4820 C 448.412 -5.19953 3.21079 0
M  V30 4821 C 449.41 -5.41985 4.15621 0
M  V30 4822 O 449.098 -5.99475 5.35616 0
M  V30 4823 H 448.83 -0.658168 0.154243 0
M  V30 4824 H 451.384 -1.7498 1.0757 0
M  V30 4825 H 449.614 -3.84814 -0.381444 0
M  V30 4826 H 451.303 -4.05895 -0.0194894 0
M  V30 4827 H 452.069 -4.17921 2.46103 0
M  V30 4828 H 447.948 -4.43402 1.26158 0
M  V30 4829 H 451.492 -5.22524 4.62185 0
M  V30 4830 H 447.389 -5.47862 3.41347 0
M  V30 4831 H 448.157 -6.17937 5.36745 0
M  V30 4832 N 450.82 -0.546701 -1.47814 0
M  V30 4833 C 452.236 -0.205717 -1.58269 0
M  V30 4834 C 452.436 1.29153 -1.54667 0
M  V30 4835 O 451.492 2.07098 -1.44453 0
M  V30 4836 C 452.805 -0.823065 -2.89216 0
M  V30 4837 C 454.353 -0.793328 -3.02779 0
M  V30 4838 C 454.828 -1.38955 -4.36412 0
M  V30 4839 N 456.319 -1.35227 -4.43021 0
M  V30 4840 C 457.054 -1.78333 -5.44963 0
M  V30 4841 N 456.55 -2.29246 -6.53772 0
M  V30 4842 N 458.343 -1.69467 -5.35945 0
M  V30 4843 H 450.494 -1.5196 -1.48398 0
M  V30 4844 H 452.757 -0.633078 -0.705632 0
M  V30 4845 H 452.463 -1.8749 -2.97558 0
M  V30 4846 H 452.337 -0.309915 -3.75925 0
M  V30 4847 H 454.724 0.249784 -2.94041 0
M  V30 4848 H 454.805 -1.34412 -2.17639 0
M  V30 4849 H 454.449 -2.43168 -4.45906 0
M  V30 4850 H 454.379 -0.814291 -5.20266 0
M  V30 4851 H 456.87 -0.979739 -3.64979 0
M  V30 4852 H 457.183 -2.60089 -7.27718 0
M  V30 4853 H 455.528 -2.3325 -6.5469 0
M  V30 4854 H 458.719 -1.29477 -4.49837 0
M  V30 4855 H 458.892 -2.03381 -6.15256 0
M  V30 4856 N 452.299 1.55045 -0.282633 0
M  V30 4857 C 453.71 1.85473 0.213655 0
M  V30 4858 C 454.061 1.20465 1.54863 0
M  V30 4859 O 453.186 0.495676 2.10647 0
M  V30 4860 C 453.781 3.36496 0.394445 0
M  V30 4861 C 452.34 3.67022 0.834961 0
M  V30 4862 C 451.487 2.77218 -0.0674081 0
M  V30 4863 H 454.438 1.50478 -0.504202 0
M  V30 4864 H 454.459 3.60007 1.23186 0
M  V30 4865 H 453.971 3.83782 -0.577326 0
M  V30 4866 H 452.072 3.25241 1.81794 0
M  V30 4867 H 452.185 4.74433 0.667075 0
M  V30 4868 H 450.549 2.5069 0.450196 0
M  V30 4869 H 451.332 3.2732 -1.0352 0
M  V30 4870 N 453.777 0.010035 1.57597 0
M  V30 4871 C 455.025 -0.671371 1.90623 0
M  V30 4872 C 455.346 -1.73753 0.885151 0
M  V30 4873 O 454.616 -1.95752 -0.0760611 0
M  V30 4874 H 453.196 -0.250968 0.703579 0
M  V30 4875 H 455.858 0.0533325 1.94827 0
M  V30 4876 H 454.954 -1.13626 2.90681 0
M  V30 4877 N 455.255 -1.55392 -0.262866 0
M  V30 4878 C 456.483 -1.80513 -1.01108 0
M  V30 4879 C 456.898 -0.583533 -1.79556 0
M  V30 4880 O 456.255 0.447585 -1.76926 0
M  V30 4881 C 456.306 -3.03648 -1.96164 0
M  V30 4882 O 456.027 -4.2109 -1.20893 0
M  V30 4883 C 457.528 -3.41448 -2.82715 0
M  V30 4884 H 454.748 -0.601079 -0.298236 0
M  V30 4885 H 457.292 -2.02425 -0.290582 0
M  V30 4886 H 455.447 -2.83832 -2.63663 0
M  V30 4887 H 455.861 -4.90771 -1.85051 0
M  V30 4888 H 457.335 -4.30751 -3.45192 0
M  V30 4889 H 457.812 -2.61308 -3.53008 0
M  V30 4890 H 458.418 -3.63559 -2.20693 0
M  V30 4891 N 456.733 0.527833 -1.48498 0
M  V30 4892 C 457.958 1.313 -1.60546 0
M  V30 4893 C 458.383 1.86199 -0.26672 0
M  V30 4894 O 457.741 1.64513 0.761918 0
M  V30 4895 C 457.789 2.43818 -2.65678 0
M  V30 4896 O 456.893 3.46916 -2.22987 0
M  V30 4897 H 456.234 0.388784 -0.538277 0
M  V30 4898 H 458.764 0.634896 -1.945 0
M  V30 4899 H 458.774 2.89973 -2.87018 0
M  V30 4900 H 457.449 2.03222 -3.62869 0
M  V30 4901 H 456.026 3.06864 -2.11869 0
M  V30 4902 N 458.211 1.37122 0.776871 0
M  V30 4903 C 459.46 1.31373 1.53049 0
M  V30 4904 C 459.773 -0.101016 1.95339 0
M  V30 4905 O 460.979 -0.280953 2.70042 0
M  V30 4906 C 459.435 2.30567 2.76346 0
M  V30 4907 C 459.043 3.77543 2.41175 0
M  V30 4908 C 460.787 2.33818 3.54301 0
M  V30 4909 C 458.694 4.68481 3.60943 0
M  V30 4910 H 457.624 0.488234 0.574581 0
M  V30 4911 H 460.275 1.62554 0.851372 0
M  V30 4912 H 458.657 1.92396 3.46121 0
M  V30 4913 H 459.831 4.24521 1.79216 0
M  V30 4914 H 458.146 3.77187 1.76405 0
M  V30 4915 H 460.743 2.98965 4.4331 0
M  V30 4916 H 461.086 1.3503 3.93793 0
M  V30 4917 H 461.619 2.7067 2.91518 0
M  V30 4918 H 458.358 5.68378 3.26537 0
M  V30 4919 H 457.878 4.2621 4.22025 0
M  V30 4920 H 459.557 4.85366 4.27819 0
M  V30 4921 N 459.689 -1.00246 1.21608 0
M  V30 4922 C 460.619 -2.10921 1.00172 0
M  V30 4923 C 461.6 -1.69938 -0.0741587 0
M  V30 4924 O 462.785 -1.94009 0.0861753 0
M  V30 4925 C 459.915 -3.42618 0.568355 0
M  V30 4926 C 458.869 -3.97407 1.58909 0
M  V30 4927 C 458.195 -5.25038 1.01187 0
M  V30 4928 C 459.495 -4.2918 2.97661 0
M  V30 4929 H 461.189 -2.29112 1.92739 0
M  V30 4930 H 458.735 -1.10101 0.928102 0
M  V30 4931 H 460.688 -4.19444 0.405555 0
M  V30 4932 H 459.412 -3.24227 -0.392961 0
M  V30 4933 H 458.071 -3.22703 1.73949 0
M  V30 4934 H 457.719 -5.02982 0.0421965 0
M  V30 4935 H 457.419 -5.62661 1.6937 0
M  V30 4936 H 458.943 -6.04507 0.860448 0
M  V30 4937 H 460.357 -4.96839 2.86049 0
M  V30 4938 H 458.754 -4.77952 3.6288 0
M  V30 4939 H 459.824 -3.3735 3.48315 0
M  V30 4940 N 461.167 -1.02423 -1.1978 0
M  V30 4941 C 462.077 -0.610919 -2.26506 0
M  V30 4942 C 463.093 0.355152 -1.70337 0
M  V30 4943 O 464.269 0.214195 -2.00258 0
M  V30 4944 C 461.334 0.0365921 -3.46681 0
M  V30 4945 C 460.395 -0.976389 -4.18049 0
M  V30 4946 C 459.628 -0.359683 -5.32487 0
M  V30 4947 O 459.851 0.838601 -5.64202 0
M  V30 4948 O 458.785 -1.08022 -5.92127 0
M  V30 4949 H 462.611 -1.49965 -2.64091 0
M  V30 4950 H 460.196 -0.794156 -1.26545 0
M  V30 4951 H 462.078 0.39786 -4.19518 0
M  V30 4952 H 460.753 0.899398 -3.10954 0
M  V30 4953 H 459.66 -1.38916 -3.47352 0
M  V30 4954 H 460.993 -1.80941 -4.57735 0
M  V30 4955 N 462.645 1.35699 -0.801477 0
M  V30 4956 C 463.891 1.99208 -0.380022 0
M  V30 4957 C 464.224 1.63445 1.04878 0
M  V30 4958 O 463.499 0.895223 1.72673 0
M  V30 4959 C 463.782 3.55755 -0.557708 0
M  V30 4960 C 463.635 4.01332 -2.03107 0
M  V30 4961 C 464.954 4.40096 0.0197968 0
M  V30 4962 H 462.073 0.723667 -0.139552 0
M  V30 4963 H 464.715 1.60928 -1.01006 0
M  V30 4964 H 462.865 3.88494 -0.0213741 0
M  V30 4965 H 464.537 3.79026 -2.62939 0
M  V30 4966 H 462.78 3.52429 -2.52936 0
M  V30 4967 H 463.451 5.10234 -2.1063 0
M  V30 4968 H 465.927 4.13786 -0.438179 0
M  V30 4969 H 464.803 5.48735 -0.134477 0
M  V30 4970 H 465.064 4.2786 1.11303 0
M  V30 4971 N 464.123 0.554532 1.47522 0
M  V30 4972 C 465.351 0.034257 2.06872 0
M  V30 4973 C 465.766 -1.25826 1.40759 0
M  V30 4974 O 465.123 -1.75425 0.503217 0
M  V30 4975 C 465.174 -0.167827 3.6111 0
M  V30 4976 O 464.895 1.07351 4.24744 0
M  V30 4977 C 466.396 -0.72569 4.3732 0
M  V30 4978 H 463.616 0.0446275 0.669514 0
M  V30 4979 H 466.16 0.767181 1.89564 0
M  V30 4980 H 464.315 -0.850872 3.7794 0
M  V30 4981 H 464.729 0.869563 5.17242 0
M  V30 4982 H 466.203 -0.816394 5.45929 0
M  V30 4983 H 466.68 -1.73635 4.0342 0
M  V30 4984 H 467.286 -0.0784292 4.25228 0
M  V30 4985 N 465.601 -1.54893 0.290851 0
M  V30 4986 C 466.849 -1.99538 -0.320756 0
M  V30 4987 C 467.17 -1.18075 -1.55188 0
M  V30 4988 O 466.44 -0.274162 -1.93972 0
M  V30 4989 H 465.02 -0.737052 -0.121507 0
M  V30 4990 H 467.682 -1.90755 0.399832 0
M  V30 4991 H 466.778 -3.06282 -0.599802 0
M  V30 4992 N 467.08 -0.0183926 -1.57589 0
M  V30 4993 C 467.99 0.982943 -2.13015 0
M  V30 4994 C 469.006 1.36443 -1.07979 0
M  V30 4995 O 470.182 1.44802 -1.3998 0
M  V30 4996 C 467.247 2.25024 -2.63752 0
M  V30 4997 C 466.308 1.93018 -3.83461 0
M  V30 4998 C 465.541 3.13706 -4.31769 0
M  V30 4999 O 465.764 4.2601 -3.79305 0
M  V30 5000 O 464.698 2.96629 -5.23732 0
M  V30 5001 H 468.524 0.541709 -2.9883 0
M  V30 5002 H 466.109 0.201565 -1.48034 0
M  V30 5003 H 467.991 2.99441 -2.96502 0
M  V30 5004 H 466.666 2.68349 -1.81026 0
M  V30 5005 H 465.573 1.16019 -3.55655 0
M  V30 5006 H 466.906 1.54516 -4.67317 0
M  V30 5007 N 468.558 1.5553 0.254621 0
M  V30 5008 C 469.804 1.77262 0.985193 0
M  V30 5009 C 470.137 0.582286 1.85265 0
M  V30 5010 O 469.412 -0.419666 1.89919 0
M  V30 5011 C 469.695 3.0881 1.85225 0
M  V30 5012 C 469.548 4.38233 1.0135 0
M  V30 5013 C 470.867 3.3653 2.83612 0
M  V30 5014 H 467.986 0.644906 0.356742 0
M  V30 5015 H 470.628 1.88264 0.256236 0
M  V30 5016 H 468.778 2.99562 2.47376 0
M  V30 5017 H 470.45 4.59463 0.411269 0
M  V30 5018 H 468.693 4.32636 0.317574 0
M  V30 5019 H 469.364 5.26644 1.65379 0
M  V30 5020 H 471.84 3.45691 2.31596 0
M  V30 5021 H 470.716 4.29805 3.41407 0
M  V30 5022 H 470.977 2.57064 3.59681 0
M  V30 5023 N 470.036 -0.519951 1.48776 0
M  V30 5024 C 471.282 -1.27711 1.57536 0
M  V30 5025 C 471.615 -1.92547 0.252866 0
M  V30 5026 O 470.89 -1.7979 -0.742021 0
M  V30 5027 C 471.173 -2.35875 2.72094 0
M  V30 5028 C 471.026 -1.75664 4.1408 0
M  V30 5029 C 472.345 -3.37575 2.82367 0
M  V30 5030 H 469.464 -0.462971 0.573434 0
M  V30 5031 H 472.106 -0.578194 1.80989 0
M  V30 5032 H 470.256 -2.95488 2.52228 0
M  V30 5033 H 471.928 -1.20025 4.45412 0
M  V30 5034 H 470.171 -1.06154 4.20611 0
M  V30 5035 H 470.842 -2.54029 4.90075 0
M  V30 5036 H 473.318 -2.87929 3.00393 0
M  V30 5037 H 472.194 -4.1064 3.64233 0
M  V30 5038 H 472.455 -3.98743 1.90936 0
M  V30 5039 N 471.514 -1.37532 -0.769588 0
M  V30 5040 C 472.93 -1.18379 -1.07045 0
M  V30 5041 C 473.13 -0.0214312 -2.01489 0
M  V30 5042 O 472.186 0.637809 -2.44312 0
M  V30 5043 C 473.499 -2.50338 -1.66588 0
M  V30 5044 C 475.047 -2.56879 -1.78835 0
M  V30 5045 C 475.522 -3.88974 -2.41792 0
M  V30 5046 N 477.013 -3.90428 -2.4924 0
M  V30 5047 C 477.748 -4.89388 -2.98809 0
M  V30 5048 N 477.244 -5.98745 -3.48535 0
M  V30 5049 N 479.037 -4.76791 -2.97703 0
M  V30 5050 H 471.188 -2.11921 -0.142541 0
M  V30 5051 H 473.451 -0.939608 -0.125863 0
M  V30 5052 H 473.157 -3.35767 -1.0466 0
M  V30 5053 H 473.031 -2.67583 -2.65856 0
M  V30 5054 H 475.418 -1.71856 -2.39895 0
M  V30 5055 H 475.499 -2.43516 -0.783166 0
M  V30 5056 H 475.143 -4.74412 -1.81371 0
M  V30 5057 H 475.073 -3.99641 -3.4292 0
M  V30 5058 H 477.564 -3.11433 -2.14052 0
M  V30 5059 H 477.877 -6.70205 -3.84767 0
M  V30 5060 H 476.222 -6.02387 -3.46634 0
M  V30 5061 H 479.413 -3.90478 -2.58157 0
M  V30 5062 H 479.586 -5.54069 -3.36024 0
M  V30 5063 N 472.992 0.995999 -1.22138 0
M  V30 5064 C 474.241 1.72928 -1.03821 0
M  V30 5065 C 474.554 1.90872 0.427444 0
M  V30 5066 O 475.76 2.61496 0.730212 0
M  V30 5067 C 474.216 3.11124 -1.80913 0
M  V30 5068 C 473.824 3.01122 -3.31707 0
M  V30 5069 C 475.568 3.8852 -1.71035 0
M  V30 5070 C 473.475 4.34453 -4.01253 0
M  V30 5071 H 472.405 0.648376 -0.384869 0
M  V30 5072 H 475.056 1.11213 -1.45959 0
M  V30 5073 H 473.438 3.73503 -1.31573 0
M  V30 5074 H 474.612 2.47926 -3.88419 0
M  V30 5075 H 472.927 2.3721 -3.42228 0
M  V30 5076 H 475.524 4.872 -2.20318 0
M  V30 5077 H 475.867 4.1087 -0.670196 0
M  V30 5078 H 476.4 3.32812 -2.17902 0
M  V30 5079 H 473.139 4.17303 -5.05508 0
M  V30 5080 H 472.659 4.87574 -3.49331 0
M  V30 5081 H 474.338 5.03215 -4.06674 0
M  V30 5082 N 474.47 1.03057 1.19235 0
M  V30 5083 C 475.403 0.557384 2.21288 0
M  V30 5084 C 476.381 -0.402675 1.57535 0
M  V30 5085 O 477.565 -0.319376 1.85775 0
M  V30 5086 C 474.692 -0.187041 3.38183 0
M  V30 5087 C 473.738 0.72471 4.20298 0
M  V30 5088 S 474.571 2.20187 4.88137 0
M  V30 5089 C 475.727 1.46801 6.08441 0
M  V30 5090 H 475.96 1.42207 2.61083 0
M  V30 5091 H 473.493 0.840651 1.29508 0
M  V30 5092 H 475.451 -0.610405 4.05936 0
M  V30 5093 H 474.112 -1.02748 2.96819 0
M  V30 5094 H 473.305 0.149911 5.03777 0
M  V30 5095 H 472.907 1.08647 3.57871 0
M  V30 5096 H 475.199 0.755522 6.73274 0
M  V30 5097 H 476.142 2.27946 6.70407 0
M  V30 5098 H 476.55 0.964762 5.56195 0
M  V30 5099 N 475.948 -1.35272 0.808662 0
M  V30 5100 C 477.194 -1.99003 0.390581 0
M  V30 5101 C 477.527 -1.63999 -1.0401 0
M  V30 5102 O 476.802 -0.904368 -1.72196 0
M  V30 5103 C 477.085 -3.55454 0.576566 0
M  V30 5104 C 476.938 -4.00249 2.05233 0
M  V30 5105 C 478.257 -4.401 0.00354277 0
M  V30 5106 H 475.376 -0.722917 0.143388 0
M  V30 5107 H 478.018 -1.6039 1.01858 0
M  V30 5108 H 476.168 -3.88477 0.0419766 0
M  V30 5109 H 477.84 -3.77626 2.64946 0
M  V30 5110 H 476.083 -3.51082 2.54801 0
M  V30 5111 H 476.754 -5.0911 2.13333 0
M  V30 5112 H 479.23 -4.13548 0.460117 0
M  V30 5113 H 478.106 -5.48656 0.163575 0
M  V30 5114 H 478.367 -4.28444 -1.09032 0
M  V30 5115 N 477.426 -0.562348 -1.47226 0
M  V30 5116 C 478.651 -0.0432632 -2.07355 0
M  V30 5117 C 479.076 1.24332 -1.41149 0
M  V30 5118 O 478.434 1.74603 -0.488226 0
M  V30 5119 C 478.482 0.130288 -3.60365 0
M  V30 5120 O 477.586 1.19166 -3.94808 0
M  V30 5121 H 476.927 -0.0536334 -0.66183 0
M  V30 5122 H 479.457 -0.779495 -1.89169 0
M  V30 5123 H 479.467 0.342881 -4.06557 0
M  V30 5124 H 478.142 -0.809389 -4.07948 0
M  V30 5125 H 476.719 0.959153 -3.60354 0
M  V30 5126 N 478.904 1.54736 -0.299062 0
M  V30 5127 C 480.152 1.99706 0.31017 0
M  V30 5128 C 480.473 1.18896 1.54559 0
M  V30 5129 O 479.743 0.284445 1.93824 0
M  V30 5130 H 478.323 0.737686 0.117596 0
M  V30 5131 H 480.985 1.9054 -0.409943 0
M  V30 5132 H 480.081 3.06596 0.58355 0
M  V30 5133 N 480.382 0.0267497 1.57577 0
M  V30 5134 C 481.312 -0.954308 2.13108 0
M  V30 5135 C 482.293 -1.34088 1.04663 0
M  V30 5136 O 483.478 -1.41992 1.32484 0
M  V30 5137 C 480.608 -2.23744 2.65624 0
M  V30 5138 C 479.562 -1.99168 3.78835 0
M  V30 5139 C 478.888 -3.33726 4.17769 0
M  V30 5140 C 480.188 -1.33277 5.0501 0
M  V30 5141 H 481.882 -0.491848 2.95332 0
M  V30 5142 H 479.428 -0.23514 1.42067 0
M  V30 5143 H 481.381 -2.92754 3.03106 0
M  V30 5144 H 480.105 -2.72151 1.80558 0
M  V30 5145 H 478.764 -1.32577 3.41788 0
M  V30 5146 H 478.412 -3.79888 3.29688 0
M  V30 5147 H 478.112 -3.18089 4.94058 0
M  V30 5148 H 479.636 -4.04008 4.57832 0
M  V30 5149 H 481.05 -1.92283 5.40093 0
M  V30 5150 H 479.447 -1.28045 5.8628 0
M  V30 5151 H 480.517 -0.305411 4.83937 0
M  V30 5152 N 481.861 -1.55662 -0.24637 0
M  V30 5153 C 483.107 -1.77782 -0.975779 0
M  V30 5154 C 483.44 -0.592103 -1.84953 0
M  V30 5155 O 482.715 0.409588 -1.90138 0
M  V30 5156 C 482.998 -3.09788 -1.83584 0
M  V30 5157 C 482.851 -4.38764 -0.990241 0
M  V30 5158 C 484.17 -3.38029 -2.81823 0
M  V30 5159 H 481.289 -0.646789 -0.353317 0
M  V30 5160 H 483.931 -1.88398 -0.246248 0
M  V30 5161 H 482.081 -3.00869 -2.45784 0
M  V30 5162 H 483.753 -4.59675 -0.386897 0
M  V30 5163 H 481.996 -4.32798 -0.294626 0
M  V30 5164 H 482.667 -5.27514 -1.62584 0
M  V30 5165 H 485.143 -3.46915 -2.2976 0
M  V30 5166 H 484.019 -4.3161 -3.39122 0
M  V30 5167 H 484.28 -2.58968 -3.58313 0
M  V30 5168 N 483.339 0.512053 -1.4905 0
M  V30 5169 C 484.286 1.6148 -1.64902 0
M  V30 5170 C 485.256 1.58687 -0.490673 0
M  V30 5171 O 486.441 1.76842 -0.71636 0
M  V30 5172 C 483.581 2.99676 -1.71139 0
M  V30 5173 C 482.694 3.12568 -2.98203 0
M  V30 5174 C 481.829 4.4143 -2.95487 0
M  V30 5175 C 480.868 4.47916 -4.17179 0
M  V30 5176 N 480.005 5.68191 -4.12437 0
M  V30 5177 H 484.845 1.47271 -2.59066 0
M  V30 5178 H 482.382 0.716713 -1.28459 0
M  V30 5179 H 484.34 3.79761 -1.72736 0
M  V30 5180 H 482.97 3.12614 -0.804508 0
M  V30 5181 H 482.022 2.25618 -3.06269 0
M  V30 5182 H 483.334 3.1322 -3.88194 0
M  V30 5183 H 482.488 5.29825 -2.95585 0
M  V30 5184 H 481.227 4.43326 -2.03256 0
M  V30 5185 H 480.232 3.57925 -4.17337 0
M  V30 5186 H 481.457 4.47744 -5.1059 0
M  V30 5187 H 479.403 5.7095 -3.23036 0
M  V30 5188 H 479.32 5.70413 -4.96151 0
M  V30 5189 H 480.588 6.58823 -4.16621 0
M  V30 5190 N 484.817 1.37938 0.762283 0
M  V30 5191 C 485.747 1.37176 1.88958 0
M  V30 5192 C 486.728 0.238945 1.68413 0
M  V30 5193 O 487.913 0.440726 1.89133 0
M  V30 5194 C 485.043 1.18742 3.2637 0
M  V30 5195 C 483.997 2.29136 3.61498 0
M  V30 5196 C 483.323 1.95816 4.97554 0
M  V30 5197 C 484.623 3.71363 3.6727 0
M  V30 5198 H 486.317 2.31509 1.89853 0
M  V30 5199 H 483.863 1.11438 0.912005 0
M  V30 5200 H 485.816 1.16837 4.04879 0
M  V30 5201 H 484.54 0.208683 3.25933 0
M  V30 5202 H 483.199 2.30213 2.85303 0
M  V30 5203 H 482.847 0.964475 4.93667 0
M  V30 5204 H 482.547 2.69745 5.22026 0
M  V30 5205 H 484.071 1.95513 5.78452 0
M  V30 5206 H 485.485 3.72364 4.35911 0
M  V30 5207 H 483.882 4.44425 4.03245 0
M  V30 5208 H 484.952 4.04305 2.67704 0
M  V30 5209 N 486.295 -0.989507 1.22664 0
M  V30 5210 C 487.543 -1.72612 1.05117 0
M  V30 5211 C 487.864 -1.90552 -0.414131 0
M  V30 5212 O 487.134 -1.4676 -1.29762 0
M  V30 5213 H 485.714 -0.639555 0.385977 0
M  V30 5214 H 488.376 -1.19158 1.54232 0
M  V30 5215 H 487.472 -2.71926 1.53175 0
M  V30 5216 N 487.773 -1.03688 -1.18687 0
M  V30 5217 C 489.022 -0.733235 -1.879 0
M  V30 5218 C 489.335 0.741745 -1.8099 0
M  V30 5219 O 490.541 1.15875 -2.4553 0
M  V30 5220 C 488.997 -1.26127 -3.37076 0
M  V30 5221 C 488.605 -2.76461 -3.52524 0
M  V30 5222 C 490.349 -1.03398 -4.11715 0
M  V30 5223 C 488.256 -3.22642 -4.95637 0
M  V30 5224 H 487.186 -0.270584 -0.703776 0
M  V30 5225 H 489.837 -1.25222 -1.34133 0
M  V30 5226 H 488.219 -0.670165 -3.90288 0
M  V30 5227 H 489.393 -3.41296 -3.09602 0
M  V30 5228 H 487.708 -2.97559 -2.91286 0
M  V30 5229 H 490.305 -1.3542 -5.17267 0
M  V30 5230 H 490.648 0.0289246 -4.1629 0
M  V30 5231 H 491.181 -1.5895 -3.64664 0
M  V30 5232 H 487.92 -4.28296 -4.96228 0
M  V30 5233 H 487.44 -2.62539 -5.39289 0
M  V30 5234 H 489.119 -3.16444 -5.64333 0
M  V30 5235 N 489.251 1.34841 -0.815825 0
M  V30 5236 C 490.181 2.32187 -0.247298 0
M  V30 5237 C 491.162 1.5791 0.632344 0
M  V30 5238 O 492.347 1.8593 0.560698 0
M  V30 5239 C 489.477 3.42122 0.597466 0
M  V30 5240 C 488.431 4.27602 -0.184446 0
M  V30 5241 C 487.757 5.28942 0.782609 0
M  V30 5242 C 489.057 5.03502 -1.38865 0
M  V30 5243 H 490.751 2.79985 -1.06061 0
M  V30 5244 H 488.297 1.34611 -0.511461 0
M  V30 5245 H 490.25 4.09232 1.00533 0
M  V30 5246 H 488.974 2.92956 1.44376 0
M  V30 5247 H 487.633 3.62085 -0.573592 0
M  V30 5248 H 487.281 4.7604 1.62466 0
M  V30 5249 H 486.981 5.87008 0.263695 0
M  V30 5250 H 488.505 5.98922 1.18848 0
M  V30 5251 H 489.919 5.63506 -1.05518 0
M  V30 5252 H 488.316 5.71108 -1.8427 0
M  V30 5253 H 489.386 4.33608 -2.17054 0
M  V30 5254 N 490.729 0.570148 1.46925 0
M  V30 5255 C 491.676 -0.170257 2.30171 0
M  V30 5256 C 492.646 -0.896099 1.39855 0
M  V30 5257 O 493.831 -0.889248 1.68811 0
M  V30 5258 C 490.971 -1.18605 3.24079 0
M  V30 5259 C 490.084 -0.464947 4.29491 0
M  V30 5260 C 489.219 -1.46716 5.10537 0
M  V30 5261 C 488.258 -0.731758 6.0771 0
M  V30 5262 N 487.395 -1.68142 6.81669 0
M  V30 5263 H 492.235 0.545713 2.92961 0
M  V30 5264 H 489.772 0.280938 1.44392 0
M  V30 5265 H 491.73 -1.78771 3.76957 0
M  V30 5266 H 490.36 -1.86989 2.63125 0
M  V30 5267 H 489.412 0.251506 3.79568 0
M  V30 5268 H 490.724 0.110548 4.98677 0
M  V30 5269 H 489.878 -2.14199 5.6763 0
M  V30 5270 H 488.617 -2.07658 4.41282 0
M  V30 5271 H 487.622 -0.0430787 5.49783 0
M  V30 5272 H 488.847 -0.127904 6.7898 0
M  V30 5273 H 486.793 -2.27918 6.15134 0
M  V30 5274 H 486.71 -1.15841 7.47072 0
M  V30 5275 H 487.978 -2.347 7.43328 0
M  V30 5276 N 492.207 -1.54576 0.307264 0
M  V30 5277 C 493.455 -1.99867 -0.299574 0
M  V30 5278 C 493.776 -1.19714 -1.53927 0
M  V30 5279 O 493.046 -0.29472 -1.9367 0
M  V30 5280 H 491.626 -0.738299 -0.113683 0
M  V30 5281 H 494.288 -1.9032 0.420042 0
M  V30 5282 H 493.384 -3.06901 -0.567283 0
M  V30 5283 N 493.685 -0.035106 -1.57561 0
M  V30 5284 C 494.962 0.681212 -1.83354 0
M  V30 5285 C 495.342 1.89986 -0.920252 0
M  V30 5286 O 494.69 2.28489 0.0226815 0
M  V30 5287 C 494.9 1.05376 -3.32712 0
M  V30 5288 C 496.248 1.44286 -3.99333 0
M  V30 5289 O 497.272 1.14656 -3.37242 0
M  V30 5290 O 496.131 1.99518 -5.08778 0
M  V30 5291 H 493.225 0.334741 -0.756226 0
M  V30 5292 H 495.771 -0.0632448 -1.69582 0
M  V30 5293 H 494.543 0.186668 -3.90854 0
M  V30 5294 H 494.166 1.85619 -3.51613 0
M  V30 5295 N 495.163 1.55791 0.238111 0
M  V30 5296 C 496.409 1.78297 0.966337 0
M  V30 5297 C 496.742 0.601903 1.84637 0
M  V30 5298 O 496.017 -0.399499 1.90353 0
M  V30 5299 C 496.3 3.10758 1.81939 0
M  V30 5300 C 496.153 4.39283 0.966958 0
M  V30 5301 C 497.472 3.39519 2.80027 0
M  V30 5302 H 494.591 0.648654 0.349882 0
M  V30 5303 H 497.233 1.88525 0.236253 0
M  V30 5304 H 495.383 3.02168 2.44185 0
M  V30 5305 H 497.055 4.59873 0.362514 0
M  V30 5306 H 495.298 4.32948 0.271669 0
M  V30 5307 H 495.969 5.28368 1.59784 0
M  V30 5308 H 498.445 3.48128 2.27917 0
M  V30 5309 H 497.321 4.33402 3.36829 0
M  V30 5310 H 497.582 2.60864 3.56934 0
M  V30 5311 N 496.642 -0.504142 1.49319 0
M  V30 5312 C 497.919 -1.26548 1.49147 0
M  V30 5313 C 498.299 -2.09977 0.21744 0
M  V30 5314 O 497.647 -2.14028 -0.800269 0
M  V30 5315 C 497.857 -2.12489 2.76857 0
M  V30 5316 C 499.205 -2.7178 3.26222 0
M  V30 5317 O 500.229 -2.22758 2.77952 0
M  V30 5318 O 499.088 -3.61015 4.10281 0
M  V30 5319 H 496.182 -0.572495 0.596806 0
M  V30 5320 H 498.728 -0.51867 1.61579 0
M  V30 5321 H 497.5 -1.50796 3.61077 0
M  V30 5322 H 497.123 -2.94368 2.6727 0
M  V30 5323 N 498.12 -1.38341 -0.754957 0
M  V30 5324 C 499.03 -1.3769 -1.89944 0
M  V30 5325 C 500.046 -0.274194 -1.71826 0
M  V30 5326 O 501.222 -0.512391 -1.94773 0
M  V30 5327 C 498.287 -1.19938 -3.25293 0
M  V30 5328 C 497.348 -2.40001 -3.55946 0
M  V30 5329 C 496.581 -2.23087 -4.84838 0
M  V30 5330 O 496.804 -1.22386 -5.57116 0
M  V30 5331 O 495.738 -3.11646 -5.14937 0
M  V30 5332 H 499.564 -2.3412 -1.93446 0
M  V30 5333 H 497.149 -1.19246 -0.900044 0
M  V30 5334 H 499.031 -1.12093 -4.06218 0
M  V30 5335 H 497.706 -0.265919 -3.22606 0
M  V30 5336 H 496.613 -2.53421 -2.75188 0
M  V30 5337 H 497.946 -3.31973 -3.63394 0
M  V30 5338 N 499.598 0.982988 -1.23187 0
M  V30 5339 C 500.528 2.09301 -1.03515 0
M  V30 5340 C 501.509 1.70035 0.0471136 0
M  V30 5341 O 502.694 1.93847 -0.117029 0
M  V30 5342 C 499.824 3.4167 -0.622791 0
M  V30 5343 C 498.778 3.94828 -1.65211 0
M  V30 5344 C 498.104 5.23362 -1.09527 0
M  V30 5345 C 499.404 4.2439 -3.04451 0
M  V30 5346 H 501.098 2.26016 -1.96359 0
M  V30 5347 H 498.644 1.08611 -0.945501 0
M  V30 5348 H 500.597 4.18746 -0.472233 0
M  V30 5349 H 499.321 3.24811 0.341329 0
M  V30 5350 H 497.98 3.19895 -1.79061 0
M  V30 5351 H 497.628 5.02852 -0.122211 0
M  V30 5352 H 497.328 5.59895 -1.783 0
M  V30 5353 H 498.852 6.03062 -0.956511 0
M  V30 5354 H 500.266 4.92225 -2.93917 0
M  V30 5355 H 498.663 4.72118 -3.70438 0
M  V30 5356 H 499.733 3.31765 -3.53638 0
M  V30 5357 N 501.076 1.04316 1.18135 0
M  V30 5358 C 502.325 0.74319 1.87509 0
M  V30 5359 C 502.638 -0.732136 1.81381 0
M  V30 5360 O 503.844 -1.14572 2.46141 0
M  V30 5361 C 502.3 1.27913 3.36402 0
M  V30 5362 C 501.908 2.78326 3.51053 0
M  V30 5363 C 503.652 1.0558 4.11161 0
M  V30 5364 C 501.559 3.25266 4.93919 0
M  V30 5365 H 500.489 0.274313 0.702331 0
M  V30 5366 H 503.14 1.25931 1.33467 0
M  V30 5367 H 501.522 0.690853 3.89927 0
M  V30 5368 H 502.696 3.42933 3.07788 0
M  V30 5369 H 501.011 2.991 2.89704 0
M  V30 5370 H 503.608 1.38161 5.16542 0
M  V30 5371 H 503.951 -0.00684729 4.16299 0
M  V30 5372 H 504.484 1.60882 3.63816 0
M  V30 5373 H 501.223 4.30922 4.9395 0
M  V30 5374 H 500.743 2.65396 5.3789 0
M  V30 5375 H 502.422 3.19433 5.62647 0
M  V30 5376 N 502.554 -1.34406 0.822964 0
M  V30 5377 C 503.517 -2.2783 0.250271 0
M  V30 5378 C 504.517 -1.50288 -0.571854 0
M  V30 5379 O 505.707 -1.69825 -0.387952 0
M  V30 5380 C 502.839 -3.34663 -0.649137 0
M  V30 5381 H 504.032 -2.79992 1.07444 0
M  V30 5382 H 501.585 -1.44539 0.594829 0
M  V30 5383 H 502.32 -2.87714 -1.49637 0
M  V30 5384 H 502.105 -3.92052 -0.0611199 0
M  V30 5385 H 503.595 -4.04349 -1.04363 0
M  V30 5386 N 504.032 -0.577932 -1.46621 0
M  V30 5387 C 504.964 0.195801 -2.28362 0
M  V30 5388 C 505.977 0.859983 -1.38232 0
M  V30 5389 O 507.166 0.730349 -1.62875 0
M  V30 5390 C 504.266 1.29639 -3.13124 0
M  V30 5391 C 503.439 0.725049 -4.31349 0
M  V30 5392 C 502.498 1.71274 -4.97546 0
M  V30 5393 O 501.524 1.25067 -5.5529 0
M  V30 5394 N 502.726 3.04672 -4.94121 0
M  V30 5395 H 505.491 -0.505468 -2.95407 0
M  V30 5396 H 503.052 -0.415381 -1.56481 0
M  V30 5397 H 505.044 1.95631 -3.54275 0
M  V30 5398 H 503.614 1.90059 -2.48186 0
M  V30 5399 H 502.834 -0.112205 -3.9404 0
M  V30 5400 H 504.122 0.323034 -5.07774 0
M  V30 5401 H 503.52 3.4484 -4.48444 0
M  V30 5402 H 502.077 3.66166 -5.39227 0
M  V30 5403 N 505.51 1.54411 -0.315457 0
M  V30 5404 C 506.458 2.25514 0.569771 0
M  V30 5405 C 507.452 1.2663 1.12522 0
M  V30 5406 O 508.658 1.44434 1.07419 0
M  V30 5407 H 505.033 0.724257 0.202376 0
M  V30 5408 H 507.004 2.98354 -0.0522895 0
M  V30 5409 C 505.753 3.02004 1.72305 0
M  V30 5410 H 505.076 3.77906 1.30488 0
M  V30 5411 H 506.516 3.55014 2.31821 0
M  V30 5412 C 504.975 2.09822 2.63583 0
M  V30 5413 O 505.505 1.67574 3.65078 0
M  V30 5414 N 503.711 1.75478 2.31637 0
M  V30 5415 H 503.258 2.10032 1.49145 0
M  V30 5416 H 503.216 1.14079 2.92973 0
M  V30 5417 N 506.988 0.0434614 1.5754 0
M  V30 5418 C 507.951 -0.918696 2.09982 0
M  V30 5419 C 508.951 -1.24488 1.01781 0
M  V30 5420 O 510.141 -1.18284 1.27885 0
M  V30 5421 C 507.273 -2.23093 2.57764 0
M  V30 5422 H 508.466 -0.464229 2.96285 0
M  V30 5423 H 506.019 -0.204818 1.54952 0
M  V30 5424 H 506.754 -2.73137 1.74832 0
M  V30 5425 H 506.539 -2.00724 3.36827 0
M  V30 5426 H 508.029 -2.92028 2.98512 0
M  V30 5427 N 508.466 -1.55915 -0.229846 0
M  V30 5428 C 509.416 -1.8813 -1.28807 0
M  V30 5429 C 510.4 -0.743621 -1.42685 0
M  V30 5430 O 511.592 -1.00588 -1.4564 0
M  V30 5431 C 508.721 -2.19431 -2.64017 0
M  V30 5432 C 507.807 -3.39569 -2.54074 0
M  V30 5433 N 508.198 -4.58404 -2.13774 0
M  V30 5434 C 506.496 -3.43019 -2.85051 0
M  V30 5435 C 507.197 -5.40557 -2.1488 0
M  V30 5436 N 506.173 -4.80054 -2.55047 0
M  V30 5437 H 509.975 -2.77527 -0.967261 0
M  V30 5438 H 507.489 -1.5637 -0.438433 0
M  V30 5439 H 509.486 -2.40681 -3.40409 0
M  V30 5440 H 508.146 -1.31341 -2.9695 0
M  V30 5441 H 509.157 -4.83716 -1.8504 0
M  V30 5442 H 505.834 -2.65249 -3.22411 0
M  V30 5443 H 507.224 -6.45666 -1.85918 0
M  V30 5444 N 509.944 0.496216 -1.49584 0
M  V30 5445 C 511.36 0.827814 -1.36453 0
M  V30 5446 C 511.56 1.97464 -0.401285 0
M  V30 5447 O 510.616 2.51958 0.165296 0
M  V30 5448 C 511.929 1.16352 -2.77277 0
M  V30 5449 C 513.477 1.27145 -2.86013 0
M  V30 5450 C 513.952 1.64042 -4.27615 0
M  V30 5451 N 515.443 1.71082 -4.30448 0
M  V30 5452 C 516.178 2.01085 -5.36984 0
M  V30 5453 N 515.674 2.2928 -6.5376 0
M  V30 5454 N 517.467 2.02376 -5.24405 0
M  V30 5455 H 509.618 -0.259947 -2.10803 0
M  V30 5456 H 511.881 -0.0537163 -0.946477 0
M  V30 5457 H 511.587 0.394153 -3.49484 0
M  V30 5458 H 511.461 2.10582 -3.12946 0
M  V30 5459 H 513.848 2.03152 -2.1404 0
M  V30 5460 H 513.929 0.309542 -2.5392 0
M  V30 5461 H 513.573 0.88583 -5.00115 0
M  V30 5462 H 513.503 2.6134 -4.57175 0
M  V30 5463 H 515.994 1.51434 -3.46232 0
M  V30 5464 H 516.307 2.51376 -7.30774 0
M  V30 5465 H 514.652 2.26726 -6.56978 0
M  V30 5466 H 517.843 1.79829 -4.32179 0
M  V30 5467 H 518.016 2.25425 -6.07526 0
M  V30 5468 N 511.423 1.38739 0.74761 0
M  V30 5469 C 512.834 1.31507 1.32524 0
M  V30 5470 C 513.185 -0.0263963 1.96182 0
M  V30 5471 O 512.31 -0.92849 1.95469 0
M  V30 5472 C 512.905 2.38162 2.40966 0
M  V30 5473 C 511.464 2.34489 2.94434 0
M  V30 5474 C 510.611 2.20712 1.67873 0
M  V30 5475 H 513.562 1.4901 0.546043 0
M  V30 5476 H 513.583 2.04222 3.21051 0
M  V30 5477 H 513.095 3.35783 1.94605 0
M  V30 5478 H 511.196 1.40467 3.45108 0
M  V30 5479 H 511.309 3.28861 3.48407 0
M  V30 5480 H 509.673 1.67667 1.91729 0
M  V30 5481 H 510.456 3.20285 1.23582 0
M  V30 5482 N 512.901 -0.976442 1.23707 0
M  V30 5483 C 514.148 -1.71827 1.07153 0
M  V30 5484 C 514.476 -1.9053 -0.390982 0
M  V30 5485 O 513.731 -1.45779 -1.30564 0
M  V30 5486 C 514.03 -3.11814 1.74662 0
M  V30 5487 C 513.696 -3.12978 3.24585 0
M  V30 5488 C 512.358 -3.13003 3.6549 0
M  V30 5489 C 514.71 -3.07986 4.20469 0
M  V30 5490 C 512.038 -3.05757 5.00729 0
M  V30 5491 C 514.39 -3.02282 5.55705 0
M  V30 5492 C 513.054 -3.00631 5.95968 0
M  V30 5493 H 512.324 -0.628758 0.392102 0
M  V30 5494 H 514.971 -1.14239 1.53693 0
M  V30 5495 H 513.276 -3.72812 1.20492 0
M  V30 5496 H 514.973 -3.67989 1.59328 0
M  V30 5497 H 511.563 -3.13718 2.92026 0
M  V30 5498 H 515.747 -3.07103 3.89874 0
M  V30 5499 H 511.003 -3.02834 5.31132 0
M  V30 5500 H 515.177 -2.97376 6.29714 0
M  V30 5501 H 512.804 -2.94771 7.00724 0
M  V30 5502 N 514.379 -1.04941 -1.1758 0
M  V30 5503 C 515.626 -0.757989 -1.87779 0
M  V30 5504 C 515.954 0.714827 -1.80888 0
M  V30 5505 O 515.209 1.53824 -1.20982 0
M  V30 5506 C 515.508 -1.18062 -3.37337 0
M  V30 5507 C 515.174 -2.65521 -3.6443 0
M  V30 5508 C 513.836 -3.05804 -3.71534 0
M  V30 5509 C 516.188 -3.60822 -3.76108 0
M  V30 5510 C 513.516 -4.40256 -3.87803 0
M  V30 5511 C 515.868 -4.95005 -3.93895 0
M  V30 5512 C 514.532 -5.34945 -3.99237 0
M  V30 5513 H 513.802 -0.277368 -0.68713 0
M  V30 5514 H 516.449 -1.31603 -1.39115 0
M  V30 5515 H 514.754 -0.541525 -3.8804 0
M  V30 5516 H 516.451 -0.932368 -3.9001 0
M  V30 5517 H 513.041 -2.33324 -3.59524 0
M  V30 5518 H 517.225 -3.30841 -3.69943 0
M  V30 5519 H 512.481 -4.70707 -3.90186 0
M  V30 5520 H 516.655 -5.68746 -4.01872 0
M  V30 5521 H 514.282 -6.39135 -4.11596 0
M  V30 5522 N 515.857 1.33968 -0.830081 0
M  V30 5523 C 516.79 2.27303 -0.202182 0
M  V30 5524 C 517.768 1.49235 0.645581 0
M  V30 5525 O 518.952 1.78433 0.607762 0
M  V30 5526 C 516.079 3.31025 0.716932 0
M  V30 5527 C 515.125 4.26466 -0.0542271 0
M  V30 5528 S 515.958 5.16707 -1.40622 0
M  V30 5529 C 517.114 6.23962 -0.492167 0
M  V30 5530 H 517.347 2.8021 -0.99346 0
M  V30 5531 H 514.88 1.41124 -0.626359 0
M  V30 5532 H 516.838 3.91271 1.24165 0
M  V30 5533 H 515.499 2.76951 1.4818 0
M  V30 5534 H 514.692 4.99858 0.644785 0
M  V30 5535 H 514.294 3.7051 -0.509722 0
M  V30 5536 H 516.586 6.76774 0.31347 0
M  V30 5537 H 517.529 6.97927 -1.19599 0
M  V30 5538 H 517.937 5.64447 -0.0774176 0
M  V30 5539 N 517.335 0.585699 1.46312 0
M  V30 5540 C 518.285 -0.166813 2.27389 0
M  V30 5541 C 519.269 -0.859076 1.36047 0
M  V30 5542 O 520.461 -0.752678 1.60199 0
M  V30 5543 C 517.59 -1.17791 3.2246 0
M  V30 5544 C 516.676 -0.487605 4.21288 0
M  V30 5545 N 517.067 0.45849 5.03718 0
M  V30 5546 C 515.365 -0.737971 4.39852 0
M  V30 5547 C 516.066 0.862213 5.75275 0
M  V30 5548 N 515.042 0.210707 5.43191 0
M  V30 5549 H 518.844 0.560167 2.88512 0
M  V30 5550 H 516.358 0.407715 1.57199 0
M  V30 5551 H 518.355 -1.73122 3.79255 0
M  V30 5552 H 517.015 -1.90568 2.62896 0
M  V30 5553 H 518.026 0.834163 5.11138 0
M  V30 5554 H 514.703 -1.45209 3.91434 0
M  V30 5555 H 516.093 1.64128 6.51546 0
M  V30 5556 N 518.813 -1.54241 0.323641 0
M  V30 5557 C 520.061 -2.00174 -0.278359 0
M  V30 5558 C 520.382 -1.2134 -1.52648 0
M  V30 5559 O 519.652 -0.315244 -1.93347 0
M  V30 5560 H 518.232 -0.739463 -0.105845 0
M  V30 5561 H 520.894 -1.89864 0.440204 0
M  V30 5562 H 519.99 -3.07486 -0.5347 0
M  V30 5563 N 520.291 -0.0518155 -1.57515 0
M  V30 5564 C 521.221 0.920283 -2.146 0
M  V30 5565 C 522.202 1.32406 -1.06783 0
M  V30 5566 O 523.387 1.39866 -1.34726 0
M  V30 5567 C 520.517 2.1949 -2.6915 0
M  V30 5568 C 519.471 1.93116 -3.81956 0
M  V30 5569 C 518.797 3.27037 -4.23026 0
M  V30 5570 C 520.097 1.25225 -5.07066 0
M  V30 5571 H 521.791 0.444801 -2.96077 0
M  V30 5572 H 519.337 0.212508 -1.42423 0
M  V30 5573 H 521.29 2.87894 -3.07725 0
M  V30 5574 H 520.014 2.69244 -1.84865 0
M  V30 5575 H 518.673 1.27123 -3.43854 0
M  V30 5576 H 518.321 3.74595 -3.3569 0
M  V30 5577 H 518.021 3.10189 -4.99056 0
M  V30 5578 H 519.545 3.96673 -4.64202 0
M  V30 5579 H 520.959 1.83666 -5.43083 0
M  V30 5580 H 519.356 1.18702 -5.88243 0
M  V30 5581 H 520.426 0.228382 -4.84362 0
M  V30 5582 N 521.769 1.56035 0.221574 0
M  V30 5583 C 522.994 1.83476 0.967026 0
M  V30 5584 C 523.419 0.632139 1.7716 0
M  V30 5585 O 522.777 -0.419082 1.7639 0
M  V30 5586 C 522.825 3.08907 1.86034 0
M  V30 5587 O 521.929 2.876 2.95567 0
M  V30 5588 H 521.27 0.604913 0.273817 0
M  V30 5589 H 523.8 2.03247 0.234893 0
M  V30 5590 H 523.81 3.3901 2.27016 0
M  V30 5591 H 522.485 3.96068 1.26898 0
M  V30 5592 H 521.062 2.6873 2.58532 0
M  V30 5593 N 523.247 -0.488276 1.49845 0
M  V30 5594 C 524.197 -1.58556 1.63842 0
M  V30 5595 C 525.181 -1.53142 0.493586 0
M  V30 5596 O 526.373 -1.60457 0.747169 0
M  V30 5597 C 523.502 -2.97101 1.72005 0
M  V30 5598 C 522.588 -3.07463 2.92108 0
M  V30 5599 N 522.979 -2.87681 4.16021 0
M  V30 5600 C 521.277 -3.3858 2.90309 0
M  V30 5601 C 521.978 -3.0256 4.96822 0
M  V30 5602 N 520.954 -3.32002 4.30437 0
M  V30 5603 H 524.756 -1.41935 2.57355 0
M  V30 5604 H 522.27 -0.694668 1.46793 0
M  V30 5605 H 524.267 -3.75976 1.80132 0
M  V30 5606 H 522.927 -3.14782 0.796375 0
M  V30 5607 H 523.938 -2.63603 4.45796 0
M  V30 5608 H 520.615 -3.62357 2.07372 0
M  V30 5609 H 522.005 -2.9165 6.05301 0
M  V30 5610 N 524.725 -1.39134 -0.740242 0
M  V30 5611 C 525.971 -1.37278 -1.50088 0
M  V30 5612 C 526.326 0.0329967 -1.92372 0
M  V30 5613 O 525.619 0.998447 -1.63529 0
M  V30 5614 C 525.813 -2.27457 -2.75678 0
M  V30 5615 C 525.642 -3.76662 -2.45674 0
M  V30 5616 C 524.412 -4.45617 -2.38229 0
M  V30 5617 C 526.61 -4.6877 -2.11563 0
M  V30 5618 N 524.592 -5.80187 -2.00641 0
M  V30 5619 C 525.963 -5.91951 -1.84376 0
M  V30 5620 C 528.018 -4.56843 -1.97987 0
M  V30 5621 C 526.721 -7.04538 -1.4498 0
M  V30 5622 C 528.747 -5.69347 -1.59994 0
M  V30 5623 C 528.109 -6.91597 -1.33687 0
M  V30 5624 H 524.208 -0.557611 -0.548265 0
M  V30 5625 H 526.792 -1.74638 -0.860784 0
M  V30 5626 H 524.963 -1.92263 -3.37475 0
M  V30 5627 H 526.695 -2.16631 -3.41838 0
M  V30 5628 H 523.45 -3.98993 -2.5515 0
M  V30 5629 H 523.874 -6.51387 -1.84454 0
M  V30 5630 H 528.516 -3.62868 -2.16995 0
M  V30 5631 H 526.234 -7.98419 -1.24712 0
M  V30 5632 H 529.82 -5.62104 -1.50102 0
M  V30 5633 H 528.7 -7.77176 -1.04728 0
M  V30 5634 N 526.204 0.969867 -1.24223 0
M  V30 5635 C 527.134 2.08191 -1.05729 0
M  V30 5636 C 528.115 1.70075 0.0290765 0
M  V30 5637 O 529.3 1.93712 -0.137583 0
M  V30 5638 C 526.43 3.40991 -0.658995 0
M  V30 5639 C 525.384 3.93054 -1.69389 0
M  V30 5640 C 524.71 5.22171 -1.15072 0
M  V30 5641 C 526.01 4.21137 -3.08935 0
M  V30 5642 H 527.704 2.23921 -1.98746 0
M  V30 5643 H 525.25 1.07602 -0.956967 0
M  V30 5644 H 527.203 4.18221 -0.51662 0
M  V30 5645 H 525.927 3.25155 0.30686 0
M  V30 5646 H 524.586 3.17977 -1.82444 0
M  V30 5647 H 524.234 5.02694 -0.175539 0
M  V30 5648 H 523.934 5.57973 -1.84229 0
M  V30 5649 H 525.458 6.02013 -1.02042 0
M  V30 5650 H 526.872 4.8908 -2.99121 0
M  V30 5651 H 525.269 4.68163 -3.75425 0
M  V30 5652 H 526.339 3.27996 -3.57137 0
M  V30 5653 N 527.682 1.05563 1.17022 0
M  V30 5654 C 528.93 0.76642 1.87004 0
M  V30 5655 C 529.251 -0.708854 1.8166 0
M  V30 5656 O 528.521 -1.51242 1.2451 0
M  V30 5657 H 527.101 0.280516 0.692329 0
M  V30 5658 H 529.763 1.33557 1.41945 0
M  V30 5659 H 528.859 1.08472 2.92644 0
M  V30 5660 N 529.16 -1.33526 0.837174 0
M  V30 5661 C 530.09 -2.31764 0.284206 0
M  V30 5662 C 531.071 -1.58896 -0.607142 0
M  V30 5663 O 532.256 -1.86798 -0.531047 0
M  V30 5664 C 529.386 -3.43029 -0.542962 0
M  V30 5665 C 528.34 -4.27255 0.252451 0
M  V30 5666 C 527.666 -5.3012 -0.69836 0
M  V30 5667 C 528.966 -5.01229 1.46858 0
M  V30 5668 H 530.66 -2.78262 1.10502 0
M  V30 5669 H 528.206 -1.3378 0.532812 0
M  V30 5670 H 530.159 -4.1078 -0.940096 0
M  V30 5671 H 528.883 -2.95216 -1.39697 0
M  V30 5672 H 527.542 -3.61127 0.631124 0
M  V30 5673 H 527.19 -4.78564 -1.54872 0
M  V30 5674 H 526.89 -5.87353 -0.170274 0
M  V30 5675 H 528.414 -6.00737 -1.09305 0
M  V30 5676 H 529.828 -5.61756 1.14469 0
M  V30 5677 H 528.225 -5.68104 1.93333 0
M  V30 5678 H 529.295 -4.301 2.23924 0
M  V30 5679 N 530.638 -0.59345 -1.46 0
M  V30 5680 C 531.915 -0.0157933 -1.95594 0
M  V30 5681 C 532.295 1.44807 -1.53604 0
M  V30 5682 O 531.643 2.14342 -0.791824 0
M  V30 5683 C 531.853 -0.199081 -3.48432 0
M  V30 5684 C 533.201 -0.0724943 -4.24538 0
M  V30 5685 O 534.225 -0.128469 -3.55968 0
M  V30 5686 O 533.084 0.0542426 -5.46473 0
M  V30 5687 H 530.178 0.043749 -0.825842 0
M  V30 5688 H 532.724 -0.662522 -1.56233 0
M  V30 5689 H 531.496 -1.21631 -3.71916 0
M  V30 5690 H 531.119 0.483576 -3.94648 0
M  V30 5691 N 532.116 1.54067 -0.331816 0
M  V30 5692 C 533.362 2.01012 0.268667 0
M  V30 5693 C 533.695 1.2195 1.51136 0
M  V30 5694 O 532.97 0.303972 1.9211 0
M  V30 5695 C 533.253 3.55158 0.59456 0
M  V30 5696 C 533.106 4.4494 -0.659409 0
M  V30 5697 C 534.425 4.16939 1.4089 0
M  V30 5698 H 531.544 0.730698 0.0961756 0
M  V30 5699 H 534.186 1.84593 -0.450031 0
M  V30 5700 H 532.336 3.6928 1.20685 0
M  V30 5701 H 534.008 4.42675 -1.29756 0
M  V30 5702 H 532.251 4.1428 -1.28665 0
M  V30 5703 H 532.922 5.50643 -0.386804 0
M  V30 5704 H 535.398 4.06443 0.891272 0
M  V30 5705 H 534.274 5.24889 1.60569 0
M  V30 5706 H 534.535 3.70798 2.40752 0
M  V30 5707 N 533.594 0.0601682 1.57485 0
M  V30 5708 C 534.544 -0.920969 2.08572 0
M  V30 5709 C 535.528 -1.26617 0.992827 0
M  V30 5710 O 536.72 -1.24708 1.25606 0
M  V30 5711 C 533.849 -2.19267 2.64153 0
M  V30 5712 C 532.935 -1.87447 3.80427 0
M  V30 5713 N 533.326 -1.26025 4.89848 0
M  V30 5714 C 531.624 -2.17265 3.89502 0
M  V30 5715 C 532.325 -1.12036 5.70809 0
M  V30 5716 N 531.301 -1.62624 5.18705 0
M  V30 5717 H 535.103 -0.441561 2.90564 0
M  V30 5718 H 532.617 -0.144043 1.6176 0
M  V30 5719 H 534.614 -2.90462 2.99061 0
M  V30 5720 H 533.274 -2.67806 1.83603 0
M  V30 5721 H 534.285 -0.931336 5.09457 0
M  V30 5722 H 530.962 -2.68262 3.19909 0
M  V30 5723 H 532.352 -0.642783 6.68818 0
M  V30 5724 N 535.072 -1.5615 -0.213296 0
M  V30 5725 C 536.349 -1.70349 -0.961281 0
M  V30 5726 C 536.729 -0.609791 -2.02101 0
M  V30 5727 O 536.077 0.381987 -2.25285 0
M  V30 5728 C 536.287 -3.11982 -1.56424 0
M  V30 5729 C 537.635 -3.71649 -2.05334 0
M  V30 5730 O 538.659 -3.14995 -1.66302 0
M  V30 5731 O 537.518 -4.71038 -2.77102 0
M  V30 5732 H 534.612 -0.694121 -0.449582 0
M  V30 5733 H 537.158 -1.68464 -0.204426 0
M  V30 5734 H 535.93 -3.83046 -0.799457 0
M  V30 5735 H 535.553 -3.18019 -2.38641 0
M  V30 5736 N 536.55 0.480323 -1.50102 0
M  V30 5737 C 537.796 1.23489 -1.60867 0
M  V30 5738 C 538.129 1.91809 -0.303827 0
M  V30 5739 O 537.404 1.81694 0.694092 0
M  V30 5740 C 537.687 2.28578 -2.78252 0
M  V30 5741 C 537.54 1.64624 -4.18592 0
M  V30 5742 C 538.859 3.2997 -2.91218 0
M  V30 5743 H 535.978 0.447605 -0.585507 0
M  V30 5744 H 538.62 0.530005 -1.82458 0
M  V30 5745 H 536.77 2.88697 -2.59974 0
M  V30 5746 H 538.442 1.08173 -4.48438 0
M  V30 5747 H 536.685 0.949645 -4.23278 0
M  V30 5748 H 537.356 2.40946 -4.96638 0
M  V30 5749 H 539.832 2.79864 -3.07921 0
M  V30 5750 H 538.708 4.00839 -3.74993 0
M  V30 5751 H 538.969 3.93541 -2.0144 0
M  V30 5752 N 538.028 1.39524 0.732853 0
M  V30 5753 C 539.276 1.36594 1.48951 0
M  V30 5754 C 539.597 -0.0367507 1.94965 0
M  V30 5755 O 538.867 -0.988391 1.69138 0
M  V30 5756 H 537.447 0.502673 0.552566 0
M  V30 5757 H 540.109 1.74411 0.869869 0
M  V30 5758 H 539.205 2.03 2.3706 0
M  V30 5759 N 539.506 -0.963266 1.24736 0
M  V30 5760 C 540.752 -1.70933 1.09131 0
M  V30 5761 C 541.085 -1.90676 -0.368273 0
M  V30 5762 O 540.36 -1.47147 -1.27193 0
M  V30 5763 C 540.643 -3.09744 1.83658 0
M  V30 5764 C 540.496 -2.97465 3.37394 0
M  V30 5765 C 541.815 -4.09483 1.61282 0
M  V30 5766 H 538.934 -0.620398 0.397838 0
M  V30 5767 H 541.576 -1.12028 1.53459 0
M  V30 5768 H 539.726 -3.60031 1.4598 0
M  V30 5769 H 541.398 -2.54571 3.84696 0
M  V30 5770 H 539.641 -2.33576 3.65547 0
M  V30 5771 H 540.312 -3.95822 3.84745 0
M  V30 5772 H 542.788 -3.68073 1.94066 0
M  V30 5773 H 541.664 -5.04666 2.15878 0
M  V30 5774 H 541.925 -4.38639 0.552102 0
M  V30 5775 N 540.985 -1.06182 -1.16461 0
M  V30 5776 C 542.215 -0.797425 -1.9059 0
M  V30 5777 C 542.623 0.651845 -1.77616 0
M  V30 5778 O 541.966 1.45788 -1.11766 0
M  V30 5779 C 542.028 -1.11128 -3.41893 0
M  V30 5780 C 541.692 -2.55874 -3.78652 0
M  V30 5781 C 542.689 -3.54104 -3.80665 0
M  V30 5782 C 540.374 -2.91144 -4.09317 0
M  V30 5783 C 542.368 -4.85645 -4.12829 0
M  V30 5784 C 540.055 -4.22885 -4.41148 0
M  V30 5785 C 541.053 -5.19945 -4.42883 0
M  V30 5786 O 540.741 -6.49322 -4.73959 0
M  V30 5787 H 540.473 -0.288709 -0.611247 0
M  V30 5788 H 543.027 -1.41841 -1.4856 0
M  V30 5789 H 541.257 -0.433217 -3.84266 0
M  V30 5790 H 542.946 -0.831306 -3.97296 0
M  V30 5791 H 543.712 -3.28197 -3.57088 0
M  V30 5792 H 539.591 -2.16252 -4.07131 0
M  V30 5793 H 543.135 -5.61398 -4.14099 0
M  V30 5794 H 539.032 -4.48551 -4.6419 0
M  V30 5795 H 539.8 -6.54294 -4.91774 0
M  V30 5796 N 542.463 1.3308 -0.844243 0
M  V30 5797 C 543.711 1.97215 -0.441676 0
M  V30 5798 C 544.032 1.67185 1.0037 0
M  V30 5799 O 543.302 0.973588 1.69994 0
M  V30 5800 H 541.882 0.72959 -0.160335 0
M  V30 5801 H 544.544 1.62348 -1.07838 0
M  V30 5802 H 543.64 3.06698 -0.57815 0
M  V30 5803 N 543.941 0.601185 1.45683 0
M  V30 5804 C 544.873 -0.159446 2.28645 0
M  V30 5805 C 545.886 -0.837882 1.39583 0
M  V30 5806 O 547.075 -0.704344 1.64016 0
M  V30 5807 C 544.175 -1.24641 3.15147 0
M  V30 5808 C 543.348 -0.656334 4.32448 0
M  V30 5809 C 542.407 -1.63337 5.00208 0
M  V30 5810 O 541.433 -1.16217 5.57209 0
M  V30 5811 N 542.635 -2.96773 4.98905 0
M  V30 5812 H 545.4 0.5524 2.94565 0
M  V30 5813 H 542.961 0.440223 1.558 0
M  V30 5814 H 544.953 -1.8997 3.57342 0
M  V30 5815 H 543.523 -1.86087 2.51178 0
M  V30 5816 H 542.743 0.174879 3.93812 0
M  V30 5817 H 544.031 -0.242211 5.08223 0
M  V30 5818 H 543.429 -3.37662 4.53873 0
M  V30 5819 H 541.986 -3.57541 5.44984 0
M  V30 5820 N 545.419 -1.53889 0.339982 0
M  V30 5821 C 546.696 -1.93084 -0.312719 0
M  V30 5822 C 547.076 -1.2712 -1.68534 0
M  V30 5823 O 546.424 -0.420835 -2.24591 0
M  V30 5824 C 546.634 -3.4683 -0.388558 0
M  V30 5825 C 547.982 -4.19732 -0.641088 0
M  V30 5826 O 549.006 -3.53075 -0.470818 0
M  V30 5827 O 547.865 -5.3781 -0.970685 0
M  V30 5828 H 544.959 -0.806784 -0.18174 0
M  V30 5829 H 547.505 -1.65137 0.390898 0
M  V30 5830 H 546.277 -3.87055 0.574821 0
M  V30 5831 H 545.9 -3.80933 -1.1391 0
M  V30 5832 N 546.897 -0.0685191 -1.57451 0
M  V30 5833 C 548.313 0.288101 -1.56978 0
M  V30 5834 C 548.513 1.70262 -1.07765 0
M  V30 5835 O 547.569 2.4135 -0.742054 0
M  V30 5836 C 548.882 0.100745 -3.00531 0
M  V30 5837 C 550.43 0.170531 -3.12535 0
M  V30 5838 C 550.905 0.0114944 -4.57999 0
M  V30 5839 N 552.396 0.0672065 -4.63151 0
M  V30 5840 C 553.131 -0.0314813 -5.73391 0
M  V30 5841 N 552.627 -0.183503 -6.92557 0
M  V30 5842 N 554.42 0.0253489 -5.62094 0
M  V30 5843 H 546.571 -0.993026 -1.87757 0
M  V30 5844 H 548.834 -0.386981 -0.865419 0
M  V30 5845 H 548.54 -0.875197 -3.40636 0
M  V30 5846 H 548.414 0.854457 -3.67395 0
M  V30 5847 H 550.801 1.13696 -2.72318 0
M  V30 5848 H 550.882 -0.614229 -2.48316 0
M  V30 5849 H 550.526 -0.951684 -4.98904 0
M  V30 5850 H 550.456 0.815617 -5.20245 0
M  V30 5851 H 552.947 0.183246 -3.77455 0
M  V30 5852 H 553.26 -0.251041 -7.72392 0
M  V30 5853 H 551.605 -0.218822 -6.94655 0
M  V30 5854 H 554.796 0.142794 -4.67882 0
M  V30 5855 H 554.969 -0.0550166 -6.47977 0
M  V30 5856 N 548.375 1.56261 0.205012 0
M  V30 5857 C 549.6 1.84491 0.947512 0
M  V30 5858 C 550.025 0.650894 1.76479 0
M  V30 5859 O 549.383 -0.40035 1.76824 0
M  V30 5860 C 549.431 3.10863 1.82747 0
M  V30 5861 O 548.535 2.90719 2.925 0
M  V30 5862 H 547.876 0.607783 0.267386 0
M  V30 5863 H 550.406 2.03485 0.213323 0
M  V30 5864 H 550.416 3.41399 2.23407 0
M  V30 5865 H 549.091 3.97392 1.2269 0
M  V30 5866 H 547.668 2.71457 2.55667 0
M  V30 5867 N 549.853 -0.472356 1.50355 0
M  V30 5868 C 551.269 -0.806001 1.37753 0
M  V30 5869 C 551.469 -1.968 0.432649 0
M  V30 5870 O 550.525 -2.52189 -0.12519 0
M  V30 5871 C 551.838 -1.11926 2.79093 0
M  V30 5872 C 553.386 -1.22579 2.87999 0
M  V30 5873 C 553.861 -1.57218 4.3017 0
M  V30 5874 N 555.352 -1.64212 4.33115 0
M  V30 5875 C 556.087 -1.92517 5.40116 0
M  V30 5876 N 555.583 -2.1885 6.57325 0
M  V30 5877 N 557.376 -1.94008 5.27558 0
M  V30 5878 H 549.527 0.293451 2.10363 0
M  V30 5879 H 551.79 0.0687672 0.945503 0
M  V30 5880 H 551.496 -0.338504 3.50067 0
M  V30 5881 H 551.37 -2.05577 3.16256 0
M  V30 5882 H 553.757 -1.99722 2.17245 0
M  V30 5883 H 553.838 -0.269107 2.54381 0
M  V30 5884 H 553.482 -0.806154 5.01461 0
M  V30 5885 H 553.412 -2.54034 4.61275 0
M  V30 5886 H 555.903 -1.45906 3.48597 0
M  V30 5887 H 556.216 -2.39718 7.3468 0
M  V30 5888 H 554.561 -2.16245 6.60502 0
M  V30 5889 H 557.752 -1.72931 4.34986 0
M  V30 5890 H 557.925 -2.15731 6.11035 0
M  V30 5891 N 551.331 -1.39911 -0.725443 0
M  V30 5892 C 552.58 -1.36963 -1.48068 0
M  V30 5893 C 552.893 0.0284478 -1.95579 0
M  V30 5894 O 554.099 0.180535 -2.70899 0
M  V30 5895 C 552.555 -2.40664 -2.67598 0
M  V30 5896 C 552.163 -3.86234 -2.26997 0
M  V30 5897 C 553.907 -2.46807 -3.45379 0
M  V30 5898 C 551.814 -4.81554 -3.43307 0
M  V30 5899 H 550.744 -0.509223 -0.556065 0
M  V30 5900 H 553.395 -1.65602 -0.790454 0
M  V30 5901 H 551.777 -2.05109 -3.38742 0
M  V30 5902 H 552.951 -4.3088 -1.63337 0
M  V30 5903 H 551.266 -3.83475 -1.62284 0
M  V30 5904 H 553.863 -3.15213 -4.31909 0
M  V30 5905 H 554.206 -1.49552 -3.8851 0
M  V30 5906 H 554.739 -2.81303 -2.81271 0
M  V30 5907 H 551.478 -5.80106 -3.05217 0
M  V30 5908 H 550.998 -4.4158 -4.05915 0
M  V30 5909 H 552.677 -5.0091 -4.0951 0
M  V30 5910 N 552.809 0.956637 -1.25245 0
M  V30 5911 C 553.739 2.07058 -1.07931 0
M  V30 5912 C 554.72 1.70096 0.0110361 0
M  V30 5913 O 555.905 1.93555 -0.158121 0
M  V30 5914 C 553.035 3.40272 -0.695124 0
M  V30 5915 C 551.989 3.91235 -1.73549 0
M  V30 5916 C 551.315 5.20921 -1.20604 0
M  V30 5917 C 552.615 4.17837 -3.13385 0
M  V30 5918 H 554.309 2.218 -2.01109 0
M  V30 5919 H 551.855 1.06581 -0.968326 0
M  V30 5920 H 553.808 4.1765 -0.560949 0
M  V30 5921 H 552.532 3.25462 0.272355 0
M  V30 5922 H 551.191 3.16025 -1.85807 0
M  V30 5923 H 550.839 5.02479 -0.228846 0
M  V30 5924 H 550.539 5.55987 -1.90136 0
M  V30 5925 H 552.063 6.00897 -1.08421 0
M  V30 5926 H 553.477 4.8588 -3.04292 0
M  V30 5927 H 551.874 4.64154 -3.80369 0
M  V30 5928 H 552.944 3.2419 -3.60595 0
M  V30 5929 N 554.287 1.06798 1.15896 0
M  V30 5930 C 555.197 0.694564 2.24083 0
M  V30 5931 C 556.213 -0.291687 1.71538 0
M  V30 5932 O 557.389 -0.139723 2.00915 0
M  V30 5933 C 554.454 0.0921014 3.46578 0
M  V30 5934 C 553.515 1.13087 4.14137 0
M  V30 5935 C 552.748 0.557064 5.30785 0
M  V30 5936 O 552.971 -0.628623 5.66925 0
M  V30 5937 O 551.905 1.29924 5.8771 0
M  V30 5938 H 555.731 1.59663 2.58344 0
M  V30 5939 H 553.316 0.840575 1.2351 0
M  V30 5940 H 555.198 -0.241884 4.20705 0
M  V30 5941 H 553.873 -0.78337 3.14078 0
M  V30 5942 H 552.78 1.51712 3.41957 0
M  V30 5943 H 554.113 1.97805 4.50704 0
M  V30 5944 N 555.766 -1.3263 0.851289 0
M  V30 5945 C 557.177 -1.79653 0.5081 0
M  V30 5946 C 557.528 -1.70327 -0.973815 0
M  V30 5947 O 556.653 -1.25986 -1.75944 0
M  V30 5948 C 557.248 -3.26196 0.915515 0
M  V30 5949 C 555.807 -3.71187 0.624277 0
M  V30 5950 C 554.954 -2.53804 1.11709 0
M  V30 5951 H 557.905 -1.19976 1.03882 0
M  V30 5952 H 557.926 -3.79801 0.230535 0
M  V30 5953 H 557.438 -3.32952 1.99411 0
M  V30 5954 H 555.539 -3.69948 -0.443737 0
M  V30 5955 H 555.652 -4.64132 1.18821 0
M  V30 5956 H 554.016 -2.48964 0.537484 0
M  V30 5957 H 554.799 -2.63315 2.20272 0
M  V30 5958 N 557.244 -0.608902 -1.45362 0
M  V30 5959 C 558.492 -0.104401 -2.0183 0
M  V30 5960 C 558.813 1.27007 -1.47967 0
M  V30 5961 O 558.083 1.83924 -0.674455 0
M  V30 5962 H 556.663 -0.0356042 -0.746151 0
M  V30 5963 H 559.325 -0.790596 -1.78145 0
M  V30 5964 H 558.421 -0.0551793 -3.12051 0
M  V30 5965 N 558.722 1.53707 -0.348139 0
M  V30 5966 C 559.655 2.21481 0.549667 0
M  V30 5967 C 560.633 1.20046 1.09671 0
M  V30 5968 O 561.817 1.48883 1.15612 0
M  V30 5969 C 558.944 2.89585 1.75664 0
M  V30 5970 C 557.99 4.04948 1.33864 0
M  V30 5971 S 558.823 5.34325 0.354577 0
M  V30 5972 C 559.979 6.05934 1.56828 0
M  V30 5973 H 560.212 2.97289 -0.0259755 0
M  V30 5974 H 557.745 1.53833 -0.132216 0
M  V30 5975 H 559.703 3.29441 2.44906 0
M  V30 5976 H 558.364 2.13535 2.30351 0
M  V30 5977 H 557.557 4.51552 2.23868 0
M  V30 5978 H 557.159 3.66893 0.725651 0
M  V30 5979 H 559.451 6.29606 2.50205 0
M  V30 5980 H 560.394 6.98799 1.14395 0
M  V30 5981 H 560.802 5.36151 1.76642 0
M  V30 5982 N 560.2 0.0768682 1.57412 0
M  V30 5983 C 561.446 -0.591961 1.93968 0
M  V30 5984 C 561.779 -1.68954 0.9575 0
M  V30 5985 O 561.054 -1.94496 -0.0124675 0
M  V30 5986 C 561.337 -1.16418 3.40762 0
M  V30 5987 C 561.19 -0.0728933 4.49741 0
M  V30 5988 C 562.509 -2.06814 3.88479 0
M  V30 5989 H 559.628 -0.213716 0.705333 0
M  V30 5990 H 562.27 0.14387 1.89455 0
M  V30 5991 H 560.42 -1.79128 3.4474 0
M  V30 5992 H 562.092 0.560446 4.57883 0
M  V30 5993 H 560.335 0.595859 4.29688 0
M  V30 5994 H 561.006 -0.513755 5.49604 0
M  V30 5995 H 563.482 -1.54033 3.8654 0
M  V30 5996 H 562.358 -2.43785 4.91793 0
M  V30 5997 H 562.619 -2.97844 3.26713 0
M  V30 5998 N 561.678 -1.56367 -0.196722 0
M  V30 5999 C 562.608 -1.97442 -1.24655 0
M  V30 6000 C 563.589 -0.846147 -1.47561 0
M  V30 6001 O 564.774 -1.11035 -1.59326 0
M  V30 6002 C 561.904 -2.31253 -2.59112 0
M  V30 6003 C 560.858 -3.46804 -2.50821 0
M  V30 6004 C 560.184 -3.66286 -3.89536 0
M  V30 6005 C 561.484 -4.8104 -2.03465 0
M  V30 6006 H 563.178 -2.85388 -0.905216 0
M  V30 6007 H 560.724 -1.37304 -0.434002 0
M  V30 6008 H 562.677 -2.58583 -3.32736 0
M  V30 6009 H 561.401 -1.40188 -2.94983 0
M  V30 6010 H 560.06 -3.19563 -1.79653 0
M  V30 6011 H 559.708 -2.72555 -4.22756 0
M  V30 6012 H 559.408 -4.4402 -3.84864 0
M  V30 6013 H 560.932 -3.9599 -4.64784 0
M  V30 6014 H 562.346 -5.07411 -2.66846 0
M  V30 6015 H 560.743 -5.62232 -2.09798 0
M  V30 6016 H 561.813 -4.74732 -0.98781 0
M  V30 6017 N 563.156 0.464375 -1.50603 0
M  V30 6018 C 564.384 1.23907 -1.65695 0
M  V30 6019 C 564.799 1.85658 -0.343027 0
M  V30 6020 O 564.156 1.69529 0.675739 0
M  V30 6021 C 564.207 2.3429 -2.75301 0
M  V30 6022 O 563.928 1.7507 -4.01599 0
M  V30 6023 C 565.429 3.25051 -3.01424 0
M  V30 6024 H 562.649 0.374485 -0.556778 0
M  V30 6025 H 565.193 0.55353 -1.96866 0
M  V30 6026 H 563.348 2.98607 -2.46804 0
M  V30 6027 H 563.762 2.47812 -4.62266 0
M  V30 6028 H 565.236 3.98699 -3.81763 0
M  V30 6029 H 565.713 3.84227 -2.12758 0
M  V30 6030 H 566.319 2.66463 -3.31477 0
M  V30 6031 N 564.634 1.40294 0.718013 0
M  V30 6032 C 565.88 1.38645 1.48005 0
M  V30 6033 C 566.213 -0.0121202 1.94196 0
M  V30 6034 O 565.488 -0.980309 1.67989 0
M  V30 6035 C 565.771 2.37379 2.70782 0
M  V30 6036 C 565.624 3.8625 2.30501 0
M  V30 6037 C 566.943 2.33685 3.72933 0
M  V30 6038 H 564.062 0.504928 0.536858 0
M  V30 6039 H 566.704 1.71411 0.819649 0
M  V30 6040 H 564.854 2.09568 3.27129 0
M  V30 6041 H 566.526 4.24879 1.79655 0
M  V30 6042 H 564.769 4.02202 1.6253 0
M  V30 6043 H 565.44 4.50847 3.18498 0
M  V30 6044 H 567.916 2.58314 3.2621 0
M  V30 6045 H 566.792 3.0482 4.56482 0
M  V30 6046 H 567.053 1.34765 4.21059 0
M  V30 6047 N 566.112 -0.949982 1.2575 0
M  V30 6048 C 567.022 -2.08109 1.08295 0
M  V30 6049 C 568.038 -1.7399 0.0188181 0
M  V30 6050 O 569.214 -2.00187 0.220724 0
M  V30 6051 C 566.279 -3.39383 0.708534 0
M  V30 6052 C 565.34 -3.8734 1.85111 0
M  V30 6053 C 564.573 -5.12349 1.49447 0
M  V30 6054 O 564.796 -5.6905 0.392212 0
M  V30 6055 O 563.73 -5.5513 2.32624 0
M  V30 6056 H 567.556 -2.25738 2.03165 0
M  V30 6057 H 565.141 -1.06545 1.04731 0
M  V30 6058 H 567.023 -4.18277 0.512061 0
M  V30 6059 H 565.698 -3.23013 -0.210854 0
M  V30 6060 H 564.605 -3.09429 2.10248 0
M  V30 6061 H 565.938 -4.08216 2.74991 0
M  V30 6062 N 567.59 -1.07411 -1.15328 0
M  V30 6063 C 569.001 -0.820261 -1.67716 0
M  V30 6064 C 569.352 0.654539 -1.8496 0
M  V30 6065 O 568.477 1.50664 -1.55337 0
M  V30 6066 C 569.072 -1.48242 -3.04647 0
M  V30 6067 C 567.631 -1.27606 -3.5411 0
M  V30 6068 C 566.778 -1.5517 -2.29821 0
M  V30 6069 H 569.729 -1.23608 -0.995332 0
M  V30 6070 H 569.75 -0.903984 -3.69606 0
M  V30 6071 H 569.262 -2.55578 -2.92064 0
M  V30 6072 H 567.363 -0.222948 -3.71932 0
M  V30 6073 H 567.476 -1.99667 -4.35511 0
M  V30 6074 H 565.84 -0.972747 -2.35393 0
M  V30 6075 H 566.623 -2.63689 -2.19824 0
M  V30 6076 N 569.068 1.32177 -0.85831 0
M  V30 6077 C 570.316 1.96735 -0.462568 0
M  V30 6078 C 570.637 1.6824 0.985911 0
M  V30 6079 O 569.907 0.991564 1.68952 0
M  V30 6080 H 568.487 0.727849 -0.168064 0
M  V30 6081 H 571.149 1.61195 -1.09554 0
M  V30 6082 H 570.245 3.06068 -0.610647 0
M  V30 6083 N 570.547 0.616602 1.45037 0
M  V30 6084 C 571.477 -0.0840787 2.33349 0
M  V30 6085 C 572.458 -0.849641 1.4736 0
M  V30 6086 O 573.643 -0.818407 1.76113 0
M  V30 6087 C 570.773 -1.07604 3.3021 0
M  V30 6088 C 569.727 -0.423096 4.25904 0
M  V30 6089 C 569.053 -1.52394 5.12523 0
M  V30 6090 C 570.353 0.661457 5.18095 0
M  V30 6091 H 572.047 0.653333 2.92185 0
M  V30 6092 H 569.593 0.315634 1.40498 0
M  V30 6093 H 571.546 -1.57485 3.90866 0
M  V30 6094 H 570.27 -1.84416 2.69552 0
M  V30 6095 H 568.929 0.05493 3.66559 0
M  V30 6096 H 568.577 -2.28257 4.48227 0
M  V30 6097 H 568.277 -1.09251 5.77354 0
M  V30 6098 H 569.801 -2.02485 5.76049 0
M  V30 6099 H 571.215 0.246353 5.7277 0
M  V30 6100 H 569.612 1.01517 5.91451 0
M  V30 6101 H 570.682 1.53446 4.59981 0
M  V30 6102 N 572.025 -1.5352 0.356285 0
M  V30 6103 C 573.255 -2.05236 -0.236983 0
M  V30 6104 C 573.663 -1.23016 -1.43749 0
M  V30 6105 O 573.006 -0.2615 -1.81829 0
M  V30 6106 C 573.068 -3.52549 -0.7035 0
M  V30 6107 C 572.732 -4.55425 0.379059 0
M  V30 6108 C 573.729 -5.0524 1.22592 0
M  V30 6109 C 571.414 -4.99425 0.536638 0
M  V30 6110 C 573.408 -5.97647 2.21578 0
M  V30 6111 C 571.095 -5.9164 1.52988 0
M  V30 6112 C 572.093 -6.4064 2.3679 0
M  V30 6113 O 571.781 -7.31039 3.34421 0
M  V30 6114 H 571.513 -0.674346 -0.047254 0
M  V30 6115 H 574.067 -1.98962 0.510238 0
M  V30 6116 H 572.297 -3.56331 -1.50217 0
M  V30 6117 H 573.986 -3.87171 -1.21873 0
M  V30 6118 H 574.752 -4.72002 1.11532 0
M  V30 6119 H 570.631 -4.60879 -0.105834 0
M  V30 6120 H 574.175 -6.35816 2.87025 0
M  V30 6121 H 570.072 -6.24293 1.64099 0
M  V30 6122 H 570.84 -7.49009 3.30041 0
M  V30 6123 N 573.503 -0.0852151 -1.57369 0
M  V30 6124 C 574.752 0.580443 -1.93168 0
M  V30 6125 C 575.065 1.6995 -0.968319 0
M  V30 6126 O 576.271 2.42564 -1.21963 0
M  V30 6127 C 574.727 1.08386 -3.43192 0
M  V30 6128 C 574.335 -0.00491388 -4.48 0
M  V30 6129 C 576.079 1.72281 -3.87968 0
M  V30 6130 C 573.986 0.513299 -5.89168 0
M  V30 6131 H 572.916 0.22059 -0.72101 0
M  V30 6132 H 575.567 -0.159621 -1.82804 0
M  V30 6133 H 573.949 1.8773 -3.48674 0
M  V30 6134 H 575.123 -0.780032 -4.5415 0
M  V30 6135 H 573.438 -0.548453 -4.12772 0
M  V30 6136 H 576.035 2.12108 -4.9083 0
M  V30 6137 H 576.378 2.58811 -3.26071 0
M  V30 6138 H 576.911 0.995359 -3.85146 0
M  V30 6139 H 573.65 -0.315153 -6.54742 0
M  V30 6140 H 573.17 1.25564 -5.8651 0
M  V30 6141 H 574.849 0.985433 -6.39451 0
M  V30 6142 N 574.981 1.5647 0.188427 0
M  V30 6143 C 575.944 1.9421 1.21718 0
M  V30 6144 C 576.944 0.823901 1.38089 0
M  V30 6145 O 578.134 1.09122 1.35787 0
M  V30 6146 C 575.266 2.22197 2.58537 0
M  V30 6147 H 576.459 2.86252 0.894418 0
M  V30 6148 H 574.012 1.50263 0.430211 0
M  V30 6149 H 574.747 1.32814 2.95856 0
M  V30 6150 H 574.532 3.03688 2.48025 0
M  V30 6151 H 576.022 2.52376 3.3271 0
M  V30 6152 N 576.459 -0.456382 1.50847 0
M  V30 6153 C 577.87 -1.03685 1.55262 0
M  V30 6154 C 578.221 -1.92779 0.364771 0
M  V30 6155 O 577.346 -2.10043 -0.52068 0
M  V30 6156 C 577.941 -1.88718 2.81374 0
M  V30 6157 C 576.5 -2.41847 2.88422 0
M  V30 6158 C 575.647 -1.20564 2.49719 0
M  V30 6159 H 578.598 -0.238399 1.56899 0
M  V30 6160 H 578.619 -2.73957 2.6406 0
M  V30 6161 H 578.131 -1.23847 3.67809 0
M  V30 6162 H 576.232 -3.10228 2.06372 0
M  V30 6163 H 576.345 -2.75947 3.9165 0
M  V30 6164 H 574.709 -1.54504 2.02486 0
M  V30 6165 H 575.492 -0.573326 3.38479 0
M  V30 6166 N 577.937 -1.40673 -0.710563 0
M  V30 6167 C 579.214 -1.29718 -1.46398 0
M  V30 6168 C 579.594 0.082177 -2.1094 0
M  V30 6169 O 578.942 1.09536 -2.00534 0
M  V30 6170 C 579.152 -2.43967 -2.49562 0
M  V30 6171 C 580.5 -2.84436 -3.15248 0
M  V30 6172 O 581.524 -2.43597 -2.59883 0
M  V30 6173 O 580.383 -3.55008 -4.1549 0
M  V30 6174 H 577.477 -0.509697 -0.651258 0
M  V30 6175 H 580.023 -1.52603 -0.742312 0
M  V30 6176 H 578.795 -3.36076 -2.0042 0
M  V30 6177 H 578.418 -2.22879 -3.29258 0
M  V30 6178 N 579.415 0.9433 -1.26252 0
M  V30 6179 C 580.378 2.02326 -1.07689 0
M  V30 6180 C 581.378 1.60779 -0.0259174 0
M  V30 6181 O 582.568 1.72108 -0.269134 0
M  V30 6182 C 579.7 3.34886 -0.63752 0
M  V30 6183 H 580.893 2.20225 -2.0357 0
M  V30 6184 H 578.446 1.12197 -1.08819 0
M  V30 6185 H 579.181 3.22684 0.323377 0
M  V30 6186 H 578.966 3.66393 -1.39637 0
M  V30 6187 H 580.456 4.14231 -0.529418 0
M  V30 6188 N 580.893 1.08022 1.14757 0
M  V30 6189 C 581.803 0.718292 2.23333 0
M  V30 6190 C 582.819 -0.273477 1.71837 0
M  V30 6191 O 583.995 -0.118406 2.01052 0
M  V30 6192 C 581.06 0.128855 3.4646 0
M  V30 6193 C 580.121 1.17473 4.12915 0
M  V30 6194 C 579.354 0.61333 5.30164 0
M  V30 6195 O 579.577 -0.568458 5.6756 0
M  V30 6196 O 578.511 1.3615 5.86299 0
M  V30 6197 H 582.337 1.62394 2.56636 0
M  V30 6198 H 579.922 0.853628 1.22611 0
M  V30 6199 H 581.804 -0.197249 4.20938 0
M  V30 6200 H 580.479 -0.750014 3.14891 0
M  V30 6201 H 579.386 1.5533 3.40328 0
M  V30 6202 H 580.719 2.02574 4.48581 0
M  V30 6203 N 582.371 -1.3172 0.865308 0
M  V30 6204 C 583.617 -1.97168 0.474633 0
M  V30 6205 C 583.95 -1.68263 -0.969604 0
M  V30 6206 O 583.225 -0.976588 -1.68205 0
M  V30 6207 C 583.508 -3.52689 0.726808 0
M  V30 6208 C 583.361 -3.91185 2.22024 0
M  V30 6209 C 584.68 -4.39689 0.190201 0
M  V30 6210 H 581.799 -0.716185 0.17392 0
M  V30 6211 H 584.441 -1.55925 1.08569 0
M  V30 6212 H 582.591 -3.8795 0.206705 0
M  V30 6213 H 584.263 -3.66049 2.80724 0
M  V30 6214 H 582.506 -3.3996 2.69462 0
M  V30 6215 H 583.177 -4.99604 2.34735 0
M  V30 6216 H 585.653 -4.11225 0.635103 0
M  V30 6217 H 584.529 -5.47469 0.396132 0
M  V30 6218 H 584.79 -4.32683 -0.907625 0
M  V30 6219 N 583.85 -0.624285 -1.44708 0
M  V30 6220 C 585.26 -0.2092 -1.85524 0
M  V30 6221 C 585.611 1.23783 -1.52225 0
M  V30 6222 O 584.736 1.94089 -0.956986 0
M  V30 6223 C 585.332 -0.372897 -3.36742 0
M  V30 6224 C 583.891 -0.012374 -3.76398 0
M  V30 6225 C 583.038 -0.68951 -2.68591 0
M  V30 6226 H 585.989 -0.829894 -1.35272 0
M  V30 6227 H 586.01 0.390134 -3.78495 0
M  V30 6228 H 585.522 -1.42615 -3.60947 0
M  V30 6229 H 583.623 1.03941 -3.57809 0
M  V30 6230 H 583.736 -0.417663 -4.77276 0
M  V30 6231 H 582.1 -0.125484 -2.54391 0
M  V30 6232 H 582.883 -1.74522 -2.9563 0
M  V30 6233 N 585.328 1.53329 -0.364422 0
M  V30 6234 C 586.238 2.29414 0.490552 0
M  V30 6235 C 587.254 1.35335 1.09363 0
M  V30 6236 O 588.43 1.68391 1.10483 0
M  V30 6237 C 585.495 3.06772 1.61529 0
M  V30 6238 C 584.556 4.16516 1.03986 0
M  V30 6239 C 583.789 4.90176 2.111 0
M  V30 6240 O 584.012 4.63687 3.32191 0
M  V30 6241 O 582.946 5.76134 1.74222 0
M  V30 6242 H 586.772 3.03428 -0.12856 0
M  V30 6243 H 584.357 1.48843 -0.128837 0
M  V30 6244 H 586.239 3.55082 2.26924 0
M  V30 6245 H 584.914 2.35596 2.21983 0
M  V30 6246 H 583.821 3.7246 0.349856 0
M  V30 6247 H 585.154 4.89855 0.4799 0
M  V30 6248 N 586.806 0.0935595 1.57322 0
M  V30 6249 C 587.738 -0.895923 2.10964 0
M  V30 6250 C 588.751 -1.24705 1.04654 0
M  V30 6251 O 589.94 -1.20044 1.32105 0
M  V30 6252 C 587.04 -2.20546 2.57318 0
M  V30 6253 C 586.213 -2.0299 3.87445 0
M  V30 6254 C 585.272 -3.17443 4.19662 0
M  V30 6255 O 584.298 -2.91474 4.88909 0
M  V30 6256 N 585.5 -4.43168 3.74943 0
M  V30 6257 H 588.265 -0.437788 2.96485 0
M  V30 6258 H 585.826 -0.0915863 1.61641 0
M  V30 6259 H 587.818 -2.9606 2.75917 0
M  V30 6260 H 586.388 -2.57789 1.76816 0
M  V30 6261 H 585.608 -1.11815 3.78009 0
M  V30 6262 H 586.896 -1.88535 4.7258 0
M  V30 6263 H 586.294 -4.67149 3.19043 0
M  V30 6264 H 584.851 -5.15637 3.987 0
M  V30 6265 N 588.284 -1.56567 -0.180126 0
M  V30 6266 C 589.514 -1.85349 -0.912647 0
M  V30 6267 C 589.922 -0.675795 -1.76719 0
M  V30 6268 O 589.265 0.3645 -1.80047 0
M  V30 6269 C 589.327 -3.08431 -1.84691 0
M  V30 6270 C 588.991 -4.41694 -1.17284 0
M  V30 6271 C 589.988 -5.17062 -0.542532 0
M  V30 6272 C 587.673 -4.8843 -1.17223 0
M  V30 6273 C 589.667 -6.37351 0.0793953 0
M  V30 6274 C 587.354 -6.08652 -0.54647 0
M  V30 6275 C 588.352 -6.82955 0.0782458 0
M  V30 6276 O 588.04 -8.00897 0.694158 0
M  V30 6277 H 587.772 -0.619286 -0.271036 0
M  V30 6278 H 590.326 -2.0454 -0.187768 0
M  V30 6279 H 588.556 -2.85163 -2.61188 0
M  V30 6280 H 590.245 -3.23733 -2.44851 0
M  V30 6281 H 591.011 -4.8204 -0.535045 0
M  V30 6282 H 586.89 -4.30542 -1.64788 0
M  V30 6283 H 590.434 -6.95287 0.567612 0
M  V30 6284 H 586.331 -6.4314 -0.55151 0
M  V30 6285 H 587.099 -8.16352 0.592537 0
M  V30 6286 N 589.762 0.448376 -1.51087 0
M  V30 6287 C 591.178 0.783984 -1.39017 0
M  V30 6288 C 591.378 1.96087 -0.463904 0
M  V30 6289 O 590.434 2.52357 0.0850534 0
M  V30 6290 C 591.747 1.07471 -2.80839 0
M  V30 6291 C 593.295 1.17981 -2.89913 0
M  V30 6292 C 593.77 1.50354 -4.32617 0
M  V30 6293 N 595.261 1.57301 -4.35673 0
M  V30 6294 C 595.996 1.839 -5.4311 0
M  V30 6295 N 595.492 2.08365 -6.60724 0
M  V30 6296 N 597.285 1.8559 -5.30578 0
M  V30 6297 H 589.436 -0.326881 -2.0987 0
M  V30 6298 H 591.699 -0.0838006 -0.944289 0
M  V30 6299 H 591.405 0.282768 -3.50561 0
M  V30 6300 H 591.279 2.00519 -3.19487 0
M  V30 6301 H 593.666 1.9624 -2.20395 0
M  V30 6302 H 593.747 0.228603 -2.54776 0
M  V30 6303 H 593.391 0.726273 -5.0268 0
M  V30 6304 H 593.321 2.46663 -4.65258 0
M  V30 6305 H 595.812 1.40342 -3.50874 0
M  V30 6306 H 596.125 2.27999 -7.38401 0
M  V30 6307 H 594.47 2.0571 -6.63859 0
M  V30 6308 H 597.661 1.65989 -4.37682 0
M  V30 6309 H 597.834 2.05983 -6.1439 0
M  V30 6310 N 591.24 1.41047 0.703093 0
M  V30 6311 C 592.488 1.39723 1.4602 0
M  V30 6312 C 592.809 0.00461257 1.94999 0
M  V30 6313 O 592.079 -0.952292 1.71196 0
M  V30 6314 H 590.659 0.514281 0.541779 0
M  V30 6315 H 593.321 1.76217 0.832678 0
M  V30 6316 H 592.417 2.07982 2.32701 0
M  V30 6317 N 592.718 -0.936591 1.26751 0
M  V30 6318 C 593.967 -1.67778 1.11953 0
M  V30 6319 C 594.28 -1.92694 -0.33589 0
M  V30 6320 O 595.486 -2.64682 -0.604618 0
M  V30 6321 C 593.942 -3.02138 1.95551 0
M  V30 6322 C 593.55 -2.84953 3.45696 0
M  V30 6323 C 595.294 -3.79917 1.89377 0
M  V30 6324 C 593.201 -4.14814 4.21525 0
M  V30 6325 H 592.131 -0.629275 0.415366 0
M  V30 6326 H 594.782 -1.04122 1.51099 0
M  V30 6327 H 593.164 -3.668 1.49243 0
M  V30 6328 H 594.338 -2.29112 3.99805 0
M  V30 6329 H 592.653 -2.20612 3.53156 0
M  V30 6330 H 595.25 -4.76134 2.43312 0
M  V30 6331 H 595.593 -4.07204 0.865464 0
M  V30 6332 H 596.126 -3.22037 2.33532 0
M  V30 6333 H 592.865 -3.92709 5.24843 0
M  V30 6334 H 592.385 -4.70352 3.72195 0
M  V30 6335 H 594.064 -4.83239 4.3022 0
M  V30 6336 N 594.196 -1.08629 -1.14182 0
M  V30 6337 C 595.444 -0.815731 -1.84906 0
M  V30 6338 C 595.765 0.660441 -1.83475 0
M  V30 6339 O 595.035 1.47888 -1.28476 0
M  V30 6340 H 593.615 -0.298773 -0.684648 0
M  V30 6341 H 596.277 -1.37274 -1.38354 0
M  V30 6342 H 595.373 -1.16193 -2.89665 0
M  V30 6343 N 595.674 1.31259 -0.872281 0
M  V30 6344 C 596.923 1.95893 -0.480493 0
M  V30 6345 C 597.236 1.697 0.972688 0
M  V30 6346 O 598.442 2.28214 1.47073 0
M  V30 6347 C 596.898 3.50705 -0.808342 0
M  V30 6348 C 596.506 3.85735 -2.27844 0
M  V30 6349 C 598.25 4.21719 -0.485136 0
M  V30 6350 C 596.157 5.33668 -2.54858 0
M  V30 6351 H 595.087 0.733182 -0.175955 0
M  V30 6352 H 597.738 1.49396 -1.0655 0
M  V30 6353 H 596.12 3.95706 -0.152558 0
M  V30 6354 H 597.294 3.51686 -2.97748 0
M  V30 6355 H 595.609 3.27792 -2.56791 0
M  V30 6356 H 598.206 5.30559 -0.664166 0
M  V30 6357 H 598.549 4.12316 0.574592 0
M  V30 6358 H 599.082 3.82359 -1.09756 0
M  V30 6359 H 595.821 5.48109 -3.59523 0
M  V30 6360 H 595.341 5.69061 -1.8955 0
M  V30 6361 H 597.02 6.00958 -2.39706 0
M  V30 6362 N 597.152 0.631951 1.44375 0
M  V30 6363 C 598.568 0.297642 1.568 0
M  V30 6364 C 598.768 -1.19916 1.61934 0
M  V30 6365 O 597.824 -1.98324 1.56281 0
M  V30 6366 C 599.137 0.990286 2.83926 0
M  V30 6367 C 600.685 0.968507 2.97639 0
M  V30 6368 C 601.16 1.64163 4.27568 0
M  V30 6369 N 602.651 1.60826 4.34384 0
M  V30 6370 C 603.386 2.09802 5.33639 0
M  V30 6371 N 602.882 2.66973 6.39294 0
M  V30 6372 N 604.675 2.00426 5.25153 0
M  V30 6373 H 596.826 1.60353 1.39286 0
M  V30 6374 H 599.089 0.673142 0.667521 0
M  V30 6375 H 598.795 2.04519 2.8612 0
M  V30 6376 H 598.669 0.528563 3.73478 0
M  V30 6377 H 601.056 -0.0779247 2.94997 0
M  V30 6378 H 601.137 1.46873 2.09433 0
M  V30 6379 H 600.781 2.68752 4.3097 0
M  V30 6380 H 600.711 1.11624 5.14634 0
M  V30 6381 H 603.202 1.19087 3.58646 0
M  V30 6382 H 603.515 3.02074 7.11316 0
M  V30 6383 H 601.86 2.71024 6.39977 0
M  V30 6384 H 605.051 1.55483 4.41523 0
M  V30 6385 H 605.224 2.38906 6.02352 0
M  V30 6386 N 598.631 -1.53133 0.372548 0
M  V30 6387 C 599.88 -2.00539 -0.216115 0
M  V30 6388 C 600.193 -1.26374 -1.49295 0
M  V30 6389 O 601.399 -1.64404 -2.16064 0
M  V30 6390 C 599.855 -3.57253 -0.435678 0
M  V30 6391 C 599.463 -4.40302 0.82693 0
M  V30 6392 C 601.207 -4.12995 -0.981618 0
M  V30 6393 C 599.114 -5.88583 0.576567 0
M  V30 6394 H 598.044 -0.749246 -0.084536 0
M  V30 6395 H 600.695 -1.76771 0.492364 0
M  V30 6396 H 599.077 -3.77202 -1.20559 0
M  V30 6397 H 600.251 -4.32124 1.60017 0
M  V30 6398 H 598.566 -3.95699 1.29659 0
M  V30 6399 H 601.163 -5.21418 -1.18436 0
M  V30 6400 H 601.506 -3.68027 -1.94581 0
M  V30 6401 H 602.039 -3.96871 -0.271696 0
M  V30 6402 H 598.778 -6.37841 1.51128 0
M  V30 6403 H 598.298 -5.99592 -0.158047 0
M  V30 6404 H 599.977 -6.46676 0.204722 0
M  V30 6405 N 600.109 -0.101901 -1.5727 0
M  V30 6406 C 601.019 0.868647 -2.17926 0
M  V30 6407 C 602.035 1.30527 -1.1506 0
M  V30 6408 O 603.211 1.37178 -1.47459 0
M  V30 6409 C 600.276 2.10727 -2.75309 0
M  V30 6410 C 599.337 1.7242 -3.93154 0
M  V30 6411 C 598.57 2.90377 -4.47791 0
M  V30 6412 O 598.793 4.05305 -4.01353 0
M  V30 6413 O 597.727 2.6845 -5.38719 0
M  V30 6414 H 601.553 0.382544 -3.01281 0
M  V30 6415 H 599.138 0.122812 -1.48894 0
M  V30 6416 H 601.02 2.83303 -3.11958 0
M  V30 6417 H 599.695 2.58376 -1.94996 0
M  V30 6418 H 598.602 0.970039 -3.61305 0
M  V30 6419 H 599.935 1.29528 -4.74851 0
M  V30 6420 N 601.587 1.56661 0.17182 0
M  V30 6421 C 602.864 1.72838 0.915778 0
M  V30 6422 C 603.244 0.66316 2.00413 0
M  V30 6423 O 602.592 -0.322123 2.26218 0
M  V30 6424 C 602.802 3.16019 1.48097 0
M  V30 6425 C 604.15 3.76962 1.95408 0
M  V30 6426 O 605.174 3.19294 1.57892 0
M  V30 6427 O 604.033 4.78219 2.64516 0
M  V30 6428 H 601.127 0.705797 0.431021 0
M  V30 6429 H 603.673 1.68947 0.159689 0
M  V30 6430 H 602.445 3.85031 0.697618 0
M  V30 6431 H 602.068 3.24234 2.30126 0
M  V30 6432 N 603.065 -0.440357 1.51323 0
M  V30 6433 C 604.342 -1.20109 1.5438 0
M  V30 6434 C 604.722 -2.08866 0.306303 0
M  V30 6435 O 604.07 -2.1723 -0.708773 0
M  V30 6436 C 604.28 -2.00555 2.8562 0
M  V30 6437 C 605.628 -2.577 3.37455 0
M  V30 6438 O 606.652 -2.10769 2.8715 0
M  V30 6439 O 605.511 -3.43289 4.25224 0
M  V30 6440 H 602.605 -0.546668 0.620551 0
M  V30 6441 H 605.151 -0.449672 1.63634 0
M  V30 6442 H 603.923 -1.35346 3.67147 0
M  V30 6443 H 603.546 -2.82768 2.79514 0
M  V30 6444 N 604.543 -1.41418 -0.695603 0
M  V30 6445 C 605.792 -1.40073 -1.4513 0
M  V30 6446 C 606.105 -0.0130439 -1.95596 0
M  V30 6447 O 607.311 0.123032 -2.71221 0
M  V30 6448 C 605.767 -2.46286 -2.62433 0
M  V30 6449 C 605.375 -3.90962 -2.18753 0
M  V30 6450 C 607.119 -2.54077 -3.40066 0
M  V30 6451 C 605.026 -4.88728 -3.33015 0
M  V30 6452 H 603.956 -0.520903 -0.545138 0
M  V30 6453 H 606.607 -1.67242 -0.75515 0
M  V30 6454 H 604.989 -2.12248 -3.34315 0
M  V30 6455 H 606.163 -4.34248 -1.54161 0
M  V30 6456 H 604.478 -3.86831 -1.54114 0
M  V30 6457 H 607.075 -3.24303 -4.25125 0
M  V30 6458 H 607.418 -1.5776 -3.8525 0
M  V30 6459 H 607.951 -2.87206 -2.75241 0
M  V30 6460 H 604.69 -5.86449 -2.92844 0
M  V30 6461 H 604.21 -4.50091 -3.96457 0
M  V30 6462 H 605.889 -5.09483 -3.98793 0
M  V30 6463 N 606.021 0.929856 -1.27246 0
M  V30 6464 C 607.267 1.6798 -1.13625 0
M  V30 6465 C 607.6 1.91586 0.317589 0
M  V30 6466 O 606.875 1.50467 1.23247 0
M  V30 6467 C 607.158 3.04766 -1.91806 0
M  V30 6468 C 607.011 2.88415 -3.45162 0
M  V30 6469 C 608.33 4.05063 -1.72082 0
M  V30 6470 H 605.449 0.609632 -0.414147 0
M  V30 6471 H 608.091 1.0792 -1.56376 0
M  V30 6472 H 606.241 3.56034 -1.55474 0
M  V30 6473 H 607.913 2.44282 -3.91311 0
M  V30 6474 H 606.156 2.23802 -3.71611 0
M  V30 6475 H 606.827 3.85482 -3.95105 0
M  V30 6476 H 609.303 3.62798 -2.03757 0
M  V30 6477 H 608.179 4.98765 -2.29182 0
M  V30 6478 H 608.44 4.37021 -0.668206 0
M  V30 6479 N 607.499 1.09233 1.13605 0
M  V30 6480 C 608.748 0.82205 1.84188 0
M  V30 6481 C 609.061 -0.654548 1.84323 0
M  V30 6482 O 610.267 -1.04029 2.50779 0
M  V30 6483 C 608.723 1.42066 3.30674 0
M  V30 6484 C 608.331 2.92965 3.38933 0
M  V30 6485 C 610.075 1.22924 4.06313 0
M  V30 6486 C 607.982 3.45922 4.79679 0
M  V30 6487 H 606.912 0.303854 0.690064 0
M  V30 6488 H 609.563 1.31479 1.28006 0
M  V30 6489 H 607.945 0.855613 3.86646 0
M  V30 6490 H 609.119 3.55679 2.92966 0
M  V30 6491 H 607.434 3.11118 2.76757 0
M  V30 6492 H 610.031 1.59945 5.10217 0
M  V30 6493 H 610.374 0.169726 4.15954 0
M  V30 6494 H 610.907 1.76168 3.56665 0
M  V30 6495 H 607.646 4.51484 4.75229 0
M  V30 6496 H 607.166 2.87971 5.26149 0
M  V30 6497 H 608.845 3.43009 5.48592 0
M  V30 6498 N 608.977 -1.30795 0.87923 0
M  V30 6499 C 610.205 -2.00527 0.509548 0
M  V30 6500 C 610.62 -1.65944 -0.90045 0
M  V30 6501 O 609.977 -0.893525 -1.5913 0
M  V30 6502 C 610.028 -3.55276 0.667943 0
M  V30 6503 O 609.749 -3.88625 2.02242 0
M  V30 6504 C 611.25 -4.4228 0.300494 0
M  V30 6505 H 608.47 -0.641261 0.197549 0
M  V30 6506 H 611.014 -1.66813 1.18295 0
M  V30 6507 H 609.169 -3.87377 0.0419843 0
M  V30 6508 H 609.583 -4.83334 2.03688 0
M  V30 6509 H 611.057 -5.50061 0.462242 0
M  V30 6510 H 611.534 -4.32556 -0.76106 0
M  V30 6511 H 612.14 -4.15613 0.902536 0
M  V30 6512 N 610.455 -0.639598 -1.44038 0
M  V30 6513 C 611.365 0.0612377 -2.3452 0
M  V30 6514 C 612.381 0.826717 -1.53106 0
M  V30 6515 O 613.557 0.777059 -1.85806 0
M  V30 6516 C 610.622 1.02492 -3.31204 0
M  V30 6517 C 609.683 0.25788 -4.28525 0
M  V30 6518 C 608.916 1.17566 -5.2059 0
M  V30 6519 O 609.139 2.41461 -5.16771 0
M  V30 6520 O 608.073 0.655407 -5.98321 0
M  V30 6521 H 611.899 -0.68318 -2.95916 0
M  V30 6522 H 609.484 -0.399784 -1.43952 0
M  V30 6523 H 611.366 1.57911 -3.90694 0
M  V30 6524 H 610.041 1.7498 -2.7233 0
M  V30 6525 H 608.948 -0.339566 -3.72556 0
M  V30 6526 H 610.281 -0.427154 -4.90343 0
M  V30 6527 N 611.933 1.52934 -0.380664 0
M  V30 6528 C 613.161 2.05886 0.204599 0
M  V30 6529 C 613.576 1.25305 1.41223 0
M  V30 6530 O 612.933 0.297504 1.80059 0
M  V30 6531 C 612.984 3.56764 0.583249 0
M  V30 6532 O 612.705 4.34292 -0.576398 0
M  V30 6533 C 614.206 4.2603 1.2253 0
M  V30 6534 H 611.426 0.670193 0.0328991 0
M  V30 6535 H 613.97 1.97148 -0.543397 0
M  V30 6536 H 612.125 3.65603 1.28115 0
M  V30 6537 H 612.539 5.23819 -0.267119 0
M  V30 6538 H 614.013 5.32868 1.44068 0
M  V30 6539 H 614.49 3.80698 2.19011 0
M  V30 6540 H 615.096 4.21485 0.568407 0
M  V30 6541 N 613.412 0.11024 1.57214 0
M  V30 6542 C 614.66 -0.548783 1.94506 0
M  V30 6543 C 614.981 -1.67772 0.99386 0
M  V30 6544 O 614.251 -1.9584 0.0485841 0
M  V30 6545 H 612.831 -0.205715 0.718116 0
M  V30 6546 H 615.493 0.177127 1.94093 0
M  V30 6547 H 614.589 -0.949096 2.97319 0
M  V30 6548 N 614.89 -1.56749 -0.16351 0
M  V30 6549 C 615.838 -1.97939 -1.22159 0
M  V30 6550 C 616.832 -0.869288 -1.45395 0
M  V30 6551 O 618.038 -1.05443 -1.45883 0
M  V30 6552 H 614.413 -0.629869 -0.410815 0
M  V30 6553 H 616.384 -2.86115 -0.847381 0
M  V30 6554 C 615.133 -2.36206 -2.55151 0
M  V30 6555 H 614.456 -3.2117 -2.38097 0
M  V30 6556 H 615.896 -2.68863 -3.27854 0
M  V30 6557 C 614.355 -1.20841 -3.14482 0
M  V30 6558 O 614.885 -0.500258 -3.98573 0
M  V30 6559 N 613.091 -0.976943 -2.73686 0
M  V30 6560 H 612.638 -1.55457 -2.05404 0
M  V30 6561 H 612.596 -0.206912 -3.13718 0
M  V30 6562 N 616.368 0.432326 -1.51554 0
M  V30 6563 C 617.278 1.55023 -1.76082 0
M  V30 6564 C 618.294 1.61593 -0.645265 0
M  V30 6565 O 619.47 1.78742 -0.928086 0
M  V30 6566 C 616.535 2.90964 -1.88523 0
M  V30 6567 C 615.596 2.9447 -3.12388 0
M  V30 6568 C 614.829 4.23926 -3.24225 0
M  V30 6569 O 615.052 5.16576 -2.4188 0
M  V30 6570 O 613.986 4.33818 -4.17235 0
M  V30 6571 H 617.812 1.37238 -2.70923 0
M  V30 6572 H 615.397 0.615845 -1.36117 0
M  V30 6573 H 617.279 3.71633 -1.98662 0
M  V30 6574 H 615.954 3.08865 -0.9687 0
M  V30 6575 H 614.861 2.12737 -3.07723 0
M  V30 6576 H 616.194 2.81514 -4.03746 0
M  V30 6577 N 617.846 1.41785 0.688094 0
M  V30 6578 C 618.794 1.44436 1.82321 0
M  V30 6579 C 619.788 0.321544 1.6632 0
M  V30 6580 O 620.994 0.493931 1.73091 0
M  V30 6581 H 617.369 0.452084 0.600936 0
M  V30 6582 H 619.34 2.40087 1.77202 0
M  V30 6583 C 618.089 1.35071 3.20392 0
M  V30 6584 H 617.412 2.2076 3.33324 0
M  V30 6585 H 618.852 1.40988 3.99873 0
M  V30 6586 C 617.311 0.0639127 3.36839 0
M  V30 6587 O 617.841 -0.888495 3.91751 0
M  V30 6588 N 616.047 -0.0146114 2.90596 0
M  V30 6589 H 615.594 0.761191 2.46097 0
M  V30 6590 H 615.552 -0.874988 3.01979 0
M  V30 6591 N 619.324 -0.923095 1.27737 0
M  V30 6592 C 620.254 -2.04124 1.13383 0
M  V30 6593 C 621.235 -1.70066 0.0340658 0
M  V30 6594 O 622.42 -1.93068 0.209383 0
M  V30 6595 C 619.55 -3.3831 0.785097 0
M  V30 6596 C 618.504 -3.86496 1.8386 0
M  V30 6597 C 617.83 -5.1754 1.34373 0
M  V30 6598 C 619.13 -4.09381 3.24353 0
M  V30 6599 H 620.824 -2.1639 2.06919 0
M  V30 6600 H 618.37 -1.03976 0.996243 0
M  V30 6601 H 620.323 -4.16016 0.671485 0
M  V30 6602 H 619.047 -3.2607 -0.185969 0
M  V30 6603 H 617.706 -3.10987 1.9412 0
M  V30 6604 H 617.354 -5.01696 0.361989 0
M  V30 6605 H 617.054 -5.50751 2.04811 0
M  V30 6606 H 618.578 -5.97811 1.24315 0
M  V30 6607 H 619.992 -4.77641 3.17067 0
M  V30 6608 H 618.389 -4.53906 3.92542 0
M  V30 6609 H 619.459 -3.14515 3.69064 0
M  V30 6610 N 620.802 -1.09834 -1.13024 0
M  V30 6611 C 622.03 -0.858902 -1.8823 0
M  V30 6612 C 622.445 0.590164 -1.79339 0
M  V30 6613 O 621.802 1.4065 -1.16292 0
M  V30 6614 C 621.853 -1.29066 -3.37675 0
M  V30 6615 O 621.574 -2.6829 -3.46341 0
M  V30 6616 C 623.075 -1.08421 -4.29837 0
M  V30 6617 H 620.295 -0.308713 -0.595766 0
M  V30 6618 H 622.839 -1.4614 -1.4305 0
M  V30 6619 H 620.994 -0.731961 -3.80422 0
M  V30 6620 H 621.408 -2.86598 -4.39274 0
M  V30 6621 H 622.882 -1.43553 -5.33007 0
M  V30 6622 H 623.359 -0.0223315 -4.39194 0
M  V30 6623 H 623.965 -1.62907 -3.92863 0
M  V30 6624 N 622.28 1.30327 -0.886154 0
M  V30 6625 C 623.243 2.26376 -0.358687 0
M  V30 6626 C 624.243 1.52845 0.499498 0
M  V30 6627 O 625.433 1.71483 0.306485 0
M  V30 6628 C 622.565 3.37379 0.488726 0
M  V30 6629 H 623.758 2.74547 -1.20681 0
M  V30 6630 H 621.311 1.41536 -0.663113 0
M  V30 6631 H 622.046 2.94526 1.35739 0
M  V30 6632 H 621.831 3.91897 -0.126003 0
M  V30 6633 H 623.321 4.08868 0.84952 0
M  V30 6634 N 623.758 0.647228 1.43697 0
M  V30 6635 C 624.983 0.164083 2.0675 0
M  V30 6636 C 625.408 -1.15892 1.48158 0
M  V30 6637 O 624.766 -1.71459 0.589194 0
M  V30 6638 C 624.814 0.0800368 3.60511 0
M  V30 6639 O 623.918 -0.959453 4.01084 0
M  V30 6640 H 623.259 0.0921288 0.657578 0
M  V30 6641 H 625.789 0.88846 1.84303 0
M  V30 6642 H 625.799 -0.105263 4.07864 0
M  V30 6643 H 624.474 1.04586 4.02535 0
M  V30 6644 H 623.051 -0.747425 3.65333 0
M  V30 6645 N 625.236 -1.5273 0.388769 0
M  V30 6646 C 626.482 -2.01871 -0.193877 0
M  V30 6647 C 626.815 -1.27475 -1.46505 0
M  V30 6648 O 626.09 -0.375063 -1.90849 0
M  V30 6649 C 626.373 -3.5712 -0.462336 0
M  V30 6650 C 626.226 -4.42186 0.824091 0
M  V30 6651 C 627.545 -4.21881 -1.25319 0
M  V30 6652 H 624.664 -0.733764 -0.0689899 0
M  V30 6653 H 627.306 -1.82796 0.518231 0
M  V30 6654 H 625.456 -3.73504 -1.06896 0
M  V30 6655 H 627.128 -4.37554 1.46096 0
M  V30 6656 H 625.371 -4.09219 1.43952 0
M  V30 6657 H 626.042 -5.48828 0.590905 0
M  V30 6658 H 628.518 -4.0947 -0.73981 0
M  V30 6659 H 627.394 -5.30487 -1.40977 0
M  V30 6660 H 627.655 -3.79478 -2.26824 0
M  V30 6661 N 626.714 -0.118576 -1.57153 0
M  V30 6662 C 627.96 0.540326 -1.95469 0
M  V30 6663 C 628.293 1.66356 -1.00196 0
M  V30 6664 O 627.568 1.94461 -0.039104 0
M  V30 6665 C 627.851 1.07342 -3.43729 0
M  V30 6666 C 627.704 -0.0463732 -4.49776 0
M  V30 6667 C 629.023 1.96442 -3.93826 0
M  V30 6668 H 626.142 0.19494 -0.710751 0
M  V30 6669 H 628.784 -0.19405 -1.89006 0
M  V30 6670 H 626.934 1.69925 -3.49368 0
M  V30 6671 H 628.606 -0.681648 -4.56236 0
M  V30 6672 H 626.849 -0.709574 -4.27957 0
M  V30 6673 H 627.52 0.367856 -5.50773 0
M  V30 6674 H 629.996 1.43731 -3.90488 0
M  V30 6675 H 628.872 2.3066 -4.98084 0
M  V30 6676 H 629.133 2.89077 -3.34495 0
M  V30 6677 N 628.193 1.56834 0.155195 0
M  V30 6678 C 629.14 1.97646 1.19184 0
M  V30 6679 C 630.11 0.842788 1.4313 0
M  V30 6680 O 631.295 1.1042 1.55602 0
M  V30 6681 C 628.435 2.35527 2.52232 0
M  V30 6682 C 627.548 3.62147 2.35529 0
M  V30 6683 C 626.683 3.89167 3.61555 0
M  V30 6684 C 625.722 5.09084 3.39853 0
M  V30 6685 N 624.859 5.32156 4.5799 0
M  V30 6686 H 629.699 2.8601 0.836802 0
M  V30 6687 H 627.236 1.41507 0.401758 0
M  V30 6688 H 629.194 2.55516 3.29799 0
M  V30 6689 H 627.824 1.50253 2.85699 0
M  V30 6690 H 626.876 3.4998 1.49057 0
M  V30 6691 H 628.188 4.49871 2.15448 0
M  V30 6692 H 627.342 4.09611 4.47553 0
M  V30 6693 H 626.081 2.9985 3.84632 0
M  V30 6694 H 625.086 4.88522 2.52243 0
M  V30 6695 H 626.311 5.99947 3.18183 0
M  V30 6696 H 624.257 4.45791 4.81255 0
M  V30 6697 H 624.174 6.14133 4.40882 0
M  V30 6698 H 625.442 5.57091 5.45225 0
M  V30 6699 N 629.671 -0.424282 1.51781 0
M  V30 6700 C 630.618 -1.51591 1.74037 0
M  V30 6701 C 631.588 -1.55556 0.582358 0
M  V30 6702 O 632.773 -1.72364 0.818245 0
M  V30 6703 C 629.913 -2.89188 1.8832 0
M  V30 6704 C 629.026 -2.9465 3.1592 0
M  V30 6705 C 628.161 -4.23452 3.20721 0
M  V30 6706 C 627.2 -4.22831 4.42584 0
M  V30 6707 N 626.337 -5.43178 4.44862 0
M  V30 6708 H 631.177 -1.31917 2.67212 0
M  V30 6709 H 628.714 -0.640599 1.32419 0
M  V30 6710 H 630.672 -3.69044 1.94583 0
M  V30 6711 H 629.302 -3.07392 0.985402 0
M  V30 6712 H 628.354 -2.07378 3.18902 0
M  V30 6713 H 629.666 -2.90055 4.05795 0
M  V30 6714 H 628.82 -5.1169 3.25973 0
M  V30 6715 H 627.559 -4.30722 2.28757 0
M  V30 6716 H 626.564 -3.32984 4.37495 0
M  V30 6717 H 627.789 -4.17213 5.35826 0
M  V30 6718 H 625.735 -5.51145 3.55775 0
M  V30 6719 H 625.652 -5.40515 5.28563 0
M  V30 6720 H 626.92 -6.33412 4.54324 0
M  V30 6721 N 631.149 -1.42148 -0.680565 0
M  V30 6722 C 632.56 -1.3768 -1.26099 0
M  V30 6723 C 632.911 -0.0672348 -1.96085 0
M  V30 6724 O 632.036 0.834172 -1.99676 0
M  V30 6725 C 632.631 -2.49387 -2.29328 0
M  V30 6726 C 631.19 -2.4827 -2.82911 0
M  V30 6727 C 630.337 -2.2847 -1.57152 0
M  V30 6728 H 633.288 -1.51446 -0.474326 0
M  V30 6729 H 633.309 -2.19307 -3.10941 0
M  V30 6730 H 632.821 -3.44686 -1.78363 0
M  V30 6731 H 630.922 -1.56773 -3.38013 0
M  V30 6732 H 631.035 -3.45109 -3.3232 0
M  V30 6733 H 629.399 -1.76623 -1.83511 0
M  V30 6734 H 630.182 -3.25816 -1.0816 0
M  V30 6735 N 632.627 0.916307 -1.28225 0
M  V30 6736 C 633.537 2.05165 -1.13775 0
M  V30 6737 C 634.553 1.73879 -0.0649418 0
M  V30 6738 O 635.729 1.99531 -0.273722 0
M  V30 6739 C 632.794 3.37385 -0.798267 0
M  V30 6740 C 631.855 3.82296 -1.95316 0
M  V30 6741 C 631.088 5.08206 -1.62978 0
M  V30 6742 O 631.311 5.6781 -0.542948 0
M  V30 6743 O 630.245 5.48768 -2.47261 0
M  V30 6744 H 634.071 2.20273 -2.09078 0
M  V30 6745 H 631.656 1.0373 -1.07519 0
M  V30 6746 H 633.538 4.16773 -0.62278 0
M  V30 6747 H 632.213 3.23458 0.125139 0
M  V30 6748 H 631.12 3.03746 -2.18378 0
M  V30 6749 H 632.453 4.00782 -2.85718 0
M  V30 6750 N 634.105 1.10431 1.1244 0
M  V30 6751 C 635.015 0.765502 2.21759 0
M  V30 6752 C 636.031 -0.236966 1.72379 0
M  V30 6753 O 637.207 -0.0757329 2.01258 0
M  V30 6754 C 634.272 0.202316 3.46109 0
M  V30 6755 C 633.333 1.26205 4.1033 0
M  V30 6756 C 632.566 0.725648 5.28744 0
M  V30 6757 O 632.789 -0.447942 5.68638 0
M  V30 6758 O 631.723 1.48555 5.83279 0
M  V30 6759 H 635.549 1.67801 2.53133 0
M  V30 6760 H 633.134 0.879443 1.20773 0
M  V30 6761 H 635.016 -0.107918 4.21262 0
M  V30 6762 H 633.691 -0.683052 3.16411 0
M  V30 6763 H 632.598 1.62514 3.36957 0
M  V30 6764 H 633.931 2.12044 4.44183 0
M  V30 6765 N 635.583 -1.29855 0.893053 0
M  V30 6766 C 636.832 -1.95104 0.511597 0
M  V30 6767 C 637.145 -1.71226 -0.945567 0
M  V30 6768 O 638.351 -2.30525 -1.43424 0
M  V30 6769 C 636.807 -3.49374 0.864034 0
M  V30 6770 C 636.415 -3.82061 2.33952 0
M  V30 6771 C 638.159 -4.20894 0.552167 0
M  V30 6772 C 636.066 -5.29546 2.63316 0
M  V30 6773 H 634.996 -0.73029 0.187597 0
M  V30 6774 H 637.647 -1.47682 1.08914 0
M  V30 6775 H 636.029 -3.95413 0.215493 0
M  V30 6776 H 637.203 -3.46904 3.03305 0
M  V30 6777 H 635.518 -3.23665 2.61973 0
M  V30 6778 H 638.115 -5.29435 0.748489 0
M  V30 6779 H 638.458 -4.13178 -0.508924 0
M  V30 6780 H 638.991 -3.80564 1.15825 0
M  V30 6781 H 635.73 -5.4232 3.68197 0
M  V30 6782 H 635.25 -5.65974 1.9858 0
M  V30 6783 H 636.929 -5.97068 2.49236 0
M  V30 6784 N 637.061 -0.65484 -1.43351 0
M  V30 6785 C 637.971 0.0363603 -2.34572 0
M  V30 6786 C 638.987 0.810432 -1.53974 0
M  V30 6787 O 640.163 0.757308 -1.86619 0
M  V30 6788 C 637.228 0.989733 -3.32273 0
M  V30 6789 C 636.289 0.212414 -4.28774 0
M  V30 6790 C 635.522 1.12038 -5.21808 0
M  V30 6791 O 635.745 2.35967 -5.19303 0
M  V30 6792 O 634.679 0.59191 -5.98982 0
M  V30 6793 H 638.505 -0.714527 -2.95175 0
M  V30 6794 H 636.09 -0.415029 -1.4352 0
M  V30 6795 H 637.972 1.53759 -3.92347 0
M  V30 6796 H 636.647 1.72082 -2.74171 0
M  V30 6797 H 635.554 -0.379062 -3.72175 0
M  V30 6798 H 636.887 -0.479138 -4.89862 0
M  V30 6799 N 638.539 1.52521 -0.396863 0
M  V30 6800 C 639.502 2.2527 0.422604 0
M  V30 6801 C 640.502 1.27184 0.983913 0
M  V30 6802 O 641.692 1.51222 0.864723 0
M  V30 6803 C 638.824 3.01356 1.59365 0
M  V30 6804 H 640.017 2.99133 -0.214416 0
M  V30 6805 H 637.57 1.55587 -0.149128 0
M  V30 6806 H 638.305 2.31813 2.26789 0
M  V30 6807 H 638.09 3.73357 1.19779 0
M  V30 6808 H 639.58 3.56571 2.17363 0
M  V30 6809 N 640.017 0.126909 1.57088 0
M  V30 6810 C 640.947 -0.816847 2.18746 0
M  V30 6811 C 641.928 -1.27161 1.12979 0
M  V30 6812 O 643.113 -1.33279 1.41246 0
M  V30 6813 C 640.243 -2.06398 2.79315 0
M  V30 6814 C 639.197 -1.74673 3.90735 0
M  V30 6815 C 638.523 -3.06482 4.38147 0
M  V30 6816 C 639.823 -1.0089 5.12463 0
M  V30 6817 H 641.517 -0.303032 2.97863 0
M  V30 6818 H 639.063 -0.144314 1.43275 0
M  V30 6819 H 641.016 -2.72885 3.2111 0
M  V30 6820 H 639.74 -2.60118 1.975 0
M  V30 6821 H 638.399 -1.10572 3.49527 0
M  V30 6822 H 638.047 -3.58152 3.5318 0
M  V30 6823 H 637.747 -2.86025 5.13287 0
M  V30 6824 H 639.271 -3.74073 4.82599 0
M  V30 6825 H 640.685 -1.57546 5.51228 0
M  V30 6826 H 639.082 -0.905006 5.93237 0
M  V30 6827 H 640.152 0.00297335 4.849 0
M  V30 6828 N 641.495 -1.56914 -0.146875 0
M  V30 6829 C 642.428 -1.93425 -1.21087 0
M  V30 6830 C 643.406 -0.800106 -1.41552 0
M  V30 6831 O 644.59 -1.05572 -1.56162 0
M  V30 6832 C 641.717 -2.20639 -2.56975 0
M  V30 6833 C 640.763 -3.43279 -2.53104 0
M  V30 6834 S 641.596 -4.96836 -1.99786 0
M  V30 6835 C 642.752 -5.27172 -3.37403 0
M  V30 6836 H 642.985 -2.8337 -0.899378 0
M  V30 6837 H 640.518 -1.50322 -0.352494 0
M  V30 6838 H 642.476 -2.36998 -3.35175 0
M  V30 6839 H 641.137 -1.31357 -2.85314 0
M  V30 6840 H 640.33 -3.59599 -3.53136 0
M  V30 6841 H 639.932 -3.26163 -1.83012 0
M  V30 6842 H 642.224 -5.20647 -4.33513 0
M  V30 6843 H 643.167 -6.28626 -3.25937 0
M  V30 6844 H 643.575 -4.54687 -3.34544 0
M  V30 6845 N 642.974 0.416227 -1.52004 0
M  V30 6846 C 644.22 1.16555 -1.6596 0
M  V30 6847 C 644.553 1.90347 -0.384906 0
M  V30 6848 O 643.828 1.84474 0.616405 0
M  V30 6849 C 644.111 2.1657 -2.87696 0
M  V30 6850 C 643.964 1.46722 -4.25197 0
M  V30 6851 C 645.283 3.17321 -3.04951 0
M  V30 6852 H 642.402 0.422369 -0.603965 0
M  V30 6853 H 645.044 0.452141 -1.84542 0
M  V30 6854 H 643.194 2.77411 -2.71985 0
M  V30 6855 H 644.866 0.89056 -4.52622 0
M  V30 6856 H 643.109 0.769263 -4.26925 0
M  V30 6857 H 643.78 2.19665 -5.0641 0
M  V30 6858 H 646.256 2.66552 -3.19514 0
M  V30 6859 H 645.132 3.84573 -3.91656 0
M  V30 6860 H 645.393 3.84643 -2.17951 0
M  V30 6861 N 644.452 1.42507 0.673017 0
M  V30 6862 C 645.415 1.4582 1.76831 0
M  V30 6863 C 646.415 0.345542 1.57043 0
M  V30 6864 O 647.605 0.606447 1.63303 0
M  V30 6865 C 644.737 1.29158 3.15485 0
M  V30 6866 H 645.93 2.43345 1.7528 0
M  V30 6867 H 643.483 1.28981 0.882817 0
M  V30 6868 H 644.218 0.325626 3.22661 0
M  V30 6869 H 644.003 2.09797 3.31252 0
M  V30 6870 H 645.493 1.34363 3.95394 0
M  V30 6871 N 645.93 -0.909495 1.28709 0
M  V30 6872 C 646.893 -1.99399 1.13016 0
M  V30 6873 C 647.893 -1.60654 0.068536 0
M  V30 6874 O 649.083 -1.71334 0.314671 0
M  V30 6875 C 646.215 -3.33078 0.726085 0
M  V30 6876 H 647.408 -2.14751 2.09338 0
M  V30 6877 H 644.961 -1.09272 1.11756 0
M  V30 6878 H 645.696 -3.23428 -0.23771 0
M  V30 6879 H 645.481 -3.62562 1.49302 0
M  V30 6880 H 646.971 -4.12681 0.639058 0
M  V30 6881 N 647.408 -1.11026 -1.11852 0
M  V30 6882 C 648.824 -0.843294 -1.35502 0
M  V30 6883 C 649.024 0.534179 -1.9429 0
M  V30 6884 O 648.08 1.28585 -2.17307 0
M  V30 6885 C 649.393 -1.94793 -2.29077 0
M  V30 6886 C 650.941 -1.97709 -2.42652 0
M  V30 6887 C 651.416 -3.07364 -3.39546 0
M  V30 6888 N 652.907 -3.0671 -3.47107 0
M  V30 6889 C 653.642 -3.88197 -4.22008 0
M  V30 6890 N 653.138 -4.79635 -4.99922 0
M  V30 6891 N 654.931 -3.76391 -4.17476 0
M  V30 6892 H 647.082 -1.99805 -0.720538 0
M  V30 6893 H 649.345 -0.868633 -0.379711 0
M  V30 6894 H 649.051 -2.93971 -1.93065 0
M  V30 6895 H 648.925 -1.84039 -3.29256 0
M  V30 6896 H 651.312 -0.991604 -2.77941 0
M  V30 6897 H 651.393 -2.1254 -1.4234 0
M  V30 6898 H 651.037 -4.06136 -3.04985 0
M  V30 6899 H 650.967 -2.89774 -4.39703 0
M  V30 6900 H 653.458 -2.40457 -2.91528 0
M  V30 6901 H 653.771 -5.38357 -5.54429 0
M  V30 6902 H 652.116 -4.8366 -4.99097 0
M  V30 6903 H 655.307 -3.04303 -3.55693 0
M  V30 6904 H 655.48 -4.40131 -4.75593 0
M  V30 6905 N 648.886 1.2938 -0.899927 0
M  V30 6906 C 649.833 2.27713 -0.376243 0
M  V30 6907 C 650.803 1.57016 0.541774 0
M  V30 6908 O 651.988 1.84997 0.466966 0
M  V30 6909 C 649.128 3.42889 0.39 0
M  V30 6910 C 648.241 4.28369 -0.558938 0
M  V30 6911 C 647.376 5.30726 0.224379 0
M  V30 6912 C 646.415 6.07862 -0.719068 0
M  V30 6913 N 645.552 7.02094 0.0298569 0
M  V30 6914 H 650.392 2.71888 -1.21988 0
M  V30 6915 H 647.929 1.33724 -0.612879 0
M  V30 6916 H 649.887 4.08443 0.850314 0
M  V30 6917 H 648.517 2.99743 1.19809 0
M  V30 6918 H 647.569 3.62986 -1.13777 0
M  V30 6919 H 648.881 4.82068 -1.2811 0
M  V30 6920 H 648.035 6.02098 0.745881 0
M  V30 6921 H 646.774 4.77759 0.979674 0
M  V30 6922 H 645.779 5.35353 -1.25207 0
M  V30 6923 H 647.004 6.62917 -1.4737 0
M  V30 6924 H 644.95 6.51496 0.767415 0
M  V30 6925 H 644.867 7.5335 -0.632391 0
M  V30 6926 H 646.135 7.77685 0.531615 0
M  V30 6927 N 650.364 0.662433 1.43002 0
M  V30 6928 C 651.296 -0.062326 2.29115 0
M  V30 6929 C 652.309 -0.777926 1.43011 0
M  V30 6930 O 653.498 -0.634146 1.66856 0
M  V30 6931 C 650.598 -1.11163 3.2015 0
M  V30 6932 C 649.771 -0.472327 4.34842 0
M  V30 6933 C 648.83 -1.41974 5.06685 0
M  V30 6934 O 647.856 -0.924795 5.61637 0
M  V30 6935 N 649.058 -2.75345 5.11043 0
M  V30 6936 H 651.823 0.676838 2.91957 0
M  V30 6937 H 649.384 0.505907 1.53793 0
M  V30 6938 H 651.376 -1.74643 3.65078 0
M  V30 6939 H 649.946 -1.75266 2.58845 0
M  V30 6940 H 649.166 0.341751 3.92716 0
M  V30 6941 H 650.454 -0.0264381 5.08793 0
M  V30 6942 H 649.852 -3.18108 4.67786 0
M  V30 6943 H 648.409 -3.34105 5.59658 0
M  V30 6944 O 651.881 -1.51951 0.5471 0
M  V30 6945 H 652.572 -1.93655 0.0418362 0
M  V30 END ATOM
M  V30 BEGIN BOND
M  V30 END BOND
M  V30 END CTAB
M  END
$$$$
