drugbank_target|O75600 2-amino-3-ketobutyrate coenzyme A ligase, mitochondrial (DB00114; DB00145)
 OpenBabel12092119333D

  0  0  0     0  0            999 V3000
M  V30 BEGIN CTAB
M  V30 COUNTS 6372 6433 0 0 0
M  V30 BEGIN ATOM
M  V30 1 H -0.908 1.98254 -0.117106 0
M  V30 2 N 0 1.576 0 0
M  V30 3 C 0.933 2.03868 1.02534 0
M  V30 4 C 1.911 0.928543 1.3348 0
M  V30 5 O 3.095 1.19667 1.45644 0
M  V30 6 C 0.222 2.43627 2.35294 0
M  V30 7 C -0.732 3.65373 2.2001 0
M  V30 8 S 0.101 5.13292 1.52614 0
M  V30 9 C 1.257 5.56322 2.86805 0
M  V30 10 H 1.49 2.90518 0.631377 0
M  V30 11 H -0.977 1.52953 0.210867 0
M  V30 12 H 0.981 2.67203 3.11629 0
M  V30 13 H -0.358 1.57376 2.7183 0
M  V30 14 H -1.165 3.90944 3.18086 0
M  V30 15 H -1.563 3.418 1.51819 0
M  V30 16 H 0.729 5.58782 3.83104 0
M  V30 17 H 1.672 6.56266 2.65933 0
M  V30 18 H 2.08 4.83886 2.90714 0
M  V30 19 N 1.4781 -0.272755 1.55222 0
M  V30 20 C 2.7241 -1.00172 1.77023 0
M  V30 21 C 3.0791 -1.83928 0.564633 0
M  V30 22 O 2.3721 -1.86416 -0.442674 0
M  V30 23 C 2.5661 -1.91642 3.01675 0
M  V30 24 C 2.3951 -1.16888 4.34243 0
M  V30 25 C 1.1651 -0.884464 4.97499 0
M  V30 26 C 3.3631 -0.55919 5.11251 0
M  V30 27 N 1.3451 -0.11015 6.13801 0
M  V30 28 C 2.7161 0.0809469 6.19947 0
M  V30 29 C 4.7711 -0.467058 4.95705 0
M  V30 30 C 3.4741 0.804335 7.14789 0
M  V30 31 C 5.5001 0.242739 5.90902 0
M  V30 32 C 4.8621 0.871613 6.98987 0
M  V30 33 H 0.9611 -0.348529 0.700037 0
M  V30 34 H 3.5451 -0.277365 1.92714 0
M  V30 35 H 1.7161 -2.61303 2.87359 0
M  V30 36 H 3.4481 -2.57901 3.1188 0
M  V30 37 H 0.2031 -1.18979 4.58411 0
M  V30 38 H 0.6271 0.264344 6.76484 0
M  V30 39 H 5.2691 -0.93894 4.12242 0
M  V30 40 H 2.9871 1.2879 7.97771 0
M  V30 41 H 6.5731 0.314347 5.8095 0
M  V30 42 H 5.4531 1.4121 7.71381 0
M  V30 43 N 2.9562 -1.48159 -0.537278 0
M  V30 44 C 4.3672 -1.49429 -1.11928 0
M  V30 45 C 4.7182 -0.26 -1.9447 0
M  V30 46 O 3.8432 0.633489 -2.0692 0
M  V30 47 C 4.4382 -2.70758 -2.03656 0
M  V30 48 C 2.9972 -2.74923 -2.57088 0
M  V30 49 C 2.1442 -2.42835 -1.3389 0
M  V30 50 H 5.0952 -1.55381 -0.322886 0
M  V30 51 H 5.1162 -2.48861 -2.87834 0
M  V30 52 H 4.6282 -3.60575 -1.43553 0
M  V30 53 H 2.7292 -1.89296 -3.20933 0
M  V30 54 H 2.8422 -3.76157 -2.9672 0
M  V30 55 H 1.2062 -1.93836 -1.65226 0
M  V30 56 H 1.9892 -3.34884 -0.755504 0
M  V30 57 N 4.4343 0.785586 -1.36625 0
M  V30 58 C 5.6823 1.54057 -1.30808 0
M  V30 59 C 6.0033 1.94683 0.111157 0
M  V30 60 O 5.2733 1.65241 1.05224 0
M  V30 61 H 3.8533 0.571354 -0.481211 0
M  V30 62 H 6.5153 0.935821 -1.70963 0
M  V30 63 H 5.6113 2.44637 -1.93801 0
M  V30 64 N 5.9124 1.20967 1.01018 0
M  V30 65 C 6.8604 0.961223 2.1181 0
M  V30 66 C 7.8544 -0.0897034 1.69162 0
M  V30 67 O 9.0604 0.0612271 1.79896 0
M  V30 68 H 5.4354 0.29355 0.692338 0
M  V30 69 H 7.4064 1.90178 2.29946 0
M  V30 70 C 6.1554 0.536854 3.4353 0
M  V30 71 H 5.4784 1.33713 3.76777 0
M  V30 72 H 6.9184 0.402286 4.22087 0
M  V30 73 C 5.3774 -0.751574 3.2841 0
M  V30 74 O 5.9074 -1.80841 3.58691 0
M  V30 75 N 4.1134 -0.716079 2.81639 0
M  V30 76 H 3.6604 0.144236 2.57196 0
M  V30 77 H 3.6184 -1.57847 2.71904 0
M  V30 78 N 7.3905 -1.2043 1.01659 0
M  V30 79 C 8.3535 -2.21433 0.591616 0
M  V30 80 C 9.3535 -1.57203 -0.338226 0
M  V30 81 O 10.5435 -1.73737 -0.126918 0
M  V30 82 C 7.6755 -3.40628 -0.136058 0
M  V30 83 H 8.8685 -2.60545 1.48514 0
M  V30 84 H 6.4215 -1.33893 0.806379 0
M  V30 85 H 7.1565 -3.07019 -1.04449 0
M  V30 86 H 6.9415 -3.88475 0.531917 0
M  V30 87 H 8.4315 -4.15475 -0.420735 0
M  V30 88 N 8.8686 -0.792821 -1.36206 0
M  V30 89 C 10.1146 -0.376415 -1.99887 0
M  V30 90 C 10.4696 1.04127 -1.61788 0
M  V30 91 O 9.7626 1.71004 -0.864193 0
M  V30 92 C 9.9566 -0.481501 -3.54142 0
M  V30 93 C 9.7856 -1.90786 -4.07223 0
M  V30 94 C 8.5556 -2.53322 -4.37214 0
M  V30 95 C 10.7536 -2.87048 -4.26741 0
M  V30 96 N 8.7356 -3.8751 -4.7614 0
M  V30 97 C 10.1066 -4.06077 -4.6851 0
M  V30 98 C 12.1616 -2.8406 -4.08918 0
M  V30 99 C 10.8646 -5.22532 -4.94321 0
M  V30 100 C 12.8906 -3.99705 -4.35878 0
M  V30 101 C 12.2526 -5.1748 -4.77906 0
M  V30 102 H 8.3516 -0.185226 -0.759747 0
M  V30 103 H 10.9356 -1.03114 -1.65153 0
M  V30 104 H 9.1066 0.143154 -3.88136 0
M  V30 105 H 10.8386 -0.0410128 -4.04679 0
M  V30 106 H 7.5936 -2.04777 -4.2704 0
M  V30 107 H 8.0176 -4.5656 -4.99882 0
M  V30 108 H 12.6596 -1.94165 -3.75579 0
M  V30 109 H 10.3776 -6.1301 -5.2654 0
M  V30 110 H 13.9636 -3.98758 -4.23655 0
M  V30 111 H 12.8436 -6.05478 -4.98363 0
M  V30 112 N 10.3467 1.47872 -0.545128 0
M  V30 113 C 11.7627 1.5829 -0.204032 0
M  V30 114 C 11.9627 1.54529 1.29317 0
M  V30 115 O 11.0187 1.44232 2.07252 0
M  V30 116 C 12.3317 2.89304 -0.819987 0
M  V30 117 C 13.8797 3.02864 -0.790105 0
M  V30 118 C 14.3547 4.3656 -1.38491 0
M  V30 119 N 15.8457 4.43165 -1.34755 0
M  V30 120 C 16.5807 5.45153 -1.77753 0
M  V30 121 N 16.0767 6.54016 -2.2855 0
M  V30 122 N 17.8697 5.36125 -1.68897 0
M  V30 123 H 10.0207 1.4856 -1.51802 0
M  V30 124 H 12.2837 0.706305 -0.632327 0
M  V30 125 H 11.9897 2.97757 -1.87173 0
M  V30 126 H 11.8637 3.75957 -0.305915 0
M  V30 127 H 14.2507 2.94014 0.252913 0
M  V30 128 H 14.3317 2.17782 -1.34181 0
M  V30 129 H 13.9757 4.46164 -2.42693 0
M  V30 130 H 13.9057 5.20353 -0.808754 0
M  V30 131 H 16.3967 3.65083 -0.975855 0
M  V30 132 H 16.7097 7.27994 -2.59314 0
M  V30 133 H 15.0547 6.54938 -2.32553 0
M  V30 134 H 18.2457 4.49975 -1.28998 0
M  V30 135 H 18.4187 6.15472 -2.02726 0
M  V30 136 N 11.8248 0.280983 1.55075 0
M  V30 137 C 12.7878 -0.590896 2.21452 0
M  V30 138 C 13.7878 -1.07682 1.19421 0
M  V30 139 O 14.9778 -0.97605 1.44288 0
M  V30 140 C 12.1098 -1.81587 2.88511 0
M  V30 141 H 13.3028 -0.0112554 2.99898 0
M  V30 142 H 10.8558 0.0316438 1.56268 0
M  V30 143 H 11.5908 -2.43587 2.14093 0
M  V30 144 H 11.3758 -1.4753 3.63287 0
M  V30 145 H 12.8658 -2.43575 3.39206 0
M  V30 146 N 13.3029 -1.57598 0.00835791 0
M  V30 147 C 14.2659 -2.07884 -0.965242 0
M  V30 148 C 15.2659 -0.989825 -1.26725 0
M  V30 149 O 16.4559 -1.25218 -1.21104 0
M  V30 150 C 13.5879 -2.52731 -2.28779 0
M  V30 151 H 14.7809 -2.95178 -0.530112 0
M  V30 152 H 12.3339 -1.54458 -0.239283 0
M  V30 153 H 13.0689 -1.68705 -2.76964 0
M  V30 154 H 12.8539 -3.32272 -2.08177 0
M  V30 155 H 14.3439 -2.91933 -2.98605 0
M  V30 156 N 14.781 0.264519 -1.55364 0
M  V30 157 C 15.711 1.33121 -1.91836 0
M  V30 158 C 16.692 1.51101 -0.781192 0
M  V30 159 O 17.877 1.64003 -1.04003 0
M  V30 160 C 15.007 2.68921 -2.19769 0
M  V30 161 C 13.961 2.65661 -3.35571 0
M  V30 162 C 13.287 4.05093 -3.49004 0
M  V30 163 C 14.587 2.24187 -4.71739 0
M  V30 164 H 16.281 1.02844 -2.81182 0
M  V30 165 H 13.827 0.493286 -1.35287 0
M  V30 166 H 15.78 3.43663 -2.43872 0
M  V30 167 H 14.504 3.00799 -1.27231 0
M  V30 168 H 13.163 1.93377 -3.1145 0
M  V30 169 H 12.811 4.34206 -2.53917 0
M  V30 170 H 12.511 4.03804 -4.26868 0
M  V30 171 H 14.035 4.81561 -3.75408 0
M  V30 172 H 15.449 2.88654 -4.9533 0
M  V30 173 H 13.846 2.34044 -5.52579 0
M  V30 174 H 14.916 1.19327 -4.69988 0
M  V30 175 N 16.2591 1.48442 0.529413 0
M  V30 176 C 17.5061 1.56488 1.28521 0
M  V30 177 C 17.8341 0.239042 1.93025 0
M  V30 178 O 17.0891 -0.770713 1.79885 0
M  V30 179 C 17.3881 2.6523 2.39558 0
M  V30 180 C 17.0541 4.07648 1.92702 0
M  V30 181 C 15.7161 4.46411 1.79641 0
M  V30 182 C 18.0681 4.96896 1.573 0
M  V30 183 C 15.3961 5.72226 1.29514 0
M  V30 184 C 17.7481 6.23202 1.08636 0
M  V30 185 C 16.4121 6.60821 0.941919 0
M  V30 186 H 15.6821 0.572631 0.470292 0
M  V30 187 H 18.3291 1.82161 0.59072 0
M  V30 188 H 16.6341 2.33419 3.14679 0
M  V30 189 H 18.3311 2.68671 2.97686 0
M  V30 190 H 14.9211 3.77036 2.03819 0
M  V30 191 H 19.1051 4.67626 1.66251 0
M  V30 192 H 14.3611 6.00097 1.17019 0
M  V30 193 H 18.5351 6.91753 0.803136 0
M  V30 194 H 16.1621 7.58198 0.5513 0
M  V30 195 N 17.7372 -0.778329 1.37039 0
M  V30 196 C 18.9832 -1.53817 1.33086 0
M  V30 197 C 19.3382 -1.92208 -0.0860346 0
M  V30 198 O 18.6312 -1.60713 -1.04316 0
M  V30 199 C 18.8252 -2.81845 2.19768 0
M  V30 200 C 18.6542 -2.55967 3.69744 0
M  V30 201 C 17.4242 -2.50428 4.38878 0
M  V30 202 C 19.6222 -2.2441 4.62758 0
M  V30 203 N 17.6042 -2.16564 5.74433 0
M  V30 204 C 18.9752 -2.0063 5.86641 0
M  V30 205 C 21.0302 -2.1051 4.5121 0
M  V30 206 C 19.7332 -1.64354 7.00272 0
M  V30 207 C 21.7592 -1.75634 5.64718 0
M  V30 208 C 21.1212 -1.52709 6.87648 0
M  V30 209 H 17.2202 -0.563434 0.542279 0
M  V30 210 H 19.8042 -0.908617 1.72198 0
M  V30 211 H 17.9752 -3.42649 1.82883 0
M  V30 212 H 19.7072 -3.47682 2.07122 0
M  V30 213 H 16.4622 -2.66056 3.91805 0
M  V30 214 H 16.8862 -2.02348 6.46053 0
M  V30 215 H 21.5282 -2.26919 3.56746 0
M  V30 216 H 19.2462 -1.46683 7.94676 0
M  V30 217 H 22.8322 -1.65546 5.57751 0
M  V30 218 H 21.7122 -1.2612 7.73992 0
M  V30 219 N 19.2153 -1.21501 -1.00376 0
M  V30 220 C 20.4613 -1.03452 -1.74429 0
M  V30 221 C 20.7943 0.430764 -1.89362 0
M  V30 222 O 20.0693 1.31962 -1.42886 0
M  V30 223 C 20.3523 -1.73375 -3.15615 0
M  V30 224 C 20.2053 -3.27431 -3.08397 0
M  V30 225 C 21.5243 -1.47732 -4.14564 0
M  V30 226 H 18.6433 -0.377226 -0.633143 0
M  V30 227 H 21.2853 -1.49693 -1.17013 0
M  V30 228 H 19.4353 -1.34064 -3.64636 0
M  V30 229 H 21.1073 -3.76119 -2.67081 0
M  V30 230 H 19.3503 -3.5767 -2.45468 0
M  V30 231 H 20.0213 -3.71524 -4.08258 0
M  V30 232 H 22.4973 -1.8186 -3.74254 0
M  V30 233 H 21.3733 -1.99169 -5.11491 0
M  V30 234 H 21.6343 -0.407589 -4.40217 0
M  V30 235 N 20.6934 1.19889 -1.02296 0
M  V30 236 C 22.1044 1.71124 -0.746568 0
M  V30 237 C 22.4554 1.81939 0.734335 0
M  V30 238 O 21.5804 1.48639 1.57275 0
M  V30 239 C 22.1754 3.10804 -1.34857 0
M  V30 240 C 20.7344 3.59323 -1.1209 0
M  V30 241 C 19.8814 2.3635 -1.45031 0
M  V30 242 H 22.8324 1.04813 -1.19163 0
M  V30 243 H 22.8534 3.73186 -0.742437 0
M  V30 244 H 22.3654 3.029 -2.42638 0
M  V30 245 H 20.4664 3.7255 -0.0610337 0
M  V30 246 H 20.5794 4.4378 -1.80544 0
M  V30 247 H 18.9434 2.39399 -0.869487 0
M  V30 248 H 19.7264 2.31081 -2.53883 0
M  V30 249 N 22.1715 0.800033 1.35784 0
M  V30 250 C 23.5875 0.482977 1.52117 0
M  V30 251 C 23.7875 -0.996948 1.75109 0
M  V30 252 O 22.8435 -1.78216 1.78872 0
M  V30 253 C 24.1565 1.32264 2.70049 0
M  V30 254 C 25.7045 1.31742 2.83924 0
M  V30 255 C 26.1795 2.14106 4.04874 0
M  V30 256 N 27.6705 2.11607 4.12039 0
M  V30 257 C 28.4055 2.72099 5.04727 0
M  V30 258 N 27.9015 3.41492 6.02789 0
M  V30 259 N 29.6945 2.61776 4.97423 0
M  V30 260 H 21.8455 1.75856 1.19115 0
M  V30 261 H 24.1085 0.748122 0.582252 0
M  V30 262 H 23.8145 2.37261 2.59616 0
M  V30 263 H 23.6885 0.971303 3.6448 0
M  V30 264 H 26.0755 0.275333 2.93813 0
M  V30 265 H 26.1565 1.70859 1.9037 0
M  V30 266 H 25.8005 3.18351 3.95746 0
M  V30 267 H 25.7305 1.72353 4.97596 0
M  V30 268 H 28.2215 1.61112 3.41835 0
M  V30 269 H 28.5345 3.84953 6.70098 0
M  V30 270 H 26.8795 3.45596 6.02983 0
M  V30 271 H 30.0705 2.07157 4.19766 0
M  V30 272 H 30.2435 3.0921 5.69468 0
M  V30 273 N 23.6496 -1.47581 0.552962 0
M  V30 274 C 24.8976 -2.02082 0.0272703 0
M  V30 275 C 25.2186 -1.4301 -1.32563 0
M  V30 276 O 24.4886 -0.603745 -1.86365 0
M  V30 277 H 23.0686 -0.746966 0.00709182 0
M  V30 278 H 25.7306 -1.81033 0.722008 0
M  V30 279 H 24.8266 -3.12034 -0.0639951 0
M  V30 280 N 25.1277 -0.289203 -1.54924 0
M  V30 281 C 26.5437 0.0645403 -1.59469 0
M  V30 282 C 26.7437 1.53419 -1.30632 0
M  V30 283 O 25.7997 2.2852 -1.074 0
M  V30 284 C 27.1127 -0.32278 -2.98963 0
M  V30 285 C 28.6607 -0.270564 -3.11828 0
M  V30 286 C 29.1357 -0.632532 -4.53611 0
M  V30 287 N 30.6267 -0.584617 -4.59496 0
M  V30 288 C 31.3617 -0.837314 -5.67254 0
M  V30 289 N 30.8577 -1.15536 -6.83098 0
M  V30 290 N 32.6507 -0.765166 -5.56868 0
M  V30 291 H 24.8017 -1.24714 -1.71931 0
M  V30 292 H 27.0647 -0.504809 -0.802416 0
M  V30 293 H 26.7707 -1.34541 -3.24948 0
M  V30 294 H 26.6447 0.32944 -3.75759 0
M  V30 295 H 29.0317 0.742805 -2.85598 0
M  V30 296 H 29.1127 -0.957242 -2.37214 0
M  V30 297 H 28.7567 -1.64365 -4.80569 0
M  V30 298 H 28.6867 0.07609 -5.26545 0
M  V30 299 H 31.1777 -0.349248 -3.76283 0
M  V30 300 H 31.4907 -1.33447 -7.61191 0
M  V30 301 H 29.8357 -1.19328 -6.84679 0
M  V30 302 H 33.0267 -0.516432 -4.65243 0
M  V30 303 H 33.1997 -0.965477 -6.40767 0
M  V30 304 N 26.6058 1.57591 -0.0167156 0
M  V30 305 C 28.0218 1.55946 0.339557 0
M  V30 306 C 28.2218 1.02109 1.73713 0
M  V30 307 O 27.2778 0.662303 2.43659 0
M  V30 308 C 28.5908 3.00037 0.199499 0
M  V30 309 C 30.1388 3.11805 0.273193 0
M  V30 310 C 30.6138 4.57713 0.162068 0
M  V30 311 N 32.1048 4.6268 0.219444 0
M  V30 312 C 32.8398 5.73185 0.157054 0
M  V30 313 N 32.3358 6.92786 0.0442936 0
M  V30 314 N 34.1288 5.61707 0.21014 0
M  V30 315 H 26.2798 1.90921 -0.930758 0
M  V30 316 H 28.5428 0.877674 -0.358319 0
M  V30 317 H 28.2488 3.4333 -0.76273 0
M  V30 318 H 28.1228 3.64387 0.974786 0
M  V30 319 H 30.5098 2.68433 1.22587 0
M  V30 320 H 30.5908 2.50201 -0.532256 0
M  V30 321 H 30.2348 5.01763 -0.78714 0
M  V30 322 H 30.1648 5.17283 0.986222 0
M  V30 323 H 32.6558 3.76649 0.307246 0
M  V30 324 H 32.9688 7.728 0.00304069 0
M  V30 325 H 31.3138 6.94999 0.00968457 0
M  V30 326 H 34.5048 4.6716 0.296546 0
M  V30 327 H 34.6778 6.47807 0.158054 0
M  V30 328 N 28.0839 -0.256276 1.55502 0
M  V30 329 C 29.0469 -1.30047 1.88734 0
M  V30 330 C 30.0469 -1.4154 0.763086 0
M  V30 331 O 31.2369 -1.40403 1.03115 0
M  V30 332 C 28.3689 -2.67953 2.10747 0
M  V30 333 H 29.5619 -1.01802 2.82093 0
M  V30 334 H 27.1149 -0.495134 1.4825 0
M  V30 335 H 27.8499 -3.01351 1.19825 0
M  V30 336 H 27.6349 -2.60993 2.92617 0
M  V30 337 H 29.1249 -3.43368 2.37673 0
M  V30 338 N 29.562 -1.4872 -0.521534 0
M  V30 339 C 30.494 -1.59968 -1.64143 0
M  V30 340 C 31.507 -0.483463 -1.55456 0
M  V30 341 O 32.696 -0.75467 -1.61762 0
M  V30 342 C 29.796 -1.52127 -3.02838 0
M  V30 343 C 28.969 -2.78932 -3.36921 0
M  V30 344 C 28.028 -2.64428 -4.54933 0
M  V30 345 O 27.054 -3.38331 -4.57735 0
M  V30 346 N 28.256 -1.74606 -5.53618 0
M  V30 347 H 31.021 -2.56548 -1.54929 0
M  V30 348 H 28.582 -1.45551 -0.708988 0
M  V30 349 H 30.574 -1.40106 -3.79674 0
M  V30 350 H 29.144 -0.634868 -3.06085 0
M  V30 351 H 28.364 -3.05455 -2.4918 0
M  V30 352 H 29.652 -3.63041 -3.56481 0
M  V30 353 H 29.05 -1.13782 -5.54139 0
M  V30 354 H 27.607 -1.6852 -6.29638 0
M  V30 355 N 31.0401 0.771051 -1.3745 0
M  V30 356 C 32.2651 1.56529 -1.36065 0
M  V30 357 C 32.6901 1.88029 0.0515859 0
M  V30 358 O 32.0481 1.49282 1.02882 0
M  V30 359 C 32.0961 2.85187 -2.20683 0
M  V30 360 O 31.2001 3.79593 -1.61193 0
M  V30 361 H 30.5411 0.47411 -0.464883 0
M  V30 362 H 33.0711 0.954269 -1.80983 0
M  V30 363 H 33.0811 3.34283 -2.33921 0
M  V30 364 H 31.7561 2.61588 -3.23334 0
M  V30 365 H 30.3331 3.38239 -1.56999 0
M  V30 366 N 32.5182 1.22032 0.997298 0
M  V30 367 C 33.4812 0.987909 2.06816 0
M  V30 368 C 34.4812 -0.0440084 1.6074 0
M  V30 369 O 35.6712 0.194053 1.73116 0
M  V30 370 C 32.8032 0.49132 3.37341 0
M  V30 371 H 33.9962 1.93803 2.28868 0
M  V30 372 H 31.5492 1.03838 1.16822 0
M  V30 373 H 32.2842 -0.463364 3.20973 0
M  V30 374 H 32.0692 1.23575 3.72118 0
M  V30 375 H 33.5592 0.348824 4.16141 0
M  V30 376 N 33.9963 -1.19345 1.0293 0
M  V30 377 C 34.9263 -2.2481 0.631105 0
M  V30 378 C 35.9073 -1.66245 -0.360104 0
M  V30 379 O 37.0923 -1.92677 -0.242726 0
M  V30 380 C 34.2223 -3.47295 -0.0184607 0
M  V30 381 C 33.1763 -4.18536 0.895073 0
M  V30 382 C 32.5023 -5.34586 0.110592 0
M  V30 383 C 33.8023 -4.73287 2.209 0
M  V30 384 H 35.4963 -2.58372 1.51275 0
M  V30 385 H 33.0423 -1.24194 0.728818 0
M  V30 386 H 34.9953 -4.20268 -0.308675 0
M  V30 387 H 33.7193 -3.12933 -0.934907 0
M  V30 388 H 32.3783 -3.47446 1.16949 0
M  V30 389 H 32.0263 -4.96469 -0.807902 0
M  V30 390 H 31.7263 -5.83183 0.719087 0
M  V30 391 H 33.2503 -6.10355 -0.172871 0
M  V30 392 H 34.6643 -5.38013 1.98028 0
M  V30 393 H 33.0613 -5.32373 2.76946 0
M  V30 394 H 34.1313 -3.91331 2.86336 0
M  V30 395 N 35.4744 -0.807222 -1.35358 0
M  V30 396 C 36.4374 -0.223665 -2.28106 0
M  V30 397 C 37.4374 0.589354 -1.4961 0
M  V30 398 O 38.6274 0.407745 -1.69361 0
M  V30 399 C 35.7594 0.688149 -3.33882 0
M  V30 400 H 36.9524 -1.04169 -2.81227 0
M  V30 401 H 34.5054 -0.577921 -1.45223 0
M  V30 402 H 35.2404 1.52984 -2.85948 0
M  V30 403 H 35.0254 0.10687 -3.91954 0
M  V30 404 H 36.5154 1.09075 -4.03104 0
M  V30 405 N 36.9525 1.47285 -0.560781 0
M  V30 406 C 37.8845 2.28118 0.222438 0
M  V30 407 C 38.8975 1.37219 0.876056 0
M  V30 408 O 40.0865 1.62011 0.749307 0
M  V30 409 C 37.1865 3.1159 1.33285 0
M  V30 410 C 36.3595 4.30473 0.77534 0
M  V30 411 C 35.4185 4.95513 1.77069 0
M  V30 412 O 34.4445 5.53792 1.31539 0
M  V30 413 N 35.6465 4.90531 3.10418 0
M  V30 414 H 38.4115 2.95976 -0.470958 0
M  V30 415 H 35.9725 1.56955 -0.39709 0
M  V30 416 H 37.9645 3.51967 1.99752 0
M  V30 417 H 36.5345 2.45951 1.92943 0
M  V30 418 H 35.7545 3.94144 -0.0662113 0
M  V30 419 H 37.0425 5.07362 0.382272 0
M  V30 420 H 36.4405 4.44389 3.5005 0
M  V30 421 H 34.9975 5.34917 3.72434 0
M  V30 422 N 38.4306 0.297415 1.54768 0
M  V30 423 C 39.3606 -0.573494 2.26348 0
M  V30 424 C 40.3416 -1.14085 1.26169 0
M  V30 425 O 41.5266 -1.17086 1.54934 0
M  V30 426 C 38.6566 -1.74716 3.00153 0
M  V30 427 C 37.6106 -1.31032 4.07449 0
M  V30 428 C 36.9366 -2.56887 4.68949 0
M  V30 429 C 38.2366 -0.444183 5.20408 0
M  V30 430 H 39.9306 0.0235131 2.99391 0
M  V30 431 H 37.4766 0.0127488 1.43994 0
M  V30 432 H 39.4296 -2.3625 3.48947 0
M  V30 433 H 38.1536 -2.37035 2.24682 0
M  V30 434 H 36.8126 -0.718066 3.59499 0
M  V30 435 H 36.4606 -3.17512 3.90122 0
M  V30 436 H 36.1606 -2.2836 5.41411 0
M  V30 437 H 37.6846 -3.19229 5.20505 0
M  V30 438 H 39.0986 -0.9651 5.65118 0
M  V30 439 H 37.4956 -0.252846 5.99567 0
M  V30 440 H 38.5656 0.531609 4.81977 0
M  V30 441 N 39.9087 -1.5758 0.0250728 0
M  V30 442 C 41.3247 -1.56124 -0.331282 0
M  V30 443 C 41.5247 -1.03029 -1.73169 0
M  V30 444 O 40.5807 -0.675215 -2.43305 0
M  V30 445 C 41.8937 -3.00139 -0.183584 0
M  V30 446 C 43.4417 -3.11946 -0.256654 0
M  V30 447 C 43.9167 -4.57793 -0.137792 0
M  V30 448 N 45.4077 -4.6279 -0.194904 0
M  V30 449 C 46.1427 -5.7326 -0.126655 0
M  V30 450 N 45.6387 -6.928 -0.00755288 0
M  V30 451 N 47.4317 -5.61811 -0.180348 0
M  V30 452 H 39.5827 -1.90424 0.94087 0
M  V30 453 H 41.8457 -0.875761 0.362968 0
M  V30 454 H 41.5517 -3.4292 0.780927 0
M  V30 455 H 41.4257 -3.64899 -0.955448 0
M  V30 456 H 43.8127 -2.69079 -1.21162 0
M  V30 457 H 43.8937 -2.49915 0.545517 0
M  V30 458 H 43.5377 -5.01339 0.813739 0
M  V30 459 H 43.4677 -5.17798 -0.958775 0
M  V30 460 H 45.9587 -3.76807 -0.287267 0
M  V30 461 H 46.2717 -7.72791 0.0379428 0
M  V30 462 H 44.6167 -6.94995 0.0271731 0
M  V30 463 H 47.8077 -4.6731 -0.271767 0
M  V30 464 H 47.9807 -6.47882 -0.123697 0
M  V30 465 N 41.3868 0.248026 -1.55636 0
M  V30 466 C 42.6348 0.974295 -1.77065 0
M  V30 467 C 42.9558 1.85897 -0.588849 0
M  V30 468 O 42.2258 1.91868 0.395407 0
M  V30 469 H 40.8058 0.362733 -0.653019 0
M  V30 470 H 43.4678 0.266244 -1.93073 0
M  V30 471 H 42.5638 1.59667 -2.68166 0
M  V30 472 N 42.8649 1.48995 0.513639 0
M  V30 473 C 44.1139 1.57093 1.2651 0
M  V30 474 C 44.4269 0.257091 1.93903 0
M  V30 475 O 45.6329 0.216478 2.70636 0
M  V30 476 C 44.0889 2.77118 2.29638 0
M  V30 477 C 43.6969 4.15209 1.68241 0
M  V30 478 C 45.4409 2.94538 3.05692 0
M  V30 479 C 43.3479 5.26474 2.69406 0
M  V30 480 H 42.2779 0.584876 0.475854 0
M  V30 481 H 44.9289 1.7536 0.540487 0
M  V30 482 H 43.3109 2.52319 3.05207 0
M  V30 483 H 44.4849 4.50094 0.987505 0
M  V30 484 H 42.7999 4.03042 1.04623 0
M  V30 485 H 45.3969 3.74832 3.8132 0
M  V30 486 H 45.7399 2.04614 3.62545 0
M  V30 487 H 46.2729 3.19316 2.37238 0
M  V30 488 H 43.0119 6.18417 2.17351 0
M  V30 489 H 42.5319 4.96058 3.37175 0
M  V30 490 H 44.2109 5.55277 3.32078 0
M  V30 491 N 44.343 -0.763751 1.37857 0
M  V30 492 C 45.273 -1.89103 1.36975 0
M  V30 493 C 46.254 -1.68439 0.237152 0
M  V30 494 O 47.439 -1.8918 0.438713 0
M  V30 495 C 44.569 -3.26496 1.18395 0
M  V30 496 C 43.523 -3.61741 2.28751 0
M  V30 497 C 42.849 -4.97762 1.95286 0
M  V30 498 C 44.149 -3.67665 3.70972 0
M  V30 499 H 45.843 -1.90099 2.31307 0
M  V30 500 H 43.389 -0.91319 1.11341 0
M  V30 501 H 45.342 -4.05003 1.16406 0
M  V30 502 H 44.066 -3.25955 0.205215 0
M  V30 503 H 42.725 -2.85547 2.29909 0
M  V30 504 H 42.373 -4.93769 0.959221 0
M  V30 505 H 42.073 -5.22313 2.69189 0
M  V30 506 H 43.597 -5.7866 1.94898 0
M  V30 507 H 45.011 -4.36307 3.719 0
M  V30 508 H 43.408 -4.03718 4.43995 0
M  V30 509 H 44.478 -2.68134 4.0402 0
M  V30 510 N 45.8211 -1.22559 -0.990812 0
M  V30 511 C 46.7311 -1.01394 -2.11557 0
M  V30 512 C 47.7471 0.0383962 -1.73958 0
M  V30 513 O 48.9231 -0.154787 -2.00804 0
M  V30 514 C 45.9881 -0.596569 -3.41529 0
M  V30 515 C 45.0491 -1.72276 -3.93217 0
M  V30 516 C 44.2821 -1.32521 -5.16985 0
M  V30 517 O 44.5051 -0.204909 -5.70032 0
M  V30 518 O 43.4391 -2.14247 -5.62478 0
M  V30 519 H 47.2651 -1.95633 -2.32296 0
M  V30 520 H 44.8501 -1.01172 -1.0993 0
M  V30 521 H 46.7321 -0.374263 -4.19735 0
M  V30 522 H 45.4071 0.316939 -3.22145 0
M  V30 523 H 44.3141 -1.99961 -3.16174 0
M  V30 524 H 45.6471 -2.61421 -4.17037 0
M  V30 525 N 47.2992 1.18797 -1.03562 0
M  V30 526 C 48.5472 1.88278 -0.734569 0
M  V30 527 C 48.8682 1.8043 0.739586 0
M  V30 528 O 48.1382 1.21925 1.53333 0
M  V30 529 H 46.7182 0.696991 -0.268725 0
M  V30 530 H 49.3802 1.44192 -1.31129 0
M  V30 531 H 48.4762 2.94443 -1.03489 0
M  V30 532 N 48.7773 0.814389 1.34928 0
M  V30 533 C 49.6873 0.231978 2.3345 0
M  V30 534 C 50.7033 -0.629139 1.62228 0
M  V30 535 O 51.8793 -0.539052 1.94052 0
M  V30 536 C 48.9443 -0.603482 3.41407 0
M  V30 537 C 48.0053 0.279037 4.28392 0
M  V30 538 C 47.2383 -0.516643 5.31193 0
M  V30 539 O 47.4613 -1.75068 5.4287 0
M  V30 540 O 46.3953 0.0965652 6.01823 0
M  V30 541 H 50.2213 1.04721 2.85074 0
M  V30 542 H 47.8063 0.576343 1.37836 0
M  V30 543 H 49.6883 -1.07908 4.0735 0
M  V30 544 H 48.3633 -1.39618 2.92042 0
M  V30 545 H 47.2703 0.801948 3.65403 0
M  V30 546 H 48.6033 1.03588 4.81176 0
M  V30 547 N 50.2554 -1.46986 0.568584 0
M  V30 548 C 51.1854 -2.32946 -0.160753 0
M  V30 549 C 52.1664 -1.44487 -0.897631 0
M  V30 550 O 53.3514 -1.73327 -0.875867 0
M  V30 551 C 50.4814 -3.26494 -1.18403 0
M  V30 552 C 49.4354 -4.24282 -0.562895 0
M  V30 553 C 48.7614 -5.07236 -1.69163 0
M  V30 554 C 50.0614 -5.19989 0.490761 0
M  V30 555 H 51.7554 -2.94175 0.556916 0
M  V30 556 H 49.3014 -1.4146 0.26927 0
M  V30 557 H 51.2544 -3.85477 -1.70251 0
M  V30 558 H 49.9784 -2.63343 -1.93179 0
M  V30 559 H 48.6374 -3.66541 -0.0656164 0
M  V30 560 H 48.2854 -4.4048 -2.42871 0
M  V30 561 H 47.9854 -5.7345 -1.28174 0
M  V30 562 H 49.5094 -5.6908 -2.21314 0
M  V30 563 H 50.9234 -5.73271 0.0579047 0
M  V30 564 H 49.3204 -5.94469 0.820165 0
M  V30 565 H 50.3904 -4.64777 1.3824 0
M  V30 566 N 51.7335 -0.305618 -1.54608 0
M  V30 567 C 52.6435 0.57778 -2.27374 0
M  V30 568 C 53.6595 1.14451 -1.31061 0
M  V30 569 O 54.8355 1.16831 -1.6405 0
M  V30 570 C 51.9005 1.73123 -3.00382 0
M  V30 571 C 50.9615 1.19812 -4.12242 0
M  V30 572 C 50.1945 2.2966 -4.81759 0
M  V30 573 O 50.4175 3.49651 -4.50666 0
M  V30 574 O 49.3515 1.96091 -5.69062 0
M  V30 575 H 53.1775 -0.012624 -3.03697 0
M  V30 576 H 50.7625 -0.0719184 -1.49227 0
M  V30 577 H 52.6445 2.40315 -3.4616 0
M  V30 578 H 51.3195 2.30815 -2.26949 0
M  V30 579 H 50.2265 0.491798 -3.70853 0
M  V30 580 H 51.5595 0.666566 -4.87666 0
M  V30 581 N 53.2116 1.57565 -0.0334293 0
M  V30 582 C 54.4596 1.91598 0.642999 0
M  V30 583 C 54.7806 0.910847 1.7242 0
M  V30 584 O 54.0506 -0.0469931 1.95844 0
M  V30 585 H 52.6306 0.707228 0.240496 0
M  V30 586 H 55.2926 1.94726 -0.0822488 0
M  V30 587 H 54.3886 2.92336 1.09298 0
M  V30 588 N 54.6897 -0.239769 1.55765 0
M  V30 589 C 55.9387 -0.964754 1.77131 0
M  V30 590 C 56.2517 -1.86213 0.59868 0
M  V30 591 O 57.4577 -2.6244 0.695522 0
M  V30 592 C 55.9137 -1.76552 3.1362 0
M  V30 593 C 55.5217 -0.915185 4.38553 0
M  V30 594 C 57.2657 -2.48281 3.44321 0
M  V30 595 C 55.1727 -1.71225 5.66071 0
M  V30 596 H 54.1027 -0.363953 0.660344 0
M  V30 597 H 56.7537 -0.219181 1.82186 0
M  V30 598 H 55.1357 -2.55331 3.02691 0
M  V30 599 H 56.3097 -0.169217 4.60489 0
M  V30 600 H 54.6247 -0.310889 4.15238 0
M  V30 601 H 57.2217 -3.08382 4.36812 0
M  V30 602 H 57.5647 -3.20256 2.65973 0
M  V30 603 H 58.0977 -1.76507 3.56497 0
M  V30 604 H 54.8367 -1.03612 6.4726 0
M  V30 605 H 54.3567 -2.43331 5.48224 0
M  V30 606 H 56.0357 -2.27758 6.05587 0
M  V30 607 N 56.1678 -1.49265 -0.50573 0
M  V30 608 C 57.5838 -1.35923 -0.836486 0
M  V30 609 C 57.7838 -0.388704 -1.97715 0
M  V30 610 O 56.8398 0.181336 -2.51848 0
M  V30 611 C 58.1528 -2.76531 -1.18115 0
M  V30 612 C 59.7008 -2.85197 -1.28964 0
M  V30 613 C 60.1758 -4.26561 -1.66761 0
M  V30 614 N 61.6668 -4.2935 -1.73819 0
M  V30 615 C 62.4018 -5.35693 -2.045 0
M  V30 616 N 61.8978 -6.52287 -2.33438 0
M  V30 617 N 63.6908 -5.23105 -2.05711 0
M  V30 618 H 55.8418 -2.10965 0.246519 0
M  V30 619 H 58.1048 -0.9468 0.0476887 0
M  V30 620 H 57.8108 -3.49226 -0.416398 0
M  V30 621 H 57.6848 -3.11599 -2.1257 0
M  V30 622 H 60.0718 -2.12742 -2.04511 0
M  V30 623 H 60.1528 -2.53718 -0.325704 0
M  V30 624 H 59.7968 -4.99541 -0.917656 0
M  V30 625 H 59.7268 -4.55502 -2.64246 0
M  V30 626 H 62.2178 -3.4526 -1.53635 0
M  V30 627 H 62.5308 -7.29158 -2.56024 0
M  V30 628 H 60.8758 -6.55521 -2.30905 0
M  V30 629 H 64.0668 -4.31026 -1.82577 0
M  V30 630 H 64.2398 -6.06078 -2.29289 0
M  V30 631 N 57.6459 0.756429 -1.3826 0
M  V30 632 C 58.8939 1.51248 -1.34047 0
M  V30 633 C 59.2149 1.94875 0.0698372 0
M  V30 634 O 58.4849 1.67436 1.01696 0
M  V30 635 H 57.0649 0.561018 -0.493222 0
M  V30 636 H 59.7269 0.899347 -1.7291 0
M  V30 637 H 58.8229 2.40472 -1.98947 0
M  V30 638 N 59.124 1.23083 0.984299 0
M  V30 639 C 60.087 1.00979 2.05757 0
M  V30 640 C 61.087 -0.0269573 1.60777 0
M  V30 641 O 62.277 0.212403 1.729 0
M  V30 642 C 59.409 0.527072 3.36801 0
M  V30 643 H 60.602 1.9622 2.26799 0
M  V30 644 H 58.155 1.05072 1.15714 0
M  V30 645 H 58.89 -0.429294 3.21446 0
M  V30 646 H 58.675 1.27515 3.70786 0
M  V30 647 H 60.165 0.392942 4.15747 0
M  V30 648 N 60.6021 -1.18246 1.0419 0
M  V30 649 C 61.8501 -1.87886 0.744543 0
M  V30 650 C 62.1711 -1.8082 -0.730006 0
M  V30 651 O 61.4411 -1.22736 -1.52685 0
M  V30 652 H 60.0211 -0.695556 0.272417 0
M  V30 653 H 62.6831 -1.43494 1.31892 0
M  V30 654 H 61.7791 -2.9389 1.05049 0
M  V30 655 N 62.0802 -0.821533 -1.34494 0
M  V30 656 C 63.3082 -0.421884 -2.02553 0
M  V30 657 C 63.7232 0.971745 -1.61872 0
M  V30 658 O 63.0802 1.62864 -0.823496 0
M  V30 659 C 63.1312 -0.51285 -3.57844 0
M  V30 660 O 62.8522 -1.85155 -3.97051 0
M  V30 661 C 64.3532 -0.107921 -4.43169 0
M  V30 662 H 61.5732 -0.169482 -0.649243 0
M  V30 663 H 64.1172 -1.1093 -1.71798 0
M  V30 664 H 62.2722 0.126474 -3.87193 0
M  V30 665 H 62.6862 -1.82482 -4.91732 0
M  V30 666 H 64.1602 -0.222657 -5.51551 0
M  V30 667 H 64.6372 0.948401 -4.28838 0
M  V30 668 H 65.2432 -0.720989 -4.19144 0
M  V30 669 N 63.5583 1.46682 -0.576371 0
M  V30 670 C 64.8043 2.03287 -0.0679305 0
M  V30 671 C 65.1593 1.44063 1.27529 0
M  V30 672 O 64.4523 0.593973 1.82161 0
M  V30 673 C 64.6463 3.57345 0.062886 0
M  V30 674 C 64.4753 4.31509 -1.26611 0
M  V30 675 C 63.2453 4.70664 -1.83856 0
M  V30 676 C 65.4433 4.65444 -2.18783 0
M  V30 677 N 63.4253 5.29552 -3.10561 0
M  V30 678 C 64.7963 5.24835 -3.30072 0
M  V30 679 C 66.8513 4.47375 -2.18542 0
M  V30 680 C 65.5543 5.68063 -4.41244 0
M  V30 681 C 67.5803 4.91614 -3.28739 0
M  V30 682 C 66.9423 5.51071 -4.38748 0
M  V30 683 H 63.0413 0.779083 -0.0674836 0
M  V30 684 H 65.6253 1.78918 -0.767877 0
M  V30 685 H 63.7963 3.8144 0.731988 0
M  V30 686 H 65.5283 4.00592 0.575134 0
M  V30 687 H 62.2833 4.53224 -1.37424 0
M  V30 688 H 62.7073 5.63523 -3.75195 0
M  V30 689 H 67.3493 4.00747 -1.34765 0
M  V30 690 H 65.0673 6.13672 -5.25768 0
M  V30 691 H 68.6533 4.79389 -3.29662 0
M  V30 692 H 67.5333 5.84678 -5.22611 0
M  V30 693 N 65.0364 0.313813 1.54444 0
M  V30 694 C 65.9834 -0.55655 2.23989 0
M  V30 695 C 66.9534 -1.11943 1.22711 0
M  V30 696 O 68.1384 -1.16158 1.51367 0
M  V30 697 C 65.2784 -1.71635 2.99392 0
M  V30 698 C 64.3914 -1.18364 4.15468 0
M  V30 699 C 63.5264 -2.30834 4.78424 0
M  V30 700 C 62.5654 -1.74762 5.86622 0
M  V30 701 N 61.7024 -2.80855 6.43479 0
M  V30 702 H 66.5424 0.0430893 2.97969 0
M  V30 703 H 64.0794 0.0330359 1.47063 0
M  V30 704 H 66.0374 -2.39868 3.41349 0
M  V30 705 H 64.6674 -2.28742 2.27765 0
M  V30 706 H 63.7194 -0.393163 3.78363 0
M  V30 707 H 65.0314 -0.733262 4.93381 0
M  V30 708 H 64.1854 -3.0699 5.23299 0
M  V30 709 H 62.9244 -2.79204 3.99871 0
M  V30 710 H 61.9294 -0.970995 5.41158 0
M  V30 711 H 63.1544 -1.2728 6.67066 0
M  V30 712 H 61.1004 -3.28535 5.67804 0
M  V30 713 H 61.0174 -2.40351 7.16776 0
M  V30 714 H 62.2854 -3.5687 6.93011 0
M  V30 715 N 66.5145 -1.57545 0.0417849 0
M  V30 716 C 67.7395 -1.97035 -0.647455 0
M  V30 717 C 68.1645 -0.918775 -1.64135 0
M  V30 718 O 67.5225 0.119006 -1.80909 0
M  V30 719 C 67.5705 -3.35609 -1.31905 0
M  V30 720 O 66.6745 -3.3287 -2.43457 0
M  V30 721 H 66.0155 -0.64211 -0.169086 0
M  V30 722 H 68.5455 -2.04318 0.107399 0
M  V30 723 H 68.5555 -3.72126 -1.67291 0
M  V30 724 H 67.2305 -4.11685 -0.590586 0
M  V30 725 H 65.8075 -3.08087 -2.10088 0
M  V30 726 N 67.9926 0.231505 -1.5589 0
M  V30 727 C 68.9026 1.308 -1.94752 0
M  V30 728 C 69.9186 1.51826 -0.849989 0
M  V30 729 O 71.0946 1.6515 -1.15271 0
M  V30 730 C 68.1596 2.63968 -2.24771 0
M  V30 731 C 67.2206 2.51331 -3.48039 0
M  V30 732 C 66.4536 3.78148 -3.76616 0
M  V30 733 O 66.6766 4.80722 -3.07022 0
M  V30 734 O 65.6106 3.75857 -4.70123 0
M  V30 735 H 69.4366 1.0083 -2.86474 0
M  V30 736 H 67.0216 0.433547 -1.42971 0
M  V30 737 H 68.9036 3.42633 -2.45318 0
M  V30 738 H 67.5786 2.9364 -1.36225 0
M  V30 739 H 66.4856 1.709 -3.32782 0
M  V30 740 H 67.8186 2.26601 -4.36936 0
M  V30 741 N 69.4707 1.49531 0.497807 0
M  V30 742 C 70.8867 1.36365 0.829266 0
M  V30 743 C 71.0867 0.399184 1.97506 0
M  V30 744 O 70.1427 -0.167977 2.51941 0
M  V30 745 C 71.4557 2.77153 1.16647 0
M  V30 746 C 73.0037 2.85877 1.27449 0
M  V30 747 C 73.4787 4.2744 1.64497 0
M  V30 748 N 74.9697 4.30265 1.7154 0
M  V30 749 C 75.7047 5.3677 2.01656 0
M  V30 750 N 75.2007 6.53516 2.29976 0
M  V30 751 N 76.9937 5.24189 2.02934 0
M  V30 752 H 69.1447 2.10831 -0.257703 0
M  V30 753 H 71.4077 0.946534 -0.0527091 0
M  V30 754 H 71.1137 3.49442 0.397872 0
M  V30 755 H 70.9877 3.12722 2.10915 0
M  V30 756 H 73.3747 2.13824 2.0338 0
M  V30 757 H 73.4557 2.53887 0.312244 0
M  V30 758 H 73.0997 5.00021 0.891151 0
M  V30 759 H 73.0297 4.56896 2.61827 0
M  V30 760 H 75.5207 3.4607 1.51802 0
M  V30 761 H 75.8337 7.30506 2.52153 0
M  V30 762 H 74.1787 6.56737 2.27425 0
M  V30 763 H 77.3697 4.31988 1.80289 0
M  V30 764 H 77.5427 6.07286 2.26071 0
M  V30 765 N 70.9488 -0.749086 1.3866 0
M  V30 766 C 72.1948 -1.51056 1.35314 0
M  V30 767 C 72.5278 -1.94121 -0.0553751 0
M  V30 768 O 71.8028 -1.65763 -1.01749 0
M  V30 769 C 72.0858 -2.76003 2.31288 0
M  V30 770 C 71.9388 -2.39047 3.8102 0
M  V30 771 C 73.2578 -3.78046 2.2532 0
M  V30 772 H 70.3768 -0.547972 0.492844 0
M  V30 773 H 73.0188 -0.857628 1.69543 0
M  V30 774 H 71.1688 -3.31716 2.02229 0
M  V30 775 H 72.8408 -1.89074 4.20771 0
M  V30 776 H 71.0838 -1.71449 3.98482 0
M  V30 777 H 71.7548 -3.28462 4.4364 0
M  V30 778 H 74.2308 -3.31884 2.50983 0
M  V30 779 H 73.1068 -4.63159 2.94576 0
M  V30 780 H 73.3678 -4.23957 1.25352 0
M  V30 781 N 72.4269 -1.23603 -0.977757 0
M  V30 782 C 73.6759 -1.06377 -1.71368 0
M  V30 783 C 73.9889 0.399062 -1.91486 0
M  V30 784 O 75.1949 0.691312 -2.62551 0
M  V30 785 C 73.6509 -1.85512 -3.08404 0
M  V30 786 C 73.2589 -3.36141 -2.96164 0
M  V30 787 C 75.0029 -1.76783 -3.85938 0
M  V30 788 C 72.9099 -4.07659 -4.28449 0
M  V30 789 H 71.8399 -0.394452 -0.642591 0
M  V30 790 H 74.4909 -1.47594 -1.09034 0
M  V30 791 H 72.8729 -1.37103 -3.71509 0
M  V30 792 H 74.0469 -3.92056 -2.42133 0
M  V30 793 H 72.3619 -3.45712 -2.32104 0
M  V30 794 H 74.9589 -2.27526 -4.83876 0
M  V30 795 H 75.3019 -0.731116 -4.0983 0
M  V30 796 H 75.8349 -2.22818 -3.2954 0
M  V30 797 H 72.5739 -5.11648 -4.09752 0
M  V30 798 H 72.0939 -3.5653 -4.82334 0
M  V30 799 H 73.7729 -4.141 -4.97122 0
M  V30 800 N 73.905 1.17692 -1.04816 0
M  V30 801 C 75.133 1.91786 -0.776254 0
M  V30 802 C 75.548 1.76604 0.667577 0
M  V30 803 O 74.905 1.10067 1.45573 0
M  V30 804 C 74.956 3.42967 -1.14263 0
M  V30 805 O 74.677 3.57678 -2.52978 0
M  V30 806 C 76.178 4.34144 -0.896311 0
M  V30 807 H 73.398 0.608624 -0.282519 0
M  V30 808 H 75.942 1.49268 -1.39783 0
M  V30 809 H 74.097 3.83245 -0.565874 0
M  V30 810 H 74.511 4.51319 -2.67229 0
M  V30 811 H 75.985 5.38744 -1.20244 0
M  V30 812 H 76.462 4.38876 0.168636 0
M  V30 813 H 77.068 3.99574 -1.45672 0
M  V30 814 N 75.3831 0.828654 1.34056 0
M  V30 815 C 76.6081 0.431637 2.02859 0
M  V30 816 C 77.0331 -0.956339 1.61975 0
M  V30 817 O 76.3911 -1.62338 0.807228 0
M  V30 818 C 76.4391 0.548323 3.56407 0
M  V30 819 O 75.5431 -0.429556 4.10157 0
M  V30 820 H 74.8841 0.176886 0.640006 0
M  V30 821 H 77.4141 1.12066 1.71179 0
M  V30 822 H 77.4241 0.426196 4.05768 0
M  V30 823 H 76.0991 1.5606 3.8551 0
M  V30 824 H 74.6761 -0.265836 3.71951 0
M  V30 825 N 76.8612 -1.46375 0.584142 0
M  V30 826 C 78.2772 -1.57694 0.245929 0
M  V30 827 C 78.4772 -1.57903 -1.25175 0
M  V30 828 O 77.5332 -1.49676 -2.03355 0
M  V30 829 C 78.8462 -2.87028 0.896402 0
M  V30 830 C 80.3942 -3.00662 0.870127 0
M  V30 831 C 80.8692 -4.32734 1.50017 0
M  V30 832 N 82.3602 -4.39436 1.46458 0
M  V30 833 C 83.0952 -5.40248 1.92144 0
M  V30 834 N 82.5912 -6.47726 2.4581 0
M  V30 835 N 84.3842 -5.31459 1.83052 0
M  V30 836 H 76.5352 -1.44483 1.55687 0
M  V30 837 H 78.7982 -0.689291 0.650831 0
M  V30 838 H 78.5042 -2.9269 1.95002 0
M  V30 839 H 78.3782 -3.75014 0.405486 0
M  V30 840 H 80.7652 -2.94581 -0.174871 0
M  V30 841 H 80.8462 -2.14148 1.39908 0
M  V30 842 H 80.4902 -4.39573 2.54437 0
M  V30 843 H 80.4202 -5.18025 0.946432 0
M  V30 844 H 82.9112 -3.62367 1.07231 0
M  V30 845 H 83.2242 -7.20863 2.78525 0
M  V30 846 H 81.5692 -6.48542 2.49836 0
M  V30 847 H 84.7602 -4.46396 1.40883 0
M  V30 848 H 84.9332 -6.09881 2.18973 0
M  V30 849 N 78.3393 -0.321999 -1.54275 0
M  V30 850 C 79.2713 0.578671 -2.21775 0
M  V30 851 C 80.2843 1.08109 -1.21722 0
M  V30 852 O 81.4733 0.994938 -1.482 0
M  V30 853 C 78.5733 1.80661 -2.86731 0
M  V30 854 C 77.7463 1.44314 -4.12907 0
M  V30 855 C 76.8053 2.52845 -4.61472 0
M  V30 856 O 75.8313 2.17054 -5.2619 0
M  V30 857 N 77.0333 3.83748 -4.35566 0
M  V30 858 H 79.7983 0.000709447 -2.997 0
M  V30 859 H 77.3593 -0.145132 -1.61248 0
M  V30 860 H 79.3513 2.52655 -3.16145 0
M  V30 861 H 77.9213 2.29245 -2.12521 0
M  V30 862 H 77.1413 0.554906 -3.90275 0
M  V30 863 H 78.4293 1.17598 -4.95023 0
M  V30 864 H 77.8273 4.15625 -3.83761 0
M  V30 865 H 76.3843 4.51977 -4.69638 0
M  V30 866 N 79.8174 1.5752 -0.0501392 0
M  V30 867 C 81.0654 1.9227 0.622642 0
M  V30 868 C 81.3864 0.929083 1.71444 0
M  V30 869 O 80.6564 -0.0262186 1.95882 0
M  V30 870 H 79.2364 0.709739 0.232981 0
M  V30 871 H 81.8984 1.94628 -0.102898 0
M  V30 872 H 80.9944 2.93479 1.06191 0
M  V30 873 N 81.2955 -0.223234 1.56011 0
M  V30 874 C 82.7065 -0.790368 1.69145 0
M  V30 875 C 83.0575 -1.85055 0.651845 0
M  V30 876 O 82.1825 -2.15498 -0.197359 0
M  V30 877 C 82.7775 -1.4404 3.06656 0
M  V30 878 C 81.3365 -1.95494 3.2165 0
M  V30 879 C 80.4835 -0.814506 2.65068 0
M  V30 880 H 83.4345 0.00139011 1.587 0
M  V30 881 H 83.4555 -2.30916 3.0242 0
M  V30 882 H 82.9675 -0.668543 3.82298 0
M  V30 883 H 81.0685 -2.75487 2.50874 0
M  V30 884 H 81.1815 -2.13607 4.28846 0
M  V30 885 H 79.5455 -1.22137 2.23505 0
M  V30 886 H 80.3285 -0.0553515 3.43255 0
M  V30 887 N 82.7736 -1.49793 -0.48987 0
M  V30 888 C 83.7236 -1.63673 -1.5873 0
M  V30 889 C 84.7076 -0.491956 -1.53195 0
M  V30 890 O 85.8996 -0.745461 -1.60536 0
M  V30 891 C 83.0286 -1.71689 -2.97284 0
M  V30 892 C 82.1146 -2.91781 -3.07774 0
M  V30 893 N 82.5056 -4.15714 -2.88124 0
M  V30 894 C 80.8036 -2.89949 -3.38889 0
M  V30 895 C 81.5046 -4.965 -3.03088 0
M  V30 896 N 80.4806 -4.30083 -3.3246 0
M  V30 897 H 84.2826 -2.57204 -1.42208 0
M  V30 898 H 81.7966 -1.46719 -0.69623 0
M  V30 899 H 83.7936 -1.79732 -3.76168 0
M  V30 900 H 82.4536 -0.793024 -3.14867 0
M  V30 901 H 83.4646 -4.45515 -2.64077 0
M  V30 902 H 80.1416 -2.06987 -3.62578 0
M  V30 903 H 81.5316 -6.04991 -2.92294 0
M  V30 904 N 84.2517 0.741722 -1.39055 0
M  V30 905 C 85.5007 1.49656 -1.35225 0
M  V30 906 C 85.8137 1.95533 0.0512708 0
M  V30 907 O 87.0197 2.7067 0.212138 0
M  V30 908 C 85.4757 2.70389 -2.37525 0
M  V30 909 C 85.0837 2.31489 -3.83558 0
M  V30 910 C 86.8277 3.48236 -2.42759 0
M  V30 911 C 84.7347 3.48903 -4.77515 0
M  V30 912 H 83.6647 0.56197 -0.502699 0
M  V30 913 H 86.3157 0.809727 -1.64668 0
M  V30 914 H 84.6977 3.41113 -2.01142 0
M  V30 915 H 85.8717 1.68354 -4.28945 0
M  V30 916 H 84.1867 1.66749 -3.81554 0
M  V30 917 H 86.7837 4.35558 -3.1015 0
M  V30 918 H 87.1267 3.90229 -1.45008 0
M  V30 919 H 87.6597 2.84535 -2.78002 0
M  V30 920 H 84.3987 3.11966 -5.76504 0
M  V30 921 H 83.9187 4.11041 -4.36813 0
M  V30 922 H 85.5977 4.15328 -4.96096 0
M  V30 923 N 85.7298 1.2412 0.971189 0
M  V30 924 C 87.1458 1.00584 1.23916 0
M  V30 925 C 87.3458 -0.287481 1.99439 0
M  V30 926 O 86.4018 -1.00454 2.31658 0
M  V30 927 C 87.7148 2.21864 2.0297 0
M  V30 928 C 89.2628 2.26452 2.16076 0
M  V30 929 C 89.7378 3.47343 2.98524 0
M  V30 930 N 91.2288 3.47639 3.06107 0
M  V30 931 C 91.9638 4.37837 3.70251 0
M  V30 932 N 91.4598 5.38286 4.36142 0
M  V30 933 N 93.2528 4.25558 3.67228 0
M  V30 934 H 85.4038 2.07236 0.465499 0
M  V30 935 H 87.6668 0.909236 0.268315 0
M  V30 936 H 87.3728 3.15771 1.54861 0
M  V30 937 H 87.2468 2.23698 3.03709 0
M  V30 938 H 89.6338 1.33078 2.6339 0
M  V30 939 H 89.7148 2.28645 1.14696 0
M  V30 940 H 89.3588 4.41029 2.51905 0
M  V30 941 H 89.2888 3.42393 4.00093 0
M  V30 942 H 91.7798 2.74966 2.59233 0
M  V30 943 H 92.0928 6.03352 4.82894 0
M  V30 944 H 90.4378 5.42176 4.34822 0
M  V30 945 H 93.6288 3.46322 3.14927 0
M  V30 946 H 93.8018 4.96054 4.16935 0
M  V30 947 N 87.2079 -1.17134 1.05439 0
M  V30 948 C 88.4539 -1.87733 0.767077 0
M  V30 949 C 88.7869 -1.8098 -0.704253 0
M  V30 950 O 88.0619 -1.21951 -1.5152 0
M  V30 951 C 88.3449 -3.37659 1.25133 0
M  V30 952 C 88.1979 -3.53149 2.78578 0
M  V30 953 C 89.5169 -4.31768 0.852324 0
M  V30 954 H 86.6359 -0.681687 0.280129 0
M  V30 955 H 89.2779 -1.37732 1.30881 0
M  V30 956 H 87.4279 -3.80373 0.790469 0
M  V30 957 H 89.0999 -3.19434 3.32806 0
M  V30 958 H 87.3429 -2.95345 3.17732 0
M  V30 959 H 88.0139 -4.58403 3.07523 0
M  V30 960 H 90.4899 -3.96909 1.24911 0
M  V30 961 H 89.3659 -5.35199 1.21873 0
M  V30 962 H 89.6269 -4.41429 -0.243485 0
M  V30 963 N 88.686 -0.835752 -1.33615 0
M  V30 964 C 89.963 -0.352017 -1.92406 0
M  V30 965 C 90.343 1.16225 -1.76224 0
M  V30 966 O 89.691 1.97526 -1.14873 0
M  V30 967 C 89.901 -0.795485 -3.39813 0
M  V30 968 C 91.249 -0.801703 -4.16963 0
M  V30 969 O 92.273 -0.738889 -3.48452 0
M  V30 970 O 91.132 -0.886607 -5.3926 0
M  V30 971 H 88.226 -0.0989641 -0.821057 0
M  V30 972 H 90.772 -0.921397 -1.42507 0
M  V30 973 H 89.544 -1.83795 -3.45449 0
M  V30 974 H 89.167 -0.202505 -3.97084 0
M  V30 975 N 90.1641 1.46063 -0.591896 0
M  V30 976 C 91.4121 2.01938 -0.0808391 0
M  V30 977 C 91.7331 1.46475 1.28725 0
M  V30 978 O 91.0031 0.652944 1.84698 0
M  V30 979 H 89.5831 0.746516 -0.0268938 0
M  V30 980 H 92.2451 1.79055 -0.769752 0
M  V30 981 H 91.3411 3.12094 -0.0187578 0
M  V30 982 N 91.6422 0.330177 1.54103 0
M  V30 983 C 92.8882 -0.270806 2.00984 0
M  V30 984 C 93.2212 -1.51265 1.21789 0
M  V30 985 O 92.4962 -1.92142 0.301927 0
M  V30 986 C 92.7792 -0.598339 3.55094 0
M  V30 987 C 92.6322 0.654674 4.4501 0
M  V30 988 C 93.9512 -1.41334 4.16789 0
M  V30 989 H 91.0702 -0.0969531 0.730595 0
M  V30 990 H 93.7122 0.448066 1.84641 0
M  V30 991 H 91.8622 -1.21078 3.69151 0
M  V30 992 H 93.5342 1.29285 4.42813 0
M  V30 993 H 91.7772 1.28224 4.14416 0
M  V30 994 H 92.4482 0.380944 5.50684 0
M  V30 995 H 94.9242 -0.895597 4.06347 0
M  V30 996 H 93.8002 -1.61127 5.24718 0
M  V30 997 H 94.0612 -2.41146 3.70541 0
M  V30 998 N 93.1203 -1.57491 0.0584922 0
M  V30 999 C 94.3453 -1.97711 -0.62652 0
M  V30 1000 C 94.7703 -0.936132 -1.63151 0
M  V30 1001 O 94.1283 0.099811 -1.81025 0
M  V30 1002 C 94.1763 -3.36989 -1.28338 0
M  V30 1003 O 93.2803 -3.35433 -2.39913 0
M  V30 1004 H 92.6213 -0.643868 -0.162266 0
M  V30 1005 H 95.1513 -2.04193 0.129064 0
M  V30 1006 H 95.1613 -3.73879 -1.63335 0
M  V30 1007 H 93.8363 -4.12289 -0.546889 0
M  V30 1008 H 92.4133 -3.10298 -2.06809 0
M  V30 1009 N 94.5984 0.214957 -1.56127 0
M  V30 1010 C 95.8464 0.936518 -1.79091 0
M  V30 1011 C 96.1674 1.84606 -0.628148 0
M  V30 1012 O 95.4374 1.92664 0.35462 0
M  V30 1013 H 94.0174 0.3488 -0.660566 0
M  V30 1014 H 96.6794 0.22523 -1.93594 0
M  V30 1015 H 95.7754 1.53943 -2.71492 0
M  V30 1016 N 96.0765 1.50051 0.48192 0
M  V30 1017 C 97.3245 1.60181 1.23234 0
M  V30 1018 C 97.6455 0.299176 1.92691 0
M  V30 1019 O 96.9155 -0.682708 1.83619 0
M  V30 1020 H 95.4955 0.590232 0.457859 0
M  V30 1021 H 98.1575 1.86775 0.556881 0
M  V30 1022 H 97.2535 2.40753 1.98607 0
M  V30 1023 N 97.5546 -0.734337 1.39446 0
M  V30 1024 C 98.8036 -1.48937 1.36017 0
M  V30 1025 C 99.1166 -1.95557 -0.0409005 0
M  V30 1026 O 100.323 -2.70779 -0.19778 0
M  V30 1027 C 98.7786 -2.69125 2.38955 0
M  V30 1028 C 98.3866 -2.29452 3.8478 0
M  V30 1029 C 100.131 -3.46944 2.44603 0
M  V30 1030 C 98.0376 -3.46366 4.79358 0
M  V30 1031 H 96.9676 -0.559296 0.505672 0
M  V30 1032 H 99.6186 -0.800983 1.65095 0
M  V30 1033 H 98.0006 -3.40041 2.02948 0
M  V30 1034 H 99.1746 -1.66077 4.29831 0
M  V30 1035 H 97.4896 -1.64723 3.82433 0
M  V30 1036 H 100.087 -4.33907 3.12456 0
M  V30 1037 H 100.43 -3.89454 1.47076 0
M  V30 1038 H 100.963 -2.83056 2.79507 0
M  V30 1039 H 97.7016 -3.08905 5.78151 0
M  V30 1040 H 97.2216 -4.08719 4.38986 0
M  V30 1041 H 98.9006 -4.12691 4.98292 0
M  V30 1042 N 99.0327 -1.24633 -0.964593 0
M  V30 1043 C 99.9627 -1.06611 -2.07741 0
M  V30 1044 C 100.944 0.0218666 -1.70086 0
M  V30 1045 O 102.129 -0.145793 -1.93652 0
M  V30 1046 C 99.2587 -0.673444 -3.40708 0
M  V30 1047 C 98.2127 -1.71054 -3.92332 0
M  V30 1048 C 97.5387 -1.17285 -5.21678 0
M  V30 1049 C 98.8387 -3.10718 -4.19824 0
M  V30 1050 H 100.533 -1.99693 -2.23076 0
M  V30 1051 H 98.0787 -0.96152 -1.07195 0
M  V30 1052 H 100.032 -0.534345 -4.17998 0
M  V30 1053 H 98.7557 0.293073 -3.25282 0
M  V30 1054 H 97.4147 -1.83791 -3.17201 0
M  V30 1055 H 97.0627 -0.196847 -5.02615 0
M  V30 1056 H 96.7627 -1.86592 -5.57187 0
M  V30 1057 H 98.2867 -1.04593 -6.01575 0
M  V30 1058 H 99.7007 -3.01192 -4.87808 0
M  V30 1059 H 98.0977 -3.77406 -4.66567 0
M  V30 1060 H 99.1677 -3.58524 -3.26479 0
M  V30 1061 N 100.511 1.16574 -1.06058 0
M  V30 1062 C 101.459 2.22941 -0.663343 0
M  V30 1063 C 102.453 1.66358 0.319593 0
M  V30 1064 O 103.659 1.7905 0.184713 0
M  V30 1065 H 100.034 0.725907 -0.196376 0
M  V30 1066 H 102.005 2.53736 -1.57037 0
M  V30 1067 C 100.754 3.47642 -0.0632808 0
M  V30 1068 H 100.077 3.91493 -0.810733 0
M  V30 1069 H 101.517 4.2363 0.177177 0
M  V30 1070 C 99.9758 3.1509 1.19248 0
M  V30 1071 O 100.506 3.30673 2.28075 0
M  V30 1072 N 98.7118 2.6924 1.09353 0
M  V30 1073 H 98.2588 2.5676 0.207912 0
M  V30 1074 H 98.2168 2.47833 1.93458 0
M  V30 1075 N 101.989 0.842826 1.3317 0
M  V30 1076 C 103.236 0.440447 1.97652 0
M  V30 1077 C 103.564 -1.00123 1.6675 0
M  V30 1078 O 102.819 -1.7155 0.941761 0
M  V30 1079 C 103.118 0.612607 3.52111 0
M  V30 1080 C 102.784 2.02297 4.02972 0
M  V30 1081 C 101.446 2.40874 4.16573 0
M  V30 1082 C 103.798 2.94402 4.30089 0
M  V30 1083 C 101.126 3.70852 4.54627 0
M  V30 1084 C 103.478 4.23865 4.69597 0
M  V30 1085 C 102.142 4.62392 4.81404 0
M  V30 1086 H 101.412 0.161171 0.72326 0
M  V30 1087 H 104.059 1.07061 1.58777 0
M  V30 1088 H 102.364 -0.100849 3.9167 0
M  V30 1089 H 104.061 0.2815 4.00011 0
M  V30 1090 H 100.651 1.71338 3.92863 0
M  V30 1091 H 104.835 2.65835 4.19101 0
M  V30 1092 H 100.091 4.00501 4.61962 0
M  V30 1093 H 104.265 4.95306 4.89536 0
M  V30 1094 H 101.892 5.63154 5.10648 0
M  V30 1095 N 103.467 -1.45747 0.599634 0
M  V30 1096 C 104.707 -2.04181 0.0946309 0
M  V30 1097 C 105.071 -1.45895 -1.24815 0
M  V30 1098 O 106.272 -1.95633 -1.8434 0
M  V30 1099 C 104.543 -3.57368 0.047581 0
M  V30 1100 S 106.102 -4.36997 -0.397387 0
M  V30 1101 H 102.92 -0.70953 0.0456954 0
M  V30 1102 H 105.522 -1.78564 0.795946 0
M  V30 1103 H 104.226 -3.97303 1.02852 0
M  V30 1104 H 103.757 -3.87549 -0.675977 0
M  V30 1105 H 105.772 -4.68012 -1.64862 0
M  V30 1106 N 104.945 -0.338344 -1.53925 0
M  V30 1107 C 105.908 0.508299 -2.23493 0
M  V30 1108 C 106.908 1.03175 -1.23335 0
M  V30 1109 O 108.098 0.921826 -1.47811 0
M  V30 1110 C 105.23 1.70754 -2.95052 0
M  V30 1111 H 106.423 -0.100058 -2.99733 0
M  V30 1112 H 103.976 -0.0896198 -1.56043 0
M  V30 1113 H 104.711 2.35474 -2.22986 0
M  V30 1114 H 104.496 1.33946 -3.68512 0
M  V30 1115 H 105.986 2.30818 -3.48013 0
M  V30 1116 N 106.423 1.57458 -0.0668435 0
M  V30 1117 C 107.371 2.13639 0.919851 0
M  V30 1118 C 108.365 1.07204 1.31163 0
M  V30 1119 O 109.571 1.25591 1.28945 0
M  V30 1120 H 105.946 0.683048 0.314562 0
M  V30 1121 H 107.917 2.95415 0.421047 0
M  V30 1122 C 106.666 2.70892 2.17975 0
M  V30 1123 H 105.989 3.5246 1.88711 0
M  V30 1124 H 107.429 3.13803 2.85138 0
M  V30 1125 C 105.888 1.65414 2.93496 0
M  V30 1126 O 106.418 1.07619 3.87015 0
M  V30 1127 N 104.624 1.36564 2.56512 0
M  V30 1128 H 104.171 1.83751 1.80536 0
M  V30 1129 H 104.129 0.66223 3.07347 0
M  V30 1130 N 107.901 -0.206675 1.56239 0
M  V30 1131 C 108.849 -1.27571 1.94495 0
M  V30 1132 C 109.843 -1.47737 0.828862 0
M  V30 1133 O 111.049 -1.48735 1.0138 0
M  V30 1134 H 107.424 -0.428029 0.6183 0
M  V30 1135 H 109.395 -0.925961 2.8367 0
M  V30 1136 C 108.144 -2.61568 2.29079 0
M  V30 1137 H 107.467 -2.46863 3.14482 0
M  V30 1138 H 108.907 -3.35144 2.5972 0
M  V30 1139 C 107.366 -3.17695 1.12123 0
M  V30 1140 O 107.896 -3.99801 0.390153 0
M  V30 1141 N 106.102 -2.76276 0.901097 0
M  V30 1142 H 105.649 -2.09613 1.49733 0
M  V30 1143 H 105.607 -3.1417 0.120319 0
M  V30 1144 N 109.379 -1.50304 -0.473955 0
M  V30 1145 C 110.609 -1.64663 -1.24778 0
M  V30 1146 C 111.017 -0.328174 -1.86332 0
M  V30 1147 O 110.36 0.699536 -1.69859 0
M  V30 1148 C 110.422 -2.6778 -2.39863 0
M  V30 1149 C 110.086 -4.11413 -1.98969 0
M  V30 1150 C 111.083 -4.97372 -1.51385 0
M  V30 1151 C 108.768 -4.57312 -2.07777 0
M  V30 1152 C 110.762 -6.27277 -1.13148 0
M  V30 1153 C 108.449 -5.87223 -1.69152 0
M  V30 1154 C 109.447 -6.72031 -1.21915 0
M  V30 1155 O 109.135 -7.99518 -0.838237 0
M  V30 1156 H 108.867 -0.556602 -0.383627 0
M  V30 1157 H 111.421 -1.9726 -0.572491 0
M  V30 1158 H 109.651 -2.30419 -3.10554 0
M  V30 1159 H 111.34 -2.71388 -3.01833 0
M  V30 1160 H 112.106 -4.63128 -1.44004 0
M  V30 1161 H 107.985 -3.91449 -2.43493 0
M  V30 1162 H 111.529 -6.93425 -0.762077 0
M  V30 1163 H 107.426 -6.20989 -1.76191 0
M  V30 1164 H 108.194 -8.12764 -0.967339 0
M  V30 1165 N 110.857 0.726932 -1.39834 0
M  V30 1166 C 111.787 1.85405 -1.41941 0
M  V30 1167 C 112.768 1.67751 -0.281728 0
M  V30 1168 O 113.953 1.8795 -0.488717 0
M  V30 1169 C 111.083 3.23243 -1.2701 0
M  V30 1170 C 110.037 3.55549 -2.38262 0
M  V30 1171 C 109.363 4.9241 -2.08415 0
M  V30 1172 C 110.663 3.577 -3.80589 0
M  V30 1173 H 112.357 1.83899 -2.36266 0
M  V30 1174 H 109.903 0.883349 -1.13723 0
M  V30 1175 H 111.856 4.01775 -1.27103 0
M  V30 1176 H 110.58 3.25296 -0.291564 0
M  V30 1177 H 109.239 2.79351 -2.37399 0
M  V30 1178 H 108.887 4.91052 -1.0898 0
M  V30 1179 H 108.587 5.14992 -2.82943 0
M  V30 1180 H 110.111 5.73289 -2.10171 0
M  V30 1181 H 111.525 4.26293 -3.83337 0
M  V30 1182 H 109.922 3.91804 -4.54543 0
M  V30 1183 H 110.992 2.57328 -4.10987 0
M  V30 1184 N 112.336 1.25143 0.95797 0
M  V30 1185 C 113.584 1.09476 1.69881 0
M  V30 1186 C 113.905 -0.365502 1.91544 0
M  V30 1187 O 113.175 -1.25985 1.50015 0
M  V30 1188 H 111.755 0.402128 0.629525 0
M  V30 1189 H 114.417 1.57214 1.15194 0
M  V30 1190 H 113.513 1.60046 2.6794 0
M  V30 1191 N 113.814 -1.1601 1.06675 0
M  V30 1192 C 114.744 -2.22688 0.702307 0
M  V30 1193 C 115.725 -1.67306 -0.307032 0
M  V30 1194 O 116.91 -1.93352 -0.181305 0
M  V30 1195 C 114.04 -3.47178 0.092038 0
M  V30 1196 C 112.994 -4.15477 1.02777 0
M  V30 1197 C 112.32 -5.33963 0.28061 0
M  V30 1198 C 113.62 -4.66019 2.35846 0
M  V30 1199 H 115.314 -2.53429 1.59419 0
M  V30 1200 H 112.86 -1.21813 0.767961 0
M  V30 1201 H 114.813 -4.21037 -0.174814 0
M  V30 1202 H 113.537 -3.15749 -0.834877 0
M  V30 1203 H 112.196 -3.43549 1.27944 0
M  V30 1204 H 111.844 -4.98788 -0.649545 0
M  V30 1205 H 111.544 -5.806 0.904258 0
M  V30 1206 H 113.068 -6.10596 0.021396 0
M  V30 1207 H 114.482 -5.3144 2.15045 0
M  V30 1208 H 112.879 -5.23293 2.93743 0
M  V30 1209 H 113.949 -3.82023 2.98641 0
M  V30 1210 N 115.292 -0.849877 -1.32721 0
M  V30 1211 C 116.517 -0.463856 -2.02146 0
M  V30 1212 C 116.942 0.930449 -1.63476 0
M  V30 1213 O 116.3 1.61033 -0.832952 0
M  V30 1214 C 116.348 -0.604955 -3.55489 0
M  V30 1215 O 115.452 0.36425 -4.10788 0
M  V30 1216 H 114.793 -0.187046 -0.637111 0
M  V30 1217 H 117.323 -1.14775 -1.69375 0
M  V30 1218 H 117.333 -0.490696 -4.05038 0
M  V30 1219 H 116.008 -1.62174 -3.82978 0
M  V30 1220 H 114.585 0.206628 -3.72327 0
M  V30 1221 N 116.77 1.45427 -0.607355 0
M  V30 1222 C 117.995 2.07124 -0.107006 0
M  V30 1223 C 118.42 1.44906 1.19933 0
M  V30 1224 O 117.778 0.541687 1.73019 0
M  V30 1225 C 117.826 3.60595 0.0194119 0
M  V30 1226 O 116.93 3.98285 1.0697 0
M  V30 1227 H 116.271 0.659868 -0.0739597 0
M  V30 1228 H 118.801 1.86683 -0.837297 0
M  V30 1229 H 118.811 4.07419 0.2177 0
M  V30 1230 H 117.486 4.05266 -0.934453 0
M  V30 1231 H 116.063 3.63133 0.847889 0
M  V30 1232 N 118.248 0.346503 1.53744 0
M  V30 1233 C 119.198 -0.524953 2.21874 0
M  V30 1234 C 120.182 -1.06376 1.20718 0
M  V30 1235 O 121.374 -0.996972 1.46251 0
M  V30 1236 C 118.503 -1.6739 2.99726 0
M  V30 1237 C 117.589 -1.14888 4.08242 0
M  V30 1238 N 117.98 -0.345329 5.0462 0
M  V30 1239 C 116.278 -1.4255 4.22606 0
M  V30 1240 C 116.979 -0.0600706 5.81669 0
M  V30 1241 N 115.955 -0.65252 5.39669 0
M  V30 1242 H 119.757 0.0960091 2.93743 0
M  V30 1243 H 117.271 0.15352 1.61673 0
M  V30 1244 H 119.268 -2.3102 3.47038 0
M  V30 1245 H 117.928 -2.29811 2.29384 0
M  V30 1246 H 118.939 0.0138439 5.17898 0
M  V30 1247 H 115.616 -2.05389 3.63486 0
M  V30 1248 H 117.006 0.588321 6.69319 0
M  V30 1249 N 119.726 -1.57421 0.075193 0
M  V30 1250 C 121.137 -1.81021 -0.456964 0
M  V30 1251 C 121.488 -0.98936 -1.69429 0
M  V30 1252 O 120.613 -0.212865 -2.15351 0
M  V30 1253 C 121.208 -3.28329 -0.83581 0
M  V30 1254 C 119.767 -3.52764 -1.31281 0
M  V30 1255 C 118.914 -2.75676 -0.299648 0
M  V30 1256 H 121.865 -1.55822 0.300856 0
M  V30 1257 H 121.886 -3.40564 -1.69696 0
M  V30 1258 H 121.398 -3.88046 0.0649238 0
M  V30 1259 H 119.499 -2.98355 -2.23193 0
M  V30 1260 H 119.612 -4.61451 -1.28839 0
M  V30 1261 H 117.976 -2.42538 -0.777641 0
M  V30 1262 H 118.759 -3.38132 0.593417 0
M  V30 1263 N 121.204 0.198386 -1.56346 0
M  V30 1264 C 122.114 1.2664 -1.97483 0
M  V30 1265 C 123.13 1.49989 -0.882002 0
M  V30 1266 O 124.306 1.62668 -1.18748 0
M  V30 1267 C 121.371 2.59141 -2.30319 0
M  V30 1268 C 120.432 2.43892 -3.53292 0
M  V30 1269 C 119.665 3.70074 -3.84553 0
M  V30 1270 O 119.888 4.74101 -3.1715 0
M  V30 1271 O 118.822 3.658 -4.7799 0
M  V30 1272 H 122.648 0.947304 -2.88548 0
M  V30 1273 H 120.233 0.403123 -1.43859 0
M  V30 1274 H 122.115 3.37352 -2.5253 0
M  V30 1275 H 120.79 2.90684 -1.42423 0
M  V30 1276 H 119.697 1.63803 -3.36332 0
M  V30 1277 H 121.03 2.17282 -4.41644 0
M  V30 1278 N 122.682 1.50554 0.465978 0
M  V30 1279 C 123.928 1.62038 1.21949 0
M  V30 1280 C 124.261 0.322116 1.9151 0
M  V30 1281 O 123.536 -0.676723 1.82348 0
M  V30 1282 C 123.819 2.80421 2.25912 0
M  V30 1283 C 123.672 4.20144 1.60622 0
M  V30 1284 C 124.991 2.94354 3.27176 0
M  V30 1285 H 122.11 0.589752 0.441998 0
M  V30 1286 H 124.752 1.82956 0.51257 0
M  V30 1287 H 122.902 2.62717 2.86203 0
M  V30 1288 H 124.574 4.49449 1.03889 0
M  V30 1289 H 122.817 4.24165 0.909211 0
M  V30 1290 H 123.488 4.98914 2.36196 0
M  V30 1291 H 125.964 3.10578 2.76913 0
M  V30 1292 H 124.84 3.788 3.97242 0
M  V30 1293 H 125.101 2.05186 3.916 0
M  V30 1294 N 124.16 -0.719506 1.40217 0
M  V30 1295 C 125.409 -1.47486 1.37589 0
M  V30 1296 C 125.722 -1.9559 -0.0201568 0
M  V30 1297 O 126.928 -2.70973 -0.169049 0
M  V30 1298 C 125.384 -2.66575 2.41796 0
M  V30 1299 C 124.992 -2.25358 3.87192 0
M  V30 1300 C 126.736 -3.4433 2.48269 0
M  V30 1301 C 124.643 -3.41262 4.83005 0
M  V30 1302 H 123.573 -0.553901 0.511576 0
M  V30 1303 H 126.224 -0.783427 1.65936 0
M  V30 1304 H 124.606 -3.3787 2.06543 0
M  V30 1305 H 125.78 -1.61509 4.31569 0
M  V30 1306 H 124.095 -1.60657 3.84159 0
M  V30 1307 H 126.692 -4.30569 3.17041 0
M  V30 1308 H 127.035 -3.87872 1.51198 0
M  V30 1309 H 127.568 -2.80076 2.82493 0
M  V30 1310 H 124.307 -3.02755 5.81394 0
M  V30 1311 H 123.827 -4.0404 4.43297 0
M  V30 1312 H 125.506 -4.07383 5.02641 0
M  V30 1313 N 125.638 -1.25649 -0.95132 0
M  V30 1314 C 126.57 -1.02112 -2.05197 0
M  V30 1315 C 127.583 0.0150571 -1.62793 0
M  V30 1316 O 128.772 -0.223874 -1.77091 0
M  V30 1317 C 125.872 -0.522361 -3.3485 0
M  V30 1318 C 125.045 -1.62546 -4.06076 0
M  V30 1319 C 124.104 -1.12649 -5.14001 0
M  V30 1320 O 123.13 -1.82156 -5.39266 0
M  V30 1321 N 124.332 0.03047 -5.80492 0
M  V30 1322 H 127.097 -1.96885 -2.25957 0
M  V30 1323 H 124.658 -1.16899 -1.1201 0
M  V30 1324 H 126.65 -0.172961 -4.0433 0
M  V30 1325 H 125.22 0.33151 -3.10837 0
M  V30 1326 H 124.44 -2.14628 -3.30649 0
M  V30 1327 H 125.728 -2.36644 -4.50419 0
M  V30 1328 H 125.126 0.611169 -5.62389 0
M  V30 1329 H 123.683 0.320875 -6.5101 0
M  V30 1330 N 127.117 1.15442 -1.07289 0
M  V30 1331 C 128.08 2.18358 -0.696591 0
M  V30 1332 C 129.08 1.58637 0.262837 0
M  V30 1333 O 130.27 1.74145 0.0438809 0
M  V30 1334 C 127.402 3.4089 -0.0266151 0
M  V30 1335 H 128.595 2.53162 -1.60776 0
M  V30 1336 H 126.148 1.29893 -0.869342 0
M  V30 1337 H 126.883 3.11653 0.896822 0
M  V30 1338 H 126.668 3.85495 -0.716657 0
M  V30 1339 H 128.158 4.17009 0.222028 0
M  V30 1340 N 128.595 0.856903 1.32268 0
M  V30 1341 C 129.843 0.460474 1.96784 0
M  V30 1342 C 130.164 -0.987701 1.68135 0
M  V30 1343 O 129.434 -1.69058 0.989765 0
M  V30 1344 H 128.014 0.167289 0.728027 0
M  V30 1345 H 130.676 1.09383 1.61312 0
M  V30 1346 H 129.772 0.60739 3.06133 0
M  V30 1347 N 130.073 -1.45103 0.615059 0
M  V30 1348 C 131.003 -2.33339 -0.0865619 0
M  V30 1349 C 131.984 -1.4727 -0.851209 0
M  V30 1350 O 133.169 -1.76026 -0.820281 0
M  V30 1351 C 130.299 -3.30095 -1.07956 0
M  V30 1352 C 129.253 -4.25858 -0.427628 0
M  V30 1353 C 128.579 -5.12361 -1.5294 0
M  V30 1354 C 129.879 -5.18165 0.655944 0
M  V30 1355 H 131.573 -2.92254 0.650224 0
M  V30 1356 H 129.119 -1.40532 0.314138 0
M  V30 1357 H 131.072 -3.90698 -1.57901 0
M  V30 1358 H 129.796 -2.69355 -1.84703 0
M  V30 1359 H 128.455 -3.66564 0.0510292 0
M  V30 1360 H 128.103 -4.47984 -2.28734 0
M  V30 1361 H 127.803 -5.77238 -1.09865 0
M  V30 1362 H 129.327 -5.75833 -2.03098 0
M  V30 1363 H 130.741 -5.72796 0.240257 0
M  V30 1364 H 129.138 -5.91559 1.00888 0
M  V30 1365 H 130.208 -4.60144 1.52957 0
M  V30 1366 N 131.551 -0.354651 -1.53558 0
M  V30 1367 C 132.483 0.5315 -2.22952 0
M  V30 1368 C 133.496 1.05503 -1.23988 0
M  V30 1369 O 134.685 0.963279 -1.50277 0
M  V30 1370 C 131.785 1.74538 -2.90499 0
M  V30 1371 C 130.958 1.35524 -4.15875 0
M  V30 1372 C 130.017 2.42999 -4.66731 0
M  V30 1373 O 129.043 2.05844 -5.30676 0
M  V30 1374 N 130.245 3.74423 -4.43608 0
M  V30 1375 H 133.01 -0.0628615 -2.99634 0
M  V30 1376 H 130.571 -0.179302 -1.60904 0
M  V30 1377 H 132.563 2.45892 -3.21433 0
M  V30 1378 H 131.133 2.24686 -2.17336 0
M  V30 1379 H 130.353 0.471998 -3.91364 0
M  V30 1380 H 131.641 1.07071 -4.97406 0
M  V30 1381 H 131.039 4.07391 -3.92491 0
M  V30 1382 H 129.596 4.41913 -4.7912 0
M  V30 1383 N 133.029 1.57378 -0.0835403 0
M  V30 1384 C 133.992 2.12252 0.864959 0
M  V30 1385 C 134.992 1.04916 1.21858 0
M  V30 1386 O 136.182 1.30853 1.14991 0
M  V30 1387 C 133.314 2.63358 2.16461 0
M  V30 1388 H 134.507 2.97371 0.388676 0
M  V30 1389 H 132.06 1.55423 0.165317 0
M  V30 1390 H 132.795 1.81727 2.686 0
M  V30 1391 H 132.58 3.41826 1.92087 0
M  V30 1392 H 134.07 3.05847 2.84337 0
M  V30 1393 N 134.507 -0.190092 1.56449 0
M  V30 1394 C 135.437 -1.23816 1.97969 0
M  V30 1395 C 136.418 -1.47201 0.852395 0
M  V30 1396 O 137.603 -1.58854 1.1171 0
M  V30 1397 C 134.733 -2.5813 2.3235 0
M  V30 1398 C 133.687 -2.49348 3.47864 0
M  V30 1399 C 133.013 -3.8798 3.67934 0
M  V30 1400 C 134.313 -2.01424 4.81898 0
M  V30 1401 H 136.007 -0.89311 2.85769 0
M  V30 1402 H 133.553 -0.428177 1.37487 0
M  V30 1403 H 135.506 -3.31637 2.59991 0
M  V30 1404 H 134.23 -2.94386 1.41438 0
M  V30 1405 H 132.889 -1.78297 3.20321 0
M  V30 1406 H 132.537 -4.21597 2.74344 0
M  V30 1407 H 132.237 -3.82978 4.45648 0
M  V30 1408 H 133.761 -4.63101 3.97957 0
M  V30 1409 H 135.175 -2.64693 5.08538 0
M  V30 1410 H 133.572 -2.07413 5.63116 0
M  V30 1411 H 134.642 -0.967677 4.75146 0
M  V30 1412 N 135.985 -1.50799 -0.457987 0
M  V30 1413 C 136.895 -1.73426 -1.57989 0
M  V30 1414 C 137.911 -0.617745 -1.62665 0
M  V30 1415 O 139.087 -0.897614 -1.80291 0
M  V30 1416 C 136.152 -1.83557 -2.94122 0
M  V30 1417 C 135.213 -3.07345 -2.99729 0
M  V30 1418 C 134.446 -3.16983 -4.29368 0
M  V30 1419 O 134.669 -2.33077 -5.20607 0
M  V30 1420 O 133.603 -4.09812 -4.40837 0
M  V30 1421 H 137.429 -2.68555 -1.41817 0
M  V30 1422 H 135.014 -1.35052 -0.638859 0
M  V30 1423 H 136.896 -1.92326 -3.74952 0
M  V30 1424 H 135.571 -0.916137 -3.10465 0
M  V30 1425 H 134.478 -3.04068 -2.1793 0
M  V30 1426 H 135.811 -3.9891 -2.88326 0
M  V30 1427 N 137.463 0.71206 -1.40597 0
M  V30 1428 C 138.373 1.8562 -1.43466 0
M  V30 1429 C 139.389 1.70902 -0.326902 0
M  V30 1430 O 140.565 1.93105 -0.572043 0
M  V30 1431 C 137.63 3.21451 -1.29884 0
M  V30 1432 C 136.691 3.48398 -2.50833 0
M  V30 1433 C 135.924 4.77749 -2.3789 0
M  V30 1434 O 136.147 5.53089 -1.39459 0
M  V30 1435 O 135.081 5.05111 -3.27333 0
M  V30 1436 H 138.907 1.86155 -2.39958 0
M  V30 1437 H 136.492 0.86295 -1.21957 0
M  V30 1438 H 138.374 4.02579 -1.24531 0
M  V30 1439 H 137.049 3.21636 -0.364997 0
M  V30 1440 H 135.956 2.67265 -2.61763 0
M  V30 1441 H 137.289 3.53014 -3.4299 0
M  V30 1442 N 138.941 1.26152 0.944643 0
M  V30 1443 C 140.188 1.11492 1.69044 0
M  V30 1444 C 140.516 -0.342366 1.91463 0
M  V30 1445 O 139.771 -1.26812 1.49054 0
M  V30 1446 C 140.07 1.82541 3.07268 0
M  V30 1447 C 139.736 3.32445 3.04616 0
M  V30 1448 C 138.398 3.73337 3.036 0
M  V30 1449 C 140.75 4.28171 2.97185 0
M  V30 1450 C 138.078 5.08348 2.92915 0
M  V30 1451 C 140.43 5.63218 2.88041 0
M  V30 1452 C 139.094 6.03426 2.85366 0
M  V30 1453 H 138.364 0.407977 0.618576 0
M  V30 1454 H 141.011 1.56551 1.10291 0
M  V30 1455 H 139.316 1.29941 3.69625 0
M  V30 1456 H 141.013 1.68642 3.63815 0
M  V30 1457 H 137.603 2.99915 3.06185 0
M  V30 1458 H 141.787 3.97563 2.97081 0
M  V30 1459 H 137.043 5.38667 2.89219 0
M  V30 1460 H 141.217 6.37078 2.81254 0
M  V30 1461 H 138.844 7.07999 2.76842 0
M  V30 1462 N 140.419 -1.14872 1.07899 0
M  V30 1463 C 141.667 -1.85422 0.803941 0
M  V30 1464 C 141.988 -1.83051 -0.67211 0
M  V30 1465 O 141.258 -1.27532 -1.48703 0
M  V30 1466 H 139.838 -0.686537 0.294408 0
M  V30 1467 H 142.5 -1.39226 1.3639 0
M  V30 1468 H 141.596 -2.90399 1.14346 0
M  V30 1469 N 141.898 -0.863906 -1.31812 0
M  V30 1470 C 142.861 -0.320212 -2.26952 0
M  V30 1471 C 143.861 0.525369 -1.51975 0
M  V30 1472 O 145.051 0.335547 -1.70938 0
M  V30 1473 C 142.183 0.545919 -3.365 0
M  V30 1474 H 143.376 -1.16004 -2.76556 0
M  V30 1475 H 140.929 -0.638995 -1.42641 0
M  V30 1476 H 141.664 1.40718 -2.92179 0
M  V30 1477 H 141.449 -0.0594674 -3.92055 0
M  V30 1478 H 142.939 0.918796 -4.07367 0
M  V30 1479 N 143.376 1.44774 -0.622745 0
M  V30 1480 C 144.624 2.01721 -0.123655 0
M  V30 1481 C 144.945 1.49172 1.25589 0
M  V30 1482 O 144.215 0.691974 1.83272 0
M  V30 1483 H 142.795 0.745777 -0.0427225 0
M  V30 1484 H 145.457 1.77382 -0.807559 0
M  V30 1485 H 144.553 3.11984 -0.0849534 0
M  V30 1486 N 144.854 0.36279 1.53368 0
M  V30 1487 C 145.784 -0.476976 2.28576 0
M  V30 1488 C 146.765 -1.08631 1.30894 0
M  V30 1489 O 147.95 -1.10409 1.59761 0
M  V30 1490 C 145.08 -1.61828 3.07293 0
M  V30 1491 C 144.034 -1.13633 4.1264 0
M  V30 1492 C 143.36 -2.36766 4.79423 0
M  V30 1493 C 144.66 -0.223061 5.21823 0
M  V30 1494 H 146.354 0.150474 2.99022 0
M  V30 1495 H 143.9 0.0738103 1.43811 0
M  V30 1496 H 145.853 -2.21237 3.58653 0
M  V30 1497 H 144.577 -2.27292 2.34533 0
M  V30 1498 H 143.236 -0.564945 3.62221 0
M  V30 1499 H 142.884 -3.0068 4.03238 0
M  V30 1500 H 142.584 -2.05192 5.50609 0
M  V30 1501 H 144.108 -2.96865 5.33576 0
M  V30 1502 H 145.522 -0.724545 5.68703 0
M  V30 1503 H 143.919 0.001678 6.001 0
M  V30 1504 H 144.989 0.735553 4.79289 0
M  V30 1505 N 146.332 -1.57332 0.0918853 0
M  V30 1506 C 147.557 -1.98995 -0.584442 0
M  V30 1507 C 147.982 -0.970528 -1.61128 0
M  V30 1508 O 147.34 0.0613904 -1.81196 0
M  V30 1509 C 147.388 -3.39636 -1.21161 0
M  V30 1510 O 146.492 -3.40447 -2.32744 0
M  V30 1511 H 145.833 -0.647165 -0.148572 0
M  V30 1512 H 148.363 -2.03873 0.172347 0
M  V30 1513 H 148.373 -3.7726 -1.55367 0
M  V30 1514 H 147.048 -4.13356 -0.459313 0
M  V30 1515 H 145.625 -3.14614 -2.0018 0
M  V30 1516 N 147.81 0.181792 -1.56548 0
M  V30 1517 C 149.035 0.920019 -1.85877 0
M  V30 1518 C 149.46 1.75494 -0.677021 0
M  V30 1519 O 148.818 1.77399 0.374056 0
M  V30 1520 C 148.866 1.78112 -3.13542 0
M  V30 1521 O 147.97 2.88152 -2.95029 0
M  V30 1522 H 147.311 0.258334 -0.611686 0
M  V30 1523 H 149.841 0.183092 -2.03779 0
M  V30 1524 H 149.851 2.18314 -3.44678 0
M  V30 1525 H 148.526 1.16777 -3.99169 0
M  V30 1526 H 147.103 2.51609 -2.75222 0
M  V30 1527 N 149.288 1.51039 0.449983 0
M  V30 1528 C 150.534 1.63322 1.20223 0
M  V30 1529 C 150.867 0.34241 1.91158 0
M  V30 1530 O 150.142 -0.657344 1.83055 0
M  V30 1531 C 150.425 2.82801 2.22925 0
M  V30 1532 C 150.278 4.21823 1.56157 0
M  V30 1533 C 151.597 2.97807 3.24035 0
M  V30 1534 H 148.716 0.594407 0.435718 0
M  V30 1535 H 151.358 1.83489 0.493136 0
M  V30 1536 H 149.508 2.65738 2.834 0
M  V30 1537 H 151.18 4.50526 0.991162 0
M  V30 1538 H 149.423 4.25105 0.864172 0
M  V30 1539 H 150.094 5.01391 2.30891 0
M  V30 1540 H 152.57 3.13497 2.73603 0
M  V30 1541 H 151.446 3.82992 3.93202 0
M  V30 1542 H 151.707 2.09328 3.89402 0
M  V30 1543 N 150.766 -0.704594 1.40972 0
M  V30 1544 C 152.182 -1.01406 1.23244 0
M  V30 1545 C 152.382 -2.01169 0.115399 0
M  V30 1546 O 151.438 -2.47021 -0.523147 0
M  V30 1547 C 152.751 -1.54728 2.57836 0
M  V30 1548 C 154.299 -1.66658 2.64942 0
M  V30 1549 C 154.774 -2.23383 3.9983 0
M  V30 1550 N 156.265 -2.30756 4.01629 0
M  V30 1551 C 157 -2.75655 5.02794 0
M  V30 1552 N 156.496 -3.20225 6.14352 0
M  V30 1553 N 158.289 -2.75138 4.90159 0
M  V30 1554 H 150.44 -0.0435285 2.12355 0
M  V30 1555 H 152.703 -0.0818951 0.944456 0
M  V30 1556 H 152.409 -0.888832 3.40283 0
M  V30 1557 H 152.283 -2.53084 2.79693 0
M  V30 1558 H 154.67 -2.31617 1.8286 0
M  V30 1559 H 154.751 -0.668717 2.46904 0
M  V30 1560 H 154.395 -1.59043 4.82357 0
M  V30 1561 H 154.325 -3.23904 4.15203 0
M  V30 1562 H 156.816 -1.99291 3.21079 0
M  V30 1563 H 157.129 -3.53084 6.87424 0
M  V30 1564 H 155.474 -3.18156 6.17901 0
M  V30 1565 H 158.665 -2.39661 4.02095 0
M  V30 1566 H 158.838 -3.09812 5.6914 0
M  V30 1567 N 152.244 -1.26651 -0.937939 0
M  V30 1568 C 153.491 -1.12387 -1.6845 0
M  V30 1569 C 153.819 0.332208 -1.91642 0
M  V30 1570 O 153.074 1.2602 -1.49725 0
M  V30 1571 C 153.373 -1.84168 -3.06295 0
M  V30 1572 C 153.039 -3.34056 -3.02849 0
M  V30 1573 C 151.701 -3.74942 -3.01616 0
M  V30 1574 C 154.053 -4.29741 -2.9491 0
M  V30 1575 C 151.381 -5.09894 -2.90215 0
M  V30 1576 C 153.733 -5.64738 -2.8505 0
M  V30 1577 C 152.397 -6.0493 -2.82162 0
M  V30 1578 H 151.667 -0.411252 -0.616403 0
M  V30 1579 H 154.314 -1.57134 -1.09459 0
M  V30 1580 H 152.619 -1.319 -3.6893 0
M  V30 1581 H 154.316 -1.70569 -3.62915 0
M  V30 1582 H 150.906 -3.01534 -3.0459 0
M  V30 1583 H 155.09 -3.99133 -2.94969 0
M  V30 1584 H 150.346 -5.40194 -2.86358 0
M  V30 1585 H 154.52 -6.38561 -2.77872 0
M  V30 1586 H 152.147 -7.09457 -2.73084 0
M  V30 1587 N 153.722 1.14298 -1.08507 0
M  V30 1588 C 154.971 1.84708 -0.810305 0
M  V30 1589 C 155.284 1.83903 0.666271 0
M  V30 1590 O 156.49 2.50112 1.05624 0
M  V30 1591 C 154.946 3.31572 -1.39957 0
M  V30 1592 C 154.554 3.40791 -2.90801 0
M  V30 1593 C 156.298 4.07087 -1.20334 0
M  V30 1594 C 154.205 4.81872 -3.4286 0
M  V30 1595 H 153.135 0.691985 -0.299454 0
M  V30 1596 H 155.786 1.28841 -1.30661 0
M  V30 1597 H 154.168 3.87183 -0.830976 0
M  V30 1598 H 155.342 2.95225 -3.53806 0
M  V30 1599 H 153.657 2.78732 -3.0935 0
M  V30 1600 H 156.254 5.11225 -1.56693 0
M  V30 1601 H 156.597 4.16054 -0.143237 0
M  V30 1602 H 157.13 3.57779 -1.73893 0
M  V30 1603 H 153.869 4.78094 -4.48449 0
M  V30 1604 H 153.389 5.27972 -2.84615 0
M  V30 1605 H 155.068 5.50765 -3.39509 0
M  V30 1606 N 155.201 0.870884 1.31352 0
M  V30 1607 C 156.441 0.488783 1.9847 0
M  V30 1608 C 156.805 -0.941536 1.67329 0
M  V30 1609 O 158.006 -1.42903 2.27667 0
M  V30 1610 C 156.277 0.739688 3.49662 0
M  V30 1611 S 157.836 0.457582 4.36408 0
M  V30 1612 H 154.654 0.18242 0.6872 0
M  V30 1613 H 157.256 1.12711 1.59739 0
M  V30 1614 H 155.96 1.77944 3.69816 0
M  V30 1615 H 155.491 0.0883905 3.93301 0
M  V30 1616 H 157.506 -0.709752 4.91098 0
M  V30 1617 N 156.679 -1.44442 0.630414 0
M  V30 1618 C 157.927 -2.01653 0.134351 0
M  V30 1619 C 158.248 -1.49836 -1.24796 0
M  V30 1620 O 157.518 -0.701684 -1.82902 0
M  V30 1621 H 156.098 -0.74554 0.0466769 0
M  V30 1622 H 158.76 -1.76952 0.816955 0
M  V30 1623 H 157.856 -3.11935 0.101498 0
M  V30 1624 N 158.157 -0.370918 -1.53173 0
M  V30 1625 C 159.385 0.217704 -2.05751 0
M  V30 1626 C 159.8 1.42018 -1.24404 0
M  V30 1627 O 159.157 1.80245 -0.286033 0
M  V30 1628 C 159.208 0.605954 -3.56385 0
M  V30 1629 O 158.929 -0.548734 -4.3465 0
M  V30 1630 C 160.43 1.2524 -4.25241 0
M  V30 1631 H 157.65 0.0371659 -0.66997 0
M  V30 1632 H 160.194 -0.530832 -1.9749 0
M  V30 1633 H 158.349 1.3044 -3.6478 0
M  V30 1634 H 158.763 -0.23376 -5.23979 0
M  V30 1635 H 160.237 1.47458 -5.3194 0
M  V30 1636 H 160.714 2.2143 -3.79296 0
M  V30 1637 H 161.32 0.595233 -4.21114 0
M  V30 1638 N 159.635 1.57281 -0.100228 0
M  V30 1639 C 160.567 2.11342 0.886972 0
M  V30 1640 C 161.58 1.05182 1.24261 0
M  V30 1641 O 162.769 1.32613 1.19483 0
M  V30 1642 C 159.869 2.5825 2.19454 0
M  V30 1643 C 159.042 3.88302 2.01346 0
M  V30 1644 C 158.101 4.21004 3.15661 0
M  V30 1645 O 157.127 4.9014 2.89398 0
M  V30 1646 N 158.329 3.76818 4.41575 0
M  V30 1647 H 161.094 2.96668 0.425216 0
M  V30 1648 H 158.655 1.61678 0.0847334 0
M  V30 1649 H 160.647 2.7717 2.94888 0
M  V30 1650 H 159.217 1.77907 2.57037 0
M  V30 1651 H 158.437 3.7848 1.10212 0
M  V30 1652 H 159.725 4.73375 1.8653 0
M  V30 1653 H 159.123 3.2102 4.65792 0
M  V30 1654 H 157.68 4.00882 5.13942 0
M  V30 1655 N 161.113 -0.173488 1.56642 0
M  V30 1656 C 162.338 -0.910149 1.86363 0
M  V30 1657 C 162.763 -1.75132 0.686318 0
M  V30 1658 O 162.121 -1.77595 -0.364643 0
M  V30 1659 C 162.169 -1.76447 3.14482 0
M  V30 1660 O 161.273 -2.86584 2.96553 0
M  V30 1661 H 160.614 -0.255086 0.613047 0
M  V30 1662 H 163.144 -0.172283 2.03873 0
M  V30 1663 H 163.154 -2.16483 3.45831 0
M  V30 1664 H 161.829 -1.14658 3.99783 0
M  V30 1665 H 160.406 -2.50146 2.76553 0
M  V30 1666 N 162.591 -1.51276 -0.441967 0
M  V30 1667 C 163.84 -1.6295 -1.18871 0
M  V30 1668 C 164.153 -0.349312 -1.92456 0
M  V30 1669 O 165.359 -0.345355 -2.69295 0
M  V30 1670 C 163.815 -2.87759 -2.16155 0
M  V30 1671 C 163.423 -4.22764 -1.48239 0
M  V30 1672 C 165.167 -3.08788 -2.91291 0
M  V30 1673 C 163.074 -5.38728 -2.4398 0
M  V30 1674 H 162.004 -0.606913 -0.447406 0
M  V30 1675 H 164.655 -1.77739 -0.456205 0
M  V30 1676 H 163.037 -2.66593 -2.92821 0
M  V30 1677 H 164.211 -4.54293 -0.771635 0
M  V30 1678 H 162.526 -4.07575 -0.852741 0
M  V30 1679 H 165.123 -3.92599 -3.63002 0
M  V30 1680 H 165.466 -2.21679 -3.5237 0
M  V30 1681 H 165.999 -3.30272 -2.21733 0
M  V30 1682 H 162.738 -6.28082 -1.87598 0
M  V30 1683 H 162.258 -5.1158 -3.13123 0
M  V30 1684 H 163.937 -5.70489 -3.05207 0
M  V30 1685 N 164.069 0.697108 -1.41344 0
M  V30 1686 C 165.019 1.80313 -1.39539 0
M  V30 1687 C 166.003 1.58618 -0.270001 0
M  V30 1688 O 167.195 1.69477 -0.510551 0
M  V30 1689 C 164.324 3.18606 -1.27848 0
M  V30 1690 C 163.41 3.46001 -2.45244 0
M  V30 1691 N 163.801 3.44103 -3.70711 0
M  V30 1692 C 162.099 3.76542 -2.39023 0
M  V30 1693 C 162.8 3.7036 -4.48563 0
M  V30 1694 N 161.776 3.90027 -3.78655 0
M  V30 1695 H 165.578 1.77207 -2.34468 0
M  V30 1696 H 163.092 0.897031 -1.35378 0
M  V30 1697 H 165.089 3.97833 -1.24637 0
M  V30 1698 H 163.749 3.22925 -0.339032 0
M  V30 1699 H 164.76 3.2452 -4.03618 0
M  V30 1700 H 161.437 3.88241 -1.53542 0
M  V30 1701 H 162.827 3.75042 -5.57488 0
M  V30 1702 N 165.547 1.27147 0.931209 0
M  V30 1703 C 166.494 1.09568 2.03134 0
M  V30 1704 C 167.464 -0.00222433 1.661 0
M  V30 1705 O 168.649 0.159439 1.90133 0
M  V30 1706 C 165.789 0.745231 3.36957 0
M  V30 1707 C 164.902 1.92041 3.86968 0
M  V30 1708 C 164.037 1.51216 5.09222 0
M  V30 1709 C 163.076 2.65504 5.5152 0
M  V30 1710 N 162.213 2.25291 6.64972 0
M  V30 1711 H 167.053 2.03708 2.17502 0
M  V30 1712 H 164.59 1.01411 1.06556 0
M  V30 1713 H 166.548 0.522878 4.1391 0
M  V30 1714 H 165.178 -0.159202 3.22407 0
M  V30 1715 H 164.23 2.25541 3.06326 0
M  V30 1716 H 165.542 2.77787 4.1429 0
M  V30 1717 H 164.696 1.25084 5.93666 0
M  V30 1718 H 163.435 0.625749 4.83669 0
M  V30 1719 H 162.44 2.92354 4.65628 0
M  V30 1720 H 163.665 3.54761 5.7907 0
M  V30 1721 H 161.611 1.39098 6.41083 0
M  V30 1722 H 161.528 3.04577 6.91931 0
M  V30 1723 H 162.796 2.02398 7.52765 0
M  V30 1724 N 167.025 -1.13721 1.09112 0
M  V30 1725 C 167.973 -2.21103 0.722219 0
M  V30 1726 C 168.967 -1.67147 -0.275374 0
M  V30 1727 O 170.173 -1.79477 -0.137176 0
M  V30 1728 H 166.548 -0.720445 0.215553 0
M  V30 1729 H 168.519 -2.49483 1.63709 0
M  V30 1730 C 167.268 -3.47352 0.15543 0
M  V30 1731 H 166.591 -3.89206 0.914246 0
M  V30 1732 H 168.031 -4.2395 -0.0647967 0
M  V30 1733 C 166.49 -3.1814 -1.10852 0
M  V30 1734 O 167.02 -3.36604 -2.19227 0
M  V30 1735 N 165.226 -2.72045 -1.02176 0
M  V30 1736 H 164.773 -2.57221 -0.139764 0
M  V30 1737 H 164.731 -2.52875 -1.8682 0
M  V30 1738 N 168.503 -0.877838 -1.30888 0
M  V30 1739 C 169.433 -0.35534 -2.3078 0
M  V30 1740 C 170.414 0.557994 -1.60687 0
M  V30 1741 O 171.599 0.473355 -1.88343 0
M  V30 1742 C 168.729 0.437221 -3.44537 0
M  V30 1743 C 167.683 -0.383715 -4.26276 0
M  V30 1744 C 167.009 0.535014 -5.32017 0
M  V30 1745 C 168.309 -1.62201 -4.96476 0
M  V30 1746 H 170.003 -1.19007 -2.74732 0
M  V30 1747 H 167.549 -0.573698 -1.32078 0
M  V30 1748 H 169.502 0.813334 -4.13477 0
M  V30 1749 H 168.226 1.30553 -2.99372 0
M  V30 1750 H 166.885 -0.741874 -3.59015 0
M  V30 1751 H 166.533 1.40083 -4.831 0
M  V30 1752 H 166.233 -0.0104211 -5.87599 0
M  V30 1753 H 167.757 0.907799 -6.03814 0
M  V30 1754 H 169.171 -1.31689 -5.5797 0
M  V30 1755 H 167.568 -2.10711 -5.61891 0
M  V30 1756 H 168.638 -2.37044 -4.23011 0
M  V30 1757 N 169.982 1.44106 -0.638065 0
M  V30 1758 C 170.892 2.34513 0.0637334 0
M  V30 1759 C 171.908 1.53018 0.828346 0
M  V30 1760 O 173.084 1.85723 0.779036 0
M  V30 1761 C 170.149 3.31095 1.02844 0
M  V30 1762 C 169.21 4.28497 0.26244 0
M  V30 1763 C 168.443 5.20465 1.1812 0
M  V30 1764 O 168.666 5.16514 2.42011 0
M  V30 1765 O 167.6 5.98251 0.661774 0
M  V30 1766 H 171.426 2.95989 -0.68003 0
M  V30 1767 H 169.011 1.43994 -0.398252 0
M  V30 1768 H 170.893 3.90526 1.58327 0
M  V30 1769 H 169.568 2.72144 1.7527 0
M  V30 1770 H 168.475 3.72592 -0.335602 0
M  V30 1771 H 169.808 4.90388 -0.421936 0
M  V30 1772 N 171.46 0.379036 1.52974 0
M  V30 1773 C 172.423 -0.448865 2.24762 0
M  V30 1774 C 173.423 -0.998689 1.26027 0
M  V30 1775 O 174.613 -0.882313 1.50203 0
M  V30 1776 C 171.745 -1.62872 2.99476 0
M  V30 1777 H 172.938 0.179491 2.99362 0
M  V30 1778 H 170.491 0.13096 1.5575 0
M  V30 1779 H 171.226 -2.29479 2.29151 0
M  V30 1780 H 171.011 -1.24128 3.71934 0
M  V30 1781 H 172.501 -2.2151 3.5401 0
M  V30 1782 N 172.938 -1.57226 0.108567 0
M  V30 1783 C 173.885 -2.14756 -0.845481 0
M  V30 1784 C 174.855 -1.06971 -1.27068 0
M  V30 1785 O 176.04 -1.34827 -1.35005 0
M  V30 1786 C 173.18 -2.74298 -2.09415 0
M  V30 1787 C 172.293 -3.96358 -1.71826 0
M  V30 1788 C 171.428 -4.44021 -2.9158 0
M  V30 1789 C 170.467 -5.58637 -2.50181 0
M  V30 1790 N 169.604 -6.01091 -3.62814 0
M  V30 1791 H 174.444 -2.95961 -0.348035 0
M  V30 1792 H 171.981 -1.46226 -0.160106 0
M  V30 1793 H 173.939 -3.06945 -2.82561 0
M  V30 1794 H 172.569 -1.95801 -2.56636 0
M  V30 1795 H 171.621 -3.69939 -0.885947 0
M  V30 1796 H 172.933 -4.79504 -1.37394 0
M  V30 1797 H 172.087 -4.78522 -3.72963 0
M  V30 1798 H 170.826 -3.59803 -3.29231 0
M  V30 1799 H 169.831 -5.23751 -1.67228 0
M  V30 1800 H 171.056 -6.44613 -2.13659 0
M  V30 1801 H 169.002 -5.19817 -4.00158 0
M  V30 1802 H 168.919 -6.79066 -3.32273 0
M  V30 1803 H 170.187 -6.40227 -4.44668 0
M  V30 1804 N 174.416 0.165178 -1.56732 0
M  V30 1805 C 175.665 0.879143 -1.81532 0
M  V30 1806 C 175.978 1.83144 -0.686842 0
M  V30 1807 O 177.184 2.58823 -0.819944 0
M  V30 1808 C 175.64 1.61388 -3.21686 0
M  V30 1809 C 175.248 0.704904 -4.4242 0
M  V30 1810 C 176.992 2.3157 -3.55774 0
M  V30 1811 C 174.899 1.44022 -5.73595 0
M  V30 1812 H 173.829 0.332033 -0.676957 0
M  V30 1813 H 176.48 0.132008 -1.83025 0
M  V30 1814 H 174.862 2.40599 -3.14529 0
M  V30 1815 H 176.036 -0.0506815 -4.60772 0
M  V30 1816 H 174.351 0.112419 -4.16248 0
M  V30 1817 H 176.948 2.8719 -4.51028 0
M  V30 1818 H 177.291 3.07201 -2.8095 0
M  V30 1819 H 177.824 1.59297 -3.64513 0
M  V30 1820 H 174.563 0.72612 -6.51466 0
M  V30 1821 H 174.083 2.16898 -5.5921 0
M  V30 1822 H 175.762 1.98606 -6.15764 0
M  V30 1823 N 175.894 1.51508 0.433938 0
M  V30 1824 C 176.857 1.72473 1.50949 0
M  V30 1825 C 177.857 0.594725 1.49398 0
M  V30 1826 O 179.047 0.862315 1.5136 0
M  V30 1827 C 176.179 1.78431 2.90474 0
M  V30 1828 H 177.372 2.68467 1.33662 0
M  V30 1829 H 174.925 1.41549 0.662836 0
M  V30 1830 H 175.66 0.842645 3.13161 0
M  V30 1831 H 175.445 2.60558 2.93005 0
M  V30 1832 H 176.935 1.96479 3.68491 0
M  V30 1833 N 177.372 -0.689602 1.41712 0
M  V30 1834 C 178.788 -1.00093 1.24312 0
M  V30 1835 C 178.988 -2.01036 0.136729 0
M  V30 1836 O 178.044 -2.47562 -0.496918 0
M  V30 1837 C 179.357 -1.51985 2.59463 0
M  V30 1838 C 180.905 -1.63838 2.66695 0
M  V30 1839 C 181.38 -2.1913 4.02177 0
M  V30 1840 N 182.871 -2.26483 4.04054 0
M  V30 1841 C 183.606 -2.70306 5.0569 0
M  V30 1842 N 183.102 -3.13691 6.17713 0
M  V30 1843 N 184.895 -2.69923 4.9305 0
M  V30 1844 H 177.046 -0.0210029 2.1239 0
M  V30 1845 H 179.309 -0.0718733 0.945272 0
M  V30 1846 H 179.015 -0.85269 3.41207 0
M  V30 1847 H 178.889 -2.50103 2.82362 0
M  V30 1848 H 181.276 -2.29664 1.85306 0
M  V30 1849 H 181.357 -0.642492 2.476 0
M  V30 1850 H 181.001 -1.53918 4.84016 0
M  V30 1851 H 180.931 -3.19482 4.18615 0
M  V30 1852 H 183.422 -1.95874 3.23174 0
M  V30 1853 H 183.735 -3.45773 6.9113 0
M  V30 1854 H 182.08 -3.11585 6.21241 0
M  V30 1855 H 185.271 -2.35382 4.04614 0
M  V30 1856 H 185.444 -3.03758 5.72394 0
M  V30 1857 N 178.85 -1.27639 -0.924453 0
M  V30 1858 C 180.097 -1.14167 -1.67249 0
M  V30 1859 C 180.425 0.311863 -1.91984 0
M  V30 1860 O 179.68 1.24425 -1.51053 0
M  V30 1861 C 179.979 -1.87407 -3.04325 0
M  V30 1862 C 179.645 -3.37249 -2.99289 0
M  V30 1863 C 178.307 -3.7812 -2.97622 0
M  V30 1864 C 180.659 -4.32845 -2.90336 0
M  V30 1865 C 177.987 -5.12944 -2.8479 0
M  V30 1866 C 180.339 -5.6773 -2.79045 0
M  V30 1867 C 179.003 -6.07889 -2.7573 0
M  V30 1868 H 178.273 -0.417766 -0.612007 0
M  V30 1869 H 180.92 -1.58286 -1.07786 0
M  V30 1870 H 179.225 -1.35805 -3.67511 0
M  V30 1871 H 180.922 -1.74408 -3.61086 0
M  V30 1872 H 177.512 -3.04748 -3.01374 0
M  V30 1873 H 181.696 -4.02239 -2.90719 0
M  V30 1874 H 176.952 -5.432 -2.80612 0
M  V30 1875 H 181.126 -6.41472 -2.71083 0
M  V30 1876 H 178.753 -7.12314 -2.65544 0
M  V30 1877 N 180.328 1.1314 -1.09713 0
M  V30 1878 C 181.278 2.16709 -0.708593 0
M  V30 1879 C 182.262 1.58471 0.278523 0
M  V30 1880 O 183.454 1.76779 0.088427 0
M  V30 1881 C 180.583 3.43039 -0.133923 0
M  V30 1882 C 179.669 4.08277 -1.14763 0
M  V30 1883 N 180.06 4.48637 -2.33577 0
M  V30 1884 C 178.358 4.34954 -0.986446 0
M  V30 1885 C 179.059 4.9952 -2.98085 0
M  V30 1886 N 178.035 4.94561 -2.25632 0
M  V30 1887 H 181.837 2.45672 -1.61315 0
M  V30 1888 H 179.351 1.29967 -0.973775 0
M  V30 1889 H 181.348 4.16583 0.162465 0
M  V30 1890 H 180.008 3.15549 0.765447 0
M  V30 1891 H 181.019 4.41246 -2.7115 0
M  V30 1892 H 177.696 4.17258 -0.142008 0
M  V30 1893 H 179.086 5.40521 -3.99108 0
M  V30 1894 N 181.806 0.884767 1.30421 0
M  V30 1895 C 182.738 0.308655 2.27112 0
M  V30 1896 C 183.751 -0.536655 1.53701 0
M  V30 1897 O 184.94 -0.35624 1.74909 0
M  V30 1898 C 182.04 -0.579782 3.33904 0
M  V30 1899 C 181.213 0.236417 4.36761 0
M  V30 1900 C 180.272 -0.582482 5.22966 0
M  V30 1901 O 179.298 -0.00525502 5.692 0
M  V30 1902 N 180.5 -1.89163 5.48815 0
M  V30 1903 H 183.265 1.13964 2.77186 0
M  V30 1904 H 180.826 0.747731 1.43599 0
M  V30 1905 H 182.818 -1.13366 3.88497 0
M  V30 1906 H 181.388 -1.31144 2.83761 0
M  V30 1907 H 180.608 0.97174 3.82035 0
M  V30 1908 H 181.896 0.795924 5.02536 0
M  V30 1909 H 181.294 -2.38352 5.13035 0
M  V30 1910 H 179.851 -2.39296 6.06284 0
M  V30 1911 N 183.284 -1.43765 0.645699 0
M  V30 1912 C 184.7 -1.56509 0.312591 0
M  V30 1913 C 184.9 -1.6307 -1.18365 0
M  V30 1914 O 183.956 -1.58167 -1.96824 0
M  V30 1915 C 185.269 -2.82968 1.01733 0
M  V30 1916 C 186.817 -2.96701 0.996865 0
M  V30 1917 C 187.292 -4.25982 1.68236 0
M  V30 1918 N 188.783 -4.32829 1.64964 0
M  V30 1919 C 189.518 -5.31613 2.14885 0
M  V30 1920 N 189.014 -6.36718 2.73061 0
M  V30 1921 N 190.807 -5.23217 2.05428 0
M  V30 1922 H 182.958 -1.3775 1.61675 0
M  V30 1923 H 185.221 -0.661067 0.679481 0
M  V30 1924 H 184.927 -2.84156 2.0724 0
M  V30 1925 H 184.801 -3.72957 0.564177 0
M  V30 1926 H 187.188 -2.95058 -0.0497719 0
M  V30 1927 H 187.269 -2.08022 1.48865 0
M  V30 1928 H 186.913 -4.28386 2.72852 0
M  V30 1929 H 186.843 -5.13545 1.16529 0
M  V30 1930 H 189.334 -3.57493 1.22503 0
M  V30 1931 H 189.647 -7.08401 3.08848 0
M  V30 1932 H 187.992 -6.37362 2.77118 0
M  V30 1933 H 191.183 -4.40019 1.59689 0
M  V30 1934 H 191.356 -6.00045 2.44643 0
M  V30 1935 N 184.763 -0.387143 -1.52771 0
M  V30 1936 C 185.673 0.456442 -2.30117 0
M  V30 1937 C 186.689 1.07342 -1.36944 0
M  V30 1938 O 187.865 1.07971 -1.70013 0
M  V30 1939 C 184.93 1.56957 -3.09136 0
M  V30 1940 C 183.991 0.977916 -4.18014 0
M  V30 1941 C 183.224 2.038 -4.93256 0
M  V30 1942 O 183.447 3.25271 -4.68567 0
M  V30 1943 O 182.381 1.6565 -5.78657 0
M  V30 1944 H 186.207 -0.17359 -3.03203 0
M  V30 1945 H 183.792 -0.150919 -1.48636 0
M  V30 1946 H 185.674 2.21628 -3.58412 0
M  V30 1947 H 184.349 2.18461 -2.38865 0
M  V30 1948 H 183.256 0.294525 -3.72939 0
M  V30 1949 H 184.589 0.407128 -4.90513 0
M  V30 1950 N 186.241 1.57166 -0.116904 0
M  V30 1951 C 187.518 1.86645 0.585049 0
M  V30 1952 C 187.898 1.0177 1.84949 0
M  V30 1953 O 187.246 0.0960379 2.28298 0
M  V30 1954 C 187.456 3.37736 0.879507 0
M  V30 1955 C 188.804 4.06289 1.23348 0
M  V30 1956 O 189.828 3.42743 0.969836 0
M  V30 1957 O 188.687 5.18455 1.7282 0
M  V30 1958 H 185.781 0.772593 0.295007 0
M  V30 1959 H 188.327 1.69025 -0.151249 0
M  V30 1960 H 187.099 3.91296 -0.0166136 0
M  V30 1961 H 186.722 3.6078 1.67103 0
M  V30 1962 N 187.719 -0.156864 1.56817 0
M  V30 1963 C 188.682 -1.17781 1.96622 0
M  V30 1964 C 189.682 -1.36401 0.851555 0
M  V30 1965 O 190.872 -1.33561 1.11836 0
M  V30 1966 C 188.004 -2.54008 2.27361 0
M  V30 1967 H 189.197 -0.836564 2.87996 0
M  V30 1968 H 186.75 -0.39985 1.51099 0
M  V30 1969 H 187.485 -2.9312 1.38748 0
M  V30 1970 H 187.27 -2.41856 3.08623 0
M  V30 1971 H 188.76 -3.27558 2.59029 0
M  V30 1972 N 189.197 -1.51736 -0.425897 0
M  V30 1973 C 190.446 -1.64201 -1.17136 0
M  V30 1974 C 190.759 -0.369705 -1.92074 0
M  V30 1975 O 191.965 -0.373898 -2.68913 0
M  V30 1976 C 190.421 -2.90035 -2.13091 0
M  V30 1977 C 190.029 -4.24312 -1.43747 0
M  V30 1978 C 191.773 -3.1186 -2.87999 0
M  V30 1979 C 189.68 -5.41285 -2.38253 0
M  V30 1980 H 188.61 -0.611624 -0.440944 0
M  V30 1981 H 191.261 -1.78212 -0.437328 0
M  V30 1982 H 189.643 -2.69684 -2.89977 0
M  V30 1983 H 190.817 -4.55086 -0.723408 0
M  V30 1984 H 189.132 -4.08456 -0.809465 0
M  V30 1985 H 191.729 -3.96427 -3.58817 0
M  V30 1986 H 192.072 -2.25403 -3.49999 0
M  V30 1987 H 192.605 -3.32605 -2.18217 0
M  V30 1988 H 189.344 -6.30037 -1.80925 0
M  V30 1989 H 188.864 -5.14872 -3.0768 0
M  V30 1990 H 190.543 -5.73694 -2.99139 0
M  V30 1991 N 190.675 0.682077 -1.42076 0
M  V30 1992 C 191.605 1.80796 -1.47767 0
M  V30 1993 C 192.586 1.6677 -0.334954 0
M  V30 1994 O 193.771 1.863 -0.548264 0
M  V30 1995 C 190.901 3.19038 -1.37229 0
M  V30 1996 C 189.855 3.47789 -2.49453 0
M  V30 1997 C 189.181 4.8553 -2.23975 0
M  V30 1998 C 190.481 3.45411 -3.91776 0
M  V30 1999 H 192.175 1.7629 -2.41997 0
M  V30 2000 H 189.721 0.846721 -1.16476 0
M  V30 2001 H 191.674 3.97528 -1.39821 0
M  V30 2002 H 190.398 3.24204 -0.394907 0
M  V30 2003 H 189.057 2.71657 -2.46166 0
M  V30 2004 H 188.705 4.87337 -1.24547 0
M  V30 2005 H 188.405 5.0573 -2.99184 0
M  V30 2006 H 189.929 5.66312 -2.28304 0
M  V30 2007 H 191.343 4.13882 -3.96705 0
M  V30 2008 H 189.74 3.77145 -4.66778 0
M  V30 2009 H 190.81 2.44122 -4.18966 0
M  V30 2010 N 192.153 1.28127 0.917671 0
M  V30 2011 C 193.383 1.17722 1.6978 0
M  V30 2012 C 193.791 -0.267261 1.87303 0
M  V30 2013 O 193.134 -1.19286 1.39702 0
M  V30 2014 C 193.196 1.79958 3.11216 0
M  V30 2015 C 192.86 3.29187 3.16993 0
M  V30 2016 C 193.857 4.25679 2.98485 0
M  V30 2017 C 191.542 3.70075 3.39632 0
M  V30 2018 C 193.536 5.61035 3.02521 0
M  V30 2019 C 191.223 5.05557 3.433 0
M  V30 2020 C 192.221 6.00847 3.24764 0
M  V30 2021 O 191.909 7.33859 3.28187 0
M  V30 2022 H 191.641 0.409788 0.537634 0
M  V30 2023 H 194.195 1.69694 1.15728 0
M  V30 2024 H 192.425 1.22475 3.66793 0
M  V30 2025 H 194.114 1.64125 3.71238 0
M  V30 2026 H 194.88 3.95426 2.80826 0
M  V30 2027 H 190.759 2.96373 3.53106 0
M  V30 2028 H 194.303 6.35388 2.87971 0
M  V30 2029 H 190.2 5.35462 3.60486 0
M  V30 2030 H 190.968 7.42436 3.44575 0
M  V30 2031 N 193.631 -1.12557 1.10312 0
M  V30 2032 C 195.042 -1.65574 0.862678 0
M  V30 2033 C 195.393 -1.86566 -0.607256 0
M  V30 2034 O 194.518 -1.59121 -1.46662 0
M  V30 2035 C 195.113 -3.00776 1.55947 0
M  V30 2036 C 193.672 -3.50748 1.36576 0
M  V30 2037 C 192.819 -2.25797 1.60968 0
M  V30 2038 H 195.77 -0.963552 1.26101 0
M  V30 2039 H 195.791 -3.67185 0.997753 0
M  V30 2040 H 195.303 -2.85465 2.62928 0
M  V30 2041 H 193.404 -3.71245 0.317531 0
M  V30 2042 H 193.517 -4.30289 2.10686 0
M  V30 2043 H 191.881 -2.32841 1.03234 0
M  V30 2044 H 192.664 -2.13043 2.69198 0
M  V30 2045 N 195.109 -0.891671 -1.2995 0
M  V30 2046 C 196.334 -0.527932 -2.00568 0
M  V30 2047 C 196.759 0.877969 -1.66353 0
M  V30 2048 O 196.117 1.58301 -0.883762 0
M  V30 2049 C 196.165 -0.717745 -3.53385 0
M  V30 2050 O 195.269 0.233376 -4.11739 0
M  V30 2051 H 194.61 -0.20722 -0.630837 0
M  V30 2052 H 197.14 -1.20105 -1.65638 0
M  V30 2053 H 197.15 -0.619307 -4.03272 0
M  V30 2054 H 195.825 -1.74276 -3.77625 0
M  V30 2055 H 194.402 0.0880706 -3.72796 0
M  V30 2056 N 196.587 1.43421 -0.653314 0
M  V30 2057 C 197.827 2.03689 -0.170346 0
M  V30 2058 C 198.191 1.50427 1.19314 0
M  V30 2059 O 199.392 2.0234 1.76952 0
M  V30 2060 C 197.663 3.56946 -0.180183 0
M  V30 2061 S 199.222 4.38171 0.234925 0
M  V30 2062 H 196.04 0.707345 -0.0719976 0
M  V30 2063 H 198.642 1.75486 -0.86167 0
M  V30 2064 H 197.346 3.93212 -1.17526 0
M  V30 2065 H 196.877 3.89791 0.531675 0
M  V30 2066 H 198.892 4.73808 1.47378 0
M  V30 2067 N 198.065 0.39524 1.52563 0
M  V30 2068 C 199.295 -0.184675 2.05773 0
M  V30 2069 C 199.703 -1.40571 1.26635 0
M  V30 2070 O 199.046 -1.81105 0.30769 0
M  V30 2071 C 199.108 -0.613551 3.54226 0
M  V30 2072 C 198.772 0.49484 4.54313 0
M  V30 2073 C 199.769 1.3541 5.01956 0
M  V30 2074 C 197.454 0.663565 4.97898 0
M  V30 2075 C 199.448 2.36716 5.91814 0
M  V30 2076 C 197.135 1.67996 5.87555 0
M  V30 2077 C 198.133 2.53017 6.34406 0
M  V30 2078 O 197.821 3.52917 7.22291 0
M  V30 2079 H 197.553 -0.030077 0.675331 0
M  V30 2080 H 200.107 0.560708 1.97599 0
M  V30 2081 H 198.337 -1.411 3.60038 0
M  V30 2082 H 200.026 -1.11981 3.90148 0
M  V30 2083 H 200.792 1.23509 4.6901 0
M  V30 2084 H 196.671 0.0114913 4.60999 0
M  V30 2085 H 200.215 3.03113 6.28306 0
M  V30 2086 H 196.112 1.79933 6.19915 0
M  V30 2087 H 196.88 3.48996 7.40367 0
M  V30 2088 N 199.544 -1.57102 0.125237 0
M  V30 2089 C 200.821 -1.86953 -0.575142 0
M  V30 2090 C 201.201 -1.02749 -1.84407 0
M  V30 2091 O 200.549 -0.108144 -2.28244 0
M  V30 2092 C 200.759 -3.38198 -0.861583 0
M  V30 2093 C 202.107 -4.06937 -1.21192 0
M  V30 2094 O 203.131 -3.43252 -0.951645 0
M  V30 2095 O 201.99 -5.19364 -1.70068 0
M  V30 2096 H 199.084 -0.774147 -0.290906 0
M  V30 2097 H 201.63 -1.68942 0.160211 0
M  V30 2098 H 200.402 -3.91282 0.0373647 0
M  V30 2099 H 200.025 -3.61661 -1.65188 0
M  V30 2100 N 201.022 0.148545 -1.56898 0
M  V30 2101 C 201.985 1.16736 -1.97244 0
M  V30 2102 C 202.985 1.35947 -0.858777 0
M  V30 2103 O 204.175 1.32966 -1.12542 0
M  V30 2104 C 201.307 2.52798 -2.28705 0
M  V30 2105 H 202.5 0.821279 -2.88435 0
M  V30 2106 H 200.053 0.391831 -1.51309 0
M  V30 2107 H 200.788 2.92381 -1.403 0
M  V30 2108 H 200.573 2.40216 -3.09901 0
M  V30 2109 H 202.063 3.26179 -2.60762 0
M  V30 2110 N 202.5 1.5196 0.417844 0
M  V30 2111 C 203.448 1.75278 1.52907 0
M  V30 2112 C 204.442 0.619611 1.57662 0
M  V30 2113 O 205.648 0.801457 1.61173 0
M  V30 2114 H 202.023 0.554141 0.508362 0
M  V30 2115 H 203.994 2.68389 1.30422 0
M  V30 2116 C 202.743 1.91262 2.90369 0
M  V30 2117 H 202.066 2.77872 2.8745 0
M  V30 2118 H 203.506 2.11581 3.67436 0
M  V30 2119 C 201.965 0.677431 3.30019 0
M  V30 2120 O 202.495 -0.158799 4.01386 0
M  V30 2121 N 200.701 0.515851 2.85985 0
M  V30 2122 H 200.248 1.19744 2.28077 0
M  V30 2123 H 200.206 -0.309315 3.12875 0
M  V30 2124 N 203.978 -0.674533 1.42435 0
M  V30 2125 C 204.941 -1.76986 1.45632 0
M  V30 2126 C 205.941 -1.5708 0.343871 0
M  V30 2127 O 207.131 -1.63367 0.604709 0
M  V30 2128 C 204.263 -3.15623 1.28822 0
M  V30 2129 H 205.456 -1.75539 2.43158 0
M  V30 2130 H 203.009 -0.884189 1.28887 0
M  V30 2131 H 203.744 -3.22696 0.322193 0
M  V30 2132 H 203.529 -3.31475 2.09444 0
M  V30 2133 H 205.019 -3.95537 1.33942 0
M  V30 2134 N 205.456 -1.28612 -0.910864 0
M  V30 2135 C 206.704 -1.15705 -1.65701 0
M  V30 2136 C 207.025 0.29416 -1.92769 0
M  V30 2137 O 206.295 1.20331 -1.54588 0
M  V30 2138 H 204.875 -0.425216 -0.614167 0
M  V30 2139 H 207.537 -1.61381 -1.0928 0
M  V30 2140 H 206.633 -1.6988 -2.61815 0
M  V30 2141 N 206.934 1.1197 -1.10907 0
M  V30 2142 C 207.864 2.19928 -0.784473 0
M  V30 2143 C 208.845 1.6833 0.244726 0
M  V30 2144 O 210.03 1.93892 0.109418 0
M  V30 2145 C 207.16 3.46597 -0.220827 0
M  V30 2146 C 206.114 4.11376 -1.18127 0
M  V30 2147 C 205.44 5.32554 -0.478594 0
M  V30 2148 C 206.74 4.56945 -2.52979 0
M  V30 2149 H 208.434 2.47337 -1.68715 0
M  V30 2150 H 205.98 1.18879 -0.812642 0
M  V30 2151 H 207.933 4.21396 0.0184278 0
M  V30 2152 H 206.657 3.1863 0.717113 0
M  V30 2153 H 205.316 3.38564 -1.40606 0
M  V30 2154 H 204.964 5.00856 0.463976 0
M  V30 2155 H 204.664 5.76844 -1.11912 0
M  V30 2156 H 206.188 6.10096 -0.248 0
M  V30 2157 H 207.602 5.23093 -2.3462 0
M  V30 2158 H 205.999 5.1203 -3.12962 0
M  V30 2159 H 207.069 3.70676 -3.12614 0
M  V30 2160 N 208.412 0.89855 1.29475 0
M  V30 2161 C 209.659 0.523882 1.95606 0
M  V30 2162 C 209.987 -0.929608 1.70847 0
M  V30 2163 O 209.242 -1.67401 1.01367 0
M  V30 2164 C 209.541 0.761398 3.49195 0
M  V30 2165 C 209.207 2.19207 3.94029 0
M  V30 2166 C 207.869 2.58326 4.05982 0
M  V30 2167 C 210.221 3.12379 4.17216 0
M  V30 2168 C 207.549 3.898 4.38489 0
M  V30 2169 C 209.901 4.43401 4.51197 0
M  V30 2170 C 208.565 4.82394 4.61359 0
M  V30 2171 H 207.835 0.191702 0.715773 0
M  V30 2172 H 210.482 1.13699 1.54094 0
M  V30 2173 H 208.787 0.0653622 3.91745 0
M  V30 2174 H 210.484 0.450904 3.98457 0
M  V30 2175 H 207.074 1.87846 3.85242 0
M  V30 2176 H 211.258 2.83371 4.07449 0
M  V30 2177 H 206.514 4.19734 4.44559 0
M  V30 2178 H 210.688 5.15623 4.68087 0
M  V30 2179 H 208.315 5.84306 4.86303 0
M  V30 2180 N 209.89 -1.43072 0.660911 0
M  V30 2181 C 210.8 -2.34585 -0.0264163 0
M  V30 2182 C 211.816 -1.54316 -0.803898 0
M  V30 2183 O 212.992 -1.86939 -0.749391 0
M  V30 2184 C 210.057 -3.32689 -0.975639 0
M  V30 2185 C 209.118 -4.2886 -0.194236 0
M  V30 2186 C 208.351 -5.22278 -1.09825 0
M  V30 2187 O 208.574 -5.20299 -2.33763 0
M  V30 2188 O 207.508 -5.99228 -0.566513 0
M  V30 2189 H 211.334 -2.94869 0.727034 0
M  V30 2190 H 208.919 -1.43342 0.42111 0
M  V30 2191 H 210.801 -3.92995 -1.52094 0
M  V30 2192 H 209.476 -2.74898 -1.70918 0
M  V30 2193 H 208.383 -3.72011 0.394835 0
M  V30 2194 H 209.716 -4.89655 0.499899 0
M  V30 2195 N 211.368 -0.403325 -1.52352 0
M  V30 2196 C 212.331 0.413051 -2.25447 0
M  V30 2197 C 213.331 0.978513 -1.276 0
M  V30 2198 O 214.521 0.858305 -1.51587 0
M  V30 2199 C 211.653 1.58087 -3.02029 0
M  V30 2200 H 212.846 -0.227094 -2.99039 0
M  V30 2201 H 210.399 -0.155722 -1.55522 0
M  V30 2202 H 211.134 2.25804 -2.32772 0
M  V30 2203 H 210.919 1.18195 -3.73861 0
M  V30 2204 H 212.409 2.1585 -3.57489 0
M  V30 2205 N 212.846 1.57033 -0.133567 0
M  V30 2206 C 213.776 2.1909 0.807567 0
M  V30 2207 C 214.757 1.13517 1.26681 0
M  V30 2208 O 215.942 1.41809 1.32679 0
M  V30 2209 C 213.072 2.80188 2.05212 0
M  V30 2210 C 212.026 3.91471 1.73015 0
M  V30 2211 C 211.352 4.39443 3.04622 0
M  V30 2212 C 212.652 5.12886 0.987168 0
M  V30 2213 H 214.346 2.97988 0.290403 0
M  V30 2214 H 211.892 1.43335 0.138239 0
M  V30 2215 H 213.845 3.22264 2.71521 0
M  V30 2216 H 212.569 1.98601 2.59278 0
M  V30 2217 H 211.228 3.49993 1.0909 0
M  V30 2218 H 210.876 3.54695 3.56651 0
M  V30 2219 H 210.576 5.14495 2.83847 0
M  V30 2220 H 212.1 4.8418 3.72024 0
M  V30 2221 H 213.514 5.51891 1.55208 0
M  V30 2222 H 211.911 5.93615 0.87985 0
M  V30 2223 H 212.981 4.84894 -0.0235286 0
M  V30 2224 N 214.325 -0.140222 1.56975 0
M  V30 2225 C 215.255 -1.17456 2.01808 0
M  V30 2226 C 216.236 -1.44415 0.898794 0
M  V30 2227 O 217.421 -1.5522 1.16707 0
M  V30 2228 C 214.551 -2.50607 2.40444 0
M  V30 2229 C 213.505 -2.38155 3.55621 0
M  V30 2230 C 212.831 -3.76078 3.80091 0
M  V30 2231 C 214.131 -1.85991 4.88062 0
M  V30 2232 H 215.825 -0.801743 2.88466 0
M  V30 2233 H 213.371 -0.38422 1.38779 0
M  V30 2234 H 215.324 -3.23197 2.7041 0
M  V30 2235 H 214.048 -2.89737 1.50732 0
M  V30 2236 H 212.707 -1.68016 3.25832 0
M  V30 2237 H 212.355 -4.12656 2.87618 0
M  V30 2238 H 212.055 -3.68606 4.57606 0
M  V30 2239 H 213.579 -4.50206 4.12488 0
M  V30 2240 H 214.993 -2.4838 5.16701 0
M  V30 2241 H 213.39 -1.89393 5.6943 0
M  V30 2242 H 214.46 -0.816023 4.77984 0
M  V30 2243 N 215.803 -1.52179 -0.40978 0
M  V30 2244 C 217.031 -1.70054 -1.17853 0
M  V30 2245 C 217.446 -0.409735 -1.843 0
M  V30 2246 O 216.803 0.614183 -1.71855 0
M  V30 2247 C 216.854 -2.83568 -2.24213 0
M  V30 2248 O 216.575 -4.0765 -1.60478 0
M  V30 2249 C 218.076 -3.12947 -3.13973 0
M  V30 2250 H 215.296 -0.569917 -0.354169 0
M  V30 2251 H 217.84 -1.98734 -0.482198 0
M  V30 2252 H 215.995 -2.57409 -2.89516 0
M  V30 2253 H 216.409 -4.70899 -2.30986 0
M  V30 2254 H 217.883 -3.95889 -3.84677 0
M  V30 2255 H 218.36 -2.26472 -3.76307 0
M  V30 2256 H 218.966 -3.40868 -2.5434 0
M  V30 2257 N 217.281 0.66697 -1.42791 0
M  V30 2258 C 218.692 1.2478 -1.38877 0
M  V30 2259 C 219.043 1.96012 -0.0859426 0
M  V30 2260 O 218.168 2.00463 0.815081 0
M  V30 2261 C 218.763 2.26938 -2.51564 0
M  V30 2262 C 217.322 2.80529 -2.50959 0
M  V30 2263 C 216.469 1.54965 -2.29959 0
M  V30 2264 H 219.42 0.459853 -1.51892 0
M  V30 2265 H 219.441 3.08834 -2.22265 0
M  V30 2266 H 218.953 1.75065 -3.46372 0
M  V30 2267 H 217.054 3.36502 -1.59991 0
M  V30 2268 H 217.167 3.29012 -3.48265 0
M  V30 2269 H 215.531 1.81817 -1.78366 0
M  V30 2270 H 216.314 1.05047 -3.26833 0
M  V30 2271 N 218.759 1.29093 0.90403 0
M  V30 2272 C 219.669 1.15727 2.0407 0
M  V30 2273 C 220.685 0.0815308 1.73809 0
M  V30 2274 O 221.861 0.292749 1.99261 0
M  V30 2275 C 218.926 0.830424 3.36608 0
M  V30 2276 C 217.987 1.98955 3.80415 0
M  V30 2277 C 217.22 1.6782 5.06628 0
M  V30 2278 O 217.443 0.597105 5.67266 0
M  V30 2279 O 216.377 2.52486 5.46383 0
M  V30 2280 H 220.203 2.11171 2.18267 0
M  V30 2281 H 217.788 1.08504 1.027 0
M  V30 2282 H 219.67 0.662521 4.16159 0
M  V30 2283 H 218.345 -0.0942678 3.23563 0
M  V30 2284 H 217.252 2.21267 3.01648 0
M  V30 2285 H 218.585 2.89529 3.98037 0
M  V30 2286 N 220.237 -1.11381 1.11499 0
M  V30 2287 C 221.514 -1.7955 0.775965 0
M  V30 2288 C 221.894 -1.97859 -0.73588 0
M  V30 2289 O 221.242 -1.56376 -1.66609 0
M  V30 2290 C 221.452 -3.13196 1.53977 0
M  V30 2291 C 222.8 -3.88227 1.71944 0
M  V30 2292 O 223.824 -3.22887 1.50407 0
M  V30 2293 O 222.683 -5.05477 2.07738 0
M  V30 2294 H 219.777 -0.777728 0.28119 0
M  V30 2295 H 222.323 -1.18118 1.21845 0
M  V30 2296 H 221.095 -2.95229 2.56818 0
M  V30 2297 H 220.718 -3.82342 1.09088 0
M  V30 2298 N 221.715 -0.905404 -1.28997 0
M  V30 2299 C 222.678 -0.392253 -2.25819 0
M  V30 2300 C 223.678 0.476753 -1.5357 0
M  V30 2301 O 224.868 0.280994 -1.71919 0
M  V30 2302 C 222 0.438588 -3.38067 0
M  V30 2303 H 223.193 -1.24743 -2.72725 0
M  V30 2304 H 220.746 -0.684051 -1.40536 0
M  V30 2305 H 221.481 1.31352 -2.96508 0
M  V30 2306 H 221.266 -0.184167 -3.91667 0
M  V30 2307 H 222.756 0.78873 -4.10084 0
M  V30 2308 N 223.193 1.4272 -0.668489 0
M  V30 2309 C 224.439 2.01923 -0.188419 0
M  V30 2310 C 224.772 1.52704 1.19979 0
M  V30 2311 O 224.047 0.726566 1.8042 0
M  V30 2312 C 224.33 3.59451 -0.216085 0
M  V30 2313 C 224.183 4.18864 -1.6393 0
M  V30 2314 C 225.502 4.37903 0.439179 0
M  V30 2315 H 222.621 0.733674 -0.0699412 0
M  V30 2316 H 225.263 1.69822 -0.852076 0
M  V30 2317 H 223.413 3.86929 0.349012 0
M  V30 2318 H 225.085 4.02362 -2.25616 0
M  V30 2319 H 223.328 3.74933 -2.18193 0
M  V30 2320 H 223.999 5.27987 -1.61039 0
M  V30 2321 H 226.475 4.16079 -0.0417878 0
M  V30 2322 H 225.351 5.47519 0.389157 0
M  V30 2323 H 225.612 4.15303 1.51577 0
M  V30 2324 N 224.671 0.411399 1.52136 0
M  V30 2325 C 225.601 -0.404015 2.29978 0
M  V30 2326 C 226.582 -1.04412 1.34284 0
M  V30 2327 O 227.767 -1.0527 1.63192 0
M  V30 2328 C 224.897 -1.5197 3.12286 0
M  V30 2329 C 223.851 -1.00448 4.16046 0
M  V30 2330 C 223.177 -2.21393 4.86712 0
M  V30 2331 C 224.477 -0.0569336 5.22269 0
M  V30 2332 H 226.171 0.245529 2.98392 0
M  V30 2333 H 223.717 0.119525 1.43503 0
M  V30 2334 H 225.67 -2.09715 3.6551 0
M  V30 2335 H 224.394 -2.19716 2.41646 0
M  V30 2336 H 223.053 -0.449421 3.63835 0
M  V30 2337 H 222.701 -2.87699 4.12599 0
M  V30 2338 H 222.401 -1.87571 5.56858 0
M  V30 2339 H 223.925 -2.7974 5.4275 0
M  V30 2340 H 225.339 -0.54325 5.7072 0
M  V30 2341 H 223.736 0.192594 5.99791 0
M  V30 2342 H 224.806 0.887663 4.76706 0
M  V30 2343 N 226.149 -1.5696 0.141893 0
M  V30 2344 C 227.374 -2.00754 -0.520838 0
M  V30 2345 C 227.799 -1.0213 -1.57959 0
M  V30 2346 O 227.157 0.00371324 -1.813 0
M  V30 2347 C 227.205 -3.43318 -1.10294 0
M  V30 2348 O 226.309 -3.47679 -2.21795 0
M  V30 2349 H 225.65 -0.651564 -0.127908 0
M  V30 2350 H 228.18 -2.03221 0.23712 0
M  V30 2351 H 228.19 -3.82012 -1.43287 0
M  V30 2352 H 226.865 -4.14608 -0.327574 0
M  V30 2353 H 225.442 -3.20824 -1.9007 0
M  V30 2354 N 227.627 0.131896 -1.57047 0
M  V30 2355 C 228.904 0.871495 -1.75112 0
M  V30 2356 C 229.284 1.9866 -0.713949 0
M  V30 2357 O 228.632 2.26965 0.264447 0
M  V30 2358 C 228.842 1.40007 -3.19686 0
M  V30 2359 C 230.19 1.85752 -3.81813 0
M  V30 2360 O 231.214 1.49715 -3.23209 0
M  V30 2361 O 230.073 2.5226 -4.84796 0
M  V30 2362 H 227.167 0.412919 -0.716538 0
M  V30 2363 H 229.713 0.116641 -1.69299 0
M  V30 2364 H 228.485 0.599404 -3.86682 0
M  V30 2365 H 228.108 2.218 -3.29986 0
M  V30 2366 N 229.106 1.52395 0.401703 0
M  V30 2367 C 230.016 1.7917 1.51444 0
M  V30 2368 C 231.032 0.677691 1.6026 0
M  V30 2369 O 232.208 0.963909 1.76835 0
M  V30 2370 C 229.273 1.94347 2.87107 0
M  V30 2371 C 228.334 3.18257 2.88116 0
M  V30 2372 C 227.567 3.32701 4.17308 0
M  V30 2373 O 227.79 2.52238 5.11598 0
M  V30 2374 O 226.724 4.25891 4.25324 0
M  V30 2375 H 230.55 2.73633 1.31752 0
M  V30 2376 H 228.135 1.3733 0.588296 0
M  V30 2377 H 230.017 2.06109 3.67555 0
M  V30 2378 H 228.692 1.03073 3.06851 0
M  V30 2379 H 227.599 3.11947 2.06494 0
M  V30 2380 H 228.932 4.09336 2.73322 0
M  V30 2381 N 230.584 -0.659388 1.43143 0
M  V30 2382 C 231.514 -1.78422 1.50625 0
M  V30 2383 C 232.495 -1.66216 0.361443 0
M  V30 2384 O 233.68 -1.85404 0.577834 0
M  V30 2385 C 230.81 -3.16815 1.42287 0
M  V30 2386 C 229.764 -3.43777 2.54954 0
M  V30 2387 C 229.09 -4.81905 2.31671 0
M  V30 2388 C 230.39 -3.39134 3.97222 0
M  V30 2389 H 232.084 -1.72417 2.44771 0
M  V30 2390 H 229.63 -0.828084 1.17808 0
M  V30 2391 H 231.583 -3.95253 1.46127 0
M  V30 2392 H 230.307 -3.23534 0.446435 0
M  V30 2393 H 228.966 -2.67707 2.50457 0
M  V30 2394 H 228.614 -4.85294 1.32284 0
M  V30 2395 H 228.314 -5.00906 3.07192 0
M  V30 2396 H 229.838 -5.62609 2.37284 0
M  V30 2397 H 231.252 -4.07518 4.03239 0
M  V30 2398 H 229.649 -3.69671 4.72719 0
M  V30 2399 H 230.719 -2.37426 4.22797 0
M  V30 2400 N 232.062 -1.29571 -0.897171 0
M  V30 2401 C 233.01 -1.14802 -2.02295 0
M  V30 2402 C 234.004 -0.0629637 -1.69283 0
M  V30 2403 O 235.21 -0.222945 -1.78614 0
M  V30 2404 H 231.585 -0.354692 -0.663097 0
M  V30 2405 H 233.556 -2.10108 -2.11889 0
M  V30 2406 C 232.305 -0.843966 -3.37302 0
M  V30 2407 H 231.628 -1.67093 -3.63208 0
M  V30 2408 H 233.068 -0.780672 -4.16751 0
M  V30 2409 C 231.527 0.452843 -3.33843 0
M  V30 2410 O 232.057 1.47813 -3.73516 0
M  V30 2411 N 230.263 0.459601 -2.86943 0
M  V30 2412 H 229.81 -0.375213 -2.54853 0
M  V30 2413 H 229.768 1.32726 -2.85011 0
M  V30 2414 N 233.54 1.10788 -1.12088 0
M  V30 2415 C 234.49 2.15158 -0.754401 0
M  V30 2416 C 235.474 1.59026 0.244846 0
M  V30 2417 O 236.666 1.76927 0.0509097 0
M  V30 2418 C 233.795 3.42677 -0.206657 0
M  V30 2419 C 232.881 4.05751 -1.23398 0
M  V30 2420 N 233.272 4.43582 -2.43041 0
M  V30 2421 C 231.57 4.32764 -1.07848 0
M  V30 2422 C 232.271 4.93085 -3.08613 0
M  V30 2423 N 231.247 4.89664 -2.36072 0
M  V30 2424 H 235.049 2.42195 -1.6649 0
M  V30 2425 H 232.563 1.27872 -1.00112 0
M  V30 2426 H 234.56 4.16834 0.0740646 0
M  V30 2427 H 233.22 3.17101 0.698342 0
M  V30 2428 H 234.231 4.35395 -2.80449 0
M  V30 2429 H 230.908 4.16863 -0.230483 0
M  V30 2430 H 232.298 5.31933 -4.10483 0
M  V30 2431 N 235.018 0.912232 1.28515 0
M  V30 2432 C 235.981 0.404223 2.25607 0
M  V30 2433 C 236.981 -0.468602 1.53821 0
M  V30 2434 O 238.171 -0.271873 1.72065 0
M  V30 2435 C 235.303 -0.420653 3.38295 0
M  V30 2436 H 236.496 1.26188 2.7206 0
M  V30 2437 H 234.049 0.691495 1.40171 0
M  V30 2438 H 234.784 -1.29777 2.97201 0
M  V30 2439 H 234.569 0.204935 3.91564 0
M  V30 2440 H 236.059 -0.766971 4.10496 0
M  V30 2441 N 236.496 -1.42363 0.676048 0
M  V30 2442 C 237.721 -2.06377 0.205705 0
M  V30 2443 C 238.146 -1.50463 -1.12883 0
M  V30 2444 O 237.504 -0.623619 -1.70237 0
M  V30 2445 C 237.552 -3.60277 0.152655 0
M  V30 2446 O 236.656 -4.02935 -0.87845 0
M  V30 2447 H 235.997 -0.655588 0.105359 0
M  V30 2448 H 238.527 -1.82475 0.925412 0
M  V30 2449 H 238.537 -4.07993 -0.0230675 0
M  V30 2450 H 237.212 -4.00346 1.12675 0
M  V30 2451 H 235.789 -3.66764 -0.673668 0
M  V30 2452 N 237.974 -0.419461 -1.51915 0
M  V30 2453 C 239.223 0.154346 -2.01109 0
M  V30 2454 C 239.536 1.45338 -1.30905 0
M  V30 2455 O 240.742 2.10906 -1.7097 0
M  V30 2456 C 239.198 0.325615 -3.58424 0
M  V30 2457 C 238.806 -0.961934 -4.37551 0
M  V30 2458 C 240.55 0.854155 -4.15818 0
M  V30 2459 C 238.457 -0.757287 -5.86531 0
M  V30 2460 H 237.387 0.0614563 -0.751491 0
M  V30 2461 H 240.038 -0.54649 -1.75173 0
M  V30 2462 H 238.42 1.08903 -3.80731 0
M  V30 2463 H 239.594 -1.7323 -4.26999 0
M  V30 2464 H 237.909 -1.41766 -3.91524 0
M  V30 2465 H 240.506 1.02346 -5.24814 0
M  V30 2466 H 240.849 1.83172 -3.73837 0
M  V30 2467 H 241.382 0.149528 -3.97519 0
M  V30 2468 H 238.121 -1.70671 -6.32892 0
M  V30 2469 H 237.641 -0.0264061 -5.99794 0
M  V30 2470 H 239.32 -0.403482 -6.45741 0
M  V30 2471 N 239.452 1.56882 -0.150215 0
M  V30 2472 C 240.701 1.95403 0.500071 0
M  V30 2473 C 241.014 1.03777 1.658 0
M  V30 2474 O 242.22 1.31889 2.37313 0
M  V30 2475 C 240.676 3.4738 0.941018 0
M  V30 2476 C 240.284 4.47596 -0.190158 0
M  V30 2477 C 242.028 3.9476 1.56091 0
M  V30 2478 C 239.935 5.90787 0.269237 0
M  V30 2479 H 238.865 0.729515 0.190588 0
M  V30 2480 H 241.516 1.81988 -0.235074 0
M  V30 2481 H 239.898 3.56138 1.73152 0
M  V30 2482 H 241.072 4.50536 -0.967157 0
M  V30 2483 H 239.387 4.10151 -0.718666 0
M  V30 2484 H 241.984 4.99181 1.9163 0
M  V30 2485 H 242.327 3.36494 2.45107 0
M  V30 2486 H 242.86 3.88932 0.835249 0
M  V30 2487 H 239.599 6.52879 -0.585621 0
M  V30 2488 H 239.119 5.912 1.01204 0
M  V30 2489 H 240.798 6.42979 0.720176 0
M  V30 2490 N 240.93 -0.123565 1.57115 0
M  V30 2491 C 242.207 -0.862196 1.75572 0
M  V30 2492 C 242.587 -1.98279 0.724475 0
M  V30 2493 O 241.935 -2.27102 -0.252407 0
M  V30 2494 C 242.145 -1.38309 3.20424 0
M  V30 2495 C 243.493 -1.83724 3.82793 0
M  V30 2496 O 244.517 -1.47999 3.23998 0
M  V30 2497 O 243.376 -2.49685 4.86127 0
M  V30 2498 H 240.47 -0.409113 0.718718 0
M  V30 2499 H 243.016 -0.107661 1.69358 0
M  V30 2500 H 241.788 -0.578889 3.86994 0
M  V30 2501 H 241.411 -2.20046 3.31158 0
M  V30 2502 N 242.408 -1.52605 -0.393616 0
M  V30 2503 C 243.656 -1.67093 -1.13685 0
M  V30 2504 C 243.977 -0.411011 -1.90619 0
M  V30 2505 O 243.247 0.574491 -1.87287 0
M  V30 2506 H 241.827 -0.615923 -0.422668 0
M  V30 2507 H 244.489 -1.89704 -0.447039 0
M  V30 2508 H 243.585 -2.51922 -1.84232 0
M  V30 2509 N 243.887 0.651787 -1.4349 0
M  V30 2510 C 245.136 1.40754 -1.44469 0
M  V30 2511 C 245.449 1.95463 -0.0731845 0
M  V30 2512 O 246.655 2.71471 0.0395721 0
M  V30 2513 C 245.111 2.54735 -2.5424 0
M  V30 2514 C 244.719 2.06628 -3.97504 0
M  V30 2515 C 246.463 3.32092 -2.64414 0
M  V30 2516 C 244.37 3.17829 -4.98737 0
M  V30 2517 H 243.3 0.528862 -0.53742 0
M  V30 2518 H 245.951 0.703365 -1.69485 0
M  V30 2519 H 244.333 3.2763 -2.22428 0
M  V30 2520 H 245.507 1.40734 -4.38783 0
M  V30 2521 H 243.822 1.42146 -3.91387 0
M  V30 2522 H 246.419 4.14952 -3.37223 0
M  V30 2523 H 246.762 3.80217 -1.69532 0
M  V30 2524 H 247.295 2.66279 -2.95534 0
M  V30 2525 H 244.034 2.74671 -5.95177 0
M  V30 2526 H 243.554 3.82429 -4.62069 0
M  V30 2527 H 245.233 3.82937 -5.21505 0
M  V30 2528 N 245.365 1.30045 0.890287 0
M  V30 2529 C 246.781 1.08261 1.17268 0
M  V30 2530 C 246.981 -0.160063 2.00863 0
M  V30 2531 O 246.037 -0.855181 2.37577 0
M  V30 2532 C 247.35 2.34323 1.8845 0
M  V30 2533 C 248.898 2.39735 2.01237 0
M  V30 2534 C 249.373 3.65625 2.7583 0
M  V30 2535 N 250.864 3.66402 2.83379 0
M  V30 2536 C 251.599 4.60498 3.41657 0
M  V30 2537 N 251.095 5.64933 4.01026 0
M  V30 2538 N 252.888 4.48051 3.39421 0
M  V30 2539 H 245.039 2.09777 0.332762 0
M  V30 2540 H 247.302 0.92446 0.209948 0
M  V30 2541 H 247.008 3.2498 1.34465 0
M  V30 2542 H 246.882 2.4256 2.88867 0
M  V30 2543 H 249.269 1.4956 2.54393 0
M  V30 2544 H 249.35 2.35476 0.999232 0
M  V30 2545 H 248.994 4.56156 2.23347 0
M  V30 2546 H 248.924 3.67144 3.77509 0
M  V30 2547 H 251.415 2.90896 2.41222 0
M  V30 2548 H 251.728 6.32841 4.43545 0
M  V30 2549 H 250.073 5.68732 3.99461 0
M  V30 2550 H 253.264 3.65649 2.92264 0
M  V30 2551 H 253.437 5.21565 3.84544 0
M  V30 2552 N 246.843 -1.10192 1.12674 0
M  V30 2553 C 247.773 -2.18652 0.819362 0
M  V30 2554 C 248.754 -1.68698 -0.217915 0
M  V30 2555 O 249.939 -1.94041 -0.0785581 0
M  V30 2556 C 247.069 -3.46202 0.27594 0
M  V30 2557 C 246.023 -4.09444 1.24656 0
M  V30 2558 C 245.349 -5.31725 0.563258 0
M  V30 2559 C 246.649 -4.52863 2.60217 0
M  V30 2560 H 248.343 -2.44622 1.72628 0
M  V30 2561 H 245.889 -1.17571 0.831451 0
M  V30 2562 H 247.842 -4.21372 0.0486149 0
M  V30 2563 H 246.566 -3.1973 -0.666331 0
M  V30 2564 H 245.225 -3.36284 1.45974 0
M  V30 2565 H 244.873 -5.0153 -0.384235 0
M  V30 2566 H 244.573 -5.74991 1.21075 0
M  V30 2567 H 246.097 -6.09624 0.34503 0
M  V30 2568 H 247.511 -5.19294 2.42913 0
M  V30 2569 H 245.908 -5.06986 3.21068 0
M  V30 2570 H 246.978 -3.65656 3.18471 0
M  V30 2571 N 248.321 -0.919034 -1.28029 0
M  V30 2572 C 249.561 -0.562107 -1.96519 0
M  V30 2573 C 249.925 0.878784 -1.70708 0
M  V30 2574 O 251.126 1.34355 -2.32813 0
M  V30 2575 C 249.397 -0.868953 -3.46676 0
M  V30 2576 S 250.956 -0.619237 -4.34409 0
M  V30 2577 H 247.774 -0.2078 -0.679956 0
M  V30 2578 H 250.376 -1.18562 -1.55446 0
M  V30 2579 H 249.08 -1.91547 -3.62957 0
M  V30 2580 H 248.611 -0.234301 -3.92702 0
M  V30 2581 H 250.626 0.526995 -4.93394 0
M  V30 2582 N 249.799 1.42003 -0.683588 0
M  V30 2583 C 250.746 2.30798 -0.0107309 0
M  V30 2584 C 251.716 1.4645 0.783688 0
M  V30 2585 O 252.901 1.75263 0.754156 0
M  V30 2586 C 250.041 3.3238 0.928306 0
M  V30 2587 C 249.154 4.31814 0.126776 0
M  V30 2588 C 248.289 5.20468 1.06236 0
M  V30 2589 C 247.328 6.11577 0.253035 0
M  V30 2590 N 246.465 6.92754 1.14179 0
M  V30 2591 H 251.305 2.8778 -0.773727 0
M  V30 2592 H 248.842 1.41745 -0.393283 0
M  V30 2593 H 250.8 3.89813 1.48666 0
M  V30 2594 H 249.43 2.76976 1.65783 0
M  V30 2595 H 248.482 3.76427 -0.54833 0
M  V30 2596 H 249.794 4.96276 -0.501192 0
M  V30 2597 H 248.948 5.82677 1.69035 0
M  V30 2598 H 247.687 4.56204 1.7242 0
M  V30 2599 H 246.692 5.48428 -0.388108 0
M  V30 2600 H 247.917 6.77892 -0.404839 0
M  V30 2601 H 245.863 6.3111 1.78987 0
M  V30 2602 H 245.78 7.53855 0.569111 0
M  V30 2603 H 247.048 7.59441 1.75697 0
M  V30 2604 N 251.277 0.427512 1.51691 0
M  V30 2605 C 252.24 -0.377132 2.26076 0
M  V30 2606 C 253.24 -0.958089 1.29141 0
M  V30 2607 O 254.43 -0.83408 1.52934 0
M  V30 2608 C 251.562 -1.53262 3.04506 0
M  V30 2609 H 252.755 0.27464 2.9864 0
M  V30 2610 H 250.308 0.180445 1.55255 0
M  V30 2611 H 251.043 -2.22072 2.36335 0
M  V30 2612 H 250.828 -1.12232 3.75694 0
M  V30 2613 H 252.318 -2.10135 3.60878 0
M  V30 2614 N 252.755 -1.56801 0.158532 0
M  V30 2615 C 253.705 -2.13923 -0.788738 0
M  V30 2616 C 254.689 -1.07006 -1.2016 0
M  V30 2617 O 255.881 -1.33159 -1.1661 0
M  V30 2618 C 253.01 -2.77348 -2.02319 0
M  V30 2619 C 252.096 -3.91404 -1.6329 0
M  V30 2620 N 252.487 -4.9677 -0.951463 0
M  V30 2621 C 250.785 -4.02326 -1.92482 0
M  V30 2622 C 251.486 -5.76698 -0.761221 0
M  V30 2623 N 250.462 -5.27859 -1.29869 0
M  V30 2624 H 254.264 -2.92757 -0.258995 0
M  V30 2625 H 251.778 -1.62344 -0.0426055 0
M  V30 2626 H 253.775 -3.16639 -2.71192 0
M  V30 2627 H 252.435 -1.99991 -2.558 0
M  V30 2628 H 253.446 -5.14284 -0.610928 0
M  V30 2629 H 250.123 -3.36059 -2.47732 0
M  V30 2630 H 251.513 -6.71529 -0.223284 0
M  V30 2631 N 254.233 0.115231 -1.57178 0
M  V30 2632 C 255.18 1.14115 -2.00615 0
M  V30 2633 C 256.15 1.40939 -0.878941 0
M  V30 2634 O 257.335 1.52741 -1.14345 0
M  V30 2635 C 254.475 2.46156 -2.4187 0
M  V30 2636 C 253.588 2.26236 -3.68024 0
M  V30 2637 C 252.723 3.51534 -3.98243 0
M  V30 2638 C 251.762 3.26787 -5.17568 0
M  V30 2639 N 250.899 4.44298 -5.43639 0
M  V30 2640 H 255.739 0.763743 -2.88047 0
M  V30 2641 H 253.276 0.365615 -1.42484 0
M  V30 2642 H 255.234 3.23189 -2.63827 0
M  V30 2643 H 253.864 2.81783 -1.57475 0
M  V30 2644 H 252.916 1.40102 -3.5366 0
M  V30 2645 H 254.228 2.03929 -4.55208 0
M  V30 2646 H 253.382 4.36984 -4.20868 0
M  V30 2647 H 252.121 3.76876 -3.09541 0
M  V30 2648 H 251.126 2.39729 -4.94783 0
M  V30 2649 H 252.351 3.02812 -6.0785 0
M  V30 2650 H 250.297 4.69754 -4.57895 0
M  V30 2651 H 250.214 4.25109 -6.25154 0
M  V30 2652 H 251.482 5.3087 -5.70786 0
M  V30 2653 N 255.711 1.52812 0.385517 0
M  V30 2654 C 256.941 1.71658 1.14966 0
M  V30 2655 C 257.349 0.436253 1.84102 0
M  V30 2656 O 256.692 -0.599313 1.73649 0
M  V30 2657 C 256.754 2.81309 2.23843 0
M  V30 2658 C 256.418 4.22313 1.74644 0
M  V30 2659 C 257.415 5.05352 1.22129 0
M  V30 2660 C 255.1 4.68648 1.80761 0
M  V30 2661 C 257.094 6.32807 0.763838 0
M  V30 2662 C 254.781 5.96086 1.34627 0
M  V30 2663 C 255.779 6.77996 0.825264 0
M  V30 2664 O 255.467 8.03045 0.370669 0
M  V30 2665 H 255.199 0.578022 0.350523 0
M  V30 2666 H 257.753 2.00263 0.456509 0
M  V30 2667 H 255.983 2.48133 2.96592 0
M  V30 2668 H 257.672 2.88524 2.85497 0
M  V30 2669 H 258.438 4.70736 1.16758 0
M  V30 2670 H 254.317 4.04979 2.20256 0
M  V30 2671 H 257.861 6.96689 0.356494 0
M  V30 2672 H 253.758 6.30205 1.39686 0
M  V30 2673 H 254.526 8.17021 0.491829 0
M  V30 2674 N 257.189 -0.644168 1.43834 0
M  V30 2675 C 258.605 -0.960875 1.27434 0
M  V30 2676 C 258.805 -2.00499 0.200618 0
M  V30 2677 O 257.861 -2.49018 -0.417906 0
M  V30 2678 C 259.174 -1.43653 2.64167 0
M  V30 2679 C 260.722 -1.55271 2.71772 0
M  V30 2680 C 261.197 -2.06224 4.08944 0
M  V30 2681 N 262.688 -2.13513 4.11055 0
M  V30 2682 C 263.423 -2.54081 5.14033 0
M  V30 2683 N 262.919 -2.9388 6.27381 0
M  V30 2684 N 264.712 -2.54101 5.01387 0
M  V30 2685 H 256.863 0.0465779 2.12349 0
M  V30 2686 H 259.126 -0.0417638 0.94708 0
M  V30 2687 H 258.832 -0.743706 3.43747 0
M  V30 2688 H 258.706 -2.40993 2.90176 0
M  V30 2689 H 261.093 -2.23653 1.92519 0
M  V30 2690 H 261.174 -0.563395 2.49519 0
M  V30 2691 H 260.818 -1.38441 4.88668 0
M  V30 2692 H 260.748 -3.06003 4.28567 0
M  V30 2693 H 263.239 -1.85493 3.29242 0
M  V30 2694 H 263.552 -3.2361 7.01781 0
M  V30 2695 H 261.897 -2.91663 6.30839 0
M  V30 2696 H 265.088 -2.22391 4.11898 0
M  V30 2697 H 265.261 -2.85394 5.81768 0
M  V30 2698 N 258.668 -1.30515 -0.883378 0
M  V30 2699 C 259.898 -1.22182 -1.66599 0
M  V30 2700 C 260.306 0.217507 -1.87946 0
M  V30 2701 O 259.649 1.1554 -1.42815 0
M  V30 2702 C 259.711 -1.88146 -3.06335 0
M  V30 2703 C 259.375 -3.37476 -3.08154 0
M  V30 2704 C 260.372 -4.33443 -2.87094 0
M  V30 2705 C 258.057 -3.7895 -3.29701 0
M  V30 2706 C 260.051 -5.68858 -2.8754 0
M  V30 2707 C 257.738 -5.14482 -3.29776 0
M  V30 2708 C 258.736 -6.09246 -3.0872 0
M  V30 2709 O 258.424 -7.42302 -3.08615 0
M  V30 2710 H 258.156 -0.423898 -0.52658 0
M  V30 2711 H 260.71 -1.72703 -1.11188 0
M  V30 2712 H 258.94 -1.32157 -3.63416 0
M  V30 2713 H 260.629 -1.7391 -3.66756 0
M  V30 2714 H 261.395 -4.02733 -2.70243 0
M  V30 2715 H 257.274 -3.05631 -3.45124 0
M  V30 2716 H 260.818 -6.428 -2.71024 0
M  V30 2717 H 256.715 -5.44832 -3.46163 0
M  V30 2718 H 257.483 -7.5131 -3.24769 0
M  V30 2719 N 260.146 1.09593 -1.13257 0
M  V30 2720 C 261.562 1.33775 -0.870423 0
M  V30 2721 C 261.762 1.95327 0.494926 0
M  V30 2722 O 260.818 2.19853 1.2418 0
M  V30 2723 C 262.131 2.25106 -1.99369 0
M  V30 2724 C 263.679 2.3862 -2.02558 0
M  V30 2725 C 264.154 3.33285 -3.14142 0
M  V30 2726 N 265.645 3.40857 -3.13641 0
M  V30 2727 C 266.38 4.14101 -3.96621 0
M  V30 2728 N 265.876 4.90157 -4.8961 0
M  V30 2729 N 267.669 4.09808 -3.84726 0
M  V30 2730 H 259.82 0.680136 -2.01216 0
M  V30 2731 H 262.083 0.362133 -0.876107 0
M  V30 2732 H 261.789 1.87103 -2.97801 0
M  V30 2733 H 261.663 3.25481 -1.90635 0
M  V30 2734 H 264.05 2.75887 -1.0474 0
M  V30 2735 H 264.131 1.38028 -2.15364 0
M  V30 2736 H 263.775 2.96741 -4.12198 0
M  V30 2737 H 263.705 4.33776 -2.98574 0
M  V30 2738 H 266.196 2.86624 -2.46282 0
M  V30 2739 H 266.509 5.4347 -5.49418 0
M  V30 2740 H 264.854 4.89251 -4.93617 0
M  V30 2741 H 268.045 3.4949 -3.11408 0
M  V30 2742 H 268.218 4.66629 -4.49623 0
M  V30 2743 N 261.624 0.925811 1.2754 0
M  V30 2744 C 262.574 0.394488 2.24561 0
M  V30 2745 C 263.558 -0.500183 1.52928 0
M  V30 2746 O 264.75 -0.337936 1.73744 0
M  V30 2747 C 261.879 -0.353328 3.41477 0
M  V30 2748 C 260.965 0.557752 4.20416 0
M  V30 2749 N 261.356 1.67674 4.77199 0
M  V30 2750 C 259.654 0.360404 4.44541 0
M  V30 2751 C 260.355 2.24324 5.36706 0
M  V30 2752 N 259.331 1.53305 5.21535 0
M  V30 2753 H 263.133 1.2489 2.66045 0
M  V30 2754 H 260.647 0.779864 1.4245 0
M  V30 2755 H 262.644 -0.7509 4.10082 0
M  V30 2756 H 261.304 -1.20469 3.01525 0
M  V30 2757 H 262.315 2.05915 4.75204 0
M  V30 2758 H 258.992 -0.450454 4.15063 0
M  V30 2759 H 260.382 3.18521 5.91603 0
M  V30 2760 N 263.102 -1.41638 0.69111 0
M  V30 2761 C 264.032 -2.3347 0.037248 0
M  V30 2762 C 265.013 -1.51575 -0.771947 0
M  V30 2763 O 266.198 -1.80126 -0.72582 0
M  V30 2764 C 263.328 -3.35354 -0.903064 0
M  V30 2765 C 262.282 -4.27526 -0.201288 0
M  V30 2766 C 261.608 -5.19747 -1.25565 0
M  V30 2767 C 262.908 -5.13959 0.929689 0
M  V30 2768 H 264.602 -2.88397 0.804227 0
M  V30 2769 H 262.148 -1.38669 0.388189 0
M  V30 2770 H 264.101 -3.98519 -1.36969 0
M  V30 2771 H 262.825 -2.78767 -1.70166 0
M  V30 2772 H 261.484 -3.65779 0.245265 0
M  V30 2773 H 261.132 -4.59479 -2.04666 0
M  V30 2774 H 260.832 -5.8225 -0.791128 0
M  V30 2775 H 262.356 -5.85789 -1.72288 0
M  V30 2776 H 263.77 -5.70718 0.543546 0
M  V30 2777 H 262.167 -5.85379 1.32103 0
M  V30 2778 H 263.237 -4.51389 1.77133 0
M  V30 2779 N 264.58 -0.43555 -1.51462 0
M  V30 2780 C 265.857 0.191364 -1.94662 0
M  V30 2781 C 266.237 1.60254 -1.37411 0
M  V30 2782 O 265.585 2.2152 -0.560458 0
M  V30 2783 C 265.795 0.17091 -3.48581 0
M  V30 2784 C 267.143 0.377357 -4.2292 0
M  V30 2785 O 268.167 0.249104 -3.55328 0
M  V30 2786 O 267.026 0.63247 -5.42828 0
M  V30 2787 H 264.12 0.130932 -0.816569 0
M  V30 2788 H 266.666 -0.4934 -1.62369 0
M  V30 2789 H 265.438 -0.815738 -3.82703 0
M  V30 2790 H 265.061 0.898659 -3.87311 0
M  V30 2791 N 266.058 1.56714 -0.166846 0
M  V30 2792 C 266.991 2.13577 0.80375 0
M  V30 2793 C 267.969 1.06464 1.22899 0
M  V30 2794 O 269.153 1.34413 1.32157 0
M  V30 2795 C 266.28 2.67168 2.0818 0
M  V30 2796 C 265.326 3.86612 1.80093 0
M  V30 2797 S 266.159 5.26565 0.97416 0
M  V30 2798 C 267.315 5.83558 2.26297 0
M  V30 2799 H 267.548 2.9557 0.320267 0
M  V30 2800 H 265.081 1.54326 0.0477555 0
M  V30 2801 H 267.039 2.98692 2.8159 0
M  V30 2802 H 265.7 1.85269 2.53642 0
M  V30 2803 H 264.893 4.22422 2.7491 0
M  V30 2804 H 264.495 3.55951 1.14781 0
M  V30 2805 H 266.787 5.962 3.21795 0
M  V30 2806 H 267.73 6.80731 1.94962 0
M  V30 2807 H 268.138 5.11944 2.37853 0
M  V30 2808 N 267.536 -0.106894 1.57237 0
M  V30 2809 C 268.499 -1.11466 2.0027 0
M  V30 2810 C 269.499 -1.33623 0.894519 0
M  V30 2811 O 270.689 -1.29935 1.16028 0
M  V30 2812 C 267.821 -2.46646 2.35327 0
M  V30 2813 H 269.014 -0.744516 2.90512 0
M  V30 2814 H 266.567 -0.351576 1.52295 0
M  V30 2815 H 267.302 -2.88558 1.48003 0
M  V30 2816 H 267.087 -2.31915 3.16161 0
M  V30 2817 H 268.577 -3.19151 2.69318 0
M  V30 2818 N 269.014 -1.53014 -0.377408 0
M  V30 2819 C 270.291 -1.59215 -1.13622 0
M  V30 2820 C 270.671 -0.392407 -2.07421 0
M  V30 2821 O 270.019 0.618342 -2.19975 0
M  V30 2822 C 270.229 -2.93669 -1.88573 0
M  V30 2823 C 271.577 -3.47822 -2.43526 0
M  V30 2824 O 272.601 -2.9562 -1.98715 0
M  V30 2825 O 271.46 -4.39055 -3.25412 0
M  V30 2826 H 268.554 -0.642625 -0.52054 0
M  V30 2827 H 271.1 -1.65353 -0.381625 0
M  V30 2828 H 269.872 -3.7243 -1.20048 0
M  V30 2829 H 269.495 -2.90968 -2.70968 0
M  V30 2830 N 270.492 0.636531 -1.44174 0
M  V30 2831 C 271.422 1.76003 -1.53444 0
M  V30 2832 C 272.403 1.65619 -0.387841 0
M  V30 2833 O 273.588 1.84461 -0.607257 0
M  V30 2834 C 270.718 3.14511 -1.4731 0
M  V30 2835 C 269.672 3.39677 -2.60391 0
M  V30 2836 C 268.998 4.78159 -2.39308 0
M  V30 2837 C 270.298 3.32772 -4.02567 0
M  V30 2838 H 271.992 1.68501 -2.47483 0
M  V30 2839 H 269.538 0.809237 -1.19111 0
M  V30 2840 H 271.491 3.92878 -1.52397 0
M  V30 2841 H 270.215 3.22783 -0.49785 0
M  V30 2842 H 268.874 2.63688 -2.54684 0
M  V30 2843 H 268.522 4.83128 -1.39988 0
M  V30 2844 H 268.222 4.95956 -3.15122 0
M  V30 2845 H 269.746 5.58762 -2.46205 0
M  V30 2846 H 271.16 4.01051 -4.09672 0
M  V30 2847 H 269.557 3.62104 -4.7854 0
M  V30 2848 H 270.627 2.30669 -4.2652 0
M  V30 2849 N 271.97 1.30982 0.876444 0
M  V30 2850 C 272.88 1.2003 2.01569 0
M  V30 2851 C 273.896 0.11838 1.73597 0
M  V30 2852 O 275.072 0.33495 1.98595 0
M  V30 2853 C 272.137 0.901637 3.34771 0
M  V30 2854 C 271.198 2.06979 3.76109 0
M  V30 2855 C 270.431 1.78529 5.02954 0
M  V30 2856 O 270.654 0.717296 5.65872 0
M  V30 2857 O 269.588 2.64019 5.40905 0
M  V30 2858 H 273.414 2.15753 2.13739 0
M  V30 2859 H 270.999 1.10658 1.00375 0
M  V30 2860 H 272.881 0.750645 4.1466 0
M  V30 2861 H 271.556 -0.0256141 3.2369 0
M  V30 2862 H 270.463 2.27616 2.96887 0
M  V30 2863 H 271.796 2.97907 3.91807 0
M  V30 2864 N 273.449 -1.08991 1.13837 0
M  V30 2865 C 274.412 -2.13925 0.822715 0
M  V30 2866 C 275.412 -1.599 -0.1699 0
M  V30 2867 O 276.602 -1.74104 0.0577251 0
M  V30 2868 C 273.734 -3.40155 0.225318 0
M  V30 2869 H 274.927 -2.43358 1.75262 0
M  V30 2870 H 272.48 -1.24603 0.943594 0
M  V30 2871 H 273.215 -3.16352 -0.713594 0
M  V30 2872 H 273 -3.80661 0.940193 0
M  V30 2873 H 274.49 -4.17594 0.0214784 0
M  V30 2874 N 274.927 -0.932562 -1.27047 0
M  V30 2875 C 275.874 -0.434072 -2.26681 0
M  V30 2876 C 276.844 0.501639 -1.58344 0
M  V30 2877 O 278.029 0.419734 -1.86126 0
M  V30 2878 C 275.169 0.30261 -3.43771 0
M  V30 2879 C 274.282 -0.667774 -4.26808 0
M  V30 2880 C 273.417 0.0892393 -5.31125 0
M  V30 2881 C 272.456 -0.873532 -6.05835 0
M  V30 2882 N 271.593 -0.148832 -7.01942 0
M  V30 2883 H 276.433 -1.28868 -2.68695 0
M  V30 2884 H 273.97 -0.646713 -1.32121 0
M  V30 2885 H 275.928 0.746092 -4.10474 0
M  V30 2886 H 274.558 1.12142 -3.02695 0
M  V30 2887 H 273.61 -1.22978 -3.59973 0
M  V30 2888 H 274.922 -1.40337 -4.78651 0
M  V30 2889 H 274.076 0.592409 -6.03801 0
M  V30 2890 H 272.815 0.85777 -4.80097 0
M  V30 2891 H 271.82 -1.38791 -5.31994 0
M  V30 2892 H 273.045 -1.64193 -6.58952 0
M  V30 2893 H 270.991 0.601365 -6.53238 0
M  V30 2894 H 270.908 -0.82391 -7.51497 0
M  V30 2895 H 272.176 0.333527 -7.78786 0
M  V30 2896 N 276.405 1.4127 -0.698611 0
M  V30 2897 C 277.335 2.33447 -0.049629 0
M  V30 2898 C 278.316 1.51982 0.763898 0
M  V30 2899 O 279.501 1.80509 0.716257 0
M  V30 2900 C 276.631 3.35828 0.885267 0
M  V30 2901 C 275.585 4.27627 0.178613 0
M  V30 2902 C 274.911 5.20406 1.22807 0
M  V30 2903 C 276.211 5.13459 -0.956933 0
M  V30 2904 H 277.905 2.87966 -0.81951 0
M  V30 2905 H 275.451 1.38461 -0.395538 0
M  V30 2906 H 277.404 3.9924 1.34854 0
M  V30 2907 H 276.128 2.79666 1.68685 0
M  V30 2908 H 274.787 3.65643 -0.26466 0
M  V30 2909 H 274.435 4.60558 2.02226 0
M  V30 2910 H 274.135 5.82661 0.760239 0
M  V30 2911 H 275.659 5.86695 1.69179 0
M  V30 2912 H 277.073 5.70421 -0.573805 0
M  V30 2913 H 275.47 5.8467 -1.35205 0
M  V30 2914 H 276.54 4.50443 -1.79524 0
M  V30 2915 N 277.883 0.443576 1.51229 0
M  V30 2916 C 278.815 -0.400608 2.25672 0
M  V30 2917 C 279.828 -0.980945 1.29928 0
M  V30 2918 O 281.017 -0.874024 1.55638 0
M  V30 2919 C 278.117 -1.57304 3.00181 0
M  V30 2920 C 277.29 -1.11046 4.23069 0
M  V30 2921 C 276.349 -2.15374 4.80105 0
M  V30 2922 O 275.375 -1.74554 5.41774 0
M  V30 2923 N 276.577 -3.47922 4.64683 0
M  V30 2924 H 279.342 0.23745 2.98758 0
M  V30 2925 H 276.903 0.272809 1.59585 0
M  V30 2926 H 278.895 -2.26733 3.35223 0
M  V30 2927 H 277.465 -2.11632 2.30066 0
M  V30 2928 H 276.685 -0.243019 3.9345 0
M  V30 2929 H 277.973 -0.778888 5.02803 0
M  V30 2930 H 277.371 -3.83815 4.15575 0
M  V30 2931 H 275.928 -4.13228 5.0407 0
M  V30 2932 N 279.361 -1.56624 0.175154 0
M  V30 2933 C 280.271 -2.21741 -0.766042 0
M  V30 2934 C 281.287 -1.21023 -1.25018 0
M  V30 2935 O 282.463 -1.53697 -1.3015 0
M  V30 2936 C 279.528 -2.84839 -1.97655 0
M  V30 2937 C 278.589 -4.00769 -1.53892 0
M  V30 2938 C 277.822 -4.60849 -2.69173 0
M  V30 2939 O 278.045 -4.19823 -3.86141 0
M  V30 2940 O 276.979 -5.50655 -2.43028 0
M  V30 2941 H 280.805 -3.02738 -0.241585 0
M  V30 2942 H 278.39 -1.49305 -0.053222 0
M  V30 2943 H 280.272 -3.24834 -2.68442 0
M  V30 2944 H 278.947 -2.06836 -2.48999 0
M  V30 2945 H 277.854 -3.65436 -0.80044 0
M  V30 2946 H 279.187 -4.80376 -1.07236 0
M  V30 2947 N 280.839 0.0985539 -1.57292 0
M  V30 2948 C 281.802 1.10402 -2.00858 0
M  V30 2949 C 282.802 1.33146 -0.901593 0
M  V30 2950 O 283.992 1.29318 -1.16716 0
M  V30 2951 C 281.124 2.45394 -2.36632 0
M  V30 2952 H 282.317 0.729099 -2.90902 0
M  V30 2953 H 279.87 0.343495 -1.52479 0
M  V30 2954 H 280.605 2.87769 -1.49531 0
M  V30 2955 H 280.39 2.30235 -3.17387 0
M  V30 2956 H 281.88 3.17718 -2.71007 0
M  V30 2957 N 282.317 1.53212 0.369288 0
M  V30 2958 C 283.249 1.75668 1.47219 0
M  V30 2959 C 284.262 0.637387 1.49804 0
M  V30 2960 O 285.451 0.913561 1.5335 0
M  V30 2961 C 282.551 1.81818 2.85999 0
M  V30 2962 C 281.724 3.11409 3.07153 0
M  V30 2963 C 280.783 3.08849 4.26026 0
M  V30 2964 O 279.809 3.82659 4.2138 0
M  V30 2965 N 281.011 2.29409 5.33246 0
M  V30 2966 H 283.776 2.70832 1.28337 0
M  V30 2967 H 281.337 1.51944 0.55898 0
M  V30 2968 H 283.329 1.77588 3.63655 0
M  V30 2969 H 281.899 0.939544 2.98146 0
M  V30 2970 H 281.119 3.28971 2.1719 0
M  V30 2971 H 282.407 3.97059 3.18154 0
M  V30 2972 H 281.805 1.68946 5.39883 0
M  V30 2973 H 280.362 2.31001 6.09493 0
M  V30 2974 N 283.795 -0.628877 1.44509 0
M  V30 2975 C 284.742 -1.74074 1.51549 0
M  V30 2976 C 285.712 -1.62084 0.363021 0
M  V30 2977 O 286.897 -1.81975 0.573567 0
M  V30 2978 C 284.037 -3.12328 1.46784 0
M  V30 2979 C 283.15 -3.35277 2.72422 0
M  V30 2980 C 282.285 -4.63515 2.59475 0
M  V30 2981 C 281.324 -4.7965 3.80266 0
M  V30 2982 N 280.461 -5.99168 3.65981 0
M  V30 2983 H 285.301 -1.67392 2.46544 0
M  V30 2984 H 282.838 -0.816527 1.22357 0
M  V30 2985 H 284.796 -3.92286 1.42012 0
M  V30 2986 H 283.426 -3.18018 0.553544 0
M  V30 2987 H 282.478 -2.49242 2.87372 0
M  V30 2988 H 283.79 -3.43078 3.62076 0
M  V30 2989 H 282.944 -5.51638 2.52548 0
M  V30 2990 H 281.683 -4.58076 1.67384 0
M  V30 2991 H 280.688 -3.89957 3.87574 0
M  V30 2992 H 281.913 -4.86902 4.73395 0
M  V30 2993 H 279.859 -5.94814 2.76644 0
M  V30 2994 H 279.776 -6.08035 4.49254 0
M  V30 2995 H 281.044 -6.89846 3.6295 0
M  V30 2996 N 285.273 -1.31445 -0.869486 0
M  V30 2997 C 286.223 -1.15731 -1.96444 0
M  V30 2998 C 287.207 -0.0681855 -1.60755 0
M  V30 2999 O 288.399 -0.293154 -1.74555 0
M  V30 3000 C 285.528 -0.867255 -3.32165 0
M  V30 3001 C 284.614 -1.99738 -3.74119 0
M  V30 3002 N 285.005 -3.24447 -3.88031 0
M  V30 3003 C 283.303 -1.89723 -4.03635 0
M  V30 3004 C 284.004 -3.98374 -4.23879 0
M  V30 3005 N 282.98 -3.26547 -4.3459 0
M  V30 3006 H 286.782 -2.10296 -2.05312 0
M  V30 3007 H 284.296 -1.23009 -1.06031 0
M  V30 3008 H 286.293 -0.735668 -4.10358 0
M  V30 3009 H 284.953 0.0701614 -3.24624 0
M  V30 3010 H 285.964 -3.59557 -3.72746 0
M  V30 3011 H 282.641 -1.03449 -4.04481 0
M  V30 3012 H 284.031 -5.05844 -4.42235 0
M  V30 3013 N 286.751 1.08385 -1.14413 0
M  V30 3014 C 288.167 1.32844 -0.884563 0
M  V30 3015 C 288.367 1.95841 0.474181 0
M  V30 3016 O 287.423 2.21158 1.21842 0
M  V30 3017 C 288.736 2.22978 -2.01745 0
M  V30 3018 C 290.284 2.36458 -2.05077 0
M  V30 3019 C 290.759 3.29934 -3.1766 0
M  V30 3020 N 292.25 3.37511 -3.17239 0
M  V30 3021 C 292.985 4.09871 -4.0099 0
M  V30 3022 N 292.481 4.84936 -4.94781 0
M  V30 3023 N 294.274 4.05704 -3.89051 0
M  V30 3024 H 286.425 0.658756 -2.01926 0
M  V30 3025 H 288.688 0.352821 -0.879899 0
M  V30 3026 H 288.394 1.83934 -2.99769 0
M  V30 3027 H 288.268 3.23441 -1.94077 0
M  V30 3028 H 290.655 2.7476 -1.0766 0
M  V30 3029 H 290.736 1.35736 -2.16816 0
M  V30 3030 H 290.38 2.92352 -4.15322 0
M  V30 3031 H 290.31 4.30584 -3.03158 0
M  V30 3032 H 292.801 2.83996 -2.49308 0
M  V30 3033 H 293.114 5.37612 -5.55151 0
M  V30 3034 H 291.459 4.83988 -4.98779 0
M  V30 3035 H 294.65 3.46167 -3.15097 0
M  V30 3036 H 294.823 4.61834 -4.54547 0
M  V30 3037 N 288.23 0.939286 1.26551 0
M  V30 3038 C 289.16 0.465044 2.28822 0
M  V30 3039 C 290.141 -0.480692 1.63167 0
M  V30 3040 O 291.326 -0.382955 1.90387 0
M  V30 3041 C 288.456 -0.27234 3.46231 0
M  V30 3042 C 287.41 0.58666 4.2396 0
M  V30 3043 C 286.736 -0.280573 5.33963 0
M  V30 3044 C 288.036 1.85704 4.88171 0
M  V30 3045 H 289.73 1.31979 2.68741 0
M  V30 3046 H 287.276 0.636061 1.29191 0
M  V30 3047 H 289.229 -0.615133 4.16886 0
M  V30 3048 H 287.953 -1.16121 3.0526 0
M  V30 3049 H 286.612 0.91232 3.55067 0
M  V30 3050 H 286.26 -1.16874 4.89234 0
M  V30 3051 H 285.96 0.29076 5.8688 0
M  V30 3052 H 287.484 -0.618678 6.07458 0
M  V30 3053 H 288.898 1.58161 5.51052 0
M  V30 3054 H 287.295 2.37279 5.51197 0
M  V30 3055 H 288.365 2.56957 4.11219 0
M  V30 3056 N 289.708 -1.40897 0.706093 0
M  V30 3057 C 291.124 -1.55042 0.37869 0
M  V30 3058 C 291.324 -1.67944 -1.11342 0
M  V30 3059 O 290.38 -1.66372 -1.89938 0
M  V30 3060 C 291.693 -2.78398 1.13643 0
M  V30 3061 C 293.241 -2.92206 1.12181 0
M  V30 3062 C 293.716 -4.18463 1.86152 0
M  V30 3063 N 295.207 -4.25443 1.83173 0
M  V30 3064 C 295.942 -5.2202 2.37239 0
M  V30 3065 N 295.438 -6.24563 2.99821 0
M  V30 3066 N 297.231 -5.14033 2.27435 0
M  V30 3067 H 289.382 -1.30769 1.67372 0
M  V30 3068 H 291.645 -0.631653 0.706907 0
M  V30 3069 H 291.351 -2.7511 2.19106 0
M  V30 3070 H 291.225 -3.70228 0.721853 0
M  V30 3071 H 293.612 -2.95004 0.0754171 0
M  V30 3072 H 293.693 -2.01521 1.57554 0
M  V30 3073 H 293.337 -4.16427 2.90776 0
M  V30 3074 H 293.267 -5.08141 1.38206 0
M  V30 3075 H 295.758 -3.51976 1.37556 0
M  V30 3076 H 296.071 -6.94665 3.38616 0
M  V30 3077 H 294.416 -6.25035 3.03902 0
M  V30 3078 H 297.607 -4.3285 1.78208 0
M  V30 3079 H 297.78 -5.89129 2.69873 0
M  V30 3080 N 291.186 -0.45159 -1.50991 0
M  V30 3081 C 292.116 0.342898 -2.30969 0
M  V30 3082 C 293.097 1.00815 -1.37005 0
M  V30 3083 O 294.282 1.00907 -1.65926 0
M  V30 3084 C 291.412 1.43637 -3.16205 0
M  V30 3085 C 290.366 0.893818 -4.18563 0
M  V30 3086 C 289.692 2.08411 -4.92411 0
M  V30 3087 C 290.992 -0.0815568 -5.22236 0
M  V30 3088 H 292.686 -0.324556 -2.97636 0
M  V30 3089 H 290.232 -0.157531 -1.43136 0
M  V30 3090 H 292.185 1.9995 -3.70942 0
M  V30 3091 H 290.909 2.13232 -2.47386 0
M  V30 3092 H 289.568 0.352798 -3.64898 0
M  V30 3093 H 289.216 2.76658 -4.20082 0
M  V30 3094 H 288.916 1.72741 -5.61636 0
M  V30 3095 H 290.44 2.65251 -5.49976 0
M  V30 3096 H 291.854 0.391742 -5.7196 0
M  V30 3097 H 290.251 -0.351551 -5.99069 0
M  V30 3098 H 291.321 -1.01374 -4.74185 0
M  V30 3099 N 292.664 1.56529 -0.183458 0
M  V30 3100 C 293.91 1.97537 0.459036 0
M  V30 3101 C 294.243 1.06989 1.62071 0
M  V30 3102 O 293.518 0.11948 1.94133 0
M  V30 3103 C 293.801 3.47874 0.930368 0
M  V30 3104 C 293.654 4.492 -0.232317 0
M  V30 3105 C 294.973 4.01612 1.79989 0
M  V30 3106 H 292.092 0.718204 0.165383 0
M  V30 3107 H 294.734 1.88042 -0.272038 0
M  V30 3108 H 292.884 3.56095 1.55333 0
M  V30 3109 H 294.556 4.53027 -0.86972 0
M  V30 3110 H 292.799 4.24657 -0.885928 0
M  V30 3111 H 293.47 5.51823 0.139796 0
M  V30 3112 H 295.946 3.96097 1.27461 0
M  V30 3113 H 294.822 5.07195 2.09867 0
M  V30 3114 H 295.083 3.46163 2.74998 0
M  V30 3115 N 294.142 -0.090211 1.57342 0
M  V30 3116 C 295.105 -1.09335 2.01441 0
M  V30 3117 C 296.105 -1.32666 0.908641 0
M  V30 3118 O 297.295 -1.28697 1.174 0
M  V30 3119 C 294.427 -2.44136 2.3793 0
M  V30 3120 H 295.62 -0.713662 2.91285 0
M  V30 3121 H 293.173 -0.335404 1.52659 0
M  V30 3122 H 293.908 -2.86972 1.51055 0
M  V30 3123 H 293.693 -2.28548 3.18603 0
M  V30 3124 H 295.183 -3.16277 2.72688 0
M  V30 3125 N 295.62 -1.53406 -0.361157 0
M  V30 3126 C 296.848 -1.73717 -1.12383 0
M  V30 3127 C 297.263 -0.468161 -1.82904 0
M  V30 3128 O 296.62 0.559198 -1.73722 0
M  V30 3129 C 296.671 -2.90558 -2.15078 0
M  V30 3130 O 296.392 -4.12549 -1.47428 0
M  V30 3131 C 297.893 -3.22777 -3.03858 0
M  V30 3132 H 295.113 -0.580896 -0.335858 0
M  V30 3133 H 297.657 -2.00167 -0.418728 0
M  V30 3134 H 295.812 -2.66489 -2.8118 0
M  V30 3135 H 296.226 -4.78009 -2.15887 0
M  V30 3136 H 297.7 -4.07927 -3.71887 0
M  V30 3137 H 298.177 -2.38329 -3.68912 0
M  V30 3138 H 298.783 -3.48787 -2.43367 0
M  V30 3139 N 297.098 0.621204 -1.44841 0
M  V30 3140 C 298.375 1.38 -1.38619 0
M  V30 3141 C 298.755 2.11041 -0.0498935 0
M  V30 3142 O 298.103 2.06992 0.967816 0
M  V30 3143 C 298.313 2.33817 -2.59096 0
M  V30 3144 C 299.661 2.96844 -3.03593 0
M  V30 3145 O 300.685 2.44141 -2.59371 0
M  V30 3146 O 299.544 3.92476 -3.80296 0
M  V30 3147 H 296.638 0.61811 -0.549426 0
M  V30 3148 H 299.184 0.645429 -1.56947 0
M  V30 3149 H 297.956 1.79012 -3.47952 0
M  V30 3150 H 297.579 3.14676 -2.43032 0
M  V30 3151 N 298.576 1.31904 0.862503 0
M  V30 3152 C 299.824 1.21776 1.61292 0
M  V30 3153 C 300.145 -0.222413 1.93727 0
M  V30 3154 O 299.415 -1.1451 1.58947 0
M  V30 3155 H 297.995 0.447717 0.597962 0
M  V30 3156 H 300.657 1.65326 1.03215 0
M  V30 3157 H 299.753 1.7948 2.5533 0
M  V30 3158 N 300.054 -1.07777 1.14986 0
M  V30 3159 C 301.017 -2.13041 0.845358 0
M  V30 3160 C 302.017 -1.60071 -0.152931 0
M  V30 3161 O 303.207 -1.74033 0.0761879 0
M  V30 3162 C 300.339 -3.39896 0.261383 0
M  V30 3163 H 301.532 -2.41485 1.77834 0
M  V30 3164 H 299.085 -1.23595 0.956757 0
M  V30 3165 H 299.82 -3.17091 -0.68 0
M  V30 3166 H 299.605 -3.79642 0.980514 0
M  V30 3167 H 301.095 -4.17548 0.0657687 0
M  V30 3168 N 301.532 -0.945985 -1.26051 0
M  V30 3169 C 302.779 -0.596118 -1.93527 0
M  V30 3170 C 303.107 0.865559 -1.74179 0
M  V30 3171 O 302.362 1.63524 -1.0751 0
M  V30 3172 C 302.661 -0.890475 -3.46129 0
M  V30 3173 C 302.327 -2.3368 -3.85622 0
M  V30 3174 C 300.989 -2.73216 -3.96114 0
M  V30 3175 C 303.341 -3.27648 -4.05334 0
M  V30 3176 C 300.669 -4.05806 -4.2372 0
M  V30 3177 C 303.021 -4.59841 -4.3443 0
M  V30 3178 C 301.685 -4.99185 -4.43137 0
M  V30 3179 H 300.955 -0.218135 -0.708165 0
M  V30 3180 H 303.602 -1.1934 -1.49768 0
M  V30 3181 H 301.907 -0.210711 -3.91233 0
M  V30 3182 H 303.604 -0.598478 -3.96509 0
M  V30 3183 H 300.194 -2.02015 -3.78005 0
M  V30 3184 H 304.378 -2.98298 -3.96651 0
M  V30 3185 H 299.634 -4.35945 -4.28675 0
M  V30 3186 H 303.808 -5.32641 -4.48628 0
M  V30 3187 H 301.435 -6.01952 -4.64282 0
M  V30 3188 N 303.011 1.40521 -0.713556 0
M  V30 3189 C 304.236 2.05759 -0.26035 0
M  V30 3190 C 304.661 1.53403 1.08854 0
M  V30 3191 O 304.019 0.668535 1.68524 0
M  V30 3192 C 304.067 3.59745 -0.248122 0
M  V30 3193 O 303.171 4.05123 0.77131 0
M  V30 3194 H 302.512 0.652564 -0.122703 0
M  V30 3195 H 305.042 1.79958 -0.973467 0
M  V30 3196 H 305.052 4.07911 -0.0851129 0
M  V30 3197 H 303.727 3.97218 -1.2325 0
M  V30 3198 H 302.304 3.68422 0.57619 0
M  V30 3199 N 304.489 0.459591 1.5075 0
M  V30 3200 C 305.422 -0.386257 2.24907 0
M  V30 3201 C 306.4 -1.006 1.27744 0
M  V30 3202 O 307.584 -1.04416 1.56938 0
M  V30 3203 C 304.711 -1.54021 3.01654 0
M  V30 3204 C 303.757 -1.03898 4.13651 0
M  V30 3205 S 304.59 0.0370501 5.35487 0
M  V30 3206 C 305.746 -1.12105 6.15779 0
M  V30 3207 H 305.979 0.243272 2.96303 0
M  V30 3208 H 303.512 0.244339 1.52454 0
M  V30 3209 H 305.47 -2.20163 3.46466 0
M  V30 3210 H 304.131 -2.14121 2.29806 0
M  V30 3211 H 303.324 -1.90254 4.66711 0
M  V30 3212 H 302.926 -0.45545 3.71216 0
M  V30 3213 H 305.218 -2.03501 6.46215 0
M  V30 3214 H 306.161 -0.62995 7.05292 0
M  V30 3215 H 306.569 -1.36967 5.47631 0
M  V30 3216 N 305.967 -1.56429 0.191757 0
M  V30 3217 C 307.244 -1.89224 -0.495332 0
M  V30 3218 C 307.624 -1.10478 -1.79883 0
M  V30 3219 O 306.972 -0.204852 -2.2758 0
M  V30 3220 C 307.182 -3.41548 -0.717367 0
M  V30 3221 C 308.53 -4.11711 -1.03823 0
M  V30 3222 O 309.554 -3.4698 -0.805204 0
M  V30 3223 O 308.413 -5.2611 -1.47887 0
M  V30 3224 H 305.507 -0.785788 -0.25781 0
M  V30 3225 H 308.053 -1.68111 0.231721 0
M  V30 3226 H 306.825 -3.90772 0.203287 0
M  V30 3227 H 306.448 -3.68342 -1.497 0
M  V30 3228 N 307.445 0.0818655 -1.57387 0
M  V30 3229 C 308.693 0.781368 -1.86384 0
M  V30 3230 C 309.014 1.78618 -0.782342 0
M  V30 3231 O 308.284 1.94976 0.190061 0
M  V30 3232 H 306.864 0.291562 -0.687751 0
M  V30 3233 H 309.526 0.060348 -1.94807 0
M  V30 3234 H 308.622 1.3038 -2.83562 0
M  V30 3235 N 308.923 1.53595 0.353017 0
M  V30 3236 C 310.2 1.61002 1.11075 0
M  V30 3237 C 310.58 0.425356 2.0677 0
M  V30 3238 O 309.928 -0.583267 2.2093 0
M  V30 3239 C 310.138 2.96631 1.83877 0
M  V30 3240 C 311.486 3.51653 2.37961 0
M  V30 3241 O 312.51 2.98743 1.93987 0
M  V30 3242 O 311.369 4.44177 3.18386 0
M  V30 3243 H 308.463 0.650825 0.510251 0
M  V30 3244 H 311.009 1.6594 0.35527 0
M  V30 3245 H 309.781 3.74293 1.14108 0
M  V30 3246 H 309.404 2.95242 2.66304 0
M  V30 3247 N 310.401 -0.613514 1.45168 0
M  V30 3248 C 311.65 -1.36874 1.4815 0
M  V30 3249 C 311.963 -1.952 0.124982 0
M  V30 3250 O 313.169 -2.71481 0.0324176 0
M  V30 3251 C 311.625 -2.47905 2.60904 0
M  V30 3252 C 311.233 -1.96016 4.02842 0
M  V30 3253 C 312.977 -3.24965 2.73126 0
M  V30 3254 C 310.884 -3.04494 5.06988 0
M  V30 3255 H 309.814 -0.514428 0.551253 0
M  V30 3256 H 312.465 -0.658182 1.7129 0
M  V30 3257 H 310.847 -3.21618 2.31037 0
M  V30 3258 H 312.021 -1.29051 4.4236 0
M  V30 3259 H 310.336 -1.31719 3.95018 0
M  V30 3260 H 312.933 -4.05865 3.48106 0
M  V30 3261 H 313.276 -3.75588 1.79553 0
M  V30 3262 H 313.809 -2.5835 3.0249 0
M  V30 3263 H 310.548 -2.58795 6.0225 0
M  V30 3264 H 310.068 -3.70044 4.72046 0
M  V30 3265 H 311.747 -3.68976 5.31475 0
M  V30 3266 N 311.879 -1.3236 -0.855495 0
M  V30 3267 C 312.842 -1.21164 -1.94556 0
M  V30 3268 C 313.842 -0.134908 -1.60233 0
M  V30 3269 O 315.032 -0.385249 -1.69887 0
M  V30 3270 C 312.164 -0.863192 -3.29791 0
M  V30 3271 H 313.357 -2.18038 -2.05911 0
M  V30 3272 H 310.91 -1.16179 -1.04557 0
M  V30 3273 H 311.645 0.103769 -3.24134 0
M  V30 3274 H 311.43 -1.64166 -3.56078 0
M  V30 3275 H 312.92 -0.809156 -4.09686 0
M  V30 3276 N 313.357 1.07166 -1.15556 0
M  V30 3277 C 314.768 1.6127 -0.940693 0
M  V30 3278 C 315.119 1.89251 0.517551 0
M  V30 3279 O 314.244 1.65937 1.38903 0
M  V30 3280 C 314.839 2.92993 -1.7012 0
M  V30 3281 C 313.398 3.43832 -1.53156 0
M  V30 3282 C 312.545 2.1786 -1.71558 0
M  V30 3283 H 315.496 0.90229 -1.30554 0
M  V30 3284 H 315.517 3.62007 -1.17181 0
M  V30 3285 H 315.029 2.72596 -2.76248 0
M  V30 3286 H 313.13 3.69307 -0.494294 0
M  V30 3287 H 313.243 4.19747 -2.30975 0
M  V30 3288 H 311.607 2.2765 -1.14225 0
M  V30 3289 H 312.39 1.99956 -2.79056 0
M  V30 3290 N 314.835 0.952656 1.25548 0
M  V30 3291 C 315.765 0.489287 2.28316 0
M  V30 3292 C 316.746 -0.463359 1.63667 0
M  V30 3293 O 317.931 -0.36274 1.90782 0
M  V30 3294 C 315.061 -0.235603 3.465 0
M  V30 3295 C 314.015 0.631593 4.23314 0
M  V30 3296 C 313.341 -0.223923 5.34231 0
M  V30 3297 C 314.641 1.90871 4.86174 0
M  V30 3298 H 316.335 1.34822 2.67326 0
M  V30 3299 H 313.881 0.649728 1.28509 0
M  V30 3300 H 315.834 -0.570882 4.17515 0
M  V30 3301 H 314.558 -1.12877 3.06474 0
M  V30 3302 H 313.217 0.949929 3.54079 0
M  V30 3303 H 312.865 -1.11678 4.90446 0
M  V30 3304 H 312.565 0.35299 5.86539 0
M  V30 3305 H 314.089 -0.554214 6.0808 0
M  V30 3306 H 315.503 1.63997 5.49343 0
M  V30 3307 H 313.9 2.43112 5.4865 0
M  V30 3308 H 314.97 2.61304 4.08471 0
M  V30 3309 N 316.313 -1.40141 0.720998 0
M  V30 3310 C 317.245 -2.29177 0.0324669 0
M  V30 3311 C 318.258 -1.46105 -0.718126 0
M  V30 3312 O 319.447 -1.69335 -0.564608 0
M  V30 3313 C 316.547 -3.24473 -0.978292 0
M  V30 3314 C 315.72 -4.36423 -0.292115 0
M  V30 3315 C 314.779 -5.12122 -1.20901 0
M  V30 3316 O 313.805 -5.64981 -0.691766 0
M  V30 3317 N 315.007 -5.21992 -2.53978 0
M  V30 3318 H 317.772 -2.88909 0.796984 0
M  V30 3319 H 315.333 -1.51569 0.569068 0
M  V30 3320 H 317.325 -3.71987 -1.59398 0
M  V30 3321 H 315.895 -2.65871 -1.64413 0
M  V30 3322 H 315.115 -3.90967 0.503847 0
M  V30 3323 H 316.403 -5.08467 0.183971 0
M  V30 3324 H 315.801 -4.8054 -2.98493 0
M  V30 3325 H 314.358 -5.72995 -3.10677 0
M  V30 3326 N 317.792 -0.46758 -1.50504 0
M  V30 3327 C 318.702 0.33382 -2.32213 0
M  V30 3328 C 319.718 0.999323 -1.42441 0
M  V30 3329 O 320.894 0.988068 -1.75497 0
M  V30 3330 C 317.959 1.4035 -3.17022 0
M  V30 3331 C 317.02 0.754961 -4.2261 0
M  V30 3332 C 316.253 1.77367 -5.03365 0
M  V30 3333 O 316.476 2.99976 -4.8515 0
M  V30 3334 O 315.41 1.34744 -5.86624 0
M  V30 3335 H 319.236 -0.334067 -3.01857 0
M  V30 3336 H 316.821 -0.229496 -1.47627 0
M  V30 3337 H 318.703 2.02318 -3.69656 0
M  V30 3338 H 317.378 2.05492 -2.5011 0
M  V30 3339 H 316.285 0.0964244 -3.73976 0
M  V30 3340 H 317.618 0.146545 -4.91982 0
M  V30 3341 N 319.27 1.56325 -0.20005 0
M  V30 3342 C 320.519 1.96895 0.437652 0
M  V30 3343 C 320.832 1.08999 1.62415 0
M  V30 3344 O 322.038 1.39372 2.32997 0
M  V30 3345 C 320.494 3.50198 0.830025 0
M  V30 3346 C 320.102 4.46765 -0.332461 0
M  V30 3347 C 321.846 3.99526 1.43453 0
M  V30 3348 C 319.753 5.91344 0.0811468 0
M  V30 3349 H 318.683 0.735209 0.167282 0
M  V30 3350 H 321.334 1.81148 -0.292853 0
M  V30 3351 H 319.716 3.61467 1.61734 0
M  V30 3352 H 320.89 4.47231 -1.11 0
M  V30 3353 H 319.205 4.07657 -0.848789 0
M  V30 3354 H 321.802 5.05025 1.75652 0
M  V30 3355 H 322.145 3.44122 2.34277 0
M  V30 3356 H 322.678 3.91393 0.71109 0
M  V30 3357 H 319.417 6.50685 -0.793033 0
M  V30 3358 H 318.937 5.94121 0.823445 0
M  V30 3359 H 320.616 6.44945 0.515252 0
M  V30 3360 N 320.748 -0.0735177 1.57428 0
M  V30 3361 C 321.988 -0.778363 1.89 0
M  V30 3362 C 322.352 -1.7483 0.793634 0
M  V30 3363 O 323.553 -2.49811 0.992367 0
M  V30 3364 C 321.824 -1.46929 3.25802 0
M  V30 3365 S 323.383 -2.20943 3.79117 0
M  V30 3366 H 320.201 -0.258874 0.662197 0
M  V30 3367 H 322.803 -0.0345338 1.95469 0
M  V30 3368 H 321.507 -0.749532 4.03497 0
M  V30 3369 H 321.038 -2.25258 3.22525 0
M  V30 3370 H 323.053 -3.47435 3.54265 0
M  V30 3371 N 322.226 -1.5378 -0.344866 0
M  V30 3372 C 323.466 -1.72677 -1.09371 0
M  V30 3373 C 323.83 -0.479084 -1.85927 0
M  V30 3374 O 325.031 -0.54505 -2.63216 0
M  V30 3375 C 323.302 -2.95457 -2.01097 0
M  V30 3376 S 324.861 -3.35158 -2.83222 0
M  V30 3377 H 321.679 -0.607402 -0.369573 0
M  V30 3378 H 324.281 -1.91922 -0.372307 0
M  V30 3379 H 322.985 -3.84437 -1.43655 0
M  V30 3380 H 322.516 -2.78673 -2.77678 0
M  V30 3381 H 324.531 -2.88789 -4.03504 0
M  V30 3382 N 323.704 0.605807 -1.45491 0
M  V30 3383 C 324.634 1.72709 -1.57143 0
M  V30 3384 C 325.615 1.6476 -0.422884 0
M  V30 3385 O 326.8 1.83132 -0.646247 0
M  V30 3386 C 323.93 3.11316 -1.53948 0
M  V30 3387 C 322.884 3.34077 -2.67537 0
M  V30 3388 C 322.21 4.72975 -2.49397 0
M  V30 3389 C 323.51 3.24158 -4.09535 0
M  V30 3390 H 325.204 1.63214 -2.51001 0
M  V30 3391 H 322.75 0.78379 -1.208 0
M  V30 3392 H 324.703 3.89557 -1.60696 0
M  V30 3393 H 323.427 3.21655 -0.566205 0
M  V30 3394 H 322.086 2.58227 -2.6022 0
M  V30 3395 H 321.734 4.8005 -1.50205 0
M  V30 3396 H 321.434 4.8916 -3.25571 0
M  V30 3397 H 322.958 5.53414 -2.58002 0
M  V30 3398 H 324.372 3.92271 -4.18086 0
M  V30 3399 H 322.769 3.51872 -4.86113 0
M  V30 3400 H 323.839 2.2157 -4.31317 0
M  V30 3401 N 325.182 1.32811 0.848464 0
M  V30 3402 C 326.145 1.22194 1.9391 0
M  V30 3403 C 327.145 0.143404 1.60159 0
M  V30 3404 O 328.335 0.394253 1.6968 0
M  V30 3405 C 325.467 0.88067 3.29328 0
M  V30 3406 H 326.66 2.19127 2.04752 0
M  V30 3407 H 324.213 1.16731 1.0394 0
M  V30 3408 H 324.948 -0.0865776 3.24184 0
M  V30 3409 H 324.733 1.66052 3.55203 0
M  V30 3410 H 326.223 0.830871 4.09251 0
M  V30 3411 N 326.66 -1.06551 1.16123 0
M  V30 3412 C 327.885 -1.83544 0.965735 0
M  V30 3413 C 328.31 -1.81843 -0.481102 0
M  V30 3414 O 327.668 -1.21732 -1.34354 0
M  V30 3415 C 327.716 -3.28169 1.49457 0
M  V30 3416 O 326.82 -4.0643 0.699157 0
M  V30 3417 H 326.161 -0.568026 0.343864 0
M  V30 3418 H 328.691 -1.34362 1.54299 0
M  V30 3419 H 328.701 -3.78992 1.51092 0
M  V30 3420 H 327.376 -3.28722 2.54784 0
M  V30 3421 H 325.953 -3.65216 0.7531 0
M  V30 3422 N 328.138 -0.959301 -1.25041 0
M  V30 3423 C 329.554 -0.664474 -1.4511 0
M  V30 3424 C 329.754 0.776481 -1.85938 0
M  V30 3425 O 328.81 1.55128 -1.99227 0
M  V30 3426 C 330.123 -1.64139 -2.5195 0
M  V30 3427 C 331.671 -1.65309 -2.65786 0
M  V30 3428 C 332.146 -2.61777 -3.75815 0
M  V30 3429 N 333.637 -2.60169 -3.83231 0
M  V30 3430 C 334.372 -3.31489 -4.6787 0
M  V30 3431 N 333.868 -4.12298 -5.56761 0
M  V30 3432 N 335.661 -3.20354 -4.61876 0
M  V30 3433 H 327.812 -1.89043 -0.968332 0
M  V30 3434 H 330.075 -0.813408 -0.4869 0
M  V30 3435 H 329.781 -2.67086 -2.28819 0
M  V30 3436 H 329.655 -1.40756 -3.49954 0
M  V30 3437 H 332.042 -0.630778 -2.8828 0
M  V30 3438 H 332.123 -1.92753 -1.68167 0
M  V30 3439 H 331.767 -3.64137 -3.54071 0
M  V30 3440 H 331.697 -2.31616 -4.72929 0
M  V30 3441 H 334.188 -2.01507 -3.19692 0
M  V30 3442 H 334.501 -4.63625 -6.18281 0
M  V30 3443 H 332.846 -4.16395 -5.56454 0
M  V30 3444 H 336.037 -2.56692 -3.91442 0
M  V30 3445 H 336.21 -3.76201 -5.27614 0
M  V30 3446 N 329.616 1.39756 -0.72842 0
M  V30 3447 C 330.846 2.04651 -0.283117 0
M  V30 3448 C 331.254 1.5502 1.08469 0
M  V30 3449 O 330.597 0.707343 1.69536 0
M  V30 3450 C 330.659 3.58947 -0.199309 0
M  V30 3451 C 330.323 4.31525 -1.5045 0
M  V30 3452 C 331.32 4.5861 -2.44894 0
M  V30 3453 C 329.005 4.70195 -1.76698 0
M  V30 3454 C 330.999 5.23366 -3.63822 0
M  V30 3455 C 328.686 5.3468 -2.95906 0
M  V30 3456 C 329.684 5.61198 -3.89289 0
M  V30 3457 O 329.372 6.24347 -5.06404 0
M  V30 3458 H 329.104 0.664777 -0.122666 0
M  V30 3459 H 331.658 1.79913 -0.990987 0
M  V30 3460 H 329.888 3.82556 0.56461 0
M  V30 3461 H 331.577 4.0534 0.213125 0
M  V30 3462 H 332.343 4.29187 -2.25883 0
M  V30 3463 H 328.222 4.48916 -1.04859 0
M  V30 3464 H 331.766 5.4398 -4.36728 0
M  V30 3465 H 327.663 5.63524 -3.14819 0
M  V30 3466 H 328.431 6.42842 -5.06652 0
M  V30 3467 N 331.094 0.475555 1.50254 0
M  V30 3468 C 332.342 -0.077738 2.0195 0
M  V30 3469 C 332.663 -1.39813 1.35931 0
M  V30 3470 O 331.933 -1.89249 0.506123 0
M  V30 3471 H 330.513 -0.031719 0.746326 0
M  V30 3472 H 333.175 0.626995 1.84539 0
M  V30 3473 H 332.271 -0.225995 3.11281 0
M  V30 3474 N 332.573 -1.56217 0.208337 0
M  V30 3475 C 333.536 -2.18455 -0.693557 0
M  V30 3476 C 334.536 -1.14268 -1.13135 0
M  V30 3477 O 335.726 -1.39577 -1.0423 0
M  V30 3478 C 332.858 -2.79727 -1.94848 0
M  V30 3479 H 334.051 -2.99519 -0.15114 0
M  V30 3480 H 331.604 -1.56245 -0.041287 0
M  V30 3481 H 332.339 -2.02497 -2.53309 0
M  V30 3482 H 332.124 -3.56009 -1.64316 0
M  V30 3483 H 333.614 -3.27475 -2.59133 0
M  V30 3484 N 334.051 0.0651679 -1.57465 0
M  V30 3485 C 334.981 1.07693 -2.07182 0
M  V30 3486 C 335.962 1.39962 -0.966673 0
M  V30 3487 O 337.147 1.49475 -1.2398 0
M  V30 3488 C 334.277 2.3885 -2.52127 0
M  V30 3489 C 333.231 2.20917 -3.66579 0
M  V30 3490 C 332.557 3.57515 -3.97601 0
M  V30 3491 C 333.857 1.62493 -4.9638 0
M  V30 3492 H 335.551 0.663199 -2.91962 0
M  V30 3493 H 333.097 0.317569 -1.40455 0
M  V30 3494 H 335.05 3.09928 -2.85522 0
M  V30 3495 H 333.774 2.82215 -1.64384 0
M  V30 3496 H 332.433 1.52279 -3.33477 0
M  V30 3497 H 332.081 3.98463 -3.06979 0
M  V30 3498 H 331.781 3.46353 -4.74672 0
M  V30 3499 H 333.305 4.30013 -4.33499 0
M  V30 3500 H 334.719 2.23445 -5.27963 0
M  V30 3501 H 333.116 1.62009 -5.77818 0
M  V30 3502 H 334.186 0.587041 -4.81333 0
M  V30 3503 N 335.529 1.53961 0.336706 0
M  V30 3504 C 336.775 1.7179 1.07777 0
M  V30 3505 C 337.108 0.483263 1.88091 0
M  V30 3506 O 336.383 -0.519747 1.87427 0
M  V30 3507 C 336.666 2.98558 2.01334 0
M  V30 3508 C 336.519 4.32245 1.24437 0
M  V30 3509 C 337.838 3.21023 3.01052 0
M  V30 3510 H 334.957 0.625089 0.390426 0
M  V30 3511 H 337.599 1.86641 0.35567 0
M  V30 3512 H 335.749 2.86028 2.62908 0
M  V30 3513 H 337.421 4.56637 0.654243 0
M  V30 3514 H 335.664 4.30344 0.546458 0
M  V30 3515 H 336.335 5.17137 1.93063 0
M  V30 3516 H 338.811 3.32929 2.49595 0
M  V30 3517 H 337.687 4.11104 3.6371 0
M  V30 3518 H 337.948 2.37637 3.72802 0
M  V30 3519 N 337.007 -0.598083 1.45811 0
M  V30 3520 C 338.254 -1.35681 1.50323 0
M  V30 3521 C 338.582 -1.9393 0.148739 0
M  V30 3522 O 337.837 -1.76094 -0.853787 0
M  V30 3523 C 338.136 -2.51669 2.53766 0
M  V30 3524 C 337.802 -2.11508 3.98215 0
M  V30 3525 C 336.464 -2.0027 4.37545 0
M  V30 3526 C 338.816 -1.80308 4.89018 0
M  V30 3527 C 336.144 -1.56067 5.65562 0
M  V30 3528 C 338.496 -1.37589 6.17456 0
M  V30 3529 C 337.16 -1.24916 6.55708 0
M  V30 3530 H 336.43 -0.496492 0.550069 0
M  V30 3531 H 339.077 -0.675052 1.79207 0
M  V30 3532 H 337.382 -3.25225 2.18486 0
M  V30 3533 H 339.079 -3.09895 2.54492 0
M  V30 3534 H 335.669 -2.21185 3.67117 0
M  V30 3535 H 339.853 -1.87884 4.59362 0
M  V30 3536 H 335.109 -1.44886 5.93985 0
M  V30 3537 H 339.283 -1.12495 6.87254 0
M  V30 3538 H 336.91 -0.904386 7.54801 0
M  V30 3539 N 338.485 -1.33259 -0.841409 0
M  V30 3540 C 339.418 -1.1764 -1.95541 0
M  V30 3541 C 340.396 -0.072501 -1.62438 0
M  V30 3542 O 341.58 -0.23427 -1.87039 0
M  V30 3543 C 338.707 -0.803794 -3.29024 0
M  V30 3544 C 337.753 -1.91482 -3.81099 0
M  V30 3545 S 338.586 -3.52538 -4.03085 0
M  V30 3546 C 339.742 -3.17279 -5.39523 0
M  V30 3547 H 339.975 -2.11941 -2.08491 0
M  V30 3548 H 337.508 -1.18072 -0.9949 0
M  V30 3549 H 339.466 -0.595592 -4.06156 0
M  V30 3550 H 338.127 0.120574 -3.13868 0
M  V30 3551 H 337.32 -1.60742 -4.7768 0
M  V30 3552 H 336.922 -2.07956 -3.10854 0
M  V30 3553 H 339.214 -2.67946 -6.22263 0
M  V30 3554 H 340.157 -4.1293 -5.75234 0
M  V30 3555 H 340.565 -2.53943 -5.04156 0
M  V30 3556 N 339.963 1.05934 -1.16686 0
M  V30 3557 C 341.24 1.75643 -0.860747 0
M  V30 3558 C 341.62 2.01144 0.640641 0
M  V30 3559 O 340.968 1.64147 1.58959 0
M  V30 3560 C 341.178 3.05493 -1.68745 0
M  V30 3561 C 342.526 3.79581 -1.90271 0
M  V30 3562 O 343.55 3.15344 -1.65641 0
M  V30 3563 O 342.409 4.9499 -2.31618 0
M  V30 3564 H 339.503 0.763426 -0.317977 0
M  V30 3565 H 342.049 1.1217 -1.27342 0
M  V30 3566 H 340.821 2.8264 -2.70611 0
M  V30 3567 H 340.444 3.76702 -1.27206 0
M  V30 3568 N 341.441 0.965919 1.2453 0
M  V30 3569 C 342.351 0.502154 2.29163 0
M  V30 3570 C 343.367 -0.436017 1.68448 0
M  V30 3571 O 344.543 -0.309497 1.99008 0
M  V30 3572 C 341.608 -0.201956 3.46111 0
M  V30 3573 C 340.669 0.775821 4.22232 0
M  V30 3574 C 339.902 0.105217 5.33596 0
M  V30 3575 O 340.125 -1.10683 5.59558 0
M  V30 3576 O 339.059 0.796475 5.96607 0
M  V30 3577 H 342.885 1.37194 2.70946 0
M  V30 3578 H 340.47 0.732875 1.30189 0
M  V30 3579 H 342.352 -0.597564 4.17142 0
M  V30 3580 H 341.027 -1.04673 3.06309 0
M  V30 3581 H 339.934 1.22185 3.53584 0
M  V30 3582 H 341.267 1.58896 4.65846 0
M  V30 3583 N 342.919 -1.39368 0.735821 0
M  V30 3584 C 344.159 -2.02349 0.288813 0
M  V30 3585 C 344.523 -1.57127 -1.10341 0
M  V30 3586 O 345.724 -2.12312 -1.64854 0
M  V30 3587 C 343.995 -3.55288 0.387986 0
M  V30 3588 S 345.554 -4.38795 0.0209408 0
M  V30 3589 H 342.372 -0.701944 0.113115 0
M  V30 3590 H 344.974 -1.70164 0.962518 0
M  V30 3591 H 343.678 -3.85691 1.40252 0
M  V30 3592 H 343.209 -3.92227 -0.303512 0
M  V30 3593 H 345.224 -4.81595 -1.19503 0
M  V30 3594 N 344.397 -0.483516 -1.5 0
M  V30 3595 C 345.347 0.32306 -2.257 0
M  V30 3596 C 346.331 0.950755 -1.29805 0
M  V30 3597 O 347.523 0.861247 -1.54634 0
M  V30 3598 C 344.652 1.39724 -3.13579 0
M  V30 3599 C 343.738 0.776663 -4.16928 0
M  V30 3600 N 344.129 -0.1104 -5.0568 0
M  V30 3601 C 342.427 1.03922 -4.33724 0
M  V30 3602 C 343.128 -0.46387 -5.79848 0
M  V30 3603 N 342.104 0.163987 -5.43353 0
M  V30 3604 H 345.906 -0.360086 -2.91686 0
M  V30 3605 H 343.42 -0.298456 -1.59634 0
M  V30 3606 H 345.417 1.98837 -3.66428 0
M  V30 3607 H 344.077 2.08225 -2.49143 0
M  V30 3608 H 345.088 -0.480069 -5.1567 0
M  V30 3609 H 341.765 1.71829 -3.80501 0
M  V30 3610 H 343.155 -1.18854 -6.61304 0
M  V30 3611 N 345.875 1.56104 -0.216619 0
M  V30 3612 C 346.838 2.18819 0.681962 0
M  V30 3613 C 347.838 1.14866 1.12528 0
M  V30 3614 O 349.028 1.40128 1.03488 0
M  V30 3615 C 346.16 2.80756 1.93362 0
M  V30 3616 H 347.353 2.99595 0.135254 0
M  V30 3617 H 344.906 1.56265 0.0330003 0
M  V30 3618 H 345.641 2.03837 2.52232 0
M  V30 3619 H 345.426 3.56876 1.62426 0
M  V30 3620 H 346.916 3.28844 2.57393 0
M  V30 3621 N 347.353 -0.0568162 1.57498 0
M  V30 3622 C 348.581 -0.765626 1.92213 0
M  V30 3623 C 348.996 -1.70353 0.813961 0
M  V30 3624 O 348.353 -1.81268 -0.211701 0
M  V30 3625 C 348.404 -1.5465 3.2675 0
M  V30 3626 O 348.125 -0.646278 4.33307 0
M  V30 3627 C 349.626 -2.35497 3.75574 0
M  V30 3628 H 346.846 -0.216835 0.634999 0
M  V30 3629 H 349.39 -0.0226146 2.04487 0
M  V30 3630 H 347.545 -2.24165 3.15957 0
M  V30 3631 H 347.959 -1.19093 5.108 0
M  V30 3632 H 349.433 -2.85722 4.72299 0
M  V30 3633 H 349.91 -3.15692 3.05344 0
M  V30 3634 H 350.516 -1.7111 3.8936 0
M  V30 3635 N 348.832 -1.54138 -0.328536 0
M  V30 3636 C 350.08 -1.71765 -1.06496 0
M  V30 3637 C 350.401 -0.49149 -1.88704 0
M  V30 3638 O 349.671 0.494539 -1.89555 0
M  V30 3639 H 348.251 -0.633295 -0.396164 0
M  V30 3640 H 350.913 -1.91429 -0.366176 0
M  V30 3641 H 350.009 -2.5951 -1.73381 0
M  V30 3642 N 350.31 0.590341 -1.46126 0
M  V30 3643 C 351.557 1.34882 -1.5104 0
M  V30 3644 C 351.885 1.93849 -0.159021 0
M  V30 3645 O 351.14 1.76544 0.844436 0
M  V30 3646 C 351.439 2.5032 -2.55097 0
M  V30 3647 C 351.105 2.09394 -3.99331 0
M  V30 3648 C 349.767 1.97947 -4.38601 0
M  V30 3649 C 352.119 1.77712 -4.89967 0
M  V30 3650 C 349.447 1.53065 -5.66381 0
M  V30 3651 C 351.799 1.34312 -6.18177 0
M  V30 3652 C 350.463 1.21436 -6.56361 0
M  V30 3653 H 349.733 0.493568 -0.552695 0
M  V30 3654 H 352.38 0.665539 -1.79563 0
M  V30 3655 H 350.685 3.24062 -2.20207 0
M  V30 3656 H 352.382 3.08541 -2.56132 0
M  V30 3657 H 348.972 2.19235 -3.68285 0
M  V30 3658 H 353.156 1.85445 -4.60352 0
M  V30 3659 H 348.412 1.41733 -5.94745 0
M  V30 3660 H 352.586 1.08849 -6.87841 0
M  V30 3661 H 350.213 0.864345 -7.5527 0
M  V30 3662 N 351.788 1.33704 0.83433 0
M  V30 3663 C 352.718 1.26967 1.95963 0
M  V30 3664 C 353.699 0.149337 1.69443 0
M  V30 3665 O 354.884 0.339852 1.91203 0
M  V30 3666 C 352.014 1.01275 3.32206 0
M  V30 3667 C 350.968 2.09652 3.73136 0
M  V30 3668 C 350.294 1.69166 5.07235 0
M  V30 3669 C 351.594 3.51372 3.86439 0
M  V30 3670 H 353.288 2.2112 2.01857 0
M  V30 3671 H 350.834 1.06447 0.969793 0
M  V30 3672 H 352.787 0.952106 4.10503 0
M  V30 3673 H 351.511 0.0356203 3.26581 0
M  V30 3674 H 350.17 2.14766 2.97104 0
M  V30 3675 H 349.818 0.701437 4.98085 0
M  V30 3676 H 349.518 2.41694 5.35591 0
M  V30 3677 H 351.042 1.64576 5.88003 0
M  V30 3678 H 352.456 3.48734 4.55036 0
M  V30 3679 H 350.853 4.22425 4.26236 0
M  V30 3680 H 351.923 3.89546 2.88759 0
M  V30 3681 N 353.266 -1.05314 1.17247 0
M  V30 3682 C 354.514 -1.77941 0.958194 0
M  V30 3683 C 354.835 -1.88089 -0.514556 0
M  V30 3684 O 354.105 -1.39676 -1.37359 0
M  V30 3685 H 352.685 -0.659116 0.351533 0
M  V30 3686 H 355.347 -1.27166 1.47699 0
M  V30 3687 H 354.443 -2.79663 1.38546 0
M  V30 3688 N 354.744 -0.972509 -1.24016 0
M  V30 3689 C 356.155 -0.67517 -1.74064 0
M  V30 3690 C 356.506 0.808939 -1.78747 0
M  V30 3691 O 355.631 1.63286 -1.42009 0
M  V30 3692 C 356.226 -1.21889 -3.16115 0
M  V30 3693 C 354.785 -0.971358 -3.6365 0
M  V30 3694 C 353.932 -1.35134 -2.42145 0
M  V30 3695 H 356.883 -1.14727 -1.09651 0
M  V30 3696 H 356.904 -0.587489 -3.75937 0
M  V30 3697 H 356.416 -2.29906 -3.12674 0
M  V30 3698 H 354.517 0.0930686 -3.72484 0
M  V30 3699 H 354.63 -1.62039 -4.50866 0
M  V30 3700 H 352.994 -0.769751 -2.4279 0
M  V30 3701 H 353.777 -2.4411 -2.41381 0
M  V30 3702 N 356.222 1.38976 -0.743202 0
M  V30 3703 C 357.45 2.04636 -0.30525 0
M  V30 3704 C 357.865 1.56044 1.06281 0
M  V30 3705 O 357.222 0.728921 1.67311 0
M  V30 3706 C 357.273 3.60193 -0.307177 0
M  V30 3707 O 356.994 4.06998 -1.62124 0
M  V30 3708 C 358.495 4.4306 0.145928 0
M  V30 3709 H 355.715 0.65788 -0.132041 0
M  V30 3710 H 358.259 1.77866 -1.00915 0
M  V30 3711 H 356.414 3.85835 0.347898 0
M  V30 3712 H 356.828 5.01371 -1.54036 0
M  V30 3713 H 358.302 5.51921 0.0934183 0
M  V30 3714 H 358.779 4.22706 1.19231 0
M  V30 3715 H 359.385 4.22584 -0.479886 0
M  V30 3716 N 357.7 0.491464 1.49741 0
M  V30 3717 C 358.948 -0.0563141 2.02022 0
M  V30 3718 C 359.269 -1.38363 1.37407 0
M  V30 3719 O 358.539 -1.88702 0.526166 0
M  V30 3720 H 357.119 -0.0238014 0.746621 0
M  V30 3721 H 359.781 0.646533 1.83864 0
M  V30 3722 H 358.877 -0.192967 3.11503 0
M  V30 3723 N 359.178 -1.55987 0.224894 0
M  V30 3724 C 360.594 -1.59066 -0.130426 0
M  V30 3725 C 360.794 -1.24176 -1.5869 0
M  V30 3726 O 359.85 -0.978592 -2.32766 0
M  V30 3727 C 361.163 -3.00042 0.198883 0
M  V30 3728 C 362.711 -3.1268 0.141391 0
M  V30 3729 C 363.186 -4.55839 0.444422 0
M  V30 3730 N 364.677 -4.6152 0.394115 0
M  V30 3731 C 365.412 -5.70231 0.602038 0
M  V30 3732 N 364.908 -6.87291 0.871914 0
M  V30 3733 N 366.701 -5.59555 0.534245 0
M  V30 3734 H 358.852 -1.76941 1.17497 0
M  V30 3735 H 361.115 -0.822604 0.471197 0
M  V30 3736 H 360.821 -3.30234 1.2099 0
M  V30 3737 H 360.695 -3.74075 -0.484535 0
M  V30 3738 H 363.082 -2.82283 -0.860265 0
M  V30 3739 H 363.163 -2.40969 0.858335 0
M  V30 3740 H 362.807 -4.86954 1.44353 0
M  V30 3741 H 362.737 -5.2578 -0.293752 0
M  V30 3742 H 365.228 -3.77405 0.193356 0
M  V30 3743 H 365.541 -7.66058 1.01858 0
M  V30 3744 H 363.886 -6.89028 0.909145 0
M  V30 3745 H 367.077 -4.6698 0.323612 0
M  V30 3746 H 367.25 -6.44211 0.699693 0
M  V30 3747 N 360.656 0.0484629 -1.57525 0
M  V30 3748 C 361.904 0.741657 -1.88 0
M  V30 3749 C 362.225 1.76918 -0.820054 0
M  V30 3750 O 361.495 1.95335 0.148661 0
M  V30 3751 H 360.075 0.276908 -0.69378 0
M  V30 3752 H 362.737 0.019013 -1.94891 0
M  V30 3753 H 361.833 1.24336 -2.86264 0
M  V30 3754 N 362.134 1.5431 0.320358 0
M  V30 3755 C 363.362 1.76636 1.07738 0
M  V30 3756 C 363.777 0.51649 1.81598 0
M  V30 3757 O 363.134 -0.512942 1.75143 0
M  V30 3758 C 363.185 2.96158 2.07299 0
M  V30 3759 O 362.906 4.16313 1.36438 0
M  V30 3760 C 364.407 3.3072 2.95193 0
M  V30 3761 H 361.627 0.589597 0.320339 0
M  V30 3762 H 364.171 2.01207 0.36551 0
M  V30 3763 H 362.326 2.73851 2.74016 0
M  V30 3764 H 362.74 4.83565 2.03138 0
M  V30 3765 H 364.214 4.17643 3.60941 0
M  V30 3766 H 364.691 2.48026 3.62463 0
M  V30 3767 H 365.297 3.55117 2.34034 0
M  V30 3768 N 363.613 -0.582584 1.46437 0
M  V30 3769 C 364.89 -1.34276 1.4223 0
M  V30 3770 C 365.27 -2.10835 0.10583 0
M  V30 3771 O 364.618 -2.09485 -0.912596 0
M  V30 3772 C 364.828 -2.26865 2.65204 0
M  V30 3773 C 366.176 -2.88691 3.11356 0
M  V30 3774 O 367.2 -2.37178 2.65753 0
M  V30 3775 O 366.059 -3.82255 3.90568 0
M  V30 3776 H 363.153 -0.603326 0.565621 0
M  V30 3777 H 365.699 -0.603591 1.58603 0
M  V30 3778 H 364.471 -1.69724 3.52576 0
M  V30 3779 H 364.094 -3.08122 2.5129 0
M  V30 3780 N 365.091 -1.34144 -0.827227 0
M  V30 3781 C 366.001 -1.27428 -1.96975 0
M  V30 3782 C 367.017 -0.182728 -1.73038 0
M  V30 3783 O 368.193 -0.408426 -1.97215 0
M  V30 3784 C 365.258 -1.02526 -3.31194 0
M  V30 3785 C 364.319 -2.20796 -3.68168 0
M  V30 3786 C 363.552 -1.97073 -4.95982 0
M  V30 3787 O 363.775 -0.926822 -5.6282 0
M  V30 3788 O 362.709 -2.83912 -5.30733 0
M  V30 3789 H 366.535 -2.23537 -2.05584 0
M  V30 3790 H 364.12 -1.14307 -0.961989 0
M  V30 3791 H 366.002 -0.904026 -4.11589 0
M  V30 3792 H 364.677 -0.0945389 -3.23562 0
M  V30 3793 H 363.584 -2.38477 -2.88235 0
M  V30 3794 H 364.917 -3.12243 -3.8048 0
M  V30 3795 N 366.569 1.04691 -1.17803 0
M  V30 3796 C 367.499 2.14494 -0.92275 0
M  V30 3797 C 368.48 1.69546 0.137179 0
M  V30 3798 O 369.665 1.94195 -0.0141108 0
M  V30 3799 C 366.795 3.44491 -0.440803 0
M  V30 3800 C 365.749 4.03031 -1.4405 0
M  V30 3801 C 365.075 5.28432 -0.81631 0
M  V30 3802 C 366.375 4.39932 -2.81527 0
M  V30 3803 H 368.069 2.36107 -1.84103 0
M  V30 3804 H 365.615 1.1347 -0.886599 0
M  V30 3805 H 367.568 4.2066 -0.249602 0
M  V30 3806 H 366.292 3.22546 0.513025 0
M  V30 3807 H 364.951 3.28937 -1.61853 0
M  V30 3808 H 364.599 5.02792 0.144511 0
M  V30 3809 H 364.299 5.68559 -1.48371 0
M  V30 3810 H 365.823 6.07284 -0.635496 0
M  V30 3811 H 367.237 5.07113 -2.67412 0
M  V30 3812 H 365.634 4.9109 -3.44892 0
M  V30 3813 H 366.704 3.50045 -3.35554 0
M  V30 3814 N 368.047 0.979072 1.23499 0
M  V30 3815 C 368.977 0.537606 2.27227 0
M  V30 3816 C 369.958 -0.428539 1.64613 0
M  V30 3817 O 371.143 -0.322191 1.91509 0
M  V30 3818 C 368.273 -0.162052 3.46922 0
M  V30 3819 C 367.227 0.721242 4.21879 0
M  V30 3820 C 366.553 -0.110555 5.34586 0
M  V30 3821 C 367.853 2.01141 4.82016 0
M  V30 3822 H 369.547 1.40462 2.64406 0
M  V30 3823 H 367.093 0.67684 1.27102 0
M  V30 3824 H 369.046 -0.482192 4.18632 0
M  V30 3825 H 367.77 -1.06351 3.08799 0
M  V30 3826 H 366.429 1.02482 3.51984 0
M  V30 3827 H 366.077 -1.0125 4.92704 0
M  V30 3828 H 365.777 0.477325 5.85658 0
M  V30 3829 H 367.301 -0.425107 6.09118 0
M  V30 3830 H 368.715 1.75612 5.45741 0
M  V30 3831 H 367.112 2.54695 5.43369 0
M  V30 3832 H 368.182 2.69909 4.02836 0
M  V30 3833 N 369.525 -1.3858 0.750561 0
M  V30 3834 C 370.773 -1.99789 0.30477 0
M  V30 3835 C 371.094 -1.59874 -1.11649 0
M  V30 3836 O 370.364 -0.85417 -1.76297 0
M  V30 3837 H 368.944 -0.738902 0.109694 0
M  V30 3838 H 371.606 -1.69391 0.963983 0
M  V30 3839 H 370.702 -3.09952 0.365499 0
M  V30 3840 N 371.003 -0.499398 -1.49478 0
M  V30 3841 C 372.249 0.0457576 -2.02748 0
M  V30 3842 C 372.582 1.36793 -1.37846 0
M  V30 3843 O 371.857 1.87596 -0.513601 0
M  V30 3844 C 372.14 0.199986 -3.59544 0
M  V30 3845 C 371.993 -1.1452 -4.34977 0
M  V30 3846 C 373.312 0.94137 -4.29914 0
M  V30 3847 H 370.431 0.0151552 -0.736844 0
M  V30 3848 H 373.073 -0.650498 -1.78518 0
M  V30 3849 H 371.223 0.793007 -3.8032 0
M  V30 3850 H 372.895 -1.77697 -4.25701 0
M  V30 3851 H 371.138 -1.73488 -3.97598 0
M  V30 3852 H 371.809 -0.990607 -5.43039 0
M  V30 3853 H 374.285 0.43844 -4.13784 0
M  V30 3854 H 373.161 1.01812 -5.39375 0
M  V30 3855 H 373.422 1.98471 -3.95046 0
M  V30 3856 N 372.481 1.55866 -0.233164 0
M  V30 3857 C 373.414 2.16794 0.712442 0
M  V30 3858 C 374.392 1.1158 1.18273 0
M  V30 3859 O 375.576 1.39897 1.26337 0
M  V30 3860 C 372.703 2.75757 1.96661 0
M  V30 3861 C 371.749 3.93902 1.63533 0
M  V30 3862 S 372.582 5.30223 0.74995 0
M  V30 3863 C 373.738 5.92631 2.01343 0
M  V30 3864 H 373.971 2.96662 0.194617 0
M  V30 3865 H 371.504 1.5439 -0.0177425 0
M  V30 3866 H 373.462 3.10367 2.68668 0
M  V30 3867 H 372.123 1.9586 2.45556 0
M  V30 3868 H 371.316 4.33702 2.56747 0
M  V30 3869 H 370.918 3.60499 0.995804 0
M  V30 3870 H 373.21 6.09312 2.96219 0
M  V30 3871 H 374.153 6.88388 1.65915 0
M  V30 3872 H 374.561 5.21571 2.15925 0
M  V30 3873 N 373.959 -0.0401083 1.57549 0
M  V30 3874 C 375.236 -0.767917 1.79896 0
M  V30 3875 C 375.616 -1.9416 0.82856 0
M  V30 3876 O 374.964 -2.2812 -0.131671 0
M  V30 3877 C 375.174 -1.2113 3.27305 0
M  V30 3878 C 376.522 -1.63175 3.91994 0
M  V30 3879 O 377.546 -1.30616 3.31388 0
M  V30 3880 O 376.405 -2.23565 4.98679 0
M  V30 3881 H 373.499 -0.370441 0.739393 0
M  V30 3882 H 376.045 -0.017737 1.69691 0
M  V30 3883 H 374.817 -0.372937 3.89519 0
M  V30 3884 H 374.44 -2.02183 3.42356 0
M  V30 3885 N 375.437 -1.54477 -0.31217 0
M  V30 3886 C 376.369 -1.81011 -1.40598 0
M  V30 3887 C 377.382 -0.692546 -1.47335 0
M  V30 3888 O 378.571 -0.969847 -1.49854 0
M  V30 3889 C 375.671 -1.92307 -2.79054 0
M  V30 3890 C 374.844 -3.22594 -2.95384 0
M  V30 3891 C 373.903 -3.24448 -4.1427 0
M  V30 3892 O 372.929 -3.98035 -4.06887 0
M  V30 3893 N 374.131 -2.49042 -5.24365 0
M  V30 3894 H 376.896 -2.75408 -1.18196 0
M  V30 3895 H 374.457 -1.53914 -0.502202 0
M  V30 3896 H 376.449 -1.90962 -3.56813 0
M  V30 3897 H 375.019 -1.04955 -2.94454 0
M  V30 3898 H 374.239 -3.36806 -2.04831 0
M  V30 3899 H 375.527 -4.08593 -3.03198 0
M  V30 3900 H 374.925 -1.88867 -5.33241 0
M  V30 3901 H 373.482 -2.53463 -6.005 0
M  V30 3902 N 376.915 0.57481 -1.46744 0
M  V30 3903 C 378.161 1.3347 -1.52688 0
M  V30 3904 C 378.494 1.93353 -0.181229 0
M  V30 3905 O 377.769 1.76912 0.808237 0
M  V30 3906 C 378.052 2.45811 -2.63152 0
M  V30 3907 C 377.905 1.90912 -4.07275 0
M  V30 3908 C 379.224 3.47822 -2.69644 0
M  V30 3909 H 376.343 0.483935 -0.555856 0
M  V30 3910 H 378.985 0.644968 -1.78718 0
M  V30 3911 H 377.135 3.04646 -2.41088 0
M  V30 3912 H 378.807 1.36473 -4.4065 0
M  V30 3913 H 377.05 1.21691 -4.16382 0
M  V30 3914 H 377.721 2.72042 -4.80309 0
M  V30 3915 H 380.197 2.9888 -2.895 0
M  V30 3916 H 379.073 4.23876 -3.48742 0
M  V30 3917 H 379.334 4.05555 -1.76005 0
M  V30 3918 N 378.394 1.34581 0.820102 0
M  V30 3919 C 379.622 1.3018 1.60813 0
M  V30 3920 C 380.037 -0.123551 1.88395 0
M  V30 3921 O 379.394 -1.07148 1.47735 0
M  V30 3922 C 379.445 2.09312 2.94739 0
M  V30 3923 O 379.166 3.46288 2.68358 0
M  V30 3924 C 380.667 2.1234 3.89136 0
M  V30 3925 H 377.887 0.447726 0.499782 0
M  V30 3926 H 380.431 1.77237 1.02017 0
M  V30 3927 H 378.586 1.65889 3.50085 0
M  V30 3928 H 379 3.87227 3.53774 0
M  V30 3929 H 380.474 2.72126 4.80262 0
M  V30 3930 H 380.951 1.11854 4.24718 0
M  V30 3931 H 381.557 2.55864 3.39726 0
M  V30 3932 N 379.872 -1.04064 1.18357 0
M  V30 3933 C 381.121 -1.76662 0.973313 0
M  V30 3934 C 381.434 -1.89154 -0.497991 0
M  V30 3935 O 382.64 -2.58606 -0.826762 0
M  V30 3936 C 381.096 -3.17624 1.69242 0
M  V30 3937 C 380.704 -3.13225 3.20303 0
M  V30 3938 C 382.448 -3.946 1.56497 0
M  V30 3939 C 380.355 -4.49046 3.84853 0
M  V30 3940 H 379.285 -0.662214 0.36054 0
M  V30 3941 H 381.936 -1.16553 1.41731 0
M  V30 3942 H 380.318 -3.78129 1.1762 0
M  V30 3943 H 381.492 -2.62172 3.78949 0
M  V30 3944 H 379.807 -2.49749 3.33189 0
M  V30 3945 H 382.404 -4.95042 2.02084 0
M  V30 3946 H 382.747 -4.13074 0.517243 0
M  V30 3947 H 383.28 -3.4067 2.05399 0
M  V30 3948 H 380.019 -4.35777 4.89672 0
M  V30 3949 H 379.539 -5.00203 3.30994 0
M  V30 3950 H 381.218 -5.17961 3.87718 0
M  V30 3951 N 381.35 -0.985608 -1.22978 0
M  V30 3952 C 382.599 -0.652881 -1.90841 0
M  V30 3953 C 382.912 0.817842 -1.77681 0
M  V30 3954 O 384.118 1.26185 -2.40395 0
M  V30 3955 C 382.574 -1.11717 -3.42122 0
M  V30 3956 C 382.182 -2.6126 -3.63933 0
M  V30 3957 C 383.926 -0.85843 -4.1573 0
M  V30 3958 C 381.833 -3.0133 -5.08876 0
M  V30 3959 H 380.763 -0.240491 -0.714619 0
M  V30 3960 H 383.414 -1.1942 -1.39324 0
M  V30 3961 H 381.796 -0.504027 -3.92779 0
M  V30 3962 H 382.97 -3.27858 -3.23799 0
M  V30 3963 H 381.285 -2.84937 -3.03644 0
M  V30 3964 H 383.882 -1.13359 -5.22546 0
M  V30 3965 H 384.225 0.205461 -4.15793 0
M  V30 3966 H 384.758 -1.43341 -3.71077 0
M  V30 3967 H 381.497 -4.06864 -5.13947 0
M  V30 3968 H 381.017 -2.3943 -5.49939 0
M  V30 3969 H 382.696 -2.92224 -5.77247 0
M  V30 3970 N 382.828 1.3818 -0.7579 0
M  V30 3971 C 383.776 2.32277 -0.122482 0
M  V30 3972 C 384.77 1.54238 0.700505 0
M  V30 3973 O 385.976 1.69737 0.599119 0
M  V30 3974 H 382.351 0.751712 -0.0208143 0
M  V30 3975 H 384.322 2.83469 -0.932099 0
M  V30 3976 C 383.071 3.39447 0.753076 0
M  V30 3977 H 382.394 3.99591 0.129184 0
M  V30 3978 H 383.834 4.07684 1.16489 0
M  V30 3979 C 382.293 2.78375 1.8976 0
M  V30 3980 O 382.823 2.68025 2.99208 0
M  V30 3981 N 381.029 2.36121 1.69397 0
M  V30 3982 H 380.576 2.4474 0.803762 0
M  V30 3983 H 380.534 1.95602 2.46145 0
M  V30 3984 N 384.306 0.507319 1.49211 0
M  V30 3985 C 385.531 -0.033725 2.07373 0
M  V30 3986 C 385.956 -1.29485 1.36437 0
M  V30 3987 O 385.314 -1.76294 0.423087 0
M  V30 3988 C 385.362 -0.263945 3.59633 0
M  V30 3989 O 384.466 -1.33737 3.90113 0
M  V30 3990 H 383.807 0.0290331 0.663365 0
M  V30 3991 H 386.337 0.708749 1.91932 0
M  V30 3992 H 386.347 -0.493536 4.05004 0
M  V30 3993 H 385.022 0.657424 4.10671 0
M  V30 3994 H 383.599 -1.09224 3.56545 0
M  V30 3995 N 385.784 -1.5574 0.241426 0
M  V30 3996 C 387.012 -2.03208 -0.389134 0
M  V30 3997 C 387.427 -1.12082 -1.51931 0
M  V30 3998 O 386.784 -0.134183 -1.82006 0
M  V30 3999 C 386.835 -3.50064 -0.902087 0
M  V30 4000 O 386.556 -4.37717 0.18305 0
M  V30 4001 C 388.057 -4.13268 -1.60389 0
M  V30 4002 H 385.277 -0.664509 -0.0931053 0
M  V30 4003 H 387.821 -2.0124 0.36369 0
M  V30 4004 H 385.976 -3.52583 -1.60511 0
M  V30 4005 H 386.39 -5.24097 -0.205579 0
M  V30 4006 H 387.864 -5.17733 -1.91458 0
M  V30 4007 H 388.341 -3.59434 -2.52397 0
M  V30 4008 H 388.947 -4.14655 -0.945576 0
M  V30 4009 N 387.262 0.0317525 -1.57568 0
M  V30 4010 C 388.192 1.03274 -2.0942 0
M  V30 4011 C 389.173 1.3788 -0.996143 0
M  V30 4012 O 390.358 1.46811 -1.27122 0
M  V30 4013 C 387.488 2.33448 -2.57137 0
M  V30 4014 C 386.442 2.13091 -3.71182 0
M  V30 4015 C 385.768 3.49001 -4.05095 0
M  V30 4016 C 387.068 1.51928 -4.99715 0
M  V30 4017 H 388.762 0.60112 -2.93303 0
M  V30 4018 H 386.308 0.287705 -1.41097 0
M  V30 4019 H 388.261 3.03802 -2.92032 0
M  V30 4020 H 386.985 2.78665 -1.70333 0
M  V30 4021 H 385.644 1.45171 -3.36632 0
M  V30 4022 H 385.292 3.91862 -3.15362 0
M  V30 4023 H 384.992 3.36207 -4.81911 0
M  V30 4024 H 386.516 4.20721 -4.42522 0
M  V30 4025 H 387.93 2.12196 -5.32584 0
M  V30 4026 H 386.327 1.49716 -5.81124 0
M  V30 4027 H 387.397 0.484811 -4.8247 0
M  V30 4028 N 388.74 1.54641 0.303973 0
M  V30 4029 C 389.988 1.73437 1.0375 0
M  V30 4030 C 390.309 0.521449 1.87899 0
M  V30 4031 O 389.579 -0.46432 1.90318 0
M  V30 4032 H 388.159 0.639518 0.386039 0
M  V30 4033 H 390.821 1.91988 0.335675 0
M  V30 4034 H 389.917 2.62235 1.69231 0
M  V30 4035 N 390.218 -0.567019 1.47046 0
M  V30 4036 C 391.165 -1.67489 1.58796 0
M  V30 4037 C 392.135 -1.60399 0.43144 0
M  V30 4038 O 393.32 -1.79378 0.650233 0
M  V30 4039 C 390.46 -3.05821 1.59899 0
M  V30 4040 C 389.573 -3.2342 2.86397 0
M  V30 4041 C 388.708 -4.52093 2.789 0
M  V30 4042 C 387.747 -4.6309 4.00267 0
M  V30 4043 N 386.884 -5.83106 3.91064 0
M  V30 4044 H 391.724 -1.56785 2.53422 0
M  V30 4045 H 389.261 -0.763896 1.2571 0
M  V30 4046 H 391.219 -3.8591 1.58522 0
M  V30 4047 H 389.849 -3.15384 0.687929 0
M  V30 4048 H 388.901 -2.3683 2.97684 0
M  V30 4049 H 390.213 -3.27412 3.76301 0
M  V30 4050 H 389.367 -5.4043 2.75718 0
M  V30 4051 H 388.106 -4.50565 1.86662 0
M  V30 4052 H 387.111 -3.73168 4.03765 0
M  V30 4053 H 388.336 -4.66386 4.93621 0
M  V30 4054 H 386.282 -5.82546 3.01623 0
M  V30 4055 H 386.199 -5.88434 4.74638 0
M  V30 4056 H 387.467 -6.73831 3.91882 0
M  V30 4057 N 391.696 -1.35014 -0.812953 0
M  V30 4058 C 392.659 -1.27292 -1.90602 0
M  V30 4059 C 393.659 -0.185817 -1.59723 0
M  V30 4060 O 394.849 -0.439102 -1.68575 0
M  V30 4061 C 391.981 -0.967676 -3.26877 0
M  V30 4062 H 393.174 -2.24479 -1.9887 0
M  V30 4063 H 390.727 -1.19446 -1.00808 0
M  V30 4064 H 391.462 0.0005954 -3.243 0
M  V30 4065 H 391.247 -1.75412 -3.50675 0
M  V30 4066 H 392.737 -0.939085 -4.06904 0
M  V30 4067 N 393.175 1.03435 -1.18907 0
M  V30 4068 C 394.105 2.13503 -0.945448 0
M  V30 4069 C 395.086 1.69682 0.119189 0
M  V30 4070 O 396.271 1.94169 -0.034707 0
M  V30 4071 C 393.401 3.44004 -0.477316 0
M  V30 4072 C 392.355 4.0148 -1.48316 0
M  V30 4073 C 391.681 5.27537 -0.872311 0
M  V30 4074 C 392.981 4.36921 -2.86177 0
M  V30 4075 H 394.675 2.34141 -1.86597 0
M  V30 4076 H 392.221 1.12523 -0.898584 0
M  V30 4077 H 394.174 4.20372 -0.294204 0
M  V30 4078 H 392.898 3.23072 0.478786 0
M  V30 4079 H 391.557 3.27201 -1.65332 0
M  V30 4080 H 391.205 5.02917 0.0911752 0
M  V30 4081 H 390.905 5.66954 -1.54393 0
M  V30 4082 H 392.429 6.06576 -0.699871 0
M  V30 4083 H 393.843 5.04248 -2.72776 0
M  V30 4084 H 392.24 4.87405 -3.50081 0
M  V30 4085 H 393.31 3.46466 -3.39248 0
M  V30 4086 N 394.653 0.992116 1.22453 0
M  V30 4087 C 395.901 0.666215 1.90804 0
M  V30 4088 C 396.222 -0.804152 1.77647 0
M  V30 4089 O 395.492 -1.57629 1.16318 0
M  V30 4090 H 394.072 0.243423 0.706225 0
M  V30 4091 H 396.734 1.25845 1.48825 0
M  V30 4092 H 395.83 0.928069 2.97982 0
M  V30 4093 N 396.131 -1.37776 0.765217 0
M  V30 4094 C 397.379 -1.99454 0.325943 0
M  V30 4095 C 397.7 -1.61049 -1.09947 0
M  V30 4096 O 396.97 -0.872821 -1.75381 0
M  V30 4097 H 395.55 -0.737697 0.117525 0
M  V30 4098 H 398.212 -1.68359 0.981895 0
M  V30 4099 H 397.308 -3.09547 0.398353 0
M  V30 4100 N 397.609 -0.515225 -1.4894 0
M  V30 4101 C 398.572 0.244681 -2.2789 0
M  V30 4102 C 399.572 0.881166 -1.34507 0
M  V30 4103 O 400.762 0.743497 -1.57537 0
M  V30 4104 C 397.894 1.35247 -3.12923 0
M  V30 4105 H 399.087 -0.448289 -2.96531 0
M  V30 4106 H 396.64 -0.270656 -1.53939 0
M  V30 4107 H 397.375 2.07916 -2.48881 0
M  V30 4108 H 397.16 0.901374 -3.81599 0
M  V30 4109 H 398.65 1.88737 -3.72516 0
M  V30 4110 N 399.087 1.5561 -0.249682 0
M  V30 4111 C 400.312 2.03865 0.381305 0
M  V30 4112 C 400.737 1.12769 1.50548 0
M  V30 4113 O 400.095 0.121189 1.80895 0
M  V30 4114 C 400.143 3.50101 0.863816 0
M  V30 4115 O 399.247 3.62132 1.97318 0
M  V30 4116 H 398.588 0.658827 0.0827194 0
M  V30 4117 H 401.118 2.01105 -0.376552 0
M  V30 4118 H 401.128 3.90975 1.1663 0
M  V30 4119 H 399.803 4.1588 0.0411816 0
M  V30 4120 H 398.38 3.33155 1.67517 0
M  V30 4121 N 400.565 -0.0233959 1.57583 0
M  V30 4122 C 401.813 -0.711654 1.89156 0
M  V30 4123 C 402.134 -1.75591 0.848096 0
M  V30 4124 O 401.404 -1.95547 -0.117566 0
M  V30 4125 H 399.984 -0.265835 0.698098 0
M  V30 4126 H 402.646 0.0119948 1.94896 0
M  V30 4127 H 401.742 -1.19766 2.88206 0
M  V30 4128 N 402.043 -1.548 -0.295768 0
M  V30 4129 C 403.291 -1.73985 -1.02828 0
M  V30 4130 C 403.612 -0.531406 -1.87619 0
M  V30 4131 O 402.882 0.454221 -1.90561 0
M  V30 4132 H 401.462 -0.641556 -0.382642 0
M  V30 4133 H 404.124 -1.92163 -0.325489 0
M  V30 4134 H 403.22 -2.63129 -1.67838 0
M  V30 4135 N 403.521 0.559213 -1.47345 0
M  V30 4136 C 404.751 1.33999 -1.57251 0
M  V30 4137 C 405.159 1.87905 -0.220978 0
M  V30 4138 O 404.502 1.65577 0.795617 0
M  V30 4139 C 404.564 2.54798 -2.53611 0
M  V30 4140 C 404.228 2.22192 -3.99349 0
M  V30 4141 C 405.225 1.79607 -4.87891 0
M  V30 4142 C 402.91 2.33613 -4.44669 0
M  V30 4143 C 404.904 1.48868 -6.19772 0
M  V30 4144 C 402.591 2.02487 -5.76578 0
M  V30 4145 C 403.589 1.60183 -6.63951 0
M  V30 4146 O 403.277 1.29451 -7.93409 0
M  V30 4147 H 403.009 0.414858 -0.533731 0
M  V30 4148 H 405.563 0.684465 -1.9366 0
M  V30 4149 H 403.793 3.23235 -2.12265 0
M  V30 4150 H 405.482 3.16873 -2.53666 0
M  V30 4151 H 406.248 1.70278 -4.54126 0
M  V30 4152 H 402.127 2.65501 -3.76869 0
M  V30 4153 H 405.671 1.15775 -6.87926 0
M  V30 4154 H 401.568 2.11448 -6.09885 0
M  V30 4155 H 402.336 1.43098 -8.05894 0
M  V30 4156 N 404.999 1.35443 0.805782 0
M  V30 4157 C 406.227 1.31878 1.59423 0
M  V30 4158 C 406.642 -0.103562 1.88516 0
M  V30 4159 O 405.999 -1.05575 1.48863 0
M  V30 4160 C 406.05 2.12426 2.92502 0
M  V30 4161 O 405.771 3.49115 2.6467 0
M  V30 4162 C 407.272 2.16455 3.86862 0
M  V30 4163 H 404.492 0.453002 0.495005 0
M  V30 4164 H 407.036 1.78309 1.00131 0
M  V30 4165 H 405.191 1.69593 3.48306 0
M  V30 4166 H 405.605 3.90957 3.49647 0
M  V30 4167 H 407.079 2.77204 4.77349 0
M  V30 4168 H 407.556 1.16352 4.23508 0
M  V30 4169 H 408.162 2.59453 3.36993 0
M  V30 4170 N 406.477 -1.02803 1.19454 0
M  V30 4171 C 407.705 -1.79841 1.02297 0
M  V30 4172 C 408.12 -1.83879 -0.428259 0
M  V30 4173 O 407.477 -1.28345 -1.29745 0
M  V30 4174 C 407.528 -3.24852 1.58598 0
M  V30 4175 O 407.249 -3.21097 2.98041 0
M  V30 4176 C 408.75 -4.18485 1.46236 0
M  V30 4177 H 405.97 -0.565936 0.360496 0
M  V30 4178 H 408.514 -1.2948 1.58288 0
M  V30 4179 H 406.669 -3.72401 1.06753 0
M  V30 4180 H 407.083 -4.12033 3.24545 0
M  V30 4181 H 408.557 -5.18121 1.90407 0
M  V30 4182 H 409.034 -4.37254 0.41301 0
M  V30 4183 H 409.64 -3.76811 1.97215 0
M  V30 4184 N 407.956 -0.998596 -1.21925 0
M  V30 4185 C 409.204 -0.676325 -1.90448 0
M  V30 4186 C 409.525 0.794719 -1.78071 0
M  V30 4187 O 408.795 1.5701 -1.17152 0
M  V30 4188 H 407.375 -0.247165 -0.704925 0
M  V30 4189 H 410.037 -1.26633 -1.48156 0
M  V30 4190 H 409.133 -0.943858 -2.97486 0
M  V30 4191 N 409.434 1.37368 -0.772513 0
M  V30 4192 C 410.845 1.8231 -0.402493 0
M  V30 4193 C 411.196 1.6436 1.07146 0
M  V30 4194 O 410.321 1.15514 1.82991 0
M  V30 4195 C 410.916 3.30979 -0.723776 0
M  V30 4196 C 409.475 3.74195 -0.406802 0
M  V30 4197 C 408.622 2.59885 -0.967218 0
M  V30 4198 H 411.573 1.25829 -0.967099 0
M  V30 4199 H 411.594 3.80499 -0.00870832 0
M  V30 4200 H 411.106 3.44011 -1.7966 0
M  V30 4201 H 409.207 3.66732 0.658673 0
M  V30 4202 H 409.32 4.7027 -0.915588 0
M  V30 4203 H 407.684 2.51674 -0.391416 0
M  V30 4204 H 408.467 2.7571 -2.04546 0
M  V30 4205 N 410.912 0.523116 1.48665 0
M  V30 4206 C 412.16 -0.0134497 2.02096 0
M  V30 4207 C 412.481 -1.35418 1.40311 0
M  V30 4208 O 411.751 -1.87543 0.566074 0
M  V30 4209 H 410.331 -0.00795915 0.746958 0
M  V30 4210 H 412.993 0.685388 1.82451 0
M  V30 4211 H 412.089 -0.126849 3.11842 0
M  V30 4212 N 412.39 -1.55475 0.257931 0
M  V30 4213 C 413.801 -1.8511 -0.243135 0
M  V30 4214 C 414.152 -1.17986 -1.5676 0
M  V30 4215 O 413.277 -0.462102 -2.11409 0
M  V30 4216 C 413.872 -3.35826 -0.447929 0
M  V30 4217 C 412.431 -3.65647 -0.893245 0
M  V30 4218 C 411.578 -2.7729 0.0232965 0
M  V30 4219 H 414.529 -1.51261 0.480199 0
M  V30 4220 H 414.55 -3.58002 -1.28898 0
M  V30 4221 H 414.062 -3.84652 0.516196 0
M  V30 4222 H 412.163 -3.22308 -1.86945 0
M  V30 4223 H 412.276 -4.73312 -0.742469 0
M  V30 4224 H 410.64 -2.49942 -0.490021 0
M  V30 4225 H 411.423 -3.28926 0.982994 0
M  V30 4226 N 413.868 0.0150385 -1.57593 0
M  V30 4227 C 414.798 1.01047 -2.10503 0
M  V30 4228 C 415.779 1.36816 -1.01071 0
M  V30 4229 O 416.964 1.45455 -1.28672 0
M  V30 4230 C 414.094 2.30708 -2.59598 0
M  V30 4231 C 413.048 2.09142 -3.73421 0
M  V30 4232 C 412.374 3.44685 -4.08774 0
M  V30 4233 C 413.674 1.46619 -5.01298 0
M  V30 4234 H 415.368 0.569978 -2.93925 0
M  V30 4235 H 412.914 0.272724 -1.41394 0
M  V30 4236 H 414.867 3.00687 -2.95238 0
M  V30 4237 H 413.591 2.76843 -1.73279 0
M  V30 4238 H 412.25 1.41592 -3.38153 0
M  V30 4239 H 411.898 3.88495 -3.195 0
M  V30 4240 H 411.598 3.31077 -4.8545 0
M  V30 4241 H 413.122 4.16004 -4.4696 0
M  V30 4242 H 414.536 2.06535 -5.34805 0
M  V30 4243 H 412.933 1.43544 -5.82679 0
M  V30 4244 H 414.003 0.433611 -4.82957 0
M  V30 4245 N 415.346 1.54954 0.287554 0
M  V30 4246 C 416.592 1.75132 1.02257 0
M  V30 4247 C 416.925 0.542858 1.86458 0
M  V30 4248 O 416.2 -0.459856 1.88986 0
M  V30 4249 C 416.483 3.04812 1.91733 0
M  V30 4250 C 416.336 4.35985 1.10622 0
M  V30 4251 C 417.655 3.30438 2.90687 0
M  V30 4252 H 414.774 0.637194 0.370341 0
M  V30 4253 H 417.416 1.87678 0.296111 0
M  V30 4254 H 415.566 2.94247 2.53675 0
M  V30 4255 H 417.238 4.58487 0.508636 0
M  V30 4256 H 415.481 4.31865 0.409271 0
M  V30 4257 H 416.152 5.23017 1.76513 0
M  V30 4258 H 418.628 3.40701 2.38877 0
M  V30 4259 H 417.504 4.22467 3.50447 0
M  V30 4260 H 417.765 2.49377 3.65053 0
M  V30 4261 N 416.824 -0.551391 1.4764 0
M  V30 4262 C 418.049 -1.33837 1.58437 0
M  V30 4263 C 418.474 -1.866 0.237063 0
M  V30 4264 O 417.832 -1.6328 -0.787994 0
M  V30 4265 C 417.88 -2.48014 2.61766 0
M  V30 4266 O 416.984 -3.50419 2.1744 0
M  V30 4267 H 416.325 -0.397299 0.532024 0
M  V30 4268 H 418.855 -0.665759 1.93465 0
M  V30 4269 H 418.865 -2.94503 2.82369 0
M  V30 4270 H 417.54 -2.08969 3.5959 0
M  V30 4271 H 416.117 -3.10196 2.06961 0
M  V30 4272 N 418.302 -1.35869 -0.798587 0
M  V30 4273 C 419.232 -1.32118 -1.92528 0
M  V30 4274 C 420.213 -0.194209 -1.68988 0
M  V30 4275 O 421.398 -0.390426 -1.90235 0
M  V30 4276 C 418.528 -1.10047 -3.29404 0
M  V30 4277 C 417.482 -2.19471 -3.67446 0
M  V30 4278 C 416.808 -1.82555 -5.02571 0
M  V30 4279 C 418.108 -3.61495 -3.76987 0
M  V30 4280 H 419.802 -2.26394 -1.95924 0
M  V30 4281 H 417.348 -1.08981 -0.94123 0
M  V30 4282 H 419.301 -1.06061 -4.07835 0
M  V30 4283 H 418.025 -0.122195 -3.26371 0
M  V30 4284 H 416.684 -2.22568 -2.91306 0
M  V30 4285 H 416.332 -0.833249 -4.9605 0
M  V30 4286 H 416.032 -2.5581 -5.28995 0
M  V30 4287 H 417.556 -1.80108 -5.83432 0
M  V30 4288 H 418.97 -3.60676 -4.4563 0
M  V30 4289 H 417.367 -4.33577 -4.14887 0
M  V30 4290 H 418.437 -3.97065 -2.78329 0
M  V30 4291 N 419.78 1.02168 -1.19998 0
M  V30 4292 C 420.71 2.12488 -0.96804 0
M  V30 4293 C 421.691 1.69799 0.101185 0
M  V30 4294 O 422.876 1.94121 -0.0552993 0
M  V30 4295 C 420.006 3.43479 -0.513776 0
M  V30 4296 C 418.96 3.99884 -1.52566 0
M  V30 4297 C 418.286 5.26582 -0.928214 0
M  V30 4298 C 419.586 4.33861 -2.90795 0
M  V30 4299 H 421.28 2.32149 -1.89069 0
M  V30 4300 H 418.826 1.11564 -0.910468 0
M  V30 4301 H 420.779 4.20036 -0.338774 0
M  V30 4302 H 419.503 3.23561 0.444493 0
M  V30 4303 H 418.162 3.25429 -1.68794 0
M  V30 4304 H 417.81 5.02986 0.0378289 0
M  V30 4305 H 417.51 5.65284 -1.60397 0
M  V30 4306 H 419.034 6.05799 -0.764167 0
M  V30 4307 H 420.448 5.01327 -2.78109 0
M  V30 4308 H 418.845 4.83664 -3.55231 0
M  V30 4309 H 419.915 3.42848 -3.42904 0
M  V30 4310 N 421.258 1.00505 1.21394 0
M  V30 4311 C 422.674 0.717873 1.42544 0
M  V30 4312 C 422.874 -0.706936 1.88692 0
M  V30 4313 O 421.93 -1.47627 2.04847 0
M  V30 4314 C 423.243 1.73377 2.45684 0
M  V30 4315 C 424.791 1.75059 2.59467 0
M  V30 4316 C 425.266 2.75545 3.6584 0
M  V30 4317 N 426.757 2.74213 3.73311 0
M  V30 4318 C 427.492 3.48626 4.55245 0
M  V30 4319 N 426.988 4.32678 5.41075 0
M  V30 4320 N 428.781 3.37276 4.49668 0
M  V30 4321 H 420.932 1.92506 0.897503 0
M  V30 4322 H 423.195 0.830919 0.456375 0
M  V30 4323 H 422.901 2.75395 2.18748 0
M  V30 4324 H 422.775 1.53647 3.44489 0
M  V30 4325 H 425.162 0.737337 2.8574 0
M  V30 4326 H 425.243 1.98861 1.60897 0
M  V30 4327 H 424.887 3.77028 3.40313 0
M  V30 4328 H 424.817 2.49009 4.64007 0
M  V30 4329 H 427.308 2.13234 3.11993 0
M  V30 4330 H 427.621 4.86253 6.00648 0
M  V30 4331 H 425.966 4.3676 5.40616 0
M  V30 4332 H 429.157 2.71043 3.81646 0
M  V30 4333 H 429.33 3.95524 5.13288 0
M  V30 4334 N 422.737 -1.36956 0.779787 0
M  V30 4335 C 423.669 -2.28833 0.129639 0
M  V30 4336 C 424.682 -1.4902 -0.655511 0
M  V30 4337 O 425.871 -1.71578 -0.492279 0
M  V30 4338 C 422.971 -3.2833 -0.839792 0
M  V30 4339 C 422.144 -4.3727 -0.10675 0
M  V30 4340 C 421.203 -5.16789 -0.990717 0
M  V30 4341 O 420.229 -5.67406 -0.451516 0
M  V30 4342 N 421.431 -5.32294 -2.3161 0
M  V30 4343 H 424.196 -2.85268 0.918803 0
M  V30 4344 H 421.757 -1.49019 0.632841 0
M  V30 4345 H 423.749 -3.78413 -1.43477 0
M  V30 4346 H 422.319 -2.72605 -1.52988 0
M  V30 4347 H 421.539 -3.88478 0.669216 0
M  V30 4348 H 422.827 -5.07229 0.399464 0
M  V30 4349 H 422.225 -4.92768 -2.77843 0
M  V30 4350 H 420.782 -5.85656 -2.86095 0
M  V30 4351 N 424.215 -0.530993 -1.48385 0
M  V30 4352 C 425.631 -0.188919 -1.58478 0
M  V30 4353 C 425.831 1.30786 -1.53288 0
M  V30 4354 O 424.887 2.08619 -1.42248 0
M  V30 4355 C 426.2 -0.792343 -2.90073 0
M  V30 4356 C 427.748 -0.76117 -3.03604 0
M  V30 4357 C 428.223 -1.34319 -4.37861 0
M  V30 4358 N 429.714 -1.3052 -4.44431 0
M  V30 4359 C 430.449 -1.72543 -5.46824 0
M  V30 4360 N 429.945 -2.22299 -6.56167 0
M  V30 4361 N 431.738 -1.63773 -5.37712 0
M  V30 4362 H 423.889 -1.50377 -1.50002 0
M  V30 4363 H 426.152 -0.625559 -0.712306 0
M  V30 4364 H 425.858 -1.84323 -2.99529 0
M  V30 4365 H 425.732 -0.270026 -3.76232 0
M  V30 4366 H 428.119 0.280957 -2.93759 0
M  V30 4367 H 428.2 -1.32097 -2.19053 0
M  V30 4368 H 427.844 -2.38425 -4.4846 0
M  V30 4369 H 427.774 -0.759064 -5.21101 0
M  V30 4370 H 430.265 -0.940973 -3.65997 0
M  V30 4371 H 430.578 -2.52356 -7.30436 0
M  V30 4372 H 428.923 -2.26293 -6.57127 0
M  V30 4373 H 432.114 -1.24698 -4.51185 0
M  V30 4374 H 432.287 -1.96844 -6.17379 0
M  V30 4375 N 425.693 1.55336 -0.266172 0
M  V30 4376 C 426.656 2.20878 0.612001 0
M  V30 4377 C 427.656 1.18388 1.08816 0
M  V30 4378 O 428.846 1.4335 0.989774 0
M  V30 4379 C 425.978 2.86765 1.84332 0
M  V30 4380 H 427.171 2.99873 0.0398718 0
M  V30 4381 H 424.724 1.56291 -0.0167309 0
M  V30 4382 H 425.459 2.11759 2.45619 0
M  V30 4383 H 425.244 3.61862 1.5099 0
M  V30 4384 H 426.734 3.36867 2.46801 0
M  V30 4385 N 427.171 -0.0066808 1.57599 0
M  V30 4386 C 428.587 -0.36267 1.55425 0
M  V30 4387 C 428.787 -1.75209 0.995187 0
M  V30 4388 O 427.843 -2.44616 0.626058 0
M  V30 4389 C 429.156 -0.244017 2.99708 0
M  V30 4390 C 430.704 -0.319451 3.11366 0
M  V30 4391 C 431.179 -0.229998 4.57422 0
M  V30 4392 N 432.67 -0.288105 4.62303 0
M  V30 4393 C 433.405 -0.242127 5.72889 0
M  V30 4394 N 432.901 -0.147133 6.92644 0
M  V30 4395 N 434.694 -0.293502 5.61333 0
M  V30 4396 H 426.845 0.902314 1.92281 0
M  V30 4397 H 429.108 0.34525 0.882896 0
M  V30 4398 H 428.814 0.711678 3.44424 0
M  V30 4399 H 428.688 -1.02877 3.629 0
M  V30 4400 H 431.075 -1.26559 2.66584 0
M  V30 4401 H 431.156 0.495055 2.50964 0
M  V30 4402 H 430.8 0.712566 5.02877 0
M  V30 4403 H 430.73 -1.0629 5.15761 0
M  V30 4404 H 433.221 -0.363126 3.76151 0
M  V30 4405 H 433.534 -0.117763 7.7271 0
M  V30 4406 H 431.879 -0.112857 6.94908 0
M  V30 4407 H 435.07 -0.365864 4.66668 0
M  V30 4408 H 435.243 -0.254204 6.47501 0
M  V30 4409 N 428.649 -1.55105 -0.279332 0
M  V30 4410 C 430.06 -1.66186 -0.850832 0
M  V30 4411 C 430.411 -0.584707 -1.87285 0
M  V30 4412 O 429.536 0.274919 -2.14647 0
M  V30 4413 C 430.131 -3.01264 -1.55001 0
M  V30 4414 C 428.69 -3.14394 -2.06963 0
M  V30 4415 C 427.837 -2.61959 -0.909536 0
M  V30 4416 H 430.788 -1.58602 -0.0558235 0
M  V30 4417 H 430.809 -2.93899 -2.41669 0
M  V30 4418 H 430.321 -3.7964 -0.805931 0
M  V30 4419 H 428.422 -2.4078 -2.84352 0
M  V30 4420 H 428.535 -4.20867 -2.28928 0
M  V30 4421 H 426.899 -2.18957 -1.30116 0
M  V30 4422 H 427.682 -3.42833 -0.179062 0
M  V30 4423 N 430.127 0.543554 -1.4793 0
M  V30 4424 C 431.357 1.32324 -1.58663 0
M  V30 4425 C 431.765 1.8766 -0.240896 0
M  V30 4426 O 431.108 1.66411 0.778011 0
M  V30 4427 C 431.17 2.52094 -2.56299 0
M  V30 4428 C 430.834 2.17944 -4.01683 0
M  V30 4429 C 431.831 1.74422 -4.89768 0
M  V30 4430 C 429.516 2.28884 -4.47121 0
M  V30 4431 C 431.51 1.42287 -6.21316 0
M  V30 4432 C 429.197 1.96361 -5.78693 0
M  V30 4433 C 430.195 1.53132 -6.65612 0
M  V30 4434 O 429.883 1.21029 -7.94737 0
M  V30 4435 H 429.615 0.409174 -0.538101 0
M  V30 4436 H 432.169 0.663887 -1.94375 0
M  V30 4437 H 430.399 3.20965 -2.15681 0
M  V30 4438 H 432.088 3.14165 -2.57012 0
M  V30 4439 H 432.854 1.65452 -4.55907 0
M  V30 4440 H 428.733 2.61488 -3.79664 0
M  V30 4441 H 432.277 1.08472 -6.89115 0
M  V30 4442 H 428.174 2.04967 -6.12094 0
M  V30 4443 H 428.942 1.34543 -8.07366 0
M  V30 4444 N 431.605 1.3629 0.791371 0
M  V30 4445 C 432.535 1.33137 1.91825 0
M  V30 4446 C 433.516 0.203168 1.68882 0
M  V30 4447 O 434.701 0.400509 1.90025 0
M  V30 4448 C 431.831 1.11793 3.28816 0
M  V30 4449 C 430.785 2.21417 3.66277 0
M  V30 4450 C 430.111 1.85218 5.01596 0
M  V30 4451 C 431.411 3.63489 3.75064 0
M  V30 4452 H 433.105 2.2743 1.9472 0
M  V30 4453 H 430.651 1.09479 0.935437 0
M  V30 4454 H 432.604 1.08222 4.07266 0
M  V30 4455 H 431.328 0.139501 3.26302 0
M  V30 4456 H 429.987 2.2411 2.90121 0
M  V30 4457 H 429.635 0.859544 4.95602 0
M  V30 4458 H 429.335 2.58611 5.27631 0
M  V30 4459 H 430.859 1.832 5.82469 0
M  V30 4460 H 432.273 3.63034 4.43711 0
M  V30 4461 H 430.67 4.35771 4.12582 0
M  V30 4462 H 431.74 3.98536 2.76219 0
M  V30 4463 N 433.083 -1.0153 1.20538 0
M  V30 4464 C 434.33 -1.75149 1.01633 0
M  V30 4465 C 434.658 -1.89189 -0.451399 0
M  V30 4466 O 433.913 -1.41551 -1.35136 0
M  V30 4467 C 434.212 -3.17213 1.64654 0
M  V30 4468 C 433.878 -3.23146 3.14464 0
M  V30 4469 C 432.54 -3.24472 3.55347 0
M  V30 4470 C 434.892 -3.21207 4.10458 0
M  V30 4471 C 432.22 -3.21532 4.90748 0
M  V30 4472 C 434.572 -3.19808 5.45807 0
M  V30 4473 C 433.236 -3.19439 5.86102 0
M  V30 4474 H 432.506 -0.640914 0.3719 0
M  V30 4475 H 435.153 -1.19071 1.49981 0
M  V30 4476 H 433.458 -3.76457 1.08571 0
M  V30 4477 H 435.155 -3.72871 1.4754 0
M  V30 4478 H 431.745 -3.2285 2.81897 0
M  V30 4479 H 435.929 -3.19351 3.79906 0
M  V30 4480 H 431.185 -3.19578 5.21229 0
M  V30 4481 H 435.359 -3.1726 6.19935 0
M  V30 4482 H 432.986 -3.16915 6.90991 0
M  V30 4483 N 434.561 -1.01147 -1.20859 0
M  V30 4484 C 435.786 -0.716698 -1.94623 0
M  V30 4485 C 436.211 0.715415 -1.73964 0
M  V30 4486 O 435.569 1.49157 -1.03062 0
M  V30 4487 C 435.617 -1.0513 -3.44935 0
M  V30 4488 O 434.721 -0.160131 -4.12089 0
M  V30 4489 H 434.062 -0.266404 -0.608214 0
M  V30 4490 H 436.592 -1.35346 -1.53436 0
M  V30 4491 H 436.602 -1.00086 -3.95533 0
M  V30 4492 H 435.277 -2.09475 -3.59295 0
M  V30 4493 H 433.854 -0.267657 -3.71938 0
M  V30 4494 N 436.039 1.36541 -0.78704 0
M  V30 4495 C 436.987 2.31965 -0.171724 0
M  V30 4496 C 437.981 1.55689 0.667631 0
M  V30 4497 O 439.187 1.70969 0.562981 0
M  V30 4498 H 435.562 0.751101 -0.0367545 0
M  V30 4499 H 437.533 2.81428 -0.992017 0
M  V30 4500 C 436.282 3.40968 0.680904 0
M  V30 4501 H 435.605 3.99775 0.0443961 0
M  V30 4502 H 437.045 4.10063 1.07815 0
M  V30 4503 C 435.504 2.82338 1.83813 0
M  V30 4504 O 436.034 2.74311 2.93456 0
M  V30 4505 N 434.24 2.39661 1.6435 0
M  V30 4506 H 433.787 2.46389 0.751668 0
M  V30 4507 H 433.745 2.00779 2.4194 0
M  V30 4508 N 437.518 0.538854 1.48102 0
M  V30 4509 C 438.743 0.0102694 2.07397 0
M  V30 4510 C 439.168 -1.26562 1.39153 0
M  V30 4511 O 438.526 -1.75357 0.460387 0
M  V30 4512 C 438.574 -0.187602 3.60112 0
M  V30 4513 O 437.678 -1.25432 3.92862 0
M  V30 4514 H 437.019 0.0430975 0.6626 0
M  V30 4515 H 439.549 0.749301 1.90385 0
M  V30 4516 H 439.559 -0.407517 4.0596 0
M  V30 4517 H 438.234 0.744386 4.09184 0
M  V30 4518 H 436.811 -1.01636 3.58782 0
M  V30 4519 N 438.996 -1.55193 0.274407 0
M  V30 4520 C 439.926 -2.25471 -0.607032 0
M  V30 4521 C 440.907 -1.24461 -1.15946 0
M  V30 4522 O 442.092 -1.53179 -1.19373 0
M  V30 4523 C 439.222 -2.97526 -1.79153 0
M  V30 4524 C 438.176 -4.05459 -1.37067 0
M  V30 4525 C 437.502 -4.65084 -2.6382 0
M  V30 4526 C 438.802 -5.19691 -0.521389 0
M  V30 4527 H 440.496 -2.99393 -0.0209343 0
M  V30 4528 H 438.042 -1.43997 -0.00862866 0
M  V30 4529 H 439.995 -3.45402 -2.41404 0
M  V30 4530 H 438.719 -2.21138 -2.40344 0
M  V30 4531 H 437.378 -3.58393 -0.771355 0
M  V30 4532 H 437.026 -3.85365 -3.23268 0
M  V30 4533 H 436.726 -5.37961 -2.36372 0
M  V30 4534 H 438.25 -5.15708 -3.26921 0
M  V30 4535 H 439.664 -5.63623 -1.04889 0
M  V30 4536 H 438.061 -5.99126 -0.341825 0
M  V30 4537 H 439.131 -4.82713 0.46 0
M  V30 4538 N 440.474 -0.00167713 -1.576 0
M  V30 4539 C 441.885 0.54091 -1.78693 0
M  V30 4540 C 442.236 1.7386 -0.909247 0
M  V30 4541 O 441.361 2.16109 -0.112176 0
M  V30 4542 C 441.956 0.98806 -3.24072 0
M  V30 4543 C 440.515 1.47594 -3.46256 0
M  V30 4544 C 439.662 0.42792 -2.73978 0
M  V30 4545 H 442.613 -0.22784 -1.57056 0
M  V30 4546 H 442.634 1.85398 -3.32277 0
M  V30 4547 H 442.146 0.116164 -3.87926 0
M  V30 4548 H 440.247 2.36868 -2.87618 0
M  V30 4549 H 440.36 1.50225 -4.54939 0
M  V30 4550 H 438.724 0.889934 -2.38647 0
M  V30 4551 H 439.507 -0.435038 -3.40532 0
M  V30 4552 N 441.952 1.55251 0.271103 0
M  V30 4553 C 443.363 1.66635 0.842007 0
M  V30 4554 C 443.714 0.594631 1.86972 0
M  V30 4555 O 442.839 -0.263532 2.14789 0
M  V30 4556 C 443.434 3.02082 1.53401 0
M  V30 4557 C 441.993 3.15487 2.05293 0
M  V30 4558 C 441.14 2.62438 0.895631 0
M  V30 4559 H 444.091 1.58629 0.0474117 0
M  V30 4560 H 444.112 2.95176 2.40107 0
M  V30 4561 H 443.624 3.80062 0.785786 0
M  V30 4562 H 441.725 2.42284 2.83071 0
M  V30 4563 H 441.838 4.22075 2.26693 0
M  V30 4564 H 440.202 2.19644 1.28953 0
M  V30 4565 H 440.985 3.42923 0.160878 0
M  V30 4566 N 443.43 -0.535701 1.48216 0
M  V30 4567 C 444.393 -1.623 1.61838 0
M  V30 4568 C 445.393 -1.53087 0.492024 0
M  V30 4569 O 446.583 -1.5686 0.757668 0
M  V30 4570 C 443.715 -3.01907 1.58319 0
M  V30 4571 H 444.908 -1.51564 2.58783 0
M  V30 4572 H 442.461 -0.757317 1.36727 0
M  V30 4573 H 443.196 -3.18155 0.628299 0
M  V30 4574 H 442.981 -3.10003 2.40085 0
M  V30 4575 H 444.471 -3.80969 1.71033 0
M  V30 4576 N 444.908 -1.36708 -0.784132 0
M  V30 4577 C 446.154 -1.31426 -1.54451 0
M  V30 4578 C 446.487 0.10476 -1.93917 0
M  V30 4579 O 445.762 1.05934 -1.6312 0
M  V30 4580 C 446.045 -2.24189 -2.818 0
M  V30 4581 C 445.898 -3.74813 -2.48667 0
M  V30 4582 C 447.217 -2.15626 -3.83658 0
M  V30 4583 H 444.336 -0.478739 -0.560337 0
M  V30 4584 H 446.978 -1.67305 -0.900498 0
M  V30 4585 H 445.128 -1.93722 -3.36755 0
M  V30 4586 H 446.8 -4.15823 -1.99722 0
M  V30 4587 H 445.043 -3.93989 -1.81535 0
M  V30 4588 H 445.714 -4.35138 -3.39646 0
M  V30 4589 H 448.19 -2.42456 -3.38163 0
M  V30 4590 H 447.066 -2.82694 -4.70506 0
M  V30 4591 H 447.327 -1.14522 -4.27009 0
M  V30 4592 N 446.386 1.0089 -1.21074 0
M  V30 4593 C 447.632 1.74866 -1.02712 0
M  V30 4594 C 447.965 1.89178 0.438787 0
M  V30 4595 O 447.24 1.42325 1.32567 0
M  V30 4596 C 447.523 3.16347 -1.72036 0
M  V30 4597 C 447.376 3.09782 -3.26121 0
M  V30 4598 C 448.695 4.15187 -1.45973 0
M  V30 4599 H 445.814 0.634736 -0.374539 0
M  V30 4600 H 448.456 1.17646 -1.49196 0
M  V30 4601 H 446.606 3.65201 -1.32517 0
M  V30 4602 H 448.278 2.68673 -3.74983 0
M  V30 4603 H 446.521 2.46982 -3.56626 0
M  V30 4604 H 447.192 4.09829 -3.6979 0
M  V30 4605 H 449.668 3.75022 -1.80272 0
M  V30 4606 H 448.544 5.12331 -1.96999 0
M  V30 4607 H 448.805 4.40386 -0.388924 0
M  V30 4608 N 447.864 1.01787 1.20321 0
M  V30 4609 C 449.112 0.706538 1.89347 0
M  V30 4610 C 449.433 -0.766289 1.79313 0
M  V30 4611 O 448.703 -1.55126 1.19635 0
M  V30 4612 H 447.283 0.258348 0.700903 0
M  V30 4613 H 449.945 1.28974 1.46122 0
M  V30 4614 H 449.041 0.991066 2.95946 0
M  V30 4615 N 449.342 -1.36122 0.79427 0
M  V30 4616 C 450.582 -2.00942 0.374376 0
M  V30 4617 C 450.946 -1.61666 -1.03577 0
M  V30 4618 O 452.147 -2.19113 -1.55701 0
M  V30 4619 C 450.418 -3.53323 0.538327 0
M  V30 4620 S 451.977 -4.38311 0.20703 0
M  V30 4621 H 448.795 -0.696515 0.142785 0
M  V30 4622 H 451.397 -1.65929 1.03382 0
M  V30 4623 H 450.101 -3.79395 1.56484 0
M  V30 4624 H 449.632 -3.93162 -0.136882 0
M  V30 4625 H 451.647 -4.8623 -0.989695 0
M  V30 4626 N 450.82 -0.546701 -1.47814 0
M  V30 4627 C 451.783 0.196287 -2.28358 0
M  V30 4628 C 452.783 0.852437 -1.36346 0
M  V30 4629 O 453.973 0.709913 -1.59078 0
M  V30 4630 C 451.105 1.28579 -3.15722 0
M  V30 4631 H 452.298 -0.511086 -2.95513 0
M  V30 4632 H 449.851 -0.303248 -1.5333 0
M  V30 4633 H 450.586 2.0259 -2.53235 0
M  V30 4634 H 450.371 0.820229 -3.83425 0
M  V30 4635 H 451.861 1.80793 -3.76435 0
M  V30 4636 N 452.299 1.55045 -0.282633 0
M  V30 4637 C 453.524 2.04628 0.337977 0
M  V30 4638 C 453.949 1.15937 1.48123 0
M  V30 4639 O 453.307 0.159532 1.80597 0
M  V30 4640 C 453.355 3.51854 0.78936 0
M  V30 4641 O 452.459 3.66236 1.89592 0
M  V30 4642 H 451.8 0.660434 0.0687261 0
M  V30 4643 H 454.33 2.00261 -0.419124 0
M  V30 4644 H 454.34 3.93361 1.08311 0
M  V30 4645 H 453.015 4.15873 -0.0470419 0
M  V30 4646 H 451.592 3.36633 1.60413 0
M  V30 4647 N 453.777 0.010035 1.57597 0
M  V30 4648 C 454.724 -0.978122 2.09049 0
M  V30 4649 C 455.694 -1.33509 0.988159 0
M  V30 4650 O 456.879 -1.43172 1.26121 0
M  V30 4651 C 454.019 -2.26158 2.60666 0
M  V30 4652 C 453.132 -1.96275 3.84838 0
M  V30 4653 C 452.267 -3.18776 4.24918 0
M  V30 4654 C 451.306 -2.84625 5.41899 0
M  V30 4655 N 450.443 -3.99693 5.77226 0
M  V30 4656 H 455.283 -0.532431 2.93205 0
M  V30 4657 H 452.82 -0.251234 1.44939 0
M  V30 4658 H 454.778 -3.01202 2.88675 0
M  V30 4659 H 453.408 -2.68378 1.79369 0
M  V30 4660 H 452.46 -1.11555 3.63675 0
M  V30 4661 H 453.772 -1.67111 4.69974 0
M  V30 4662 H 452.926 -4.02157 4.54262 0
M  V30 4663 H 451.665 -3.51087 3.38511 0
M  V30 4664 H 450.67 -1.99653 5.12268 0
M  V30 4665 H 451.895 -2.53551 6.29991 0
M  V30 4666 H 449.841 -4.31882 4.93776 0
M  V30 4667 H 449.758 -3.74087 6.56959 0
M  V30 4668 H 451.026 -4.83834 6.11167 0
M  V30 4669 N 455.255 -1.55392 -0.262866 0
M  V30 4670 C 456.218 -1.88181 -1.30846 0
M  V30 4671 C 457.218 -0.757079 -1.41862 0
M  V30 4672 O 458.408 -1.02519 -1.40838 0
M  V30 4673 C 455.54 -2.09609 -2.68844 0
M  V30 4674 H 456.733 -2.81659 -1.02997 0
M  V30 4675 H 454.286 -1.48039 -0.501414 0
M  V30 4676 H 455.021 -1.18547 -3.01856 0
M  V30 4677 H 454.806 -2.91508 -2.62231 0
M  V30 4678 H 456.296 -2.36215 -3.44372 0
M  V30 4679 N 456.733 0.527833 -1.48498 0
M  V30 4680 C 457.663 1.64136 -1.66077 0
M  V30 4681 C 458.644 1.62286 -0.509625 0
M  V30 4682 O 459.829 1.79449 -0.742413 0
M  V30 4683 C 456.959 3.02717 -1.70234 0
M  V30 4684 C 455.913 3.19426 -2.8487 0
M  V30 4685 C 455.239 4.5909 -2.74118 0
M  V30 4686 C 456.539 3.01993 -4.26142 0
M  V30 4687 H 458.233 1.4968 -2.593 0
M  V30 4688 H 455.779 0.718654 -1.24785 0
M  V30 4689 H 457.732 3.80491 -1.8112 0
M  V30 4690 H 456.456 3.18201 -0.735911 0
M  V30 4691 H 455.115 2.4407 -2.73542 0
M  V30 4692 H 454.763 4.71413 -1.7544 0
M  V30 4693 H 454.463 4.71214 -3.51042 0
M  V30 4694 H 455.987 5.3896 -2.86974 0
M  V30 4695 H 457.401 3.69558 -4.38292 0
M  V30 4696 H 455.798 3.2561 -5.04082 0
M  V30 4697 H 456.868 1.98396 -4.42456 0
M  V30 4698 N 458.211 1.37122 0.776871 0
M  V30 4699 C 459.488 1.22586 1.52421 0
M  V30 4700 C 459.868 -0.182726 2.10308 0
M  V30 4701 O 459.216 -1.18979 1.9508 0
M  V30 4702 C 459.426 2.31782 2.60918 0
M  V30 4703 C 460.774 2.69071 3.2846 0
M  V30 4704 O 461.798 2.3092 2.71209 0
M  V30 4705 O 460.657 3.3478 4.31954 0
M  V30 4706 H 457.751 0.478045 0.674835 0
M  V30 4707 H 460.297 1.48888 0.814275 0
M  V30 4708 H 459.069 3.26131 2.16227 0
M  V30 4709 H 458.692 2.06916 3.39517 0
M  V30 4710 N 459.689 -1.00246 1.21608 0
M  V30 4711 C 460.619 -2.10921 1.00172 0
M  V30 4712 C 461.6 -1.69938 -0.0741587 0
M  V30 4713 O 462.785 -1.94009 0.0861753 0
M  V30 4714 C 459.915 -3.42618 0.568355 0
M  V30 4715 C 458.869 -3.97407 1.58909 0
M  V30 4716 C 458.195 -5.25038 1.01187 0
M  V30 4717 C 459.495 -4.2918 2.97661 0
M  V30 4718 H 461.189 -2.29112 1.92739 0
M  V30 4719 H 458.735 -1.10101 0.928102 0
M  V30 4720 H 460.688 -4.19444 0.405555 0
M  V30 4721 H 459.412 -3.24227 -0.392961 0
M  V30 4722 H 458.071 -3.22703 1.73949 0
M  V30 4723 H 457.719 -5.02982 0.0421965 0
M  V30 4724 H 457.419 -5.62661 1.6937 0
M  V30 4725 H 458.943 -6.04507 0.860448 0
M  V30 4726 H 460.357 -4.96839 2.86049 0
M  V30 4727 H 458.754 -4.77952 3.6288 0
M  V30 4728 H 459.824 -3.3735 3.48315 0
M  V30 4729 N 461.167 -1.02423 -1.1978 0
M  V30 4730 C 462.097 -0.62157 -2.25075 0
M  V30 4731 C 463.078 0.367148 -1.6609 0
M  V30 4732 O 464.263 0.250892 -1.92573 0
M  V30 4733 C 461.393 0.0331826 -3.47284 0
M  V30 4734 C 460.347 -0.877323 -4.18912 0
M  V30 4735 C 459.673 -0.0879296 -5.34628 0
M  V30 4736 C 460.973 -2.18892 -4.74219 0
M  V30 4737 H 462.667 -1.50179 -2.59011 0
M  V30 4738 H 460.213 -0.723547 -1.24502 0
M  V30 4739 H 462.166 0.326488 -4.20133 0
M  V30 4740 H 460.89 0.948164 -3.12534 0
M  V30 4741 H 459.549 -1.15475 -3.47938 0
M  V30 4742 H 459.197 0.828941 -4.96123 0
M  V30 4743 H 458.897 -0.694359 -5.83483 0
M  V30 4744 H 460.421 0.198743 -6.10276 0
M  V30 4745 H 461.835 -1.95746 -5.38847 0
M  V30 4746 H 460.232 -2.74686 -5.33542 0
M  V30 4747 H 461.302 -2.84674 -3.92541 0
M  V30 4748 N 462.645 1.35699 -0.801477 0
M  V30 4749 C 463.578 2.2768 -0.153922 0
M  V30 4750 C 464.556 1.47832 0.67709 0
M  V30 4751 O 465.74 1.77104 0.645474 0
M  V30 4752 C 462.867 3.2943 0.786986 0
M  V30 4753 C 461.913 4.26485 0.0362447 0
M  V30 4754 S 462.746 5.19573 -1.2963 0
M  V30 4755 C 463.902 6.24866 -0.359705 0
M  V30 4756 H 464.135 2.82254 -0.9338 0
M  V30 4757 H 461.668 1.42421 -0.596283 0
M  V30 4758 H 463.626 3.8855 1.32436 0
M  V30 4759 H 462.287 2.73745 1.54021 0
M  V30 4760 H 461.48 4.98378 0.750668 0
M  V30 4761 H 461.082 3.71508 -0.431017 0
M  V30 4762 H 463.374 6.75957 0.456954 0
M  V30 4763 H 464.317 7.00307 -1.04768 0
M  V30 4764 H 464.725 5.64484 0.0423274 0
M  V30 4765 N 464.123 0.554532 1.47522 0
M  V30 4766 C 465.371 0.0294208 2.02079 0
M  V30 4767 C 465.692 -1.32411 1.43151 0
M  V30 4768 O 464.962 -1.863 0.605728 0
M  V30 4769 H 463.542 0.00788672 0.746958 0
M  V30 4770 H 466.204 0.723934 1.80956 0
M  V30 4771 H 465.3 -0.0606745 3.12041 0
M  V30 4772 N 465.601 -1.54893 0.290851 0
M  V30 4773 C 466.826 -2.04804 -0.32712 0
M  V30 4774 C 467.251 -1.16721 -1.47506 0
M  V30 4775 O 466.609 -0.169107 -1.8051 0
M  V30 4776 C 466.657 -3.52268 -0.770689 0
M  V30 4777 O 465.761 -3.67236 -1.87647 0
M  V30 4778 H 465.102 -0.660789 -0.0652227 0
M  V30 4779 H 467.632 -2.00036 0.429739 0
M  V30 4780 H 467.642 -3.9393 -1.06223 0
M  V30 4781 H 466.317 -4.15843 0.069096 0
M  V30 4782 H 464.894 -3.37479 -1.58626 0
M  V30 4783 N 467.08 -0.0183926 -1.57589 0
M  V30 4784 C 468.028 0.985111 -2.10709 0
M  V30 4785 C 469.022 1.34397 -1.0312 0
M  V30 4786 O 470.228 1.32746 -1.21567 0
M  V30 4787 H 466.603 0.335418 -0.673052 0
M  V30 4788 H 468.574 0.511689 -2.9398 0
M  V30 4789 C 467.323 2.26202 -2.64061 0
M  V30 4790 H 466.646 1.9946 -3.4649 0
M  V30 4791 H 468.086 2.94652 -3.04887 0
M  V30 4792 C 466.545 2.98444 -1.5631 0
M  V30 4793 O 467.075 3.90142 -0.956674 0
M  V30 4794 N 465.281 2.6059 -1.28612 0
M  V30 4795 H 464.828 1.86101 -1.78112 0
M  V30 4796 H 464.786 3.09238 -0.567406 0
M  V30 4797 N 468.558 1.5553 0.254621 0
M  V30 4798 C 469.786 1.81046 1.00149 0
M  V30 4799 C 470.201 0.593047 1.79244 0
M  V30 4800 O 469.558 -0.438196 1.77161 0
M  V30 4801 C 469.609 3.04684 1.94551 0
M  V30 4802 O 469.33 4.21725 1.18658 0
M  V30 4803 C 470.831 3.42943 2.80901 0
M  V30 4804 H 468.051 0.602653 0.295044 0
M  V30 4805 H 470.595 2.02576 0.279842 0
M  V30 4806 H 468.75 2.85226 2.62154 0
M  V30 4807 H 469.164 4.91746 1.82445 0
M  V30 4808 H 470.638 4.32576 3.42902 0
M  V30 4809 H 471.115 2.63176 3.51617 0
M  V30 4810 H 471.721 3.64724 2.18762 0
M  V30 4811 N 470.036 -0.519951 1.48776 0
M  V30 4812 C 471.285 -1.27175 1.56555 0
M  V30 4813 C 471.598 -1.9401 0.248869 0
M  V30 4814 O 472.804 -2.70725 0.205004 0
M  V30 4815 C 471.26 -2.30811 2.76142 0
M  V30 4816 C 470.868 -1.7 4.14493 0
M  V30 4817 C 472.612 -3.06937 2.9324 0
M  V30 4818 C 470.519 -2.71635 5.25327 0
M  V30 4819 H 469.449 -0.478329 0.582853 0
M  V30 4820 H 472.1 -0.547916 1.75129 0
M  V30 4821 H 470.482 -3.06274 2.51023 0
M  V30 4822 H 471.656 -1.00658 4.49672 0
M  V30 4823 H 469.971 -1.06331 4.02595 0
M  V30 4824 H 472.568 -3.82905 3.73213 0
M  V30 4825 H 472.911 -3.63409 2.03075 0
M  V30 4826 H 473.444 -2.38589 3.18308 0
M  V30 4827 H 470.183 -2.1997 6.1749 0
M  V30 4828 H 469.703 -3.39275 4.94624 0
M  V30 4829 H 471.382 -3.34429 5.53865 0
M  V30 4830 N 471.514 -1.37532 -0.769588 0
M  V30 4831 C 472.76 -1.33057 -1.53048 0
M  V30 4832 C 473.093 0.0841865 -1.94017 0
M  V30 4833 O 472.368 1.04198 -1.64235 0
M  V30 4834 C 472.651 -2.27166 -2.79406 0
M  V30 4835 C 472.504 -3.77429 -2.44677 0
M  V30 4836 C 473.823 -2.19683 -3.81349 0
M  V30 4837 H 470.942 -0.484655 -0.555228 0
M  V30 4838 H 473.584 -1.68251 -0.882702 0
M  V30 4839 H 471.734 -1.97283 -3.34682 0
M  V30 4840 H 473.406 -4.17918 -1.953 0
M  V30 4841 H 471.649 -3.95892 -1.77346 0
M  V30 4842 H 472.32 -4.38716 -3.35011 0
M  V30 4843 H 474.796 -2.46029 -3.35573 0
M  V30 4844 H 473.672 -2.87668 -4.67481 0
M  V30 4845 H 473.933 -1.19045 -4.25771 0
M  V30 4846 N 472.992 0.995999 -1.22138 0
M  V30 4847 C 473.924 2.08745 -0.946485 0
M  V30 4848 C 474.937 1.62633 0.0737356 0
M  V30 4849 O 476.126 1.77782 -0.159886 0
M  V30 4850 C 473.226 3.36516 -0.401305 0
M  V30 4851 C 472.399 4.11672 -1.47801 0
M  V30 4852 C 471.458 5.17728 -0.940461 0
M  V30 4853 O 470.484 5.45482 -1.62596 0
M  V30 4854 N 471.686 5.80005 0.239723 0
M  V30 4855 H 474.451 2.32908 -1.88611 0
M  V30 4856 H 472.012 1.16152 -1.12785 0
M  V30 4857 H 474.004 4.04691 -0.0270837 0
M  V30 4858 H 472.574 3.0944 0.443354 0
M  V30 4859 H 471.794 3.38171 -2.02568 0
M  V30 4860 H 473.082 4.58657 -2.20253 0
M  V30 4861 H 472.48 5.5982 0.813518 0
M  V30 4862 H 471.037 6.4943 0.555361 0
M  V30 4863 N 474.47 1.03057 1.19235 0
M  V30 4864 C 475.695 0.74757 1.93458 0
M  V30 4865 C 476.12 -0.687648 1.7508 0
M  V30 4866 O 475.478 -1.47499 1.05422 0
M  V30 4867 C 475.526 1.10604 3.43219 0
M  V30 4868 O 474.63 0.225671 4.11782 0
M  V30 4869 H 473.971 0.276047 0.603899 0
M  V30 4870 H 476.501 1.3777 1.51263 0
M  V30 4871 H 476.511 1.06366 3.93891 0
M  V30 4872 H 475.186 2.15165 3.55917 0
M  V30 4873 H 473.763 0.326795 3.71465 0
M  V30 4874 N 475.948 -1.35272 0.808662 0
M  V30 4875 C 476.881 -2.27595 0.165994 0
M  V30 4876 C 477.859 -1.48189 -0.669241 0
M  V30 4877 O 479.043 -1.77444 -0.636073 0
M  V30 4878 C 476.17 -3.29843 -0.769505 0
M  V30 4879 C 475.216 -4.26498 -0.0136267 0
M  V30 4880 S 476.049 -5.18878 1.32384 0
M  V30 4881 C 477.205 -6.24666 0.392838 0
M  V30 4882 H 477.438 -2.81755 0.948756 0
M  V30 4883 H 474.971 -1.42103 0.603828 0
M  V30 4884 H 476.929 -3.89247 -1.30374 0
M  V30 4885 H 475.59 -2.74558 -1.52567 0
M  V30 4886 H 474.783 -4.98769 -0.724227 0
M  V30 4887 H 474.385 -3.71274 0.450713 0
M  V30 4888 H 476.677 -6.7619 -0.4211 0
M  V30 4889 H 477.62 -6.99741 1.0848 0
M  V30 4890 H 478.028 -5.64499 -0.0123908 0
M  V30 4891 N 477.426 -0.562348 -1.47226 0
M  V30 4892 C 478.389 0.172056 -2.28553 0
M  V30 4893 C 479.389 0.837928 -1.37242 0
M  V30 4894 O 480.579 0.693001 -1.59822 0
M  V30 4895 C 477.711 1.25223 -3.17068 0
M  V30 4896 H 478.904 -0.542401 -2.94954 0
M  V30 4897 H 476.457 -0.319493 -1.53 0
M  V30 4898 H 477.192 1.99892 -2.55369 0
M  V30 4899 H 476.977 0.779515 -3.84273 0
M  V30 4900 H 478.467 1.76791 -3.78332 0
M  V30 4901 N 478.904 1.54736 -0.299062 0
M  V30 4902 C 479.867 2.22127 0.565012 0
M  V30 4903 C 480.867 1.20669 1.06281 0
M  V30 4904 O 482.057 1.45417 0.959145 0
M  V30 4905 C 479.189 2.90611 1.78208 0
M  V30 4906 H 480.382 2.99891 -0.0237448 0
M  V30 4907 H 477.935 1.5622 -0.0498788 0
M  V30 4908 H 478.67 2.16921 2.41072 0
M  V30 4909 H 478.455 3.64984 1.43281 0
M  V30 4910 H 479.945 3.42026 2.396 0
M  V30 4911 N 480.382 0.0267497 1.57577 0
M  V30 4912 C 481.329 -0.955894 2.10075 0
M  V30 4913 C 482.299 -1.32453 1.00226 0
M  V30 4914 O 483.484 -1.41826 1.27632 0
M  V30 4915 C 480.624 -2.2338 2.6305 0
M  V30 4916 C 479.737 -1.92183 3.86898 0
M  V30 4917 C 478.872 -3.14251 4.28275 0
M  V30 4918 C 477.911 -2.78862 5.44888 0
M  V30 4919 N 477.048 -3.93548 5.81433 0
M  V30 4920 H 481.888 -0.501303 2.93753 0
M  V30 4921 H 479.425 -0.235847 1.45197 0
M  V30 4922 H 481.383 -2.98124 2.91853 0
M  V30 4923 H 480.013 -2.6646 1.82205 0
M  V30 4924 H 479.065 -1.07692 3.64838 0
M  V30 4925 H 480.377 -1.62117 4.7172 0
M  V30 4926 H 479.531 -3.97317 4.58502 0
M  V30 4927 H 478.27 -3.47476 3.42215 0
M  V30 4928 H 477.275 -1.94208 5.14357 0
M  V30 4929 H 478.5 -2.46855 6.32645 0
M  V30 4930 H 476.446 -4.2662 4.98328 0
M  V30 4931 H 476.363 -3.67098 6.6089 0
M  V30 4932 H 477.631 -4.77325 6.16264 0
M  V30 4933 N 481.861 -1.55662 -0.24637 0
M  V30 4934 C 483.089 -1.81575 -0.991876 0
M  V30 4935 C 483.504 -0.602545 -1.78927 0
M  V30 4936 O 482.861 0.428795 -1.77391 0
M  V30 4937 C 482.912 -3.05711 -1.92933 0
M  V30 4938 O 482.633 -4.22348 -1.1642 0
M  V30 4939 C 484.134 -3.44428 -2.79078 0
M  V30 4940 H 481.354 -0.604209 -0.291844 0
M  V30 4941 H 483.898 -2.02722 -0.269095 0
M  V30 4942 H 482.053 -2.86612 -2.60638 0
M  V30 4943 H 482.467 -4.92706 -1.79835 0
M  V30 4944 H 483.941 -4.34388 -3.40603 0
M  V30 4945 H 484.418 -2.65037 -3.50217 0
M  V30 4946 H 485.024 -3.65879 -2.16824 0
M  V30 4947 N 483.339 0.512053 -1.4905 0
M  V30 4948 C 484.271 1.63121 -1.6101 0
M  V30 4949 C 485.284 1.55145 -0.493352 0
M  V30 4950 O 486.473 1.61278 -0.764955 0
M  V30 4951 C 483.573 3.01863 -1.54052 0
M  V30 4952 C 482.746 3.35138 -2.81072 0
M  V30 4953 C 481.805 4.5324 -2.67319 0
M  V30 4954 O 480.831 4.55571 -3.41238 0
M  V30 4955 N 482.033 5.52495 -1.78127 0
M  V30 4956 H 484.798 1.53292 -2.5753 0
M  V30 4957 H 482.359 0.699706 -1.45999 0
M  V30 4958 H 484.351 3.78774 -1.42521 0
M  V30 4959 H 482.921 3.05675 -0.654345 0
M  V30 4960 H 482.141 2.4723 -3.07036 0
M  V30 4961 H 483.429 3.54162 -3.65304 0
M  V30 4962 H 482.827 5.53403 -1.17308 0
M  V30 4963 H 481.384 6.28553 -1.72525 0
M  V30 4964 N 484.817 1.37938 0.762283 0
M  V30 4965 C 486.233 1.18945 1.06415 0
M  V30 4966 C 486.433 0.0321163 2.01474 0
M  V30 4967 O 485.489 -0.624844 2.44647 0
M  V30 4968 C 486.802 2.51218 1.65258 0
M  V30 4969 C 488.35 2.57824 1.7747 0
M  V30 4970 C 488.825 3.90251 2.39725 0
M  V30 4971 N 490.316 3.91744 2.47166 0
M  V30 4972 C 491.051 4.90966 2.96209 0
M  V30 4973 N 490.547 6.00585 3.45354 0
M  V30 4974 N 492.34 4.78363 2.9517 0
M  V30 4975 H 484.491 2.11994 0.131301 0
M  V30 4976 H 486.754 0.940262 0.120879 0
M  V30 4977 H 486.46 3.36317 1.02878 0
M  V30 4978 H 486.334 2.68989 2.64433 0
M  V30 4979 H 488.721 1.73126 2.3898 0
M  V30 4980 H 488.802 2.43928 0.770241 0
M  V30 4981 H 488.446 4.75368 1.78852 0
M  V30 4982 H 488.376 4.01454 3.40796 0
M  V30 4983 H 490.867 3.12563 2.12397 0
M  V30 4984 H 491.18 6.72236 3.81207 0
M  V30 4985 H 489.525 6.04217 3.43434 0
M  V30 4986 H 492.716 3.91841 2.56082 0
M  V30 4987 H 492.889 5.55843 3.33081 0
M  V30 4988 N 486.295 -0.989507 1.22664 0
M  V30 4989 C 487.542 -1.72953 1.05325 0
M  V30 4990 C 487.87 -1.90104 -0.411168 0
M  V30 4991 O 487.125 -1.44386 -1.32103 0
M  V30 4992 C 487.424 -3.13649 1.71345 0
M  V30 4993 C 487.09 -3.16403 3.21248 0
M  V30 4994 C 485.752 -3.16862 3.62149 0
M  V30 4995 C 488.104 -3.12428 4.17179 0
M  V30 4996 C 485.432 -3.11051 4.97458 0
M  V30 4997 C 487.784 -3.08159 5.52468 0
M  V30 4998 C 486.448 -3.06935 5.92746 0
M  V30 4999 H 485.718 -0.632881 0.385412 0
M  V30 5000 H 488.365 -1.15863 1.52473 0
M  V30 5001 H 486.67 -3.74069 1.16532 0
M  V30 5002 H 488.367 -3.69658 1.55416 0
M  V30 5003 H 484.957 -3.16798 2.88682 0
M  V30 5004 H 489.141 -3.11221 3.86595 0
M  V30 5005 H 484.397 -3.0845 5.27891 0
M  V30 5006 H 488.571 -3.04039 6.26525 0
M  V30 5007 H 486.198 -3.02186 6.97558 0
M  V30 5008 N 487.773 -1.03688 -1.18687 0
M  V30 5009 C 489.189 -0.755413 -1.4059 0
M  V30 5010 C 489.389 0.656659 -1.905 0
M  V30 5011 O 488.445 1.42144 -2.08689 0
M  V30 5012 C 489.758 -1.7983 -2.41001 0
M  V30 5013 C 491.306 -1.81877 -2.54735 0
M  V30 5014 C 491.781 -2.85148 -3.58406 0
M  V30 5015 N 493.272 -2.84015 -3.6591 0
M  V30 5016 C 494.007 -3.60573 -4.45841 0
M  V30 5017 N 493.503 -4.46871 -5.29413 0
M  V30 5018 N 495.296 -3.49079 -4.40568 0
M  V30 5019 H 487.447 -1.94818 -0.846148 0
M  V30 5020 H 489.71 -0.842727 -0.434184 0
M  V30 5021 H 489.416 -2.81097 -2.1137 0
M  V30 5022 H 489.29 -1.62727 -3.40294 0
M  V30 5023 H 491.677 -0.812836 -2.83685 0
M  V30 5024 H 491.758 -2.03057 -1.55568 0
M  V30 5025 H 491.402 -3.85918 -3.30197 0
M  V30 5026 H 491.332 -2.61224 -4.57241 0
M  V30 5027 H 493.823 -2.21431 -3.0623 0
M  V30 5028 H 494.136 -5.02007 -5.87545 0
M  V30 5029 H 492.481 -4.5094 -5.28846 0
M  V30 5030 H 495.672 -2.81066 -3.74325 0
M  V30 5031 H 495.845 -4.08994 -5.02621 0
M  V30 5032 N 489.251 1.34841 -0.815825 0
M  V30 5033 C 490.476 2.03261 -0.41226 0
M  V30 5034 C 490.901 1.61055 0.971751 0
M  V30 5035 O 490.259 0.7917 1.63101 0
M  V30 5036 C 490.307 3.56914 -0.514289 0
M  V30 5037 O 489.411 4.09728 0.468675 0
M  V30 5038 H 488.752 0.641664 -0.170771 0
M  V30 5039 H 491.282 1.72241 -1.10427 0
M  V30 5040 H 491.292 4.06156 -0.387457 0
M  V30 5041 H 489.967 3.86982 -1.52375 0
M  V30 5042 H 488.544 3.71681 0.301316 0
M  V30 5043 N 490.729 0.570148 1.46925 0
M  V30 5044 C 491.676 -0.170257 2.30171 0
M  V30 5045 C 492.646 -0.896099 1.39855 0
M  V30 5046 O 493.831 -0.889248 1.68811 0
M  V30 5047 C 490.971 -1.18605 3.24079 0
M  V30 5048 C 490.084 -0.464947 4.29491 0
M  V30 5049 C 489.219 -1.46716 5.10537 0
M  V30 5050 C 488.258 -0.731758 6.0771 0
M  V30 5051 N 487.395 -1.68142 6.81669 0
M  V30 5052 H 492.235 0.545713 2.92961 0
M  V30 5053 H 489.772 0.280938 1.44392 0
M  V30 5054 H 491.73 -1.78771 3.76957 0
M  V30 5055 H 490.36 -1.86989 2.63125 0
M  V30 5056 H 489.412 0.251506 3.79568 0
M  V30 5057 H 490.724 0.110548 4.98677 0
M  V30 5058 H 489.878 -2.14199 5.6763 0
M  V30 5059 H 488.617 -2.07658 4.41282 0
M  V30 5060 H 487.622 -0.0430787 5.49783 0
M  V30 5061 H 488.847 -0.127904 6.7898 0
M  V30 5062 H 486.793 -2.27918 6.15134 0
M  V30 5063 H 486.71 -1.15841 7.47072 0
M  V30 5064 H 487.978 -2.347 7.43328 0
M  V30 5065 N 492.207 -1.54576 0.307264 0
M  V30 5066 C 493.14 -2.19946 -0.608195 0
M  V30 5067 C 494.118 -1.17096 -1.12815 0
M  V30 5068 O 495.302 -1.45766 -1.19518 0
M  V30 5069 C 492.429 -2.84826 -1.8328 0
M  V30 5070 C 491.475 -4.01256 -1.44554 0
M  V30 5071 S 492.308 -5.33197 -0.49612 0
M  V30 5072 C 493.464 -6.01563 -1.72838 0
M  V30 5073 H 493.697 -2.97253 -0.0528544 0
M  V30 5074 H 491.23 -1.54129 0.0913837 0
M  V30 5075 H 493.188 -3.22832 -2.53554 0
M  V30 5076 H 491.849 -2.07353 -2.35931 0
M  V30 5077 H 491.042 -4.45457 -2.35762 0
M  V30 5078 H 490.644 -3.6484 -0.822671 0
M  V30 5079 H 492.936 -6.22751 -2.6681 0
M  V30 5080 H 493.879 -6.9552 -1.32882 0
M  V30 5081 H 494.287 -5.31279 -1.90795 0
M  V30 5082 N 493.685 -0.035106 -1.57561 0
M  V30 5083 C 494.595 0.960295 -2.14046 0
M  V30 5084 C 495.611 1.3529 -1.0942 0
M  V30 5085 O 496.787 1.43309 -1.41508 0
M  V30 5086 C 493.852 2.22214 -2.66124 0
M  V30 5087 C 492.913 1.8894 -3.85487 0
M  V30 5088 C 492.146 3.09109 -4.35072 0
M  V30 5089 O 492.369 4.21963 -3.83802 0
M  V30 5090 O 491.303 2.91058 -5.26848 0
M  V30 5091 H 495.129 0.509983 -2.99387 0
M  V30 5092 H 492.714 0.185853 -1.48239 0
M  V30 5093 H 494.596 2.96279 -2.99661 0
M  V30 5094 H 493.271 2.66414 -1.83862 0
M  V30 5095 H 492.178 1.12241 -3.56865 0
M  V30 5096 H 493.511 1.49551 -4.6893 0
M  V30 5097 N 495.163 1.55791 0.238111 0
M  V30 5098 C 496.126 1.90239 1.27835 0
M  V30 5099 C 497.126 0.779552 1.4064 0
M  V30 5100 O 498.316 1.04747 1.3919 0
M  V30 5101 C 495.448 2.13859 2.65475 0
M  V30 5102 H 496.641 2.83262 0.985034 0
M  V30 5103 H 494.194 1.48818 0.477799 0
M  V30 5104 H 494.929 1.23334 2.99932 0
M  V30 5105 H 494.714 2.95643 2.57561 0
M  V30 5106 H 496.204 2.41664 3.40571 0
M  V30 5107 N 496.642 -0.504142 1.49319 0
M  V30 5108 C 497.605 -1.5883 1.65244 0
M  V30 5109 C 498.605 -1.52009 0.524386 0
M  V30 5110 O 499.795 -1.55218 0.79077 0
M  V30 5111 C 496.927 -2.98481 1.64687 0
M  V30 5112 H 498.12 -1.4604 2.61939 0
M  V30 5113 H 495.673 -0.728144 1.38303 0
M  V30 5114 H 496.408 -3.16751 0.695644 0
M  V30 5115 H 496.193 -3.0484 2.46607 0
M  V30 5116 H 497.683 -3.77256 1.79075 0
M  V30 5117 N 498.12 -1.38341 -0.754957 0
M  V30 5118 C 499.368 -1.34208 -1.51105 0
M  V30 5119 C 499.689 0.0677634 -1.94882 0
M  V30 5120 O 498.959 1.01517 -1.67544 0
M  V30 5121 H 497.539 -0.493819 -0.560493 0
M  V30 5122 H 500.201 -1.73005 -0.897507 0
M  V30 5123 H 499.297 -1.99203 -2.4026 0
M  V30 5124 N 499.598 0.982988 -1.23187 0
M  V30 5125 C 500.845 1.72392 -1.06241 0
M  V30 5126 C 501.173 1.9032 0.40108 0
M  V30 5127 O 500.428 1.45084 1.31336 0
M  V30 5128 C 500.727 3.12736 -1.73006 0
M  V30 5129 C 500.393 3.14695 -3.22921 0
M  V30 5130 C 499.055 3.14937 -3.63824 0
M  V30 5131 C 501.407 3.10211 -4.1883 0
M  V30 5132 C 498.735 3.08408 -4.99101 0
M  V30 5133 C 501.087 3.05224 -5.54095 0
M  V30 5134 C 499.751 3.03787 -5.94365 0
M  V30 5135 H 499.021 0.630829 -0.388762 0
M  V30 5136 H 501.668 1.15053 -1.53085 0
M  V30 5137 H 499.973 3.73446 -1.18514 0
M  V30 5138 H 501.67 3.68828 -1.57374 0
M  V30 5139 H 498.26 3.15262 -2.90358 0
M  V30 5140 H 502.444 3.09166 -3.8824 0
M  V30 5141 H 497.7 3.05646 -5.29519 0
M  V30 5142 H 501.874 3.00712 -6.28128 0
M  V30 5143 H 499.501 2.98483 -6.99151 0
M  V30 5144 N 501.076 1.04316 1.18135 0
M  V30 5145 C 502.304 0.768117 1.92113 0
M  V30 5146 C 502.719 -0.675057 1.76319 0
M  V30 5147 O 502.076 -1.46038 1.09449 0
M  V30 5148 C 502.127 1.12808 3.43448 0
M  V30 5149 O 501.848 2.5146 3.58747 0
M  V30 5150 C 503.349 0.8779 4.3452 0
M  V30 5151 H 500.569 0.279937 0.609817 0
M  V30 5152 H 503.113 1.39149 1.49859 0
M  V30 5153 H 501.268 0.549623 3.83481 0
M  V30 5154 H 501.682 2.65313 4.52448 0
M  V30 5155 H 503.156 1.17959 5.39249 0
M  V30 5156 H 503.633 -0.187239 4.38801 0
M  V30 5157 H 504.239 1.43977 4.00188 0
M  V30 5158 N 502.554 -1.34406 0.822964 0
M  V30 5159 C 503.803 -1.97542 0.407458 0
M  V30 5160 C 504.116 -1.65973 -1.035 0
M  V30 5161 O 505.322 -2.22598 -1.55442 0
M  V30 5162 C 503.778 -3.53463 0.677623 0
M  V30 5163 C 503.386 -3.93925 2.1337 0
M  V30 5164 C 505.13 -4.23229 0.328284 0
M  V30 5165 C 503.037 -5.42759 2.34876 0
M  V30 5166 H 501.967 -0.739207 0.148623 0
M  V30 5167 H 504.618 -1.53248 1.00932 0
M  V30 5168 H 503 -3.96 0.00558965 0
M  V30 5169 H 504.174 -3.62494 2.8449 0
M  V30 5170 H 502.489 -3.37097 2.44448 0
M  V30 5171 H 505.086 -5.32659 0.466794 0
M  V30 5172 H 505.429 -4.09899 -0.727224 0
M  V30 5173 H 505.962 -3.86169 0.954896 0
M  V30 5174 H 502.701 -5.61075 3.38932 0
M  V30 5175 H 502.221 -5.75704 1.68299 0
M  V30 5176 H 503.9 -6.0944 2.17236 0
M  V30 5177 N 504.032 -0.577932 -1.46621 0
M  V30 5178 C 505.257 -0.0652536 -2.07297 0
M  V30 5179 C 505.682 1.22828 -1.4246 0
M  V30 5180 O 505.04 1.74075 -0.506718 0
M  V30 5181 C 505.088 0.0920589 -3.60482 0
M  V30 5182 O 504.192 1.14972 -3.96049 0
M  V30 5183 H 503.533 -0.06065 -0.661224 0
M  V30 5184 H 506.063 -0.799515 -1.88332 0
M  V30 5185 H 506.073 0.299741 -4.06897 0
M  V30 5186 H 504.748 -0.852612 -4.07067 0
M  V30 5187 H 503.325 0.920879 -3.61351 0
M  V30 5188 N 505.51 1.54411 -0.315457 0
M  V30 5189 C 506.758 2.00023 0.288971 0
M  V30 5190 C 507.079 1.20529 1.5329 0
M  V30 5191 O 506.349 0.304986 1.93511 0
M  V30 5192 H 504.929 0.738891 0.109766 0
M  V30 5193 H 507.591 1.90094 -0.430129 0
M  V30 5194 H 506.687 3.07198 0.550999 0
M  V30 5195 N 506.988 0.0434614 1.5754 0
M  V30 5196 C 507.951 -0.918696 2.09982 0
M  V30 5197 C 508.951 -1.24488 1.01781 0
M  V30 5198 O 510.141 -1.18284 1.27885 0
M  V30 5199 C 507.273 -2.23093 2.57764 0
M  V30 5200 H 508.466 -0.464229 2.96285 0
M  V30 5201 H 506.019 -0.204818 1.54952 0
M  V30 5202 H 506.754 -2.73137 1.74832 0
M  V30 5203 H 506.539 -2.00724 3.36827 0
M  V30 5204 H 508.029 -2.92028 2.98512 0
M  V30 5205 N 508.466 -1.55915 -0.229846 0
M  V30 5206 C 509.691 -1.8296 -0.976743 0
M  V30 5207 C 510.116 -0.622735 -1.77493 0
M  V30 5208 O 509.474 0.428431 -1.76165 0
M  V30 5209 C 509.522 -3.07916 -1.8767 0
M  V30 5210 O 508.626 -2.86028 -2.97088 0
M  V30 5211 H 507.967 -0.603453 -0.277021 0
M  V30 5212 H 510.497 -2.0312 -0.245669 0
M  V30 5213 H 510.507 -3.37802 -2.2881 0
M  V30 5214 H 509.182 -3.95389 -1.28996 0
M  V30 5215 H 507.759 -2.67355 -2.59954 0
M  V30 5216 N 509.944 0.496216 -1.49584 0
M  V30 5217 C 510.894 1.59422 -1.62999 0
M  V30 5218 C 511.878 1.53402 -0.485457 0
M  V30 5219 O 513.07 1.60851 -0.738649 0
M  V30 5220 C 510.199 2.98009 -1.70427 0
M  V30 5221 C 509.285 3.09008 -2.90473 0
M  V30 5222 N 509.676 2.89884 -4.14489 0
M  V30 5223 C 507.974 3.40115 -2.8851 0
M  V30 5224 C 508.675 3.0519 -4.95211 0
M  V30 5225 N 507.651 3.3428 -4.2867 0
M  V30 5226 H 511.453 1.43297 -2.56599 0
M  V30 5227 H 508.967 0.702443 -1.46422 0
M  V30 5228 H 510.964 3.76926 -1.78136 0
M  V30 5229 H 509.624 3.152 -0.77967 0
M  V30 5230 H 510.635 2.65963 -4.44392 0
M  V30 5231 H 507.312 3.63452 -2.05448 0
M  V30 5232 H 508.702 2.94856 -6.03746 0
M  V30 5233 N 511.423 1.38739 0.74761 0
M  V30 5234 C 512.834 1.31507 1.32524 0
M  V30 5235 C 513.185 -0.0263963 1.96182 0
M  V30 5236 O 512.31 -0.92849 1.95469 0
M  V30 5237 C 512.905 2.38162 2.40966 0
M  V30 5238 C 511.464 2.34489 2.94434 0
M  V30 5239 C 510.611 2.20712 1.67873 0
M  V30 5240 H 513.562 1.4901 0.546043 0
M  V30 5241 H 513.583 2.04222 3.21051 0
M  V30 5242 H 513.095 3.35783 1.94605 0
M  V30 5243 H 511.196 1.40467 3.45108 0
M  V30 5244 H 511.309 3.28861 3.48407 0
M  V30 5245 H 509.673 1.67667 1.91729 0
M  V30 5246 H 510.456 3.20285 1.23582 0
M  V30 5247 N 512.901 -0.976442 1.23707 0
M  V30 5248 C 514.15 -1.71254 1.06559 0
M  V30 5249 C 514.463 -1.91528 -0.397024 0
M  V30 5250 O 515.669 -2.62625 -0.688518 0
M  V30 5251 C 514.125 -3.08207 1.8584 0
M  V30 5252 C 513.733 -2.95806 3.36456 0
M  V30 5253 C 515.477 -3.85749 1.77194 0
M  V30 5254 C 513.384 -4.28015 4.08114 0
M  V30 5255 H 512.314 -0.642171 0.395136 0
M  V30 5256 H 514.965 -1.08877 1.4771 0
M  V30 5257 H 513.347 -3.71363 1.37498 0
M  V30 5258 H 514.521 -2.41716 3.92314 0
M  V30 5259 H 512.836 -2.31736 3.45959 0
M  V30 5260 H 515.433 -4.83633 2.28041 0
M  V30 5261 H 515.776 -4.09752 0.735477 0
M  V30 5262 H 516.309 -3.29303 2.23169 0
M  V30 5263 H 513.048 -4.09208 5.12083 0
M  V30 5264 H 512.568 -4.81955 3.57043 0
M  V30 5265 H 514.247 -4.96681 4.14629 0
M  V30 5266 N 514.379 -1.04941 -1.1758 0
M  V30 5267 C 515.619 -0.766996 -1.89464 0
M  V30 5268 C 515.983 0.693123 -1.79053 0
M  V30 5269 O 517.184 1.08953 -2.45729 0
M  V30 5270 C 515.455 -1.23108 -3.35528 0
M  V30 5271 S 517.014 -1.07565 -4.25412 0
M  V30 5272 H 513.832 -0.278616 -0.654136 0
M  V30 5273 H 516.434 -1.34352 -1.4202 0
M  V30 5274 H 515.138 -2.28896 -3.40639 0
M  V30 5275 H 514.669 -0.648724 -3.88014 0
M  V30 5276 H 516.684 0.00169467 -4.962 0
M  V30 5277 N 515.857 1.33968 -0.830081 0
M  V30 5278 C 517.268 1.80439 -0.479455 0
M  V30 5279 C 517.619 1.68756 1.00079 0
M  V30 5280 O 516.744 1.23171 1.77927 0
M  V30 5281 C 517.339 3.27611 -0.863505 0
M  V30 5282 C 515.898 3.72133 -0.565145 0
M  V30 5283 C 515.045 2.55549 -1.07657 0
M  V30 5284 H 517.996 1.21614 -1.0196 0
M  V30 5285 H 518.017 3.8012 -0.170083 0
M  V30 5286 H 517.529 3.36082 -1.94089 0
M  V30 5287 H 515.63 3.69196 0.502536 0
M  V30 5288 H 515.743 4.65963 -1.11422 0
M  V30 5289 H 514.107 2.49788 -0.497807 0
M  V30 5290 H 514.89 2.66786 -2.16055 0
M  V30 5291 N 517.335 0.585699 1.46312 0
M  V30 5292 C 518.581 0.0725284 2.0267 0
M  V30 5293 C 518.914 -1.28523 1.45586 0
M  V30 5294 O 518.189 -1.84283 0.622101 0
M  V30 5295 C 518.472 0.0099788 3.60099 0
M  V30 5296 C 518.325 1.39685 4.27561 0
M  V30 5297 C 519.644 -0.689117 4.34671 0
M  V30 5298 H 516.763 0.0278307 0.736474 0
M  V30 5299 H 519.405 0.753472 1.74421 0
M  V30 5300 H 517.555 -0.56992 3.84297 0
M  V30 5301 H 519.227 2.02215 4.14617 0
M  V30 5302 H 517.47 1.96374 3.86807 0
M  V30 5303 H 518.141 1.30553 5.36339 0
M  V30 5304 H 520.617 -0.196446 4.15636 0
M  V30 5305 H 519.493 -0.701921 5.44393 0
M  V30 5306 H 519.754 -1.75101 4.05946 0
M  V30 5307 N 518.813 -1.54241 0.323641 0
M  V30 5308 C 519.746 -2.20579 -0.584833 0
M  V30 5309 C 520.724 -1.18286 -1.11567 0
M  V30 5310 O 521.908 -1.47025 -1.17966 0
M  V30 5311 C 519.035 -2.86754 -1.80249 0
M  V30 5312 C 518.081 -4.02767 -1.4029 0
M  V30 5313 S 518.914 -5.33693 -0.439539 0
M  V30 5314 C 520.07 -6.03362 -1.66448 0
M  V30 5315 H 520.303 -2.97292 -0.0213238 0
M  V30 5316 H 517.836 -1.54024 0.107726 0
M  V30 5317 H 519.794 -3.25503 -2.50116 0
M  V30 5318 H 518.455 -2.09844 -2.33719 0
M  V30 5319 H 517.648 -4.47933 -2.31024 0
M  V30 5320 H 517.25 -3.65692 -0.783928 0
M  V30 5321 H 519.542 -6.25546 -2.6019 0
M  V30 5322 H 520.485 -6.9689 -1.25498 0
M  V30 5323 H 520.893 -5.33273 -1.85149 0
M  V30 5324 N 520.291 -0.0518155 -1.57515 0
M  V30 5325 C 521.221 0.920283 -2.146 0
M  V30 5326 C 522.202 1.32406 -1.06783 0
M  V30 5327 O 523.387 1.39866 -1.34726 0
M  V30 5328 C 520.517 2.1949 -2.6915 0
M  V30 5329 C 519.471 1.93116 -3.81956 0
M  V30 5330 C 518.797 3.27037 -4.23026 0
M  V30 5331 C 520.097 1.25225 -5.07066 0
M  V30 5332 H 521.791 0.444801 -2.96077 0
M  V30 5333 H 519.337 0.212508 -1.42423 0
M  V30 5334 H 521.29 2.87894 -3.07725 0
M  V30 5335 H 520.014 2.69244 -1.84865 0
M  V30 5336 H 518.673 1.27123 -3.43854 0
M  V30 5337 H 518.321 3.74595 -3.3569 0
M  V30 5338 H 518.021 3.10189 -4.99056 0
M  V30 5339 H 519.545 3.96673 -4.64202 0
M  V30 5340 H 520.959 1.83666 -5.43083 0
M  V30 5341 H 519.356 1.18702 -5.88243 0
M  V30 5342 H 520.426 0.228382 -4.84362 0
M  V30 5343 N 521.769 1.56035 0.221574 0
M  V30 5344 C 523.017 1.78693 0.944102 0
M  V30 5345 C 523.338 0.620317 1.8487 0
M  V30 5346 O 522.608 -0.362784 1.92512 0
M  V30 5347 H 521.188 0.659082 0.351597 0
M  V30 5348 H 523.85 1.93497 0.233435 0
M  V30 5349 H 522.946 2.70837 1.55093 0
M  V30 5350 N 523.247 -0.488276 1.49845 0
M  V30 5351 C 524.524 -1.24959 1.50481 0
M  V30 5352 C 524.904 -2.09735 0.239698 0
M  V30 5353 O 524.252 -2.14865 -0.777524 0
M  V30 5354 C 524.462 -2.0954 2.79095 0
M  V30 5355 C 525.81 -2.68305 3.29086 0
M  V30 5356 O 526.834 -2.19797 2.80299 0
M  V30 5357 O 525.693 -3.56643 4.14087 0
M  V30 5358 H 522.787 -0.566133 0.602845 0
M  V30 5359 H 525.333 -0.501504 1.6212 0
M  V30 5360 H 524.105 -1.46958 3.62656 0
M  V30 5361 H 523.728 -2.91517 2.70377 0
M  V30 5362 N 524.725 -1.39134 -0.740242 0
M  V30 5363 C 525.688 -1.37217 -1.83587 0
M  V30 5364 C 526.688 -0.270221 -1.58513 0
M  V30 5365 O 527.878 -0.527843 -1.6601 0
M  V30 5366 C 525.01 -1.13959 -3.21288 0
M  V30 5367 H 526.203 -2.34705 -1.86691 0
M  V30 5368 H 523.756 -1.24622 -0.94335 0
M  V30 5369 H 524.491 -0.17131 -3.23847 0
M  V30 5370 H 524.276 -1.93754 -3.40884 0
M  V30 5371 H 525.766 -1.15346 -4.01354 0
M  V30 5372 N 526.204 0.969867 -1.24223 0
M  V30 5373 C 527.62 1.23809 -1.00716 0
M  V30 5374 C 527.82 1.99469 0.285358 0
M  V30 5375 O 526.876 2.31764 1.00207 0
M  V30 5376 C 528.189 2.02734 -2.2208 0
M  V30 5377 C 529.737 2.15834 -2.26681 0
M  V30 5378 C 530.212 2.98154 -3.47661 0
M  V30 5379 N 531.703 3.05737 -3.47964 0
M  V30 5380 C 532.438 3.69785 -4.38231 0
M  V30 5381 N 531.934 4.35569 -5.3875 0
M  V30 5382 N 533.727 3.66775 -4.25949 0
M  V30 5383 H 525.878 0.463294 -2.07286 0
M  V30 5384 H 528.141 0.267348 -0.909521 0
M  V30 5385 H 527.847 1.54524 -3.15935 0
M  V30 5386 H 527.721 3.0347 -2.24021 0
M  V30 5387 H 530.108 2.63248 -1.33359 0
M  V30 5388 H 530.189 1.14453 -2.28767 0
M  V30 5389 H 529.833 2.51435 -4.41297 0
M  V30 5390 H 529.763 3.99729 -3.42818 0
M  V30 5391 H 532.254 2.58941 -2.75242 0
M  V30 5392 H 532.567 4.82251 -6.03866 0
M  V30 5393 H 530.912 4.34244 -5.42639 0
M  V30 5394 H 534.103 3.14558 -3.46657 0
M  V30 5395 H 534.276 4.16407 -4.96497 0
M  V30 5396 N 527.682 1.05563 1.17022 0
M  V30 5397 C 528.612 0.681026 2.23348 0
M  V30 5398 C 529.593 -0.322983 1.67005 0
M  V30 5399 O 530.778 -0.199746 1.9317 0
M  V30 5400 C 527.908 0.0589053 3.4725 0
M  V30 5401 C 526.862 0.988082 4.16438 0
M  V30 5402 C 526.188 0.229646 5.34207 0
M  V30 5403 C 527.488 2.31388 4.68249 0
M  V30 5404 H 529.182 1.56993 2.54938 0
M  V30 5405 H 526.728 0.756302 1.2254 0
M  V30 5406 H 528.681 -0.214982 4.20851 0
M  V30 5407 H 527.405 -0.864968 3.14938 0
M  V30 5408 H 526.064 1.24659 3.44754 0
M  V30 5409 H 525.712 -0.697111 4.98146 0
M  V30 5410 H 525.412 0.848815 5.81437 0
M  V30 5411 H 526.936 -0.0368694 6.10589 0
M  V30 5412 H 528.35 2.09964 5.33468 0
M  V30 5413 H 526.747 2.88736 5.26072 0
M  V30 5414 H 527.817 2.94982 3.84855 0
M  V30 5415 N 529.16 -1.33526 0.837174 0
M  V30 5416 C 530.123 -2.27551 0.274421 0
M  V30 5417 C 531.123 -1.50886 -0.555881 0
M  V30 5418 O 532.313 -1.70227 -0.369918 0
M  V30 5419 C 529.445 -3.35332 -0.613605 0
M  V30 5420 H 530.638 -2.78837 1.10408 0
M  V30 5421 H 528.191 -1.439 0.610126 0
M  V30 5422 H 528.926 -2.89285 -1.46577 0
M  V30 5423 H 528.711 -3.92095 -0.0195341 0
M  V30 5424 H 530.201 -4.05433 -1.00068 0
M  V30 5425 N 530.638 -0.59345 -1.46 0
M  V30 5426 C 531.863 -0.0872365 -2.07216 0
M  V30 5427 C 532.288 1.2131 -1.43755 0
M  V30 5428 O 531.646 1.73528 -0.525152 0
M  V30 5429 C 531.694 0.0538197 -3.6056 0
M  V30 5430 O 530.798 1.10765 -3.97247 0
M  V30 5431 H 530.139 -0.0676598 -0.660544 0
M  V30 5432 H 532.669 -0.819445 -1.87473 0
M  V30 5433 H 532.679 0.256567 -4.07193 0
M  V30 5434 H 531.354 -0.895739 -4.0614 0
M  V30 5435 H 529.931 0.882501 -3.62307 0
M  V30 5436 N 532.116 1.54067 -0.331816 0
M  V30 5437 C 533.532 1.59587 0.0205388 0
M  V30 5438 C 533.732 1.34813 1.49759 0
M  V30 5439 O 532.788 1.13661 2.25471 0
M  V30 5440 C 534.101 2.97959 -0.405103 0
M  V30 5441 C 535.649 3.10964 -0.356454 0
M  V30 5442 C 536.124 4.51694 -0.757384 0
M  V30 5443 N 537.615 4.57709 -0.71111 0
M  V30 5444 C 538.35 5.64729 -0.993427 0
M  V30 5445 N 537.846 6.79652 -1.3433 0
M  V30 5446 N 539.639 5.54546 -0.918442 0
M  V30 5447 H 531.79 1.68426 -1.29407 0
M  V30 5448 H 534.053 0.78819 -0.526745 0
M  V30 5449 H 533.759 3.21115 -1.43451 0
M  V30 5450 H 533.633 3.76524 0.225692 0
M  V30 5451 H 536.02 2.87538 0.663763 0
M  V30 5452 H 536.101 2.34484 -1.02229 0
M  V30 5453 H 535.745 4.75853 -1.77555 0
M  V30 5454 H 535.675 5.26555 -0.0691444 0
M  V30 5455 H 538.166 3.75176 -0.452883 0
M  V30 5456 H 538.479 7.57221 -1.54388 0
M  V30 5457 H 536.824 6.81128 -1.38164 0
M  V30 5458 H 540.015 4.63641 -0.644536 0
M  V30 5459 H 540.188 6.37861 -1.14181 0
M  V30 5460 N 533.594 0.0601682 1.57485 0
M  V30 5461 C 534.527 -0.94676 2.07634 0
M  V30 5462 C 535.505 -1.29837 0.978826 0
M  V30 5463 O 536.689 -1.40969 1.2514 0
M  V30 5464 C 533.816 -2.25822 2.52433 0
M  V30 5465 C 532.862 -2.05901 3.73507 0
M  V30 5466 S 533.695 -1.32907 5.18745 0
M  V30 5467 C 534.851 -2.65356 5.66866 0
M  V30 5468 H 535.084 -0.520003 2.92717 0
M  V30 5469 H 532.617 -0.152319 1.53647 0
M  V30 5470 H 534.575 -3.01201 2.78905 0
M  V30 5471 H 533.236 -2.65624 1.67639 0
M  V30 5472 H 532.429 -3.02929 4.02803 0
M  V30 5473 H 532.031 -1.38659 3.47347 0
M  V30 5474 H 534.323 -3.61492 5.73001 0
M  V30 5475 H 535.266 -2.40685 6.6594 0
M  V30 5476 H 535.674 -2.72028 4.94632 0
M  V30 5477 N 535.072 -1.5615 -0.213296 0
M  V30 5478 C 536.035 -1.92249 -1.24792 0
M  V30 5479 C 537.035 -0.801828 -1.39382 0
M  V30 5480 O 538.225 -1.06948 -1.37506 0
M  V30 5481 C 535.357 -2.18056 -2.62039 0
M  V30 5482 H 536.55 -2.84793 -0.939845 0
M  V30 5483 H 534.103 -1.49559 -0.454062 0
M  V30 5484 H 534.838 -1.2809 -2.97932 0
M  V30 5485 H 534.623 -2.99703 -2.52825 0
M  V30 5486 H 536.113 -2.47051 -3.36683 0
M  V30 5487 N 536.55 0.480323 -1.50102 0
M  V30 5488 C 537.827 1.24159 -1.51142 0
M  V30 5489 C 538.207 2.09605 -0.250818 0
M  V30 5490 O 537.555 2.15274 0.766118 0
M  V30 5491 C 537.765 2.08057 -2.80202 0
M  V30 5492 C 539.113 2.66556 -3.30504 0
M  V30 5493 O 540.137 2.18308 -2.81461 0
M  V30 5494 O 538.996 3.54442 -4.15973 0
M  V30 5495 H 536.09 0.562928 -0.605839 0
M  V30 5496 H 538.636 0.492899 -1.62384 0
M  V30 5497 H 537.408 1.45032 -3.6343 0
M  V30 5498 H 537.031 2.90079 -2.71919 0
M  V30 5499 N 538.028 1.39524 0.732853 0
M  V30 5500 C 539.305 1.27373 1.48444 0
M  V30 5501 C 539.685 -0.115725 2.10783 0
M  V30 5502 O 539.033 -1.12713 1.98766 0
M  V30 5503 C 539.243 2.39966 2.53412 0
M  V30 5504 C 540.591 2.79384 3.19733 0
M  V30 5505 O 541.615 2.39431 2.63725 0
M  V30 5506 O 540.474 3.48353 4.21085 0
M  V30 5507 H 537.568 0.499272 0.659285 0
M  V30 5508 H 540.114 1.51403 0.766496 0
M  V30 5509 H 538.886 3.32845 2.05742 0
M  V30 5510 H 538.509 2.17612 3.32762 0
M  V30 5511 N 539.506 -0.963266 1.24736 0
M  V30 5512 C 540.439 -2.05758 0.986852 0
M  V30 5513 C 541.417 -1.62398 -0.0809272 0
M  V30 5514 O 542.601 -1.88414 0.0569347 0
M  V30 5515 C 539.728 -3.35135 0.490095 0
M  V30 5516 C 538.774 -3.97451 1.54709 0
M  V30 5517 S 539.607 -4.34519 3.12976 0
M  V30 5518 C 540.763 -5.67026 2.65014 0
M  V30 5519 H 540.996 -2.27539 1.91346 0
M  V30 5520 H 538.529 -1.10176 1.08169 0
M  V30 5521 H 540.487 -4.09962 0.21012 0
M  V30 5522 H 539.148 -3.11335 -0.415873 0
M  V30 5523 H 538.341 -4.90704 1.15003 0
M  V30 5524 H 537.943 -3.29071 1.77731 0
M  V30 5525 H 540.235 -6.44748 2.08102 0
M  V30 5526 H 541.178 -6.11594 3.56873 0
M  V30 5527 H 541.586 -5.25847 2.05294 0
M  V30 5528 N 540.985 -1.06182 -1.16461 0
M  V30 5529 C 541.915 -0.692861 -2.22984 0
M  V30 5530 C 542.896 0.314122 -1.67174 0
M  V30 5531 O 544.081 0.189499 -1.93273 0
M  V30 5532 C 541.211 -0.07732 -3.47214 0
M  V30 5533 C 540.165 -1.01015 -4.15909 0
M  V30 5534 C 539.491 -0.257973 -5.34077 0
M  V30 5535 C 540.791 -2.33868 -4.67015 0
M  V30 5536 H 542.485 -1.58343 -2.54102 0
M  V30 5537 H 540.031 -0.76279 -1.22137 0
M  V30 5538 H 541.984 0.19266 -4.20959 0
M  V30 5539 H 540.708 0.848254 -3.15392 0
M  V30 5540 H 539.367 -1.26486 -3.44088 0
M  V30 5541 H 539.015 0.670684 -4.98509 0
M  V30 5542 H 538.715 -0.879638 -5.80979 0
M  V30 5543 H 540.239 0.00448788 -6.106 0
M  V30 5544 H 541.653 -2.1279 -5.32347 0
M  V30 5545 H 540.05 -2.91522 -5.24533 0
M  V30 5546 H 541.12 -2.97019 -3.83286 0
M  V30 5547 N 542.463 1.3308 -0.844243 0
M  V30 5548 C 543.41 2.29104 -0.279323 0
M  V30 5549 C 544.38 1.54577 0.607882 0
M  V30 5550 O 545.565 1.8285 0.545009 0
M  V30 5551 C 542.705 3.40927 0.53508 0
M  V30 5552 C 541.818 4.30354 -0.376749 0
M  V30 5553 C 540.953 5.29297 0.449276 0
M  V30 5554 C 539.992 6.10365 -0.460606 0
M  V30 5555 N 539.129 7.01335 0.327612 0
M  V30 5556 H 543.969 2.76817 -1.10346 0
M  V30 5557 H 541.506 1.36203 -0.555611 0
M  V30 5558 H 543.464 4.04469 1.02278 0
M  V30 5559 H 542.094 2.94391 1.32414 0
M  V30 5560 H 541.146 3.67485 -0.982791 0
M  V30 5561 H 542.458 4.87067 -1.07549 0
M  V30 5562 H 541.612 5.98392 1.00058 0
M  V30 5563 H 540.351 4.73174 1.18143 0
M  V30 5564 H 539.356 5.40182 -1.02388 0
M  V30 5565 H 540.581 6.68571 -1.1912 0
M  V30 5566 H 538.527 6.47655 1.04305 0
M  V30 5567 H 538.444 7.55355 -0.3123 0
M  V30 5568 H 539.712 7.74731 0.86098 0
M  V30 5569 N 543.941 0.601185 1.45683 0
M  V30 5570 C 545.357 0.264315 1.57396 0
M  V30 5571 C 545.557 -1.23324 1.59353 0
M  V30 5572 O 544.613 -2.01594 1.52039 0
M  V30 5573 C 545.926 0.929839 2.85962 0
M  V30 5574 C 547.474 0.905156 2.99626 0
M  V30 5575 C 547.949 1.55057 4.30954 0
M  V30 5576 N 549.44 1.51576 4.37697 0
M  V30 5577 C 550.175 1.98436 5.37969 0
M  V30 5578 N 549.671 2.53352 6.44813 0
M  V30 5579 N 551.464 1.89242 5.29286 0
M  V30 5580 H 543.615 1.57363 1.42656 0
M  V30 5581 H 545.878 0.658831 0.681649 0
M  V30 5582 H 545.584 1.98404 2.90394 0
M  V30 5583 H 545.458 0.449224 3.74515 0
M  V30 5584 H 547.845 -0.14048 2.94765 0
M  V30 5585 H 547.926 1.42397 2.12501 0
M  V30 5586 H 547.57 2.5955 4.36573 0
M  V30 5587 H 547.5 1.00682 5.16886 0
M  V30 5588 H 549.991 1.11452 3.61091 0
M  V30 5589 H 550.304 2.86918 7.17564 0
M  V30 5590 H 548.649 2.57388 6.45582 0
M  V30 5591 H 551.84 1.46083 4.44722 0
M  V30 5592 H 552.013 2.26075 6.07284 0
M  V30 5593 N 545.419 -1.53889 0.339982 0
M  V30 5594 C 546.667 -2.00458 -0.257112 0
M  V30 5595 C 546.988 -1.22953 -1.51353 0
M  V30 5596 O 546.258 -0.335734 -1.93002 0
M  V30 5597 H 544.838 -0.740544 -0.0979965 0
M  V30 5598 H 547.5 -1.89386 0.460317 0
M  V30 5599 H 546.596 -3.08035 -0.502057 0
M  V30 5600 N 546.897 -0.0685191 -1.57451 0
M  V30 5601 C 548.146 0.600898 -1.92541 0
M  V30 5602 C 548.459 1.70967 -0.950239 0
M  V30 5603 O 549.665 2.43844 -1.19384 0
M  V30 5604 C 548.121 1.12019 -3.42023 0
M  V30 5605 C 547.729 0.0426028 -4.4798 0
M  V30 5606 C 549.473 1.76386 -3.86119 0
M  V30 5607 C 547.38 0.575759 -5.88591 0
M  V30 5608 H 546.31 0.228225 -0.71863 0
M  V30 5609 H 548.961 -0.140223 -1.82963 0
M  V30 5610 H 547.343 1.91418 -3.46663 0
M  V30 5611 H 548.517 -0.73182 -4.54952 0
M  V30 5612 H 546.832 -0.504642 -4.13331 0
M  V30 5613 H 549.429 2.17302 -4.88553 0
M  V30 5614 H 549.772 2.62255 -3.23308 0
M  V30 5615 H 550.305 1.03615 -3.84069 0
M  V30 5616 H 547.044 -0.245691 -6.55039 0
M  V30 5617 H 546.564 1.31778 -5.85145 0
M  V30 5618 H 548.243 1.0532 -6.3837 0
M  V30 5619 N 548.375 1.56261 0.205012 0
M  V30 5620 C 549.622 1.8004 0.926927 0
M  V30 5621 C 549.95 0.640086 1.83666 0
M  V30 5622 O 549.205 -0.374702 1.92079 0
M  V30 5623 C 549.504 3.09722 1.78345 0
M  V30 5624 C 549.17 4.39082 1.02555 0
M  V30 5625 C 547.832 4.74226 0.816256 0
M  V30 5626 C 550.184 5.18877 0.491559 0
M  V30 5627 C 547.512 5.86668 0.0613287 0
M  V30 5628 C 549.864 6.32105 -0.250107 0
M  V30 5629 C 548.528 6.6584 -0.470508 0
M  V30 5630 H 547.798 0.658812 0.339187 0
M  V30 5631 H 550.445 1.90515 0.19395 0
M  V30 5632 H 548.75 2.9444 2.5848 0
M  V30 5633 H 550.447 3.25324 2.34446 0
M  V30 5634 H 547.037 4.11497 1.19868 0
M  V30 5635 H 551.221 4.92147 0.640684 0
M  V30 5636 H 546.477 6.11283 -0.119501 0
M  V30 5637 H 550.651 6.93157 -0.671307 0
M  V30 5638 H 548.278 7.5281 -1.05739 0
M  V30 5639 N 549.853 -0.472356 1.50355 0
M  V30 5640 C 551.099 -1.22634 1.6152 0
M  V30 5641 C 551.432 -1.91645 0.313995 0
M  V30 5642 O 550.707 -1.82059 -0.684446 0
M  V30 5643 C 550.99 -2.27099 2.7946 0
M  V30 5644 C 550.843 -1.62402 4.19459 0
M  V30 5645 C 552.162 -3.28421 2.92964 0
M  V30 5646 H 549.281 -0.444494 0.587873 0
M  V30 5647 H 551.923 -0.520321 1.82737 0
M  V30 5648 H 550.073 -2.87314 2.61501 0
M  V30 5649 H 551.745 -1.05793 4.49005 0
M  V30 5650 H 549.988 -0.927184 4.23776 0
M  V30 5651 H 550.659 -2.38309 4.97909 0
M  V30 5652 H 553.135 -2.78227 3.09401 0
M  V30 5653 H 552.011 -3.98845 3.77113 0
M  V30 5654 H 552.272 -3.92467 2.03525 0
M  V30 5655 N 551.331 -1.39911 -0.725443 0
M  V30 5656 C 552.58 -1.36963 -1.48068 0
M  V30 5657 C 552.893 0.0284478 -1.95579 0
M  V30 5658 O 554.099 0.180535 -2.70899 0
M  V30 5659 C 552.555 -2.40664 -2.67598 0
M  V30 5660 C 552.163 -3.86234 -2.26997 0
M  V30 5661 C 553.907 -2.46807 -3.45379 0
M  V30 5662 C 551.814 -4.81554 -3.43307 0
M  V30 5663 H 550.744 -0.509223 -0.556065 0
M  V30 5664 H 553.395 -1.65602 -0.790454 0
M  V30 5665 H 551.777 -2.05109 -3.38742 0
M  V30 5666 H 552.951 -4.3088 -1.63337 0
M  V30 5667 H 551.266 -3.83475 -1.62284 0
M  V30 5668 H 553.863 -3.15213 -4.31909 0
M  V30 5669 H 554.206 -1.49552 -3.8851 0
M  V30 5670 H 554.739 -2.81303 -2.81271 0
M  V30 5671 H 551.478 -5.80106 -3.05217 0
M  V30 5672 H 550.998 -4.4158 -4.05915 0
M  V30 5673 H 552.677 -5.0091 -4.0951 0
M  V30 5674 N 552.809 0.956637 -1.25245 0
M  V30 5675 C 554.057 1.69764 -1.09657 0
M  V30 5676 C 554.378 1.91583 0.363464 0
M  V30 5677 O 553.648 1.50149 1.25825 0
M  V30 5678 H 552.228 0.629097 -0.402798 0
M  V30 5679 H 554.89 1.15026 -1.57337 0
M  V30 5680 H 553.986 2.67769 -1.60331 0
M  V30 5681 N 554.287 1.06798 1.15896 0
M  V30 5682 C 555.534 0.787767 1.86549 0
M  V30 5683 C 555.862 -0.685959 1.82002 0
M  V30 5684 O 555.117 -1.5188 1.23414 0
M  V30 5685 C 555.416 1.23414 3.35416 0
M  V30 5686 C 555.082 2.71285 3.6016 0
M  V30 5687 C 553.744 3.11676 3.66622 0
M  V30 5688 C 556.096 3.6676 3.7032 0
M  V30 5689 C 553.424 4.4637 3.8075 0
M  V30 5690 C 555.776 5.01209 3.8597 0
M  V30 5691 C 554.44 5.41229 3.90676 0
M  V30 5692 H 553.71 0.288264 0.682631 0
M  V30 5693 H 556.357 1.338 1.37003 0
M  V30 5694 H 554.662 0.60319 3.87129 0
M  V30 5695 H 556.359 0.994298 3.88477 0
M  V30 5696 H 552.949 2.39015 3.55767 0
M  V30 5697 H 557.133 3.36685 3.64633 0
M  V30 5698 H 552.389 4.76855 3.82648 0
M  V30 5699 H 556.563 5.75067 3.92773 0
M  V30 5700 H 554.19 6.45602 4.01375 0
M  V30 5701 N 555.766 -1.3263 0.851289 0
M  V30 5702 C 556.991 -2.02097 0.466006 0
M  V30 5703 C 557.416 -1.63574 -0.928709 0
M  V30 5704 O 556.774 -0.834665 -1.60944 0
M  V30 5705 C 556.822 -3.55425 0.608737 0
M  V30 5706 O 555.926 -4.10827 -0.359878 0
M  V30 5707 H 555.267 -0.636911 0.187724 0
M  V30 5708 H 557.797 -1.69253 1.14955 0
M  V30 5709 H 557.807 -4.04986 0.495006 0
M  V30 5710 H 556.482 -3.82806 1.62581 0
M  V30 5711 H 555.059 -3.72349 -0.202666 0
M  V30 5712 N 557.244 -0.608902 -1.45362 0
M  V30 5713 C 558.474 -0.110852 -2.06302 0
M  V30 5714 C 558.882 1.21062 -1.45398 0
M  V30 5715 O 558.225 1.74861 -0.562976 0
M  V30 5716 C 558.287 0.101793 -3.59356 0
M  V30 5717 C 557.951 -1.13808 -4.42602 0
M  V30 5718 C 558.948 -2.05653 -4.77496 0
M  V30 5719 C 556.633 -1.36727 -4.83333 0
M  V30 5720 C 558.627 -3.18745 -5.51978 0
M  V30 5721 C 556.314 -2.5012 -5.57569 0
M  V30 5722 C 557.312 -3.40957 -5.91809 0
M  V30 5723 O 557 -4.52376 -6.64538 0
M  V30 5724 H 556.732 -0.0666001 -0.672711 0
M  V30 5725 H 559.286 -0.836942 -1.87575 0
M  V30 5726 H 557.516 0.88279 -3.76489 0
M  V30 5727 H 559.205 0.551607 -4.02134 0
M  V30 5728 H 559.971 -1.89172 -4.46586 0
M  V30 5729 H 555.85 -0.669216 -4.56117 0
M  V30 5730 H 559.394 -3.8967 -5.78622 0
M  V30 5731 H 555.291 -2.66553 -5.87894 0
M  V30 5732 H 556.059 -4.51075 -6.82989 0
M  V30 5733 N 558.722 1.53707 -0.348139 0
M  V30 5734 C 560.133 1.86213 0.134797 0
M  V30 5735 C 560.484 1.26925 1.49614 0
M  V30 5736 O 559.609 0.584573 2.08355 0
M  V30 5737 C 560.204 3.37866 0.251371 0
M  V30 5738 C 558.763 3.70233 0.678543 0
M  V30 5739 C 557.91 2.76683 -0.184925 0
M  V30 5740 H 560.861 1.48204 -0.567571 0
M  V30 5741 H 560.882 3.64908 1.07806 0
M  V30 5742 H 560.394 3.80988 -0.739581 0
M  V30 5743 H 558.495 3.32659 1.67835 0
M  V30 5744 H 558.608 4.76836 0.465251 0
M  V30 5745 H 556.972 2.52374 0.343465 0
M  V30 5746 H 557.755 3.22635 -1.1731 0
M  V30 5747 N 560.2 0.0768682 1.57412 0
M  V30 5748 C 561.446 -0.591961 1.93968 0
M  V30 5749 C 561.779 -1.68954 0.9575 0
M  V30 5750 O 561.054 -1.94496 -0.0124675 0
M  V30 5751 C 561.337 -1.16418 3.40762 0
M  V30 5752 C 561.19 -0.0728933 4.49741 0
M  V30 5753 C 562.509 -2.06814 3.88479 0
M  V30 5754 H 559.628 -0.213716 0.705333 0
M  V30 5755 H 562.27 0.14387 1.89455 0
M  V30 5756 H 560.42 -1.79128 3.4474 0
M  V30 5757 H 562.092 0.560446 4.57883 0
M  V30 5758 H 560.335 0.595859 4.29688 0
M  V30 5759 H 561.006 -0.513755 5.49604 0
M  V30 5760 H 563.482 -1.54033 3.8654 0
M  V30 5761 H 562.358 -2.43785 4.91793 0
M  V30 5762 H 562.619 -2.97844 3.26713 0
M  V30 5763 N 561.678 -1.56367 -0.196722 0
M  V30 5764 C 562.924 -1.80796 -0.918725 0
M  V30 5765 C 563.257 -0.650645 -1.82976 0
M  V30 5766 O 562.532 0.348889 -1.91345 0
M  V30 5767 C 562.815 -3.15472 -1.73636 0
M  V30 5768 C 562.668 -4.41693 -0.85015 0
M  V30 5769 C 563.987 -3.46824 -2.70927 0
M  V30 5770 H 561.106 -0.657702 -0.332561 0
M  V30 5771 H 563.748 -1.89086 -0.186186 0
M  V30 5772 H 561.898 -3.08536 -2.36088 0
M  V30 5773 H 563.57 -4.60673 -0.240459 0
M  V30 5774 H 561.813 -4.33517 -0.156785 0
M  V30 5775 H 562.484 -5.32419 -1.45719 0
M  V30 5776 H 564.96 -3.54049 -2.18607 0
M  V30 5777 H 563.836 -4.4218 -3.25219 0
M  V30 5778 H 564.097 -2.70236 -3.49893 0
M  V30 5779 N 563.156 0.464375 -1.50603 0
M  V30 5780 C 564.567 1.04507 -1.5471 0
M  V30 5781 C 564.918 1.9297 -0.354542 0
M  V30 5782 O 564.043 2.09763 0.531812 0
M  V30 5783 C 564.638 1.90207 -2.80369 0
M  V30 5784 C 563.197 2.43373 -2.87135 0
M  V30 5785 C 562.344 1.21886 -2.49076 0
M  V30 5786 H 565.295 0.246716 -1.56771 0
M  V30 5787 H 565.316 2.75353 -2.62604 0
M  V30 5788 H 564.828 1.25796 -3.67147 0
M  V30 5789 H 562.929 3.11318 -2.04724 0
M  V30 5790 H 563.042 2.7802 -3.90181 0
M  V30 5791 H 561.406 1.55575 -2.01664 0
M  V30 5792 H 562.189 0.591268 -3.3817 0
M  V30 5793 N 564.634 1.40294 0.718013 0
M  V30 5794 C 565.581 1.40367 1.8321 0
M  V30 5795 C 566.551 0.260952 1.64037 0
M  V30 5796 O 567.736 0.458648 1.85205 0
M  V30 5797 C 564.876 1.26965 3.20895 0
M  V30 5798 C 563.989 2.50922 3.51656 0
M  V30 5799 C 563.124 2.29981 4.78834 0
M  V30 5800 C 562.163 3.49527 5.02491 0
M  V30 5801 N 561.3 3.27796 6.20882 0
M  V30 5802 H 566.14 2.35593 1.82482 0
M  V30 5803 H 563.677 1.17012 0.891444 0
M  V30 5804 H 565.635 1.17202 4.00399 0
M  V30 5805 H 564.265 0.353591 3.20858 0
M  V30 5806 H 563.317 2.71223 2.66725 0
M  V30 5807 H 564.629 3.39913 3.65048 0
M  V30 5808 H 563.783 2.17558 5.66351 0
M  V30 5809 H 562.522 1.38411 4.67647 0
M  V30 5810 H 561.527 3.6243 4.1343 0
M  V30 5811 H 562.752 4.42021 5.15553 0
M  V30 5812 H 560.698 2.38906 6.1095 0
M  V30 5813 H 560.615 4.10351 6.34939 0
M  V30 5814 H 561.883 3.19101 7.11193 0
M  V30 5815 N 566.112 -0.949982 1.2575 0
M  V30 5816 C 567.36 -1.6918 1.10555 0
M  V30 5817 C 567.681 -1.91773 -0.353298 0
M  V30 5818 O 566.951 -1.50814 -1.25027 0
M  V30 5819 H 565.531 -0.626952 0.406129 0
M  V30 5820 H 568.193 -1.1419 1.57945 0
M  V30 5821 H 567.289 -2.66915 1.61749 0
M  V30 5822 N 567.59 -1.07411 -1.15328 0
M  V30 5823 C 568.537 -0.694995 -2.20087 0
M  V30 5824 C 569.507 0.313904 -1.63107 0
M  V30 5825 O 570.692 0.200216 -1.89747 0
M  V30 5826 C 567.832 -0.0996218 -3.44956 0
M  V30 5827 C 566.945 -1.16007 -4.16133 0
M  V30 5828 C 566.08 -0.529636 -5.28553 0
M  V30 5829 C 565.119 -1.57283 -5.91548 0
M  V30 5830 N 564.256 -0.964932 -6.95438 0
M  V30 5831 H 569.096 -1.5927 -2.51867 0
M  V30 5832 H 566.633 -0.796115 -1.23695 0
M  V30 5833 H 568.591 0.263197 -4.16369 0
M  V30 5834 H 567.221 0.761435 -3.13691 0
M  V30 5835 H 566.273 -1.64045 -3.4321 0
M  V30 5836 H 567.585 -1.95101 -4.59061 0
M  V30 5837 H 566.739 -0.114487 -6.06592 0
M  V30 5838 H 565.478 0.29307 -4.86819 0
M  V30 5839 H 564.483 -1.99775 -5.12221 0
M  V30 5840 H 565.708 -2.39783 -6.35359 0
M  V30 5841 H 563.654 -0.16314 -6.55797 0
M  V30 5842 H 563.571 -1.69311 -7.36797 0
M  V30 5843 H 564.839 -0.575305 -7.77374 0
M  V30 5844 N 569.068 1.32177 -0.85831 0
M  V30 5845 C 570.031 2.27086 -0.310588 0
M  V30 5846 C 571.031 1.51751 0.531806 0
M  V30 5847 O 572.221 1.70794 0.34279 0
M  V30 5848 C 569.353 3.36266 0.560179 0
M  V30 5849 H 570.546 2.77045 -1.1483 0
M  V30 5850 H 568.099 1.42911 -0.632942 0
M  V30 5851 H 568.834 2.9158 1.41956 0
M  V30 5852 H 568.619 3.92077 -0.0428473 0
M  V30 5853 H 570.109 4.06974 0.936056 0
M  V30 5854 N 570.547 0.616602 1.45037 0
M  V30 5855 C 571.963 0.280994 1.57107 0
M  V30 5856 C 572.163 -1.21627 1.60653 0
M  V30 5857 O 571.219 -1.9997 1.54169 0
M  V30 5858 C 572.532 0.960116 2.8496 0
M  V30 5859 C 574.08 0.936884 2.98649 0
M  V30 5860 C 574.555 1.59619 4.29285 0
M  V30 5861 N 576.046 1.5621 4.36065 0
M  V30 5862 C 576.781 2.04131 5.35834 0
M  V30 5863 N 576.277 2.60177 6.4209 0
M  V30 5864 N 578.07 1.94845 5.27249 0
M  V30 5865 H 570.221 1.58867 1.40979 0
M  V30 5866 H 572.484 0.666024 0.674623 0
M  V30 5867 H 572.19 2.01473 2.88273 0
M  V30 5868 H 572.064 0.488921 3.74018 0
M  V30 5869 H 574.451 -0.109209 2.94898 0
M  V30 5870 H 574.532 1.44643 2.10979 0
M  V30 5871 H 574.176 2.64166 4.33796 0
M  V30 5872 H 574.106 1.06159 5.15789 0
M  V30 5873 H 576.597 1.15276 3.59889 0
M  V30 5874 H 576.91 2.94513 7.1448 0
M  V30 5875 H 575.255 2.64221 6.42816 0
M  V30 5876 H 578.446 1.50792 4.43147 0
M  V30 5877 H 578.619 2.32504 6.04852 0
M  V30 5878 N 572.025 -1.5352 0.356285 0
M  V30 5879 C 573.274 -2.00298 -0.237373 0
M  V30 5880 C 573.587 -1.24784 -1.50627 0
M  V30 5881 O 574.793 -1.62103 -2.17795 0
M  V30 5882 C 573.249 -3.56771 -0.473545 0
M  V30 5883 C 572.857 -4.41154 0.780183 0
M  V30 5884 C 574.601 -4.1193 -1.02537 0
M  V30 5885 C 572.508 -5.89161 0.514108 0
M  V30 5886 H 571.438 -0.748307 -0.092478 0
M  V30 5887 H 574.089 -1.77283 0.473588 0
M  V30 5888 H 572.471 -3.75902 -1.24553 0
M  V30 5889 H 573.645 -4.33797 1.55425 0
M  V30 5890 H 571.96 -3.97052 1.25455 0
M  V30 5891 H 574.557 -5.20133 -1.2396 0
M  V30 5892 H 574.9 -3.65943 -1.98473 0
M  V30 5893 H 575.433 -3.96561 -0.313775 0
M  V30 5894 H 572.172 -6.39408 1.44355 0
M  V30 5895 H 571.692 -5.9939 -0.221632 0
M  V30 5896 H 573.371 -6.46857 0.136122 0
M  V30 5897 N 573.503 -0.0852151 -1.57369 0
M  V30 5898 C 574.919 0.271436 -1.57275 0
M  V30 5899 C 575.119 1.69109 -1.09565 0
M  V30 5900 O 574.175 2.40549 -0.767611 0
M  V30 5901 C 575.488 0.0688638 -3.00621 0
M  V30 5902 C 577.036 0.137373 -3.12698 0
M  V30 5903 C 577.511 -0.0370832 -4.57985 0
M  V30 5904 N 579.002 0.0180794 -4.63196 0
M  V30 5905 C 579.737 -0.0922953 -5.73326 0
M  V30 5906 N 579.233 -0.256948 -6.92323 0
M  V30 5907 N 581.026 -0.0342702 -5.6209 0
M  V30 5908 H 573.177 -1.01288 -1.86693 0
M  V30 5909 H 575.44 -0.396138 -0.861266 0
M  V30 5910 H 575.146 -0.911277 -3.39689 0
M  V30 5911 H 575.02 0.815442 -3.6828 0
M  V30 5912 H 577.407 1.10801 -2.73509 0
M  V30 5913 H 577.488 -0.640532 -2.47651 0
M  V30 5914 H 577.132 -1.00455 -4.97867 0
M  V30 5915 H 577.062 0.760392 -5.21081 0
M  V30 5916 H 579.553 0.143202 -3.77629 0
M  V30 5917 H 579.866 -0.332949 -7.72082 0
M  V30 5918 H 578.211 -0.292487 -6.94384 0
M  V30 5919 H 581.402 0.0931605 -4.68007 0
M  V30 5920 H 581.575 -0.12374 -6.47882 0
M  V30 5921 N 574.981 1.5647 0.188427 0
M  V30 5922 C 576.227 1.81281 0.909124 0
M  V30 5923 C 576.56 0.66034 1.82628 0
M  V30 5924 O 575.835 -0.338737 1.91528 0
M  V30 5925 C 576.118 3.16388 1.7196 0
M  V30 5926 C 575.971 4.42137 0.826714 0
M  V30 5927 C 577.29 3.48256 2.69083 0
M  V30 5928 H 574.409 0.659457 0.329068 0
M  V30 5929 H 577.051 1.89182 0.176156 0
M  V30 5930 H 575.201 3.09784 2.34448 0
M  V30 5931 H 576.873 4.60794 0.216025 0
M  V30 5932 H 575.116 4.33594 0.133792 0
M  V30 5933 H 575.787 5.33184 1.42893 0
M  V30 5934 H 578.263 3.55203 2.16726 0
M  V30 5935 H 577.139 4.43899 3.2287 0
M  V30 5936 H 577.4 2.72088 3.48455 0
M  V30 5937 N 576.459 -0.456382 1.50847 0
M  V30 5938 C 577.391 -1.57033 1.66953 0
M  V30 5939 C 578.404 -1.53207 0.550593 0
M  V30 5940 O 579.593 -1.58328 0.824285 0
M  V30 5941 C 576.693 -2.95937 1.65149 0
M  V30 5942 C 575.866 -3.24475 2.93317 0
M  V30 5943 C 574.925 -4.43007 2.83957 0
M  V30 5944 O 573.951 -4.42592 3.57912 0
M  V30 5945 N 575.153 -5.45503 1.9851 0
M  V30 5946 H 577.918 -1.43629 2.63042 0
M  V30 5947 H 575.479 -0.645037 1.48495 0
M  V30 5948 H 577.471 -3.73224 1.56481 0
M  V30 5949 H 576.041 -3.03036 0.767343 0
M  V30 5950 H 575.261 -2.35664 3.16 0
M  V30 5951 H 576.549 -3.4036 3.78196 0
M  V30 5952 H 575.947 -5.48668 1.37766 0
M  V30 5953 H 574.504 -6.21716 1.95735 0
M  V30 5954 N 577.937 -1.40673 -0.710563 0
M  V30 5955 C 579.186 -1.38525 -1.46607 0
M  V30 5956 C 579.499 0.0077024 -1.95598 0
M  V30 5957 O 580.705 0.151792 -2.71075 0
M  V30 5958 C 579.161 -2.43489 -2.6503 0
M  V30 5959 C 578.769 -3.88619 -2.22888 0
M  V30 5960 C 580.513 -2.50456 -3.42742 0
M  V30 5961 C 578.42 -4.85168 -3.3818 0
M  V30 5962 H 577.35 -0.515092 -0.550632 0
M  V30 5963 H 580.001 -1.66431 -0.772846 0
M  V30 5964 H 578.383 -2.0869 -3.36548 0
M  V30 5965 H 579.557 -4.32588 -1.58758 0
M  V30 5966 H 577.872 -3.85174 -1.58208 0
M  V30 5967 H 580.469 -3.19776 -4.28541 0
M  V30 5968 H 580.812 -1.53665 -3.86902 0
M  V30 5969 H 581.345 -2.84271 -2.78271 0
M  V30 5970 H 578.084 -5.8331 -2.99047 0
M  V30 5971 H 577.604 -4.4586 -4.01209 0
M  V30 5972 H 579.283 -5.05225 -4.04174 0
M  V30 5973 N 579.415 0.9433 -1.26252 0
M  V30 5974 C 580.64 1.72898 -1.14547 0
M  V30 5975 C 581.065 1.85761 0.295743 0
M  V30 5976 O 580.423 1.3463 1.21427 0
M  V30 5977 C 580.471 3.11471 -1.8171 0
M  V30 5978 O 579.575 3.97336 -1.10445 0
M  V30 5979 H 578.916 0.530555 -0.399259 0
M  V30 5980 H 581.446 1.18159 -1.67032 0
M  V30 5981 H 581.456 3.61872 -1.88449 0
M  V30 5982 H 580.131 3.01425 -2.86558 0
M  V30 5983 H 578.708 3.55788 -1.11666 0
M  V30 5984 N 580.893 1.08022 1.14757 0
M  V30 5985 C 581.856 0.71048 2.1791 0
M  V30 5986 C 582.856 -0.252731 1.58801 0
M  V30 5987 O 584.046 -0.0327915 1.74169 0
M  V30 5988 C 581.178 0.0483203 3.40866 0
M  V30 5989 H 582.371 1.62384 2.52134 0
M  V30 5990 H 579.924 0.877595 1.29337 0
M  V30 5991 H 580.659 -0.876959 3.12218 0
M  V30 5992 H 580.444 0.741189 3.85031 0
M  V30 5993 H 581.934 -0.195471 4.17142 0
M  V30 5994 N 582.371 -1.3172 0.865308 0
M  V30 5995 C 583.617 -1.97168 0.474633 0
M  V30 5996 C 583.95 -1.68263 -0.969604 0
M  V30 5997 O 583.225 -0.976588 -1.68205 0
M  V30 5998 C 583.508 -3.52689 0.726808 0
M  V30 5999 C 583.361 -3.91185 2.22024 0
M  V30 6000 C 584.68 -4.39689 0.190201 0
M  V30 6001 H 581.799 -0.716185 0.17392 0
M  V30 6002 H 584.441 -1.55925 1.08569 0
M  V30 6003 H 582.591 -3.8795 0.206705 0
M  V30 6004 H 584.263 -3.66049 2.80724 0
M  V30 6005 H 582.506 -3.3996 2.69462 0
M  V30 6006 H 583.177 -4.99604 2.34735 0
M  V30 6007 H 585.653 -4.11225 0.635103 0
M  V30 6008 H 584.529 -5.47469 0.396132 0
M  V30 6009 H 584.79 -4.32683 -0.907625 0
M  V30 6010 N 583.85 -0.624285 -1.44708 0
M  V30 6011 C 584.8 0.106466 -2.27751 0
M  V30 6012 C 585.784 0.822703 -1.38277 0
M  V30 6013 O 586.976 0.709939 -1.62138 0
M  V30 6014 C 584.105 1.092 -3.25469 0
M  V30 6015 C 583.191 0.375737 -4.22432 0
M  V30 6016 N 583.582 -0.591881 -5.02325 0
M  V30 6017 C 581.88 0.621093 -4.41654 0
M  V30 6018 C 582.581 -1.01443 -5.72786 0
M  V30 6019 N 581.557 -0.354651 -5.42442 0
M  V30 6020 H 585.359 -0.636464 -2.86926 0
M  V30 6021 H 582.873 -0.44925 -1.56062 0
M  V30 6022 H 584.87 1.63006 -3.83712 0
M  V30 6023 H 583.529 1.8353 -2.67856 0
M  V30 6024 H 584.541 -0.969389 -5.08747 0
M  V30 6025 H 581.218 1.34779 -3.95147 0
M  V30 6026 H 582.608 -1.81345 -6.46965 0
M  V30 6027 N 585.328 1.53329 -0.364422 0
M  V30 6028 C 586.553 2.06132 0.229033 0
M  V30 6029 C 586.978 1.23625 1.41769 0
M  V30 6030 O 586.336 0.255038 1.79497 0
M  V30 6031 C 586.384 3.55544 0.60174 0
M  V30 6032 O 585.488 3.75771 1.69912 0
M  V30 6033 H 584.829 0.663148 0.0336213 0
M  V30 6034 H 587.359 1.97758 -0.524689 0
M  V30 6035 H 587.369 3.98549 0.873073 0
M  V30 6036 H 586.044 4.15039 -0.267421 0
M  V30 6037 H 584.621 3.44663 1.42343 0
M  V30 6038 N 586.806 0.0935595 1.57322 0
M  V30 6039 C 587.716 -0.880192 2.17462 0
M  V30 6040 C 588.732 -1.31135 1.14366 0
M  V30 6041 O 589.908 -1.37958 1.46729 0
M  V30 6042 C 586.973 -2.12184 2.74188 0
M  V30 6043 C 586.034 -1.74503 3.92234 0
M  V30 6044 C 585.267 -2.92748 4.46245 0
M  V30 6045 O 585.49 -4.07427 3.99198 0
M  V30 6046 O 584.424 -2.71303 5.37288 0
M  V30 6047 H 588.25 -0.398516 3.01074 0
M  V30 6048 H 585.835 -0.130707 1.48827 0
M  V30 6049 H 587.717 -2.84953 3.10451 0
M  V30 6050 H 586.392 -2.59407 1.93623 0
M  V30 6051 H 585.299 -0.989186 3.60785 0
M  V30 6052 H 586.632 -1.32044 4.74157 0
M  V30 6053 N 588.284 -1.56567 -0.180126 0
M  V30 6054 C 589.194 -1.98947 -1.24327 0
M  V30 6055 C 590.21 -0.899446 -1.4895 0
M  V30 6056 O 591.386 -1.20639 -1.61271 0
M  V30 6057 C 588.451 -2.33328 -2.56435 0
M  V30 6058 C 587.512 -3.56114 -2.39752 0
M  V30 6059 C 586.745 -3.88845 -3.65561 0
M  V30 6060 O 586.968 -3.22662 -4.70368 0
M  V30 6061 O 585.902 -4.82226 -3.60197 0
M  V30 6062 H 589.728 -2.89634 -0.913565 0
M  V30 6063 H 587.313 -1.44319 -0.386306 0
M  V30 6064 H 589.195 -2.5645 -3.34382 0
M  V30 6065 H 587.87 -1.45806 -2.89002 0
M  V30 6066 H 586.777 -3.38221 -1.59866 0
M  V30 6067 H 588.11 -4.4415 -2.12113 0
M  V30 6068 N 589.762 0.448376 -1.51087 0
M  V30 6069 C 591.039 1.20926 -1.53741 0
M  V30 6070 C 591.419 2.09025 -0.295222 0
M  V30 6071 O 590.767 2.16851 0.720283 0
M  V30 6072 C 590.977 2.02067 -2.84552 0
M  V30 6073 C 592.325 2.59486 -3.36084 0
M  V30 6074 O 593.349 2.12289 -2.86028 0
M  V30 6075 O 592.208 3.45539 -4.23397 0
M  V30 6076 H 589.302 0.549951 -0.617643 0
M  V30 6077 H 591.848 0.458344 -1.63393 0
M  V30 6078 H 590.62 1.37291 -3.66425 0
M  V30 6079 H 590.243 2.84246 -2.78011 0
M  V30 6080 N 591.24 1.41047 0.703093 0
M  V30 6081 C 592.489 1.39301 1.4587 0
M  V30 6082 C 592.802 0.00267077 1.956 0
M  V30 6083 O 594.008 -0.137414 2.71152 0
M  V30 6084 C 592.464 2.44891 2.63735 0
M  V30 6085 C 592.072 3.89796 2.20824 0
M  V30 6086 C 593.816 2.5227 3.41409 0
M  V30 6087 C 591.723 4.86955 3.35602 0
M  V30 6088 H 590.653 0.518005 0.547893 0
M  V30 6089 H 593.304 1.66839 0.764009 0
M  V30 6090 H 591.686 2.10472 3.35436 0
M  V30 6091 H 592.86 4.33424 1.56461 0
M  V30 6092 H 591.175 3.86008 1.56163 0
M  V30 6093 H 593.772 3.22044 4.26839 0
M  V30 6094 H 594.115 1.55714 3.86081 0
M  V30 6095 H 594.648 2.85742 2.7676 0
M  V30 6096 H 591.387 5.84888 2.9595 0
M  V30 6097 H 590.907 4.47982 3.98839 0
M  V30 6098 H 592.586 5.07361 4.01489 0
M  V30 6099 N 592.718 -0.936591 1.26751 0
M  V30 6100 C 593.995 -1.66094 1.03306 0
M  V30 6101 C 594.375 -2.06568 -0.435058 0
M  V30 6102 O 593.723 -1.79305 -1.41641 0
M  V30 6103 C 593.933 -2.86969 1.98619 0
M  V30 6104 C 595.281 -3.58516 2.27489 0
M  V30 6105 O 596.305 -2.97082 1.96522 0
M  V30 6106 O 595.164 -4.69181 2.80235 0
M  V30 6107 H 592.258 -0.727568 0.393158 0
M  V30 6108 H 594.804 -0.987914 1.3798 0
M  V30 6109 H 593.576 -2.53985 2.9767 0
M  V30 6110 H 593.199 -3.61996 1.64454 0
M  V30 6111 N 594.196 -1.08629 -1.14182 0
M  V30 6112 C 595.612 -0.814363 -1.3726 0
M  V30 6113 C 595.812 0.575271 -1.93114 0
M  V30 6114 O 594.868 1.33165 -2.1453 0
M  V30 6115 C 596.181 -1.8989 -2.33157 0
M  V30 6116 C 597.729 -1.92518 -2.46791 0
M  V30 6117 C 598.204 -3.00092 -3.45989 0
M  V30 6118 N 599.695 -2.99279 -3.53534 0
M  V30 6119 C 600.43 -3.79158 -4.30147 0
M  V30 6120 N 599.926 -4.68923 -5.09983 0
M  V30 6121 N 601.719 -3.67451 -4.25366 0
M  V30 6122 H 593.87 -1.98232 -0.762758 0
M  V30 6123 H 596.133 -0.860383 -0.398051 0
M  V30 6124 H 595.839 -2.89809 -1.99257 0
M  V30 6125 H 595.713 -1.77013 -3.33086 0
M  V30 6126 H 598.1 -0.932425 -2.79982 0
M  V30 6127 H 598.181 -2.09473 -1.46816 0
M  V30 6128 H 597.825 -3.99575 -3.13532 0
M  V30 6129 H 597.755 -2.80382 -4.45751 0
M  V30 6130 H 600.246 -2.3422 -2.96563 0
M  V30 6131 H 600.559 -5.26475 -5.65724 0
M  V30 6132 H 598.904 -4.72964 -5.09244 0
M  V30 6133 H 602.095 -2.9669 -3.62067 0
M  V30 6134 H 602.268 -4.29944 -4.84822 0
M  V30 6135 N 595.674 1.31259 -0.872281 0
M  V30 6136 C 596.914 1.98418 -0.490894 0
M  V30 6137 C 597.278 1.67429 0.939755 0
M  V30 6138 O 598.479 2.27818 1.42661 0
M  V30 6139 C 596.75 3.49583 -0.743408 0
M  V30 6140 S 598.309 4.36359 -0.462226 0
M  V30 6141 H 595.127 0.687005 -0.183151 0
M  V30 6142 H 597.729 1.59619 -1.12881 0
M  V30 6143 H 596.433 3.69627 -1.78338 0
M  V30 6144 H 595.964 3.93291 -0.0925758 0
M  V30 6145 H 597.979 4.91173 0.704525 0
M  V30 6146 N 597.152 0.631951 1.44375 0
M  V30 6147 C 598.398 0.13697 2.02337 0
M  V30 6148 C 598.731 -1.23826 1.49602 0
M  V30 6149 O 598.006 -1.8221 0.680415 0
M  V30 6150 C 598.289 0.124536 3.59885 0
M  V30 6151 C 598.142 1.53217 4.229 0
M  V30 6152 C 599.461 -0.550481 4.36644 0
M  V30 6153 H 596.58 0.051247 0.735216 0
M  V30 6154 H 599.222 0.808581 1.71936 0
M  V30 6155 H 597.372 -0.44737 3.85916 0
M  V30 6156 H 599.044 2.15303 4.07973 0
M  V30 6157 H 597.287 2.0858 3.80364 0
M  V30 6158 H 597.958 1.4755 5.31914 0
M  V30 6159 H 600.434 -0.0641154 4.16051 0
M  V30 6160 H 599.31 -0.528371 5.46351 0
M  V30 6161 H 599.571 -1.62097 4.11311 0
M  V30 6162 N 598.631 -1.53133 0.372548 0
M  V30 6163 C 599.541 -2.29671 -0.478379 0
M  V30 6164 C 600.557 -1.35913 -1.08644 0
M  V30 6165 O 601.733 -1.68975 -1.09588 0
M  V30 6166 C 598.798 -3.07625 -1.599 0
M  V30 6167 C 597.859 -4.17061 -1.01776 0
M  V30 6168 C 597.092 -4.91289 -2.08497 0
M  V30 6169 O 597.315 -4.65442 -3.29727 0
M  V30 6170 O 596.249 -5.7705 -1.71164 0
M  V30 6171 H 600.075 -3.03355 0.144649 0
M  V30 6172 H 597.66 -1.48773 0.136729 0
M  V30 6173 H 599.542 -3.56281 -2.25038 0
M  V30 6174 H 598.217 -2.3677 -2.2073 0
M  V30 6175 H 597.124 -3.72641 -0.330098 0
M  V30 6176 H 598.457 -4.90102 -0.453915 0
M  V30 6177 N 600.109 -0.101901 -1.5727 0
M  V30 6178 C 601.072 0.840129 -2.13247 0
M  V30 6179 C 602.072 1.20625 -1.06331 0
M  V30 6180 O 603.262 1.13456 -1.32186 0
M  V30 6181 C 600.394 2.13372 -2.65867 0
M  V30 6182 H 601.587 0.353945 -2.97804 0
M  V30 6183 H 599.14 0.147167 -1.55606 0
M  V30 6184 H 599.875 2.66461 -1.84849 0
M  V30 6185 H 599.66 1.88085 -3.44044 0
M  V30 6186 H 601.15 2.80748 -3.09145 0
M  V30 6187 N 601.587 1.56661 0.17182 0
M  V30 6188 C 602.834 1.81965 0.888529 0
M  V30 6189 C 603.162 0.6789 1.82267 0
M  V30 6190 O 602.417 -0.333875 1.92831 0
M  V30 6191 C 602.716 3.13435 1.71736 0
M  V30 6192 C 602.382 4.41159 0.932184 0
M  V30 6193 C 601.044 4.75851 0.715481 0
M  V30 6194 C 603.396 5.19803 0.381387 0
M  V30 6195 C 600.724 5.86666 -0.063126 0
M  V30 6196 C 603.076 6.31433 -0.384129 0
M  V30 6197 C 601.74 6.64692 -0.611637 0
M  V30 6198 H 601.01 0.665859 0.325136 0
M  V30 6199 H 603.657 1.90884 0.153495 0
M  V30 6200 H 601.962 2.99857 2.52177 0
M  V30 6201 H 603.659 3.30224 2.27493 0
M  V30 6202 H 600.249 4.13947 1.11112 0
M  V30 6203 H 604.433 4.93396 0.536148 0
M  V30 6204 H 599.689 6.10892 -0.249136 0
M  V30 6205 H 603.863 6.91577 -0.818185 0
M  V30 6206 H 601.49 7.50398 -1.21684 0
M  V30 6207 N 603.065 -0.440357 1.51323 0
M  V30 6208 C 604.311 -1.19181 1.64085 0
M  V30 6209 C 604.644 -1.90936 0.354575 0
M  V30 6210 O 603.919 -1.8347 -0.645675 0
M  V30 6211 C 604.202 -2.2112 2.84215 0
M  V30 6212 C 604.055 -1.53468 4.22809 0
M  V30 6213 C 605.374 -3.22133 2.99864 0
M  V30 6214 H 602.493 -0.431924 0.597169 0
M  V30 6215 H 605.135 -0.481443 1.83799 0
M  V30 6216 H 603.285 -2.81703 2.67537 0
M  V30 6217 H 604.957 -0.962455 4.51148 0
M  V30 6218 H 603.2 -0.837086 4.25647 0
M  V30 6219 H 603.871 -2.27694 5.02852 0
M  V30 6220 H 606.347 -2.71601 3.15233 0
M  V30 6221 H 605.223 -3.90756 3.85488 0
M  V30 6222 H 605.484 -3.88061 2.11804 0
M  V30 6223 N 604.543 -1.41418 -0.695603 0
M  V30 6224 C 605.453 -1.45622 -1.83933 0
M  V30 6225 C 606.469 -0.346825 -1.70508 0
M  V30 6226 O 607.645 -0.59454 -1.92424 0
M  V30 6227 C 604.71 -1.33627 -3.19914 0
M  V30 6228 C 603.771 -2.54882 -3.45447 0
M  V30 6229 C 603.004 -2.43449 -4.7494 0
M  V30 6230 O 603.227 -1.45905 -5.51424 0
M  V30 6231 O 602.161 -3.33206 -5.01256 0
M  V30 6232 H 605.987 -2.42114 -1.83342 0
M  V30 6233 H 603.572 -1.22956 -0.848658 0
M  V30 6234 H 605.454 -1.29221 -4.01098 0
M  V30 6235 H 604.129 -0.402508 -3.21188 0
M  V30 6236 H 603.036 -2.64865 -2.64192 0
M  V30 6237 H 604.369 -3.47087 -3.48987 0
M  V30 6238 N 606.021 0.929856 -1.27246 0
M  V30 6239 C 607.267 1.6798 -1.13625 0
M  V30 6240 C 607.6 1.91586 0.317589 0
M  V30 6241 O 606.875 1.50467 1.23247 0
M  V30 6242 C 607.158 3.04766 -1.91806 0
M  V30 6243 C 607.011 2.88415 -3.45162 0
M  V30 6244 C 608.33 4.05063 -1.72082 0
M  V30 6245 H 605.449 0.609632 -0.414147 0
M  V30 6246 H 608.091 1.0792 -1.56376 0
M  V30 6247 H 606.241 3.56034 -1.55474 0
M  V30 6248 H 607.913 2.44282 -3.91311 0
M  V30 6249 H 606.156 2.23802 -3.71611 0
M  V30 6250 H 606.827 3.85482 -3.95105 0
M  V30 6251 H 609.303 3.62798 -2.03757 0
M  V30 6252 H 608.179 4.98765 -2.29182 0
M  V30 6253 H 608.44 4.37021 -0.668206 0
M  V30 6254 N 607.499 1.09233 1.13605 0
M  V30 6255 C 608.747 0.825525 1.84471 0
M  V30 6256 C 609.068 -0.650702 1.83823 0
M  V30 6257 O 608.338 -1.47204 1.29259 0
M  V30 6258 H 606.918 0.3024 0.683054 0
M  V30 6259 H 609.58 1.38006 1.37624 0
M  V30 6260 H 608.676 1.17727 2.89045 0
M  V30 6261 N 608.977 -1.30795 0.87923 0
M  V30 6262 C 610.393 -1.48981 0.57243 0
M  V30 6263 C 610.593 -1.80719 -0.891236 0
M  V30 6264 O 609.649 -1.89136 -1.67283 0
M  V30 6265 C 610.962 -2.61721 1.48063 0
M  V30 6266 C 612.51 -2.75603 1.48365 0
M  V30 6267 C 612.985 -3.91449 2.37763 0
M  V30 6268 N 614.476 -3.98751 2.35695 0
M  V30 6269 C 615.211 -4.87684 3.01583 0
M  V30 6270 N 614.707 -5.81454 3.76674 0
M  V30 6271 N 616.5 -4.81005 2.90844 0
M  V30 6272 H 608.651 -1.08465 1.82617 0
M  V30 6273 H 610.914 -0.536813 0.781368 0
M  V30 6274 H 610.62 -2.45073 2.52254 0
M  V30 6275 H 610.494 -3.58071 1.18596 0
M  V30 6276 H 612.881 -2.9166 0.44927 0
M  V30 6277 H 612.962 -1.79891 1.81859 0
M  V30 6278 H 612.606 -3.76149 3.41283 0
M  V30 6279 H 612.536 -4.86487 2.01589 0
M  V30 6280 H 615.027 -3.31668 1.81121 0
M  V30 6281 H 615.34 -6.46063 4.24054 0
M  V30 6282 H 613.685 -5.81403 3.80782 0
M  V30 6283 H 616.876 -4.06728 2.31711 0
M  V30 6284 H 617.049 -5.50107 3.42471 0
M  V30 6285 N 610.455 -0.639598 -1.44038 0
M  V30 6286 C 611.385 0.0469443 -2.33453 0
M  V30 6287 C 612.366 0.82609 -1.48694 0
M  V30 6288 O 613.551 0.790285 -1.77393 0
M  V30 6289 C 610.681 1.02338 -3.3188 0
M  V30 6290 C 609.635 0.355284 -4.26523 0
M  V30 6291 C 608.961 1.44221 -5.14883 0
M  V30 6292 C 610.261 -0.743798 -5.16977 0
M  V30 6293 H 611.955 -0.699735 -2.91108 0
M  V30 6294 H 609.501 -0.337946 -1.39978 0
M  V30 6295 H 611.454 1.51247 -3.93322 0
M  V30 6296 H 610.178 1.80105 -2.72451 0
M  V30 6297 H 608.837 -0.113239 -3.66425 0
M  V30 6298 H 608.485 2.21097 -4.51802 0
M  V30 6299 H 608.185 1.00052 -5.79019 0
M  V30 6300 H 609.709 1.93295 -5.79197 0
M  V30 6301 H 611.123 -0.337444 -5.72306 0
M  V30 6302 H 609.52 -1.10914 -5.89761 0
M  V30 6303 H 610.59 -1.60745 -4.57481 0
M  V30 6304 N 611.933 1.52934 -0.380664 0
M  V30 6305 C 612.883 2.22989 0.475399 0
M  V30 6306 C 613.867 1.23058 1.03661 0
M  V30 6307 O 615.059 1.48436 0.964146 0
M  V30 6308 C 612.188 3.0338 1.60671 0
M  V30 6309 C 611.274 4.107 1.05766 0
M  V30 6310 N 611.665 5.05264 0.232837 0
M  V30 6311 C 609.963 4.25676 1.33101 0
M  V30 6312 C 610.664 5.81658 -0.0695134 0
M  V30 6313 N 609.64 5.40989 0.532144 0
M  V30 6314 H 613.442 2.93456 -0.161418 0
M  V30 6315 H 610.956 1.61291 -0.189495 0
M  V30 6316 H 612.953 3.52098 2.23232 0
M  V30 6317 H 611.613 2.34446 2.24644 0
M  V30 6318 H 612.624 5.17739 -0.129204 0
M  V30 6319 H 609.301 3.6797 1.97241 0
M  V30 6320 H 610.691 6.67843 -0.737269 0
M  V30 6321 N 613.412 0.11024 1.57214 0
M  V30 6322 C 614.66 -0.548783 1.94506 0
M  V30 6323 C 614.981 -1.67772 0.99386 0
M  V30 6324 O 614.251 -1.9584 0.0485841 0
M  V30 6325 H 612.831 -0.205715 0.718116 0
M  V30 6326 H 615.493 0.177127 1.94093 0
M  V30 6327 H 614.589 -0.949096 2.97319 0
M  V30 6328 N 614.89 -1.56749 -0.16351 0
M  V30 6329 C 615.853 -1.96121 -1.18613 0
M  V30 6330 C 616.853 -0.845765 -1.36761 0
M  V30 6331 O 618.043 -1.11268 -1.34033 0
M  V30 6332 C 615.175 -2.26282 -2.54969 0
M  V30 6333 H 616.368 -2.87639 -0.848764 0
M  V30 6334 H 613.921 -1.50928 -0.406251 0
M  V30 6335 H 614.656 -1.37504 -2.93706 0
M  V30 6336 H 614.441 -3.07595 -2.43162 0
M  V30 6337 H 615.931 -2.57638 -3.28653 0
M  V30 6338 N 616.368 0.432326 -1.51554 0
M  V30 6339 C 617.298 1.53242 -1.76179 0
M  V30 6340 C 618.279 1.58717 -0.611801 0
M  V30 6341 O 619.464 1.74364 -0.855033 0
M  V30 6342 C 616.594 2.91278 -1.89141 0
M  V30 6343 C 615.548 3.00663 -3.04608 0
M  V30 6344 C 614.874 4.40728 -3.02759 0
M  V30 6345 C 616.174 2.74281 -4.44485 0
M  V30 6346 H 617.868 1.32886 -2.68294 0
M  V30 6347 H 615.414 0.637841 -1.29103 0
M  V30 6348 H 617.367 3.68203 -2.04951 0
M  V30 6349 H 616.091 3.12877 -0.936785 0
M  V30 6350 H 614.75 2.26179 -2.88511 0
M  V30 6351 H 614.398 4.59301 -2.05065 0
M  V30 6352 H 614.098 4.47936 -3.80299 0
M  V30 6353 H 615.622 5.19619 -3.20669 0
M  V30 6354 H 617.036 3.40936 -4.60907 0
M  V30 6355 H 615.433 2.92893 -5.23769 0
M  V30 6356 H 616.503 1.69856 -4.54177 0
M  V30 6357 N 617.846 1.41785 0.688094 0
M  V30 6358 C 619.257 1.3701 1.26828 0
M  V30 6359 C 619.608 0.056835 1.96118 0
M  V30 6360 O 618.733 -0.84475 1.99231 0
M  V30 6361 C 619.328 2.48168 2.30648 0
M  V30 6362 C 617.887 2.46766 2.84224 0
M  V30 6363 C 617.034 2.27633 1.58361 0
M  V30 6364 H 619.985 1.51192 0.482351 0
M  V30 6365 H 620.006 2.17655 3.121 0
M  V30 6366 H 619.518 3.43735 1.80188 0
M  V30 6367 H 617.619 1.54978 3.3884 0
M  V30 6368 H 617.732 3.43342 3.34145 0
M  V30 6369 H 616.096 1.75648 1.84445 0
M  V30 6370 H 616.879 3.25238 1.09887 0
M  V30 6371 O 619.363 -0.830368 1.38518 0
M  V30 6372 H 620.054 -1.47302 1.25785 0
M  V30 END ATOM
M  V30 BEGIN BOND
M  V30 END BOND
M  V30 END CTAB
M  END
$$$$
